# Generated by pormake.
# Topology wne, (6)-cn, num edge types: 1
# Building blocks:
#     Node 0, Type 0, BuildingBlock: GEDQOX_clean_sbu_0, # of connection points: 6
#     Node 1, Type 0, BuildingBlock: GEDQOX_clean_sbu_0, # of connection points: 6
#     Node 2, Type 0, BuildingBlock: GEDQOX_clean_sbu_0, # of connection points: 6
#     Node 3, Type 0, BuildingBlock: GEDQOX_clean_sbu_0, # of connection points: 6
#     Node 4, Type 0, BuildingBlock: GEDQOX_clean_sbu_0, # of connection points: 6
#     Node 5, Type 0, BuildingBlock: GEDQOX_clean_sbu_0, # of connection points: 6
#     Node 6, Type 0, BuildingBlock: GEDQOX_clean_sbu_0, # of connection points: 6
#     Node 7, Type 0, BuildingBlock: GEDQOX_clean_sbu_0, # of connection points: 6
#     Node 8, Type 0, BuildingBlock: GEDQOX_clean_sbu_0, # of connection points: 6
#     Node 9, Type 0, BuildingBlock: GEDQOX_clean_sbu_0, # of connection points: 6
#     Node 10, Type 0, BuildingBlock: GEDQOX_clean_sbu_0, # of connection points: 6
#     Node 11, Type 0, BuildingBlock: GEDQOX_clean_sbu_0, # of connection points: 6
#     Node 12, Type 0, BuildingBlock: GEDQOX_clean_sbu_0, # of connection points: 6
#     Node 13, Type 0, BuildingBlock: GEDQOX_clean_sbu_0, # of connection points: 6
#     Node 14, Type 0, BuildingBlock: GEDQOX_clean_sbu_0, # of connection points: 6
#     Node 15, Type 0, BuildingBlock: GEDQOX_clean_sbu_0, # of connection points: 6
#     Node 16, Type 0, BuildingBlock: GEDQOX_clean_sbu_0, # of connection points: 6
#     Node 17, Type 0, BuildingBlock: GEDQOX_clean_sbu_0, # of connection points: 6
#     Node 18, Type 0, BuildingBlock: GEDQOX_clean_sbu_0, # of connection points: 6
#     Node 19, Type 0, BuildingBlock: GEDQOX_clean_sbu_0, # of connection points: 6
#     Node 20, Type 0, BuildingBlock: GEDQOX_clean_sbu_0, # of connection points: 6
#     Node 21, Type 0, BuildingBlock: GEDQOX_clean_sbu_0, # of connection points: 6
#     Node 22, Type 0, BuildingBlock: GEDQOX_clean_sbu_0, # of connection points: 6
#     Node 23, Type 0, BuildingBlock: GEDQOX_clean_sbu_0, # of connection points: 6
#     Node 24, Type 0, BuildingBlock: GEDQOX_clean_sbu_0, # of connection points: 6
#     Node 25, Type 0, BuildingBlock: GEDQOX_clean_sbu_0, # of connection points: 6
#     Node 26, Type 0, BuildingBlock: GEDQOX_clean_sbu_0, # of connection points: 6
#     Node 27, Type 0, BuildingBlock: GEDQOX_clean_sbu_0, # of connection points: 6
#     Node 28, Type 0, BuildingBlock: GEDQOX_clean_sbu_0, # of connection points: 6
#     Node 29, Type 0, BuildingBlock: GEDQOX_clean_sbu_0, # of connection points: 6
#     Node 30, Type 0, BuildingBlock: GEDQOX_clean_sbu_0, # of connection points: 6
#     Node 31, Type 0, BuildingBlock: GEDQOX_clean_sbu_0, # of connection points: 6
#     Node 32, Type 0, BuildingBlock: GEDQOX_clean_sbu_0, # of connection points: 6
#     Node 33, Type 0, BuildingBlock: GEDQOX_clean_sbu_0, # of connection points: 6
#     Node 34, Type 0, BuildingBlock: GEDQOX_clean_sbu_0, # of connection points: 6
#     Node 35, Type 0, BuildingBlock: GEDQOX_clean_sbu_0, # of connection points: 6
#     Edge 36, Type (0, 0), BuildingBlock: EZIPEK_clean_linker_0, # of connection points: 2
#     Edge 37, Type (0, 0), BuildingBlock: EZIPEK_clean_linker_0, # of connection points: 2
#     Edge 38, Type (0, 0), BuildingBlock: EZIPEK_clean_linker_0, # of connection points: 2
#     Edge 39, Type (0, 0), BuildingBlock: EZIPEK_clean_linker_0, # of connection points: 2
#     Edge 40, Type (0, 0), BuildingBlock: EZIPEK_clean_linker_0, # of connection points: 2
#     Edge 41, Type (0, 0), BuildingBlock: EZIPEK_clean_linker_0, # of connection points: 2
#     Edge 42, Type (0, 0), BuildingBlock: EZIPEK_clean_linker_0, # of connection points: 2
#     Edge 43, Type (0, 0), BuildingBlock: EZIPEK_clean_linker_0, # of connection points: 2
#     Edge 44, Type (0, 0), BuildingBlock: EZIPEK_clean_linker_0, # of connection points: 2
#     Edge 45, Type (0, 0), BuildingBlock: EZIPEK_clean_linker_0, # of connection points: 2
#     Edge 46, Type (0, 0), BuildingBlock: EZIPEK_clean_linker_0, # of connection points: 2
#     Edge 47, Type (0, 0), BuildingBlock: EZIPEK_clean_linker_0, # of connection points: 2
#     Edge 48, Type (0, 0), BuildingBlock: EZIPEK_clean_linker_0, # of connection points: 2
#     Edge 49, Type (0, 0), BuildingBlock: EZIPEK_clean_linker_0, # of connection points: 2
#     Edge 50, Type (0, 0), BuildingBlock: EZIPEK_clean_linker_0, # of connection points: 2
#     Edge 51, Type (0, 0), BuildingBlock: EZIPEK_clean_linker_0, # of connection points: 2
#     Edge 52, Type (0, 0), BuildingBlock: EZIPEK_clean_linker_0, # of connection points: 2
#     Edge 53, Type (0, 0), BuildingBlock: EZIPEK_clean_linker_0, # of connection points: 2
#     Edge 54, Type (0, 0), BuildingBlock: EZIPEK_clean_linker_0, # of connection points: 2
#     Edge 55, Type (0, 0), BuildingBlock: EZIPEK_clean_linker_0, # of connection points: 2
#     Edge 56, Type (0, 0), BuildingBlock: EZIPEK_clean_linker_0, # of connection points: 2
#     Edge 57, Type (0, 0), BuildingBlock: EZIPEK_clean_linker_0, # of connection points: 2
#     Edge 58, Type (0, 0), BuildingBlock: EZIPEK_clean_linker_0, # of connection points: 2
#     Edge 59, Type (0, 0), BuildingBlock: EZIPEK_clean_linker_0, # of connection points: 2
#     Edge 60, Type (0, 0), BuildingBlock: EZIPEK_clean_linker_0, # of connection points: 2
#     Edge 61, Type (0, 0), BuildingBlock: EZIPEK_clean_linker_0, # of connection points: 2
#     Edge 62, Type (0, 0), BuildingBlock: EZIPEK_clean_linker_0, # of connection points: 2
#     Edge 63, Type (0, 0), BuildingBlock: EZIPEK_clean_linker_0, # of connection points: 2
#     Edge 64, Type (0, 0), BuildingBlock: EZIPEK_clean_linker_0, # of connection points: 2
#     Edge 65, Type (0, 0), BuildingBlock: EZIPEK_clean_linker_0, # of connection points: 2
#     Edge 66, Type (0, 0), BuildingBlock: EZIPEK_clean_linker_0, # of connection points: 2
#     Edge 67, Type (0, 0), BuildingBlock: EZIPEK_clean_linker_0, # of connection points: 2
#     Edge 68, Type (0, 0), BuildingBlock: EZIPEK_clean_linker_0, # of connection points: 2
#     Edge 69, Type (0, 0), BuildingBlock: EZIPEK_clean_linker_0, # of connection points: 2
#     Edge 70, Type (0, 0), BuildingBlock: EZIPEK_clean_linker_0, # of connection points: 2
#     Edge 71, Type (0, 0), BuildingBlock: EZIPEK_clean_linker_0, # of connection points: 2
#     Edge 72, Type (0, 0), BuildingBlock: EZIPEK_clean_linker_0, # of connection points: 2
#     Edge 73, Type (0, 0), BuildingBlock: EZIPEK_clean_linker_0, # of connection points: 2
#     Edge 74, Type (0, 0), BuildingBlock: EZIPEK_clean_linker_0, # of connection points: 2
#     Edge 75, Type (0, 0), BuildingBlock: EZIPEK_clean_linker_0, # of connection points: 2
#     Edge 76, Type (0, 0), BuildingBlock: EZIPEK_clean_linker_0, # of connection points: 2
#     Edge 77, Type (0, 0), BuildingBlock: EZIPEK_clean_linker_0, # of connection points: 2
#     Edge 78, Type (0, 0), BuildingBlock: EZIPEK_clean_linker_0, # of connection points: 2
#     Edge 79, Type (0, 0), BuildingBlock: EZIPEK_clean_linker_0, # of connection points: 2
#     Edge 80, Type (0, 0), BuildingBlock: EZIPEK_clean_linker_0, # of connection points: 2
#     Edge 81, Type (0, 0), BuildingBlock: EZIPEK_clean_linker_0, # of connection points: 2
#     Edge 82, Type (0, 0), BuildingBlock: EZIPEK_clean_linker_0, # of connection points: 2
#     Edge 83, Type (0, 0), BuildingBlock: EZIPEK_clean_linker_0, # of connection points: 2
#     Edge 84, Type (0, 0), BuildingBlock: EZIPEK_clean_linker_0, # of connection points: 2
#     Edge 85, Type (0, 0), BuildingBlock: EZIPEK_clean_linker_0, # of connection points: 2
#     Edge 86, Type (0, 0), BuildingBlock: EZIPEK_clean_linker_0, # of connection points: 2
#     Edge 87, Type (0, 0), BuildingBlock: EZIPEK_clean_linker_0, # of connection points: 2
#     Edge 88, Type (0, 0), BuildingBlock: EZIPEK_clean_linker_0, # of connection points: 2
#     Edge 89, Type (0, 0), BuildingBlock: EZIPEK_clean_linker_0, # of connection points: 2
#     Edge 90, Type (0, 0), BuildingBlock: EZIPEK_clean_linker_0, # of connection points: 2
#     Edge 91, Type (0, 0), BuildingBlock: EZIPEK_clean_linker_0, # of connection points: 2
#     Edge 92, Type (0, 0), BuildingBlock: EZIPEK_clean_linker_0, # of connection points: 2
#     Edge 93, Type (0, 0), BuildingBlock: EZIPEK_clean_linker_0, # of connection points: 2
#     Edge 94, Type (0, 0), BuildingBlock: EZIPEK_clean_linker_0, # of connection points: 2
#     Edge 95, Type (0, 0), BuildingBlock: EZIPEK_clean_linker_0, # of connection points: 2
#     Edge 96, Type (0, 0), BuildingBlock: EZIPEK_clean_linker_0, # of connection points: 2
#     Edge 97, Type (0, 0), BuildingBlock: EZIPEK_clean_linker_0, # of connection points: 2
#     Edge 98, Type (0, 0), BuildingBlock: EZIPEK_clean_linker_0, # of connection points: 2
#     Edge 99, Type (0, 0), BuildingBlock: EZIPEK_clean_linker_0, # of connection points: 2
#     Edge 100, Type (0, 0), BuildingBlock: EZIPEK_clean_linker_0, # of connection points: 2
#     Edge 101, Type (0, 0), BuildingBlock: EZIPEK_clean_linker_0, # of connection points: 2
#     Edge 102, Type (0, 0), BuildingBlock: EZIPEK_clean_linker_0, # of connection points: 2
#     Edge 103, Type (0, 0), BuildingBlock: EZIPEK_clean_linker_0, # of connection points: 2
#     Edge 104, Type (0, 0), BuildingBlock: EZIPEK_clean_linker_0, # of connection points: 2
#     Edge 105, Type (0, 0), BuildingBlock: EZIPEK_clean_linker_0, # of connection points: 2
#     Edge 106, Type (0, 0), BuildingBlock: EZIPEK_clean_linker_0, # of connection points: 2
#     Edge 107, Type (0, 0), BuildingBlock: EZIPEK_clean_linker_0, # of connection points: 2
#     Edge 108, Type (0, 0), BuildingBlock: EZIPEK_clean_linker_0, # of connection points: 2
#     Edge 109, Type (0, 0), BuildingBlock: EZIPEK_clean_linker_0, # of connection points: 2
#     Edge 110, Type (0, 0), BuildingBlock: EZIPEK_clean_linker_0, # of connection points: 2
#     Edge 111, Type (0, 0), BuildingBlock: EZIPEK_clean_linker_0, # of connection points: 2
#     Edge 112, Type (0, 0), BuildingBlock: EZIPEK_clean_linker_0, # of connection points: 2
#     Edge 113, Type (0, 0), BuildingBlock: EZIPEK_clean_linker_0, # of connection points: 2
#     Edge 114, Type (0, 0), BuildingBlock: EZIPEK_clean_linker_0, # of connection points: 2
#     Edge 115, Type (0, 0), BuildingBlock: EZIPEK_clean_linker_0, # of connection points: 2
#     Edge 116, Type (0, 0), BuildingBlock: EZIPEK_clean_linker_0, # of connection points: 2
#     Edge 117, Type (0, 0), BuildingBlock: EZIPEK_clean_linker_0, # of connection points: 2
#     Edge 118, Type (0, 0), BuildingBlock: EZIPEK_clean_linker_0, # of connection points: 2
#     Edge 119, Type (0, 0), BuildingBlock: EZIPEK_clean_linker_0, # of connection points: 2
#     Edge 120, Type (0, 0), BuildingBlock: EZIPEK_clean_linker_0, # of connection points: 2
#     Edge 121, Type (0, 0), BuildingBlock: EZIPEK_clean_linker_0, # of connection points: 2
#     Edge 122, Type (0, 0), BuildingBlock: EZIPEK_clean_linker_0, # of connection points: 2
#     Edge 123, Type (0, 0), BuildingBlock: EZIPEK_clean_linker_0, # of connection points: 2
#     Edge 124, Type (0, 0), BuildingBlock: EZIPEK_clean_linker_0, # of connection points: 2
#     Edge 125, Type (0, 0), BuildingBlock: EZIPEK_clean_linker_0, # of connection points: 2
#     Edge 126, Type (0, 0), BuildingBlock: EZIPEK_clean_linker_0, # of connection points: 2
#     Edge 127, Type (0, 0), BuildingBlock: EZIPEK_clean_linker_0, # of connection points: 2
#     Edge 128, Type (0, 0), BuildingBlock: EZIPEK_clean_linker_0, # of connection points: 2
#     Edge 129, Type (0, 0), BuildingBlock: EZIPEK_clean_linker_0, # of connection points: 2
#     Edge 130, Type (0, 0), BuildingBlock: EZIPEK_clean_linker_0, # of connection points: 2
#     Edge 131, Type (0, 0), BuildingBlock: EZIPEK_clean_linker_0, # of connection points: 2
#     Edge 132, Type (0, 0), BuildingBlock: EZIPEK_clean_linker_0, # of connection points: 2
#     Edge 133, Type (0, 0), BuildingBlock: EZIPEK_clean_linker_0, # of connection points: 2
#     Edge 134, Type (0, 0), BuildingBlock: EZIPEK_clean_linker_0, # of connection points: 2
#     Edge 135, Type (0, 0), BuildingBlock: EZIPEK_clean_linker_0, # of connection points: 2
#     Edge 136, Type (0, 0), BuildingBlock: EZIPEK_clean_linker_0, # of connection points: 2
#     Edge 137, Type (0, 0), BuildingBlock: EZIPEK_clean_linker_0, # of connection points: 2
#     Edge 138, Type (0, 0), BuildingBlock: EZIPEK_clean_linker_0, # of connection points: 2
#     Edge 139, Type (0, 0), BuildingBlock: EZIPEK_clean_linker_0, # of connection points: 2
#     Edge 140, Type (0, 0), BuildingBlock: EZIPEK_clean_linker_0, # of connection points: 2
#     Edge 141, Type (0, 0), BuildingBlock: EZIPEK_clean_linker_0, # of connection points: 2
#     Edge 142, Type (0, 0), BuildingBlock: EZIPEK_clean_linker_0, # of connection points: 2
#     Edge 143, Type (0, 0), BuildingBlock: EZIPEK_clean_linker_0, # of connection points: 2
# Relax obj value: 0.213
# Max RMSD: 0.271
# Mean RMSD: 0.271
data_MOF--net-wne--node1-GEDQOX_clean_sbu_0--edge1-EZIPEK_clean_linker_0
_symmetry_space_group_name_H-M    P1
_symmetry_Int_Tables_number       1
_symmetry_cell_setting            triclinic
loop_
_symmetry_equiv_pos_as_xyz
'x, y, z'
_cell_length_a     67.79111
_cell_length_b     67.811575
_cell_length_c     27.928237
_cell_angle_alpha  89.866932
_cell_angle_beta   89.991575
_cell_angle_gamma 119.87308
loop_
_atom_site_label
_atom_site_type_symbol
_atom_site_fract_x
_atom_site_fract_y
_atom_site_fract_z
_atom_type_partial_charge
Nd0 Nd 0.34641 0.27841 0.10107 0.0
Nd1 Nd 0.30578 0.27304 0.05135 0.0
C2 C 0.38451 0.27853 0.11857 0.0
C3 C 0.39365 0.26557 0.09428 0.0
C4 C 0.39439 0.26493 0.04382 0.0
C5 C 0.39873 0.24917 0.02096 0.0
C6 C 0.40193 0.23368 0.04836 0.0
C7 C 0.40239 0.23513 0.09852 0.0
C8 C 0.39835 0.25101 0.12134 0.0
C9 C 0.31577 0.27574 0.17043 0.0
C10 C 0.31145 0.22754 0.05646 0.0
C11 C 0.26699 0.27416 0.03012 0.0
C12 C 0.24533 0.27593 0.02072 0.0
C13 C 0.24021 0.29025 0.04876 0.0
C14 C 0.22031 0.29201 0.04109 0.0
C15 C 0.20415 0.27942 1.00513 0.0
C16 C 0.20921 0.26502 0.97713 0.0
C17 C 0.22925 0.26337 0.98458 0.0
C18 C 0.346 0.2883 0.99022 0.0
C19 C 0.34298 0.32368 0.09486 0.0
O20 O 0.38371 0.29429 0.09305 0.0
O21 O 0.36594 0.26627 0.14346 0.0
O22 O 0.33772 0.28746 0.17289 0.0
O23 O 0.30966 0.26375 0.13124 0.0
O24 O 0.33278 0.243 0.06506 0.0
O25 O 0.29597 0.23421 0.05505 0.0
O26 O 0.28013 0.28398 0.06677 0.0
O27 O 0.2746 0.26342 1.00362 0.0
O28 O 0.32494 0.27474 0.97707 0.0
O29 O 0.3441 0.29384 0.03229 0.0
O30 O 0.32207 0.31023 0.07913 0.0
O31 O 0.35698 0.31587 0.10279 0.0
H32 H 0.39058 0.27582 0.02197 0.0
H33 H 0.39847 0.2483 0.98222 0.0
H34 H 0.40497 0.2233 0.12009 0.0
H35 H 0.39769 0.2511 0.1601 0.0
H36 H 0.25174 0.30032 0.07704 0.0
H37 H 0.21755 0.30339 0.06361 0.0
H38 H 0.19756 0.25492 0.94904 0.0
H39 H 0.23207 0.25206 0.96196 0.0
Nd40 Nd 0.81698 0.08965 0.11128 0.0
Nd41 Nd 0.82109 0.05134 0.05538 0.0
C42 C 0.81471 0.12669 0.125 0.0
C43 C 0.82405 0.147 0.09429 0.0
C44 C 0.82364 0.14489 0.044 0.0
C45 C 0.8373 0.16375 0.01522 0.0
C46 C 0.85187 0.18471 0.03663 0.0
C47 C 0.85056 0.18719 0.08636 0.0
C48 C 0.83677 0.16846 0.11501 0.0
C49 C 0.81711 0.0585 0.17662 0.0
C50 C 0.86779 0.10396 0.06124 0.0
C51 C 0.82088 1.01187 0.03625 0.0
C52 C 0.82044 0.98905 0.02825 0.0
C53 C 0.81628 0.97367 0.06652 0.0
C54 C 0.81429 0.95192 0.0594 0.0
C55 C 0.81587 0.944 0.01342 0.0
C56 C 0.82023 0.95945 0.9751 0.0
C57 C 0.82257 0.98141 0.98234 0.0
C58 C 0.803 0.07432 0.99518 0.0
C59 C 0.77132 0.04017 0.09947 0.0
O60 O 0.79795 0.10821 0.10657 0.0
O61 O 0.82994 0.12317 0.14633 0.0
O62 O 0.80841 0.07154 0.18294 0.0
O63 O 0.82864 0.06419 0.13649 0.0
O64 O 0.85432 0.11046 0.08192 0.0
O65 O 0.85974 0.08189 0.05053 0.0
O66 O 0.81329 1.01608 0.07566 0.0
O67 O 0.8297 1.0294 1.00693 0.0
O68 O 0.80582 0.05749 0.9813 0.0
O69 O 0.80992 0.07704 0.03792 0.0
O70 O 0.78454 1.03206 0.0858 0.0
O71 O 0.77932 0.06218 0.10587 0.0
H72 H 0.81393 0.12843 0.02715 0.0
H73 H 0.83779 0.16159 0.97689 0.0
H74 H 0.86143 0.20334 0.1035 0.0
H75 H 0.83732 0.17045 0.15356 0.0
H76 H 0.81438 0.97839 0.10252 0.0
H77 H 0.81109 0.94101 0.09022 0.0
H78 H 0.82159 0.95442 0.93904 0.0
H79 H 0.82554 0.99225 0.9515 0.0
Nd80 Nd 1.00672 0.74908 0.11283 0.0
Nd81 Nd 1.04252 0.79124 0.05495 0.0
C82 C 0.96929 0.71228 0.1395 0.0
C83 C 0.94583 0.70309 0.12129 0.0
C84 C 0.93783 0.68733 0.08338 0.0
C85 C 0.91779 0.68236 0.05924 0.0
C86 C 0.90523 0.6926 0.07361 0.0
C87 C 0.91232 0.70703 0.11348 0.0
C88 C 0.93242 0.71227 0.1371 0.0
C89 C 1.03949 0.78106 0.17441 0.0
C90 C 0.99026 0.78425 0.06543 0.0
C91 C 0.08134 0.8308 0.03455 0.0
C92 C 0.10408 0.85312 0.02628 0.0
C93 C 0.12153 0.86158 0.06096 0.0
C94 C 0.14301 0.88152 0.05323 0.0
C95 C 0.14958 0.89353 1.00864 0.0
C96 C 0.13063 0.88648 0.97683 0.0
C97 C 0.10895 0.86659 0.9846 0.0
C98 C 1.01923 0.75096 0.99332 0.0
C99 C 1.05456 0.75211 0.092 0.0
O100 O 0.98386 0.7118 0.10938 0.0
O101 O 0.97781 0.7315 0.1631 0.0
O102 O 1.02966 0.75912 0.17794 0.0
O103 O 1.03139 0.78631 0.13715 0.0
O104 O 0.98476 0.7642 0.08421 0.0
O105 O 1.01203 0.79911 0.05495 0.0
O106 O 0.07908 0.8167 0.06881 0.0
O107 O 0.06235 0.82393 1.01049 0.0
O108 O 1.03506 0.77118 0.97955 0.0
O109 O 1.01701 0.75417 0.03715 0.0
O110 O 0.06237 0.77356 0.0798 0.0
O111 O 1.03282 0.73786 0.10007 0.0
H112 H 0.94766 0.67976 0.07081 0.0
H113 H 0.9123 0.67095 0.02888 0.0
H114 H 0.90253 0.71474 0.12552 0.0
H115 H 0.93787 0.72427 0.16644 0.0
H116 H 0.11848 0.85296 0.09514 0.0
H117 H 0.15412 0.88761 0.08387 0.0
H118 H 0.13169 0.89651 0.94599 0.0
H119 H 0.09585 0.86189 0.95772 0.0
Nd120 Nd 0.30235 0.32583 0.42979 0.0
Nd121 Nd 0.29303 0.28688 0.48449 0.0
C122 C 0.30918 0.36418 0.39039 0.0
C123 C 0.30108 0.36856 0.34502 0.0
C124 C 0.28855 0.37985 0.34601 0.0
C125 C 0.27537 0.37862 0.30671 0.0
C126 C 0.2747 0.36616 0.26609 0.0
C127 C 0.28943 0.35735 0.26256 0.0
C128 C 0.30244 0.35834 0.30215 0.0
C129 C 0.2983 0.29313 0.36381 0.0
C130 C 0.24908 0.29518 0.47357 0.0
C131 C 0.28981 0.24753 0.51905 0.0
C132 C 0.29387 0.22694 0.51869 0.0
C133 C 0.2779 0.2057 0.4985 0.0
C134 C 0.28 0.18583 0.50338 0.0
C135 C 0.29814 0.18596 0.52893 0.0
C136 C 0.31423 0.20724 0.54875 0.0
C137 C 0.31215 0.22712 0.54384 0.0
C138 C 0.30708 0.32782 0.54173 0.0
C139 C 0.34432 0.31931 0.44813 0.0
O140 O 0.29348 0.35312 0.42271 0.0
O141 O 0.32353 0.35677 0.38687 0.0
O142 O 0.31164 0.31473 0.36117 0.0
O143 O 0.28568 0.28843 0.40181 0.0
O144 O 0.26439 0.31403 0.45164 0.0
O145 O 0.25538 0.28047 0.48839 0.0
O146 O 0.27512 0.24848 0.49014 0.0
O147 O 0.30587 0.26799 0.53058 0.0
O148 O 0.2907 0.30741 0.55272 0.0
O149 O 0.31532 0.32544 0.50319 0.0
O150 O 0.32842 0.29777 0.45076 0.0
O151 O 0.33842 0.33497 0.4515 0.0
H152 H 0.28741 0.38793 0.37852 0.0
H153 H 0.26413 0.38565 0.30964 0.0
H154 H 0.28907 0.34774 0.23131 0.0
H155 H 0.31209 0.34956 0.3003 0.0
H156 H 0.26327 0.20421 0.47963 0.0
H157 H 0.26704 0.17008 0.48769 0.0
H158 H 0.32845 0.20846 0.56889 0.0
H159 H 0.32475 0.24265 0.56092 0.0
Nd160 Nd 0.76651 0.98525 0.43225 0.0
Nd161 Nd 0.80859 1.02178 0.48783 0.0
C162 C 0.7297 0.94738 0.40855 0.0
C163 C 0.72072 0.92447 0.4297 0.0
C164 C 0.70779 0.91837 0.47229 0.0
C165 C 0.7035 0.89878 0.49753 0.0
C166 C 0.71196 0.88507 0.48044 0.0
C167 C 0.72352 0.89031 0.43652 0.0
C168 C 0.72778 0.90974 0.41124 0.0
C169 C 0.79752 1.01782 0.36806 0.0
C170 C 0.80219 0.96936 0.4796 0.0
C171 C 0.8477 0.06125 0.5073 0.0
C172 C 0.86993 0.08418 0.51475 0.0
C173 C 0.88035 0.09976 0.4767 0.0
C174 C 0.89985 0.12169 0.48343 0.0
C175 C 0.90932 0.13061 0.52944 0.0
C176 C 0.90023 0.11362 0.56631 0.0
C177 C 0.88092 0.09142 0.5595 0.0
C178 C 0.76877 0.99862 0.5511 0.0
C179 C 0.76831 1.03262 0.4518 0.0
O180 O 0.7292 0.96267 0.4363 0.0
O181 O 0.7489 0.95533 0.38485 0.0
O182 O 0.77552 1.00745 0.36579 0.0
O183 O 0.80342 1.01039 0.40558 0.0
O184 O 0.78177 0.96356 0.46255 0.0
O185 O 0.81699 0.9914 0.48831 0.0
O186 O 0.83393 0.05826 0.4719 0.0
O187 O 0.84088 0.0426 0.53269 0.0
O188 O 0.78896 1.01476 0.56394 0.0
O189 O 0.77179 0.99608 0.50737 0.0
O190 O 0.78993 0.0409 0.46338 0.0
O191 O 0.75447 1.01077 0.4444 0.0
H192 H 0.70189 0.92923 0.48732 0.0
H193 H 0.69408 0.89452 0.53077 0.0
H194 H 0.72985 0.87966 0.42239 0.0
H195 H 0.73757 0.91377 0.37842 0.0
H196 H 0.8736 0.09485 0.44084 0.0
H197 H 0.90755 0.1311 0.45113 0.0
H198 H 0.90815 0.11698 0.60112 0.0
H199 H 0.87449 0.07994 0.58982 0.0
Nd200 Nd 0.1065 0.79735 0.43384 0.0
Nd201 Nd 0.07307 0.80429 0.48527 0.0
C202 C 0.14363 0.79581 0.41367 0.0
C203 C 0.16676 0.80933 0.43353 0.0
C204 C 0.17108 0.8081 0.48259 0.0
C205 C 0.19172 0.82421 0.50293 0.0
C206 C 0.20812 0.84175 0.47456 0.0
C207 C 0.20448 0.84206 0.42517 0.0
C208 C 0.18401 0.82592 0.40476 0.0
C209 C 0.07803 0.80015 0.36588 0.0
C210 C 0.12448 0.84939 0.47822 0.0
C211 C 1.03374 0.80395 0.50817 0.0
C212 C 1.01049 0.80238 0.51798 0.0
C213 C 0.99112 0.78843 0.48956 0.0
C214 C 0.96954 0.78672 0.49759 0.0
C215 C 0.96599 0.79901 0.5343 0.0
C216 C 0.98539 0.8131 0.56263 0.0
C217 C 1.00701 0.81467 0.55484 0.0
C218 C 0.09803 0.78852 0.54456 0.0
C219 C 0.05701 0.7527 0.44293 0.0
O220 O 0.128 0.78155 0.44305 0.0
O221 O 0.13657 0.80713 0.38755 0.0
O222 O 0.08784 0.788 0.36307 0.0
O223 O 0.08476 0.81261 0.40443 0.0
O224 O 0.12974 0.83361 0.46698 0.0
O225 O 0.10247 0.84301 0.48207 0.0
O226 O 1.03717 0.79536 0.46956 0.0
O227 O 1.05178 0.81325 0.53577 0.0
O228 O 0.09192 0.80318 0.55783 0.0
O229 O 0.08951 0.78226 0.50348 0.0
O230 O 1.05067 0.7669 0.45966 0.0
O231 O 0.07856 0.75986 0.4331 0.0
H232 H 0.15817 0.79541 0.50575 0.0
H233 H 0.19448 0.82369 0.54096 0.0
H234 H 0.21715 0.85545 0.40273 0.0
H235 H 0.18119 0.8272 0.36697 0.0
H236 H 0.99257 0.77857 0.46075 0.0
H237 H 0.95543 0.77559 0.47482 0.0
H238 H 0.98382 0.82297 0.59127 0.0
H239 H 1.0211 0.82569 0.57776 0.0
Nd240 Nd 0.80743 0.80287 0.99 0.0
Nd241 Nd 0.76763 0.79901 0.92666 0.0
C242 C 0.84646 0.803 1.01111 0.0
C243 C 0.86889 0.80329 0.0217 0.0
C244 C 0.88648 0.81055 0.98739 0.0
C245 C 0.90567 0.80754 0.99421 0.0
C246 C 0.90802 0.7959 0.03459 0.0
C247 C 0.89164 0.79155 0.07135 0.0
C248 C 0.8723 0.79428 0.06441 0.0
C249 C 0.76668 0.78875 0.0481 0.0
C250 C 0.76996 0.75289 0.9508 0.0
C251 C 0.73053 0.79131 0.88025 0.0
C252 C 0.72764 0.80217 0.83692 0.0
C253 C 0.71941 0.81736 0.8418 0.0
C254 C 0.72143 0.83172 0.80409 0.0
C255 C 0.73145 0.83096 0.76068 0.0
C256 C 0.73751 0.81419 0.75379 0.0
C257 C 0.7358 0.79997 0.79188 0.0
C258 C 0.80593 0.80911 0.87035 0.0
C259 C 0.80064 0.849 0.97996 0.0
O260 O 0.84486 0.81608 0.97836 0.0
O261 O 0.8277 0.79164 0.03612 0.0
O262 O 0.78636 0.79228 0.064 0.0
O263 O 0.77046 0.79358 1.0039 0.0
O264 O 0.79115 0.76593 0.96463 0.0
O265 O 0.75653 0.76123 0.94051 0.0
O266 O 0.738 0.80423 0.91828 0.0
O267 O 0.74025 0.77905 0.87435 0.0
O268 O 0.79358 0.81875 0.86685 0.0
O269 O 0.79895 0.79619 0.90753 0.0
O270 O 0.78116 0.83542 0.95777 0.0
O271 O 0.81474 0.84122 0.99219 0.0
H272 H 0.8853 0.81835 0.95444 0.0
H273 H 0.91878 0.81482 0.96719 0.0
H274 H 0.89348 0.78637 0.10675 0.0
H275 H 0.85991 0.78925 0.09301 0.0
H276 H 0.71278 0.81919 0.87579 0.0
H277 H 0.71632 0.84436 0.80972 0.0
H278 H 0.74489 0.81314 0.72016 0.0
H279 H 0.74204 0.7882 0.78672 0.0
Nd280 Nd 0.29127 1.02558 0.9869 0.0
Nd281 Nd 0.29514 0.98964 0.92748 0.0
C282 C 0.2921 0.06527 1.00592 0.0
C283 C 0.29324 0.08835 0.01365 0.0
C284 C 0.30269 0.10576 0.97846 0.0
C285 C 0.30429 0.12733 0.9852 0.0
C286 C 0.29683 0.13286 0.02781 0.0
C287 C 0.28719 0.1154 0.06291 0.0
C288 C 0.28538 0.09369 0.05596 0.0
C289 C 0.30749 1.00144 0.04797 0.0
C290 C 0.34179 1.03419 0.95283 0.0
C291 C 0.28902 0.95154 0.89012 0.0
C292 C 0.26646 0.9312 0.88646 0.0
C293 C 0.26298 0.90976 0.89978 0.0
C294 C 0.24091 0.89198 0.90907 0.0
C295 C 0.22237 0.89588 0.90728 0.0
C296 C 0.22594 0.91707 0.89199 0.0
C297 C 0.24759 0.93424 0.88 0.0
C298 C 0.29762 1.02391 0.86821 0.0
C299 C 0.24402 0.97521 0.97631 0.0
O300 O 0.30324 0.06225 0.97126 0.0
O301 O 0.28019 0.04674 0.03154 0.0
O302 O 0.30356 1.01759 0.0618 0.0
O303 O 0.30202 0.99905 1.00402 0.0
O304 O 0.32921 0.04337 0.96458 0.0
O305 O 0.3328 1.01232 0.94344 0.0
O306 O 0.29616 0.9575 0.93405 0.0
O307 O 0.29194 0.96876 0.86385 0.0
O308 O 0.31047 1.01484 0.86626 0.0
O309 O 0.28374 1.01532 0.90458 0.0
O310 O 0.25713 0.96937 0.95229 0.0
O311 O 0.25254 0.99653 0.99183 0.0
H312 H 0.309 0.10276 0.94524 0.0
H313 H 0.31184 0.13998 0.95711 0.0
H314 H 0.28113 0.11862 0.09622 0.0
H315 H 0.27799 0.08112 0.08421 0.0
H316 H 0.27732 0.90713 0.90539 0.0
H317 H 0.23844 0.87561 0.92036 0.0
H318 H 0.21198 0.92045 0.88991 0.0
H319 H 0.24969 0.95053 0.86925 0.0
Nd320 Nd 0.06992 0.28432 0.97954 0.0
Nd321 Nd 0.10112 0.32232 0.92331 0.0
C322 C 1.03283 0.24575 0.01442 0.0
C323 C 1.00795 0.22545 0.01594 0.0
C324 C 1.00027 0.20572 0.98716 0.0
C325 C 0.97816 0.18608 0.99285 0.0
C326 C 0.96238 0.18485 0.0279 0.0
C327 C 0.97006 0.20463 0.0565 0.0
C328 C 0.9921 0.22427 0.05067 0.0
C329 C 0.0961 0.32615 0.0353 0.0
C330 C 1.05257 0.31679 0.93464 0.0
C331 C 0.13498 0.35796 0.88162 0.0
C332 C 0.14849 0.358 0.84019 0.0
C333 C 0.17139 0.36435 0.84691 0.0
C334 C 0.18284 0.35907 0.81237 0.0
C335 C 0.17164 0.34755 0.7705 0.0
C336 C 0.14944 0.34291 0.76161 0.0
C337 C 0.13785 0.34801 0.79637 0.0
C338 C 0.07274 0.28938 0.85819 0.0
C339 C 0.12187 0.29109 0.97231 0.0
O340 O 1.04802 0.24598 0.98518 0.0
O341 O 1.03803 0.26648 0.02582 0.0
O342 O 0.09108 0.30563 0.04853 0.0
O343 O 0.08676 0.32351 0.99482 0.0
O344 O 1.04658 0.2953 0.94121 0.0
O345 O 0.07417 0.33247 0.93715 0.0
O346 O 0.1376 0.34896 0.92087 0.0
O347 O 0.1137 0.35148 0.87318 0.0
O348 O 0.0818 0.31102 0.85401 0.0
O349 O 0.07987 0.28468 0.89759 0.0
O350 O 0.12603 0.30979 0.949 0.0
O351 O 0.10062 0.27702 0.98681 0.0
H352 H 1.01159 0.20522 0.96044 0.0
H353 H 0.97349 0.17154 0.96998 0.0
H354 H 0.95896 0.20485 0.08409 0.0
H355 H 0.99693 0.23853 0.0745 0.0
H356 H 0.17994 0.37202 0.88023 0.0
H357 H 0.20012 0.36293 0.8194 0.0
H358 H 0.14074 0.33426 0.72914 0.0
H359 H 0.12018 0.34288 0.78998 0.0
Nd360 Nd 0.82306 0.78856 0.55782 0.0
Nd361 Nd 0.82128 0.75184 0.61485 0.0
C362 C 0.82918 0.82966 0.52769 0.0
C363 C 0.82338 0.84898 0.52255 0.0
C364 C 0.81611 0.85746 0.56105 0.0
C365 C 0.81278 0.87663 0.55558 0.0
C366 C 0.81683 0.88863 0.51151 0.0
C367 C 0.82412 0.88005 0.47326 0.0
C368 C 0.8272 0.86082 0.47859 0.0
C369 C 0.80698 0.74736 0.50267 0.0
C370 C 0.77371 0.75051 0.59425 0.0
C371 C 0.81395 0.71498 0.66288 0.0
C372 C 0.82188 0.71161 0.70975 0.0
C373 C 0.83547 0.70141 0.71092 0.0
C374 C 0.84741 0.70241 0.75224 0.0
C375 C 0.84578 0.71339 0.79339 0.0
C376 C 0.8304 0.72155 0.79403 0.0
C377 C 0.8187 0.72093 0.75218 0.0
C378 C 0.82902 0.78791 0.67611 0.0
C379 C 0.87121 0.78423 0.5675 0.0
O380 O 0.83644 0.82609 0.56844 0.0
O381 O 0.81904 0.81099 0.50228 0.0
O382 O 0.80019 0.76224 0.49857 0.0
O383 O 0.82319 0.75548 0.53338 0.0
O384 O 0.7862 0.77248 0.58548 0.0
O385 O 0.7834 0.73788 0.59774 0.0
O386 O 0.82972 0.72478 0.63034 0.0
O387 O 0.79975 0.72265 0.66281 0.0
O388 O 0.84032 0.77718 0.67605 0.0
O389 O 0.81584 0.78116 0.63961 0.0
O390 O 0.85808 0.76477 0.58941 0.0
O391 O 0.86221 0.79716 0.55439 0.0
H392 H 0.81312 0.84935 0.59581 0.0
H393 H 0.80705 0.88217 0.58624 0.0
H394 H 0.82759 0.88839 0.43869 0.0
H395 H 0.83309 0.85541 0.44796 0.0
H396 H 0.83805 0.69399 0.67888 0.0
H397 H 0.85904 0.69581 0.75117 0.0
H398 H 0.82865 0.72972 0.82573 0.0
H399 H 0.80818 0.72879 0.75246 0.0
Nd400 Nd 0.3063 0.05263 0.55451 0.0
Nd401 Nd 0.34866 0.09209 0.60901 0.0
C402 C 0.2673 1.01283 0.53527 0.0
C403 C 0.24522 0.98968 0.52691 0.0
C404 C 0.23683 0.97207 0.56181 0.0
C405 C 0.21709 0.95036 0.55406 0.0
C406 C 0.20464 0.94469 0.51061 0.0
C407 C 0.21289 0.96236 0.47579 0.0
C408 C 0.23256 0.98421 0.48374 0.0
C409 C 0.34701 0.07613 0.49365 0.0
C410 C 0.34639 0.0435 0.59832 0.0
C411 C 0.38666 0.13037 0.62299 0.0
C412 C 0.39642 0.15108 0.59327 0.0
C413 C 0.39579 0.1496 0.54284 0.0
C414 C 0.40057 0.16858 0.51475 0.0
C415 C 0.40559 0.18907 0.53688 0.0
C416 C 0.40772 0.1909 0.58698 0.0
C417 C 0.40318 0.17205 0.61497 0.0
C418 C 0.31761 0.06096 0.6748 0.0
C419 C 0.31124 0.10489 0.55998 0.0
O420 O 0.28068 1.01621 0.57176 0.0
O421 O 0.27449 1.03124 0.50886 0.0
O422 O 0.3276 0.0589 0.48014 0.0
O423 O 0.34265 0.079 0.5361 0.0
O424 O 0.32461 1.03467 0.58745 0.0
O425 O 0.36013 0.06569 0.6017 0.0
O426 O 0.38612 0.11258 0.60341 0.0
O427 O 0.36771 0.12549 0.64522 0.0
O428 O 0.3394 0.07368 0.68036 0.0
O429 O 0.31169 0.06655 0.63473 0.0
O430 O 0.33162 0.11196 0.5787 0.0
O431 O 0.29732 0.08266 0.55078 0.0
H432 H 0.24568 0.97501 0.5956 0.0
H433 H 0.21174 0.93769 0.58217 0.0
H434 H 0.20414 0.95921 0.44183 0.0
H435 H 0.23804 0.9968 0.45545 0.0
H436 H 0.39044 0.13353 0.52515 0.0
H437 H 0.39904 0.16693 0.47615 0.0
H438 H 0.41175 0.20668 0.60462 0.0
H439 H 0.40367 0.17354 0.65363 0.0
Nd440 Nd 1.0431 0.27084 0.54416 0.0
Nd441 Nd 1.00861 0.27741 0.60412 0.0
C442 C 0.0833 0.27239 0.52474 0.0
C443 C 0.10672 0.2738 0.51755 0.0
C444 C 0.12204 0.27875 0.55601 0.0
C445 C 0.14436 0.28191 0.54968 0.0
C446 C 0.15397 0.28233 0.50378 0.0
C447 C 0.13733 0.27473 0.4663 0.0
C448 C 0.11475 0.27112 0.47268 0.0
C449 C 1.01898 0.28757 0.48324 0.0
C450 C 1.05388 0.32197 0.57359 0.0
C451 C 0.97498 0.27967 0.64643 0.0
C452 C 0.96367 0.2704 0.69246 0.0
C453 C 0.93994 0.25705 0.69339 0.0
C454 C 0.92925 0.24226 0.73155 0.0
C455 C 0.94221 0.24078 0.76908 0.0
C456 C 0.96558 0.25623 0.77136 0.0
C457 C 0.97636 0.27088 0.73285 0.0
C458 C 1.04063 0.2754 0.66423 0.0
C459 C 0.9914 0.22495 0.56017 0.0
O460 O 0.0793 0.2815 0.56194 0.0
O461 O 0.06518 0.26139 0.49754 0.0
O462 O 1.03438 0.28258 0.46889 0.0
O463 O 1.01746 0.28291 0.52751 0.0
O464 O 0.06246 0.30844 0.56794 0.0
O465 O 1.03177 0.31365 0.57727 0.0
O466 O 0.97172 0.26439 0.61421 0.0
O467 O 0.99611 0.29601 0.64837 0.0
O468 O 1.03199 0.28844 0.66871 0.0
O469 O 1.03202 0.26292 0.62631 0.0
O470 O 0.98638 0.23891 0.58376 0.0
O471 O 1.01256 0.23253 0.54344 0.0
H472 H 0.11663 0.27986 0.59191 0.0
H473 H 0.1535 0.28338 0.58219 0.0
H474 H 0.1413 0.27099 0.43123 0.0
H475 H 0.1036 0.26636 0.44191 0.0
H476 H 0.9299 0.2565 0.66269 0.0
H477 H 0.91111 0.23048 0.7296 0.0
H478 H 0.9757 0.25528 0.8003 0.0
H479 H 0.99475 0.28108 0.73301 0.0
Nd480 Nd 1.00991 0.61099 0.44557 0.0
Nd481 Nd 0.97233 0.60383 0.38839 0.0
C482 C 1.04522 0.61388 0.49218 0.0
C483 C 1.04737 0.60404 0.53777 0.0
C484 C 1.05438 0.5878 0.53666 0.0
C485 C 1.05374 0.57607 0.5781 0.0
C486 C 1.04631 0.58048 0.62167 0.0
C487 C 1.0406 0.59768 0.62375 0.0
C488 C 1.04095 0.6093 0.58193 0.0
C489 C 0.97674 0.60909 0.50799 0.0
C490 C 0.97903 0.55864 0.39797 0.0
C491 C 0.93337 0.60187 0.35479 0.0
C492 C 0.91385 0.60754 0.35204 0.0
C493 C 0.898 0.60292 0.38939 0.0
C494 C 0.8789 0.60642 0.3841 0.0
C495 C 0.87475 0.61586 0.34184 0.0
C496 C 0.88954 0.6179 0.30321 0.0
C497 C 0.90868 0.61461 0.30852 0.0
C498 C 1.01321 0.61623 0.33212 0.0
C499 C 1.00794 0.6552 0.42263 0.0
O500 O 1.03505 0.59952 0.45732 0.0
O501 O 1.03901 0.62916 0.49502 0.0
O502 O 0.99828 0.62277 0.51013 0.0
O503 O 0.97244 0.59589 0.47122 0.0
O504 O 0.9977 0.57333 0.42108 0.0
O505 O 0.96493 0.56576 0.38311 0.0
O506 O 0.93419 0.5892 0.38919 0.0
O507 O 0.95372 0.61546 0.3377 0.0
O508 O 0.99236 0.60151 0.31959 0.0
O509 O 1.01141 0.62443 0.37133 0.0
O510 O 0.98604 0.6405 0.41792 0.0
O511 O 1.02247 0.64769 0.42218 0.0
H512 H 0.05954 0.58356 0.5033 0.0
H513 H 0.0584 0.56296 0.57586 0.0
H514 H 1.03524 0.60162 0.65718 0.0
H515 H 1.03555 0.62186 0.58402 0.0
H516 H 0.89991 0.59588 0.42276 0.0
H517 H 0.86696 0.60054 0.41341 0.0
H518 H 0.88619 0.62117 0.26722 0.0
H519 H 0.91907 0.61681 0.27731 0.0
Nd520 Nd 0.4853 0.42111 0.43644 0.0
Nd521 Nd 0.49131 0.38429 0.37922 0.0
C522 C 0.48221 0.45754 0.45199 0.0
C523 C 0.49399 0.47874 0.42454 0.0
C524 C 0.5002 0.47787 0.37674 0.0
C525 C 0.51915 0.49652 0.35665 0.0
C526 C 0.53191 0.51593 0.38446 0.0
C527 C 0.52337 0.5181 0.4288 0.0
C528 C 0.50449 0.49944 0.44902 0.0
C529 C 0.48726 0.39062 0.49988 0.0
C530 C 0.537 0.43676 0.38755 0.0
C531 C 0.49085 0.34466 0.36137 0.0
C532 C 0.49008 0.32164 0.35445 0.0
C533 C 0.48424 0.30587 0.39268 0.0
C534 C 0.48187 0.28393 0.3863 0.0
C535 C 0.48477 0.27623 0.34109 0.0
C536 C 0.49072 0.29204 0.30285 0.0
C537 C 0.49343 0.31418 0.3094 0.0
C538 C 0.47309 0.40724 0.31917 0.0
C539 C 0.44086 0.3707 0.42479 0.0
O540 O 0.46674 0.44003 0.42828 0.0
O541 O 0.49579 0.45285 0.47693 0.0
O542 O 0.47654 0.40179 0.50619 0.0
O543 O 0.49898 0.39727 0.46013 0.0
O544 O 0.52289 0.44269 0.4076 0.0
O545 O 0.52964 0.4149 0.37658 0.0
O546 O 0.48276 0.34896 0.39992 0.0
O547 O 0.50043 0.36226 0.3322 0.0
O548 O 0.47789 0.39181 0.30423 0.0
O549 O 0.47869 0.40898 0.36275 0.0
O550 O 0.45402 0.36395 0.40437 0.0
O551 O 0.44836 0.3919 0.43835 0.0
H552 H 0.49233 0.462 0.35715 0.0
H553 H 0.52554 0.49466 0.32242 0.0
H554 H 0.53314 0.53311 0.45056 0.0
H555 H 0.49995 0.50039 0.4858 0.0
H556 H 0.48128 0.31042 0.42802 0.0
H557 H 0.47738 0.27271 0.41703 0.0
H558 H 0.4931 0.28718 0.26735 0.0
H559 H 0.49766 0.32531 0.27861 0.0
Nd560 Nd 0.67381 0.0803 0.43346 0.0
Nd561 Nd 0.70911 0.12204 0.38416 0.0
C562 C 0.63766 0.04006 0.44622 0.0
C563 C 0.61641 1.03004 0.419 0.0
C564 C 0.61678 1.03687 0.37116 0.0
C565 C 0.59723 1.03512 0.35065 0.0
C566 C 0.57743 1.02678 0.37823 0.0
C567 C 0.57615 1.01659 0.42285 0.0
C568 C 0.59569 1.01836 0.44339 0.0
C569 C 0.7015 0.11052 0.50346 0.0
C570 C 0.65718 0.11545 0.38851 0.0
C571 C 0.7486 0.16099 0.36225 0.0
C572 C 0.77164 0.18288 0.35239 0.0
C573 C 0.79043 0.18999 0.38381 0.0
C574 C 0.81193 0.20982 0.37496 0.0
C575 C 0.81596 0.22385 0.33426 0.0
C576 C 0.79713 0.21685 0.30292 0.0
C577 C 0.77561 0.19689 0.31164 0.0
C578 C 0.68454 0.08219 0.32306 0.0
C579 C 0.72337 0.08507 0.42734 0.0
O580 O 0.65547 0.0431 0.42214 0.0
O581 O 0.64163 0.05781 0.47195 0.0
O582 O 0.69055 0.08855 0.50636 0.0
O583 O 0.69584 0.11694 0.4642 0.0
O584 O 0.65141 0.0943 0.40008 0.0
O585 O 0.6793 0.13098 0.38561 0.0
O586 O 0.7446 0.14961 0.40218 0.0
O587 O 0.73101 0.15177 0.33342 0.0
O588 O 0.69175 0.10322 0.31003 0.0
O589 O 0.69207 0.084 0.36503 0.0
O590 O 0.73048 0.10569 0.40987 0.0
O591 O 0.70174 0.07111 0.43651 0.0
H592 H 0.63265 0.04601 0.3517 0.0
H593 H 0.59845 0.04313 0.31631 0.0
H594 H 0.56087 1.01011 0.44445 0.0
H595 H 0.59512 1.01298 0.48018 0.0
H596 H 0.78862 0.18004 0.41558 0.0
H597 H 0.8256 0.21416 0.40021 0.0
H598 H 0.79909 0.22685 0.27115 0.0
H599 H 0.76201 0.19244 0.28616 0.0
Nd600 Nd 0.96478 0.65965 0.76805 0.0
Nd601 Nd 0.9584 0.61924 0.82151 0.0
C602 C 0.96536 0.69806 0.75189 0.0
C603 C 0.95208 0.70687 0.77669 0.0
C604 C 0.95343 0.70992 0.82686 0.0
C605 C 0.93801 0.71445 0.85096 0.0
C606 C 0.92094 0.71571 0.82525 0.0
C607 C 0.92017 0.71358 0.77517 0.0
C608 C 0.93564 0.70928 0.75109 0.0
C609 C 0.9608 0.62782 0.70106 0.0
C610 C 0.91339 0.62589 0.81669 0.0
C611 C 0.95999 0.58067 0.84328 0.0
C612 C 0.96218 0.55915 0.85195 0.0
C613 C 0.97414 0.55281 0.81934 0.0
C614 C 0.97659 0.53326 0.8265 0.0
C615 C 0.96711 0.51861 0.86659 0.0
C616 C 0.95509 0.5249 0.89926 0.0
C617 C 0.95277 0.54461 0.89225 0.0
C618 C 0.97527 0.66106 0.87837 0.0
C619 C 1.00911 0.65418 0.77412 0.0
O620 O 0.98093 0.6969 0.77738 0.0
O621 O 0.95349 0.67993 0.72561 0.0
O622 O 0.97283 0.64973 0.6967 0.0
O623 O 0.94908 0.62246 0.74088 0.0
O624 O 0.92885 0.64648 0.80241 0.0
O625 O 0.9197 0.61025 0.82223 0.0
O626 O 0.96618 0.5917 0.8028 0.0
O627 O 0.95211 0.59002 0.87324 0.0
O628 O 0.96122 0.64037 0.89355 0.0
O629 O 0.98027 0.6578 0.83674 0.0
O630 O 0.99572 0.63469 0.7959 0.0
O631 O 1.00176 0.66808 0.76101 0.0
H632 H 0.96584 0.70804 0.84776 0.0
H633 H 0.93895 0.71626 0.88955 0.0
H634 H 0.90713 0.71465 0.75478 0.0
H635 H 0.93414 0.70688 0.71264 0.0
H636 H 0.98185 0.56314 0.78779 0.0
H637 H 0.98605 0.52956 0.80022 0.0
H638 H 0.94739 0.51445 0.93066 0.0
H639 H 0.94345 0.54842 0.91863 0.0
Nd640 Nd 0.43604 0.32282 0.74976 0.0
Nd641 Nd 0.475 0.35674 0.81155 0.0
C642 C 0.4025 0.28919 0.7021 0.0
C643 C 0.40086 0.27902 0.65466 0.0
C644 C 0.3933 0.25574 0.65217 0.0
C645 C 0.39439 0.24604 0.60915 0.0
C646 C 0.40287 0.25936 0.56752 0.0
C647 C 0.40922 0.28245 0.56905 0.0
C648 C 0.40843 0.29231 0.61257 0.0
C649 C 0.47006 0.35618 0.692 0.0
C650 C 0.46965 0.3051 0.79983 0.0
C651 C 0.51374 0.39636 0.8325 0.0
C652 C 0.536 0.41925 0.84043 0.0
C653 C 0.54872 0.43322 0.80163 0.0
C654 C 0.56845 0.45504 0.80818 0.0
C655 C 0.57588 0.46556 0.85403 0.0
C656 C 0.56427 0.45013 0.89272 0.0
C657 C 0.5448 0.42801 0.88624 0.0
C658 C 0.43431 0.33286 0.87132 0.0
C659 C 0.43389 0.36657 0.78003 0.0
O660 O 0.41495 0.28606 0.73351 0.0
O661 O 0.40563 0.30977 0.70312 0.0
O662 O 0.44846 0.34767 0.68756 0.0
O663 O 0.47382 0.34703 0.72924 0.0
O664 O 0.45122 0.3002 0.77454 0.0
O665 O 0.48298 0.32631 0.81598 0.0
O666 O 0.50102 0.39294 0.79489 0.0
O667 O 0.50598 0.3781 0.85961 0.0
O668 O 0.45445 0.34848 0.8858 0.0
O669 O 0.43708 0.33064 0.82711 0.0
O670 O 0.45591 0.37565 0.78832 0.0
O671 O 0.42091 0.34447 0.77436 0.0
H672 H 0.38737 0.24518 0.68401 0.0
H673 H 0.38926 0.22813 0.60872 0.0
H674 H 0.4154 0.2929 0.53717 0.0
H675 H 0.41437 0.31038 0.61349 0.0
H676 H 0.54366 0.42705 0.76544 0.0
H677 H 0.57794 0.46292 0.77614 0.0
H678 H 0.57027 0.45479 0.929 0.0
H679 H 0.53647 0.41782 0.91761 0.0
Nd680 Nd 0.77123 0.12877 0.75905 0.0
Nd681 Nd 0.73596 0.13597 0.81519 0.0
C682 C 0.80701 0.12593 0.73335 0.0
C683 C 0.83052 0.13788 0.75155 0.0
C684 C 0.83764 0.12756 0.78615 0.0
C685 C 0.85872 0.14012 0.80878 0.0
C686 C 0.87279 0.16304 0.79693 0.0
C687 C 0.86611 0.17302 0.76106 0.0
C688 C 0.84525 0.16059 0.73848 0.0
C689 C 0.7387 0.12818 0.69633 0.0
C690 C 0.7884 0.18101 0.80328 0.0
C691 C 0.69728 0.13726 0.83309 0.0
C692 C 0.67434 0.13637 0.84107 0.0
C693 C 0.65401 0.11884 0.82063 0.0
C694 C 0.63259 0.11749 0.82764 0.0
C695 C 0.63019 0.13351 0.85572 0.0
C696 C 0.65059 0.15137 0.87537 0.0
C697 C 0.6721 0.1527 0.86847 0.0
C698 C 0.75903 0.11953 0.87912 0.0
C699 C 0.72339 0.0844 0.78227 0.0
O700 O 0.79173 0.11174 0.76349 0.0
O701 O 0.8002 0.13826 0.70992 0.0
O702 O 0.74809 0.11561 0.69402 0.0
O703 O 0.74696 0.14165 0.73308 0.0
O704 O 0.79393 0.16645 0.78441 0.0
O705 O 0.7667 0.17404 0.81475 0.0
O706 O 0.69885 0.12287 0.80458 0.0
O707 O 0.71685 0.15154 0.85298 0.0
O708 O 0.74342 0.12444 0.89204 0.0
O709 O 0.76124 0.12433 0.83494 0.0
O710 O 0.71562 0.09827 0.79246 0.0
O711 O 0.74511 0.09178 0.77466 0.0
H712 H 0.82663 0.11002 0.79677 0.0
H713 H 0.86396 0.13212 0.83561 0.0
H714 H 0.87708 0.19063 0.75077 0.0
H715 H 0.84044 0.16905 0.71181 0.0
H716 H 0.65456 0.10586 0.79911 0.0
H717 H 0.61765 0.10354 0.81145 0.0
H718 H 0.64984 0.16427 0.89682 0.0
H719 H 0.68703 0.16659 0.88477 0.0
Nd720 Nd 0.4756 0.13582 0.31828 0.0
Nd721 Nd 0.438 0.12935 0.26144 0.0
C722 C 0.51472 0.13805 0.35104 0.0
C723 C 0.53512 0.13378 0.35272 0.0
C724 C 0.5487 0.13583 0.31231 0.0
C725 C 0.56864 0.13371 0.31609 0.0
C726 C 0.57623 0.1296 0.36051 0.0
C727 C 0.56274 0.12791 0.40079 0.0
C728 C 0.54273 0.12975 0.39695 0.0
C729 C 0.4348 0.12355 0.37528 0.0
C730 C 0.4399 0.08505 0.2829 0.0
C731 C 0.40287 0.12711 0.21537 0.0
C732 C 0.40078 0.13672 0.16949 0.0
C733 C 0.39309 0.15241 0.16998 0.0
C734 C 0.39374 0.16405 0.12841 0.0
C735 C 0.40183 0.16005 0.08527 0.0
C736 C 0.40838 0.14345 0.08382 0.0
C737 C 0.40809 0.13199 0.12585 0.0
C738 C 0.47092 0.13091 0.19876 0.0
C739 C 0.46953 0.18116 0.31 0.0
O740 O 0.51376 0.15156 0.31886 0.0
O741 O 0.49435 0.12321 0.36621 0.0
O742 O 0.45577 0.13783 0.38792 0.0
O743 O 0.43639 0.11562 0.33548 0.0
O744 O 0.46186 0.09957 0.28695 0.0
O745 O 0.42546 0.09267 0.28464 0.0
O746 O 0.41369 0.1418 0.24929 0.0
O747 O 0.40836 0.11127 0.2132 0.0
O748 O 0.44931 0.11769 0.19622 0.0
O749 O 0.47537 0.14403 0.23571 0.0
O750 O 0.45051 0.16672 0.28773 0.0
O751 O 0.48362 0.1739 0.3237 0.0
H752 H 0.54403 0.13929 0.27751 0.0
H753 H 0.5783 0.13544 0.28394 0.0
H754 H 0.56778 0.12525 0.4359 0.0
H755 H 0.53337 0.12848 0.42932 0.0
H756 H 0.38735 0.1563 0.20301 0.0
H757 H 0.38847 0.17673 0.13018 0.0
H758 H 0.41436 0.13991 0.05075 0.0
H759 H 0.41416 0.11995 0.12437 0.0
Nd760 Nd 0.9567 0.35521 0.30715 0.0
Nd761 Nd 0.9611 0.32205 0.25218 0.0
C762 C 0.95924 0.39549 0.33253 0.0
C763 C 0.96181 0.41915 0.34411 0.0
C764 C 0.97659 0.43888 0.31717 0.0
C765 C 0.97881 0.46065 0.32619 0.0
C766 C 0.96632 0.46417 0.36265 0.0
C767 C 0.95153 0.44446 0.38972 0.0
C768 C 0.94936 0.42262 0.38078 0.0
C769 C 0.97115 0.32863 0.36581 0.0
C770 C 1.0069 0.36707 0.26768 0.0
C771 C 0.96079 0.28785 0.20635 0.0
C772 C 0.94916 0.27579 0.16191 0.0
C773 C 0.9276 0.25627 0.16468 0.0
C774 C 0.9157 0.24575 0.12316 0.0
C775 C 0.92505 0.25438 0.07791 0.0
C776 C 0.94672 0.27365 0.07455 0.0
C777 C 0.95875 0.28428 0.11635 0.0
C778 C 0.95855 0.35247 0.18825 0.0
C779 C 0.9101 0.30447 0.29891 0.0
O780 O 0.9704 0.39279 0.29761 0.0
O781 O 0.94666 0.37635 0.3556 0.0
O782 O 0.95806 0.33659 0.37974 0.0
O783 O 0.97713 0.33633 0.32387 0.0
O784 O 0.99318 0.37541 0.27407 0.0
O785 O 0.99849 0.34495 0.26993 0.0
O786 O 0.94791 0.28501 0.24357 0.0
O787 O 0.97686 0.30891 0.20133 0.0
O788 O 0.97118 0.34347 0.18495 0.0
O789 O 0.94605 0.34469 0.22652 0.0
O790 O 0.92485 0.2986 0.28358 0.0
O791 O 0.91749 0.32657 0.30583 0.0
H792 H 0.98659 0.43753 0.28847 0.0
H793 H 0.99044 0.47493 0.30422 0.0
H794 H 0.94144 0.4459 0.4181 0.0
H795 H 0.93768 0.40833 0.40263 0.0
H796 H 0.91973 0.24926 0.19899 0.0
H797 H 0.89906 0.23076 0.12637 0.0
H798 H 0.95424 0.2804 0.03986 0.0
H799 H 0.97539 0.29929 0.11295 0.0
Nd800 Nd 0.73804 0.61973 0.32165 0.0
Nd801 Nd 0.77321 0.65955 0.25856 0.0
C802 C 0.7023 0.57864 0.34889 0.0
C803 C 0.67753 0.55832 0.3505 0.0
C804 C 0.66589 0.54482 0.31017 0.0
C805 C 0.64372 0.52505 0.31399 0.0
C806 C 0.63197 0.51749 0.3584 0.0
C807 C 0.64384 0.53091 0.39857 0.0
C808 C 0.66579 0.55074 0.3947 0.0
C809 C 0.76522 0.6602 0.38078 0.0
C810 C 0.72566 0.658 0.28708 0.0
C811 C 0.79967 0.69692 0.20927 0.0
C812 C 0.81143 0.70088 0.1628 0.0
C813 C 0.8352 0.71138 0.16223 0.0
C814 C 0.84641 0.7104 0.12135 0.0
C815 C 0.83409 0.69918 0.08005 0.0
C816 C 0.81063 0.69116 0.07858 0.0
C817 C 0.79928 0.69176 0.11994 0.0
C818 C 0.74526 0.62178 0.20156 0.0
C819 C 0.79214 0.62824 0.31031 0.0
O820 O 0.71612 0.58157 0.3132 0.0
O821 O 0.70814 0.59792 0.37048 0.0
O822 O 0.74866 0.64057 0.3958 0.0
O823 O 0.76594 0.65646 0.33644 0.0
O824 O 0.71692 0.63632 0.29873 0.0
O825 O 0.74758 0.67109 0.27837 0.0
O826 O 0.80724 0.68931 0.24367 0.0
O827 O 0.77751 0.68667 0.20812 0.0
O828 O 0.76723 0.63374 0.19905 0.0
O829 O 0.73897 0.62822 0.23908 0.0
O830 O 0.79758 0.64797 0.28982 0.0
O831 O 0.77023 0.61362 0.32156 0.0
H832 H 0.67401 0.54939 0.27538 0.0
H833 H 0.63577 0.51545 0.28187 0.0
H834 H 0.63621 0.52582 0.4337 0.0
H835 H 0.67388 0.55999 0.4271 0.0
H836 H 0.84497 0.7188 0.1945 0.0
H837 H 0.86457 0.71686 0.12329 0.0
H838 H 0.8009 0.6831 0.04665 0.0
H839 H 0.78092 0.68387 0.119 0.0
Nd840 Nd 0.48955 0.1224 0.88624 0.0
Nd841 Nd 0.48478 0.08177 0.93611 0.0
C842 C 0.48778 0.16069 0.86394 0.0
C843 C 0.48661 0.18257 0.85408 0.0
C844 C 0.48489 0.19558 0.89166 0.0
C845 C 0.48252 0.21506 0.8831 0.0
C846 C 0.4801 0.22218 0.8363 0.0
C847 C 0.48472 0.21051 0.7991 0.0
C848 C 0.48712 0.191 0.80754 0.0
C849 C 0.47481 0.08227 0.82642 0.0
C850 C 0.43932 0.08512 0.93159 0.0
C851 C 0.48461 0.04343 0.95155 0.0
C852 C 0.49739 1.03458 0.92545 0.0
C853 C 0.50023 0.03747 0.87542 0.0
C854 C 0.51693 1.0347 0.85211 0.0
C855 C 0.53108 1.02934 0.87884 0.0
C856 C 0.52686 1.02445 0.92793 0.0
C857 C 0.51011 1.02706 0.95113 0.0
C858 C 0.48738 0.11232 1.00543 0.0
C859 C 0.53546 0.11768 0.88847 0.0
O860 O 0.48774 0.15347 0.90726 0.0
O861 O 0.48959 0.14773 0.83155 0.0
O862 O 0.48913 0.10317 0.81329 0.0
O863 O 0.4688 0.08403 0.86819 0.0
O864 O 0.45275 0.1062 0.91663 0.0
O865 O 0.44721 0.07106 0.93793 0.0
O866 O 0.46874 0.04451 0.92717 0.0
O867 O 0.49709 0.06181 0.97661 0.0
O868 O 0.47614 0.09035 1.0086 0.0
O869 O 0.49912 0.11838 0.96579 0.0
O870 O 0.52068 0.09648 0.90054 0.0
O871 O 0.52834 0.13273 0.88506 0.0
H872 H 0.4856 0.19084 0.92841 0.0
H873 H 0.4832 0.22469 0.91433 0.0
H874 H 0.48718 0.21651 0.76262 0.0
H875 H 0.48962 0.18259 0.77714 0.0
H876 H 0.4907 0.04343 0.85488 0.0
H877 H 0.52005 0.03859 0.81429 0.0
H878 H 0.53773 1.0203 0.94901 0.0
H879 H 0.50828 1.02487 0.98963 0.0
Nd880 Nd 0.96974 0.38277 0.87506 0.0
Nd881 Nd 1.01313 0.41554 0.93338 0.0
C882 C 0.93005 0.34402 0.85631 0.0
C883 C 0.90828 0.32071 0.8488 0.0
C884 C 0.90487 0.30112 0.87438 0.0
C885 C 0.8854 0.27927 0.86728 0.0
C886 C 0.86812 0.27566 0.83419 0.0
C887 C 0.87142 0.2952 0.80861 0.0
C888 C 0.89098 0.31715 0.8157 0.0
C889 C 1.01013 0.40565 0.81351 0.0
C890 C 1.0059 0.36634 0.90906 0.0
C891 C 1.05408 0.44586 0.96271 0.0
C892 C 0.06654 0.47044 0.96196 0.0
C893 C 0.05827 0.48135 0.9322 0.0
C894 C 0.05939 0.50127 0.94748 0.0
C895 C 0.06891 0.5101 0.99214 0.0
C896 C 0.08131 0.50187 0.01689 0.0
C897 C 0.08006 0.48176 1.00165 0.0
C898 C 0.97853 0.38401 0.99351 0.0
C899 C 0.97997 0.4364 0.89344 0.0
O900 O 0.94498 0.34623 0.88843 0.0
O901 O 0.93587 0.36328 0.83385 0.0
O902 O 0.98956 0.39129 0.79866 0.0
O903 O 1.00701 0.40649 0.85779 0.0
O904 O 0.98467 0.36012 0.89844 0.0
O905 O 1.02123 0.38765 0.91627 0.0
O906 O 1.05021 0.43598 0.92093 0.0
O907 O 1.03601 0.43737 0.99024 0.0
O908 O 1.00004 0.39082 0.9964 0.0
O909 O 0.97527 0.39383 0.95681 0.0
O910 O 0.99978 0.44058 0.9125 0.0
O911 O 0.96459 0.41511 0.87989 0.0
H912 H 0.91747 0.30258 0.90012 0.0
H913 H 0.88392 0.265 0.88776 0.0
H914 H 0.85878 0.29349 0.78271 0.0
H915 H 0.8926 0.33136 0.79487 0.0
H916 H 1.04769 0.47272 0.90169 0.0
H917 H 1.04998 0.50779 0.92808 0.0
H918 H 0.0889 0.50892 0.0513 0.0
H919 H 0.08653 0.47341 0.02475 0.0
Nd920 Nd 0.71146 0.60589 0.8881 0.0
Nd921 Nd 0.67572 0.60923 0.93916 0.0
C922 C 0.74613 0.59901 0.85949 0.0
C923 C 0.77154 0.60553 0.85722 0.0
C924 C 0.78201 0.59899 0.89286 0.0
C925 C 0.80469 0.60283 0.88796 0.0
C926 C 0.81914 0.61454 0.84808 0.0
C927 C 0.80736 0.61885 0.81064 0.0
C928 C 0.78477 0.61511 0.81553 0.0
C929 C 0.68792 0.62312 0.83066 0.0
C930 C 0.72564 0.65542 0.92942 0.0
C931 C 0.6441 0.61923 0.96222 0.0
C932 C 0.62171 0.61055 0.93925 0.0
C933 C 0.62 0.61215 0.88917 0.0
C934 C 0.59965 0.59773 0.86554 0.0
C935 C 0.581 0.58144 0.89178 0.0
C936 C 0.58194 0.58167 0.94202 0.0
C937 C 0.60213 0.59621 0.96563 0.0
C938 C 0.70131 0.60045 1.00655 0.0
C939 C 0.65784 0.5594 0.89119 0.0
O940 O 0.73413 0.59055 0.89863 0.0
O941 O 0.73847 0.61018 0.8346 0.0
O942 O 0.70963 0.63004 0.82889 0.0
O943 O 0.67932 0.60636 0.85983 0.0
O944 O 0.73381 0.64203 0.91801 0.0
O945 O 0.70362 0.64698 0.93571 0.0
O946 O 0.66183 0.6327 0.93627 0.0
O947 O 0.64678 0.60388 0.98508 0.0
O948 O 0.6793 0.59064 1.00504 0.0
O949 O 0.70925 0.61333 0.96951 0.0
O950 O 0.65163 0.5735 0.90875 0.0
O951 O 0.6801 0.56715 0.88341 0.0
H952 H 0.77233 0.59003 0.92433 0.0
H953 H 0.81013 0.59539 0.91539 0.0
H954 H 0.8149 0.62427 0.77567 0.0
H955 H 0.77727 0.61898 0.78528 0.0
H956 H 0.63479 0.62322 0.86784 0.0
H957 H 0.59904 0.59796 0.8268 0.0
H958 H 0.56753 0.56933 0.96283 0.0
H959 H 0.60298 0.59472 1.00412 0.0
Nd960 Nd 0.67571 0.94155 0.77235 0.0
Nd961 Nd 0.63721 0.93803 0.72008 0.0
C962 C 0.71697 0.95117 0.79719 0.0
C963 C 0.73038 0.9418 0.77549 0.0
C964 C 0.73393 0.94292 0.72552 0.0
C965 C 0.73954 0.92794 0.70308 0.0
C966 C 0.74138 0.9116 0.73041 0.0
C967 C 0.74031 0.91218 0.78056 0.0
C968 C 0.73497 0.92725 0.80298 0.0
C969 C 0.64112 0.93267 0.83929 0.0
C970 C 0.64414 0.89161 0.72565 0.0
C971 C 0.59589 0.93099 0.68909 0.0
C972 C 0.57658 0.93695 0.68559 0.0
C973 C 0.56198 0.9344 0.72447 0.0
C974 C 0.54273 0.93758 0.7191 0.0
C975 C 0.5368 0.94327 0.67447 0.0
C976 C 0.55147 0.94596 0.63575 0.0
C977 C 0.57074 0.94287 0.64115 0.0
C978 C 0.67862 0.95517 0.66381 0.0
C979 C 0.67135 0.98732 0.76159 0.0
O980 O 0.7131 0.96463 0.77016 0.0
O981 O 0.69878 0.93628 0.82017 0.0
O982 O 0.65333 0.92284 0.83785 0.0
O983 O 0.64599 0.94548 0.80207 0.0
O984 O 0.66465 0.90602 0.74149 0.0
O985 O 0.6295 0.89923 0.71832 0.0
O986 O 0.59916 0.92251 0.72852 0.0
O987 O 0.61493 0.94238 0.66508 0.0
O988 O 0.66397 0.96231 0.66167 0.0
O989 O 0.66999 0.93835 0.69283 0.0
O990 O 0.6499 0.97372 0.75048 0.0
O991 O 0.68524 0.97921 0.76789 0.0
H992 H 0.73071 0.95412 0.70337 0.0
H993 H 0.74066 0.92792 0.66439 0.0
H994 H 0.74199 0.89981 0.80222 0.0
H995 H 0.73241 0.92608 0.84142 0.0
H996 H 0.5652 0.92955 0.75931 0.0
H997 H 0.53221 0.93528 0.75012 0.0
H998 H 0.5479 0.9503 0.60072 0.0
H999 H 0.58092 0.9447 0.60979 0.0
Nd1000 Nd 0.14994 0.74776 0.77062 0.0
Nd1001 Nd 0.15568 0.71559 0.71769 0.0
C1002 C 0.13385 0.77191 0.81225 0.0
C1003 C 0.13826 0.78481 0.85655 0.0
C1004 C 0.12097 0.78733 0.87809 0.0
C1005 C 0.1263 0.80319 0.91476 0.0
C1006 C 0.14906 0.81697 0.92883 0.0
C1007 C 0.16553 0.81178 0.91196 0.0
C1008 C 0.16018 0.79588 0.87591 0.0
C1009 C 0.15929 0.72293 0.83773 0.0
C1010 C 0.20166 0.76896 0.73037 0.0
C1011 C 0.16359 0.68218 0.68494 0.0
C1012 C 0.15781 0.65711 0.68079 0.0
C1013 C 0.14951 0.64123 0.71911 0.0
C1014 C 0.1457 0.61856 0.71404 0.0
C1015 C 0.15023 0.61061 0.6706 0.0
C1016 C 0.15859 0.62662 0.6326 0.0
C1017 C 0.16217 0.6491 0.63751 0.0
C1018 C 0.13874 0.7399 0.65996 0.0
C1019 C 0.10582 0.69946 0.74925 0.0
O1020 O 0.15013 0.78021 0.78039 0.0
O1021 O 0.12461 0.75002 0.81718 0.0
O1022 O 0.17066 0.74485 0.83287 0.0
O1023 O 0.14682 0.71454 0.8002 0.0
O1024 O 0.18714 0.77411 0.7504 0.0
O1025 O 0.19411 0.74726 0.71765 0.0
O1026 O 0.17195 0.69362 0.7246 0.0
O1027 O 0.15177 0.68962 0.66186 0.0
O1028 O 0.13253 0.71838 0.65663 0.0
O1029 O 0.15457 0.74788 0.69103 0.0
O1030 O 0.12025 0.69197 0.74807 0.0
O1031 O 0.11353 0.72144 0.74743 0.0
H1032 H 0.10372 0.77817 0.86451 0.0
H1033 H 0.11309 0.80609 0.9288 0.0
H1034 H 0.18322 0.82191 0.9223 0.0
H1035 H 0.17357 0.79351 0.86074 0.0
H1036 H 0.14599 0.64635 0.7533 0.0
H1037 H 0.13914 0.60714 0.74444 0.0
H1038 H 0.16247 0.62172 0.59854 0.0
H1039 H 0.16877 0.66049 0.60706 0.0
Nd1040 Nd 0.34123 0.41952 0.76624 0.0
Nd1041 Nd 0.37721 0.45738 0.71507 0.0
C1042 C 0.31001 0.37871 0.79648 0.0
C1043 C 0.28629 0.36316 0.78158 0.0
C1044 C 0.28125 0.34871 0.74166 0.0
C1045 C 0.25939 0.33796 0.72167 0.0
C1046 C 0.24246 0.3414 0.74192 0.0
C1047 C 0.24694 0.35394 0.78436 0.0
C1048 C 0.26859 0.36464 0.80414 0.0
C1049 C 0.36906 0.4537 0.83315 0.0
C1050 C 0.32397 0.45178 0.71858 0.0
C1051 C 0.41238 0.49865 0.68673 0.0
C1052 C 0.43766 0.51788 0.68498 0.0
C1053 C 0.4467 0.53627 0.71783 0.0
C1054 C 0.46909 0.55544 0.71288 0.0
C1055 C 0.48377 0.55746 0.67465 0.0
C1056 C 0.47484 0.53898 0.64209 0.0
C1057 C 0.45244 0.51982 0.647 0.0
C1058 C 0.35263 0.41708 0.65666 0.0
C1059 C 0.38874 0.41947 0.75242 0.0
O1060 O 0.32589 0.38197 0.76581 0.0
O1061 O 0.31386 0.39762 0.81688 0.0
O1062 O 0.34702 0.44225 0.83271 0.0
O1063 O 0.37581 0.44782 0.79577 0.0
O1064 O 0.31721 0.43135 0.73594 0.0
O1065 O 0.34637 0.46578 0.71112 0.0
O1066 O 0.3999 0.49531 0.72499 0.0
O1067 O 0.40509 0.47973 0.66259 0.0
O1068 O 0.37452 0.43098 0.65718 0.0
O1069 O 0.34447 0.42574 0.68589 0.0
O1070 O 0.39808 0.44144 0.74364 0.0
O1071 O 0.36657 0.4068 0.75618 0.0
H1072 H 0.29446 0.34684 0.72408 0.0
H1073 H 0.25604 0.328 0.68933 0.0
H1074 H 0.23384 0.35635 0.80099 0.0
H1075 H 0.27173 0.37511 0.8356 0.0
H1076 H 0.43622 0.53614 0.74719 0.0
H1077 H 0.47484 0.56901 0.73889 0.0
H1078 H 0.48518 0.53949 0.61203 0.0
H1079 H 0.44651 0.50662 0.62008 0.0
Nd1080 Nd 0.62687 0.98791 0.09939 0.0
Nd1081 Nd 0.62303 0.9508 0.1558 0.0
C1082 C 0.63705 1.0251 0.05024 0.0
C1083 C 0.62639 1.02792 1.00688 0.0
C1084 C 0.60299 1.02034 1.0066 0.0
C1085 C 0.5925 1.02159 0.96501 0.0
C1086 C 0.60506 1.03027 0.92273 0.0
C1087 C 0.62835 0.0374 0.9222 0.0
C1088 C 0.639 1.03629 0.96428 0.0
C1089 C 0.61856 0.95238 0.03668 0.0
C1090 C 0.576 0.95696 0.14436 0.0
C1091 C 0.61572 0.90952 0.18755 0.0
C1092 C 0.6217 0.8903 0.19173 0.0
C1093 C 0.62068 0.87658 0.15244 0.0
C1094 C 0.62391 0.8574 0.15811 0.0
C1095 C 0.62808 0.85069 0.20341 0.0
C1096 C 0.62919 0.86444 0.24258 0.0
C1097 C 0.62608 0.88366 0.23689 0.0
C1098 C 0.63882 0.99198 0.21151 0.0
C1099 C 0.67329 0.98779 0.12459 0.0
O1100 O 0.62481 1.01924 0.08926 0.0
O1101 O 0.64765 1.01372 0.04445 0.0
O1102 O 0.60721 0.96309 0.03798 0.0
O1103 O 0.63135 0.95805 0.07395 0.0
O1104 O 0.58961 0.97602 0.12135 0.0
O1105 O 0.58435 0.94361 0.15866 0.0
O1106 O 0.60771 0.91285 0.14752 0.0
O1107 O 0.62683 0.92849 0.21167 0.0
O1108 O 0.6457 0.97716 0.2152 0.0
O1109 O 0.62304 0.9838 0.1801 0.0
O1110 O 0.66011 0.96576 0.13107 0.0
O1111 O 0.66414 1.0009 0.12119 0.0
H1112 H 0.59265 1.01337 0.03844 0.0
H1113 H 0.57451 1.01616 0.96602 0.0
H1114 H 0.63826 0.04425 0.88979 0.0
H1115 H 0.65701 0.04185 0.96359 0.0
H1116 H 0.61704 0.88046 0.11703 0.0
H1117 H 0.62287 0.84756 0.12677 0.0
H1118 H 0.63234 0.86021 0.2781 0.0
H1119 H 0.62668 0.89316 0.26848 0.0
Nd1120 Nd 0.09722 0.65658 0.10374 0.0
Nd1121 Nd 0.14054 0.68953 0.15291 0.0
C1122 C 1.05377 0.62673 0.09064 0.0
C1123 C 1.03884 0.60258 0.09906 0.0
C1124 C 1.04455 0.59192 0.13533 0.0
C1125 C 1.04091 0.57013 0.12757 0.0
C1126 C 1.03187 0.55962 0.08363 0.0
C1127 C 1.02113 0.56795 0.05358 0.0
C1128 C 1.02465 0.5897 0.06144 0.0
C1129 C 0.12839 0.68364 0.03401 0.0
C1130 C 0.13105 0.63646 0.14311 0.0
C1131 C 0.17993 0.72842 0.17421 0.0
C1132 C 0.20252 0.75078 0.18353 0.0
C1133 C 0.21746 0.76354 0.14594 0.0
C1134 C 0.23684 0.78553 0.15329 0.0
C1135 C 0.24191 0.7972 0.19813 0.0
C1136 C 0.2284 0.78274 0.23658 0.0
C1137 C 0.20898 0.76072 0.22937 0.0
C1138 C 0.10075 0.66496 0.21342 0.0
C1139 C 0.10678 0.7078 0.11173 0.0
O1140 O 0.06162 0.63927 0.12892 0.0
O1141 O 0.06945 0.63169 0.05788 0.0
O1142 O 0.1065 0.67455 0.03174 0.0
O1143 O 0.13394 0.67682 0.07269 0.0
O1144 O 0.11061 0.63176 0.12698 0.0
O1145 O 0.14671 0.65805 0.15283 0.0
O1146 O 0.17496 0.71855 0.13234 0.0
O1147 O 0.16458 0.71628 0.20654 0.0
O1148 O 0.12131 0.66934 0.22464 0.0
O1149 O 0.10289 0.67435 0.17315 0.0
O1150 O 0.1273 0.71342 0.12702 0.0
O1151 O 0.09143 0.68661 0.10379 0.0
H1152 H 1.05514 0.60155 0.16523 0.0
H1153 H 1.04889 0.56351 0.15133 0.0
H1154 H 1.01372 0.55959 0.01995 0.0
H1155 H 1.01978 0.59769 0.03379 0.0
H1156 H 0.21417 0.75654 0.11012 0.0
H1157 H 0.24796 0.79294 0.12289 0.0
H1158 H 0.23274 0.78787 0.27333 0.0
H1159 H 0.19892 0.75145 0.26021 0.0
Nd1160 Nd 0.44165 0.46789 0.08547 0.0
Nd1161 Nd 0.40451 0.4702 0.14867 0.0
C1162 C 0.47228 0.46171 0.0398 0.0
C1163 C 0.48587 0.47252 0.99638 0.0
C1164 C 0.5092 0.48785 1.00128 0.0
C1165 C 0.52144 0.50216 0.96351 0.0
C1166 C 0.51065 0.5012 0.91998 0.0
C1167 C 0.48792 0.48435 0.91317 0.0
C1168 C 0.4755 0.47019 0.95136 0.0
C1169 C 0.41226 0.47639 0.02876 0.0
C1170 C 0.45698 0.51706 0.1402 0.0
C1171 C 0.36517 0.46976 0.16933 0.0
C1172 C 0.34277 0.46973 0.17989 0.0
C1173 C 0.33272 0.47768 0.14631 0.0
C1174 C 0.31053 0.47478 0.15314 0.0
C1175 C 0.29619 0.46257 0.1927 0.0
C1176 C 0.30794 0.45746 0.22892 0.0
C1177 C 0.32999 0.46009 0.22197 0.0
C1178 C 0.43153 0.4559 0.20602 0.0
C1179 C 0.39464 0.42106 0.11063 0.0
O1180 O 0.47715 0.47509 0.07691 0.0
O1181 O 0.45042 0.4485 0.0341 0.0
O1182 O 0.43425 0.48657 0.02523 0.0
O1183 O 0.4068 0.46367 0.0662 0.0
O1184 O 0.46343 0.50407 0.11742 0.0
O1185 O 0.43506 0.50877 0.15261 0.0
O1186 O 0.37964 0.48268 0.1362 0.0
O1187 O 0.3729 0.45874 0.19464 0.0
O1188 O 0.41446 0.45815 0.22144 0.0
O1189 O 0.43283 0.46186 0.16243 0.0
O1190 O 0.38543 0.43352 0.12199 0.0
O1191 O 0.41659 0.43005 0.1017 0.0
H1192 H 0.51765 0.48979 0.03531 0.0
H1193 H 0.53912 0.51487 0.96911 0.0
H1194 H 0.47949 0.48312 0.87945 0.0
H1195 H 0.45759 0.45829 0.94623 0.0
H1196 H 0.34194 0.48603 0.11396 0.0
H1197 H 0.30499 0.48264 0.12678 0.0
H1198 H 0.30073 0.45181 0.26402 0.0
H1199 H 0.33709 0.45453 0.25016 0.0
Nd1200 Nd 0.14047 0.46946 0.64168 0.0
Nd1201 Nd 0.09932 0.46367 0.59105 0.0
C1202 C 0.17938 0.46864 0.66299 0.0
C1203 C 0.20184 0.46854 0.67299 0.0
C1204 C 0.21956 0.47643 0.6385 0.0
C1205 C 0.2396 0.47486 0.64561 0.0
C1206 C 0.24314 0.46529 0.68763 0.0
C1207 C 0.22557 0.45761 0.72242 0.0
C1208 C 0.20546 0.45912 0.71525 0.0
C1209 C 0.09995 0.45397 0.70079 0.0
C1210 C 0.10442 0.41928 0.59495 0.0
C1211 C 0.06061 0.46258 0.57537 0.0
C1212 C 1.05112 0.47483 0.6015 0.0
C1213 C 1.0494 0.47369 0.65193 0.0
C1214 C 1.04521 0.48899 0.67723 0.0
C1215 C 1.04299 0.50572 0.65237 0.0
C1216 C 1.04323 0.5059 0.60209 0.0
C1217 C 1.04721 0.49054 0.57682 0.0
C1218 C 0.12995 0.46594 0.5223 0.0
C1219 C 0.13374 0.51468 0.64086 0.0
O1220 O 0.17673 0.47873 0.62566 0.0
O1221 O 0.16155 0.46013 0.69117 0.0
O1222 O 0.12072 0.46863 0.71431 0.0
O1223 O 0.10213 0.44824 0.65908 0.0
O1224 O 0.12564 0.43339 0.60808 0.0
O1225 O 0.08959 0.42631 0.5903 0.0
O1226 O 0.06195 0.44674 0.59941 0.0
O1227 O 0.07898 0.47543 0.55033 0.0
O1228 O 0.108 0.45502 0.51875 0.0
O1229 O 0.13594 0.47786 0.56155 0.0
O1230 O 0.11306 0.49956 0.62623 0.0
O1231 O 0.14903 0.50791 0.64684 0.0
H1232 H 0.21781 0.48359 0.60515 0.0
H1233 H 0.25238 0.48099 0.61764 0.0
H1234 H 0.22724 0.45005 0.75526 0.0
H1235 H 0.1925 0.45256 0.74285 0.0
H1236 H 1.05241 0.46178 0.67202 0.0
H1237 H 1.04486 0.48852 0.71601 0.0
H1238 H 1.04134 0.51866 0.58242 0.0
H1239 H 1.04853 0.4918 0.53814 0.0
Nd1240 Nd 0.62506 0.68996 0.65576 0.0
Nd1241 Nd 0.6301 0.6542 0.59904 0.0
C1242 C 0.62536 0.72948 0.67388 0.0
C1243 C 0.62654 0.75264 0.68101 0.0
C1244 C 0.63892 0.77104 0.64893 0.0
C1245 C 0.64057 0.79266 0.65523 0.0
C1246 C 0.63015 0.79725 0.69424 0.0
C1247 C 0.61766 0.77884 0.72622 0.0
C1248 C 0.61583 0.7571 0.7197 0.0
C1249 C 0.6423 0.66717 0.71804 0.0
C1250 C 0.67539 0.69974 0.62291 0.0
C1251 C 0.63402 0.62108 0.55984 0.0
C1252 C 0.62659 0.60937 0.51387 0.0
C1253 C 0.60432 0.60158 0.49793 0.0
C1254 C 0.5967 0.58874 0.4565 0.0
C1255 C 0.61126 0.58374 0.43006 0.0
C1256 C 0.63426 0.5937 0.44281 0.0
C1257 C 0.64183 0.60626 0.48514 0.0
C1258 C 0.62767 0.68539 0.53639 0.0
C1259 C 0.57857 0.63764 0.645 0.0
O1260 O 0.63849 0.72709 0.64304 0.0
O1261 O 0.61167 0.71036 0.69626 0.0
O1262 O 0.63816 0.68323 0.73135 0.0
O1263 O 0.6368 0.66446 0.67442 0.0
O1264 O 0.66193 0.70861 0.62515 0.0
O1265 O 0.66655 0.67754 0.62475 0.0
O1266 O 0.61806 0.61751 0.59081 0.0
O1267 O 0.64985 0.64234 0.55703 0.0
O1268 O 0.63975 0.67575 0.5317 0.0
O1269 O 0.61574 0.67772 0.57527 0.0
O1270 O 0.59208 0.63177 0.62237 0.0
O1271 O 0.5866 0.65927 0.65897 0.0
H1272 H 0.64747 0.76875 0.61848 0.0
H1273 H 0.65029 0.806 0.62947 0.0
H1274 H 0.6093 0.78132 0.75677 0.0
H1275 H 0.60615 0.74377 0.74549 0.0
H1276 H 0.59248 0.60452 0.5185 0.0
H1277 H 0.5789 0.58132 0.44694 0.0
H1278 H 0.64574 0.59018 0.42238 0.0
H1279 H 0.6593 0.61281 0.49634 0.0
Nd1280 Nd 0.40367 0.95173 0.65475 0.0
Nd1281 Nd 0.43967 0.99144 0.59213 0.0
C1282 C 0.36443 0.91235 0.67481 0.0
C1283 C 0.34119 0.89043 0.68317 0.0
C1284 C 0.32222 0.88485 0.65316 0.0
C1285 C 0.3005 0.86512 0.66079 0.0
C1286 C 0.29639 0.84961 0.6987 0.0
C1287 C 0.31541 0.85507 0.72858 0.0
C1288 C 0.33715 0.87496 0.72117 0.0
C1289 C 0.42909 0.99272 0.71285 0.0
C1290 C 0.39328 0.99219 0.62392 0.0
C1291 C 0.4663 1.02862 0.54328 0.0
C1292 C 0.47981 1.03165 0.50038 0.0
C1293 C 0.4885 1.01702 0.49263 0.0
C1294 C 0.5019 1.01998 0.45285 0.0
C1295 C 0.5066 0.03739 0.41984 0.0
C1296 C 0.49627 0.05077 0.42512 0.0
C1297 C 0.48301 0.04802 0.46573 0.0
C1298 C 0.41221 0.95358 0.53472 0.0
C1299 C 0.45682 0.95848 0.6426 0.0
O1300 O 0.36874 0.92394 0.63501 0.0
O1301 O 0.38179 0.92139 0.70442 0.0
O1302 O 0.41286 0.97297 0.72833 0.0
O1303 O 0.43079 0.98881 0.66902 0.0
O1304 O 0.38464 0.97149 0.64192 0.0
O1305 O 0.4144 1.00381 0.60817 0.0
O1306 O 0.47293 1.02277 0.58224 0.0
O1307 O 0.44441 1.01671 0.53653 0.0
O1308 O 0.43422 0.96556 0.53279 0.0
O1309 O 0.40588 0.96011 0.57204 0.0
O1310 O 0.46317 0.9789 0.62444 0.0
O1311 O 0.4346 0.94383 0.65116 0.0
H1312 H 0.32405 0.89598 0.62355 0.0
H1313 H 0.28671 0.86204 0.63678 0.0
H1314 H 0.31343 0.8439 0.75821 0.0
H1315 H 0.35087 0.87821 0.74549 0.0
H1316 H 0.48548 1.00372 0.5181 0.0
H1317 H 0.5097 1.00944 0.44923 0.0
H1318 H 0.49966 0.06418 0.39968 0.0
H1319 H 0.47574 0.05893 0.47064 0.0
Nd1320 Nd 0.15501 0.45558 0.21179 0.0
Nd1321 Nd 0.15089 0.41481 0.27112 0.0
C1322 C 0.15346 0.49422 0.19262 0.0
C1323 C 0.15123 0.5157 0.1846 0.0
C1324 C 0.136 0.51966 0.21239 0.0
C1325 C 0.13344 0.53913 0.20553 0.0
C1326 C 0.14594 0.55591 0.17045 0.0
C1327 C 0.16122 0.55202 0.14259 0.0
C1328 C 0.1638 0.53248 0.14947 0.0
C1329 C 0.13935 0.4153 0.15105 0.0
C1330 C 0.10455 0.41429 0.24802 0.0
C1331 C 0.15226 0.37871 0.30007 0.0
C1332 C 0.16579 0.36892 0.28108 0.0
C1333 C 0.15974 0.35659 0.23779 0.0
C1334 C 0.17496 0.3514 0.21511 0.0
C1335 C 0.19623 0.3584 0.23551 0.0
C1336 C 0.20174 0.36945 0.27995 0.0
C1337 C 0.18662 0.37457 0.30269 0.0
C1338 C 0.14887 0.44663 0.33133 0.0
C1339 C 0.20163 0.4502 0.22195 0.0
O1340 O 0.14112 0.47893 0.22461 0.0
O1341 O 0.16724 0.48898 0.16991 0.0
O1342 O 0.14283 0.43519 0.13677 0.0
O1343 O 0.14493 0.41873 0.19485 0.0
O1344 O 0.11705 0.43566 0.2338 0.0
O1345 O 0.11343 0.40158 0.25954 0.0
O1346 O 0.13628 0.37753 0.27187 0.0
O1347 O 0.1639 0.39858 0.32095 0.0
O1348 O 0.13738 0.42473 0.33555 0.0
O1349 O 0.16209 0.4519 0.29398 0.0
O1350 O 0.18766 0.43016 0.24138 0.0
O1351 O 0.19388 0.46443 0.21085 0.0
H1352 H 0.12584 0.50754 0.23988 0.0
H1353 H 0.12146 0.54105 0.22792 0.0
H1354 H 0.17128 0.56422 0.11515 0.0
H1355 H 0.1757 0.53051 0.12696 0.0
H1356 H 0.14369 0.35176 0.2204 0.0
H1357 H 0.17044 0.34238 0.18144 0.0
H1358 H 0.21806 0.37459 0.29651 0.0
H1359 H 0.19169 0.38389 0.3361 0.0
Nd1360 Nd 0.63805 0.719 0.22742 0.0
Nd1361 Nd 0.67869 0.75541 0.28622 0.0
C1362 C 0.59935 0.67956 0.20634 0.0
C1363 C 0.57729 0.65676 0.19731 0.0
C1364 C 0.56582 0.64118 0.2348 0.0
C1365 C 0.54628 0.61945 0.2267 0.0
C1366 C 0.53787 0.61077 0.17995 0.0
C1367 C 0.54798 0.62784 0.14347 0.0
C1368 C 0.56733 0.64982 0.15159 0.0
C1369 C 0.6787 0.7428 0.16687 0.0
C1370 C 0.67951 0.71016 0.26154 0.0
C1371 C 0.71448 0.78988 0.32642 0.0
C1372 C 0.71967 0.7987 0.37544 0.0
C1373 C 0.7307 0.82221 0.38195 0.0
C1374 C 0.73058 0.83109 0.42669 0.0
C1375 C 0.71947 0.81661 0.46582 0.0
C1376 C 0.71092 0.79315 0.46062 0.0
C1377 C 0.71068 0.78417 0.41537 0.0
C1378 C 0.6456 0.72282 0.34704 0.0
C1379 C 0.64366 0.77113 0.23568 0.0
O1380 O 0.61185 0.68285 0.2443 0.0
O1381 O 0.60726 0.69782 0.17925 0.0
O1382 O 0.65856 0.72701 0.15283 0.0
O1383 O 0.67528 0.74495 0.2106 0.0
O1384 O 0.65726 0.70083 0.2555 0.0
O1385 O 0.69264 0.73243 0.26269 0.0
O1386 O 0.6983 0.79186 0.30548 0.0
O1387 O 0.71297 0.7702 0.31877 0.0
O1388 O 0.66721 0.73393 0.35375 0.0
O1389 O 0.64102 0.73047 0.30847 0.0
O1390 O 0.66359 0.77731 0.25606 0.0
O1391 O 0.62954 0.7492 0.22479 0.0
H1392 H 0.57174 0.64595 0.27124 0.0
H1393 H 0.53771 0.61005 0.25844 0.0
H1394 H 0.54087 0.62471 0.10788 0.0
H1395 H 0.57457 0.66139 0.12158 0.0
H1396 H 0.73781 0.83367 0.35166 0.0
H1397 H 0.73755 0.84926 0.42963 0.0
H1398 H 0.70306 0.78168 0.49055 0.0
H1399 H 0.70226 0.76589 0.41114 0.0
Nd1400 Nd 0.37613 0.93877 0.21978 0.0
Nd1401 Nd 0.34182 0.94314 0.27318 0.0
C1402 C 0.41036 0.93171 0.18845 0.0
C1403 C 0.43541 0.93711 0.18505 0.0
C1404 C 0.4482 0.93686 0.22505 0.0
C1405 C 0.47053 0.93976 0.22002 0.0
C1406 C 0.4812 0.94276 0.17471 0.0
C1407 C 0.46844 0.9431 0.13488 0.0
C1408 C 0.44624 0.94038 0.13993 0.0
C1409 C 0.35301 0.95718 0.16304 0.0
C1410 C 0.39066 0.98804 0.25714 0.0
C1411 C 0.31259 0.9538 0.31182 0.0
C1412 C 0.29851 0.94538 0.3556 0.0
C1413 C 0.27626 0.92695 0.35217 0.0
C1414 C 0.26503 0.91463 0.39288 0.0
C1415 C 0.27582 0.92051 0.4376 0.0
C1416 C 0.29689 0.94043 0.44224 0.0
C1417 C 0.30801 0.95308 0.40133 0.0
C1418 C 0.36733 0.93311 0.33915 0.0
C1419 C 0.32311 0.89206 0.23003 0.0
O1420 O 0.39824 0.92267 0.2272 0.0
O1421 O 0.40326 0.94386 0.16549 0.0
O1422 O 0.37447 0.96306 0.16015 0.0
O1423 O 0.34432 0.94072 0.19298 0.0
O1424 O 0.39837 0.97377 0.25359 0.0
O1425 O 0.36859 0.98034 0.25608 0.0
O1426 O 0.30731 0.93895 0.27757 0.0
O1427 O 0.33452 0.96598 0.31766 0.0
O1428 O 0.34532 0.92349 0.33764 0.0
O1429 O 0.37519 0.94606 0.30209 0.0
O1430 O 0.31744 0.90579 0.25171 0.0
O1431 O 0.34483 0.90024 0.21658 0.0
H1432 H 0.44084 0.93414 0.26053 0.0
H1433 H 0.47944 0.93939 0.25189 0.0
H1434 H 0.47564 0.94537 0.09933 0.0
H1435 H 0.43727 0.94039 0.10787 0.0
H1436 H 0.26818 0.921 0.31766 0.0
H1437 H 0.24853 0.89946 0.38897 0.0
H1438 H 0.30521 0.94541 0.47675 0.0
H1439 H 0.32461 0.96801 0.40518 0.0
C1440 C 0.31477 0.19274 0.08325 0.0
C1441 C 0.3057 0.20244 0.0504 0.0
C1442 C 0.28835 0.16542 1.00617 0.0
C1443 C 0.29962 0.15684 0.03589 0.0
N1444 N 0.32747 0.1654 0.0978 0.0
N1445 N 0.28667 0.19825 0.97518 0.0
C1446 C 0.31385 0.1714 0.07308 0.0
C1447 C 0.29315 0.18874 1.01053 0.0
N1448 N 0.32347 0.20341 0.12587 0.0
N1449 N 0.27233 0.15103 0.97448 0.0
H1450 H 0.29 0.21499 0.9765 0.0
H1451 H 0.27986 0.19025 0.94268 0.0
H1452 H 0.26814 0.13409 0.9706 0.0
H1453 H 0.26172 0.15523 0.95544 0.0
H1454 H 0.32828 0.19626 0.15333 0.0
H1455 H 0.32344 0.21818 0.1361 0.0
H1456 H 0.34028 0.17642 0.12092 0.0
H1457 H 0.3276 0.15032 0.09157 0.0
C1458 C 0.9323 0.15082 0.07986 0.0
C1459 C 0.93839 0.16309 0.03542 0.0
C1460 C 0.8998 0.13358 1.00509 0.0
C1461 C 0.89293 0.12285 0.05101 0.0
N1462 N 0.9028 0.12376 0.13394 0.0
N1463 N 0.92546 0.167 0.95753 0.0
C1464 C 0.9093 0.1323 0.08875 0.0
C1465 C 0.92143 0.15451 0.99849 0.0
N1466 N 0.94889 0.1561 0.1133 0.0
N1467 N 0.88561 0.12357 0.96716 0.0
H1468 H 0.94048 0.18231 0.95168 0.0
H1469 H 0.91322 0.16344 0.93134 0.0
H1470 H 0.87016 0.10847 0.9707 0.0
H1471 H 0.88997 0.1289 0.93182 0.0
H1472 H 0.94655 0.14647 0.14406 0.0
H1473 H 0.96572 0.16883 0.10805 0.0
H1474 H 0.91253 0.13143 0.16428 0.0
H1475 H 0.8869 0.10971 0.14149 0.0
C1476 C 0.93155 0.78047 0.08207 0.0
C1477 C 0.92818 0.79043 0.03983 0.0
C1478 C 0.96542 0.79483 1.01096 0.0
C1479 C 0.97038 0.78904 0.05694 0.0
N1480 N 0.95813 0.77989 0.13914 0.0
N1481 N 0.93577 0.79002 0.95569 0.0
C1482 C 0.95346 0.78309 0.09318 0.0
C1483 C 0.94365 0.79339 1.0016 0.0
N1484 N 0.9131 0.76443 0.10657 0.0
N1485 N 0.98116 0.80118 0.9752 0.0
H1486 H 0.9185 0.78315 0.94816 0.0
H1487 H 0.94513 0.78991 0.92624 0.0
H1488 H 0.99634 0.80098 0.97892 0.0
H1489 H 0.97982 0.80825 0.94304 0.0
H1490 H 0.91438 0.75552 0.13573 0.0
H1491 H 0.89679 0.75702 0.09199 0.0
H1492 H 0.94702 0.77724 0.16743 0.0
H1493 H 0.974 0.78241 0.14962 0.0
C1494 C 0.18977 0.29082 0.44889 0.0
C1495 C 0.17983 0.28842 0.49564 0.0
C1496 C 0.21628 0.29211 0.52801 0.0
C1497 C 0.22454 0.29121 0.4815 0.0
N1498 N 0.21685 0.28735 0.39697 0.0
N1499 N 0.19492 0.30569 0.57237 0.0
C1500 C 0.21055 0.28988 0.44195 0.0
C1501 C 0.19596 0.29389 0.53393 0.0
N1502 N 0.18207 0.29841 0.41206 0.0
N1503 N 0.22817 0.29206 0.56735 0.0
H1504 H 0.18519 0.31371 0.5714 0.0
H1505 H 0.20688 0.3116 0.5999 0.0
H1506 H 0.24328 0.2916 0.56504 0.0
H1507 H 0.22189 0.29056 0.60208 0.0
H1508 H 0.18956 0.30239 0.37823 0.0
H1509 H 0.17109 0.30477 0.41785 0.0
H1510 H 0.20628 0.28369 0.36728 0.0
H1511 H 0.23167 0.28672 0.39022 0.0
C1512 C 0.79913 0.93087 0.45504 0.0
C1513 C 0.80771 0.9497 0.48761 0.0
C1514 C 0.82442 0.92962 0.53387 0.0
C1515 C 0.81327 0.90963 0.50462 0.0
N1516 N 0.78471 0.89039 0.44408 0.0
N1517 N 0.82485 0.96342 0.56501 0.0
C1518 C 0.79913 0.91011 0.46722 0.0
C1519 C 0.81939 0.94806 0.5289 0.0
N1520 N 0.79191 0.93303 0.4107 0.0
N1521 N 0.84066 0.93164 0.56549 0.0
H1522 H 0.82098 0.97648 0.56397 0.0
H1523 H 0.83107 0.96177 0.598 0.0
H1524 H 0.84539 0.91926 0.56928 0.0
H1525 H 0.85103 0.94657 0.58421 0.0
H1526 H 0.78732 0.92076 0.38409 0.0
H1527 H 0.79336 0.94821 0.3983 0.0
H1528 H 0.7724 0.88912 0.41999 0.0
H1529 H 0.78325 0.87478 0.45309 0.0
C1530 C 0.16309 0.88469 0.45299 0.0
C1531 C 0.14421 0.87448 0.4856 0.0
C1532 C 0.1636 0.91135 0.53114 0.0
C1533 C 0.18355 0.92048 0.50158 0.0
N1534 N 0.20303 0.91249 0.43906 0.0
N1535 N 0.12957 0.87798 0.56175 0.0
C1536 C 0.18337 0.90617 0.46377 0.0
C1537 C 0.14534 0.8879 0.52617 0.0
N1538 N 0.16138 0.87442 0.40996 0.0
N1539 N 0.16156 0.92536 0.5633 0.0
H1540 H 0.11649 0.86111 0.56041 0.0
H1541 H 0.13075 0.88575 0.59458 0.0
H1542 H 0.17401 0.94237 0.56751 0.0
H1543 H 0.14666 0.9208 0.58225 0.0
H1544 H 0.17336 0.88192 0.38268 0.0
H1545 H 0.14678 0.85965 0.39925 0.0
H1546 H 0.20502 0.90169 0.41556 0.0
H1547 H 0.2181 0.92759 0.44573 0.0
C1548 C 0.83013 0.91617 0.98628 0.0
C1549 C 0.81251 0.91966 1.00561 0.0
C1550 C 0.78924 0.87737 0.0154 0.0
C1551 C 0.80588 0.8736 0.99196 0.0
N1552 N 0.84121 0.89068 0.94828 0.0
N1553 N 0.7739 0.90179 0.03517 0.0
C1554 C 0.82613 0.89342 0.97587 0.0
C1555 C 0.7918 0.89973 0.019 0.0
N1556 N 0.85127 0.9346 0.97973 0.0
N1557 N 0.77041 0.85979 0.03576 0.0
H1558 H 0.77408 0.91724 0.03599 0.0
H1559 H 0.75844 0.88778 0.04546 0.0
H1560 H 0.76733 0.84312 0.03761 0.0
H1561 H 0.76733 0.84312 0.03761 0.0
H1562 H 0.86554 0.93335 0.97106 0.0
H1563 H 0.85503 0.95115 0.98746 0.0
H1564 H 0.85482 0.90403 0.93046 0.0
H1565 H 0.83903 0.87476 0.93978 0.0
C1566 C 0.20199 0.94915 0.95152 0.0
C1567 C 0.21929 0.95614 0.98687 0.0
C1568 C 0.19358 0.91994 0.0304 0.0
C1569 C 0.1748 0.91402 0.9982 0.0
N1570 N 0.17054 0.91716 0.91304 0.0
N1571 N 0.2298 0.94874 0.06399 0.0
C1572 C 0.18129 0.92726 0.95463 0.0
C1573 C 0.21436 0.94175 0.02756 0.0
N1574 N 0.2054 0.96334 0.91381 0.0
N1575 N 0.19365 0.90331 0.0578 0.0
H1576 H 0.2452 0.96406 0.06279 0.0
H1577 H 0.22632 0.94045 0.09698 0.0
H1578 H 0.18227 0.88615 0.05172 0.0
H1579 H 0.20724 0.90587 0.07941 0.0
H1580 H 0.19263 0.96054 0.88943 0.0
H1581 H 0.22031 0.97897 0.9098 0.0
H1582 H 0.17517 0.9251 0.87969 0.0
H1583 H 0.16058 0.89959 0.9104 0.0
C1584 C 0.16574 0.27625 0.03344 0.0
C1585 C 0.18244 0.28157 0.99668 0.0
C1586 C 0.15725 0.28904 0.94279 0.0
C1587 C 0.14194 0.28636 0.98089 0.0
N1588 N 0.13494 0.28108 0.06579 0.0
N1589 N 0.19522 0.29766 0.9181 0.0
C1590 C 0.1471 0.28086 0.02705 0.0
C1591 C 0.17839 0.28918 0.95187 0.0
N1592 N 0.16707 0.26591 0.07433 0.0
N1593 N 0.1512 0.29046 0.89685 0.0
H1594 H 0.21092 0.29866 0.92334 0.0
H1595 H 0.19451 0.30584 0.88704 0.0
H1596 H 0.13582 0.28955 0.88802 0.0
H1597 H 0.16019 0.28978 0.86733 0.0
H1598 H 0.15434 0.25936 0.10031 0.0
H1599 H 0.17982 0.26183 0.08007 0.0
H1600 H 0.13939 0.27992 0.10095 0.0
H1601 H 0.12166 0.28459 0.06314 0.0
C1602 C 0.93052 0.78869 0.58788 0.0
C1603 C 0.94217 0.79676 0.54322 0.0
C1604 C 0.9074 0.79729 0.51333 0.0
C1605 C 0.89658 0.79096 0.55922 0.0
N1606 N 0.90168 0.78645 0.64314 0.0
N1607 N 0.94251 0.81332 0.46661 0.0
C1608 C 0.90934 0.78837 0.59718 0.0
C1609 C 0.93076 0.80235 0.50696 0.0
N1610 N 0.93902 0.78012 0.62116 0.0
N1611 N 0.89508 0.79743 0.47481 0.0
H1612 H 0.95942 0.81771 0.46099 0.0
H1613 H 0.93627 0.82004 0.4411 0.0
H1614 H 0.87826 0.79377 0.47754 0.0
H1615 H 0.90088 0.79922 0.43965 0.0
H1616 H 0.93017 0.77165 0.65198 0.0
H1617 H 0.95383 0.77935 0.6157 0.0
H1618 H 0.91112 0.7868 0.67289 0.0
H1619 H 0.8871 0.78719 0.65189 0.0
C1620 C 0.30379 0.13141 0.50418 0.0
C1621 C 0.30451 0.12347 0.55126 0.0
C1622 C 0.29826 0.15459 0.58301 0.0
C1623 C 0.29987 0.16398 0.53629 0.0
N1624 N 0.30693 0.16203 0.45248 0.0
N1625 N 0.30442 0.12951 0.63611 0.0
C1626 C 0.30311 0.15234 0.49692 0.0
C1627 C 0.30234 0.13574 0.59065 0.0
N1628 N 0.30388 0.11895 0.46594 0.0
N1629 N 0.29171 0.16301 0.62036 0.0
H1630 H 0.30551 0.11501 0.64361 0.0
H1631 H 0.30629 0.13934 0.66619 0.0
H1632 H 0.28816 0.17622 0.61642 0.0
H1633 H 0.28766 0.15558 0.65423 0.0
H1634 H 0.30101 0.12203 0.43083 0.0
H1635 H 0.30504 0.10426 0.46982 0.0
H1636 H 0.31197 0.15625 0.42302 0.0
H1637 H 0.30707 0.17724 0.44588 0.0
C1638 C 0.96185 0.1927 0.50566 0.0
C1639 C 0.97166 0.20023 0.55188 0.0
C1640 C 0.93763 0.16543 0.58488 0.0
C1641 C 0.92941 0.15614 0.53805 0.0
N1642 N 0.92635 0.17224 0.4632 0.0
N1643 N 0.96899 0.19156 0.63594 0.0
C1644 C 0.93966 0.17264 0.50019 0.0
C1645 C 0.95953 0.18585 0.5914 0.0
N1646 N 0.9732 0.20517 0.46633 0.0
N1647 N 0.92282 0.15764 0.62253 0.0
H1648 H 0.98464 0.20612 0.64226 0.0
H1649 H 0.96237 0.18074 0.66542 0.0
H1650 H 0.90537 0.14715 0.61747 0.0
H1651 H 0.92687 0.16475 0.65663 0.0
H1652 H 0.968 0.19935 0.43153 0.0
H1653 H 0.98869 0.2203 0.46849 0.0
H1654 H 0.93211 0.18451 0.43622 0.0
H1655 H 0.90865 0.16264 0.46511 0.0
C1656 C 0.96845 0.52322 0.34294 0.0
C1657 C 0.97439 0.53381 0.3891 0.0
C1658 C 0.9768 0.49967 0.41691 0.0
C1659 C 0.96879 0.48817 0.37211 0.0
N1660 N 0.95271 0.48845 0.29543 0.0
N1661 N 0.97931 0.52847 0.4727 0.0
C1662 C 0.96345 0.49989 0.3361 0.0
C1663 C 0.97721 0.52094 0.42665 0.0
N1664 N 0.9687 0.53578 0.30443 0.0
N1665 N 0.98508 0.49083 0.45006 0.0
H1666 H 0.97875 0.54308 0.48185 0.0
H1667 H 0.97905 0.51896 0.50228 0.0
H1668 H 0.98552 0.47586 0.44442 0.0
H1669 H 0.99357 0.49947 0.48095 0.0
H1670 H 0.96717 0.53017 0.26922 0.0
H1671 H 0.9727 0.55269 0.30715 0.0
H1672 H 0.94604 0.49483 0.27013 0.0
H1673 H 0.94841 0.47161 0.28931 0.0
C1674 C 0.58837 0.49373 0.33805 0.0
C1675 C 0.60774 0.49581 0.3633 0.0
C1676 C 0.58086 0.45867 0.40378 0.0
C1677 C 0.56183 0.45604 0.37661 0.0
N1678 N 0.54913 0.46982 0.31097 0.0
N1679 N 0.62207 0.4766 0.41274 0.0
C1680 C 0.56622 0.47322 0.34165 0.0
C1681 C 0.60376 0.47721 0.39411 0.0
N1682 N 0.59066 0.512 0.31267 0.0
N1683 N 0.57703 0.44381 0.44041 0.0
H1684 H 0.6388 0.4891 0.40552 0.0
H1685 H 0.62081 0.46265 0.43117 0.0
H1686 H 0.56096 0.43 0.44781 0.0
H1687 H 0.58933 0.44614 0.46558 0.0
H1688 H 0.577 0.5128 0.29774 0.0
H1689 H 0.6059 0.5274 0.31069 0.0
H1690 H 0.5515 0.48007 0.28125 0.0
H1691 H 0.53293 0.45549 0.31277 0.0
C1692 C 0.61657 0.14174 0.39556 0.0
C1693 C 0.59793 0.12708 0.36519 0.0
C1694 C 0.62048 0.10811 0.34348 0.0
C1695 C 0.63777 0.12095 0.3781 0.0
N1696 N 0.64978 0.14819 0.44205 0.0
N1697 N 0.58168 0.09386 0.31492 0.0
C1698 C 0.63512 0.13735 0.4052 0.0
C1699 C 0.59996 0.10976 0.34013 0.0
N1700 N 0.61717 0.16068 0.4139 0.0
N1701 N 0.62382 0.09441 0.31272 0.0
H1702 H 0.56627 0.09374 0.313 0.0
H1703 H 0.58084 0.07939 0.30007 0.0
H1704 H 0.63819 0.09261 0.31409 0.0
H1705 H 0.61351 0.08652 0.28321 0.0
H1706 H 0.63118 0.17339 0.43189 0.0
H1707 H 0.6046 0.16488 0.40683 0.0
H1708 H 0.64736 0.15818 0.467 0.0
H1709 H 0.66337 0.14565 0.45017 0.0
C1710 C 0.87846 0.62915 0.79064 0.0
C1711 C 0.88873 0.62147 0.82518 0.0
C1712 C 0.85679 0.61523 0.88028 0.0
C1713 C 0.84483 0.6198 0.84317 0.0
N1714 N 0.85653 0.64793 0.78035 0.0
N1715 N 0.88571 0.60568 0.90396 0.0
C1716 C 0.85885 0.63125 0.80246 0.0
C1717 C 0.87711 0.6138 0.86999 0.0
N1718 N 0.88722 0.63434 0.74539 0.0
N1719 N 0.85194 0.61719 0.92683 0.0
H1720 H 0.90096 0.60568 0.89959 0.0
H1721 H 0.87676 0.59742 0.93487 0.0
H1722 H 0.8421 0.62453 0.93587 0.0
H1723 H 0.86095 0.61597 0.95582 0.0
H1724 H 0.87927 0.63815 0.7178 0.0
H1725 H 0.90084 0.63238 0.73428 0.0
H1726 H 0.86749 0.65828 0.75345 0.0
H1727 H 0.84666 0.65424 0.79512 0.0
C1728 C 0.47288 0.24977 0.77974 0.0
C1729 C 0.4751 0.24253 0.82686 0.0
C1730 C 0.47272 0.27633 0.85711 0.0
C1731 C 0.47433 0.28523 0.81 0.0
N1732 N 0.47882 0.28058 0.72606 0.0
N1733 N 0.45892 0.24199 0.90411 0.0
C1734 C 0.47538 0.27198 0.77146 0.0
C1735 C 0.47042 0.25408 0.86454 0.0
N1736 N 0.46366 0.23398 0.74424 0.0
N1737 N 0.47257 0.28868 0.89547 0.0
H1738 H 0.45122 0.2243 0.90529 0.0
H1739 H 0.45313 0.24852 0.93088 0.0
H1740 H 0.47299 0.30418 0.89196 0.0
H1741 H 0.47389 0.28429 0.93066 0.0
H1742 H 0.45992 0.23761 0.71026 0.0
H1743 H 0.45561 0.2166 0.75165 0.0
H1744 H 0.48194 0.2728 0.69716 0.0
H1745 H 0.48084 0.29655 0.71837 0.0
C1746 C 0.81262 0.21654 0.85708 0.0
C1747 C 0.80777 0.20595 0.81104 0.0
C1748 C 0.84341 0.24007 0.78136 0.0
C1749 C 0.84706 0.2516 0.82608 0.0
N1750 N 0.83219 0.25125 0.90457 0.0
N1751 N 0.81721 0.21046 0.72709 0.0
C1752 C 0.83079 0.23987 0.8633 0.0
C1753 C 0.82288 0.21858 0.77271 0.0
N1754 N 0.80063 0.20397 0.89585 0.0
N1755 N 0.86013 0.24911 0.74739 0.0
H1756 H 0.80232 0.19541 0.71892 0.0
H1757 H 0.82599 0.21975 0.69692 0.0
H1758 H 0.87531 0.26436 0.75224 0.0
H1759 H 0.85994 0.24046 0.71648 0.0
H1760 H 0.80493 0.20952 0.93102 0.0
H1761 H 0.7876 0.18711 0.89318 0.0
H1762 H 0.81971 0.24481 0.93107 0.0
H1763 H 0.84484 0.26805 0.91043 0.0
C1764 C 0.45791 0.20952 0.34436 0.0
C1765 C 0.47439 0.20575 0.32035 0.0
C1766 C 0.49895 0.2482 0.31553 0.0
C1767 C 0.48126 0.25182 0.33395 0.0
N1768 N 0.44183 0.23415 0.35751 0.0
N1769 N 0.50972 0.2227 0.27674 0.0
C1770 C 0.46022 0.23193 0.34612 0.0
C1771 C 0.49469 0.22549 0.30441 0.0
N1772 N 0.44035 0.19176 0.3678 0.0
N1773 N 0.52033 0.26644 0.3105 0.0
H1774 H 0.50733 0.20675 0.26772 0.0
H1775 H 0.52346 0.23611 0.2593 0.0
H1776 H 0.52435 0.28296 0.31932 0.0
H1777 H 0.5345 0.26492 0.30229 0.0
H1778 H 0.4291 0.19364 0.39019 0.0
H1779 H 0.4387 0.17565 0.3694 0.0
H1780 H 0.42551 0.22032 0.36195 0.0
H1781 H 0.44235 0.24977 0.35757 0.0
C1782 C 0.8497 0.26409 0.35707 0.0
C1783 C 0.83969 0.24534 0.32439 0.0
C1784 C 0.8737 0.2678 0.27167 0.0
C1785 C 0.88498 0.28523 0.3069 0.0
N1786 N 0.88395 0.29713 0.3876 0.0
N1787 N 0.84541 0.22854 0.25364 0.0
C1788 C 0.87292 0.28261 0.35068 0.0
C1789 C 0.85263 0.24711 0.28249 0.0
N1790 N 0.83674 0.26473 0.3938 0.0
N1791 N 0.88266 0.27132 0.22655 0.0
H1792 H 0.83066 0.21311 0.26046 0.0
H1793 H 0.85518 0.22768 0.22581 0.0
H1794 H 0.89722 0.28632 0.21638 0.0
H1795 H 0.87433 0.26055 0.19789 0.0
H1796 H 0.8419 0.27882 0.41584 0.0
H1797 H 0.8199 0.25204 0.39926 0.0
H1798 H 0.87728 0.2947 0.4221 0.0
H1799 H 0.90065 0.31048 0.38493 0.0
C1800 C 0.81726 0.61776 0.36527 0.0
C1801 C 0.81204 0.6232 0.31913 0.0
C1802 C 0.85042 0.63025 0.29301 0.0
C1803 C 0.85427 0.62115 0.33622 0.0
N1804 N 0.8472 0.62302 0.4202 0.0
N1805 N 0.82341 0.63035 0.23622 0.0
C1806 C 0.83903 0.61898 0.37452 0.0
C1807 C 0.82854 0.62802 0.28239 0.0
N1808 N 0.80178 0.61199 0.40137 0.0
N1809 N 0.86864 0.64519 0.26628 0.0
H1810 H 0.80758 0.62807 0.22619 0.0
H1811 H 0.834 0.63199 0.20756 0.0
H1812 H 0.88522 0.6523 0.27924 0.0
H1813 H 0.86719 0.65373 0.23657 0.0
H1814 H 0.80318 0.60515 0.43379 0.0
H1815 H 0.78669 0.61237 0.39763 0.0
H1816 H 0.83798 0.62343 0.44963 0.0
H1817 H 0.86457 0.63049 0.42716 0.0
C1818 C 0.59374 0.13367 0.82652 0.0
C1819 C 0.60645 0.13118 0.86476 0.0
C1820 C 0.57324 0.12147 0.91876 0.0
C1821 C 0.56062 0.12412 0.88068 0.0
N1822 N 0.5598 0.13444 0.79871 0.0
N1823 N 0.60862 0.12492 0.94905 0.0
C1824 C 0.57127 0.1308 0.83476 0.0
C1825 C 0.59624 0.12581 0.91133 0.0
N1826 N 0.6032 0.13869 0.78178 0.0
N1827 N 0.56296 0.11423 0.96244 0.0
H1828 H 0.62442 0.12601 0.94509 0.0
H1829 H 0.60393 0.12419 0.98474 0.0
H1830 H 0.54737 0.11294 0.97084 0.0
H1831 H 0.56924 0.10858 0.98997 0.0
H1832 H 0.59455 0.13829 0.75076 0.0
H1833 H 0.61994 0.14272 0.77514 0.0
H1834 H 0.56674 0.14132 0.76548 0.0
H1835 H 0.54326 0.13149 0.8027 0.0
C1836 C 0.98055 0.49432 0.91561 0.0
C1837 C 0.96979 0.49708 0.87401 0.0
C1838 C 0.96707 0.46092 0.84325 0.0
C1839 C 0.97545 0.45682 0.88711 0.0
N1840 N 0.98564 0.46873 0.96908 0.0
N1841 N 0.94872 0.47931 0.80227 0.0
C1842 C 0.98094 0.47336 0.92425 0.0
C1843 C 0.96194 0.47929 0.8391 0.0
N1844 N 0.99147 0.51217 0.94639 0.0
N1845 N 0.96512 0.44808 0.80406 0.0
H1846 H 0.94409 0.49177 0.7984 0.0
H1847 H 0.94043 0.46578 0.77856 0.0
H1848 H 0.96937 0.43528 0.80453 0.0
H1849 H 0.96166 0.45175 0.76987 0.0
H1850 H 1.00184 0.51237 0.97414 0.0
H1851 H 0.99213 0.52771 0.94119 0.0
H1852 H 0.98752 0.4788 0.99875 0.0
H1853 H 0.98506 0.4535 0.97783 0.0
C1854 C 0.63237 0.5257 0.83407 0.0
C1855 C 0.6385 0.53457 0.88136 0.0
C1856 C 0.60107 0.50185 0.90816 0.0
C1857 C 0.59629 0.491 0.86216 0.0
N1858 N 0.60075 0.50459 0.78073 0.0
N1859 N 0.62884 0.52822 0.965 0.0
C1860 C 0.61035 0.50588 0.82431 0.0
C1861 C 0.62286 0.52169 0.91861 0.0
N1862 N 0.64715 0.53669 0.79741 0.0
N1863 N 0.58348 0.49614 0.93922 0.0
H1864 H 0.64445 0.54221 0.97435 0.0
H1865 H 0.61933 0.51835 0.99401 0.0
H1866 H 0.56658 0.48583 0.92892 0.0
H1867 H 0.5852 0.50469 0.97128 0.0
H1868 H 0.64474 0.52986 0.76307 0.0
H1869 H 0.66267 0.55156 0.80241 0.0
H1870 H 0.60934 0.5156 0.75243 0.0
H1871 H 0.58313 0.49621 0.77664 0.0
C1872 C 0.62915 0.8545 0.67427 0.0
C1873 C 0.63822 0.86651 0.71811 0.0
C1874 C 0.644 0.83426 0.74378 0.0
C1875 C 0.63283 0.82121 0.70227 0.0
N1876 N 0.61129 0.81834 0.63146 0.0
N1877 N 0.6493 0.86416 0.79906 0.0
C1878 C 0.62445 0.83126 0.66856 0.0
C1879 C 0.64422 0.85527 0.75396 0.0
N1880 N 0.626 0.8656 0.63681 0.0
N1881 N 0.65554 0.82725 0.77281 0.0
H1882 H 0.64858 0.87861 0.80894 0.0
H1883 H 0.65161 0.85576 0.82793 0.0
H1884 H 0.65639 0.81255 0.76631 0.0
H1885 H 0.66626 0.83725 0.80023 0.0
H1886 H 0.62204 0.85895 0.60233 0.0
H1887 H 0.62935 0.88232 0.63916 0.0
H1888 H 0.60263 0.82356 0.60855 0.0
H1889 H 0.60729 0.80152 0.62631 0.0
C1890 C 0.23805 0.79272 0.6773 0.0
C1891 C 0.22675 0.78841 0.72265 0.0
C1892 C 0.26016 0.82499 0.75098 0.0
C1893 C 0.27241 0.82819 0.70724 0.0
N1894 N 0.27362 0.81144 0.63212 0.0
N1895 N 0.23066 0.79896 0.80591 0.0
C1896 C 0.26144 0.81096 0.67146 0.0
C1897 C 0.23892 0.80419 0.76024 0.0
N1898 N 0.22615 0.78017 0.63862 0.0
N1899 N 0.26819 0.84234 0.78335 0.0
H1900 H 0.21599 0.7838 0.81473 0.0
H1901 H 0.23969 0.80836 0.83566 0.0
H1902 H 0.28303 0.85784 0.7778 0.0
H1903 H 0.25895 0.84226 0.81322 0.0
H1904 H 0.23232 0.78404 0.60369 0.0
H1905 H 0.20924 0.7672 0.64076 0.0
H1906 H 0.26768 0.79829 0.60724 0.0
H1907 H 0.29057 0.82388 0.6269 0.0
C1908 C 0.26787 0.44689 0.66704 0.0
C1909 C 0.26471 0.46286 0.69444 0.0
C1910 C 0.30188 0.47353 0.73517 0.0
C1911 C 0.30525 0.45794 0.70662 0.0
N1912 N 0.29069 0.43097 0.64117 0.0
N1913 N 0.28131 0.49413 0.74968 0.0
C1914 C 0.28815 0.44518 0.67164 0.0
C1915 C 0.2825 0.47689 0.72717 0.0
N1916 N 0.25126 0.43278 0.63602 0.0
N1917 N 0.3167 0.48446 0.77175 0.0
H1918 H 0.26764 0.49695 0.74517 0.0
H1919 H 0.29452 0.50665 0.76976 0.0
H1920 H 0.33108 0.48295 0.77775 0.0
H1921 H 0.31409 0.49384 0.79789 0.0
H1922 H 0.25264 0.42073 0.61529 0.0
H1923 H 0.23593 0.4327 0.63204 0.0
H1924 H 0.30511 0.42919 0.64004 0.0
H1925 H 0.30511 0.42919 0.64004 0.0
C1926 C 0.52536 0.96584 0.18434 0.0
C1927 C 0.50546 0.94566 0.16885 0.0
C1928 C 0.53158 0.93219 0.13756 0.0
C1929 C 0.55132 0.95172 0.15591 0.0
N1930 N 0.5655 0.98472 0.2063 0.0
N1931 N 0.49017 0.90787 0.13721 0.0
C1932 C 0.54766 0.96782 0.18187 0.0
C1933 C 0.50883 0.92839 0.14729 0.0
N1934 N 0.52318 0.98374 0.19989 0.0
N1935 N 0.53451 0.91758 0.10885 0.0
H1936 H 0.47361 0.90449 0.14354 0.0
H1937 H 0.49109 0.89365 0.1265 0.0
H1938 H 0.55049 0.91957 0.10152 0.0
H1939 H 0.5214 0.90454 0.08949 0.0
H1940 H 0.53699 0.99986 0.20619 0.0
H1941 H 0.5075 0.98305 0.20251 0.0
H1942 H 0.56392 0.99583 0.22954 0.0
H1943 H 0.58149 0.98606 0.20738 0.0
C1944 C 0.13282 0.60121 0.11149 0.0
C1945 C 0.13617 0.61656 0.14982 0.0
C1946 C 0.14864 0.59384 0.19976 0.0
C1947 C 0.14289 0.57712 0.16305 0.0
N1948 N 0.12553 0.56378 0.08593 0.0
N1949 N 0.14436 0.62467 0.23366 0.0
C1950 C 0.13395 0.58063 0.11947 0.0
C1951 C 0.14339 0.61209 0.19472 0.0
N1952 N 0.1296 0.6068 0.06632 0.0
N1953 N 0.16003 0.59288 0.23922 0.0
H1954 H 0.14081 0.63795 0.23179 0.0
H1955 H 0.14673 0.62073 0.26847 0.0
H1956 H 0.16439 0.58027 0.24405 0.0
H1957 H 0.16703 0.60569 0.26483 0.0
H1958 H 0.12968 0.59797 0.03591 0.0
H1959 H 0.12916 0.62163 0.05865 0.0
H1960 H 0.11654 0.56397 0.05592 0.0
H1961 H 0.12564 0.54856 0.09033 0.0
C1962 C 0.50625 0.56875 0.20676 0.0
C1963 C 0.51785 0.58544 0.16974 0.0
C1964 C 0.4892 0.55653 0.11315 0.0
C1965 C 0.47593 0.54176 0.15118 0.0
N1966 N 0.4716 0.53592 0.23634 0.0
N1967 N 0.52694 0.58434 0.08661 0.0
C1968 C 0.48424 0.54878 0.19854 0.0
C1969 C 0.51101 0.57658 0.12218 0.0
N1970 N 0.51822 0.56889 0.24605 0.0
N1971 N 0.48095 0.55151 0.06755 0.0
H1972 H 0.54423 0.59452 0.0939 0.0
H1973 H 0.52377 0.57746 0.05227 0.0
H1974 H 0.4653 0.53727 0.05943 0.0
H1975 H 0.48855 0.56267 0.03891 0.0
H1976 H 0.51149 0.55661 0.27296 0.0
H1977 H 0.53594 0.57824 0.24634 0.0
H1978 H 0.47561 0.54131 0.27173 0.0
H1979 H 0.45613 0.5209 0.23204 0.0
C1980 C 0.15676 0.57664 0.69392 0.0
C1981 C 0.14606 0.58586 0.66412 0.0
C1982 C 0.13084 0.55016 0.61568 0.0
C1983 C 0.13918 0.53975 0.64862 0.0
N1984 N 0.15664 0.54298 0.72552 0.0
N1985 N 0.11798 0.57745 0.60277 0.0
C1986 C 0.15124 0.55305 0.68944 0.0
C1987 C 0.13174 0.57144 0.6268 0.0
N1988 N 0.17304 0.59063 0.72559 0.0
N1989 N 0.12301 0.5404 0.57194 0.0
H1990 H 0.11745 0.59223 0.61033 0.0
H1991 H 0.10528 0.56653 0.57931 0.0
H1992 H 0.12353 0.52605 0.56046 0.0
H1993 H 0.11872 0.54817 0.54483 0.0
H1994 H 0.18318 0.58581 0.74466 0.0
H1995 H 0.17802 0.60779 0.72919 0.0
H1996 H 0.16314 0.55081 0.75834 0.0
H1997 H 0.15249 0.52598 0.72459 0.0
C1998 C 0.54769 0.60518 0.69748 0.0
C1999 C 0.55361 0.61863 0.65476 0.0
C2000 C 0.51332 0.59361 0.62757 0.0
C2001 C 0.50795 0.57884 0.66817 0.0
N2002 N 0.52212 0.56957 0.73874 0.0
N2003 N 0.54206 0.62324 0.57616 0.0
C2004 C 0.52575 0.58454 0.7024 0.0
C2005 C 0.53635 0.61208 0.6191 0.0
N2006 N 0.56311 0.61229 0.73401 0.0
N2007 N 0.49611 0.59067 0.59772 0.0
H2008 H 0.55812 0.63719 0.56937 0.0
H2009 H 0.53147 0.61778 0.54631 0.0
H2010 H 0.47928 0.5779 0.60283 0.0
H2011 H 0.49805 0.60207 0.57064 0.0
H2012 H 0.55947 0.60497 0.76798 0.0
H2013 H 0.57908 0.62688 0.73152 0.0
H2014 H 0.53483 0.57104 0.76184 0.0
H2015 H 0.50677 0.55445 0.74329 0.0
C2016 C 0.49634 0.93087 0.63987 0.0
C2017 C 0.51551 0.94632 0.66813 0.0
C2018 C 0.49401 0.96673 0.68631 0.0
C2019 C 0.47595 0.95275 0.65414 0.0
N2020 N 0.46204 0.92293 0.59553 0.0
N2021 N 0.53315 0.9812 0.71297 0.0
C2022 C 0.47771 0.93513 0.62992 0.0
C2023 C 0.51434 0.96477 0.69001 0.0
N2024 N 0.49549 0.91148 0.6236 0.0
N2025 N 0.49138 0.98153 0.7151 0.0
H2026 H 0.54811 0.98051 0.7165 0.0
H2027 H 0.53468 0.99644 0.72483 0.0
H2028 H 0.47677 0.98298 0.71455 0.0
H2029 H 0.50249 0.99062 0.74276 0.0
H2030 H 0.48119 0.89824 0.60747 0.0
H2031 H 0.5084 0.90771 0.63008 0.0
H2032 H 0.46358 0.91179 0.57229 0.0
H2033 H 0.44829 0.92526 0.58774 0.0
C2034 C 0.23781 0.46201 0.16851 0.0
C2035 C 0.22661 0.45562 0.21399 0.0
C2036 C 0.25692 0.44703 0.23943 0.0
C2037 C 0.27056 0.45731 0.19768 0.0
N2038 N 0.26332 0.45809 0.11344 0.0
N2039 N 0.22955 0.44627 0.29614 0.0
C2040 C 0.25832 0.46077 0.15946 0.0
C2041 C 0.23755 0.4496 0.25028 0.0
N2042 N 0.22872 0.46881 0.13295 0.0
N2043 N 0.25909 0.43073 0.26359 0.0
H2044 H 0.21624 0.44888 0.30656 0.0
H2045 H 0.23792 0.44347 0.32444 0.0
H2046 H 0.26804 0.42335 0.24905 0.0
H2047 H 0.24847 0.42143 0.29193 0.0
H2048 H 0.2374 0.47633 0.10131 0.0
H2049 H 0.21333 0.4686 0.13648 0.0
H2050 H 0.25413 0.45839 0.08383 0.0
H2051 H 0.27381 0.45135 0.10566 0.0
C2052 C 0.65345 0.80951 0.1956 0.0
C2053 C 0.63806 0.7903 0.22391 0.0
C2054 C 0.61474 0.80943 0.23405 0.0
C2055 C 0.63133 0.82959 0.20987 0.0
N2056 N 0.66845 0.84935 0.17366 0.0
N2057 N 0.60525 0.77395 0.2754 0.0
C2058 C 0.65115 0.82963 0.19219 0.0
C2059 C 0.61896 0.7908 0.24425 0.0
N2060 N 0.67 0.80827 0.17009 0.0
N2061 N 0.59442 0.8077 0.24619 0.0
H2062 H 0.6076 0.76023 0.28344 0.0
H2063 H 0.59272 0.77443 0.29608 0.0
H2064 H 0.59073 0.82066 0.23958 0.0
H2065 H 0.58056 0.79278 0.25892 0.0
H2066 H 0.68025 0.82034 0.14477 0.0
H2067 H 0.67198 0.79397 0.17063 0.0
H2068 H 0.68442 0.85161 0.16536 0.0
H2069 H 0.66754 0.8642 0.17048 0.0
C2070 C 0.29703 0.85784 0.17437 0.0
C2071 C 0.30378 0.86712 0.2213 0.0
C2072 C 0.26711 0.83431 0.25058 0.0
C2073 C 0.26194 0.82287 0.2052 0.0
N2074 N 0.26509 0.83475 0.12275 0.0
N2075 N 0.29562 0.86094 0.30567 0.0
C2076 C 0.27524 0.83741 0.16626 0.0
C2077 C 0.28894 0.85425 0.25963 0.0
N2078 N 0.311 0.86884 0.13656 0.0
N2079 N 0.24983 0.82933 0.28196 0.0
H2080 H 0.31139 0.87492 0.31415 0.0
H2081 H 0.28651 0.85114 0.33513 0.0
H2082 H 0.23284 0.81981 0.27158 0.0
H2083 H 0.25205 0.83813 0.31389 0.0
H2084 H 0.30837 0.86166 0.10254 0.0
H2085 H 0.32615 0.88422 0.14002 0.0
H2086 H 0.27287 0.84559 0.09375 0.0
H2087 H 0.24753 0.82466 0.11865 0.0
C2088 C 0.3833 0.19369 0.01958 0.0
C2089 C 0.40355 0.21477 0.02642 0.0
C2090 C 0.42482 0.19495 0.03717 0.0
C2091 C 0.40394 0.1745 0.04354 0.0
N2092 N 0.36429 0.1528 0.02459 0.0
N2093 N 0.44443 0.23568 0.02811 0.0
C2094 C 0.38369 0.17334 0.02747 0.0
C2095 C 0.42462 0.21538 0.02929 0.0
N2096 N 0.36312 0.19253 1.00963 0.0
N2097 N 0.44506 0.19561 0.04186 0.0
H2098 H 0.44464 0.251 0.02226 0.0
H2099 H 0.46033 0.23686 0.0316 0.0
H2100 H 0.44635 0.18105 0.04678 0.0
H2101 H 0.44635 0.18105 0.04678 0.0
H2102 H 0.36136 0.2068 1.00401 0.0
H2103 H 0.36136 0.2068 1.00401 0.0
H2104 H 0.34879 0.15126 0.01447 0.0
H2105 H 0.3643 0.13762 0.03107 0.0
C2106 C 0.87197 0.22467 1.01036 0.0
C2107 C 0.87106 0.20344 1.0104 0.0
C2108 C 0.91216 0.22246 0.02117 0.0
C2109 C 0.9116 0.24211 0.0353 0.0
N2110 N 0.89293 0.26439 0.0281 0.0
N2111 N 0.89196 0.18346 0.998 0.0
C2112 C 0.89245 0.24424 0.02341 0.0
C2113 C 0.89167 0.20289 1.00817 0.0
N2114 N 0.85269 0.22571 1.00245 0.0
N2115 N 0.93192 0.22187 0.02384 0.0
H2116 H 0.87755 0.16835 0.98783 0.0
H2117 H 0.87755 0.16835 0.98783 0.0
H2118 H 0.94726 0.23613 0.03357 0.0
H2119 H 0.9328 0.20741 0.01475 0.0
H2120 H 0.85246 0.24098 1.00365 0.0
H2121 H 0.8374 0.21119 0.99339 0.0
H2122 H 0.90763 0.27935 0.03775 0.0
H2123 H 0.90763 0.27935 0.03775 0.0
C2124 C 0.84355 0.67097 0.05009 0.0
C2125 C 0.84578 0.69266 0.04379 0.0
C2126 C 0.88581 0.70823 0.02391 0.0
C2127 C 0.88483 0.68917 0.04728 0.0
N2128 N 0.86256 0.65056 0.07571 0.0
N2129 N 0.8665 0.72993 1.01003 0.0
C2130 C 0.86354 0.66958 0.05666 0.0
C2131 C 0.86602 0.71039 0.02383 0.0
N2132 N 0.82245 0.6522 0.0525 0.0
N2133 N 0.90595 0.72457 1.0049 0.0
H2134 H 0.85173 0.73114 1.01047 0.0
H2135 H 0.8811 0.74461 0.99897 0.0
H2136 H 0.92047 0.72293 1.00542 0.0
H2137 H 0.90786 0.73866 0.98601 0.0
H2138 H 0.8197 0.63567 0.05443 0.0
H2139 H 0.80775 0.65316 0.04714 0.0
H2140 H 0.84766 0.63681 0.08888 0.0
H2141 H 0.87693 0.6489 0.08003 0.0
C2142 C 0.21408 0.33505 0.22702 0.0
C2143 C 0.21337 0.35444 0.21197 0.0
C2144 C 0.25461 0.37539 0.20361 0.0
C2145 C 0.25526 0.3588 0.23327 0.0
N2146 N 0.23567 0.32175 0.27142 0.0
N2147 N 0.23136 0.39093 0.17384 0.0
C2148 C 0.2351 0.33779 0.2427 0.0
C2149 C 0.23321 0.3737 0.19464 0.0
N2150 N 0.19437 0.3147 0.22998 0.0
N2151 N 0.27449 0.39323 0.18722 0.0
H2152 H 0.21548 0.38936 0.16711 0.0
H2153 H 0.24515 0.40649 0.16377 0.0
H2154 H 0.29018 0.39444 0.19447 0.0
H2155 H 0.2754 0.4058 0.16437 0.0
H2156 H 0.19384 0.29943 0.23799 0.0
H2157 H 0.17882 0.31302 0.21952 0.0
H2158 H 0.22114 0.30739 0.28401 0.0
H2159 H 0.25065 0.32345 0.28541 0.0
C2160 C 0.69152 0.82426 0.50491 0.0
C2161 C 0.71337 0.82638 0.50703 0.0
C2162 C 0.72971 0.86642 0.52631 0.0
C2163 C 0.70972 0.86543 0.508 0.0
N2164 N 0.6694 0.84272 0.49322 0.0
N2165 N 0.75098 0.84708 0.53936 0.0
C2166 C 0.68976 0.8441 0.50292 0.0
C2167 C 0.73133 0.84646 0.52657 0.0
N2168 N 0.6724 0.80367 0.5006 0.0
N2169 N 0.74799 0.88646 0.53978 0.0
H2170 H 0.75251 0.83249 0.53781 0.0
H2171 H 0.76503 0.86184 0.55216 0.0
H2172 H 0.74794 0.90184 0.53994 0.0
H2173 H 0.74794 0.90184 0.53994 0.0
H2174 H 0.67247 0.78836 0.50268 0.0
H2175 H 0.67247 0.78836 0.50268 0.0
H2176 H 0.65454 0.82718 0.48783 0.0
H2177 H 0.66748 0.85703 0.49158 0.0
C2178 C 0.26868 0.88448 0.4745 0.0
C2179 C 0.26566 0.90365 0.47663 0.0
C2180 C 0.22758 0.8806 0.50927 0.0
C2181 C 0.22869 0.86109 0.49533 0.0
N2182 N 0.25114 0.84332 0.48271 0.0
N2183 N 0.24726 0.92203 0.51285 0.0
C2184 C 0.24984 0.86274 0.48507 0.0
C2185 C 0.24685 0.90237 0.50088 0.0
N2186 N 0.28886 0.88714 0.4582 0.0
N2187 N 0.20764 0.87813 0.52664 0.0
H2188 H 0.26146 0.9379 0.50571 0.0
H2189 H 0.23456 0.92265 0.53238 0.0
H2190 H 0.19354 0.86218 0.53331 0.0
H2191 H 0.20505 0.89159 0.53507 0.0
H2192 H 0.29196 0.87382 0.45191 0.0
H2193 H 0.30276 0.90322 0.45127 0.0
H2194 H 0.26604 0.84293 0.47607 0.0
H2195 H 0.23707 0.82745 0.49048 0.0
C2196 C 0.7592 0.86899 0.72684 0.0
C2197 C 0.73718 0.84945 0.72553 0.0
C2198 C 0.72078 0.87225 0.69771 0.0
C2199 C 0.74179 0.89199 0.70834 0.0
N2200 N 0.78229 0.90977 0.71266 0.0
N2201 N 0.69964 0.83091 0.69259 0.0
C2202 C 0.76158 0.89043 0.71505 0.0
C2203 C 0.71894 0.85062 0.70407 0.0
N2204 N 0.77723 0.86728 0.7435 0.0
N2205 N 0.70232 0.87427 0.68578 0.0
H2206 H 0.69835 0.81506 0.69798 0.0
H2207 H 0.68596 0.83032 0.67451 0.0
H2208 H 0.7035 0.88998 0.67956 0.0
H2209 H 0.68588 0.86059 0.68251 0.0
H2210 H 0.79313 0.88122 0.75076 0.0
H2211 H 0.7761 0.8517 0.75108 0.0
H2212 H 0.79772 0.90997 0.71444 0.0
H2213 H 0.78373 0.92549 0.70458 0.0
C2214 C 0.17504 0.84852 0.98051 0.0
C2215 C 0.15749 0.84045 0.94625 0.0
C2216 C 0.18028 0.8715 0.89271 0.0
C2217 C 0.19935 0.87825 0.92328 0.0
N2218 N 0.21298 0.87807 1.00334 0.0
N2219 N 0.1392 0.85269 0.88961 0.0
C2220 C 0.19609 0.86848 0.96995 0.0
C2221 C 0.15862 0.85534 0.90995 0.0
N2222 N 0.17201 0.83558 0.02018 0.0
N2223 N 0.18281 0.87885 0.84635 0.0
H2224 H 0.12322 0.84124 0.90351 0.0
H2225 H 0.13923 0.86371 0.86345 0.0
H2226 H 0.19861 0.88897 0.83028 0.0
H2227 H 0.16925 0.87274 0.8224 0.0
H2228 H 0.18473 0.8388 0.04496 0.0
H2229 H 0.15635 0.821 0.0269 0.0
H2230 H 0.21137 0.87203 0.03823 0.0
H2231 H 0.22794 0.89344 0.99749 0.0
C2232 C 0.18201 0.31809 0.75138 0.0
C2233 C 0.18308 0.33889 0.73896 0.0
C2234 C 0.21771 0.35016 0.69359 0.0
C2235 C 0.22014 0.3335 0.71904 0.0
N2236 N 0.20309 0.29787 0.76005 0.0
N2237 N 0.19876 0.37255 0.69011 0.0
C2238 C 0.20123 0.31562 0.7422 0.0
C2239 C 0.19961 0.35395 0.70609 0.0
N2240 N 0.16326 0.30155 0.77423 0.0
N2241 N 0.23361 0.36303 0.66019 0.0
H2242 H 0.18512 0.37504 0.69823 0.0
H2243 H 0.21152 0.38553 0.66982 0.0
H2244 H 0.24662 0.35972 0.65136 0.0
H2245 H 0.23277 0.37518 0.6388 0.0
H2246 H 0.16051 0.28525 0.78073 0.0
H2247 H 0.14976 0.30388 0.78412 0.0
H2248 H 0.19106 0.28521 0.78213 0.0
H2249 H 0.21735 0.29629 0.75264 0.0
C2250 C 0.88315 0.73937 0.83086 0.0
C2251 C 0.86253 0.71824 0.8322 0.0
C2252 C 0.88255 0.69928 0.86255 0.0
C2253 C 0.90314 0.7188 0.849 0.0
N2254 N 0.92433 0.75925 0.84138 0.0
N2255 N 0.84113 0.68108 0.86644 0.0
C2256 C 0.90379 0.73966 0.8413 0.0
C2257 C 0.8618 0.69932 0.85533 0.0
N2258 N 0.88307 0.75841 0.81525 0.0
N2259 N 0.88299 0.68053 0.87884 0.0
H2260 H 0.8261 0.68142 0.86023 0.0
H2261 H 0.83885 0.66645 0.88355 0.0
H2262 H 0.89825 0.6806 0.88443 0.0
H2263 H 0.8686 0.66526 0.88781 0.0
H2264 H 0.89768 0.77387 0.80831 0.0
H2265 H 0.86805 0.75869 0.80919 0.0
H2266 H 0.92635 0.77544 0.83798 0.0
H2267 H 0.93935 0.75909 0.84877 0.0
C2268 C 0.42739 0.22897 0.50959 0.0
C2269 C 0.40649 0.20832 0.5099 0.0
C2270 C 0.38617 0.22949 0.50681 0.0
C2271 C 0.40597 0.24843 0.52445 0.0
N2272 N 0.44672 0.26962 0.52574 0.0
N2273 N 0.36601 0.18856 0.49671 0.0
C2274 C 0.4272 0.24949 0.51862 0.0
C2275 C 0.3859 0.20852 0.50251 0.0
N2276 N 0.44705 0.22836 0.50384 0.0
N2277 N 0.36742 0.23147 0.49852 0.0
H2278 H 0.36552 0.17306 0.49229 0.0
H2279 H 0.35011 0.18736 0.49716 0.0
H2280 H 0.36784 0.24692 0.50391 0.0
H2281 H 0.35259 0.21874 0.48287 0.0
H2282 H 0.46313 0.24273 0.50201 0.0
H2283 H 0.44675 0.21301 0.49763 0.0
H2284 H 0.46291 0.2715 0.52615 0.0
H2285 H 0.4464 0.28469 0.53039 0.0
C2286 C 0.91653 0.21789 0.83577 0.0
C2287 C 0.93172 0.21998 0.79869 0.0
C2288 C 0.91373 0.17873 0.7933 0.0
C2289 C 0.89525 0.17722 0.81907 0.0
N2290 N 0.88138 0.19251 0.87853 0.0
N2291 N 0.947 0.2016 0.74773 0.0
C2292 C 0.89792 0.19591 0.84634 0.0
C2293 C 0.93164 0.20033 0.78073 0.0
N2294 N 0.91926 0.23702 0.85791 0.0
N2295 N 0.91275 0.15955 0.77557 0.0
H2296 H 0.96025 0.21679 0.73423 0.0
H2297 H 0.96025 0.21679 0.73423 0.0
H2298 H 0.89935 0.14337 0.78401 0.0
H2299 H 0.92568 0.15999 0.75445 0.0
H2300 H 0.90864 0.23705 0.88474 0.0
H2301 H 0.93303 0.25307 0.85001 0.0
H2302 H 0.88124 0.20527 0.89882 0.0
H2303 H 0.86785 0.17617 0.88543 0.0
C2304 C 0.06341 0.5658 0.67919 0.0
C2305 C 1.04361 0.5656 0.66303 0.0
C2306 C 1.02127 0.52467 0.67523 0.0
C2307 C 1.04195 0.52439 0.67726 0.0
N2308 N 0.08161 0.5435 0.69801 0.0
N2309 N 1.003 0.54763 0.66722 0.0
C2310 C 0.06267 0.54468 0.68633 0.0
C2311 C 1.02215 0.54589 0.66936 0.0
N2312 N 0.08298 0.58619 0.68333 0.0
N2313 N 1.00124 0.50452 0.67523 0.0
H2314 H 1.00397 0.56341 0.6645 0.0
H2315 H 0.98658 0.53407 0.67193 0.0
H2316 H 1.00083 0.48907 0.6806 0.0
H2317 H 0.98534 0.50302 0.67034 0.0
H2318 H 0.09851 0.58809 0.69395 0.0
H2319 H 0.08311 0.60148 0.67741 0.0
H2320 H 0.09748 0.55756 0.70463 0.0
H2321 H 0.08106 0.528 0.70313 0.0
C2322 C 0.59297 0.54271 0.41663 0.0
C2323 C 0.6004 0.56446 0.39653 0.0
C2324 C 0.56586 0.54988 0.34884 0.0
C2325 C 0.55665 0.52982 0.3767 0.0
N2326 N 0.56267 0.50356 0.42425 0.0
N2327 N 0.59907 0.58693 0.33209 0.0
C2328 C 0.57086 0.52491 0.40564 0.0
C2329 C 0.5887 0.56711 0.3575 0.0
N2330 N 0.60596 0.54001 0.45053 0.0
N2331 N 0.55234 0.55286 0.31691 0.0
H2332 H 0.61573 0.59954 0.33994 0.0
H2333 H 0.59203 0.59028 0.30223 0.0
H2334 H 0.5357 0.54005 0.3099 0.0
H2335 H 0.55745 0.5678 0.29779 0.0
H2336 H 0.60046 0.52564 0.47191 0.0
H2337 H 0.62267 0.5525 0.45748 0.0
H2338 H 0.57244 0.4983 0.44318 0.0
H2339 H 0.5463 0.49029 0.41726 0.0
C2340 C 0.56553 0.05515 0.39568 0.0
C2341 C 0.56175 1.03553 0.36992 0.0
C2342 C 0.52297 1.02655 0.35284 0.0
C2343 C 0.52554 0.04332 0.38627 0.0
N2344 N 0.55058 0.07725 0.43044 0.0
N2345 N 0.53821 1.00473 0.31683 0.0
C2346 C 0.54741 0.05926 0.40307 0.0
C2347 C 0.54109 1.02229 0.34522 0.0
N2348 N 0.58589 0.06949 0.4166 0.0
N2349 N 0.50265 1.01316 0.3311 0.0
H2350 H 0.55129 1.00114 0.31063 0.0
H2351 H 0.52288 0.99416 0.29944 0.0
H2352 H 0.4886 1.01541 0.33574 0.0
H2353 H 0.4886 1.01541 0.33574 0.0
H2354 H 0.60043 0.06799 0.41362 0.0
H2355 H 0.60043 0.06799 0.41362 0.0
H2356 H 0.56626 0.08858 0.4457 0.0
H2357 H 0.5378 0.08122 0.43643 0.0
C2358 C 0.57549 1.01406 0.86015 0.0
C2359 C 0.59332 1.0337 0.88185 0.0
C2360 C 0.57254 0.05386 0.86857 0.0
C2361 C 0.55279 1.03271 0.85934 0.0
N2362 N 0.53647 0.99387 0.83389 0.0
N2363 N 0.61094 0.07379 0.89774 0.0
C2364 C 0.5548 1.01338 0.8497 0.0
C2365 C 0.59285 0.05427 0.88114 0.0
N2366 N 0.5772 0.99511 0.85362 0.0
N2367 N 0.57193 0.0736 0.86967 0.0
H2368 H 0.62645 0.07494 0.9063 0.0
H2369 H 0.6102 0.08863 0.90276 0.0
H2370 H 0.55755 0.07471 0.86093 0.0
H2371 H 0.55755 0.07471 0.86093 0.0
H2372 H 0.592 0.99456 0.86137 0.0
H2373 H 0.592 0.99456 0.86137 0.0
H2374 H 0.53714 0.97904 0.8276 0.0
H2375 H 0.52102 0.99309 0.82611 0.0
C2376 C 0.07058 0.54657 1.0099 0.0
C2377 C 0.06032 0.52298 0.01783 0.0
C2378 C 1.03026 0.52288 0.06661 0.0
C2379 C 1.0415 0.54673 0.06156 0.0
N2380 N 0.07372 0.58211 0.03383 0.0
N2381 N 1.03128 0.48809 0.05465 0.0
C2382 C 0.06207 0.55884 0.03472 0.0
C2383 C 1.04043 0.51093 0.04664 0.0
N2384 N 0.08808 0.55704 0.97777 0.0
N2385 N 1.00956 0.51175 0.089 0.0
H2386 H 1.03716 0.47823 0.03818 0.0
H2387 H 1.01847 0.47889 0.07948 0.0
H2388 H 1.00196 0.52025 0.10482 0.0
H2389 H 0.99915 0.49417 0.08946 0.0
H2390 H 0.0944 0.57362 0.96549 0.0
H2391 H 0.09553 0.54868 0.96076 0.0
H2392 H 0.08965 0.59188 0.01824 0.0
H2393 H 0.06832 0.59207 0.05134 0.0
C2394 C 0.54309 0.52057 0.86439 0.0
C2395 C 0.52342 0.51943 0.88441 0.0
C2396 C 0.53999 0.5604 0.87355 0.0
C2397 C 0.5614 0.56194 0.86857 0.0
N2398 N 0.58353 0.54417 0.8491 0.0
N2399 N 0.5009 0.53724 0.8998 0.0
C2400 C 0.56289 0.5422 0.85891 0.0
C2401 C 0.52084 0.53895 0.88465 0.0
N2402 N 0.5429 0.50085 0.85374 0.0
N2403 N 0.5386 0.57974 0.87031 0.0
H2404 H 0.48641 0.52165 0.90682 0.0
H2405 H 0.49878 0.55118 0.90633 0.0
H2406 H 0.55295 0.59546 0.86284 0.0
H2407 H 0.52334 0.57993 0.87071 0.0
H2408 H 0.55622 0.50018 0.83682 0.0
H2409 H 0.5283 0.48502 0.85868 0.0
H2410 H 0.58632 0.53045 0.84737 0.0
H2411 H 0.59813 0.55984 0.84339 0.0
C2412 C 0.38551 0.32342 0.96339 0.0
C2413 C 0.3684 0.29982 0.95819 0.0
C2414 C 0.39522 0.2974 0.8981 0.0
C2415 C 0.4115 0.32124 0.90137 0.0
N2416 N 0.41928 0.35731 0.93368 0.0
N2417 N 0.3575 0.26502 0.91567 0.0
C2418 C 0.40593 0.33413 0.93374 0.0
C2419 C 0.37347 0.28719 0.92379 0.0
N2420 N 0.38223 0.33628 0.99638 0.0
N2421 N 0.40115 0.28396 0.87263 0.0
H2422 H 0.34272 0.25627 0.936 0.0
H2423 H 0.35821 0.25555 0.88713 0.0
H2424 H 0.41662 0.29038 0.85462 0.0
H2425 H 0.39186 0.26628 0.87276 0.0
H2426 H 0.39525 0.35157 1.00978 0.0
H2427 H 0.36644 0.33153 1.01088 0.0
H2428 H 0.41502 0.36823 0.95108 0.0
H2429 H 0.43346 0.3661 0.91173 0.0
C2430 C 0.80479 0.10476 0.93364 0.0
C2431 C 0.7919 0.08656 0.96668 0.0
C2432 C 0.75787 0.09054 0.94435 0.0
C2433 C 0.77052 0.10829 0.90992 0.0
N2434 N 0.80776 0.13485 0.87989 0.0
N2435 N 0.75479 0.06015 0.99653 0.0
C2436 C 0.79444 0.11586 0.90662 0.0
C2437 C 0.76815 0.07923 0.97029 0.0
N2438 N 0.82718 0.11126 0.92734 0.0
N2439 N 0.73568 0.08431 0.95307 0.0
H2440 H 0.76153 0.05167 0.01532 0.0
H2441 H 0.73709 0.05155 0.99646 0.0
H2442 H 0.72643 0.08953 0.93213 0.0
H2443 H 0.72653 0.07465 0.98251 0.0
H2444 H 0.83771 0.12283 0.90172 0.0
H2445 H 0.83516 0.1041 0.94683 0.0
H2446 H 0.82542 0.14323 0.87917 0.0
H2447 H 0.80127 0.14362 0.86106 0.0
C2448 C 0.97421 0.68932 0.94306 0.0
C2449 C 0.98657 0.68451 0.90736 0.0
C2450 C 1.02037 0.723 0.9291 0.0
C2451 C 1.00779 0.72801 0.96353 0.0
N2452 N 0.97033 0.71716 0.99195 0.0
N2453 N 1.02136 0.7019 0.86028 0.0
C2454 C 0.98412 0.71132 0.96761 0.0
C2455 C 1.0095 0.70289 0.89868 0.0
N2456 N 0.95238 0.67303 0.95322 0.0
N2457 N 1.04343 0.73696 0.92643 0.0
H2458 H 1.016 0.68774 0.83908 0.0
H2459 H 1.03601 0.71594 0.84704 0.0
H2460 H 1.05241 0.75143 0.94731 0.0
H2461 H 1.05415 0.73281 0.90772 0.0
H2462 H 0.94349 0.67379 0.98281 0.0
H2463 H 0.94332 0.65826 0.93322 0.0
H2464 H 0.95266 0.70793 0.98978 0.0
H2465 H 0.97645 0.73261 1.0097 0.0
C2466 C 0.30483 0.35866 0.59581 0.0
C2467 C 0.31797 0.35002 0.57333 0.0
C2468 C 0.35241 0.38697 0.59609 0.0
C2469 C 0.33988 0.39426 0.62598 0.0
N2470 N 0.30209 0.38374 0.65453 0.0
N2471 N 0.35557 0.35518 0.56528 0.0
C2472 C 0.31551 0.37907 0.62589 0.0
C2473 C 0.34207 0.36399 0.57761 0.0
N2474 N 0.28201 0.34789 0.58692 0.0
N2475 N 0.37396 0.40225 0.58151 0.0
H2476 H 0.34885 0.33834 0.55467 0.0
H2477 H 0.37304 0.36361 0.57168 0.0
H2478 H 0.38128 0.41969 0.58606 0.0
H2479 H 0.38306 0.39809 0.5574 0.0
H2480 H 0.27164 0.35456 0.59605 0.0
H2481 H 0.27381 0.33331 0.56592 0.0
H2482 H 0.2847 0.37302 0.65813 0.0
H2483 H 0.30817 0.39731 0.67791 0.0
C2484 C 0.70999 0.95251 0.61153 0.0
C2485 C 0.70241 0.96601 0.63677 0.0
C2486 C 0.73915 1.00049 0.60962 0.0
C2487 C 0.74592 0.98721 0.58134 0.0
N2488 N 0.73934 0.9497 0.56494 0.0
N2489 N 0.71066 1.00396 0.65624 0.0
C2490 C 0.73157 0.96294 0.58489 0.0
C2491 C 0.71737 0.99023 0.63467 0.0
N2492 N 0.69602 0.92945 0.61146 0.0
N2493 N 0.75394 1.02329 0.61415 0.0
H2494 H 0.69692 0.99783 0.67947 0.0
H2495 H 0.71804 1.02132 0.64959 0.0
H2496 H 0.76866 1.0321 0.59375 0.0
H2497 H 0.7523 1.03347 0.63984 0.0
H2498 H 0.69928 0.91812 0.59313 0.0
H2499 H 0.68028 0.92134 0.62858 0.0
H2500 H 0.73195 0.93226 0.57002 0.0
H2501 H 0.75454 0.95645 0.54579 0.0
C2502 C 0.09604 0.75245 0.5852 0.0
C2503 C 0.10827 0.77647 0.57635 0.0
C2504 C 0.14136 0.77671 0.619 0.0
C2505 C 0.12837 0.75295 0.63145 0.0
N2506 N 0.09036 0.7206 0.63491 0.0
N2507 N 0.14247 0.81175 0.59199 0.0
C2508 C 0.10497 0.74156 0.61645 0.0
C2509 C 0.13079 0.7886 0.59593 0.0
N2510 N 0.07536 0.7396 0.56407 0.0
N2511 N 0.16431 0.78793 0.6265 0.0
H2512 H 0.13601 0.82074 0.57377 0.0
H2513 H 0.15772 0.82213 0.60963 0.0
H2514 H 0.17293 0.78006 0.6402 0.0
H2515 H 0.17524 0.80444 0.61476 0.0
H2516 H 0.06702 0.7219 0.56276 0.0
H2517 H 0.06722 0.7467 0.54524 0.0
H2518 H 0.0728 0.71236 0.63016 0.0
H2519 H 0.09529 0.71266 0.66007 0.0
C2520 C 0.72153 0.77555 0.15266 0.0
C2521 C 0.70144 0.75538 0.13654 0.0
C2522 C 0.72232 0.76162 0.05847 0.0
C2523 C 0.74368 0.77875 0.07734 0.0
N2524 N 0.76261 0.80091 0.14736 0.0
N2525 N 0.68764 0.72632 0.07504 0.0
C2526 C 0.74294 0.78506 0.12612 0.0
C2527 C 0.70331 0.74764 0.08977 0.0
N2528 N 0.72019 0.78683 0.19182 0.0
N2529 N 0.71947 0.75882 1.01024 0.0
H2530 H 0.67498 0.7144 0.09723 0.0
H2531 H 0.68937 0.71939 0.04307 0.0
H2532 H 0.73145 0.77015 0.98623 0.0
H2533 H 0.70387 0.7476 0.9946 0.0
H2534 H 0.73338 0.80262 0.20261 0.0
H2535 H 0.70512 0.78205 0.21009 0.0
H2536 H 0.76399 0.80393 0.18412 0.0
H2537 H 0.7778 0.81037 0.12867 0.0
C2538 C 0.3385 1.0028 0.10718 0.0
C2539 C 0.31874 0.98973 0.07803 0.0
C2540 C 0.31987 0.95491 0.10808 0.0
C2541 C 0.34075 0.96822 0.134 0.0
N2542 N 0.3713 1.00624 0.15016 0.0
N2543 N 0.29158 0.95242 0.04982 0.0
C2544 C 0.35028 0.99248 0.13108 0.0
C2545 C 0.30985 0.96554 0.07832 0.0
N2546 N 0.34652 1.02558 0.11228 0.0
N2547 N 0.30933 0.93177 0.11178 0.0
H2548 H 0.28271 0.95891 0.03128 0.0
H2549 H 0.28578 0.93537 0.04249 0.0
H2550 H 0.31657 0.92335 0.12929 0.0
H2551 H 0.2929 0.92083 0.09977 0.0
H2552 H 0.35811 1.03543 0.13863 0.0
H2553 H 0.34095 1.03466 0.09171 0.0
H2554 H 0.38094 1.02361 0.1432 0.0
H2555 H 0.38004 1.00019 0.17018 0.0
C2556 C 0.10748 0.38461 0.09511 0.0
C2557 C 0.12811 0.39218 0.12193 0.0
C2558 C 0.12716 0.35606 0.09443 0.0
C2559 C 0.10679 0.34867 0.06675 0.0
N2560 N 0.07782 0.3572 0.04204 0.0
N2561 N 0.15906 0.38579 0.1402 0.0
C2562 C 0.09729 0.36353 0.06736 0.0
C2563 C 0.13809 0.37783 0.12 0.0
N2564 N 0.09656 0.39693 0.09865 0.0
N2565 N 0.13646 0.34224 0.09599 0.0
H2566 H 0.1674 0.40113 0.15874 0.0
H2567 H 0.16913 0.37835 0.13566 0.0
H2568 H 0.13048 0.32756 0.07548 0.0
H2569 H 0.14953 0.34466 0.11885 0.0
H2570 H 0.08047 0.39184 0.08506 0.0
H2571 H 0.10267 0.41162 0.11914 0.0
H2572 H 0.07183 0.36813 0.03268 0.0
H2573 H 0.06749 0.34072 0.02977 0.0
C2574 C 0.79166 0.70334 0.4909 0.0
C2575 C 0.79834 0.72527 0.4707 0.0
C2576 C 0.78777 0.70548 0.39021 0.0
C2577 C 0.77843 0.68309 0.41093 0.0
N2578 N 0.77352 0.66204 0.48392 0.0
N2579 N 0.80082 0.74598 0.39866 0.0
C2580 C 0.78101 0.6826 0.46208 0.0
C2581 C 0.79564 0.72578 0.41979 0.0
N2582 N 0.79582 0.70218 0.53831 0.0
N2583 N 0.79048 0.70791 0.34176 0.0
H2584 H 0.80944 0.76155 0.4162 0.0
H2585 H 0.79563 0.7472 0.36421 0.0
H2586 H 0.78634 0.69446 0.3188 0.0
H2587 H 0.79941 0.72356 0.32447 0.0
H2588 H 0.79458 0.68789 0.55504 0.0
H2589 H 0.802 0.71617 0.56075 0.0
H2590 H 0.77049 0.65933 0.52053 0.0
H2591 H 0.77018 0.6474 0.46539 0.0
C2592 C 0.38757 0.08297 0.46886 0.0
C2593 C 0.37011 0.08898 0.46489 0.0
C2594 C 0.39471 0.11714 0.40148 0.0
C2595 C 0.41294 0.11239 0.40818 0.0
N2596 N 0.42705 0.09243 0.45549 0.0
N2597 N 0.35978 0.11519 0.43127 0.0
C2598 C 0.40939 0.09586 0.44423 0.0
C2599 C 0.37458 0.10705 0.43221 0.0
N2600 N 0.38295 0.06404 0.49459 0.0
N2601 N 0.3963 0.13107 0.36456 0.0
H2602 H 0.34507 0.10825 0.4522 0.0
H2603 H 0.363 0.12993 0.41309 0.0
H2604 H 0.41059 0.13902 0.34258 0.0
H2605 H 0.38293 0.13339 0.35353 0.0
H2606 H 0.39346 0.05692 0.4953 0.0
H2607 H 0.36738 0.05415 0.51154 0.0
H2608 H 0.42685 0.08273 0.48463 0.0
H2609 H 0.44265 0.10075 0.43773 0.0
C2610 C 0.9827 0.29095 0.46017 0.0
C2611 C 1.00637 0.29795 0.45318 0.0
C2612 C 1.00733 0.32718 0.39536 0.0
C2613 C 0.98332 0.31866 0.39829 0.0
N2614 N 0.9479 0.28971 0.43131 0.0
N2615 N 1.03974 0.32141 0.40493 0.0
C2616 C 0.97108 0.29993 0.43055 0.0
C2617 C 1.018 0.31539 0.41759 0.0
N2618 N 0.97086 0.27522 0.49486 0.0
N2619 N 1.02066 0.34794 0.37463 0.0
H2620 H 1.04937 0.31555 0.42238 0.0
H2621 H 1.04782 0.33139 0.37497 0.0
H2622 H 1.0141 0.35809 0.36293 0.0
H2623 H 1.03838 0.35647 0.37522 0.0
H2624 H 0.9549 0.27168 0.50704 0.0
H2625 H 0.97738 0.26635 0.51317 0.0
H2626 H 0.93741 0.27445 0.44893 0.0
H2627 H 0.93895 0.29557 0.41099 0.0
C2628 C 0.07293 0.63271 0.27329 0.0
C2629 C 0.07808 0.6521 0.24383 0.0
C2630 C 1.0388 0.64497 0.26531 0.0
C2631 C 1.03495 0.62758 0.29923 0.0
N2632 N 1.05068 0.60694 0.33837 0.0
N2633 N 0.06599 0.67893 0.22184 0.0
C2634 C 1.05281 0.62222 0.304 0.0
C2635 C 0.06088 0.65865 0.24242 0.0
N2636 N 0.08653 0.62323 0.27011 0.0
N2637 N 1.02118 0.64847 0.25423 0.0
H2638 H 0.08197 0.69019 0.20797 0.0
H2639 H 1.05534 0.68587 0.22378 0.0
H2640 H 1.00526 0.63942 0.2706 0.0
H2641 H 1.02177 0.65888 0.22612 0.0
H2642 H 0.08262 0.60783 0.28622 0.0
H2643 H 0.10048 0.62941 0.24718 0.0
H2644 H 0.06393 0.60421 0.34835 0.0
H2645 H 1.03603 0.59809 0.35915 0.0
C2646 C 0.46983 0.42774 0.24121 0.0
C2647 C 0.46325 0.42043 0.28971 0.0
C2648 C 0.44102 0.44106 0.28505 0.0
C2649 C 0.44415 0.44497 0.23435 0.0
N2650 N 0.46109 0.43829 0.16418 0.0
N2651 N 0.43593 0.41545 0.35037 0.0
C2652 C 0.45843 0.43722 0.2126 0.0
C2653 C 0.44706 0.4259 0.30938 0.0
N2654 N 0.48788 0.42671 0.22241 0.0
N2655 N 0.43322 0.45264 0.31159 0.0
H2656 H 0.43811 0.40286 0.36625 0.0
H2657 H 0.42253 0.41707 0.36427 0.0
H2658 H 0.43101 0.46564 0.29753 0.0
H2659 H 0.43232 0.4517 0.34888 0.0
H2660 H 0.49531 0.43404 0.18966 0.0
H2661 H 0.49704 0.42081 0.24178 0.0
H2662 H 0.46845 0.43019 0.14588 0.0
H2663 H 0.45457 0.44581 0.14185 0.0
C2664 C 0.67677 0.04112 0.30244 0.0
C2665 C 0.67279 0.05958 0.29223 0.0
C2666 C 0.64476 1.03357 0.22957 0.0
C2667 C 0.64857 1.01497 0.24126 0.0
N2668 N 0.6616 1.0004 0.30552 0.0
N2669 N 0.6545 0.07338 0.23858 0.0
C2670 C 0.66273 1.01868 0.28232 0.0
C2671 C 0.65713 0.05566 0.25374 0.0
N2672 N 0.69536 0.04519 0.32878 0.0
N2673 N 0.62792 1.02982 0.1979 0.0
H2674 H 0.66174 0.08898 0.25581 0.0
H2675 H 0.64657 0.07343 0.20675 0.0
H2676 H 0.61801 1.01446 0.18078 0.0
H2677 H 0.62183 0.04098 0.19206 0.0
H2678 H 0.70052 1.03317 0.33349 0.0
H2679 H 0.70756 0.06142 0.33943 0.0
H2680 H 0.66984 1.00181 0.33791 0.0
H2681 H 0.64968 0.98367 0.29715 0.0
C2682 C 0.42876 1.02229 0.774 0.0
C2683 C 0.44111 1.01618 0.74091 0.0
C2684 C 0.47598 0.05346 0.76413 0.0
C2685 C 0.46325 0.06 0.79478 0.0
N2686 N 0.42568 0.05186 0.81715 0.0
N2687 N 0.47714 1.0289 0.70148 0.0
C2688 C 0.43921 0.04455 0.79674 0.0
C2689 C 0.46484 1.03278 0.73501 0.0
N2690 N 0.40641 1.00711 0.78315 0.0
N2691 N 0.49916 0.06638 0.76468 0.0
H2692 H 0.47067 1.01375 0.68259 0.0
H2693 H 0.49331 0.04118 0.69025 0.0
H2694 H 0.50782 0.08111 0.78511 0.0
H2695 H 0.50992 0.06154 0.74849 0.0
H2696 H 0.39765 1.00858 0.81231 0.0
H2697 H 0.39666 0.99265 0.76278 0.0
H2698 H 0.40799 0.04298 0.81537 0.0
H2699 H 0.43212 0.0682 0.83063 0.0
C2700 C 0.07035 0.45392 0.76317 0.0
C2701 C 0.07731 0.44182 0.73158 0.0
C2702 C 1.0396 0.40673 0.7502 0.0
C2703 C 1.03313 0.41835 0.78409 0.0
N2704 N 1.04099 0.45485 0.81298 0.0
N2705 N 0.06965 0.40465 0.70697 0.0
C2706 C 1.04843 0.44243 0.78834 0.0
C2707 C 0.06203 0.41774 0.72811 0.0
N2708 N 0.08482 0.47666 0.76945 0.0
N2709 N 1.02409 0.38497 0.73753 0.0
H2710 H 0.08616 0.41136 0.69425 0.0
H2711 H 0.06081 0.38694 0.70777 0.0
H2712 H 1.00814 0.3757 0.75336 0.0
H2713 H 1.02633 0.37668 0.70845 0.0
H2714 H 0.08288 0.48635 0.79585 0.0
H2715 H 0.09965 0.48585 0.74946 0.0
H2716 H 1.04926 0.47252 0.81323 0.0
H2717 H 1.02521 0.44747 0.82996 0.0
C2718 C 0.67407 0.66897 0.77457 0.0
C2719 C 0.65372 0.65569 0.74747 0.0
C2720 C 0.65502 0.62087 0.77601 0.0
C2721 C 0.67546 0.63418 0.80305 0.0
N2722 N 0.70501 0.67187 0.8241 0.0
N2723 N 0.62304 0.6182 0.72967 0.0
C2724 C 0.68496 0.65846 0.80108 0.0
C2725 C 0.6439 0.63142 0.75007 0.0
N2726 N 0.68296 0.69201 0.77615 0.0
N2727 N 0.64674 0.59796 0.77273 0.0
H2728 H 0.61457 0.62497 0.7106 0.0
H2729 H 0.61319 0.60071 0.73462 0.0
H2730 H 0.65407 0.58967 0.79042 0.0
H2731 H 0.63372 0.58728 0.74975 0.0
H2732 H 0.69543 0.70278 0.80004 0.0
H2733 H 0.6771 0.7006 0.75489 0.0
H2734 H 0.71527 0.68927 0.8186 0.0
H2735 H 0.71202 0.6654 0.84799 0.0
C2736 C 0.30443 0.26688 0.30649 0.0
C2737 C 0.29366 0.27991 0.31636 0.0
C2738 C 0.29108 0.28421 0.22786 0.0
C2739 C 0.30254 0.27186 0.21784 0.0
N2740 N 0.31531 0.24703 0.24827 0.0
N2741 N 0.27135 0.29545 0.28527 0.0
C2742 C 0.30746 0.26167 0.25758 0.0
C2743 C 0.28516 0.28659 0.27647 0.0
N2744 N 0.31286 0.26047 0.34406 0.0
N2745 N 0.28717 0.29508 0.19106 0.0
H2746 H 0.26694 0.29747 0.32001 0.0
H2747 H 0.26251 0.29844 0.25843 0.0
H2748 H 0.29064 0.29313 0.15559 0.0
H2749 H 0.28173 0.30685 0.19581 0.0
H2750 H 0.32338 0.25347 0.34026 0.0
H2751 H 0.30987 0.26304 0.37955 0.0
H2752 H 0.3177 0.23747 0.27444 0.0
H2753 H 0.31749 0.24297 0.21335 0.0
C2754 C 0.8055 1.02298 0.23031 0.0
C2755 C 0.81974 0.04682 0.22231 0.0
C2756 C 0.82503 0.05111 0.31165 0.0
C2757 C 0.81031 1.02734 0.31965 0.0
N2758 N 0.79209 0.99024 0.28404 0.0
N2759 N 0.8474 0.08248 0.25608 0.0
C2760 C 0.8025 1.01325 0.27795 0.0
C2761 C 0.83096 0.06039 0.26341 0.0
N2762 N 0.79364 1.00961 0.19257 0.0
N2763 N 0.83249 0.06513 0.35038 0.0
H2764 H 0.85206 0.08944 0.22176 0.0
H2765 H 0.85779 0.09314 0.2831 0.0
H2766 H 0.82903 0.05872 0.38512 0.0
H2767 H 0.84088 0.08279 0.34823 0.0
H2768 H 0.7807 0.99278 0.19605 0.0
H2769 H 0.79606 1.01595 0.1578 0.0
H2770 H 0.78765 0.9788 0.25582 0.0
H2771 H 0.79008 0.98283 0.31781 0.0
C2772 C 0.07284 0.80799 0.23009 0.0
C2773 C 1.04896 0.79433 0.22186 0.0
C2774 C 1.04369 0.79037 0.31091 0.0
C2775 C 0.06761 0.80337 0.31922 0.0
N2776 N 0.10436 0.82875 0.28609 0.0
N2777 N 1.01161 0.77813 0.25601 0.0
C2778 C 0.08188 0.81364 0.2784 0.0
C2779 C 1.03448 0.78754 0.26299 0.0
N2780 N 0.08706 0.81465 0.19152 0.0
N2781 N 1.0297 0.7794 0.34871 0.0
H2782 H 1.00461 0.77614 0.22184 0.0
H2783 H 0.99999 0.77449 0.28367 0.0
H2784 H 1.03573 0.78161 0.3837 0.0
H2785 H 1.01257 0.76729 0.34521 0.0
H2786 H 0.10467 0.82225 0.19386 0.0
H2787 H 0.08083 0.81145 0.15665 0.0
H2788 H 0.11572 0.83841 0.25917 0.0
H2789 H 0.11115 0.83307 0.32054 0.0
C2790 C 0.83821 0.81379 0.75058 0.0
C2791 C 0.82258 0.7937 0.72523 0.0
C2792 C 0.79655 0.78309 0.79592 0.0
C2793 C 0.81267 0.80248 0.82254 0.0
N2794 N 0.85016 0.83504 0.8259 0.0
N2795 N 0.78851 0.75697 0.72987 0.0
C2796 C 0.83386 0.81744 0.79982 0.0
C2797 C 0.80222 0.77784 0.74966 0.0
N2798 N 0.8571 0.82981 0.72694 0.0
N2799 N 0.77519 0.7698 0.81401 0.0
H2800 H 0.7913 0.7524 0.69616 0.0
H2801 H 0.77534 0.74349 0.7484 0.0
H2802 H 0.77073 0.7716 0.8486 0.0
H2803 H 0.76158 0.7578 0.79385 0.0
H2804 H 0.86821 0.84586 0.74055 0.0
H2805 H 0.86079 0.82764 0.69172 0.0
H2806 H 0.86679 0.84547 0.81425 0.0
H2807 H 0.84747 0.83812 0.86123 0.0
C2808 C 0.30406 0.0566 0.81004 0.0
C2809 C 0.29393 1.03283 0.81967 0.0
C2810 C 0.29292 1.02676 0.73081 0.0
C2811 C 0.30362 0.05057 0.72124 0.0
N2812 N 0.31372 0.08734 0.75239 0.0
N2813 N 0.27312 0.99519 0.7872 0.0
C2814 C 0.30716 0.0651 0.76126 0.0
C2815 C 0.28646 1.01798 0.77917 0.0
N2816 N 0.31188 0.07129 0.84768 0.0
N2817 N 0.2901 1.01248 0.69387 0.0
H2818 H 0.26796 0.98856 0.82162 0.0
H2819 H 0.26539 0.98328 0.76004 0.0
H2820 H 0.29394 1.01826 0.65867 0.0
H2821 H 0.28516 0.99538 0.69832 0.0
H2822 H 0.32198 0.08884 0.84404 0.0
H2823 H 0.30905 0.06554 0.88296 0.0
H2824 H 0.31488 0.0987 0.77873 0.0
H2825 H 0.31585 0.09377 0.71759 0.0
C2826 C 1.03312 0.25964 0.75028 0.0
C2827 C 1.04879 0.26977 0.71142 0.0
C2828 C 0.07991 0.28209 0.77188 0.0
C2829 C 0.06435 0.27594 0.81097 0.0
N2830 N 1.0255 0.25808 0.83635 0.0
N2831 N 0.08781 0.29104 0.68684 0.0
C2832 C 1.04074 0.26406 0.79967 0.0
C2833 C 0.07239 0.2807 0.72281 0.0
N2834 N 1.01071 0.24577 0.73977 0.0
N2835 N 0.10218 0.28952 0.78194 0.0
H2836 H 0.08288 0.28962 0.65111 0.0
H2837 H 0.10513 0.30183 0.69246 0.0
H2838 H 0.10801 0.29083 0.81704 0.0
H2839 H 0.11407 0.29199 0.75567 0.0
H2840 H 0.99863 0.23596 0.76542 0.0
H2841 H 1.00477 0.24245 0.70456 0.0
H2842 H 1.00819 0.25198 0.83151 0.0
H2843 H 1.03057 0.26009 0.87215 0.0
C2844 C 0.96893 0.60265 0.6443 0.0
C2845 C 0.95636 0.6139 0.6545 0.0
C2846 C 0.95043 0.61487 0.56597 0.0
C2847 C 0.96381 0.6045 0.55591 0.0
N2848 N 0.9805 0.58319 0.5867 0.0
N2849 N 0.93079 0.62583 0.62466 0.0
C2850 C 0.9711 0.59652 0.59571 0.0
C2851 C 0.94558 0.61821 0.615 0.0
N2852 N 0.98018 0.59915 0.68087 0.0
N2853 N 0.9433 0.62261 0.52837 0.0
H2854 H 0.92702 0.62824 0.65968 0.0
H2855 H 0.92086 0.62784 0.59883 0.0
H2856 H 0.94568 0.61941 0.49288 0.0
H2857 H 0.9359 0.63278 0.53203 0.0
H2858 H 0.99204 0.59384 0.67595 0.0
H2859 H 0.97854 0.60294 0.71625 0.0
H2860 H 0.98432 0.57488 0.61331 0.0
H2861 H 0.98234 0.57866 0.55197 0.0
C2862 C 0.479 0.3572 0.55644 0.0
C2863 C 0.49183 0.38091 0.54589 0.0
C2864 C 0.49708 0.38803 0.63414 0.0
C2865 C 0.48358 0.36438 0.64471 0.0
N2866 N 0.46728 0.32636 0.61467 0.0
N2867 N 0.51817 0.4181 0.57529 0.0
C2868 C 0.47665 0.34902 0.60522 0.0
C2869 C 0.50268 0.39594 0.58515 0.0
N2870 N 0.46768 0.34249 0.52007 0.0
N2871 N 0.50346 0.40315 0.67093 0.0
H2872 H 0.52246 0.42409 0.54019 0.0
H2873 H 0.52821 0.42981 0.60124 0.0
H2874 H 0.50026 0.39783 0.70648 0.0
H2875 H 0.5108 0.42065 0.66623 0.0
H2876 H 0.45575 0.32541 0.52528 0.0
H2877 H 0.46934 0.34791 0.48464 0.0
H2878 H 0.46358 0.3142 0.5883 0.0
H2879 H 0.46534 0.32009 0.64958 0.0
C2880 C 0.7357 0.13399 0.55937 0.0
C2881 C 0.71188 0.1238 0.5504 0.0
C2882 C 0.70612 0.12296 0.63941 0.0
C2883 C 0.72986 0.13232 0.64827 0.0
N2884 N 0.76752 0.15248 0.61528 0.0
N2885 N 0.67516 0.11345 0.58245 0.0
C2886 C 0.74464 0.13977 0.60759 0.0
C2887 C 0.69744 0.12004 0.59082 0.0
N2888 N 0.7498 0.13689 0.52187 0.0
N2889 N 0.69168 0.11585 0.67766 0.0
H2890 H 0.66866 0.11141 0.54779 0.0
H2891 H 0.66373 0.11194 0.60901 0.0
H2892 H 0.69768 0.11877 0.71276 0.0
H2893 H 0.67405 0.10639 0.6749 0.0
H2894 H 0.76679 0.14134 0.52575 0.0
H2895 H 0.74398 0.13359 0.48668 0.0
H2896 H 0.77942 0.16028 0.58801 0.0
H2897 H 0.77434 0.15708 0.64965 0.0
C2898 C 0.49693 0.12444 0.14121 0.0
C2899 C 0.48398 0.13529 0.15107 0.0
C2900 C 0.47919 0.13737 0.0626 0.0
C2901 C 0.49141 0.12575 0.05258 0.0
N2902 N 0.5164 0.11315 0.08284 0.0
N2903 N 0.46827 0.15741 0.12002 0.0
C2904 C 0.50183 0.12107 0.09225 0.0
C2905 C 0.47712 0.1436 0.11116 0.0
N2906 N 0.50361 0.11632 0.17889 0.0
N2907 N 0.46817 0.14114 0.02595 0.0
H2908 H 0.46648 0.16202 0.15471 0.0
H2909 H 0.46499 0.16606 0.0933 0.0
H2910 H 0.46978 0.13734 0.99054 0.0
H2911 H 0.45659 0.14682 0.03083 0.0
H2912 H 0.51063 0.10581 0.17528 0.0
H2913 H 0.50122 0.11953 0.21435 0.0
H2914 H 0.5261 0.1109 0.10887 0.0
H2915 H 0.52028 0.11076 0.0479 0.0
C2916 C 0.94404 0.34631 0.1021 0.0
C2917 C 0.95455 0.36169 0.14091 0.0
C2918 C 0.9724 0.39288 0.07993 0.0
C2919 C 0.96522 0.37696 0.04138 0.0
N2920 N 0.94339 0.33807 0.01671 0.0
N2921 N 0.97866 0.40019 0.16592 0.0
C2922 C 0.95041 0.35359 0.05287 0.0
C2923 C 0.96833 0.38522 0.12934 0.0
N2924 N 0.92805 0.32442 0.11272 0.0
N2925 N 0.98344 0.41554 0.06907 0.0
H2926 H 0.9751 0.39521 0.20172 0.0
H2927 H 0.99118 0.4171 0.16109 0.0
H2928 H 0.9865 0.42143 0.03378 0.0
H2929 H 0.98772 0.42832 0.09427 0.0
H2930 H 0.91794 0.31259 0.08712 0.0
H2931 H 0.9234 0.31886 0.14797 0.0
H2932 H 0.93516 0.32058 0.02212 0.0
H2933 H 0.94685 0.34298 0.98089 0.0
C2934 C 0.72224 0.6276 0.13347 0.0
C2935 C 0.73238 0.61523 0.15306 0.0
C2936 C 0.72557 0.59592 0.07313 0.0
C2937 C 0.71303 0.60631 0.0562 0.0
N2938 N 0.69563 0.62877 0.07718 0.0
N2939 N 0.74162 0.58566 0.14076 0.0
C2940 C 0.71013 0.62098 0.08863 0.0
C2941 C 0.73344 0.59886 0.1224 0.0
N2942 N 0.72571 0.64707 0.1552 0.0
N2943 N 0.73029 0.58339 0.0418 0.0
H2944 H 0.74746 0.58731 0.1759 0.0
H2945 H 0.74089 0.57189 0.12275 0.0
H2946 H 0.72454 0.58065 1.00647 0.0
H2947 H 0.74129 0.57727 0.04949 0.0
H2948 H 0.72105 0.65814 0.13964 0.0
H2949 H 0.7354 0.65357 0.18599 0.0
H2950 H 0.69064 0.63697 0.10186 0.0
H2951 H 0.68767 0.62608 0.04402 0.0
C2952 C 0.61229 0.92813 0.90601 0.0
C2953 C 0.6352 0.93853 0.88906 0.0
C2954 C 0.6472 0.95916 0.96725 0.0
C2955 C 0.62471 0.94672 0.98675 0.0
N2956 N 0.58595 0.91743 0.97368 0.0
N2957 N 0.67497 0.96102 0.9099 0.0
C2958 C 0.60732 0.93073 0.95555 0.0
C2959 C 0.6527 0.95301 0.92175 0.0
N2960 N 0.5951 0.91589 0.87447 0.0
N2961 N 0.66323 0.97826 0.98994 0.0
H2962 H 0.6802 0.95875 0.87631 0.0
H2963 H 0.68818 0.96899 0.93454 0.0
H2964 H 0.66013 0.98426 0.02163 0.0
H2965 H 0.67893 0.98951 0.97466 0.0
H2966 H 0.578 0.90977 0.88218 0.0
H2967 H 0.59815 0.91343 0.83895 0.0
H2968 H 0.57294 0.90385 0.95526 0.0
H2969 H 0.58171 0.91879 1.00897 0.0
C2970 C 0.1402 0.67982 0.94737 0.0
C2971 C 0.1421 0.69384 0.9874 0.0
C2972 C 0.15224 0.72532 0.92931 0.0
C2973 C 0.15276 0.71227 0.8892 0.0
N2974 N 0.14995 0.67701 0.86415 0.0
N2975 N 0.15601 0.73183 0.01537 0.0
C2976 C 0.14755 0.68948 0.89961 0.0
C2977 C 0.15041 0.7172 0.97776 0.0
N2978 N 0.13074 0.65698 0.9547 0.0
N2979 N 0.1509 0.7445 0.92165 0.0
H2980 H 0.15484 0.72639 0.05075 0.0
H2981 H 0.16406 0.74943 1.01108 0.0
H2982 H 0.14822 0.74922 0.88802 0.0
H2983 H 0.14859 0.75354 0.94911 0.0
H2984 H 0.1262 0.64525 0.927 0.0
H2985 H 0.12642 0.64973 0.98882 0.0
H2986 H 0.14866 0.66124 0.86999 0.0
H2987 H 0.15501 0.6833 0.82951 0.0
C2988 C 0.38538 0.47843 0.96442 0.0
C2989 C 0.39889 0.46907 0.98096 0.0
C2990 C 0.39802 0.45548 0.89767 0.0
C2991 C 0.38183 0.46178 0.88203 0.0
N2992 N 0.35988 0.47955 0.904 0.0
N2993 N 0.41142 0.44231 0.96413 0.0
C2994 C 0.37538 0.47321 0.91674 0.0
C2995 C 0.4031 0.45567 0.94774 0.0
N2996 N 0.38248 0.49281 0.99393 0.0
N2997 N 0.40991 0.45059 0.86509 0.0
H2998 H 0.4137 0.44076 1.00051 0.0
H2999 H 0.41298 0.43065 0.94248 0.0
H3000 H 0.40947 0.45336 0.8287 0.0
H3001 H 0.42291 0.44738 0.87478 0.0
H3002 H 0.37516 0.50241 0.98305 0.0
H3003 H 0.38867 0.49607 0.02894 0.0
H3004 H 0.35212 0.48512 0.92844 0.0
H3005 H 0.35422 0.47858 0.86891 0.0
C3006 C 0.13867 0.47905 0.43477 0.0
C3007 C 0.14359 0.46952 0.47562 0.0
C3008 C 0.16136 0.45417 0.41942 0.0
C3009 C 0.15274 0.46011 0.37844 0.0
N3010 N 0.13407 0.4796 0.34799 0.0
N3011 N 0.16065 0.44849 0.50614 0.0
C3012 C 0.14202 0.47334 0.38657 0.0
C3013 C 0.15565 0.4576 0.46759 0.0
N3014 N 0.13063 0.49368 0.44242 0.0
N3015 N 0.17515 0.44513 0.41198 0.0
H3016 H 0.15792 0.45188 0.54118 0.0
H3017 H 0.16671 0.43713 0.50359 0.0
H3018 H 0.17975 0.44284 0.37762 0.0
H3019 H 0.18365 0.4419 0.43918 0.0
H3020 H 0.12815 0.50281 0.41541 0.0
H3021 H 0.12838 0.4982 0.47686 0.0
H3022 H 0.12367 0.48679 0.35025 0.0
H3023 H 0.1374 0.47666 0.31314 0.0
C3024 C 0.63292 0.72567 0.43203 0.0
C3025 C 0.63096 0.71171 0.39194 0.0
C3026 C 0.61573 0.67882 0.44861 0.0
C3027 C 0.622 0.69345 0.48926 0.0
N3028 N 0.6348 0.73088 0.51911 0.0
N3029 N 0.62073 0.67443 0.36361 0.0
C3030 C 0.62966 0.71687 0.48059 0.0
C3031 C 0.62193 0.68802 0.40073 0.0
N3032 N 0.63838 0.74764 0.42337 0.0
N3033 N 0.60396 0.65587 0.45614 0.0
H3034 H 0.62464 0.68049 0.32859 0.0
H3035 H 0.61715 0.65771 0.36779 0.0
H3036 H 0.59908 0.64891 0.49043 0.0
H3037 H 0.59714 0.64396 0.42871 0.0
H3038 H 0.63864 0.75865 0.44953 0.0
H3039 H 0.64079 0.75421 0.38866 0.0
H3040 H 0.64256 0.74848 0.51693 0.0
H3041 H 0.6314 0.72449 0.55394 0.0
C3042 C 0.38883 0.95943 0.46739 0.0
C3043 C 0.39949 0.94736 0.48577 0.0
C3044 C 0.3925 0.92869 0.4047 0.0
C3045 C 0.37937 0.93869 0.38902 0.0
N3046 N 0.36138 0.96011 0.41345 0.0
N3047 N 0.40961 0.91861 0.4708 0.0
C3048 C 0.37643 0.95286 0.42289 0.0
C3049 C 0.4008 0.9315 0.45382 0.0
N3050 N 0.39186 0.97855 0.49011 0.0
N3051 N 0.39734 0.91662 0.37238 0.0
H3052 H 0.41579 0.92021 0.50563 0.0
H3053 H 0.40915 0.90516 0.45196 0.0
H3054 H 0.39128 0.91397 0.33728 0.0
H3055 H 0.40867 0.91079 0.37902 0.0
H3056 H 0.38687 0.98952 0.47533 0.0
H3057 H 0.40164 0.98507 0.52073 0.0
H3058 H 0.35636 0.96783 0.43919 0.0
H3059 H 0.35273 0.95688 0.38129 0.0
C3060 C 0.36321 0.35851 0.14472 0.0
C3061 C 0.35198 0.34846 0.1012 0.0
C3062 C 0.36533 0.38652 0.06727 0.0
C3063 C 0.37962 0.39616 0.10769 0.0
N3064 N 0.39326 0.39153 0.1843 0.0
N3065 N 0.34274 0.3529 0.01952 0.0
C3066 C 0.37886 0.38221 0.14631 0.0
C3067 C 0.35278 0.36243 0.06223 0.0
N3068 N 0.35813 0.34543 0.18509 0.0
N3069 N 0.36375 0.40038 0.03369 0.0
H3070 H 0.33291 0.33546 0.01403 0.0
H3071 H 0.34544 0.36224 0.98815 0.0
H3072 H 0.37332 0.41808 0.03517 0.0
H3073 H 0.35173 0.39448 1.00634 0.0
H3074 H 0.36421 0.35201 0.219 0.0
H3075 H 0.34563 0.3283 0.18547 0.0
H3076 H 0.39535 0.38189 0.21081 0.0
H3077 H 0.40435 0.40894 0.1876 0.0
C3078 C 0.709 0.99279 0.08429 0.0
C3079 C 0.6986 0.99835 0.12212 0.0
C3080 C 0.73655 1.02636 0.15142 0.0
C3081 C 0.74656 1.02411 0.10865 0.0
N3082 N 0.7415 1.00583 0.03159 0.0
N3083 N 0.70282 1.02123 0.19171 0.0
C3084 C 0.73264 1.00728 0.07456 0.0
C3085 C 0.7125 1.01544 0.15555 0.0
N3086 N 0.69645 0.97371 0.05747 0.0
N3087 N 0.75002 0.03781 0.18948 0.0
H3088 H 0.6855 1.01229 0.19895 0.0
H3089 H 0.71189 1.03559 0.21301 0.0
H3090 H 0.76752 0.04439 0.18909 0.0
H3091 H 0.74368 0.03823 0.22323 0.0
H3092 H 0.70365 0.96752 0.03306 0.0
H3093 H 0.67909 0.96284 0.06239 0.0
H3094 H 0.73149 0.99602 1.00319 0.0
H3095 H 0.75854 1.01586 0.02226 0.0
C3096 C 0.08493 0.74859 0.13663 0.0
C3097 C 0.07081 0.74362 0.09566 0.0
C3098 C 0.08897 0.72395 0.05973 0.0
C3099 C 0.09966 0.72494 0.10383 0.0
N3100 N 0.10734 0.73761 0.18594 0.0
N3101 N 0.05694 0.72343 0.0212 0.0
C3102 C 0.09792 0.73748 0.14262 0.0
C3103 C 0.07223 0.73053 0.05786 0.0
N3104 N 0.0856 0.76354 0.17012 0.0
N3105 N 0.09499 0.71678 0.01955 0.0
H3106 H 1.04393 0.72734 0.01947 0.0
H3107 H 1.05582 0.71188 0.9953 0.0
H3108 H 0.10804 0.71289 0.01993 0.0
H3109 H 0.08906 0.71739 0.98545 0.0
H3110 H 0.09727 0.76969 0.19812 0.0
H3111 H 0.07548 0.77106 0.16788 0.0
H3112 H 0.10409 0.74392 0.2171 0.0
H3113 H 0.11742 0.73022 0.19154 0.0
C3114 C 0.40202 0.34701 0.3889 0.0
C3115 C 0.41623 0.3539 0.43009 0.0
C3116 C 0.38295 0.33081 0.48124 0.0
C3117 C 0.36871 0.3265 0.44103 0.0
N3118 N 0.36419 0.32324 0.35584 0.0
N3119 N 0.42092 0.35175 0.51517 0.0
C3120 C 0.37814 0.33244 0.3945 0.0
C3121 C 0.4069 0.34538 0.4762 0.0
N3122 N 0.41123 0.35526 0.34476 0.0
N3123 N 0.37346 0.32016 0.52358 0.0
H3124 H 0.43854 0.36149 0.51231 0.0
H3125 H 0.41525 0.3482 0.55043 0.0
H3126 H 0.35606 0.30877 0.527 0.0
H3127 H 0.38273 0.32096 0.55392 0.0
H3128 H 0.40169 0.35333 0.31417 0.0
H3129 H 0.42868 0.36516 0.33879 0.0
H3130 H 0.36978 0.32535 0.32053 0.0
H3131 H 0.34702 0.31127 0.35974 0.0
C3132 C 0.76491 0.06306 0.40658 0.0
C3133 C 0.75919 0.04843 0.44701 0.0
C3134 C 0.73728 0.06496 0.47989 0.0
C3135 C 0.73936 0.07636 0.43601 0.0
N3136 N 0.75425 0.08506 0.3552 0.0
N3137 N 0.73674 1.0329 0.5186 0.0
C3138 C 0.75325 0.07545 0.39884 0.0
C3139 C 0.74449 0.04868 0.48271 0.0
N3140 N 0.78114 0.06481 0.37513 0.0
N3141 N 0.7289 0.07019 0.51934 0.0
H3142 H 0.74131 1.02039 0.52131 0.0
H3143 H 0.72416 1.03092 0.54278 0.0
H3144 H 0.72495 0.0832 0.51897 0.0
H3145 H 0.72868 0.06372 0.55337 0.0
H3146 H 0.78786 0.07699 0.34804 0.0
H3147 H 0.78911 0.05514 0.37831 0.0
H3148 H 0.76164 0.08235 0.3251 0.0
H3149 H 0.7463 0.09447 0.34774 0.0
C3150 C 1.04022 0.71825 0.39041 0.0
C3151 C 1.03992 0.72813 0.43491 0.0
C3152 C 1.01258 0.68993 0.46573 0.0
C3153 C 1.01662 0.68014 0.42463 0.0
N3154 N 1.03409 0.68483 0.3471 0.0
N3155 N 1.02437 0.72339 0.51491 0.0
C3156 C 1.03034 0.69429 0.38671 0.0
C3157 C 1.02532 0.71403 0.4723 0.0
N3158 N 1.04891 0.73183 0.35093 0.0
N3159 N 0.99673 0.67618 0.49871 0.0
H3160 H 1.03202 0.74079 0.52074 0.0
H3161 H 1.01686 0.71393 0.54572 0.0
H3162 H 0.98791 0.65851 0.49626 0.0
H3163 H 0.99099 0.68217 0.52661 0.0
H3164 H 1.04796 0.72565 0.31641 0.0
H3165 H 1.05446 0.74917 0.35192 0.0
H3166 H 1.0463 0.6942 0.32124 0.0
H3167 H 1.02567 0.66736 0.34128 0.0
C3168 C 0.75553 0.69485 0.90095 0.0
C3169 C 0.74097 0.68028 0.93768 0.0
C3170 C 0.74685 0.71346 0.98424 0.0
C3171 C 0.76098 0.72801 0.94731 0.0
N3172 N 0.78354 0.73324 0.87666 0.0
N3173 N 0.72954 0.67597 0.02017 0.0
C3174 C 0.76691 0.7189 0.90765 0.0
C3175 C 0.73861 0.68972 0.98109 0.0
N3176 N 0.7577 0.68587 0.85885 0.0
N3177 N 0.74127 0.72232 0.02236 0.0
H3178 H 0.72513 0.6589 0.01936 0.0
H3179 H 0.72898 0.68187 0.05425 0.0
H3180 H 0.7483 0.73975 0.02766 0.0
H3181 H 0.72879 0.71239 0.04733 0.0
H3182 H 0.76562 0.69557 0.82853 0.0
H3183 H 0.75031 0.66847 0.85289 0.0
H3184 H 0.79026 0.72775 0.84971 0.0
H3185 H 0.79204 0.75088 0.88027 0.0
C3186 C 0.37628 0.06565 0.91191 0.0
C3187 C 0.3668 0.04909 0.94898 0.0
C3188 C 0.40482 0.06275 0.9817 0.0
C3189 C 0.41463 0.07621 0.94024 0.0
N3190 N 0.40927 0.08938 0.86312 0.0
N3191 N 0.3726 1.02953 0.01506 0.0
C3192 C 0.40031 0.07772 0.90483 0.0
C3193 C 0.38123 0.04695 0.98268 0.0
N3194 N 0.36238 0.06958 0.88284 0.0
N3195 N 0.418 0.06568 0.02097 0.0
H3196 H 0.35541 1.01742 0.01663 0.0
H3197 H 0.38279 1.02593 0.0372 0.0
H3198 H 0.43502 0.07837 0.02248 0.0
H3199 H 0.41139 0.05765 0.05369 0.0
H3200 H 0.36836 0.08328 0.85921 0.0
H3201 H 0.34471 0.06008 0.88455 0.0
H3202 H 0.3994 0.08836 0.83365 0.0
H3203 H 0.42661 0.09881 0.85602 0.0
C3204 C 1.02591 0.34718 0.87409 0.0
C3205 C 1.01321 0.34913 0.91219 0.0
C3206 C 1.02195 0.32481 0.96277 0.0
C3207 C 1.03538 0.32373 0.92502 0.0
N3208 N 1.04265 0.32603 0.84047 0.0
N3209 N 0.99443 0.33574 0.98832 0.0
C3210 C 1.03503 0.33251 0.87926 0.0
C3211 C 1.00955 0.33645 0.95506 0.0
N3212 N 1.02981 0.35985 0.83347 0.0
N3213 N 1.02182 0.31555 1.00636 0.0
H3214 H 0.98543 0.34436 0.98369 0.0
H3215 H 0.98942 0.32531 0.01848 0.0
H3216 H 1.0299 0.3061 0.01232 0.0
H3217 H 1.0146 0.31797 0.03708 0.0
H3218 H 1.0412 0.36122 0.80684 0.0
H3219 H 1.02266 0.37014 0.82794 0.0
H3220 H 1.04131 0.33045 0.80536 0.0
H3221 H 1.04746 0.31371 0.84317 0.0
C3222 C 0.73435 0.72115 0.56806 0.0
C3223 C 0.74841 0.73939 0.59903 0.0
C3224 C 0.71445 0.7325 0.64523 0.0
C3225 C 0.70041 0.71446 0.61362 0.0
N3226 N 0.69667 0.69555 0.53827 0.0
N3227 N 0.75174 0.76464 0.66334 0.0
C3228 C 0.71031 0.70985 0.57333 0.0
C3229 C 0.73839 0.74586 0.63622 0.0
N3230 N 0.74395 0.71447 0.53324 0.0
N3231 N 0.7051 0.73612 0.68529 0.0
H3232 H 0.76938 0.77397 0.66038 0.0
H3233 H 0.74534 0.77192 0.68699 0.0
H3234 H 0.68772 0.72724 0.6925 0.0
H3235 H 0.71457 0.74686 0.7131 0.0
H3236 H 0.73518 0.69912 0.51494 0.0
H3237 H 0.76103 0.72381 0.52386 0.0
H3238 H 0.7026 0.69364 0.5052 0.0
H3239 H 0.67907 0.6872 0.54006 0.0
C3240 C 0.36144 0.99596 0.58661 0.0
C3241 C 0.37908 1.00326 0.62112 0.0
C3242 C 0.37072 1.03273 0.64748 0.0
C3243 C 0.35597 1.02817 0.60778 0.0
N3244 N 0.33991 1.00691 0.5347 0.0
N3245 N 0.40292 1.03115 0.67957 0.0
C3246 C 0.35177 1.00998 0.57623 0.0
C3247 C 0.38445 1.02243 0.65004 0.0
N3248 N 0.35412 0.97584 0.56312 0.0
N3249 N 0.37088 0.04608 0.68417 0.0
H3250 H 0.41328 1.02397 0.68287 0.0
H3251 H 0.40901 0.04656 0.69753 0.0
H3252 H 0.35986 0.05255 0.68541 0.0
H3253 H 0.37975 0.04822 0.71599 0.0
H3254 H 0.33978 0.96854 0.54125 0.0
H3255 H 0.36121 0.96546 0.56858 0.0
H3256 H 0.33862 0.9956 0.50807 0.0
H3257 H 0.33324 1.01715 0.52426 0.0
C3258 C 0.09674 0.38043 0.62295 0.0
C3259 C 0.09637 0.39477 0.58609 0.0
C3260 C 0.06941 0.36143 0.54012 0.0
C3261 C 0.06945 0.34696 0.57682 0.0
N3262 N 0.08633 0.34226 0.64901 0.0
N3263 N 0.08921 0.39873 0.5034 0.0
C3264 C 0.08433 0.35634 0.61669 0.0
C3265 C 0.08476 0.38516 0.54276 0.0
N3266 N 0.10784 0.38963 0.66497 0.0
N3267 N 1.05448 0.35259 0.50295 0.0
H3268 H 0.10167 0.41585 0.50365 0.0
H3269 H 0.08281 0.39255 0.46942 0.0
H3270 H 1.04358 0.33524 0.49892 0.0
H3271 H 1.05179 0.36251 0.47815 0.0
H3272 H 0.10611 0.38011 0.69556 0.0
H3273 H 0.1179 0.40704 0.67059 0.0
H3274 H 0.09885 0.34791 0.67528 0.0
H3275 H 0.07633 0.32462 0.64794 0.0
C3276 C 1.04302 0.66226 0.72343 0.0
C3277 C 1.03367 0.66185 0.76914 0.0
C3278 C 0.07195 0.68291 0.80345 0.0
C3279 C 0.08127 0.6838 0.75753 0.0
N3280 N 0.07617 0.66833 0.67805 0.0
N3281 N 1.03879 0.66539 0.85496 0.0
C3282 C 0.06694 0.67147 0.71882 0.0
C3283 C 1.04799 0.67007 0.80998 0.0
N3284 N 1.02913 0.65428 0.68435 0.0
N3285 N 0.08598 0.69475 0.84063 0.0
H3286 H 1.02134 0.65618 0.86141 0.0
H3287 H 1.04844 0.66898 0.88606 0.0
H3288 H 0.10367 0.70299 0.83813 0.0
H3289 H 0.08013 0.69734 0.87319 0.0
H3290 H 1.03512 0.6564 0.64931 0.0
H3291 H 1.01148 0.64655 0.68685 0.0
H3292 H 0.0665 0.65773 0.65022 0.0
H3293 H 0.09363 0.67483 0.67395 0.0
C3294 C 0.40623 0.37914 0.80624 0.0
C3295 C 0.4237 0.38155 0.77459 0.0
C3296 C 0.41898 0.40984 0.72791 0.0
C3297 C 0.40277 0.40856 0.76186 0.0
N3298 N 0.38554 0.39632 0.83993 0.0
N3299 N 0.44889 0.40149 0.70833 0.0
C3300 C 0.39781 0.39452 0.80302 0.0
C3301 C 0.43095 0.39783 0.73675 0.0
N3302 N 0.39711 0.36176 0.83875 0.0
N3303 N 0.42184 0.42116 0.68561 0.0
H3304 H 0.4569 0.39181 0.71038 0.0
H3305 H 0.45675 0.41506 0.68445 0.0
H3306 H 0.41332 0.42994 0.67729 0.0
H3307 H 0.43121 0.4203 0.65696 0.0
H3308 H 0.38258 0.35763 0.8588 0.0
H3309 H 0.40282 0.35021 0.84288 0.0
H3310 H 0.38362 0.38841 0.873 0.0
H3311 H 0.3793 0.4076 0.83953 0.0
C3312 C 0.6929 0.05041 0.73881 0.0
C3313 C 0.70726 0.05962 0.77937 0.0
C3314 C 0.69134 1.02145 0.81356 0.0
C3315 C 0.68025 1.01198 0.7697 0.0
N3316 N 0.67017 1.01723 0.68962 0.0
N3317 N 0.72141 0.05389 0.85428 0.0
C3318 C 0.68056 1.02637 0.73227 0.0
C3319 C 0.70677 0.04513 0.81656 0.0
N3320 N 0.69127 0.06463 0.70633 0.0
N3321 N 0.68632 1.00779 0.85289 0.0
H3322 H 0.73264 0.07123 0.8581 0.0
H3323 H 0.72356 0.04388 0.87977 0.0
H3324 H 0.67383 0.99067 0.8519 0.0
H3325 H 0.69231 1.01385 0.88716 0.0
H3326 H 0.67932 0.05907 0.67888 0.0
H3327 H 0.70084 0.08226 0.70887 0.0
H3328 H 0.67229 1.02683 0.65893 0.0
H3329 H 0.66043 0.9998 0.68375 0.0
C3330 C 0.41689 0.04591 0.3172 0.0
C3331 C 0.43105 0.06017 0.27982 0.0
C3332 C 0.42236 1.02659 0.2312 0.0
C3333 C 0.4064 1.01258 0.26651 0.0
N3334 N 0.39262 1.00759 0.34749 0.0
N3335 N 0.44757 0.06479 0.2013 0.0
C3336 C 0.40483 1.02191 0.31083 0.0
C3337 C 0.43427 0.05068 0.23722 0.0
N3338 N 0.41476 0.05552 0.35848 0.0
N3339 N 0.42617 1.01684 0.19207 0.0
H3340 H 0.45716 0.08236 0.20507 0.0
H3341 H 0.44848 0.05941 0.16694 0.0
H3342 H 0.41716 0.99942 0.18548 0.0
H3343 H 0.43918 1.02566 0.16744 0.0
H3344 H 0.40278 0.04677 0.38507 0.0
H3345 H 0.42494 0.07278 0.36591 0.0
H3346 H 0.39187 1.01277 0.38212 0.0
H3347 H 0.38446 0.98997 0.34422 0.0
C3348 C 1.04547 0.39983 0.29115 0.0
C3349 C 1.03166 0.38188 0.25925 0.0
C3350 C 0.06563 0.38494 0.22148 0.0
C3351 C 0.07953 0.40389 0.2508 0.0
N3352 N 0.08288 0.43137 0.30983 0.0
N3353 N 1.02886 0.36233 0.18524 0.0
C3354 C 0.06948 0.41216 0.28401 0.0
C3355 C 1.04184 0.37595 0.2218 0.0
N3356 N 1.03599 0.4041 0.33016 0.0
N3357 N 0.07493 0.37501 0.19396 0.0
H3358 H 1.01146 0.35613 0.18303 0.0
H3359 H 1.0357 0.35943 0.15441 0.0
H3360 H 0.09234 0.38127 0.19098 0.0
H3361 H 0.06523 0.35945 0.17679 0.0
H3362 H 1.04551 0.41502 0.35772 0.0
H3363 H 1.01863 0.39539 0.33745 0.0
H3364 H 0.07648 0.43983 0.32999 0.0
H3365 H 0.10057 0.43966 0.30901 0.0
C3366 C 0.68607 0.67784 0.23736 0.0
C3367 C 0.68987 0.69542 0.27008 0.0
C3368 C 0.71553 0.68677 0.31671 0.0
C3369 C 0.71104 0.66871 0.28499 0.0
N3370 N 0.6878 0.64352 0.22211 0.0
N3371 N 0.70416 0.71297 0.34712 0.0
C3372 C 0.69485 0.66304 0.24771 0.0
C3373 C 0.70351 0.6989 0.31146 0.0
N3374 N 0.67534 0.67615 0.19486 0.0
N3375 N 0.73137 0.6924 0.3521 0.0
H3376 H 0.69549 0.72196 0.34533 0.0
H3377 H 0.71155 0.71416 0.38046 0.0
H3378 H 0.73866 0.68246 0.36051 0.0
H3379 H 0.738 0.7074 0.37176 0.0
H3380 H 0.67434 0.66538 0.16726 0.0
H3381 H 0.66935 0.68708 0.18508 0.0
H3382 H 0.6744 0.63732 0.19778 0.0
H3383 H 0.69396 0.6324 0.2282 0.0
loop_
_geom_bond_atom_site_label_1
_geom_bond_atom_site_label_2
_geom_bond_distance
_geom_bond_site_symmetry_2
_ccdc_geom_bond_type
Nd0 C2 2.836 . S
Nd0 O20 2.500 . S
Nd0 O21 2.492 . S
Nd0 O22 2.487 . S
Nd0 O23 2.682 . S
Nd0 O24 2.410 . S
Nd0 O29 2.414 . S
Nd0 O31 2.424 . S
Nd1 C11 2.836 . S
Nd1 O23 2.414 . S
Nd1 O25 2.424 . S
Nd1 O26 2.500 . S
Nd1 O27 2.492 1_554 S
Nd1 O28 2.487 1_554 S
Nd1 O29 2.682 . S
Nd1 O30 2.410 . S
C2 Nd0 2.836 . S
C2 C3 1.498 . S
C2 O20 1.258 . S
C2 O21 1.239 . S
C3 C2 1.498 . S
C3 C4 1.366 . S
C3 C8 1.407 . S
C4 C3 1.366 . S
C4 C5 1.392 . S
C4 H32 0.930 . S
C5 C4 1.392 . S
C5 C6 1.398 . S
C5 H33 0.929 . S
C6 C5 1.398 . S
C6 C7 1.352 . S
C7 C6 1.352 . S
C7 C8 1.384 . S
C7 H34 0.930 . S
C8 C3 1.407 . S
C8 C7 1.384 . S
C8 H35 0.929 . S
C9 O22 1.241 . S
C9 O23 1.273 . S
C10 O24 1.251 . S
C10 O25 1.268 . S
C11 Nd1 2.836 . S
C11 C12 1.498 1_554 S
C11 O26 1.258 . S
C11 O27 1.239 1_554 S
C12 C11 1.498 1_556 S
C12 C13 1.366 1_556 S
C12 C17 1.407 . S
C13 C12 1.366 1_554 S
C13 C14 1.392 . S
C13 H36 0.930 . S
C14 C13 1.392 . S
C14 C15 1.398 1_554 S
C14 H37 0.929 . S
C15 C14 1.398 1_556 S
C15 C16 1.352 . S
C16 C15 1.352 . S
C16 C17 1.384 . S
C16 H38 0.930 . S
C17 C12 1.407 . S
C17 C16 1.384 . S
C17 H39 0.929 . S
C18 O28 1.241 . S
C18 O29 1.273 1_556 S
C19 O30 1.251 . S
C19 O31 1.268 . S
O20 Nd0 2.500 . S
O20 C2 1.258 . S
O21 Nd0 2.492 . S
O21 C2 1.239 . S
O22 Nd0 2.487 . S
O22 C9 1.241 . S
O23 Nd0 2.682 . S
O23 Nd1 2.414 . S
O23 C9 1.273 . S
O24 Nd0 2.410 . S
O24 C10 1.251 . S
O25 Nd1 2.424 . S
O25 C10 1.268 . S
O26 Nd1 2.500 . S
O26 C11 1.258 . S
O27 Nd1 2.492 1_556 S
O27 C11 1.239 1_556 S
O28 Nd1 2.487 1_556 S
O28 C18 1.241 . S
O29 Nd0 2.414 . S
O29 Nd1 2.682 . S
O29 C18 1.273 1_554 S
O30 Nd1 2.410 . S
O30 C19 1.251 . S
O31 Nd0 2.424 . S
O31 C19 1.268 . S
H32 C4 0.930 . S
H33 C5 0.929 . S
H34 C7 0.930 . S
H35 C8 0.929 . S
H36 C13 0.930 . S
H37 C14 0.929 . S
H38 C16 0.930 . S
H39 C17 0.929 . S
Nd40 C42 2.836 . S
Nd40 O60 2.500 . S
Nd40 O61 2.492 . S
Nd40 O62 2.487 . S
Nd40 O63 2.622 1_545 S
Nd40 O64 2.410 . S
Nd40 O69 2.414 . S
Nd40 O71 2.424 1_545 S
Nd41 C51 2.836 . S
Nd41 O63 2.433 . S
Nd41 O65 2.424 1_565 S
Nd41 O66 2.500 . S
Nd41 O67 2.492 1_554 S
Nd41 O68 2.487 1_564 S
Nd41 O69 2.682 1_565 S
Nd41 O70 2.410 . S
C42 Nd40 2.836 . S
C42 C43 1.498 . S
C42 O60 1.258 . S
C42 O61 1.239 . S
C43 C42 1.498 . S
C43 C44 1.366 . S
C43 C48 1.407 . S
C44 C43 1.366 . S
C44 C45 1.392 . S
C44 H72 0.930 . S
C45 C44 1.392 . S
C45 C46 1.398 . S
C45 H73 0.929 . S
C46 C45 1.398 . S
C46 C47 1.352 . S
C47 C46 1.352 . S
C47 C48 1.384 . S
C47 H74 0.930 . S
C48 C43 1.407 . S
C48 C47 1.384 . S
C48 H75 0.929 . S
C49 O62 1.241 . S
C49 O63 1.267 1_545 S
C50 O64 1.251 . S
C50 O65 1.268 . S
C51 Nd41 2.836 . S
C51 C52 1.498 1_554 S
C51 O66 1.258 . S
C51 O67 1.239 1_554 S
C52 C51 1.498 1_556 S
C52 C53 1.366 1_556 S
C52 C57 1.407 . S
C53 C52 1.366 1_554 S
C53 C54 1.392 . S
C53 H76 0.930 . S
C54 C53 1.392 . S
C54 C55 1.398 1_554 S
C54 H77 0.929 . S
C55 C54 1.398 1_556 S
C55 C56 1.352 . S
C56 C55 1.352 . S
C56 C57 1.384 . S
C56 H78 0.930 . S
C57 C52 1.407 . S
C57 C56 1.384 . S
C57 H79 0.929 . S
C58 O68 1.241 . S
C58 O69 1.273 1_556 S
C59 O70 1.251 . S
C59 O71 1.268 . S
O60 Nd40 2.500 . S
O60 C42 1.258 . S
O61 Nd40 2.492 . S
O61 C42 1.239 . S
O62 Nd40 2.487 . S
O62 C49 1.241 . S
O63 Nd40 2.622 1_565 S
O63 Nd41 2.433 . S
O63 C49 1.267 1_565 S
O64 Nd40 2.410 . S
O64 C50 1.251 . S
O65 Nd41 2.424 1_545 S
O65 C50 1.268 . S
O66 Nd41 2.500 . S
O66 C51 1.258 . S
O67 Nd41 2.492 1_556 S
O67 C51 1.239 1_556 S
O68 Nd41 2.487 1_546 S
O68 C58 1.241 . S
O69 Nd40 2.414 . S
O69 Nd41 2.682 1_545 S
O69 C58 1.273 1_554 S
O70 Nd41 2.410 . S
O70 C59 1.251 . S
O71 Nd40 2.424 1_565 S
O71 C59 1.268 . S
H72 C44 0.930 . S
H73 C45 0.929 . S
H74 C47 0.930 . S
H75 C48 0.929 . S
H76 C53 0.930 . S
H77 C54 0.929 . S
H78 C56 0.930 . S
H79 C57 0.929 . S
Nd80 C82 2.836 . S
Nd80 O100 2.500 . S
Nd80 O101 2.492 . S
Nd80 O102 2.487 . S
Nd80 O103 2.665 1_655 S
Nd80 O104 2.410 . S
Nd80 O109 2.414 . S
Nd80 O111 2.424 1_655 S
Nd81 C91 2.836 . S
Nd81 O103 2.419 . S
Nd81 O105 2.424 1_455 S
Nd81 O106 2.500 . S
Nd81 O107 2.492 1_554 S
Nd81 O108 2.487 1_454 S
Nd81 O109 2.682 1_455 S
Nd81 O110 2.410 . S
C82 Nd80 2.836 . S
C82 C83 1.498 . S
C82 O100 1.258 . S
C82 O101 1.239 . S
C83 C82 1.498 . S
C83 C84 1.366 . S
C83 C88 1.407 . S
C84 C83 1.366 . S
C84 C85 1.392 . S
C84 H112 0.930 . S
C85 C84 1.392 . S
C85 C86 1.398 . S
C85 H113 0.929 . S
C86 C85 1.398 . S
C86 C87 1.352 . S
C87 C86 1.352 . S
C87 C88 1.384 . S
C87 H114 0.930 . S
C88 C83 1.407 . S
C88 C87 1.384 . S
C88 H115 0.929 . S
C89 O102 1.241 . S
C89 O103 1.263 1_655 S
C90 O104 1.251 . S
C90 O105 1.268 . S
C91 Nd81 2.836 . S
C91 C92 1.498 1_554 S
C91 O106 1.258 . S
C91 O107 1.239 1_554 S
C92 C91 1.498 1_556 S
C92 C93 1.366 1_556 S
C92 C97 1.407 . S
C93 C92 1.366 1_554 S
C93 C94 1.392 . S
C93 H116 0.930 . S
C94 C93 1.392 . S
C94 C95 1.398 1_554 S
C94 H117 0.929 . S
C95 C94 1.398 1_556 S
C95 C96 1.352 . S
C96 C95 1.352 . S
C96 C97 1.384 . S
C96 H118 0.930 . S
C97 C92 1.407 . S
C97 C96 1.384 . S
C97 H119 0.929 . S
C98 O108 1.241 . S
C98 O109 1.273 1_556 S
C99 O110 1.251 . S
C99 O111 1.268 . S
O100 Nd80 2.500 . S
O100 C82 1.258 . S
O101 Nd80 2.492 . S
O101 C82 1.239 . S
O102 Nd80 2.487 . S
O102 C89 1.241 . S
O103 Nd80 2.665 1_455 S
O103 Nd81 2.419 . S
O103 C89 1.263 1_455 S
O104 Nd80 2.410 . S
O104 C90 1.251 . S
O105 Nd81 2.424 1_655 S
O105 C90 1.268 . S
O106 Nd81 2.500 . S
O106 C91 1.258 . S
O107 Nd81 2.492 1_556 S
O107 C91 1.239 1_556 S
O108 Nd81 2.487 1_656 S
O108 C98 1.241 . S
O109 Nd80 2.414 . S
O109 Nd81 2.682 1_655 S
O109 C98 1.273 1_554 S
O110 Nd81 2.410 . S
O110 C99 1.251 . S
O111 Nd80 2.424 1_455 S
O111 C99 1.268 . S
H112 C84 0.930 . S
H113 C85 0.929 . S
H114 C87 0.930 . S
H115 C88 0.929 . S
H116 C93 0.930 . S
H117 C94 0.929 . S
H118 C96 0.930 . S
H119 C97 0.929 . S
Nd120 C122 2.836 . S
Nd120 O140 2.500 . S
Nd120 O141 2.492 . S
Nd120 O142 2.487 . S
Nd120 O143 2.682 . S
Nd120 O144 2.410 . S
Nd120 O149 2.414 . S
Nd120 O151 2.424 . S
Nd121 C131 2.836 . S
Nd121 O143 2.414 . S
Nd121 O145 2.424 . S
Nd121 O146 2.500 . S
Nd121 O147 2.492 . S
Nd121 O148 2.487 . S
Nd121 O149 2.682 . S
Nd121 O150 2.410 . S
C122 Nd120 2.836 . S
C122 C123 1.498 . S
C122 O140 1.258 . S
C122 O141 1.239 . S
C123 C122 1.498 . S
C123 C124 1.366 . S
C123 C128 1.407 . S
C124 C123 1.366 . S
C124 C125 1.392 . S
C124 H152 0.930 . S
C125 C124 1.392 . S
C125 C126 1.398 . S
C125 H153 0.929 . S
C126 C125 1.398 . S
C126 C127 1.352 . S
C127 C126 1.352 . S
C127 C128 1.384 . S
C127 H154 0.930 . S
C128 C123 1.407 . S
C128 C127 1.384 . S
C128 H155 0.929 . S
C129 O142 1.241 . S
C129 O143 1.273 . S
C130 O144 1.251 . S
C130 O145 1.268 . S
C131 Nd121 2.836 . S
C131 C132 1.498 . S
C131 O146 1.258 . S
C131 O147 1.239 . S
C132 C131 1.498 . S
C132 C133 1.366 . S
C132 C137 1.407 . S
C133 C132 1.366 . S
C133 C134 1.392 . S
C133 H156 0.930 . S
C134 C133 1.392 . S
C134 C135 1.398 . S
C134 H157 0.929 . S
C135 C134 1.398 . S
C135 C136 1.352 . S
C136 C135 1.352 . S
C136 C137 1.384 . S
C136 H158 0.930 . S
C137 C132 1.407 . S
C137 C136 1.384 . S
C137 H159 0.929 . S
C138 O148 1.241 . S
C138 O149 1.273 . S
C139 O150 1.251 . S
C139 O151 1.268 . S
O140 Nd120 2.500 . S
O140 C122 1.258 . S
O141 Nd120 2.492 . S
O141 C122 1.239 . S
O142 Nd120 2.487 . S
O142 C129 1.241 . S
O143 Nd120 2.682 . S
O143 Nd121 2.414 . S
O143 C129 1.273 . S
O144 Nd120 2.410 . S
O144 C130 1.251 . S
O145 Nd121 2.424 . S
O145 C130 1.268 . S
O146 Nd121 2.500 . S
O146 C131 1.258 . S
O147 Nd121 2.492 . S
O147 C131 1.239 . S
O148 Nd121 2.487 . S
O148 C138 1.241 . S
O149 Nd120 2.414 . S
O149 Nd121 2.682 . S
O149 C138 1.273 . S
O150 Nd121 2.410 . S
O150 C139 1.251 . S
O151 Nd120 2.424 . S
O151 C139 1.268 . S
H152 C124 0.930 . S
H153 C125 0.929 . S
H154 C127 0.930 . S
H155 C128 0.929 . S
H156 C133 0.930 . S
H157 C134 0.929 . S
H158 C136 0.930 . S
H159 C137 0.929 . S
Nd160 C162 2.836 . S
Nd160 O180 2.500 . S
Nd160 O181 2.492 . S
Nd160 O182 2.487 . S
Nd160 O183 2.665 1_565 S
Nd160 O184 2.410 . S
Nd160 O189 2.414 . S
Nd160 O191 2.424 1_565 S
Nd161 C171 2.836 . S
Nd161 O183 2.419 . S
Nd161 O185 2.424 1_545 S
Nd161 O186 2.500 . S
Nd161 O187 2.492 . S
Nd161 O188 2.487 1_545 S
Nd161 O189 2.682 1_545 S
Nd161 O190 2.410 . S
C162 Nd160 2.836 . S
C162 C163 1.498 . S
C162 O180 1.258 . S
C162 O181 1.239 . S
C163 C162 1.498 . S
C163 C164 1.366 . S
C163 C168 1.407 . S
C164 C163 1.366 . S
C164 C165 1.392 . S
C164 H192 0.930 . S
C165 C164 1.392 . S
C165 C166 1.398 . S
C165 H193 0.929 . S
C166 C165 1.398 . S
C166 C167 1.352 . S
C167 C166 1.352 . S
C167 C168 1.384 . S
C167 H194 0.930 . S
C168 C163 1.407 . S
C168 C167 1.384 . S
C168 H195 0.929 . S
C169 O182 1.241 . S
C169 O183 1.263 1_565 S
C170 O184 1.251 . S
C170 O185 1.268 . S
C171 Nd161 2.836 . S
C171 C172 1.498 . S
C171 O186 1.258 . S
C171 O187 1.239 . S
C172 C171 1.498 . S
C172 C173 1.366 . S
C172 C177 1.407 . S
C173 C172 1.366 . S
C173 C174 1.392 . S
C173 H196 0.930 . S
C174 C173 1.392 . S
C174 C175 1.398 . S
C174 H197 0.929 . S
C175 C174 1.398 . S
C175 C176 1.352 . S
C176 C175 1.352 . S
C176 C177 1.384 . S
C176 H198 0.930 . S
C177 C172 1.407 . S
C177 C176 1.384 . S
C177 H199 0.929 . S
C178 O188 1.241 . S
C178 O189 1.273 . S
C179 O190 1.251 . S
C179 O191 1.268 . S
O180 Nd160 2.500 . S
O180 C162 1.258 . S
O181 Nd160 2.492 . S
O181 C162 1.239 . S
O182 Nd160 2.487 . S
O182 C169 1.241 . S
O183 Nd160 2.665 1_545 S
O183 Nd161 2.419 . S
O183 C169 1.263 1_545 S
O184 Nd160 2.410 . S
O184 C170 1.251 . S
O185 Nd161 2.424 1_565 S
O185 C170 1.268 . S
O186 Nd161 2.500 . S
O186 C171 1.258 . S
O187 Nd161 2.492 . S
O187 C171 1.239 . S
O188 Nd161 2.487 1_565 S
O188 C178 1.241 . S
O189 Nd160 2.414 . S
O189 Nd161 2.682 1_565 S
O189 C178 1.273 . S
O190 Nd161 2.410 . S
O190 C179 1.251 . S
O191 Nd160 2.424 1_545 S
O191 C179 1.268 . S
H192 C164 0.930 . S
H193 C165 0.929 . S
H194 C167 0.930 . S
H195 C168 0.929 . S
H196 C173 0.930 . S
H197 C174 0.929 . S
H198 C176 0.930 . S
H199 C177 0.929 . S
Nd200 C202 2.836 . S
Nd200 O220 2.500 . S
Nd200 O221 2.492 . S
Nd200 O222 2.487 . S
Nd200 O223 2.622 1_455 S
Nd200 O224 2.410 . S
Nd200 O229 2.414 . S
Nd200 O231 2.424 1_455 S
Nd201 C211 2.836 . S
Nd201 O223 2.433 . S
Nd201 O225 2.424 1_655 S
Nd201 O226 2.500 . S
Nd201 O227 2.492 . S
Nd201 O228 2.487 1_655 S
Nd201 O229 2.682 1_655 S
Nd201 O230 2.410 . S
C202 Nd200 2.836 . S
C202 C203 1.498 . S
C202 O220 1.258 . S
C202 O221 1.239 . S
C203 C202 1.498 . S
C203 C204 1.366 . S
C203 C208 1.407 . S
C204 C203 1.366 . S
C204 C205 1.392 . S
C204 H232 0.930 . S
C205 C204 1.392 . S
C205 C206 1.398 . S
C205 H233 0.929 . S
C206 C205 1.398 . S
C206 C207 1.352 . S
C207 C206 1.352 . S
C207 C208 1.384 . S
C207 H234 0.930 . S
C208 C203 1.407 . S
C208 C207 1.384 . S
C208 H235 0.929 . S
C209 O222 1.241 . S
C209 O223 1.267 1_455 S
C210 O224 1.251 . S
C210 O225 1.268 . S
C211 Nd201 2.836 . S
C211 C212 1.498 . S
C211 O226 1.258 . S
C211 O227 1.239 . S
C212 C211 1.498 . S
C212 C213 1.366 . S
C212 C217 1.407 . S
C213 C212 1.366 . S
C213 C214 1.392 . S
C213 H236 0.930 . S
C214 C213 1.392 . S
C214 C215 1.398 . S
C214 H237 0.929 . S
C215 C214 1.398 . S
C215 C216 1.352 . S
C216 C215 1.352 . S
C216 C217 1.384 . S
C216 H238 0.930 . S
C217 C212 1.407 . S
C217 C216 1.384 . S
C217 H239 0.929 . S
C218 O228 1.241 . S
C218 O229 1.273 . S
C219 O230 1.251 . S
C219 O231 1.268 . S
O220 Nd200 2.500 . S
O220 C202 1.258 . S
O221 Nd200 2.492 . S
O221 C202 1.239 . S
O222 Nd200 2.487 . S
O222 C209 1.241 . S
O223 Nd200 2.622 1_655 S
O223 Nd201 2.433 . S
O223 C209 1.267 1_655 S
O224 Nd200 2.410 . S
O224 C210 1.251 . S
O225 Nd201 2.424 1_455 S
O225 C210 1.268 . S
O226 Nd201 2.500 . S
O226 C211 1.258 . S
O227 Nd201 2.492 . S
O227 C211 1.239 . S
O228 Nd201 2.487 1_455 S
O228 C218 1.241 . S
O229 Nd200 2.414 . S
O229 Nd201 2.682 1_455 S
O229 C218 1.273 . S
O230 Nd201 2.410 . S
O230 C219 1.251 . S
O231 Nd200 2.424 1_655 S
O231 C219 1.268 . S
H232 C204 0.930 . S
H233 C205 0.929 . S
H234 C207 0.930 . S
H235 C208 0.929 . S
H236 C213 0.930 . S
H237 C214 0.929 . S
H238 C216 0.930 . S
H239 C217 0.929 . S
Nd240 C242 2.836 . S
Nd240 O260 2.500 . S
Nd240 O261 2.492 1_556 S
Nd240 O262 2.487 1_556 S
Nd240 O263 2.682 . S
Nd240 O264 2.410 . S
Nd240 O269 2.414 . S
Nd240 O271 2.424 . S
Nd241 C251 2.836 . S
Nd241 O263 2.414 . S
Nd241 O265 2.424 . S
Nd241 O266 2.500 . S
Nd241 O267 2.492 . S
Nd241 O268 2.487 . S
Nd241 O269 2.682 . S
Nd241 O270 2.410 . S
C242 Nd240 2.836 . S
C242 C243 1.498 1_556 S
C242 O260 1.258 . S
C242 O261 1.239 1_556 S
C243 C242 1.498 1_554 S
C243 C244 1.366 1_554 S
C243 C248 1.407 . S
C244 C243 1.366 1_556 S
C244 C245 1.392 . S
C244 H272 0.930 . S
C245 C244 1.392 . S
C245 C246 1.398 1_556 S
C245 H273 0.929 . S
C246 C245 1.398 1_554 S
C246 C247 1.352 . S
C247 C246 1.352 . S
C247 C248 1.384 . S
C247 H274 0.930 . S
C248 C243 1.407 . S
C248 C247 1.384 . S
C248 H275 0.929 . S
C249 O262 1.241 . S
C249 O263 1.273 1_554 S
C250 O264 1.251 . S
C250 O265 1.268 . S
C251 Nd241 2.836 . S
C251 C252 1.498 . S
C251 O266 1.258 . S
C251 O267 1.239 . S
C252 C251 1.498 . S
C252 C253 1.366 . S
C252 C257 1.407 . S
C253 C252 1.366 . S
C253 C254 1.392 . S
C253 H276 0.930 . S
C254 C253 1.392 . S
C254 C255 1.398 . S
C254 H277 0.929 . S
C255 C254 1.398 . S
C255 C256 1.352 . S
C256 C255 1.352 . S
C256 C257 1.384 . S
C256 H278 0.930 . S
C257 C252 1.407 . S
C257 C256 1.384 . S
C257 H279 0.929 . S
C258 O268 1.241 . S
C258 O269 1.273 . S
C259 O270 1.251 . S
C259 O271 1.268 . S
O260 Nd240 2.500 . S
O260 C242 1.258 . S
O261 Nd240 2.492 1_554 S
O261 C242 1.239 1_554 S
O262 Nd240 2.487 1_554 S
O262 C249 1.241 . S
O263 Nd240 2.682 . S
O263 Nd241 2.414 . S
O263 C249 1.273 1_556 S
O264 Nd240 2.410 . S
O264 C250 1.251 . S
O265 Nd241 2.424 . S
O265 C250 1.268 . S
O266 Nd241 2.500 . S
O266 C251 1.258 . S
O267 Nd241 2.492 . S
O267 C251 1.239 . S
O268 Nd241 2.487 . S
O268 C258 1.241 . S
O269 Nd240 2.414 . S
O269 Nd241 2.682 . S
O269 C258 1.273 . S
O270 Nd241 2.410 . S
O270 C259 1.251 . S
O271 Nd240 2.424 . S
O271 C259 1.268 . S
H272 C244 0.930 . S
H273 C245 0.929 . S
H274 C247 0.930 . S
H275 C248 0.929 . S
H276 C253 0.930 . S
H277 C254 0.929 . S
H278 C256 0.930 . S
H279 C257 0.929 . S
Nd280 C282 2.836 . S
Nd280 O300 2.500 . S
Nd280 O301 2.492 1_556 S
Nd280 O302 2.487 1_546 S
Nd280 O303 2.682 1_545 S
Nd280 O304 2.410 . S
Nd280 O309 2.433 . S
Nd280 O311 2.424 1_545 S
Nd281 C291 2.836 . S
Nd281 O303 2.414 . S
Nd281 O305 2.424 1_565 S
Nd281 O306 2.500 . S
Nd281 O307 2.492 . S
Nd281 O308 2.487 . S
Nd281 O309 2.622 1_565 S
Nd281 O310 2.410 . S
C282 Nd280 2.836 . S
C282 C283 1.498 1_556 S
C282 O300 1.258 . S
C282 O301 1.239 1_556 S
C283 C282 1.498 1_554 S
C283 C284 1.366 1_554 S
C283 C288 1.407 . S
C284 C283 1.366 1_556 S
C284 C285 1.392 . S
C284 H312 0.930 . S
C285 C284 1.392 . S
C285 C286 1.398 1_556 S
C285 H313 0.929 . S
C286 C285 1.398 1_554 S
C286 C287 1.352 . S
C287 C286 1.352 . S
C287 C288 1.384 . S
C287 H314 0.930 . S
C288 C283 1.407 . S
C288 C287 1.384 . S
C288 H315 0.929 . S
C289 O302 1.241 . S
C289 O303 1.273 1_554 S
C290 O304 1.251 . S
C290 O305 1.268 . S
C291 Nd281 2.836 . S
C291 C292 1.498 . S
C291 O306 1.258 . S
C291 O307 1.239 . S
C292 C291 1.498 . S
C292 C293 1.366 . S
C292 C297 1.407 . S
C293 C292 1.366 . S
C293 C294 1.392 . S
C293 H316 0.930 . S
C294 C293 1.392 . S
C294 C295 1.398 . S
C294 H317 0.929 . S
C295 C294 1.398 . S
C295 C296 1.352 . S
C296 C295 1.352 . S
C296 C297 1.384 . S
C296 H318 0.930 . S
C297 C292 1.407 . S
C297 C296 1.384 . S
C297 H319 0.929 . S
C298 O308 1.241 . S
C298 O309 1.267 1_565 S
C299 O310 1.251 . S
C299 O311 1.268 . S
O300 Nd280 2.500 . S
O300 C282 1.258 . S
O301 Nd280 2.492 1_554 S
O301 C282 1.239 1_554 S
O302 Nd280 2.487 1_564 S
O302 C289 1.241 . S
O303 Nd280 2.682 1_565 S
O303 Nd281 2.414 . S
O303 C289 1.273 1_556 S
O304 Nd280 2.410 . S
O304 C290 1.251 . S
O305 Nd281 2.424 1_545 S
O305 C290 1.268 . S
O306 Nd281 2.500 . S
O306 C291 1.258 . S
O307 Nd281 2.492 . S
O307 C291 1.239 . S
O308 Nd281 2.487 . S
O308 C298 1.241 . S
O309 Nd280 2.433 . S
O309 Nd281 2.622 1_545 S
O309 C298 1.267 1_545 S
O310 Nd281 2.410 . S
O310 C299 1.251 . S
O311 Nd280 2.424 1_565 S
O311 C299 1.268 . S
H312 C284 0.930 . S
H313 C285 0.929 . S
H314 C287 0.930 . S
H315 C288 0.929 . S
H316 C293 0.930 . S
H317 C294 0.929 . S
H318 C296 0.930 . S
H319 C297 0.929 . S
Nd320 C322 2.836 . S
Nd320 O340 2.500 . S
Nd320 O341 2.492 1_556 S
Nd320 O342 2.487 1_656 S
Nd320 O343 2.682 1_655 S
Nd320 O344 2.410 . S
Nd320 O349 2.419 . S
Nd320 O351 2.424 1_655 S
Nd321 C331 2.836 . S
Nd321 O343 2.414 . S
Nd321 O345 2.424 1_455 S
Nd321 O346 2.500 . S
Nd321 O347 2.492 . S
Nd321 O348 2.487 . S
Nd321 O349 2.665 1_455 S
Nd321 O350 2.410 . S
C322 Nd320 2.836 . S
C322 C323 1.498 1_556 S
C322 O340 1.258 . S
C322 O341 1.239 1_556 S
C323 C322 1.498 1_554 S
C323 C324 1.366 1_554 S
C323 C328 1.407 . S
C324 C323 1.366 1_556 S
C324 C325 1.392 . S
C324 H352 0.930 . S
C325 C324 1.392 . S
C325 C326 1.398 1_556 S
C325 H353 0.929 . S
C326 C325 1.398 1_554 S
C326 C327 1.352 . S
C327 C326 1.352 . S
C327 C328 1.384 . S
C327 H354 0.930 . S
C328 C323 1.407 . S
C328 C327 1.384 . S
C328 H355 0.929 . S
C329 O342 1.241 . S
C329 O343 1.273 1_554 S
C330 O344 1.251 . S
C330 O345 1.268 . S
C331 Nd321 2.836 . S
C331 C332 1.498 . S
C331 O346 1.258 . S
C331 O347 1.239 . S
C332 C331 1.498 . S
C332 C333 1.366 . S
C332 C337 1.407 . S
C333 C332 1.366 . S
C333 C334 1.392 . S
C333 H356 0.930 . S
C334 C333 1.392 . S
C334 C335 1.398 . S
C334 H357 0.929 . S
C335 C334 1.398 . S
C335 C336 1.352 . S
C336 C335 1.352 . S
C336 C337 1.384 . S
C336 H358 0.930 . S
C337 C332 1.407 . S
C337 C336 1.384 . S
C337 H359 0.929 . S
C338 O348 1.241 . S
C338 O349 1.263 1_455 S
C339 O350 1.251 . S
C339 O351 1.268 . S
O340 Nd320 2.500 . S
O340 C322 1.258 . S
O341 Nd320 2.492 1_554 S
O341 C322 1.239 1_554 S
O342 Nd320 2.487 1_454 S
O342 C329 1.241 . S
O343 Nd320 2.682 1_455 S
O343 Nd321 2.414 . S
O343 C329 1.273 1_556 S
O344 Nd320 2.410 . S
O344 C330 1.251 . S
O345 Nd321 2.424 1_655 S
O345 C330 1.268 . S
O346 Nd321 2.500 . S
O346 C331 1.258 . S
O347 Nd321 2.492 . S
O347 C331 1.239 . S
O348 Nd321 2.487 . S
O348 C338 1.241 . S
O349 Nd320 2.419 . S
O349 Nd321 2.665 1_655 S
O349 C338 1.263 1_655 S
O350 Nd321 2.410 . S
O350 C339 1.251 . S
O351 Nd320 2.424 1_455 S
O351 C339 1.268 . S
H352 C324 0.930 . S
H353 C325 0.929 . S
H354 C327 0.930 . S
H355 C328 0.929 . S
H356 C333 0.930 . S
H357 C334 0.929 . S
H358 C336 0.930 . S
H359 C337 0.929 . S
Nd360 C362 2.836 . S
Nd360 O380 2.500 . S
Nd360 O381 2.492 . S
Nd360 O382 2.487 . S
Nd360 O383 2.682 . S
Nd360 O384 2.410 . S
Nd360 O389 2.414 . S
Nd360 O391 2.424 . S
Nd361 C371 2.836 . S
Nd361 O383 2.414 . S
Nd361 O385 2.424 . S
Nd361 O386 2.500 . S
Nd361 O387 2.492 . S
Nd361 O388 2.487 . S
Nd361 O389 2.682 . S
Nd361 O390 2.410 . S
C362 Nd360 2.836 . S
C362 C363 1.498 . S
C362 O380 1.258 . S
C362 O381 1.239 . S
C363 C362 1.498 . S
C363 C364 1.366 . S
C363 C368 1.407 . S
C364 C363 1.366 . S
C364 C365 1.392 . S
C364 H392 0.930 . S
C365 C364 1.392 . S
C365 C366 1.398 . S
C365 H393 0.929 . S
C366 C365 1.398 . S
C366 C367 1.352 . S
C367 C366 1.352 . S
C367 C368 1.384 . S
C367 H394 0.930 . S
C368 C363 1.407 . S
C368 C367 1.384 . S
C368 H395 0.929 . S
C369 O382 1.241 . S
C369 O383 1.273 . S
C370 O384 1.251 . S
C370 O385 1.268 . S
C371 Nd361 2.836 . S
C371 C372 1.498 . S
C371 O386 1.258 . S
C371 O387 1.239 . S
C372 C371 1.498 . S
C372 C373 1.366 . S
C372 C377 1.407 . S
C373 C372 1.366 . S
C373 C374 1.392 . S
C373 H396 0.930 . S
C374 C373 1.392 . S
C374 C375 1.398 . S
C374 H397 0.929 . S
C375 C374 1.398 . S
C375 C376 1.352 . S
C376 C375 1.352 . S
C376 C377 1.384 . S
C376 H398 0.930 . S
C377 C372 1.407 . S
C377 C376 1.384 . S
C377 H399 0.929 . S
C378 O388 1.241 . S
C378 O389 1.273 . S
C379 O390 1.251 . S
C379 O391 1.268 . S
O380 Nd360 2.500 . S
O380 C362 1.258 . S
O381 Nd360 2.492 . S
O381 C362 1.239 . S
O382 Nd360 2.487 . S
O382 C369 1.241 . S
O383 Nd360 2.682 . S
O383 Nd361 2.414 . S
O383 C369 1.273 . S
O384 Nd360 2.410 . S
O384 C370 1.251 . S
O385 Nd361 2.424 . S
O385 C370 1.268 . S
O386 Nd361 2.500 . S
O386 C371 1.258 . S
O387 Nd361 2.492 . S
O387 C371 1.239 . S
O388 Nd361 2.487 . S
O388 C378 1.241 . S
O389 Nd360 2.414 . S
O389 Nd361 2.682 . S
O389 C378 1.273 . S
O390 Nd361 2.410 . S
O390 C379 1.251 . S
O391 Nd360 2.424 . S
O391 C379 1.268 . S
H392 C364 0.930 . S
H393 C365 0.929 . S
H394 C367 0.930 . S
H395 C368 0.929 . S
H396 C373 0.930 . S
H397 C374 0.929 . S
H398 C376 0.930 . S
H399 C377 0.929 . S
Nd400 C402 2.836 . S
Nd400 O420 2.500 . S
Nd400 O421 2.492 . S
Nd400 O422 2.487 1_565 S
Nd400 O423 2.682 1_565 S
Nd400 O424 2.410 . S
Nd400 O429 2.419 . S
Nd400 O431 2.424 1_565 S
Nd401 C411 2.836 . S
Nd401 O423 2.414 . S
Nd401 O425 2.424 1_545 S
Nd401 O426 2.500 . S
Nd401 O427 2.492 . S
Nd401 O428 2.487 . S
Nd401 O429 2.665 1_545 S
Nd401 O430 2.410 . S
C402 Nd400 2.836 . S
C402 C403 1.498 . S
C402 O420 1.258 . S
C402 O421 1.239 . S
C403 C402 1.498 . S
C403 C404 1.366 . S
C403 C408 1.407 . S
C404 C403 1.366 . S
C404 C405 1.392 . S
C404 H432 0.930 . S
C405 C404 1.392 . S
C405 C406 1.398 . S
C405 H433 0.929 . S
C406 C405 1.398 . S
C406 C407 1.352 . S
C407 C406 1.352 . S
C407 C408 1.384 . S
C407 H434 0.930 . S
C408 C403 1.407 . S
C408 C407 1.384 . S
C408 H435 0.929 . S
C409 O422 1.241 . S
C409 O423 1.273 . S
C410 O424 1.251 . S
C410 O425 1.268 . S
C411 Nd401 2.836 . S
C411 C412 1.498 . S
C411 O426 1.258 . S
C411 O427 1.239 . S
C412 C411 1.498 . S
C412 C413 1.366 . S
C412 C417 1.407 . S
C413 C412 1.366 . S
C413 C414 1.392 . S
C413 H436 0.930 . S
C414 C413 1.392 . S
C414 C415 1.398 . S
C414 H437 0.929 . S
C415 C414 1.398 . S
C415 C416 1.352 . S
C416 C415 1.352 . S
C416 C417 1.384 . S
C416 H438 0.930 . S
C417 C412 1.407 . S
C417 C416 1.384 . S
C417 H439 0.929 . S
C418 O428 1.241 . S
C418 O429 1.263 1_545 S
C419 O430 1.251 . S
C419 O431 1.268 . S
O420 Nd400 2.500 . S
O420 C402 1.258 . S
O421 Nd400 2.492 . S
O421 C402 1.239 . S
O422 Nd400 2.487 1_545 S
O422 C409 1.241 . S
O423 Nd400 2.682 1_545 S
O423 Nd401 2.414 . S
O423 C409 1.273 . S
O424 Nd400 2.410 . S
O424 C410 1.251 . S
O425 Nd401 2.424 1_565 S
O425 C410 1.268 . S
O426 Nd401 2.500 . S
O426 C411 1.258 . S
O427 Nd401 2.492 . S
O427 C411 1.239 . S
O428 Nd401 2.487 . S
O428 C418 1.241 . S
O429 Nd400 2.419 . S
O429 Nd401 2.665 1_565 S
O429 C418 1.263 1_565 S
O430 Nd401 2.410 . S
O430 C419 1.251 . S
O431 Nd400 2.424 1_545 S
O431 C419 1.268 . S
H432 C404 0.930 . S
H433 C405 0.929 . S
H434 C407 0.930 . S
H435 C408 0.929 . S
H436 C413 0.930 . S
H437 C414 0.929 . S
H438 C416 0.930 . S
H439 C417 0.929 . S
Nd440 C442 2.836 . S
Nd440 O460 2.500 . S
Nd440 O461 2.492 . S
Nd440 O462 2.487 1_455 S
Nd440 O463 2.682 1_455 S
Nd440 O464 2.410 . S
Nd440 O469 2.433 . S
Nd440 O471 2.424 1_455 S
Nd441 C451 2.836 . S
Nd441 O463 2.414 . S
Nd441 O465 2.424 1_655 S
Nd441 O466 2.500 . S
Nd441 O467 2.492 . S
Nd441 O468 2.487 . S
Nd441 O469 2.622 1_655 S
Nd441 O470 2.410 . S
C442 Nd440 2.836 . S
C442 C443 1.498 . S
C442 O460 1.258 . S
C442 O461 1.239 . S
C443 C442 1.498 . S
C443 C444 1.366 . S
C443 C448 1.407 . S
C444 C443 1.366 . S
C444 C445 1.392 . S
C444 H472 0.930 . S
C445 C444 1.392 . S
C445 C446 1.398 . S
C445 H473 0.929 . S
C446 C445 1.398 . S
C446 C447 1.352 . S
C447 C446 1.352 . S
C447 C448 1.384 . S
C447 H474 0.930 . S
C448 C443 1.407 . S
C448 C447 1.384 . S
C448 H475 0.929 . S
C449 O462 1.241 . S
C449 O463 1.273 . S
C450 O464 1.251 . S
C450 O465 1.268 . S
C451 Nd441 2.836 . S
C451 C452 1.498 . S
C451 O466 1.258 . S
C451 O467 1.239 . S
C452 C451 1.498 . S
C452 C453 1.366 . S
C452 C457 1.407 . S
C453 C452 1.366 . S
C453 C454 1.392 . S
C453 H476 0.930 . S
C454 C453 1.392 . S
C454 C455 1.398 . S
C454 H477 0.929 . S
C455 C454 1.398 . S
C455 C456 1.352 . S
C456 C455 1.352 . S
C456 C457 1.384 . S
C456 H478 0.930 . S
C457 C452 1.407 . S
C457 C456 1.384 . S
C457 H479 0.929 . S
C458 O468 1.241 . S
C458 O469 1.267 1_655 S
C459 O470 1.251 . S
C459 O471 1.268 . S
O460 Nd440 2.500 . S
O460 C442 1.258 . S
O461 Nd440 2.492 . S
O461 C442 1.239 . S
O462 Nd440 2.487 1_655 S
O462 C449 1.241 . S
O463 Nd440 2.682 1_655 S
O463 Nd441 2.414 . S
O463 C449 1.273 . S
O464 Nd440 2.410 . S
O464 C450 1.251 . S
O465 Nd441 2.424 1_455 S
O465 C450 1.268 . S
O466 Nd441 2.500 . S
O466 C451 1.258 . S
O467 Nd441 2.492 . S
O467 C451 1.239 . S
O468 Nd441 2.487 . S
O468 C458 1.241 . S
O469 Nd440 2.433 . S
O469 Nd441 2.622 1_455 S
O469 C458 1.267 1_455 S
O470 Nd441 2.410 . S
O470 C459 1.251 . S
O471 Nd440 2.424 1_655 S
O471 C459 1.268 . S
H472 C444 0.930 . S
H473 C445 0.929 . S
H474 C447 0.930 . S
H475 C448 0.929 . S
H476 C453 0.930 . S
H477 C454 0.929 . S
H478 C456 0.930 . S
H479 C457 0.929 . S
Nd480 C482 2.836 . S
Nd480 O500 2.500 . S
Nd480 O501 2.492 . S
Nd480 O502 2.487 . S
Nd480 O503 2.682 . S
Nd480 O504 2.410 . S
Nd480 O509 2.414 . S
Nd480 O511 2.424 . S
Nd481 C491 2.836 . S
Nd481 O503 2.414 . S
Nd481 O505 2.424 . S
Nd481 O506 2.500 . S
Nd481 O507 2.492 . S
Nd481 O508 2.487 . S
Nd481 O509 2.682 . S
Nd481 O510 2.410 . S
C482 Nd480 2.836 . S
C482 C483 1.498 . S
C482 O500 1.258 . S
C482 O501 1.239 . S
C483 C482 1.498 . S
C483 C484 1.366 . S
C483 C488 1.407 . S
C484 C483 1.366 . S
C484 C485 1.392 1_655 S
C484 H512 0.930 . S
C485 C484 1.392 1_455 S
C485 C486 1.398 . S
C485 H513 0.929 . S
C486 C485 1.398 . S
C486 C487 1.352 1_455 S
C487 C486 1.352 1_655 S
C487 C488 1.384 . S
C487 H514 0.913 1_655 S
C488 C483 1.407 . S
C488 C487 1.384 . S
C488 H515 0.929 . S
C489 O502 1.241 . S
C489 O503 1.273 . S
C490 O504 1.251 . S
C490 O505 1.268 . S
C491 Nd481 2.836 . S
C491 C492 1.498 . S
C491 O506 1.258 . S
C491 O507 1.239 . S
C492 C491 1.498 . S
C492 C493 1.366 . S
C492 C497 1.407 . S
C493 C492 1.366 . S
C493 C494 1.392 . S
C493 H516 0.930 . S
C494 C493 1.392 . S
C494 C495 1.398 . S
C494 H517 0.929 . S
C495 C494 1.398 . S
C495 C496 1.352 . S
C496 C495 1.352 . S
C496 C497 1.384 . S
C496 H518 0.930 . S
C497 C492 1.407 . S
C497 C496 1.384 . S
C497 H519 0.929 . S
C498 O508 1.241 . S
C498 O509 1.273 . S
C499 O510 1.251 . S
C499 O511 1.268 . S
O500 Nd480 2.500 . S
O500 C482 1.258 . S
O501 Nd480 2.492 . S
O501 C482 1.239 . S
O502 Nd480 2.487 . S
O502 C489 1.241 . S
O503 Nd480 2.682 . S
O503 Nd481 2.414 . S
O503 C489 1.273 . S
O504 Nd480 2.410 . S
O504 C490 1.251 . S
O505 Nd481 2.424 . S
O505 C490 1.268 . S
O506 Nd481 2.500 . S
O506 C491 1.258 . S
O507 Nd481 2.492 . S
O507 C491 1.239 . S
O508 Nd481 2.487 . S
O508 C498 1.241 . S
O509 Nd480 2.414 . S
O509 Nd481 2.682 . S
O509 C498 1.273 . S
O510 Nd481 2.410 . S
O510 C499 1.251 . S
O511 Nd480 2.424 . S
O511 C499 1.268 . S
H512 C484 0.930 . S
H513 C485 0.929 . S
H514 C487 0.913 1_455 S
H515 C488 0.929 . S
H516 C493 0.930 . S
H517 C494 0.929 . S
H518 C496 0.930 . S
H519 C497 0.929 . S
Nd520 C522 2.836 . S
Nd520 O540 2.500 . S
Nd520 O541 2.492 . S
Nd520 O542 2.487 . S
Nd520 O543 2.682 . S
Nd520 O544 2.410 . S
Nd520 O549 2.414 . S
Nd520 O551 2.424 . S
Nd521 C531 2.836 . S
Nd521 O543 2.414 . S
Nd521 O545 2.424 . S
Nd521 O546 2.500 . S
Nd521 O547 2.492 . S
Nd521 O548 2.487 . S
Nd521 O549 2.682 . S
Nd521 O550 2.410 . S
C522 Nd520 2.836 . S
C522 C523 1.498 . S
C522 O540 1.258 . S
C522 O541 1.239 . S
C523 C522 1.498 . S
C523 C524 1.366 . S
C523 C528 1.407 . S
C524 C523 1.366 . S
C524 C525 1.392 . S
C524 H552 0.930 . S
C525 C524 1.392 . S
C525 C526 1.398 . S
C525 H553 0.929 . S
C526 C525 1.398 . S
C526 C527 1.352 . S
C527 C526 1.352 . S
C527 C528 1.384 . S
C527 H554 0.930 . S
C528 C523 1.407 . S
C528 C527 1.384 . S
C528 H555 0.929 . S
C529 O542 1.241 . S
C529 O543 1.273 . S
C530 O544 1.251 . S
C530 O545 1.268 . S
C531 Nd521 2.836 . S
C531 C532 1.498 . S
C531 O546 1.258 . S
C531 O547 1.239 . S
C532 C531 1.498 . S
C532 C533 1.366 . S
C532 C537 1.407 . S
C533 C532 1.366 . S
C533 C534 1.392 . S
C533 H556 0.930 . S
C534 C533 1.392 . S
C534 C535 1.398 . S
C534 H557 0.929 . S
C535 C534 1.398 . S
C535 C536 1.352 . S
C536 C535 1.352 . S
C536 C537 1.384 . S
C536 H558 0.930 . S
C537 C532 1.407 . S
C537 C536 1.384 . S
C537 H559 0.929 . S
C538 O548 1.241 . S
C538 O549 1.273 . S
C539 O550 1.251 . S
C539 O551 1.268 . S
O540 Nd520 2.500 . S
O540 C522 1.258 . S
O541 Nd520 2.492 . S
O541 C522 1.239 . S
O542 Nd520 2.487 . S
O542 C529 1.241 . S
O543 Nd520 2.682 . S
O543 Nd521 2.414 . S
O543 C529 1.273 . S
O544 Nd520 2.410 . S
O544 C530 1.251 . S
O545 Nd521 2.424 . S
O545 C530 1.268 . S
O546 Nd521 2.500 . S
O546 C531 1.258 . S
O547 Nd521 2.492 . S
O547 C531 1.239 . S
O548 Nd521 2.487 . S
O548 C538 1.241 . S
O549 Nd520 2.414 . S
O549 Nd521 2.682 . S
O549 C538 1.273 . S
O550 Nd521 2.410 . S
O550 C539 1.251 . S
O551 Nd520 2.424 . S
O551 C539 1.268 . S
H552 C524 0.930 . S
H553 C525 0.929 . S
H554 C527 0.930 . S
H555 C528 0.929 . S
H556 C533 0.930 . S
H557 C534 0.929 . S
H558 C536 0.930 . S
H559 C537 0.929 . S
Nd560 C562 2.836 . S
Nd560 O580 2.500 . S
Nd560 O581 2.492 . S
Nd560 O582 2.487 . S
Nd560 O583 2.682 . S
Nd560 O584 2.410 . S
Nd560 O589 2.414 . S
Nd560 O591 2.424 . S
Nd561 C571 2.836 . S
Nd561 O583 2.414 . S
Nd561 O585 2.424 . S
Nd561 O586 2.500 . S
Nd561 O587 2.492 . S
Nd561 O588 2.487 . S
Nd561 O589 2.682 . S
Nd561 O590 2.410 . S
C562 Nd560 2.836 . S
C562 C563 1.498 . S
C562 O580 1.258 . S
C562 O581 1.239 . S
C563 C562 1.498 . S
C563 C564 1.366 . S
C563 C568 1.407 . S
C564 C563 1.366 . S
C564 C565 1.392 1_545 S
C564 H592 0.930 . S
C565 C564 1.392 1_565 S
C565 C566 1.398 . S
C565 H593 0.929 . S
C566 C565 1.398 . S
C566 C567 1.352 1_565 S
C567 C566 1.352 1_545 S
C567 C568 1.384 . S
C567 H594 0.931 1_545 S
C568 C563 1.407 . S
C568 C567 1.384 . S
C568 H595 0.929 . S
C569 O582 1.241 . S
C569 O583 1.273 . S
C570 O584 1.251 . S
C570 O585 1.268 . S
C571 Nd561 2.836 . S
C571 C572 1.498 . S
C571 O586 1.258 . S
C571 O587 1.239 . S
C572 C571 1.498 . S
C572 C573 1.366 . S
C572 C577 1.407 . S
C573 C572 1.366 . S
C573 C574 1.392 . S
C573 H596 0.930 . S
C574 C573 1.392 . S
C574 C575 1.398 . S
C574 H597 0.929 . S
C575 C574 1.398 . S
C575 C576 1.352 . S
C576 C575 1.352 . S
C576 C577 1.384 . S
C576 H598 0.930 . S
C577 C572 1.407 . S
C577 C576 1.384 . S
C577 H599 0.929 . S
C578 O588 1.241 . S
C578 O589 1.273 . S
C579 O590 1.251 . S
C579 O591 1.268 . S
O580 Nd560 2.500 . S
O580 C562 1.258 . S
O581 Nd560 2.492 . S
O581 C562 1.239 . S
O582 Nd560 2.487 . S
O582 C569 1.241 . S
O583 Nd560 2.682 . S
O583 Nd561 2.414 . S
O583 C569 1.273 . S
O584 Nd560 2.410 . S
O584 C570 1.251 . S
O585 Nd561 2.424 . S
O585 C570 1.268 . S
O586 Nd561 2.500 . S
O586 C571 1.258 . S
O587 Nd561 2.492 . S
O587 C571 1.239 . S
O588 Nd561 2.487 . S
O588 C578 1.241 . S
O589 Nd560 2.414 . S
O589 Nd561 2.682 . S
O589 C578 1.273 . S
O590 Nd561 2.410 . S
O590 C579 1.251 . S
O591 Nd560 2.424 . S
O591 C579 1.268 . S
H592 C564 0.930 . S
H593 C565 0.929 . S
H594 C567 0.931 1_565 S
H595 C568 0.929 . S
H596 C573 0.930 . S
H597 C574 0.929 . S
H598 C576 0.930 . S
H599 C577 0.929 . S
Nd600 C602 2.836 . S
Nd600 O620 2.500 . S
Nd600 O621 2.492 . S
Nd600 O622 2.487 . S
Nd600 O623 2.682 . S
Nd600 O624 2.410 . S
Nd600 O629 2.414 . S
Nd600 O631 2.424 . S
Nd601 C611 2.836 . S
Nd601 O623 2.414 . S
Nd601 O625 2.424 . S
Nd601 O626 2.500 . S
Nd601 O627 2.492 . S
Nd601 O628 2.487 . S
Nd601 O629 2.682 . S
Nd601 O630 2.410 . S
C602 Nd600 2.836 . S
C602 C603 1.498 . S
C602 O620 1.258 . S
C602 O621 1.239 . S
C603 C602 1.498 . S
C603 C604 1.366 . S
C603 C608 1.407 . S
C604 C603 1.366 . S
C604 C605 1.392 . S
C604 H632 0.930 . S
C605 C604 1.392 . S
C605 C606 1.398 . S
C605 H633 0.929 . S
C606 C605 1.398 . S
C606 C607 1.352 . S
C607 C606 1.352 . S
C607 C608 1.384 . S
C607 H634 0.930 . S
C608 C603 1.407 . S
C608 C607 1.384 . S
C608 H635 0.929 . S
C609 O622 1.241 . S
C609 O623 1.273 . S
C610 O624 1.251 . S
C610 O625 1.268 . S
C611 Nd601 2.836 . S
C611 C612 1.498 . S
C611 O626 1.258 . S
C611 O627 1.239 . S
C612 C611 1.498 . S
C612 C613 1.366 . S
C612 C617 1.407 . S
C613 C612 1.366 . S
C613 C614 1.392 . S
C613 H636 0.930 . S
C614 C613 1.392 . S
C614 C615 1.398 . S
C614 H637 0.929 . S
C615 C614 1.398 . S
C615 C616 1.352 . S
C616 C615 1.352 . S
C616 C617 1.384 . S
C616 H638 0.930 . S
C617 C612 1.407 . S
C617 C616 1.384 . S
C617 H639 0.929 . S
C618 O628 1.241 . S
C618 O629 1.273 . S
C619 O630 1.251 . S
C619 O631 1.268 . S
O620 Nd600 2.500 . S
O620 C602 1.258 . S
O621 Nd600 2.492 . S
O621 C602 1.239 . S
O622 Nd600 2.487 . S
O622 C609 1.241 . S
O623 Nd600 2.682 . S
O623 Nd601 2.414 . S
O623 C609 1.273 . S
O624 Nd600 2.410 . S
O624 C610 1.251 . S
O625 Nd601 2.424 . S
O625 C610 1.268 . S
O626 Nd601 2.500 . S
O626 C611 1.258 . S
O627 Nd601 2.492 . S
O627 C611 1.239 . S
O628 Nd601 2.487 . S
O628 C618 1.241 . S
O629 Nd600 2.414 . S
O629 Nd601 2.682 . S
O629 C618 1.273 . S
O630 Nd601 2.410 . S
O630 C619 1.251 . S
O631 Nd600 2.424 . S
O631 C619 1.268 . S
H632 C604 0.930 . S
H633 C605 0.929 . S
H634 C607 0.930 . S
H635 C608 0.929 . S
H636 C613 0.930 . S
H637 C614 0.929 . S
H638 C616 0.930 . S
H639 C617 0.929 . S
Nd640 C642 2.836 . S
Nd640 O660 2.500 . S
Nd640 O661 2.492 . S
Nd640 O662 2.487 . S
Nd640 O663 2.682 . S
Nd640 O664 2.410 . S
Nd640 O669 2.414 . S
Nd640 O671 2.424 . S
Nd641 C651 2.836 . S
Nd641 O663 2.414 . S
Nd641 O665 2.424 . S
Nd641 O666 2.500 . S
Nd641 O667 2.492 . S
Nd641 O668 2.487 . S
Nd641 O669 2.682 . S
Nd641 O670 2.410 . S
C642 Nd640 2.836 . S
C642 C643 1.498 . S
C642 O660 1.258 . S
C642 O661 1.239 . S
C643 C642 1.498 . S
C643 C644 1.366 . S
C643 C648 1.407 . S
C644 C643 1.366 . S
C644 C645 1.392 . S
C644 H672 0.930 . S
C645 C644 1.392 . S
C645 C646 1.398 . S
C645 H673 0.929 . S
C646 C645 1.398 . S
C646 C647 1.352 . S
C647 C646 1.352 . S
C647 C648 1.384 . S
C647 H674 0.930 . S
C648 C643 1.407 . S
C648 C647 1.384 . S
C648 H675 0.929 . S
C649 O662 1.241 . S
C649 O663 1.273 . S
C650 O664 1.251 . S
C650 O665 1.268 . S
C651 Nd641 2.836 . S
C651 C652 1.498 . S
C651 O666 1.258 . S
C651 O667 1.239 . S
C652 C651 1.498 . S
C652 C653 1.366 . S
C652 C657 1.407 . S
C653 C652 1.366 . S
C653 C654 1.392 . S
C653 H676 0.930 . S
C654 C653 1.392 . S
C654 C655 1.398 . S
C654 H677 0.929 . S
C655 C654 1.398 . S
C655 C656 1.352 . S
C656 C655 1.352 . S
C656 C657 1.384 . S
C656 H678 0.930 . S
C657 C652 1.407 . S
C657 C656 1.384 . S
C657 H679 0.929 . S
C658 O668 1.241 . S
C658 O669 1.273 . S
C659 O670 1.251 . S
C659 O671 1.268 . S
O660 Nd640 2.500 . S
O660 C642 1.258 . S
O661 Nd640 2.492 . S
O661 C642 1.239 . S
O662 Nd640 2.487 . S
O662 C649 1.241 . S
O663 Nd640 2.682 . S
O663 Nd641 2.414 . S
O663 C649 1.273 . S
O664 Nd640 2.410 . S
O664 C650 1.251 . S
O665 Nd641 2.424 . S
O665 C650 1.268 . S
O666 Nd641 2.500 . S
O666 C651 1.258 . S
O667 Nd641 2.492 . S
O667 C651 1.239 . S
O668 Nd641 2.487 . S
O668 C658 1.241 . S
O669 Nd640 2.414 . S
O669 Nd641 2.682 . S
O669 C658 1.273 . S
O670 Nd641 2.410 . S
O670 C659 1.251 . S
O671 Nd640 2.424 . S
O671 C659 1.268 . S
H672 C644 0.930 . S
H673 C645 0.929 . S
H674 C647 0.930 . S
H675 C648 0.929 . S
H676 C653 0.930 . S
H677 C654 0.929 . S
H678 C656 0.930 . S
H679 C657 0.929 . S
Nd680 C682 2.836 . S
Nd680 O700 2.500 . S
Nd680 O701 2.492 . S
Nd680 O702 2.487 . S
Nd680 O703 2.682 . S
Nd680 O704 2.410 . S
Nd680 O709 2.414 . S
Nd680 O711 2.424 . S
Nd681 C691 2.836 . S
Nd681 O703 2.414 . S
Nd681 O705 2.424 . S
Nd681 O706 2.500 . S
Nd681 O707 2.492 . S
Nd681 O708 2.487 . S
Nd681 O709 2.682 . S
Nd681 O710 2.410 . S
C682 Nd680 2.836 . S
C682 C683 1.498 . S
C682 O700 1.258 . S
C682 O701 1.239 . S
C683 C682 1.498 . S
C683 C684 1.366 . S
C683 C688 1.407 . S
C684 C683 1.366 . S
C684 C685 1.392 . S
C684 H712 0.930 . S
C685 C684 1.392 . S
C685 C686 1.398 . S
C685 H713 0.929 . S
C686 C685 1.398 . S
C686 C687 1.352 . S
C687 C686 1.352 . S
C687 C688 1.384 . S
C687 H714 0.930 . S
C688 C683 1.407 . S
C688 C687 1.384 . S
C688 H715 0.929 . S
C689 O702 1.241 . S
C689 O703 1.273 . S
C690 O704 1.251 . S
C690 O705 1.268 . S
C691 Nd681 2.836 . S
C691 C692 1.498 . S
C691 O706 1.258 . S
C691 O707 1.239 . S
C692 C691 1.498 . S
C692 C693 1.366 . S
C692 C697 1.407 . S
C693 C692 1.366 . S
C693 C694 1.392 . S
C693 H716 0.930 . S
C694 C693 1.392 . S
C694 C695 1.398 . S
C694 H717 0.929 . S
C695 C694 1.398 . S
C695 C696 1.352 . S
C696 C695 1.352 . S
C696 C697 1.384 . S
C696 H718 0.930 . S
C697 C692 1.407 . S
C697 C696 1.384 . S
C697 H719 0.929 . S
C698 O708 1.241 . S
C698 O709 1.273 . S
C699 O710 1.251 . S
C699 O711 1.268 . S
O700 Nd680 2.500 . S
O700 C682 1.258 . S
O701 Nd680 2.492 . S
O701 C682 1.239 . S
O702 Nd680 2.487 . S
O702 C689 1.241 . S
O703 Nd680 2.682 . S
O703 Nd681 2.414 . S
O703 C689 1.273 . S
O704 Nd680 2.410 . S
O704 C690 1.251 . S
O705 Nd681 2.424 . S
O705 C690 1.268 . S
O706 Nd681 2.500 . S
O706 C691 1.258 . S
O707 Nd681 2.492 . S
O707 C691 1.239 . S
O708 Nd681 2.487 . S
O708 C698 1.241 . S
O709 Nd680 2.414 . S
O709 Nd681 2.682 . S
O709 C698 1.273 . S
O710 Nd681 2.410 . S
O710 C699 1.251 . S
O711 Nd680 2.424 . S
O711 C699 1.268 . S
H712 C684 0.930 . S
H713 C685 0.929 . S
H714 C687 0.930 . S
H715 C688 0.929 . S
H716 C693 0.930 . S
H717 C694 0.929 . S
H718 C696 0.930 . S
H719 C697 0.929 . S
Nd720 C722 2.836 . S
Nd720 O740 2.500 . S
Nd720 O741 2.492 . S
Nd720 O742 2.487 . S
Nd720 O743 2.682 . S
Nd720 O744 2.410 . S
Nd720 O749 2.414 . S
Nd720 O751 2.424 . S
Nd721 C731 2.836 . S
Nd721 O743 2.414 . S
Nd721 O745 2.424 . S
Nd721 O746 2.500 . S
Nd721 O747 2.492 . S
Nd721 O748 2.487 . S
Nd721 O749 2.682 . S
Nd721 O750 2.410 . S
C722 Nd720 2.836 . S
C722 C723 1.498 . S
C722 O740 1.258 . S
C722 O741 1.239 . S
C723 C722 1.498 . S
C723 C724 1.366 . S
C723 C728 1.407 . S
C724 C723 1.366 . S
C724 C725 1.392 . S
C724 H752 0.930 . S
C725 C724 1.392 . S
C725 C726 1.398 . S
C725 H753 0.929 . S
C726 C725 1.398 . S
C726 C727 1.352 . S
C727 C726 1.352 . S
C727 C728 1.384 . S
C727 H754 0.930 . S
C728 C723 1.407 . S
C728 C727 1.384 . S
C728 H755 0.929 . S
C729 O742 1.241 . S
C729 O743 1.273 . S
C730 O744 1.251 . S
C730 O745 1.268 . S
C731 Nd721 2.836 . S
C731 C732 1.498 . S
C731 O746 1.258 . S
C731 O747 1.239 . S
C732 C731 1.498 . S
C732 C733 1.366 . S
C732 C737 1.407 . S
C733 C732 1.366 . S
C733 C734 1.392 . S
C733 H756 0.930 . S
C734 C733 1.392 . S
C734 C735 1.398 . S
C734 H757 0.929 . S
C735 C734 1.398 . S
C735 C736 1.352 . S
C736 C735 1.352 . S
C736 C737 1.384 . S
C736 H758 0.930 . S
C737 C732 1.407 . S
C737 C736 1.384 . S
C737 H759 0.929 . S
C738 O748 1.241 . S
C738 O749 1.273 . S
C739 O750 1.251 . S
C739 O751 1.268 . S
O740 Nd720 2.500 . S
O740 C722 1.258 . S
O741 Nd720 2.492 . S
O741 C722 1.239 . S
O742 Nd720 2.487 . S
O742 C729 1.241 . S
O743 Nd720 2.682 . S
O743 Nd721 2.414 . S
O743 C729 1.273 . S
O744 Nd720 2.410 . S
O744 C730 1.251 . S
O745 Nd721 2.424 . S
O745 C730 1.268 . S
O746 Nd721 2.500 . S
O746 C731 1.258 . S
O747 Nd721 2.492 . S
O747 C731 1.239 . S
O748 Nd721 2.487 . S
O748 C738 1.241 . S
O749 Nd720 2.414 . S
O749 Nd721 2.682 . S
O749 C738 1.273 . S
O750 Nd721 2.410 . S
O750 C739 1.251 . S
O751 Nd720 2.424 . S
O751 C739 1.268 . S
H752 C724 0.930 . S
H753 C725 0.929 . S
H754 C727 0.930 . S
H755 C728 0.929 . S
H756 C733 0.930 . S
H757 C734 0.929 . S
H758 C736 0.930 . S
H759 C737 0.929 . S
Nd760 C762 2.836 . S
Nd760 O780 2.500 . S
Nd760 O781 2.492 . S
Nd760 O782 2.487 . S
Nd760 O783 2.682 . S
Nd760 O784 2.410 . S
Nd760 O789 2.414 . S
Nd760 O791 2.424 . S
Nd761 C771 2.836 . S
Nd761 O783 2.414 . S
Nd761 O785 2.424 . S
Nd761 O786 2.500 . S
Nd761 O787 2.492 . S
Nd761 O788 2.487 . S
Nd761 O789 2.682 . S
Nd761 O790 2.410 . S
C762 Nd760 2.836 . S
C762 C763 1.498 . S
C762 O780 1.258 . S
C762 O781 1.239 . S
C763 C762 1.498 . S
C763 C764 1.366 . S
C763 C768 1.407 . S
C764 C763 1.366 . S
C764 C765 1.392 . S
C764 H792 0.930 . S
C765 C764 1.392 . S
C765 C766 1.398 . S
C765 H793 0.929 . S
C766 C765 1.398 . S
C766 C767 1.352 . S
C767 C766 1.352 . S
C767 C768 1.384 . S
C767 H794 0.930 . S
C768 C763 1.407 . S
C768 C767 1.384 . S
C768 H795 0.929 . S
C769 O782 1.241 . S
C769 O783 1.273 . S
C770 O784 1.251 . S
C770 O785 1.268 . S
C771 Nd761 2.836 . S
C771 C772 1.498 . S
C771 O786 1.258 . S
C771 O787 1.239 . S
C772 C771 1.498 . S
C772 C773 1.366 . S
C772 C777 1.407 . S
C773 C772 1.366 . S
C773 C774 1.392 . S
C773 H796 0.930 . S
C774 C773 1.392 . S
C774 C775 1.398 . S
C774 H797 0.929 . S
C775 C774 1.398 . S
C775 C776 1.352 . S
C776 C775 1.352 . S
C776 C777 1.384 . S
C776 H798 0.930 . S
C777 C772 1.407 . S
C777 C776 1.384 . S
C777 H799 0.929 . S
C778 O788 1.241 . S
C778 O789 1.273 . S
C779 O790 1.251 . S
C779 O791 1.268 . S
O780 Nd760 2.500 . S
O780 C762 1.258 . S
O781 Nd760 2.492 . S
O781 C762 1.239 . S
O782 Nd760 2.487 . S
O782 C769 1.241 . S
O783 Nd760 2.682 . S
O783 Nd761 2.414 . S
O783 C769 1.273 . S
O784 Nd760 2.410 . S
O784 C770 1.251 . S
O785 Nd761 2.424 . S
O785 C770 1.268 . S
O786 Nd761 2.500 . S
O786 C771 1.258 . S
O787 Nd761 2.492 . S
O787 C771 1.239 . S
O788 Nd761 2.487 . S
O788 C778 1.241 . S
O789 Nd760 2.414 . S
O789 Nd761 2.682 . S
O789 C778 1.273 . S
O790 Nd761 2.410 . S
O790 C779 1.251 . S
O791 Nd760 2.424 . S
O791 C779 1.268 . S
H792 C764 0.930 . S
H793 C765 0.929 . S
H794 C767 0.930 . S
H795 C768 0.929 . S
H796 C773 0.930 . S
H797 C774 0.929 . S
H798 C776 0.930 . S
H799 C777 0.929 . S
Nd800 C802 2.836 . S
Nd800 O820 2.500 . S
Nd800 O821 2.492 . S
Nd800 O822 2.487 . S
Nd800 O823 2.682 . S
Nd800 O824 2.410 . S
Nd800 O829 2.414 . S
Nd800 O831 2.424 . S
Nd801 C811 2.836 . S
Nd801 O823 2.414 . S
Nd801 O825 2.424 . S
Nd801 O826 2.500 . S
Nd801 O827 2.492 . S
Nd801 O828 2.487 . S
Nd801 O829 2.682 . S
Nd801 O830 2.410 . S
C802 Nd800 2.836 . S
C802 C803 1.498 . S
C802 O820 1.258 . S
C802 O821 1.239 . S
C803 C802 1.498 . S
C803 C804 1.366 . S
C803 C808 1.407 . S
C804 C803 1.366 . S
C804 C805 1.392 . S
C804 H832 0.930 . S
C805 C804 1.392 . S
C805 C806 1.398 . S
C805 H833 0.929 . S
C806 C805 1.398 . S
C806 C807 1.352 . S
C807 C806 1.352 . S
C807 C808 1.384 . S
C807 H834 0.930 . S
C808 C803 1.407 . S
C808 C807 1.384 . S
C808 H835 0.929 . S
C809 O822 1.241 . S
C809 O823 1.273 . S
C810 O824 1.251 . S
C810 O825 1.268 . S
C811 Nd801 2.836 . S
C811 C812 1.498 . S
C811 O826 1.258 . S
C811 O827 1.239 . S
C812 C811 1.498 . S
C812 C813 1.366 . S
C812 C817 1.407 . S
C813 C812 1.366 . S
C813 C814 1.392 . S
C813 H836 0.930 . S
C814 C813 1.392 . S
C814 C815 1.398 . S
C814 H837 0.929 . S
C815 C814 1.398 . S
C815 C816 1.352 . S
C816 C815 1.352 . S
C816 C817 1.384 . S
C816 H838 0.930 . S
C817 C812 1.407 . S
C817 C816 1.384 . S
C817 H839 0.929 . S
C818 O828 1.241 . S
C818 O829 1.273 . S
C819 O830 1.251 . S
C819 O831 1.268 . S
O820 Nd800 2.500 . S
O820 C802 1.258 . S
O821 Nd800 2.492 . S
O821 C802 1.239 . S
O822 Nd800 2.487 . S
O822 C809 1.241 . S
O823 Nd800 2.682 . S
O823 Nd801 2.414 . S
O823 C809 1.273 . S
O824 Nd800 2.410 . S
O824 C810 1.251 . S
O825 Nd801 2.424 . S
O825 C810 1.268 . S
O826 Nd801 2.500 . S
O826 C811 1.258 . S
O827 Nd801 2.492 . S
O827 C811 1.239 . S
O828 Nd801 2.487 . S
O828 C818 1.241 . S
O829 Nd800 2.414 . S
O829 Nd801 2.682 . S
O829 C818 1.273 . S
O830 Nd801 2.410 . S
O830 C819 1.251 . S
O831 Nd800 2.424 . S
O831 C819 1.268 . S
H832 C804 0.930 . S
H833 C805 0.929 . S
H834 C807 0.930 . S
H835 C808 0.929 . S
H836 C813 0.930 . S
H837 C814 0.929 . S
H838 C816 0.930 . S
H839 C817 0.929 . S
Nd840 C842 2.836 . S
Nd840 O860 2.500 . S
Nd840 O861 2.492 . S
Nd840 O862 2.487 . S
Nd840 O863 2.682 . S
Nd840 O864 2.410 . S
Nd840 O869 2.414 . S
Nd840 O871 2.424 . S
Nd841 C851 2.836 . S
Nd841 O863 2.414 . S
Nd841 O865 2.424 . S
Nd841 O866 2.500 . S
Nd841 O867 2.492 . S
Nd841 O868 2.487 . S
Nd841 O869 2.682 . S
Nd841 O870 2.410 . S
C842 Nd840 2.836 . S
C842 C843 1.498 . S
C842 O860 1.258 . S
C842 O861 1.239 . S
C843 C842 1.498 . S
C843 C844 1.366 . S
C843 C848 1.407 . S
C844 C843 1.366 . S
C844 C845 1.392 . S
C844 H872 0.930 . S
C845 C844 1.392 . S
C845 C846 1.398 . S
C845 H873 0.929 . S
C846 C845 1.398 . S
C846 C847 1.352 . S
C847 C846 1.352 . S
C847 C848 1.384 . S
C847 H874 0.930 . S
C848 C843 1.407 . S
C848 C847 1.384 . S
C848 H875 0.929 . S
C849 O862 1.241 . S
C849 O863 1.273 . S
C850 O864 1.251 . S
C850 O865 1.268 . S
C851 Nd841 2.836 . S
C851 C852 1.498 . S
C851 O866 1.258 . S
C851 O867 1.239 . S
C852 C851 1.498 . S
C852 C853 1.366 . S
C852 C857 1.407 . S
C853 C852 1.366 . S
C853 C854 1.392 1_545 S
C853 H876 0.930 . S
C854 C853 1.392 1_565 S
C854 C855 1.398 . S
C854 H877 0.929 . S
C855 C854 1.398 . S
C855 C856 1.352 1_566 S
C856 C855 1.352 1_544 S
C856 C857 1.384 1_554 S
C856 H878 0.913 1_545 S
C857 C852 1.407 . S
C857 C856 1.384 1_556 S
C857 H879 0.929 1_556 S
C858 O868 1.241 . S
C858 O869 1.273 . S
C859 O870 1.251 . S
C859 O871 1.268 . S
O860 Nd840 2.500 . S
O860 C842 1.258 . S
O861 Nd840 2.492 . S
O861 C842 1.239 . S
O862 Nd840 2.487 . S
O862 C849 1.241 . S
O863 Nd840 2.682 . S
O863 Nd841 2.414 . S
O863 C849 1.273 . S
O864 Nd840 2.410 . S
O864 C850 1.251 . S
O865 Nd841 2.424 . S
O865 C850 1.268 . S
O866 Nd841 2.500 . S
O866 C851 1.258 . S
O867 Nd841 2.492 . S
O867 C851 1.239 . S
O868 Nd841 2.487 . S
O868 C858 1.241 . S
O869 Nd840 2.414 . S
O869 Nd841 2.682 . S
O869 C858 1.273 . S
O870 Nd841 2.410 . S
O870 C859 1.251 . S
O871 Nd840 2.424 . S
O871 C859 1.268 . S
H872 C844 0.930 . S
H873 C845 0.929 . S
H874 C847 0.930 . S
H875 C848 0.929 . S
H876 C853 0.930 . S
H877 C854 0.929 . S
H878 C856 0.913 1_565 S
H879 C857 0.929 1_554 S
Nd880 C882 2.836 . S
Nd880 O900 2.500 . S
Nd880 O901 2.492 . S
Nd880 O902 2.487 . S
Nd880 O903 2.682 . S
Nd880 O904 2.410 . S
Nd880 O909 2.414 . S
Nd880 O911 2.424 . S
Nd881 C891 2.836 . S
Nd881 O903 2.414 . S
Nd881 O905 2.424 . S
Nd881 O906 2.500 . S
Nd881 O907 2.492 . S
Nd881 O908 2.487 . S
Nd881 O909 2.682 . S
Nd881 O910 2.410 . S
C882 Nd880 2.836 . S
C882 C883 1.498 . S
C882 O900 1.258 . S
C882 O901 1.239 . S
C883 C882 1.498 . S
C883 C884 1.366 . S
C883 C888 1.407 . S
C884 C883 1.366 . S
C884 C885 1.392 . S
C884 H912 0.930 . S
C885 C884 1.392 . S
C885 C886 1.398 . S
C885 H913 0.929 . S
C886 C885 1.398 . S
C886 C887 1.352 . S
C887 C886 1.352 . S
C887 C888 1.384 . S
C887 H914 0.930 . S
C888 C883 1.407 . S
C888 C887 1.384 . S
C888 H915 0.929 . S
C889 O902 1.241 . S
C889 O903 1.273 . S
C890 O904 1.251 . S
C890 O905 1.268 . S
C891 Nd881 2.836 . S
C891 C892 1.498 . S
C891 O906 1.258 . S
C891 O907 1.239 . S
C892 C891 1.498 . S
C892 C893 1.366 . S
C892 C897 1.407 . S
C893 C892 1.366 . S
C893 C894 1.392 1_655 S
C893 H916 0.930 . S
C894 C893 1.392 1_455 S
C894 C895 1.398 . S
C894 H917 0.929 . S
C895 C894 1.398 . S
C895 C896 1.352 1_456 S
C896 C895 1.352 1_654 S
C896 C897 1.384 1_554 S
C896 H918 0.931 1_655 S
C897 C892 1.407 . S
C897 C896 1.384 1_556 S
C897 H919 0.929 1_556 S
C898 O908 1.241 . S
C898 O909 1.273 . S
C899 O910 1.251 . S
C899 O911 1.268 . S
O900 Nd880 2.500 . S
O900 C882 1.258 . S
O901 Nd880 2.492 . S
O901 C882 1.239 . S
O902 Nd880 2.487 . S
O902 C889 1.241 . S
O903 Nd880 2.682 . S
O903 Nd881 2.414 . S
O903 C889 1.273 . S
O904 Nd880 2.410 . S
O904 C890 1.251 . S
O905 Nd881 2.424 . S
O905 C890 1.268 . S
O906 Nd881 2.500 . S
O906 C891 1.258 . S
O907 Nd881 2.492 . S
O907 C891 1.239 . S
O908 Nd881 2.487 . S
O908 C898 1.241 . S
O909 Nd880 2.414 . S
O909 Nd881 2.682 . S
O909 C898 1.273 . S
O910 Nd881 2.410 . S
O910 C899 1.251 . S
O911 Nd880 2.424 . S
O911 C899 1.268 . S
H912 C884 0.930 . S
H913 C885 0.929 . S
H914 C887 0.930 . S
H915 C888 0.929 . S
H916 C893 0.930 . S
H917 C894 0.929 . S
H918 C896 0.931 1_455 S
H919 C897 0.929 1_554 S
Nd920 C922 2.836 . S
Nd920 O940 2.500 . S
Nd920 O941 2.492 . S
Nd920 O942 2.487 . S
Nd920 O943 2.682 . S
Nd920 O944 2.410 . S
Nd920 O949 2.414 . S
Nd920 O951 2.424 . S
Nd921 C931 2.836 . S
Nd921 O943 2.414 . S
Nd921 O945 2.424 . S
Nd921 O946 2.500 . S
Nd921 O947 2.492 . S
Nd921 O948 2.487 . S
Nd921 O949 2.682 . S
Nd921 O950 2.410 . S
C922 Nd920 2.836 . S
C922 C923 1.498 . S
C922 O940 1.258 . S
C922 O941 1.239 . S
C923 C922 1.498 . S
C923 C924 1.366 . S
C923 C928 1.407 . S
C924 C923 1.366 . S
C924 C925 1.392 . S
C924 H952 0.930 . S
C925 C924 1.392 . S
C925 C926 1.398 . S
C925 H953 0.929 . S
C926 C925 1.398 . S
C926 C927 1.352 . S
C927 C926 1.352 . S
C927 C928 1.384 . S
C927 H954 0.930 . S
C928 C923 1.407 . S
C928 C927 1.384 . S
C928 H955 0.929 . S
C929 O942 1.241 . S
C929 O943 1.273 . S
C930 O944 1.251 . S
C930 O945 1.268 . S
C931 Nd921 2.836 . S
C931 C932 1.498 . S
C931 O946 1.258 . S
C931 O947 1.239 . S
C932 C931 1.498 . S
C932 C933 1.366 . S
C932 C937 1.407 . S
C933 C932 1.366 . S
C933 C934 1.392 . S
C933 H956 0.930 . S
C934 C933 1.392 . S
C934 C935 1.398 . S
C934 H957 0.929 . S
C935 C934 1.398 . S
C935 C936 1.352 1_556 S
C936 C935 1.352 1_554 S
C936 C937 1.384 1_554 S
C936 H958 0.930 . S
C937 C932 1.407 . S
C937 C936 1.384 1_556 S
C937 H959 0.929 1_556 S
C938 O948 1.241 . S
C938 O949 1.273 . S
C939 O950 1.251 . S
C939 O951 1.268 . S
O940 Nd920 2.500 . S
O940 C922 1.258 . S
O941 Nd920 2.492 . S
O941 C922 1.239 . S
O942 Nd920 2.487 . S
O942 C929 1.241 . S
O943 Nd920 2.682 . S
O943 Nd921 2.414 . S
O943 C929 1.273 . S
O944 Nd920 2.410 . S
O944 C930 1.251 . S
O945 Nd921 2.424 . S
O945 C930 1.268 . S
O946 Nd921 2.500 . S
O946 C931 1.258 . S
O947 Nd921 2.492 . S
O947 C931 1.239 . S
O948 Nd921 2.487 . S
O948 C938 1.241 . S
O949 Nd920 2.414 . S
O949 Nd921 2.682 . S
O949 C938 1.273 . S
O950 Nd921 2.410 . S
O950 C939 1.251 . S
O951 Nd920 2.424 . S
O951 C939 1.268 . S
H952 C924 0.930 . S
H953 C925 0.929 . S
H954 C927 0.930 . S
H955 C928 0.929 . S
H956 C933 0.930 . S
H957 C934 0.929 . S
H958 C936 0.930 . S
H959 C937 0.929 1_554 S
Nd960 C962 2.836 . S
Nd960 O980 2.500 . S
Nd960 O981 2.492 . S
Nd960 O982 2.487 . S
Nd960 O983 2.682 . S
Nd960 O984 2.410 . S
Nd960 O989 2.414 . S
Nd960 O991 2.424 . S
Nd961 C971 2.836 . S
Nd961 O983 2.414 . S
Nd961 O985 2.424 . S
Nd961 O986 2.500 . S
Nd961 O987 2.492 . S
Nd961 O988 2.487 . S
Nd961 O989 2.682 . S
Nd961 O990 2.410 . S
C962 Nd960 2.836 . S
C962 C963 1.498 . S
C962 O980 1.258 . S
C962 O981 1.239 . S
C963 C962 1.498 . S
C963 C964 1.366 . S
C963 C968 1.407 . S
C964 C963 1.366 . S
C964 C965 1.392 . S
C964 H992 0.930 . S
C965 C964 1.392 . S
C965 C966 1.398 . S
C965 H993 0.929 . S
C966 C965 1.398 . S
C966 C967 1.352 . S
C967 C966 1.352 . S
C967 C968 1.384 . S
C967 H994 0.930 . S
C968 C963 1.407 . S
C968 C967 1.384 . S
C968 H995 0.929 . S
C969 O982 1.241 . S
C969 O983 1.273 . S
C970 O984 1.251 . S
C970 O985 1.268 . S
C971 Nd961 2.836 . S
C971 C972 1.498 . S
C971 O986 1.258 . S
C971 O987 1.239 . S
C972 C971 1.498 . S
C972 C973 1.366 . S
C972 C977 1.407 . S
C973 C972 1.366 . S
C973 C974 1.392 . S
C973 H996 0.930 . S
C974 C973 1.392 . S
C974 C975 1.398 . S
C974 H997 0.929 . S
C975 C974 1.398 . S
C975 C976 1.352 . S
C976 C975 1.352 . S
C976 C977 1.384 . S
C976 H998 0.930 . S
C977 C972 1.407 . S
C977 C976 1.384 . S
C977 H999 0.929 . S
C978 O988 1.241 . S
C978 O989 1.273 . S
C979 O990 1.251 . S
C979 O991 1.268 . S
O980 Nd960 2.500 . S
O980 C962 1.258 . S
O981 Nd960 2.492 . S
O981 C962 1.239 . S
O982 Nd960 2.487 . S
O982 C969 1.241 . S
O983 Nd960 2.682 . S
O983 Nd961 2.414 . S
O983 C969 1.273 . S
O984 Nd960 2.410 . S
O984 C970 1.251 . S
O985 Nd961 2.424 . S
O985 C970 1.268 . S
O986 Nd961 2.500 . S
O986 C971 1.258 . S
O987 Nd961 2.492 . S
O987 C971 1.239 . S
O988 Nd961 2.487 . S
O988 C978 1.241 . S
O989 Nd960 2.414 . S
O989 Nd961 2.682 . S
O989 C978 1.273 . S
O990 Nd961 2.410 . S
O990 C979 1.251 . S
O991 Nd960 2.424 . S
O991 C979 1.268 . S
H992 C964 0.930 . S
H993 C965 0.929 . S
H994 C967 0.930 . S
H995 C968 0.929 . S
H996 C973 0.930 . S
H997 C974 0.929 . S
H998 C976 0.930 . S
H999 C977 0.929 . S
Nd1000 C1002 2.836 . S
Nd1000 O1020 2.500 . S
Nd1000 O1021 2.492 . S
Nd1000 O1022 2.487 . S
Nd1000 O1023 2.682 . S
Nd1000 O1024 2.410 . S
Nd1000 O1029 2.414 . S
Nd1000 O1031 2.424 . S
Nd1001 C1011 2.836 . S
Nd1001 O1023 2.414 . S
Nd1001 O1025 2.424 . S
Nd1001 O1026 2.500 . S
Nd1001 O1027 2.492 . S
Nd1001 O1028 2.487 . S
Nd1001 O1029 2.682 . S
Nd1001 O1030 2.410 . S
C1002 Nd1000 2.836 . S
C1002 C1003 1.498 . S
C1002 O1020 1.258 . S
C1002 O1021 1.239 . S
C1003 C1002 1.498 . S
C1003 C1004 1.366 . S
C1003 C1008 1.407 . S
C1004 C1003 1.366 . S
C1004 C1005 1.392 . S
C1004 H1032 0.930 . S
C1005 C1004 1.392 . S
C1005 C1006 1.398 . S
C1005 H1033 0.929 . S
C1006 C1005 1.398 . S
C1006 C1007 1.352 . S
C1007 C1006 1.352 . S
C1007 C1008 1.384 . S
C1007 H1034 0.930 . S
C1008 C1003 1.407 . S
C1008 C1007 1.384 . S
C1008 H1035 0.929 . S
C1009 O1022 1.241 . S
C1009 O1023 1.273 . S
C1010 O1024 1.251 . S
C1010 O1025 1.268 . S
C1011 Nd1001 2.836 . S
C1011 C1012 1.498 . S
C1011 O1026 1.258 . S
C1011 O1027 1.239 . S
C1012 C1011 1.498 . S
C1012 C1013 1.366 . S
C1012 C1017 1.407 . S
C1013 C1012 1.366 . S
C1013 C1014 1.392 . S
C1013 H1036 0.930 . S
C1014 C1013 1.392 . S
C1014 C1015 1.398 . S
C1014 H1037 0.929 . S
C1015 C1014 1.398 . S
C1015 C1016 1.352 . S
C1016 C1015 1.352 . S
C1016 C1017 1.384 . S
C1016 H1038 0.930 . S
C1017 C1012 1.407 . S
C1017 C1016 1.384 . S
C1017 H1039 0.929 . S
C1018 O1028 1.241 . S
C1018 O1029 1.273 . S
C1019 O1030 1.251 . S
C1019 O1031 1.268 . S
O1020 Nd1000 2.500 . S
O1020 C1002 1.258 . S
O1021 Nd1000 2.492 . S
O1021 C1002 1.239 . S
O1022 Nd1000 2.487 . S
O1022 C1009 1.241 . S
O1023 Nd1000 2.682 . S
O1023 Nd1001 2.414 . S
O1023 C1009 1.273 . S
O1024 Nd1000 2.410 . S
O1024 C1010 1.251 . S
O1025 Nd1001 2.424 . S
O1025 C1010 1.268 . S
O1026 Nd1001 2.500 . S
O1026 C1011 1.258 . S
O1027 Nd1001 2.492 . S
O1027 C1011 1.239 . S
O1028 Nd1001 2.487 . S
O1028 C1018 1.241 . S
O1029 Nd1000 2.414 . S
O1029 Nd1001 2.682 . S
O1029 C1018 1.273 . S
O1030 Nd1001 2.410 . S
O1030 C1019 1.251 . S
O1031 Nd1000 2.424 . S
O1031 C1019 1.268 . S
H1032 C1004 0.930 . S
H1033 C1005 0.929 . S
H1034 C1007 0.930 . S
H1035 C1008 0.929 . S
H1036 C1013 0.930 . S
H1037 C1014 0.929 . S
H1038 C1016 0.930 . S
H1039 C1017 0.929 . S
Nd1040 C1042 2.836 . S
Nd1040 O1060 2.500 . S
Nd1040 O1061 2.492 . S
Nd1040 O1062 2.487 . S
Nd1040 O1063 2.682 . S
Nd1040 O1064 2.410 . S
Nd1040 O1069 2.414 . S
Nd1040 O1071 2.424 . S
Nd1041 C1051 2.836 . S
Nd1041 O1063 2.414 . S
Nd1041 O1065 2.424 . S
Nd1041 O1066 2.500 . S
Nd1041 O1067 2.492 . S
Nd1041 O1068 2.487 . S
Nd1041 O1069 2.682 . S
Nd1041 O1070 2.410 . S
C1042 Nd1040 2.836 . S
C1042 C1043 1.498 . S
C1042 O1060 1.258 . S
C1042 O1061 1.239 . S
C1043 C1042 1.498 . S
C1043 C1044 1.366 . S
C1043 C1048 1.407 . S
C1044 C1043 1.366 . S
C1044 C1045 1.392 . S
C1044 H1072 0.930 . S
C1045 C1044 1.392 . S
C1045 C1046 1.398 . S
C1045 H1073 0.929 . S
C1046 C1045 1.398 . S
C1046 C1047 1.352 . S
C1047 C1046 1.352 . S
C1047 C1048 1.384 . S
C1047 H1074 0.930 . S
C1048 C1043 1.407 . S
C1048 C1047 1.384 . S
C1048 H1075 0.929 . S
C1049 O1062 1.241 . S
C1049 O1063 1.273 . S
C1050 O1064 1.251 . S
C1050 O1065 1.268 . S
C1051 Nd1041 2.836 . S
C1051 C1052 1.498 . S
C1051 O1066 1.258 . S
C1051 O1067 1.239 . S
C1052 C1051 1.498 . S
C1052 C1053 1.366 . S
C1052 C1057 1.407 . S
C1053 C1052 1.366 . S
C1053 C1054 1.392 . S
C1053 H1076 0.930 . S
C1054 C1053 1.392 . S
C1054 C1055 1.398 . S
C1054 H1077 0.929 . S
C1055 C1054 1.398 . S
C1055 C1056 1.352 . S
C1056 C1055 1.352 . S
C1056 C1057 1.384 . S
C1056 H1078 0.930 . S
C1057 C1052 1.407 . S
C1057 C1056 1.384 . S
C1057 H1079 0.929 . S
C1058 O1068 1.241 . S
C1058 O1069 1.273 . S
C1059 O1070 1.251 . S
C1059 O1071 1.268 . S
O1060 Nd1040 2.500 . S
O1060 C1042 1.258 . S
O1061 Nd1040 2.492 . S
O1061 C1042 1.239 . S
O1062 Nd1040 2.487 . S
O1062 C1049 1.241 . S
O1063 Nd1040 2.682 . S
O1063 Nd1041 2.414 . S
O1063 C1049 1.273 . S
O1064 Nd1040 2.410 . S
O1064 C1050 1.251 . S
O1065 Nd1041 2.424 . S
O1065 C1050 1.268 . S
O1066 Nd1041 2.500 . S
O1066 C1051 1.258 . S
O1067 Nd1041 2.492 . S
O1067 C1051 1.239 . S
O1068 Nd1041 2.487 . S
O1068 C1058 1.241 . S
O1069 Nd1040 2.414 . S
O1069 Nd1041 2.682 . S
O1069 C1058 1.273 . S
O1070 Nd1041 2.410 . S
O1070 C1059 1.251 . S
O1071 Nd1040 2.424 . S
O1071 C1059 1.268 . S
H1072 C1044 0.930 . S
H1073 C1045 0.929 . S
H1074 C1047 0.930 . S
H1075 C1048 0.929 . S
H1076 C1053 0.930 . S
H1077 C1054 0.929 . S
H1078 C1056 0.930 . S
H1079 C1057 0.929 . S
Nd1080 C1082 2.836 . S
Nd1080 O1100 2.500 . S
Nd1080 O1101 2.492 . S
Nd1080 O1102 2.487 . S
Nd1080 O1103 2.682 . S
Nd1080 O1104 2.410 . S
Nd1080 O1109 2.414 . S
Nd1080 O1111 2.424 . S
Nd1081 C1091 2.836 . S
Nd1081 O1103 2.414 . S
Nd1081 O1105 2.424 . S
Nd1081 O1106 2.500 . S
Nd1081 O1107 2.492 . S
Nd1081 O1108 2.487 . S
Nd1081 O1109 2.682 . S
Nd1081 O1110 2.410 . S
C1082 Nd1080 2.836 . S
C1082 C1083 1.498 . S
C1082 O1100 1.258 . S
C1082 O1101 1.239 . S
C1083 C1082 1.498 . S
C1083 C1084 1.366 . S
C1083 C1088 1.407 . S
C1084 C1083 1.366 . S
C1084 C1085 1.392 1_565 S
C1084 H1112 0.930 . S
C1085 C1084 1.392 1_545 S
C1085 C1086 1.398 . S
C1085 H1113 0.929 . S
C1086 C1085 1.398 . S
C1086 C1087 1.352 1_544 S
C1087 C1086 1.352 1_566 S
C1087 C1088 1.384 1_556 S
C1087 H1114 0.913 1_565 S
C1088 C1083 1.407 . S
C1088 C1087 1.384 1_554 S
C1088 H1115 0.929 1_554 S
C1089 O1102 1.241 . S
C1089 O1103 1.273 . S
C1090 O1104 1.251 . S
C1090 O1105 1.268 . S
C1091 Nd1081 2.836 . S
C1091 C1092 1.498 . S
C1091 O1106 1.258 . S
C1091 O1107 1.239 . S
C1092 C1091 1.498 . S
C1092 C1093 1.366 . S
C1092 C1097 1.407 . S
C1093 C1092 1.366 . S
C1093 C1094 1.392 . S
C1093 H1116 0.930 . S
C1094 C1093 1.392 . S
C1094 C1095 1.398 . S
C1094 H1117 0.929 . S
C1095 C1094 1.398 . S
C1095 C1096 1.352 . S
C1096 C1095 1.352 . S
C1096 C1097 1.384 . S
C1096 H1118 0.930 . S
C1097 C1092 1.407 . S
C1097 C1096 1.384 . S
C1097 H1119 0.929 . S
C1098 O1108 1.241 . S
C1098 O1109 1.273 . S
C1099 O1110 1.251 . S
C1099 O1111 1.268 . S
O1100 Nd1080 2.500 . S
O1100 C1082 1.258 . S
O1101 Nd1080 2.492 . S
O1101 C1082 1.239 . S
O1102 Nd1080 2.487 . S
O1102 C1089 1.241 . S
O1103 Nd1080 2.682 . S
O1103 Nd1081 2.414 . S
O1103 C1089 1.273 . S
O1104 Nd1080 2.410 . S
O1104 C1090 1.251 . S
O1105 Nd1081 2.424 . S
O1105 C1090 1.268 . S
O1106 Nd1081 2.500 . S
O1106 C1091 1.258 . S
O1107 Nd1081 2.492 . S
O1107 C1091 1.239 . S
O1108 Nd1081 2.487 . S
O1108 C1098 1.241 . S
O1109 Nd1080 2.414 . S
O1109 Nd1081 2.682 . S
O1109 C1098 1.273 . S
O1110 Nd1081 2.410 . S
O1110 C1099 1.251 . S
O1111 Nd1080 2.424 . S
O1111 C1099 1.268 . S
H1112 C1084 0.930 . S
H1113 C1085 0.929 . S
H1114 C1087 0.913 1_545 S
H1115 C1088 0.929 1_556 S
H1116 C1093 0.930 . S
H1117 C1094 0.929 . S
H1118 C1096 0.930 . S
H1119 C1097 0.929 . S
Nd1120 C1122 2.836 . S
Nd1120 O1140 2.500 . S
Nd1120 O1141 2.492 . S
Nd1120 O1142 2.487 . S
Nd1120 O1143 2.682 . S
Nd1120 O1144 2.410 . S
Nd1120 O1149 2.414 . S
Nd1120 O1151 2.424 . S
Nd1121 C1131 2.836 . S
Nd1121 O1143 2.414 . S
Nd1121 O1145 2.424 . S
Nd1121 O1146 2.500 . S
Nd1121 O1147 2.492 . S
Nd1121 O1148 2.487 . S
Nd1121 O1149 2.682 . S
Nd1121 O1150 2.410 . S
C1122 Nd1120 2.836 . S
C1122 C1123 1.498 . S
C1122 O1140 1.258 . S
C1122 O1141 1.239 . S
C1123 C1122 1.498 . S
C1123 C1124 1.366 . S
C1123 C1128 1.407 . S
C1124 C1123 1.366 . S
C1124 C1125 1.392 1_455 S
C1124 H1152 0.930 . S
C1125 C1124 1.392 1_655 S
C1125 C1126 1.398 . S
C1125 H1153 0.929 . S
C1126 C1125 1.398 . S
C1126 C1127 1.352 1_654 S
C1127 C1126 1.352 1_456 S
C1127 C1128 1.384 1_556 S
C1127 H1154 0.931 1_455 S
C1128 C1123 1.407 . S
C1128 C1127 1.384 1_554 S
C1128 H1155 0.929 1_554 S
C1129 O1142 1.241 . S
C1129 O1143 1.273 . S
C1130 O1144 1.251 . S
C1130 O1145 1.268 . S
C1131 Nd1121 2.836 . S
C1131 C1132 1.498 . S
C1131 O1146 1.258 . S
C1131 O1147 1.239 . S
C1132 C1131 1.498 . S
C1132 C1133 1.366 . S
C1132 C1137 1.407 . S
C1133 C1132 1.366 . S
C1133 C1134 1.392 . S
C1133 H1156 0.930 . S
C1134 C1133 1.392 . S
C1134 C1135 1.398 . S
C1134 H1157 0.929 . S
C1135 C1134 1.398 . S
C1135 C1136 1.352 . S
C1136 C1135 1.352 . S
C1136 C1137 1.384 . S
C1136 H1158 0.930 . S
C1137 C1132 1.407 . S
C1137 C1136 1.384 . S
C1137 H1159 0.929 . S
C1138 O1148 1.241 . S
C1138 O1149 1.273 . S
C1139 O1150 1.251 . S
C1139 O1151 1.268 . S
O1140 Nd1120 2.500 . S
O1140 C1122 1.258 . S
O1141 Nd1120 2.492 . S
O1141 C1122 1.239 . S
O1142 Nd1120 2.487 . S
O1142 C1129 1.241 . S
O1143 Nd1120 2.682 . S
O1143 Nd1121 2.414 . S
O1143 C1129 1.273 . S
O1144 Nd1120 2.410 . S
O1144 C1130 1.251 . S
O1145 Nd1121 2.424 . S
O1145 C1130 1.268 . S
O1146 Nd1121 2.500 . S
O1146 C1131 1.258 . S
O1147 Nd1121 2.492 . S
O1147 C1131 1.239 . S
O1148 Nd1121 2.487 . S
O1148 C1138 1.241 . S
O1149 Nd1120 2.414 . S
O1149 Nd1121 2.682 . S
O1149 C1138 1.273 . S
O1150 Nd1121 2.410 . S
O1150 C1139 1.251 . S
O1151 Nd1120 2.424 . S
O1151 C1139 1.268 . S
H1152 C1124 0.930 . S
H1153 C1125 0.929 . S
H1154 C1127 0.931 1_655 S
H1155 C1128 0.929 1_556 S
H1156 C1133 0.930 . S
H1157 C1134 0.929 . S
H1158 C1136 0.930 . S
H1159 C1137 0.929 . S
Nd1160 C1162 2.836 . S
Nd1160 O1180 2.500 . S
Nd1160 O1181 2.492 . S
Nd1160 O1182 2.487 . S
Nd1160 O1183 2.682 . S
Nd1160 O1184 2.410 . S
Nd1160 O1189 2.414 . S
Nd1160 O1191 2.424 . S
Nd1161 C1171 2.836 . S
Nd1161 O1183 2.414 . S
Nd1161 O1185 2.424 . S
Nd1161 O1186 2.500 . S
Nd1161 O1187 2.492 . S
Nd1161 O1188 2.487 . S
Nd1161 O1189 2.682 . S
Nd1161 O1190 2.410 . S
C1162 Nd1160 2.836 . S
C1162 C1163 1.498 . S
C1162 O1180 1.258 . S
C1162 O1181 1.239 . S
C1163 C1162 1.498 . S
C1163 C1164 1.366 . S
C1163 C1168 1.407 . S
C1164 C1163 1.366 . S
C1164 C1165 1.392 . S
C1164 H1192 0.930 . S
C1165 C1164 1.392 . S
C1165 C1166 1.398 . S
C1165 H1193 0.929 . S
C1166 C1165 1.398 . S
C1166 C1167 1.352 1_554 S
C1167 C1166 1.352 1_556 S
C1167 C1168 1.384 1_556 S
C1167 H1194 0.930 . S
C1168 C1163 1.407 . S
C1168 C1167 1.384 1_554 S
C1168 H1195 0.929 1_554 S
C1169 O1182 1.241 . S
C1169 O1183 1.273 . S
C1170 O1184 1.251 . S
C1170 O1185 1.268 . S
C1171 Nd1161 2.836 . S
C1171 C1172 1.498 . S
C1171 O1186 1.258 . S
C1171 O1187 1.239 . S
C1172 C1171 1.498 . S
C1172 C1173 1.366 . S
C1172 C1177 1.407 . S
C1173 C1172 1.366 . S
C1173 C1174 1.392 . S
C1173 H1196 0.930 . S
C1174 C1173 1.392 . S
C1174 C1175 1.398 . S
C1174 H1197 0.929 . S
C1175 C1174 1.398 . S
C1175 C1176 1.352 . S
C1176 C1175 1.352 . S
C1176 C1177 1.384 . S
C1176 H1198 0.930 . S
C1177 C1172 1.407 . S
C1177 C1176 1.384 . S
C1177 H1199 0.929 . S
C1178 O1188 1.241 . S
C1178 O1189 1.273 . S
C1179 O1190 1.251 . S
C1179 O1191 1.268 . S
O1180 Nd1160 2.500 . S
O1180 C1162 1.258 . S
O1181 Nd1160 2.492 . S
O1181 C1162 1.239 . S
O1182 Nd1160 2.487 . S
O1182 C1169 1.241 . S
O1183 Nd1160 2.682 . S
O1183 Nd1161 2.414 . S
O1183 C1169 1.273 . S
O1184 Nd1160 2.410 . S
O1184 C1170 1.251 . S
O1185 Nd1161 2.424 . S
O1185 C1170 1.268 . S
O1186 Nd1161 2.500 . S
O1186 C1171 1.258 . S
O1187 Nd1161 2.492 . S
O1187 C1171 1.239 . S
O1188 Nd1161 2.487 . S
O1188 C1178 1.241 . S
O1189 Nd1160 2.414 . S
O1189 Nd1161 2.682 . S
O1189 C1178 1.273 . S
O1190 Nd1161 2.410 . S
O1190 C1179 1.251 . S
O1191 Nd1160 2.424 . S
O1191 C1179 1.268 . S
H1192 C1164 0.930 . S
H1193 C1165 0.929 . S
H1194 C1167 0.930 . S
H1195 C1168 0.929 1_556 S
H1196 C1173 0.930 . S
H1197 C1174 0.929 . S
H1198 C1176 0.930 . S
H1199 C1177 0.929 . S
Nd1200 C1202 2.836 . S
Nd1200 O1220 2.500 . S
Nd1200 O1221 2.492 . S
Nd1200 O1222 2.487 . S
Nd1200 O1223 2.682 . S
Nd1200 O1224 2.410 . S
Nd1200 O1229 2.414 . S
Nd1200 O1231 2.424 . S
Nd1201 C1211 2.836 . S
Nd1201 O1223 2.414 . S
Nd1201 O1225 2.424 . S
Nd1201 O1226 2.500 . S
Nd1201 O1227 2.492 . S
Nd1201 O1228 2.487 . S
Nd1201 O1229 2.682 . S
Nd1201 O1230 2.410 . S
C1202 Nd1200 2.836 . S
C1202 C1203 1.498 . S
C1202 O1220 1.258 . S
C1202 O1221 1.239 . S
C1203 C1202 1.498 . S
C1203 C1204 1.366 . S
C1203 C1208 1.407 . S
C1204 C1203 1.366 . S
C1204 C1205 1.392 . S
C1204 H1232 0.930 . S
C1205 C1204 1.392 . S
C1205 C1206 1.398 . S
C1205 H1233 0.929 . S
C1206 C1205 1.398 . S
C1206 C1207 1.352 . S
C1207 C1206 1.352 . S
C1207 C1208 1.384 . S
C1207 H1234 0.930 . S
C1208 C1203 1.407 . S
C1208 C1207 1.384 . S
C1208 H1235 0.929 . S
C1209 O1222 1.241 . S
C1209 O1223 1.273 . S
C1210 O1224 1.251 . S
C1210 O1225 1.268 . S
C1211 Nd1201 2.836 . S
C1211 C1212 1.498 . S
C1211 O1226 1.258 . S
C1211 O1227 1.239 . S
C1212 C1211 1.498 . S
C1212 C1213 1.366 . S
C1212 C1217 1.407 . S
C1213 C1212 1.366 . S
C1213 C1214 1.392 1_455 S
C1213 H1236 0.930 . S
C1214 C1213 1.392 1_655 S
C1214 C1215 1.398 . S
C1214 H1237 0.929 . S
C1215 C1214 1.398 . S
C1215 C1216 1.352 1_655 S
C1216 C1215 1.352 1_455 S
C1216 C1217 1.384 . S
C1216 H1238 0.913 1_455 S
C1217 C1212 1.407 . S
C1217 C1216 1.384 . S
C1217 H1239 0.929 . S
C1218 O1228 1.241 . S
C1218 O1229 1.273 . S
C1219 O1230 1.251 . S
C1219 O1231 1.268 . S
O1220 Nd1200 2.500 . S
O1220 C1202 1.258 . S
O1221 Nd1200 2.492 . S
O1221 C1202 1.239 . S
O1222 Nd1200 2.487 . S
O1222 C1209 1.241 . S
O1223 Nd1200 2.682 . S
O1223 Nd1201 2.414 . S
O1223 C1209 1.273 . S
O1224 Nd1200 2.410 . S
O1224 C1210 1.251 . S
O1225 Nd1201 2.424 . S
O1225 C1210 1.268 . S
O1226 Nd1201 2.500 . S
O1226 C1211 1.258 . S
O1227 Nd1201 2.492 . S
O1227 C1211 1.239 . S
O1228 Nd1201 2.487 . S
O1228 C1218 1.241 . S
O1229 Nd1200 2.414 . S
O1229 Nd1201 2.682 . S
O1229 C1218 1.273 . S
O1230 Nd1201 2.410 . S
O1230 C1219 1.251 . S
O1231 Nd1200 2.424 . S
O1231 C1219 1.268 . S
H1232 C1204 0.930 . S
H1233 C1205 0.929 . S
H1234 C1207 0.930 . S
H1235 C1208 0.929 . S
H1236 C1213 0.930 . S
H1237 C1214 0.929 . S
H1238 C1216 0.913 1_655 S
H1239 C1217 0.929 . S
Nd1240 C1242 2.836 . S
Nd1240 O1260 2.500 . S
Nd1240 O1261 2.492 . S
Nd1240 O1262 2.487 . S
Nd1240 O1263 2.682 . S
Nd1240 O1264 2.410 . S
Nd1240 O1269 2.414 . S
Nd1240 O1271 2.424 . S
Nd1241 C1251 2.836 . S
Nd1241 O1263 2.414 . S
Nd1241 O1265 2.424 . S
Nd1241 O1266 2.500 . S
Nd1241 O1267 2.492 . S
Nd1241 O1268 2.487 . S
Nd1241 O1269 2.682 . S
Nd1241 O1270 2.410 . S
C1242 Nd1240 2.836 . S
C1242 C1243 1.498 . S
C1242 O1260 1.258 . S
C1242 O1261 1.239 . S
C1243 C1242 1.498 . S
C1243 C1244 1.366 . S
C1243 C1248 1.407 . S
C1244 C1243 1.366 . S
C1244 C1245 1.392 . S
C1244 H1272 0.930 . S
C1245 C1244 1.392 . S
C1245 C1246 1.398 . S
C1245 H1273 0.929 . S
C1246 C1245 1.398 . S
C1246 C1247 1.352 . S
C1247 C1246 1.352 . S
C1247 C1248 1.384 . S
C1247 H1274 0.930 . S
C1248 C1243 1.407 . S
C1248 C1247 1.384 . S
C1248 H1275 0.929 . S
C1249 O1262 1.241 . S
C1249 O1263 1.273 . S
C1250 O1264 1.251 . S
C1250 O1265 1.268 . S
C1251 Nd1241 2.836 . S
C1251 C1252 1.498 . S
C1251 O1266 1.258 . S
C1251 O1267 1.239 . S
C1252 C1251 1.498 . S
C1252 C1253 1.366 . S
C1252 C1257 1.407 . S
C1253 C1252 1.366 . S
C1253 C1254 1.392 . S
C1253 H1276 0.930 . S
C1254 C1253 1.392 . S
C1254 C1255 1.398 . S
C1254 H1277 0.929 . S
C1255 C1254 1.398 . S
C1255 C1256 1.352 . S
C1256 C1255 1.352 . S
C1256 C1257 1.384 . S
C1256 H1278 0.930 . S
C1257 C1252 1.407 . S
C1257 C1256 1.384 . S
C1257 H1279 0.929 . S
C1258 O1268 1.241 . S
C1258 O1269 1.273 . S
C1259 O1270 1.251 . S
C1259 O1271 1.268 . S
O1260 Nd1240 2.500 . S
O1260 C1242 1.258 . S
O1261 Nd1240 2.492 . S
O1261 C1242 1.239 . S
O1262 Nd1240 2.487 . S
O1262 C1249 1.241 . S
O1263 Nd1240 2.682 . S
O1263 Nd1241 2.414 . S
O1263 C1249 1.273 . S
O1264 Nd1240 2.410 . S
O1264 C1250 1.251 . S
O1265 Nd1241 2.424 . S
O1265 C1250 1.268 . S
O1266 Nd1241 2.500 . S
O1266 C1251 1.258 . S
O1267 Nd1241 2.492 . S
O1267 C1251 1.239 . S
O1268 Nd1241 2.487 . S
O1268 C1258 1.241 . S
O1269 Nd1240 2.414 . S
O1269 Nd1241 2.682 . S
O1269 C1258 1.273 . S
O1270 Nd1241 2.410 . S
O1270 C1259 1.251 . S
O1271 Nd1240 2.424 . S
O1271 C1259 1.268 . S
H1272 C1244 0.930 . S
H1273 C1245 0.929 . S
H1274 C1247 0.930 . S
H1275 C1248 0.929 . S
H1276 C1253 0.930 . S
H1277 C1254 0.929 . S
H1278 C1256 0.930 . S
H1279 C1257 0.929 . S
Nd1280 C1282 2.836 . S
Nd1280 O1300 2.500 . S
Nd1280 O1301 2.492 . S
Nd1280 O1302 2.487 . S
Nd1280 O1303 2.682 . S
Nd1280 O1304 2.410 . S
Nd1280 O1309 2.414 . S
Nd1280 O1311 2.424 . S
Nd1281 C1291 2.836 . S
Nd1281 O1303 2.414 . S
Nd1281 O1305 2.424 . S
Nd1281 O1306 2.500 . S
Nd1281 O1307 2.492 . S
Nd1281 O1308 2.487 . S
Nd1281 O1309 2.682 . S
Nd1281 O1310 2.410 . S
C1282 Nd1280 2.836 . S
C1282 C1283 1.498 . S
C1282 O1300 1.258 . S
C1282 O1301 1.239 . S
C1283 C1282 1.498 . S
C1283 C1284 1.366 . S
C1283 C1288 1.407 . S
C1284 C1283 1.366 . S
C1284 C1285 1.392 . S
C1284 H1312 0.930 . S
C1285 C1284 1.392 . S
C1285 C1286 1.398 . S
C1285 H1313 0.929 . S
C1286 C1285 1.398 . S
C1286 C1287 1.352 . S
C1287 C1286 1.352 . S
C1287 C1288 1.384 . S
C1287 H1314 0.930 . S
C1288 C1283 1.407 . S
C1288 C1287 1.384 . S
C1288 H1315 0.929 . S
C1289 O1302 1.241 . S
C1289 O1303 1.273 . S
C1290 O1304 1.251 . S
C1290 O1305 1.268 . S
C1291 Nd1281 2.836 . S
C1291 C1292 1.498 . S
C1291 O1306 1.258 . S
C1291 O1307 1.239 . S
C1292 C1291 1.498 . S
C1292 C1293 1.366 . S
C1292 C1297 1.407 . S
C1293 C1292 1.366 . S
C1293 C1294 1.392 1_565 S
C1293 H1316 0.930 . S
C1294 C1293 1.392 1_545 S
C1294 C1295 1.398 . S
C1294 H1317 0.929 . S
C1295 C1294 1.398 . S
C1295 C1296 1.352 1_545 S
C1296 C1295 1.352 1_565 S
C1296 C1297 1.384 . S
C1296 H1318 0.931 1_565 S
C1297 C1292 1.407 . S
C1297 C1296 1.384 . S
C1297 H1319 0.929 . S
C1298 O1308 1.241 . S
C1298 O1309 1.273 . S
C1299 O1310 1.251 . S
C1299 O1311 1.268 . S
O1300 Nd1280 2.500 . S
O1300 C1282 1.258 . S
O1301 Nd1280 2.492 . S
O1301 C1282 1.239 . S
O1302 Nd1280 2.487 . S
O1302 C1289 1.241 . S
O1303 Nd1280 2.682 . S
O1303 Nd1281 2.414 . S
O1303 C1289 1.273 . S
O1304 Nd1280 2.410 . S
O1304 C1290 1.251 . S
O1305 Nd1281 2.424 . S
O1305 C1290 1.268 . S
O1306 Nd1281 2.500 . S
O1306 C1291 1.258 . S
O1307 Nd1281 2.492 . S
O1307 C1291 1.239 . S
O1308 Nd1281 2.487 . S
O1308 C1298 1.241 . S
O1309 Nd1280 2.414 . S
O1309 Nd1281 2.682 . S
O1309 C1298 1.273 . S
O1310 Nd1281 2.410 . S
O1310 C1299 1.251 . S
O1311 Nd1280 2.424 . S
O1311 C1299 1.268 . S
H1312 C1284 0.930 . S
H1313 C1285 0.929 . S
H1314 C1287 0.930 . S
H1315 C1288 0.929 . S
H1316 C1293 0.930 . S
H1317 C1294 0.929 . S
H1318 C1296 0.931 1_545 S
H1319 C1297 0.929 . S
Nd1320 C1322 2.836 . S
Nd1320 O1340 2.500 . S
Nd1320 O1341 2.492 . S
Nd1320 O1342 2.487 . S
Nd1320 O1343 2.682 . S
Nd1320 O1344 2.410 . S
Nd1320 O1349 2.414 . S
Nd1320 O1351 2.424 . S
Nd1321 C1331 2.836 . S
Nd1321 O1343 2.414 . S
Nd1321 O1345 2.424 . S
Nd1321 O1346 2.500 . S
Nd1321 O1347 2.492 . S
Nd1321 O1348 2.487 . S
Nd1321 O1349 2.682 . S
Nd1321 O1350 2.410 . S
C1322 Nd1320 2.836 . S
C1322 C1323 1.498 . S
C1322 O1340 1.258 . S
C1322 O1341 1.239 . S
C1323 C1322 1.498 . S
C1323 C1324 1.366 . S
C1323 C1328 1.407 . S
C1324 C1323 1.366 . S
C1324 C1325 1.392 . S
C1324 H1352 0.930 . S
C1325 C1324 1.392 . S
C1325 C1326 1.398 . S
C1325 H1353 0.929 . S
C1326 C1325 1.398 . S
C1326 C1327 1.352 . S
C1327 C1326 1.352 . S
C1327 C1328 1.384 . S
C1327 H1354 0.930 . S
C1328 C1323 1.407 . S
C1328 C1327 1.384 . S
C1328 H1355 0.929 . S
C1329 O1342 1.241 . S
C1329 O1343 1.273 . S
C1330 O1344 1.251 . S
C1330 O1345 1.268 . S
C1331 Nd1321 2.836 . S
C1331 C1332 1.498 . S
C1331 O1346 1.258 . S
C1331 O1347 1.239 . S
C1332 C1331 1.498 . S
C1332 C1333 1.366 . S
C1332 C1337 1.407 . S
C1333 C1332 1.366 . S
C1333 C1334 1.392 . S
C1333 H1356 0.930 . S
C1334 C1333 1.392 . S
C1334 C1335 1.398 . S
C1334 H1357 0.929 . S
C1335 C1334 1.398 . S
C1335 C1336 1.352 . S
C1336 C1335 1.352 . S
C1336 C1337 1.384 . S
C1336 H1358 0.930 . S
C1337 C1332 1.407 . S
C1337 C1336 1.384 . S
C1337 H1359 0.929 . S
C1338 O1348 1.241 . S
C1338 O1349 1.273 . S
C1339 O1350 1.251 . S
C1339 O1351 1.268 . S
O1340 Nd1320 2.500 . S
O1340 C1322 1.258 . S
O1341 Nd1320 2.492 . S
O1341 C1322 1.239 . S
O1342 Nd1320 2.487 . S
O1342 C1329 1.241 . S
O1343 Nd1320 2.682 . S
O1343 Nd1321 2.414 . S
O1343 C1329 1.273 . S
O1344 Nd1320 2.410 . S
O1344 C1330 1.251 . S
O1345 Nd1321 2.424 . S
O1345 C1330 1.268 . S
O1346 Nd1321 2.500 . S
O1346 C1331 1.258 . S
O1347 Nd1321 2.492 . S
O1347 C1331 1.239 . S
O1348 Nd1321 2.487 . S
O1348 C1338 1.241 . S
O1349 Nd1320 2.414 . S
O1349 Nd1321 2.682 . S
O1349 C1338 1.273 . S
O1350 Nd1321 2.410 . S
O1350 C1339 1.251 . S
O1351 Nd1320 2.424 . S
O1351 C1339 1.268 . S
H1352 C1324 0.930 . S
H1353 C1325 0.929 . S
H1354 C1327 0.930 . S
H1355 C1328 0.929 . S
H1356 C1333 0.930 . S
H1357 C1334 0.929 . S
H1358 C1336 0.930 . S
H1359 C1337 0.929 . S
Nd1360 C1362 2.836 . S
Nd1360 O1380 2.500 . S
Nd1360 O1381 2.492 . S
Nd1360 O1382 2.487 . S
Nd1360 O1383 2.682 . S
Nd1360 O1384 2.410 . S
Nd1360 O1389 2.414 . S
Nd1360 O1391 2.424 . S
Nd1361 C1371 2.836 . S
Nd1361 O1383 2.414 . S
Nd1361 O1385 2.424 . S
Nd1361 O1386 2.500 . S
Nd1361 O1387 2.492 . S
Nd1361 O1388 2.487 . S
Nd1361 O1389 2.682 . S
Nd1361 O1390 2.410 . S
C1362 Nd1360 2.836 . S
C1362 C1363 1.498 . S
C1362 O1380 1.258 . S
C1362 O1381 1.239 . S
C1363 C1362 1.498 . S
C1363 C1364 1.366 . S
C1363 C1368 1.407 . S
C1364 C1363 1.366 . S
C1364 C1365 1.392 . S
C1364 H1392 0.930 . S
C1365 C1364 1.392 . S
C1365 C1366 1.398 . S
C1365 H1393 0.929 . S
C1366 C1365 1.398 . S
C1366 C1367 1.352 . S
C1367 C1366 1.352 . S
C1367 C1368 1.384 . S
C1367 H1394 0.930 . S
C1368 C1363 1.407 . S
C1368 C1367 1.384 . S
C1368 H1395 0.929 . S
C1369 O1382 1.241 . S
C1369 O1383 1.273 . S
C1370 O1384 1.251 . S
C1370 O1385 1.268 . S
C1371 Nd1361 2.836 . S
C1371 C1372 1.498 . S
C1371 O1386 1.258 . S
C1371 O1387 1.239 . S
C1372 C1371 1.498 . S
C1372 C1373 1.366 . S
C1372 C1377 1.407 . S
C1373 C1372 1.366 . S
C1373 C1374 1.392 . S
C1373 H1396 0.930 . S
C1374 C1373 1.392 . S
C1374 C1375 1.398 . S
C1374 H1397 0.929 . S
C1375 C1374 1.398 . S
C1375 C1376 1.352 . S
C1376 C1375 1.352 . S
C1376 C1377 1.384 . S
C1376 H1398 0.930 . S
C1377 C1372 1.407 . S
C1377 C1376 1.384 . S
C1377 H1399 0.929 . S
C1378 O1388 1.241 . S
C1378 O1389 1.273 . S
C1379 O1390 1.251 . S
C1379 O1391 1.268 . S
O1380 Nd1360 2.500 . S
O1380 C1362 1.258 . S
O1381 Nd1360 2.492 . S
O1381 C1362 1.239 . S
O1382 Nd1360 2.487 . S
O1382 C1369 1.241 . S
O1383 Nd1360 2.682 . S
O1383 Nd1361 2.414 . S
O1383 C1369 1.273 . S
O1384 Nd1360 2.410 . S
O1384 C1370 1.251 . S
O1385 Nd1361 2.424 . S
O1385 C1370 1.268 . S
O1386 Nd1361 2.500 . S
O1386 C1371 1.258 . S
O1387 Nd1361 2.492 . S
O1387 C1371 1.239 . S
O1388 Nd1361 2.487 . S
O1388 C1378 1.241 . S
O1389 Nd1360 2.414 . S
O1389 Nd1361 2.682 . S
O1389 C1378 1.273 . S
O1390 Nd1361 2.410 . S
O1390 C1379 1.251 . S
O1391 Nd1360 2.424 . S
O1391 C1379 1.268 . S
H1392 C1364 0.930 . S
H1393 C1365 0.929 . S
H1394 C1367 0.930 . S
H1395 C1368 0.929 . S
H1396 C1373 0.930 . S
H1397 C1374 0.929 . S
H1398 C1376 0.930 . S
H1399 C1377 0.929 . S
Nd1400 C1402 2.836 . S
Nd1400 O1420 2.500 . S
Nd1400 O1421 2.492 . S
Nd1400 O1422 2.487 . S
Nd1400 O1423 2.682 . S
Nd1400 O1424 2.410 . S
Nd1400 O1429 2.414 . S
Nd1400 O1431 2.424 . S
Nd1401 C1411 2.836 . S
Nd1401 O1423 2.414 . S
Nd1401 O1425 2.424 . S
Nd1401 O1426 2.500 . S
Nd1401 O1427 2.492 . S
Nd1401 O1428 2.487 . S
Nd1401 O1429 2.682 . S
Nd1401 O1430 2.410 . S
C1402 Nd1400 2.836 . S
C1402 C1403 1.498 . S
C1402 O1420 1.258 . S
C1402 O1421 1.239 . S
C1403 C1402 1.498 . S
C1403 C1404 1.366 . S
C1403 C1408 1.407 . S
C1404 C1403 1.366 . S
C1404 C1405 1.392 . S
C1404 H1432 0.930 . S
C1405 C1404 1.392 . S
C1405 C1406 1.398 . S
C1405 H1433 0.929 . S
C1406 C1405 1.398 . S
C1406 C1407 1.352 . S
C1407 C1406 1.352 . S
C1407 C1408 1.384 . S
C1407 H1434 0.930 . S
C1408 C1403 1.407 . S
C1408 C1407 1.384 . S
C1408 H1435 0.929 . S
C1409 O1422 1.241 . S
C1409 O1423 1.273 . S
C1410 O1424 1.251 . S
C1410 O1425 1.268 . S
C1411 Nd1401 2.836 . S
C1411 C1412 1.498 . S
C1411 O1426 1.258 . S
C1411 O1427 1.239 . S
C1412 C1411 1.498 . S
C1412 C1413 1.366 . S
C1412 C1417 1.407 . S
C1413 C1412 1.366 . S
C1413 C1414 1.392 . S
C1413 H1436 0.930 . S
C1414 C1413 1.392 . S
C1414 C1415 1.398 . S
C1414 H1437 0.929 . S
C1415 C1414 1.398 . S
C1415 C1416 1.352 . S
C1416 C1415 1.352 . S
C1416 C1417 1.384 . S
C1416 H1438 0.930 . S
C1417 C1412 1.407 . S
C1417 C1416 1.384 . S
C1417 H1439 0.929 . S
C1418 O1428 1.241 . S
C1418 O1429 1.273 . S
C1419 O1430 1.251 . S
C1419 O1431 1.268 . S
O1420 Nd1400 2.500 . S
O1420 C1402 1.258 . S
O1421 Nd1400 2.492 . S
O1421 C1402 1.239 . S
O1422 Nd1400 2.487 . S
O1422 C1409 1.241 . S
O1423 Nd1400 2.682 . S
O1423 Nd1401 2.414 . S
O1423 C1409 1.273 . S
O1424 Nd1400 2.410 . S
O1424 C1410 1.251 . S
O1425 Nd1401 2.424 . S
O1425 C1410 1.268 . S
O1426 Nd1401 2.500 . S
O1426 C1411 1.258 . S
O1427 Nd1401 2.492 . S
O1427 C1411 1.239 . S
O1428 Nd1401 2.487 . S
O1428 C1418 1.241 . S
O1429 Nd1400 2.414 . S
O1429 Nd1401 2.682 . S
O1429 C1418 1.273 . S
O1430 Nd1401 2.410 . S
O1430 C1419 1.251 . S
O1431 Nd1400 2.424 . S
O1431 C1419 1.268 . S
H1432 C1404 0.930 . S
H1433 C1405 0.929 . S
H1434 C1407 0.930 . S
H1435 C1408 0.929 . S
H1436 C1413 0.930 . S
H1437 C1414 0.929 . S
H1438 C1416 0.930 . S
H1439 C1417 0.929 . S
C1440 C1441 1.363 . S
C1440 C1446 1.379 . S
C1440 N1448 1.356 . S
C1441 C1440 1.363 . S
C1441 C1447 1.364 1_554 S
C1442 C1443 1.363 1_556 S
C1442 C1447 1.379 . S
C1442 N1449 1.356 . S
C1443 C1442 1.363 1_554 S
C1443 C1446 1.363 . S
N1444 C1446 1.356 . S
N1444 H1456 0.984 . S
N1444 H1457 0.985 . S
N1445 C1447 1.355 . S
N1445 H1450 0.984 . S
N1445 H1451 0.985 . S
C1446 C1440 1.379 . S
C1446 C1443 1.363 . S
C1446 N1444 1.356 . S
C1447 C1441 1.364 1_556 S
C1447 C1442 1.379 . S
C1447 N1445 1.355 . S
N1448 C1440 1.356 . S
N1448 H1454 0.984 . S
N1448 H1455 0.984 . S
N1449 C1442 1.356 . S
N1449 H1452 0.984 . S
N1449 H1453 0.985 . S
H1450 N1445 0.984 . S
H1451 N1445 0.985 . S
H1452 N1449 0.984 . S
H1453 N1449 0.985 . S
H1454 N1448 0.984 . S
H1455 N1448 0.984 . S
H1456 N1444 0.984 . S
H1457 N1444 0.985 . S
C1458 C1459 1.363 . S
C1458 C1464 1.379 . S
C1458 N1466 1.356 . S
C1459 C1458 1.363 . S
C1459 C1465 1.363 1_554 S
C1460 C1461 1.344 1_556 S
C1460 C1465 1.380 . S
C1460 N1467 1.370 . S
C1461 C1460 1.344 1_554 S
C1461 C1464 1.363 . S
N1462 C1464 1.356 . S
N1462 H1474 0.984 . S
N1462 H1475 0.985 . S
N1463 C1465 1.356 . S
N1463 H1468 0.984 . S
N1463 H1469 0.985 . S
C1464 C1458 1.379 . S
C1464 C1461 1.363 . S
C1464 N1462 1.356 . S
C1465 C1459 1.363 1_556 S
C1465 C1460 1.380 . S
C1465 N1463 1.356 . S
N1466 C1458 1.356 . S
N1466 H1472 0.984 . S
N1466 H1473 0.984 . S
N1467 C1460 1.370 . S
N1467 H1470 0.984 . S
N1467 H1471 0.985 . S
H1468 N1463 0.984 . S
H1469 N1463 0.985 . S
H1470 N1467 0.984 . S
H1471 N1467 0.985 . S
H1472 N1466 0.984 . S
H1473 N1466 0.984 . S
H1474 N1462 0.984 . S
H1475 N1462 0.985 . S
C1476 C1477 1.363 . S
C1476 C1482 1.379 . S
C1476 N1484 1.356 . S
C1477 C1476 1.363 . S
C1477 C1483 1.363 1_554 S
C1478 C1479 1.362 . S
C1478 C1483 1.379 1_554 S
C1478 N1485 1.357 1_554 S
C1479 C1478 1.362 . S
C1479 C1482 1.363 . S
N1480 C1482 1.356 . S
N1480 H1492 0.984 . S
N1480 H1493 0.985 . S
N1481 C1483 1.356 . S
N1481 H1486 0.984 . S
N1481 H1487 0.985 . S
C1482 C1476 1.379 . S
C1482 C1479 1.363 . S
C1482 N1480 1.356 . S
C1483 C1477 1.363 1_556 S
C1483 C1478 1.379 1_556 S
C1483 N1481 1.356 . S
N1484 C1476 1.356 . S
N1484 H1490 0.984 . S
N1484 H1491 0.984 . S
N1485 C1478 1.357 1_556 S
N1485 H1488 0.984 . S
N1485 H1489 0.985 . S
H1486 N1481 0.984 . S
H1487 N1481 0.985 . S
H1488 N1485 0.984 . S
H1489 N1485 0.985 . S
H1490 N1484 0.984 . S
H1491 N1484 0.984 . S
H1492 N1480 0.984 . S
H1493 N1480 0.985 . S
C1494 C1495 1.363 . S
C1494 C1500 1.379 . S
C1494 N1502 1.356 . S
C1495 C1494 1.363 . S
C1495 C1501 1.363 . S
C1496 C1497 1.363 . S
C1496 C1501 1.379 . S
C1496 N1503 1.356 . S
C1497 C1496 1.363 . S
C1497 C1500 1.363 . S
N1498 C1500 1.356 . S
N1498 H1510 0.984 . S
N1498 H1511 0.985 . S
N1499 C1501 1.356 . S
N1499 H1504 0.984 . S
N1499 H1505 0.985 . S
C1500 C1494 1.379 . S
C1500 C1497 1.363 . S
C1500 N1498 1.356 . S
C1501 C1495 1.363 . S
C1501 C1496 1.379 . S
C1501 N1499 1.356 . S
N1502 C1494 1.356 . S
N1502 H1508 0.984 . S
N1502 H1509 0.984 . S
N1503 C1496 1.356 . S
N1503 H1506 0.984 . S
N1503 H1507 0.985 . S
H1504 N1499 0.984 . S
H1505 N1499 0.985 . S
H1506 N1503 0.984 . S
H1507 N1503 0.985 . S
H1508 N1502 0.984 . S
H1509 N1502 0.984 . S
H1510 N1498 0.984 . S
H1511 N1498 0.985 . S
C1512 C1513 1.363 . S
C1512 C1518 1.379 . S
C1512 N1520 1.356 . S
C1513 C1512 1.363 . S
C1513 C1519 1.363 . S
C1514 C1515 1.363 . S
C1514 C1519 1.379 . S
C1514 N1521 1.356 . S
C1515 C1514 1.363 . S
C1515 C1518 1.363 . S
N1516 C1518 1.356 . S
N1516 H1528 0.984 . S
N1516 H1529 0.985 . S
N1517 C1519 1.356 . S
N1517 H1522 0.984 . S
N1517 H1523 0.985 . S
C1518 C1512 1.379 . S
C1518 C1515 1.363 . S
C1518 N1516 1.356 . S
C1519 C1513 1.363 . S
C1519 C1514 1.379 . S
C1519 N1517 1.356 . S
N1520 C1512 1.356 . S
N1520 H1526 0.984 . S
N1520 H1527 0.984 . S
N1521 C1514 1.356 . S
N1521 H1524 0.984 . S
N1521 H1525 0.985 . S
H1522 N1517 0.984 . S
H1523 N1517 0.985 . S
H1524 N1521 0.984 . S
H1525 N1521 0.985 . S
H1526 N1520 0.984 . S
H1527 N1520 0.984 . S
H1528 N1516 0.984 . S
H1529 N1516 0.985 . S
C1530 C1531 1.363 . S
C1530 C1536 1.379 . S
C1530 N1538 1.356 . S
C1531 C1530 1.363 . S
C1531 C1537 1.363 . S
C1532 C1533 1.363 . S
C1532 C1537 1.379 . S
C1532 N1539 1.356 . S
C1533 C1532 1.363 . S
C1533 C1536 1.363 . S
N1534 C1536 1.356 . S
N1534 H1546 0.984 . S
N1534 H1547 0.985 . S
N1535 C1537 1.356 . S
N1535 H1540 0.984 . S
N1535 H1541 0.985 . S
C1536 C1530 1.379 . S
C1536 C1533 1.363 . S
C1536 N1534 1.356 . S
C1537 C1531 1.363 . S
C1537 C1532 1.379 . S
C1537 N1535 1.356 . S
N1538 C1530 1.356 . S
N1538 H1544 0.984 . S
N1538 H1545 0.984 . S
N1539 C1532 1.356 . S
N1539 H1542 0.984 . S
N1539 H1543 0.985 . S
H1540 N1535 0.984 . S
H1541 N1535 0.985 . S
H1542 N1539 0.984 . S
H1543 N1539 0.985 . S
H1544 N1538 0.984 . S
H1545 N1538 0.984 . S
H1546 N1534 0.984 . S
H1547 N1534 0.985 . S
C1548 C1549 1.363 . S
C1548 C1554 1.379 . S
C1548 N1556 1.356 . S
C1549 C1548 1.363 . S
C1549 C1555 1.363 . S
C1550 C1551 1.363 . S
C1550 C1555 1.379 . S
C1550 N1557 1.356 . S
C1551 C1550 1.363 . S
C1551 C1554 1.363 . S
N1552 C1554 1.356 . S
N1552 H1564 0.984 1_556 S
N1552 H1565 0.985 . S
N1553 C1555 1.356 . S
N1553 H1558 0.984 . S
N1553 H1559 0.985 . S
C1554 C1548 1.379 . S
C1554 C1551 1.363 . S
C1554 N1552 1.356 . S
C1555 C1549 1.363 . S
C1555 C1550 1.379 . S
C1555 N1553 1.356 . S
N1556 C1548 1.356 . S
N1556 H1562 0.984 1_556 S
N1556 H1563 0.984 . S
N1557 C1550 1.356 . S
N1557 H1560 0.984 . S
N1557 H1561 0.985 . S
H1558 N1553 0.984 . S
H1559 N1553 0.985 . S
H1560 N1557 0.984 . S
H1561 N1557 0.985 . S
H1562 N1556 0.984 1_554 S
H1563 N1556 0.984 . S
H1564 N1552 0.984 1_554 S
H1565 N1552 0.985 . S
C1566 C1567 1.363 . S
C1566 C1572 1.379 . S
C1566 N1574 1.356 . S
C1567 C1566 1.363 . S
C1567 C1573 1.362 . S
C1568 C1569 1.363 1_554 S
C1568 C1573 1.379 1_554 S
C1568 N1575 1.356 . S
C1569 C1568 1.363 1_556 S
C1569 C1572 1.363 . S
N1570 C1572 1.356 . S
N1570 H1582 0.984 . S
N1570 H1583 0.985 . S
N1571 C1573 1.357 1_554 S
N1571 H1576 0.984 . S
N1571 H1577 0.985 . S
C1572 C1566 1.379 . S
C1572 C1569 1.363 . S
C1572 N1570 1.356 . S
C1573 C1567 1.362 . S
C1573 C1568 1.379 1_556 S
C1573 N1571 1.357 1_556 S
N1574 C1566 1.356 . S
N1574 H1580 0.984 . S
N1574 H1581 0.984 . S
N1575 C1568 1.356 . S
N1575 H1578 0.984 . S
N1575 H1579 0.985 . S
H1576 N1571 0.984 . S
H1577 N1571 0.985 . S
H1578 N1575 0.984 . S
H1579 N1575 0.985 . S
H1580 N1574 0.984 . S
H1581 N1574 0.984 . S
H1582 N1570 0.984 . S
H1583 N1570 0.985 . S
C1584 C1585 1.363 1_554 S
C1584 C1590 1.379 1_554 S
C1584 N1592 1.356 . S
C1585 C1584 1.363 1_556 S
C1585 C1591 1.363 . S
C1586 C1587 1.363 . S
C1586 C1591 1.379 . S
C1586 N1593 1.356 . S
C1587 C1586 1.363 . S
C1587 C1590 1.363 . S
N1588 C1590 1.356 1_554 S
N1588 H1600 0.984 . S
N1588 H1601 0.985 . S
N1589 C1591 1.356 . S
N1589 H1594 0.984 . S
N1589 H1595 0.985 . S
C1590 C1584 1.379 1_556 S
C1590 C1587 1.363 . S
C1590 N1588 1.356 1_556 S
C1591 C1585 1.363 . S
C1591 C1586 1.379 . S
C1591 N1589 1.356 . S
N1592 C1584 1.356 . S
N1592 H1598 0.984 . S
N1592 H1599 0.984 . S
N1593 C1586 1.356 . S
N1593 H1596 0.984 . S
N1593 H1597 0.985 . S
H1594 N1589 0.984 . S
H1595 N1589 0.985 . S
H1596 N1593 0.984 . S
H1597 N1593 0.985 . S
H1598 N1592 0.984 . S
H1599 N1592 0.984 . S
H1600 N1588 0.984 . S
H1601 N1588 0.985 . S
C1602 C1603 1.363 . S
C1602 C1608 1.379 . S
C1602 N1610 1.356 . S
C1603 C1602 1.363 . S
C1603 C1609 1.363 . S
C1604 C1605 1.363 . S
C1604 C1609 1.379 . S
C1604 N1611 1.356 . S
C1605 C1604 1.363 . S
C1605 C1608 1.363 . S
N1606 C1608 1.356 . S
N1606 H1618 0.984 . S
N1606 H1619 0.985 . S
N1607 C1609 1.356 . S
N1607 H1612 0.984 . S
N1607 H1613 0.985 . S
C1608 C1602 1.379 . S
C1608 C1605 1.363 . S
C1608 N1606 1.356 . S
C1609 C1603 1.363 . S
C1609 C1604 1.379 . S
C1609 N1607 1.356 . S
N1610 C1602 1.356 . S
N1610 H1616 0.984 . S
N1610 H1617 0.984 . S
N1611 C1604 1.356 . S
N1611 H1614 0.984 . S
N1611 H1615 0.985 . S
H1612 N1607 0.984 . S
H1613 N1607 0.985 . S
H1614 N1611 0.984 . S
H1615 N1611 0.985 . S
H1616 N1610 0.984 . S
H1617 N1610 0.984 . S
H1618 N1606 0.984 . S
H1619 N1606 0.985 . S
C1620 C1621 1.363 . S
C1620 C1626 1.379 . S
C1620 N1628 1.356 . S
C1621 C1620 1.363 . S
C1621 C1627 1.363 . S
C1622 C1623 1.363 . S
C1622 C1627 1.379 . S
C1622 N1629 1.356 . S
C1623 C1622 1.363 . S
C1623 C1626 1.363 . S
N1624 C1626 1.356 . S
N1624 H1636 0.984 . S
N1624 H1637 0.985 . S
N1625 C1627 1.356 . S
N1625 H1630 0.984 . S
N1625 H1631 0.985 . S
C1626 C1620 1.379 . S
C1626 C1623 1.363 . S
C1626 N1624 1.356 . S
C1627 C1621 1.363 . S
C1627 C1622 1.379 . S
C1627 N1625 1.356 . S
N1628 C1620 1.356 . S
N1628 H1634 0.984 . S
N1628 H1635 0.984 . S
N1629 C1622 1.356 . S
N1629 H1632 0.984 . S
N1629 H1633 0.985 . S
H1630 N1625 0.984 . S
H1631 N1625 0.985 . S
H1632 N1629 0.984 . S
H1633 N1629 0.985 . S
H1634 N1628 0.984 . S
H1635 N1628 0.984 . S
H1636 N1624 0.984 . S
H1637 N1624 0.985 . S
C1638 C1639 1.363 . S
C1638 C1644 1.379 . S
C1638 N1646 1.356 . S
C1639 C1638 1.363 . S
C1639 C1645 1.363 . S
C1640 C1641 1.363 . S
C1640 C1645 1.379 . S
C1640 N1647 1.356 . S
C1641 C1640 1.363 . S
C1641 C1644 1.363 . S
N1642 C1644 1.356 . S
N1642 H1654 0.984 . S
N1642 H1655 0.985 . S
N1643 C1645 1.356 . S
N1643 H1648 0.984 . S
N1643 H1649 0.985 . S
C1644 C1638 1.379 . S
C1644 C1641 1.363 . S
C1644 N1642 1.356 . S
C1645 C1639 1.363 . S
C1645 C1640 1.379 . S
C1645 N1643 1.356 . S
N1646 C1638 1.356 . S
N1646 H1652 0.984 . S
N1646 H1653 0.984 . S
N1647 C1640 1.356 . S
N1647 H1650 0.984 . S
N1647 H1651 0.985 . S
H1648 N1643 0.984 . S
H1649 N1643 0.985 . S
H1650 N1647 0.984 . S
H1651 N1647 0.985 . S
H1652 N1646 0.984 . S
H1653 N1646 0.984 . S
H1654 N1642 0.984 . S
H1655 N1642 0.985 . S
C1656 C1657 1.363 . S
C1656 C1662 1.379 . S
C1656 N1664 1.356 . S
C1657 C1656 1.363 . S
C1657 C1663 1.363 . S
C1658 C1659 1.363 . S
C1658 C1663 1.379 . S
C1658 N1665 1.356 . S
C1659 C1658 1.363 . S
C1659 C1662 1.363 . S
N1660 C1662 1.356 . S
N1660 H1672 0.984 . S
N1660 H1673 0.985 . S
N1661 C1663 1.356 . S
N1661 H1666 0.984 . S
N1661 H1667 0.985 . S
C1662 C1656 1.379 . S
C1662 C1659 1.363 . S
C1662 N1660 1.356 . S
C1663 C1657 1.363 . S
C1663 C1658 1.379 . S
C1663 N1661 1.356 . S
N1664 C1656 1.356 . S
N1664 H1670 0.984 . S
N1664 H1671 0.984 . S
N1665 C1658 1.356 . S
N1665 H1668 0.984 . S
N1665 H1669 0.985 . S
H1666 N1661 0.984 . S
H1667 N1661 0.985 . S
H1668 N1665 0.984 . S
H1669 N1665 0.985 . S
H1670 N1664 0.984 . S
H1671 N1664 0.984 . S
H1672 N1660 0.984 . S
H1673 N1660 0.985 . S
C1674 C1675 1.363 . S
C1674 C1680 1.379 . S
C1674 N1682 1.356 . S
C1675 C1674 1.363 . S
C1675 C1681 1.363 . S
C1676 C1677 1.363 . S
C1676 C1681 1.379 . S
C1676 N1683 1.356 . S
C1677 C1676 1.363 . S
C1677 C1680 1.363 . S
N1678 C1680 1.356 . S
N1678 H1690 0.984 . S
N1678 H1691 0.985 . S
N1679 C1681 1.356 . S
N1679 H1684 0.984 . S
N1679 H1685 0.985 . S
C1680 C1674 1.379 . S
C1680 C1677 1.363 . S
C1680 N1678 1.356 . S
C1681 C1675 1.363 . S
C1681 C1676 1.379 . S
C1681 N1679 1.356 . S
N1682 C1674 1.356 . S
N1682 H1688 0.984 . S
N1682 H1689 0.984 . S
N1683 C1676 1.356 . S
N1683 H1686 0.984 . S
N1683 H1687 0.985 . S
H1684 N1679 0.984 . S
H1685 N1679 0.985 . S
H1686 N1683 0.984 . S
H1687 N1683 0.985 . S
H1688 N1682 0.984 . S
H1689 N1682 0.984 . S
H1690 N1678 0.984 . S
H1691 N1678 0.985 . S
C1692 C1693 1.363 . S
C1692 C1698 1.379 . S
C1692 N1700 1.356 . S
C1693 C1692 1.363 . S
C1693 C1699 1.363 . S
C1694 C1695 1.363 . S
C1694 C1699 1.379 . S
C1694 N1701 1.356 . S
C1695 C1694 1.363 . S
C1695 C1698 1.363 . S
N1696 C1698 1.356 . S
N1696 H1708 0.984 . S
N1696 H1709 0.985 . S
N1697 C1699 1.356 . S
N1697 H1702 0.984 . S
N1697 H1703 0.985 . S
C1698 C1692 1.379 . S
C1698 C1695 1.363 . S
C1698 N1696 1.356 . S
C1699 C1693 1.363 . S
C1699 C1694 1.379 . S
C1699 N1697 1.356 . S
N1700 C1692 1.356 . S
N1700 H1706 0.984 . S
N1700 H1707 0.984 . S
N1701 C1694 1.356 . S
N1701 H1704 0.984 . S
N1701 H1705 0.985 . S
H1702 N1697 0.984 . S
H1703 N1697 0.985 . S
H1704 N1701 0.984 . S
H1705 N1701 0.985 . S
H1706 N1700 0.984 . S
H1707 N1700 0.984 . S
H1708 N1696 0.984 . S
H1709 N1696 0.985 . S
C1710 C1711 1.363 . S
C1710 C1716 1.379 . S
C1710 N1718 1.356 . S
C1711 C1710 1.363 . S
C1711 C1717 1.363 . S
C1712 C1713 1.363 . S
C1712 C1717 1.379 . S
C1712 N1719 1.356 . S
C1713 C1712 1.363 . S
C1713 C1716 1.363 . S
N1714 C1716 1.356 . S
N1714 H1726 0.984 . S
N1714 H1727 0.985 . S
N1715 C1717 1.356 . S
N1715 H1720 0.984 . S
N1715 H1721 0.985 . S
C1716 C1710 1.379 . S
C1716 C1713 1.363 . S
C1716 N1714 1.356 . S
C1717 C1711 1.363 . S
C1717 C1712 1.379 . S
C1717 N1715 1.356 . S
N1718 C1710 1.356 . S
N1718 H1724 0.984 . S
N1718 H1725 0.984 . S
N1719 C1712 1.356 . S
N1719 H1722 0.984 . S
N1719 H1723 0.985 . S
H1720 N1715 0.984 . S
H1721 N1715 0.985 . S
H1722 N1719 0.984 . S
H1723 N1719 0.985 . S
H1724 N1718 0.984 . S
H1725 N1718 0.984 . S
H1726 N1714 0.984 . S
H1727 N1714 0.985 . S
C1728 C1729 1.363 . S
C1728 C1734 1.379 . S
C1728 N1736 1.356 . S
C1729 C1728 1.363 . S
C1729 C1735 1.363 . S
C1730 C1731 1.363 . S
C1730 C1735 1.379 . S
C1730 N1737 1.356 . S
C1731 C1730 1.363 . S
C1731 C1734 1.363 . S
N1732 C1734 1.356 . S
N1732 H1744 0.984 . S
N1732 H1745 0.985 . S
N1733 C1735 1.356 . S
N1733 H1738 0.984 . S
N1733 H1739 0.985 . S
C1734 C1728 1.379 . S
C1734 C1731 1.363 . S
C1734 N1732 1.356 . S
C1735 C1729 1.363 . S
C1735 C1730 1.379 . S
C1735 N1733 1.356 . S
N1736 C1728 1.356 . S
N1736 H1742 0.984 . S
N1736 H1743 0.984 . S
N1737 C1730 1.356 . S
N1737 H1740 0.984 . S
N1737 H1741 0.985 . S
H1738 N1733 0.984 . S
H1739 N1733 0.985 . S
H1740 N1737 0.984 . S
H1741 N1737 0.985 . S
H1742 N1736 0.984 . S
H1743 N1736 0.984 . S
H1744 N1732 0.984 . S
H1745 N1732 0.985 . S
C1746 C1747 1.363 . S
C1746 C1752 1.379 . S
C1746 N1754 1.356 . S
C1747 C1746 1.363 . S
C1747 C1753 1.363 . S
C1748 C1749 1.363 . S
C1748 C1753 1.379 . S
C1748 N1755 1.356 . S
C1749 C1748 1.363 . S
C1749 C1752 1.363 . S
N1750 C1752 1.356 . S
N1750 H1762 0.984 . S
N1750 H1763 0.985 . S
N1751 C1753 1.356 . S
N1751 H1756 0.984 . S
N1751 H1757 0.985 . S
C1752 C1746 1.379 . S
C1752 C1749 1.363 . S
C1752 N1750 1.356 . S
C1753 C1747 1.363 . S
C1753 C1748 1.379 . S
C1753 N1751 1.356 . S
N1754 C1746 1.356 . S
N1754 H1760 0.984 . S
N1754 H1761 0.984 . S
N1755 C1748 1.356 . S
N1755 H1758 0.984 . S
N1755 H1759 0.985 . S
H1756 N1751 0.984 . S
H1757 N1751 0.985 . S
H1758 N1755 0.984 . S
H1759 N1755 0.985 . S
H1760 N1754 0.984 . S
H1761 N1754 0.984 . S
H1762 N1750 0.984 . S
H1763 N1750 0.985 . S
C1764 C1765 1.363 . S
C1764 C1770 1.379 . S
C1764 N1772 1.356 . S
C1765 C1764 1.363 . S
C1765 C1771 1.363 . S
C1766 C1767 1.363 . S
C1766 C1771 1.379 . S
C1766 N1773 1.356 . S
C1767 C1766 1.363 . S
C1767 C1770 1.363 . S
N1768 C1770 1.356 . S
N1768 H1780 0.984 . S
N1768 H1781 0.985 . S
N1769 C1771 1.356 . S
N1769 H1774 0.984 . S
N1769 H1775 0.985 . S
C1770 C1764 1.379 . S
C1770 C1767 1.363 . S
C1770 N1768 1.356 . S
C1771 C1765 1.363 . S
C1771 C1766 1.379 . S
C1771 N1769 1.356 . S
N1772 C1764 1.356 . S
N1772 H1778 0.984 . S
N1772 H1779 0.984 . S
N1773 C1766 1.356 . S
N1773 H1776 0.984 . S
N1773 H1777 0.985 . S
H1774 N1769 0.984 . S
H1775 N1769 0.985 . S
H1776 N1773 0.984 . S
H1777 N1773 0.985 . S
H1778 N1772 0.984 . S
H1779 N1772 0.984 . S
H1780 N1768 0.984 . S
H1781 N1768 0.985 . S
C1782 C1783 1.363 . S
C1782 C1788 1.379 . S
C1782 N1790 1.356 . S
C1783 C1782 1.363 . S
C1783 C1789 1.363 . S
C1784 C1785 1.363 . S
C1784 C1789 1.379 . S
C1784 N1791 1.356 . S
C1785 C1784 1.363 . S
C1785 C1788 1.363 . S
N1786 C1788 1.356 . S
N1786 H1798 0.984 . S
N1786 H1799 0.985 . S
N1787 C1789 1.356 . S
N1787 H1792 0.984 . S
N1787 H1793 0.985 . S
C1788 C1782 1.379 . S
C1788 C1785 1.363 . S
C1788 N1786 1.356 . S
C1789 C1783 1.363 . S
C1789 C1784 1.379 . S
C1789 N1787 1.356 . S
N1790 C1782 1.356 . S
N1790 H1796 0.984 . S
N1790 H1797 0.984 . S
N1791 C1784 1.356 . S
N1791 H1794 0.984 . S
N1791 H1795 0.985 . S
H1792 N1787 0.984 . S
H1793 N1787 0.985 . S
H1794 N1791 0.984 . S
H1795 N1791 0.985 . S
H1796 N1790 0.984 . S
H1797 N1790 0.984 . S
H1798 N1786 0.984 . S
H1799 N1786 0.985 . S
C1800 C1801 1.363 . S
C1800 C1806 1.379 . S
C1800 N1808 1.356 . S
C1801 C1800 1.363 . S
C1801 C1807 1.363 . S
C1802 C1803 1.363 . S
C1802 C1807 1.379 . S
C1802 N1809 1.356 . S
C1803 C1802 1.363 . S
C1803 C1806 1.363 . S
N1804 C1806 1.356 . S
N1804 H1816 0.984 . S
N1804 H1817 0.985 . S
N1805 C1807 1.356 . S
N1805 H1810 0.984 . S
N1805 H1811 0.985 . S
C1806 C1800 1.379 . S
C1806 C1803 1.363 . S
C1806 N1804 1.356 . S
C1807 C1801 1.363 . S
C1807 C1802 1.379 . S
C1807 N1805 1.356 . S
N1808 C1800 1.356 . S
N1808 H1814 0.984 . S
N1808 H1815 0.984 . S
N1809 C1802 1.356 . S
N1809 H1812 0.984 . S
N1809 H1813 0.985 . S
H1810 N1805 0.984 . S
H1811 N1805 0.985 . S
H1812 N1809 0.984 . S
H1813 N1809 0.985 . S
H1814 N1808 0.984 . S
H1815 N1808 0.984 . S
H1816 N1804 0.984 . S
H1817 N1804 0.985 . S
C1818 C1819 1.363 . S
C1818 C1824 1.379 . S
C1818 N1826 1.356 . S
C1819 C1818 1.363 . S
C1819 C1825 1.363 . S
C1820 C1821 1.363 . S
C1820 C1825 1.379 . S
C1820 N1827 1.356 . S
C1821 C1820 1.363 . S
C1821 C1824 1.363 . S
N1822 C1824 1.356 . S
N1822 H1834 0.984 . S
N1822 H1835 0.985 . S
N1823 C1825 1.356 . S
N1823 H1828 0.984 . S
N1823 H1829 0.985 . S
C1824 C1818 1.379 . S
C1824 C1821 1.363 . S
C1824 N1822 1.356 . S
C1825 C1819 1.363 . S
C1825 C1820 1.379 . S
C1825 N1823 1.356 . S
N1826 C1818 1.356 . S
N1826 H1832 0.984 . S
N1826 H1833 0.984 . S
N1827 C1820 1.356 . S
N1827 H1830 0.984 . S
N1827 H1831 0.985 . S
H1828 N1823 0.984 . S
H1829 N1823 0.985 . S
H1830 N1827 0.984 . S
H1831 N1827 0.985 . S
H1832 N1826 0.984 . S
H1833 N1826 0.984 . S
H1834 N1822 0.984 . S
H1835 N1822 0.985 . S
C1836 C1837 1.363 . S
C1836 C1842 1.379 . S
C1836 N1844 1.356 . S
C1837 C1836 1.363 . S
C1837 C1843 1.363 . S
C1838 C1839 1.363 . S
C1838 C1843 1.379 . S
C1838 N1845 1.356 . S
C1839 C1838 1.363 . S
C1839 C1842 1.363 . S
N1840 C1842 1.356 . S
N1840 H1852 0.984 . S
N1840 H1853 0.985 . S
N1841 C1843 1.356 . S
N1841 H1846 0.984 . S
N1841 H1847 0.985 . S
C1842 C1836 1.379 . S
C1842 C1839 1.363 . S
C1842 N1840 1.356 . S
C1843 C1837 1.363 . S
C1843 C1838 1.379 . S
C1843 N1841 1.356 . S
N1844 C1836 1.356 . S
N1844 H1850 0.984 . S
N1844 H1851 0.984 . S
N1845 C1838 1.356 . S
N1845 H1848 0.984 . S
N1845 H1849 0.985 . S
H1846 N1841 0.984 . S
H1847 N1841 0.985 . S
H1848 N1845 0.984 . S
H1849 N1845 0.985 . S
H1850 N1844 0.984 . S
H1851 N1844 0.984 . S
H1852 N1840 0.984 . S
H1853 N1840 0.985 . S
C1854 C1855 1.363 . S
C1854 C1860 1.379 . S
C1854 N1862 1.356 . S
C1855 C1854 1.363 . S
C1855 C1861 1.363 . S
C1856 C1857 1.363 . S
C1856 C1861 1.379 . S
C1856 N1863 1.356 . S
C1857 C1856 1.363 . S
C1857 C1860 1.363 . S
N1858 C1860 1.356 . S
N1858 H1870 0.984 . S
N1858 H1871 0.985 . S
N1859 C1861 1.356 . S
N1859 H1864 0.984 . S
N1859 H1865 0.985 . S
C1860 C1854 1.379 . S
C1860 C1857 1.363 . S
C1860 N1858 1.356 . S
C1861 C1855 1.363 . S
C1861 C1856 1.379 . S
C1861 N1859 1.356 . S
N1862 C1854 1.356 . S
N1862 H1868 0.984 . S
N1862 H1869 0.984 . S
N1863 C1856 1.356 . S
N1863 H1866 0.984 . S
N1863 H1867 0.985 . S
H1864 N1859 0.984 . S
H1865 N1859 0.985 . S
H1866 N1863 0.984 . S
H1867 N1863 0.985 . S
H1868 N1862 0.984 . S
H1869 N1862 0.984 . S
H1870 N1858 0.984 . S
H1871 N1858 0.985 . S
C1872 C1873 1.363 . S
C1872 C1878 1.379 . S
C1872 N1880 1.356 . S
C1873 C1872 1.363 . S
C1873 C1879 1.363 . S
C1874 C1875 1.363 . S
C1874 C1879 1.379 . S
C1874 N1881 1.356 . S
C1875 C1874 1.363 . S
C1875 C1878 1.363 . S
N1876 C1878 1.356 . S
N1876 H1888 0.984 . S
N1876 H1889 0.985 . S
N1877 C1879 1.356 . S
N1877 H1882 0.984 . S
N1877 H1883 0.985 . S
C1878 C1872 1.379 . S
C1878 C1875 1.363 . S
C1878 N1876 1.356 . S
C1879 C1873 1.363 . S
C1879 C1874 1.379 . S
C1879 N1877 1.356 . S
N1880 C1872 1.356 . S
N1880 H1886 0.984 . S
N1880 H1887 0.984 . S
N1881 C1874 1.356 . S
N1881 H1884 0.984 . S
N1881 H1885 0.985 . S
H1882 N1877 0.984 . S
H1883 N1877 0.985 . S
H1884 N1881 0.984 . S
H1885 N1881 0.985 . S
H1886 N1880 0.984 . S
H1887 N1880 0.984 . S
H1888 N1876 0.984 . S
H1889 N1876 0.985 . S
C1890 C1891 1.363 . S
C1890 C1896 1.379 . S
C1890 N1898 1.356 . S
C1891 C1890 1.363 . S
C1891 C1897 1.363 . S
C1892 C1893 1.363 . S
C1892 C1897 1.379 . S
C1892 N1899 1.356 . S
C1893 C1892 1.363 . S
C1893 C1896 1.363 . S
N1894 C1896 1.356 . S
N1894 H1906 0.984 . S
N1894 H1907 0.985 . S
N1895 C1897 1.356 . S
N1895 H1900 0.984 . S
N1895 H1901 0.985 . S
C1896 C1890 1.379 . S
C1896 C1893 1.363 . S
C1896 N1894 1.356 . S
C1897 C1891 1.363 . S
C1897 C1892 1.379 . S
C1897 N1895 1.356 . S
N1898 C1890 1.356 . S
N1898 H1904 0.984 . S
N1898 H1905 0.984 . S
N1899 C1892 1.356 . S
N1899 H1902 0.984 . S
N1899 H1903 0.985 . S
H1900 N1895 0.984 . S
H1901 N1895 0.985 . S
H1902 N1899 0.984 . S
H1903 N1899 0.985 . S
H1904 N1898 0.984 . S
H1905 N1898 0.984 . S
H1906 N1894 0.984 . S
H1907 N1894 0.985 . S
C1908 C1909 1.363 . S
C1908 C1914 1.379 . S
C1908 N1916 1.356 . S
C1909 C1908 1.363 . S
C1909 C1915 1.363 . S
C1910 C1911 1.363 . S
C1910 C1915 1.379 . S
C1910 N1917 1.356 . S
C1911 C1910 1.363 . S
C1911 C1914 1.363 . S
N1912 C1914 1.356 . S
N1912 H1924 0.984 . S
N1912 H1925 0.985 . S
N1913 C1915 1.356 . S
N1913 H1918 0.984 . S
N1913 H1919 0.985 . S
C1914 C1908 1.379 . S
C1914 C1911 1.363 . S
C1914 N1912 1.356 . S
C1915 C1909 1.363 . S
C1915 C1910 1.379 . S
C1915 N1913 1.356 . S
N1916 C1908 1.356 . S
N1916 H1922 0.984 . S
N1916 H1923 0.984 . S
N1917 C1910 1.356 . S
N1917 H1920 0.984 . S
N1917 H1921 0.985 . S
H1918 N1913 0.984 . S
H1919 N1913 0.985 . S
H1920 N1917 0.984 . S
H1921 N1917 0.985 . S
H1922 N1916 0.984 . S
H1923 N1916 0.984 . S
H1924 N1912 0.984 . S
H1925 N1912 0.985 . S
C1926 C1927 1.363 . S
C1926 C1932 1.379 . S
C1926 N1934 1.356 . S
C1927 C1926 1.363 . S
C1927 C1933 1.363 . S
C1928 C1929 1.363 . S
C1928 C1933 1.379 . S
C1928 N1935 1.356 . S
C1929 C1928 1.363 . S
C1929 C1932 1.363 . S
N1930 C1932 1.356 . S
N1930 H1942 0.984 . S
N1930 H1943 0.985 . S
N1931 C1933 1.356 . S
N1931 H1936 0.984 . S
N1931 H1937 0.985 . S
C1932 C1926 1.379 . S
C1932 C1929 1.363 . S
C1932 N1930 1.356 . S
C1933 C1927 1.363 . S
C1933 C1928 1.379 . S
C1933 N1931 1.356 . S
N1934 C1926 1.356 . S
N1934 H1940 0.984 . S
N1934 H1941 0.984 . S
N1935 C1928 1.356 . S
N1935 H1938 0.984 . S
N1935 H1939 0.985 . S
H1936 N1931 0.984 . S
H1937 N1931 0.985 . S
H1938 N1935 0.984 . S
H1939 N1935 0.985 . S
H1940 N1934 0.984 . S
H1941 N1934 0.984 . S
H1942 N1930 0.984 . S
H1943 N1930 0.985 . S
C1944 C1945 1.363 . S
C1944 C1950 1.379 . S
C1944 N1952 1.356 . S
C1945 C1944 1.363 . S
C1945 C1951 1.363 . S
C1946 C1947 1.363 . S
C1946 C1951 1.379 . S
C1946 N1953 1.356 . S
C1947 C1946 1.363 . S
C1947 C1950 1.363 . S
N1948 C1950 1.356 . S
N1948 H1960 0.984 . S
N1948 H1961 0.985 . S
N1949 C1951 1.356 . S
N1949 H1954 0.984 . S
N1949 H1955 0.985 . S
C1950 C1944 1.379 . S
C1950 C1947 1.363 . S
C1950 N1948 1.356 . S
C1951 C1945 1.363 . S
C1951 C1946 1.379 . S
C1951 N1949 1.356 . S
N1952 C1944 1.356 . S
N1952 H1958 0.984 . S
N1952 H1959 0.984 . S
N1953 C1946 1.356 . S
N1953 H1956 0.984 . S
N1953 H1957 0.985 . S
H1954 N1949 0.984 . S
H1955 N1949 0.985 . S
H1956 N1953 0.984 . S
H1957 N1953 0.985 . S
H1958 N1952 0.984 . S
H1959 N1952 0.984 . S
H1960 N1948 0.984 . S
H1961 N1948 0.985 . S
C1962 C1963 1.363 . S
C1962 C1968 1.379 . S
C1962 N1970 1.356 . S
C1963 C1962 1.363 . S
C1963 C1969 1.363 . S
C1964 C1965 1.363 . S
C1964 C1969 1.379 . S
C1964 N1971 1.356 . S
C1965 C1964 1.363 . S
C1965 C1968 1.363 . S
N1966 C1968 1.356 . S
N1966 H1978 0.984 . S
N1966 H1979 0.985 . S
N1967 C1969 1.356 . S
N1967 H1972 0.984 . S
N1967 H1973 0.985 . S
C1968 C1962 1.379 . S
C1968 C1965 1.363 . S
C1968 N1966 1.356 . S
C1969 C1963 1.363 . S
C1969 C1964 1.379 . S
C1969 N1967 1.356 . S
N1970 C1962 1.356 . S
N1970 H1976 0.984 . S
N1970 H1977 0.984 . S
N1971 C1964 1.356 . S
N1971 H1974 0.984 . S
N1971 H1975 0.985 . S
H1972 N1967 0.984 . S
H1973 N1967 0.985 . S
H1974 N1971 0.984 . S
H1975 N1971 0.985 . S
H1976 N1970 0.984 . S
H1977 N1970 0.984 . S
H1978 N1966 0.984 . S
H1979 N1966 0.985 . S
C1980 C1981 1.363 . S
C1980 C1986 1.379 . S
C1980 N1988 1.356 . S
C1981 C1980 1.363 . S
C1981 C1987 1.363 . S
C1982 C1983 1.363 . S
C1982 C1987 1.379 . S
C1982 N1989 1.356 . S
C1983 C1982 1.363 . S
C1983 C1986 1.363 . S
N1984 C1986 1.356 . S
N1984 H1996 0.984 . S
N1984 H1997 0.985 . S
N1985 C1987 1.356 . S
N1985 H1990 0.984 . S
N1985 H1991 0.985 . S
C1986 C1980 1.379 . S
C1986 C1983 1.363 . S
C1986 N1984 1.356 . S
C1987 C1981 1.363 . S
C1987 C1982 1.379 . S
C1987 N1985 1.356 . S
N1988 C1980 1.356 . S
N1988 H1994 0.984 . S
N1988 H1995 0.984 . S
N1989 C1982 1.356 . S
N1989 H1992 0.984 . S
N1989 H1993 0.985 . S
H1990 N1985 0.984 . S
H1991 N1985 0.985 . S
H1992 N1989 0.984 . S
H1993 N1989 0.985 . S
H1994 N1988 0.984 . S
H1995 N1988 0.984 . S
H1996 N1984 0.984 . S
H1997 N1984 0.985 . S
C1998 C1999 1.363 . S
C1998 C2004 1.379 . S
C1998 N2006 1.356 . S
C1999 C1998 1.363 . S
C1999 C2005 1.363 . S
C2000 C2001 1.363 . S
C2000 C2005 1.379 . S
C2000 N2007 1.356 . S
C2001 C2000 1.363 . S
C2001 C2004 1.363 . S
N2002 C2004 1.356 . S
N2002 H2014 0.984 . S
N2002 H2015 0.985 . S
N2003 C2005 1.356 . S
N2003 H2008 0.984 . S
N2003 H2009 0.985 . S
C2004 C1998 1.379 . S
C2004 C2001 1.363 . S
C2004 N2002 1.356 . S
C2005 C1999 1.363 . S
C2005 C2000 1.379 . S
C2005 N2003 1.356 . S
N2006 C1998 1.356 . S
N2006 H2012 0.984 . S
N2006 H2013 0.984 . S
N2007 C2000 1.356 . S
N2007 H2010 0.984 . S
N2007 H2011 0.985 . S
H2008 N2003 0.984 . S
H2009 N2003 0.985 . S
H2010 N2007 0.984 . S
H2011 N2007 0.985 . S
H2012 N2006 0.984 . S
H2013 N2006 0.984 . S
H2014 N2002 0.984 . S
H2015 N2002 0.985 . S
C2016 C2017 1.363 . S
C2016 C2022 1.379 . S
C2016 N2024 1.356 . S
C2017 C2016 1.363 . S
C2017 C2023 1.363 . S
C2018 C2019 1.363 . S
C2018 C2023 1.379 . S
C2018 N2025 1.356 . S
C2019 C2018 1.363 . S
C2019 C2022 1.363 . S
N2020 C2022 1.356 . S
N2020 H2032 0.984 . S
N2020 H2033 0.985 . S
N2021 C2023 1.356 . S
N2021 H2026 0.984 . S
N2021 H2027 0.985 . S
C2022 C2016 1.379 . S
C2022 C2019 1.363 . S
C2022 N2020 1.356 . S
C2023 C2017 1.363 . S
C2023 C2018 1.379 . S
C2023 N2021 1.356 . S
N2024 C2016 1.356 . S
N2024 H2030 0.984 . S
N2024 H2031 0.984 . S
N2025 C2018 1.356 . S
N2025 H2028 0.984 . S
N2025 H2029 0.985 . S
H2026 N2021 0.984 . S
H2027 N2021 0.985 . S
H2028 N2025 0.984 . S
H2029 N2025 0.985 . S
H2030 N2024 0.984 . S
H2031 N2024 0.984 . S
H2032 N2020 0.984 . S
H2033 N2020 0.985 . S
C2034 C2035 1.363 . S
C2034 C2040 1.379 . S
C2034 N2042 1.356 . S
C2035 C2034 1.363 . S
C2035 C2041 1.363 . S
C2036 C2037 1.363 . S
C2036 C2041 1.379 . S
C2036 N2043 1.356 . S
C2037 C2036 1.363 . S
C2037 C2040 1.363 . S
N2038 C2040 1.356 . S
N2038 H2050 0.984 . S
N2038 H2051 0.985 . S
N2039 C2041 1.356 . S
N2039 H2044 0.984 . S
N2039 H2045 0.985 . S
C2040 C2034 1.379 . S
C2040 C2037 1.363 . S
C2040 N2038 1.356 . S
C2041 C2035 1.363 . S
C2041 C2036 1.379 . S
C2041 N2039 1.356 . S
N2042 C2034 1.356 . S
N2042 H2048 0.984 . S
N2042 H2049 0.984 . S
N2043 C2036 1.356 . S
N2043 H2046 0.984 . S
N2043 H2047 0.985 . S
H2044 N2039 0.984 . S
H2045 N2039 0.985 . S
H2046 N2043 0.984 . S
H2047 N2043 0.985 . S
H2048 N2042 0.984 . S
H2049 N2042 0.984 . S
H2050 N2038 0.984 . S
H2051 N2038 0.985 . S
C2052 C2053 1.363 . S
C2052 C2058 1.379 . S
C2052 N2060 1.356 . S
C2053 C2052 1.363 . S
C2053 C2059 1.363 . S
C2054 C2055 1.363 . S
C2054 C2059 1.379 . S
C2054 N2061 1.356 . S
C2055 C2054 1.363 . S
C2055 C2058 1.363 . S
N2056 C2058 1.356 . S
N2056 H2068 0.984 . S
N2056 H2069 0.985 . S
N2057 C2059 1.356 . S
N2057 H2062 0.984 . S
N2057 H2063 0.985 . S
C2058 C2052 1.379 . S
C2058 C2055 1.363 . S
C2058 N2056 1.356 . S
C2059 C2053 1.363 . S
C2059 C2054 1.379 . S
C2059 N2057 1.356 . S
N2060 C2052 1.356 . S
N2060 H2066 0.984 . S
N2060 H2067 0.984 . S
N2061 C2054 1.356 . S
N2061 H2064 0.984 . S
N2061 H2065 0.985 . S
H2062 N2057 0.984 . S
H2063 N2057 0.985 . S
H2064 N2061 0.984 . S
H2065 N2061 0.985 . S
H2066 N2060 0.984 . S
H2067 N2060 0.984 . S
H2068 N2056 0.984 . S
H2069 N2056 0.985 . S
C2070 C2071 1.363 . S
C2070 C2076 1.379 . S
C2070 N2078 1.356 . S
C2071 C2070 1.363 . S
C2071 C2077 1.363 . S
C2072 C2073 1.363 . S
C2072 C2077 1.379 . S
C2072 N2079 1.356 . S
C2073 C2072 1.363 . S
C2073 C2076 1.363 . S
N2074 C2076 1.356 . S
N2074 H2086 0.984 . S
N2074 H2087 0.985 . S
N2075 C2077 1.356 . S
N2075 H2080 0.984 . S
N2075 H2081 0.985 . S
C2076 C2070 1.379 . S
C2076 C2073 1.363 . S
C2076 N2074 1.356 . S
C2077 C2071 1.363 . S
C2077 C2072 1.379 . S
C2077 N2075 1.356 . S
N2078 C2070 1.356 . S
N2078 H2084 0.984 . S
N2078 H2085 0.984 . S
N2079 C2072 1.356 . S
N2079 H2082 0.984 . S
N2079 H2083 0.985 . S
H2080 N2075 0.984 . S
H2081 N2075 0.985 . S
H2082 N2079 0.984 . S
H2083 N2079 0.985 . S
H2084 N2078 0.984 . S
H2085 N2078 0.984 . S
H2086 N2074 0.984 . S
H2087 N2074 0.985 . S
C2088 C2089 1.363 . S
C2088 C2094 1.379 . S
C2088 N2096 1.356 . S
C2089 C2088 1.363 . S
C2089 C2095 1.363 . S
C2090 C2091 1.363 . S
C2090 C2095 1.379 . S
C2090 N2097 1.356 . S
C2091 C2090 1.363 . S
C2091 C2094 1.363 . S
N2092 C2094 1.356 . S
N2092 H2104 0.984 . S
N2092 H2105 0.985 . S
N2093 C2095 1.356 . S
N2093 H2098 0.984 . S
N2093 H2099 0.985 . S
C2094 C2088 1.379 . S
C2094 C2091 1.363 . S
C2094 N2092 1.356 . S
C2095 C2089 1.363 . S
C2095 C2090 1.379 . S
C2095 N2093 1.356 . S
N2096 C2088 1.356 . S
N2096 H2102 0.984 . S
N2096 H2103 0.984 . S
N2097 C2090 1.356 . S
N2097 H2100 0.984 . S
N2097 H2101 0.985 . S
H2098 N2093 0.984 . S
H2099 N2093 0.985 . S
H2100 N2097 0.984 . S
H2101 N2097 0.985 . S
H2102 N2096 0.984 . S
H2103 N2096 0.984 . S
H2104 N2092 0.984 . S
H2105 N2092 0.985 . S
C2106 C2107 1.363 . S
C2106 C2112 1.379 . S
C2106 N2114 1.356 . S
C2107 C2106 1.363 . S
C2107 C2113 1.363 . S
C2108 C2109 1.363 . S
C2108 C2113 1.379 . S
C2108 N2115 1.356 . S
C2109 C2108 1.363 . S
C2109 C2112 1.363 . S
N2110 C2112 1.356 . S
N2110 H2122 0.984 . S
N2110 H2123 0.985 . S
N2111 C2113 1.356 . S
N2111 H2116 0.984 . S
N2111 H2117 0.985 . S
C2112 C2106 1.379 . S
C2112 C2109 1.363 . S
C2112 N2110 1.356 . S
C2113 C2107 1.363 . S
C2113 C2108 1.379 . S
C2113 N2111 1.356 . S
N2114 C2106 1.356 . S
N2114 H2120 0.984 . S
N2114 H2121 0.984 . S
N2115 C2108 1.356 . S
N2115 H2118 0.984 . S
N2115 H2119 0.985 . S
H2116 N2111 0.984 . S
H2117 N2111 0.985 . S
H2118 N2115 0.984 . S
H2119 N2115 0.985 . S
H2120 N2114 0.984 . S
H2121 N2114 0.984 . S
H2122 N2110 0.984 . S
H2123 N2110 0.985 . S
C2124 C2125 1.363 . S
C2124 C2130 1.379 . S
C2124 N2132 1.356 . S
C2125 C2124 1.363 . S
C2125 C2131 1.363 . S
C2126 C2127 1.363 . S
C2126 C2131 1.379 . S
C2126 N2133 1.356 . S
C2127 C2126 1.363 . S
C2127 C2130 1.363 . S
N2128 C2130 1.356 . S
N2128 H2140 0.984 . S
N2128 H2141 0.985 . S
N2129 C2131 1.356 . S
N2129 H2134 0.984 . S
N2129 H2135 0.985 . S
C2130 C2124 1.379 . S
C2130 C2127 1.363 . S
C2130 N2128 1.356 . S
C2131 C2125 1.363 . S
C2131 C2126 1.379 . S
C2131 N2129 1.356 . S
N2132 C2124 1.356 . S
N2132 H2138 0.984 . S
N2132 H2139 0.984 . S
N2133 C2126 1.356 . S
N2133 H2136 0.984 . S
N2133 H2137 0.985 . S
H2134 N2129 0.984 . S
H2135 N2129 0.985 . S
H2136 N2133 0.984 . S
H2137 N2133 0.985 . S
H2138 N2132 0.984 . S
H2139 N2132 0.984 . S
H2140 N2128 0.984 . S
H2141 N2128 0.985 . S
C2142 C2143 1.363 . S
C2142 C2148 1.379 . S
C2142 N2150 1.356 . S
C2143 C2142 1.363 . S
C2143 C2149 1.363 . S
C2144 C2145 1.363 . S
C2144 C2149 1.379 . S
C2144 N2151 1.356 . S
C2145 C2144 1.363 . S
C2145 C2148 1.363 . S
N2146 C2148 1.356 . S
N2146 H2158 0.984 . S
N2146 H2159 0.985 . S
N2147 C2149 1.356 . S
N2147 H2152 0.984 . S
N2147 H2153 0.985 . S
C2148 C2142 1.379 . S
C2148 C2145 1.363 . S
C2148 N2146 1.356 . S
C2149 C2143 1.363 . S
C2149 C2144 1.379 . S
C2149 N2147 1.356 . S
N2150 C2142 1.356 . S
N2150 H2156 0.984 . S
N2150 H2157 0.984 . S
N2151 C2144 1.356 . S
N2151 H2154 0.984 . S
N2151 H2155 0.985 . S
H2152 N2147 0.984 . S
H2153 N2147 0.985 . S
H2154 N2151 0.984 . S
H2155 N2151 0.985 . S
H2156 N2150 0.984 . S
H2157 N2150 0.984 . S
H2158 N2146 0.984 . S
H2159 N2146 0.985 . S
C2160 C2161 1.363 . S
C2160 C2166 1.379 . S
C2160 N2168 1.356 . S
C2161 C2160 1.363 . S
C2161 C2167 1.363 . S
C2162 C2163 1.363 . S
C2162 C2167 1.379 . S
C2162 N2169 1.356 . S
C2163 C2162 1.363 . S
C2163 C2166 1.363 . S
N2164 C2166 1.356 . S
N2164 H2176 0.984 . S
N2164 H2177 0.985 . S
N2165 C2167 1.356 . S
N2165 H2170 0.984 . S
N2165 H2171 0.985 . S
C2166 C2160 1.379 . S
C2166 C2163 1.363 . S
C2166 N2164 1.356 . S
C2167 C2161 1.363 . S
C2167 C2162 1.379 . S
C2167 N2165 1.356 . S
N2168 C2160 1.356 . S
N2168 H2174 0.984 . S
N2168 H2175 0.984 . S
N2169 C2162 1.356 . S
N2169 H2172 0.984 . S
N2169 H2173 0.985 . S
H2170 N2165 0.984 . S
H2171 N2165 0.985 . S
H2172 N2169 0.984 . S
H2173 N2169 0.985 . S
H2174 N2168 0.984 . S
H2175 N2168 0.984 . S
H2176 N2164 0.984 . S
H2177 N2164 0.985 . S
C2178 C2179 1.363 . S
C2178 C2184 1.379 . S
C2178 N2186 1.356 . S
C2179 C2178 1.363 . S
C2179 C2185 1.363 . S
C2180 C2181 1.363 . S
C2180 C2185 1.379 . S
C2180 N2187 1.356 . S
C2181 C2180 1.363 . S
C2181 C2184 1.363 . S
N2182 C2184 1.356 . S
N2182 H2194 0.984 . S
N2182 H2195 0.985 . S
N2183 C2185 1.356 . S
N2183 H2188 0.984 . S
N2183 H2189 0.985 . S
C2184 C2178 1.379 . S
C2184 C2181 1.363 . S
C2184 N2182 1.356 . S
C2185 C2179 1.363 . S
C2185 C2180 1.379 . S
C2185 N2183 1.356 . S
N2186 C2178 1.356 . S
N2186 H2192 0.984 . S
N2186 H2193 0.984 . S
N2187 C2180 1.356 . S
N2187 H2190 0.984 . S
N2187 H2191 0.985 . S
H2188 N2183 0.984 . S
H2189 N2183 0.985 . S
H2190 N2187 0.984 . S
H2191 N2187 0.985 . S
H2192 N2186 0.984 . S
H2193 N2186 0.984 . S
H2194 N2182 0.984 . S
H2195 N2182 0.985 . S
C2196 C2197 1.363 . S
C2196 C2202 1.379 . S
C2196 N2204 1.356 . S
C2197 C2196 1.363 . S
C2197 C2203 1.363 . S
C2198 C2199 1.363 . S
C2198 C2203 1.379 . S
C2198 N2205 1.356 . S
C2199 C2198 1.363 . S
C2199 C2202 1.363 . S
N2200 C2202 1.356 . S
N2200 H2212 0.984 . S
N2200 H2213 0.985 . S
N2201 C2203 1.356 . S
N2201 H2206 0.984 . S
N2201 H2207 0.985 . S
C2202 C2196 1.379 . S
C2202 C2199 1.363 . S
C2202 N2200 1.356 . S
C2203 C2197 1.363 . S
C2203 C2198 1.379 . S
C2203 N2201 1.356 . S
N2204 C2196 1.356 . S
N2204 H2210 0.984 . S
N2204 H2211 0.984 . S
N2205 C2198 1.356 . S
N2205 H2208 0.984 . S
N2205 H2209 0.985 . S
H2206 N2201 0.984 . S
H2207 N2201 0.985 . S
H2208 N2205 0.984 . S
H2209 N2205 0.985 . S
H2210 N2204 0.984 . S
H2211 N2204 0.984 . S
H2212 N2200 0.984 . S
H2213 N2200 0.985 . S
C2214 C2215 1.363 . S
C2214 C2220 1.379 . S
C2214 N2222 1.356 . S
C2215 C2214 1.363 . S
C2215 C2221 1.363 . S
C2216 C2217 1.363 . S
C2216 C2221 1.379 . S
C2216 N2223 1.356 . S
C2217 C2216 1.363 . S
C2217 C2220 1.363 . S
N2218 C2220 1.356 . S
N2218 H2230 0.984 . S
N2218 H2231 0.985 . S
N2219 C2221 1.356 . S
N2219 H2224 0.984 . S
N2219 H2225 0.985 . S
C2220 C2214 1.379 . S
C2220 C2217 1.363 . S
C2220 N2218 1.356 . S
C2221 C2215 1.363 . S
C2221 C2216 1.379 . S
C2221 N2219 1.356 . S
N2222 C2214 1.356 . S
N2222 H2228 0.984 . S
N2222 H2229 0.984 . S
N2223 C2216 1.356 . S
N2223 H2226 0.984 . S
N2223 H2227 0.985 . S
H2224 N2219 0.984 . S
H2225 N2219 0.985 . S
H2226 N2223 0.984 . S
H2227 N2223 0.985 . S
H2228 N2222 0.984 . S
H2229 N2222 0.984 . S
H2230 N2218 0.984 . S
H2231 N2218 0.985 . S
C2232 C2233 1.363 . S
C2232 C2238 1.379 . S
C2232 N2240 1.356 . S
C2233 C2232 1.363 . S
C2233 C2239 1.363 . S
C2234 C2235 1.363 . S
C2234 C2239 1.379 . S
C2234 N2241 1.356 . S
C2235 C2234 1.363 . S
C2235 C2238 1.363 . S
N2236 C2238 1.356 . S
N2236 H2248 0.984 . S
N2236 H2249 0.985 . S
N2237 C2239 1.356 . S
N2237 H2242 0.984 . S
N2237 H2243 0.985 . S
C2238 C2232 1.379 . S
C2238 C2235 1.363 . S
C2238 N2236 1.356 . S
C2239 C2233 1.363 . S
C2239 C2234 1.379 . S
C2239 N2237 1.356 . S
N2240 C2232 1.356 . S
N2240 H2246 0.984 . S
N2240 H2247 0.984 . S
N2241 C2234 1.356 . S
N2241 H2244 0.984 . S
N2241 H2245 0.985 . S
H2242 N2237 0.984 . S
H2243 N2237 0.985 . S
H2244 N2241 0.984 . S
H2245 N2241 0.985 . S
H2246 N2240 0.984 . S
H2247 N2240 0.984 . S
H2248 N2236 0.984 . S
H2249 N2236 0.985 . S
C2250 C2251 1.363 . S
C2250 C2256 1.379 . S
C2250 N2258 1.356 . S
C2251 C2250 1.363 . S
C2251 C2257 1.363 . S
C2252 C2253 1.363 . S
C2252 C2257 1.379 . S
C2252 N2259 1.356 . S
C2253 C2252 1.363 . S
C2253 C2256 1.363 . S
N2254 C2256 1.356 . S
N2254 H2266 0.984 . S
N2254 H2267 0.985 . S
N2255 C2257 1.356 . S
N2255 H2260 0.984 . S
N2255 H2261 0.985 . S
C2256 C2250 1.379 . S
C2256 C2253 1.363 . S
C2256 N2254 1.356 . S
C2257 C2251 1.363 . S
C2257 C2252 1.379 . S
C2257 N2255 1.356 . S
N2258 C2250 1.356 . S
N2258 H2264 0.984 . S
N2258 H2265 0.984 . S
N2259 C2252 1.356 . S
N2259 H2262 0.984 . S
N2259 H2263 0.985 . S
H2260 N2255 0.984 . S
H2261 N2255 0.985 . S
H2262 N2259 0.984 . S
H2263 N2259 0.985 . S
H2264 N2258 0.984 . S
H2265 N2258 0.984 . S
H2266 N2254 0.984 . S
H2267 N2254 0.985 . S
C2268 C2269 1.363 . S
C2268 C2274 1.379 . S
C2268 N2276 1.356 . S
C2269 C2268 1.363 . S
C2269 C2275 1.363 . S
C2270 C2271 1.363 . S
C2270 C2275 1.379 . S
C2270 N2277 1.356 . S
C2271 C2270 1.363 . S
C2271 C2274 1.363 . S
N2272 C2274 1.356 . S
N2272 H2284 0.984 . S
N2272 H2285 0.985 . S
N2273 C2275 1.356 . S
N2273 H2278 0.984 . S
N2273 H2279 0.985 . S
C2274 C2268 1.379 . S
C2274 C2271 1.363 . S
C2274 N2272 1.356 . S
C2275 C2269 1.363 . S
C2275 C2270 1.379 . S
C2275 N2273 1.356 . S
N2276 C2268 1.356 . S
N2276 H2282 0.984 . S
N2276 H2283 0.984 . S
N2277 C2270 1.356 . S
N2277 H2280 0.984 . S
N2277 H2281 0.985 . S
H2278 N2273 0.984 . S
H2279 N2273 0.985 . S
H2280 N2277 0.984 . S
H2281 N2277 0.985 . S
H2282 N2276 0.984 . S
H2283 N2276 0.984 . S
H2284 N2272 0.984 . S
H2285 N2272 0.985 . S
C2286 C2287 1.363 . S
C2286 C2292 1.379 . S
C2286 N2294 1.356 . S
C2287 C2286 1.363 . S
C2287 C2293 1.363 . S
C2288 C2289 1.363 . S
C2288 C2293 1.379 . S
C2288 N2295 1.356 . S
C2289 C2288 1.363 . S
C2289 C2292 1.363 . S
N2290 C2292 1.356 . S
N2290 H2302 0.984 . S
N2290 H2303 0.985 . S
N2291 C2293 1.356 . S
N2291 H2296 0.984 . S
N2291 H2297 0.985 . S
C2292 C2286 1.379 . S
C2292 C2289 1.363 . S
C2292 N2290 1.356 . S
C2293 C2287 1.363 . S
C2293 C2288 1.379 . S
C2293 N2291 1.356 . S
N2294 C2286 1.356 . S
N2294 H2300 0.984 . S
N2294 H2301 0.984 . S
N2295 C2288 1.356 . S
N2295 H2298 0.984 . S
N2295 H2299 0.985 . S
H2296 N2291 0.984 . S
H2297 N2291 0.985 . S
H2298 N2295 0.984 . S
H2299 N2295 0.985 . S
H2300 N2294 0.984 . S
H2301 N2294 0.984 . S
H2302 N2290 0.984 . S
H2303 N2290 0.985 . S
C2304 C2305 1.363 . S
C2304 C2310 1.381 1_455 S
C2304 N2312 1.356 . S
C2305 C2304 1.363 . S
C2305 C2311 1.363 . S
C2306 C2307 1.363 . S
C2306 C2311 1.381 1_655 S
C2306 N2313 1.356 . S
C2307 C2306 1.363 . S
C2307 C2310 1.363 . S
N2308 C2310 1.355 . S
N2308 H2320 0.985 1_655 S
N2308 H2321 0.985 . S
N2309 C2311 1.355 . S
N2309 H2314 0.984 . S
N2309 H2315 0.985 1_455 S
C2310 C2304 1.381 1_655 S
C2310 C2307 1.363 . S
C2310 N2308 1.355 . S
C2311 C2305 1.363 . S
C2311 C2306 1.381 1_455 S
C2311 N2309 1.355 . S
N2312 C2304 1.356 . S
N2312 H2318 0.984 . S
N2312 H2319 0.984 . S
N2313 C2306 1.356 . S
N2313 H2316 0.984 . S
N2313 H2317 0.985 . S
H2314 N2309 0.984 . S
H2315 N2309 0.985 1_655 S
H2316 N2313 0.984 . S
H2317 N2313 0.985 . S
H2318 N2312 0.984 . S
H2319 N2312 0.984 . S
H2320 N2308 0.985 1_455 S
H2321 N2308 0.985 . S
C2322 C2323 1.363 . S
C2322 C2328 1.379 . S
C2322 N2330 1.356 . S
C2323 C2322 1.363 . S
C2323 C2329 1.363 . S
C2324 C2325 1.363 . S
C2324 C2329 1.379 . S
C2324 N2331 1.356 . S
C2325 C2324 1.363 . S
C2325 C2328 1.363 . S
N2326 C2328 1.356 . S
N2326 H2338 0.984 . S
N2326 H2339 0.985 . S
N2327 C2329 1.356 . S
N2327 H2332 0.984 . S
N2327 H2333 0.985 . S
C2328 C2322 1.379 . S
C2328 C2325 1.363 . S
C2328 N2326 1.356 . S
C2329 C2323 1.363 . S
C2329 C2324 1.379 . S
C2329 N2327 1.356 . S
N2330 C2322 1.356 . S
N2330 H2336 0.984 . S
N2330 H2337 0.984 . S
N2331 C2324 1.356 . S
N2331 H2334 0.984 . S
N2331 H2335 0.985 . S
H2332 N2327 0.984 . S
H2333 N2327 0.985 . S
H2334 N2331 0.984 . S
H2335 N2331 0.985 . S
H2336 N2330 0.984 . S
H2337 N2330 0.984 . S
H2338 N2326 0.984 . S
H2339 N2326 0.985 . S
C2340 C2341 1.363 1_545 S
C2340 C2346 1.379 . S
C2340 N2348 1.356 . S
C2341 C2340 1.363 1_565 S
C2341 C2347 1.363 . S
C2342 C2343 1.363 1_565 S
C2342 C2347 1.379 . S
C2342 N2349 1.356 . S
C2343 C2342 1.363 1_545 S
C2343 C2346 1.363 . S
N2344 C2346 1.356 . S
N2344 H2356 0.984 . S
N2344 H2357 0.985 . S
N2345 C2347 1.356 . S
N2345 H2350 0.984 . S
N2345 H2351 0.985 . S
C2346 C2340 1.379 . S
C2346 C2343 1.363 . S
C2346 N2344 1.356 . S
C2347 C2341 1.363 . S
C2347 C2342 1.379 . S
C2347 N2345 1.356 . S
N2348 C2340 1.356 . S
N2348 H2354 0.984 . S
N2348 H2355 0.984 . S
N2349 C2342 1.356 . S
N2349 H2352 0.984 . S
N2349 H2353 0.985 . S
H2350 N2345 0.984 . S
H2351 N2345 0.985 . S
H2352 N2349 0.984 . S
H2353 N2349 0.985 . S
H2354 N2348 0.984 . S
H2355 N2348 0.984 . S
H2356 N2344 0.984 . S
H2357 N2344 0.985 . S
C2358 C2359 1.363 1_565 S
C2358 C2364 1.379 . S
C2358 N2366 1.356 . S
C2359 C2358 1.363 1_545 S
C2359 C2365 1.363 1_554 S
C2360 C2361 1.363 1_545 S
C2360 C2365 1.379 . S
C2360 N2367 1.356 . S
C2361 C2360 1.363 1_565 S
C2361 C2364 1.363 1_556 S
N2362 C2364 1.356 . S
N2362 H2374 0.984 . S
N2362 H2375 0.985 1_554 S
N2363 C2365 1.356 . S
N2363 H2368 0.984 1_556 S
N2363 H2369 0.985 . S
C2364 C2358 1.379 . S
C2364 C2361 1.363 1_554 S
C2364 N2362 1.356 . S
C2365 C2359 1.363 1_556 S
C2365 C2360 1.379 . S
C2365 N2363 1.356 . S
N2366 C2358 1.356 . S
N2366 H2372 0.984 . S
N2366 H2373 0.984 . S
N2367 C2360 1.356 . S
N2367 H2370 0.984 . S
N2367 H2371 0.985 . S
H2368 N2363 0.984 1_554 S
H2369 N2363 0.985 . S
H2370 N2367 0.984 . S
H2371 N2367 0.985 . S
H2372 N2366 0.984 . S
H2373 N2366 0.984 . S
H2374 N2362 0.984 . S
H2375 N2362 0.985 1_556 S
C2376 C2377 1.363 . S
C2376 C2382 1.379 . S
C2376 N2384 1.356 . S
C2377 C2376 1.363 . S
C2377 C2383 1.363 1_456 S
C2378 C2379 1.363 . S
C2378 C2383 1.379 . S
C2378 N2385 1.356 . S
C2379 C2378 1.363 . S
C2379 C2382 1.363 1_654 S
N2380 C2382 1.356 1_554 S
N2380 H2392 0.984 1_554 S
N2380 H2393 0.985 . S
N2381 C2383 1.356 1_556 S
N2381 H2386 0.984 . S
N2381 H2387 0.985 1_556 S
C2382 C2376 1.379 . S
C2382 C2379 1.363 1_456 S
C2382 N2380 1.356 1_556 S
C2383 C2377 1.363 1_654 S
C2383 C2378 1.379 . S
C2383 N2381 1.356 1_554 S
N2384 C2376 1.356 . S
N2384 H2390 0.984 . S
N2384 H2391 0.984 . S
N2385 C2378 1.356 . S
N2385 H2388 0.984 . S
N2385 H2389 0.985 . S
H2386 N2381 0.984 . S
H2387 N2381 0.985 1_554 S
H2388 N2385 0.984 . S
H2389 N2385 0.985 . S
H2390 N2384 0.984 . S
H2391 N2384 0.984 . S
H2392 N2380 0.984 1_556 S
H2393 N2380 0.985 . S
C2394 C2395 1.363 . S
C2394 C2400 1.379 1_554 S
C2394 N2402 1.356 . S
C2395 C2394 1.363 . S
C2395 C2401 1.363 . S
C2396 C2397 1.363 . S
C2396 C2401 1.379 1_556 S
C2396 N2403 1.356 . S
C2397 C2396 1.363 . S
C2397 C2400 1.363 . S
N2398 C2400 1.356 . S
N2398 H2410 0.984 . S
N2398 H2411 0.985 . S
N2399 C2401 1.356 . S
N2399 H2404 0.984 . S
N2399 H2405 0.985 . S
C2400 C2394 1.379 1_556 S
C2400 C2397 1.363 . S
C2400 N2398 1.356 . S
C2401 C2395 1.363 . S
C2401 C2396 1.379 1_554 S
C2401 N2399 1.356 . S
N2402 C2394 1.356 . S
N2402 H2408 0.984 . S
N2402 H2409 0.984 . S
N2403 C2396 1.356 . S
N2403 H2406 0.984 . S
N2403 H2407 0.985 . S
H2404 N2399 0.984 . S
H2405 N2399 0.985 . S
H2406 N2403 0.984 . S
H2407 N2403 0.985 . S
H2408 N2402 0.984 . S
H2409 N2402 0.984 . S
H2410 N2398 0.984 . S
H2411 N2398 0.985 . S
C2412 C2413 1.363 . S
C2412 C2418 1.379 . S
C2412 N2420 1.356 . S
C2413 C2412 1.363 . S
C2413 C2419 1.363 . S
C2414 C2415 1.363 . S
C2414 C2419 1.379 . S
C2414 N2421 1.356 . S
C2415 C2414 1.363 . S
C2415 C2418 1.363 . S
N2416 C2418 1.356 . S
N2416 H2428 0.984 . S
N2416 H2429 0.985 . S
N2417 C2419 1.356 . S
N2417 H2422 0.984 . S
N2417 H2423 0.985 . S
C2418 C2412 1.379 . S
C2418 C2415 1.363 . S
C2418 N2416 1.356 . S
C2419 C2413 1.363 . S
C2419 C2414 1.379 . S
C2419 N2417 1.356 . S
N2420 C2412 1.356 . S
N2420 H2426 0.984 . S
N2420 H2427 0.984 . S
N2421 C2414 1.356 . S
N2421 H2424 0.984 . S
N2421 H2425 0.985 . S
H2422 N2417 0.984 . S
H2423 N2417 0.985 . S
H2424 N2421 0.984 . S
H2425 N2421 0.985 . S
H2426 N2420 0.984 . S
H2427 N2420 0.984 . S
H2428 N2416 0.984 . S
H2429 N2416 0.985 . S
C2430 C2431 1.363 . S
C2430 C2436 1.379 . S
C2430 N2438 1.356 . S
C2431 C2430 1.363 . S
C2431 C2437 1.363 . S
C2432 C2433 1.363 . S
C2432 C2437 1.379 . S
C2432 N2439 1.356 . S
C2433 C2432 1.363 . S
C2433 C2436 1.363 . S
N2434 C2436 1.356 . S
N2434 H2446 0.984 . S
N2434 H2447 0.985 . S
N2435 C2437 1.356 . S
N2435 H2440 0.984 . S
N2435 H2441 0.985 . S
C2436 C2430 1.379 . S
C2436 C2433 1.363 . S
C2436 N2434 1.356 . S
C2437 C2431 1.363 . S
C2437 C2432 1.379 . S
C2437 N2435 1.356 . S
N2438 C2430 1.356 . S
N2438 H2444 0.984 . S
N2438 H2445 0.984 . S
N2439 C2432 1.356 . S
N2439 H2442 0.984 . S
N2439 H2443 0.985 . S
H2440 N2435 0.984 . S
H2441 N2435 0.985 . S
H2442 N2439 0.984 . S
H2443 N2439 0.985 . S
H2444 N2438 0.984 . S
H2445 N2438 0.984 . S
H2446 N2434 0.984 . S
H2447 N2434 0.985 . S
C2448 C2449 1.363 . S
C2448 C2454 1.379 . S
C2448 N2456 1.356 . S
C2449 C2448 1.363 . S
C2449 C2455 1.363 . S
C2450 C2451 1.363 . S
C2450 C2455 1.379 . S
C2450 N2457 1.356 . S
C2451 C2450 1.363 . S
C2451 C2454 1.363 . S
N2452 C2454 1.356 . S
N2452 H2464 0.984 1_556 S
N2452 H2465 0.985 . S
N2453 C2455 1.356 . S
N2453 H2458 0.984 . S
N2453 H2459 0.985 . S
C2454 C2448 1.379 . S
C2454 C2451 1.363 . S
C2454 N2452 1.356 . S
C2455 C2449 1.363 . S
C2455 C2450 1.379 . S
C2455 N2453 1.356 . S
N2456 C2448 1.356 . S
N2456 H2462 0.984 . S
N2456 H2463 0.984 . S
N2457 C2450 1.356 . S
N2457 H2460 0.984 . S
N2457 H2461 0.985 . S
H2458 N2453 0.984 . S
H2459 N2453 0.985 . S
H2460 N2457 0.984 . S
H2461 N2457 0.985 . S
H2462 N2456 0.984 . S
H2463 N2456 0.984 . S
H2464 N2452 0.984 1_554 S
H2465 N2452 0.985 . S
C2466 C2467 1.363 . S
C2466 C2472 1.379 . S
C2466 N2474 1.356 . S
C2467 C2466 1.363 . S
C2467 C2473 1.363 . S
C2468 C2469 1.363 . S
C2468 C2473 1.379 . S
C2468 N2475 1.356 . S
C2469 C2468 1.363 . S
C2469 C2472 1.363 . S
N2470 C2472 1.356 . S
N2470 H2482 0.984 . S
N2470 H2483 0.985 . S
N2471 C2473 1.356 . S
N2471 H2476 0.984 . S
N2471 H2477 0.985 . S
C2472 C2466 1.379 . S
C2472 C2469 1.363 . S
C2472 N2470 1.356 . S
C2473 C2467 1.363 . S
C2473 C2468 1.379 . S
C2473 N2471 1.356 . S
N2474 C2466 1.356 . S
N2474 H2480 0.984 . S
N2474 H2481 0.984 . S
N2475 C2468 1.356 . S
N2475 H2478 0.984 . S
N2475 H2479 0.985 . S
H2476 N2471 0.984 . S
H2477 N2471 0.985 . S
H2478 N2475 0.984 . S
H2479 N2475 0.985 . S
H2480 N2474 0.984 . S
H2481 N2474 0.984 . S
H2482 N2470 0.984 . S
H2483 N2470 0.985 . S
C2484 C2485 1.363 . S
C2484 C2490 1.379 . S
C2484 N2492 1.356 . S
C2485 C2484 1.363 . S
C2485 C2491 1.363 . S
C2486 C2487 1.363 . S
C2486 C2491 1.379 . S
C2486 N2493 1.356 . S
C2487 C2486 1.363 . S
C2487 C2490 1.363 . S
N2488 C2490 1.356 . S
N2488 H2500 0.984 . S
N2488 H2501 0.985 . S
N2489 C2491 1.356 . S
N2489 H2494 0.984 . S
N2489 H2495 0.985 . S
C2490 C2484 1.379 . S
C2490 C2487 1.363 . S
C2490 N2488 1.356 . S
C2491 C2485 1.363 . S
C2491 C2486 1.379 . S
C2491 N2489 1.356 . S
N2492 C2484 1.356 . S
N2492 H2498 0.984 . S
N2492 H2499 0.984 . S
N2493 C2486 1.356 . S
N2493 H2496 0.984 . S
N2493 H2497 0.944 1_565 S
H2494 N2489 0.984 . S
H2495 N2489 0.985 . S
H2496 N2493 0.984 . S
H2497 N2493 0.944 1_545 S
H2498 N2492 0.984 . S
H2499 N2492 0.984 . S
H2500 N2488 0.984 . S
H2501 N2488 0.985 . S
C2502 C2503 1.363 . S
C2502 C2508 1.379 . S
C2502 N2510 1.356 . S
C2503 C2502 1.363 . S
C2503 C2509 1.363 . S
C2504 C2505 1.363 . S
C2504 C2509 1.379 . S
C2504 N2511 1.356 . S
C2505 C2504 1.363 . S
C2505 C2508 1.363 . S
N2506 C2508 1.356 . S
N2506 H2518 0.984 . S
N2506 H2519 0.985 . S
N2507 C2509 1.356 . S
N2507 H2512 0.984 . S
N2507 H2513 0.985 . S
C2508 C2502 1.379 . S
C2508 C2505 1.363 . S
C2508 N2506 1.356 . S
C2509 C2503 1.363 . S
C2509 C2504 1.379 . S
C2509 N2507 1.356 . S
N2510 C2502 1.356 . S
N2510 H2516 0.984 . S
N2510 H2517 0.984 . S
N2511 C2504 1.356 . S
N2511 H2514 0.984 . S
N2511 H2515 0.985 . S
H2512 N2507 0.984 . S
H2513 N2507 0.985 . S
H2514 N2511 0.984 . S
H2515 N2511 0.985 . S
H2516 N2510 0.984 . S
H2517 N2510 0.984 . S
H2518 N2506 0.984 . S
H2519 N2506 0.985 . S
C2520 C2521 1.363 . S
C2520 C2526 1.379 . S
C2520 N2528 1.356 . S
C2521 C2520 1.363 . S
C2521 C2527 1.363 . S
C2522 C2523 1.363 . S
C2522 C2527 1.379 . S
C2522 N2529 1.356 . S
C2523 C2522 1.363 . S
C2523 C2526 1.363 . S
N2524 C2526 1.356 . S
N2524 H2536 0.984 . S
N2524 H2537 0.985 . S
N2525 C2527 1.356 . S
N2525 H2530 0.984 . S
N2525 H2531 0.985 . S
C2526 C2520 1.379 . S
C2526 C2523 1.363 . S
C2526 N2524 1.356 . S
C2527 C2521 1.363 . S
C2527 C2522 1.379 . S
C2527 N2525 1.356 . S
N2528 C2520 1.356 . S
N2528 H2534 0.984 . S
N2528 H2535 0.984 . S
N2529 C2522 1.356 . S
N2529 H2532 0.984 . S
N2529 H2533 0.985 1_554 S
H2530 N2525 0.984 . S
H2531 N2525 0.985 . S
H2532 N2529 0.984 . S
H2533 N2529 0.985 1_556 S
H2534 N2528 0.984 . S
H2535 N2528 0.984 . S
H2536 N2524 0.984 . S
H2537 N2524 0.985 . S
C2538 C2539 1.363 . S
C2538 C2544 1.379 . S
C2538 N2546 1.356 . S
C2539 C2538 1.363 . S
C2539 C2545 1.363 . S
C2540 C2541 1.363 . S
C2540 C2545 1.379 . S
C2540 N2547 1.356 . S
C2541 C2540 1.363 . S
C2541 C2544 1.363 . S
N2542 C2544 1.356 . S
N2542 H2554 0.984 . S
N2542 H2555 0.985 . S
N2543 C2545 1.356 . S
N2543 H2548 0.984 . S
N2543 H2549 0.985 . S
C2544 C2538 1.379 . S
C2544 C2541 1.363 . S
C2544 N2542 1.356 . S
C2545 C2539 1.363 . S
C2545 C2540 1.379 . S
C2545 N2543 1.356 . S
N2546 C2538 1.356 . S
N2546 H2552 0.970 1_565 S
N2546 H2553 0.984 . S
N2547 C2540 1.356 . S
N2547 H2550 0.984 . S
N2547 H2551 0.985 . S
H2548 N2543 0.984 . S
H2549 N2543 0.985 . S
H2550 N2547 0.984 . S
H2551 N2547 0.985 . S
H2552 N2546 0.970 1_545 S
H2553 N2546 0.984 . S
H2554 N2542 0.984 . S
H2555 N2542 0.985 . S
C2556 C2557 1.363 . S
C2556 C2562 1.379 . S
C2556 N2564 1.356 . S
C2557 C2556 1.363 . S
C2557 C2563 1.363 . S
C2558 C2559 1.363 . S
C2558 C2563 1.379 . S
C2558 N2565 1.356 . S
C2559 C2558 1.363 . S
C2559 C2562 1.363 . S
N2560 C2562 1.356 . S
N2560 H2572 0.983 1_554 S
N2560 H2573 0.985 . S
N2561 C2563 1.356 . S
N2561 H2566 0.984 . S
N2561 H2567 0.985 . S
C2562 C2556 1.379 . S
C2562 C2559 1.363 . S
C2562 N2560 1.356 . S
C2563 C2557 1.363 . S
C2563 C2558 1.379 . S
C2563 N2561 1.356 . S
N2564 C2556 1.356 . S
N2564 H2570 0.984 . S
N2564 H2571 0.984 . S
N2565 C2558 1.356 . S
N2565 H2568 0.984 . S
N2565 H2569 0.985 . S
H2566 N2561 0.984 . S
H2567 N2561 0.985 . S
H2568 N2565 0.984 . S
H2569 N2565 0.985 . S
H2570 N2564 0.984 . S
H2571 N2564 0.984 . S
H2572 N2560 0.983 1_556 S
H2573 N2560 0.985 . S
C2574 C2575 1.363 . S
C2574 C2580 1.379 . S
C2574 N2582 1.356 . S
C2575 C2574 1.363 . S
C2575 C2581 1.363 . S
C2576 C2577 1.363 . S
C2576 C2581 1.379 . S
C2576 N2583 1.356 . S
C2577 C2576 1.363 . S
C2577 C2580 1.363 . S
N2578 C2580 1.356 . S
N2578 H2590 0.984 . S
N2578 H2591 0.985 . S
N2579 C2581 1.356 . S
N2579 H2584 0.984 . S
N2579 H2585 0.985 . S
C2580 C2574 1.379 . S
C2580 C2577 1.363 . S
C2580 N2578 1.356 . S
C2581 C2575 1.363 . S
C2581 C2576 1.379 . S
C2581 N2579 1.356 . S
N2582 C2574 1.356 . S
N2582 H2588 0.984 . S
N2582 H2589 0.984 . S
N2583 C2576 1.356 . S
N2583 H2586 0.984 . S
N2583 H2587 0.985 . S
H2584 N2579 0.984 . S
H2585 N2579 0.985 . S
H2586 N2583 0.984 . S
H2587 N2583 0.985 . S
H2588 N2582 0.984 . S
H2589 N2582 0.984 . S
H2590 N2578 0.984 . S
H2591 N2578 0.985 . S
C2592 C2593 1.363 . S
C2592 C2598 1.379 . S
C2592 N2600 1.356 . S
C2593 C2592 1.363 . S
C2593 C2599 1.363 . S
C2594 C2595 1.363 . S
C2594 C2599 1.379 . S
C2594 N2601 1.356 . S
C2595 C2594 1.363 . S
C2595 C2598 1.363 . S
N2596 C2598 1.356 . S
N2596 H2608 0.984 . S
N2596 H2609 0.985 . S
N2597 C2599 1.356 . S
N2597 H2602 0.984 . S
N2597 H2603 0.985 . S
C2598 C2592 1.379 . S
C2598 C2595 1.363 . S
C2598 N2596 1.356 . S
C2599 C2593 1.363 . S
C2599 C2594 1.379 . S
C2599 N2597 1.356 . S
N2600 C2592 1.356 . S
N2600 H2606 0.984 . S
N2600 H2607 0.984 . S
N2601 C2594 1.356 . S
N2601 H2604 0.984 . S
N2601 H2605 0.985 . S
H2602 N2597 0.984 . S
H2603 N2597 0.985 . S
H2604 N2601 0.984 . S
H2605 N2601 0.985 . S
H2606 N2600 0.984 . S
H2607 N2600 0.984 . S
H2608 N2596 0.984 . S
H2609 N2596 0.985 . S
C2610 C2611 1.363 . S
C2610 C2616 1.379 . S
C2610 N2618 1.356 . S
C2611 C2610 1.363 . S
C2611 C2617 1.363 . S
C2612 C2613 1.363 . S
C2612 C2617 1.379 . S
C2612 N2619 1.356 . S
C2613 C2612 1.363 . S
C2613 C2616 1.363 . S
N2614 C2616 1.356 . S
N2614 H2626 0.984 . S
N2614 H2627 0.985 . S
N2615 C2617 1.356 . S
N2615 H2620 0.984 . S
N2615 H2621 0.985 . S
C2616 C2610 1.379 . S
C2616 C2613 1.363 . S
C2616 N2614 1.356 . S
C2617 C2611 1.363 . S
C2617 C2612 1.379 . S
C2617 N2615 1.356 . S
N2618 C2610 1.356 . S
N2618 H2624 0.984 . S
N2618 H2625 0.984 . S
N2619 C2612 1.356 . S
N2619 H2622 0.984 . S
N2619 H2623 0.985 . S
H2620 N2615 0.984 . S
H2621 N2615 0.985 . S
H2622 N2619 0.984 . S
H2623 N2619 0.985 . S
H2624 N2618 0.984 . S
H2625 N2618 0.984 . S
H2626 N2614 0.984 . S
H2627 N2614 0.985 . S
C2628 C2629 1.363 . S
C2628 C2634 1.379 1_455 S
C2628 N2636 1.356 . S
C2629 C2628 1.363 . S
C2629 C2635 1.363 . S
C2630 C2631 1.363 . S
C2630 C2635 1.379 1_655 S
C2630 N2637 1.356 . S
C2631 C2630 1.363 . S
C2631 C2634 1.363 . S
N2632 C2634 1.356 . S
N2632 H2644 0.984 . S
N2632 H2645 0.985 . S
N2633 C2635 1.356 . S
N2633 H2638 0.984 . S
N2633 H2639 0.985 . S
C2634 C2628 1.379 1_655 S
C2634 C2631 1.363 . S
C2634 N2632 1.356 . S
C2635 C2629 1.363 . S
C2635 C2630 1.379 1_455 S
C2635 N2633 1.356 . S
N2636 C2628 1.356 . S
N2636 H2642 0.984 . S
N2636 H2643 0.984 . S
N2637 C2630 1.356 . S
N2637 H2640 0.984 . S
N2637 H2641 0.985 . S
H2638 N2633 0.984 . S
H2639 N2633 0.985 . S
H2640 N2637 0.984 . S
H2641 N2637 0.985 . S
H2642 N2636 0.984 . S
H2643 N2636 0.984 . S
H2644 N2632 0.984 . S
H2645 N2632 0.985 . S
C2646 C2647 1.363 . S
C2646 C2652 1.379 . S
C2646 N2654 1.356 . S
C2647 C2646 1.363 . S
C2647 C2653 1.363 . S
C2648 C2649 1.363 . S
C2648 C2653 1.379 . S
C2648 N2655 1.356 . S
C2649 C2648 1.363 . S
C2649 C2652 1.363 . S
N2650 C2652 1.356 . S
N2650 H2662 0.984 . S
N2650 H2663 0.985 . S
N2651 C2653 1.356 . S
N2651 H2656 0.984 . S
N2651 H2657 0.985 . S
C2652 C2646 1.379 . S
C2652 C2649 1.363 . S
C2652 N2650 1.356 . S
C2653 C2647 1.363 . S
C2653 C2648 1.379 . S
C2653 N2651 1.356 . S
N2654 C2646 1.356 . S
N2654 H2660 0.984 . S
N2654 H2661 0.984 . S
N2655 C2648 1.356 . S
N2655 H2658 0.984 . S
N2655 H2659 0.985 . S
H2656 N2651 0.984 . S
H2657 N2651 0.985 . S
H2658 N2655 0.984 . S
H2659 N2655 0.985 . S
H2660 N2654 0.984 . S
H2661 N2654 0.984 . S
H2662 N2650 0.984 . S
H2663 N2650 0.985 . S
C2664 C2665 1.363 . S
C2664 C2670 1.379 1_545 S
C2664 N2672 1.356 . S
C2665 C2664 1.363 . S
C2665 C2671 1.363 . S
C2666 C2667 1.363 . S
C2666 C2671 1.379 1_565 S
C2666 N2673 1.356 . S
C2667 C2666 1.363 . S
C2667 C2670 1.363 . S
N2668 C2670 1.356 . S
N2668 H2680 0.984 . S
N2668 H2681 0.985 . S
N2669 C2671 1.356 . S
N2669 H2674 0.984 . S
N2669 H2675 0.985 . S
C2670 C2664 1.379 1_565 S
C2670 C2667 1.363 . S
C2670 N2668 1.356 . S
C2671 C2665 1.363 . S
C2671 C2666 1.379 1_545 S
C2671 N2669 1.356 . S
N2672 C2664 1.356 . S
N2672 H2678 0.984 . S
N2672 H2679 0.984 . S
N2673 C2666 1.356 . S
N2673 H2676 0.984 . S
N2673 H2677 0.985 . S
H2674 N2669 0.984 . S
H2675 N2669 0.985 . S
H2676 N2673 0.984 . S
H2677 N2673 0.985 . S
H2678 N2672 0.984 . S
H2679 N2672 0.984 . S
H2680 N2668 0.984 . S
H2681 N2668 0.985 . S
C2682 C2683 1.363 . S
C2682 C2688 1.379 1_565 S
C2682 N2690 1.356 . S
C2683 C2682 1.363 . S
C2683 C2689 1.363 . S
C2684 C2685 1.363 . S
C2684 C2689 1.379 1_545 S
C2684 N2691 1.356 . S
C2685 C2684 1.363 . S
C2685 C2688 1.363 . S
N2686 C2688 1.356 . S
N2686 H2698 0.984 . S
N2686 H2699 0.985 . S
N2687 C2689 1.356 . S
N2687 H2692 0.984 . S
N2687 H2693 0.985 . S
C2688 C2682 1.379 1_545 S
C2688 C2685 1.363 . S
C2688 N2686 1.356 . S
C2689 C2683 1.363 . S
C2689 C2684 1.379 1_565 S
C2689 N2687 1.356 . S
N2690 C2682 1.356 . S
N2690 H2696 0.984 . S
N2690 H2697 0.984 . S
N2691 C2684 1.356 . S
N2691 H2694 0.984 . S
N2691 H2695 0.985 . S
H2692 N2687 0.984 . S
H2693 N2687 0.985 . S
H2694 N2691 0.984 . S
H2695 N2691 0.985 . S
H2696 N2690 0.984 . S
H2697 N2690 0.984 . S
H2698 N2686 0.984 . S
H2699 N2686 0.985 . S
C2700 C2701 1.363 . S
C2700 C2706 1.379 1_455 S
C2700 N2708 1.356 . S
C2701 C2700 1.363 . S
C2701 C2707 1.363 . S
C2702 C2703 1.363 . S
C2702 C2707 1.379 1_655 S
C2702 N2709 1.356 . S
C2703 C2702 1.363 . S
C2703 C2706 1.363 . S
N2704 C2706 1.356 . S
N2704 H2716 0.984 . S
N2704 H2717 0.985 . S
N2705 C2707 1.356 . S
N2705 H2710 0.984 . S
N2705 H2711 0.985 . S
C2706 C2700 1.379 1_655 S
C2706 C2703 1.363 . S
C2706 N2704 1.356 . S
C2707 C2701 1.363 . S
C2707 C2702 1.379 1_455 S
C2707 N2705 1.356 . S
N2708 C2700 1.356 . S
N2708 H2714 0.984 . S
N2708 H2715 0.984 . S
N2709 C2702 1.356 . S
N2709 H2712 0.984 . S
N2709 H2713 0.985 . S
H2710 N2705 0.984 . S
H2711 N2705 0.985 . S
H2712 N2709 0.984 . S
H2713 N2709 0.985 . S
H2714 N2708 0.984 . S
H2715 N2708 0.984 . S
H2716 N2704 0.984 . S
H2717 N2704 0.985 . S
C2718 C2719 1.363 . S
C2718 C2724 1.379 . S
C2718 N2726 1.356 . S
C2719 C2718 1.363 . S
C2719 C2725 1.363 . S
C2720 C2721 1.363 . S
C2720 C2725 1.379 . S
C2720 N2727 1.356 . S
C2721 C2720 1.363 . S
C2721 C2724 1.363 . S
N2722 C2724 1.356 . S
N2722 H2734 0.984 . S
N2722 H2735 0.985 . S
N2723 C2725 1.356 . S
N2723 H2728 0.984 . S
N2723 H2729 0.985 . S
C2724 C2718 1.379 . S
C2724 C2721 1.363 . S
C2724 N2722 1.356 . S
C2725 C2719 1.363 . S
C2725 C2720 1.379 . S
C2725 N2723 1.356 . S
N2726 C2718 1.356 . S
N2726 H2732 0.984 . S
N2726 H2733 0.984 . S
N2727 C2720 1.356 . S
N2727 H2730 0.984 . S
N2727 H2731 0.985 . S
H2728 N2723 0.984 . S
H2729 N2723 0.985 . S
H2730 N2727 0.984 . S
H2731 N2727 0.985 . S
H2732 N2726 0.984 . S
H2733 N2726 0.984 . S
H2734 N2722 0.984 . S
H2735 N2722 0.985 . S
C2736 C2737 1.363 . S
C2736 C2742 1.379 . S
C2736 N2744 1.356 . S
C2737 C2736 1.363 . S
C2737 C2743 1.363 . S
C2738 C2739 1.363 . S
C2738 C2743 1.379 . S
C2738 N2745 1.356 . S
C2739 C2738 1.363 . S
C2739 C2742 1.363 . S
N2740 C2742 1.356 . S
N2740 H2752 0.984 . S
N2740 H2753 0.985 . S
N2741 C2743 1.356 . S
N2741 H2746 0.984 . S
N2741 H2747 0.985 . S
C2742 C2736 1.379 . S
C2742 C2739 1.363 . S
C2742 N2740 1.356 . S
C2743 C2737 1.363 . S
C2743 C2738 1.379 . S
C2743 N2741 1.356 . S
N2744 C2736 1.356 . S
N2744 H2750 0.984 . S
N2744 H2751 0.984 . S
N2745 C2738 1.356 . S
N2745 H2748 0.984 . S
N2745 H2749 0.985 . S
H2746 N2741 0.984 . S
H2747 N2741 0.985 . S
H2748 N2745 0.984 . S
H2749 N2745 0.985 . S
H2750 N2744 0.984 . S
H2751 N2744 0.984 . S
H2752 N2740 0.984 . S
H2753 N2740 0.985 . S
C2754 C2755 1.363 . S
C2754 C2760 1.379 . S
C2754 N2762 1.356 . S
C2755 C2754 1.363 . S
C2755 C2761 1.363 1_565 S
C2756 C2757 1.363 . S
C2756 C2761 1.379 . S
C2756 N2763 1.356 . S
C2757 C2756 1.363 . S
C2757 C2760 1.363 1_545 S
N2758 C2760 1.356 . S
N2758 H2770 0.984 . S
N2758 H2771 0.985 . S
N2759 C2761 1.356 . S
N2759 H2764 0.984 . S
N2759 H2765 0.985 . S
C2760 C2754 1.379 . S
C2760 C2757 1.363 1_565 S
C2760 N2758 1.356 . S
C2761 C2755 1.363 1_545 S
C2761 C2756 1.379 . S
C2761 N2759 1.356 . S
N2762 C2754 1.356 . S
N2762 H2768 0.984 . S
N2762 H2769 0.984 . S
N2763 C2756 1.356 . S
N2763 H2766 0.984 . S
N2763 H2767 0.985 . S
H2764 N2759 0.984 . S
H2765 N2759 0.985 . S
H2766 N2763 0.984 . S
H2767 N2763 0.985 . S
H2768 N2762 0.984 . S
H2769 N2762 0.984 . S
H2770 N2758 0.984 . S
H2771 N2758 0.985 . S
C2772 C2773 1.363 . S
C2772 C2778 1.379 . S
C2772 N2780 1.356 . S
C2773 C2772 1.363 . S
C2773 C2779 1.363 1_455 S
C2774 C2775 1.363 . S
C2774 C2779 1.379 . S
C2774 N2781 1.356 . S
C2775 C2774 1.363 . S
C2775 C2778 1.363 1_655 S
N2776 C2778 1.356 . S
N2776 H2788 0.984 . S
N2776 H2789 0.985 . S
N2777 C2779 1.356 . S
N2777 H2782 0.984 . S
N2777 H2783 0.985 . S
C2778 C2772 1.379 . S
C2778 C2775 1.363 1_455 S
C2778 N2776 1.356 . S
C2779 C2773 1.363 1_655 S
C2779 C2774 1.379 . S
C2779 N2777 1.356 . S
N2780 C2772 1.356 . S
N2780 H2786 0.984 . S
N2780 H2787 0.984 . S
N2781 C2774 1.356 . S
N2781 H2784 0.984 . S
N2781 H2785 0.985 . S
H2782 N2777 0.984 . S
H2783 N2777 0.985 . S
H2784 N2781 0.984 . S
H2785 N2781 0.985 . S
H2786 N2780 0.984 . S
H2787 N2780 0.984 . S
H2788 N2776 0.984 . S
H2789 N2776 0.985 . S
C2790 C2791 1.363 . S
C2790 C2796 1.379 . S
C2790 N2798 1.356 . S
C2791 C2790 1.363 . S
C2791 C2797 1.363 . S
C2792 C2793 1.363 . S
C2792 C2797 1.379 . S
C2792 N2799 1.356 . S
C2793 C2792 1.363 . S
C2793 C2796 1.363 . S
N2794 C2796 1.356 . S
N2794 H2806 0.984 . S
N2794 H2807 0.985 . S
N2795 C2797 1.356 . S
N2795 H2800 0.984 . S
N2795 H2801 0.985 . S
C2796 C2790 1.379 . S
C2796 C2793 1.363 . S
C2796 N2794 1.356 . S
C2797 C2791 1.363 . S
C2797 C2792 1.379 . S
C2797 N2795 1.356 . S
N2798 C2790 1.356 . S
N2798 H2804 0.984 . S
N2798 H2805 0.984 . S
N2799 C2792 1.356 . S
N2799 H2802 0.984 . S
N2799 H2803 0.985 . S
H2800 N2795 0.984 . S
H2801 N2795 0.985 . S
H2802 N2799 0.984 . S
H2803 N2799 0.985 . S
H2804 N2798 0.984 . S
H2805 N2798 0.984 . S
H2806 N2794 0.984 . S
H2807 N2794 0.985 . S
C2808 C2809 1.363 . S
C2808 C2814 1.379 . S
C2808 N2816 1.356 . S
C2809 C2808 1.363 . S
C2809 C2815 1.363 1_545 S
C2810 C2811 1.363 . S
C2810 C2815 1.379 . S
C2810 N2817 1.356 . S
C2811 C2810 1.363 . S
C2811 C2814 1.363 1_565 S
N2812 C2814 1.356 . S
N2812 H2824 0.984 . S
N2812 H2825 0.985 . S
N2813 C2815 1.356 . S
N2813 H2818 0.984 . S
N2813 H2819 0.985 . S
C2814 C2808 1.379 . S
C2814 C2811 1.363 1_545 S
C2814 N2812 1.356 . S
C2815 C2809 1.363 1_565 S
C2815 C2810 1.379 . S
C2815 N2813 1.356 . S
N2816 C2808 1.356 . S
N2816 H2822 0.984 . S
N2816 H2823 0.984 . S
N2817 C2810 1.356 . S
N2817 H2820 0.984 . S
N2817 H2821 0.985 . S
H2818 N2813 0.984 . S
H2819 N2813 0.985 . S
H2820 N2817 0.984 . S
H2821 N2817 0.985 . S
H2822 N2816 0.984 . S
H2823 N2816 0.984 . S
H2824 N2812 0.984 . S
H2825 N2812 0.985 . S
C2826 C2827 1.363 1_655 S
C2826 C2832 1.379 . S
C2826 N2834 1.356 . S
C2827 C2826 1.363 1_455 S
C2827 C2833 1.363 . S
C2828 C2829 1.363 1_455 S
C2828 C2833 1.379 . S
C2828 N2835 1.356 . S
C2829 C2828 1.363 1_655 S
C2829 C2832 1.363 . S
N2830 C2832 1.356 . S
N2830 H2842 0.984 . S
N2830 H2843 0.985 . S
N2831 C2833 1.356 . S
N2831 H2836 0.984 . S
N2831 H2837 0.985 . S
C2832 C2826 1.379 . S
C2832 C2829 1.363 . S
C2832 N2830 1.356 . S
C2833 C2827 1.363 . S
C2833 C2828 1.379 . S
C2833 N2831 1.356 . S
N2834 C2826 1.356 . S
N2834 H2840 0.984 . S
N2834 H2841 0.984 . S
N2835 C2828 1.356 . S
N2835 H2838 0.984 . S
N2835 H2839 0.985 . S
H2836 N2831 0.984 . S
H2837 N2831 0.985 . S
H2838 N2835 0.984 . S
H2839 N2835 0.985 . S
H2840 N2834 0.984 . S
H2841 N2834 0.984 . S
H2842 N2830 0.984 . S
H2843 N2830 0.985 . S
C2844 C2845 1.363 . S
C2844 C2850 1.379 . S
C2844 N2852 1.356 . S
C2845 C2844 1.363 . S
C2845 C2851 1.363 . S
C2846 C2847 1.363 . S
C2846 C2851 1.379 . S
C2846 N2853 1.356 . S
C2847 C2846 1.363 . S
C2847 C2850 1.363 . S
N2848 C2850 1.356 . S
N2848 H2860 0.984 . S
N2848 H2861 0.985 . S
N2849 C2851 1.356 . S
N2849 H2854 0.984 . S
N2849 H2855 0.985 . S
C2850 C2844 1.379 . S
C2850 C2847 1.363 . S
C2850 N2848 1.356 . S
C2851 C2845 1.363 . S
C2851 C2846 1.379 . S
C2851 N2849 1.356 . S
N2852 C2844 1.356 . S
N2852 H2858 0.984 . S
N2852 H2859 0.984 . S
N2853 C2846 1.356 . S
N2853 H2856 0.984 . S
N2853 H2857 0.985 . S
H2854 N2849 0.984 . S
H2855 N2849 0.985 . S
H2856 N2853 0.984 . S
H2857 N2853 0.985 . S
H2858 N2852 0.984 . S
H2859 N2852 0.984 . S
H2860 N2848 0.984 . S
H2861 N2848 0.985 . S
C2862 C2863 1.363 . S
C2862 C2868 1.379 . S
C2862 N2870 1.356 . S
C2863 C2862 1.363 . S
C2863 C2869 1.363 . S
C2864 C2865 1.363 . S
C2864 C2869 1.379 . S
C2864 N2871 1.356 . S
C2865 C2864 1.363 . S
C2865 C2868 1.363 . S
N2866 C2868 1.356 . S
N2866 H2878 0.984 . S
N2866 H2879 0.985 . S
N2867 C2869 1.356 . S
N2867 H2872 0.984 . S
N2867 H2873 0.985 . S
C2868 C2862 1.379 . S
C2868 C2865 1.363 . S
C2868 N2866 1.356 . S
C2869 C2863 1.363 . S
C2869 C2864 1.379 . S
C2869 N2867 1.356 . S
N2870 C2862 1.356 . S
N2870 H2876 0.984 . S
N2870 H2877 0.984 . S
N2871 C2864 1.356 . S
N2871 H2874 0.984 . S
N2871 H2875 0.985 . S
H2872 N2867 0.984 . S
H2873 N2867 0.985 . S
H2874 N2871 0.984 . S
H2875 N2871 0.985 . S
H2876 N2870 0.984 . S
H2877 N2870 0.984 . S
H2878 N2866 0.984 . S
H2879 N2866 0.985 . S
C2880 C2881 1.363 . S
C2880 C2886 1.379 . S
C2880 N2888 1.356 . S
C2881 C2880 1.363 . S
C2881 C2887 1.363 . S
C2882 C2883 1.363 . S
C2882 C2887 1.379 . S
C2882 N2889 1.356 . S
C2883 C2882 1.363 . S
C2883 C2886 1.363 . S
N2884 C2886 1.356 . S
N2884 H2896 0.984 . S
N2884 H2897 0.985 . S
N2885 C2887 1.356 . S
N2885 H2890 0.984 . S
N2885 H2891 0.985 . S
C2886 C2880 1.379 . S
C2886 C2883 1.363 . S
C2886 N2884 1.356 . S
C2887 C2881 1.363 . S
C2887 C2882 1.379 . S
C2887 N2885 1.356 . S
N2888 C2880 1.356 . S
N2888 H2894 0.984 . S
N2888 H2895 0.984 . S
N2889 C2882 1.356 . S
N2889 H2892 0.984 . S
N2889 H2893 0.985 . S
H2890 N2885 0.984 . S
H2891 N2885 0.985 . S
H2892 N2889 0.984 . S
H2893 N2889 0.985 . S
H2894 N2888 0.984 . S
H2895 N2888 0.984 . S
H2896 N2884 0.984 . S
H2897 N2884 0.985 . S
C2898 C2899 1.363 . S
C2898 C2904 1.379 . S
C2898 N2906 1.356 . S
C2899 C2898 1.363 . S
C2899 C2905 1.363 . S
C2900 C2901 1.363 . S
C2900 C2905 1.379 . S
C2900 N2907 1.356 . S
C2901 C2900 1.363 . S
C2901 C2904 1.363 . S
N2902 C2904 1.356 . S
N2902 H2914 0.984 . S
N2902 H2915 0.985 1_554 S
N2903 C2905 1.356 . S
N2903 H2908 0.984 . S
N2903 H2909 0.985 . S
C2904 C2898 1.379 . S
C2904 C2901 1.363 . S
C2904 N2902 1.356 . S
C2905 C2899 1.363 . S
C2905 C2900 1.379 . S
C2905 N2903 1.356 . S
N2906 C2898 1.356 . S
N2906 H2912 0.984 . S
N2906 H2913 0.984 . S
N2907 C2900 1.356 . S
N2907 H2910 0.984 1_554 S
N2907 H2911 0.985 . S
H2908 N2903 0.984 . S
H2909 N2903 0.985 . S
H2910 N2907 0.984 1_556 S
H2911 N2907 0.985 . S
H2912 N2906 0.984 . S
H2913 N2906 0.984 . S
H2914 N2902 0.984 . S
H2915 N2902 0.985 1_556 S
C2916 C2917 1.363 . S
C2916 C2922 1.379 . S
C2916 N2924 1.356 . S
C2917 C2916 1.363 . S
C2917 C2923 1.363 . S
C2918 C2919 1.363 . S
C2918 C2923 1.379 . S
C2918 N2925 1.356 . S
C2919 C2918 1.363 . S
C2919 C2922 1.363 . S
N2920 C2922 1.356 . S
N2920 H2932 0.984 . S
N2920 H2933 0.985 1_554 S
N2921 C2923 1.356 . S
N2921 H2926 0.984 . S
N2921 H2927 0.985 . S
C2922 C2916 1.379 . S
C2922 C2919 1.363 . S
C2922 N2920 1.356 . S
C2923 C2917 1.363 . S
C2923 C2918 1.379 . S
C2923 N2921 1.356 . S
N2924 C2916 1.356 . S
N2924 H2930 0.984 . S
N2924 H2931 0.984 . S
N2925 C2918 1.356 . S
N2925 H2928 0.984 1_554 S
N2925 H2929 0.985 . S
H2926 N2921 0.984 . S
H2927 N2921 0.985 . S
H2928 N2925 0.984 1_556 S
H2929 N2925 0.985 . S
H2930 N2924 0.984 . S
H2931 N2924 0.984 . S
H2932 N2920 0.984 . S
H2933 N2920 0.985 1_556 S
C2934 C2935 1.363 . S
C2934 C2940 1.379 . S
C2934 N2942 1.356 . S
C2935 C2934 1.363 . S
C2935 C2941 1.363 . S
C2936 C2937 1.363 . S
C2936 C2941 1.379 . S
C2936 N2943 1.356 . S
C2937 C2936 1.363 . S
C2937 C2940 1.363 . S
N2938 C2940 1.356 . S
N2938 H2950 0.984 . S
N2938 H2951 0.985 1_554 S
N2939 C2941 1.356 . S
N2939 H2944 0.984 . S
N2939 H2945 0.985 . S
C2940 C2934 1.379 . S
C2940 C2937 1.363 . S
C2940 N2938 1.356 . S
C2941 C2935 1.363 . S
C2941 C2936 1.379 . S
C2941 N2939 1.356 . S
N2942 C2934 1.356 . S
N2942 H2948 0.984 . S
N2942 H2949 0.984 . S
N2943 C2936 1.356 . S
N2943 H2946 0.984 1_554 S
N2943 H2947 0.985 . S
H2944 N2939 0.984 . S
H2945 N2939 0.985 . S
H2946 N2943 0.984 1_556 S
H2947 N2943 0.985 . S
H2948 N2942 0.984 . S
H2949 N2942 0.984 . S
H2950 N2938 0.984 . S
H2951 N2938 0.985 1_556 S
C2952 C2953 1.363 . S
C2952 C2958 1.379 . S
C2952 N2960 1.356 . S
C2953 C2952 1.363 . S
C2953 C2959 1.363 . S
C2954 C2955 1.363 . S
C2954 C2959 1.379 . S
C2954 N2961 1.356 . S
C2955 C2954 1.363 . S
C2955 C2958 1.363 . S
N2956 C2958 1.356 . S
N2956 H2968 0.984 . S
N2956 H2969 0.985 1_556 S
N2957 C2959 1.356 . S
N2957 H2962 0.984 . S
N2957 H2963 0.985 . S
C2958 C2952 1.379 . S
C2958 C2955 1.363 . S
C2958 N2956 1.356 . S
C2959 C2953 1.363 . S
C2959 C2954 1.379 . S
C2959 N2957 1.356 . S
N2960 C2952 1.356 . S
N2960 H2966 0.984 . S
N2960 H2967 0.984 . S
N2961 C2954 1.356 . S
N2961 H2964 0.984 1_556 S
N2961 H2965 0.985 . S
H2962 N2957 0.984 . S
H2963 N2957 0.985 . S
H2964 N2961 0.984 1_554 S
H2965 N2961 0.985 . S
H2966 N2960 0.984 . S
H2967 N2960 0.984 . S
H2968 N2956 0.984 . S
H2969 N2956 0.985 1_554 S
C2970 C2971 1.363 . S
C2970 C2976 1.379 . S
C2970 N2978 1.356 . S
C2971 C2970 1.363 . S
C2971 C2977 1.363 . S
C2972 C2973 1.363 . S
C2972 C2977 1.379 . S
C2972 N2979 1.356 . S
C2973 C2972 1.363 . S
C2973 C2976 1.363 . S
N2974 C2976 1.356 . S
N2974 H2986 0.984 . S
N2974 H2987 0.985 . S
N2975 C2977 1.356 . S
N2975 H2980 0.984 1_556 S
N2975 H2981 0.985 . S
C2976 C2970 1.379 . S
C2976 C2973 1.363 . S
C2976 N2974 1.356 . S
C2977 C2971 1.363 . S
C2977 C2972 1.379 . S
C2977 N2975 1.356 . S
N2978 C2970 1.356 . S
N2978 H2984 0.984 . S
N2978 H2985 0.984 1_556 S
N2979 C2972 1.356 . S
N2979 H2982 0.984 . S
N2979 H2983 0.985 . S
H2980 N2975 0.984 1_554 S
H2981 N2975 0.985 . S
H2982 N2979 0.984 . S
H2983 N2979 0.985 . S
H2984 N2978 0.984 . S
H2985 N2978 0.984 1_554 S
H2986 N2974 0.984 . S
H2987 N2974 0.985 . S
C2988 C2989 1.363 . S
C2988 C2994 1.379 . S
C2988 N2996 1.356 . S
C2989 C2988 1.363 . S
C2989 C2995 1.363 . S
C2990 C2991 1.363 . S
C2990 C2995 1.379 . S
C2990 N2997 1.356 . S
C2991 C2990 1.363 . S
C2991 C2994 1.363 . S
N2992 C2994 1.356 . S
N2992 H3004 0.984 . S
N2992 H3005 0.985 . S
N2993 C2995 1.356 . S
N2993 H2998 0.984 1_556 S
N2993 H2999 0.985 . S
C2994 C2988 1.379 . S
C2994 C2991 1.363 . S
C2994 N2992 1.356 . S
C2995 C2989 1.363 . S
C2995 C2990 1.379 . S
C2995 N2993 1.356 . S
N2996 C2988 1.356 . S
N2996 H3002 0.984 . S
N2996 H3003 0.984 1_556 S
N2997 C2990 1.356 . S
N2997 H3000 0.984 . S
N2997 H3001 0.985 . S
H2998 N2993 0.984 1_554 S
H2999 N2993 0.985 . S
H3000 N2997 0.984 . S
H3001 N2997 0.985 . S
H3002 N2996 0.984 . S
H3003 N2996 0.984 1_554 S
H3004 N2992 0.984 . S
H3005 N2992 0.985 . S
C3006 C3007 1.363 . S
C3006 C3012 1.379 . S
C3006 N3014 1.356 . S
C3007 C3006 1.363 . S
C3007 C3013 1.363 . S
C3008 C3009 1.363 . S
C3008 C3013 1.379 . S
C3008 N3015 1.356 . S
C3009 C3008 1.363 . S
C3009 C3012 1.363 . S
N3010 C3012 1.356 . S
N3010 H3022 0.984 . S
N3010 H3023 0.985 . S
N3011 C3013 1.356 . S
N3011 H3016 0.984 . S
N3011 H3017 0.985 . S
C3012 C3006 1.379 . S
C3012 C3009 1.363 . S
C3012 N3010 1.356 . S
C3013 C3007 1.363 . S
C3013 C3008 1.379 . S
C3013 N3011 1.356 . S
N3014 C3006 1.356 . S
N3014 H3020 0.984 . S
N3014 H3021 0.984 . S
N3015 C3008 1.356 . S
N3015 H3018 0.984 . S
N3015 H3019 0.985 . S
H3016 N3011 0.984 . S
H3017 N3011 0.985 . S
H3018 N3015 0.984 . S
H3019 N3015 0.985 . S
H3020 N3014 0.984 . S
H3021 N3014 0.984 . S
H3022 N3010 0.984 . S
H3023 N3010 0.985 . S
C3024 C3025 1.363 . S
C3024 C3030 1.379 . S
C3024 N3032 1.356 . S
C3025 C3024 1.363 . S
C3025 C3031 1.363 . S
C3026 C3027 1.363 . S
C3026 C3031 1.379 . S
C3026 N3033 1.356 . S
C3027 C3026 1.363 . S
C3027 C3030 1.363 . S
N3028 C3030 1.356 . S
N3028 H3040 0.984 . S
N3028 H3041 0.985 . S
N3029 C3031 1.356 . S
N3029 H3034 0.984 . S
N3029 H3035 0.985 . S
C3030 C3024 1.379 . S
C3030 C3027 1.363 . S
C3030 N3028 1.356 . S
C3031 C3025 1.363 . S
C3031 C3026 1.379 . S
C3031 N3029 1.356 . S
N3032 C3024 1.356 . S
N3032 H3038 0.984 . S
N3032 H3039 0.984 . S
N3033 C3026 1.356 . S
N3033 H3036 0.984 . S
N3033 H3037 0.985 . S
H3034 N3029 0.984 . S
H3035 N3029 0.985 . S
H3036 N3033 0.984 . S
H3037 N3033 0.985 . S
H3038 N3032 0.984 . S
H3039 N3032 0.984 . S
H3040 N3028 0.984 . S
H3041 N3028 0.985 . S
C3042 C3043 1.363 . S
C3042 C3048 1.379 . S
C3042 N3050 1.356 . S
C3043 C3042 1.363 . S
C3043 C3049 1.363 . S
C3044 C3045 1.363 . S
C3044 C3049 1.379 . S
C3044 N3051 1.356 . S
C3045 C3044 1.363 . S
C3045 C3048 1.363 . S
N3046 C3048 1.356 . S
N3046 H3058 0.984 . S
N3046 H3059 0.985 . S
N3047 C3049 1.356 . S
N3047 H3052 0.984 . S
N3047 H3053 0.985 . S
C3048 C3042 1.379 . S
C3048 C3045 1.363 . S
C3048 N3046 1.356 . S
C3049 C3043 1.363 . S
C3049 C3044 1.379 . S
C3049 N3047 1.356 . S
N3050 C3042 1.356 . S
N3050 H3056 0.984 . S
N3050 H3057 0.984 . S
N3051 C3044 1.356 . S
N3051 H3054 0.984 . S
N3051 H3055 0.985 . S
H3052 N3047 0.984 . S
H3053 N3047 0.985 . S
H3054 N3051 0.984 . S
H3055 N3051 0.985 . S
H3056 N3050 0.984 . S
H3057 N3050 0.984 . S
H3058 N3046 0.984 . S
H3059 N3046 0.985 . S
C3060 C3061 1.363 . S
C3060 C3066 1.379 . S
C3060 N3068 1.356 . S
C3061 C3060 1.363 . S
C3061 C3067 1.363 . S
C3062 C3063 1.363 . S
C3062 C3067 1.379 . S
C3062 N3069 1.356 . S
C3063 C3062 1.363 . S
C3063 C3066 1.363 . S
N3064 C3066 1.356 . S
N3064 H3076 0.984 . S
N3064 H3077 0.985 . S
N3065 C3067 1.356 . S
N3065 H3070 0.984 . S
N3065 H3071 0.985 1_554 S
C3066 C3060 1.379 . S
C3066 C3063 1.363 . S
C3066 N3064 1.356 . S
C3067 C3061 1.363 . S
C3067 C3062 1.379 . S
C3067 N3065 1.356 . S
N3068 C3060 1.356 . S
N3068 H3074 0.984 . S
N3068 H3075 0.984 . S
N3069 C3062 1.356 . S
N3069 H3072 0.984 . S
N3069 H3073 0.985 . S
H3070 N3065 0.984 . S
H3071 N3065 0.985 1_556 S
H3072 N3069 0.984 . S
H3073 N3069 0.985 . S
H3074 N3068 0.984 . S
H3075 N3068 0.984 . S
H3076 N3064 0.984 . S
H3077 N3064 0.985 . S
C3078 C3079 1.363 . S
C3078 C3084 1.379 . S
C3078 N3086 1.356 . S
C3079 C3078 1.363 . S
C3079 C3085 1.363 . S
C3080 C3081 1.363 . S
C3080 C3085 1.379 . S
C3080 N3087 1.356 . S
C3081 C3080 1.363 . S
C3081 C3084 1.363 . S
N3082 C3084 1.356 . S
N3082 H3094 0.984 . S
N3082 H3095 0.985 . S
N3083 C3085 1.356 . S
N3083 H3088 0.984 . S
N3083 H3089 0.985 . S
C3084 C3078 1.379 . S
C3084 C3081 1.363 . S
C3084 N3082 1.356 . S
C3085 C3079 1.363 . S
C3085 C3080 1.379 . S
C3085 N3083 1.356 . S
N3086 C3078 1.356 . S
N3086 H3092 0.984 . S
N3086 H3093 0.984 . S
N3087 C3080 1.356 . S
N3087 H3090 0.984 . S
N3087 H3091 0.985 . S
H3088 N3083 0.984 . S
H3089 N3083 0.985 . S
H3090 N3087 0.984 . S
H3091 N3087 0.985 . S
H3092 N3086 0.984 . S
H3093 N3086 0.984 . S
H3094 N3082 0.984 . S
H3095 N3082 0.985 . S
C3096 C3097 1.363 . S
C3096 C3102 1.379 . S
C3096 N3104 1.356 . S
C3097 C3096 1.363 . S
C3097 C3103 1.363 . S
C3098 C3099 1.363 . S
C3098 C3103 1.379 . S
C3098 N3105 1.356 . S
C3099 C3098 1.363 . S
C3099 C3102 1.363 . S
N3100 C3102 1.356 . S
N3100 H3112 0.984 . S
N3100 H3113 0.985 . S
N3101 C3103 1.356 . S
N3101 H3106 0.984 . S
N3101 H3107 0.985 1_554 S
C3102 C3096 1.379 . S
C3102 C3099 1.363 . S
C3102 N3100 1.356 . S
C3103 C3097 1.363 . S
C3103 C3098 1.379 . S
C3103 N3101 1.356 . S
N3104 C3096 1.356 . S
N3104 H3110 0.984 . S
N3104 H3111 0.984 . S
N3105 C3098 1.356 . S
N3105 H3108 0.984 . S
N3105 H3109 0.985 . S
H3106 N3101 0.984 . S
H3107 N3101 0.985 1_556 S
H3108 N3105 0.984 . S
H3109 N3105 0.985 . S
H3110 N3104 0.984 . S
H3111 N3104 0.984 . S
H3112 N3100 0.984 . S
H3113 N3100 0.985 . S
C3114 C3115 1.363 . S
C3114 C3120 1.379 . S
C3114 N3122 1.356 . S
C3115 C3114 1.363 . S
C3115 C3121 1.363 . S
C3116 C3117 1.363 . S
C3116 C3121 1.379 . S
C3116 N3123 1.356 . S
C3117 C3116 1.363 . S
C3117 C3120 1.363 . S
N3118 C3120 1.356 . S
N3118 H3130 0.984 . S
N3118 H3131 0.985 . S
N3119 C3121 1.356 . S
N3119 H3124 0.984 . S
N3119 H3125 0.985 . S
C3120 C3114 1.379 . S
C3120 C3117 1.363 . S
C3120 N3118 1.356 . S
C3121 C3115 1.363 . S
C3121 C3116 1.379 . S
C3121 N3119 1.356 . S
N3122 C3114 1.356 . S
N3122 H3128 0.984 . S
N3122 H3129 0.984 . S
N3123 C3116 1.356 . S
N3123 H3126 0.984 . S
N3123 H3127 0.985 . S
H3124 N3119 0.984 . S
H3125 N3119 0.985 . S
H3126 N3123 0.984 . S
H3127 N3123 0.985 . S
H3128 N3122 0.984 . S
H3129 N3122 0.984 . S
H3130 N3118 0.984 . S
H3131 N3118 0.985 . S
C3132 C3133 1.363 . S
C3132 C3138 1.379 . S
C3132 N3140 1.356 . S
C3133 C3132 1.363 . S
C3133 C3139 1.363 . S
C3134 C3135 1.363 . S
C3134 C3139 1.379 . S
C3134 N3141 1.356 . S
C3135 C3134 1.363 . S
C3135 C3138 1.363 . S
N3136 C3138 1.356 . S
N3136 H3148 0.984 . S
N3136 H3149 0.985 . S
N3137 C3139 1.356 . S
N3137 H3142 0.984 . S
N3137 H3143 0.985 . S
C3138 C3132 1.379 . S
C3138 C3135 1.363 . S
C3138 N3136 1.356 . S
C3139 C3133 1.363 . S
C3139 C3134 1.379 . S
C3139 N3137 1.356 . S
N3140 C3132 1.356 . S
N3140 H3146 0.984 . S
N3140 H3147 0.984 . S
N3141 C3134 1.356 . S
N3141 H3144 0.984 . S
N3141 H3145 0.985 . S
H3142 N3137 0.984 . S
H3143 N3137 0.985 . S
H3144 N3141 0.984 . S
H3145 N3141 0.985 . S
H3146 N3140 0.984 . S
H3147 N3140 0.984 . S
H3148 N3136 0.984 . S
H3149 N3136 0.985 . S
C3150 C3151 1.363 . S
C3150 C3156 1.379 . S
C3150 N3158 1.356 . S
C3151 C3150 1.363 . S
C3151 C3157 1.363 . S
C3152 C3153 1.363 . S
C3152 C3157 1.379 . S
C3152 N3159 1.356 . S
C3153 C3152 1.363 . S
C3153 C3156 1.363 . S
N3154 C3156 1.356 . S
N3154 H3166 0.984 . S
N3154 H3167 0.985 . S
N3155 C3157 1.356 . S
N3155 H3160 0.984 . S
N3155 H3161 0.985 . S
C3156 C3150 1.379 . S
C3156 C3153 1.363 . S
C3156 N3154 1.356 . S
C3157 C3151 1.363 . S
C3157 C3152 1.379 . S
C3157 N3155 1.356 . S
N3158 C3150 1.356 . S
N3158 H3164 0.984 . S
N3158 H3165 0.984 . S
N3159 C3152 1.356 . S
N3159 H3162 0.984 . S
N3159 H3163 0.985 . S
H3160 N3155 0.984 . S
H3161 N3155 0.985 . S
H3162 N3159 0.984 . S
H3163 N3159 0.985 . S
H3164 N3158 0.984 . S
H3165 N3158 0.984 . S
H3166 N3154 0.984 . S
H3167 N3154 0.985 . S
C3168 C3169 1.363 . S
C3168 C3174 1.379 . S
C3168 N3176 1.356 . S
C3169 C3168 1.363 . S
C3169 C3175 1.363 . S
C3170 C3171 1.363 . S
C3170 C3175 1.379 . S
C3170 N3177 1.356 . S
C3171 C3170 1.363 . S
C3171 C3174 1.363 . S
N3172 C3174 1.356 . S
N3172 H3184 0.984 . S
N3172 H3185 0.985 . S
N3173 C3175 1.356 . S
N3173 H3178 0.984 . S
N3173 H3179 0.985 . S
C3174 C3168 1.379 . S
C3174 C3171 1.363 . S
C3174 N3172 1.356 . S
C3175 C3169 1.363 . S
C3175 C3170 1.379 . S
C3175 N3173 1.356 . S
N3176 C3168 1.356 . S
N3176 H3182 0.984 . S
N3176 H3183 0.984 . S
N3177 C3170 1.356 . S
N3177 H3180 0.984 . S
N3177 H3181 0.985 1_556 S
H3178 N3173 0.984 . S
H3179 N3173 0.985 . S
H3180 N3177 0.984 . S
H3181 N3177 0.985 1_554 S
H3182 N3176 0.984 . S
H3183 N3176 0.984 . S
H3184 N3172 0.984 . S
H3185 N3172 0.985 . S
C3186 C3187 1.363 . S
C3186 C3192 1.379 . S
C3186 N3194 1.356 . S
C3187 C3186 1.363 . S
C3187 C3193 1.363 . S
C3188 C3189 1.363 . S
C3188 C3193 1.379 . S
C3188 N3195 1.356 . S
C3189 C3188 1.363 . S
C3189 C3192 1.363 . S
N3190 C3192 1.356 . S
N3190 H3202 0.984 . S
N3190 H3203 0.985 . S
N3191 C3193 1.356 . S
N3191 H3196 0.984 . S
N3191 H3197 0.985 1_556 S
C3192 C3186 1.379 . S
C3192 C3189 1.363 . S
C3192 N3190 1.356 . S
C3193 C3187 1.363 . S
C3193 C3188 1.379 . S
C3193 N3191 1.356 . S
N3194 C3186 1.356 . S
N3194 H3200 0.984 . S
N3194 H3201 0.984 . S
N3195 C3188 1.356 . S
N3195 H3198 0.984 . S
N3195 H3199 0.985 . S
H3196 N3191 0.984 . S
H3197 N3191 0.985 1_554 S
H3198 N3195 0.984 . S
H3199 N3195 0.985 . S
H3200 N3194 0.984 . S
H3201 N3194 0.984 . S
H3202 N3190 0.984 . S
H3203 N3190 0.985 . S
C3204 C3205 1.363 . S
C3204 C3210 1.379 . S
C3204 N3212 1.356 . S
C3205 C3204 1.363 . S
C3205 C3211 1.363 . S
C3206 C3207 1.363 . S
C3206 C3211 1.379 . S
C3206 N3213 1.356 . S
C3207 C3206 1.363 . S
C3207 C3210 1.363 . S
N3208 C3210 1.356 . S
N3208 H3220 0.984 . S
N3208 H3221 0.985 . S
N3209 C3211 1.356 . S
N3209 H3214 0.984 . S
N3209 H3215 0.985 . S
C3210 C3204 1.379 . S
C3210 C3207 1.363 . S
C3210 N3208 1.356 . S
C3211 C3205 1.363 . S
C3211 C3206 1.379 . S
C3211 N3209 1.356 . S
N3212 C3204 1.356 . S
N3212 H3218 0.984 . S
N3212 H3219 0.984 . S
N3213 C3206 1.356 . S
N3213 H3216 0.984 . S
N3213 H3217 0.971 1_556 S
H3214 N3209 0.984 . S
H3215 N3209 0.985 . S
H3216 N3213 0.984 . S
H3217 N3213 0.971 1_554 S
H3218 N3212 0.984 . S
H3219 N3212 0.984 . S
H3220 N3208 0.984 . S
H3221 N3208 0.985 . S
C3222 C3223 1.363 . S
C3222 C3228 1.379 . S
C3222 N3230 1.356 . S
C3223 C3222 1.363 . S
C3223 C3229 1.363 . S
C3224 C3225 1.363 . S
C3224 C3229 1.379 . S
C3224 N3231 1.356 . S
C3225 C3224 1.363 . S
C3225 C3228 1.363 . S
N3226 C3228 1.356 . S
N3226 H3238 0.984 . S
N3226 H3239 0.985 . S
N3227 C3229 1.356 . S
N3227 H3232 0.984 . S
N3227 H3233 0.985 . S
C3228 C3222 1.379 . S
C3228 C3225 1.363 . S
C3228 N3226 1.356 . S
C3229 C3223 1.363 . S
C3229 C3224 1.379 . S
C3229 N3227 1.356 . S
N3230 C3222 1.356 . S
N3230 H3236 0.984 . S
N3230 H3237 0.984 . S
N3231 C3224 1.356 . S
N3231 H3234 0.984 . S
N3231 H3235 0.985 . S
H3232 N3227 0.984 . S
H3233 N3227 0.985 . S
H3234 N3231 0.984 . S
H3235 N3231 0.985 . S
H3236 N3230 0.984 . S
H3237 N3230 0.984 . S
H3238 N3226 0.984 . S
H3239 N3226 0.985 . S
C3240 C3241 1.363 . S
C3240 C3246 1.379 . S
C3240 N3248 1.356 . S
C3241 C3240 1.363 . S
C3241 C3247 1.363 . S
C3242 C3243 1.363 . S
C3242 C3247 1.379 . S
C3242 N3249 1.356 . S
C3243 C3242 1.363 . S
C3243 C3246 1.363 . S
N3244 C3246 1.356 . S
N3244 H3256 0.984 . S
N3244 H3257 0.985 . S
N3245 C3247 1.356 . S
N3245 H3250 0.984 . S
N3245 H3251 0.985 . S
C3246 C3240 1.379 . S
C3246 C3243 1.363 . S
C3246 N3244 1.356 . S
C3247 C3241 1.363 . S
C3247 C3242 1.379 . S
C3247 N3245 1.356 . S
N3248 C3240 1.356 . S
N3248 H3254 0.984 . S
N3248 H3255 0.984 . S
N3249 C3242 1.356 . S
N3249 H3252 0.984 . S
N3249 H3253 0.985 . S
H3250 N3245 0.984 . S
H3251 N3245 0.985 . S
H3252 N3249 0.984 . S
H3253 N3249 0.985 . S
H3254 N3248 0.984 . S
H3255 N3248 0.984 . S
H3256 N3244 0.984 . S
H3257 N3244 0.985 . S
C3258 C3259 1.363 . S
C3258 C3264 1.379 . S
C3258 N3266 1.356 . S
C3259 C3258 1.363 . S
C3259 C3265 1.363 . S
C3260 C3261 1.363 . S
C3260 C3265 1.379 . S
C3260 N3267 1.356 . S
C3261 C3260 1.363 . S
C3261 C3264 1.363 . S
N3262 C3264 1.356 . S
N3262 H3274 0.984 . S
N3262 H3275 0.985 . S
N3263 C3265 1.356 . S
N3263 H3268 0.984 . S
N3263 H3269 0.985 . S
C3264 C3258 1.379 . S
C3264 C3261 1.363 . S
C3264 N3262 1.356 . S
C3265 C3259 1.363 . S
C3265 C3260 1.379 . S
C3265 N3263 1.356 . S
N3266 C3258 1.356 . S
N3266 H3272 0.984 . S
N3266 H3273 0.984 . S
N3267 C3260 1.356 . S
N3267 H3270 0.984 . S
N3267 H3271 0.985 . S
H3268 N3263 0.984 . S
H3269 N3263 0.985 . S
H3270 N3267 0.984 . S
H3271 N3267 0.985 . S
H3272 N3266 0.984 . S
H3273 N3266 0.984 . S
H3274 N3262 0.984 . S
H3275 N3262 0.985 . S
C3276 C3277 1.363 . S
C3276 C3282 1.379 1_655 S
C3276 N3284 1.356 . S
C3277 C3276 1.363 . S
C3277 C3283 1.363 . S
C3278 C3279 1.363 . S
C3278 C3283 1.379 1_455 S
C3278 N3285 1.356 . S
C3279 C3278 1.363 . S
C3279 C3282 1.363 . S
N3280 C3282 1.356 . S
N3280 H3292 0.984 . S
N3280 H3293 0.985 . S
N3281 C3283 1.356 . S
N3281 H3286 0.984 . S
N3281 H3287 0.985 . S
C3282 C3276 1.379 1_455 S
C3282 C3279 1.363 . S
C3282 N3280 1.356 . S
C3283 C3277 1.363 . S
C3283 C3278 1.379 1_655 S
C3283 N3281 1.356 . S
N3284 C3276 1.356 . S
N3284 H3290 0.984 . S
N3284 H3291 0.984 . S
N3285 C3278 1.356 . S
N3285 H3288 0.984 . S
N3285 H3289 0.985 . S
H3286 N3281 0.984 . S
H3287 N3281 0.985 . S
H3288 N3285 0.984 . S
H3289 N3285 0.985 . S
H3290 N3284 0.984 . S
H3291 N3284 0.984 . S
H3292 N3280 0.984 . S
H3293 N3280 0.985 . S
C3294 C3295 1.363 . S
C3294 C3300 1.379 . S
C3294 N3302 1.356 . S
C3295 C3294 1.363 . S
C3295 C3301 1.363 . S
C3296 C3297 1.363 . S
C3296 C3301 1.379 . S
C3296 N3303 1.356 . S
C3297 C3296 1.363 . S
C3297 C3300 1.363 . S
N3298 C3300 1.356 . S
N3298 H3310 0.984 . S
N3298 H3311 0.985 . S
N3299 C3301 1.356 . S
N3299 H3304 0.984 . S
N3299 H3305 0.985 . S
C3300 C3294 1.379 . S
C3300 C3297 1.363 . S
C3300 N3298 1.356 . S
C3301 C3295 1.363 . S
C3301 C3296 1.379 . S
C3301 N3299 1.356 . S
N3302 C3294 1.356 . S
N3302 H3308 0.984 . S
N3302 H3309 0.984 . S
N3303 C3296 1.356 . S
N3303 H3306 0.984 . S
N3303 H3307 0.985 . S
H3304 N3299 0.984 . S
H3305 N3299 0.985 . S
H3306 N3303 0.984 . S
H3307 N3303 0.985 . S
H3308 N3302 0.984 . S
H3309 N3302 0.984 . S
H3310 N3298 0.984 . S
H3311 N3298 0.985 . S
C3312 C3313 1.363 . S
C3312 C3318 1.379 1_545 S
C3312 N3320 1.356 . S
C3313 C3312 1.363 . S
C3313 C3319 1.363 . S
C3314 C3315 1.363 . S
C3314 C3319 1.379 1_565 S
C3314 N3321 1.356 . S
C3315 C3314 1.363 . S
C3315 C3318 1.363 . S
N3316 C3318 1.356 . S
N3316 H3328 0.984 . S
N3316 H3329 0.985 . S
N3317 C3319 1.356 . S
N3317 H3322 0.984 . S
N3317 H3323 0.985 . S
C3318 C3312 1.379 1_565 S
C3318 C3315 1.363 . S
C3318 N3316 1.356 . S
C3319 C3313 1.363 . S
C3319 C3314 1.379 1_545 S
C3319 N3317 1.356 . S
N3320 C3312 1.356 . S
N3320 H3326 0.984 . S
N3320 H3327 0.984 . S
N3321 C3314 1.356 . S
N3321 H3324 0.984 . S
N3321 H3325 0.985 . S
H3322 N3317 0.984 . S
H3323 N3317 0.985 . S
H3324 N3321 0.984 . S
H3325 N3321 0.985 . S
H3326 N3320 0.984 . S
H3327 N3320 0.984 . S
H3328 N3316 0.984 . S
H3329 N3316 0.985 . S
C3330 C3331 1.363 . S
C3330 C3336 1.379 1_545 S
C3330 N3338 1.356 . S
C3331 C3330 1.363 . S
C3331 C3337 1.363 . S
C3332 C3333 1.363 . S
C3332 C3337 1.379 1_565 S
C3332 N3339 1.356 . S
C3333 C3332 1.363 . S
C3333 C3336 1.363 . S
N3334 C3336 1.356 . S
N3334 H3346 0.984 . S
N3334 H3347 0.985 . S
N3335 C3337 1.356 . S
N3335 H3340 0.984 . S
N3335 H3341 0.985 . S
C3336 C3330 1.379 1_565 S
C3336 C3333 1.363 . S
C3336 N3334 1.356 . S
C3337 C3331 1.363 . S
C3337 C3332 1.379 1_545 S
C3337 N3335 1.356 . S
N3338 C3330 1.356 . S
N3338 H3344 0.984 . S
N3338 H3345 0.984 . S
N3339 C3332 1.356 . S
N3339 H3342 0.984 . S
N3339 H3343 0.985 . S
H3340 N3335 0.984 . S
H3341 N3335 0.985 . S
H3342 N3339 0.984 . S
H3343 N3339 0.985 . S
H3344 N3338 0.984 . S
H3345 N3338 0.984 . S
H3346 N3334 0.984 . S
H3347 N3334 0.985 . S
C3348 C3349 1.363 . S
C3348 C3354 1.379 1_655 S
C3348 N3356 1.356 . S
C3349 C3348 1.363 . S
C3349 C3355 1.363 . S
C3350 C3351 1.363 . S
C3350 C3355 1.379 1_455 S
C3350 N3357 1.356 . S
C3351 C3350 1.363 . S
C3351 C3354 1.363 . S
N3352 C3354 1.356 . S
N3352 H3364 0.984 . S
N3352 H3365 0.985 . S
N3353 C3355 1.356 . S
N3353 H3358 0.984 . S
N3353 H3359 0.985 . S
C3354 C3348 1.379 1_455 S
C3354 C3351 1.363 . S
C3354 N3352 1.356 . S
C3355 C3349 1.363 . S
C3355 C3350 1.379 1_655 S
C3355 N3353 1.356 . S
N3356 C3348 1.356 . S
N3356 H3362 0.984 . S
N3356 H3363 0.984 . S
N3357 C3350 1.356 . S
N3357 H3360 0.984 . S
N3357 H3361 0.985 . S
H3358 N3353 0.984 . S
H3359 N3353 0.985 . S
H3360 N3357 0.984 . S
H3361 N3357 0.985 . S
H3362 N3356 0.984 . S
H3363 N3356 0.984 . S
H3364 N3352 0.984 . S
H3365 N3352 0.985 . S
C3366 C3367 1.363 . S
C3366 C3372 1.379 . S
C3366 N3374 1.356 . S
C3367 C3366 1.363 . S
C3367 C3373 1.363 . S
C3368 C3369 1.363 . S
C3368 C3373 1.379 . S
C3368 N3375 1.356 . S
C3369 C3368 1.363 . S
C3369 C3372 1.363 . S
N3370 C3372 1.356 . S
N3370 H3382 0.984 . S
N3370 H3383 0.985 . S
N3371 C3373 1.356 . S
N3371 H3376 0.984 . S
N3371 H3377 0.985 . S
C3372 C3366 1.379 . S
C3372 C3369 1.363 . S
C3372 N3370 1.356 . S
C3373 C3367 1.363 . S
C3373 C3368 1.379 . S
C3373 N3371 1.356 . S
N3374 C3366 1.356 . S
N3374 H3380 0.984 . S
N3374 H3381 0.984 . S
N3375 C3368 1.356 . S
N3375 H3378 0.984 . S
N3375 H3379 0.985 . S
H3376 N3371 0.984 . S
H3377 N3371 0.985 . S
H3378 N3375 0.984 . S
H3379 N3375 0.985 . S
H3380 N3374 0.984 . S
H3381 N3374 0.984 . S
H3382 N3370 0.984 . S
H3383 N3370 0.985 . S
C1441 C10 2.860 . S
C1443 C286 2.700 . S
C1459 C326 2.700 . S
C1461 C50 2.860 . S
C1477 C246 2.700 . S
C1479 C90 2.860 . S
C1495 C446 2.700 . S
C1497 C130 2.860 . S
C1513 C170 2.860 . S
C1515 C366 2.700 . S
C1531 C210 2.860 . S
C1533 C406 2.700 . S
C1549 C55 2.700 . S
C1551 C259 2.860 . S
C1567 C299 2.860 . S
C1569 C95 2.700 . S
C1585 C15 2.700 . S
C1587 C339 2.860 . S
C1603 C215 2.700 . S
C1605 C379 2.860 . S
C1621 C419 2.860 . S
C1623 C135 2.700 . S
C1639 C459 2.860 . S
C1641 C175 2.700 . S
C1657 C490 2.860 . S
C1659 C766 2.700 . S
C1675 C806 2.700 . S
C1677 C530 2.860 . S
C1693 C726 2.700 . S
C1695 C570 2.860 . S
C1711 C610 2.860 . S
C1713 C926 2.700 . S
C1729 C846 2.700 . S
C1731 C650 2.860 . S
C1747 C690 2.860 . S
C1749 C886 2.700 . S
C1765 C739 2.860 . S
C1767 C535 2.700 . S
C1783 C575 2.700 . S
C1785 C779 2.860 . S
C1801 C819 2.860 . S
C1803 C495 2.700 . S
C1819 C695 2.700 . S
C1821 C859 2.860 . S
C1837 C615 2.700 . S
C1839 C899 2.860 . S
C1855 C939 2.860 . S
C1857 C655 2.700 . S
C1873 C970 2.860 . S
C1875 C1246 2.700 . S
C1891 C1010 2.860 . S
C1893 C1286 2.700 . S
C1909 C1206 2.700 . S
C1911 C1050 2.860 . S
C1927 C1406 2.700 . S
C1929 C1090 2.860 . S
C1945 C1130 2.860 . S
C1947 C1326 2.700 . S
C1963 C1366 2.700 . S
C1965 C1170 2.860 . S
C1981 C1015 2.700 . S
C1983 C1219 2.860 . S
C1999 C1259 2.860 . S
C2001 C1055 2.700 . S
C2017 C975 2.700 . S
C2019 C1299 2.860 . S
C2035 C1339 2.860 . S
C2037 C1175 2.700 . S
C2053 C1379 2.860 . S
C2055 C1095 2.700 . S
C2071 C1419 2.860 . S
C2073 C1135 2.700 . S
C2089 C6 1.027 . S
C2091 C735 1.027 . S
C2107 C46 1.027 . S
C2109 C775 1.027 . S
C2125 C815 1.027 . S
C2127 C86 1.027 . S
C2143 C1335 1.027 . S
C2145 C126 1.027 . S
C2161 C1375 1.027 . S
C2163 C166 1.027 . S
C2179 C1415 1.027 . S
C2181 C206 1.027 . S
C2197 C255 1.027 . S
C2199 C966 1.027 . S
C2215 C1006 1.027 . S
C2217 C295 1.027 . S
C2233 C335 1.027 . S
C2235 C1046 1.027 . S
C2251 C375 1.027 . S
C2253 C606 1.027 . S
C2269 C415 1.027 . S
C2271 C646 1.027 . S
C2287 C455 1.027 . S
C2289 C686 1.027 . S
C2305 C486 1.027 . S
C2307 C1215 1.027 . S
C2323 C1255 1.027 . S
C2325 C526 1.027 . S
C2341 C566 1.027 . S
C2343 C1295 1.027 . S
C2359 C1086 1.027 . S
C2361 C855 1.027 . S
C2377 C895 1.027 . S
C2379 C1126 1.027 . S
C2395 C1166 1.027 . S
C2397 C935 1.027 . S
C2413 C18 2.910 . S
C2415 C658 2.910 . S
C2431 C58 2.910 . S
C2433 C698 2.910 . S
C2449 C618 2.910 . S
C2451 C98 2.910 . S
C2467 C138 2.910 . S
C2469 C1058 2.910 . S
C2485 C978 2.910 . S
C2487 C178 2.910 . S
C2503 C218 2.910 . S
C2505 C1018 2.910 . S
C2521 C1369 2.910 . S
C2523 C249 2.910 . S
C2539 C289 2.910 . S
C2541 C1409 2.910 . S
C2557 C1329 2.910 . S
C2559 C329 2.910 . S
C2575 C369 2.910 . S
C2577 C809 2.910 . S
C2593 C409 2.910 . S
C2595 C729 2.910 . S
C2611 C449 2.910 . S
C2613 C769 2.910 . S
C2629 C1138 2.910 . S
C2631 C498 2.910 . S
C2647 C538 2.910 . S
C2649 C1178 2.910 . S
C2665 C578 2.910 . S
C2667 C1098 2.910 . S
C2683 C1289 2.910 . S
C2685 C849 2.910 . S
C2701 C1209 2.910 . S
C2703 C889 2.910 . S
C2719 C1249 2.910 . S
C2721 C929 2.910 . S
C2737 C129 1.719 . S
C2739 C9 1.719 . S
C2755 C49 1.719 1_565 S
C2757 C169 1.719 1_545 S
C2773 C89 1.719 1_455 S
C2775 C209 1.719 1_655 S
C2791 C378 1.719 . S
C2793 C258 1.719 . S
C2809 C298 1.719 1_545 S
C2811 C418 1.719 1_565 S
C2827 C458 1.719 1_455 S
C2829 C338 1.719 1_655 S
C2845 C609 1.719 . S
C2847 C489 1.719 . S
C2863 C529 1.719 . S
C2865 C649 1.719 . S
C2881 C569 1.719 . S
C2883 C689 1.719 . S
C2899 C738 1.719 . S
C2901 C858 1.719 1_554 S
C2917 C778 1.719 . S
C2919 C898 1.719 1_554 S
C2935 C818 1.719 . S
C2937 C938 1.719 1_554 S
C2953 C969 1.719 . S
C2955 C1089 1.719 1_556 S
C2971 C1129 1.719 1_556 S
C2973 C1009 1.719 . S
C2989 C1169 1.719 1_556 S
C2991 C1049 1.719 . S
C3007 C1218 1.719 . S
C3009 C1338 1.719 . S
C3025 C1378 1.719 . S
C3027 C1258 1.719 . S
C3043 C1298 1.719 . S
C3045 C1418 1.719 . S
C3061 C19 1.622 . S
C3063 C1179 1.622 . S
C3079 C1099 1.622 . S
C3081 C59 1.622 . S
C3097 C99 1.623 . S
C3099 C1139 1.623 . S
C3115 C539 1.622 . S
C3117 C139 1.622 . S
C3133 C179 1.623 . S
C3135 C579 1.623 . S
C3151 C219 1.622 . S
C3153 C499 1.622 . S
C3169 C930 1.622 . S
C3171 C250 1.622 . S
C3187 C290 1.622 . S
C3189 C850 1.622 . S
C3205 C890 1.623 . S
C3207 C330 1.623 . S
C3223 C370 1.622 . S
C3225 C1250 1.622 . S
C3241 C1290 1.623 . S
C3243 C410 1.623 . S
C3259 C1210 1.622 . S
C3261 C450 1.622 . S
C3277 C619 1.622 . S
C3279 C1019 1.623 . S
C3295 C659 1.622 . S
C3297 C1059 1.622 . S
C3313 C699 1.623 . S
C3315 C979 1.623 . S
C3331 C730 1.623 . S
C3333 C1410 1.623 . S
C3349 C770 1.623 . S
C3351 C1330 1.622 . S
C3367 C1370 1.622 . S
C3369 C810 1.622 . S
