# Generated by pormake.
# Topology sxb, (6)-cn, num edge types: 1
# Building blocks:
#     Node 0, Type 0, BuildingBlock: PAMTOO_clean_sbu_0, # of connection points: 6
#     Node 1, Type 0, BuildingBlock: PAMTOO_clean_sbu_0, # of connection points: 6
#     Node 2, Type 0, BuildingBlock: PAMTOO_clean_sbu_0, # of connection points: 6
#     Node 3, Type 0, BuildingBlock: PAMTOO_clean_sbu_0, # of connection points: 6
#     Edge 4, Type (0, 0), BuildingBlock: MIFKUJ_clean_linker_0, # of connection points: 2
#     Edge 5, Type (0, 0), BuildingBlock: MIFKUJ_clean_linker_0, # of connection points: 2
#     Edge 6, Type (0, 0), BuildingBlock: MIFKUJ_clean_linker_0, # of connection points: 2
#     Edge 7, Type (0, 0), BuildingBlock: MIFKUJ_clean_linker_0, # of connection points: 2
#     Edge 8, Type (0, 0), BuildingBlock: MIFKUJ_clean_linker_0, # of connection points: 2
#     Edge 9, Type (0, 0), BuildingBlock: MIFKUJ_clean_linker_0, # of connection points: 2
#     Edge 10, Type (0, 0), BuildingBlock: MIFKUJ_clean_linker_0, # of connection points: 2
#     Edge 11, Type (0, 0), BuildingBlock: MIFKUJ_clean_linker_0, # of connection points: 2
#     Edge 12, Type (0, 0), BuildingBlock: MIFKUJ_clean_linker_0, # of connection points: 2
#     Edge 13, Type (0, 0), BuildingBlock: MIFKUJ_clean_linker_0, # of connection points: 2
#     Edge 14, Type (0, 0), BuildingBlock: MIFKUJ_clean_linker_0, # of connection points: 2
#     Edge 15, Type (0, 0), BuildingBlock: MIFKUJ_clean_linker_0, # of connection points: 2
# Relax obj value: 0.291
# Max RMSD: 0.078
# Mean RMSD: 0.076
data_MOF--net-sxb--node1-PAMTOO_clean_sbu_0--edge1-MIFKUJ_clean_linker_0
_symmetry_space_group_name_H-M    P1
_symmetry_Int_Tables_number       1
_symmetry_cell_setting            triclinic
loop_
_symmetry_equiv_pos_as_xyz
'x, y, z'
_cell_length_a     20.643304
_cell_length_b     43.027758
_cell_length_c     39.898002
_cell_angle_alpha  95.06443
_cell_angle_beta   97.470764
_cell_angle_gamma 69.192195
loop_
_atom_site_label
_atom_site_type_symbol
_atom_site_fract_x
_atom_site_fract_y
_atom_site_fract_z
_atom_type_partial_charge
Dy0 Dy 0.13442 0.07441 0.94872 0.0
Dy1 Dy 0.98849 0.06229 0.9331 0.0
C2 C 1.06915 0.06922 0.87142 0.0
O3 O 1.05104 0.12541 0.95208 0.0
O4 O 0.95762 0.11624 0.92127 0.0
O5 O 0.24508 0.06291 0.94748 0.0
O6 O 0.18563 0.1057 0.97712 0.0
O7 O 0.99884 0.07694 -0.0117 0.0
O8 O 0.11646 1.05544 -0.00414 0.0
O9 O 1.06846 1.0123 0.94721 0.0
O10 O 0.16762 1.01932 0.93563 0.0
O11 O 0.93439 1.02738 0.91933 0.0
O12 O 0.87685 0.07841 0.93377 0.0
C13 C 0.988 0.1369 0.9359 0.0
O14 O 0.10953 0.08137 0.8928 0.0
O15 O 1.02517 0.05713 0.8818 0.0
C16 C 0.29346 0.07325 0.0025 0.0
C17 C 0.37045 1.0537 0.06548 0.0
C18 C 0.33398 1.03427 0.0477 0.0
C19 C 0.29549 1.04406 0.01656 0.0
C20 C 0.32885 0.09296 0.02036 0.0
C21 C 0.36711 0.08327 0.0516 0.0
C22 C 0.24738 0.08524 0.97155 0.0
C23 C 1.05655 0.06531 0.00835 0.0
C24 C 0.13413 0.99963 0.94106 0.0
C25 C 0.85982 1.03614 0.96167 0.0
C26 C 0.85574 1.01011 0.02366 0.0
C27 C 0.84874 1.04363 0.02202 0.0
C28 C 0.85038 0.05651 -0.00849 0.0
C29 C 0.86509 1.00278 0.96297 0.0
C30 C 0.8628 0.98989 -0.00633 0.0
C31 C 0.87836 1.04773 0.93168 0.0
H32 H 0.3355 1.01144 0.05783 0.0
H33 H 0.26685 1.02895 0.00358 0.0
H34 H 0.32655 0.11592 0.01024 0.0
H35 H 0.3957 0.09845 0.06443 0.0
H36 H 0.84165 0.06018 0.04437 0.0
H37 H 0.84686 0.08224 -0.00825 0.0
H38 H 0.87369 0.98635 0.94052 0.0
H39 H 0.86801 0.96398 -0.00595 0.0
Dy40 Dy 1.04592 0.09609 0.4406 0.0
Dy41 Dy 0.10733 1.01613 0.43918 0.0
C42 C 1.06525 1.05407 0.37049 0.0
O43 O 0.95014 0.08291 0.4455 0.0
O44 O 0.98997 1.02692 0.43159 0.0
O45 O 1.02856 0.14293 0.41897 0.0
O46 O 0.98665 0.14198 0.46582 0.0
O47 O 1.07286 1.03398 0.49052 0.0
O48 O 0.09566 0.08182 0.49301 0.0
O49 O 0.2057 1.02945 0.44597 0.0
O50 O 0.16087 0.08506 0.43534 0.0
O51 O 0.18042 0.97215 0.46242 0.0
O52 O 0.11096 0.96764 0.41798 0.0
C53 C 0.93827 1.05468 0.43842 0.0
O54 O 1.02285 0.0793 0.38694 0.0
O55 O 0.11228 1.02942 0.38686 0.0
C56 C 1.03111 0.18417 0.46132 0.0
C57 C 0.09248 0.22905 0.49419 0.0
C58 C 0.13412 0.19766 0.4817 0.0
C59 C 0.10376 0.17538 0.46567 0.0
C60 C 0.98911 0.2152 0.47396 0.0
C61 C 1.01956 0.23753 0.49033 0.0
C62 C 0.99969 0.16027 0.44509 0.0
C63 C 0.08587 0.05847 0.50838 0.0
C64 C 0.21509 0.0574 0.44075 0.0
C65 C 0.12921 0.93161 0.46159 0.0
C66 C 1.06811 0.89432 0.49245 0.0
C67 C 1.05717 0.92757 0.50319 0.0
C68 C 0.08722 0.94609 0.48778 0.0
C69 C 0.14267 0.89809 0.45164 0.0
C70 C 0.11238 0.87946 0.46706 0.0
C71 C 0.15403 0.95245 0.44328 0.0
H72 H 0.19029 0.1905 0.4835 0.0
H73 H 0.13713 0.15133 0.45646 0.0
H74 H 0.93291 0.22211 0.47124 0.0
H75 H 0.98608 0.26137 0.49994 0.0
H76 H 1.0239 0.93952 0.52292 0.0
H77 H 1.07603 0.97201 0.49573 0.0
H78 H 0.17464 0.88667 0.4313 0.0
H79 H 0.121 0.85395 0.45807 0.0
Dy80 Dy 0.63467 0.57409 0.95101 0.0
Dy81 Dy 0.4873 0.56311 0.93506 0.0
C82 C 0.56848 0.56995 0.87358 0.0
O83 O 0.55275 0.62556 0.95355 0.0
O84 O 0.45842 0.61686 0.92307 0.0
O85 O 0.74467 0.56301 0.94816 0.0
O86 O 0.68788 0.6036 0.98112 0.0
O87 O 0.4982 0.57762 -0.00976 0.0
O88 O 0.61571 0.55538 -0.00189 0.0
O89 O 0.56562 0.51241 0.94827 0.0
O90 O 0.66662 0.51896 0.93853 0.0
O91 O 0.42934 0.53013 0.91939 0.0
O92 O 0.37624 0.58038 0.93776 0.0
C93 C 0.48968 0.63726 0.93743 0.0
O94 O 0.60987 0.58135 0.89511 0.0
O95 O 0.52357 0.55833 0.88375 0.0
C96 C 0.798 0.56999 0.00322 0.0
C97 C 0.88016 0.5464 0.06402 0.0
C98 C 0.85179 0.52568 0.04264 0.0
C99 C 0.81049 0.53747 0.01264 0.0
C100 C 0.82579 0.59078 0.02465 0.0
C101 C 0.86642 0.57913 0.05484 0.0
C102 C 0.74888 0.58375 0.97361 0.0
C103 C 0.55559 0.56582 0.01045 0.0
C104 C 0.63185 0.49954 0.94302 0.0
C105 C 0.35516 0.53751 0.96223 0.0
C106 C 0.34898 0.51631 0.02626 0.0
C107 C 0.31554 0.54978 0.01826 0.0
C108 C 0.318 0.56022 -0.01347 0.0
C109 C 0.38491 0.50356 0.96954 0.0
C110 C 0.3815 0.49304 0.00126 0.0
C111 C 0.37488 0.55022 0.93323 0.0
H112 H 0.86162 0.50037 0.04916 0.0
H113 H 0.78779 0.52127 -0.00302 0.0
H114 H 0.81543 0.61616 0.01818 0.0
H115 H 0.88859 0.59546 0.07059 0.0
H116 H 0.28807 0.56804 0.03677 0.0
H117 H 0.29404 0.58648 -0.01827 0.0
H118 H 0.4139 0.48535 0.95144 0.0
H119 H 0.40652 0.46698 0.00669 0.0
Dy120 Dy 0.54123 0.59884 0.44299 0.0
Dy121 Dy 0.60122 0.51882 0.44127 0.0
C122 C 0.55821 0.55702 0.37268 0.0
O123 O 0.44481 0.58643 0.44866 0.0
O124 O 0.48353 0.53057 0.43401 0.0
O125 O 0.52152 0.64544 0.42029 0.0
O126 O 0.48813 0.64514 0.46955 0.0
O127 O 0.56818 0.53678 0.49282 0.0
O128 O 0.59258 0.58413 0.49506 0.0
O129 O 0.70046 0.53154 0.44747 0.0
O130 O 0.65599 0.58715 0.43682 0.0
O131 O 0.67315 0.47437 0.46429 0.0
O132 O 0.60234 0.47061 0.4202 0.0
C133 C 0.43232 0.55837 0.44131 0.0
O134 O 0.51673 0.58233 0.38944 0.0
O135 O 0.60505 0.53206 0.38875 0.0
C136 C 0.53925 0.68431 0.46245 0.0
C137 C 0.61988 0.72025 0.49684 0.0
C138 C 0.64975 0.69307 0.47476 0.0
C139 C 0.60996 0.67524 0.45786 0.0
C140 C 0.50865 0.71185 0.48394 0.0
C141 C 0.54867 0.72986 0.50094 0.0
C142 C 0.50024 0.66282 0.44783 0.0
C143 C 0.5827 0.56092 0.5106 0.0
C144 C 0.71008 0.55943 0.44213 0.0
C145 C 0.61697 0.43571 0.46444 0.0
C146 C 0.54413 0.40346 0.4946 0.0
C147 C 0.5448 0.43475 0.50743 0.0
C148 C 0.58079 0.45074 0.49245 0.0
C149 C 0.6194 0.40374 0.45255 0.0
C150 C 0.58336 0.38759 0.46767 0.0
C151 C 0.6445 0.45523 0.44565 0.0
H152 H 0.70402 0.68561 0.47036 0.0
H153 H 0.63499 0.654 0.44159 0.0
H154 H 0.45435 0.71893 0.48812 0.0
H155 H 0.52442 0.75082 0.51775 0.0
H156 H 0.51535 0.44738 0.52828 0.0
H157 H 0.57791 0.47548 0.50196 0.0
H158 H 0.64654 0.39194 0.43077 0.0
H159 H 0.58294 0.36357 0.45711 0.0
H160 H 0.54615 0.68677 0.9505 0.0
H161 H 0.48716 0.747 0.95015 0.0
H162 H 0.28962 0.73322 0.92337 0.0
H163 H 0.34925 0.6727 0.92209 0.0
H164 H 0.28317 0.78239 0.89145 0.0
H165 H 0.35267 0.75939 0.00809 0.0
H166 H 0.43293 0.7367 0.05855 0.0
H167 H 0.55414 0.79643 0.04374 0.0
H168 H 0.4751 0.81916 -0.0071 0.0
H169 H 1.07704 0.95038 0.93884 0.0
H170 H 0.13641 0.88989 0.93762 0.0
H171 H 0.33455 0.90321 0.94194 0.0
H172 H 0.27536 0.96385 0.94279 0.0
H173 H 0.33905 0.85501 -0.01432 0.0
H174 H 0.26233 0.8785 0.86843 0.0
H175 H 0.17588 0.90163 0.82006 0.0
H176 H 1.05975 0.84101 0.83955 0.0
H177 H 0.14504 0.81786 0.88835 0.0
C178 C 0.4901 0.69644 0.94448 0.0
C179 C 0.45281 0.67446 0.93648 0.0
C180 C 0.45599 0.73122 0.94457 0.0
C181 C 0.38294 0.74546 0.93759 0.0
C182 C 0.34574 0.72346 0.92903 0.0
C183 C 0.38007 0.68859 0.92835 0.0
C184 C 0.34575 0.78298 0.93898 0.0
C185 C 0.29501 0.79801 0.91242 0.0
C186 C 0.36083 0.80425 0.96589 0.0
C187 C 0.40836 0.79072 -0.00351 0.0
C188 C 0.39671 0.76752 0.01546 0.0
C189 C 0.44195 0.75467 0.04415 0.0
C190 C 0.4987 0.76505 0.05429 0.0
C191 C 0.51022 0.78838 0.03582 0.0
C192 C 0.46519 0.80127 0.00708 0.0
C193 C 0.13329 0.94057 0.93953 0.0
C194 C 0.17103 0.9624 0.9408 0.0
C195 C 0.16734 0.90575 0.9387 0.0
C196 C 0.24039 0.8915 0.93943 0.0
C197 C 0.27831 0.91324 0.94129 0.0
C198 C 0.2442 0.94809 0.94166 0.0
C199 C 0.27697 0.85411 0.93823 0.0
C200 C 0.32744 0.83922 0.96481 0.0
C201 C 0.26078 0.83295 0.91169 0.0
C202 C 0.20971 0.84669 0.88224 0.0
C203 C 0.21806 0.8703 0.86256 0.0
C204 C 0.16933 0.88338 0.83504 0.0
C205 C 0.11226 0.87286 0.82679 0.0
C206 C 0.10393 0.84917 0.84599 0.0
C207 C 0.15248 0.83604 0.87357 0.0
H208 H 1.07458 0.88301 0.80547 0.0
H209 H 0.53367 0.75507 0.0765 0.0
H210 H 0.77289 0.46363 0.95164 0.0
H211 H 0.83155 0.40323 0.95078 0.0
H212 H 0.63237 0.38995 0.93079 0.0
H213 H 0.57355 0.45041 0.93358 0.0
H214 H 0.70463 0.3448 0.96909 0.0
H215 H 0.75951 0.3777 0.86806 0.0
H216 H 0.80316 0.40926 0.83347 0.0
H217 H 1.00672 0.37049 0.88787 0.0
H218 H 0.96405 0.33901 0.92308 0.0
H219 H 0.84926 0.1718 0.91516 0.0
H220 H 0.78853 0.23232 0.91578 0.0
H221 H 0.97995 0.24733 0.95561 0.0
H222 H 1.04076 0.18704 0.9552 0.0
H223 H 0.9108 0.29072 0.90603 0.0
H224 H 0.85076 0.2569 0.0063 0.0
H225 H 0.80381 0.22434 0.03788 0.0
H226 H 0.60435 0.26404 0.97996 0.0
H227 H 0.6504 0.29649 0.9477 0.0
C228 C 0.74143 0.4479 0.94702 0.0
C229 C 0.66815 0.46227 0.94248 0.0
C230 C 0.77527 0.41304 0.94623 0.0
C231 C 0.73724 0.39118 0.93982 0.0
C232 C 0.66387 0.40564 0.93569 0.0
C233 C 0.62997 0.4405 0.93719 0.0
C234 C 0.77344 0.35356 0.93776 0.0
C235 C 0.74901 0.33319 0.95478 0.0
C236 C 0.83249 0.33751 0.91964 0.0
C237 C 0.8584 0.35626 0.89842 0.0
C238 C 0.81348 0.37607 0.87278 0.0
C239 C 0.83805 0.39392 0.85305 0.0
C240 C 0.90762 0.39195 0.85853 0.0
C241 C 0.95282 0.37203 0.88369 0.0
C242 C 0.92849 0.35415 0.90352 0.0
C243 C 0.87864 0.1879 0.924 0.0
C244 C 0.9503 0.17409 0.93521 0.0
C245 C 0.84359 0.22271 0.9245 0.0
C246 C 0.87905 0.24491 0.93604 0.0
C247 C 0.95083 0.23114 0.9466 0.0
C248 C 0.9857 0.1964 0.94644 0.0
C249 C 0.84182 0.28229 0.93728 0.0
C250 C 0.86618 0.30252 0.92016 0.0
C251 C 0.78209 0.29814 0.9548 0.0
C252 C 0.75423 0.27886 0.97436 0.0
C253 C 0.79703 0.2585 0.00013 0.0
C254 C 0.77056 0.24009 0.01818 0.0
C255 C 0.70119 0.24205 0.01087 0.0
C256 C 0.65809 0.2625 -0.01444 0.0
C257 C 0.68433 0.28093 0.96741 0.0
H258 H 0.68081 0.22777 0.02486 0.0
H259 H 0.92654 0.4058 0.84324 0.0
H260 H 0.21478 0.21694 0.53556 0.0
H261 H 0.2814 0.25393 0.54837 0.0
H262 H 0.11054 0.33379 0.50089 0.0
H263 H 1.04559 0.2962 0.48578 0.0
H264 H 0.2197 0.32622 0.47374 0.0
H265 H 0.17182 0.3368 0.58775 0.0
H266 H 0.16034 0.31932 0.64321 0.0
H267 H 0.3801 0.26424 0.6563 0.0
H268 H 0.39283 0.28097 0.60068 0.0
H269 H 0.40764 0.43553 0.50262 0.0
H270 H 0.32376 0.41138 0.51576 0.0
H271 H 0.48732 0.31565 0.52617 0.0
H272 H 0.57205 0.33971 0.51276 0.0
H273 H 0.37469 0.33757 0.57648 0.0
H274 H 0.41228 0.32331 0.45658 0.0
H275 H 0.41882 0.3446 0.40219 0.0
H276 H 0.2072 0.41144 0.40258 0.0
H277 H 0.20011 0.39119 0.45742 0.0
C278 C 0.19106 0.24247 0.5281 0.0
C279 C 0.12555 0.25337 0.5089 0.0
C280 C 0.22881 0.26381 0.53599 0.0
C281 C 0.20107 0.29669 0.52557 0.0
C282 C 0.1331 0.30846 0.50907 0.0
C283 C 0.09575 0.28697 0.50066 0.0
C284 C 0.24676 0.31676 0.52694 0.0
C285 C 0.25218 0.32932 0.49653 0.0
C286 C 0.29046 0.32027 0.55641 0.0
C287 C 0.28317 0.30997 0.58987 0.0
C288 C 0.21764 0.32072 0.6023 0.0
C289 C 0.21092 0.31099 0.63381 0.0
C290 C 0.26943 0.29063 0.65324 0.0
C291 C 0.33481 0.28 0.64121 0.0
C292 C 0.34183 0.28965 0.60971 0.0
C293 C 0.42613 0.40953 0.50857 0.0
C294 C 0.4962 0.38938 0.50664 0.0
C295 C 0.37821 0.39584 0.51607 0.0
C296 C 0.3997 0.36188 0.52197 0.0
C297 C 0.47024 0.34201 0.52194 0.0
C298 C 0.51823 0.35564 0.51398 0.0
C299 C 0.34705 0.34642 0.52343 0.0
C300 C 0.34091 0.33473 0.55412 0.0
C301 C 0.30172 0.34407 0.49441 0.0
C302 C 0.30601 0.35609 0.46133 0.0
C303 C 0.36747 0.34286 0.44528 0.0
C304 C 0.37126 0.35473 0.41434 0.0
C305 C 0.31361 0.37953 0.39901 0.0
C306 C 0.252 0.39242 0.41455 0.0
C307 C 0.24807 0.38077 0.44557 0.0
H308 H 0.31657 0.38865 0.37504 0.0
H309 H 0.26412 0.28314 0.67763 0.0
H310 H 0.93037 0.91793 0.50098 0.0
H311 H 0.86131 0.8872 0.51706 0.0
H312 H 1.04537 0.79932 0.52876 0.0
H313 H 0.11536 0.83001 0.51227 0.0
H314 H 0.94176 0.78769 0.48842 0.0
H315 H 0.96026 0.84165 0.59859 0.0
H316 H 0.95393 0.89037 0.63731 0.0
H317 H 0.73659 0.93608 0.60357 0.0
H318 H 0.74178 0.88781 0.56438 0.0
H319 H 0.75166 0.69494 0.52856 0.0
H320 H 0.83298 0.72478 0.54381 0.0
H321 H 0.66822 0.81746 0.51958 0.0
H322 H 0.58662 0.78772 0.50366 0.0
H323 H 0.77022 0.82368 0.57311 0.0
H324 H 0.74789 0.77791 0.4611 0.0
H325 H 0.74605 0.73504 0.41628 0.0
H326 H 0.96296 0.68168 0.44385 0.0
H327 H 0.9651 0.72303 0.49061 0.0
C328 C 0.95657 0.89229 0.5078 0.0
C329 C 1.02829 0.87632 0.50549 0.0
C330 C 0.91699 0.87482 0.51709 0.0
C331 C 0.94837 0.84121 0.52465 0.0
C332 C 1.02034 0.82536 0.52323 0.0
C333 C 1.06009 0.8428 0.51369 0.0
C334 C 0.90439 0.82192 0.5302 0.0
C335 C 0.9058 0.79487 0.50764 0.0
C336 C 0.8552 0.83249 0.55422 0.0
C337 C 0.85146 0.86109 0.57854 0.0
C338 C 0.91115 0.86211 0.5994 0.0
C339 C 0.90776 0.88966 0.62142 0.0
C340 C 0.84489 0.91629 0.62291 0.0
C341 C 0.7852 0.91538 0.60247 0.0
C342 C 0.7883 0.8879 0.58041 0.0
C343 C 0.73241 0.72177 0.52718 0.0
C344 C 0.66338 0.73898 0.51406 0.0
C345 C 0.77876 0.73874 0.53614 0.0
C346 C 0.75666 0.7731 0.53214 0.0
C347 C 0.68602 0.79088 0.52276 0.0
C348 C 0.63955 0.77387 0.51361 0.0
C349 C 0.8087 0.7892 0.53169 0.0
C350 C 0.80798 0.81583 0.55474 0.0
C351 C 0.85757 0.77883 0.50749 0.0
C352 C 0.85612 0.75319 0.48008 0.0
C353 C 0.79476 0.75655 0.45836 0.0
C354 C 0.79366 0.73246 0.43261 0.0
C355 C 0.85414 0.70534 0.42761 0.0
C356 C 0.91586 0.70232 0.44831 0.0
C357 C 0.91693 0.72597 0.47458 0.0
H358 H 0.85339 0.68685 0.40747 0.0
H359 H 0.84243 0.93764 0.6399 0.0
H360 H 0.46362 0.99138 0.07485 0.0
H361 H 0.56552 0.97605 0.11541 0.0
H362 H 0.48849 0.07239 0.1675 0.0
H363 H 0.38751 0.08852 0.12497 0.0
H364 H 0.59463 0.06993 0.14696 0.0
H365 H 0.57641 0.99451 0.2147 0.0
H366 H 0.54216 0.95129 0.23614 0.0
H367 H 0.66294 0.8786 0.1666 0.0
H368 H 0.69699 0.92133 0.14421 0.0
H369 H 0.9098 1.0234 0.08776 0.0
H370 H 0.86274 1.02029 0.13995 0.0
H371 H 0.74046 0.96541 0.08545 0.0
H372 H 0.78504 0.9693 0.0333 0.0
H373 H 0.76508 0.95532 0.15755 0.0
H374 H 0.68317 1.04905 0.07451 0.0
H375 H 0.70653 0.09323 0.04808 0.0
H376 H 0.76596 0.13061 0.14616 0.0
H377 H 0.74082 0.0872 0.17306 0.0
C378 C 0.46675 1.00885 0.09575 0.0
C379 C 0.4186 1.04145 0.09622 0.0
C380 C 0.52515 0.99986 0.11955 0.0
C381 C 0.53611 1.02318 0.14464 0.0
C382 C 0.48219 1.05404 0.14818 0.0
C383 C 0.42456 0.06336 0.12374 0.0
C384 C 0.60929 1.01941 0.15795 0.0
C385 C 0.63204 1.04511 0.1511 0.0
C386 C 0.65971 0.98763 0.16478 0.0
C387 C 0.63996 0.9613 0.17797 0.0
C388 C 0.59564 0.96934 0.20386 0.0
C389 C 0.57617 0.94488 0.21619 0.0
C390 C 0.60056 0.9122 0.20283 0.0
C391 C 0.64441 0.9039 0.17707 0.0
C392 C 0.66409 0.92825 0.16465 0.0
C393 C 0.87461 1.0097 0.08716 0.0
C394 C 0.84875 0.99782 0.05615 0.0
C395 C 0.84872 1.00749 0.11719 0.0
C396 C 0.79702 0.99329 0.11646 0.0
C397 C 0.78029 0.97657 0.08662 0.0
C398 C 0.8056 0.97899 0.05659 0.0
C399 C 0.74505 1.00444 0.14127 0.0
C400 C 0.72767 0.98043 0.15605 0.0
C401 C 0.69877 1.03784 0.14167 0.0
C402 C 0.7124 0.06435 0.1257 0.0
C403 C 0.70147 0.06666 0.09036 0.0
C404 C 0.71459 0.09166 0.07532 0.0
C405 C 0.73855 0.11448 0.0954 0.0
C406 C 0.74816 0.1127 0.13061 0.0
C407 C 0.73439 0.08794 0.14577 0.0
H408 H 0.74916 0.13367 0.0837 0.0
H409 H 0.58536 0.89331 0.21238 0.0
H410 H 0.26152 0.11098 0.44148 0.0
H411 H 0.38053 0.11067 0.44208 0.0
H412 H 0.45832 1.00345 0.43955 0.0
H413 H 0.33969 1.00382 0.44047 0.0
H414 H 0.54999 1.01918 0.47658 0.0
H415 H 0.4414 0.0582 0.36739 0.0
H416 H 0.35305 0.09433 0.32633 0.0
H417 H 0.39945 0.17936 0.37161 0.0
H418 H 0.48756 0.14377 0.41319 0.0
H419 H 0.89109 1.00088 0.43148 0.0
H420 H 0.77236 1.00081 0.43214 0.0
H421 H 0.69673 0.10757 0.44653 0.0
H422 H 0.81504 0.10776 0.44566 0.0
H423 H 0.60488 0.0918 0.4035 0.0
H424 H 0.72219 1.04894 0.51067 0.0
H425 H 0.81088 1.01054 0.54979 0.0
H426 H 0.74797 0.92955 0.50597 0.0
H427 H 0.66071 0.96715 0.46584 0.0
C428 C 0.30372 0.08723 0.441 0.0
C429 C 0.28933 0.05743 0.44079 0.0
C430 C 0.37274 0.08701 0.44104 0.0
C431 C 0.43074 0.05697 0.44009 0.0
C432 C 0.41622 1.02723 0.44023 0.0
C433 C 0.34738 1.02745 0.44064 0.0
C434 C 0.50577 0.05636 0.43932 0.0
C435 C 0.56155 1.0348 0.46008 0.0
C436 C 0.52332 0.07693 0.41856 0.0
C437 C 0.47054 0.09838 0.3936 0.0
C438 C 0.43243 0.08464 0.36872 0.0
C439 C 0.38246 0.10501 0.34534 0.0
C440 C 0.37051 0.13913 0.34643 0.0
C441 C 0.40868 0.15293 0.37084 0.0
C442 C 0.45868 0.13267 0.39429 0.0
C443 C 0.84942 1.02446 0.43479 0.0
C444 C 0.86428 1.05433 0.43854 0.0
C445 C 0.78075 1.02438 0.4354 0.0
C446 C 0.72362 1.05418 0.43981 0.0
C447 C 0.73843 0.08402 0.44312 0.0
C448 C 0.80702 0.08409 0.44271 0.0
C449 C 0.64898 1.05453 0.44063 0.0
C450 C 0.59329 0.07611 0.41992 0.0
C451 C 0.6318 1.0336 0.46109 0.0
C452 C 0.68543 1.01084 0.48488 0.0
C453 C 0.72795 1.02285 0.50903 0.0
C454 C 0.77805 1.00119 0.53141 0.0
C455 C 0.78549 0.96756 0.53023 0.0
C456 C 0.74275 0.95552 0.5067 0.0
C457 C 0.69303 0.97699 0.48407 0.0
H458 H 0.82417 0.95086 0.54762 0.0
H459 H 0.33179 0.15487 0.32831 0.0
H460 H 0.88416 0.57444 0.12831 0.0
H461 H 0.98397 0.55957 0.17179 0.0
H462 H 0.09156 0.47533 0.10807 0.0
H463 H 0.99058 0.48865 0.06637 0.0
H464 H 0.15296 0.46582 0.17143 0.0
H465 H 1.07365 0.56918 0.09349 0.0
H466 H 0.9873 0.62523 0.0827 0.0
H467 H 0.99997 0.65104 0.18924 0.0
H468 H 0.08639 0.59508 0.20052 0.0
H469 H 0.30906 0.46605 0.04197 0.0
H470 H 0.27071 0.46074 0.09541 0.0
H471 H 0.34523 0.53817 0.14122 0.0
H472 H 0.38229 0.54397 0.08717 0.0
H473 H 0.2187 0.55933 0.14226 0.0
H474 H 0.37388 0.46511 0.18654 0.0
H475 H 0.46353 0.4096 0.19344 0.0
H476 H 0.31526 0.36408 0.15071 0.0
H477 H 0.22484 0.41921 0.14302 0.0
C478 C 0.92798 0.55188 0.12452 0.0
C479 C 0.9304 0.53309 0.09375 0.0
C480 C 0.98512 0.54341 0.14932 0.0
C481 C 1.04669 0.51719 0.14268 0.0
C482 C 1.04518 0.49591 0.11393 0.0
C483 C 0.9874 0.50371 0.08975 0.0
C484 C 0.11613 0.51707 0.15845 0.0
C485 C 0.16831 0.48622 0.16576 0.0
C486 C 0.13666 0.54453 0.15449 0.0
C487 C 0.08576 0.57813 0.14783 0.0
C488 C 1.05803 0.58694 0.11452 0.0
C489 C 1.00906 0.6186 0.10835 0.0
C490 C 0.98805 0.64165 0.13528 0.0
C491 C 1.01618 0.63313 0.16843 0.0
C492 C 1.06511 0.60148 0.17474 0.0
C493 C 0.3201 0.48087 0.06385 0.0
C494 C 0.34656 0.50608 0.06033 0.0
C495 C 0.29894 0.47758 0.09476 0.0
C496 C 0.30437 0.49932 0.12267 0.0
C497 C 0.34022 0.5212 0.12024 0.0
C498 C 0.3606 0.52478 0.08921 0.0
C499 C 0.25416 0.50629 0.14831 0.0
C500 C 0.20594 0.53885 0.15005 0.0
C501 C 0.23796 0.48034 0.16053 0.0
C502 C 0.29189 0.44663 0.16472 0.0
C503 C 0.36014 0.44334 0.17865 0.0
C504 C 0.41126 0.41185 0.18263 0.0
C505 C 0.39502 0.38332 0.17268 0.0
C506 C 0.32764 0.38622 0.15863 0.0
C507 C 0.27625 0.41765 0.1546 0.0
H508 H 0.4347 0.35895 0.17575 0.0
H509 H 0.95007 0.66614 0.13046 0.0
H510 H 0.38517 0.50468 0.43412 0.0
H511 H 0.26695 0.5044 0.43506 0.0
H512 H 0.19058 0.61121 0.44944 0.0
H513 H 0.30915 0.61144 0.44952 0.0
H514 H 0.12126 0.59126 0.48532 0.0
H515 H 0.16548 0.56343 0.36992 0.0
H516 H 0.22883 0.53197 0.32232 0.0
H517 H 0.20469 0.44292 0.35024 0.0
H518 H 0.14198 0.47378 0.39838 0.0
H519 H 0.7561 0.61306 0.44177 0.0
H520 H 0.87518 0.6129 0.44199 0.0
H521 H 0.95405 0.50587 0.44224 0.0
H522 H 0.83511 0.50593 0.4422 0.0
H523 H 1.02179 0.52559 0.39934 0.0
H524 H 0.96345 0.55854 0.51247 0.0
H525 H 0.89454 0.59355 0.55671 0.0
H526 H 0.94281 0.67708 0.53097 0.0
H527 H 1.01126 0.64268 0.48631 0.0
C528 C 0.34342 0.52825 0.43737 0.0
C529 C 0.35827 0.55811 0.44148 0.0
C530 C 0.27478 0.52811 0.4377 0.0
C531 C 0.21727 0.55787 0.44168 0.0
C532 C 0.23238 0.58766 0.44623 0.0
C533 C 0.30107 0.58779 0.44612 0.0
C534 C 0.14228 0.55808 0.44129 0.0
C535 C 0.0996 0.5772 0.46609 0.0
C536 C 0.11223 0.53944 0.41687 0.0
C537 C 0.14977 0.52082 0.38798 0.0
C538 C 0.17416 0.53708 0.36608 0.0
C539 C 0.20989 0.51937 0.33899 0.0
C540 C 0.22103 0.48544 0.33337 0.0
C541 C 0.19624 0.46917 0.35475 0.0
C542 C 0.16057 0.48676 0.38191 0.0
C543 C 0.79848 0.58937 0.44189 0.0
C544 C 0.78433 0.55951 0.44208 0.0
C545 C 0.86745 0.5893 0.44214 0.0
C546 C 0.92565 0.55935 0.44242 0.0
C547 C 0.91143 0.52951 0.44206 0.0
C548 C 0.8426 0.52959 0.44217 0.0
C549 C 1.00066 0.55899 0.44318 0.0
C550 C 1.04341 0.53972 0.41852 0.0
C551 C 1.0303 0.57791 0.46747 0.0
C552 C 0.99081 0.59826 0.49519 0.0
C553 C 0.95861 0.5845 0.51587 0.0
C554 C 0.91976 0.60422 0.54114 0.0
C555 C 0.91357 0.63765 0.54639 0.0
C556 C 0.9469 0.65131 0.52664 0.0
C557 C 0.98564 0.63171 0.5013 0.0
H558 H 0.8834 0.6529 0.56593 0.0
H559 H 0.24868 0.47177 0.31238 0.0
H560 H 0.95614 0.08958 0.32609 0.0
H561 H 0.95136 0.08973 0.26432 0.0
H562 H 0.16086 1.01881 0.26814 0.0
H563 H 0.16557 1.01795 0.32974 0.0
H564 H 0.13482 0.07654 0.22916 0.0
H565 H 1.04349 0.98821 0.23565 0.0
H566 H 0.96495 0.9629 0.25446 0.0
H567 H 0.78718 1.04183 0.21203 0.0
H568 H 0.86509 0.06781 0.19322 0.0
H569 H 0.16549 1.03651 0.05571 0.0
H570 H 0.16301 1.0333 0.11622 0.0
H571 H 0.9409 0.08592 0.10562 0.0
H572 H 0.9428 0.08845 0.04467 0.0
H573 H 0.97014 1.03896 0.14874 0.0
H574 H 1.06196 0.12441 0.13701 0.0
H575 H 0.14024 0.14939 0.11753 0.0
H576 H 0.31635 0.07853 0.17179 0.0
H577 H 0.23935 1.05264 0.19094 0.0
C578 C 1.00108 0.07388 0.31378 0.0
C579 C 1.06123 1.05373 0.33292 0.0
C580 C 0.99817 0.07391 0.27845 0.0
C581 C 1.05571 1.05422 0.26157 0.0
C582 C 0.11583 1.03417 0.2806 0.0
C583 C 0.11831 1.03364 0.31583 0.0
C584 C 1.05401 1.0553 0.22421 0.0
C585 C 0.09949 0.06794 0.21152 0.0
C586 C 1.00656 1.045 0.20124 0.0
C587 C 0.95982 1.02994 0.21309 0.0
C588 C 0.98762 1.00027 0.23053 0.0
C589 C 0.9433 0.98579 0.24111 0.0
C590 C 0.87111 1.00076 0.23435 0.0
C591 C 0.84311 1.03031 0.21713 0.0
C592 C 0.88725 1.04489 0.20651 0.0
C593 C 0.11599 1.04742 0.06615 0.0
C594 C 1.05442 0.06302 0.04523 0.0
C595 C 0.11468 1.04568 0.10092 0.0
C596 C 1.05201 0.06002 0.11588 0.0
C597 C 0.99008 0.07485 0.0949 0.0
C598 C 0.99127 0.07637 0.05998 0.0
C599 C 1.05164 0.05995 0.15339 0.0
C600 C 1.00555 1.04764 0.16621 0.0
C601 C 0.09841 0.07079 0.17656 0.0
C602 C 0.1449 0.08639 0.16516 0.0
C603 C 0.11746 0.11397 0.14454 0.0
C604 C 0.16162 0.12828 0.13354 0.0
C605 C 0.23326 0.11548 0.14328 0.0
C606 C 0.2609 0.08835 0.1641 0.0
C607 C 0.21701 0.07384 0.17505 0.0
H608 H 0.26725 0.1267 0.13481 0.0
H609 H 0.83686 0.98947 0.24246 0.0
H610 H 0.13578 0.10047 0.83797 0.0
H611 H 0.14184 0.09939 0.77689 0.0
H612 H 1.01866 1.03579 0.75967 0.0
H613 H 1.01219 1.03677 0.82048 0.0
H614 H 0.13142 1.01374 0.72288 0.0
H615 H 0.94572 0.11698 0.74388 0.0
H616 H 0.89287 0.17216 0.77183 0.0
H617 H 1.04288 0.20606 0.73632 0.0
H618 H 0.09728 0.15088 0.70854 0.0
H619 H 1.03924 1.02267 0.54659 0.0
H620 H 1.03897 1.02557 0.60787 0.0
H621 H 0.13618 0.10009 0.61696 0.0
H622 H 0.13381 0.09828 0.55524 0.0
H623 H 1.0427 0.1169 0.65877 0.0
H624 H 0.22771 1.01495 0.63671 0.0
H625 H 0.28248 0.95992 0.60883 0.0
H626 H 0.13888 0.92343 0.64678 0.0
H627 H 1.08267 0.97838 0.67455 0.0
C628 C 0.10994 0.08625 0.82122 0.0
C629 C 1.07329 0.0688 0.8343 0.0
C630 C 0.11326 0.08575 0.78624 0.0
C631 C 1.08034 0.06766 0.76354 0.0
C632 C 1.04449 1.04993 0.77658 0.0
C633 C 1.0406 1.05066 0.81145 0.0
C634 C 0.08314 0.06706 0.72624 0.0
C635 C 0.11139 1.03627 0.70881 0.0
C636 C 1.05885 0.09648 0.7079 0.0
C637 C 1.02604 0.12969 0.72445 0.0
C638 C 0.96781 0.13611 0.74227 0.0
C639 C 0.9375 0.1674 0.75804 0.0
C640 C 0.96463 0.19257 0.75594 0.0
C641 C 1.022 0.18652 0.73798 0.0
C642 C 1.05257 0.15525 0.7222 0.0
C643 C 1.0608 1.03964 0.56157 0.0
C644 C 0.08701 0.06008 0.5459 0.0
C645 C 1.06098 1.04115 0.59678 0.0
C646 C 0.08896 0.06254 0.61744 0.0
C647 C 0.11453 0.08326 0.60179 0.0
C648 C 0.11337 0.08213 0.56644 0.0
C649 C 0.09069 0.06348 0.65519 0.0
C650 C 1.06327 0.09432 0.67277 0.0
C651 C 0.11633 1.0341 0.67376 0.0
C652 C 0.15065 1.00087 0.65749 0.0
C653 C 0.20759 0.99524 0.63897 0.0
C654 C 0.23891 0.96406 0.6232 0.0
C655 C 0.21407 0.93822 0.62597 0.0
C656 C 0.15802 0.94348 0.64463 0.0
C657 C 0.12648 0.97462 0.66044 0.0
H658 H 0.23834 0.91411 0.61371 0.0
H659 H 0.94109 0.21679 0.76816 0.0
H660 H 0.45228 0.59637 0.32928 0.0
H661 H 0.44695 0.5975 0.26761 0.0
H662 H 0.64823 0.51961 0.26931 0.0
H663 H 0.65365 0.51798 0.33082 0.0
H664 H 0.63394 0.57607 0.23196 0.0
H665 H 0.51037 0.49896 0.23877 0.0
H666 H 0.41787 0.48336 0.25828 0.0
H667 H 0.26195 0.56907 0.21316 0.0
H668 H 0.35361 0.58525 0.19354 0.0
H669 H 0.66257 0.53604 0.05847 0.0
H670 H 0.65821 0.53441 0.1191 0.0
H671 H 0.43824 0.59176 0.1073 0.0
H672 H 0.44169 0.59215 0.04628 0.0
H673 H 0.45683 0.54868 0.15063 0.0
H674 H 0.56808 0.62546 0.13971 0.0
H675 H 0.65209 0.6481 0.12228 0.0
H676 H 0.81997 0.57459 0.1782 0.0
H677 H 0.73727 0.55089 0.19515 0.0
C678 C 0.49528 0.57933 0.31653 0.0
C679 C 0.5534 0.55706 0.33509 0.0
C680 C 0.49201 0.57994 0.28124 0.0
C681 C 0.54709 0.55856 0.26377 0.0
C682 C 0.60508 0.53631 0.28221 0.0
C683 C 0.60796 0.53534 0.31741 0.0
C684 C 0.54552 0.56006 0.22646 0.0
C685 C 0.59592 0.5696 0.21408 0.0
C686 C 0.49383 0.5532 0.20325 0.0
C687 C 0.43879 0.54336 0.21483 0.0
C688 C 0.45636 0.51455 0.23316 0.0
C689 C 0.4041 0.50561 0.24423 0.0
C690 C 0.33407 0.52521 0.23696 0.0
C691 C 0.31619 0.55387 0.21871 0.0
C692 C 0.36826 0.56293 0.20761 0.0
C693 C 0.61315 0.54827 0.0687 0.0
C694 C 0.55262 0.5645 0.04741 0.0
C695 C 0.61078 0.5475 0.10355 0.0
C696 C 0.54817 0.56358 0.11823 0.0
C697 C 0.48735 0.57925 0.09686 0.0
C698 C 0.48946 0.5796 0.06189 0.0
C699 C 0.54641 0.56408 0.15574 0.0
C700 C 0.49513 0.5551 0.16828 0.0
C701 C 0.59617 0.57246 0.17922 0.0
C702 C 0.64647 0.58614 0.1684 0.0
C703 C 0.62303 0.61383 0.14792 0.0
C704 C 0.67043 0.62687 0.13812 0.0
C705 C 0.74136 0.61272 0.14898 0.0
C706 C 0.76507 0.58544 0.16962 0.0
C707 C 0.71795 0.57215 0.1793 0.0
H708 H 0.77787 0.62302 0.14154 0.0
H709 H 0.29367 0.51816 0.24539 0.0
H710 H 0.54505 0.5223 0.5497 0.0
H711 H 0.54519 0.52563 0.61114 0.0
H712 H 0.62527 0.60615 0.61858 0.0
H713 H 0.62512 0.60307 0.55683 0.0
H714 H 0.69239 0.55813 0.66765 0.0
H715 H 0.45854 0.62397 0.62576 0.0
H716 H 0.34721 0.63456 0.5896 0.0
H717 H 0.31509 0.55398 0.6329 0.0
H718 H 0.42678 0.54259 0.66899 0.0
H719 H 0.63157 0.6031 0.84043 0.0
H720 H 0.63569 0.60341 0.77943 0.0
H721 H 0.51996 0.5364 0.76177 0.0
H722 H 0.51354 0.53695 0.82244 0.0
H723 H 0.47115 0.58036 0.71727 0.0
H724 H 0.70335 0.51166 0.7567 0.0
H725 H 0.81672 0.49737 0.79167 0.0
H726 H 0.85461 0.57844 0.75251 0.0
H727 H 0.741 0.59348 0.71761 0.0
C728 C 0.56299 0.54069 0.5643 0.0
C729 C 0.58489 0.5625 0.54818 0.0
C730 C 0.5628 0.54262 0.59951 0.0
C731 C 0.58468 0.56633 0.61955 0.0
C732 C 0.60807 0.58768 0.60367 0.0
C733 C 0.60771 0.58596 0.56834 0.0
C734 C 0.58189 0.56904 0.65695 0.0
C735 C 0.6439 0.5635 0.67857 0.0
C736 C 0.51895 0.57517 0.67124 0.0
C737 C 0.45131 0.58226 0.64988 0.0
C738 C 0.42797 0.60837 0.62741 0.0
C739 C 0.36476 0.61453 0.60695 0.0
C740 C 0.32417 0.59491 0.6089 0.0
C741 C 0.34661 0.56914 0.6314 0.0
C742 C 0.40982 0.56284 0.65189 0.0
C743 C 0.6071 0.58837 0.82357 0.0
C744 C 0.57229 0.56998 0.8365 0.0
C745 C 0.60979 0.58843 0.78859 0.0
C746 C 0.57898 0.56955 0.7657 0.0
C747 C 0.54411 0.55125 0.77866 0.0
C748 C 0.54062 0.55153 0.81351 0.0
C749 C 0.58195 0.56908 0.7283 0.0
C750 C 0.51982 0.5751 0.70655 0.0
C751 C 0.645 0.56291 0.71391 0.0
C752 C 0.71334 0.55392 0.73483 0.0
C753 C 0.73562 0.5266 0.75574 0.0
C754 C 0.79996 0.51833 0.77551 0.0
C755 C 0.84275 0.53705 0.77439 0.0
C756 C 0.82136 0.56401 0.75341 0.0
C757 C 0.75702 0.5724 0.7336 0.0
H758 H 0.89254 0.53061 0.78971 0.0
H759 H 0.27528 0.59971 0.59302 0.0
loop_
_geom_bond_atom_site_label_1
_geom_bond_atom_site_label_2
_geom_bond_distance
_geom_bond_site_symmetry_2
_ccdc_geom_bond_type
Dy0 O3 2.307 1_455 S
Dy0 O5 2.395 1_554 S
Dy0 O6 2.379 . S
Dy0 O8 2.339 . S
Dy0 O10 2.298 1_545 S
Dy0 O14 2.275 1_554 S
Dy0 C22 2.738 . S
Dy1 O4 2.298 1_565 S
Dy1 O7 2.275 1_556 S
Dy1 O9 2.307 1_655 S
Dy1 O11 2.395 1_556 S
Dy1 O12 2.379 . S
Dy1 O15 2.339 . S
Dy1 C31 2.738 . S
C2 O14 1.254 1_665 S
C2 O15 1.257 . S
O3 Dy0 2.307 1_655 S
O3 C13 1.269 . S
O4 Dy1 2.298 1_545 S
O4 C13 1.229 1_556 S
O5 Dy0 2.395 1_556 S
O5 C22 1.255 1_556 S
O6 Dy0 2.379 . S
O6 C22 1.249 . S
O7 Dy1 2.275 1_554 S
O7 C23 1.254 1_665 S
O8 Dy0 2.339 . S
O8 C23 1.257 . S
O9 Dy1 2.307 1_455 S
O9 C24 1.268 . S
O10 Dy0 2.298 1_565 S
O10 C24 1.231 1_554 S
O11 Dy1 2.395 1_554 S
O11 C31 1.255 1_554 S
O12 Dy1 2.379 . S
O12 C31 1.249 . S
C13 O3 1.269 . S
C13 O4 1.229 1_554 S
O14 Dy0 2.275 1_556 S
O14 C2 1.254 1_445 S
O15 Dy1 2.339 . S
O15 C2 1.257 . S
C16 C19 1.344 1_554 S
C16 C20 1.332 . S
C16 C22 1.516 1_565 S
C17 C18 1.304 1_554 S
C17 C21 1.323 . S
C18 C17 1.304 1_556 S
C18 C19 1.371 . S
C18 H32 0.930 . S
C19 C16 1.344 1_556 S
C19 C18 1.371 . S
C19 H33 0.931 . S
C20 C16 1.332 . S
C20 C21 1.432 . S
C20 H34 0.928 1_565 S
C21 C17 1.323 . S
C21 C20 1.432 . S
C21 H35 0.939 . S
C22 Dy0 2.738 . S
C22 O5 1.255 1_554 S
C22 O6 1.249 . S
C22 C16 1.516 1_545 S
C23 O7 1.254 1_445 S
C23 O8 1.257 . S
C24 O9 1.268 . S
C24 O10 1.231 1_556 S
C25 C28 1.344 1_556 S
C25 C29 1.328 . S
C25 C31 1.516 1_545 S
C26 C27 1.304 1_556 S
C26 C30 1.323 . S
C27 C26 1.304 1_554 S
C27 C28 1.371 . S
C27 H36 0.930 . S
C28 C25 1.344 1_554 S
C28 C27 1.371 . S
C28 H37 0.931 . S
C29 C25 1.328 . S
C29 C30 1.433 . S
C29 H38 0.931 1_545 S
C30 C26 1.323 . S
C30 C29 1.433 . S
C30 H39 0.933 . S
C31 Dy1 2.738 . S
C31 O11 1.255 1_556 S
C31 O12 1.249 . S
C31 C25 1.516 1_565 S
H32 C18 0.930 . S
H33 C19 0.931 . S
H34 C20 0.928 1_545 S
H35 C21 0.939 . S
H36 C27 0.930 . S
H37 C28 0.931 . S
H38 C29 0.931 1_565 S
H39 C30 0.933 . S
Dy40 O43 2.307 . S
Dy40 O45 2.395 1_655 S
Dy40 O46 2.379 1_655 S
Dy40 O48 2.341 1_655 S
Dy40 O50 2.298 1_655 S
Dy40 O54 2.275 . S
Dy40 C62 2.738 1_655 S
Dy41 O44 2.298 1_455 S
Dy41 O47 2.275 . S
Dy41 O49 2.307 . S
Dy41 O51 2.395 1_455 S
Dy41 O52 2.379 1_455 S
Dy41 O55 2.340 1_455 S
Dy41 C71 2.738 1_455 S
C42 O54 1.254 1_565 S
C42 O55 1.256 . S
O43 Dy40 2.307 . S
O43 C53 1.266 . S
O44 Dy41 2.298 1_655 S
O44 C53 1.236 1_565 S
O45 Dy40 2.395 1_455 S
O45 C62 1.255 . S
O46 Dy40 2.379 1_455 S
O46 C62 1.249 . S
O47 Dy41 2.275 . S
O47 C63 1.254 1_565 S
O48 Dy40 2.341 1_455 S
O48 C63 1.254 . S
O49 Dy41 2.307 . S
O49 C64 1.266 . S
O50 Dy40 2.298 1_455 S
O50 C64 1.236 1_545 S
O51 Dy41 2.395 1_655 S
O51 C71 1.255 . S
O52 Dy41 2.379 1_655 S
O52 C71 1.249 . S
C53 O43 1.266 . S
C53 O44 1.236 1_545 S
O54 Dy40 2.275 . S
O54 C42 1.254 1_545 S
O55 Dy41 2.340 1_655 S
O55 C42 1.256 . S
C56 C59 1.344 . S
C56 C60 1.328 . S
C56 C62 1.516 . S
C57 C58 1.304 . S
C57 C61 1.323 . S
C58 C57 1.304 . S
C58 C59 1.371 . S
C58 H72 0.930 . S
C59 C56 1.344 . S
C59 C58 1.371 . S
C59 H73 0.931 . S
C60 C56 1.328 . S
C60 C61 1.433 . S
C60 H74 0.931 . S
C61 C57 1.323 . S
C61 C60 1.433 . S
C61 H75 0.933 . S
C62 Dy40 2.738 1_455 S
C62 O45 1.255 . S
C62 O46 1.249 . S
C62 C56 1.516 . S
C63 O47 1.254 1_545 S
C63 O48 1.254 . S
C64 O49 1.266 . S
C64 O50 1.236 1_565 S
C65 C68 1.344 . S
C65 C69 1.328 . S
C65 C71 1.516 . S
C66 C67 1.304 . S
C66 C70 1.323 . S
C67 C66 1.304 . S
C67 C68 1.371 . S
C67 H76 0.930 . S
C68 C65 1.344 . S
C68 C67 1.371 . S
C68 H77 0.931 . S
C69 C65 1.328 . S
C69 C70 1.433 . S
C69 H78 0.931 . S
C70 C66 1.323 . S
C70 C69 1.433 . S
C70 H79 0.933 . S
C71 Dy41 2.738 1_655 S
C71 O51 1.255 . S
C71 O52 1.249 . S
C71 C65 1.516 . S
H72 C58 0.930 . S
H73 C59 0.931 . S
H74 C60 0.931 . S
H75 C61 0.933 . S
H76 C67 0.930 . S
H77 C68 0.931 . S
H78 C69 0.931 . S
H79 C70 0.933 . S
Dy80 O83 2.307 . S
Dy80 O85 2.395 1_554 S
Dy80 O86 2.379 . S
Dy80 O88 2.339 . S
Dy80 O90 2.298 . S
Dy80 O94 2.275 1_554 S
Dy80 C102 2.738 . S
Dy81 O84 2.298 . S
Dy81 O87 2.275 1_556 S
Dy81 O89 2.307 . S
Dy81 O91 2.395 1_556 S
Dy81 O92 2.379 . S
Dy81 O95 2.339 . S
Dy81 C111 2.738 . S
C82 O94 1.254 . S
C82 O95 1.257 . S
O83 Dy80 2.307 . S
O83 C93 1.269 . S
O84 Dy81 2.298 . S
O84 C93 1.229 1_556 S
O85 Dy80 2.395 1_556 S
O85 C102 1.255 1_556 S
O86 Dy80 2.379 . S
O86 C102 1.249 . S
O87 Dy81 2.275 1_554 S
O87 C103 1.254 . S
O88 Dy80 2.339 . S
O88 C103 1.257 . S
O89 Dy81 2.307 . S
O89 C104 1.268 . S
O90 Dy80 2.298 . S
O90 C104 1.231 1_554 S
O91 Dy81 2.395 1_554 S
O91 C111 1.255 1_554 S
O92 Dy81 2.379 . S
O92 C111 1.249 . S
C93 O83 1.269 . S
C93 O84 1.229 1_554 S
O94 Dy80 2.275 1_556 S
O94 C82 1.254 . S
O95 Dy81 2.339 . S
O95 C82 1.257 . S
C96 C99 1.344 1_554 S
C96 C100 1.328 . S
C96 C102 1.516 . S
C97 C98 1.304 1_554 S
C97 C101 1.323 . S
C98 C97 1.304 1_556 S
C98 C99 1.371 . S
C98 H112 0.930 . S
C99 C96 1.344 1_556 S
C99 C98 1.371 . S
C99 H113 0.931 . S
C100 C96 1.328 . S
C100 C101 1.433 . S
C100 H114 0.931 . S
C101 C97 1.323 . S
C101 C100 1.433 . S
C101 H115 0.933 . S
C102 Dy80 2.738 . S
C102 O85 1.255 1_554 S
C102 O86 1.249 . S
C102 C96 1.516 . S
C103 O87 1.254 . S
C103 O88 1.257 . S
C104 O89 1.268 . S
C104 O90 1.231 1_556 S
C105 C108 1.344 1_556 S
C105 C109 1.328 . S
C105 C111 1.516 . S
C106 C107 1.304 1_556 S
C106 C110 1.323 . S
C107 C106 1.304 1_554 S
C107 C108 1.371 . S
C107 H116 0.930 . S
C108 C105 1.344 1_554 S
C108 C107 1.371 . S
C108 H117 0.931 . S
C109 C105 1.328 . S
C109 C110 1.433 . S
C109 H118 0.931 . S
C110 C106 1.323 . S
C110 C109 1.433 . S
C110 H119 0.933 . S
C111 Dy81 2.738 . S
C111 O91 1.255 1_556 S
C111 O92 1.249 . S
C111 C105 1.516 . S
H112 C98 0.930 . S
H113 C99 0.931 . S
H114 C100 0.931 . S
H115 C101 0.933 . S
H116 C107 0.930 . S
H117 C108 0.931 . S
H118 C109 0.931 . S
H119 C110 0.933 . S
Dy120 O123 2.307 . S
Dy120 O125 2.395 . S
Dy120 O126 2.379 . S
Dy120 O128 2.339 . S
Dy120 O130 2.298 . S
Dy120 O134 2.275 . S
Dy120 C142 2.738 . S
Dy121 O124 2.298 . S
Dy121 O127 2.275 . S
Dy121 O129 2.307 . S
Dy121 O131 2.395 . S
Dy121 O132 2.379 . S
Dy121 O135 2.339 . S
Dy121 C151 2.738 . S
C122 O134 1.254 . S
C122 O135 1.257 . S
O123 Dy120 2.307 . S
O123 C133 1.266 . S
O124 Dy121 2.298 . S
O124 C133 1.236 . S
O125 Dy120 2.395 . S
O125 C142 1.255 . S
O126 Dy120 2.379 . S
O126 C142 1.249 . S
O127 Dy121 2.275 . S
O127 C143 1.254 . S
O128 Dy120 2.339 . S
O128 C143 1.257 . S
O129 Dy121 2.307 . S
O129 C144 1.266 . S
O130 Dy120 2.298 . S
O130 C144 1.236 . S
O131 Dy121 2.395 . S
O131 C151 1.255 . S
O132 Dy121 2.379 . S
O132 C151 1.249 . S
C133 O123 1.266 . S
C133 O124 1.236 . S
O134 Dy120 2.275 . S
O134 C122 1.254 . S
O135 Dy121 2.339 . S
O135 C122 1.257 . S
C136 C139 1.344 . S
C136 C140 1.328 . S
C136 C142 1.516 . S
C137 C138 1.304 . S
C137 C141 1.323 . S
C138 C137 1.304 . S
C138 C139 1.371 . S
C138 H152 0.930 . S
C139 C136 1.344 . S
C139 C138 1.371 . S
C139 H153 0.931 . S
C140 C136 1.328 . S
C140 C141 1.433 . S
C140 H154 0.931 . S
C141 C137 1.323 . S
C141 C140 1.433 . S
C141 H155 0.933 . S
C142 Dy120 2.738 . S
C142 O125 1.255 . S
C142 O126 1.249 . S
C142 C136 1.516 . S
C143 O127 1.254 . S
C143 O128 1.257 . S
C144 O129 1.266 . S
C144 O130 1.236 . S
C145 C148 1.344 . S
C145 C149 1.328 . S
C145 C151 1.516 . S
C146 C147 1.304 . S
C146 C150 1.323 . S
C147 C146 1.304 . S
C147 C148 1.371 . S
C147 H156 0.930 . S
C148 C145 1.344 . S
C148 C147 1.371 . S
C148 H157 0.931 . S
C149 C145 1.328 . S
C149 C150 1.433 . S
C149 H158 0.931 . S
C150 C146 1.323 . S
C150 C149 1.433 . S
C150 H159 0.933 . S
C151 Dy121 2.738 . S
C151 O131 1.255 . S
C151 O132 1.249 . S
C151 C145 1.516 . S
H152 C138 0.930 . S
H153 C139 0.931 . S
H154 C140 0.931 . S
H155 C141 0.933 . S
H156 C147 0.930 . S
H157 C148 0.931 . S
H158 C149 0.931 . S
H159 C150 0.933 . S
H160 C178 0.951 . S
H161 C180 0.951 . S
H162 C182 0.950 . S
H163 C183 0.950 . S
H164 C185 0.950 . S
H165 C188 0.950 . S
H166 C189 0.950 . S
H167 C191 0.950 . S
H168 C192 0.950 . S
H169 C193 0.951 . S
H170 C195 0.951 . S
H171 C197 0.950 . S
H172 C198 0.950 . S
H173 C200 0.950 . S
H174 C203 0.950 . S
H175 C204 0.950 . S
H176 C206 0.950 . S
H177 C207 0.950 . S
C178 H160 0.951 . S
C178 C179 1.366 . S
C178 C180 1.388 . S
C179 C178 1.366 . S
C179 C183 1.385 1_554 S
C180 H161 0.951 . S
C180 C178 1.388 . S
C180 C181 1.366 . S
C181 C180 1.366 . S
C181 C182 1.414 1_554 S
C181 C184 1.499 . S
C182 H162 0.950 . S
C182 C181 1.414 1_556 S
C182 C183 1.374 . S
C183 H163 0.950 . S
C183 C179 1.385 1_556 S
C183 C182 1.374 . S
C184 C181 1.499 . S
C184 C185 1.373 1_554 S
C184 C186 1.389 . S
C185 H164 0.950 . S
C185 C184 1.373 1_556 S
C185 C201 1.377 . S
C186 C184 1.389 . S
C186 C187 1.524 . S
C186 C200 1.377 . S
C187 C186 1.524 . S
C187 C188 1.397 . S
C187 C192 1.363 . S
C188 H165 0.950 . S
C188 C187 1.397 . S
C188 C189 1.334 . S
C189 H166 0.950 . S
C189 C188 1.334 . S
C189 C190 1.287 . S
C190 C189 1.287 . S
C190 C191 1.524 . S
C190 H209 0.913 . S
C191 H167 0.950 . S
C191 C190 1.524 . S
C191 C192 1.415 . S
C192 H168 0.950 . S
C192 C187 1.363 . S
C192 C191 1.415 . S
C193 H169 0.951 . S
C193 C194 1.366 . S
C193 C195 1.388 . S
C194 C193 1.366 . S
C194 C198 1.385 1_556 S
C195 H170 0.951 . S
C195 C193 1.388 . S
C195 C196 1.366 . S
C196 C195 1.366 . S
C196 C197 1.414 1_556 S
C196 C199 1.499 . S
C197 H171 0.950 . S
C197 C196 1.414 1_554 S
C197 C198 1.374 . S
C198 H172 0.950 . S
C198 C194 1.385 1_554 S
C198 C197 1.374 . S
C199 C196 1.499 . S
C199 C200 1.373 1_556 S
C199 C201 1.389 . S
C200 H173 0.950 . S
C200 C186 1.377 . S
C200 C199 1.373 1_554 S
C201 C185 1.377 . S
C201 C199 1.389 . S
C201 C202 1.524 . S
C202 C201 1.524 . S
C202 C203 1.397 . S
C202 C207 1.363 . S
C203 H174 0.950 . S
C203 C202 1.397 . S
C203 C204 1.334 . S
C204 H175 0.950 . S
C204 C203 1.334 . S
C204 C205 1.287 . S
C205 C204 1.287 . S
C205 C206 1.524 . S
C205 H208 0.999 . S
C206 H176 0.950 . S
C206 C205 1.524 . S
C206 C207 1.415 . S
C207 H177 0.950 . S
C207 C202 1.363 . S
C207 C206 1.415 . S
H208 C205 0.999 . S
H209 C190 0.913 . S
H210 C228 0.951 . S
H211 C230 0.951 . S
H212 C232 0.950 . S
H213 C233 0.950 . S
H214 C235 0.950 . S
H215 C238 0.950 . S
H216 C239 0.950 . S
H217 C241 0.950 . S
H218 C242 0.950 . S
H219 C243 0.951 . S
H220 C245 0.951 . S
H221 C247 0.950 . S
H222 C248 0.950 . S
H223 C250 0.950 . S
H224 C253 0.950 . S
H225 C254 0.950 . S
H226 C256 0.950 . S
H227 C257 0.950 . S
C228 H210 0.951 . S
C228 C229 1.366 . S
C228 C230 1.388 . S
C229 C228 1.366 . S
C229 C233 1.385 1_556 S
C230 H211 0.951 . S
C230 C228 1.388 . S
C230 C231 1.366 . S
C231 C230 1.366 . S
C231 C232 1.414 1_556 S
C231 C234 1.499 . S
C232 H212 0.950 . S
C232 C231 1.414 1_554 S
C232 C233 1.374 . S
C233 H213 0.950 . S
C233 C229 1.385 1_554 S
C233 C232 1.374 . S
C234 C231 1.499 . S
C234 C235 1.373 1_556 S
C234 C236 1.389 . S
C235 H214 0.950 . S
C235 C234 1.373 1_554 S
C235 C251 1.377 . S
C236 C234 1.389 . S
C236 C237 1.524 . S
C236 C250 1.377 . S
C237 C236 1.524 . S
C237 C238 1.397 . S
C237 C242 1.363 . S
C238 H215 0.950 . S
C238 C237 1.397 . S
C238 C239 1.334 . S
C239 H216 0.950 . S
C239 C238 1.334 . S
C239 C240 1.287 . S
C240 C239 1.287 . S
C240 C241 1.524 . S
C240 H259 0.913 . S
C241 H217 0.950 . S
C241 C240 1.524 . S
C241 C242 1.415 . S
C242 H218 0.950 . S
C242 C237 1.363 . S
C242 C241 1.415 . S
C243 H219 0.951 . S
C243 C244 1.366 . S
C243 C245 1.388 . S
C244 C243 1.366 . S
C244 C248 1.385 1_554 S
C245 H220 0.951 . S
C245 C243 1.388 . S
C245 C246 1.366 . S
C246 C245 1.366 . S
C246 C247 1.414 1_554 S
C246 C249 1.499 . S
C247 H221 0.950 . S
C247 C246 1.414 1_556 S
C247 C248 1.374 . S
C248 H222 0.950 . S
C248 C244 1.385 1_556 S
C248 C247 1.374 . S
C249 C246 1.499 . S
C249 C250 1.373 1_554 S
C249 C251 1.389 . S
C250 H223 0.950 . S
C250 C236 1.377 . S
C250 C249 1.373 1_556 S
C251 C235 1.377 . S
C251 C249 1.389 . S
C251 C252 1.524 . S
C252 C251 1.524 . S
C252 C253 1.397 . S
C252 C257 1.363 . S
C253 H224 0.950 . S
C253 C252 1.397 . S
C253 C254 1.334 . S
C254 H225 0.950 . S
C254 C253 1.334 . S
C254 C255 1.287 . S
C255 C254 1.287 . S
C255 C256 1.524 . S
C255 H258 0.999 . S
C256 H226 0.950 . S
C256 C255 1.524 . S
C256 C257 1.415 . S
C257 H227 0.950 . S
C257 C252 1.363 . S
C257 C256 1.415 . S
H258 C255 0.999 . S
H259 C240 0.913 . S
H260 C278 0.951 . S
H261 C280 0.951 . S
H262 C282 0.950 . S
H263 C283 0.950 . S
H264 C285 0.950 . S
H265 C288 0.950 . S
H266 C289 0.950 . S
H267 C291 0.950 . S
H268 C292 0.950 . S
H269 C293 0.951 . S
H270 C295 0.951 . S
H271 C297 0.950 . S
H272 C298 0.950 . S
H273 C300 0.950 . S
H274 C303 0.950 . S
H275 C304 0.950 . S
H276 C306 0.950 . S
H277 C307 0.950 . S
C278 H260 0.951 . S
C278 C279 1.366 . S
C278 C280 1.388 . S
C279 C278 1.366 . S
C279 C283 1.385 . S
C280 H261 0.951 . S
C280 C278 1.388 . S
C280 C281 1.366 . S
C281 C280 1.366 . S
C281 C282 1.414 . S
C281 C284 1.499 . S
C282 H262 0.950 . S
C282 C281 1.414 . S
C282 C283 1.374 . S
C283 H263 0.950 . S
C283 C279 1.385 . S
C283 C282 1.374 . S
C284 C281 1.499 . S
C284 C285 1.373 . S
C284 C286 1.389 . S
C285 H264 0.950 . S
C285 C284 1.373 . S
C285 C301 1.377 . S
C286 C284 1.389 . S
C286 C287 1.524 . S
C286 C300 1.377 . S
C287 C286 1.524 . S
C287 C288 1.397 . S
C287 C292 1.363 . S
C288 H265 0.950 . S
C288 C287 1.397 . S
C288 C289 1.334 . S
C289 H266 0.950 . S
C289 C288 1.334 . S
C289 C290 1.287 . S
C290 C289 1.287 . S
C290 C291 1.524 . S
C290 H309 0.913 . S
C291 H267 0.950 . S
C291 C290 1.524 . S
C291 C292 1.415 . S
C292 H268 0.950 . S
C292 C287 1.363 . S
C292 C291 1.415 . S
C293 H269 0.951 . S
C293 C294 1.366 . S
C293 C295 1.388 . S
C294 C293 1.366 . S
C294 C298 1.385 . S
C295 H270 0.951 . S
C295 C293 1.388 . S
C295 C296 1.366 . S
C296 C295 1.366 . S
C296 C297 1.414 . S
C296 C299 1.499 . S
C297 H271 0.950 . S
C297 C296 1.414 . S
C297 C298 1.374 . S
C298 H272 0.950 . S
C298 C294 1.385 . S
C298 C297 1.374 . S
C299 C296 1.499 . S
C299 C300 1.373 . S
C299 C301 1.389 . S
C300 H273 0.950 . S
C300 C286 1.377 . S
C300 C299 1.373 . S
C301 C285 1.377 . S
C301 C299 1.389 . S
C301 C302 1.524 . S
C302 C301 1.524 . S
C302 C303 1.397 . S
C302 C307 1.363 . S
C303 H274 0.950 . S
C303 C302 1.397 . S
C303 C304 1.334 . S
C304 H275 0.950 . S
C304 C303 1.334 . S
C304 C305 1.287 . S
C305 C304 1.287 . S
C305 C306 1.524 . S
C305 H308 0.999 . S
C306 H276 0.950 . S
C306 C305 1.524 . S
C306 C307 1.415 . S
C307 H277 0.950 . S
C307 C302 1.363 . S
C307 C306 1.415 . S
H308 C305 0.999 . S
H309 C290 0.913 . S
H310 C328 0.951 . S
H311 C330 0.951 . S
H312 C332 0.950 . S
H313 C333 0.950 . S
H314 C335 0.950 . S
H315 C338 0.950 . S
H316 C339 0.950 . S
H317 C341 0.950 . S
H318 C342 0.950 . S
H319 C343 0.951 . S
H320 C345 0.951 . S
H321 C347 0.950 . S
H322 C348 0.950 . S
H323 C350 0.950 . S
H324 C353 0.950 . S
H325 C354 0.950 . S
H326 C356 0.950 . S
H327 C357 0.950 . S
C328 H310 0.951 . S
C328 C329 1.366 . S
C328 C330 1.388 . S
C329 C328 1.366 . S
C329 C333 1.385 . S
C330 H311 0.951 . S
C330 C328 1.388 . S
C330 C331 1.366 . S
C331 C330 1.366 . S
C331 C332 1.414 . S
C331 C334 1.499 . S
C332 H312 0.950 . S
C332 C331 1.414 . S
C332 C333 1.374 . S
C333 H313 0.950 . S
C333 C329 1.385 . S
C333 C332 1.374 . S
C334 C331 1.499 . S
C334 C335 1.373 . S
C334 C336 1.389 . S
C335 H314 0.950 . S
C335 C334 1.373 . S
C335 C351 1.377 . S
C336 C334 1.389 . S
C336 C337 1.524 . S
C336 C350 1.377 . S
C337 C336 1.524 . S
C337 C338 1.397 . S
C337 C342 1.363 . S
C338 H315 0.950 . S
C338 C337 1.397 . S
C338 C339 1.334 . S
C339 H316 0.950 . S
C339 C338 1.334 . S
C339 C340 1.287 . S
C340 C339 1.287 . S
C340 C341 1.524 . S
C340 H359 0.913 . S
C341 H317 0.950 . S
C341 C340 1.524 . S
C341 C342 1.415 . S
C342 H318 0.950 . S
C342 C337 1.363 . S
C342 C341 1.415 . S
C343 H319 0.951 . S
C343 C344 1.366 . S
C343 C345 1.388 . S
C344 C343 1.366 . S
C344 C348 1.385 . S
C345 H320 0.951 . S
C345 C343 1.388 . S
C345 C346 1.366 . S
C346 C345 1.366 . S
C346 C347 1.414 . S
C346 C349 1.499 . S
C347 H321 0.950 . S
C347 C346 1.414 . S
C347 C348 1.374 . S
C348 H322 0.950 . S
C348 C344 1.385 . S
C348 C347 1.374 . S
C349 C346 1.499 . S
C349 C350 1.373 . S
C349 C351 1.389 . S
C350 H323 0.950 . S
C350 C336 1.377 . S
C350 C349 1.373 . S
C351 C335 1.377 . S
C351 C349 1.389 . S
C351 C352 1.524 . S
C352 C351 1.524 . S
C352 C353 1.397 . S
C352 C357 1.363 . S
C353 H324 0.950 . S
C353 C352 1.397 . S
C353 C354 1.334 . S
C354 H325 0.950 . S
C354 C353 1.334 . S
C354 C355 1.287 . S
C355 C354 1.287 . S
C355 C356 1.524 . S
C355 H358 0.999 . S
C356 H326 0.950 . S
C356 C355 1.524 . S
C356 C357 1.415 . S
C357 H327 0.950 . S
C357 C352 1.363 . S
C357 C356 1.415 . S
H358 C355 0.999 . S
H359 C340 0.913 . S
H360 C378 0.951 . S
H361 C380 0.969 . S
H362 C382 0.950 . S
H363 C383 0.950 . S
H364 C385 0.950 . S
H365 C388 0.950 . S
H366 C389 0.950 . S
H367 C391 0.950 . S
H368 C392 0.950 . S
H369 C393 0.951 . S
H370 C395 0.951 . S
H371 C397 0.950 . S
H372 C398 0.950 . S
H373 C400 0.950 . S
H374 C403 0.950 . S
H375 C404 0.950 . S
H376 C406 0.950 . S
H377 C407 0.950 . S
C378 H360 0.951 . S
C378 C379 1.366 1_556 S
C378 C380 1.388 . S
C379 C378 1.366 1_554 S
C379 C383 1.385 . S
C380 H361 0.969 . S
C380 C378 1.388 . S
C380 C381 1.366 1_556 S
C381 C380 1.366 1_554 S
C381 C382 1.414 . S
C381 C384 1.499 . S
C382 H362 0.950 . S
C382 C381 1.414 . S
C382 C383 1.374 . S
C383 H363 0.950 . S
C383 C379 1.385 . S
C383 C382 1.374 . S
C384 C381 1.499 . S
C384 C385 1.373 1_565 S
C384 C386 1.389 1_554 S
C385 H364 0.950 . S
C385 C384 1.373 1_545 S
C385 C401 1.377 . S
C386 C384 1.389 1_556 S
C386 C387 1.524 . S
C386 C400 1.377 . S
C387 C386 1.524 . S
C387 C388 1.397 . S
C387 C392 1.363 . S
C388 H365 0.950 . S
C388 C387 1.397 . S
C388 C389 1.334 . S
C389 H366 0.950 . S
C389 C388 1.334 . S
C389 C390 1.287 . S
C390 C389 1.287 . S
C390 C391 1.524 . S
C390 H409 0.913 . S
C391 H367 0.950 . S
C391 C390 1.524 . S
C391 C392 1.415 . S
C392 H368 0.950 . S
C392 C387 1.363 . S
C392 C391 1.415 . S
C393 H369 0.951 . S
C393 C394 1.366 1_554 S
C393 C395 1.388 . S
C394 C393 1.366 1_556 S
C394 C398 1.385 . S
C395 H370 0.951 . S
C395 C393 1.388 . S
C395 C396 1.366 1_554 S
C396 C395 1.366 1_556 S
C396 C397 1.414 . S
C396 C399 1.499 . S
C397 H371 0.950 . S
C397 C396 1.414 . S
C397 C398 1.374 . S
C398 H372 0.950 . S
C398 C394 1.385 . S
C398 C397 1.374 . S
C399 C396 1.499 . S
C399 C400 1.373 1_545 S
C399 C401 1.389 1_556 S
C400 H373 0.950 . S
C400 C386 1.377 . S
C400 C399 1.373 1_565 S
C401 C385 1.377 . S
C401 C399 1.389 1_554 S
C401 C402 1.524 . S
C402 C401 1.524 . S
C402 C403 1.397 . S
C402 C407 1.363 . S
C403 H374 0.950 . S
C403 C402 1.397 . S
C403 C404 1.334 . S
C404 H375 0.950 . S
C404 C403 1.334 . S
C404 C405 1.287 . S
C405 C404 1.287 . S
C405 C406 1.524 . S
C405 H408 0.999 . S
C406 H376 0.950 . S
C406 C405 1.524 . S
C406 C407 1.415 . S
C407 H377 0.950 . S
C407 C402 1.363 . S
C407 C406 1.415 . S
H408 C405 0.999 . S
H409 C390 0.913 . S
H410 C428 0.951 . S
H411 C430 0.951 . S
H412 C432 0.950 . S
H413 C433 0.950 . S
H414 C435 0.950 . S
H415 C438 0.950 . S
H416 C439 0.950 . S
H417 C441 0.950 1_545 S
H418 C442 0.950 . S
H419 C443 0.951 . S
H420 C445 0.951 . S
H421 C447 0.950 . S
H422 C448 0.950 . S
H423 C450 0.950 . S
H424 C453 0.950 . S
H425 C454 0.950 . S
H426 C456 0.950 1_565 S
H427 C457 0.950 . S
C428 H410 0.951 . S
C428 C429 1.366 1_545 S
C428 C430 1.388 . S
C429 C428 1.366 1_565 S
C429 C433 1.385 . S
C430 H411 0.951 . S
C430 C428 1.388 . S
C430 C431 1.366 1_545 S
C431 C430 1.366 1_565 S
C431 C432 1.414 . S
C431 C434 1.499 . S
C432 H412 0.950 . S
C432 C431 1.414 . S
C432 C433 1.374 . S
C433 H413 0.950 . S
C433 C429 1.385 . S
C433 C432 1.374 . S
C434 C431 1.499 . S
C434 C435 1.373 1_565 S
C434 C436 1.389 . S
C435 H414 0.950 . S
C435 C434 1.373 1_545 S
C435 C451 1.377 . S
C436 C434 1.389 . S
C436 C437 1.524 . S
C436 C450 1.377 . S
C437 C436 1.524 . S
C437 C438 1.397 . S
C437 C442 1.363 1_565 S
C438 H415 0.950 . S
C438 C437 1.397 . S
C438 C439 1.334 . S
C439 H416 0.950 . S
C439 C438 1.334 . S
C439 C440 1.287 . S
C440 C439 1.287 . S
C440 C441 1.524 . S
C440 H459 0.913 . S
C441 H417 0.950 1_565 S
C441 C440 1.524 . S
C441 C442 1.415 1_565 S
C442 H418 0.950 . S
C442 C437 1.363 1_545 S
C442 C441 1.415 1_545 S
C443 H419 0.951 . S
C443 C444 1.366 1_565 S
C443 C445 1.388 . S
C444 C443 1.366 1_545 S
C444 C448 1.385 . S
C445 H420 0.951 . S
C445 C443 1.388 . S
C445 C446 1.366 1_565 S
C446 C445 1.366 1_545 S
C446 C447 1.414 . S
C446 C449 1.499 . S
C447 H421 0.950 . S
C447 C446 1.414 . S
C447 C448 1.374 . S
C448 H422 0.950 . S
C448 C444 1.385 . S
C448 C447 1.374 . S
C449 C446 1.499 . S
C449 C450 1.373 1_545 S
C449 C451 1.389 . S
C450 H423 0.950 . S
C450 C436 1.377 . S
C450 C449 1.373 1_565 S
C451 C435 1.377 . S
C451 C449 1.389 . S
C451 C452 1.524 . S
C452 C451 1.524 . S
C452 C453 1.397 . S
C452 C457 1.363 1_545 S
C453 H424 0.950 . S
C453 C452 1.397 . S
C453 C454 1.334 . S
C454 H425 0.950 . S
C454 C453 1.334 . S
C454 C455 1.287 . S
C455 C454 1.287 . S
C455 C456 1.524 . S
C455 H458 0.999 . S
C456 H426 0.950 1_545 S
C456 C455 1.524 . S
C456 C457 1.415 1_545 S
C457 H427 0.950 . S
C457 C452 1.363 1_565 S
C457 C456 1.415 1_565 S
H458 C455 0.999 . S
H459 C440 0.913 . S
H460 C478 0.951 . S
H461 C480 0.951 . S
H462 C482 0.950 . S
H463 C483 0.950 . S
H464 C485 0.950 . S
H465 C488 0.950 . S
H466 C489 0.950 . S
H467 C491 0.950 . S
H468 C492 0.950 . S
H469 C493 0.951 . S
H470 C495 0.951 . S
H471 C497 0.950 . S
H472 C498 0.950 . S
H473 C500 0.950 . S
H474 C503 0.950 . S
H475 C504 0.950 . S
H476 C506 0.950 . S
H477 C507 0.950 . S
C478 H460 0.951 . S
C478 C479 1.366 . S
C478 C480 1.388 . S
C479 C478 1.366 . S
C479 C483 1.385 1_554 S
C480 H461 0.951 . S
C480 C478 1.388 . S
C480 C481 1.366 . S
C481 C480 1.366 . S
C481 C482 1.414 1_554 S
C481 C484 1.499 . S
C482 H462 0.950 . S
C482 C481 1.414 1_556 S
C482 C483 1.374 . S
C483 H463 0.950 . S
C483 C479 1.385 1_556 S
C483 C482 1.374 . S
C484 C481 1.499 . S
C484 C485 1.373 1_554 S
C484 C486 1.389 . S
C485 H464 0.950 . S
C485 C484 1.373 1_556 S
C485 C501 1.377 1_655 S
C486 C484 1.389 . S
C486 C487 1.524 . S
C486 C500 1.377 1_655 S
C487 C486 1.524 . S
C487 C488 1.397 . S
C487 C492 1.363 1_655 S
C488 H465 0.950 . S
C488 C487 1.397 . S
C488 C489 1.334 . S
C489 H466 0.950 . S
C489 C488 1.334 . S
C489 C490 1.287 . S
C490 C489 1.287 . S
C490 C491 1.524 1_655 S
C490 H509 0.913 . S
C491 H467 0.950 . S
C491 C490 1.524 1_455 S
C491 C492 1.415 . S
C492 H468 0.950 . S
C492 C487 1.363 1_455 S
C492 C491 1.415 . S
C493 H469 0.951 . S
C493 C494 1.366 . S
C493 C495 1.388 . S
C494 C493 1.366 . S
C494 C498 1.385 1_556 S
C495 H470 0.951 . S
C495 C493 1.388 . S
C495 C496 1.366 . S
C496 C495 1.366 . S
C496 C497 1.414 1_556 S
C496 C499 1.499 . S
C497 H471 0.950 . S
C497 C496 1.414 1_554 S
C497 C498 1.374 . S
C498 H472 0.950 . S
C498 C494 1.385 1_554 S
C498 C497 1.374 . S
C499 C496 1.499 . S
C499 C500 1.373 1_556 S
C499 C501 1.389 . S
C500 H473 0.950 . S
C500 C486 1.377 1_455 S
C500 C499 1.373 1_554 S
C501 C485 1.377 1_455 S
C501 C499 1.389 . S
C501 C502 1.524 . S
C502 C501 1.524 . S
C502 C503 1.397 . S
C502 C507 1.363 1_455 S
C503 H474 0.950 . S
C503 C502 1.397 . S
C503 C504 1.334 . S
C504 H475 0.950 . S
C504 C503 1.334 . S
C504 C505 1.287 . S
C505 C504 1.287 . S
C505 C506 1.524 1_455 S
C505 H508 0.999 . S
C506 H476 0.950 . S
C506 C505 1.524 1_655 S
C506 C507 1.415 . S
C507 H477 0.950 . S
C507 C502 1.363 1_655 S
C507 C506 1.415 . S
H508 C505 0.999 . S
H509 C490 0.913 . S
H510 C528 0.951 . S
H511 C530 0.951 . S
H512 C532 0.950 . S
H513 C533 0.950 . S
H514 C535 0.950 . S
H515 C538 0.950 . S
H516 C539 0.950 . S
H517 C541 0.950 . S
H518 C542 0.950 . S
H519 C543 0.951 . S
H520 C545 0.951 . S
H521 C547 0.950 . S
H522 C548 0.950 . S
H523 C550 0.950 . S
H524 C553 0.950 . S
H525 C554 0.950 . S
H526 C556 0.950 . S
H527 C557 0.950 . S
C528 H510 0.951 . S
C528 C529 1.366 . S
C528 C530 1.388 . S
C529 C528 1.366 . S
C529 C533 1.385 . S
C530 H511 0.951 . S
C530 C528 1.388 . S
C530 C531 1.366 . S
C531 C530 1.366 . S
C531 C532 1.414 . S
C531 C534 1.499 . S
C532 H512 0.950 . S
C532 C531 1.414 . S
C532 C533 1.374 . S
C533 H513 0.950 . S
C533 C529 1.385 . S
C533 C532 1.374 . S
C534 C531 1.499 . S
C534 C535 1.373 . S
C534 C536 1.389 . S
C535 H514 0.950 . S
C535 C534 1.373 . S
C535 C551 1.377 1_455 S
C536 C534 1.389 . S
C536 C537 1.524 . S
C536 C550 1.377 1_455 S
C537 C536 1.524 . S
C537 C538 1.397 . S
C537 C542 1.363 . S
C538 H515 0.950 . S
C538 C537 1.397 . S
C538 C539 1.334 . S
C539 H516 0.950 . S
C539 C538 1.334 . S
C539 C540 1.287 . S
C540 C539 1.287 . S
C540 C541 1.524 . S
C540 H559 0.913 . S
C541 H517 0.950 . S
C541 C540 1.524 . S
C541 C542 1.415 . S
C542 H518 0.950 . S
C542 C537 1.363 . S
C542 C541 1.415 . S
C543 H519 0.951 . S
C543 C544 1.366 . S
C543 C545 1.388 . S
C544 C543 1.366 . S
C544 C548 1.385 . S
C545 H520 0.951 . S
C545 C543 1.388 . S
C545 C546 1.366 . S
C546 C545 1.366 . S
C546 C547 1.414 . S
C546 C549 1.499 . S
C547 H521 0.950 . S
C547 C546 1.414 . S
C547 C548 1.374 . S
C548 H522 0.950 . S
C548 C544 1.385 . S
C548 C547 1.374 . S
C549 C546 1.499 . S
C549 C550 1.373 . S
C549 C551 1.389 . S
C550 H523 0.950 . S
C550 C536 1.377 1_655 S
C550 C549 1.373 . S
C551 C535 1.377 1_655 S
C551 C549 1.389 . S
C551 C552 1.524 . S
C552 C551 1.524 . S
C552 C553 1.397 . S
C552 C557 1.363 . S
C553 H524 0.950 . S
C553 C552 1.397 . S
C553 C554 1.334 . S
C554 H525 0.950 . S
C554 C553 1.334 . S
C554 C555 1.287 . S
C555 C554 1.287 . S
C555 C556 1.524 . S
C555 H558 0.999 . S
C556 H526 0.950 . S
C556 C555 1.524 . S
C556 C557 1.415 . S
C557 H527 0.950 . S
C557 C552 1.363 . S
C557 C556 1.415 . S
H558 C555 0.999 . S
H559 C540 0.913 . S
H560 C578 0.951 . S
H561 C580 0.951 . S
H562 C582 0.950 . S
H563 C583 0.950 . S
H564 C585 0.950 . S
H565 C588 0.950 . S
H566 C589 0.950 . S
H567 C591 0.950 . S
H568 C592 0.950 . S
H569 C593 0.951 . S
H570 C595 0.951 . S
H571 C597 0.950 . S
H572 C598 0.950 . S
H573 C600 0.950 . S
H574 C603 0.950 . S
H575 C604 0.950 . S
H576 C606 0.950 . S
H577 C607 0.950 . S
C578 H560 0.951 . S
C578 C579 1.366 . S
C578 C580 1.388 . S
C579 C578 1.366 . S
C579 C583 1.385 1_645 S
C580 H561 0.951 . S
C580 C578 1.388 . S
C580 C581 1.366 . S
C581 C580 1.366 . S
C581 C582 1.414 1_645 S
C581 C584 1.498 . S
C582 H562 0.950 . S
C582 C581 1.414 1_465 S
C582 C583 1.374 . S
C583 H563 0.950 . S
C583 C579 1.385 1_465 S
C583 C582 1.374 . S
C584 C581 1.498 . S
C584 C585 1.373 1_645 S
C584 C586 1.395 . S
C585 H564 0.950 . S
C585 C584 1.373 1_465 S
C585 C601 1.377 . S
C586 C584 1.395 . S
C586 C587 1.524 . S
C586 C600 1.377 . S
C587 C586 1.524 . S
C587 C588 1.397 1_545 S
C587 C592 1.363 . S
C588 H565 0.950 . S
C588 C587 1.397 1_565 S
C588 C589 1.334 . S
C589 H566 0.950 . S
C589 C588 1.334 . S
C589 C590 1.287 1_565 S
C590 C589 1.287 1_545 S
C590 C591 1.524 . S
C590 H609 0.913 . S
C591 H567 0.950 . S
C591 C590 1.524 . S
C591 C592 1.415 . S
C592 H568 0.950 . S
C592 C587 1.363 . S
C592 C591 1.415 . S
C593 H569 0.951 . S
C593 C594 1.362 1_465 S
C593 C595 1.388 . S
C594 C593 1.362 1_645 S
C594 C598 1.391 . S
C595 H570 0.951 . S
C595 C593 1.388 . S
C595 C596 1.366 1_565 S
C596 C595 1.366 1_545 S
C596 C597 1.414 1_455 S
C596 C599 1.500 . S
C597 H571 0.950 . S
C597 C596 1.414 1_655 S
C597 C598 1.374 . S
C598 H572 0.950 . S
C598 C594 1.391 . S
C598 C597 1.374 . S
C599 C596 1.500 . S
C599 C600 1.367 1_455 S
C599 C601 1.394 1_545 S
C600 H573 0.950 . S
C600 C586 1.377 . S
C600 C599 1.367 1_655 S
C601 C585 1.377 . S
C601 C599 1.394 1_565 S
C601 C602 1.524 . S
C602 C601 1.524 . S
C602 C603 1.397 1_565 S
C602 C607 1.363 . S
C603 H574 0.950 . S
C603 C602 1.397 1_545 S
C603 C604 1.334 . S
C604 H575 0.950 . S
C604 C603 1.334 . S
C604 C605 1.287 1_545 S
C605 C604 1.287 1_565 S
C605 C606 1.524 . S
C605 H608 0.999 . S
C606 H576 0.950 . S
C606 C605 1.524 . S
C606 C607 1.415 . S
C607 H577 0.950 . S
C607 C602 1.363 . S
C607 C606 1.415 . S
H608 C605 0.999 . S
H609 C590 0.913 . S
H610 C628 0.951 . S
H611 C630 0.951 . S
H612 C632 0.950 . S
H613 C633 0.950 . S
H614 C635 0.950 . S
H615 C638 0.950 . S
H616 C639 0.950 . S
H617 C641 0.950 . S
H618 C642 0.950 . S
H619 C643 0.952 . S
H620 C645 0.937 1_655 S
H621 C647 0.950 . S
H622 C648 0.950 . S
H623 C650 0.950 . S
H624 C653 0.950 . S
H625 C654 0.950 . S
H626 C656 0.950 . S
H627 C657 0.950 . S
C628 H610 0.951 . S
C628 C629 1.366 1_545 S
C628 C630 1.388 . S
C629 C628 1.366 1_565 S
C629 C633 1.385 1_455 S
C630 H611 0.951 . S
C630 C628 1.388 . S
C630 C631 1.366 1_445 S
C631 C630 1.366 1_665 S
C631 C632 1.414 . S
C631 C634 1.499 . S
C632 H612 0.950 . S
C632 C631 1.414 . S
C632 C633 1.374 . S
C633 H613 0.950 . S
C633 C629 1.385 1_655 S
C633 C632 1.374 . S
C634 C631 1.499 . S
C634 C635 1.373 1_655 S
C634 C636 1.389 1_565 S
C635 H614 0.950 . S
C635 C634 1.373 1_455 S
C635 C651 1.377 . S
C636 C634 1.389 1_545 S
C636 C637 1.524 . S
C636 C650 1.377 . S
C637 C636 1.524 . S
C637 C638 1.397 . S
C637 C642 1.363 . S
C638 H615 0.950 . S
C638 C637 1.397 . S
C638 C639 1.334 . S
C639 H616 0.950 . S
C639 C638 1.334 . S
C639 C640 1.287 . S
C640 C639 1.287 . S
C640 C641 1.524 . S
C640 H659 0.913 . S
C641 H617 0.950 . S
C641 C640 1.524 . S
C641 C642 1.415 . S
C642 H618 0.950 . S
C642 C637 1.363 . S
C642 C641 1.415 . S
C643 H619 0.952 . S
C643 C644 1.365 1_655 S
C643 C645 1.392 1_655 S
C644 C643 1.365 1_455 S
C644 C648 1.385 1_565 S
C645 H620 0.937 1_455 S
C645 C643 1.392 1_455 S
C645 C646 1.369 . S
C646 C645 1.369 . S
C646 C647 1.414 1_565 S
C646 C649 1.499 . S
C647 H621 0.950 . S
C647 C646 1.414 1_545 S
C647 C648 1.374 . S
C648 H622 0.950 . S
C648 C644 1.385 1_545 S
C648 C647 1.374 . S
C649 C646 1.499 . S
C649 C650 1.373 1_465 S
C649 C651 1.389 . S
C650 H623 0.950 . S
C650 C636 1.377 . S
C650 C649 1.373 1_645 S
C651 C635 1.377 . S
C651 C649 1.389 . S
C651 C652 1.524 . S
C652 C651 1.524 . S
C652 C653 1.397 . S
C652 C657 1.363 . S
C653 H624 0.950 . S
C653 C652 1.397 . S
C653 C654 1.334 . S
C654 H625 0.950 . S
C654 C653 1.334 . S
C654 C655 1.287 . S
C655 C654 1.287 . S
C655 C656 1.524 . S
C655 H658 0.999 . S
C656 H626 0.950 . S
C656 C655 1.524 . S
C656 C657 1.415 . S
C657 H627 0.950 . S
C657 C652 1.363 . S
C657 C656 1.415 . S
H658 C655 0.999 . S
H659 C640 0.913 . S
H660 C678 0.951 . S
H661 C680 0.951 . S
H662 C682 0.950 . S
H663 C683 0.950 . S
H664 C685 0.950 . S
H665 C688 0.950 . S
H666 C689 0.950 . S
H667 C691 0.950 . S
H668 C692 0.950 . S
H669 C693 0.951 . S
H670 C695 0.951 . S
H671 C697 0.950 . S
H672 C698 0.950 . S
H673 C700 0.950 . S
H674 C703 0.950 . S
H675 C704 0.950 . S
H676 C706 0.950 . S
H677 C707 0.950 . S
C678 H660 0.951 . S
C678 C679 1.366 . S
C678 C680 1.388 . S
C679 C678 1.366 . S
C679 C683 1.385 . S
C680 H661 0.951 . S
C680 C678 1.388 . S
C680 C681 1.366 . S
C681 C680 1.366 . S
C681 C682 1.414 . S
C681 C684 1.499 . S
C682 H662 0.950 . S
C682 C681 1.414 . S
C682 C683 1.374 . S
C683 H663 0.950 . S
C683 C679 1.385 . S
C683 C682 1.374 . S
C684 C681 1.499 . S
C684 C685 1.373 . S
C684 C686 1.389 . S
C685 H664 0.950 . S
C685 C684 1.373 . S
C685 C701 1.377 . S
C686 C684 1.389 . S
C686 C687 1.524 . S
C686 C700 1.377 . S
C687 C686 1.524 . S
C687 C688 1.397 . S
C687 C692 1.363 . S
C688 H665 0.950 . S
C688 C687 1.397 . S
C688 C689 1.334 . S
C689 H666 0.950 . S
C689 C688 1.334 . S
C689 C690 1.287 . S
C690 C689 1.287 . S
C690 C691 1.524 . S
C690 H709 0.913 . S
C691 H667 0.950 . S
C691 C690 1.524 . S
C691 C692 1.415 . S
C692 H668 0.950 . S
C692 C687 1.363 . S
C692 C691 1.415 . S
C693 H669 0.951 . S
C693 C694 1.366 . S
C693 C695 1.388 . S
C694 C693 1.366 . S
C694 C698 1.385 . S
C695 H670 0.951 . S
C695 C693 1.388 . S
C695 C696 1.366 . S
C696 C695 1.366 . S
C696 C697 1.414 . S
C696 C699 1.499 . S
C697 H671 0.950 . S
C697 C696 1.414 . S
C697 C698 1.374 . S
C698 H672 0.950 . S
C698 C694 1.385 . S
C698 C697 1.374 . S
C699 C696 1.499 . S
C699 C700 1.373 . S
C699 C701 1.389 . S
C700 H673 0.950 . S
C700 C686 1.377 . S
C700 C699 1.373 . S
C701 C685 1.377 . S
C701 C699 1.389 . S
C701 C702 1.524 . S
C702 C701 1.524 . S
C702 C703 1.397 . S
C702 C707 1.363 . S
C703 H674 0.950 . S
C703 C702 1.397 . S
C703 C704 1.334 . S
C704 H675 0.950 . S
C704 C703 1.334 . S
C704 C705 1.287 . S
C705 C704 1.287 . S
C705 C706 1.524 . S
C705 H708 0.999 . S
C706 H676 0.950 . S
C706 C705 1.524 . S
C706 C707 1.415 . S
C707 H677 0.950 . S
C707 C702 1.363 . S
C707 C706 1.415 . S
H708 C705 0.999 . S
H709 C690 0.913 . S
H710 C728 0.951 . S
H711 C730 0.951 . S
H712 C732 0.950 . S
H713 C733 0.950 . S
H714 C735 0.950 . S
H715 C738 0.950 . S
H716 C739 0.950 . S
H717 C741 0.950 . S
H718 C742 0.950 . S
H719 C743 0.951 . S
H720 C745 0.951 . S
H721 C747 0.950 . S
H722 C748 0.950 . S
H723 C750 0.950 . S
H724 C753 0.950 . S
H725 C754 0.950 . S
H726 C756 0.950 . S
H727 C757 0.950 . S
C728 H710 0.951 . S
C728 C729 1.366 . S
C728 C730 1.388 . S
C729 C728 1.366 . S
C729 C733 1.385 . S
C730 H711 0.951 . S
C730 C728 1.388 . S
C730 C731 1.366 . S
C731 C730 1.366 . S
C731 C732 1.414 . S
C731 C734 1.499 . S
C732 H712 0.950 . S
C732 C731 1.414 . S
C732 C733 1.374 . S
C733 H713 0.950 . S
C733 C729 1.385 . S
C733 C732 1.374 . S
C734 C731 1.499 . S
C734 C735 1.373 . S
C734 C736 1.389 . S
C735 H714 0.950 . S
C735 C734 1.373 . S
C735 C751 1.377 . S
C736 C734 1.389 . S
C736 C737 1.524 . S
C736 C750 1.377 . S
C737 C736 1.524 . S
C737 C738 1.397 . S
C737 C742 1.363 . S
C738 H715 0.950 . S
C738 C737 1.397 . S
C738 C739 1.334 . S
C739 H716 0.950 . S
C739 C738 1.334 . S
C739 C740 1.287 . S
C740 C739 1.287 . S
C740 C741 1.524 . S
C740 H759 0.913 . S
C741 H717 0.950 . S
C741 C740 1.524 . S
C741 C742 1.415 . S
C742 H718 0.950 . S
C742 C737 1.363 . S
C742 C741 1.415 . S
C743 H719 0.951 . S
C743 C744 1.366 . S
C743 C745 1.388 . S
C744 C743 1.366 . S
C744 C748 1.385 . S
C745 H720 0.951 . S
C745 C743 1.388 . S
C745 C746 1.366 . S
C746 C745 1.366 . S
C746 C747 1.414 . S
C746 C749 1.499 . S
C747 H721 0.950 . S
C747 C746 1.414 . S
C747 C748 1.374 . S
C748 H722 0.950 . S
C748 C744 1.385 . S
C748 C747 1.374 . S
C749 C746 1.499 . S
C749 C750 1.373 . S
C749 C751 1.389 . S
C750 H723 0.950 . S
C750 C736 1.377 . S
C750 C749 1.373 . S
C751 C735 1.377 . S
C751 C749 1.389 . S
C751 C752 1.524 . S
C752 C751 1.524 . S
C752 C753 1.397 . S
C752 C757 1.363 . S
C753 H724 0.950 . S
C753 C752 1.397 . S
C753 C754 1.334 . S
C754 H725 0.950 . S
C754 C753 1.334 . S
C754 C755 1.287 . S
C755 C754 1.287 . S
C755 C756 1.524 . S
C755 H758 0.999 . S
C756 H726 0.950 . S
C756 C755 1.524 . S
C756 C757 1.415 . S
C757 H727 0.950 . S
C757 C752 1.363 . S
C757 C756 1.415 . S
H758 C755 0.999 . S
H759 C740 0.913 . S
C179 C93 3.542 . S
C194 C24 3.541 . S
C229 C104 3.541 . S
C244 C13 3.542 . S
C279 C57 0.243 . S
C294 C146 0.243 . S
C329 C66 0.244 . S
C344 C137 0.244 . S
C379 C17 1.298 . S
C394 C26 1.298 . S
C429 C64 4.658 . S
C444 C53 4.658 . S
C479 C97 1.298 . S
C494 C106 1.298 . S
C529 C133 4.658 . S
C544 C144 4.658 . S
C579 C42 1.467 1_545 S
C594 C23 1.464 1_655 S
C629 C2 1.471 1_455 S
C644 C63 1.468 1_565 S
C679 C122 1.467 . S
C694 C103 1.469 . S
C729 C143 1.467 . S
C744 C82 1.472 . S
