# Generated by pormake.
# Topology whw, (6)-cn, num edge types: 1
# Building blocks:
#     Node 0, Type 0, BuildingBlock: UKALOJ_clean_sbu_0, # of connection points: 6
#     Node 1, Type 0, BuildingBlock: UKALOJ_clean_sbu_0, # of connection points: 6
#     Node 2, Type 0, BuildingBlock: UKALOJ_clean_sbu_0, # of connection points: 6
#     Node 3, Type 0, BuildingBlock: UKALOJ_clean_sbu_0, # of connection points: 6
#     Node 4, Type 0, BuildingBlock: UKALOJ_clean_sbu_0, # of connection points: 6
#     Node 5, Type 0, BuildingBlock: UKALOJ_clean_sbu_0, # of connection points: 6
#     Node 6, Type 0, BuildingBlock: UKALOJ_clean_sbu_0, # of connection points: 6
#     Node 7, Type 0, BuildingBlock: UKALOJ_clean_sbu_0, # of connection points: 6
#     Node 8, Type 0, BuildingBlock: UKALOJ_clean_sbu_0, # of connection points: 6
#     Node 9, Type 0, BuildingBlock: UKALOJ_clean_sbu_0, # of connection points: 6
#     Node 10, Type 0, BuildingBlock: UKALOJ_clean_sbu_0, # of connection points: 6
#     Node 11, Type 0, BuildingBlock: UKALOJ_clean_sbu_0, # of connection points: 6
#     Node 12, Type 0, BuildingBlock: UKALOJ_clean_sbu_0, # of connection points: 6
#     Node 13, Type 0, BuildingBlock: UKALOJ_clean_sbu_0, # of connection points: 6
#     Node 14, Type 0, BuildingBlock: UKALOJ_clean_sbu_0, # of connection points: 6
#     Node 15, Type 0, BuildingBlock: UKALOJ_clean_sbu_0, # of connection points: 6
#     Edge 16, Type (0, 0), BuildingBlock: ZUJKAS_clean_linker_0, # of connection points: 2
#     Edge 17, Type (0, 0), BuildingBlock: ZUJKAS_clean_linker_0, # of connection points: 2
#     Edge 18, Type (0, 0), BuildingBlock: ZUJKAS_clean_linker_0, # of connection points: 2
#     Edge 19, Type (0, 0), BuildingBlock: ZUJKAS_clean_linker_0, # of connection points: 2
#     Edge 20, Type (0, 0), BuildingBlock: ZUJKAS_clean_linker_0, # of connection points: 2
#     Edge 21, Type (0, 0), BuildingBlock: ZUJKAS_clean_linker_0, # of connection points: 2
#     Edge 22, Type (0, 0), BuildingBlock: ZUJKAS_clean_linker_0, # of connection points: 2
#     Edge 23, Type (0, 0), BuildingBlock: ZUJKAS_clean_linker_0, # of connection points: 2
#     Edge 24, Type (0, 0), BuildingBlock: ZUJKAS_clean_linker_0, # of connection points: 2
#     Edge 25, Type (0, 0), BuildingBlock: ZUJKAS_clean_linker_0, # of connection points: 2
#     Edge 26, Type (0, 0), BuildingBlock: ZUJKAS_clean_linker_0, # of connection points: 2
#     Edge 27, Type (0, 0), BuildingBlock: ZUJKAS_clean_linker_0, # of connection points: 2
#     Edge 28, Type (0, 0), BuildingBlock: ZUJKAS_clean_linker_0, # of connection points: 2
#     Edge 29, Type (0, 0), BuildingBlock: ZUJKAS_clean_linker_0, # of connection points: 2
#     Edge 30, Type (0, 0), BuildingBlock: ZUJKAS_clean_linker_0, # of connection points: 2
#     Edge 31, Type (0, 0), BuildingBlock: ZUJKAS_clean_linker_0, # of connection points: 2
#     Edge 32, Type (0, 0), BuildingBlock: ZUJKAS_clean_linker_0, # of connection points: 2
#     Edge 33, Type (0, 0), BuildingBlock: ZUJKAS_clean_linker_0, # of connection points: 2
#     Edge 34, Type (0, 0), BuildingBlock: ZUJKAS_clean_linker_0, # of connection points: 2
#     Edge 35, Type (0, 0), BuildingBlock: ZUJKAS_clean_linker_0, # of connection points: 2
#     Edge 36, Type (0, 0), BuildingBlock: ZUJKAS_clean_linker_0, # of connection points: 2
#     Edge 37, Type (0, 0), BuildingBlock: ZUJKAS_clean_linker_0, # of connection points: 2
#     Edge 38, Type (0, 0), BuildingBlock: ZUJKAS_clean_linker_0, # of connection points: 2
#     Edge 39, Type (0, 0), BuildingBlock: ZUJKAS_clean_linker_0, # of connection points: 2
#     Edge 40, Type (0, 0), BuildingBlock: ZUJKAS_clean_linker_0, # of connection points: 2
#     Edge 41, Type (0, 0), BuildingBlock: ZUJKAS_clean_linker_0, # of connection points: 2
#     Edge 42, Type (0, 0), BuildingBlock: ZUJKAS_clean_linker_0, # of connection points: 2
#     Edge 43, Type (0, 0), BuildingBlock: ZUJKAS_clean_linker_0, # of connection points: 2
#     Edge 44, Type (0, 0), BuildingBlock: ZUJKAS_clean_linker_0, # of connection points: 2
#     Edge 45, Type (0, 0), BuildingBlock: ZUJKAS_clean_linker_0, # of connection points: 2
#     Edge 46, Type (0, 0), BuildingBlock: ZUJKAS_clean_linker_0, # of connection points: 2
#     Edge 47, Type (0, 0), BuildingBlock: ZUJKAS_clean_linker_0, # of connection points: 2
#     Edge 48, Type (0, 0), BuildingBlock: ZUJKAS_clean_linker_0, # of connection points: 2
#     Edge 49, Type (0, 0), BuildingBlock: ZUJKAS_clean_linker_0, # of connection points: 2
#     Edge 50, Type (0, 0), BuildingBlock: ZUJKAS_clean_linker_0, # of connection points: 2
#     Edge 51, Type (0, 0), BuildingBlock: ZUJKAS_clean_linker_0, # of connection points: 2
#     Edge 52, Type (0, 0), BuildingBlock: ZUJKAS_clean_linker_0, # of connection points: 2
#     Edge 53, Type (0, 0), BuildingBlock: ZUJKAS_clean_linker_0, # of connection points: 2
#     Edge 54, Type (0, 0), BuildingBlock: ZUJKAS_clean_linker_0, # of connection points: 2
#     Edge 55, Type (0, 0), BuildingBlock: ZUJKAS_clean_linker_0, # of connection points: 2
#     Edge 56, Type (0, 0), BuildingBlock: ZUJKAS_clean_linker_0, # of connection points: 2
#     Edge 57, Type (0, 0), BuildingBlock: ZUJKAS_clean_linker_0, # of connection points: 2
#     Edge 58, Type (0, 0), BuildingBlock: ZUJKAS_clean_linker_0, # of connection points: 2
#     Edge 59, Type (0, 0), BuildingBlock: ZUJKAS_clean_linker_0, # of connection points: 2
#     Edge 60, Type (0, 0), BuildingBlock: ZUJKAS_clean_linker_0, # of connection points: 2
#     Edge 61, Type (0, 0), BuildingBlock: ZUJKAS_clean_linker_0, # of connection points: 2
#     Edge 62, Type (0, 0), BuildingBlock: ZUJKAS_clean_linker_0, # of connection points: 2
#     Edge 63, Type (0, 0), BuildingBlock: ZUJKAS_clean_linker_0, # of connection points: 2
# Relax obj value: 0.811
# Max RMSD: 0.237
# Mean RMSD: 0.237
data_MOF--net-whw--node1-UKALOJ_clean_sbu_0--edge1-ZUJKAS_clean_linker_0
_symmetry_space_group_name_H-M    P1
_symmetry_Int_Tables_number       1
_symmetry_cell_setting            triclinic
loop_
_symmetry_equiv_pos_as_xyz
'x, y, z'
_cell_length_a     80.595099
_cell_length_b     80.6109
_cell_length_c     28.853719
_cell_angle_alpha  89.954694
_cell_angle_beta   89.994955
_cell_angle_gamma 89.97997
loop_
_atom_site_label
_atom_site_type_symbol
_atom_site_fract_x
_atom_site_fract_y
_atom_site_fract_z
_atom_type_partial_charge
Zn0 Zn 0.0252 0.13189 0.12925 0.0
O1 O 0.00767 0.13854 0.0742 0.0
C2 C 0.05426 0.14078 0.07036 0.0
Zn3 Zn 0.03093 0.15862 0.1331 0.0
C4 C 0.00753 0.15326 0.05746 0.0
O5 O 0.01709 0.16418 0.07467 0.0
C6 C 0.04839 0.13905 0.20634 0.0
O7 O 0.0099 0.16293 0.17369 0.0
O8 O 0.00586 0.13617 0.18179 0.0
N9 N 0.03947 0.18227 0.14001 0.0
C10 C 0.04073 0.19025 0.18072 0.0
C11 C 0.06068 0.19874 0.1383 0.0
N12 N 0.05179 0.18767 0.11349 0.0
N13 N 0.05421 0.20009 0.18106 0.0
C14 C 0.01793 0.09589 0.09096 0.0
C15 C 0.01623 0.08233 0.15418 0.0
N16 N 0.01918 0.10698 0.12599 0.0
N17 N 0.01798 0.09847 0.16512 0.0
N18 N 0.01613 0.08031 0.10783 0.0
H19 H 0.02268 0.11338 0.03545 0.0
H20 H 0.00769 0.09764 0.02275 0.0
H21 H 0.02926 0.09222 0.02448 0.0
C22 C 0.0196 0.10015 0.04062 0.0
C23 C 0.02819 0.18925 0.21913 0.0
H24 H 0.01551 0.19024 0.2046 0.0
H25 H 0.02967 0.1996 0.24391 0.0
H26 H 0.02944 0.17731 0.2379 0.0
O27 O 0.04456 0.15334 0.1921 0.0
O28 O 0.04292 0.1264 0.18484 0.0
C29 C 0.00189 0.15107 0.19195 0.0
O30 O 0.04461 0.12854 0.07747 0.0
O31 O 0.05166 0.15419 0.09184 0.0
Zn32 Zn 0.13829 0.75559 0.38484 0.0
O33 O 0.13182 0.73782 0.33097 0.0
C34 C 0.12629 0.78404 0.32657 0.0
Zn35 Zn 0.11125 0.75987 0.39147 0.0
C36 C 0.11699 0.73663 0.31562 0.0
O37 O 0.10561 0.74543 0.33377 0.0
C38 C 0.13134 0.7786 0.46162 0.0
O39 O 0.10921 0.73851 0.43177 0.0
O40 O 0.13618 0.736 0.43752 0.0
N41 N 0.08687 0.76554 0.40367 0.0
C42 C 0.07868 0.76669 0.44438 0.0
C43 C 0.06181 0.77378 0.39116 0.0
N44 N 0.07641 0.77012 0.37067 0.0
N45 N 0.063 0.77209 0.43757 0.0
C46 C 0.1742 0.75136 0.34211 0.0
C47 C 0.18786 0.744 0.40187 0.0
N48 N 0.16338 0.75066 0.37789 0.0
N49 N 0.17195 0.74607 0.41487 0.0
N50 N 0.18974 0.7473 0.35636 0.0
H51 H 0.17727 0.74832 0.26836 0.0
H52 H 0.17065 0.76864 0.28686 0.0
H53 H 0.15612 0.75177 0.28709 0.0
C54 C 0.16926 0.75513 0.29319 0.0
C55 C 0.08565 0.76176 0.49083 0.0
H56 H 0.08768 0.77305 0.51196 0.0
H57 H 0.09759 0.75527 0.48866 0.0
H58 H 0.07677 0.75361 0.50946 0.0
O59 O 0.11701 0.77416 0.449 0.0
O60 O 0.14392 0.77351 0.4391 0.0
C61 C 0.12167 0.73112 0.44873 0.0
O62 O 0.13921 0.77515 0.33293 0.0
O63 O 0.11321 0.78081 0.34932 0.0
Zn64 Zn 0.5153 0.868 0.62756 0.0
O65 O 0.53422 0.8633 0.57466 0.0
C66 C 0.48916 0.85989 0.55563 0.0
Zn67 Zn 0.50957 0.84092 0.62117 0.0
C68 C 0.53612 0.84891 0.5567 0.0
O69 O 0.52717 0.83688 0.57038 0.0
C70 C 0.48818 0.85848 0.69099 0.0
O71 O 0.52784 0.83669 0.67219 0.0
O72 O 0.53351 0.86307 0.68158 0.0
N73 N 0.50176 0.81668 0.62254 0.0
C74 C 0.49879 0.80764 0.66094 0.0
C75 C 0.48406 0.7973 0.60677 0.0
N76 N 0.49264 0.8102 0.58885 0.0
N77 N 0.48744 0.79577 0.65221 0.0
C78 C 0.52258 0.90496 0.59674 0.0
C79 C 0.5214 0.91739 0.66177 0.0
N80 N 0.52044 0.8932 0.62973 0.0
N81 N 0.51984 0.90101 0.67003 0.0
N82 N 0.52316 0.92028 0.61602 0.0
H83 H 0.51911 0.88875 0.53769 0.0
H84 H 0.53596 0.90311 0.5331 0.0
H85 H 0.51508 0.91055 0.52696 0.0
C86 C 0.52306 0.90155 0.54572 0.0
C87 C 0.50753 0.80994 0.70655 0.0
H88 H 0.52109 0.80894 0.70094 0.0
H89 H 0.50422 0.80031 0.7323 0.0
H90 H 0.5047 0.82231 0.72123 0.0
O91 O 0.49156 0.84499 0.67089 0.0
O92 O 0.49645 0.87143 0.68084 0.0
C93 C 0.53609 0.84796 0.69254 0.0
O94 O 0.49671 0.87218 0.57361 0.0
O95 O 0.49222 0.84537 0.56981 0.0
Zn96 Zn 0.40118 0.24799 0.87888 0.0
O97 O 0.39975 0.26733 0.82622 0.0
C98 C 0.40905 0.22321 0.80668 0.0
Zn99 Zn 0.42849 0.24623 0.86726 0.0
C100 C 0.41326 0.27239 0.80836 0.0
O101 O 0.42678 0.26571 0.82024 0.0
C102 C 0.41787 0.22191 0.93853 0.0
O103 O 0.43421 0.26326 0.91924 0.0
O104 O 0.40741 0.26683 0.93157 0.0
N105 N 0.45214 0.24306 0.84492 0.0
C106 C 0.46477 0.23374 0.86073 0.0
C107 C 0.46858 0.23737 0.78832 0.0
N108 N 0.45464 0.24541 0.80008 0.0
N109 N 0.47511 0.22954 0.82534 0.0
C110 C 0.36316 0.25227 0.8595 0.0
C111 C 0.3521 0.24826 0.92556 0.0
N112 N 0.37569 0.24999 0.89017 0.0
N113 N 0.36873 0.24753 0.93119 0.0
N114 N 0.34823 0.25133 0.88088 0.0
H115 H 0.37724 0.24899 0.79599 0.0
H116 H 0.36539 0.26772 0.7996 0.0
H117 H 0.35511 0.24829 0.78896 0.0
C118 C 0.36541 0.2543 0.80814 0.0
C119 C 0.46744 0.23036 0.91126 0.0
H120 H 0.46052 0.2395 0.93257 0.0
H121 H 0.48082 0.23111 0.92003 0.0
H122 H 0.46277 0.21782 0.91995 0.0
O123 O 0.43024 0.22675 0.91484 0.0
O124 O 0.40373 0.22875 0.93207 0.0
C125 C 0.42253 0.27034 0.94152 0.0
O126 O 0.3963 0.22877 0.82738 0.0
O127 O 0.42309 0.22907 0.81659 0.0
Zn128 Zn 0.03171 0.83974 0.87142 0.0
O129 O 0.01139 0.83628 0.82712 0.0
C130 C 0.05057 0.86016 0.8031 0.0
Zn131 Zn 0.02639 0.86671 0.87831 0.0
C132 C 0.00346 0.84867 0.81158 0.0
O133 O 0.0073 0.86323 0.8252 0.0
C134 C 0.05454 0.85648 0.93845 0.0
O135 O 0.00853 0.86002 0.93148 0.0
O136 O 0.01628 0.83387 0.92701 0.0
N137 N 0.02044 0.89161 0.88293 0.0
C138 C 0.02083 0.90276 0.91789 0.0
C139 C 0.01345 0.91574 0.85697 0.0
N140 N 0.01582 0.89975 0.84522 0.0
N141 N 0.0166 0.91808 0.90239 0.0
C142 C 0.04322 0.80737 0.82477 0.0
C143 C 0.05091 0.79245 0.88184 0.0
N144 N 0.03936 0.81573 0.86376 0.0
N145 N 0.04425 0.8065 0.89921 0.0
N146 N 0.05084 0.7929 0.83513 0.0
H147 H 0.02988 0.82321 0.77604 0.0
H148 H 0.03353 0.80249 0.7564 0.0
H149 H 0.05024 0.81727 0.75859 0.0
C150 C 0.03886 0.81295 0.77648 0.0
C151 C 0.02447 0.89834 0.9673 0.0
H152 H 0.02104 0.88528 0.97443 0.0
H153 H 0.01761 0.90661 0.99132 0.0
H154 H 0.03796 0.89975 0.97378 0.0
O155 O 0.04541 0.86911 0.93104 0.0
O156 O 0.05172 0.84317 0.91651 0.0
C157 C 0.00722 0.84502 0.94528 0.0
O158 O 0.04678 0.84568 0.81595 0.0
O159 O 0.04447 0.87257 0.82436 0.0
Zn160 Zn 0.43086 0.76216 0.12901 0.0
O161 O 0.43317 0.74479 0.07564 0.0
C162 C 0.4111 0.78369 0.06446 0.0
Zn163 Zn 0.40392 0.7562 0.12879 0.0
C164 C 0.42185 0.73554 0.05967 0.0
O165 O 0.4072 0.73702 0.07585 0.0
C166 C 0.41453 0.78235 0.19891 0.0
O167 O 0.40992 0.73815 0.18303 0.0
O168 O 0.43669 0.74325 0.17499 0.0
N169 N 0.37873 0.75111 0.13211 0.0
C170 C 0.36752 0.74977 0.16685 0.0
C171 C 0.35412 0.74877 0.10329 0.0
N172 N 0.37032 0.75035 0.09278 0.0
N173 N 0.35192 0.74837 0.14959 0.0
C174 C 0.46286 0.77283 0.07936 0.0
C175 C 0.4806 0.77511 0.13356 0.0
N176 N 0.45512 0.76885 0.11939 0.0
N177 N 0.46611 0.77049 0.15315 0.0
N178 N 0.47886 0.77699 0.08729 0.0
H179 H 0.45387 0.78467 0.01777 0.0
H180 H 0.44262 0.76655 0.03132 0.0
H181 H 0.46302 0.76455 0.00816 0.0
C182 C 0.45509 0.77194 0.03187 0.0
C183 C 0.3718 0.75068 0.2173 0.0
H184 H 0.37072 0.73813 0.23275 0.0
H185 H 0.36302 0.75903 0.23556 0.0
H186 H 0.38469 0.75496 0.22268 0.0
O187 O 0.40162 0.7757 0.18133 0.0
O188 O 0.42876 0.77851 0.18367 0.0
C189 C 0.42501 0.73509 0.19391 0.0
O190 O 0.42487 0.78136 0.08424 0.0
O191 O 0.39898 0.77421 0.07413 0.0
Zn192 Zn 0.51681 0.1353 0.38593 0.0
O193 O 0.53346 0.14229 0.44203 0.0
C194 C 0.4881 0.14819 0.44533 0.0
Zn195 Zn 0.51052 0.16205 0.37727 0.0
C196 C 0.53588 0.1576 0.45139 0.0
O197 O 0.52812 0.16862 0.42829 0.0
C198 C 0.49092 0.14099 0.31322 0.0
O199 O 0.52941 0.16236 0.32763 0.0
O200 O 0.53753 0.13676 0.33731 0.0
N201 N 0.5064 0.18635 0.35948 0.0
C202 C 0.5048 0.1926 0.31617 0.0
C203 C 0.51098 0.21263 0.3606 0.0
N204 N 0.50997 0.1989 0.38721 0.0
N205 N 0.50771 0.20905 0.31579 0.0
C206 C 0.52018 0.09943 0.43069 0.0
C207 C 0.52883 0.08579 0.37231 0.0
N208 N 0.52152 0.11024 0.39498 0.0
N209 N 0.52689 0.10166 0.35888 0.0
N210 N 0.52466 0.08392 0.41725 0.0
H211 H 0.51851 0.11757 0.48525 0.0
H212 H 0.52169 0.09644 0.50482 0.0
H213 H 0.50175 0.10292 0.48295 0.0
C214 C 0.51536 0.10439 0.47884 0.0
C215 C 0.50158 0.18252 0.27302 0.0
H216 H 0.50437 0.18943 0.24082 0.0
H217 H 0.48825 0.17914 0.27198 0.0
H218 H 0.50895 0.171 0.27229 0.0
O219 O 0.49286 0.15534 0.32958 0.0
O220 O 0.4999 0.12916 0.3284 0.0
C221 C 0.53923 0.15071 0.31718 0.0
O222 O 0.49609 0.13498 0.43502 0.0
O223 O 0.49193 0.16189 0.42643 0.0
Zn224 Zn 0.10969 0.2428 0.61821 0.0
O225 O 0.10871 0.26319 0.57354 0.0
C226 C 0.12848 0.22146 0.55115 0.0
Zn227 Zn 0.13708 0.24529 0.62558 0.0
C228 C 0.12179 0.26967 0.55734 0.0
O229 O 0.13592 0.2644 0.57101 0.0
C230 C 0.12355 0.2185 0.68622 0.0
O231 O 0.13183 0.26405 0.6778 0.0
O232 O 0.105 0.25909 0.67245 0.0
N233 N 0.1625 0.24883 0.6328 0.0
C234 C 0.1729 0.24794 0.66956 0.0
C235 C 0.18754 0.25419 0.61067 0.0
N236 N 0.17169 0.25271 0.59634 0.0
N237 N 0.18874 0.25118 0.65652 0.0
C238 C 0.0763 0.23604 0.56988 0.0
C239 C 0.05986 0.23139 0.62626 0.0
N240 N 0.08502 0.2382 0.60928 0.0
N241 N 0.07483 0.23518 0.6443 0.0
N242 N 0.06054 0.23148 0.57957 0.0
H243 H 0.09484 0.24583 0.52183 0.0
H244 H 0.07395 0.24646 0.50119 0.0
H245 H 0.0851 0.22711 0.50434 0.0
C246 C 0.08297 0.23915 0.52189 0.0
C247 C 0.16733 0.24484 0.71836 0.0
H248 H 0.15434 0.24893 0.72338 0.0
H249 H 0.17544 0.25143 0.74335 0.0
H250 H 0.16798 0.23134 0.72565 0.0
O251 O 0.13708 0.22625 0.67884 0.0
O252 O 0.11061 0.22269 0.6641 0.0
C253 C 0.11696 0.26703 0.6906 0.0
O254 O 0.1144 0.2268 0.56335 0.0
O255 O 0.14139 0.22641 0.5726 0.0
Zn256 Zn 0.92727 0.26302 0.62647 0.0
O257 O 0.93228 0.24352 0.58136 0.0
C258 C 0.90646 0.28061 0.55615 0.0
Zn259 Zn 0.90064 0.25564 0.62986 0.0
C260 C 0.92108 0.23424 0.56466 0.0
O261 O 0.90605 0.23647 0.57735 0.0
C262 C 0.90846 0.28453 0.69164 0.0
O263 O 0.90801 0.23849 0.6845 0.0
O264 O 0.93377 0.24763 0.68174 0.0
N265 N 0.87598 0.24828 0.63274 0.0
C266 C 0.8645 0.24776 0.66698 0.0
C267 C 0.8519 0.24283 0.60359 0.0
N268 N 0.86807 0.24506 0.59354 0.0
N269 N 0.84926 0.24442 0.64948 0.0
C270 C 0.9582 0.27572 0.57909 0.0
C271 C 0.96732 0.29357 0.62734 0.0
N272 N 0.95051 0.27282 0.61971 0.0
N273 N 0.95625 0.28388 0.64973 0.0
N274 N 0.96827 0.289 0.58261 0.0
H275 H 0.94416 0.26597 0.52159 0.0
H276 H 0.9588 0.25176 0.54715 0.0
H277 H 0.96607 0.26781 0.51015 0.0
C278 C 0.95671 0.26484 0.53696 0.0
C279 C 0.868 0.252 0.71656 0.0
H280 H 0.86166 0.24317 0.74005 0.0
H281 H 0.86312 0.2646 0.72401 0.0
H282 H 0.88148 0.25167 0.72384 0.0
O283 O 0.89633 0.27498 0.68204 0.0
O284 O 0.92225 0.28216 0.67188 0.0
C285 C 0.92296 0.23802 0.69944 0.0
O286 O 0.9209 0.27821 0.57152 0.0
O287 O 0.89428 0.27299 0.57445 0.0
Zn288 Zn 0.60988 0.74064 0.13279 0.0
O289 O 0.6055 0.76176 0.0929 0.0
C290 C 0.62794 0.72274 0.05688 0.0
Zn291 Zn 0.63696 0.74532 0.13309 0.0
C292 C 0.61731 0.76939 0.07314 0.0
O293 O 0.63223 0.76494 0.08155 0.0
C294 C 0.62825 0.71631 0.19165 0.0
O295 O 0.63169 0.76276 0.18885 0.0
O296 O 0.60566 0.75459 0.19214 0.0
N297 N 0.66202 0.75105 0.1343 0.0
C298 C 0.67357 0.75021 0.16823 0.0
C299 C 0.68592 0.75812 0.10685 0.0
N300 N 0.66976 0.756 0.09627 0.0
N301 N 0.68873 0.75447 0.15179 0.0
C302 C 0.57627 0.7325 0.09064 0.0
C303 C 0.56764 0.71306 0.13463 0.0
N304 N 0.58577 0.73279 0.12893 0.0
N305 N 0.58027 0.7208 0.15648 0.0
N306 N 0.56515 0.72007 0.09295 0.0
H307 H 0.58953 0.74274 0.03252 0.0
H308 H 0.57714 0.75737 0.06462 0.0
H309 H 0.56723 0.7431 0.02642 0.0
C310 C 0.57764 0.74452 0.05108 0.0
C311 C 0.66974 0.74613 0.21779 0.0
H312 H 0.67833 0.75273 0.24148 0.0
H313 H 0.67119 0.73258 0.22322 0.0
H314 H 0.65681 0.74954 0.22655 0.0
O315 O 0.64069 0.7256 0.18361 0.0
O316 O 0.61449 0.71968 0.17284 0.0
C317 C 0.61735 0.76361 0.20765 0.0
O318 O 0.614 0.72698 0.07305 0.0
O319 O 0.64112 0.72775 0.07681 0.0
Zn320 Zn 0.63734 0.25328 0.90533 0.0
O321 O 0.63077 0.2348 0.85269 0.0
C322 C 0.61567 0.27776 0.85266 0.0
Zn323 Zn 0.61074 0.25299 0.92647 0.0
C324 C 0.61579 0.22966 0.84869 0.0
O325 O 0.60476 0.23509 0.87638 0.0
C326 C 0.63049 0.27688 0.98234 0.0
O327 O 0.61671 0.23434 0.97187 0.0
O328 O 0.64317 0.23347 0.95532 0.0
N329 N 0.58799 0.25236 0.95627 0.0
C330 C 0.57816 0.26811 0.98065 0.0
C331 C 0.56784 0.23835 0.01794 0.0
N332 N 0.58218 0.23554 0.97741 0.0
N333 N 0.56468 0.25897 0.01806 0.0
C334 C 0.67143 0.25108 0.84819 0.0
C335 C 0.68796 0.25965 0.90061 0.0
N336 N 0.66219 0.25419 0.88641 0.0
N337 N 0.6726 0.25944 0.91874 0.0
N338 N 0.68767 0.25444 0.85633 0.0
H339 H 0.6629 0.23196 0.80309 0.0
H340 H 0.67272 0.2491 0.77369 0.0
H341 H 0.65196 0.2513 0.79741 0.0
C342 C 0.66438 0.24565 0.80273 0.0
C343 C 0.58229 0.2861 0.97764 0.0
H344 H 0.59156 0.28913 0.00472 0.0
H345 H 0.57102 0.29363 0.98434 0.0
H346 H 0.58762 0.28903 0.94318 0.0
O347 O 0.6164 0.27051 0.97601 0.0
O348 O 0.64261 0.27222 0.95738 0.0
C349 C 0.63081 0.22797 0.97819 0.0
O350 O 0.63065 0.27271 0.85659 0.0
O351 O 0.60448 0.2717 0.87886 0.0
Zn352 Zn 0.90247 0.74486 0.37869 0.0
O353 O 0.90646 0.76372 0.32529 0.0
C354 C 0.91242 0.7186 0.31076 0.0
Zn355 Zn 0.92994 0.74109 0.37573 0.0
C356 C 0.92101 0.76696 0.31011 0.0
O357 O 0.93344 0.75889 0.32516 0.0
C358 C 0.91311 0.71892 0.44486 0.0
O359 O 0.9331 0.75957 0.42554 0.0
O360 O 0.90629 0.76355 0.43271 0.0
N361 N 0.95445 0.7343 0.3768 0.0
C362 C 0.96349 0.73203 0.41547 0.0
C363 C 0.97246 0.71475 0.3655 0.0
N364 N 0.96021 0.72369 0.34555 0.0
N365 N 0.97446 0.71962 0.40966 0.0
C366 C 0.86572 0.75123 0.34549 0.0
C367 C 0.85251 0.7492 0.40917 0.0
N368 N 0.8771 0.74894 0.37941 0.0
N369 N 0.8688 0.74777 0.41889 0.0
N370 N 0.85018 0.75142 0.36333 0.0
H371 H 0.86946 0.76547 0.28397 0.0
H372 H 0.86042 0.7454 0.2742 0.0
H373 H 0.88229 0.74736 0.28737 0.0
C374 C 0.86977 0.75228 0.29487 0.0
C375 C 0.96167 0.74191 0.45921 0.0
H376 H 0.96146 0.75532 0.4508 0.0
H377 H 0.97232 0.73984 0.48276 0.0
H378 H 0.95002 0.73846 0.47725 0.0
O379 O 0.92661 0.7233 0.42633 0.0
O380 O 0.89969 0.72603 0.4326 0.0
C381 C 0.92112 0.76709 0.44477 0.0
O382 O 0.89942 0.72583 0.32557 0.0
O383 O 0.92643 0.72296 0.3261 0.0
Zn384 Zn 0.52831 0.63437 0.63387 0.0
O385 O 0.51135 0.64182 0.57932 0.0
C386 C 0.55756 0.64371 0.57297 0.0
Zn387 Zn 0.53609 0.66087 0.6394 0.0
C388 C 0.51069 0.65695 0.56624 0.0
O389 O 0.52015 0.66761 0.58525 0.0
C390 C 0.55383 0.6394 0.70722 0.0
O391 O 0.51634 0.66443 0.6847 0.0
O392 O 0.50865 0.63843 0.68556 0.0
N393 N 0.54358 0.68481 0.64998 0.0
C394 C 0.54563 0.69305 0.69029 0.0
C395 C 0.55167 0.70977 0.63572 0.0
N396 N 0.54756 0.69515 0.61611 0.0
N397 N 0.55084 0.70876 0.68238 0.0
C398 C 0.52199 0.5984 0.5936 0.0
C399 C 0.51584 0.58531 0.65544 0.0
N400 N 0.52168 0.60962 0.62844 0.0
N401 N 0.51774 0.60141 0.66666 0.0
N402 N 0.51841 0.58303 0.60977 0.0
H403 H 0.52488 0.61551 0.53677 0.0
H404 H 0.52079 0.59431 0.51974 0.0
H405 H 0.54083 0.59991 0.54181 0.0
C406 C 0.52732 0.6023 0.54508 0.0
C407 C 0.54171 0.68605 0.73754 0.0
H408 H 0.53323 0.69449 0.75652 0.0
H409 H 0.55336 0.68473 0.7576 0.0
H410 H 0.53601 0.67371 0.73678 0.0
O411 O 0.55196 0.65403 0.69253 0.0
O412 O 0.54551 0.62767 0.68912 0.0
C413 C 0.50671 0.65328 0.6999 0.0
O414 O 0.54802 0.63151 0.58235 0.0
O415 O 0.55534 0.65748 0.5932 0.0
Zn416 Zn 0.01055 0.33938 0.12984 0.0
O417 O 0.03173 0.33703 0.17085 0.0
C418 C 0.9914 0.35665 0.20407 0.0
Zn419 Zn 0.01408 0.36668 0.12751 0.0
C420 C 0.03906 0.34932 0.18901 0.0
O421 O 0.03412 0.36394 0.17889 0.0
C422 C 0.98558 0.35538 0.06864 0.0
O423 O 0.03184 0.36224 0.07141 0.0
O424 O 0.02535 0.3357 0.07234 0.0
N425 N 0.01776 0.39215 0.12536 0.0
C426 C 0.01952 0.40336 0.09073 0.0
C427 C 0.01868 0.41688 0.15406 0.0
N428 N 0.01733 0.40065 0.16458 0.0
N429 N 0.02012 0.419 0.1079 0.0
C430 C 0.00608 0.30532 0.17431 0.0
C431 C 0.99273 0.29146 0.12355 0.0
N432 N 0.00532 0.31472 0.1358 0.0
N433 N 0.99697 0.30614 0.10428 0.0
N434 N 0.99797 0.29091 0.16781 0.0
H435 H 0.01394 0.32251 0.22755 0.0
H436 H 0.02948 0.30818 0.20809 0.0
H437 H 0.01358 0.30145 0.24651 0.0
C438 C 0.01615 0.30958 0.21661 0.0
C439 C 0.01973 0.39901 0.04027 0.0
H440 H 0.01426 0.38662 0.03411 0.0
H441 H 0.03277 0.39877 0.028 0.0
H442 H 0.01289 0.40847 0.01985 0.0
O443 O 0.99402 0.36841 0.07696 0.0
O444 O 0.98959 0.34185 0.08798 0.0
C445 C 0.03372 0.34758 0.05529 0.0
O446 O 0.99603 0.34286 0.18793 0.0
O447 O 0.99621 0.36996 0.18437 0.0
Zn448 Zn 0.52738 0.34053 0.37613 0.0
O449 O 0.51057 0.3403 0.32128 0.0
C450 C 0.55021 0.36182 0.31999 0.0
Zn451 Zn 0.5227 0.36768 0.38597 0.0
C452 C 0.50237 0.35287 0.30835 0.0
O453 O 0.50444 0.3666 0.32942 0.0
C454 C 0.54747 0.35389 0.45423 0.0
O455 O 0.50364 0.36036 0.43446 0.0
O456 O 0.50829 0.33374 0.42193 0.0
N457 N 0.51766 0.39271 0.39421 0.0
C458 C 0.51814 0.40347 0.43016 0.0
C459 C 0.51169 0.41735 0.36998 0.0
N460 N 0.51363 0.40144 0.357 0.0
N461 N 0.51452 0.4191 0.41576 0.0
C462 C 0.53868 0.31069 0.31983 0.0
C463 C 0.55461 0.29815 0.36713 0.0
N464 N 0.53518 0.31663 0.36246 0.0
N465 N 0.54506 0.30871 0.39183 0.0
N466 N 0.55116 0.29959 0.32166 0.0
H467 H 0.51582 0.31447 0.28341 0.0
H468 H 0.53186 0.30641 0.24792 0.0
H469 H 0.53279 0.32784 0.26552 0.0
C470 C 0.52933 0.31514 0.27663 0.0
C471 C 0.52124 0.39837 0.47931 0.0
H472 H 0.51716 0.38539 0.48499 0.0
H473 H 0.51458 0.40668 0.50367 0.0
H474 H 0.53473 0.39912 0.48657 0.0
O475 O 0.54084 0.36774 0.44316 0.0
O476 O 0.54377 0.34108 0.43112 0.0
C477 C 0.50024 0.34514 0.44277 0.0
O478 O 0.54632 0.34731 0.33211 0.0
O479 O 0.5421 0.37407 0.33615 0.0
Zn480 Zn 0.01599 0.63358 0.88402 0.0
O481 O 0.03385 0.63978 0.93829 0.0
C482 C 0.98756 0.64235 0.94617 0.0
Zn483 Zn 0.01 0.66062 0.88304 0.0
C484 C 0.0348 0.65448 0.95481 0.0
O485 O 0.02551 0.6658 0.93843 0.0
C486 C 0.99085 0.64132 0.81259 0.0
O487 O 0.03008 0.66473 0.83803 0.0
O488 O 0.03495 0.63804 0.83131 0.0
N489 N 0.00186 0.68463 0.8779 0.0
C490 C 0.00043 0.69366 0.83887 0.0
C491 C 0.98437 0.7046 0.88907 0.0
N492 N 0.99189 0.69145 0.90913 0.0
N493 N 0.98923 0.70591 0.84462 0.0
C494 C 0.02159 0.59718 0.92103 0.0
C495 C 0.0291 0.58456 0.85973 0.0
N496 N 0.02213 0.60857 0.8866 0.0
N497 N 0.02684 0.60065 0.84864 0.0
N498 N 0.02579 0.58193 0.90496 0.0
H499 H 0.02462 0.59278 0.9943 0.0
H500 H 0.00434 0.59986 0.97682 0.0
H501 H 0.02134 0.61424 0.97853 0.0
C502 C 0.01786 0.60126 0.9706 0.0
C503 C 0.0108 0.69105 0.79614 0.0
H504 H 0.00855 0.67855 0.78153 0.0
H505 H 0.0241 0.69211 0.80549 0.0
H506 H 0.00846 0.70044 0.76903 0.0
O507 O 0.99433 0.6555 0.82839 0.0
O508 O 0.99801 0.62856 0.82932 0.0
C509 C 0.03832 0.65297 0.82001 0.0
O510 O 0.99674 0.63001 0.93607 0.0
O511 O 0.99043 0.65632 0.9279 0.0
H512 H 0.08252 0.15894 0.06792 0.0
H513 H 0.09866 0.16609 0.9992 0.0
H514 H 0.07035 0.13109 0.91865 0.0
H515 H 0.05398 0.12388 0.98773 0.0
H516 H 0.11751 0.14906 0.92679 0.0
H517 H 0.05864 0.17796 0.86597 0.0
H518 H 0.06151 0.17111 0.92495 0.0
H519 H 0.05776 0.15624 0.87987 0.0
C520 C 0.08008 0.15233 0.03593 0.0
C521 C 0.06689 0.14094 0.0331 0.0
C522 C 0.08934 0.15645 0.99666 0.0
C523 C 0.08552 0.14935 0.95366 0.0
C524 C 0.07337 0.13683 0.9515 0.0
H525 H 0.10419 0.19118 0.68194 0.0
H526 H 0.09729 0.1721 0.7447 0.0
C527 C 0.06413 0.13261 0.99104 0.0
C528 C 0.0926 0.15682 0.91086 0.0
H529 H 0.08212 0.18167 0.81965 0.0
C530 C 0.10978 0.15603 0.90294 0.0
C531 C 0.08253 0.16613 0.88023 0.0
C532 C 0.0641 0.16809 0.88811 0.0
C533 C 0.11714 0.16418 0.86486 0.0
C534 C 0.10707 0.17368 0.83457 0.0
C535 C 0.08987 0.17432 0.84252 0.0
C536 C 0.11383 0.18337 0.79469 0.0
C537 C 0.13556 0.16237 0.85728 0.0
C538 C 0.12592 0.19577 0.80109 0.0
C539 C 0.13017 0.20654 0.76465 0.0
C540 C 0.12209 0.2053 0.72165 0.0
C541 C 0.11059 0.19244 0.71477 0.0
C542 C 0.10661 0.18154 0.7507 0.0
H543 H 0.14041 0.15087 0.87367 0.0
H544 H 0.13865 0.16214 0.81979 0.0
H545 H 0.14203 0.17306 0.87337 0.0
H546 H 0.13142 0.19775 0.83487 0.0
H547 H 0.1389 0.2165 0.77104 0.0
H548 H 0.1046 0.80976 0.32098 0.0
H549 H 0.09846 0.82676 0.25315 0.0
H550 H 0.13913 0.80408 0.17966 0.0
H551 H 0.14534 0.78681 0.24777 0.0
H552 H 0.11663 0.84921 0.193 0.0
H553 H 0.09669 0.7908 0.10645 0.0
H554 H 0.10055 0.79191 0.16794 0.0
H555 H 0.11761 0.79131 0.12797 0.0
C556 C 0.11252 0.80863 0.29079 0.0
C557 C 0.12536 0.7968 0.28958 0.0
C558 C 0.109 0.81842 0.25205 0.0
C559 C 0.11815 0.81651 0.21111 0.0
C560 C 0.13179 0.80561 0.21081 0.0
H561 H 0.08445 0.84142 0.93415 0.0
H562 H 0.10266 0.83452 0.99898 0.0
C563 C 0.13541 0.79584 0.24983 0.0
C564 C 0.11208 0.8245 0.16784 0.0
H565 H 0.09251 0.81556 0.06603 0.0
C566 C 0.11153 0.84189 0.16487 0.0
C567 C 0.10528 0.81493 0.13143 0.0
C568 C 0.10489 0.79621 0.13344 0.0
C569 C 0.10438 0.84996 0.12639 0.0
C570 C 0.09722 0.84037 0.09048 0.0
C571 C 0.09806 0.82297 0.09329 0.0
C572 C 0.08823 0.84779 0.05026 0.0
C573 C 0.10466 0.86865 0.12457 0.0
C574 C 0.0744 0.85822 0.05683 0.0
C575 C 0.06416 0.86254 0.01933 0.0
C576 C 0.06739 0.85615 0.97496 0.0
C577 C 0.08172 0.84655 0.96801 0.0
C578 C 0.09209 0.84253 0.00513 0.0
H579 H 0.11508 0.87376 0.14535 0.0
H580 H 0.10581 0.87323 0.0884 0.0
H581 H 0.09293 0.87353 0.13942 0.0
H582 H 0.07088 0.86215 0.09132 0.0
H583 H 0.05301 0.8697 0.02574 0.0
H584 H 0.42751 0.77651 0.28274 0.0
H585 H 0.43248 0.79661 0.34435 0.0
H586 H 0.40618 0.83394 0.26621 0.0
H587 H 0.40111 0.81355 0.20404 0.0
H588 H 0.43781 0.84371 0.29225 0.0
H589 H 0.40506 0.81883 0.44493 0.0
H590 H 0.41686 0.80287 0.41692 0.0
H591 H 0.39993 0.81261 0.38649 0.0
C592 C 0.42227 0.78885 0.27953 0.0
C593 C 0.41371 0.79347 0.23923 0.0
C594 C 0.42507 0.80033 0.31478 0.0
C595 C 0.4195 0.81675 0.31033 0.0
C596 C 0.4104 0.82128 0.27065 0.0
H597 H 0.45694 0.87046 0.55348 0.0
H598 H 0.43705 0.86518 0.49036 0.0
C599 C 0.4074 0.80965 0.23539 0.0
C600 C 0.42521 0.82933 0.34448 0.0
H601 H 0.43023 0.83464 0.46094 0.0
C602 C 0.43578 0.84204 0.32913 0.0
C603 C 0.42239 0.82741 0.39257 0.0
C604 C 0.41028 0.81479 0.41114 0.0
C605 C 0.44476 0.85184 0.36068 0.0
C606 C 0.44332 0.84865 0.40879 0.0
C607 C 0.43156 0.837 0.42411 0.0
C608 C 0.45543 0.8553 0.44306 0.0
C609 C 0.45617 0.86507 0.34198 0.0
C610 C 0.4724 0.85193 0.43714 0.0
C611 C 0.48366 0.85505 0.47282 0.0
C612 C 0.47823 0.86162 0.51516 0.0
C613 C 0.46145 0.86583 0.52056 0.0
C614 C 0.4501 0.86267 0.48471 0.0
H615 H 0.4512 0.87039 0.30927 0.0
H616 H 0.45801 0.87525 0.36735 0.0
H617 H 0.46841 0.85946 0.33395 0.0
H618 H 0.47682 0.84576 0.40617 0.0
H619 H 0.49648 0.85126 0.46848 0.0
H620 H 0.38992 0.21998 0.72817 0.0
H621 H 0.39588 0.20103 0.66319 0.0
H622 H 0.43437 0.17769 0.74421 0.0
H623 H 0.42835 0.19625 0.80839 0.0
H624 H 0.42616 0.20225 0.62198 0.0
H625 H 0.41559 0.13782 0.67951 0.0
H626 H 0.40654 0.15539 0.70903 0.0
H627 H 0.42758 0.14916 0.72106 0.0
C628 C 0.39907 0.21026 0.73259 0.0
C629 C 0.4086 0.20943 0.77322 0.0
C630 C 0.40257 0.19953 0.69547 0.0
C631 C 0.41545 0.18775 0.69894 0.0
C632 C 0.42409 0.18627 0.7409 0.0
H633 H 0.48961 0.13975 0.53678 0.0
H634 H 0.46923 0.14747 0.59647 0.0
C635 C 0.42069 0.19697 0.77757 0.0
C636 C 0.42201 0.1791 0.65724 0.0
H637 H 0.43627 0.14155 0.61902 0.0
C638 C 0.42798 0.18893 0.62072 0.0
C639 C 0.42468 0.16174 0.65602 0.0
C640 C 0.41811 0.15042 0.69338 0.0
C641 C 0.43734 0.18207 0.58445 0.0
C642 C 0.44041 0.16474 0.5838 0.0
C643 C 0.43392 0.1548 0.61943 0.0
C644 C 0.45116 0.15707 0.54775 0.0
C645 C 0.44469 0.19366 0.54877 0.0
C646 C 0.44741 0.15904 0.50055 0.0
C647 C 0.45912 0.15492 0.46676 0.0
C648 C 0.47453 0.14821 0.47944 0.0
C649 C 0.4777 0.14472 0.52625 0.0
C650 C 0.46609 0.14919 0.56027 0.0
H651 H 0.44471 0.20675 0.56084 0.0
H652 H 0.45763 0.19008 0.54019 0.0
H653 H 0.43719 0.19308 0.51658 0.0
H654 H 0.4358 0.16465 0.48996 0.0
H655 H 0.45646 0.15773 0.43078 0.0
H656 H 0.90751 0.77091 0.22364 0.0
H657 H 0.9186 0.78887 0.16179 0.0
H658 H 0.95264 0.81081 0.2594 0.0
H659 H 0.94208 0.79254 0.32032 0.0
H660 H 0.92565 0.82411 0.14576 0.0
H661 H 0.98238 0.7857 0.16719 0.0
H662 H 0.96285 0.78023 0.19356 0.0
H663 H 0.97574 0.79597 0.21914 0.0
C664 C 0.91699 0.77994 0.23196 0.0
C665 C 0.92409 0.78032 0.27637 0.0
C666 C 0.92333 0.79017 0.19673 0.0
C667 C 0.93667 0.80093 0.20587 0.0
C668 C 0.94255 0.80241 0.25143 0.0
H669 H 0.99124 0.86483 0.0093 0.0
H670 H 0.97272 0.85565 0.07212 0.0
C671 C 0.93648 0.79202 0.2862 0.0
C672 C 0.94608 0.80873 0.16731 0.0
H673 H 0.98406 0.80807 0.11504 0.0
C674 C 0.93842 0.82064 0.1389 0.0
C675 C 0.96269 0.80404 0.15818 0.0
C676 C 0.97139 0.79068 0.18579 0.0
C677 C 0.94701 0.82802 0.10161 0.0
C678 C 0.9637 0.82345 0.09303 0.0
C679 C 0.9713 0.81163 0.12173 0.0
C680 C 0.97339 0.82971 0.05276 0.0
C681 C 0.93807 0.84028 0.07103 0.0
C682 C 0.97997 0.81823 0.02121 0.0
C683 C 0.99071 0.82336 0.98617 0.0
C684 C 0.99509 0.84015 0.98147 0.0
C685 C 0.98807 0.85181 0.01203 0.0
C686 C 0.97739 0.84659 0.04769 0.0
H687 H 0.92441 0.83978 0.07609 0.0
H688 H 0.94232 0.85301 0.07952 0.0
H689 H 0.94088 0.83793 0.03393 0.0
H690 H 0.97706 0.80515 0.02433 0.0
H691 H 0.9957 0.81406 0.96293 0.0
H692 H 0.90334 0.21817 0.75509 0.0
H693 H 0.91267 0.19895 0.81617 0.0
H694 H 0.96352 0.21185 0.78726 0.0
H695 H 0.95446 0.23089 0.72686 0.0
H696 H 0.95653 0.17619 0.79663 0.0
H697 H 0.93325 0.21484 0.94306 0.0
H698 H 0.91919 0.20973 0.89669 0.0
H699 H 0.9363 0.2234 0.88584 0.0
C700 C 0.9165 0.21686 0.76175 0.0
C701 C 0.92813 0.22617 0.73622 0.0
C702 C 0.9218 0.2059 0.79666 0.0
C703 C 0.9388 0.20401 0.8063 0.0
C704 C 0.95036 0.21308 0.78035 0.0
H705 H 0.00551 0.18348 0.01611 0.0
H706 H 0.98634 0.19272 0.95658 0.0
C707 C 0.94512 0.22405 0.74593 0.0
C708 C 0.94488 0.19311 0.84423 0.0
H709 H 0.95053 0.1924 0.96151 0.0
C710 C 0.95492 0.17946 0.83281 0.0
C711 C 0.94282 0.19748 0.89132 0.0
C712 C 0.93238 0.21218 0.90536 0.0
C713 C 0.96365 0.1706 0.86709 0.0
C714 C 0.96226 0.17553 0.91394 0.0
C715 C 0.9515 0.1886 0.92556 0.0
C716 C 0.97374 0.16917 0.95016 0.0
C717 C 0.97514 0.15675 0.85276 0.0
C718 C 0.97314 0.15271 0.96634 0.0
C719 C 0.98423 0.14727 1.0008 0.0
C720 C 0.99606 0.15824 0.01952 0.0
C721 C 0.99661 0.17463 1.00272 0.0
C722 C 0.98559 0.18001 0.96866 0.0
H723 H 0.9759 0.1554 0.8145 0.0
H724 H 0.9878 0.159 0.86655 0.0
H725 H 0.97064 0.14487 0.86758 0.0
H726 H 0.964 0.14416 0.95271 0.0
H727 H 0.98344 0.1346 0.01307 0.0
H728 H 0.63082 0.22487 0.76401 0.0
H729 H 0.61932 0.21018 0.69671 0.0
H730 H 0.57759 0.19439 0.77927 0.0
H731 H 0.58865 0.20949 0.84574 0.0
H732 H 0.61029 0.17894 0.67342 0.0
H733 H 0.55435 0.2186 0.67771 0.0
H734 H 0.57123 0.22167 0.71767 0.0
H735 H 0.55582 0.20583 0.72824 0.0
C736 C 0.61932 0.21806 0.76794 0.0
C737 C 0.61057 0.21854 0.81013 0.0
C738 C 0.61272 0.20968 0.72938 0.0
C739 C 0.59731 0.20151 0.73232 0.0
C740 C 0.58921 0.20099 0.77546 0.0
H741 H 0.55049 0.13835 0.5194 0.0
H742 H 0.56675 0.14797 0.58623 0.0
C743 C 0.59563 0.20956 0.81364 0.0
C744 C 0.58926 0.19434 0.68999 0.0
H745 H 0.55357 0.19566 0.62591 0.0
C746 C 0.59791 0.18265 0.66296 0.0
C747 C 0.57315 0.19924 0.67565 0.0
C748 C 0.56321 0.21218 0.70116 0.0
C749 C 0.59082 0.17565 0.62266 0.0
C750 C 0.57456 0.18031 0.60924 0.0
C751 C 0.56601 0.19201 0.63612 0.0
C752 C 0.56623 0.1739 0.56654 0.0
C753 C 0.60093 0.16366 0.59422 0.0
C754 C 0.56042 0.18518 0.53316 0.0
C755 C 0.55101 0.17975 0.49539 0.0
C756 C 0.5471 0.16285 0.4898 0.0
C757 C 0.55332 0.15144 0.52246 0.0
C758 C 0.56273 0.15692 0.56059 0.0
H759 H 0.61436 0.16446 0.60254 0.0
H760 H 0.59674 0.15082 0.6017 0.0
H761 H 0.59922 0.16599 0.55659 0.0
H762 H 0.5629 0.19832 0.53683 0.0
H763 H 0.54654 0.18892 0.47093 0.0
H764 H 0.5673 0.86237 0.54446 0.0
H765 H 0.58798 0.85406 0.48558 0.0
H766 H 0.5525 0.82024 0.42601 0.0
H767 H 0.53216 0.8281 0.48459 0.0
H768 H 0.59573 0.81449 0.46804 0.0
H769 H 0.57471 0.85227 0.31821 0.0
H770 H 0.57231 0.85898 0.37767 0.0
H771 H 0.55848 0.84374 0.35388 0.0
C772 C 0.56392 0.85335 0.51832 0.0
C773 C 0.54818 0.84581 0.51911 0.0
C774 C 0.57572 0.84858 0.48496 0.0
C775 C 0.5717 0.83656 0.45154 0.0
C776 C 0.55581 0.82955 0.45147 0.0
H777 H 0.58749 0.7695 0.24827 0.0
H778 H 0.58074 0.78964 0.30804 0.0
C779 C 0.54422 0.83403 0.485 0.0
C780 C 0.584 0.83031 0.41766 0.0
H781 H 0.58927 0.82706 0.3007 0.0
C782 C 0.59485 0.81762 0.43156 0.0
C783 C 0.5827 0.83436 0.37019 0.0
C784 C 0.57152 0.84818 0.35389 0.0
C785 C 0.60336 0.80794 0.39867 0.0
C786 C 0.60092 0.81111 0.35097 0.0
C787 C 0.59112 0.82466 0.33734 0.0
C788 C 0.60579 0.79885 0.31521 0.0
C789 C 0.61375 0.79348 0.41474 0.0
C790 C 0.62222 0.79727 0.29957 0.0
C791 C 0.62619 0.78567 0.26494 0.0
C792 C 0.61377 0.77548 0.24572 0.0
C793 C 0.59741 0.77707 0.26217 0.0
C794 C 0.59348 0.78863 0.29632 0.0
H795 H 0.61471 0.79287 0.45311 0.0
H796 H 0.60824 0.78172 0.40196 0.0
H797 H 0.62643 0.79446 0.39996 0.0
H798 H 0.63189 0.80509 0.31377 0.0
H799 H 0.6389 0.78476 0.25303 0.0
H800 H 0.64412 0.71487 0.27578 0.0
H801 H 0.63723 0.69569 0.33925 0.0
H802 H 0.60563 0.66793 0.24695 0.0
H803 H 0.61218 0.68713 0.18423 0.0
H804 H 0.58914 0.68098 0.32149 0.0
H805 H 0.64541 0.6474 0.38076 0.0
H806 H 0.64794 0.66943 0.37411 0.0
H807 H 0.64388 0.65684 0.32407 0.0
C808 C 0.63629 0.70425 0.2687 0.0
C809 C 0.62864 0.70248 0.22524 0.0
C810 C 0.63233 0.6933 0.30496 0.0
C811 C 0.62089 0.68034 0.29787 0.0
C812 C 0.61447 0.67779 0.25327 0.0
H813 H 0.55651 0.62628 0.49131 0.0
H814 H 0.57369 0.63176 0.42248 0.0
C815 C 0.61826 0.68876 0.21742 0.0
C816 C 0.61337 0.67132 0.33765 0.0
H817 H 0.62178 0.6465 0.43091 0.0
C818 C 0.59625 0.67322 0.34496 0.0
C819 C 0.62268 0.66135 0.3685 0.0
C820 C 0.64098 0.65847 0.36142 0.0
C821 C 0.58824 0.66582 0.38282 0.0
C822 C 0.59753 0.65595 0.41398 0.0
C823 C 0.61465 0.65387 0.40657 0.0
C824 C 0.58981 0.64934 0.45691 0.0
C825 C 0.57001 0.66924 0.39037 0.0
C826 C 0.59377 0.65669 0.49945 0.0
C827 C 0.58401 0.65362 0.53848 0.0
C828 C 0.57018 0.64302 0.53584 0.0
C829 C 0.56715 0.63442 0.49438 0.0
C830 C 0.57688 0.63762 0.45503 0.0
H831 H 0.56533 0.67931 0.3675 0.0
H832 H 0.56278 0.65784 0.38296 0.0
H833 H 0.56765 0.6728 0.42696 0.0
H834 H 0.60367 0.66574 0.5017 0.0
H835 H 0.58667 0.66037 0.57009 0.0
H836 H 0.58573 0.28034 0.81015 0.0
H837 H 0.57783 0.29851 0.74639 0.0
H838 H 0.62634 0.32116 0.74959 0.0
H839 H 0.63467 0.30206 0.81168 0.0
H840 H 0.57402 0.32963 0.736 0.0
H841 H 0.62474 0.31115 0.61655 0.0
H842 H 0.62121 0.30067 0.67075 0.0
H843 H 0.63198 0.32025 0.66944 0.0
C844 C 0.59475 0.28918 0.79728 0.0
C845 C 0.61088 0.28968 0.81576 0.0
C846 C 0.59019 0.29964 0.76076 0.0
C847 C 0.60153 0.31112 0.74219 0.0
C848 C 0.61749 0.31209 0.76194 0.0
H849 H 0.55355 0.37537 0.52779 0.0
H850 H 0.56896 0.36885 0.59932 0.0
C851 C 0.62221 0.30127 0.79777 0.0
C852 C 0.59643 0.3217 0.70191 0.0
H853 H 0.60608 0.33126 0.5896 0.0
C854 C 0.58109 0.33004 0.70404 0.0
C855 C 0.60562 0.32235 0.66002 0.0
C856 C 0.62171 0.31302 0.65375 0.0
C857 C 0.57425 0.33806 0.66508 0.0
C858 C 0.58332 0.33846 0.62302 0.0
C859 C 0.59913 0.33105 0.62178 0.0
C860 C 0.5757 0.34393 0.57823 0.0
C861 C 0.5569 0.34501 0.66869 0.0
C862 C 0.57518 0.3326 0.5414 0.0
C863 C 0.56682 0.33643 0.50055 0.0
C864 C 0.55852 0.35169 0.49513 0.0
C865 C 0.55973 0.36349 0.53089 0.0
C866 C 0.56836 0.35967 0.57204 0.0
H867 H 0.55041 0.34065 0.70042 0.0
H868 H 0.55753 0.35874 0.67007 0.0
H869 H 0.54936 0.34143 0.6381 0.0
H870 H 0.58074 0.32042 0.54481 0.0
H871 H 0.56638 0.32706 0.4737 0.0
H872 H 0.98447 0.36936 0.98203 0.0
H873 H 0.96493 0.36209 0.91997 0.0
H874 H 0.93641 0.33294 0.01689 0.0
H875 H 0.95625 0.33959 0.07803 0.0
H876 H 0.9453 0.31488 0.94598 0.0
H877 H 0.91887 0.37326 0.87707 0.0
H878 H 0.94112 0.37342 0.87825 0.0
H879 H 0.92971 0.37235 0.93181 0.0
C880 C 0.97368 0.36191 0.99029 0.0
C881 C 0.97182 0.35505 0.03476 0.0
C882 C 0.96248 0.35776 0.95482 0.0
C883 C 0.94906 0.347 0.96363 0.0
C884 C 0.94661 0.34122 0.00905 0.0
H885 H 0.89071 0.28428 0.77331 0.0
H886 H 0.89682 0.30136 0.84194 0.0
C887 C 0.95792 0.34509 0.04406 0.0
C888 C 0.93908 0.33976 0.92502 0.0
H889 H 0.91614 0.34911 0.82871 0.0
C890 C 0.93866 0.32239 0.92088 0.0
C891 C 0.93052 0.34951 0.89188 0.0
C892 C 0.92992 0.36816 0.89516 0.0
C893 C 0.93051 0.31453 0.88395 0.0
C894 C 0.92218 0.32425 0.85032 0.0
C895 C 0.92231 0.34163 0.85478 0.0
C896 C 0.91522 0.3166 0.80754 0.0
C897 C 0.93168 0.29588 0.87998 0.0
C898 C 0.92256 0.32031 0.76476 0.0
C899 C 0.91897 0.31075 0.72574 0.0
C900 C 0.90789 0.29729 0.72851 0.0
C901 C 0.89924 0.2946 0.77011 0.0
C902 C 0.90289 0.30423 0.80943 0.0
H903 H 0.9412 0.29059 0.90362 0.0
H904 H 0.91953 0.2903 0.88917 0.0
H905 H 0.93476 0.29215 0.84396 0.0
H906 H 0.93202 0.32982 0.76224 0.0
H907 H 0.92577 0.31318 0.69405 0.0
H908 H 0.89404 0.7168 0.23064 0.0
H909 H 0.89936 0.69786 0.16526 0.0
H910 H 0.93607 0.67212 0.24696 0.0
H911 H 0.93085 0.69082 0.31151 0.0
H912 H 0.93084 0.69732 0.12624 0.0
H913 H 0.91385 0.63373 0.17998 0.0
H914 H 0.90562 0.65198 0.2082 0.0
H915 H 0.92591 0.64428 0.22308 0.0
C916 C 0.90273 0.70667 0.23502 0.0
C917 C 0.91203 0.70522 0.27595 0.0
C918 C 0.90583 0.69591 0.19771 0.0
C919 C 0.91799 0.68342 0.20138 0.0
C920 C 0.92638 0.68135 0.24353 0.0
H921 H 0.98923 0.63227 0.03642 0.0
H922 H 0.96936 0.64009 0.09738 0.0
C923 C 0.92345 0.69214 0.28034 0.0
C924 C 0.9241 0.67446 0.15977 0.0
H925 H 0.93472 0.63592 0.11992 0.0
C926 C 0.93132 0.68389 0.12426 0.0
C927 C 0.92502 0.65693 0.1577 0.0
C928 C 0.91704 0.64614 0.19411 0.0
C929 C 0.94014 0.67637 0.088 0.0
C930 C 0.94139 0.65884 0.0864 0.0
C931 C 0.93373 0.64934 0.12113 0.0
C932 C 0.95131 0.65045 0.04988 0.0
C933 C 0.94883 0.68735 0.05315 0.0
C934 C 0.94727 0.65273 1.00303 0.0
C935 C 0.95862 0.64844 0.96852 0.0
C936 C 0.974 0.6414 0.98018 0.0
C937 C 0.97732 0.63745 0.02664 0.0
C938 C 0.96603 0.64201 0.0614 0.0
H939 H 0.94993 0.70035 0.06556 0.0
H940 H 0.96146 0.68261 0.04538 0.0
H941 H 0.94162 0.6875 0.0204 0.0
H942 H 0.93586 0.65893 0.99333 0.0
H943 H 0.95586 0.65169 0.93288 0.0
H944 H 0.48148 0.36589 0.49752 0.0
H945 H 0.46225 0.35792 0.55976 0.0
H946 H 0.47125 0.30631 0.53022 0.0
H947 H 0.49035 0.31404 0.46819 0.0
H948 H 0.43213 0.33282 0.55692 0.0
H949 H 0.4852 0.31671 0.6716 0.0
H950 H 0.48716 0.33088 0.62336 0.0
H951 H 0.48625 0.30893 0.61322 0.0
C952 C 0.47921 0.35284 0.50389 0.0
C953 C 0.48756 0.34061 0.47798 0.0
C954 C 0.46819 0.34833 0.53937 0.0
C955 C 0.4654 0.33154 0.54959 0.0
C956 C 0.47329 0.31934 0.52289 0.0
H957 H 0.40248 0.27123 0.71912 0.0
H958 H 0.41274 0.28885 0.65595 0.0
C959 C 0.48423 0.32381 0.48746 0.0
C960 C 0.45522 0.32654 0.59006 0.0
H961 H 0.45858 0.30812 0.69601 0.0
C962 C 0.43785 0.32759 0.58765 0.0
C963 C 0.46274 0.31993 0.63023 0.0
C964 C 0.48137 0.31912 0.63522 0.0
C965 C 0.42778 0.32158 0.62391 0.0
C966 C 0.43532 0.31418 0.66316 0.0
C967 C 0.45272 0.31375 0.66602 0.0
C968 C 0.42569 0.30603 0.70094 0.0
C969 C 0.4092 0.32322 0.61984 0.0
C970 C 0.4291 0.31002 0.74736 0.0
C971 C 0.42341 0.29985 0.78322 0.0
C972 C 0.41396 0.28566 0.77345 0.0
C973 C 0.40934 0.28239 0.72749 0.0
C974 C 0.41525 0.29246 0.6914 0.0
H975 H 0.40572 0.33364 0.59653 0.0
H976 H 0.40406 0.31164 0.60484 0.0
H977 H 0.40337 0.32525 0.65424 0.0
H978 H 0.43715 0.32036 0.75568 0.0
H979 H 0.42739 0.3024 0.81837 0.0
H980 H 0.49976 0.68833 0.55106 0.0
H981 H 0.48168 0.69833 0.48956 0.0
H982 H 0.47722 0.64856 0.43612 0.0
H983 H 0.495 0.63831 0.49917 0.0
H984 H 0.48835 0.69786 0.40105 0.0
H985 H 0.42951 0.66365 0.42911 0.0
H986 H 0.44581 0.66431 0.47199 0.0
H987 H 0.44734 0.65045 0.42336 0.0
C988 C 0.49482 0.67944 0.52655 0.0
C989 C 0.49891 0.66252 0.52986 0.0
C990 C 0.48442 0.68519 0.49138 0.0
C991 C 0.47793 0.67424 0.45821 0.0
C992 C 0.48174 0.65724 0.46179 0.0
H993 H 0.45029 0.71317 0.18942 0.0
H994 H 0.46144 0.69617 0.25223 0.0
C995 C 0.49202 0.6514 0.49762 0.0
C996 C 0.46847 0.68108 0.41808 0.0
H997 H 0.43166 0.67924 0.35904 0.0
C998 C 0.47593 0.69378 0.39207 0.0
C999 C 0.45219 0.67592 0.40647 0.0
C1000 C 0.44315 0.66295 0.43443 0.0
C1001 C 0.46767 0.70147 0.35511 0.0
C1002 C 0.45162 0.69595 0.34236 0.0
C1003 C 0.44403 0.68332 0.36844 0.0
C1004 C 0.44275 0.70338 0.30213 0.0
C1005 C 0.47612 0.71576 0.33081 0.0
C1006 C 0.42778 0.71212 0.30819 0.0
C1007 C 0.42111 0.72156 0.27171 0.0
C1008 C 0.42946 0.7225 0.22903 0.0
C1009 C 0.44373 0.7128 0.22219 0.0
C1010 C 0.45015 0.70315 0.25812 0.0
H1011 H 0.4859 0.72144 0.3528 0.0
H1012 H 0.48215 0.71116 0.29872 0.0
H1013 H 0.46707 0.72556 0.32113 0.0
H1014 H 0.42179 0.71239 0.34179 0.0
H1015 H 0.41012 0.72899 0.27784 0.0
H1016 H 0.13755 0.71559 0.26644 0.0
H1017 H 0.12947 0.69608 0.2048 0.0
H1018 H 0.07855 0.71171 0.21838 0.0
H1019 H 0.08635 0.73099 0.27935 0.0
H1020 H 0.08438 0.67556 0.21631 0.0
H1021 H 0.11382 0.71035 0.07074 0.0
H1022 H 0.12582 0.7057 0.12182 0.0
H1023 H 0.10914 0.72037 0.12516 0.0
C1024 C 0.12465 0.71486 0.25619 0.0
C1025 C 0.11262 0.7249 0.27784 0.0
C1026 C 0.12006 0.70372 0.221 0.0
C1027 C 0.1034 0.70247 0.20706 0.0
C1028 C 0.09145 0.71242 0.22876 0.0
H1029 H 0.03804 0.68429 0.99767 0.0
H1030 H 0.05769 0.69232 0.05738 0.0
C1031 C 0.09598 0.72351 0.26358 0.0
C1032 C 0.09803 0.69118 0.16932 0.0
H1033 H 0.09486 0.6894 0.05143 0.0
C1034 C 0.08702 0.67823 0.18021 0.0
C1035 C 0.10149 0.69475 0.12233 0.0
C1036 C 0.11317 0.70855 0.10888 0.0
C1037 C 0.07855 0.6695 0.14532 0.0
C1038 C 0.08113 0.67389 0.09845 0.0
C1039 C 0.09297 0.68605 0.08746 0.0
C1040 C 0.06959 0.66834 0.06154 0.0
C1041 C 0.06593 0.65655 0.15876 0.0
C1042 C 0.06969 0.65206 0.0441 0.0
C1043 C 0.05832 0.64733 0.00957 0.0
C1044 C 0.04674 0.65883 0.99211 0.0
C1045 C 0.04676 0.67507 0.01004 0.0
C1046 C 0.05805 0.67974 0.04418 0.0
H1047 H 0.06528 0.65469 0.19687 0.0
H1048 H 0.05347 0.66026 0.14599 0.0
H1049 H 0.06914 0.64454 0.14224 0.0
H1050 H 0.07856 0.64309 0.05701 0.0
H1051 H 0.05867 0.63475 0.9964 0.0
H1052 H 0.12929 0.27126 0.7784 0.0
H1053 H 0.11821 0.29017 0.83796 0.0
H1054 H 0.08519 0.31164 0.73664 0.0
H1055 H 0.09557 0.29228 0.67821 0.0
H1056 H 0.11357 0.32431 0.85151 0.0
H1057 H 0.05313 0.2922 0.82924 0.0
H1058 H 0.07197 0.2847 0.80294 0.0
H1059 H 0.06071 0.30164 0.7771 0.0
C1060 C 0.11988 0.28025 0.76891 0.0
C1061 C 0.11307 0.28023 0.72415 0.0
C1062 C 0.11357 0.29104 0.8028 0.0
C1063 C 0.10056 0.30204 0.79202 0.0
C1064 C 0.09488 0.30297 0.74611 0.0
H1065 H 0.04644 0.36806 0.98678 0.0
H1066 H 0.06445 0.35957 0.92165 0.0
C1067 C 0.10086 0.29197 0.71274 0.0
C1068 C 0.09169 0.31121 0.8293 0.0
H1069 H 0.05368 0.31472 0.88087 0.0
C1070 C 0.10046 0.32232 0.85777 0.0
C1071 C 0.07458 0.30847 0.83779 0.0
C1072 C 0.06456 0.296 0.81049 0.0
C1073 C 0.09255 0.33065 0.89463 0.0
C1074 C 0.0755 0.32784 0.90287 0.0
C1075 C 0.06672 0.317 0.87396 0.0
C1076 C 0.06684 0.33411 0.94467 0.0
C1077 C 0.1025 0.34188 0.92574 0.0
C1078 C 0.06243 0.3227 0.97911 0.0
C1079 C 0.05211 0.3274 0.01547 0.0
C1080 C 0.04594 0.34369 0.01849 0.0
C1081 C 0.051 0.35543 0.98526 0.0
C1082 C 0.06131 0.35062 0.94826 0.0
H1083 H 0.11575 0.34255 0.91525 0.0
H1084 H 0.09715 0.35457 0.925 0.0
H1085 H 0.10178 0.33735 0.96205 0.0
H1086 H 0.06656 0.30992 0.97699 0.0
H1087 H 0.0487 0.31811 0.04088 0.0
H1088 H 0.9824 0.29117 0.25012 0.0
H1089 H 0.99156 0.27437 0.31649 0.0
H1090 H 0.02027 0.24373 0.22379 0.0
H1091 H 0.01174 0.26098 0.1583 0.0
H1092 H 0.00416 0.22932 0.32113 0.0
H1093 H 0.04609 0.28414 0.32336 0.0
H1094 H 0.02375 0.28631 0.32065 0.0
H1095 H 0.03514 0.27959 0.27068 0.0
C1096 C 0.98992 0.28025 0.24397 0.0
C1097 C 0.9968 0.27745 0.19986 0.0
C1098 C 0.99516 0.27076 0.28176 0.0
C1099 C 0.00677 0.25809 0.27482 0.0
C1100 C 0.01131 0.25356 0.22956 0.0
H1101 H 0.06363 0.18782 0.26403 0.0
H1102 H 0.06127 0.20357 0.33613 0.0
C1103 C 0.0064 0.26329 0.19213 0.0
C1104 C 0.01738 0.25222 0.31278 0.0
H1105 H 0.05792 0.25801 0.3407 0.0
C1106 C 0.01577 0.23573 0.32678 0.0
C1107 C 0.03219 0.26089 0.32311 0.0
C1108 C 0.03449 0.27877 0.30905 0.0
C1109 C 0.02975 0.22688 0.34153 0.0
C1110 C 0.04556 0.23449 0.33684 0.0
C1111 C 0.04596 0.25188 0.33925 0.0
C1112 C 0.05691 0.22707 0.30162 0.0
C1113 C 0.02764 0.20895 0.35506 0.0
C1114 C 0.05858 0.23542 0.25863 0.0
C1115 C 0.06025 0.22647 0.21775 0.0
C1116 C 0.06055 0.20922 0.21954 0.0
C1117 C 0.06283 0.20123 0.2624 0.0
C1118 C 0.06125 0.21021 0.30356 0.0
H1119 H 0.01548 0.207 0.37234 0.0
H1120 H 0.02788 0.20101 0.32379 0.0
H1121 H 0.03759 0.20487 0.37903 0.0
H1122 H 0.05602 0.24854 0.25522 0.0
H1123 H 0.05887 0.2328 0.18486 0.0
H1124 H 0.96144 0.7029 0.48156 0.0
H1125 H 0.97495 0.70073 0.55717 0.0
H1126 H 0.02103 0.71643 0.49388 0.0
H1127 H 0.00741 0.71833 0.41943 0.0
H1128 H 0.02775 0.70591 0.58225 0.0
H1129 H 0.97389 0.74441 0.61565 0.0
H1130 H 0.97312 0.72204 0.61276 0.0
H1131 H 0.97045 0.73436 0.56123 0.0
C1132 C 0.97469 0.70493 0.48389 0.0
C1133 C 0.98341 0.71132 0.44563 0.0
C1134 C 0.9824 0.7038 0.52715 0.0
C1135 C 0.99876 0.70945 0.53232 0.0
C1136 C 0.00823 0.71243 0.49182 0.0
H1137 H 0.03284 0.75912 0.42244 0.0
H1138 H 0.01434 0.74887 0.48257 0.0
C1139 C 0.00051 0.71355 0.44876 0.0
C1140 C 0.00406 0.71787 0.57582 0.0
H1141 H 0.9976 0.75937 0.57721 0.0
C1142 C 0.02118 0.71762 0.58453 0.0
C1143 C 0.99563 0.73287 0.58575 0.0
C1144 C 0.97724 0.73341 0.59447 0.0
C1145 C 0.03023 0.73248 0.58127 0.0
C1146 C 0.02149 0.74744 0.57277 0.0
C1147 C 0.00434 0.74777 0.58022 0.0
C1148 C 0.02845 0.75935 0.53936 0.0
C1149 C 0.04887 0.73172 0.57849 0.0
C1150 C 0.04142 0.77005 0.55129 0.0
C1151 C 0.05167 0.77646 0.51646 0.0
C1152 C 0.04948 0.77145 0.47007 0.0
C1153 C 0.03503 0.76284 0.45797 0.0
C1154 C 0.0245 0.75693 0.49243 0.0
H1155 H 0.0537 0.71965 0.59129 0.0
H1156 H 0.05287 0.73333 0.54193 0.0
H1157 H 0.05444 0.74187 0.59928 0.0
H1158 H 0.04444 0.7723 0.58733 0.0
H1159 H 0.06216 0.78404 0.52625 0.0
H1160 H 0.53766 0.73883 0.66494 0.0
H1161 H 0.5253 0.7565 0.72369 0.0
H1162 H 0.54727 0.72636 0.83074 0.0
H1163 H 0.56212 0.7105 0.77181 0.0
H1164 H 0.51017 0.72388 0.81344 0.0
H1165 H 0.53106 0.7872 0.84622 0.0
H1166 H 0.53471 0.78293 0.78607 0.0
H1167 H 0.54531 0.77085 0.82968 0.0
C1168 C 0.54087 0.7367 0.70089 0.0
C1169 C 0.54983 0.72253 0.71403 0.0
C1170 C 0.53376 0.74679 0.73463 0.0
C1171 C 0.53518 0.74257 0.78172 0.0
C1172 C 0.54614 0.72997 0.79486 0.0
H1173 H 0.46947 0.80421 0.72717 0.0
H1174 H 0.46965 0.78792 0.79873 0.0
C1175 C 0.55416 0.72056 0.76097 0.0
C1176 C 0.52176 0.74804 0.81274 0.0
H1177 H 0.50116 0.78452 0.81757 0.0
C1178 C 0.50821 0.73715 0.81669 0.0
C1179 C 0.51919 0.7651 0.82023 0.0
C1180 C 0.53347 0.77713 0.82083 0.0
C1181 C 0.49198 0.74336 0.81504 0.0
C1182 C 0.48977 0.7605 0.80743 0.0
C1183 C 0.50291 0.7712 0.81934 0.0
C1184 C 0.47997 0.76598 0.76661 0.0
C1185 C 0.47766 0.73147 0.81131 0.0
C1186 C 0.48381 0.75846 0.72371 0.0
C1187 C 0.484 0.76788 0.68318 0.0
C1188 C 0.48005 0.78471 0.6851 0.0
C1189 C 0.4728 0.7912 0.72555 0.0
C1190 C 0.4728 0.78186 0.7664 0.0
H1191 H 0.47905 0.72131 0.83704 0.0
H1192 H 0.46561 0.73787 0.81692 0.0
H1193 H 0.47762 0.72571 0.77639 0.0
H1194 H 0.48939 0.74625 0.72229 0.0
H1195 H 0.48946 0.76268 0.65212 0.0
H1196 H 0.55118 0.27455 0.9382 0.0
H1197 H 0.58669 0.25181 0.01998 0.0
H1198 H 0.52811 0.22421 0.98036 0.0
H1199 H 0.52777 0.24815 0.03967 0.0
H1200 H 0.54891 0.2015 0.95313 0.0
H1201 H 0.56295 0.24436 0.80729 0.0
H1202 H 0.57281 0.24624 0.86276 0.0
H1203 H 0.5519 0.25365 0.8548 0.0
C1204 C 0.54922 0.26258 0.95443 0.0
C1205 C 0.54757 0.26158 1.00225 0.0
C1206 C 0.56105 0.2493 0.94843 0.0
C1207 C 0.54991 0.2352 0.94396 0.0
C1208 C 0.53671 0.23448 0.97811 0.0
H1209 H 0.48411 0.20445 0.88523 0.0
H1210 H 0.51091 0.19231 0.89092 0.0
C1211 C 0.53582 0.24836 0.00967 0.0
C1212 C 0.55192 0.22255 0.90728 0.0
H1213 H 0.54713 0.22107 0.79115 0.0
C1214 C 0.54852 0.20585 0.91759 0.0
C1215 C 0.5541 0.22709 0.8602 0.0
C1216 C 0.56082 0.24373 0.84531 0.0
C1217 C 0.5431 0.19519 0.88232 0.0
C1218 C 0.53861 0.20235 0.83947 0.0
C1219 C 0.54784 0.21641 0.82618 0.0
C1220 C 0.52057 0.20273 0.82628 0.0
C1221 C 0.53991 0.17718 0.89264 0.0
C1222 C 0.51551 0.21127 0.78606 0.0
C1223 C 0.50038 0.21971 0.78535 0.0
C1224 C 0.48948 0.21885 0.82342 0.0
C1225 C 0.49289 0.20719 0.85819 0.0
C1226 C 0.50832 0.19946 0.86015 0.0
H1227 H 0.55197 0.17087 0.89856 0.0
H1228 H 0.53259 0.17585 0.92505 0.0
H1229 H 0.53342 0.1709 0.86356 0.0
H1230 H 0.52391 0.21305 0.75723 0.0
H1231 H 0.4977 0.22765 0.75602 0.0
H1232 H 0.0431 0.76091 0.84871 0.0
H1233 H 0.03724 0.74168 0.7866 0.0
H1234 H 0.05962 0.77524 0.68807 0.0
H1235 H 0.06683 0.79396 0.75181 0.0
H1236 H 0.02542 0.77584 0.68574 0.0
H1237 H 0.04397 0.71136 0.67544 0.0
H1238 H 0.04397 0.71566 0.73625 0.0
H1239 H 0.0579 0.72693 0.69859 0.0
C1240 C 0.04777 0.76369 0.81438 0.0
C1241 C 0.05429 0.77936 0.80423 0.0
C1242 C 0.04453 0.7526 0.77856 0.0
C1243 C 0.04747 0.75729 0.73224 0.0
C1244 C 0.05699 0.7715 0.72338 0.0
H1245 H 0.97419 0.69921 0.76353 0.0
H1246 H 0.97961 0.71562 0.69406 0.0
C1247 C 0.06074 0.78234 0.75967 0.0
C1248 C 0.03543 0.75131 0.69747 0.0
H1249 H 0.01276 0.71601 0.69787 0.0
C1250 C 0.02276 0.76265 0.68625 0.0
C1251 C 0.03199 0.73421 0.69457 0.0
C1252 C 0.04534 0.72141 0.70146 0.0
C1253 C 0.00614 0.75757 0.68739 0.0
C1254 C 0.00257 0.74084 0.69749 0.0
C1255 C 0.01541 0.72909 0.69338 0.0
C1256 C 0.9895 0.73663 0.73153 0.0
C1257 C 0.99265 0.77044 0.68538 0.0
C1258 C 0.9912 0.74383 0.7758 0.0
C1259 C 0.98861 0.73424 0.81535 0.0
C1260 C 0.98384 0.71767 0.81063 0.0
C1261 C 0.97822 0.71196 0.76738 0.0
C1262 C 0.98116 0.72141 0.72762 0.0
H1263 H 0.99523 0.77946 0.65715 0.0
H1264 H 0.98029 0.76473 0.67969 0.0
H1265 H 0.99246 0.77745 0.71847 0.0
H1266 H 0.99749 0.75561 0.78008 0.0
H1267 H 0.99273 0.73889 0.84861 0.0
H1268 H 0.57625 0.70589 0.01454 0.0
H1269 H 0.56131 0.70685 0.94074 0.0
H1270 H 0.51722 0.72248 0.01427 0.0
H1271 H 0.5321 0.72094 0.08693 0.0
H1272 H 0.5084 0.71481 0.92615 0.0
H1273 H 0.5631 0.75167 0.89017 0.0
H1274 H 0.56424 0.72957 0.89657 0.0
H1275 H 0.56649 0.74291 0.94637 0.0
C1276 C 0.5631 0.70868 0.01457 0.0
C1277 C 0.55529 0.7139 0.05561 0.0
C1278 C 0.55461 0.70945 0.97238 0.0
C1279 C 0.53847 0.71598 0.97104 0.0
C1280 C 0.52985 0.71791 0.01343 0.0
H1281 H 0.50843 0.76177 0.09414 0.0
H1282 H 0.5251 0.75306 0.02841 0.0
C1283 C 0.5383 0.71705 0.05545 0.0
C1284 C 0.53261 0.72587 0.9305 0.0
H1285 H 0.54022 0.76714 0.93315 0.0
C1286 C 0.51533 0.72632 0.92428 0.0
C1287 C 0.54139 0.74078 0.92164 0.0
C1288 C 0.55983 0.74114 0.91319 0.0
C1289 C 0.50684 0.74139 0.93066 0.0
C1290 C 0.51622 0.75588 0.93968 0.0
C1291 C 0.53314 0.75584 0.92911 0.0
C1292 C 0.51079 0.76678 0.97769 0.0
C1293 C 0.48829 0.74117 0.93709 0.0
C1294 C 0.49864 0.77897 0.9714 0.0
C1295 C 0.48971 0.78473 0.00976 0.0
C1296 C 0.49206 0.77737 0.05364 0.0
C1297 C 0.50598 0.76726 0.06057 0.0
C1298 C 0.5154 0.76215 0.02283 0.0
H1299 H 0.48262 0.7299 0.92165 0.0
H1300 H 0.48534 0.74132 0.97469 0.0
H1301 H 0.48264 0.75236 0.92109 0.0
H1302 H 0.4952 0.78299 0.93688 0.0
H1303 H 0.47986 0.7936 0.00425 0.0
H1304 H 0.49209 0.22115 0.23968 0.0
H1305 H 0.50559 0.23267 0.17008 0.0
H1306 H 0.55329 0.22637 0.23676 0.0
H1307 H 0.53985 0.21474 0.30391 0.0
H1308 H 0.51933 0.25804 0.15232 0.0
H1309 H 0.57148 0.21909 0.11578 0.0
H1310 H 0.55315 0.21046 0.14302 0.0
H1311 H 0.57065 0.21724 0.17737 0.0
C1312 C 0.50545 0.22247 0.23889 0.0
C1313 C 0.515 0.21761 0.27727 0.0
C1314 C 0.51321 0.22874 0.19898 0.0
C1315 C 0.53063 0.23019 0.19695 0.0
C1316 C 0.53997 0.22506 0.23569 0.0
H1317 H 0.55852 0.26725 0.31371 0.0
H1318 H 0.56417 0.253 0.24137 0.0
C1319 C 0.53227 0.21885 0.27508 0.0
C1320 C 0.53905 0.23999 0.15986 0.0
H1321 H 0.58 0.24893 0.15099 0.0
C1322 C 0.53255 0.25573 0.14968 0.0
C1323 C 0.55601 0.2372 0.1494 0.0
C1324 C 0.56308 0.21995 0.1462 0.0
C1325 C 0.54331 0.26929 0.14495 0.0
C1326 C 0.56022 0.26688 0.15642 0.0
C1327 C 0.56674 0.25095 0.14841 0.0
C1328 C 0.56578 0.27536 0.19954 0.0
C1329 C 0.53605 0.28634 0.1388 0.0
C1330 C 0.56691 0.29272 0.20175 0.0
C1331 C 0.56392 0.30087 0.24377 0.0
C1332 C 0.55953 0.29171 0.28356 0.0
C1333 C 0.56135 0.2745 0.28309 0.0
C1334 C 0.56464 0.26638 0.24145 0.0
H1335 H 0.52455 0.28582 0.11763 0.0
H1336 H 0.53275 0.29154 0.17317 0.0
H1337 H 0.54508 0.29473 0.12161 0.0
H1338 H 0.56831 0.29999 0.17047 0.0
H1339 H 0.56336 0.31429 0.24414 0.0
H1340 H 0.03024 0.24455 0.59362 0.0
H1341 H 0.01123 0.25277 0.53209 0.0
H1342 H 0.04153 0.22702 0.43235 0.0
H1343 H 0.05909 0.21669 0.49476 0.0
H1344 H 0.04141 0.26544 0.4366 0.0
H1345 H 0.97964 0.23758 0.41576 0.0
H1346 H 0.98621 0.23643 0.47517 0.0
H1347 H 0.99783 0.22556 0.43127 0.0
C1348 C 0.0322 0.23972 0.55905 0.0
C1349 C 0.04669 0.23091 0.54823 0.0
C1350 C 0.02135 0.24441 0.52381 0.0
C1351 C 0.02511 0.24064 0.47745 0.0
C1352 C 0.03828 0.22992 0.46763 0.0
H1353 H 0.95725 0.30153 0.50148 0.0
H1354 H 0.97348 0.29951 0.43007 0.0
C1355 C 0.0486 0.22446 0.5033 0.0
C1356 C 0.01843 0.25181 0.44172 0.0
H1357 H 0.98028 0.26825 0.42575 0.0
C1358 C 0.02807 0.26588 0.43182 0.0
C1359 C 0.00128 0.25223 0.43273 0.0
C1360 C 0.99067 0.23702 0.43879 0.0
C1361 C 0.02041 0.28123 0.42416 0.0
C1362 C 0.00309 0.28232 0.43016 0.0
C1363 C 0.99372 0.26766 0.42523 0.0
C1364 C 0.99656 0.2941 0.46531 0.0
C1365 C 0.03087 0.29661 0.42015 0.0
C1366 C 0.00454 0.2941 0.50894 0.0
C1367 C 0.99525 0.29512 0.54945 0.0
C1368 C 0.97804 0.29629 0.5466 0.0
C1369 C 0.9706 0.30021 0.50386 0.0
C1370 C 0.9799 0.29916 0.46305 0.0
H1371 H 0.04253 0.29394 0.40112 0.0
H1372 H 0.02391 0.30665 0.40229 0.0
H1373 H 0.03445 0.30105 0.4551 0.0
H1374 H 0.01733 0.29025 0.51258 0.0
H1375 H 0.00115 0.29234 0.58227 0.0
H1376 H 0.03499 0.05403 0.13018 0.0
H1377 H 0.0351 0.02664 0.09351 0.0
H1378 H 0.99763 0.04312 0.99716 0.0
H1379 H 0.99765 0.07059 0.03377 0.0
H1380 H 0.01045 0.00447 0.08699 0.0
H1381 H 0.03064 0.02205 0.9099 0.0
H1382 H 0.03205 0.03609 0.9584 0.0
H1383 H 0.01256 0.03305 0.92924 0.0
C1384 C 0.02692 0.05182 0.10083 0.0
C1385 C 0.01657 0.06454 0.0842 0.0
C1386 C 0.02697 0.03618 0.07991 0.0
C1387 C 0.01659 0.03282 0.04197 0.0
C1388 C 0.00612 0.0455 0.02545 0.0
H1389 H 0.9947 0.94271 0.88686 0.0
H1390 H 0.9945 0.97046 0.92162 0.0
C1391 C 0.00616 0.06123 0.04627 0.0
C1392 C 0.01627 0.01584 0.02139 0.0
H1393 H 0.02143 0.99428 0.92031 0.0
C1394 C 0.01293 0.00226 0.05057 0.0
C1395 C 0.01952 0.01289 0.97384 0.0
C1396 C 0.02405 0.02676 0.94107 0.0
C1397 C 0.01254 0.98592 0.0335 0.0
C1398 C 0.0157 0.983 0.98601 0.0
C1399 C 0.01898 0.99654 0.95672 0.0
C1400 C 0.01564 0.96598 0.96603 0.0
C1401 C 0.00848 0.9719 0.06625 0.0
C1402 C 0.02766 0.95425 0.9792 0.0
C1403 C 0.02784 0.9384 0.95919 0.0
C1404 C 0.01589 0.9339 0.92592 0.0
C1405 C 0.00393 0.94573 0.91278 0.0
C1406 C 0.00382 0.96159 0.93255 0.0
H1407 H 0.00296 0.97647 0.09915 0.0
H1408 H 0.99971 0.96305 0.04987 0.0
H1409 H 0.02002 0.96504 0.07475 0.0
H1410 H 0.03714 0.9575 0.00418 0.0
H1411 H 0.03767 0.92993 0.96863 0.0
H1412 H 0.20088 0.76819 0.28842 0.0
H1413 H 0.22827 0.76781 0.25143 0.0
H1414 H 0.24218 0.72564 0.33465 0.0
H1415 H 0.21463 0.7256 0.3706 0.0
H1416 H 0.26502 0.75614 0.33298 0.0
H1417 H 0.24828 0.73038 0.16019 0.0
H1418 H 0.2351 0.7462 0.18456 0.0
H1419 H 0.23612 0.72619 0.21152 0.0
C1420 C 0.20951 0.75849 0.29772 0.0
C1421 C 0.20535 0.74663 0.33163 0.0
C1422 C 0.22526 0.75841 0.27694 0.0
C1423 C 0.23722 0.74661 0.29005 0.0
C1424 C 0.23313 0.73481 0.32387 0.0
H1425 H 0.34256 0.73133 0.22726 0.0
H1426 H 0.31498 0.73112 0.26312 0.0
C1427 C 0.21738 0.7348 0.34433 0.0
C1428 C 0.2542 0.74694 0.26989 0.0
H1429 H 0.27608 0.73848 0.17126 0.0
C1430 C 0.26748 0.75225 0.29766 0.0
C1431 C 0.25734 0.74191 0.22382 0.0
C1432 C 0.24354 0.73575 0.19308 0.0
C1433 C 0.2838 0.75292 0.28032 0.0
C1434 C 0.28701 0.74774 0.23428 0.0
C1435 C 0.27367 0.74241 0.20657 0.0
C1436 C 0.304 0.74813 0.21373 0.0
C1437 C 0.29738 0.75961 0.31104 0.0
C1438 C 0.30702 0.7575 0.17361 0.0
C1439 C 0.32279 0.75769 0.15331 0.0
C1440 C 0.33597 0.74854 0.17258 0.0
C1441 C 0.33292 0.73903 0.21257 0.0
C1442 C 0.31709 0.73882 0.23293 0.0
H1443 H 0.29229 0.76696 0.34035 0.0
H1444 H 0.30455 0.7491 0.32573 0.0
H1445 H 0.30605 0.76757 0.29102 0.0
H1446 H 0.29716 0.76471 0.15794 0.0
H1447 H 0.32471 0.76505 0.12237 0.0
H1448 H 0.54719 0.05956 0.40712 0.0
H1449 H 0.54666 0.03185 0.44162 0.0
H1450 H 0.50249 0.04484 0.51777 0.0
H1451 H 0.50257 0.07235 0.48157 0.0
H1452 H 0.54854 0.02084 0.52951 0.0
H1453 H 0.4878 0.0027 0.4549 0.0
H1454 H 0.49869 0.02116 0.43688 0.0
H1455 H 0.48683 0.02111 0.48972 0.0
C1456 C 0.5374 0.05654 0.43142 0.0
C1457 C 0.52507 0.0683 0.44204 0.0
C1458 C 0.53712 0.04068 0.45118 0.0
C1459 C 0.52441 0.03608 0.48186 0.0
C1460 C 0.51228 0.04794 0.49357 0.0
H1461 H 0.50354 0.94611 0.63777 0.0
H1462 H 0.50409 0.97409 0.60443 0.0
C1463 C 0.51252 0.06383 0.47356 0.0
C1464 C 0.52392 0.01886 0.50109 0.0
H1465 H 0.49981 0.98401 0.50896 0.0
C1466 C 0.5379 0.01279 0.52484 0.0
C1467 C 0.51008 0.00823 0.49482 0.0
C1468 C 0.49506 0.01354 0.46731 0.0
C1469 C 0.5383 0.99659 0.54311 0.0
C1470 C 0.52442 0.98606 0.53719 0.0
C1471 C 0.51045 0.99209 0.51351 0.0
C1472 C 0.52401 0.96888 0.55638 0.0
C1473 C 0.55346 0.99096 0.56946 0.0
C1474 C 0.53488 0.95653 0.54011 0.0
C1475 C 0.53452 0.94048 0.55903 0.0
C1476 C 0.52324 0.93648 0.5945 0.0
C1477 C 0.51234 0.94885 0.61046 0.0
C1478 C 0.51262 0.96482 0.59137 0.0
H1479 H 0.56158 0.00154 0.57921 0.0
H1480 H 0.54984 0.98418 0.60142 0.0
H1481 H 0.56078 0.98237 0.54744 0.0
H1482 H 0.5437 0.95934 0.51287 0.0
H1483 H 0.54331 0.93135 0.54676 0.0
H1484 H 0.32267 0.23072 0.89957 0.0
H1485 H 0.29508 0.23068 0.86329 0.0
H1486 H 0.30873 0.27349 0.78214 0.0
H1487 H 0.33621 0.27357 0.81854 0.0
H1488 H 0.2702 0.25439 0.86035 0.0
H1489 H 0.2929 0.24133 0.68268 0.0
H1490 H 0.30588 0.23903 0.73323 0.0
H1491 H 0.30227 0.25923 0.70873 0.0
C1492 C 0.31973 0.24012 0.87404 0.0
C1493 C 0.33176 0.25187 0.86099 0.0
C1494 C 0.30399 0.24009 0.85326 0.0
C1495 C 0.29991 0.25183 0.81904 0.0
C1496 C 0.31171 0.26398 0.80732 0.0
H1497 H 0.21395 0.27282 0.64654 0.0
H1498 H 0.24055 0.27291 0.68772 0.0
C1499 C 0.32744 0.264 0.82808 0.0
C1500 C 0.28332 0.25146 0.79591 0.0
H1501 H 0.26445 0.2485 0.69001 0.0
C1502 C 0.26894 0.25301 0.82313 0.0
C1503 C 0.28162 0.24962 0.74731 0.0
C1504 C 0.29647 0.24705 0.71626 0.0
C1505 C 0.25299 0.25321 0.80305 0.0
C1506 C 0.25131 0.25153 0.7544 0.0
C1507 C 0.26569 0.24985 0.72725 0.0
C1508 C 0.2348 0.25169 0.73078 0.0
C1509 C 0.23811 0.25569 0.834 0.0
C1510 C 0.22268 0.23967 0.74083 0.0
C1511 C 0.20743 0.23962 0.71728 0.0
C1512 C 0.20396 0.25163 0.68319 0.0
C1513 C 0.21618 0.26353 0.67295 0.0
C1514 C 0.23139 0.26358 0.69645 0.0
H1515 H 0.24166 0.26098 0.86812 0.0
H1516 H 0.22888 0.26403 0.81744 0.0
H1517 H 0.23208 0.24352 0.84029 0.0
H1518 H 0.22515 0.23005 0.76614 0.0
H1519 H 0.1986 0.22987 0.72471 0.0
H1520 H 0.71083 0.27791 0.8448 0.0
H1521 H 0.73766 0.27506 0.80599 0.0
H1522 H 0.72496 0.22502 0.76662 0.0
H1523 H 0.69778 0.22815 0.80462 0.0
H1524 H 0.76189 0.25452 0.82866 0.0
H1525 H 0.74385 0.24194 0.64654 0.0
H1526 H 0.72924 0.24941 0.68909 0.0
H1527 H 0.73489 0.22782 0.68764 0.0
C1528 C 0.71363 0.26645 0.82683 0.0
C1529 C 0.70214 0.25335 0.82704 0.0
C1530 C 0.72901 0.26478 0.8049 0.0
C1531 C 0.73342 0.24986 0.78295 0.0
C1532 C 0.72179 0.23681 0.78227 0.0
H1533 H 0.83844 0.22668 0.72373 0.0
H1534 H 0.81045 0.22714 0.75756 0.0
C1535 C 0.70624 0.23858 0.80388 0.0
C1536 C 0.75055 0.24787 0.76368 0.0
H1537 H 0.7724 0.23922 0.66492 0.0
C1538 C 0.76415 0.25116 0.79282 0.0
C1539 C 0.75361 0.2436 0.71684 0.0
C1540 C 0.73964 0.24064 0.68304 0.0
C1541 C 0.7806 0.25049 0.7765 0.0
C1542 C 0.78368 0.24598 0.72987 0.0
C1543 C 0.77009 0.24256 0.70076 0.0
C1544 C 0.8008 0.24557 0.70996 0.0
C1545 C 0.79448 0.25519 0.80904 0.0
C1546 C 0.80471 0.25546 0.67138 0.0
C1547 C 0.82066 0.2552 0.65222 0.0
C1548 C 0.83315 0.24511 0.67128 0.0
C1549 C 0.82926 0.23505 0.70953 0.0
C1550 C 0.81322 0.23525 0.72865 0.0
H1551 H 0.78987 0.26239 0.83922 0.0
H1552 H 0.80045 0.24374 0.82244 0.0
H1553 H 0.80407 0.26266 0.79091 0.0
H1554 H 0.79539 0.26348 0.65612 0.0
H1555 H 0.82331 0.26292 0.62241 0.0
H1556 H 0.84028 0.77236 0.29457 0.0
H1557 H 0.81274 0.77353 0.25818 0.0
H1558 H 0.7965 0.73293 0.34435 0.0
H1559 H 0.82389 0.73188 0.38089 0.0
H1560 H 0.79501 0.75066 0.20884 0.0
H1561 H 0.76061 0.76656 0.36891 0.0
H1562 H 0.78295 0.76739 0.3656 0.0
H1563 H 0.77254 0.74789 0.37476 0.0
C1564 C 0.83089 0.76357 0.30525 0.0
C1565 C 0.83427 0.75192 0.34029 0.0
C1566 C 0.81511 0.76432 0.28471 0.0
C1567 C 0.80239 0.75352 0.29905 0.0
C1568 C 0.8059 0.74169 0.33347 0.0
H1569 H 0.70114 0.73227 0.21412 0.0
H1570 H 0.72872 0.7326 0.24977 0.0
C1571 C 0.82159 0.74103 0.35415 0.0
C1572 C 0.78553 0.75443 0.2778 0.0
H1573 H 0.74429 0.75843 0.30386 0.0
C1574 C 0.78394 0.7525 0.22959 0.0
C1575 C 0.77102 0.75684 0.30478 0.0
C1576 C 0.77184 0.75996 0.3563 0.0
C1577 C 0.76829 0.75249 0.20791 0.0
C1578 C 0.75381 0.75464 0.23503 0.0
C1579 C 0.75538 0.75669 0.28312 0.0
C1580 C 0.7369 0.75476 0.21417 0.0
C1581 C 0.76733 0.74975 0.15626 0.0
C1582 C 0.7322 0.76723 0.18281 0.0
C1583 C 0.71633 0.76721 0.16301 0.0
C1584 C 0.70474 0.75483 0.17445 0.0
C1585 C 0.70948 0.74234 0.20589 0.0
C1586 C 0.72534 0.7424 0.22585 0.0
H1587 H 0.77908 0.74459 0.14216 0.0
H1588 H 0.75701 0.74119 0.14749 0.0
H1589 H 0.76492 0.76178 0.13881 0.0
H1590 H 0.74082 0.77702 0.1737 0.0
H1591 H 0.71307 0.77692 0.13872 0.0
H1592 H 0.53717 0.55704 0.63491 0.0
H1593 H 0.53699 0.52909 0.60132 0.0
H1594 H 0.50006 0.54475 0.50228 0.0
H1595 H 0.50051 0.5728 0.53564 0.0
H1596 H 0.51216 0.5072 0.59708 0.0
H1597 H 0.53248 0.52165 0.41807 0.0
H1598 H 0.5341 0.53645 0.46471 0.0
H1599 H 0.51459 0.53329 0.43569 0.0
C1600 C 0.52925 0.55452 0.60543 0.0
C1601 C 0.51916 0.56713 0.58706 0.0
C1602 C 0.52909 0.53856 0.58635 0.0
C1603 C 0.51873 0.53479 0.54865 0.0
C1604 C 0.50855 0.5474 0.53038 0.0
H1605 H 0.49357 0.4445 0.40043 0.0
H1606 H 0.49454 0.47227 0.43466 0.0
C1607 C 0.50881 0.56344 0.54932 0.0
C1608 C 0.51807 0.51748 0.53015 0.0
H1609 H 0.52218 0.49439 0.43137 0.0
C1610 C 0.51446 0.50441 0.56088 0.0
C1611 C 0.52109 0.51375 0.48292 0.0
C1612 C 0.52594 0.52699 0.4485 0.0
C1613 C 0.51348 0.48786 0.54559 0.0
C1614 C 0.51631 0.48418 0.49833 0.0
C1615 C 0.51996 0.49721 0.4676 0.0
C1616 C 0.51528 0.46695 0.4798 0.0
C1617 C 0.50904 0.47445 0.57992 0.0
C1618 C 0.5266 0.45464 0.4938 0.0
C1619 C 0.52609 0.43871 0.47412 0.0
C1620 C 0.51416 0.43476 0.44025 0.0
C1621 C 0.50279 0.4471 0.42674 0.0
C1622 C 0.50335 0.46299 0.4462 0.0
H1623 H 0.50382 0.47965 0.61245 0.0
H1624 H 0.4999 0.46569 0.56475 0.0
H1625 H 0.52037 0.4673 0.58885 0.0
H1626 H 0.53616 0.4575 0.51892 0.0
H1627 H 0.53545 0.42978 0.48402 0.0
H1628 H 0.00413 0.56987 0.96941 0.0
H1629 H 0.00427 0.54223 0.00451 0.0
H1630 H 0.04722 0.52921 0.92318 0.0
H1631 H 0.04758 0.55714 0.88973 0.0
H1632 H 0.00033 0.51259 0.96343 0.0
H1633 H 0.06187 0.51346 0.04902 0.0
H1634 H 0.05217 0.532 0.0268 0.0
H1635 H 0.0629 0.51811 0.98828 0.0
C1636 C 0.01397 0.56137 0.96028 0.0
C1637 C 0.0262 0.56595 0.92791 0.0
C1638 C 0.0139 0.54543 0.97987 0.0
C1639 C 0.02598 0.53365 0.96737 0.0
C1640 C 0.03806 0.53815 0.93457 0.0
H1641 H 0.03997 0.42831 0.03591 0.0
H1642 H 0.04124 0.45587 0.99938 0.0
C1643 C 0.03818 0.55409 0.91517 0.0
C1644 C 0.02541 0.51646 0.98682 0.0
H1645 H 0.04825 0.4873 0.04502 0.0
C1646 C 0.0108 0.50713 0.98145 0.0
C1647 C 0.03907 0.5092 0.01026 0.0
C1648 C 0.05483 0.51875 0.01938 0.0
C1649 C 0.00953 0.49079 0.99837 0.0
C1650 C 0.02318 0.48355 0.02172 0.0
C1651 C 0.03783 0.4928 0.02684 0.0
C1652 C 0.0222 0.46668 0.04279 0.0
C1653 C 0.99364 0.4813 0.99062 0.0
C1654 C 0.01121 0.46361 0.07953 0.0
C1655 C 0.01045 0.44792 0.10021 0.0
C1656 C 0.02058 0.43486 0.0845 0.0
C1657 C 0.03166 0.43795 0.04784 0.0
C1658 C 0.03252 0.45374 0.02731 0.0
H1659 H 0.98602 0.4869 0.96259 0.0
H1660 H 0.99627 0.46817 0.98166 0.0
H1661 H 0.9862 0.48145 0.02299 0.0
H1662 H 0.00335 0.47343 0.09267 0.0
H1663 H 0.00192 0.44594 0.12867 0.0
H1664 H 0.07969 0.12614 0.21484 0.0
H1665 H 0.09963 0.13319 0.27652 0.0
H1666 H 0.06091 0.15891 0.35059 0.0
H1667 H 0.04121 0.15186 0.28963 0.0
H1668 H 0.10745 0.16583 0.29615 0.0
H1669 H 0.08494 0.13556 0.45586 0.0
H1670 H 0.07871 0.12876 0.39879 0.0
H1671 H 0.06846 0.14605 0.42611 0.0
C1672 C 0.07534 0.13255 0.24549 0.0
C1673 C 0.05886 0.13812 0.24815 0.0
C1674 C 0.08675 0.13676 0.28042 0.0
C1675 C 0.08175 0.14641 0.31863 0.0
C1676 C 0.06503 0.15109 0.32231 0.0
H1677 H 0.11643 0.22735 0.46613 0.0
H1678 H 0.1093 0.20683 0.40744 0.0
C1679 C 0.05374 0.14703 0.28745 0.0
C1680 C 0.0941 0.15368 0.35126 0.0
H1681 H 0.10053 0.16109 0.46644 0.0
C1682 C 0.10623 0.16445 0.33339 0.0
C1683 C 0.09269 0.15183 0.39989 0.0
C1684 C 0.0806 0.13978 0.42127 0.0
C1685 C 0.11606 0.1743 0.36276 0.0
C1686 C 0.1136 0.17354 0.4113 0.0
C1687 C 0.10238 0.16183 0.42926 0.0
C1688 C 0.12071 0.18617 0.44335 0.0
C1689 C 0.12862 0.18586 0.34134 0.0
C1690 C 0.12973 0.18154 0.48313 0.0
C1691 C 0.13394 0.19341 0.51683 0.0
C1692 C 0.129 0.21 0.51136 0.0
C1693 C 0.12069 0.2147 0.47064 0.0
C1694 C 0.11662 0.20295 0.43702 0.0
H1695 H 0.13328 0.18089 0.30789 0.0
H1696 H 0.12261 0.19798 0.33412 0.0
H1697 H 0.13932 0.18798 0.36483 0.0
H1698 H 0.13285 0.16864 0.48906 0.0
H1699 H 0.13994 0.18942 0.54854 0.0
H1700 H 0.11816 0.77264 0.54522 0.0
H1701 H 0.11138 0.79319 0.60412 0.0
H1702 H 0.13919 0.83014 0.5287 0.0
H1703 H 0.14567 0.80941 0.46855 0.0
H1704 H 0.12729 0.81433 0.6626 0.0
H1705 H 0.09236 0.84916 0.52738 0.0
H1706 H 0.10081 0.8288 0.51698 0.0
H1707 H 0.11424 0.84657 0.51774 0.0
C1708 C 0.12328 0.78501 0.54197 0.0
C1709 C 0.13244 0.78947 0.50251 0.0
C1710 C 0.11937 0.79678 0.57561 0.0
C1711 C 0.12445 0.81333 0.57043 0.0
C1712 C 0.13486 0.81752 0.53298 0.0
H1713 H 0.08204 0.87293 0.79974 0.0
H1714 H 0.10294 0.866 0.74048 0.0
C1715 C 0.1388 0.80564 0.49905 0.0
C1716 C 0.11724 0.82609 0.60187 0.0
H1717 H 0.08837 0.85719 0.60432 0.0
C1718 C 0.11908 0.82399 0.64992 0.0
C1719 C 0.1063 0.83852 0.58523 0.0
C1720 C 0.10314 0.84091 0.53408 0.0
C1721 C 0.10962 0.83324 0.68168 0.0
C1722 C 0.09833 0.84533 0.665 0.0
C1723 C 0.09719 0.84809 0.61705 0.0
C1724 C 0.08567 0.85301 0.69588 0.0
C1725 C 0.11085 0.82906 0.73259 0.0
C1726 C 0.0689 0.84908 0.68889 0.0
C1727 C 0.05703 0.85326 0.72208 0.0
C1728 C 0.06164 0.8616 0.76277 0.0
C1729 C 0.07815 0.86683 0.76813 0.0
C1730 C 0.09011 0.86261 0.7347 0.0
H1731 H 0.11821 0.81762 0.73888 0.0
H1732 H 0.11693 0.83943 0.75121 0.0
H1733 H 0.09829 0.82729 0.7477 0.0
H1734 H 0.06514 0.84169 0.65935 0.0
H1735 H 0.04443 0.84883 0.71765 0.0
H1736 H 0.39984 0.78066 0.9753 0.0
H1737 H 0.40843 0.79844 0.91009 0.0
H1738 H 0.43115 0.83253 0.006 0.0
H1739 H 0.42282 0.81483 0.07069 0.0
H1740 H 0.40665 0.83596 0.88791 0.0
H1741 H 0.4696 0.81091 0.92565 0.0
H1742 H 0.45083 0.80068 0.94419 0.0
H1743 H 0.45815 0.81867 0.97457 0.0
C1744 C 0.40596 0.79235 0.98243 0.0
C1745 C 0.41058 0.79647 0.02792 0.0
C1746 C 0.411 0.80241 0.94522 0.0
C1747 C 0.42063 0.81666 0.9533 0.0
C1748 C 0.42384 0.82153 0.99902 0.0
H1749 H 0.488 0.87351 0.77647 0.0
H1750 H 0.46972 0.86612 0.84177 0.0
C1751 C 0.41895 0.81148 0.03595 0.0
C1752 C 0.42918 0.82529 0.91464 0.0
H1753 H 0.46769 0.83156 0.86838 0.0
C1754 C 0.41999 0.83505 0.88359 0.0
C1755 C 0.44658 0.824 0.90903 0.0
C1756 C 0.45693 0.81292 0.93981 0.0
C1757 C 0.42783 0.8437 0.84724 0.0
C1758 C 0.44525 0.84248 0.84192 0.0
C1759 C 0.45439 0.83276 0.87312 0.0
C1760 C 0.45414 0.84966 0.80154 0.0
C1761 C 0.41746 0.85408 0.81481 0.0
C1762 C 0.4512 0.84316 0.75731 0.0
C1763 C 0.4616 0.84728 0.72043 0.0
C1764 C 0.47513 0.85805 0.72688 0.0
C1765 C 0.47748 0.86544 0.77041 0.0
C1766 C 0.46713 0.86113 0.80769 0.0
H1767 H 0.40526 0.85727 0.83031 0.0
H1768 H 0.42403 0.86571 0.80536 0.0
H1769 H 0.41517 0.84698 0.78251 0.0
H1770 H 0.44152 0.83404 0.7519 0.0
H1771 H 0.45962 0.84126 0.68731 0.0
H1772 H 0.45835 0.14798 0.31656 0.0
H1773 H 0.44128 0.15658 0.25077 0.0
H1774 H 0.48017 0.14163 0.15703 0.0
H1775 H 0.4972 0.1328 0.22318 0.0
H1776 H 0.45306 0.18214 0.19652 0.0
H1777 H 0.43801 0.12786 0.08629 0.0
H1778 H 0.44401 0.12585 0.14638 0.0
H1779 H 0.45948 0.12939 0.10262 0.0
C1780 C 0.46286 0.14566 0.28177 0.0
C1781 C 0.47893 0.13935 0.27489 0.0
C1782 C 0.45318 0.15077 0.24418 0.0
C1783 C 0.45938 0.14976 0.19881 0.0
C1784 C 0.47494 0.14225 0.19156 0.0
H1785 H 0.44158 0.19798 0.93888 0.0
H1786 H 0.44955 0.17976 1.00262 0.0
C1787 C 0.48464 0.13705 0.22936 0.0
C1788 C 0.45078 0.15884 0.16066 0.0
H1789 H 0.43399 0.15462 0.05246 0.0
C1790 C 0.44867 0.17607 0.1653 0.0
C1791 C 0.44518 0.15098 0.11975 0.0
C1792 C 0.44663 0.13248 0.11343 0.0
C1793 C 0.44162 0.18571 0.12974 0.0
C1794 C 0.43615 0.17789 0.08856 0.0
C1795 C 0.43804 0.16061 0.08414 0.0
C1796 C 0.42982 0.18768 0.04833 0.0
C1797 C 0.44081 0.2043 0.13579 0.0
C1798 C 0.41567 0.19786 0.05197 0.0
C1799 C 0.41109 0.20843 0.01534 0.0
C1800 C 0.42063 0.20902 0.97457 0.0
C1801 C 0.43417 0.1981 0.97018 0.0
C1802 C 0.43869 0.18756 0.00652 0.0
H1803 H 0.44874 0.20863 0.16488 0.0
H1804 H 0.44478 0.21075 0.10364 0.0
H1805 H 0.42783 0.20799 0.14336 0.0
H1806 H 0.40843 0.19796 0.08359 0.0
H1807 H 0.40058 0.21666 0.01977 0.0
H1808 H 0.90244 0.77581 0.52122 0.0
H1809 H 0.91131 0.79342 0.58658 0.0
H1810 H 0.95753 0.80331 0.51672 0.0
H1811 H 0.94891 0.78579 0.45222 0.0
H1812 H 0.94205 0.7873 0.6398 0.0
H1813 H 0.94097 0.8499 0.56046 0.0
H1814 H 0.92893 0.83275 0.53817 0.0
H1815 H 0.95069 0.8343 0.52518 0.0
C1816 C 0.91433 0.78203 0.51951 0.0
C1817 C 0.92496 0.77941 0.48155 0.0
C1818 C 0.91942 0.79202 0.5569 0.0
C1819 C 0.93504 0.79982 0.55636 0.0
C1820 C 0.94535 0.79764 0.51772 0.0
H1821 H 0.00717 0.85083 0.7185 0.0
H1822 H 0.98822 0.84009 0.65912 0.0
C1823 C 0.94042 0.78753 0.48092 0.0
C1824 C 0.94139 0.80918 0.59723 0.0
H1825 H 0.95744 0.84676 0.62887 0.0
C1826 C 0.94513 0.80039 0.63789 0.0
C1827 C 0.94549 0.82621 0.59454 0.0
C1828 C 0.94119 0.83642 0.55241 0.0
C1829 C 0.95369 0.80791 0.67491 0.0
C1830 C 0.95837 0.82485 0.6716 0.0
C1831 C 0.95398 0.83379 0.63155 0.0
C1832 C 0.96888 0.83313 0.70754 0.0
C1833 C 0.95837 0.79734 0.71607 0.0
C1834 C 0.96416 0.83345 0.7545 0.0
C1835 C 0.97508 0.83947 0.78843 0.0
C1836 C 0.99069 0.84576 0.77588 0.0
C1837 C 0.99505 0.84635 0.72885 0.0
C1838 C 0.98424 0.84012 0.69499 0.0
H1839 H 0.95748 0.78388 0.7082 0.0
H1840 H 0.97118 0.80011 0.72781 0.0
H1841 H 0.94975 0.79997 0.74511 0.0
H1842 H 0.95224 0.82857 0.76514 0.0
H1843 H 0.97157 0.83868 0.82461 0.0
H1844 H 0.90201 0.21874 0.49731 0.0
H1845 H 0.91216 0.20101 0.43375 0.0
H1846 H 0.96166 0.20357 0.48996 0.0
H1847 H 0.95175 0.22113 0.55254 0.0
H1848 H 0.96039 0.21295 0.39961 0.0
H1849 H 0.92847 0.15245 0.4228 0.0
H1850 H 0.91535 0.17052 0.42289 0.0
H1851 H 0.93011 0.16758 0.46874 0.0
C1852 C 0.91497 0.2152 0.49656 0.0
C1853 C 0.92607 0.22152 0.52982 0.0
C1854 C 0.92077 0.20502 0.46028 0.0
C1855 C 0.93771 0.20086 0.45701 0.0
C1856 C 0.94856 0.20657 0.4915 0.0
H1857 H 0.99541 0.13589 0.27552 0.0
H1858 H 0.97817 0.14702 0.3388 0.0
C1859 C 0.94284 0.2167 0.52732 0.0
C1860 C 0.94476 0.19213 0.41574 0.0
H1861 H 0.94517 0.15549 0.35559 0.0
C1862 C 0.95701 0.20039 0.39 0.0
C1863 C 0.94053 0.17566 0.4034 0.0
C1864 C 0.928 0.16591 0.43099 0.0
C1865 C 0.96524 0.19272 0.35285 0.0
C1866 C 0.96078 0.1764 0.33953 0.0
C1867 C 0.9485 0.16804 0.36527 0.0
C1868 C 0.96901 0.16798 0.2994 0.0
C1869 C 0.97911 0.20211 0.32945 0.0
C1870 C 0.96904 0.17554 0.25551 0.0
C1871 C 0.97905 0.16938 0.21985 0.0
C1872 C 0.98889 0.15518 0.22658 0.0
C1873 C 0.98783 0.14676 0.26918 0.0
C1874 C 0.97802 0.15316 0.30539 0.0
H1875 H 0.98412 0.21191 0.35249 0.0
H1876 H 0.98943 0.19373 0.31941 0.0
H1877 H 0.97428 0.20824 0.29776 0.0
H1878 H 0.96188 0.18671 0.24943 0.0
H1879 H 0.97955 0.1761 0.18732 0.0
H1880 H 0.61285 0.20022 0.97262 0.0
H1881 H 0.60472 0.18272 0.03734 0.0
H1882 H 0.64141 0.20648 0.12364 0.0
H1883 H 0.64899 0.2248 0.05862 0.0
H1884 H 0.61591 0.16115 0.09806 0.0
H1885 H 0.60047 0.21972 0.19129 0.0
H1886 H 0.60654 0.21967 0.13121 0.0
H1887 H 0.62179 0.21678 0.17607 0.0
C1888 C 0.61965 0.20128 0.00491 0.0
C1889 C 0.63156 0.21384 0.01062 0.0
C1890 C 0.61492 0.19131 0.04211 0.0
C1891 C 0.62201 0.19359 0.08605 0.0
C1892 C 0.63533 0.20484 0.09053 0.0
H1893 H 0.56965 0.13524 0.30567 0.0
H1894 H 0.59236 0.14418 0.25422 0.0
C1895 C 0.63995 0.21506 0.05311 0.0
C1896 C 0.61381 0.18568 0.12696 0.0
H1897 H 0.59046 0.19507 0.22234 0.0
C1898 C 0.61057 0.16852 0.12573 0.0
C1899 C 0.60666 0.1953 0.16295 0.0
C1900 C 0.60888 0.21388 0.16554 0.0
C1901 C 0.59966 0.16094 0.15752 0.0
C1902 C 0.59212 0.17067 0.19249 0.0
C1903 C 0.5962 0.1876 0.1955 0.0
C1904 C 0.57849 0.16428 0.22272 0.0
C1905 C 0.59549 0.14283 0.15142 0.0
C1906 C 0.56317 0.17255 0.22247 0.0
C1907 C 0.55041 0.16764 0.25205 0.0
C1908 C 0.55247 0.15419 0.28265 0.0
C1909 C 0.56761 0.1455 0.28211 0.0
C1910 C 0.58058 0.15061 0.25265 0.0
H1911 H 0.59961 0.13802 0.11722 0.0
H1912 H 0.60182 0.1355 0.17876 0.0
H1913 H 0.58192 0.14075 0.15476 0.0
H1914 H 0.56112 0.18305 0.19967 0.0
H1915 H 0.53894 0.17465 0.25139 0.0
H1916 H 0.54822 0.86652 0.76563 0.0
H1917 H 0.5654 0.85658 0.83046 0.0
H1918 H 0.56845 0.80836 0.76635 0.0
H1919 H 0.55116 0.81804 0.7027 0.0
H1920 H 0.55876 0.80557 0.85261 0.0
H1921 H 0.61413 0.84634 0.84926 0.0
H1922 H 0.59477 0.85735 0.85192 0.0
H1923 H 0.59967 0.84518 0.80155 0.0
C1924 C 0.55282 0.8539 0.76507 0.0
C1925 C 0.54817 0.84305 0.72915 0.0
C1926 C 0.56273 0.84824 0.80205 0.0
C1927 C 0.5684 0.8317 0.80337 0.0
C1928 C 0.56427 0.82114 0.76644 0.0
H1929 H 0.63435 0.77814 0.99383 0.0
H1930 H 0.62367 0.79508 0.92924 0.0
C1931 C 0.5543 0.8267 0.72999 0.0
C1932 C 0.57716 0.8247 0.84476 0.0
H1933 H 0.61131 0.8285 0.91488 0.0
C1934 C 0.57028 0.81062 0.86598 0.0
C1935 C 0.5923 0.83111 0.86228 0.0
C1936 C 0.60077 0.84573 0.83987 0.0
C1937 C 0.57797 0.80279 0.90377 0.0
C1938 C 0.5928 0.80945 0.92233 0.0
C1939 C 0.59986 0.82347 0.90106 0.0
C1940 C 0.60083 0.80181 0.96389 0.0
C1941 C 0.57026 0.78716 0.92273 0.0
C1942 C 0.59194 0.80056 0.00558 0.0
C1943 C 0.59789 0.7908 0.04203 0.0
C1944 C 0.61307 0.78229 0.03819 0.0
C1945 C 0.62267 0.78462 0.99795 0.0
C1946 C 0.61655 0.79427 0.96099 0.0
H1947 H 0.56211 0.78125 0.89658 0.0
H1948 H 0.57986 0.77804 0.93343 0.0
H1949 H 0.56256 0.79026 0.95341 0.0
H1950 H 0.57994 0.80649 0.00909 0.0
H1951 H 0.59026 0.7894 0.07269 0.0
H1952 H 0.5869 0.63384 0.70271 0.0
H1953 H 0.60688 0.64124 0.76339 0.0
H1954 H 0.56644 0.65004 0.85819 0.0
H1955 H 0.54663 0.64234 0.79789 0.0
H1956 H 0.60731 0.67209 0.79488 0.0
H1957 H 0.6001 0.63071 0.94583 0.0
H1958 H 0.59259 0.62517 0.8889 0.0
H1959 H 0.5803 0.63811 0.9265 0.0
C1960 C 0.5824 0.63636 0.73739 0.0
C1961 C 0.56529 0.63702 0.74622 0.0
C1962 C 0.5938 0.64079 0.7719 0.0
C1963 C 0.58824 0.64606 0.81569 0.0
C1964 C 0.57114 0.64558 0.82533 0.0
H1965 H 0.60836 0.7265 0.98241 0.0
H1966 H 0.60302 0.70649 0.92118 0.0
C1967 C 0.55978 0.64109 0.79089 0.0
C1968 C 0.59969 0.65484 0.84795 0.0
H1969 H 0.6094 0.65891 0.96267 0.0
C1970 C 0.60812 0.66891 0.83135 0.0
C1971 C 0.60095 0.65072 0.89553 0.0
C1972 C 0.59313 0.63524 0.91509 0.0
C1973 C 0.61666 0.67958 0.86145 0.0
C1974 C 0.61664 0.67626 0.90957 0.0
C1975 C 0.60933 0.66154 0.9258 0.0
C1976 C 0.62176 0.68904 0.94379 0.0
C1977 C 0.62504 0.69474 0.84166 0.0
C1978 C 0.63421 0.68599 0.97695 0.0
C1979 C 0.63741 0.69761 0.0122 0.0
C1980 C 0.62793 0.71221 0.01504 0.0
C1981 C 0.61594 0.71541 0.98084 0.0
C1982 C 0.6129 0.70398 0.94569 0.0
H1983 H 0.62885 0.69268 0.8051 0.0
H1984 H 0.61619 0.70529 0.84214 0.0
H1985 H 0.63613 0.69824 0.86226 0.0
H1986 H 0.64109 0.67445 0.97633 0.0
H1987 H 0.64648 0.69473 0.03869 0.0
H1988 H 0.58114 0.35016 0.33001 0.0
H1989 H 0.59994 0.34265 0.26734 0.0
H1990 H 0.56799 0.36743 0.16933 0.0
H1991 H 0.54895 0.37485 0.23264 0.0
H1992 H 0.57258 0.33484 0.14918 0.0
H1993 H 0.63399 0.36296 0.18186 0.0
H1994 H 0.62592 0.35294 0.23257 0.0
H1995 H 0.61525 0.37063 0.20873 0.0
C1996 C 0.5786 0.35479 0.29544 0.0
C1997 C 0.5638 0.3634 0.28623 0.0
C1998 C 0.58935 0.35045 0.25953 0.0
C1999 C 0.58554 0.35462 0.21354 0.0
C2000 C 0.57131 0.36425 0.20462 0.0
H2001 H 0.63099 0.30995 0.96599 0.0
H2002 H 0.6218 0.33132 0.02111 0.0
C2003 C 0.56053 0.36869 0.24081 0.0
C2004 C 0.59478 0.34647 0.17512 0.0
H2005 H 0.63391 0.33778 0.13576 0.0
C2006 C 0.58594 0.33581 0.14558 0.0
C2007 C 0.61226 0.34756 0.17059 0.0
C2008 C 0.62238 0.35928 0.19988 0.0
C2009 C 0.59414 0.32574 0.11319 0.0
C2010 C 0.61164 0.32627 0.11024 0.0
C2011 C 0.62049 0.33735 0.13836 0.0
C2012 C 0.62074 0.31462 0.0797 0.0
C2013 C 0.58412 0.3142 0.08302 0.0
C2014 C 0.6238 0.29838 0.09494 0.0
C2015 C 0.6291 0.28624 0.06366 0.0
C2016 C 0.63165 0.29022 0.01682 0.0
C2017 C 0.62974 0.30675 1.00231 0.0
C2018 C 0.62431 0.31889 0.0336 0.0
H2019 H 0.57055 0.31579 0.08803 0.0
H2020 H 0.58713 0.31648 0.04602 0.0
H2021 H 0.58742 0.30113 0.09103 0.0
H2022 H 0.62095 0.29482 0.13028 0.0
H2023 H 0.62994 0.27347 0.07523 0.0
H2024 H 0.96208 0.37318 0.22225 0.0
H2025 H 0.94245 0.36658 0.2854 0.0
H2026 H 0.97749 0.33133 0.34106 0.0
H2027 H 0.99693 0.33814 0.27969 0.0
H2028 H 0.92842 0.33602 0.30037 0.0
H2029 H 0.96294 0.35394 0.45756 0.0
H2030 H 0.96899 0.36101 0.40063 0.0
H2031 H 0.97544 0.3409 0.42143 0.0
C2032 C 0.96575 0.36454 0.24913 0.0
C2033 C 0.98107 0.35628 0.24639 0.0
C2034 C 0.9545 0.36063 0.28485 0.0
C2035 C 0.95855 0.34859 0.31847 0.0
C2036 C 0.97416 0.34094 0.31649 0.0
H2037 H 0.90986 0.27287 0.46586 0.0
H2038 H 0.91899 0.29207 0.4054 0.0
C2039 C 0.98527 0.34479 0.28111 0.0
C2040 C 0.94618 0.34259 0.35306 0.0
H2041 H 0.9426 0.33197 0.46723 0.0
C2042 C 0.93132 0.3355 0.33705 0.0
C2043 C 0.94985 0.34193 0.40104 0.0
C2044 C 0.96511 0.35002 0.42115 0.0
C2045 C 0.92058 0.32692 0.3672 0.0
C2046 C 0.92489 0.32523 0.41452 0.0
C2047 C 0.93925 0.33316 0.43096 0.0
C2048 C 0.91565 0.31418 0.44697 0.0
C2049 C 0.90489 0.31946 0.34786 0.0
C2050 C 0.91029 0.32015 0.49024 0.0
C2051 C 0.90497 0.30912 0.52475 0.0
C2052 C 0.90485 0.29196 0.51653 0.0
C2053 C 0.90915 0.28609 0.47235 0.0
C2054 C 0.91449 0.29709 0.43786 0.0
H2055 H 0.90058 0.32636 0.31675 0.0
H2056 H 0.90738 0.30647 0.33721 0.0
H2057 H 0.89479 0.31938 0.37404 0.0
H2058 H 0.91124 0.33323 0.49834 0.0
H2059 H 0.90236 0.31388 0.5591 0.0
H2060 H 0.95948 0.65162 0.82213 0.0
H2061 H 0.94078 0.65992 0.75963 0.0
H2062 H 0.97491 0.6398 0.6592 0.0
H2063 H 0.9937 0.63136 0.72223 0.0
H2064 H 0.9532 0.68303 0.6945 0.0
H2065 H 0.92827 0.62677 0.6079 0.0
H2066 H 0.93614 0.62648 0.66657 0.0
H2067 H 0.95027 0.62688 0.61848 0.0
C2068 C 0.9626 0.64825 0.78682 0.0
C2069 C 0.97784 0.64056 0.77692 0.0
C2070 C 0.95198 0.65313 0.75114 0.0
C2071 C 0.9564 0.65045 0.70476 0.0
C2072 C 0.97111 0.64172 0.6948 0.0
H2073 H 0.93242 0.69177 0.44276 0.0
H2074 H 0.94015 0.67413 0.50784 0.0
C2075 C 0.98178 0.63678 0.73075 0.0
C2076 C 0.94691 0.65895 0.66751 0.0
H2077 H 0.92411 0.65256 0.56935 0.0
C2078 C 0.94663 0.67637 0.66748 0.0
C2079 C 0.9385 0.65024 0.63214 0.0
C2080 C 0.93814 0.63155 0.6312 0.0
C2081 C 0.93858 0.68534 0.63232 0.0
C2082 C 0.9302 0.67665 0.5967 0.0
C2083 C 0.9303 0.6592 0.59706 0.0
C2084 C 0.92306 0.68549 0.55609 0.0
C2085 C 0.93981 0.70403 0.63237 0.0
C2086 C 0.91026 0.69728 0.56089 0.0
C2087 C 0.90572 0.70743 0.52333 0.0
C2088 C 0.91399 0.70588 0.48073 0.0
C2089 C 0.92585 0.69323 0.47529 0.0
C2090 C 0.9303 0.68312 0.51247 0.0
H2091 H 0.9491 0.70861 0.65777 0.0
H2092 H 0.94324 0.70868 0.5974 0.0
H2093 H 0.92759 0.70942 0.64168 0.0
H2094 H 0.90434 0.69913 0.59417 0.0
H2095 H 0.89666 0.71718 0.52852 0.0
H2096 H 0.46911 0.36066 0.30199 0.0
H2097 H 0.4499 0.35194 0.2399 0.0
H2098 H 0.49105 0.33124 0.16384 0.0
H2099 H 0.51002 0.34009 0.22477 0.0
H2100 H 0.46827 0.3485 0.10742 0.0
H2101 H 0.43655 0.30274 0.22207 0.0
H2102 H 0.43711 0.32407 0.24036 0.0
H2103 H 0.45597 0.31228 0.23819 0.0
C2104 C 0.47402 0.35461 0.2714 0.0
C2105 C 0.49104 0.35096 0.26824 0.0
C2106 C 0.46303 0.34944 0.23626 0.0
C2107 C 0.46897 0.34063 0.19748 0.0
C2108 C 0.4861 0.33789 0.19341 0.0
H2109 H 0.45352 0.2787 0.97095 0.0
H2110 H 0.46149 0.29761 0.03255 0.0
C2111 C 0.49696 0.34292 0.22837 0.0
C2112 C 0.45769 0.33349 0.16158 0.0
H2113 H 0.43099 0.30116 0.14238 0.0
C2114 C 0.45986 0.33837 0.11524 0.0
C2115 C 0.44662 0.32029 0.17161 0.0
C2116 C 0.44389 0.31439 0.22064 0.0
C2117 C 0.45201 0.32992 0.07868 0.0
C2118 C 0.4419 0.31599 0.08843 0.0
C2119 C 0.4388 0.31178 0.13488 0.0
C2120 C 0.43641 0.3045 0.05088 0.0
C2121 C 0.45506 0.33564 0.02964 0.0
C2122 C 0.41954 0.30167 0.04111 0.0
C2123 C 0.41484 0.2907 0.00542 0.0
C2124 C 0.42695 0.28226 0.97921 0.0
C2125 C 0.44378 0.28504 0.98981 0.0
C2126 C 0.44842 0.29594 0.0251 0.0
H2127 H 0.45871 0.34893 0.02847 0.0
H2128 H 0.46532 0.32826 0.01443 0.0
H2129 H 0.44384 0.33387 0.00783 0.0
H2130 H 0.41004 0.30804 0.06079 0.0
H2131 H 0.40177 0.28882 0.99844 0.0
H2132 H 0.4014 0.71688 1.00234 0.0
H2133 H 0.41019 0.69786 0.93989 0.0
H2134 H 0.46142 0.70797 0.97214 0.0
H2135 H 0.45294 0.72671 0.03343 0.0
H2136 H 0.43137 0.70632 0.86117 0.0
H2137 H 0.45903 0.65657 0.96831 0.0
H2138 H 0.4442 0.67129 0.99103 0.0
H2139 H 0.46572 0.6769 0.98553 0.0
C2140 C 0.41451 0.71488 0.99633 0.0
C2141 C 0.42641 0.72332 0.02309 0.0
C2142 C 0.41952 0.70404 0.96066 0.0
C2143 C 0.43648 0.70126 0.95187 0.0
C2144 C 0.44828 0.70961 0.9788 0.0
H2145 H 0.50062 0.68434 0.73191 0.0
H2146 H 0.4808 0.69326 0.78967 0.0
C2147 C 0.44335 0.72045 0.0138 0.0
C2148 C 0.44228 0.69054 0.91308 0.0
H2149 H 0.46929 0.65888 0.88986 0.0
C2150 C 0.43933 0.69568 0.86737 0.0
C2151 C 0.45253 0.67653 0.92096 0.0
C2152 C 0.45544 0.66988 0.96912 0.0
C2153 C 0.44731 0.68799 0.8297 0.0
C2154 C 0.45874 0.67494 0.83796 0.0
C2155 C 0.46068 0.66896 0.88336 0.0
C2156 C 0.4703 0.66893 0.80121 0.0
C2157 C 0.44379 0.69428 0.78145 0.0
C2158 C 0.4715 0.65204 0.78908 0.0
C2159 C 0.48311 0.64672 0.7557 0.0
C2160 C 0.49383 0.65821 0.73437 0.0
C2161 C 0.49256 0.67505 0.74707 0.0
C2162 C 0.48106 0.68028 0.78004 0.0
H2163 H 0.43109 0.69957 0.77902 0.0
H2164 H 0.4527 0.70431 0.77287 0.0
H2165 H 0.44509 0.68427 0.75527 0.0
H2166 H 0.46347 0.643 0.80543 0.0
H2167 H 0.48381 0.63368 0.74699 0.0
H2168 H 0.09533 0.71035 0.45252 0.0
H2169 H 0.08648 0.69323 0.51782 0.0
H2170 H 0.13129 0.70569 0.59133 0.0
H2171 H 0.14043 0.72286 0.5253 0.0
H2172 H 0.10998 0.66623 0.58719 0.0
H2173 H 0.08167 0.72498 0.65129 0.0
H2174 H 0.08475 0.72174 0.59001 0.0
H2175 H 0.10227 0.7247 0.62706 0.0
C2176 C 0.10358 0.70907 0.48198 0.0
C2177 C 0.11859 0.71798 0.48379 0.0
C2178 C 0.0985 0.69923 0.51922 0.0
C2179 C 0.10822 0.69816 0.55933 0.0
C2180 C 0.12369 0.70623 0.56041 0.0
H2181 H 0.0608 0.67787 0.825 0.0
H2182 H 0.08011 0.68723 0.76525 0.0
C2183 C 0.12891 0.71599 0.52268 0.0
C2184 C 0.10087 0.69074 0.60179 0.0
H2185 H 0.07466 0.70041 0.69044 0.0
C2186 C 0.10238 0.67367 0.61024 0.0
C2187 C 0.09114 0.7005 0.63192 0.0
C2188 C 0.08974 0.71901 0.62504 0.0
C2189 C 0.09419 0.66605 0.64791 0.0
C2190 C 0.08358 0.67566 0.6767 0.0
C2191 C 0.08252 0.69286 0.6685 0.0
C2192 C 0.07331 0.66838 0.71517 0.0
C2193 C 0.09736 0.64788 0.65678 0.0
C2194 C 0.06315 0.65436 0.70808 0.0
C2195 C 0.05251 0.6486 0.74321 0.0
C2196 C 0.05134 0.65711 0.78554 0.0
C2197 C 0.06152 0.67101 0.79279 0.0
C2198 C 0.07251 0.67642 0.75839 0.0
H2199 H 0.10983 0.64415 0.64409 0.0
H2200 H 0.09651 0.64483 0.69422 0.0
H2201 H 0.08807 0.6404 0.63761 0.0
H2202 H 0.06291 0.6482 0.67479 0.0
H2203 H 0.04452 0.63808 0.73632 0.0
H2204 H 0.0579 0.32151 0.19626 0.0
H2205 H 0.07601 0.31327 0.25994 0.0
H2206 H 0.0684 0.36074 0.32518 0.0
H2207 H 0.04991 0.36909 0.26123 0.0
H2208 H 0.10611 0.32972 0.30255 0.0
H2209 H 0.0518 0.32536 0.42147 0.0
H2210 H 0.04906 0.32328 0.35946 0.0
H2211 H 0.05414 0.34303 0.38418 0.0
C2212 C 0.0602 0.33034 0.22381 0.0
C2213 C 0.05229 0.34593 0.22381 0.0
C2214 C 0.07064 0.32559 0.26017 0.0
C2215 C 0.07343 0.33627 0.29767 0.0
C2216 C 0.0663 0.35222 0.29678 0.0
H2217 H 0.1085 0.30034 0.56704 0.0
H2218 H 0.09922 0.31896 0.50512 0.0
C2219 C 0.05583 0.35704 0.26007 0.0
C2220 C 0.08278 0.32998 0.33873 0.0
H2221 H 0.07675 0.31384 0.44687 0.0
C2222 C 0.09979 0.32647 0.33447 0.0
C2223 C 0.07459 0.32587 0.3805 0.0
C2224 C 0.05638 0.32949 0.38707 0.0
C2225 C 0.10874 0.31877 0.37058 0.0
C2226 C 0.10031 0.31366 0.41137 0.0
C2227 C 0.08336 0.31764 0.4159 0.0
C2228 C 0.10845 0.30366 0.44903 0.0
C2229 C 0.12718 0.31643 0.3646 0.0
C2230 C 0.11722 0.28897 0.43883 0.0
C2231 C 0.12304 0.2786 0.47448 0.0
C2232 C 0.11991 0.28251 0.52106 0.0
C2233 C 0.11147 0.29728 0.53142 0.0
C2234 C 0.10599 0.30783 0.49592 0.0
H2235 H 0.1325 0.32621 0.34187 0.0
H2236 H 0.13378 0.31673 0.39836 0.0
H2237 H 0.12955 0.3043 0.3477 0.0
H2238 H 0.11883 0.285 0.4033 0.0
H2239 H 0.12896 0.26696 0.46554 0.0
loop_
_geom_bond_atom_site_label_1
_geom_bond_atom_site_label_2
_geom_bond_distance
_geom_bond_site_symmetry_2
_ccdc_geom_bond_type
Zn0 O1 2.055 . S
Zn0 O8 2.046 . S
Zn0 N16 2.036 . S
Zn0 O28 2.053 . S
Zn0 O30 2.066 . S
O1 Zn0 2.055 . S
O1 C4 1.259 1_455 S
C2 O30 1.256 . S
C2 O31 1.244 . S
Zn3 O5 2.046 . S
Zn3 O7 2.055 . S
Zn3 N9 2.036 . S
Zn3 O27 2.066 . S
Zn3 O31 2.053 . S
C4 O1 1.259 1_655 S
C4 O5 1.254 1_655 S
O5 Zn3 2.046 . S
O5 C4 1.254 1_455 S
C6 O27 1.256 . S
C6 O28 1.244 . S
O7 Zn3 2.055 . S
O7 C29 1.259 1_455 S
O8 Zn0 2.046 . S
O8 C29 1.254 1_455 S
N9 Zn3 2.036 . S
N9 C10 1.298 . S
N9 N12 1.398 . S
C10 N9 1.298 . S
C10 N13 1.367 . S
C10 C23 1.481 . S
C11 N12 1.299 . S
C11 N13 1.379 . S
N12 N9 1.398 . S
N12 C11 1.299 . S
N13 C10 1.367 . S
N13 C11 1.379 . S
C14 N16 1.298 . S
C14 N18 1.367 . S
C14 C22 1.481 . S
C15 N17 1.299 . S
C15 N18 1.379 . S
N16 Zn0 2.036 . S
N16 C14 1.298 . S
N16 N17 1.398 . S
N17 C15 1.299 . S
N17 N16 1.398 . S
N18 C14 1.367 . S
N18 C15 1.379 . S
H19 C22 0.980 . S
H20 C22 0.981 . S
H21 C22 0.981 . S
C22 C14 1.481 . S
C22 H19 0.980 . S
C22 H20 0.981 . S
C22 H21 0.981 . S
C23 C10 1.481 . S
C23 H24 0.980 . S
C23 H25 0.981 . S
C23 H26 0.981 . S
H24 C23 0.980 . S
H25 C23 0.981 . S
H26 C23 0.981 . S
O27 Zn3 2.066 . S
O27 C6 1.256 . S
O28 Zn0 2.053 . S
O28 C6 1.244 . S
C29 O7 1.259 1_655 S
C29 O8 1.254 1_655 S
O30 Zn0 2.066 . S
O30 C2 1.256 . S
O31 C2 1.244 . S
O31 Zn3 2.053 . S
Zn32 O33 2.055 . S
Zn32 O40 2.046 . S
Zn32 N48 2.036 . S
Zn32 O60 2.053 . S
Zn32 O62 2.066 . S
O33 Zn32 2.055 . S
O33 C36 1.259 . S
C34 O62 1.256 . S
C34 O63 1.244 . S
Zn35 O37 2.046 . S
Zn35 O39 2.055 . S
Zn35 N41 2.036 . S
Zn35 O59 2.066 . S
Zn35 O63 2.053 . S
C36 O33 1.259 . S
C36 O37 1.254 . S
O37 Zn35 2.046 . S
O37 C36 1.254 . S
C38 O59 1.256 . S
C38 O60 1.244 . S
O39 Zn35 2.055 . S
O39 C61 1.259 . S
O40 Zn32 2.046 . S
O40 C61 1.254 . S
N41 Zn35 2.036 . S
N41 C42 1.298 . S
N41 N44 1.398 . S
C42 N41 1.298 . S
C42 N45 1.367 . S
C42 C55 1.481 . S
C43 N44 1.299 . S
C43 N45 1.379 . S
N44 N41 1.398 . S
N44 C43 1.299 . S
N45 C42 1.367 . S
N45 C43 1.379 . S
C46 N48 1.298 . S
C46 N50 1.367 . S
C46 C54 1.481 . S
C47 N49 1.299 . S
C47 N50 1.379 . S
N48 Zn32 2.036 . S
N48 C46 1.298 . S
N48 N49 1.398 . S
N49 C47 1.299 . S
N49 N48 1.398 . S
N50 C46 1.367 . S
N50 C47 1.379 . S
H51 C54 0.980 . S
H52 C54 0.981 . S
H53 C54 0.981 . S
C54 C46 1.481 . S
C54 H51 0.980 . S
C54 H52 0.981 . S
C54 H53 0.981 . S
C55 C42 1.481 . S
C55 H56 0.980 . S
C55 H57 0.981 . S
C55 H58 0.981 . S
H56 C55 0.980 . S
H57 C55 0.981 . S
H58 C55 0.981 . S
O59 Zn35 2.066 . S
O59 C38 1.256 . S
O60 Zn32 2.053 . S
O60 C38 1.244 . S
C61 O39 1.259 . S
C61 O40 1.254 . S
O62 Zn32 2.066 . S
O62 C34 1.256 . S
O63 C34 1.244 . S
O63 Zn35 2.053 . S
Zn64 O65 2.055 . S
Zn64 O72 2.046 . S
Zn64 N80 2.036 . S
Zn64 O92 2.053 . S
Zn64 O94 2.066 . S
O65 Zn64 2.055 . S
O65 C68 1.259 . S
C66 O94 1.256 . S
C66 O95 1.244 . S
Zn67 O69 2.046 . S
Zn67 O71 2.055 . S
Zn67 N73 2.036 . S
Zn67 O91 2.066 . S
Zn67 O95 2.053 . S
C68 O65 1.259 . S
C68 O69 1.254 . S
O69 Zn67 2.046 . S
O69 C68 1.254 . S
C70 O91 1.256 . S
C70 O92 1.244 . S
O71 Zn67 2.055 . S
O71 C93 1.259 . S
O72 Zn64 2.046 . S
O72 C93 1.254 . S
N73 Zn67 2.036 . S
N73 C74 1.298 . S
N73 N76 1.398 . S
C74 N73 1.298 . S
C74 N77 1.367 . S
C74 C87 1.481 . S
C75 N76 1.299 . S
C75 N77 1.379 . S
N76 N73 1.398 . S
N76 C75 1.299 . S
N77 C74 1.367 . S
N77 C75 1.379 . S
C78 N80 1.298 . S
C78 N82 1.367 . S
C78 C86 1.481 . S
C79 N81 1.299 . S
C79 N82 1.379 . S
N80 Zn64 2.036 . S
N80 C78 1.298 . S
N80 N81 1.398 . S
N81 C79 1.299 . S
N81 N80 1.398 . S
N82 C78 1.367 . S
N82 C79 1.379 . S
H83 C86 0.980 . S
H84 C86 0.981 . S
H85 C86 0.981 . S
C86 C78 1.481 . S
C86 H83 0.980 . S
C86 H84 0.981 . S
C86 H85 0.981 . S
C87 C74 1.481 . S
C87 H88 0.980 . S
C87 H89 0.981 . S
C87 H90 0.981 . S
H88 C87 0.980 . S
H89 C87 0.981 . S
H90 C87 0.981 . S
O91 Zn67 2.066 . S
O91 C70 1.256 . S
O92 Zn64 2.053 . S
O92 C70 1.244 . S
C93 O71 1.259 . S
C93 O72 1.254 . S
O94 Zn64 2.066 . S
O94 C66 1.256 . S
O95 C66 1.244 . S
O95 Zn67 2.053 . S
Zn96 O97 2.055 . S
Zn96 O104 2.046 . S
Zn96 N112 2.036 . S
Zn96 O124 2.053 . S
Zn96 O126 2.066 . S
O97 Zn96 2.055 . S
O97 C100 1.259 . S
C98 O126 1.256 . S
C98 O127 1.244 . S
Zn99 O101 2.046 . S
Zn99 O103 2.055 . S
Zn99 N105 2.036 . S
Zn99 O123 2.066 . S
Zn99 O127 2.053 . S
C100 O97 1.259 . S
C100 O101 1.254 . S
O101 Zn99 2.046 . S
O101 C100 1.254 . S
C102 O123 1.256 . S
C102 O124 1.244 . S
O103 Zn99 2.055 . S
O103 C125 1.259 . S
O104 Zn96 2.046 . S
O104 C125 1.254 . S
N105 Zn99 2.036 . S
N105 C106 1.298 . S
N105 N108 1.398 . S
C106 N105 1.298 . S
C106 N109 1.367 . S
C106 C119 1.481 . S
C107 N108 1.299 . S
C107 N109 1.379 . S
N108 N105 1.398 . S
N108 C107 1.299 . S
N109 C106 1.367 . S
N109 C107 1.379 . S
C110 N112 1.298 . S
C110 N114 1.367 . S
C110 C118 1.481 . S
C111 N113 1.299 . S
C111 N114 1.379 . S
N112 Zn96 2.036 . S
N112 C110 1.298 . S
N112 N113 1.398 . S
N113 C111 1.299 . S
N113 N112 1.398 . S
N114 C110 1.367 . S
N114 C111 1.379 . S
H115 C118 0.980 . S
H116 C118 0.981 . S
H117 C118 0.981 . S
C118 C110 1.481 . S
C118 H115 0.980 . S
C118 H116 0.981 . S
C118 H117 0.981 . S
C119 C106 1.481 . S
C119 H120 0.980 . S
C119 H121 0.981 . S
C119 H122 0.981 . S
H120 C119 0.980 . S
H121 C119 0.981 . S
H122 C119 0.981 . S
O123 Zn99 2.066 . S
O123 C102 1.256 . S
O124 Zn96 2.053 . S
O124 C102 1.244 . S
C125 O103 1.259 . S
C125 O104 1.254 . S
O126 Zn96 2.066 . S
O126 C98 1.256 . S
O127 C98 1.244 . S
O127 Zn99 2.053 . S
Zn128 O129 2.055 . S
Zn128 O136 2.046 . S
Zn128 N144 2.036 . S
Zn128 O156 2.053 . S
Zn128 O158 2.066 . S
O129 Zn128 2.055 . S
O129 C132 1.259 1_455 S
C130 O158 1.256 . S
C130 O159 1.244 . S
Zn131 O133 2.046 . S
Zn131 O135 2.055 . S
Zn131 N137 2.036 . S
Zn131 O155 2.066 . S
Zn131 O159 2.053 . S
C132 O129 1.259 1_655 S
C132 O133 1.254 1_655 S
O133 Zn131 2.046 . S
O133 C132 1.254 1_455 S
C134 O155 1.256 . S
C134 O156 1.244 . S
O135 Zn131 2.055 . S
O135 C157 1.259 1_455 S
O136 Zn128 2.046 . S
O136 C157 1.254 1_455 S
N137 Zn131 2.036 . S
N137 C138 1.298 . S
N137 N140 1.398 . S
C138 N137 1.298 . S
C138 N141 1.367 . S
C138 C151 1.481 . S
C139 N140 1.299 . S
C139 N141 1.379 . S
N140 N137 1.398 . S
N140 C139 1.299 . S
N141 C138 1.367 . S
N141 C139 1.379 . S
C142 N144 1.298 . S
C142 N146 1.367 . S
C142 C150 1.481 . S
C143 N145 1.299 . S
C143 N146 1.379 . S
N144 Zn128 2.036 . S
N144 C142 1.298 . S
N144 N145 1.398 . S
N145 C143 1.299 . S
N145 N144 1.398 . S
N146 C142 1.367 . S
N146 C143 1.379 . S
H147 C150 0.980 . S
H148 C150 0.981 . S
H149 C150 0.981 . S
C150 C142 1.481 . S
C150 H147 0.980 . S
C150 H148 0.981 . S
C150 H149 0.981 . S
C151 C138 1.481 . S
C151 H152 0.980 . S
C151 H153 0.981 . S
C151 H154 0.981 . S
H152 C151 0.980 . S
H153 C151 0.981 . S
H154 C151 0.981 . S
O155 Zn131 2.066 . S
O155 C134 1.256 . S
O156 Zn128 2.053 . S
O156 C134 1.244 . S
C157 O135 1.259 1_655 S
C157 O136 1.254 1_655 S
O158 Zn128 2.066 . S
O158 C130 1.256 . S
O159 C130 1.244 . S
O159 Zn131 2.053 . S
Zn160 O161 2.055 . S
Zn160 O168 2.046 . S
Zn160 N176 2.036 . S
Zn160 O188 2.053 . S
Zn160 O190 2.066 . S
O161 Zn160 2.055 . S
O161 C164 1.259 . S
C162 O190 1.256 . S
C162 O191 1.244 . S
Zn163 O165 2.046 . S
Zn163 O167 2.055 . S
Zn163 N169 2.036 . S
Zn163 O187 2.066 . S
Zn163 O191 2.053 . S
C164 O161 1.259 . S
C164 O165 1.254 . S
O165 Zn163 2.046 . S
O165 C164 1.254 . S
C166 O187 1.256 . S
C166 O188 1.244 . S
O167 Zn163 2.055 . S
O167 C189 1.259 . S
O168 Zn160 2.046 . S
O168 C189 1.254 . S
N169 Zn163 2.036 . S
N169 C170 1.298 . S
N169 N172 1.398 . S
C170 N169 1.298 . S
C170 N173 1.367 . S
C170 C183 1.481 . S
C171 N172 1.299 . S
C171 N173 1.379 . S
N172 N169 1.398 . S
N172 C171 1.299 . S
N173 C170 1.367 . S
N173 C171 1.379 . S
C174 N176 1.298 . S
C174 N178 1.367 . S
C174 C182 1.481 . S
C175 N177 1.299 . S
C175 N178 1.379 . S
N176 Zn160 2.036 . S
N176 C174 1.298 . S
N176 N177 1.398 . S
N177 C175 1.299 . S
N177 N176 1.398 . S
N178 C174 1.367 . S
N178 C175 1.379 . S
H179 C182 0.980 . S
H180 C182 0.981 . S
H181 C182 0.981 . S
C182 C174 1.481 . S
C182 H179 0.980 . S
C182 H180 0.981 . S
C182 H181 0.981 . S
C183 C170 1.481 . S
C183 H184 0.980 . S
C183 H185 0.981 . S
C183 H186 0.981 . S
H184 C183 0.980 . S
H185 C183 0.981 . S
H186 C183 0.981 . S
O187 Zn163 2.066 . S
O187 C166 1.256 . S
O188 Zn160 2.053 . S
O188 C166 1.244 . S
C189 O167 1.259 . S
C189 O168 1.254 . S
O190 Zn160 2.066 . S
O190 C162 1.256 . S
O191 C162 1.244 . S
O191 Zn163 2.053 . S
Zn192 O193 2.055 . S
Zn192 O200 2.046 . S
Zn192 N208 2.036 . S
Zn192 O220 2.053 . S
Zn192 O222 2.066 . S
O193 Zn192 2.055 . S
O193 C196 1.259 . S
C194 O222 1.256 . S
C194 O223 1.244 . S
Zn195 O197 2.046 . S
Zn195 O199 2.055 . S
Zn195 N201 2.036 . S
Zn195 O219 2.066 . S
Zn195 O223 2.053 . S
C196 O193 1.259 . S
C196 O197 1.254 . S
O197 Zn195 2.046 . S
O197 C196 1.254 . S
C198 O219 1.256 . S
C198 O220 1.244 . S
O199 Zn195 2.055 . S
O199 C221 1.259 . S
O200 Zn192 2.046 . S
O200 C221 1.254 . S
N201 Zn195 2.036 . S
N201 C202 1.298 . S
N201 N204 1.398 . S
C202 N201 1.298 . S
C202 N205 1.367 . S
C202 C215 1.481 . S
C203 N204 1.299 . S
C203 N205 1.379 . S
N204 N201 1.398 . S
N204 C203 1.299 . S
N205 C202 1.367 . S
N205 C203 1.379 . S
C206 N208 1.298 . S
C206 N210 1.367 . S
C206 C214 1.481 . S
C207 N209 1.299 . S
C207 N210 1.379 . S
N208 Zn192 2.036 . S
N208 C206 1.298 . S
N208 N209 1.398 . S
N209 C207 1.299 . S
N209 N208 1.398 . S
N210 C206 1.367 . S
N210 C207 1.379 . S
H211 C214 0.980 . S
H212 C214 0.981 . S
H213 C214 0.981 . S
C214 C206 1.481 . S
C214 H211 0.980 . S
C214 H212 0.981 . S
C214 H213 0.981 . S
C215 C202 1.481 . S
C215 H216 0.980 . S
C215 H217 0.981 . S
C215 H218 0.981 . S
H216 C215 0.980 . S
H217 C215 0.981 . S
H218 C215 0.981 . S
O219 Zn195 2.066 . S
O219 C198 1.256 . S
O220 Zn192 2.053 . S
O220 C198 1.244 . S
C221 O199 1.259 . S
C221 O200 1.254 . S
O222 Zn192 2.066 . S
O222 C194 1.256 . S
O223 C194 1.244 . S
O223 Zn195 2.053 . S
Zn224 O225 2.055 . S
Zn224 O232 2.046 . S
Zn224 N240 2.036 . S
Zn224 O252 2.053 . S
Zn224 O254 2.066 . S
O225 Zn224 2.055 . S
O225 C228 1.259 . S
C226 O254 1.256 . S
C226 O255 1.244 . S
Zn227 O229 2.046 . S
Zn227 O231 2.055 . S
Zn227 N233 2.036 . S
Zn227 O251 2.066 . S
Zn227 O255 2.053 . S
C228 O225 1.259 . S
C228 O229 1.254 . S
O229 Zn227 2.046 . S
O229 C228 1.254 . S
C230 O251 1.256 . S
C230 O252 1.244 . S
O231 Zn227 2.055 . S
O231 C253 1.259 . S
O232 Zn224 2.046 . S
O232 C253 1.254 . S
N233 Zn227 2.036 . S
N233 C234 1.298 . S
N233 N236 1.398 . S
C234 N233 1.298 . S
C234 N237 1.367 . S
C234 C247 1.481 . S
C235 N236 1.299 . S
C235 N237 1.379 . S
N236 N233 1.398 . S
N236 C235 1.299 . S
N237 C234 1.367 . S
N237 C235 1.379 . S
C238 N240 1.298 . S
C238 N242 1.367 . S
C238 C246 1.481 . S
C239 N241 1.299 . S
C239 N242 1.379 . S
N240 Zn224 2.036 . S
N240 C238 1.298 . S
N240 N241 1.398 . S
N241 C239 1.299 . S
N241 N240 1.398 . S
N242 C238 1.367 . S
N242 C239 1.379 . S
H243 C246 0.980 . S
H244 C246 0.981 . S
H245 C246 0.981 . S
C246 C238 1.481 . S
C246 H243 0.980 . S
C246 H244 0.981 . S
C246 H245 0.981 . S
C247 C234 1.481 . S
C247 H248 0.980 . S
C247 H249 0.981 . S
C247 H250 0.981 . S
H248 C247 0.980 . S
H249 C247 0.981 . S
H250 C247 0.981 . S
O251 Zn227 2.066 . S
O251 C230 1.256 . S
O252 Zn224 2.053 . S
O252 C230 1.244 . S
C253 O231 1.259 . S
C253 O232 1.254 . S
O254 Zn224 2.066 . S
O254 C226 1.256 . S
O255 C226 1.244 . S
O255 Zn227 2.053 . S
Zn256 O257 2.055 . S
Zn256 O264 2.046 . S
Zn256 N272 2.036 . S
Zn256 O284 2.053 . S
Zn256 O286 2.066 . S
O257 Zn256 2.055 . S
O257 C260 1.259 . S
C258 O286 1.256 . S
C258 O287 1.244 . S
Zn259 O261 2.046 . S
Zn259 O263 2.055 . S
Zn259 N265 2.036 . S
Zn259 O283 2.066 . S
Zn259 O287 2.053 . S
C260 O257 1.259 . S
C260 O261 1.254 . S
O261 Zn259 2.046 . S
O261 C260 1.254 . S
C262 O283 1.256 . S
C262 O284 1.244 . S
O263 Zn259 2.055 . S
O263 C285 1.259 . S
O264 Zn256 2.046 . S
O264 C285 1.254 . S
N265 Zn259 2.036 . S
N265 C266 1.298 . S
N265 N268 1.398 . S
C266 N265 1.298 . S
C266 N269 1.367 . S
C266 C279 1.481 . S
C267 N268 1.299 . S
C267 N269 1.379 . S
N268 N265 1.398 . S
N268 C267 1.299 . S
N269 C266 1.367 . S
N269 C267 1.379 . S
C270 N272 1.298 . S
C270 N274 1.367 . S
C270 C278 1.481 . S
C271 N273 1.299 . S
C271 N274 1.379 . S
N272 Zn256 2.036 . S
N272 C270 1.298 . S
N272 N273 1.398 . S
N273 C271 1.299 . S
N273 N272 1.398 . S
N274 C270 1.367 . S
N274 C271 1.379 . S
H275 C278 0.980 . S
H276 C278 0.981 . S
H277 C278 0.981 . S
C278 C270 1.481 . S
C278 H275 0.980 . S
C278 H276 0.981 . S
C278 H277 0.981 . S
C279 C266 1.481 . S
C279 H280 0.980 . S
C279 H281 0.981 . S
C279 H282 0.981 . S
H280 C279 0.980 . S
H281 C279 0.981 . S
H282 C279 0.981 . S
O283 Zn259 2.066 . S
O283 C262 1.256 . S
O284 Zn256 2.053 . S
O284 C262 1.244 . S
C285 O263 1.259 . S
C285 O264 1.254 . S
O286 Zn256 2.066 . S
O286 C258 1.256 . S
O287 C258 1.244 . S
O287 Zn259 2.053 . S
Zn288 O289 2.055 . S
Zn288 O296 2.046 . S
Zn288 N304 2.036 . S
Zn288 O316 2.053 . S
Zn288 O318 2.066 . S
O289 Zn288 2.055 . S
O289 C292 1.259 . S
C290 O318 1.256 . S
C290 O319 1.244 . S
Zn291 O293 2.046 . S
Zn291 O295 2.055 . S
Zn291 N297 2.036 . S
Zn291 O315 2.066 . S
Zn291 O319 2.053 . S
C292 O289 1.259 . S
C292 O293 1.254 . S
O293 Zn291 2.046 . S
O293 C292 1.254 . S
C294 O315 1.256 . S
C294 O316 1.244 . S
O295 Zn291 2.055 . S
O295 C317 1.259 . S
O296 Zn288 2.046 . S
O296 C317 1.254 . S
N297 Zn291 2.036 . S
N297 C298 1.298 . S
N297 N300 1.398 . S
C298 N297 1.298 . S
C298 N301 1.367 . S
C298 C311 1.481 . S
C299 N300 1.299 . S
C299 N301 1.379 . S
N300 N297 1.398 . S
N300 C299 1.299 . S
N301 C298 1.367 . S
N301 C299 1.379 . S
C302 N304 1.298 . S
C302 N306 1.367 . S
C302 C310 1.481 . S
C303 N305 1.299 . S
C303 N306 1.379 . S
N304 Zn288 2.036 . S
N304 C302 1.298 . S
N304 N305 1.398 . S
N305 C303 1.299 . S
N305 N304 1.398 . S
N306 C302 1.367 . S
N306 C303 1.379 . S
H307 C310 0.980 . S
H308 C310 0.981 . S
H309 C310 0.981 . S
C310 C302 1.481 . S
C310 H307 0.980 . S
C310 H308 0.981 . S
C310 H309 0.981 . S
C311 C298 1.481 . S
C311 H312 0.980 . S
C311 H313 0.981 . S
C311 H314 0.981 . S
H312 C311 0.980 . S
H313 C311 0.981 . S
H314 C311 0.981 . S
O315 Zn291 2.066 . S
O315 C294 1.256 . S
O316 Zn288 2.053 . S
O316 C294 1.244 . S
C317 O295 1.259 . S
C317 O296 1.254 . S
O318 Zn288 2.066 . S
O318 C290 1.256 . S
O319 C290 1.244 . S
O319 Zn291 2.053 . S
Zn320 O321 2.055 . S
Zn320 O328 2.046 . S
Zn320 N336 2.036 . S
Zn320 O348 2.053 . S
Zn320 O350 2.066 . S
O321 Zn320 2.055 . S
O321 C324 1.259 . S
C322 O350 1.256 . S
C322 O351 1.244 . S
Zn323 O325 2.046 . S
Zn323 O327 2.055 . S
Zn323 N329 2.036 . S
Zn323 O347 2.066 . S
Zn323 O351 2.053 . S
C324 O321 1.259 . S
C324 O325 1.254 . S
O325 Zn323 2.046 . S
O325 C324 1.254 . S
C326 O347 1.256 . S
C326 O348 1.244 . S
O327 Zn323 2.055 . S
O327 C349 1.259 . S
O328 Zn320 2.046 . S
O328 C349 1.254 . S
N329 Zn323 2.036 . S
N329 C330 1.298 . S
N329 N332 1.398 . S
C330 N329 1.298 . S
C330 N333 1.367 . S
C330 C343 1.481 . S
C331 N332 1.299 . S
C331 N333 1.379 . S
N332 N329 1.398 . S
N332 C331 1.299 . S
N333 C330 1.367 . S
N333 C331 1.379 . S
C334 N336 1.298 . S
C334 N338 1.367 . S
C334 C342 1.481 . S
C335 N337 1.299 . S
C335 N338 1.379 . S
N336 Zn320 2.036 . S
N336 C334 1.298 . S
N336 N337 1.398 . S
N337 C335 1.299 . S
N337 N336 1.398 . S
N338 C334 1.367 . S
N338 C335 1.379 . S
H339 C342 0.980 . S
H340 C342 0.981 . S
H341 C342 0.981 . S
C342 C334 1.481 . S
C342 H339 0.980 . S
C342 H340 0.981 . S
C342 H341 0.981 . S
C343 C330 1.481 . S
C343 H344 0.980 . S
C343 H345 0.981 . S
C343 H346 0.981 . S
H344 C343 0.980 . S
H345 C343 0.981 . S
H346 C343 0.981 . S
O347 Zn323 2.066 . S
O347 C326 1.256 . S
O348 Zn320 2.053 . S
O348 C326 1.244 . S
C349 O327 1.259 . S
C349 O328 1.254 . S
O350 Zn320 2.066 . S
O350 C322 1.256 . S
O351 C322 1.244 . S
O351 Zn323 2.053 . S
Zn352 O353 2.055 . S
Zn352 O360 2.046 . S
Zn352 N368 2.036 . S
Zn352 O380 2.053 . S
Zn352 O382 2.066 . S
O353 Zn352 2.055 . S
O353 C356 1.259 . S
C354 O382 1.256 . S
C354 O383 1.244 . S
Zn355 O357 2.046 . S
Zn355 O359 2.055 . S
Zn355 N361 2.036 . S
Zn355 O379 2.066 . S
Zn355 O383 2.053 . S
C356 O353 1.259 . S
C356 O357 1.254 . S
O357 Zn355 2.046 . S
O357 C356 1.254 . S
C358 O379 1.256 . S
C358 O380 1.244 . S
O359 Zn355 2.055 . S
O359 C381 1.259 . S
O360 Zn352 2.046 . S
O360 C381 1.254 . S
N361 Zn355 2.036 . S
N361 C362 1.298 . S
N361 N364 1.398 . S
C362 N361 1.298 . S
C362 N365 1.367 . S
C362 C375 1.481 . S
C363 N364 1.299 . S
C363 N365 1.379 . S
N364 N361 1.398 . S
N364 C363 1.299 . S
N365 C362 1.367 . S
N365 C363 1.379 . S
C366 N368 1.298 . S
C366 N370 1.367 . S
C366 C374 1.481 . S
C367 N369 1.299 . S
C367 N370 1.379 . S
N368 Zn352 2.036 . S
N368 C366 1.298 . S
N368 N369 1.398 . S
N369 C367 1.299 . S
N369 N368 1.398 . S
N370 C366 1.367 . S
N370 C367 1.379 . S
H371 C374 0.980 . S
H372 C374 0.981 . S
H373 C374 0.981 . S
C374 C366 1.481 . S
C374 H371 0.980 . S
C374 H372 0.981 . S
C374 H373 0.981 . S
C375 C362 1.481 . S
C375 H376 0.980 . S
C375 H377 0.981 . S
C375 H378 0.981 . S
H376 C375 0.980 . S
H377 C375 0.981 . S
H378 C375 0.981 . S
O379 Zn355 2.066 . S
O379 C358 1.256 . S
O380 Zn352 2.053 . S
O380 C358 1.244 . S
C381 O359 1.259 . S
C381 O360 1.254 . S
O382 Zn352 2.066 . S
O382 C354 1.256 . S
O383 C354 1.244 . S
O383 Zn355 2.053 . S
Zn384 O385 2.055 . S
Zn384 O392 2.046 . S
Zn384 N400 2.036 . S
Zn384 O412 2.053 . S
Zn384 O414 2.066 . S
O385 Zn384 2.055 . S
O385 C388 1.259 . S
C386 O414 1.256 . S
C386 O415 1.244 . S
Zn387 O389 2.046 . S
Zn387 O391 2.055 . S
Zn387 N393 2.036 . S
Zn387 O411 2.066 . S
Zn387 O415 2.053 . S
C388 O385 1.259 . S
C388 O389 1.254 . S
O389 Zn387 2.046 . S
O389 C388 1.254 . S
C390 O411 1.256 . S
C390 O412 1.244 . S
O391 Zn387 2.055 . S
O391 C413 1.259 . S
O392 Zn384 2.046 . S
O392 C413 1.254 . S
N393 Zn387 2.036 . S
N393 C394 1.298 . S
N393 N396 1.398 . S
C394 N393 1.298 . S
C394 N397 1.367 . S
C394 C407 1.481 . S
C395 N396 1.299 . S
C395 N397 1.379 . S
N396 N393 1.398 . S
N396 C395 1.299 . S
N397 C394 1.367 . S
N397 C395 1.379 . S
C398 N400 1.298 . S
C398 N402 1.367 . S
C398 C406 1.481 . S
C399 N401 1.299 . S
C399 N402 1.379 . S
N400 Zn384 2.036 . S
N400 C398 1.298 . S
N400 N401 1.398 . S
N401 C399 1.299 . S
N401 N400 1.398 . S
N402 C398 1.367 . S
N402 C399 1.379 . S
H403 C406 0.980 . S
H404 C406 0.981 . S
H405 C406 0.981 . S
C406 C398 1.481 . S
C406 H403 0.980 . S
C406 H404 0.981 . S
C406 H405 0.981 . S
C407 C394 1.481 . S
C407 H408 0.980 . S
C407 H409 0.981 . S
C407 H410 0.981 . S
H408 C407 0.980 . S
H409 C407 0.981 . S
H410 C407 0.981 . S
O411 Zn387 2.066 . S
O411 C390 1.256 . S
O412 Zn384 2.053 . S
O412 C390 1.244 . S
C413 O391 1.259 . S
C413 O392 1.254 . S
O414 Zn384 2.066 . S
O414 C386 1.256 . S
O415 C386 1.244 . S
O415 Zn387 2.053 . S
Zn416 O417 2.055 . S
Zn416 O424 2.046 . S
Zn416 N432 2.036 . S
Zn416 O444 2.053 . S
Zn416 O446 2.066 . S
O417 Zn416 2.055 . S
O417 C420 1.259 . S
C418 O446 1.250 1_655 S
C418 O447 1.236 1_655 S
Zn419 O421 2.046 . S
Zn419 O423 2.055 . S
Zn419 N425 2.036 . S
Zn419 O443 2.066 . S
Zn419 O447 2.053 . S
C420 O417 1.259 . S
C420 O421 1.254 . S
O421 Zn419 2.046 . S
O421 C420 1.254 . S
C422 O443 1.250 1_655 S
C422 O444 1.236 1_655 S
O423 Zn419 2.055 . S
O423 C445 1.259 . S
O424 Zn416 2.046 . S
O424 C445 1.254 . S
N425 Zn419 2.036 . S
N425 C426 1.298 . S
N425 N428 1.398 . S
C426 N425 1.298 . S
C426 N429 1.367 . S
C426 C439 1.481 . S
C427 N428 1.299 . S
C427 N429 1.379 . S
N428 N425 1.398 . S
N428 C427 1.299 . S
N429 C426 1.367 . S
N429 C427 1.379 . S
C430 N432 1.298 . S
C430 N434 1.367 . S
C430 C438 1.481 . S
C431 N433 1.299 . S
C431 N434 1.379 . S
N432 Zn416 2.036 . S
N432 C430 1.298 . S
N432 N433 1.398 . S
N433 C431 1.299 . S
N433 N432 1.398 . S
N434 C430 1.367 . S
N434 C431 1.379 . S
H435 C438 0.980 . S
H436 C438 0.981 . S
H437 C438 0.981 . S
C438 C430 1.481 . S
C438 H435 0.980 . S
C438 H436 0.981 . S
C438 H437 0.981 . S
C439 C426 1.481 . S
C439 H440 0.980 . S
C439 H441 0.981 . S
C439 H442 0.981 . S
H440 C439 0.980 . S
H441 C439 0.981 . S
H442 C439 0.981 . S
O443 Zn419 2.066 . S
O443 C422 1.250 1_455 S
O444 Zn416 2.053 . S
O444 C422 1.236 1_455 S
C445 O423 1.259 . S
C445 O424 1.254 . S
O446 Zn416 2.066 . S
O446 C418 1.250 1_455 S
O447 C418 1.236 1_455 S
O447 Zn419 2.053 . S
Zn448 O449 2.055 . S
Zn448 O456 2.046 . S
Zn448 N464 2.036 . S
Zn448 O476 2.053 . S
Zn448 O478 2.066 . S
O449 Zn448 2.055 . S
O449 C452 1.259 . S
C450 O478 1.256 . S
C450 O479 1.244 . S
Zn451 O453 2.046 . S
Zn451 O455 2.055 . S
Zn451 N457 2.036 . S
Zn451 O475 2.066 . S
Zn451 O479 2.053 . S
C452 O449 1.259 . S
C452 O453 1.254 . S
O453 Zn451 2.046 . S
O453 C452 1.254 . S
C454 O475 1.256 . S
C454 O476 1.244 . S
O455 Zn451 2.055 . S
O455 C477 1.259 . S
O456 Zn448 2.046 . S
O456 C477 1.254 . S
N457 Zn451 2.036 . S
N457 C458 1.298 . S
N457 N460 1.398 . S
C458 N457 1.298 . S
C458 N461 1.367 . S
C458 C471 1.481 . S
C459 N460 1.299 . S
C459 N461 1.379 . S
N460 N457 1.398 . S
N460 C459 1.299 . S
N461 C458 1.367 . S
N461 C459 1.379 . S
C462 N464 1.298 . S
C462 N466 1.367 . S
C462 C470 1.481 . S
C463 N465 1.299 . S
C463 N466 1.379 . S
N464 Zn448 2.036 . S
N464 C462 1.298 . S
N464 N465 1.398 . S
N465 C463 1.299 . S
N465 N464 1.398 . S
N466 C462 1.367 . S
N466 C463 1.379 . S
H467 C470 0.980 . S
H468 C470 0.981 . S
H469 C470 0.981 . S
C470 C462 1.481 . S
C470 H467 0.980 . S
C470 H468 0.981 . S
C470 H469 0.981 . S
C471 C458 1.481 . S
C471 H472 0.980 . S
C471 H473 0.981 . S
C471 H474 0.981 . S
H472 C471 0.980 . S
H473 C471 0.981 . S
H474 C471 0.981 . S
O475 Zn451 2.066 . S
O475 C454 1.256 . S
O476 Zn448 2.053 . S
O476 C454 1.244 . S
C477 O455 1.259 . S
C477 O456 1.254 . S
O478 Zn448 2.066 . S
O478 C450 1.256 . S
O479 C450 1.244 . S
O479 Zn451 2.053 . S
Zn480 O481 2.055 . S
Zn480 O488 2.046 . S
Zn480 N496 2.036 . S
Zn480 O508 2.053 . S
Zn480 O510 2.066 . S
O481 Zn480 2.055 . S
O481 C484 1.259 . S
C482 O510 1.250 1_655 S
C482 O511 1.236 1_655 S
Zn483 O485 2.046 . S
Zn483 O487 2.055 . S
Zn483 N489 2.036 . S
Zn483 O507 2.066 . S
Zn483 O511 2.053 . S
C484 O481 1.259 . S
C484 O485 1.254 . S
O485 Zn483 2.046 . S
O485 C484 1.254 . S
C486 O507 1.250 1_655 S
C486 O508 1.236 1_655 S
O487 Zn483 2.055 . S
O487 C509 1.259 . S
O488 Zn480 2.046 . S
O488 C509 1.254 . S
N489 Zn483 2.036 . S
N489 C490 1.298 . S
N489 N492 1.398 . S
C490 N489 1.298 . S
C490 N493 1.367 . S
C490 C503 1.481 . S
C491 N492 1.299 . S
C491 N493 1.379 . S
N492 N489 1.398 . S
N492 C491 1.299 . S
N493 C490 1.367 . S
N493 C491 1.379 . S
C494 N496 1.298 . S
C494 N498 1.367 . S
C494 C502 1.481 . S
C495 N497 1.299 . S
C495 N498 1.379 . S
N496 Zn480 2.036 . S
N496 C494 1.298 . S
N496 N497 1.398 . S
N497 C495 1.299 . S
N497 N496 1.398 . S
N498 C494 1.367 . S
N498 C495 1.379 . S
H499 C502 0.980 . S
H500 C502 0.981 . S
H501 C502 0.981 . S
C502 C494 1.481 . S
C502 H499 0.980 . S
C502 H500 0.981 . S
C502 H501 0.981 . S
C503 C490 1.481 . S
C503 H504 0.980 . S
C503 H505 0.981 . S
C503 H506 0.981 . S
H504 C503 0.980 . S
H505 C503 0.981 . S
H506 C503 0.981 . S
O507 Zn483 2.066 . S
O507 C486 1.250 1_455 S
O508 Zn480 2.053 . S
O508 C486 1.236 1_455 S
C509 O487 1.259 . S
C509 O488 1.254 . S
O510 Zn480 2.066 . S
O510 C482 1.250 1_455 S
O511 C482 1.236 1_455 S
O511 Zn483 2.053 . S
H512 C520 0.929 . S
H513 C522 0.930 1_554 S
H514 C524 0.930 . S
H515 C527 0.929 . S
H516 C530 0.930 . S
H517 C532 0.960 . S
H518 C532 0.960 . S
H519 C532 0.960 . S
C520 H512 0.929 . S
C520 C521 1.377 . S
C520 C522 1.384 1_554 S
C521 C520 1.377 . S
C521 C527 1.390 1_554 S
C522 H513 0.930 1_556 S
C522 C520 1.384 1_556 S
C522 C523 1.372 . S
C523 C522 1.372 . S
C523 C524 1.400 . S
C523 C528 1.490 . S
C524 H514 0.930 . S
C524 C523 1.400 . S
C524 C527 1.386 . S
H525 C541 0.930 . S
H526 C542 0.931 . S
C527 H515 0.929 . S
C527 C521 1.390 1_556 S
C527 C524 1.386 . S
C528 C523 1.490 . S
C528 C530 1.395 . S
C528 C531 1.403 . S
H529 C535 0.930 . S
C530 H516 0.930 . S
C530 C528 1.395 . S
C530 C533 1.403 . S
C531 C528 1.403 . S
C531 C532 1.524 . S
C531 C535 1.400 . S
C532 H517 0.960 . S
C532 H518 0.960 . S
C532 H519 0.960 . S
C532 C531 1.524 . S
C533 C530 1.403 . S
C533 C534 1.392 . S
C533 C537 1.495 . S
C534 C533 1.392 . S
C534 C535 1.385 . S
C534 C536 1.478 . S
C535 H529 0.930 . S
C535 C531 1.400 . S
C535 C534 1.385 . S
C536 C534 1.478 . S
C536 C538 1.381 . S
C536 C542 1.383 . S
C537 C533 1.495 . S
C537 H543 0.959 . S
C537 H544 0.961 . S
C537 H545 0.960 . S
C538 C536 1.381 . S
C538 C539 1.394 . S
C538 H546 0.930 . S
C539 C538 1.394 . S
C539 C540 1.383 . S
C539 H547 0.929 . S
C540 C539 1.383 . S
C540 C541 1.377 . S
C541 H525 0.930 . S
C541 C540 1.377 . S
C541 C542 1.379 . S
C542 H526 0.931 . S
C542 C536 1.383 . S
C542 C541 1.379 . S
H543 C537 0.959 . S
H544 C537 0.961 . S
H545 C537 0.960 . S
H546 C538 0.930 . S
H547 C539 0.929 . S
H548 C556 0.929 . S
H549 C558 0.930 . S
H550 C560 0.930 . S
H551 C563 0.929 . S
H552 C566 0.930 . S
H553 C568 0.960 . S
H554 C568 0.960 . S
H555 C568 0.960 . S
C556 H548 0.929 . S
C556 C557 1.377 . S
C556 C558 1.384 . S
C557 C556 1.377 . S
C557 C563 1.390 . S
C558 H549 0.930 . S
C558 C556 1.384 . S
C558 C559 1.372 . S
C559 C558 1.372 . S
C559 C560 1.400 . S
C559 C564 1.490 . S
C560 H550 0.930 . S
C560 C559 1.400 . S
C560 C563 1.386 . S
H561 C577 0.930 . S
H562 C578 0.931 . S
C563 H551 0.929 . S
C563 C557 1.390 . S
C563 C560 1.386 . S
C564 C559 1.490 . S
C564 C566 1.395 . S
C564 C567 1.403 . S
H565 C571 0.930 . S
C566 H552 0.930 . S
C566 C564 1.395 . S
C566 C569 1.403 . S
C567 C564 1.403 . S
C567 C568 1.524 . S
C567 C571 1.400 . S
C568 H553 0.960 . S
C568 H554 0.960 . S
C568 H555 0.960 . S
C568 C567 1.524 . S
C569 C566 1.403 . S
C569 C570 1.392 . S
C569 C573 1.495 . S
C570 C569 1.392 . S
C570 C571 1.385 . S
C570 C572 1.478 . S
C571 H565 0.930 . S
C571 C567 1.400 . S
C571 C570 1.385 . S
C572 C570 1.478 . S
C572 C574 1.381 . S
C572 C578 1.383 . S
C573 C569 1.495 . S
C573 H579 0.959 . S
C573 H580 0.961 . S
C573 H581 0.960 . S
C574 C572 1.381 . S
C574 C575 1.394 . S
C574 H582 0.930 . S
C575 C574 1.394 . S
C575 C576 1.383 1_554 S
C575 H583 0.929 . S
C576 C575 1.383 1_556 S
C576 C577 1.377 . S
C577 H561 0.930 . S
C577 C576 1.377 . S
C577 C578 1.379 1_556 S
C578 H562 0.931 . S
C578 C572 1.383 . S
C578 C577 1.379 1_554 S
H579 C573 0.959 . S
H580 C573 0.961 . S
H581 C573 0.960 . S
H582 C574 0.930 . S
H583 C575 0.929 . S
H584 C592 0.929 . S
H585 C594 0.930 . S
H586 C596 0.930 . S
H587 C599 0.929 . S
H588 C602 0.930 . S
H589 C604 0.960 . S
H590 C604 0.960 . S
H591 C604 0.960 . S
C592 H584 0.929 . S
C592 C593 1.377 . S
C592 C594 1.384 . S
C593 C592 1.377 . S
C593 C599 1.390 . S
C594 H585 0.930 . S
C594 C592 1.384 . S
C594 C595 1.372 . S
C595 C594 1.372 . S
C595 C596 1.400 . S
C595 C600 1.490 . S
C596 H586 0.930 . S
C596 C595 1.400 . S
C596 C599 1.386 . S
H597 C613 0.930 . S
H598 C614 0.931 . S
C599 H587 0.929 . S
C599 C593 1.390 . S
C599 C596 1.386 . S
C600 C595 1.490 . S
C600 C602 1.395 . S
C600 C603 1.403 . S
H601 C607 0.930 . S
C602 H588 0.930 . S
C602 C600 1.395 . S
C602 C605 1.403 . S
C603 C600 1.403 . S
C603 C604 1.524 . S
C603 C607 1.400 . S
C604 H589 0.960 . S
C604 H590 0.960 . S
C604 H591 0.960 . S
C604 C603 1.524 . S
C605 C602 1.403 . S
C605 C606 1.392 . S
C605 C609 1.495 . S
C606 C605 1.392 . S
C606 C607 1.385 . S
C606 C608 1.478 . S
C607 H601 0.930 . S
C607 C603 1.400 . S
C607 C606 1.385 . S
C608 C606 1.478 . S
C608 C610 1.381 . S
C608 C614 1.383 . S
C609 C605 1.495 . S
C609 H615 0.959 . S
C609 H616 0.961 . S
C609 H617 0.960 . S
C610 C608 1.381 . S
C610 C611 1.394 . S
C610 H618 0.930 . S
C611 C610 1.394 . S
C611 C612 1.383 . S
C611 H619 0.929 . S
C612 C611 1.383 . S
C612 C613 1.377 . S
C613 H597 0.930 . S
C613 C612 1.377 . S
C613 C614 1.379 . S
C614 H598 0.931 . S
C614 C608 1.383 . S
C614 C613 1.379 . S
H615 C609 0.959 . S
H616 C609 0.961 . S
H617 C609 0.960 . S
H618 C610 0.930 . S
H619 C611 0.929 . S
H620 C628 0.929 . S
H621 C630 0.930 . S
H622 C632 0.930 . S
H623 C635 0.929 . S
H624 C638 0.930 . S
H625 C640 0.960 . S
H626 C640 0.960 . S
H627 C640 0.960 . S
C628 H620 0.929 . S
C628 C629 1.377 . S
C628 C630 1.384 . S
C629 C628 1.377 . S
C629 C635 1.390 . S
C630 H621 0.930 . S
C630 C628 1.384 . S
C630 C631 1.372 . S
C631 C630 1.372 . S
C631 C632 1.400 . S
C631 C636 1.490 . S
C632 H622 0.930 . S
C632 C631 1.400 . S
C632 C635 1.386 . S
H633 C649 0.930 . S
H634 C650 0.931 . S
C635 H623 0.929 . S
C635 C629 1.390 . S
C635 C632 1.386 . S
C636 C631 1.490 . S
C636 C638 1.395 . S
C636 C639 1.403 . S
H637 C643 0.930 . S
C638 H624 0.930 . S
C638 C636 1.395 . S
C638 C641 1.403 . S
C639 C636 1.403 . S
C639 C640 1.524 . S
C639 C643 1.400 . S
C640 H625 0.960 . S
C640 H626 0.960 . S
C640 H627 0.960 . S
C640 C639 1.524 . S
C641 C638 1.403 . S
C641 C642 1.392 . S
C641 C645 1.495 . S
C642 C641 1.392 . S
C642 C643 1.385 . S
C642 C644 1.478 . S
C643 H637 0.930 . S
C643 C639 1.400 . S
C643 C642 1.385 . S
C644 C642 1.478 . S
C644 C646 1.381 . S
C644 C650 1.383 . S
C645 C641 1.495 . S
C645 H651 0.959 . S
C645 H652 0.961 . S
C645 H653 0.960 . S
C646 C644 1.381 . S
C646 C647 1.394 . S
C646 H654 0.930 . S
C647 C646 1.394 . S
C647 C648 1.383 . S
C647 H655 0.929 . S
C648 C647 1.383 . S
C648 C649 1.377 . S
C649 H633 0.930 . S
C649 C648 1.377 . S
C649 C650 1.379 . S
C650 H634 0.931 . S
C650 C644 1.383 . S
C650 C649 1.379 . S
H651 C645 0.959 . S
H652 C645 0.961 . S
H653 C645 0.960 . S
H654 C646 0.930 . S
H655 C647 0.929 . S
H656 C664 0.929 . S
H657 C666 0.930 . S
H658 C668 0.930 . S
H659 C671 0.929 . S
H660 C674 0.930 . S
H661 C676 0.960 . S
H662 C676 0.960 . S
H663 C676 0.960 . S
C664 H656 0.929 . S
C664 C665 1.377 . S
C664 C666 1.384 . S
C665 C664 1.377 . S
C665 C671 1.390 . S
C666 H657 0.930 . S
C666 C664 1.384 . S
C666 C667 1.372 . S
C667 C666 1.372 . S
C667 C668 1.400 . S
C667 C672 1.490 . S
C668 H658 0.930 . S
C668 C667 1.400 . S
C668 C671 1.386 . S
H669 C685 0.934 . S
H670 C686 0.931 . S
C671 H659 0.929 . S
C671 C665 1.390 . S
C671 C668 1.386 . S
C672 C667 1.490 . S
C672 C674 1.395 . S
C672 C675 1.403 . S
H673 C679 0.930 . S
C674 H660 0.930 . S
C674 C672 1.395 . S
C674 C677 1.403 . S
C675 C672 1.403 . S
C675 C676 1.524 . S
C675 C679 1.400 . S
C676 H661 0.960 . S
C676 H662 0.960 . S
C676 H663 0.960 . S
C676 C675 1.524 . S
C677 C674 1.403 . S
C677 C678 1.392 . S
C677 C681 1.495 . S
C678 C677 1.392 . S
C678 C679 1.385 . S
C678 C680 1.478 . S
C679 H673 0.930 . S
C679 C675 1.400 . S
C679 C678 1.385 . S
C680 C678 1.478 . S
C680 C682 1.381 . S
C680 C686 1.383 . S
C681 C677 1.495 . S
C681 H687 0.959 . S
C681 H688 0.961 . S
C681 H689 0.960 . S
C682 C680 1.381 . S
C682 C683 1.394 1_554 S
C682 H690 0.930 1_554 S
C683 C682 1.394 1_556 S
C683 C684 1.383 . S
C683 H691 0.929 . S
C684 C683 1.383 . S
C684 C685 1.377 1_556 S
C685 H669 0.934 . S
C685 C684 1.377 1_554 S
C685 C686 1.379 . S
C686 H670 0.931 . S
C686 C680 1.383 . S
C686 C685 1.379 . S
H687 C681 0.959 . S
H688 C681 0.961 . S
H689 C681 0.960 . S
H690 C682 0.930 1_556 S
H691 C683 0.929 . S
H692 C700 0.929 . S
H693 C702 0.930 . S
H694 C704 0.930 . S
H695 C707 0.929 . S
H696 C710 0.930 . S
H697 C712 0.960 . S
H698 C712 0.960 . S
H699 C712 0.960 . S
C700 H692 0.929 . S
C700 C701 1.377 . S
C700 C702 1.384 . S
C701 C700 1.377 . S
C701 C707 1.390 . S
C702 H693 0.930 . S
C702 C700 1.384 . S
C702 C703 1.372 . S
C703 C702 1.372 . S
C703 C704 1.400 . S
C703 C708 1.490 . S
C704 H694 0.930 . S
C704 C703 1.400 . S
C704 C707 1.386 . S
H705 C721 0.930 1_455 S
H706 C722 0.931 . S
C707 H695 0.929 . S
C707 C701 1.390 . S
C707 C704 1.386 . S
C708 C703 1.490 . S
C708 C710 1.395 . S
C708 C711 1.403 . S
H709 C715 0.930 . S
C710 H696 0.930 . S
C710 C708 1.395 . S
C710 C713 1.403 . S
C711 C708 1.403 . S
C711 C712 1.524 . S
C711 C715 1.400 . S
C712 H697 0.960 . S
C712 H698 0.960 . S
C712 H699 0.960 . S
C712 C711 1.524 . S
C713 C710 1.403 . S
C713 C714 1.392 . S
C713 C717 1.495 . S
C714 C713 1.392 . S
C714 C715 1.385 . S
C714 C716 1.478 . S
C715 H709 0.930 . S
C715 C711 1.400 . S
C715 C714 1.385 . S
C716 C714 1.478 . S
C716 C718 1.381 . S
C716 C722 1.383 . S
C717 C713 1.495 . S
C717 H723 0.959 . S
C717 H724 0.961 . S
C717 H725 0.960 . S
C718 C716 1.381 . S
C718 C719 1.394 1_556 S
C718 H726 0.930 . S
C719 C718 1.394 1_554 S
C719 C720 1.383 . S
C719 H727 0.929 . S
C720 C719 1.383 . S
C720 C721 1.377 1_554 S
C721 H705 0.930 1_655 S
C721 C720 1.377 1_556 S
C721 C722 1.379 . S
C722 H706 0.931 . S
C722 C716 1.383 . S
C722 C721 1.379 . S
H723 C717 0.959 . S
H724 C717 0.961 . S
H725 C717 0.960 . S
H726 C718 0.930 . S
H727 C719 0.929 . S
H728 C736 0.929 . S
H729 C738 0.930 . S
H730 C740 0.930 . S
H731 C743 0.929 . S
H732 C746 0.930 . S
H733 C748 0.960 . S
H734 C748 0.960 . S
H735 C748 0.960 . S
C736 H728 0.929 . S
C736 C737 1.377 . S
C736 C738 1.384 . S
C737 C736 1.377 . S
C737 C743 1.390 . S
C738 H729 0.930 . S
C738 C736 1.384 . S
C738 C739 1.372 . S
C739 C738 1.372 . S
C739 C740 1.400 . S
C739 C744 1.490 . S
C740 H730 0.930 . S
C740 C739 1.400 . S
C740 C743 1.386 . S
H741 C757 0.930 . S
H742 C758 0.931 . S
C743 H731 0.929 . S
C743 C737 1.390 . S
C743 C740 1.386 . S
C744 C739 1.490 . S
C744 C746 1.395 . S
C744 C747 1.403 . S
H745 C751 0.930 . S
C746 H732 0.930 . S
C746 C744 1.395 . S
C746 C749 1.403 . S
C747 C744 1.403 . S
C747 C748 1.524 . S
C747 C751 1.400 . S
C748 H733 0.960 . S
C748 H734 0.960 . S
C748 H735 0.960 . S
C748 C747 1.524 . S
C749 C746 1.403 . S
C749 C750 1.392 . S
C749 C753 1.495 . S
C750 C749 1.392 . S
C750 C751 1.385 . S
C750 C752 1.478 . S
C751 H745 0.930 . S
C751 C747 1.400 . S
C751 C750 1.385 . S
C752 C750 1.478 . S
C752 C754 1.381 . S
C752 C758 1.383 . S
C753 C749 1.495 . S
C753 H759 0.959 . S
C753 H760 0.961 . S
C753 H761 0.960 . S
C754 C752 1.381 . S
C754 C755 1.394 . S
C754 H762 0.930 . S
C755 C754 1.394 . S
C755 C756 1.383 . S
C755 H763 0.929 . S
C756 C755 1.383 . S
C756 C757 1.377 . S
C757 H741 0.930 . S
C757 C756 1.377 . S
C757 C758 1.379 . S
C758 H742 0.931 . S
C758 C752 1.383 . S
C758 C757 1.379 . S
H759 C753 0.959 . S
H760 C753 0.961 . S
H761 C753 0.960 . S
H762 C754 0.930 . S
H763 C755 0.929 . S
H764 C772 0.929 . S
H765 C774 0.930 . S
H766 C776 0.930 . S
H767 C779 0.929 . S
H768 C782 0.930 . S
H769 C784 0.960 . S
H770 C784 0.960 . S
H771 C784 0.960 . S
C772 H764 0.929 . S
C772 C773 1.377 . S
C772 C774 1.384 . S
C773 C772 1.377 . S
C773 C779 1.390 . S
C774 H765 0.930 . S
C774 C772 1.384 . S
C774 C775 1.372 . S
C775 C774 1.372 . S
C775 C776 1.400 . S
C775 C780 1.490 . S
C776 H766 0.930 . S
C776 C775 1.400 . S
C776 C779 1.386 . S
H777 C793 0.930 . S
H778 C794 0.931 . S
C779 H767 0.929 . S
C779 C773 1.390 . S
C779 C776 1.386 . S
C780 C775 1.490 . S
C780 C782 1.395 . S
C780 C783 1.403 . S
H781 C787 0.930 . S
C782 H768 0.930 . S
C782 C780 1.395 . S
C782 C785 1.403 . S
C783 C780 1.403 . S
C783 C784 1.524 . S
C783 C787 1.400 . S
C784 H769 0.960 . S
C784 H770 0.960 . S
C784 H771 0.960 . S
C784 C783 1.524 . S
C785 C782 1.403 . S
C785 C786 1.392 . S
C785 C789 1.495 . S
C786 C785 1.392 . S
C786 C787 1.385 . S
C786 C788 1.478 . S
C787 H781 0.930 . S
C787 C783 1.400 . S
C787 C786 1.385 . S
C788 C786 1.478 . S
C788 C790 1.381 . S
C788 C794 1.383 . S
C789 C785 1.495 . S
C789 H795 0.959 . S
C789 H796 0.961 . S
C789 H797 0.960 . S
C790 C788 1.381 . S
C790 C791 1.394 . S
C790 H798 0.930 . S
C791 C790 1.394 . S
C791 C792 1.383 . S
C791 H799 0.929 . S
C792 C791 1.383 . S
C792 C793 1.377 . S
C793 H777 0.930 . S
C793 C792 1.377 . S
C793 C794 1.379 . S
C794 H778 0.931 . S
C794 C788 1.383 . S
C794 C793 1.379 . S
H795 C789 0.959 . S
H796 C789 0.961 . S
H797 C789 0.960 . S
H798 C790 0.930 . S
H799 C791 0.929 . S
H800 C808 0.929 . S
H801 C810 0.930 . S
H802 C812 0.930 . S
H803 C815 0.929 . S
H804 C818 0.930 . S
H805 C820 0.960 . S
H806 C820 0.960 . S
H807 C820 0.960 . S
C808 H800 0.929 . S
C808 C809 1.377 . S
C808 C810 1.384 . S
C809 C808 1.377 . S
C809 C815 1.390 . S
C810 H801 0.930 . S
C810 C808 1.384 . S
C810 C811 1.372 . S
C811 C810 1.372 . S
C811 C812 1.400 . S
C811 C816 1.490 . S
C812 H802 0.930 . S
C812 C811 1.400 . S
C812 C815 1.386 . S
H813 C829 0.930 . S
H814 C830 0.931 . S
C815 H803 0.929 . S
C815 C809 1.390 . S
C815 C812 1.386 . S
C816 C811 1.490 . S
C816 C818 1.395 . S
C816 C819 1.403 . S
H817 C823 0.930 . S
C818 H804 0.930 . S
C818 C816 1.395 . S
C818 C821 1.403 . S
C819 C816 1.403 . S
C819 C820 1.524 . S
C819 C823 1.400 . S
C820 H805 0.960 . S
C820 H806 0.960 . S
C820 H807 0.960 . S
C820 C819 1.524 . S
C821 C818 1.403 . S
C821 C822 1.392 . S
C821 C825 1.495 . S
C822 C821 1.392 . S
C822 C823 1.385 . S
C822 C824 1.478 . S
C823 H817 0.930 . S
C823 C819 1.400 . S
C823 C822 1.385 . S
C824 C822 1.478 . S
C824 C826 1.381 . S
C824 C830 1.383 . S
C825 C821 1.495 . S
C825 H831 0.959 . S
C825 H832 0.961 . S
C825 H833 0.960 . S
C826 C824 1.381 . S
C826 C827 1.394 . S
C826 H834 0.930 . S
C827 C826 1.394 . S
C827 C828 1.383 . S
C827 H835 0.929 . S
C828 C827 1.383 . S
C828 C829 1.377 . S
C829 H813 0.930 . S
C829 C828 1.377 . S
C829 C830 1.379 . S
C830 H814 0.931 . S
C830 C824 1.383 . S
C830 C829 1.379 . S
H831 C825 0.959 . S
H832 C825 0.961 . S
H833 C825 0.960 . S
H834 C826 0.930 . S
H835 C827 0.929 . S
H836 C844 0.929 . S
H837 C846 0.930 . S
H838 C848 0.930 . S
H839 C851 0.929 . S
H840 C854 0.930 . S
H841 C856 0.960 . S
H842 C856 0.960 . S
H843 C856 0.960 . S
C844 H836 0.929 . S
C844 C845 1.377 . S
C844 C846 1.384 . S
C845 C844 1.377 . S
C845 C851 1.390 . S
C846 H837 0.930 . S
C846 C844 1.384 . S
C846 C847 1.372 . S
C847 C846 1.372 . S
C847 C848 1.400 . S
C847 C852 1.490 . S
C848 H838 0.930 . S
C848 C847 1.400 . S
C848 C851 1.386 . S
H849 C865 0.930 . S
H850 C866 0.931 . S
C851 H839 0.929 . S
C851 C845 1.390 . S
C851 C848 1.386 . S
C852 C847 1.490 . S
C852 C854 1.395 . S
C852 C855 1.403 . S
H853 C859 0.930 . S
C854 H840 0.930 . S
C854 C852 1.395 . S
C854 C857 1.403 . S
C855 C852 1.403 . S
C855 C856 1.524 . S
C855 C859 1.400 . S
C856 H841 0.960 . S
C856 H842 0.960 . S
C856 H843 0.960 . S
C856 C855 1.524 . S
C857 C854 1.403 . S
C857 C858 1.392 . S
C857 C861 1.495 . S
C858 C857 1.392 . S
C858 C859 1.385 . S
C858 C860 1.478 . S
C859 H853 0.930 . S
C859 C855 1.400 . S
C859 C858 1.385 . S
C860 C858 1.478 . S
C860 C862 1.381 . S
C860 C866 1.383 . S
C861 C857 1.495 . S
C861 H867 0.959 . S
C861 H868 0.961 . S
C861 H869 0.960 . S
C862 C860 1.381 . S
C862 C863 1.394 . S
C862 H870 0.930 . S
C863 C862 1.394 . S
C863 C864 1.383 . S
C863 H871 0.929 . S
C864 C863 1.383 . S
C864 C865 1.377 . S
C865 H849 0.930 . S
C865 C864 1.377 . S
C865 C866 1.379 . S
C866 H850 0.931 . S
C866 C860 1.383 . S
C866 C865 1.379 . S
H867 C861 0.959 . S
H868 C861 0.961 . S
H869 C861 0.960 . S
H870 C862 0.930 . S
H871 C863 0.929 . S
H872 C880 0.929 1_455 S
H873 C882 0.930 . S
H874 C884 0.930 . S
H875 C887 0.929 . S
H876 C890 0.930 . S
H877 C892 0.960 . S
H878 C892 0.960 . S
H879 C892 0.960 . S
C880 H872 0.929 1_655 S
C880 C881 1.377 1_556 S
C880 C882 1.384 . S
C881 C880 1.377 1_554 S
C881 C887 1.390 . S
C882 H873 0.930 . S
C882 C880 1.384 . S
C882 C883 1.372 . S
C883 C882 1.372 . S
C883 C884 1.400 . S
C883 C888 1.490 . S
C884 H874 0.930 . S
C884 C883 1.400 . S
C884 C887 1.386 1_556 S
H885 C901 0.930 . S
H886 C902 0.931 . S
C887 H875 0.929 . S
C887 C881 1.390 . S
C887 C884 1.386 1_554 S
C888 C883 1.490 . S
C888 C890 1.395 . S
C888 C891 1.403 . S
H889 C895 0.930 . S
C890 H876 0.930 . S
C890 C888 1.395 . S
C890 C893 1.403 . S
C891 C888 1.403 . S
C891 C892 1.524 . S
C891 C895 1.400 . S
C892 H877 0.960 . S
C892 H878 0.960 . S
C892 H879 0.960 . S
C892 C891 1.524 . S
C893 C890 1.403 . S
C893 C894 1.392 . S
C893 C897 1.495 . S
C894 C893 1.392 . S
C894 C895 1.385 . S
C894 C896 1.478 . S
C895 H889 0.930 . S
C895 C891 1.400 . S
C895 C894 1.385 . S
C896 C894 1.478 . S
C896 C898 1.381 . S
C896 C902 1.383 . S
C897 C893 1.495 . S
C897 H903 0.959 . S
C897 H904 0.961 . S
C897 H905 0.960 . S
C898 C896 1.381 . S
C898 C899 1.394 . S
C898 H906 0.930 . S
C899 C898 1.394 . S
C899 C900 1.383 . S
C899 H907 0.929 . S
C900 C899 1.383 . S
C900 C901 1.377 . S
C901 H885 0.930 . S
C901 C900 1.377 . S
C901 C902 1.379 . S
C902 H886 0.931 . S
C902 C896 1.383 . S
C902 C901 1.379 . S
H903 C897 0.959 . S
H904 C897 0.961 . S
H905 C897 0.960 . S
H906 C898 0.930 . S
H907 C899 0.929 . S
H908 C916 0.929 . S
H909 C918 0.930 . S
H910 C920 0.930 . S
H911 C923 0.929 . S
H912 C926 0.930 . S
H913 C928 0.960 . S
H914 C928 0.960 . S
H915 C928 0.960 . S
C916 H908 0.929 . S
C916 C917 1.377 . S
C916 C918 1.384 . S
C917 C916 1.377 . S
C917 C923 1.390 . S
C918 H909 0.930 . S
C918 C916 1.384 . S
C918 C919 1.372 . S
C919 C918 1.372 . S
C919 C920 1.400 . S
C919 C924 1.490 . S
C920 H910 0.930 . S
C920 C919 1.400 . S
C920 C923 1.386 . S
H921 C937 0.930 1_455 S
H922 C938 0.931 . S
C923 H911 0.929 . S
C923 C917 1.390 . S
C923 C920 1.386 . S
C924 C919 1.490 . S
C924 C926 1.395 . S
C924 C927 1.403 . S
H925 C931 0.930 . S
C926 H912 0.930 . S
C926 C924 1.395 . S
C926 C929 1.403 . S
C927 C924 1.403 . S
C927 C928 1.524 . S
C927 C931 1.400 . S
C928 H913 0.960 . S
C928 H914 0.960 . S
C928 H915 0.960 . S
C928 C927 1.524 . S
C929 C926 1.403 . S
C929 C930 1.392 . S
C929 C933 1.495 . S
C930 C929 1.392 . S
C930 C931 1.385 . S
C930 C932 1.478 . S
C931 H925 0.930 . S
C931 C927 1.400 . S
C931 C930 1.385 . S
C932 C930 1.478 . S
C932 C934 1.381 . S
C932 C938 1.383 . S
C933 C929 1.495 . S
C933 H939 0.959 . S
C933 H940 0.961 . S
C933 H941 0.960 . S
C934 C932 1.381 . S
C934 C935 1.394 1_554 S
C934 H942 0.930 1_554 S
C935 C934 1.394 1_556 S
C935 C936 1.383 . S
C935 H943 0.929 . S
C936 C935 1.383 . S
C936 C937 1.377 1_556 S
C937 H921 0.930 1_655 S
C937 C936 1.377 1_554 S
C937 C938 1.379 . S
C938 H922 0.931 . S
C938 C932 1.383 . S
C938 C937 1.379 . S
H939 C933 0.959 . S
H940 C933 0.961 . S
H941 C933 0.960 . S
H942 C934 0.930 1_556 S
H943 C935 0.929 . S
H944 C952 0.929 . S
H945 C954 0.930 . S
H946 C956 0.930 . S
H947 C959 0.929 . S
H948 C962 0.930 . S
H949 C964 0.960 . S
H950 C964 0.960 . S
H951 C964 0.960 . S
C952 H944 0.929 . S
C952 C953 1.377 . S
C952 C954 1.384 . S
C953 C952 1.377 . S
C953 C959 1.390 . S
C954 H945 0.930 . S
C954 C952 1.384 . S
C954 C955 1.372 . S
C955 C954 1.372 . S
C955 C956 1.400 . S
C955 C960 1.490 . S
C956 H946 0.930 . S
C956 C955 1.400 . S
C956 C959 1.386 . S
H957 C973 0.930 . S
H958 C974 0.931 . S
C959 H947 0.929 . S
C959 C953 1.390 . S
C959 C956 1.386 . S
C960 C955 1.490 . S
C960 C962 1.395 . S
C960 C963 1.403 . S
H961 C967 0.930 . S
C962 H948 0.930 . S
C962 C960 1.395 . S
C962 C965 1.403 . S
C963 C960 1.403 . S
C963 C964 1.524 . S
C963 C967 1.400 . S
C964 H949 0.960 . S
C964 H950 0.960 . S
C964 H951 0.960 . S
C964 C963 1.524 . S
C965 C962 1.403 . S
C965 C966 1.392 . S
C965 C969 1.495 . S
C966 C965 1.392 . S
C966 C967 1.385 . S
C966 C968 1.478 . S
C967 H961 0.930 . S
C967 C963 1.400 . S
C967 C966 1.385 . S
C968 C966 1.478 . S
C968 C970 1.381 . S
C968 C974 1.383 . S
C969 C965 1.495 . S
C969 H975 0.959 . S
C969 H976 0.961 . S
C969 H977 0.960 . S
C970 C968 1.381 . S
C970 C971 1.394 . S
C970 H978 0.930 . S
C971 C970 1.394 . S
C971 C972 1.383 . S
C971 H979 0.929 . S
C972 C971 1.383 . S
C972 C973 1.377 . S
C973 H957 0.930 . S
C973 C972 1.377 . S
C973 C974 1.379 . S
C974 H958 0.931 . S
C974 C968 1.383 . S
C974 C973 1.379 . S
H975 C969 0.959 . S
H976 C969 0.961 . S
H977 C969 0.960 . S
H978 C970 0.930 . S
H979 C971 0.929 . S
H980 C988 0.929 . S
H981 C990 0.930 . S
H982 C992 0.930 . S
H983 C995 0.929 . S
H984 C998 0.930 . S
H985 C1000 0.960 . S
H986 C1000 0.960 . S
H987 C1000 0.960 . S
C988 H980 0.929 . S
C988 C989 1.377 . S
C988 C990 1.384 . S
C989 C988 1.377 . S
C989 C995 1.390 . S
C990 H981 0.930 . S
C990 C988 1.384 . S
C990 C991 1.372 . S
C991 C990 1.372 . S
C991 C992 1.400 . S
C991 C996 1.490 . S
C992 H982 0.930 . S
C992 C991 1.400 . S
C992 C995 1.386 . S
H993 C1009 0.930 . S
H994 C1010 0.931 . S
C995 H983 0.929 . S
C995 C989 1.390 . S
C995 C992 1.386 . S
C996 C991 1.490 . S
C996 C998 1.395 . S
C996 C999 1.403 . S
H997 C1003 0.930 . S
C998 H984 0.930 . S
C998 C996 1.395 . S
C998 C1001 1.403 . S
C999 C996 1.403 . S
C999 C1000 1.524 . S
C999 C1003 1.400 . S
C1000 H985 0.960 . S
C1000 H986 0.960 . S
C1000 H987 0.960 . S
C1000 C999 1.524 . S
C1001 C998 1.403 . S
C1001 C1002 1.392 . S
C1001 C1005 1.495 . S
C1002 C1001 1.392 . S
C1002 C1003 1.385 . S
C1002 C1004 1.478 . S
C1003 H997 0.930 . S
C1003 C999 1.400 . S
C1003 C1002 1.385 . S
C1004 C1002 1.478 . S
C1004 C1006 1.381 . S
C1004 C1010 1.383 . S
C1005 C1001 1.495 . S
C1005 H1011 0.959 . S
C1005 H1012 0.961 . S
C1005 H1013 0.960 . S
C1006 C1004 1.381 . S
C1006 C1007 1.394 . S
C1006 H1014 0.930 . S
C1007 C1006 1.394 . S
C1007 C1008 1.383 . S
C1007 H1015 0.929 . S
C1008 C1007 1.383 . S
C1008 C1009 1.377 . S
C1009 H993 0.930 . S
C1009 C1008 1.377 . S
C1009 C1010 1.379 . S
C1010 H994 0.931 . S
C1010 C1004 1.383 . S
C1010 C1009 1.379 . S
H1011 C1005 0.959 . S
H1012 C1005 0.961 . S
H1013 C1005 0.960 . S
H1014 C1006 0.930 . S
H1015 C1007 0.929 . S
H1016 C1024 0.929 . S
H1017 C1026 0.930 . S
H1018 C1028 0.930 . S
H1019 C1031 0.929 . S
H1020 C1034 0.930 . S
H1021 C1036 0.960 . S
H1022 C1036 0.960 . S
H1023 C1036 0.960 . S
C1024 H1016 0.929 . S
C1024 C1025 1.377 . S
C1024 C1026 1.384 . S
C1025 C1024 1.377 . S
C1025 C1031 1.390 . S
C1026 H1017 0.930 . S
C1026 C1024 1.384 . S
C1026 C1027 1.372 . S
C1027 C1026 1.372 . S
C1027 C1028 1.400 . S
C1027 C1032 1.490 . S
C1028 H1018 0.930 . S
C1028 C1027 1.400 . S
C1028 C1031 1.386 . S
H1029 C1045 0.930 . S
H1030 C1046 0.931 . S
C1031 H1019 0.929 . S
C1031 C1025 1.390 . S
C1031 C1028 1.386 . S
C1032 C1027 1.490 . S
C1032 C1034 1.395 . S
C1032 C1035 1.403 . S
H1033 C1039 0.930 . S
C1034 H1020 0.930 . S
C1034 C1032 1.395 . S
C1034 C1037 1.403 . S
C1035 C1032 1.403 . S
C1035 C1036 1.524 . S
C1035 C1039 1.400 . S
C1036 H1021 0.960 . S
C1036 H1022 0.960 . S
C1036 H1023 0.960 . S
C1036 C1035 1.524 . S
C1037 C1034 1.403 . S
C1037 C1038 1.392 . S
C1037 C1041 1.495 . S
C1038 C1037 1.392 . S
C1038 C1039 1.385 . S
C1038 C1040 1.478 . S
C1039 H1033 0.930 . S
C1039 C1035 1.400 . S
C1039 C1038 1.385 . S
C1040 C1038 1.478 . S
C1040 C1042 1.381 . S
C1040 C1046 1.383 . S
C1041 C1037 1.495 . S
C1041 H1047 0.959 . S
C1041 H1048 0.961 . S
C1041 H1049 0.960 . S
C1042 C1040 1.381 . S
C1042 C1043 1.394 . S
C1042 H1050 0.930 . S
C1043 C1042 1.394 . S
C1043 C1044 1.383 1_554 S
C1043 H1051 0.929 1_554 S
C1044 C1043 1.383 1_556 S
C1044 C1045 1.377 . S
C1045 H1029 0.930 . S
C1045 C1044 1.377 . S
C1045 C1046 1.379 1_556 S
C1046 H1030 0.931 . S
C1046 C1040 1.383 . S
C1046 C1045 1.379 1_554 S
H1047 C1041 0.959 . S
H1048 C1041 0.961 . S
H1049 C1041 0.960 . S
H1050 C1042 0.930 . S
H1051 C1043 0.929 1_556 S
H1052 C1060 0.929 . S
H1053 C1062 0.930 . S
H1054 C1064 0.930 . S
H1055 C1067 0.929 . S
H1056 C1070 0.930 . S
H1057 C1072 0.960 . S
H1058 C1072 0.960 . S
H1059 C1072 0.960 . S
C1060 H1052 0.929 . S
C1060 C1061 1.377 . S
C1060 C1062 1.384 . S
C1061 C1060 1.377 . S
C1061 C1067 1.390 . S
C1062 H1053 0.930 . S
C1062 C1060 1.384 . S
C1062 C1063 1.372 . S
C1063 C1062 1.372 . S
C1063 C1064 1.400 . S
C1063 C1068 1.490 . S
C1064 H1054 0.930 . S
C1064 C1063 1.400 . S
C1064 C1067 1.386 . S
H1065 C1081 0.930 . S
H1066 C1082 0.931 . S
C1067 H1055 0.929 . S
C1067 C1061 1.390 . S
C1067 C1064 1.386 . S
C1068 C1063 1.490 . S
C1068 C1070 1.395 . S
C1068 C1071 1.403 . S
H1069 C1075 0.930 . S
C1070 H1056 0.930 . S
C1070 C1068 1.395 . S
C1070 C1073 1.403 . S
C1071 C1068 1.403 . S
C1071 C1072 1.524 . S
C1071 C1075 1.400 . S
C1072 H1057 0.960 . S
C1072 H1058 0.960 . S
C1072 H1059 0.960 . S
C1072 C1071 1.524 . S
C1073 C1070 1.403 . S
C1073 C1074 1.392 . S
C1073 C1077 1.495 . S
C1074 C1073 1.392 . S
C1074 C1075 1.385 . S
C1074 C1076 1.478 . S
C1075 H1069 0.930 . S
C1075 C1071 1.400 . S
C1075 C1074 1.385 . S
C1076 C1074 1.478 . S
C1076 C1078 1.381 . S
C1076 C1082 1.383 . S
C1077 C1073 1.495 . S
C1077 H1083 0.959 . S
C1077 H1084 0.961 . S
C1077 H1085 0.960 . S
C1078 C1076 1.381 . S
C1078 C1079 1.394 1_556 S
C1078 H1086 0.930 1_556 S
C1079 C1078 1.394 1_554 S
C1079 C1080 1.383 . S
C1079 H1087 0.929 . S
C1080 C1079 1.383 . S
C1080 C1081 1.377 1_554 S
C1081 H1065 0.930 . S
C1081 C1080 1.377 1_556 S
C1081 C1082 1.379 . S
C1082 H1066 0.931 . S
C1082 C1076 1.383 . S
C1082 C1081 1.379 . S
H1083 C1077 0.959 . S
H1084 C1077 0.961 . S
H1085 C1077 0.960 . S
H1086 C1078 0.930 1_554 S
H1087 C1079 0.929 . S
H1088 C1096 0.929 . S
H1089 C1098 0.930 . S
H1090 C1100 0.931 1_655 S
H1091 C1103 0.929 . S
H1092 C1106 0.930 . S
H1093 C1108 0.960 . S
H1094 C1108 0.960 . S
H1095 C1108 0.960 . S
C1096 H1088 0.929 . S
C1096 C1097 1.377 . S
C1096 C1098 1.384 . S
C1097 C1096 1.377 . S
C1097 C1103 1.390 1_455 S
C1098 H1089 0.930 . S
C1098 C1096 1.384 . S
C1098 C1099 1.372 . S
C1099 C1098 1.372 . S
C1099 C1100 1.398 . S
C1099 C1104 1.490 . S
C1100 H1090 0.931 1_455 S
C1100 C1099 1.398 . S
C1100 C1103 1.386 1_455 S
H1101 C1117 0.930 . S
H1102 C1118 0.931 . S
C1103 H1091 0.929 . S
C1103 C1097 1.390 1_655 S
C1103 C1100 1.386 1_655 S
C1104 C1099 1.490 . S
C1104 C1106 1.395 . S
C1104 C1107 1.403 . S
H1105 C1111 0.930 . S
C1106 H1092 0.930 . S
C1106 C1104 1.395 . S
C1106 C1109 1.403 . S
C1107 C1104 1.403 . S
C1107 C1108 1.524 . S
C1107 C1111 1.400 . S
C1108 H1093 0.960 . S
C1108 H1094 0.960 . S
C1108 H1095 0.960 . S
C1108 C1107 1.524 . S
C1109 C1106 1.403 . S
C1109 C1110 1.392 . S
C1109 C1113 1.495 . S
C1110 C1109 1.392 . S
C1110 C1111 1.385 . S
C1110 C1112 1.478 . S
C1111 H1105 0.930 . S
C1111 C1107 1.400 . S
C1111 C1110 1.385 . S
C1112 C1110 1.478 . S
C1112 C1114 1.381 . S
C1112 C1118 1.383 . S
C1113 C1109 1.495 . S
C1113 H1119 0.959 . S
C1113 H1120 0.961 . S
C1113 H1121 0.960 . S
C1114 C1112 1.381 . S
C1114 C1115 1.394 . S
C1114 H1122 0.930 . S
C1115 C1114 1.394 . S
C1115 C1116 1.383 . S
C1115 H1123 0.929 . S
C1116 C1115 1.383 . S
C1116 C1117 1.377 . S
C1117 H1101 0.930 . S
C1117 C1116 1.377 . S
C1117 C1118 1.379 . S
C1118 H1102 0.931 . S
C1118 C1112 1.383 . S
C1118 C1117 1.379 . S
H1119 C1113 0.959 . S
H1120 C1113 0.961 . S
H1121 C1113 0.960 . S
H1122 C1114 0.930 . S
H1123 C1115 0.929 . S
H1124 C1132 0.929 . S
H1125 C1134 0.930 . S
H1126 C1136 0.930 . S
H1127 C1139 0.929 . S
H1128 C1142 0.930 . S
H1129 C1144 0.960 1_455 S
H1130 C1144 0.960 . S
H1131 C1144 0.960 . S
C1132 H1124 0.929 . S
C1132 C1133 1.377 . S
C1132 C1134 1.384 . S
C1133 C1132 1.377 . S
C1133 C1139 1.390 . S
C1134 H1125 0.930 . S
C1134 C1132 1.384 . S
C1134 C1135 1.372 . S
C1135 C1134 1.372 . S
C1135 C1136 1.400 . S
C1135 C1140 1.490 1_655 S
C1136 H1126 0.930 . S
C1136 C1135 1.400 . S
C1136 C1139 1.386 . S
H1137 C1153 0.930 . S
H1138 C1154 0.931 . S
C1139 H1127 0.929 . S
C1139 C1133 1.390 . S
C1139 C1136 1.386 . S
C1140 C1135 1.490 1_455 S
C1140 C1142 1.395 . S
C1140 C1143 1.403 . S
H1141 C1147 0.930 . S
C1142 H1128 0.930 . S
C1142 C1140 1.395 . S
C1142 C1145 1.403 . S
C1143 C1140 1.403 . S
C1143 C1144 1.524 1_455 S
C1143 C1147 1.400 . S
C1144 H1129 0.960 1_655 S
C1144 H1130 0.960 . S
C1144 H1131 0.960 . S
C1144 C1143 1.524 1_655 S
C1145 C1142 1.403 . S
C1145 C1146 1.392 . S
C1145 C1149 1.495 . S
C1146 C1145 1.392 . S
C1146 C1147 1.385 . S
C1146 C1148 1.478 . S
C1147 H1141 0.930 . S
C1147 C1143 1.400 . S
C1147 C1146 1.385 . S
C1148 C1146 1.478 . S
C1148 C1150 1.381 . S
C1148 C1154 1.383 . S
C1149 C1145 1.495 . S
C1149 H1155 0.959 . S
C1149 H1156 0.961 . S
C1149 H1157 0.960 . S
C1150 C1148 1.381 . S
C1150 C1151 1.394 . S
C1150 H1158 0.930 . S
C1151 C1150 1.394 . S
C1151 C1152 1.383 . S
C1151 H1159 0.929 . S
C1152 C1151 1.383 . S
C1152 C1153 1.377 . S
C1153 H1137 0.930 . S
C1153 C1152 1.377 . S
C1153 C1154 1.379 . S
C1154 H1138 0.931 . S
C1154 C1148 1.383 . S
C1154 C1153 1.379 . S
H1155 C1149 0.959 . S
H1156 C1149 0.961 . S
H1157 C1149 0.960 . S
H1158 C1150 0.930 . S
H1159 C1151 0.929 . S
H1160 C1168 0.929 . S
H1161 C1170 0.930 . S
H1162 C1172 0.930 . S
H1163 C1175 0.929 . S
H1164 C1178 0.930 . S
H1165 C1180 0.960 . S
H1166 C1180 0.960 . S
H1167 C1180 0.960 . S
C1168 H1160 0.929 . S
C1168 C1169 1.377 . S
C1168 C1170 1.384 . S
C1169 C1168 1.377 . S
C1169 C1175 1.390 . S
C1170 H1161 0.930 . S
C1170 C1168 1.384 . S
C1170 C1171 1.372 . S
C1171 C1170 1.372 . S
C1171 C1172 1.400 . S
C1171 C1176 1.490 . S
C1172 H1162 0.930 . S
C1172 C1171 1.400 . S
C1172 C1175 1.386 . S
H1173 C1189 0.930 . S
H1174 C1190 0.931 . S
C1175 H1163 0.929 . S
C1175 C1169 1.390 . S
C1175 C1172 1.386 . S
C1176 C1171 1.490 . S
C1176 C1178 1.395 . S
C1176 C1179 1.403 . S
H1177 C1183 0.930 . S
C1178 H1164 0.930 . S
C1178 C1176 1.395 . S
C1178 C1181 1.403 . S
C1179 C1176 1.403 . S
C1179 C1180 1.524 . S
C1179 C1183 1.400 . S
C1180 H1165 0.960 . S
C1180 H1166 0.960 . S
C1180 H1167 0.960 . S
C1180 C1179 1.524 . S
C1181 C1178 1.403 . S
C1181 C1182 1.392 . S
C1181 C1185 1.495 . S
C1182 C1181 1.392 . S
C1182 C1183 1.385 . S
C1182 C1184 1.478 . S
C1183 H1177 0.930 . S
C1183 C1179 1.400 . S
C1183 C1182 1.385 . S
C1184 C1182 1.478 . S
C1184 C1186 1.381 . S
C1184 C1190 1.383 . S
C1185 C1181 1.495 . S
C1185 H1191 0.959 . S
C1185 H1192 0.961 . S
C1185 H1193 0.960 . S
C1186 C1184 1.381 . S
C1186 C1187 1.394 . S
C1186 H1194 0.930 . S
C1187 C1186 1.394 . S
C1187 C1188 1.383 . S
C1187 H1195 0.929 . S
C1188 C1187 1.383 . S
C1188 C1189 1.377 . S
C1189 H1173 0.930 . S
C1189 C1188 1.377 . S
C1189 C1190 1.379 . S
C1190 H1174 0.931 . S
C1190 C1184 1.383 . S
C1190 C1189 1.379 . S
H1191 C1185 0.959 . S
H1192 C1185 0.961 . S
H1193 C1185 0.960 . S
H1194 C1186 0.930 . S
H1195 C1187 0.929 . S
H1196 C1204 0.929 . S
H1197 C1206 0.930 . S
H1198 C1208 0.930 . S
H1199 C1211 0.929 . S
H1200 C1214 0.930 . S
H1201 C1216 0.960 . S
H1202 C1216 0.960 . S
H1203 C1216 0.960 . S
C1204 H1196 0.929 . S
C1204 C1205 1.377 . S
C1204 C1206 1.384 . S
C1205 C1204 1.377 . S
C1205 C1211 1.390 . S
C1206 H1197 0.930 . S
C1206 C1204 1.384 . S
C1206 C1207 1.372 . S
C1207 C1206 1.372 . S
C1207 C1208 1.400 . S
C1207 C1212 1.490 . S
C1208 H1198 0.930 . S
C1208 C1207 1.400 . S
C1208 C1211 1.386 . S
H1209 C1225 0.930 . S
H1210 C1226 0.931 . S
C1211 H1199 0.929 . S
C1211 C1205 1.390 . S
C1211 C1208 1.386 . S
C1212 C1207 1.490 . S
C1212 C1214 1.395 . S
C1212 C1215 1.403 . S
H1213 C1219 0.930 . S
C1214 H1200 0.930 . S
C1214 C1212 1.395 . S
C1214 C1217 1.403 . S
C1215 C1212 1.403 . S
C1215 C1216 1.524 . S
C1215 C1219 1.400 . S
C1216 H1201 0.960 . S
C1216 H1202 0.960 . S
C1216 H1203 0.960 . S
C1216 C1215 1.524 . S
C1217 C1214 1.403 . S
C1217 C1218 1.392 . S
C1217 C1221 1.495 . S
C1218 C1217 1.392 . S
C1218 C1219 1.385 . S
C1218 C1220 1.478 . S
C1219 H1213 0.930 . S
C1219 C1215 1.400 . S
C1219 C1218 1.385 . S
C1220 C1218 1.478 . S
C1220 C1222 1.381 . S
C1220 C1226 1.383 . S
C1221 C1217 1.495 . S
C1221 H1227 0.959 . S
C1221 H1228 0.961 . S
C1221 H1229 0.960 . S
C1222 C1220 1.381 . S
C1222 C1223 1.394 . S
C1222 H1230 0.930 . S
C1223 C1222 1.394 . S
C1223 C1224 1.383 . S
C1223 H1231 0.929 . S
C1224 C1223 1.383 . S
C1224 C1225 1.377 . S
C1225 H1209 0.930 . S
C1225 C1224 1.377 . S
C1225 C1226 1.379 . S
C1226 H1210 0.931 . S
C1226 C1220 1.383 . S
C1226 C1225 1.379 . S
H1227 C1221 0.959 . S
H1228 C1221 0.961 . S
H1229 C1221 0.960 . S
H1230 C1222 0.930 . S
H1231 C1223 0.929 . S
H1232 C1240 0.929 . S
H1233 C1242 0.930 . S
H1234 C1244 0.930 . S
H1235 C1247 0.929 . S
H1236 C1250 0.923 1_655 S
H1237 C1252 0.960 . S
H1238 C1252 0.960 . S
H1239 C1252 0.960 . S
C1240 H1232 0.929 . S
C1240 C1241 1.377 . S
C1240 C1242 1.384 . S
C1241 C1240 1.377 . S
C1241 C1247 1.390 . S
C1242 H1233 0.930 . S
C1242 C1240 1.384 . S
C1242 C1243 1.372 . S
C1243 C1242 1.372 . S
C1243 C1244 1.400 . S
C1243 C1248 1.490 . S
C1244 H1234 0.930 . S
C1244 C1243 1.400 . S
C1244 C1247 1.386 . S
H1245 C1261 0.930 . S
H1246 C1262 0.931 . S
C1247 H1235 0.929 . S
C1247 C1241 1.390 . S
C1247 C1244 1.386 . S
C1248 C1243 1.490 . S
C1248 C1250 1.395 . S
C1248 C1251 1.403 . S
H1249 C1255 0.930 . S
C1250 H1236 0.923 1_455 S
C1250 C1248 1.395 . S
C1250 C1253 1.403 . S
C1251 C1248 1.403 . S
C1251 C1252 1.524 . S
C1251 C1255 1.400 . S
C1252 H1237 0.960 . S
C1252 H1238 0.960 . S
C1252 H1239 0.960 . S
C1252 C1251 1.524 . S
C1253 C1250 1.403 . S
C1253 C1254 1.392 . S
C1253 C1257 1.495 1_455 S
C1254 C1253 1.392 . S
C1254 C1255 1.385 . S
C1254 C1256 1.478 . S
C1255 H1249 0.930 . S
C1255 C1251 1.400 . S
C1255 C1254 1.385 . S
C1256 C1254 1.478 . S
C1256 C1258 1.381 . S
C1256 C1262 1.383 . S
C1257 C1253 1.495 1_655 S
C1257 H1263 0.959 . S
C1257 H1264 0.961 . S
C1257 H1265 0.960 . S
C1258 C1256 1.381 . S
C1258 C1259 1.394 1_455 S
C1258 H1266 0.926 1_455 S
C1259 C1258 1.394 1_655 S
C1259 C1260 1.375 1_655 S
C1259 H1267 0.929 . S
C1260 C1259 1.375 1_455 S
C1260 C1261 1.400 . S
C1261 H1245 0.930 . S
C1261 C1260 1.400 . S
C1261 C1262 1.379 . S
C1262 H1246 0.931 . S
C1262 C1256 1.383 . S
C1262 C1261 1.379 . S
H1263 C1257 0.959 . S
H1264 C1257 0.961 . S
H1265 C1257 0.960 . S
H1266 C1258 0.926 1_655 S
H1267 C1259 0.929 . S
H1268 C1276 0.929 . S
H1269 C1278 0.930 . S
H1270 C1280 0.930 . S
H1271 C1283 0.929 . S
H1272 C1286 0.930 . S
H1273 C1288 0.960 . S
H1274 C1288 0.960 . S
H1275 C1288 0.960 . S
C1276 H1268 0.929 . S
C1276 C1277 1.377 . S
C1276 C1278 1.384 . S
C1277 C1276 1.377 . S
C1277 C1283 1.390 . S
C1278 H1269 0.930 . S
C1278 C1276 1.384 . S
C1278 C1279 1.372 . S
C1279 C1278 1.372 . S
C1279 C1280 1.400 . S
C1279 C1284 1.490 . S
C1280 H1270 0.930 . S
C1280 C1279 1.400 . S
C1280 C1283 1.386 . S
H1281 C1297 0.930 . S
H1282 C1298 0.931 . S
C1283 H1271 0.929 . S
C1283 C1277 1.390 . S
C1283 C1280 1.386 . S
C1284 C1279 1.490 . S
C1284 C1286 1.395 . S
C1284 C1287 1.403 . S
H1285 C1291 0.930 . S
C1286 H1272 0.930 . S
C1286 C1284 1.395 . S
C1286 C1289 1.403 . S
C1287 C1284 1.403 . S
C1287 C1288 1.524 . S
C1287 C1291 1.400 . S
C1288 H1273 0.960 . S
C1288 H1274 0.960 . S
C1288 H1275 0.960 . S
C1288 C1287 1.524 . S
C1289 C1286 1.403 . S
C1289 C1290 1.392 . S
C1289 C1293 1.495 . S
C1290 C1289 1.392 . S
C1290 C1291 1.385 . S
C1290 C1292 1.478 . S
C1291 H1285 0.930 . S
C1291 C1287 1.400 . S
C1291 C1290 1.385 . S
C1292 C1290 1.478 . S
C1292 C1294 1.381 . S
C1292 C1298 1.383 . S
C1293 C1289 1.495 . S
C1293 H1299 0.959 . S
C1293 H1300 0.961 . S
C1293 H1301 0.960 . S
C1294 C1292 1.381 . S
C1294 C1295 1.394 . S
C1294 H1302 0.930 . S
C1295 C1294 1.394 . S
C1295 C1296 1.383 . S
C1295 H1303 0.929 . S
C1296 C1295 1.383 . S
C1296 C1297 1.377 . S
C1297 H1281 0.930 . S
C1297 C1296 1.377 . S
C1297 C1298 1.379 . S
C1298 H1282 0.931 . S
C1298 C1292 1.383 . S
C1298 C1297 1.379 . S
H1299 C1293 0.959 . S
H1300 C1293 0.961 . S
H1301 C1293 0.960 . S
H1302 C1294 0.930 . S
H1303 C1295 0.929 . S
H1304 C1312 0.929 . S
H1305 C1314 0.930 . S
H1306 C1316 0.930 . S
H1307 C1319 0.929 . S
H1308 C1322 0.930 . S
H1309 C1324 0.960 . S
H1310 C1324 0.960 . S
H1311 C1324 0.960 . S
C1312 H1304 0.929 . S
C1312 C1313 1.377 . S
C1312 C1314 1.384 . S
C1313 C1312 1.377 . S
C1313 C1319 1.390 . S
C1314 H1305 0.930 . S
C1314 C1312 1.384 . S
C1314 C1315 1.372 . S
C1315 C1314 1.372 . S
C1315 C1316 1.400 . S
C1315 C1320 1.490 . S
C1316 H1306 0.930 . S
C1316 C1315 1.400 . S
C1316 C1319 1.386 . S
H1317 C1333 0.930 . S
H1318 C1334 0.931 . S
C1319 H1307 0.929 . S
C1319 C1313 1.390 . S
C1319 C1316 1.386 . S
C1320 C1315 1.490 . S
C1320 C1322 1.395 . S
C1320 C1323 1.403 . S
H1321 C1327 0.930 . S
C1322 H1308 0.930 . S
C1322 C1320 1.395 . S
C1322 C1325 1.403 . S
C1323 C1320 1.403 . S
C1323 C1324 1.524 . S
C1323 C1327 1.400 . S
C1324 H1309 0.960 . S
C1324 H1310 0.960 . S
C1324 H1311 0.960 . S
C1324 C1323 1.524 . S
C1325 C1322 1.403 . S
C1325 C1326 1.392 . S
C1325 C1329 1.495 . S
C1326 C1325 1.392 . S
C1326 C1327 1.385 . S
C1326 C1328 1.478 . S
C1327 H1321 0.930 . S
C1327 C1323 1.400 . S
C1327 C1326 1.385 . S
C1328 C1326 1.478 . S
C1328 C1330 1.381 . S
C1328 C1334 1.383 . S
C1329 C1325 1.495 . S
C1329 H1335 0.959 . S
C1329 H1336 0.961 . S
C1329 H1337 0.960 . S
C1330 C1328 1.381 . S
C1330 C1331 1.394 . S
C1330 H1338 0.930 . S
C1331 C1330 1.394 . S
C1331 C1332 1.383 . S
C1331 H1339 0.929 . S
C1332 C1331 1.383 . S
C1332 C1333 1.377 . S
C1333 H1317 0.930 . S
C1333 C1332 1.377 . S
C1333 C1334 1.379 . S
C1334 H1318 0.931 . S
C1334 C1328 1.383 . S
C1334 C1333 1.379 . S
H1335 C1329 0.959 . S
H1336 C1329 0.961 . S
H1337 C1329 0.960 . S
H1338 C1330 0.930 . S
H1339 C1331 0.929 . S
H1340 C1348 0.929 . S
H1341 C1350 0.930 . S
H1342 C1352 0.930 . S
H1343 C1355 0.929 . S
H1344 C1358 0.930 . S
H1345 C1360 0.960 . S
H1346 C1360 0.960 . S
H1347 C1360 0.960 . S
C1348 H1340 0.929 . S
C1348 C1349 1.377 . S
C1348 C1350 1.384 . S
C1349 C1348 1.377 . S
C1349 C1355 1.390 . S
C1350 H1341 0.930 . S
C1350 C1348 1.384 . S
C1350 C1351 1.372 . S
C1351 C1350 1.372 . S
C1351 C1352 1.400 . S
C1351 C1356 1.490 . S
C1352 H1342 0.930 . S
C1352 C1351 1.400 . S
C1352 C1355 1.386 . S
H1353 C1369 0.930 . S
H1354 C1370 0.931 . S
C1355 H1343 0.929 . S
C1355 C1349 1.390 . S
C1355 C1352 1.386 . S
C1356 C1351 1.490 . S
C1356 C1358 1.395 . S
C1356 C1359 1.403 . S
H1357 C1363 0.930 . S
C1358 H1344 0.930 . S
C1358 C1356 1.395 . S
C1358 C1361 1.403 . S
C1359 C1356 1.403 . S
C1359 C1360 1.524 . S
C1359 C1363 1.400 . S
C1360 H1345 0.960 . S
C1360 H1346 0.960 . S
C1360 H1347 0.960 . S
C1360 C1359 1.524 . S
C1361 C1358 1.403 . S
C1361 C1362 1.392 . S
C1361 C1365 1.495 . S
C1362 C1361 1.392 . S
C1362 C1363 1.385 . S
C1362 C1364 1.478 1_455 S
C1363 H1357 0.930 . S
C1363 C1359 1.400 . S
C1363 C1362 1.385 . S
C1364 C1362 1.478 1_655 S
C1364 C1366 1.381 . S
C1364 C1370 1.383 . S
C1365 C1361 1.495 . S
C1365 H1371 0.959 . S
C1365 H1372 0.961 . S
C1365 H1373 0.960 . S
C1366 C1364 1.381 . S
C1366 C1367 1.394 . S
C1366 H1374 0.930 . S
C1367 C1366 1.394 . S
C1367 C1368 1.383 . S
C1367 H1375 0.929 . S
C1368 C1367 1.383 . S
C1368 C1369 1.377 . S
C1369 H1353 0.930 . S
C1369 C1368 1.377 . S
C1369 C1370 1.379 . S
C1370 H1354 0.931 . S
C1370 C1364 1.383 . S
C1370 C1369 1.379 . S
H1371 C1365 0.959 . S
H1372 C1365 0.961 . S
H1373 C1365 0.960 . S
H1374 C1366 0.930 . S
H1375 C1367 0.929 . S
H1376 C1384 0.929 . S
H1377 C1386 0.930 . S
H1378 C1388 0.923 1_556 S
H1379 C1391 0.929 . S
H1380 C1394 0.930 . S
H1381 C1396 0.960 . S
H1382 C1396 0.960 . S
H1383 C1396 0.960 . S
C1384 H1376 0.929 . S
C1384 C1385 1.377 . S
C1384 C1386 1.384 . S
C1385 C1384 1.377 . S
C1385 C1391 1.390 . S
C1386 H1377 0.930 . S
C1386 C1384 1.384 . S
C1386 C1387 1.372 . S
C1387 C1386 1.372 . S
C1387 C1388 1.400 . S
C1387 C1392 1.490 . S
C1388 H1378 0.923 1_554 S
C1388 C1387 1.400 . S
C1388 C1391 1.386 . S
H1389 C1405 0.930 . S
H1390 C1406 0.931 . S
C1391 H1379 0.929 . S
C1391 C1385 1.390 . S
C1391 C1388 1.386 . S
C1392 C1387 1.490 . S
C1392 C1394 1.395 . S
C1392 C1395 1.403 1_554 S
H1393 C1399 0.930 . S
C1394 H1380 0.930 . S
C1394 C1392 1.395 . S
C1394 C1397 1.403 1_545 S
C1395 C1392 1.403 1_556 S
C1395 C1396 1.524 . S
C1395 C1399 1.400 1_545 S
C1396 H1381 0.960 . S
C1396 H1382 0.960 . S
C1396 H1383 0.960 . S
C1396 C1395 1.524 . S
C1397 C1394 1.403 1_565 S
C1397 C1398 1.392 1_554 S
C1397 C1401 1.495 . S
C1398 C1397 1.392 1_556 S
C1398 C1399 1.385 . S
C1398 C1400 1.478 . S
C1399 H1393 0.930 . S
C1399 C1395 1.400 1_565 S
C1399 C1398 1.385 . S
C1400 C1398 1.478 . S
C1400 C1402 1.381 . S
C1400 C1406 1.383 . S
C1401 C1397 1.495 . S
C1401 H1407 0.959 . S
C1401 H1408 0.961 . S
C1401 H1409 0.960 . S
C1402 C1400 1.381 . S
C1402 C1403 1.394 . S
C1402 H1410 0.930 1_556 S
C1403 C1402 1.394 . S
C1403 C1404 1.383 . S
C1403 H1411 0.929 . S
C1404 C1403 1.383 . S
C1404 C1405 1.377 . S
C1405 H1389 0.930 . S
C1405 C1404 1.377 . S
C1405 C1406 1.379 . S
C1406 H1390 0.931 . S
C1406 C1400 1.383 . S
C1406 C1405 1.379 . S
H1407 C1401 0.959 . S
H1408 C1401 0.961 . S
H1409 C1401 0.960 . S
H1410 C1402 0.930 1_554 S
H1411 C1403 0.929 . S
H1412 C1420 0.929 . S
H1413 C1422 0.930 . S
H1414 C1424 0.930 . S
H1415 C1427 0.929 . S
H1416 C1430 0.930 . S
H1417 C1432 0.960 . S
H1418 C1432 0.960 . S
H1419 C1432 0.960 . S
C1420 H1412 0.929 . S
C1420 C1421 1.377 . S
C1420 C1422 1.384 . S
C1421 C1420 1.377 . S
C1421 C1427 1.390 . S
C1422 H1413 0.930 . S
C1422 C1420 1.384 . S
C1422 C1423 1.372 . S
C1423 C1422 1.372 . S
C1423 C1424 1.400 . S
C1423 C1428 1.490 . S
C1424 H1414 0.930 . S
C1424 C1423 1.400 . S
C1424 C1427 1.386 . S
H1425 C1441 0.930 . S
H1426 C1442 0.931 . S
C1427 H1415 0.929 . S
C1427 C1421 1.390 . S
C1427 C1424 1.386 . S
C1428 C1423 1.490 . S
C1428 C1430 1.395 . S
C1428 C1431 1.403 . S
H1429 C1435 0.930 . S
C1430 H1416 0.930 . S
C1430 C1428 1.395 . S
C1430 C1433 1.403 . S
C1431 C1428 1.403 . S
C1431 C1432 1.524 . S
C1431 C1435 1.400 . S
C1432 H1417 0.960 . S
C1432 H1418 0.960 . S
C1432 H1419 0.960 . S
C1432 C1431 1.524 . S
C1433 C1430 1.403 . S
C1433 C1434 1.392 . S
C1433 C1437 1.495 . S
C1434 C1433 1.392 . S
C1434 C1435 1.385 . S
C1434 C1436 1.478 . S
C1435 H1429 0.930 . S
C1435 C1431 1.400 . S
C1435 C1434 1.385 . S
C1436 C1434 1.478 . S
C1436 C1438 1.381 . S
C1436 C1442 1.383 . S
C1437 C1433 1.495 . S
C1437 H1443 0.959 . S
C1437 H1444 0.961 . S
C1437 H1445 0.960 . S
C1438 C1436 1.381 . S
C1438 C1439 1.394 . S
C1438 H1446 0.930 . S
C1439 C1438 1.394 . S
C1439 C1440 1.383 . S
C1439 H1447 0.929 . S
C1440 C1439 1.383 . S
C1440 C1441 1.377 . S
C1441 H1425 0.930 . S
C1441 C1440 1.377 . S
C1441 C1442 1.379 . S
C1442 H1426 0.931 . S
C1442 C1436 1.383 . S
C1442 C1441 1.379 . S
H1443 C1437 0.959 . S
H1444 C1437 0.961 . S
H1445 C1437 0.960 . S
H1446 C1438 0.930 . S
H1447 C1439 0.929 . S
H1448 C1456 0.929 . S
H1449 C1458 0.930 . S
H1450 C1460 0.930 . S
H1451 C1463 0.929 . S
H1452 C1466 0.930 . S
H1453 C1468 0.960 1_565 S
H1454 C1468 0.960 . S
H1455 C1468 0.960 . S
C1456 H1448 0.929 . S
C1456 C1457 1.377 . S
C1456 C1458 1.384 . S
C1457 C1456 1.377 . S
C1457 C1463 1.390 . S
C1458 H1449 0.930 . S
C1458 C1456 1.384 . S
C1458 C1459 1.372 . S
C1459 C1458 1.372 . S
C1459 C1460 1.400 . S
C1459 C1464 1.490 . S
C1460 H1450 0.930 . S
C1460 C1459 1.400 . S
C1460 C1463 1.386 . S
H1461 C1477 0.930 . S
H1462 C1478 0.931 . S
C1463 H1451 0.929 . S
C1463 C1457 1.390 . S
C1463 C1460 1.386 . S
C1464 C1459 1.490 . S
C1464 C1466 1.395 . S
C1464 C1467 1.403 . S
H1465 C1471 0.930 . S
C1466 H1452 0.930 . S
C1466 C1464 1.395 . S
C1466 C1469 1.403 1_545 S
C1467 C1464 1.403 . S
C1467 C1468 1.524 . S
C1467 C1471 1.400 1_545 S
C1468 H1453 0.960 1_545 S
C1468 H1454 0.960 . S
C1468 H1455 0.960 . S
C1468 C1467 1.524 . S
C1469 C1466 1.403 1_565 S
C1469 C1470 1.392 . S
C1469 C1473 1.495 . S
C1470 C1469 1.392 . S
C1470 C1471 1.385 . S
C1470 C1472 1.478 . S
C1471 H1465 0.930 . S
C1471 C1467 1.400 1_565 S
C1471 C1470 1.385 . S
C1472 C1470 1.478 . S
C1472 C1474 1.381 . S
C1472 C1478 1.383 . S
C1473 C1469 1.495 . S
C1473 H1479 0.959 1_565 S
C1473 H1480 0.961 . S
C1473 H1481 0.960 . S
C1474 C1472 1.381 . S
C1474 C1475 1.394 . S
C1474 H1482 0.930 . S
C1475 C1474 1.394 . S
C1475 C1476 1.383 . S
C1475 H1483 0.929 . S
C1476 C1475 1.383 . S
C1476 C1477 1.377 . S
C1477 H1461 0.930 . S
C1477 C1476 1.377 . S
C1477 C1478 1.379 . S
C1478 H1462 0.931 . S
C1478 C1472 1.383 . S
C1478 C1477 1.379 . S
H1479 C1473 0.959 1_545 S
H1480 C1473 0.961 . S
H1481 C1473 0.960 . S
H1482 C1474 0.930 . S
H1483 C1475 0.929 . S
H1484 C1492 0.929 . S
H1485 C1494 0.930 . S
H1486 C1496 0.930 . S
H1487 C1499 0.929 . S
H1488 C1502 0.930 . S
H1489 C1504 0.960 . S
H1490 C1504 0.960 . S
H1491 C1504 0.960 . S
C1492 H1484 0.929 . S
C1492 C1493 1.377 . S
C1492 C1494 1.384 . S
C1493 C1492 1.377 . S
C1493 C1499 1.390 . S
C1494 H1485 0.930 . S
C1494 C1492 1.384 . S
C1494 C1495 1.372 . S
C1495 C1494 1.372 . S
C1495 C1496 1.400 . S
C1495 C1500 1.490 . S
C1496 H1486 0.930 . S
C1496 C1495 1.400 . S
C1496 C1499 1.386 . S
H1497 C1513 0.930 . S
H1498 C1514 0.931 . S
C1499 H1487 0.929 . S
C1499 C1493 1.390 . S
C1499 C1496 1.386 . S
C1500 C1495 1.490 . S
C1500 C1502 1.395 . S
C1500 C1503 1.403 . S
H1501 C1507 0.930 . S
C1502 H1488 0.930 . S
C1502 C1500 1.395 . S
C1502 C1505 1.403 . S
C1503 C1500 1.403 . S
C1503 C1504 1.524 . S
C1503 C1507 1.400 . S
C1504 H1489 0.960 . S
C1504 H1490 0.960 . S
C1504 H1491 0.960 . S
C1504 C1503 1.524 . S
C1505 C1502 1.403 . S
C1505 C1506 1.392 . S
C1505 C1509 1.495 . S
C1506 C1505 1.392 . S
C1506 C1507 1.385 . S
C1506 C1508 1.478 . S
C1507 H1501 0.930 . S
C1507 C1503 1.400 . S
C1507 C1506 1.385 . S
C1508 C1506 1.478 . S
C1508 C1510 1.381 . S
C1508 C1514 1.383 . S
C1509 C1505 1.495 . S
C1509 H1515 0.959 . S
C1509 H1516 0.961 . S
C1509 H1517 0.960 . S
C1510 C1508 1.381 . S
C1510 C1511 1.394 . S
C1510 H1518 0.930 . S
C1511 C1510 1.394 . S
C1511 C1512 1.383 . S
C1511 H1519 0.929 . S
C1512 C1511 1.383 . S
C1512 C1513 1.377 . S
C1513 H1497 0.930 . S
C1513 C1512 1.377 . S
C1513 C1514 1.379 . S
C1514 H1498 0.931 . S
C1514 C1508 1.383 . S
C1514 C1513 1.379 . S
H1515 C1509 0.959 . S
H1516 C1509 0.961 . S
H1517 C1509 0.960 . S
H1518 C1510 0.930 . S
H1519 C1511 0.929 . S
H1520 C1528 0.929 . S
H1521 C1530 0.930 . S
H1522 C1532 0.930 . S
H1523 C1535 0.929 . S
H1524 C1538 0.930 . S
H1525 C1540 0.960 . S
H1526 C1540 0.960 . S
H1527 C1540 0.960 . S
C1528 H1520 0.929 . S
C1528 C1529 1.377 . S
C1528 C1530 1.384 . S
C1529 C1528 1.377 . S
C1529 C1535 1.390 . S
C1530 H1521 0.930 . S
C1530 C1528 1.384 . S
C1530 C1531 1.372 . S
C1531 C1530 1.372 . S
C1531 C1532 1.400 . S
C1531 C1536 1.490 . S
C1532 H1522 0.930 . S
C1532 C1531 1.400 . S
C1532 C1535 1.386 . S
H1533 C1549 0.930 . S
H1534 C1550 0.931 . S
C1535 H1523 0.929 . S
C1535 C1529 1.390 . S
C1535 C1532 1.386 . S
C1536 C1531 1.490 . S
C1536 C1538 1.395 . S
C1536 C1539 1.403 . S
H1537 C1543 0.930 . S
C1538 H1524 0.930 . S
C1538 C1536 1.395 . S
C1538 C1541 1.403 . S
C1539 C1536 1.403 . S
C1539 C1540 1.524 . S
C1539 C1543 1.400 . S
C1540 H1525 0.960 . S
C1540 H1526 0.960 . S
C1540 H1527 0.960 . S
C1540 C1539 1.524 . S
C1541 C1538 1.403 . S
C1541 C1542 1.392 . S
C1541 C1545 1.495 . S
C1542 C1541 1.392 . S
C1542 C1543 1.385 . S
C1542 C1544 1.478 . S
C1543 H1537 0.930 . S
C1543 C1539 1.400 . S
C1543 C1542 1.385 . S
C1544 C1542 1.478 . S
C1544 C1546 1.381 . S
C1544 C1550 1.383 . S
C1545 C1541 1.495 . S
C1545 H1551 0.959 . S
C1545 H1552 0.961 . S
C1545 H1553 0.960 . S
C1546 C1544 1.381 . S
C1546 C1547 1.394 . S
C1546 H1554 0.930 . S
C1547 C1546 1.394 . S
C1547 C1548 1.383 . S
C1547 H1555 0.929 . S
C1548 C1547 1.383 . S
C1548 C1549 1.377 . S
C1549 H1533 0.930 . S
C1549 C1548 1.377 . S
C1549 C1550 1.379 . S
C1550 H1534 0.931 . S
C1550 C1544 1.383 . S
C1550 C1549 1.379 . S
H1551 C1545 0.959 . S
H1552 C1545 0.961 . S
H1553 C1545 0.960 . S
H1554 C1546 0.930 . S
H1555 C1547 0.929 . S
H1556 C1564 0.929 . S
H1557 C1566 0.930 . S
H1558 C1568 0.930 . S
H1559 C1571 0.929 . S
H1560 C1574 0.930 . S
H1561 C1576 0.960 . S
H1562 C1576 0.960 . S
H1563 C1576 0.960 . S
C1564 H1556 0.929 . S
C1564 C1565 1.377 . S
C1564 C1566 1.384 . S
C1565 C1564 1.377 . S
C1565 C1571 1.390 . S
C1566 H1557 0.930 . S
C1566 C1564 1.384 . S
C1566 C1567 1.372 . S
C1567 C1566 1.372 . S
C1567 C1568 1.400 . S
C1567 C1572 1.490 . S
C1568 H1558 0.930 . S
C1568 C1567 1.400 . S
C1568 C1571 1.386 . S
H1569 C1585 0.930 . S
H1570 C1586 0.931 . S
C1571 H1559 0.929 . S
C1571 C1565 1.390 . S
C1571 C1568 1.386 . S
C1572 C1567 1.490 . S
C1572 C1574 1.395 . S
C1572 C1575 1.403 . S
H1573 C1579 0.930 . S
C1574 H1560 0.930 . S
C1574 C1572 1.395 . S
C1574 C1577 1.403 . S
C1575 C1572 1.403 . S
C1575 C1576 1.524 . S
C1575 C1579 1.400 . S
C1576 H1561 0.960 . S
C1576 H1562 0.960 . S
C1576 H1563 0.960 . S
C1576 C1575 1.524 . S
C1577 C1574 1.403 . S
C1577 C1578 1.392 . S
C1577 C1581 1.495 . S
C1578 C1577 1.392 . S
C1578 C1579 1.385 . S
C1578 C1580 1.478 . S
C1579 H1573 0.930 . S
C1579 C1575 1.400 . S
C1579 C1578 1.385 . S
C1580 C1578 1.478 . S
C1580 C1582 1.381 . S
C1580 C1586 1.383 . S
C1581 C1577 1.495 . S
C1581 H1587 0.959 . S
C1581 H1588 0.961 . S
C1581 H1589 0.960 . S
C1582 C1580 1.381 . S
C1582 C1583 1.394 . S
C1582 H1590 0.930 . S
C1583 C1582 1.394 . S
C1583 C1584 1.383 . S
C1583 H1591 0.929 . S
C1584 C1583 1.383 . S
C1584 C1585 1.377 . S
C1585 H1569 0.930 . S
C1585 C1584 1.377 . S
C1585 C1586 1.379 . S
C1586 H1570 0.931 . S
C1586 C1580 1.383 . S
C1586 C1585 1.379 . S
H1587 C1581 0.959 . S
H1588 C1581 0.961 . S
H1589 C1581 0.960 . S
H1590 C1582 0.930 . S
H1591 C1583 0.929 . S
H1592 C1600 0.929 . S
H1593 C1602 0.930 . S
H1594 C1604 0.930 . S
H1595 C1607 0.929 . S
H1596 C1610 0.930 . S
H1597 C1612 0.960 . S
H1598 C1612 0.960 . S
H1599 C1612 0.960 . S
C1600 H1592 0.929 . S
C1600 C1601 1.377 . S
C1600 C1602 1.384 . S
C1601 C1600 1.377 . S
C1601 C1607 1.390 . S
C1602 H1593 0.930 . S
C1602 C1600 1.384 . S
C1602 C1603 1.372 . S
C1603 C1602 1.372 . S
C1603 C1604 1.400 . S
C1603 C1608 1.490 . S
C1604 H1594 0.930 . S
C1604 C1603 1.400 . S
C1604 C1607 1.386 . S
H1605 C1621 0.930 . S
H1606 C1622 0.931 . S
C1607 H1595 0.929 . S
C1607 C1601 1.390 . S
C1607 C1604 1.386 . S
C1608 C1603 1.490 . S
C1608 C1610 1.395 . S
C1608 C1611 1.403 . S
H1609 C1615 0.930 . S
C1610 H1596 0.930 . S
C1610 C1608 1.395 . S
C1610 C1613 1.403 . S
C1611 C1608 1.403 . S
C1611 C1612 1.524 . S
C1611 C1615 1.400 . S
C1612 H1597 0.960 . S
C1612 H1598 0.960 . S
C1612 H1599 0.960 . S
C1612 C1611 1.524 . S
C1613 C1610 1.403 . S
C1613 C1614 1.392 . S
C1613 C1617 1.495 . S
C1614 C1613 1.392 . S
C1614 C1615 1.385 . S
C1614 C1616 1.478 . S
C1615 H1609 0.930 . S
C1615 C1611 1.400 . S
C1615 C1614 1.385 . S
C1616 C1614 1.478 . S
C1616 C1618 1.381 . S
C1616 C1622 1.383 . S
C1617 C1613 1.495 . S
C1617 H1623 0.959 . S
C1617 H1624 0.961 . S
C1617 H1625 0.960 . S
C1618 C1616 1.381 . S
C1618 C1619 1.394 . S
C1618 H1626 0.930 . S
C1619 C1618 1.394 . S
C1619 C1620 1.383 . S
C1619 H1627 0.929 . S
C1620 C1619 1.383 . S
C1620 C1621 1.377 . S
C1621 H1605 0.930 . S
C1621 C1620 1.377 . S
C1621 C1622 1.379 . S
C1622 H1606 0.931 . S
C1622 C1616 1.383 . S
C1622 C1621 1.379 . S
H1623 C1617 0.959 . S
H1624 C1617 0.961 . S
H1625 C1617 0.960 . S
H1626 C1618 0.930 . S
H1627 C1619 0.929 . S
H1628 C1636 0.896 1_655 S
H1629 C1638 0.919 1_655 S
H1630 C1640 0.930 . S
H1631 C1643 0.929 . S
H1632 C1646 0.969 . S
H1633 C1648 0.960 . S
H1634 C1648 0.960 . S
H1635 C1648 0.960 1_556 S
C1636 H1628 0.896 1_455 S
C1636 C1637 1.412 . S
C1636 C1638 1.383 . S
C1637 C1636 1.412 . S
C1637 C1643 1.390 . S
C1638 H1629 0.919 1_455 S
C1638 C1636 1.383 . S
C1638 C1639 1.383 . S
C1639 C1638 1.383 . S
C1639 C1640 1.400 . S
C1639 C1644 1.490 . S
C1640 H1630 0.930 . S
C1640 C1639 1.400 . S
C1640 C1643 1.386 . S
H1641 C1657 0.930 . S
H1642 C1658 0.931 . S
C1643 H1631 0.929 . S
C1643 C1637 1.390 . S
C1643 C1640 1.386 . S
C1644 C1639 1.490 . S
C1644 C1646 1.354 1_455 S
C1644 C1647 1.403 1_556 S
H1645 C1651 0.930 . S
C1646 H1632 0.969 . S
C1646 C1644 1.354 1_655 S
C1646 C1649 1.408 . S
C1647 C1644 1.403 1_554 S
C1647 C1648 1.524 . S
C1647 C1651 1.400 . S
C1648 H1633 0.960 . S
C1648 H1634 0.960 . S
C1648 H1635 0.960 1_554 S
C1648 C1647 1.524 . S
C1649 C1646 1.408 . S
C1649 C1650 1.392 1_656 S
C1649 C1653 1.495 . S
C1650 C1649 1.392 1_454 S
C1650 C1651 1.385 . S
C1650 C1652 1.478 . S
C1651 H1645 0.930 . S
C1651 C1647 1.400 . S
C1651 C1650 1.385 . S
C1652 C1650 1.478 . S
C1652 C1654 1.338 1_455 S
C1652 C1658 1.383 . S
C1653 C1649 1.495 . S
C1653 H1659 0.959 . S
C1653 H1660 0.961 . S
C1653 H1661 0.960 1_556 S
C1654 C1652 1.338 1_655 S
C1654 C1655 1.392 1_655 S
C1654 H1662 0.980 . S
C1655 C1654 1.392 1_455 S
C1655 C1656 1.380 . S
C1655 H1663 0.932 1_455 S
C1656 C1655 1.380 . S
C1656 C1657 1.377 . S
C1657 H1641 0.930 . S
C1657 C1656 1.377 . S
C1657 C1658 1.379 . S
C1658 H1642 0.931 . S
C1658 C1652 1.383 . S
C1658 C1657 1.379 . S
H1659 C1653 0.959 . S
H1660 C1653 0.961 . S
H1661 C1653 0.960 1_554 S
H1662 C1654 0.980 . S
H1663 C1655 0.932 1_655 S
H1664 C1672 0.929 . S
H1665 C1674 0.930 . S
H1666 C1676 0.930 . S
H1667 C1679 0.929 . S
H1668 C1682 0.930 . S
H1669 C1684 0.960 . S
H1670 C1684 0.960 . S
H1671 C1684 0.960 . S
C1672 H1664 0.929 . S
C1672 C1673 1.377 . S
C1672 C1674 1.384 . S
C1673 C1672 1.377 . S
C1673 C1679 1.390 . S
C1674 H1665 0.930 . S
C1674 C1672 1.384 . S
C1674 C1675 1.372 . S
C1675 C1674 1.372 . S
C1675 C1676 1.400 . S
C1675 C1680 1.490 . S
C1676 H1666 0.930 . S
C1676 C1675 1.400 . S
C1676 C1679 1.386 . S
H1677 C1693 0.930 . S
H1678 C1694 0.931 . S
C1679 H1667 0.929 . S
C1679 C1673 1.390 . S
C1679 C1676 1.386 . S
C1680 C1675 1.490 . S
C1680 C1682 1.395 . S
C1680 C1683 1.403 . S
H1681 C1687 0.930 . S
C1682 H1668 0.930 . S
C1682 C1680 1.395 . S
C1682 C1685 1.403 . S
C1683 C1680 1.403 . S
C1683 C1684 1.524 . S
C1683 C1687 1.400 . S
C1684 H1669 0.960 . S
C1684 H1670 0.960 . S
C1684 H1671 0.960 . S
C1684 C1683 1.524 . S
C1685 C1682 1.403 . S
C1685 C1686 1.392 . S
C1685 C1689 1.495 . S
C1686 C1685 1.392 . S
C1686 C1687 1.385 . S
C1686 C1688 1.478 . S
C1687 H1681 0.930 . S
C1687 C1683 1.400 . S
C1687 C1686 1.385 . S
C1688 C1686 1.478 . S
C1688 C1690 1.381 . S
C1688 C1694 1.383 . S
C1689 C1685 1.495 . S
C1689 H1695 0.959 . S
C1689 H1696 0.961 . S
C1689 H1697 0.960 . S
C1690 C1688 1.381 . S
C1690 C1691 1.394 . S
C1690 H1698 0.930 . S
C1691 C1690 1.394 . S
C1691 C1692 1.383 . S
C1691 H1699 0.929 . S
C1692 C1691 1.383 . S
C1692 C1693 1.377 . S
C1693 H1677 0.930 . S
C1693 C1692 1.377 . S
C1693 C1694 1.379 . S
C1694 H1678 0.931 . S
C1694 C1688 1.383 . S
C1694 C1693 1.379 . S
H1695 C1689 0.959 . S
H1696 C1689 0.961 . S
H1697 C1689 0.960 . S
H1698 C1690 0.930 . S
H1699 C1691 0.929 . S
H1700 C1708 0.929 . S
H1701 C1710 0.930 . S
H1702 C1712 0.930 . S
H1703 C1715 0.929 . S
H1704 C1718 0.930 . S
H1705 C1720 0.960 . S
H1706 C1720 0.960 . S
H1707 C1720 0.960 . S
C1708 H1700 0.929 . S
C1708 C1709 1.377 . S
C1708 C1710 1.384 . S
C1709 C1708 1.377 . S
C1709 C1715 1.390 . S
C1710 H1701 0.930 . S
C1710 C1708 1.384 . S
C1710 C1711 1.372 . S
C1711 C1710 1.372 . S
C1711 C1712 1.400 . S
C1711 C1716 1.490 . S
C1712 H1702 0.930 . S
C1712 C1711 1.400 . S
C1712 C1715 1.386 . S
H1713 C1729 0.930 . S
H1714 C1730 0.931 . S
C1715 H1703 0.929 . S
C1715 C1709 1.390 . S
C1715 C1712 1.386 . S
C1716 C1711 1.490 . S
C1716 C1718 1.395 . S
C1716 C1719 1.403 . S
H1717 C1723 0.930 . S
C1718 H1704 0.930 . S
C1718 C1716 1.395 . S
C1718 C1721 1.403 . S
C1719 C1716 1.403 . S
C1719 C1720 1.524 . S
C1719 C1723 1.400 . S
C1720 H1705 0.960 . S
C1720 H1706 0.960 . S
C1720 H1707 0.960 . S
C1720 C1719 1.524 . S
C1721 C1718 1.403 . S
C1721 C1722 1.392 . S
C1721 C1725 1.495 . S
C1722 C1721 1.392 . S
C1722 C1723 1.385 . S
C1722 C1724 1.478 . S
C1723 H1717 0.930 . S
C1723 C1719 1.400 . S
C1723 C1722 1.385 . S
C1724 C1722 1.478 . S
C1724 C1726 1.381 . S
C1724 C1730 1.383 . S
C1725 C1721 1.495 . S
C1725 H1731 0.959 . S
C1725 H1732 0.961 . S
C1725 H1733 0.960 . S
C1726 C1724 1.381 . S
C1726 C1727 1.394 . S
C1726 H1734 0.930 . S
C1727 C1726 1.394 . S
C1727 C1728 1.383 . S
C1727 H1735 0.929 . S
C1728 C1727 1.383 . S
C1728 C1729 1.377 . S
C1729 H1713 0.930 . S
C1729 C1728 1.377 . S
C1729 C1730 1.379 . S
C1730 H1714 0.931 . S
C1730 C1724 1.383 . S
C1730 C1729 1.379 . S
H1731 C1725 0.959 . S
H1732 C1725 0.961 . S
H1733 C1725 0.960 . S
H1734 C1726 0.930 . S
H1735 C1727 0.929 . S
H1736 C1744 0.929 . S
H1737 C1746 0.930 . S
H1738 C1748 0.930 . S
H1739 C1751 0.929 . S
H1740 C1754 0.930 . S
H1741 C1756 0.960 . S
H1742 C1756 0.960 . S
H1743 C1756 0.960 . S
C1744 H1736 0.929 . S
C1744 C1745 1.377 1_556 S
C1744 C1746 1.384 . S
C1745 C1744 1.377 1_554 S
C1745 C1751 1.390 . S
C1746 H1737 0.930 . S
C1746 C1744 1.384 . S
C1746 C1747 1.372 . S
C1747 C1746 1.372 . S
C1747 C1748 1.400 . S
C1747 C1752 1.490 . S
C1748 H1738 0.930 . S
C1748 C1747 1.400 . S
C1748 C1751 1.386 1_556 S
H1749 C1765 0.930 . S
H1750 C1766 0.931 . S
C1751 H1739 0.929 . S
C1751 C1745 1.390 . S
C1751 C1748 1.386 1_554 S
C1752 C1747 1.490 . S
C1752 C1754 1.395 . S
C1752 C1755 1.403 . S
H1753 C1759 0.930 . S
C1754 H1740 0.930 . S
C1754 C1752 1.395 . S
C1754 C1757 1.403 . S
C1755 C1752 1.403 . S
C1755 C1756 1.524 . S
C1755 C1759 1.400 . S
C1756 H1741 0.960 . S
C1756 H1742 0.960 . S
C1756 H1743 0.960 . S
C1756 C1755 1.524 . S
C1757 C1754 1.403 . S
C1757 C1758 1.392 . S
C1757 C1761 1.495 . S
C1758 C1757 1.392 . S
C1758 C1759 1.385 . S
C1758 C1760 1.478 . S
C1759 H1753 0.930 . S
C1759 C1755 1.400 . S
C1759 C1758 1.385 . S
C1760 C1758 1.478 . S
C1760 C1762 1.381 . S
C1760 C1766 1.383 . S
C1761 C1757 1.495 . S
C1761 H1767 0.959 . S
C1761 H1768 0.961 . S
C1761 H1769 0.960 . S
C1762 C1760 1.381 . S
C1762 C1763 1.394 . S
C1762 H1770 0.930 . S
C1763 C1762 1.394 . S
C1763 C1764 1.383 . S
C1763 H1771 0.929 . S
C1764 C1763 1.383 . S
C1764 C1765 1.377 . S
C1765 H1749 0.930 . S
C1765 C1764 1.377 . S
C1765 C1766 1.379 . S
C1766 H1750 0.931 . S
C1766 C1760 1.383 . S
C1766 C1765 1.379 . S
H1767 C1761 0.959 . S
H1768 C1761 0.961 . S
H1769 C1761 0.960 . S
H1770 C1762 0.930 . S
H1771 C1763 0.929 . S
H1772 C1780 0.929 . S
H1773 C1782 0.930 . S
H1774 C1784 0.930 . S
H1775 C1787 0.929 . S
H1776 C1790 0.930 . S
H1777 C1792 0.960 . S
H1778 C1792 0.960 . S
H1779 C1792 0.960 . S
C1780 H1772 0.929 . S
C1780 C1781 1.377 . S
C1780 C1782 1.384 . S
C1781 C1780 1.377 . S
C1781 C1787 1.390 . S
C1782 H1773 0.930 . S
C1782 C1780 1.384 . S
C1782 C1783 1.372 . S
C1783 C1782 1.372 . S
C1783 C1784 1.400 . S
C1783 C1788 1.490 . S
C1784 H1774 0.930 . S
C1784 C1783 1.400 . S
C1784 C1787 1.386 . S
H1785 C1801 0.930 . S
H1786 C1802 0.931 . S
C1787 H1775 0.929 . S
C1787 C1781 1.390 . S
C1787 C1784 1.386 . S
C1788 C1783 1.490 . S
C1788 C1790 1.395 . S
C1788 C1791 1.403 . S
H1789 C1795 0.930 . S
C1790 H1776 0.930 . S
C1790 C1788 1.395 . S
C1790 C1793 1.403 . S
C1791 C1788 1.403 . S
C1791 C1792 1.524 . S
C1791 C1795 1.400 . S
C1792 H1777 0.960 . S
C1792 H1778 0.960 . S
C1792 H1779 0.960 . S
C1792 C1791 1.524 . S
C1793 C1790 1.403 . S
C1793 C1794 1.392 . S
C1793 C1797 1.495 . S
C1794 C1793 1.392 . S
C1794 C1795 1.385 . S
C1794 C1796 1.478 . S
C1795 H1789 0.930 . S
C1795 C1791 1.400 . S
C1795 C1794 1.385 . S
C1796 C1794 1.478 . S
C1796 C1798 1.381 . S
C1796 C1802 1.383 . S
C1797 C1793 1.495 . S
C1797 H1803 0.959 . S
C1797 H1804 0.961 . S
C1797 H1805 0.960 . S
C1798 C1796 1.381 . S
C1798 C1799 1.394 . S
C1798 H1806 0.930 . S
C1799 C1798 1.394 . S
C1799 C1800 1.383 1_554 S
C1799 H1807 0.929 . S
C1800 C1799 1.383 1_556 S
C1800 C1801 1.377 . S
C1801 H1785 0.930 . S
C1801 C1800 1.377 . S
C1801 C1802 1.379 1_556 S
C1802 H1786 0.931 . S
C1802 C1796 1.383 . S
C1802 C1801 1.379 1_554 S
H1803 C1797 0.959 . S
H1804 C1797 0.961 . S
H1805 C1797 0.960 . S
H1806 C1798 0.930 . S
H1807 C1799 0.929 . S
H1808 C1816 0.929 . S
H1809 C1818 0.930 . S
H1810 C1820 0.930 . S
H1811 C1823 0.929 . S
H1812 C1826 0.930 . S
H1813 C1828 0.960 . S
H1814 C1828 0.960 . S
H1815 C1828 0.960 . S
C1816 H1808 0.929 . S
C1816 C1817 1.377 . S
C1816 C1818 1.384 . S
C1817 C1816 1.377 . S
C1817 C1823 1.390 . S
C1818 H1809 0.930 . S
C1818 C1816 1.384 . S
C1818 C1819 1.372 . S
C1819 C1818 1.372 . S
C1819 C1820 1.400 . S
C1819 C1824 1.490 . S
C1820 H1810 0.930 . S
C1820 C1819 1.400 . S
C1820 C1823 1.386 . S
H1821 C1837 0.930 1_455 S
H1822 C1838 0.931 . S
C1823 H1811 0.929 . S
C1823 C1817 1.390 . S
C1823 C1820 1.386 . S
C1824 C1819 1.490 . S
C1824 C1826 1.395 . S
C1824 C1827 1.403 . S
H1825 C1831 0.930 . S
C1826 H1812 0.930 . S
C1826 C1824 1.395 . S
C1826 C1829 1.403 . S
C1827 C1824 1.403 . S
C1827 C1828 1.524 . S
C1827 C1831 1.400 . S
C1828 H1813 0.960 . S
C1828 H1814 0.960 . S
C1828 H1815 0.960 . S
C1828 C1827 1.524 . S
C1829 C1826 1.403 . S
C1829 C1830 1.392 . S
C1829 C1833 1.495 . S
C1830 C1829 1.392 . S
C1830 C1831 1.385 . S
C1830 C1832 1.478 . S
C1831 H1825 0.930 . S
C1831 C1827 1.400 . S
C1831 C1830 1.385 . S
C1832 C1830 1.478 . S
C1832 C1834 1.381 . S
C1832 C1838 1.383 . S
C1833 C1829 1.495 . S
C1833 H1839 0.959 . S
C1833 H1840 0.961 . S
C1833 H1841 0.960 . S
C1834 C1832 1.381 . S
C1834 C1835 1.394 . S
C1834 H1842 0.930 . S
C1835 C1834 1.394 . S
C1835 C1836 1.383 . S
C1835 H1843 0.929 . S
C1836 C1835 1.383 . S
C1836 C1837 1.377 . S
C1837 H1821 0.930 1_655 S
C1837 C1836 1.377 . S
C1837 C1838 1.379 . S
C1838 H1822 0.931 . S
C1838 C1832 1.383 . S
C1838 C1837 1.379 . S
H1839 C1833 0.959 . S
H1840 C1833 0.961 . S
H1841 C1833 0.960 . S
H1842 C1834 0.930 . S
H1843 C1835 0.929 . S
H1844 C1852 0.929 . S
H1845 C1854 0.930 . S
H1846 C1856 0.930 . S
H1847 C1859 0.929 . S
H1848 C1862 0.930 . S
H1849 C1864 0.960 . S
H1850 C1864 0.960 . S
H1851 C1864 0.960 . S
C1852 H1844 0.929 . S
C1852 C1853 1.377 . S
C1852 C1854 1.384 . S
C1853 C1852 1.377 . S
C1853 C1859 1.390 . S
C1854 H1845 0.930 . S
C1854 C1852 1.384 . S
C1854 C1855 1.372 . S
C1855 C1854 1.372 . S
C1855 C1856 1.400 . S
C1855 C1860 1.490 . S
C1856 H1846 0.930 . S
C1856 C1855 1.400 . S
C1856 C1859 1.386 . S
H1857 C1873 0.930 1_455 S
H1858 C1874 0.931 . S
C1859 H1847 0.929 . S
C1859 C1853 1.390 . S
C1859 C1856 1.386 . S
C1860 C1855 1.490 . S
C1860 C1862 1.395 . S
C1860 C1863 1.403 . S
H1861 C1867 0.930 . S
C1862 H1848 0.930 . S
C1862 C1860 1.395 . S
C1862 C1865 1.403 . S
C1863 C1860 1.403 . S
C1863 C1864 1.524 . S
C1863 C1867 1.400 . S
C1864 H1849 0.960 . S
C1864 H1850 0.960 . S
C1864 H1851 0.960 . S
C1864 C1863 1.524 . S
C1865 C1862 1.403 . S
C1865 C1866 1.392 . S
C1865 C1869 1.495 . S
C1866 C1865 1.392 . S
C1866 C1867 1.385 . S
C1866 C1868 1.478 . S
C1867 H1861 0.930 . S
C1867 C1863 1.400 . S
C1867 C1866 1.385 . S
C1868 C1866 1.478 . S
C1868 C1870 1.381 . S
C1868 C1874 1.383 . S
C1869 C1865 1.495 . S
C1869 H1875 0.959 . S
C1869 H1876 0.961 . S
C1869 H1877 0.960 . S
C1870 C1868 1.381 . S
C1870 C1871 1.394 . S
C1870 H1878 0.930 . S
C1871 C1870 1.394 . S
C1871 C1872 1.383 . S
C1871 H1879 0.929 . S
C1872 C1871 1.383 . S
C1872 C1873 1.377 . S
C1873 H1857 0.930 1_655 S
C1873 C1872 1.377 . S
C1873 C1874 1.379 . S
C1874 H1858 0.931 . S
C1874 C1868 1.383 . S
C1874 C1873 1.379 . S
H1875 C1869 0.959 . S
H1876 C1869 0.961 . S
H1877 C1869 0.960 . S
H1878 C1870 0.930 . S
H1879 C1871 0.929 . S
H1880 C1888 0.929 . S
H1881 C1890 0.930 . S
H1882 C1892 0.930 . S
H1883 C1895 0.929 . S
H1884 C1898 0.930 . S
H1885 C1900 0.960 . S
H1886 C1900 0.960 . S
H1887 C1900 0.960 . S
C1888 H1880 0.929 . S
C1888 C1889 1.377 . S
C1888 C1890 1.384 1_556 S
C1889 C1888 1.377 . S
C1889 C1895 1.390 1_556 S
C1890 H1881 0.930 . S
C1890 C1888 1.384 1_554 S
C1890 C1891 1.372 . S
C1891 C1890 1.372 . S
C1891 C1892 1.400 . S
C1891 C1896 1.490 . S
C1892 H1882 0.930 . S
C1892 C1891 1.400 . S
C1892 C1895 1.386 . S
H1893 C1909 0.930 . S
H1894 C1910 0.931 . S
C1895 H1883 0.929 . S
C1895 C1889 1.390 1_554 S
C1895 C1892 1.386 . S
C1896 C1891 1.490 . S
C1896 C1898 1.395 . S
C1896 C1899 1.403 . S
H1897 C1903 0.930 . S
C1898 H1884 0.930 . S
C1898 C1896 1.395 . S
C1898 C1901 1.403 . S
C1899 C1896 1.403 . S
C1899 C1900 1.524 . S
C1899 C1903 1.400 . S
C1900 H1885 0.960 . S
C1900 H1886 0.960 . S
C1900 H1887 0.960 . S
C1900 C1899 1.524 . S
C1901 C1898 1.403 . S
C1901 C1902 1.392 . S
C1901 C1905 1.495 . S
C1902 C1901 1.392 . S
C1902 C1903 1.385 . S
C1902 C1904 1.478 . S
C1903 H1897 0.930 . S
C1903 C1899 1.400 . S
C1903 C1902 1.385 . S
C1904 C1902 1.478 . S
C1904 C1906 1.381 . S
C1904 C1910 1.383 . S
C1905 C1901 1.495 . S
C1905 H1911 0.959 . S
C1905 H1912 0.961 . S
C1905 H1913 0.960 . S
C1906 C1904 1.381 . S
C1906 C1907 1.394 . S
C1906 H1914 0.930 . S
C1907 C1906 1.394 . S
C1907 C1908 1.383 . S
C1907 H1915 0.929 . S
C1908 C1907 1.383 . S
C1908 C1909 1.377 . S
C1909 H1893 0.930 . S
C1909 C1908 1.377 . S
C1909 C1910 1.379 . S
C1910 H1894 0.931 . S
C1910 C1904 1.383 . S
C1910 C1909 1.379 . S
H1911 C1905 0.959 . S
H1912 C1905 0.961 . S
H1913 C1905 0.960 . S
H1914 C1906 0.930 . S
H1915 C1907 0.929 . S
H1916 C1924 0.929 . S
H1917 C1926 0.930 . S
H1918 C1928 0.930 . S
H1919 C1931 0.929 . S
H1920 C1934 0.930 . S
H1921 C1936 0.960 . S
H1922 C1936 0.960 . S
H1923 C1936 0.960 . S
C1924 H1916 0.929 . S
C1924 C1925 1.377 . S
C1924 C1926 1.384 . S
C1925 C1924 1.377 . S
C1925 C1931 1.390 . S
C1926 H1917 0.930 . S
C1926 C1924 1.384 . S
C1926 C1927 1.372 . S
C1927 C1926 1.372 . S
C1927 C1928 1.400 . S
C1927 C1932 1.490 . S
C1928 H1918 0.930 . S
C1928 C1927 1.400 . S
C1928 C1931 1.386 . S
H1929 C1945 0.930 . S
H1930 C1946 0.931 . S
C1931 H1919 0.929 . S
C1931 C1925 1.390 . S
C1931 C1928 1.386 . S
C1932 C1927 1.490 . S
C1932 C1934 1.395 . S
C1932 C1935 1.403 . S
H1933 C1939 0.930 . S
C1934 H1920 0.930 . S
C1934 C1932 1.395 . S
C1934 C1937 1.403 . S
C1935 C1932 1.403 . S
C1935 C1936 1.524 . S
C1935 C1939 1.400 . S
C1936 H1921 0.960 . S
C1936 H1922 0.960 . S
C1936 H1923 0.960 . S
C1936 C1935 1.524 . S
C1937 C1934 1.403 . S
C1937 C1938 1.392 . S
C1937 C1941 1.495 . S
C1938 C1937 1.392 . S
C1938 C1939 1.385 . S
C1938 C1940 1.478 . S
C1939 H1933 0.930 . S
C1939 C1935 1.400 . S
C1939 C1938 1.385 . S
C1940 C1938 1.478 . S
C1940 C1942 1.381 . S
C1940 C1946 1.383 . S
C1941 C1937 1.495 . S
C1941 H1947 0.959 . S
C1941 H1948 0.961 . S
C1941 H1949 0.960 . S
C1942 C1940 1.381 . S
C1942 C1943 1.394 1_556 S
C1942 H1950 0.930 1_556 S
C1943 C1942 1.394 1_554 S
C1943 C1944 1.383 . S
C1943 H1951 0.929 . S
C1944 C1943 1.383 . S
C1944 C1945 1.377 1_554 S
C1945 H1929 0.930 . S
C1945 C1944 1.377 1_556 S
C1945 C1946 1.379 . S
C1946 H1930 0.931 . S
C1946 C1940 1.383 . S
C1946 C1945 1.379 . S
H1947 C1941 0.959 . S
H1948 C1941 0.961 . S
H1949 C1941 0.960 . S
H1950 C1942 0.930 1_554 S
H1951 C1943 0.929 . S
H1952 C1960 0.929 . S
H1953 C1962 0.930 . S
H1954 C1964 0.930 . S
H1955 C1967 0.929 . S
H1956 C1970 0.930 . S
H1957 C1972 0.960 . S
H1958 C1972 0.960 . S
H1959 C1972 0.960 . S
C1960 H1952 0.929 . S
C1960 C1961 1.377 . S
C1960 C1962 1.384 . S
C1961 C1960 1.377 . S
C1961 C1967 1.390 . S
C1962 H1953 0.930 . S
C1962 C1960 1.384 . S
C1962 C1963 1.372 . S
C1963 C1962 1.372 . S
C1963 C1964 1.400 . S
C1963 C1968 1.490 . S
C1964 H1954 0.930 . S
C1964 C1963 1.400 . S
C1964 C1967 1.386 . S
H1965 C1981 0.930 . S
H1966 C1982 0.931 . S
C1967 H1955 0.929 . S
C1967 C1961 1.390 . S
C1967 C1964 1.386 . S
C1968 C1963 1.490 . S
C1968 C1970 1.395 . S
C1968 C1971 1.403 . S
H1969 C1975 0.930 . S
C1970 H1956 0.930 . S
C1970 C1968 1.395 . S
C1970 C1973 1.403 . S
C1971 C1968 1.403 . S
C1971 C1972 1.524 . S
C1971 C1975 1.400 . S
C1972 H1957 0.960 . S
C1972 H1958 0.960 . S
C1972 H1959 0.960 . S
C1972 C1971 1.524 . S
C1973 C1970 1.403 . S
C1973 C1974 1.392 . S
C1973 C1977 1.495 . S
C1974 C1973 1.392 . S
C1974 C1975 1.385 . S
C1974 C1976 1.478 . S
C1975 H1969 0.930 . S
C1975 C1971 1.400 . S
C1975 C1974 1.385 . S
C1976 C1974 1.478 . S
C1976 C1978 1.381 . S
C1976 C1982 1.383 . S
C1977 C1973 1.495 . S
C1977 H1983 0.959 . S
C1977 H1984 0.961 . S
C1977 H1985 0.960 . S
C1978 C1976 1.381 . S
C1978 C1979 1.394 . S
C1978 H1986 0.930 . S
C1979 C1978 1.394 . S
C1979 C1980 1.383 1_556 S
C1979 H1987 0.929 . S
C1980 C1979 1.383 1_554 S
C1980 C1981 1.377 . S
C1981 H1965 0.930 . S
C1981 C1980 1.377 . S
C1981 C1982 1.379 1_554 S
C1982 H1966 0.931 . S
C1982 C1976 1.383 . S
C1982 C1981 1.379 1_556 S
H1983 C1977 0.959 . S
H1984 C1977 0.961 . S
H1985 C1977 0.960 . S
H1986 C1978 0.930 . S
H1987 C1979 0.929 . S
H1988 C1996 0.929 . S
H1989 C1998 0.930 . S
H1990 C2000 0.930 . S
H1991 C2003 0.929 . S
H1992 C2006 0.930 . S
H1993 C2008 0.960 . S
H1994 C2008 0.960 . S
H1995 C2008 0.960 . S
C1996 H1988 0.929 . S
C1996 C1997 1.377 . S
C1996 C1998 1.384 . S
C1997 C1996 1.377 . S
C1997 C2003 1.390 . S
C1998 H1989 0.930 . S
C1998 C1996 1.384 . S
C1998 C1999 1.372 . S
C1999 C1998 1.372 . S
C1999 C2000 1.400 . S
C1999 C2004 1.490 . S
C2000 H1990 0.930 . S
C2000 C1999 1.400 . S
C2000 C2003 1.386 . S
H2001 C2017 0.930 . S
H2002 C2018 0.931 . S
C2003 H1991 0.929 . S
C2003 C1997 1.390 . S
C2003 C2000 1.386 . S
C2004 C1999 1.490 . S
C2004 C2006 1.395 . S
C2004 C2007 1.403 . S
H2005 C2011 0.930 . S
C2006 H1992 0.930 . S
C2006 C2004 1.395 . S
C2006 C2009 1.403 . S
C2007 C2004 1.403 . S
C2007 C2008 1.524 . S
C2007 C2011 1.400 . S
C2008 H1993 0.960 . S
C2008 H1994 0.960 . S
C2008 H1995 0.960 . S
C2008 C2007 1.524 . S
C2009 C2006 1.403 . S
C2009 C2010 1.392 . S
C2009 C2013 1.495 . S
C2010 C2009 1.392 . S
C2010 C2011 1.385 . S
C2010 C2012 1.478 . S
C2011 H2005 0.930 . S
C2011 C2007 1.400 . S
C2011 C2010 1.385 . S
C2012 C2010 1.478 . S
C2012 C2014 1.381 . S
C2012 C2018 1.383 . S
C2013 C2009 1.495 . S
C2013 H2019 0.959 . S
C2013 H2020 0.961 . S
C2013 H2021 0.960 . S
C2014 C2012 1.381 . S
C2014 C2015 1.394 . S
C2014 H2022 0.930 . S
C2015 C2014 1.394 . S
C2015 C2016 1.383 1_554 S
C2015 H2023 0.929 . S
C2016 C2015 1.383 1_556 S
C2016 C2017 1.377 . S
C2017 H2001 0.930 . S
C2017 C2016 1.377 . S
C2017 C2018 1.379 1_556 S
C2018 H2002 0.931 . S
C2018 C2012 1.383 . S
C2018 C2017 1.379 1_554 S
H2019 C2013 0.959 . S
H2020 C2013 0.961 . S
H2021 C2013 0.960 . S
H2022 C2014 0.930 . S
H2023 C2015 0.929 . S
H2024 C2032 0.929 . S
H2025 C2034 0.930 . S
H2026 C2036 0.930 . S
H2027 C2039 0.924 . S
H2028 C2042 0.930 . S
H2029 C2044 0.960 . S
H2030 C2044 0.960 . S
H2031 C2044 0.960 . S
C2032 H2024 0.929 . S
C2032 C2033 1.377 . S
C2032 C2034 1.384 . S
C2033 C2032 1.377 . S
C2033 C2039 1.390 . S
C2034 H2025 0.930 . S
C2034 C2032 1.384 . S
C2034 C2035 1.372 . S
C2035 C2034 1.372 . S
C2035 C2036 1.400 . S
C2035 C2040 1.490 . S
C2036 H2026 0.930 . S
C2036 C2035 1.400 . S
C2036 C2039 1.386 . S
H2037 C2053 0.930 . S
H2038 C2054 0.931 . S
C2039 H2027 0.924 . S
C2039 C2033 1.390 . S
C2039 C2036 1.386 . S
C2040 C2035 1.490 . S
C2040 C2042 1.395 . S
C2040 C2043 1.403 . S
H2041 C2047 0.930 . S
C2042 H2028 0.930 . S
C2042 C2040 1.395 . S
C2042 C2045 1.403 . S
C2043 C2040 1.403 . S
C2043 C2044 1.524 . S
C2043 C2047 1.400 . S
C2044 H2029 0.960 . S
C2044 H2030 0.960 . S
C2044 H2031 0.960 . S
C2044 C2043 1.524 . S
C2045 C2042 1.403 . S
C2045 C2046 1.392 . S
C2045 C2049 1.495 . S
C2046 C2045 1.392 . S
C2046 C2047 1.385 . S
C2046 C2048 1.478 . S
C2047 H2041 0.930 . S
C2047 C2043 1.400 . S
C2047 C2046 1.385 . S
C2048 C2046 1.478 . S
C2048 C2050 1.381 . S
C2048 C2054 1.383 . S
C2049 C2045 1.495 . S
C2049 H2055 0.959 . S
C2049 H2056 0.961 . S
C2049 H2057 0.960 . S
C2050 C2048 1.381 . S
C2050 C2051 1.394 . S
C2050 H2058 0.930 . S
C2051 C2050 1.394 . S
C2051 C2052 1.383 . S
C2051 H2059 0.929 . S
C2052 C2051 1.383 . S
C2052 C2053 1.377 . S
C2053 H2037 0.930 . S
C2053 C2052 1.377 . S
C2053 C2054 1.379 . S
C2054 H2038 0.931 . S
C2054 C2048 1.383 . S
C2054 C2053 1.379 . S
H2055 C2049 0.959 . S
H2056 C2049 0.961 . S
H2057 C2049 0.960 . S
H2058 C2050 0.930 . S
H2059 C2051 0.929 . S
H2060 C2068 0.929 . S
H2061 C2070 0.930 . S
H2062 C2072 0.930 . S
H2063 C2075 0.951 . S
H2064 C2078 0.930 . S
H2065 C2080 0.960 . S
H2066 C2080 0.960 . S
H2067 C2080 0.960 . S
C2068 H2060 0.929 . S
C2068 C2069 1.377 . S
C2068 C2070 1.384 . S
C2069 C2068 1.377 . S
C2069 C2075 1.390 . S
C2070 H2061 0.930 . S
C2070 C2068 1.384 . S
C2070 C2071 1.372 . S
C2071 C2070 1.372 . S
C2071 C2072 1.400 . S
C2071 C2076 1.490 . S
C2072 H2062 0.930 . S
C2072 C2071 1.400 . S
C2072 C2075 1.386 . S
H2073 C2089 0.930 . S
H2074 C2090 0.931 . S
C2075 H2063 0.951 . S
C2075 C2069 1.390 . S
C2075 C2072 1.386 . S
C2076 C2071 1.490 . S
C2076 C2078 1.395 . S
C2076 C2079 1.403 . S
H2077 C2083 0.930 . S
C2078 H2064 0.930 . S
C2078 C2076 1.395 . S
C2078 C2081 1.403 . S
C2079 C2076 1.403 . S
C2079 C2080 1.524 . S
C2079 C2083 1.400 . S
C2080 H2065 0.960 . S
C2080 H2066 0.960 . S
C2080 H2067 0.960 . S
C2080 C2079 1.524 . S
C2081 C2078 1.403 . S
C2081 C2082 1.392 . S
C2081 C2085 1.495 . S
C2082 C2081 1.392 . S
C2082 C2083 1.385 . S
C2082 C2084 1.478 . S
C2083 H2077 0.930 . S
C2083 C2079 1.400 . S
C2083 C2082 1.385 . S
C2084 C2082 1.478 . S
C2084 C2086 1.381 . S
C2084 C2090 1.383 . S
C2085 C2081 1.495 . S
C2085 H2091 0.959 . S
C2085 H2092 0.961 . S
C2085 H2093 0.960 . S
C2086 C2084 1.381 . S
C2086 C2087 1.394 . S
C2086 H2094 0.930 . S
C2087 C2086 1.394 . S
C2087 C2088 1.383 . S
C2087 H2095 0.929 . S
C2088 C2087 1.383 . S
C2088 C2089 1.377 . S
C2089 H2073 0.930 . S
C2089 C2088 1.377 . S
C2089 C2090 1.379 . S
C2090 H2074 0.931 . S
C2090 C2084 1.383 . S
C2090 C2089 1.379 . S
H2091 C2085 0.959 . S
H2092 C2085 0.961 . S
H2093 C2085 0.960 . S
H2094 C2086 0.930 . S
H2095 C2087 0.929 . S
H2096 C2104 0.929 . S
H2097 C2106 0.930 . S
H2098 C2108 0.930 . S
H2099 C2111 0.929 . S
H2100 C2114 0.930 . S
H2101 C2116 0.960 . S
H2102 C2116 0.960 . S
H2103 C2116 0.960 . S
C2104 H2096 0.929 . S
C2104 C2105 1.377 . S
C2104 C2106 1.384 . S
C2105 C2104 1.377 . S
C2105 C2111 1.390 . S
C2106 H2097 0.930 . S
C2106 C2104 1.384 . S
C2106 C2107 1.372 . S
C2107 C2106 1.372 . S
C2107 C2108 1.400 . S
C2107 C2112 1.490 . S
C2108 H2098 0.930 . S
C2108 C2107 1.400 . S
C2108 C2111 1.386 . S
H2109 C2125 0.930 . S
H2110 C2126 0.931 . S
C2111 H2099 0.929 . S
C2111 C2105 1.390 . S
C2111 C2108 1.386 . S
C2112 C2107 1.490 . S
C2112 C2114 1.395 . S
C2112 C2115 1.403 . S
H2113 C2119 0.930 . S
C2114 H2100 0.930 . S
C2114 C2112 1.395 . S
C2114 C2117 1.403 . S
C2115 C2112 1.403 . S
C2115 C2116 1.524 . S
C2115 C2119 1.400 . S
C2116 H2101 0.960 . S
C2116 H2102 0.960 . S
C2116 H2103 0.960 . S
C2116 C2115 1.524 . S
C2117 C2114 1.403 . S
C2117 C2118 1.392 . S
C2117 C2121 1.495 . S
C2118 C2117 1.392 . S
C2118 C2119 1.385 . S
C2118 C2120 1.478 . S
C2119 H2113 0.930 . S
C2119 C2115 1.400 . S
C2119 C2118 1.385 . S
C2120 C2118 1.478 . S
C2120 C2122 1.381 . S
C2120 C2126 1.383 . S
C2121 C2117 1.495 . S
C2121 H2127 0.959 . S
C2121 H2128 0.961 . S
C2121 H2129 0.960 . S
C2122 C2120 1.381 . S
C2122 C2123 1.394 1_554 S
C2122 H2130 0.930 . S
C2123 C2122 1.394 1_556 S
C2123 C2124 1.383 . S
C2123 H2131 0.929 . S
C2124 C2123 1.383 . S
C2124 C2125 1.377 1_556 S
C2125 H2109 0.930 . S
C2125 C2124 1.377 1_554 S
C2125 C2126 1.379 . S
C2126 H2110 0.931 . S
C2126 C2120 1.383 . S
C2126 C2125 1.379 . S
H2127 C2121 0.959 . S
H2128 C2121 0.961 . S
H2129 C2121 0.960 . S
H2130 C2122 0.930 . S
H2131 C2123 0.929 . S
H2132 C2140 0.929 . S
H2133 C2142 0.930 . S
H2134 C2144 0.930 . S
H2135 C2147 0.929 . S
H2136 C2150 0.930 . S
H2137 C2152 0.960 . S
H2138 C2152 0.960 . S
H2139 C2152 0.960 . S
C2140 H2132 0.929 . S
C2140 C2141 1.377 1_556 S
C2140 C2142 1.384 . S
C2141 C2140 1.377 1_554 S
C2141 C2147 1.390 . S
C2142 H2133 0.930 . S
C2142 C2140 1.384 . S
C2142 C2143 1.372 . S
C2143 C2142 1.372 . S
C2143 C2144 1.400 . S
C2143 C2148 1.490 . S
C2144 H2134 0.930 . S
C2144 C2143 1.400 . S
C2144 C2147 1.386 1_556 S
H2145 C2161 0.930 . S
H2146 C2162 0.931 . S
C2147 H2135 0.929 . S
C2147 C2141 1.390 . S
C2147 C2144 1.386 1_554 S
C2148 C2143 1.490 . S
C2148 C2150 1.395 . S
C2148 C2151 1.403 . S
H2149 C2155 0.930 . S
C2150 H2136 0.930 . S
C2150 C2148 1.395 . S
C2150 C2153 1.403 . S
C2151 C2148 1.403 . S
C2151 C2152 1.524 . S
C2151 C2155 1.400 . S
C2152 H2137 0.960 . S
C2152 H2138 0.960 . S
C2152 H2139 0.960 . S
C2152 C2151 1.524 . S
C2153 C2150 1.403 . S
C2153 C2154 1.392 . S
C2153 C2157 1.495 . S
C2154 C2153 1.392 . S
C2154 C2155 1.385 . S
C2154 C2156 1.478 . S
C2155 H2149 0.930 . S
C2155 C2151 1.400 . S
C2155 C2154 1.385 . S
C2156 C2154 1.478 . S
C2156 C2158 1.381 . S
C2156 C2162 1.383 . S
C2157 C2153 1.495 . S
C2157 H2163 0.959 . S
C2157 H2164 0.961 . S
C2157 H2165 0.960 . S
C2158 C2156 1.381 . S
C2158 C2159 1.394 . S
C2158 H2166 0.930 . S
C2159 C2158 1.394 . S
C2159 C2160 1.383 . S
C2159 H2167 0.929 . S
C2160 C2159 1.383 . S
C2160 C2161 1.377 . S
C2161 H2145 0.930 . S
C2161 C2160 1.377 . S
C2161 C2162 1.379 . S
C2162 H2146 0.931 . S
C2162 C2156 1.383 . S
C2162 C2161 1.379 . S
H2163 C2157 0.959 . S
H2164 C2157 0.961 . S
H2165 C2157 0.960 . S
H2166 C2158 0.930 . S
H2167 C2159 0.929 . S
H2168 C2176 0.929 . S
H2169 C2178 0.930 . S
H2170 C2180 0.930 . S
H2171 C2183 0.929 . S
H2172 C2186 0.930 . S
H2173 C2188 0.960 . S
H2174 C2188 0.960 . S
H2175 C2188 0.960 . S
C2176 H2168 0.929 . S
C2176 C2177 1.377 . S
C2176 C2178 1.384 . S
C2177 C2176 1.377 . S
C2177 C2183 1.390 . S
C2178 H2169 0.930 . S
C2178 C2176 1.384 . S
C2178 C2179 1.372 . S
C2179 C2178 1.372 . S
C2179 C2180 1.400 . S
C2179 C2184 1.490 . S
C2180 H2170 0.930 . S
C2180 C2179 1.400 . S
C2180 C2183 1.386 . S
H2181 C2197 0.930 . S
H2182 C2198 0.931 . S
C2183 H2171 0.929 . S
C2183 C2177 1.390 . S
C2183 C2180 1.386 . S
C2184 C2179 1.490 . S
C2184 C2186 1.395 . S
C2184 C2187 1.403 . S
H2185 C2191 0.930 . S
C2186 H2172 0.930 . S
C2186 C2184 1.395 . S
C2186 C2189 1.403 . S
C2187 C2184 1.403 . S
C2187 C2188 1.524 . S
C2187 C2191 1.400 . S
C2188 H2173 0.960 . S
C2188 H2174 0.960 . S
C2188 H2175 0.960 . S
C2188 C2187 1.524 . S
C2189 C2186 1.403 . S
C2189 C2190 1.392 . S
C2189 C2193 1.495 . S
C2190 C2189 1.392 . S
C2190 C2191 1.385 . S
C2190 C2192 1.478 . S
C2191 H2185 0.930 . S
C2191 C2187 1.400 . S
C2191 C2190 1.385 . S
C2192 C2190 1.478 . S
C2192 C2194 1.381 . S
C2192 C2198 1.383 . S
C2193 C2189 1.495 . S
C2193 H2199 0.959 . S
C2193 H2200 0.961 . S
C2193 H2201 0.960 . S
C2194 C2192 1.381 . S
C2194 C2195 1.394 . S
C2194 H2202 0.930 . S
C2195 C2194 1.394 . S
C2195 C2196 1.383 . S
C2195 H2203 0.929 . S
C2196 C2195 1.383 . S
C2196 C2197 1.377 . S
C2197 H2181 0.930 . S
C2197 C2196 1.377 . S
C2197 C2198 1.379 . S
C2198 H2182 0.931 . S
C2198 C2192 1.383 . S
C2198 C2197 1.379 . S
H2199 C2193 0.959 . S
H2200 C2193 0.961 . S
H2201 C2193 0.960 . S
H2202 C2194 0.930 . S
H2203 C2195 0.929 . S
H2204 C2212 0.929 . S
H2205 C2214 0.930 . S
H2206 C2216 0.930 . S
H2207 C2219 0.929 . S
H2208 C2222 0.930 . S
H2209 C2224 0.960 . S
H2210 C2224 0.960 . S
H2211 C2224 0.960 . S
C2212 H2204 0.929 . S
C2212 C2213 1.377 . S
C2212 C2214 1.384 . S
C2213 C2212 1.377 . S
C2213 C2219 1.390 . S
C2214 H2205 0.930 . S
C2214 C2212 1.384 . S
C2214 C2215 1.372 . S
C2215 C2214 1.372 . S
C2215 C2216 1.400 . S
C2215 C2220 1.490 . S
C2216 H2206 0.930 . S
C2216 C2215 1.400 . S
C2216 C2219 1.386 . S
H2217 C2233 0.930 . S
H2218 C2234 0.931 . S
C2219 H2207 0.929 . S
C2219 C2213 1.390 . S
C2219 C2216 1.386 . S
C2220 C2215 1.490 . S
C2220 C2222 1.395 . S
C2220 C2223 1.403 . S
H2221 C2227 0.930 . S
C2222 H2208 0.930 . S
C2222 C2220 1.395 . S
C2222 C2225 1.403 . S
C2223 C2220 1.403 . S
C2223 C2224 1.524 . S
C2223 C2227 1.400 . S
C2224 H2209 0.960 . S
C2224 H2210 0.960 . S
C2224 H2211 0.960 . S
C2224 C2223 1.524 . S
C2225 C2222 1.403 . S
C2225 C2226 1.392 . S
C2225 C2229 1.495 . S
C2226 C2225 1.392 . S
C2226 C2227 1.385 . S
C2226 C2228 1.478 . S
C2227 H2221 0.930 . S
C2227 C2223 1.400 . S
C2227 C2226 1.385 . S
C2228 C2226 1.478 . S
C2228 C2230 1.381 . S
C2228 C2234 1.383 . S
C2229 C2225 1.495 . S
C2229 H2235 0.959 . S
C2229 H2236 0.961 . S
C2229 H2237 0.960 . S
C2230 C2228 1.381 . S
C2230 C2231 1.394 . S
C2230 H2238 0.930 . S
C2231 C2230 1.394 . S
C2231 C2232 1.383 . S
C2231 H2239 0.929 . S
C2232 C2231 1.383 . S
C2232 C2233 1.377 . S
C2233 H2217 0.930 . S
C2233 C2232 1.377 . S
C2233 C2234 1.379 . S
C2234 H2218 0.931 . S
C2234 C2228 1.383 . S
C2234 C2233 1.379 . S
H2235 C2229 0.959 . S
H2236 C2229 0.961 . S
H2237 C2229 0.960 . S
H2238 C2230 0.930 . S
H2239 C2231 0.929 . S
C521 C2 1.954 . S
C540 C230 1.970 . S
C557 C34 1.954 . S
C576 C134 1.965 . S
C593 C166 1.955 . S
C612 C66 1.959 . S
C629 C98 1.961 . S
C648 C194 1.936 . S
C665 C356 1.765 . S
C684 C157 1.774 . S
C701 C285 1.769 . S
C720 C4 1.780 . S
C737 C324 1.762 . S
C756 C196 1.762 . S
C773 C68 1.769 . S
C792 C317 1.767 . S
C809 C294 1.960 . S
C828 C386 1.938 . S
C845 C322 1.958 . S
C864 C454 1.946 . S
C881 C422 1.973 . S
C900 C262 1.946 . S
C917 C354 1.961 . S
C936 C482 1.951 . S
C953 C477 1.768 . S
C972 C100 1.780 . S
C989 C388 1.763 . S
C1008 C189 1.743 . S
C1025 C36 1.769 . S
C1044 C484 1.775 . S
C1061 C253 1.764 . S
C1080 C445 1.771 . S
C1097 N434 2.659 . S
C1116 N13 2.681 . S
C1133 N365 2.665 . S
C1152 N45 2.655 . S
C1169 N397 2.657 . S
C1188 N77 2.688 . S
C1205 N333 2.659 . S
C1224 N109 2.678 . S
C1241 N146 2.659 . S
C1260 N493 2.701 . S
C1277 N306 2.664 . S
C1296 N178 2.656 . S
C1313 N205 2.665 . S
C1332 N466 2.652 . S
C1349 N242 2.658 . S
C1368 N274 2.688 . S
C1385 N18 1.143 . S
C1404 N141 1.144 . S
C1421 N50 1.145 . S
C1440 N173 1.151 . S
C1457 N210 1.140 . S
C1476 N82 1.130 . S
C1493 N114 1.144 . S
C1512 N237 1.148 . S
C1529 N338 1.144 . S
C1548 N269 1.151 . S
C1565 N370 1.140 . S
C1584 N301 1.130 . S
C1601 N402 1.144 . S
C1620 N461 1.145 . S
C1637 N498 1.144 . S
C1656 N429 1.150 . S
C1673 C6 1.388 . S
C1692 C226 1.405 . S
C1709 C38 1.376 . S
C1728 C130 1.360 . S
C1745 C162 1.379 . S
C1764 C70 1.390 . S
C1781 C198 1.383 . S
C1800 C102 1.357 . S
C1817 C381 1.406 . S
C1836 C132 1.368 . S
C1853 C260 1.405 . S
C1872 C29 1.368 . S
C1889 C349 1.398 . S
C1908 C221 1.418 . S
C1925 C93 1.406 . S
C1944 C292 1.370 . S
C1961 C390 1.389 . S
C1980 C290 1.390 . S
C1997 C450 1.379 . S
C2016 C326 1.349 . S
C2033 C418 1.403 . S
C2052 C258 1.409 . S
C2069 C486 1.401 . S
C2088 C358 1.362 . S
C2105 C452 1.401 . S
C2124 C125 1.377 . S
C2141 C164 1.402 . S
C2160 C413 1.374 . S
C2177 C61 1.394 . S
C2196 C509 1.425 . S
C2213 C420 1.394 . S
C2232 C228 1.425 . S
