# Generated by pormake.
# Topology bcs, (6)-cn, num edge types: 1
# Building blocks:
#     Node 0, Type 0, BuildingBlock: UKALOJ_clean_sbu_0, # of connection points: 6
#     Node 1, Type 0, BuildingBlock: UKALOJ_clean_sbu_0, # of connection points: 6
#     Node 2, Type 0, BuildingBlock: UKALOJ_clean_sbu_0, # of connection points: 6
#     Node 3, Type 0, BuildingBlock: UKALOJ_clean_sbu_0, # of connection points: 6
#     Node 4, Type 0, BuildingBlock: UKALOJ_clean_sbu_0, # of connection points: 6
#     Node 5, Type 0, BuildingBlock: UKALOJ_clean_sbu_0, # of connection points: 6
#     Node 6, Type 0, BuildingBlock: UKALOJ_clean_sbu_0, # of connection points: 6
#     Node 7, Type 0, BuildingBlock: UKALOJ_clean_sbu_0, # of connection points: 6
#     Node 8, Type 0, BuildingBlock: UKALOJ_clean_sbu_0, # of connection points: 6
#     Node 9, Type 0, BuildingBlock: UKALOJ_clean_sbu_0, # of connection points: 6
#     Node 10, Type 0, BuildingBlock: UKALOJ_clean_sbu_0, # of connection points: 6
#     Node 11, Type 0, BuildingBlock: UKALOJ_clean_sbu_0, # of connection points: 6
#     Node 12, Type 0, BuildingBlock: UKALOJ_clean_sbu_0, # of connection points: 6
#     Node 13, Type 0, BuildingBlock: UKALOJ_clean_sbu_0, # of connection points: 6
#     Node 14, Type 0, BuildingBlock: UKALOJ_clean_sbu_0, # of connection points: 6
#     Node 15, Type 0, BuildingBlock: UKALOJ_clean_sbu_0, # of connection points: 6
#     Edge 16, Type (0, 0), BuildingBlock: UVAHIK_clean_linker_0, # of connection points: 2
#     Edge 17, Type (0, 0), BuildingBlock: UVAHIK_clean_linker_0, # of connection points: 2
#     Edge 18, Type (0, 0), BuildingBlock: UVAHIK_clean_linker_0, # of connection points: 2
#     Edge 19, Type (0, 0), BuildingBlock: UVAHIK_clean_linker_0, # of connection points: 2
#     Edge 20, Type (0, 0), BuildingBlock: UVAHIK_clean_linker_0, # of connection points: 2
#     Edge 21, Type (0, 0), BuildingBlock: UVAHIK_clean_linker_0, # of connection points: 2
#     Edge 22, Type (0, 0), BuildingBlock: UVAHIK_clean_linker_0, # of connection points: 2
#     Edge 23, Type (0, 0), BuildingBlock: UVAHIK_clean_linker_0, # of connection points: 2
#     Edge 24, Type (0, 0), BuildingBlock: UVAHIK_clean_linker_0, # of connection points: 2
#     Edge 25, Type (0, 0), BuildingBlock: UVAHIK_clean_linker_0, # of connection points: 2
#     Edge 26, Type (0, 0), BuildingBlock: UVAHIK_clean_linker_0, # of connection points: 2
#     Edge 27, Type (0, 0), BuildingBlock: UVAHIK_clean_linker_0, # of connection points: 2
#     Edge 28, Type (0, 0), BuildingBlock: UVAHIK_clean_linker_0, # of connection points: 2
#     Edge 29, Type (0, 0), BuildingBlock: UVAHIK_clean_linker_0, # of connection points: 2
#     Edge 30, Type (0, 0), BuildingBlock: UVAHIK_clean_linker_0, # of connection points: 2
#     Edge 31, Type (0, 0), BuildingBlock: UVAHIK_clean_linker_0, # of connection points: 2
#     Edge 32, Type (0, 0), BuildingBlock: UVAHIK_clean_linker_0, # of connection points: 2
#     Edge 33, Type (0, 0), BuildingBlock: UVAHIK_clean_linker_0, # of connection points: 2
#     Edge 34, Type (0, 0), BuildingBlock: UVAHIK_clean_linker_0, # of connection points: 2
#     Edge 35, Type (0, 0), BuildingBlock: UVAHIK_clean_linker_0, # of connection points: 2
#     Edge 36, Type (0, 0), BuildingBlock: UVAHIK_clean_linker_0, # of connection points: 2
#     Edge 37, Type (0, 0), BuildingBlock: UVAHIK_clean_linker_0, # of connection points: 2
#     Edge 38, Type (0, 0), BuildingBlock: UVAHIK_clean_linker_0, # of connection points: 2
#     Edge 39, Type (0, 0), BuildingBlock: UVAHIK_clean_linker_0, # of connection points: 2
#     Edge 40, Type (0, 0), BuildingBlock: UVAHIK_clean_linker_0, # of connection points: 2
#     Edge 41, Type (0, 0), BuildingBlock: UVAHIK_clean_linker_0, # of connection points: 2
#     Edge 42, Type (0, 0), BuildingBlock: UVAHIK_clean_linker_0, # of connection points: 2
#     Edge 43, Type (0, 0), BuildingBlock: UVAHIK_clean_linker_0, # of connection points: 2
#     Edge 44, Type (0, 0), BuildingBlock: UVAHIK_clean_linker_0, # of connection points: 2
#     Edge 45, Type (0, 0), BuildingBlock: UVAHIK_clean_linker_0, # of connection points: 2
#     Edge 46, Type (0, 0), BuildingBlock: UVAHIK_clean_linker_0, # of connection points: 2
#     Edge 47, Type (0, 0), BuildingBlock: UVAHIK_clean_linker_0, # of connection points: 2
#     Edge 48, Type (0, 0), BuildingBlock: UVAHIK_clean_linker_0, # of connection points: 2
#     Edge 49, Type (0, 0), BuildingBlock: UVAHIK_clean_linker_0, # of connection points: 2
#     Edge 50, Type (0, 0), BuildingBlock: UVAHIK_clean_linker_0, # of connection points: 2
#     Edge 51, Type (0, 0), BuildingBlock: UVAHIK_clean_linker_0, # of connection points: 2
#     Edge 52, Type (0, 0), BuildingBlock: UVAHIK_clean_linker_0, # of connection points: 2
#     Edge 53, Type (0, 0), BuildingBlock: UVAHIK_clean_linker_0, # of connection points: 2
#     Edge 54, Type (0, 0), BuildingBlock: UVAHIK_clean_linker_0, # of connection points: 2
#     Edge 55, Type (0, 0), BuildingBlock: UVAHIK_clean_linker_0, # of connection points: 2
#     Edge 56, Type (0, 0), BuildingBlock: UVAHIK_clean_linker_0, # of connection points: 2
#     Edge 57, Type (0, 0), BuildingBlock: UVAHIK_clean_linker_0, # of connection points: 2
#     Edge 58, Type (0, 0), BuildingBlock: UVAHIK_clean_linker_0, # of connection points: 2
#     Edge 59, Type (0, 0), BuildingBlock: UVAHIK_clean_linker_0, # of connection points: 2
#     Edge 60, Type (0, 0), BuildingBlock: UVAHIK_clean_linker_0, # of connection points: 2
#     Edge 61, Type (0, 0), BuildingBlock: UVAHIK_clean_linker_0, # of connection points: 2
#     Edge 62, Type (0, 0), BuildingBlock: UVAHIK_clean_linker_0, # of connection points: 2
#     Edge 63, Type (0, 0), BuildingBlock: UVAHIK_clean_linker_0, # of connection points: 2
# Relax obj value: 0.433
# Max RMSD: 0.286
# Mean RMSD: 0.262
data_MOF--net-bcs--node1-UKALOJ_clean_sbu_0--edge1-UVAHIK_clean_linker_0
_symmetry_space_group_name_H-M    P1
_symmetry_Int_Tables_number       1
_symmetry_cell_setting            triclinic
loop_
_symmetry_equiv_pos_as_xyz
'x, y, z'
_cell_length_a     46.202833
_cell_length_b     45.69493
_cell_length_c     49.022637
_cell_angle_alpha  88.395869
_cell_angle_beta   91.545138
_cell_angle_gamma 80.777326
loop_
_atom_site_label
_atom_site_type_symbol
_atom_site_fract_x
_atom_site_fract_y
_atom_site_fract_z
_atom_type_partial_charge
Zn0 Zn 0.03449 0.03766 0.02129 0.0
O1 O 0.06549 0.02787 0.05403 0.0
C2 C 0.06113 0.98436 0.99118 0.0
Zn3 Zn 0.01348 -0.00217 0.03022 0.0
C4 C 0.06388 0.00483 0.06863 0.0
O5 O 0.04462 0.98887 0.06276 0.0
C6 C 0.98347 0.03059 0.9832 0.0
O7 O 0.98521 0.02405 0.05633 0.0
O8 O 0.00547 0.06348 0.04753 0.0
N9 N -0.00268 0.96038 0.04178 0.0
C10 C 0.97074 0.95514 0.04946 0.0
C11 C 0.00113 0.91547 0.05787 0.0
N12 N 0.01604 0.93555 0.04671 0.0
N13 N 0.97261 0.92714 0.05972 0.0
C14 C 0.07931 0.07713 0.00143 0.0
C15 C 0.05115 0.11683 0.98828 0.0
N16 N 0.05189 0.07428 0.00872 0.0
N17 N 0.03451 0.09914 0.00077 0.0
N18 N 0.07936 0.10346 0.98813 0.0
H19 H 0.10443 0.04417 0.02879 0.0
H20 H 0.1261 0.06557 0.0089 0.0
H21 H 0.10885 0.03733 0.99329 0.0
C22 C 0.10619 0.05484 0.00856 0.0
C23 C 0.94356 0.97796 0.04901 0.0
H24 H 0.94633 -0.00194 0.03688 0.0
H25 H 0.9381 0.98387 0.07026 0.0
H26 H 0.92484 0.96869 0.04004 0.0
O27 O 0.98241 0.00731 -0.00231 0.0
O28 O 0.00273 0.04668 0.98889 0.0
C29 C 0.98643 0.05128 0.05992 0.0
O30 O 0.06273 0.01143 0.99501 0.0
O31 O 0.04229 0.9723 0.00388 0.0
Zn32 Zn 0.23833 0.74811 0.27607 0.0
O33 O 0.25852 0.70609 0.29251 0.0
C34 C 0.28762 0.77339 0.30211 0.0
Zn35 Zn 0.27633 0.74787 0.24932 0.0
C36 C 0.28267 0.69307 0.28365 0.0
O37 O 0.29489 0.70544 0.26459 0.0
C38 C 0.23296 0.80365 0.24283 0.0
O39 O 0.25272 0.72851 0.21938 0.0
O40 O 0.21536 0.72795 0.24593 0.0
N41 N 0.31025 0.74767 0.22355 0.0
C42 C 0.31091 0.76016 0.1984 0.0
C43 C 0.35457 0.73969 0.20942 0.0
N44 N 0.33735 0.73478 0.23031 0.0
N45 N 0.33844 0.75561 0.18921 0.0
C46 C 0.18781 0.72892 0.3092 0.0
C47 C 0.17678 0.76589 0.33464 0.0
N48 N 0.20472 0.74916 0.30215 0.0
N49 N 0.19766 0.77221 0.31782 0.0
N50 N 0.17002 0.73897 0.32944 0.0
H51 H 0.20972 0.69291 0.28545 0.0
H52 H 0.17045 0.69776 0.28432 0.0
H53 H 0.19036 0.68166 0.31444 0.0
C54 C 0.19003 0.69857 0.29769 0.0
C55 C 0.28456 0.77582 0.18229 0.0
H56 H 0.26445 0.7671 0.18773 0.0
H57 H 0.28781 0.77345 0.16006 0.0
H58 H 0.28136 0.79978 0.18663 0.0
O59 O 0.25766 0.79094 0.23501 0.0
O60 O 0.21908 0.79027 0.25991 0.0
C61 C 0.22733 0.72225 0.22325 0.0
O62 O 0.26171 0.76838 0.30574 0.0
O63 O 0.29977 0.76675 0.27968 0.0
Zn64 Zn 0.52835 0.03809 0.49757 0.0
O65 O 0.51582 0.06947 0.46624 0.0
C66 C 0.47433 0.05931 0.52748 0.0
Zn67 Zn 0.49277 0.01327 0.48602 0.0
C68 C 0.49404 0.06729 0.45059 0.0
O69 O 0.47995 0.04581 0.45423 0.0
C70 C 0.52816 0.98467 0.53337 0.0
O71 O 0.51978 0.98768 0.45848 0.0
O72 O 0.55561 0.01131 0.47027 0.0
N73 N 0.45822 0.99292 0.47586 0.0
C74 C 0.45656 0.96498 0.46873 0.0
C75 C 0.4129 0.98884 0.46819 0.0
N76 N 0.43108 0.00768 0.4756 0.0
N77 N 0.42836 0.96193 0.46371 0.0
C78 C 0.565 0.08535 0.51629 0.0
C79 C 0.60835 0.0609 0.51674 0.0
N80 N 0.56306 0.05804 0.5076 0.0
N81 N 0.59004 0.04298 0.50761 0.0
N82 N 0.5932 0.08765 0.52233 0.0
H83 H 0.52301 0.10844 0.50117 0.0
H84 H 0.54689 0.13194 0.51591 0.0
H85 H 0.52879 0.10842 0.53749 0.0
C86 C 0.53949 0.11004 0.51766 0.0
C87 C 0.4823 0.94043 0.46806 0.0
H88 H 0.49151 0.94003 0.44739 0.0
H89 H 0.47551 0.91863 0.47259 0.0
H90 H 0.49976 0.94386 0.48295 0.0
O91 O 0.50641 0.98106 0.51811 0.0
O92 O 0.54101 0.00679 0.52895 0.0
C93 C 0.54618 0.99167 0.45619 0.0
O94 O 0.50052 0.06421 0.52518 0.0
O95 O 0.4657 0.03927 0.5134 0.0
Zn96 Zn 0.25042 0.27502 0.74397 0.0
O97 O 0.22209 0.30798 0.76385 0.0
C98 C 0.22508 0.2289 0.77436 0.0
Zn99 Zn 0.21322 0.26161 0.72051 0.0
C100 C 0.19473 0.31148 0.75833 0.0
O101 O 0.18511 0.29532 0.74065 0.0
C102 C 0.26959 0.22553 0.7059 0.0
O103 O 0.21777 0.29156 0.6883 0.0
O104 O 0.2539 0.30585 0.71162 0.0
N105 N 0.17699 0.25107 0.70105 0.0
C106 C 0.17218 0.24192 0.67567 0.0
C107 C 0.13115 0.24821 0.6954 0.0
N108 N 0.15149 0.25505 0.71322 0.0
N109 N 0.14347 0.24017 0.67159 0.0
C110 C 0.29072 0.29934 0.78693 0.0
C111 C 0.32981 0.2987 0.76469 0.0
N112 N 0.28624 0.28756 0.76257 0.0
N113 N 0.3106 0.28707 0.74887 0.0
N114 N 0.31788 0.30679 0.78866 0.0
H115 H 0.25486 0.32402 0.80732 0.0
H116 H 0.28052 0.30005 0.82961 0.0
H117 H 0.25483 0.28478 0.80788 0.0
C118 C 0.26906 0.30204 0.8093 0.0
C119 C 0.1962 0.2318 0.65643 0.0
H120 H 0.21177 0.24788 0.6556 0.0
H121 H 0.188 0.22844 0.63557 0.0
H122 H 0.20834 0.21018 0.66425 0.0
O123 O 0.24213 0.22798 0.70088 0.0
O124 O 0.27879 0.24215 0.72342 0.0
C125 C 0.23739 0.30793 0.69027 0.0
O126 O 0.24591 0.24399 0.77625 0.0
O127 O 0.20863 0.23175 0.75292 0.0
Zn128 Zn 0.98053 0.0233 0.4727 0.0
O129 O 0.95879 0.98704 0.46504 0.0
C130 C 0.92326 0.06349 0.48153 0.0
Zn131 Zn 0.9621 0.01943 0.51388 0.0
C132 C 0.94277 0.97506 0.4812 0.0
O133 O 0.93805 0.98556 0.50464 0.0
C134 C 0.00107 0.06659 0.50662 0.0
O135 O -0.00119 0.98659 0.52128 0.0
O136 O 0.01902 0.99258 0.48178 0.0
N137 N 0.95041 0.01786 0.55363 0.0
C138 C 0.96589 0.00956 0.57705 0.0
C139 C 0.92145 0.02342 0.58752 0.0
N140 N 0.92285 0.02667 0.56023 0.0
N141 N 0.94823 0.01292 0.59854 0.0
C142 C 0.97477 0.02079 0.41115 0.0
C143 C 0.99124 0.02632 0.4163 0.0
N144 N 0.99092 0.02597 0.43214 0.0
N145 N 0.01632 0.03479 0.42748 0.0
N146 N 0.98622 0.02506 0.3872 0.0
H147 H 0.9297 0.02106 0.42931 0.0
H148 H 0.94384 0.98748 0.41232 0.0
H149 H 0.92966 0.02026 0.39248 0.0
C150 C 0.94205 0.01197 0.41161 0.0
C151 C -0.00157 -0.00027 0.57915 0.0
H152 H 0.00356 0.976 0.57402 0.0
H153 H 0.00702 0.00222 0.60017 0.0
H154 H 0.00955 0.01297 0.56466 0.0
O155 O 0.98646 0.05328 0.52316 0.0
O156 O 0.00289 0.05869 0.48201 0.0
C157 C 0.01949 0.9795 0.50501 0.0
O158 O 0.94258 0.05478 0.46434 0.0
O159 O 0.92525 0.05177 0.50536 0.0
Zn160 Zn 0.26438 0.80741 0.73634 0.0
O161 O 0.23604 0.82678 0.70457 0.0
C162 C 0.22 0.82535 0.77828 0.0
Zn163 Zn 0.23566 0.77341 0.74346 0.0
C164 C 0.21281 0.81653 0.69855 0.0
O165 O 0.20656 0.79449 0.71226 0.0
C166 C 0.2883 0.76369 0.78028 0.0
O167 O 0.25816 0.74702 0.71393 0.0
O168 O 0.28798 0.77931 0.70807 0.0
N169 N 0.20801 0.7434 0.75022 0.0
C170 C 0.21147 0.71348 0.7513 0.0
C171 C 0.16588 0.72965 0.7546 0.0
N172 N 0.17972 0.75332 0.75265 0.0
N173 N 0.18519 0.70423 0.75385 0.0
C174 C 0.2868 0.86767 0.73113 0.0
C175 C 0.33239 0.85426 0.72501 0.0
N176 N 0.29152 0.83788 0.72989 0.0
N177 N 0.31982 0.82961 0.72575 0.0
N178 N 0.31213 0.87849 0.72836 0.0
H179 H 0.23975 0.8758 0.72455 0.0
H180 H 0.25684 0.90874 0.72467 0.0
H181 H 0.25277 0.88874 0.75604 0.0
C182 C 0.2573 0.88629 0.7341 0.0
C183 C 0.24043 0.69359 0.74914 0.0
H184 H 0.25845 0.70616 0.74524 0.0
H185 H 0.23907 0.67748 0.73281 0.0
H186 H 0.24606 0.6811 0.76877 0.0
O187 O 0.26544 0.7527 0.77421 0.0
O188 O 0.29295 0.78714 0.7678 0.0
C189 C 0.28026 0.75463 0.70251 0.0
O190 O 0.24052 0.8347 0.76556 0.0
O191 O 0.21346 0.8002 0.77279 0.0
Zn192 Zn 0.50841 0.98728 0.02527 0.0
O193 O 0.47901 0.01554 0.05003 0.0
C194 C 0.46615 0.94415 0.02225 0.0
Zn195 Zn 0.47593 0.99691 0.99057 0.0
C196 C 0.45458 0.02882 0.03996 0.0
O197 O 0.44748 0.0243 0.01543 0.0
C198 C 0.52961 0.95573 0.97543 0.0
O199 O 0.49604 0.03384 0.98071 0.0
O200 O 0.5292 0.0234 0.01405 0.0
N201 N 0.44662 0.00784 0.95862 0.0
C202 C 0.45041 0.01128 0.93163 0.0
C203 C 0.4044 0.01944 0.93786 0.0
N204 N 0.41801 0.01315 0.96247 0.0
N205 N 0.42428 0.0185 0.91819 0.0
C206 C 0.54398 0.99059 0.07945 0.0
C207 C 0.56975 0.94745 0.08311 0.0
N208 N 0.53742 0.97571 0.05741 0.0
N209 N 0.55349 0.94892 0.05969 0.0
N210 N 0.56388 0.97327 0.09591 0.0
H211 H 0.5253 0.03489 0.06496 0.0
H212 H 0.54873 0.03316 0.09526 0.0
H213 H 0.51281 0.02332 0.0975 0.0
C214 C 0.53207 0.02241 0.08438 0.0
C215 C 0.47959 0.00895 0.91851 0.0
H216 H 0.4964 0.01526 0.93269 0.0
H217 H 0.47791 0.02332 0.89972 0.0
H218 H 0.48673 0.98572 0.9127 0.0
O219 O 0.50503 0.96906 0.96581 0.0
O220 O 0.53689 0.95949 0.0001 0.0
C221 C 0.51813 0.04003 0.99399 0.0
O222 O 0.48764 0.95122 0.03584 0.0
O223 O 0.45578 0.95992 0.00139 0.0
Zn224 Zn 0.25465 0.27664 0.24773 0.0
O225 O 0.29512 0.26837 0.26915 0.0
C226 C 0.27712 0.23156 0.20879 0.0
Zn227 Zn 0.24264 0.23328 0.26013 0.0
C228 C 0.30031 0.24468 0.28379 0.0
O229 O 0.2819 0.22679 0.28407 0.0
C230 C 0.19671 0.26592 0.22415 0.0
O231 O 0.21976 0.25042 0.29438 0.0
O232 O 0.23363 0.2928 0.28374 0.0
N233 N 0.23699 0.19123 0.27033 0.0
C234 C 0.21479 0.18048 0.28216 0.0
C235 C 0.24742 0.14345 0.27384 0.0
N236 N 0.25725 0.16822 0.26516 0.0
N237 N 0.22095 0.15068 0.28478 0.0
C238 C 0.28037 0.33074 0.2241 0.0
C239 C 0.25071 0.36668 0.23956 0.0
N240 N 0.26044 0.31893 0.2385 0.0
N241 N 0.24209 0.34129 0.24812 0.0
N242 N 0.27468 0.36062 0.22447 0.0
H243 H 0.31451 0.29275 0.22359 0.0
H244 H 0.32406 0.32634 0.20842 0.0
H245 H 0.29917 0.30633 0.19063 0.0
C246 C 0.30615 0.31306 0.21103 0.0
C247 C 0.18646 0.19891 0.28973 0.0
H248 H 0.18175 0.2197 0.27717 0.0
H249 H 0.18803 0.20463 0.31149 0.0
H250 H 0.16797 0.18634 0.28714 0.0
O251 O 0.20349 0.24044 0.23574 0.0
O252 O 0.21391 0.28485 0.22641 0.0
C253 C 0.22015 0.27742 0.2995 0.0
O254 O 0.27575 0.25933 0.21173 0.0
O255 O 0.26549 0.21645 0.22624 0.0
Zn256 Zn 0.4845 0.52657 -0.00032 0.0
O257 O 0.4977 0.48701 0.02351 0.0
C258 C 0.5351 0.55251 0.01948 0.0
Zn259 Zn 0.52184 0.51638 0.97198 0.0
C260 C 0.5205 0.47012 0.01618 0.0
O261 O 0.53423 0.4777 -0.00418 0.0
C262 C 0.48579 0.57269 0.95522 0.0
O263 O 0.49718 0.49284 0.94627 0.0
O264 O 0.46002 0.50312 0.97325 0.0
N265 N 0.55815 0.50365 0.94984 0.0
C266 C 0.56397 0.50748 0.92333 0.0
C267 C 0.60214 0.48202 0.94266 0.0
N268 N 0.58179 0.48767 0.96174 0.0
N269 N 0.59143 0.49386 0.91828 0.0
C270 C 0.44072 0.53174 0.04728 0.0
C271 C 0.40203 0.55471 0.02694 0.0
N272 N 0.44786 0.53836 0.02164 0.0
N273 N 0.42388 0.55304 0.00918 0.0
N274 N 0.41206 0.54176 0.05112 0.0
H275 H 0.48396 0.51722 0.06491 0.0
H276 H 0.4601 0.4895 0.0646 0.0
H277 H 0.45488 0.51847 0.08883 0.0
C278 C 0.46114 0.51329 0.06764 0.0
C279 C 0.54368 0.52703 0.90354 0.0
H280 H 0.52081 0.52319 0.90617 0.0
H281 H 0.54943 0.5236 0.88203 0.0
H282 H 0.54473 0.55053 0.90791 0.0
O283 O 0.50857 0.55568 0.94796 0.0
O284 O 0.47211 0.56542 0.97577 0.0
C285 C 0.47098 0.49071 0.95216 0.0
O286 O 0.50896 0.55004 0.02536 0.0
O287 O 0.54636 0.54009 -0.00153 0.0
Zn288 Zn 0.74262 0.27738 0.24969 0.0
O289 O 0.72173 0.29422 0.2124 0.0
C290 C 0.68761 0.29615 0.27843 0.0
Zn291 Zn 0.71509 0.24157 0.25131 0.0
C292 C 0.70207 0.28103 0.20192 0.0
O293 O 0.69558 0.25806 0.21391 0.0
C294 C 0.75352 0.23889 0.30006 0.0
O295 O 0.74749 0.21283 0.23029 0.0
O296 O 0.77362 0.24877 0.22827 0.0
N297 N 0.68816 0.21046 0.25255 0.0
C298 C 0.69348 0.18059 0.25442 0.0
C299 C 0.6471 0.19377 0.25153 0.0
N300 N 0.65933 0.21859 0.25094 0.0
N301 N 0.66805 0.16958 0.25372 0.0
C302 C 0.76759 0.33728 0.25399 0.0
C303 C 0.8128 0.32254 0.24705 0.0
N304 N 0.77052 0.30821 0.2485 0.0
N305 N 0.79862 0.29926 0.2439 0.0
N306 N 0.79382 0.34672 0.25345 0.0
H307 H 0.72146 0.35045 0.2453 0.0
H308 H 0.74062 0.38039 0.25462 0.0
H309 H 0.7333 0.35389 0.28036 0.0
C310 C 0.73903 0.35671 0.25874 0.0
C311 C 0.7234 0.16242 0.25835 0.0
H312 H 0.73264 0.15725 0.23809 0.0
H313 H 0.7222 0.14124 0.26957 0.0
H314 H 0.73837 0.17476 0.26966 0.0
O315 O 0.73389 0.2263 0.28897 0.0
O316 O 0.76264 0.26022 0.28754 0.0
C317 C 0.77043 0.2225 0.22277 0.0
O318 O 0.71102 0.30514 0.27137 0.0
O319 O 0.68338 0.27037 0.27219 0.0
Zn320 Zn 0.03343 0.49229 0.53726 0.0
O321 O 0.00964 0.52821 0.5581 0.0
C322 C 0.99123 0.45347 0.55381 0.0
Zn323 Zn 0.99671 0.49436 0.50643 0.0
C324 C 0.98441 0.5402 0.54889 0.0
O325 O 0.97375 0.53024 0.52756 0.0
C326 C 0.04576 0.44698 0.49416 0.0
O327 O 0.01521 0.52481 0.48223 0.0
O328 O 0.05133 0.52309 0.51259 0.0
N329 N 0.96168 0.49716 0.47957 0.0
C330 C 0.9598 0.49205 0.45268 0.0
C331 C 0.91616 0.50436 0.4661 0.0
N332 N 0.93454 0.50496 0.48782 0.0
N333 N 0.93149 0.49629 0.4438 0.0
C334 C 0.07212 0.49589 0.59018 0.0
C335 C 0.11493 0.48141 0.57564 0.0
N336 N 0.06897 0.48893 0.56382 0.0
N337 N 0.09559 0.47962 0.55497 0.0
N338 N 0.10081 0.49132 0.5981 0.0
H339 H 0.04318 0.53407 0.60232 0.0
H340 H 0.05208 0.50643 0.6291 0.0
H341 H 0.02714 0.50053 0.60185 0.0
C342 C 0.04727 0.50984 0.60695 0.0
C343 C 0.98561 0.48441 0.43486 0.0
H344 H 0.00491 0.49337 0.44286 0.0
H345 H 0.98016 0.49321 0.41369 0.0
H346 H 0.99139 0.45997 0.43426 0.0
O347 O 0.02018 0.45852 0.48556 0.0
O348 O 0.05654 0.45683 0.51549 0.0
C349 C 0.03881 0.53335 0.49013 0.0
O350 O 0.01503 0.46178 0.56154 0.0
O351 O 0.97865 0.46379 0.53138 0.0
Zn352 Zn 0.74726 0.74356 0.2495 0.0
O353 O 0.76698 0.77334 0.22448 0.0
C354 C 0.79838 0.69671 0.24013 0.0
Zn355 Zn 0.78312 0.74321 0.28053 0.0
C356 C 0.79053 0.78202 0.2326 0.0
O357 O 0.80194 0.77306 0.25587 0.0
C358 C 0.74054 0.70463 0.29749 0.0
O359 O 0.75763 0.77869 0.30022 0.0
O360 O 0.72249 0.78 0.26901 0.0
N361 N 0.81548 0.74044 0.30968 0.0
C362 C 0.82815 0.76092 0.32261 0.0
C363 C 0.84396 0.71902 0.34249 0.0
N364 N 0.82551 0.71441 0.32191 0.0
N365 N 0.8461 0.74798 0.34314 0.0
C366 C 0.71215 0.73399 0.19626 0.0
C367 C 0.66824 0.74419 0.20944 0.0
N368 N 0.71337 0.74358 0.22196 0.0
N369 N 0.68605 0.75016 0.22999 0.0
N370 N 0.68399 0.73378 0.18802 0.0
H371 H 0.75554 0.73988 0.1847 0.0
H372 H 0.73215 0.73088 0.15699 0.0
H373 H 0.74774 0.70284 0.1821 0.0
C374 C 0.73838 0.7266 0.17893 0.0
C375 C 0.82124 0.79372 0.31681 0.0
H376 H 0.80463 0.79944 0.30006 0.0
H377 H 0.84157 0.8021 0.31111 0.0
H378 H 0.81326 0.80502 0.33556 0.0
O379 O 0.7643 0.71318 0.30461 0.0
O380 O 0.72802 0.71401 0.27484 0.0
C381 C 0.73238 0.7901 0.29066 0.0
O382 O 0.77264 0.70676 0.23083 0.0
O383 O 0.80819 0.7081 0.26104 0.0
Zn384 Zn 0.7341 0.24253 0.7915 0.0
O385 O 0.75519 0.20022 0.80617 0.0
C386 C 0.77515 0.2683 0.82625 0.0
Zn387 Zn 0.77376 0.24852 0.76886 0.0
C388 C 0.78061 0.18983 0.79821 0.0
O389 O 0.79327 0.20516 0.7817 0.0
C390 C 0.72686 0.30109 0.76202 0.0
O391 O 0.75687 0.23159 0.73328 0.0
O392 O 0.71882 0.22374 0.75666 0.0
N393 N 0.81149 0.25364 0.74997 0.0
C394 C 0.81651 0.26996 0.72782 0.0
C395 C 0.85816 0.24967 0.74466 0.0
N396 N 0.83739 0.24089 0.7603 0.0
N397 N 0.84558 0.268 0.7242 0.0
C398 C 0.69195 0.22468 0.83491 0.0
C399 C 0.6501 0.24088 0.81607 0.0
N400 N 0.69665 0.23733 0.81062 0.0
N401 N 0.67065 0.24744 0.79898 0.0
N402 N 0.66287 0.22648 0.83874 0.0
H403 H 0.7359 0.22146 0.85269 0.0
H404 H 0.72139 0.18757 0.85218 0.0
H405 H 0.70829 0.21518 0.87642 0.0
C406 C 0.71575 0.21173 0.85525 0.0
C407 C 0.79308 0.28673 0.70905 0.0
H408 H 0.77311 0.27619 0.70892 0.0
H409 H 0.80105 0.28787 0.68795 0.0
H410 H 0.7873 0.30968 0.71612 0.0
O411 O 0.75341 0.29213 0.7563 0.0
O412 O 0.71349 0.28449 0.77659 0.0
C413 C 0.73235 0.22247 0.73441 0.0
O414 O 0.74954 0.26171 0.82581 0.0
O415 O 0.79034 0.26504 0.80499 0.0
Zn416 Zn 0.77323 0.78409 0.75119 0.0
O417 O 0.80148 0.76123 0.7818 0.0
C418 C 0.79811 0.74163 0.71076 0.0
Zn419 Zn 0.74915 0.74587 0.7505 0.0
C420 C 0.79932 0.73509 0.78995 0.0
O421 O 0.77905 0.72245 0.77996 0.0
C422 C 0.72263 0.79515 0.71218 0.0
O423 O 0.72058 0.76304 0.78161 0.0
O424 O 0.74408 0.80115 0.78161 0.0
N425 N 0.72875 0.71018 0.74528 0.0
C426 C 0.72374 0.68791 0.76213 0.0
C427 C 0.70983 0.67826 0.722 0.0
N428 N 0.72007 0.70417 0.72039 0.0
N429 N 0.71212 0.66736 0.74791 0.0
C430 C 0.82216 0.82345 0.75312 0.0
C431 C 0.79766 0.86575 0.76128 0.0
N432 N 0.79377 0.82012 0.75459 0.0
N433 N 0.77862 0.84639 0.75976 0.0
N434 N 0.82517 0.85196 0.75719 0.0
H435 H 0.86745 0.80296 0.75917 0.0
H436 H 0.85049 0.79631 0.72684 0.0
H437 H 0.84181 0.77718 0.75707 0.0
C438 C 0.8469 0.79853 0.74902 0.0
C439 C 0.729 0.68732 0.79247 0.0
H440 H 0.7281 0.71006 0.79996 0.0
H441 H 0.75118 0.67483 0.79764 0.0
H442 H 0.71248 0.67638 0.80306 0.0
O443 O 0.71982 0.76945 0.72109 0.0
O444 O 0.74398 0.80703 0.72096 0.0
C445 C 0.72395 0.78805 0.79089 0.0
O446 O 0.80228 0.76626 0.7203 0.0
O447 O 0.77738 0.72936 0.71977 0.0
Zn448 Zn 0.51907 0.51673 0.52085 0.0
O449 O 0.54856 0.5004 0.55332 0.0
C450 C 0.53643 0.46317 0.48896 0.0
Zn451 Zn 0.49132 0.48244 0.52967 0.0
C452 C 0.54401 0.47795 0.56745 0.0
O453 O 0.52176 0.46578 0.56176 0.0
C454 C 0.46669 0.52124 0.48301 0.0
O455 O 0.46742 0.51077 0.55745 0.0
O456 O 0.49413 0.54502 0.54765 0.0
N457 N 0.46764 0.44947 0.53751 0.0
C458 C 0.43855 0.4489 0.53752 0.0
C459 C 0.46047 0.4047 0.5457 0.0
N460 N 0.48119 0.42199 0.54248 0.0
N461 N 0.43345 0.42091 0.54244 0.0
C462 C 0.56998 0.5485 0.50277 0.0
C463 C 0.5486 0.59332 0.49791 0.0
N464 N 0.54241 0.54953 0.51136 0.0
N465 N 0.52925 0.57744 0.5086 0.0
N466 N 0.5743 0.57565 0.49388 0.0
H467 H 0.58935 0.50646 0.52172 0.0
H468 H 0.61521 0.52752 0.50669 0.0
H469 H 0.59219 0.5089 0.48539 0.0
C470 C 0.59303 0.52131 0.50437 0.0
C471 C 0.4154 0.47587 0.53362 0.0
H472 H 0.39722 0.47472 0.54774 0.0
H473 H 0.40647 0.47697 0.51232 0.0
H474 H 0.42427 0.49653 0.53696 0.0
O475 O 0.46125 0.49954 0.49763 0.0
O476 O 0.48944 0.53261 0.48836 0.0
C477 C 0.47323 0.53675 0.56057 0.0
O478 O 0.54309 0.48847 0.49365 0.0
O479 O 0.5156 0.45453 0.50167 0.0
Zn480 Zn 0.02078 0.50425 0.0132 0.0
O481 O 0.00354 0.54364 0.99031 0.0
C482 C 0.97586 0.51767 0.05538 0.0
Zn483 Zn 0.98085 0.48476 0.00403 0.0
C484 C 0.97775 0.54582 0.98 0.0
O485 O 0.96359 0.5244 0.98287 0.0
C486 C 0.02339 0.44288 0.03718 0.0
O487 O -0.00059 0.46724 0.96747 0.0
O488 O 0.03926 0.48587 0.97735 0.0
N489 N 0.9426 0.46997 -0.00334 0.0
C490 C 0.93582 0.44287 0.99249 0.0
C491 C 0.8956 0.473 0.99428 0.0
N492 N 0.91763 0.48863 -0.00216 0.0
N493 N 0.9064 0.44416 0.99122 0.0
C494 C 0.06246 0.54508 0.03539 0.0
C495 C 0.10478 0.52109 0.02767 0.0
N496 N 0.05837 0.5205 0.02226 0.0
N497 N 0.08468 0.50569 0.01732 0.0
N498 N 0.09133 0.5458 0.03925 0.0
H499 H 0.01869 0.57017 0.02986 0.0
H500 H 0.04582 0.5909 0.04294 0.0
H501 H 0.03201 0.56428 0.06459 0.0
C502 C 0.03832 0.56901 0.04347 0.0
C503 C 0.95801 0.4157 0.98843 0.0
H504 H 0.9496 0.40121 0.97334 0.0
H505 H 0.96251 0.40306 0.00816 0.0
H506 H 0.97891 0.42166 0.98137 0.0
O507 O -0.00193 0.44535 0.02584 0.0
O508 O 0.03779 0.46431 0.03526 0.0
C509 C 0.0252 0.47115 0.96153 0.0
O510 O 0.0014 0.52227 0.04955 0.0
O511 O 0.96265 0.50227 0.03969 0.0
C512 C 0.23257 0.21021 0.82323 0.0
C513 C 0.21792 0.21034 0.7977 0.0
C514 C 0.22309 0.19544 0.84594 0.0
C515 C 0.17508 0.14045 0.86546 0.0
H516 H 0.16945 0.18152 0.93371 0.0
C517 C 0.10299 0.14366 0.96851 0.0
C518 C 0.10175 0.11326 0.97183 0.0
C519 C 0.12195 0.15367 0.94986 0.0
C520 C 0.17073 0.16981 0.91478 0.0
H521 H 0.18243 0.19425 0.77585 0.0
H522 H 0.16576 0.16918 0.81513 0.0
H523 H 0.19358 0.20157 0.89545 0.0
H524 H 0.11911 0.06966 0.95743 0.0
H525 H 0.15351 0.08666 0.92678 0.0
H526 H 0.15069 0.1098 0.8839 0.0
C527 C 0.18483 0.17996 0.81776 0.0
C528 C 0.18498 0.18108 0.89294 0.0
C529 C 0.19432 0.19456 0.79516 0.0
C530 C 0.12033 0.09307 0.95647 0.0
C531 C 0.13961 0.10297 0.93823 0.0
C532 C 0.16061 0.12939 0.88712 0.0
C533 C 0.19879 0.18052 0.84354 0.0
C534 C 0.18682 0.16683 0.86782 0.0
C535 C 0.14017 0.13346 0.93411 0.0
C536 C 0.15783 0.14412 0.91197 0.0
H537 H 0.25081 0.2222 0.82588 0.0
H538 H 0.23457 0.19601 0.86542 0.0
H539 H 0.1765 0.12859 0.8466 0.0
H540 H 0.08859 0.15973 0.97976 0.0
H541 H 0.12133 0.17734 0.94699 0.0
C542 C 0.07549 0.97866 0.11357 0.0
C543 C 0.08415 0.99604 0.09217 0.0
C544 C 0.09524 0.96756 0.13473 0.0
C545 C 0.17149 0.93969 0.14515 0.0
H546 H 0.15 0.93111 0.22055 0.0
C547 C 0.23756 0.85042 0.21673 0.0
C548 C 0.22023 0.83332 0.2315 0.0
C549 C 0.22501 0.87748 0.20422 0.0
C550 C 0.15638 0.93332 0.19959 0.0
H551 H 0.11979 0.01653 0.07655 0.0
H552 H 0.15493 0.99612 0.11343 0.0
H553 H 0.11977 0.9675 0.18998 0.0
H554 H 0.17649 0.83173 0.24577 0.0
H555 H 0.1544 0.87837 0.22335 0.0
H556 H 0.20673 0.90413 0.15395 0.0
C557 C 0.13266 0.99152 0.11386 0.0
C558 C 0.1392 0.95428 0.18219 0.0
C559 C 0.11262 0.00317 0.09285 0.0
C560 C 0.1904 0.84438 0.23449 0.0
C561 C 0.1778 0.87131 0.22181 0.0
C562 C 0.18851 0.91853 0.16246 0.0
C563 C 0.12421 0.97322 0.13472 0.0
C564 C 0.14597 0.95681 0.15456 0.0
C565 C 0.19483 0.88791 0.20608 0.0
C566 C 0.18044 0.91427 0.18958 0.0
H567 H 0.05358 0.97304 0.11364 0.0
H568 H 0.08824 0.95319 0.15034 0.0
H569 H 0.17703 0.941 0.12386 0.0
H570 H 0.26077 0.84273 0.21451 0.0
H571 H 0.23884 0.88994 0.19264 0.0
C572 C 0.42942 0.92106 0.43193 0.0
C573 C 0.41652 0.93698 0.45374 0.0
C574 C 0.41641 0.89848 0.42068 0.0
C575 C 0.34437 0.87665 0.41121 0.0
H576 H 0.38935 0.80564 0.38273 0.0
C577 C 0.28948 0.79521 0.3482 0.0
C578 C 0.30326 0.7871 0.3237 0.0
C579 C 0.3038 0.80931 0.36815 0.0
C580 C 0.37654 0.82538 0.39058 0.0
H581 H 0.38026 0.94193 0.48109 0.0
H582 H 0.35735 0.90217 0.46151 0.0
H583 H 0.4139 0.83781 0.41124 0.0
H584 H 0.34316 0.78658 0.30124 0.0
H585 H 0.36799 0.81152 0.33592 0.0
H586 H 0.30721 0.86477 0.38992 0.0
C587 C 0.37752 0.90714 0.4531 0.0
C588 C 0.39055 0.84376 0.40688 0.0
C589 C 0.39057 0.92976 0.46433 0.0
C590 C 0.33193 0.79263 0.31986 0.0
C591 C 0.34626 0.80669 0.33983 0.0
C592 C 0.33036 0.85827 0.39495 0.0
C593 C 0.3901 0.89155 0.43089 0.0
C594 C 0.37473 0.86995 0.41681 0.0
C595 C 0.3322 0.8155 0.36402 0.0
C596 C 0.34643 0.83283 0.38394 0.0
H597 H 0.44884 0.92693 0.42279 0.0
H598 H 0.42627 0.88738 0.40316 0.0
H599 H 0.33165 0.89687 0.41824 0.0
H600 H 0.26745 0.79106 0.35185 0.0
H601 H 0.29256 0.8156 0.38673 0.0
C602 C 0.3211 0.20674 0.69253 0.0
C603 C 0.29091 0.20548 0.69002 0.0
C604 C 0.34112 0.19002 0.67585 0.0
C605 C 0.34481 0.15211 0.60986 0.0
H606 H 0.4229 0.11766 0.63677 0.0
C607 C 0.42415 0.07288 0.54607 0.0
C608 C 0.45386 0.07641 0.5463 0.0
C609 C 0.40462 0.08853 0.56381 0.0
C610 C 0.40128 0.12742 0.62887 0.0
H611 H 0.25838 0.18462 0.66864 0.0
H612 H 0.2933 0.15508 0.63987 0.0
H613 H 0.38807 0.14372 0.6679 0.0
H614 H 0.48627 0.0992 0.56558 0.0
H615 H 0.45205 0.12667 0.59661 0.0
H616 H 0.35799 0.13565 0.57088 0.0
C617 C 0.30144 0.16954 0.65434 0.0
C618 C 0.38127 0.14237 0.64672 0.0
C619 C 0.28138 0.18636 0.67098 0.0
C620 C 0.46355 0.09602 0.56479 0.0
C621 C 0.44397 0.1116 0.58271 0.0
C622 C 0.36477 0.13707 0.59206 0.0
C623 C 0.33154 0.17147 0.65627 0.0
C624 C 0.35275 0.15493 0.63746 0.0
C625 C 0.41425 0.10806 0.58239 0.0
C626 C 0.39325 0.12452 0.60133 0.0
H627 H 0.32926 0.22132 0.70687 0.0
H628 H 0.36402 0.1924 0.67776 0.0
H629 H 0.3233 0.16199 0.60181 0.0
H630 H 0.41588 0.05794 0.53215 0.0
H631 H 0.382 0.08496 0.56324 0.0
C632 C 0.07204 0.96047 0.51622 0.0
C633 C 0.04302 0.95544 0.51345 0.0
C634 C 0.09282 0.93982 0.53078 0.0
C635 C 0.09219 0.88572 0.58699 0.0
H636 H 0.17638 0.87076 0.57847 0.0
C637 C 0.16951 0.8168 0.66681 0.0
C638 C 0.19417 0.82922 0.67489 0.0
C639 C 0.15251 0.82827 0.64385 0.0
C640 C 0.15288 0.87481 0.58105 0.0
H641 H 0.01315 0.92437 0.52088 0.0
H642 H 0.04962 0.88763 0.54506 0.0
H643 H 0.14454 0.89661 0.54168 0.0
H644 H 0.22048 0.86326 0.6652 0.0
H645 H 0.19045 0.88353 0.62541 0.0
H646 H 0.10039 0.8647 0.62647 0.0
C647 C 0.0563 0.90776 0.53703 0.0
C648 C 0.1347 0.88955 0.56003 0.0
C649 C 0.03551 0.92859 0.52305 0.0
C650 C 0.20157 0.85322 0.65951 0.0
C651 C 0.18458 0.86465 0.63656 0.0
C652 C 0.11028 0.87095 0.60785 0.0
C653 C 0.08473 0.91387 0.54236 0.0
C654 C 0.10418 0.89548 0.56295 0.0
C655 C 0.15984 0.85235 0.62856 0.0
C656 C 0.1408 0.86573 0.60529 0.0
H657 H 0.07803 0.98127 0.50908 0.0
H658 H 0.1145 0.94524 0.53463 0.0
H659 H 0.06885 0.89058 0.59026 0.0
H660 H 0.1634 0.79814 0.67811 0.0
H661 H 0.13365 0.81824 0.63801 0.0
C662 C 0.33922 0.92014 0.72059 0.0
C663 C 0.3186 0.90715 0.73525 0.0
C664 C 0.34926 0.94544 0.73014 0.0
C665 C 0.33806 0.00086 0.78566 0.0
H666 H 0.42299 0.98731 0.78996 0.0
C667 C 0.39647 0.04136 0.87738 0.0
C668 C 0.4178 0.0191 0.88939 0.0
C669 C 0.38689 0.03941 0.85027 0.0
C670 C 0.39924 0.99156 0.78892 0.0
H671 H 0.29262 0.9102 0.77145 0.0
H672 H 0.30966 0.95375 0.78801 0.0
H673 H 0.3977 0.96193 0.75623 0.0
H674 H 0.44609 0.97762 0.88272 0.0
H675 H 0.42916 0.97353 0.83609 0.0
H676 H 0.33945 0.02762 0.82038 0.0
C677 C 0.31742 0.94552 0.76858 0.0
C678 C 0.38467 0.97734 0.7692 0.0
C679 C 0.30745 0.92043 0.75903 0.0
C680 C 0.43025 0.9955 0.87365 0.0
C681 C 0.42048 0.99328 0.84677 0.0
C682 C 0.3526 0.01456 0.80575 0.0
C683 C 0.33908 0.95791 0.75474 0.0
C684 C 0.3539 0.98027 0.7686 0.0
C685 C 0.39802 0.01473 0.83492 0.0
C686 C 0.38337 0.00846 0.80877 0.0
H687 H 0.34829 0.91003 0.70232 0.0
H688 H 0.36586 0.95447 0.71891 0.0
H689 H 0.31429 0.00441 0.78511 0.0
H690 H 0.38663 0.05973 0.8893 0.0
H691 H 0.36989 0.05656 0.84177 0.0
C692 C 0.4424 0.05625 0.08302 0.0
C693 C 0.43539 0.05095 0.05572 0.0
C694 C 0.42504 0.07846 0.09714 0.0
C695 C 0.35082 0.12308 0.09612 0.0
H696 H 0.3866 0.17195 0.14631 0.0
C697 C 0.31534 0.22724 0.17275 0.0
C698 C 0.29281 0.21592 0.18617 0.0
C699 C 0.33226 0.21005 0.15383 0.0
C700 C 0.3763 0.15879 0.13206 0.0
H701 H 0.4045 0.06486 0.02188 0.0
H702 H 0.37447 0.10349 0.04637 0.0
H703 H 0.4177 0.13563 0.11973 0.0
H704 H 0.26944 0.17844 0.18939 0.0
H705 H 0.29855 0.14886 0.15664 0.0
H706 H 0.30948 0.14613 0.10842 0.0
C707 C 0.39317 0.09033 0.05703 0.0
C708 C 0.3941 0.13768 0.11713 0.0
C709 C 0.41047 0.06815 0.04296 0.0
C710 C 0.28671 0.18779 0.17947 0.0
C711 C 0.30331 0.17086 0.16052 0.0
C712 C 0.33308 0.14412 0.11103 0.0
C713 C 0.40027 0.09585 0.08426 0.0
C714 C 0.38155 0.11927 0.09927 0.0
C715 C 0.32659 0.1815 0.14779 0.0
C716 C 0.34558 0.16187 0.12953 0.0
H717 H 0.46132 0.04334 0.0935 0.0
H718 H 0.43085 0.08178 0.11825 0.0
H719 H 0.34038 0.10918 0.0827 0.0
H720 H 0.3206 0.2488 0.17761 0.0
H721 H 0.34996 0.21891 0.14418 0.0
C722 C 0.0075 0.05481 0.35367 0.0
C723 C 0.01124 0.0309 0.37249 0.0
C724 C 0.03165 0.06306 0.34091 0.0
C725 C 0.11047 0.0413 0.32748 0.0
H726 H 0.11048 0.12568 0.33425 0.0
C727 C 0.19147 0.13556 0.32179 0.0
C728 C 0.20312 0.13075 0.29594 0.0
C729 C 0.17076 0.11899 0.33115 0.0
C730 C 0.11095 0.10203 0.33243 0.0
H731 H 0.04192 0.99376 0.38983 0.0
H732 H 0.08481 0.0088 0.36823 0.0
H733 H 0.06801 0.10458 0.34788 0.0
H734 H 0.20451 0.10375 0.26036 0.0
H735 H 0.16764 0.0747 0.27655 0.0
H736 H 0.15395 0.039 0.31239 0.0
C737 C 0.06329 0.02152 0.3636 0.0
C738 C 0.08642 0.09001 0.33982 0.0
C739 C 0.03898 0.01315 0.37621 0.0
C740 C 0.1955 0.10773 0.28034 0.0
C741 C 0.17458 0.09117 0.28963 0.0
C742 C 0.13516 0.05343 0.31994 0.0
C743 C 0.05994 0.04727 0.34668 0.0
C744 C 0.08586 0.05956 0.33745 0.0
C745 C 0.16129 0.09742 0.31472 0.0
C746 C 0.13565 0.08389 0.32262 0.0
H747 H 0.986 0.06793 0.34988 0.0
H748 H 0.02833 0.08248 0.3273 0.0
H749 H 0.11056 0.01775 0.32542 0.0
H750 H 0.19774 0.1528 0.33431 0.0
H751 H 0.16138 0.12376 0.35087 0.0
C752 C 0.79107 0.17423 0.20199 0.0
C753 C 0.7932 0.20384 0.20742 0.0
C754 C 0.81257 0.15703 0.18712 0.0
C755 C 0.88896 0.15382 0.16413 0.0
H756 H 0.86493 0.10132 0.11019 0.0
C757 C 0.96643 0.09855 0.08266 0.0
C758 C 0.96541 0.06851 0.07802 0.0
C759 C 0.94598 0.11475 0.09931 0.0
C760 C 0.872 0.11569 0.12536 0.0
H761 H 0.81962 0.23862 0.20145 0.0
H762 H 0.85659 0.20894 0.17516 0.0
H763 H 0.82812 0.12979 0.13786 0.0
H764 H 0.94241 0.03187 0.08766 0.0
H765 H 0.90683 0.06008 0.11647 0.0
H766 H 0.93284 0.13998 0.15122 0.0
C767 C 0.83869 0.19873 0.18281 0.0
C768 C 0.85093 0.13193 0.14128 0.0
C769 C 0.81733 0.21583 0.19775 0.0
C770 C 0.94372 0.05499 0.09059 0.0
C771 C 0.92322 0.07118 0.10705 0.0
C772 C 0.91002 0.1377 0.14807 0.0
C773 C 0.83659 0.16913 0.17726 0.0
C774 C 0.85913 0.15124 0.16083 0.0
C775 C 0.92402 0.10126 0.11149 0.0
C776 C 0.90175 0.11848 0.12852 0.0
H777 H 0.77282 0.16431 0.20917 0.0
H778 H 0.81047 0.13418 0.18352 0.0
H779 H 0.89612 0.16812 0.1793 0.0
H780 H 0.98287 0.10963 0.07329 0.0
H781 H 0.94699 0.13798 0.10223 0.0
C782 C 0.04073 0.56301 0.44678 0.0
C783 C 0.05118 0.55555 0.47366 0.0
C784 C 0.05219 0.58433 0.43134 0.0
C785 C 0.11669 0.62284 0.42823 0.0
H786 H 0.066 0.67776 0.37911 0.0
C787 C 0.15758 0.72062 0.37437 0.0
C788 C 0.15263 0.72267 0.34599 0.0
C789 C 0.14321 0.70214 0.39041 0.0
C790 C 0.08036 0.66246 0.39268 0.0
H791 H 0.08152 0.56482 0.5056 0.0
H792 H 0.10099 0.60251 0.47896 0.0
H793 H 0.04512 0.64124 0.40644 0.0
H794 H 0.12746 0.70903 0.31218 0.0
H795 H 0.1021 0.67646 0.34028 0.0
H796 H 0.15182 0.64431 0.41468 0.0
C797 C 0.08446 0.59142 0.46952 0.0
C798 C 0.06849 0.64147 0.40824 0.0
C799 C 0.07321 0.5699 0.48484 0.0
C800 C 0.13191 0.70726 0.334 0.0
C801 C 0.11729 0.68893 0.35007 0.0
C802 C 0.12846 0.64398 0.41291 0.0
C803 C 0.07416 0.59883 0.44255 0.0
C804 C 0.08655 0.62137 0.42615 0.0
C805 C 0.12337 0.68568 0.37833 0.0
C806 C 0.11043 0.66393 0.39498 0.0
H807 H 0.02383 0.55221 0.43757 0.0
H808 H 0.0441 0.58915 0.4105 0.0
H809 H 0.13134 0.60733 0.44136 0.0
H810 H 0.17347 0.73242 0.38395 0.0
H811 H 0.14797 0.7003 0.41221 0.0
C812 C 0.55863 0.9715 0.57568 0.0
C813 C 0.53962 0.96318 0.55556 0.0
C814 C 0.57249 0.95081 0.59508 0.0
C815 C 0.59956 0.87187 0.60353 0.0
H816 H 0.6185 0.89447 0.67678 0.0
C817 C 0.67864 0.79728 0.68089 0.0
C818 C 0.69994 0.81173 0.6934 0.0
C819 C 0.65565 0.8134 0.665 0.0
C820 C 0.61335 0.88787 0.65638 0.0
H821 H 0.51912 0.927 0.54062 0.0
H822 H 0.54365 0.89042 0.57486 0.0
H823 H 0.58129 0.92666 0.64883 0.0
H824 H 0.71419 0.85426 0.69866 0.0
H825 H 0.67394 0.8824 0.67099 0.0
H826 H 0.63216 0.83328 0.61108 0.0
C827 C 0.54783 0.91306 0.57538 0.0
C828 C 0.59204 0.90621 0.64042 0.0
C829 C 0.5337 0.93396 0.55594 0.0
C830 C 0.69816 0.8425 0.68925 0.0
C831 C 0.67499 0.85863 0.67365 0.0
C832 C 0.62076 0.85336 0.61964 0.0
C833 C 0.56774 0.92123 0.59486 0.0
C834 C 0.58568 0.89896 0.61348 0.0
C835 C 0.65336 0.84428 0.66167 0.0
C836 C 0.6285 0.86175 0.64584 0.0
H837 H 0.56351 0.99391 0.57602 0.0
H838 H 0.58801 0.95778 0.6095 0.0
H839 H 0.59532 0.8658 0.58277 0.0
H840 H 0.67948 0.77355 0.68369 0.0
H841 H 0.63924 0.80186 0.65593 0.0
C842 C 0.42344 0.4749 0.9383 0.0
C843 C 0.45392 0.47266 0.93552 0.0
C844 C 0.40757 0.4567 0.92355 0.0
C845 C 0.41534 0.38496 0.8919 0.0
H846 H 0.34579 0.41819 0.84859 0.0
C847 C 0.36186 0.31644 0.81395 0.0
C848 C 0.33136 0.32257 0.80919 0.0
C849 C 0.37584 0.33383 0.83132 0.0
C850 C 0.3648 0.4084 0.861 0.0
H851 H 0.49164 0.44974 0.91506 0.0
H852 H 0.46389 0.41763 0.88964 0.0
H853 H 0.3719 0.45083 0.87488 0.0
H854 H 0.29174 0.35244 0.8185 0.0
H855 H 0.31568 0.38152 0.85018 0.0
H856 H 0.40813 0.34249 0.87863 0.0
C857 C 0.45237 0.43354 0.90317 0.0
C858 C 0.37983 0.42718 0.8759 0.0
C859 C 0.46816 0.45205 0.91756 0.0
C860 C 0.31505 0.34627 0.82253 0.0
C861 C 0.32896 0.36345 0.84022 0.0
C862 C 0.40008 0.3661 0.87735 0.0
C863 C 0.42197 0.43563 0.90613 0.0
C864 C 0.40541 0.41565 0.89119 0.0
C865 C 0.35962 0.35779 0.84449 0.0
C866 C 0.37481 0.3776 0.86143 0.0
H867 H 0.41187 0.49061 0.95197 0.0
H868 H 0.38415 0.45864 0.92621 0.0
H869 H 0.43482 0.37552 0.90387 0.0
H870 H 0.37498 0.29854 0.80363 0.0
H871 H 0.39952 0.32907 0.83363 0.0
C872 C 0.88175 0.77908 0.35765 0.0
C873 C 0.86008 0.76216 0.36417 0.0
C874 C 0.89337 0.79527 0.37768 0.0
C875 C 0.87141 0.83602 0.43679 0.0
H876 H 0.95375 0.84351 0.44245 0.0
C877 C 0.91337 0.93413 0.48974 0.0
C878 C 0.9327 0.94731 0.47352 0.0
C879 C 0.90578 0.90673 0.4829 0.0
C880 C 0.93069 0.84156 0.44122 0.0
H881 H 0.83387 0.74778 0.39624 0.0
H882 H 0.85377 0.77692 0.43157 0.0
H883 H 0.93891 0.80213 0.4182 0.0
H884 H 0.95964 0.94184 0.43779 0.0
H885 H 0.94583 0.89505 0.42556 0.0
H886 H 0.86296 0.87662 0.45809 0.0
C887 C 0.86199 0.77735 0.41109 0.0
C888 C 0.92228 0.81787 0.42747 0.0
C889 C 0.85074 0.76074 0.39108 0.0
C890 C 0.94427 0.93264 0.45048 0.0
C891 C 0.9368 0.90545 0.44374 0.0
C892 C 0.87981 0.85993 0.45037 0.0
C893 C 0.88313 0.79503 0.40442 0.0
C894 C 0.89249 0.81563 0.42418 0.0
C895 C 0.91769 0.89206 0.45994 0.0
C896 C 0.90941 0.86361 0.45157 0.0
H897 H 0.88913 0.7802 0.33692 0.0
H898 H 0.90939 0.80907 0.37197 0.0
H899 H 0.84827 0.83477 0.43438 0.0
H900 H 0.90431 0.94484 0.50775 0.0
H901 H 0.89093 0.89687 0.49568 0.0
C902 C 0.42896 0.55058 0.58866 0.0
C903 C 0.45466 0.55793 0.5775 0.0
C904 C 0.41007 0.57166 0.60253 0.0
C905 C 0.40615 0.64277 0.63713 0.0
H906 H 0.32285 0.65076 0.61947 0.0
C907 C 0.32407 0.74079 0.67386 0.0
C908 C 0.29818 0.73373 0.68484 0.0
C909 C 0.34263 0.71972 0.65968 0.0
C910 C 0.34601 0.64863 0.62478 0.0
H911 H 0.48116 0.59282 0.57282 0.0
H912 H 0.44818 0.62951 0.59694 0.0
H913 H 0.35698 0.61214 0.59852 0.0
H914 H 0.27092 0.69938 0.68874 0.0
H915 H 0.30339 0.66265 0.66422 0.0
H916 H 0.39522 0.67918 0.66344 0.0
C917 C 0.4427 0.60745 0.59512 0.0
C918 C 0.36554 0.62648 0.61286 0.0
C919 C 0.46153 0.58645 0.5812 0.0
C920 C 0.2907 0.70555 0.68051 0.0
C921 C 0.30925 0.68451 0.66636 0.0
C922 C 0.38663 0.6649 0.64907 0.0
C923 C 0.41658 0.60042 0.60559 0.0
C924 C 0.3958 0.62335 0.61889 0.0
C925 C 0.33566 0.69119 0.6562 0.0
C926 C 0.35636 0.6681 0.64299 0.0
H927 H 0.42306 0.52878 0.58617 0.0
H928 H 0.39027 0.5655 0.61073 0.0
H929 H 0.42932 0.64065 0.64242 0.0
H930 H 0.3304 0.76234 0.67677 0.0
H931 H 0.3626 0.72567 0.65168 0.0
C932 C 0.56084 0.0667 0.98927 0.0
C933 C 0.53068 0.06639 0.98589 0.0
C934 C 0.57299 0.09068 0.97906 0.0
C935 C 0.55619 0.15135 0.92663 0.0
H936 H 0.63069 0.16981 0.95344 0.0
C937 C 0.62082 0.2307 0.86901 0.0
C938 C 0.64773 0.21502 0.86086 0.0
C939 C 0.60492 0.2187 0.88914 0.0
C940 C 0.60965 0.16514 0.94602 0.0
H941 H 0.48912 0.09157 0.97134 0.0
H942 H 0.50995 0.13416 0.95488 0.0
H943 H 0.60445 0.1381 0.98125 0.0
H944 H 0.67815 0.17376 0.86648 0.0
H945 H 0.65134 0.15371 0.90261 0.0
H946 H 0.56165 0.17841 0.89138 0.0
C947 C 0.52457 0.11543 0.96415 0.0
C948 C 0.59476 0.14676 0.96172 0.0
C949 C 0.51258 0.09112 0.97369 0.0
C950 C 0.65845 0.18719 0.8733 0.0
C951 C 0.64294 0.17554 0.8938 0.0
C952 C 0.57077 0.17023 0.91127 0.0
C953 C 0.55506 0.11514 0.96587 0.0
C954 C 0.56838 0.13871 0.95174 0.0
C955 C 0.61593 0.19102 0.90162 0.0
C956 C 0.59804 0.1764 0.92043 0.0
H957 H 0.5752 0.0478 -0.00138 0.0
H958 H 0.59659 0.08931 0.98044 0.0
H959 H 0.53624 0.1454 0.91792 0.0
H960 H 0.61194 0.25203 0.85948 0.0
H961 H 0.58387 0.23076 0.89468 0.0
C962 C 0.06608 0.40888 0.05855 0.0
C963 C 0.03576 0.41558 0.05291 0.0
C964 C 0.07771 0.38386 0.07459 0.0
C965 C 0.09692 0.32169 0.09979 0.0
H966 H 0.06791 0.32487 0.17335 0.0
C967 C 0.16022 0.25374 0.18944 0.0
C968 C 0.1695 0.27385 0.20759 0.0
C969 C 0.13721 0.26336 0.17048 0.0
C970 C 0.07577 0.32322 0.15273 0.0
H971 H 0.99385 0.40108 0.05906 0.0
H972 H 0.01428 0.35773 0.08806 0.0
H973 H 0.04074 0.35626 0.13687 0.0
H974 H 0.161 0.31874 0.22187 0.0
H975 H 0.12033 0.33523 0.18948 0.0
H976 H 0.13285 0.28994 0.11598 0.0
C977 C 0.02894 0.37167 0.07964 0.0
C978 C 0.06025 0.34108 0.1319 0.0
C979 C 0.01733 0.39642 0.06311 0.0
C980 C 0.15423 0.30292 0.20795 0.0
C981 C 0.13086 0.31226 0.18959 0.0
C982 C 0.11219 0.30348 0.12052 0.0
C983 C 0.0592 0.36535 0.08566 0.0
C984 C 0.07147 0.34145 0.10558 0.0
C985 C 0.12277 0.29288 0.17012 0.0
C986 C 0.10244 0.30516 0.1474 0.0
H987 H 0.0808 0.42315 0.05082 0.0
H988 H 0.10109 0.37966 0.07927 0.0
H989 H 0.10587 0.32155 0.07958 0.0
H990 H 0.17187 0.23124 0.18879 0.0
H991 H 0.13139 0.24812 0.1555 0.0
C992 C 0.63555 0.50561 0.89675 0.0
C993 C 0.60831 0.49598 0.8944 0.0
C994 C 0.65039 0.51174 0.87345 0.0
C995 C 0.631 0.54456 0.80825 0.0
H996 H 0.71511 0.535 0.79961 0.0
C997 C 0.67953 0.62993 0.74438 0.0
C998 C 0.70376 0.63976 0.75689 0.0
C999 C 0.67055 0.6037 0.75348 0.0
C1000 C 0.69157 0.53794 0.80171 0.0
H1001 H 0.57718 0.4809 0.86649 0.0
H1002 H 0.60234 0.49343 0.82523 0.0
H1003 H 0.69478 0.50158 0.83084 0.0
H1004 H 0.73976 0.62785 0.78642 0.0
H1005 H 0.72285 0.58372 0.80402 0.0
H1006 H 0.6276 0.58252 0.78152 0.0
C1007 C 0.61204 0.49641 0.84512 0.0
C1008 C 0.67998 0.51858 0.81934 0.0
C1009 C 0.59749 0.48973 0.86856 0.0
C1010 C 0.72001 0.62184 0.77747 0.0
C1011 C 0.71075 0.59593 0.78696 0.0
C1012 C 0.64258 0.56422 0.79104 0.0
C1013 C 0.6381 0.50843 0.84743 0.0
C1014 C 0.64971 0.52257 0.82359 0.0
C1015 C 0.68549 0.58685 0.77551 0.0
C1016 C 0.67312 0.562 0.78854 0.0
H1017 H 0.64447 0.51008 0.91658 0.0
H1018 H 0.67034 0.5212 0.87578 0.0
H1019 H 0.60759 0.5483 0.81141 0.0
H1020 H 0.66707 0.64297 0.72796 0.0
H1021 H 0.65148 0.59704 0.74365 0.0
C1022 C 0.66163 0.28008 0.16739 0.0
C1023 C 0.68493 0.29355 0.17735 0.0
C1024 C 0.64291 0.29379 0.14639 0.0
C1025 C 0.63525 0.35168 0.09185 0.0
H1026 H 0.55214 0.36046 0.10624 0.0
C1027 C 0.52719 0.43928 0.05951 0.0
C1028 C 0.53249 0.44265 0.03165 0.0
C1029 C 0.54304 0.41556 0.07495 0.0
C1030 C 0.57525 0.35806 0.10193 0.0
H1031 H 0.70782 0.33116 0.17223 0.0
H1032 H 0.67508 0.35513 0.13552 0.0
H1033 H 0.58758 0.32946 0.13704 0.0
H1034 H 0.5561 0.42258 -0.00257 0.0
H1035 H 0.58323 0.38101 0.02422 0.0
H1036 H 0.62321 0.38125 0.05753 0.0
C1037 C 0.67137 0.33391 0.14392 0.0
C1038 C 0.5955 0.34014 0.11936 0.0
C1039 C 0.69005 0.32025 0.165 0.0
C1040 C 0.552 0.42076 0.01902 0.0
C1041 C 0.56758 0.39702 0.03434 0.0
C1042 C 0.61505 0.36949 0.07441 0.0
C1043 C 0.64726 0.32112 0.13487 0.0
C1044 C 0.62571 0.33729 0.11476 0.0
C1045 C 0.56417 0.39486 0.06263 0.0
C1046 C 0.5849 0.37327 0.07954 0.0
H1047 H 0.6572 0.25939 0.17638 0.0
H1048 H 0.62471 0.2833 0.13952 0.0
H1049 H 0.65839 0.34966 0.08774 0.0
H1050 H 0.51225 0.45588 0.06969 0.0
H1051 H 0.54005 0.41451 0.09678 0.0
C1052 C 0.92906 0.46327 0.40532 0.0
C1053 C 0.91923 0.49014 0.41777 0.0
C1054 C 0.91526 0.45587 0.38142 0.0
C1055 C 0.84374 0.47082 0.34489 0.0
H1056 H 0.88574 0.41895 0.29285 0.0
C1057 C 0.792 0.38308 0.28966 0.0
C1058 C 0.80218 0.37314 0.2643 0.0
C1059 C 0.80402 0.40526 0.30272 0.0
C1060 C 0.87355 0.43395 0.30672 0.0
H1061 H 0.88762 0.53053 0.4151 0.0
H1062 H 0.86355 0.51797 0.37281 0.0
H1063 H 0.913 0.44376 0.32557 0.0
H1064 H 0.83206 0.37911 0.23222 0.0
H1065 H 0.85285 0.4186 0.25475 0.0
H1066 H 0.80429 0.46093 0.32608 0.0
C1067 C 0.88184 0.50247 0.3816 0.0
C1068 C 0.88926 0.44785 0.3258 0.0
C1069 C 0.8956 0.50975 0.40567 0.0
C1070 C 0.82378 0.38665 0.2517 0.0
C1071 C 0.83574 0.40905 0.26469 0.0
C1072 C 0.82801 0.45717 0.32561 0.0
C1073 C 0.89122 0.47519 0.36941 0.0
C1074 C 0.87459 0.46541 0.34587 0.0
C1075 C 0.8266 0.418 0.29077 0.0
C1076 C 0.84276 0.43754 0.30706 0.0
H1077 H 0.94653 0.44731 0.41478 0.0
H1078 H 0.92261 0.43432 0.37314 0.0
H1079 H 0.83165 0.48416 0.36002 0.0
H1080 H 0.77618 0.37232 0.3003 0.0
H1081 H 0.79687 0.41096 0.32303 0.0
C1082 C 0.6057 0.61171 0.47995 0.0
C1083 C 0.59731 0.5837 0.47753 0.0
C1084 C 0.62482 0.62149 0.46142 0.0
C1085 C 0.64833 0.60926 0.39098 0.0
H1086 H 0.70545 0.65913 0.4108 0.0
C1087 C 0.69764 0.68161 0.31222 0.0
C1088 C 0.72695 0.68552 0.31635 0.0
C1089 C 0.68402 0.66607 0.3317 0.0
C1090 C 0.68988 0.64489 0.40494 0.0
H1091 H 0.60186 0.54427 0.4534 0.0
H1092 H 0.63634 0.56048 0.42214 0.0
H1093 H 0.67922 0.63724 0.44646 0.0
H1094 H 0.76544 0.67493 0.34337 0.0
H1095 H 0.74187 0.64728 0.37698 0.0
H1096 H 0.65922 0.61661 0.3495 0.0
C1097 C 0.62811 0.57502 0.43823 0.0
C1098 C 0.67459 0.63266 0.42537 0.0
C1099 C 0.60886 0.56539 0.45659 0.0
C1100 C 0.74272 0.67255 0.33974 0.0
C1101 C 0.72917 0.65686 0.35909 0.0
C1102 C 0.66371 0.62137 0.37057 0.0
C1103 C 0.63578 0.60344 0.44003 0.0
C1104 C 0.65344 0.61495 0.4186 0.0
C1105 C 0.69951 0.65396 0.35557 0.0
C1106 C 0.68442 0.63959 0.37729 0.0
H1107 H 0.59668 0.62636 0.49567 0.0
H1108 H 0.62995 0.64369 0.46316 0.0
H1109 H 0.63187 0.59606 0.385 0.0
H1110 H 0.68491 0.69144 0.29443 0.0
H1111 H 0.66104 0.6645 0.3285 0.0
C1112 C 0.81568 0.28616 0.85228 0.0
C1113 C 0.78736 0.27876 0.85154 0.0
C1114 C 0.82702 0.29648 0.87612 0.0
C1115 C 0.80239 0.3373 0.93566 0.0
H1116 H 0.88579 0.32348 0.95376 0.0
C1117 C 0.86456 0.42769 0.96808 0.0
C1118 C 0.8893 0.42133 0.98569 0.0
C1119 C 0.8489 0.40536 0.96085 0.0
C1120 C 0.86233 0.32711 0.94957 0.0
H1121 H 0.74911 0.27518 0.87548 0.0
H1122 H 0.76898 0.29344 0.91713 0.0
H1123 H 0.86548 0.29036 0.92312 0.0
H1124 H 0.91518 0.38758 0.01208 0.0
H1125 H 0.88834 0.34793 -0.00139 0.0
H1126 H 0.79948 0.37483 0.96113 0.0
C1127 C 0.78227 0.29141 0.8992 0.0
C1128 C 0.85078 0.30835 0.93178 0.0
C1129 C 0.77091 0.28106 0.87533 0.0
C1130 C 0.89698 0.39267 -0.00253 0.0
C1131 C 0.88141 0.37016 0.99009 0.0
C1132 C 0.81393 0.35601 0.95347 0.0
C1133 C 0.81029 0.29956 0.89971 0.0
C1134 C 0.82101 0.31425 0.92355 0.0
C1135 C 0.85764 0.37621 0.97122 0.0
C1136 C 0.84424 0.35201 0.95938 0.0
H1137 H 0.82894 0.28447 0.83432 0.0
H1138 H 0.84848 0.30313 0.87573 0.0
H1139 H 0.77934 0.34239 0.92972 0.0
H1140 H 0.8581 0.44972 0.95898 0.0
H1141 H 0.83094 0.41063 0.94596 0.0
C1142 C 0.83217 0.80938 0.22365 0.0
C1143 C 0.80577 0.80074 0.21458 0.0
C1144 C 0.84825 0.82455 0.20603 0.0
C1145 C 0.84482 0.86932 0.14212 0.0
H1146 H 0.9283 0.83961 0.14251 0.0
C1147 C 0.92437 0.91114 0.06519 0.0
C1148 C 0.95197 0.91469 0.076 0.0
C1149 C 0.90501 0.89791 0.08118 0.0
C1150 C 0.9051 0.84845 0.14233 0.0
H1151 H 0.77499 0.80233 0.18014 0.0
H1152 H 0.80322 0.82905 0.1493 0.0
H1153 H 0.89699 0.81624 0.17241 0.0
H1154 H 0.98098 0.90791 0.1117 0.0
H1155 H 0.94727 0.88534 0.13984 0.0
H1156 H 0.85313 0.90182 0.11215 0.0
C1157 C 0.81135 0.82402 0.17011 0.0
C1158 C 0.88715 0.83501 0.15947 0.0
C1159 C 0.79525 0.80866 0.18776 0.0
C1160 C 0.95984 0.90514 0.10298 0.0
C1161 C 0.94058 0.89212 0.11896 0.0
C1162 C 0.86288 0.88294 0.12499 0.0
C1163 C 0.83833 0.83155 0.17893 0.0
C1164 C 0.85688 0.84549 0.15982 0.0
C1165 C 0.91304 0.888 0.10821 0.0
C1166 C 0.89331 0.87287 0.12518 0.0
H1167 H 0.84082 0.80386 0.24424 0.0
H1168 H 0.8687 0.83055 0.21357 0.0
H1169 H 0.82156 0.87792 0.14203 0.0
H1170 H 0.91816 0.91787 0.04422 0.0
H1171 H 0.8841 0.89478 0.07219 0.0
C1172 C 0.79014 0.15222 0.83657 0.0
C1173 C 0.79685 0.16192 0.81042 0.0
C1174 C 0.80889 0.12936 0.85051 0.0
C1175 C 0.84973 0.07749 0.87669 0.0
H1176 H 0.93114 0.08601 0.86813 0.0
C1177 C 0.94233 0.02091 0.9519 0.0
C1178 C 0.96253 0.03924 0.95997 0.0
C1179 C 0.92245 0.02962 0.93001 0.0
C1180 C 0.9085 0.08334 0.87082 0.0
H1181 H 0.82678 0.15349 0.77723 0.0
H1182 H 0.8589 0.11266 0.80105 0.0
H1183 H 0.89416 0.11143 0.83609 0.0
H1184 H 0.97769 0.08102 0.95142 0.0
H1185 H 0.9428 0.09643 0.914 0.0
H1186 H 0.8641 0.05126 0.91283 0.0
C1187 C 0.8398 0.12344 0.8113 0.0
C1188 C 0.88724 0.09754 0.8521 0.0
C1189 C 0.82131 0.1467 0.79755 0.0
C1190 C 0.96254 0.06629 0.94566 0.0
C1191 C 0.94267 0.07501 0.92397 0.0
C1192 C 0.87103 0.06356 0.89567 0.0
C1193 C 0.83456 0.11538 0.83843 0.0
C1194 C 0.85742 0.09564 0.85528 0.0
C1195 C 0.92238 0.05682 0.91583 0.0
C1196 C 0.90051 0.06723 0.89346 0.0
H1197 H 0.77156 0.16365 0.84708 0.0
H1198 H 0.8042 0.12413 0.87144 0.0
H1199 H 0.82707 0.07498 0.87945 0.0
H1200 H 0.94185 -0.00012 0.96249 0.0
H1201 H 0.90721 0.01503 0.92415 0.0
C1202 C 0.69034 0.20472 0.71107 0.0
C1203 C 0.71897 0.21124 0.71005 0.0
C1204 C 0.67727 0.19417 0.68831 0.0
C1205 C 0.68038 0.18827 0.61385 0.0
H1206 H 0.63645 0.12419 0.62803 0.0
C1207 C 0.63284 0.11603 0.53269 0.0
C1208 C 0.60476 0.10952 0.53785 0.0
C1209 C 0.64675 0.13247 0.55109 0.0
C1210 C 0.64838 0.1423 0.62379 0.0
H1211 H 0.75622 0.21238 0.68423 0.0
H1212 H 0.73337 0.19317 0.64431 0.0
H1213 H 0.66213 0.14364 0.66551 0.0
H1214 H 0.56911 0.11542 0.56606 0.0
H1215 H 0.59278 0.14486 0.5975 0.0
H1216 H 0.66668 0.18632 0.57179 0.0
C1217 C 0.72105 0.19661 0.66275 0.0
C1218 C 0.6631 0.15342 0.64523 0.0
C1219 C 0.73416 0.20738 0.68562 0.0
C1220 C 0.59024 0.12093 0.56096 0.0
C1221 C 0.60403 0.13735 0.57924 0.0
C1222 C 0.66569 0.17694 0.59222 0.0
C1223 C 0.69258 0.18963 0.66404 0.0
C1224 C 0.6788 0.17685 0.64061 0.0
C1225 C 0.6328 0.14227 0.57502 0.0
C1226 C 0.64915 0.15423 0.59719 0.0
H1227 H 0.67788 0.20784 0.72946 0.0
H1228 H 0.65506 0.18958 0.68972 0.0
H1229 H 0.6923 0.20641 0.60976 0.0
H1230 H 0.64449 0.10713 0.5151 0.0
H1231 H 0.66902 0.13587 0.5475 0.0
C1232 C 0.55426 0.95599 0.41817 0.0
C1233 C 0.56581 0.97332 0.43768 0.0
C1234 C 0.57283 0.93817 0.40108 0.0
C1235 C 0.64786 0.89866 0.39746 0.0
H1236 H 0.63033 0.89723 0.31976 0.0
C1237 C 0.72673 0.82859 0.32638 0.0
C1238 C 0.71422 0.81391 0.30537 0.0
C1239 C 0.70929 0.84986 0.34137 0.0
C1240 C 0.63539 0.89705 0.34146 0.0
H1241 H 0.60594 0.9856 0.45447 0.0
H1242 H 0.63839 0.95411 0.42481 0.0
H1243 H 0.59837 0.93054 0.34823 0.0
H1244 H 0.67364 0.81027 0.28345 0.0
H1245 H 0.64308 0.84664 0.31006 0.0
H1246 H 0.68426 0.86462 0.39108 0.0
C1247 C 0.61494 0.95441 0.42276 0.0
C1248 C 0.61711 0.91624 0.35773 0.0
C1249 C 0.59635 0.97253 0.43963 0.0
C1250 C 0.68398 0.82132 0.2994 0.0
C1251 C 0.66647 0.84233 0.3146 0.0
C1252 C 0.66595 0.87923 0.38127 0.0
C1253 C 0.60338 0.93701 0.40335 0.0
C1254 C 0.62313 0.9172 0.38591 0.0
C1255 C 0.67883 0.85672 0.33597 0.0
C1256 C 0.65995 0.87809 0.35304 0.0
H1257 H 0.53083 0.95618 0.41608 0.0
H1258 H 0.56333 0.92481 0.38644 0.0
H1259 H 0.65282 0.89865 0.41918 0.0
H1260 H 0.75002 0.82356 0.33135 0.0
H1261 H 0.71974 0.86088 0.35725 0.0
C1262 C 0.74607 0.21666 0.3456 0.0
C1263 C 0.76412 0.22979 0.32798 0.0
C1264 C 0.75611 0.20702 0.37187 0.0
C1265 C 0.7914 0.16584 0.4134 0.0
H1266 H 0.85488 0.19584 0.45103 0.0
C1267 C 0.90578 0.10984 0.45472 0.0
C1268 C 0.90018 0.08861 0.47423 0.0
C1269 C 0.88414 0.1336 0.44703 0.0
C1270 C 0.83666 0.18758 0.44117 0.0
H1271 H 0.80615 0.24445 0.32418 0.0
H1272 H 0.82457 0.22597 0.36946 0.0
H1273 H 0.82376 0.22777 0.41749 0.0
H1274 H 0.86813 0.07579 0.50176 0.0
H1275 H 0.8293 0.11698 0.48701 0.0
H1276 H 0.80525 0.12523 0.4362 0.0
C1277 C 0.80226 0.22395 0.36348 0.0
C1278 C 0.81909 0.20564 0.42177 0.0
C1279 C 0.79194 0.23419 0.33737 0.0
C1280 C 0.8728 0.0919 0.48654 0.0
C1281 C 0.85078 0.11542 0.47831 0.0
C1282 C 0.80867 0.14798 0.43307 0.0
C1283 C 0.78467 0.20968 0.38084 0.0
C1284 C 0.7975 0.19428 0.40645 0.0
C1285 C 0.85632 0.13628 0.45835 0.0
C1286 C 0.83251 0.15812 0.44583 0.0
H1287 H 0.72418 0.2137 0.33903 0.0
H1288 H 0.74175 0.19674 0.38488 0.0
H1289 H 0.7751 0.15619 0.40199 0.0
H1290 H 0.92687 0.10799 0.4452 0.0
H1291 H 0.88873 0.14909 0.4312 0.0
C1292 C 0.63867 0.13041 0.26335 0.0
C1293 C 0.66297 0.13958 0.25109 0.0
C1294 C 0.62997 0.10357 0.25657 0.0
C1295 C 0.60269 0.06643 0.21624 0.0
H1296 H 0.65306 0.99488 0.19535 0.0
C1297 C 0.60626 0.98143 0.12418 0.0
C1298 C 0.57621 0.98051 0.12143 0.0
C1299 C 0.61753 0.99301 0.14753 0.0
C1300 C 0.63868 0.0147 0.20109 0.0
H1301 H 0.69762 0.12752 0.22264 0.0
H1302 H 0.6828 0.08065 0.21105 0.0
H1303 H 0.67291 0.03002 0.22442 0.0
H1304 H 0.53463 0.9881 0.14122 0.0
H1305 H 0.55428 0.00725 0.18272 0.0
H1306 H 0.56909 0.05269 0.19154 0.0
C1307 C 0.67083 0.09377 0.22641 0.0
C1308 C 0.65002 0.0347 0.21784 0.0
C1309 C 0.67944 0.12063 0.23313 0.0
C1310 C 0.55786 0.98911 0.14303 0.0
C1311 C 0.56913 0.00016 0.1666 0.0
C1312 C 0.59146 0.04667 0.19935 0.0
C1313 C 0.64535 0.08552 0.23724 0.0
C1314 C 0.63236 0.06123 0.22482 0.0
C1315 C 0.59889 0.00342 0.16868 0.0
C1316 C 0.60955 0.02106 0.19077 0.0
H1317 H 0.62564 0.14474 0.2772 0.0
H1318 H 0.61034 0.09767 0.26536 0.0
H1319 H 0.58861 0.08689 0.22088 0.0
H1320 H 0.62061 0.97488 0.10755 0.0
H1321 H 0.64046 0.99545 0.14818 0.0
C1322 C 0.68272 0.78818 0.82347 0.0
C1323 C 0.70448 0.80242 0.81187 0.0
C1324 C 0.66414 0.80238 0.84289 0.0
C1325 C 0.61674 0.84503 0.87025 0.0
H1326 H 0.6473 0.89534 0.9226 0.0
C1327 C 0.54119 0.93098 0.93107 0.0
C1328 C 0.54949 0.93593 0.95813 0.0
C1329 C 0.56007 0.91265 0.91464 0.0
C1330 C 0.6384 0.88112 0.90837 0.0
H1331 H 0.72373 0.84276 0.81162 0.0
H1332 H 0.69123 0.86752 0.84488 0.0
H1333 H 0.6806 0.86631 0.8923 0.0
H1334 H 0.58402 0.92482 0.98935 0.0
H1335 H 0.61674 0.89245 0.96085 0.0
H1336 H 0.57458 0.85952 0.88666 0.0
C1337 C 0.68878 0.8452 0.83949 0.0
C1338 C 0.65748 0.86474 0.89072 0.0
C1339 C 0.70733 0.83104 0.82022 0.0
C1340 C 0.57698 0.9217 0.96852 0.0
C1341 C 0.59583 0.90324 0.95212 0.0
C1342 C 0.59765 0.86135 0.88799 0.0
C1343 C 0.66693 0.83112 0.85108 0.0
C1344 C 0.64685 0.84681 0.87116 0.0
C1345 C 0.5877 0.89861 0.92491 0.0
C1346 C 0.60818 0.8799 0.90705 0.0
H1347 H 0.68001 0.7661 0.81755 0.0
H1348 H 0.64774 0.79077 0.85162 0.0
H1349 H 0.60774 0.83164 0.85533 0.0
H1350 H 0.52011 0.94134 0.92247 0.0
H1351 H 0.5532 0.90994 0.8937 0.0
C1352 C 0.96488 0.97137 0.63077 0.0
C1353 C 0.95379 0.00149 0.62599 0.0
C1354 C 0.96332 0.95824 0.65659 0.0
C1355 C 0.9135 0.97026 0.71345 0.0
H1356 H 0.95294 0.89087 0.73341 0.0
C1357 C 0.85333 0.89047 0.77187 0.0
C1358 C 0.85055 0.86639 0.75531 0.0
C1359 C 0.87524 0.90771 0.76727 0.0
C1360 C 0.94203 0.91327 0.72851 0.0
H1361 H 0.93529 0.04231 0.64448 0.0
H1362 H 0.93391 0.01988 0.69024 0.0
H1363 H 0.97765 0.92331 0.70491 0.0
H1364 H 0.86874 0.84158 0.72098 0.0
H1365 H 0.9074 0.87078 0.71362 0.0
H1366 H 0.87751 0.95978 0.73613 0.0
C1367 C 0.94282 0.006 0.67394 0.0
C1368 C 0.95602 0.9318 0.71201 0.0
C1369 C 0.94378 0.01896 0.6479 0.0
C1370 C 0.87096 0.85906 0.7349 0.0
C1371 C 0.89311 0.87595 0.73058 0.0
C1372 C 0.89982 0.95197 0.73033 0.0
C1373 C 0.95087 0.97511 0.67823 0.0
C1374 C 0.94106 0.95975 0.70271 0.0
C1375 C 0.89486 0.901 0.74612 0.0
C1376 C 0.91319 0.9227 0.73656 0.0
H1377 H 0.9723 0.95747 0.61399 0.0
H1378 H 0.96945 0.9344 0.65873 0.0
H1379 H 0.90102 0.99146 0.7068 0.0
H1380 H 0.83776 0.89666 0.78764 0.0
H1381 H 0.87601 0.92706 0.77938 0.0
C1382 C 0.18299 0.83105 0.81478 0.0
C1383 C 0.20445 0.84274 0.80003 0.0
C1384 C 0.16896 0.84661 0.83607 0.0
C1385 C 0.1497 0.92093 0.86261 0.0
H1386 H 0.14041 0.87862 0.93072 0.0
C1387 C 0.09951 0.98161 0.95582 0.0
C1388 C 0.08004 0.9676 0.97113 0.0
C1389 C 0.11632 0.96633 0.93592 0.0
C1390 C 0.14252 0.8907 0.91174 0.0
H1391 H 0.22788 0.88007 0.79613 0.0
H1392 H 0.20296 0.90751 0.83314 0.0
H1393 H 0.1663 0.85236 0.89368 0.0
H1394 H 0.06305 0.92645 0.97755 0.0
H1395 H 0.09184 0.89999 0.94236 0.0
H1396 H 0.12536 0.9591 0.8803 0.0
C1397 C 0.19705 0.88627 0.82808 0.0
C1398 C 0.15742 0.87567 0.89057 0.0
C1399 C 0.21131 0.87055 0.80688 0.0
C1400 C 0.07795 0.93785 0.96623 0.0
C1401 C 0.09462 0.92262 0.94615 0.0
C1402 C 0.13459 0.93593 0.8837 0.0
C1403 C 0.1759 0.87432 0.843 0.0
C1404 C 0.16101 0.89059 0.86575 0.0
C1405 C 0.11386 0.93675 0.93061 0.0
C1406 C 0.13069 0.92097 0.90849 0.0
H1407 H 0.17712 0.80969 0.81007 0.0
H1408 H 0.15247 0.83705 0.84699 0.0
H1409 H 0.15187 0.93289 0.84358 0.0
H1410 H 0.10151 0.00456 0.95884 0.0
H1411 H 0.13122 0.97778 0.92464 0.0
C1412 C 0.98957 0.42402 0.59735 0.0
C1413 C 0.97825 0.4321 0.57083 0.0
C1414 C 0.97686 0.40437 0.6137 0.0
C1415 C 0.93189 0.38024 0.64845 0.0
H1416 H 0.90947 0.30848 0.61984 0.0
C1417 C 0.85249 0.31571 0.70316 0.0
C1418 C 0.86059 0.28482 0.70578 0.0
C1419 C 0.86804 0.3324 0.68644 0.0
C1420 C 0.91581 0.32834 0.62811 0.0
H1421 H 0.94509 0.42544 0.54044 0.0
H1422 H 0.92294 0.39103 0.56904 0.0
H1423 H 0.93532 0.3397 0.5909 0.0
H1424 H 0.89128 0.24703 0.69355 0.0
H1425 H 0.9186 0.2763 0.66377 0.0
H1426 H 0.91219 0.36911 0.68553 0.0
C1427 C 0.94171 0.39986 0.57709 0.0
C1428 C 0.93036 0.34629 0.61153 0.0
C1429 C 0.95427 0.41972 0.56082 0.0
C1430 C 0.88458 0.27083 0.69149 0.0
C1431 C 0.90003 0.28751 0.67449 0.0
C1432 C 0.91712 0.36248 0.6649 0.0
C1433 C 0.95273 0.39221 0.60376 0.0
C1434 C 0.93839 0.37248 0.62152 0.0
C1435 C 0.89201 0.31849 0.67202 0.0
C1436 C 0.90875 0.3365 0.65483 0.0
H1437 H 0.00806 0.43315 0.60564 0.0
H1438 H 0.98592 0.39864 0.63412 0.0
H1439 H 0.93762 0.40042 0.6566 0.0
H1440 H 0.8346 0.32702 0.71462 0.0
H1441 H 0.86132 0.35623 0.6848 0.0
C1442 C 0.49439 0.11784 0.43018 0.0
C1443 C 0.48468 0.09024 0.42909 0.0
C1444 C 0.48364 0.14057 0.41121 0.0
C1445 C 0.44449 0.15775 0.34508 0.0
H1446 H 0.40012 0.22433 0.38101 0.0
C1447 C 0.3273 0.22303 0.32571 0.0
C1448 C 0.32762 0.23745 0.30016 0.0
C1449 C 0.35342 0.21332 0.34036 0.0
C1450 C 0.41309 0.20635 0.37063 0.0
H1451 H 0.45757 0.06413 0.40647 0.0
H1452 H 0.43897 0.10384 0.37314 0.0
H1453 H 0.43604 0.18881 0.40747 0.0
H1454 H 0.35496 0.25393 0.26997 0.0
H1455 H 0.40131 0.23533 0.29529 0.0
H1456 H 0.42005 0.17436 0.30861 0.0
C1457 C 0.45487 0.10783 0.38867 0.0
C1458 C 0.43359 0.18609 0.38569 0.0
C1459 C 0.46524 0.08525 0.40789 0.0
C1460 C 0.35434 0.24293 0.28976 0.0
C1461 C 0.38069 0.2324 0.30414 0.0
C1462 C 0.42432 0.17832 0.32992 0.0
C1463 C 0.46347 0.13585 0.39058 0.0
C1464 C 0.4483 0.16085 0.37329 0.0
C1465 C 0.38031 0.21726 0.32938 0.0
C1466 C 0.40747 0.20187 0.34294 0.0
H1467 H 0.50945 0.12229 0.4463 0.0
H1468 H 0.49046 0.16205 0.41308 0.0
H1469 H 0.45574 0.13848 0.33514 0.0
H1470 H 0.30687 0.21871 0.3341 0.0
H1471 H 0.35273 0.20128 0.35964 0.0
C1472 C 0.58216 0.56821 0.03523 0.0
C1473 C 0.55146 0.57138 0.0359 0.0
C1474 C 0.59732 0.58705 0.04999 0.0
C1475 C 0.58738 0.6415 0.10575 0.0
H1476 H 0.6587 0.66405 0.07782 0.0
C1477 C 0.64347 0.73116 0.15505 0.0
C1478 C 0.67215 0.72031 0.1649 0.0
C1479 C 0.62943 0.71519 0.13635 0.0
C1480 C 0.63875 0.65794 0.08572 0.0
H1481 H 0.51248 0.59703 0.05206 0.0
H1482 H 0.53855 0.63061 0.0767 0.0
H1483 H 0.63241 0.63129 0.05158 0.0
H1484 H 0.7084 0.68388 0.16259 0.0
H1485 H 0.68452 0.65703 0.12883 0.0
H1486 H 0.59345 0.66889 0.13949 0.0
C1487 C 0.55125 0.61297 0.06574 0.0
C1488 C 0.6238 0.63895 0.0709 0.0
C1489 C 0.5362 0.59377 0.05148 0.0
C1490 C 0.68694 0.69373 0.15464 0.0
C1491 C 0.6731 0.67806 0.13552 0.0
C1492 C 0.60197 0.66092 0.1202 0.0
C1493 C 0.58204 0.60986 0.06531 0.0
C1494 C 0.59797 0.63032 0.08081 0.0
C1495 C 0.64395 0.68822 0.12687 0.0
C1496 C 0.62782 0.66917 0.1104 0.0
H1497 H 0.59448 0.55105 0.02342 0.0
H1498 H 0.62103 0.58352 0.04954 0.0
H1499 H 0.56805 0.63489 0.11448 0.0
H1500 H 0.63148 0.7514 0.16276 0.0
H1501 H 0.60691 0.72343 0.12991 0.0
C1502 C 0.10861 0.21047 0.65267 0.0
C1503 C 0.12838 0.23031 0.6485 0.0
C1504 C 0.09334 0.20097 0.63064 0.0
C1505 C 0.0984 0.18065 0.56261 0.0
H1506 H 0.01382 0.18644 0.56477 0.0
C1507 C 0.03284 0.10589 0.4995 0.0
C1508 C 0.01465 0.09171 0.51621 0.0
C1509 C 0.04532 0.12976 0.50922 0.0
C1510 C 0.03741 0.18488 0.56366 0.0
H1511 H 0.14596 0.25777 0.61841 0.0
H1512 H 0.12043 0.23945 0.57925 0.0
H1513 H 0.03907 0.21665 0.59471 0.0
H1514 H 0.99507 0.09159 0.55601 0.0
H1515 H 0.01677 0.1326 0.57277 0.0
H1516 H 0.09704 0.14691 0.53332 0.0
C1517 C 0.11708 0.23125 0.59968 0.0
C1518 C 0.05175 0.20225 0.58066 0.0
C1519 C 0.13192 0.2413 0.62192 0.0
C1520 C 0.00896 0.10197 0.54256 0.0
C1521 C 0.02114 0.12577 0.5521 0.0
C1522 C 0.08405 0.16296 0.54575 0.0
C1523 C 0.09767 0.21106 0.604 0.0
C1524 C 0.08241 0.19923 0.58111 0.0
C1525 C 0.03942 0.13996 0.5356 0.0
C1526 C 0.05358 0.16385 0.54723 0.0
H1527 H 0.10526 0.20208 0.67303 0.0
H1528 H 0.07852 0.18525 0.63433 0.0
H1529 H 0.12214 0.17798 0.56282 0.0
H1530 H 0.03758 0.09845 0.47908 0.0
H1531 H 0.05947 0.14025 0.49616 0.0
C1532 C 0.66833 0.34459 0.29879 0.0
C1533 C 0.66697 0.31436 0.29599 0.0
C1534 C 0.65191 0.36083 0.31833 0.0
C1535 C 0.59023 0.36138 0.36468 0.0
H1536 H 0.63477 0.40886 0.40869 0.0
C1537 C 0.54691 0.41561 0.46414 0.0
C1538 C 0.5516 0.44492 0.46767 0.0
C1539 C 0.56031 0.39903 0.44305 0.0
C1540 C 0.62193 0.39595 0.39643 0.0
H1541 H 0.64592 0.27783 0.31022 0.0
H1542 H 0.61727 0.30626 0.34451 0.0
H1543 H 0.65777 0.38218 0.37064 0.0
H1544 H 0.5735 0.47999 0.45152 0.0
H1545 H 0.59678 0.45119 0.41497 0.0
H1546 H 0.55435 0.37527 0.3906 0.0
C1547 C 0.63103 0.31739 0.33155 0.0
C1548 C 0.63508 0.38074 0.3746 0.0
C1549 C 0.64747 0.30112 0.31195 0.0
C1550 C 0.56994 0.45728 0.44977 0.0
C1551 C 0.58327 0.44077 0.42875 0.0
C1552 C 0.57701 0.3767 0.38655 0.0
C1553 C 0.63377 0.34717 0.33545 0.0
C1554 C 0.61934 0.36345 0.35839 0.0
C1555 C 0.57859 0.41149 0.42513 0.0
C1556 C 0.59271 0.39428 0.40254 0.0
H1557 H 0.68253 0.35559 0.2863 0.0
H1558 H 0.65389 0.38397 0.32043 0.0
H1559 H 0.57756 0.34832 0.35243 0.0
H1560 H 0.53283 0.40551 0.47759 0.0
H1561 H 0.55653 0.3764 0.44089 0.0
C1562 C 0.42927 0.90966 0.01708 0.0
C1563 C 0.45355 0.91784 0.03106 0.0
C1564 C 0.4168 0.88549 0.0266 0.0
C1565 C 0.42957 0.82074 0.07607 0.0
H1566 H 0.34537 0.83826 0.0838 0.0
C1567 C 0.34147 0.79887 0.1593 0.0
C1568 C 0.3494 0.76845 0.16538 0.0
C1569 C 0.35253 0.81178 0.13664 0.0
C1570 C 0.36889 0.83293 0.08166 0.0
H1571 H 0.48446 0.90644 0.06533 0.0
H1572 H 0.46247 0.86513 0.08215 0.0
H1573 H 0.36946 0.87044 0.05483 0.0
H1574 H 0.3754 0.7276 0.15316 0.0
H1575 H 0.39506 0.75022 0.11303 0.0
H1576 H 0.42925 0.78463 0.10468 0.0
C1577 C 0.45327 0.87683 0.06359 0.0
C1578 C 0.38266 0.85117 0.06476 0.0
C1579 C 0.46568 0.90084 0.05412 0.0
C1580 C 0.36891 0.7511 0.14858 0.0
C1581 C 0.38005 0.76403 0.12574 0.0
C1582 C 0.41581 0.80263 0.09315 0.0
C1583 C 0.42844 0.8691 0.05021 0.0
C1584 C 0.41332 0.84604 0.06277 0.0
C1585 C 0.37198 0.79457 0.11959 0.0
C1586 C 0.3855 0.80937 0.09706 0.0
H1587 H 0.41958 0.92221 -0.00089 0.0
H1588 H 0.3978 0.87994 0.01574 0.0
H1589 H 0.45317 0.81584 0.07446 0.0
H1590 H 0.32737 0.81286 0.17259 0.0
H1591 H 0.34664 0.83551 0.13308 0.0
C1592 C 0.9807 0.5882 0.94739 0.0
C1593 C 0.96406 0.57255 0.96434 0.0
C1594 C 0.96669 0.61107 0.92979 0.0
C1595 C 0.92397 0.63445 0.88105 0.0
H1596 H 0.86461 0.69862 0.90326 0.0
C1597 C 0.82497 0.68845 0.81327 0.0
C1598 C 0.82064 0.71952 0.81044 0.0
C1599 C 0.84592 0.67373 0.83208 0.0
C1600 C 0.88135 0.68099 0.89684 0.0
H1601 H 0.92028 0.56948 0.9777 0.0
H1602 H 0.89597 0.61003 0.94766 0.0
H1603 H 0.89629 0.66851 0.93796 0.0
H1604 H 0.83441 0.75962 0.82525 0.0
H1605 H 0.87039 0.73374 0.85887 0.0
H1606 H 0.90783 0.64574 0.84006 0.0
C1607 C 0.91967 0.60443 0.94768 0.0
C1608 C 0.89938 0.66387 0.91659 0.0
C1609 C 0.93353 0.58118 0.96468 0.0
C1610 C 0.83735 0.73563 0.82699 0.0
C1611 C 0.85787 0.72092 0.84619 0.0
C1612 C 0.90555 0.65119 0.86135 0.0
C1613 C 0.93603 0.61903 0.9296 0.0
C1614 C 0.92047 0.64017 0.90884 0.0
C1615 C 0.86243 0.68988 0.84871 0.0
C1616 C 0.88378 0.67421 0.86916 0.0
H1617 H 0.00428 0.58178 0.94675 0.0
H1618 H 0.97964 0.62206 0.91589 0.0
H1619 H 0.93987 0.61604 0.87468 0.0
H1620 H 0.81248 0.6755 0.8007 0.0
H1621 H 0.84895 0.64975 0.83394 0.0
C1622 C 0.39708 0.53783 0.09883 0.0
C1623 C 0.39398 0.53128 0.07125 0.0
C1624 C 0.38101 0.52516 0.11847 0.0
C1625 C 0.31829 0.48362 0.12572 0.0
H1626 H 0.36223 0.44768 0.19001 0.0
C1627 C 0.29195 0.38029 0.18191 0.0
C1628 C 0.28841 0.38211 0.21014 0.0
C1629 C 0.30296 0.4026 0.16749 0.0
C1630 C 0.34963 0.45797 0.17233 0.0
H1631 H 0.37152 0.5075 0.04213 0.0
H1632 H 0.34382 0.48496 0.07609 0.0
H1633 H 0.38398 0.48126 0.15999 0.0
H1634 H 0.29344 0.40808 0.24564 0.0
H1635 H 0.31384 0.44701 0.22039 0.0
H1636 H 0.28473 0.45881 0.13727 0.0
C1637 C 0.35804 0.5002 0.08283 0.0
C1638 C 0.36194 0.47731 0.15523 0.0
C1639 C 0.37395 0.51291 0.06336 0.0
C1640 C 0.29633 0.40633 0.22386 0.0
C1641 C 0.30789 0.42842 0.20952 0.0
C1642 C 0.30622 0.46399 0.14257 0.0
C1643 C 0.36163 0.50582 0.11067 0.0
C1644 C 0.34674 0.48962 0.13127 0.0
C1645 C 0.31088 0.42687 0.18117 0.0
C1646 C 0.32213 0.45043 0.16556 0.0
H1647 H 0.41224 0.55231 0.10512 0.0
H1648 H 0.38401 0.53018 0.13971 0.0
H1649 H 0.30571 0.49331 0.10781 0.0
H1650 H 0.28539 0.36205 0.17097 0.0
H1651 H 0.30528 0.40092 0.14563 0.0
C1652 C 0.4549 0.62236 0.95166 0.0
C1653 C 0.47354 0.59967 0.93916 0.0
C1654 C 0.43868 0.64544 0.93597 0.0
C1655 C 0.38915 0.67153 0.89765 0.0
H1656 H 0.41235 0.70744 0.83083 0.0
C1657 C 0.30571 0.72206 0.81386 0.0
C1658 C 0.31002 0.74866 0.80075 0.0
C1659 C 0.32701 0.70707 0.83215 0.0
C1660 C 0.40565 0.69785 0.84962 0.0
H1661 H 0.49159 0.5843 0.90081 0.0
H1662 H 0.46257 0.62438 0.87311 0.0
H1663 H 0.44958 0.67728 0.86061 0.0
H1664 H 0.33985 0.78066 0.79681 0.0
H1665 H 0.37696 0.75446 0.82895 0.0
H1666 H 0.34531 0.69186 0.88673 0.0
C1667 C 0.4608 0.62457 0.89509 0.0
C1668 C 0.4269 0.68042 0.86652 0.0
C1669 C 0.47737 0.60158 0.9109 0.0
C1670 C 0.33589 0.76017 0.80657 0.0
C1671 C 0.35723 0.74512 0.82483 0.0
C1672 C 0.36799 0.68888 0.88082 0.0
C1673 C 0.44045 0.64605 0.90742 0.0
C1674 C 0.41879 0.66681 0.89055 0.0
C1675 C 0.35305 0.71835 0.83768 0.0
C1676 C 0.37593 0.70183 0.85644 0.0
H1677 H 0.45194 0.62162 0.97351 0.0
H1678 H 0.42376 0.66211 0.9461 0.0
H1679 H 0.38207 0.66098 0.9158 0.0
H1680 H 0.28609 0.71255 0.8097 0.0
H1681 H 0.32338 0.68626 0.84149 0.0
C1682 C 0.10694 0.49433 0.64823 0.0
C1683 C 0.11447 0.50194 0.62171 0.0
C1684 C 0.11804 0.50761 0.67079 0.0
C1685 C 0.12388 0.56125 0.7058 0.0
H1686 H 0.20307 0.57929 0.71037 0.0
C1687 C 0.15158 0.67336 0.73408 0.0
C1688 C 0.17724 0.6754 0.74949 0.0
C1689 C 0.14478 0.64586 0.72712 0.0
C1690 C 0.18105 0.57397 0.70987 0.0
H1691 H 0.14142 0.52696 0.59793 0.0
H1692 H 0.16128 0.54973 0.63715 0.0
H1693 H 0.19203 0.53985 0.68106 0.0
H1694 H 0.2139 0.64966 0.7725 0.0
H1695 H 0.20299 0.60145 0.75878 0.0
H1696 H 0.11247 0.59674 0.73314 0.0
C1697 C 0.14657 0.53388 0.64067 0.0
C1698 C 0.1747 0.55156 0.69297 0.0
C1699 C 0.13512 0.52101 0.61821 0.0
C1700 C 0.19495 0.64907 0.75932 0.0
C1701 C 0.18841 0.62142 0.75191 0.0
C1702 C 0.13016 0.58385 0.72249 0.0
C1703 C 0.13751 0.52798 0.66711 0.0
C1704 C 0.1458 0.54589 0.68988 0.0
C1705 C 0.16354 0.61964 0.7353 0.0
C1706 C 0.15853 0.59125 0.72373 0.0
H1707 H 0.09203 0.47863 0.65143 0.0
H1708 H 0.11098 0.50245 0.69101 0.0
H1709 H 0.10139 0.55744 0.70373 0.0
H1710 H 0.13735 0.69316 0.72632 0.0
H1711 H 0.12562 0.64522 0.71405 0.0
C1712 C 0.25907 0.35018 0.6709 0.0
C1713 C 0.24305 0.32695 0.66693 0.0
C1714 C 0.26894 0.36487 0.64855 0.0
C1715 C 0.28295 0.3964 0.59604 0.0
H1716 H 0.33621 0.33641 0.5599 0.0
C1717 C 0.38035 0.42179 0.53179 0.0
C1718 C 0.4063 0.40999 0.54666 0.0
C1719 C 0.35376 0.41264 0.53806 0.0
C1720 C 0.32091 0.35341 0.56923 0.0
H1721 H 0.223 0.30216 0.63659 0.0
H1722 H 0.24124 0.32731 0.59744 0.0
H1723 H 0.29715 0.32171 0.58717 0.0
H1724 H 0.42517 0.37738 0.57779 0.0
H1725 H 0.37903 0.36061 0.58794 0.0
H1726 H 0.30809 0.42783 0.57944 0.0
C1727 C 0.24573 0.33434 0.61783 0.0
C1728 C 0.29851 0.34508 0.58471 0.0
C1729 C 0.23535 0.32 0.64021 0.0
C1730 C 0.40552 0.38713 0.56623 0.0
C1731 C 0.37918 0.37748 0.57198 0.0
C1732 C 0.30507 0.4048 0.58014 0.0
C1733 C 0.26338 0.35624 0.62189 0.0
C1734 C 0.28036 0.36632 0.59939 0.0
C1735 C 0.35303 0.39066 0.55843 0.0
C1736 C 0.32507 0.38313 0.56782 0.0
H1737 H 0.26511 0.35609 0.69128 0.0
H1738 H 0.2828 0.38146 0.65224 0.0
H1739 H 0.26917 0.41312 0.60719 0.0
H1740 H 0.38041 0.43811 0.51547 0.0
H1741 H 0.33378 0.42283 0.52721 0.0
C1742 C 0.18569 0.69791 0.20659 0.0
C1743 C 0.21232 0.7079 0.20165 0.0
C1744 C 0.17226 0.68318 0.18647 0.0
C1745 C 0.18923 0.63947 0.12549 0.0
H1746 H 0.10461 0.6517 0.11507 0.0
C1747 C 0.12947 0.57723 0.04547 0.0
C1748 C 0.10514 0.56582 0.05521 0.0
C1749 C 0.14274 0.59685 0.06112 0.0
C1750 C 0.12828 0.64802 0.11782 0.0
H1751 H 0.24538 0.71106 0.17151 0.0
H1752 H 0.22175 0.68561 0.13637 0.0
H1753 H 0.12708 0.68254 0.14653 0.0
H1754 H 0.07694 0.56396 0.08955 0.0
H1755 H 0.0996 0.59846 0.11668 0.0
H1756 H 0.19033 0.60463 0.09703 0.0
C1757 C 0.21151 0.68874 0.15591 0.0
C1758 C 0.14112 0.66561 0.13586 0.0
C1759 C 0.22495 0.70342 0.17603 0.0
C1760 C 0.09483 0.57353 0.0811 0.0
C1761 C 0.1079 0.59315 0.09665 0.0
C1762 C 0.17637 0.62191 0.10738 0.0
C1763 C 0.18517 0.67822 0.16101 0.0
C1764 C 0.17169 0.66118 0.14025 0.0
C1765 C 0.13186 0.60518 0.08677 0.0
C1766 C 0.14574 0.62565 0.10378 0.0
H1767 H 0.17546 0.70098 0.22616 0.0
H1768 H 0.15216 0.67499 0.19114 0.0
H1769 H 0.21284 0.63531 0.12865 0.0
H1770 H 0.1379 0.57123 0.02564 0.0
H1771 H 0.16124 0.60576 0.05306 0.0
C1772 C 0.72483 0.34813 0.73382 0.0
C1773 C 0.71046 0.3287 0.74916 0.0
C1774 C 0.70866 0.37138 0.71799 0.0
C1775 C 0.63254 0.41193 0.70345 0.0
H1776 H 0.65961 0.41685 0.62951 0.0
C1777 C 0.5557 0.44652 0.61007 0.0
C1778 C 0.56421 0.4662 0.59046 0.0
C1779 C 0.57475 0.43528 0.6318 0.0
C1780 C 0.65199 0.41611 0.65019 0.0
H1781 H 0.66787 0.31966 0.7614 0.0
H1782 H 0.63986 0.35949 0.73358 0.0
H1783 H 0.69132 0.38819 0.66451 0.0
H1784 H 0.59934 0.4896 0.57824 0.0
H1785 H 0.63295 0.46931 0.61603 0.0
H1786 H 0.5925 0.43852 0.68852 0.0
C1787 C 0.66356 0.35723 0.73388 0.0
C1788 C 0.6702 0.3998 0.67033 0.0
C1789 C 0.67968 0.33417 0.74978 0.0
C1790 C 0.59216 0.47449 0.59306 0.0
C1791 C 0.6114 0.46287 0.61461 0.0
C1792 C 0.61422 0.42793 0.68323 0.0
C1793 C 0.6778 0.37559 0.71715 0.0
C1794 C 0.6604 0.39684 0.69705 0.0
C1795 C 0.60285 0.44317 0.63417 0.0
C1796 C 0.62352 0.42956 0.65628 0.0
H1797 H 0.74852 0.34484 0.73333 0.0
H1798 H 0.72034 0.38551 0.70581 0.0
H1799 H 0.62452 0.41067 0.72394 0.0
H1800 H 0.53427 0.43981 0.60867 0.0
H1801 H 0.56776 0.41982 0.64641 0.0
C1802 C 0.84802 0.66838 0.23191 0.0
C1803 C 0.81765 0.67344 0.22591 0.0
C1804 C 0.86685 0.64829 0.21705 0.0
C1805 C 0.87028 0.58464 0.17273 0.0
H1806 H 0.93609 0.61483 0.14099 0.0
C1807 C 0.93046 0.53063 0.08169 0.0
C1808 C 0.96057 0.53131 0.0791 0.0
C1809 C 0.91507 0.5451 0.10279 0.0
C1810 C 0.91824 0.60574 0.15012 0.0
H1811 H 0.78308 0.66036 0.20051 0.0
H1812 H 0.81609 0.625 0.17457 0.0
H1813 H 0.90495 0.64513 0.17223 0.0
H1814 H -0.00157 0.54665 0.09736 0.0
H1815 H 0.97159 0.5716 0.13471 0.0
H1816 H 0.88348 0.54524 0.15073 0.0
C1817 C 0.82523 0.63676 0.19074 0.0
C1818 C 0.90032 0.62319 0.16793 0.0
C1819 C 0.80638 0.65713 0.20542 0.0
C1820 C 0.97518 0.54603 0.09864 0.0
C1821 C 0.95977 0.56038 0.11997 0.0
C1822 C 0.8884 0.56703 0.15517 0.0
C1823 C 0.85568 0.63256 0.19611 0.0
C1824 C 0.87588 0.61301 0.179 0.0
C1825 C 0.92942 0.56041 0.12206 0.0
C1826 C 0.91224 0.57762 0.14319 0.0
H1827 H 0.85742 0.68056 0.2476 0.0
H1828 H 0.8902 0.64525 0.22176 0.0
H1829 H 0.8518 0.57613 0.18132 0.0
H1830 H 0.91846 0.51961 0.06692 0.0
H1831 H 0.89167 0.54508 0.10337 0.0
C1832 C 0.97402 0.57126 0.58997 0.0
C1833 C 0.96744 0.56546 0.56271 0.0
C1834 C 0.95704 0.59439 0.60324 0.0
C1835 C 0.92512 0.65224 0.62444 0.0
H1836 H 0.84121 0.66287 0.60954 0.0
C1837 C 0.84259 0.73716 0.68147 0.0
C1838 C 0.81749 0.72627 0.69023 0.0
C1839 C 0.86145 0.72111 0.66325 0.0
C1840 C 0.86459 0.66018 0.614 0.0
H1841 H 0.93864 0.58008 0.52763 0.0
H1842 H 0.90957 0.62086 0.55045 0.0
H1843 H 0.87362 0.6277 0.58366 0.0
H1844 H 0.79232 0.69023 0.68634 0.0
H1845 H 0.82505 0.66242 0.65526 0.0
H1846 H 0.9157 0.68365 0.65592 0.0
C1847 C 0.92731 0.6071 0.56191 0.0
C1848 C 0.88328 0.64024 0.59887 0.0
C1849 C 0.94405 0.58377 0.54877 0.0
C1850 C 0.81139 0.69939 0.68002 0.0
C1851 C 0.83011 0.68347 0.66195 0.0
C1852 C 0.90634 0.67209 0.63975 0.0
C1853 C 0.93326 0.61245 0.58946 0.0
C1854 C 0.91377 0.6356 0.60417 0.0
C1855 C 0.85545 0.69398 0.65339 0.0
C1856 C 0.87579 0.67581 0.63509 0.0
H1857 H 0.99173 0.55741 0.60133 0.0
H1858 H 0.96202 0.59748 0.62458 0.0
H1859 H 0.94851 0.64963 0.62877 0.0
H1860 H 0.84789 0.75779 0.68897 0.0
H1861 H 0.8807 0.72992 0.65689 0.0
C1862 C 0.45862 0.54687 0.43744 0.0
C1863 C 0.4472 0.53301 0.45966 0.0
C1864 C 0.44032 0.55899 0.41556 0.0
C1865 C 0.36516 0.56276 0.38418 0.0
H1866 H 0.383 0.63654 0.35309 0.0
C1867 C 0.28613 0.65317 0.32027 0.0
C1868 C 0.29839 0.66594 0.29779 0.0
C1869 C 0.30332 0.63142 0.33697 0.0
C1870 C 0.37797 0.61574 0.36132 0.0
H1871 H 0.40791 0.52038 0.47638 0.0
H1872 H 0.37545 0.54295 0.43872 0.0
H1873 H 0.41481 0.61044 0.38902 0.0
H1874 H 0.33742 0.66397 0.27375 0.0
H1875 H 0.36735 0.62636 0.30311 0.0
H1876 H 0.32715 0.56949 0.35708 0.0
C1877 C 0.3987 0.5437 0.43773 0.0
C1878 C 0.39627 0.60064 0.38188 0.0
C1879 C 0.41721 0.53095 0.45941 0.0
C1880 C 0.32737 0.65483 0.29106 0.0
C1881 C 0.34456 0.63333 0.30786 0.0
C1882 C 0.34647 0.57826 0.36383 0.0
C1883 C 0.40999 0.55824 0.41568 0.0
C1884 C 0.39028 0.57386 0.39352 0.0
C1885 C 0.33301 0.62232 0.3315 0.0
C1886 C 0.35289 0.60479 0.35216 0.0
H1887 H 0.48179 0.54827 0.43691 0.0
H1888 H 0.45002 0.56915 0.39861 0.0
H1889 H 0.35999 0.54207 0.39246 0.0
H1890 H 0.26378 0.66112 0.32586 0.0
H1891 H 0.29398 0.62325 0.35515 0.0
C1892 C 0.1439 0.33158 0.77266 0.0
C1893 C 0.17416 0.33263 0.77371 0.0
C1894 C 0.12487 0.34947 0.78934 0.0
C1895 C 0.1185 0.41565 0.83203 0.0
H1896 H 0.06516 0.37573 0.8735 0.0
C1897 C 0.06799 0.46199 0.93096 0.0
C1898 C 0.03917 0.45821 0.93682 0.0
C1899 C 0.08179 0.44895 0.90831 0.0
C1900 C 0.07951 0.38742 0.86176 0.0
H1901 H 0.20792 0.35437 0.7921 0.0
H1902 H 0.1748 0.38544 0.82123 0.0
H1903 H 0.09391 0.34937 0.83821 0.0
H1904 H 0.00204 0.4382 0.9231 0.0
H1905 H 0.02609 0.41566 0.88329 0.0
H1906 H 0.10444 0.45356 0.85582 0.0
C1907 C 0.16575 0.37083 0.8075 0.0
C1908 C 0.09601 0.37228 0.84153 0.0
C1909 C 0.18478 0.35283 0.79096 0.0
C1910 C 0.02429 0.44147 0.91921 0.0
C1911 C 0.03813 0.42843 0.89648 0.0
C1912 C 0.10192 0.43083 0.85218 0.0
C1913 C 0.13567 0.36896 0.80725 0.0
C1914 C 0.11608 0.38605 0.82678 0.0
C1915 C 0.06713 0.43184 0.89087 0.0
C1916 C 0.08263 0.41671 0.86766 0.0
H1917 H 0.135 0.31629 0.75955 0.0
H1918 H 0.10175 0.34779 0.78847 0.0
H1919 H 0.13345 0.427 0.82071 0.0
H1920 H 0.08014 0.47468 0.94411 0.0
H1921 H 0.10429 0.45165 0.9049 0.0
C1922 C 0.20372 0.32155 0.32757 0.0
C1923 C 0.20442 0.29122 0.323 0.0
C1924 C 0.18792 0.33503 0.34899 0.0
C1925 C 0.16513 0.35534 0.40368 0.0
H1926 H 0.08728 0.33711 0.41583 0.0
C1927 C 0.09296 0.41313 0.48658 0.0
C1928 C 0.06361 0.4237 0.47858 0.0
C1929 C 0.11069 0.39334 0.47044 0.0
C1930 C 0.10896 0.34248 0.41267 0.0
H1931 H 0.18954 0.25114 0.33773 0.0
H1932 H 0.16213 0.27468 0.37534 0.0
H1933 H 0.11779 0.31017 0.38193 0.0
H1934 H 0.02951 0.42049 0.44807 0.0
H1935 H 0.06052 0.38658 0.41964 0.0
H1936 H 0.15592 0.38851 0.4335 0.0
C1937 C 0.17351 0.28809 0.36209 0.0
C1938 C 0.12658 0.3268 0.39346 0.0
C1939 C 0.18933 0.27457 0.34062 0.0
C1940 C 0.05207 0.41306 0.45469 0.0
C1941 C 0.06982 0.39334 0.4385 0.0
C1942 C 0.14752 0.37104 0.42284 0.0
C1943 C 0.17249 0.31853 0.36642 0.0
C1944 C 0.1547 0.33339 0.38842 0.0
C1945 C 0.0995 0.38368 0.44591 0.0
C1946 C 0.11905 0.36511 0.42728 0.0
H1947 H 0.21501 0.33507 0.31434 0.0
H1948 H 0.18724 0.35861 0.35146 0.0
H1949 H 0.18684 0.36069 0.40058 0.0
H1950 H 0.10251 0.4207 0.50499 0.0
H1951 H 0.13332 0.38591 0.477 0.0
loop_
_geom_bond_atom_site_label_1
_geom_bond_atom_site_label_2
_geom_bond_distance
_geom_bond_site_symmetry_2
_ccdc_geom_bond_type
Zn0 O1 2.055 . S
Zn0 O8 2.046 . S
Zn0 N16 2.036 1_554 S
Zn0 O28 2.053 1_454 S
Zn0 O30 2.066 1_554 S
O1 Zn0 2.055 . S
O1 C4 1.259 1_545 S
C2 O30 1.256 1_565 S
C2 O31 1.244 . S
Zn3 O5 2.046 1_655 S
Zn3 O7 2.055 1_565 S
Zn3 N9 2.036 . S
Zn3 O27 2.066 1_564 S
Zn3 O31 2.053 1_654 S
C4 O1 1.259 1_565 S
C4 O5 1.254 . S
O5 Zn3 2.046 1_455 S
O5 C4 1.254 . S
C6 O27 1.256 . S
C6 O28 1.244 . S
O7 Zn3 2.055 1_545 S
O7 C29 1.259 . S
O8 Zn0 2.046 . S
O8 C29 1.254 1_455 S
N9 Zn3 2.036 . S
N9 C10 1.298 . S
N9 N12 1.398 . S
C10 N9 1.298 . S
C10 N13 1.367 . S
C10 C23 1.481 . S
C11 N12 1.299 . S
C11 N13 1.379 . S
N12 N9 1.398 . S
N12 C11 1.299 . S
N13 C10 1.367 . S
N13 C11 1.379 . S
C14 N16 1.298 . S
C14 N18 1.367 . S
C14 C22 1.481 . S
C15 N17 1.299 . S
C15 N18 1.379 . S
N16 Zn0 2.036 1_556 S
N16 C14 1.298 . S
N16 N17 1.398 . S
N17 C15 1.299 . S
N17 N16 1.398 . S
N18 C14 1.367 . S
N18 C15 1.379 . S
H19 C22 0.980 1_554 S
H20 C22 0.981 1_554 S
H21 C22 0.981 . S
C22 C14 1.481 . S
C22 H19 0.980 1_556 S
C22 H20 0.981 1_556 S
C22 H21 0.981 . S
C23 C10 1.481 . S
C23 H24 0.980 1_565 S
C23 H25 0.981 . S
C23 H26 0.981 1_565 S
H24 C23 0.980 1_545 S
H25 C23 0.981 . S
H26 C23 0.981 1_545 S
O27 Zn3 2.066 1_546 S
O27 C6 1.256 . S
O28 Zn0 2.053 1_656 S
O28 C6 1.244 . S
C29 O7 1.259 . S
C29 O8 1.254 1_655 S
O30 Zn0 2.066 1_556 S
O30 C2 1.256 1_545 S
O31 C2 1.244 . S
O31 Zn3 2.053 1_456 S
Zn32 O33 2.055 . S
Zn32 O40 2.046 . S
Zn32 N48 2.036 . S
Zn32 O60 2.053 . S
Zn32 O62 2.066 . S
O33 Zn32 2.055 . S
O33 C36 1.259 . S
C34 O62 1.256 . S
C34 O63 1.244 . S
Zn35 O37 2.046 . S
Zn35 O39 2.055 . S
Zn35 N41 2.036 . S
Zn35 O59 2.066 . S
Zn35 O63 2.053 . S
C36 O33 1.259 . S
C36 O37 1.254 . S
O37 Zn35 2.046 . S
O37 C36 1.254 . S
C38 O59 1.256 . S
C38 O60 1.244 . S
O39 Zn35 2.055 . S
O39 C61 1.259 . S
O40 Zn32 2.046 . S
O40 C61 1.254 . S
N41 Zn35 2.036 . S
N41 C42 1.298 . S
N41 N44 1.398 . S
C42 N41 1.298 . S
C42 N45 1.367 . S
C42 C55 1.481 . S
C43 N44 1.299 . S
C43 N45 1.379 . S
N44 N41 1.398 . S
N44 C43 1.299 . S
N45 C42 1.367 . S
N45 C43 1.379 . S
C46 N48 1.298 . S
C46 N50 1.367 . S
C46 C54 1.481 . S
C47 N49 1.299 . S
C47 N50 1.379 . S
N48 Zn32 2.036 . S
N48 C46 1.298 . S
N48 N49 1.398 . S
N49 C47 1.299 . S
N49 N48 1.398 . S
N50 C46 1.367 . S
N50 C47 1.379 . S
H51 C54 0.980 . S
H52 C54 0.981 . S
H53 C54 0.981 . S
C54 C46 1.481 . S
C54 H51 0.980 . S
C54 H52 0.981 . S
C54 H53 0.981 . S
C55 C42 1.481 . S
C55 H56 0.980 . S
C55 H57 0.981 . S
C55 H58 0.981 . S
H56 C55 0.980 . S
H57 C55 0.981 . S
H58 C55 0.981 . S
O59 Zn35 2.066 . S
O59 C38 1.256 . S
O60 Zn32 2.053 . S
O60 C38 1.244 . S
C61 O39 1.259 . S
C61 O40 1.254 . S
O62 Zn32 2.066 . S
O62 C34 1.256 . S
O63 C34 1.244 . S
O63 Zn35 2.053 . S
Zn64 O65 2.055 . S
Zn64 O72 2.046 . S
Zn64 N80 2.036 . S
Zn64 O92 2.053 1_545 S
Zn64 O94 2.066 . S
O65 Zn64 2.055 . S
O65 C68 1.259 . S
C66 O94 1.256 . S
C66 O95 1.244 . S
Zn67 O69 2.046 1_565 S
Zn67 O71 2.055 . S
Zn67 N73 2.036 . S
Zn67 O91 2.066 . S
Zn67 O95 2.053 1_565 S
C68 O65 1.259 . S
C68 O69 1.254 . S
O69 Zn67 2.046 1_545 S
O69 C68 1.254 . S
C70 O91 1.256 . S
C70 O92 1.244 . S
O71 Zn67 2.055 . S
O71 C93 1.259 . S
O72 Zn64 2.046 . S
O72 C93 1.254 1_545 S
N73 Zn67 2.036 . S
N73 C74 1.298 . S
N73 N76 1.398 . S
C74 N73 1.298 . S
C74 N77 1.367 . S
C74 C87 1.481 . S
C75 N76 1.299 . S
C75 N77 1.379 . S
N76 N73 1.398 . S
N76 C75 1.299 . S
N77 C74 1.367 . S
N77 C75 1.379 . S
C78 N80 1.298 . S
C78 N82 1.367 . S
C78 C86 1.481 . S
C79 N81 1.299 . S
C79 N82 1.379 . S
N80 Zn64 2.036 . S
N80 C78 1.298 . S
N80 N81 1.398 . S
N81 C79 1.299 . S
N81 N80 1.398 . S
N82 C78 1.367 . S
N82 C79 1.379 . S
H83 C86 0.980 . S
H84 C86 0.981 . S
H85 C86 0.981 . S
C86 C78 1.481 . S
C86 H83 0.980 . S
C86 H84 0.981 . S
C86 H85 0.981 . S
C87 C74 1.481 . S
C87 H88 0.980 . S
C87 H89 0.981 . S
C87 H90 0.981 . S
H88 C87 0.980 . S
H89 C87 0.981 . S
H90 C87 0.981 . S
O91 Zn67 2.066 . S
O91 C70 1.256 . S
O92 Zn64 2.053 1_565 S
O92 C70 1.244 . S
C93 O71 1.259 . S
C93 O72 1.254 1_565 S
O94 Zn64 2.066 . S
O94 C66 1.256 . S
O95 C66 1.244 . S
O95 Zn67 2.053 1_545 S
Zn96 O97 2.055 . S
Zn96 O104 2.046 . S
Zn96 N112 2.036 . S
Zn96 O124 2.053 . S
Zn96 O126 2.066 . S
O97 Zn96 2.055 . S
O97 C100 1.259 . S
C98 O126 1.256 . S
C98 O127 1.244 . S
Zn99 O101 2.046 . S
Zn99 O103 2.055 . S
Zn99 N105 2.036 . S
Zn99 O123 2.066 . S
Zn99 O127 2.053 . S
C100 O97 1.259 . S
C100 O101 1.254 . S
O101 Zn99 2.046 . S
O101 C100 1.254 . S
C102 O123 1.256 . S
C102 O124 1.244 . S
O103 Zn99 2.055 . S
O103 C125 1.259 . S
O104 Zn96 2.046 . S
O104 C125 1.254 . S
N105 Zn99 2.036 . S
N105 C106 1.298 . S
N105 N108 1.398 . S
C106 N105 1.298 . S
C106 N109 1.367 . S
C106 C119 1.481 . S
C107 N108 1.299 . S
C107 N109 1.379 . S
N108 N105 1.398 . S
N108 C107 1.299 . S
N109 C106 1.367 . S
N109 C107 1.379 . S
C110 N112 1.298 . S
C110 N114 1.367 . S
C110 C118 1.481 . S
C111 N113 1.299 . S
C111 N114 1.379 . S
N112 Zn96 2.036 . S
N112 C110 1.298 . S
N112 N113 1.398 . S
N113 C111 1.299 . S
N113 N112 1.398 . S
N114 C110 1.367 . S
N114 C111 1.379 . S
H115 C118 0.980 . S
H116 C118 0.981 . S
H117 C118 0.981 . S
C118 C110 1.481 . S
C118 H115 0.980 . S
C118 H116 0.981 . S
C118 H117 0.981 . S
C119 C106 1.481 . S
C119 H120 0.980 . S
C119 H121 0.981 . S
C119 H122 0.981 . S
H120 C119 0.980 . S
H121 C119 0.981 . S
H122 C119 0.981 . S
O123 Zn99 2.066 . S
O123 C102 1.256 . S
O124 Zn96 2.053 . S
O124 C102 1.244 . S
C125 O103 1.259 . S
C125 O104 1.254 . S
O126 Zn96 2.066 . S
O126 C98 1.256 . S
O127 C98 1.244 . S
O127 Zn99 2.053 . S
Zn128 O129 2.055 1_545 S
Zn128 O136 2.046 1_545 S
Zn128 N144 2.036 . S
Zn128 O156 2.053 . S
Zn128 O158 2.066 1_455 S
O129 Zn128 2.055 1_565 S
O129 C132 1.259 1_455 S
C130 O158 1.256 . S
C130 O159 1.244 . S
Zn131 O133 2.046 . S
Zn131 O135 2.055 1_655 S
Zn131 N137 2.036 . S
Zn131 O155 2.074 1_565 S
Zn131 O159 2.053 1_565 S
C132 O129 1.259 1_655 S
C132 O133 1.254 . S
O133 Zn131 2.046 . S
O133 C132 1.254 . S
C134 O155 1.240 1_455 S
C134 O156 1.244 . S
O135 Zn131 2.055 1_455 S
O135 C157 1.259 . S
O136 Zn128 2.046 1_565 S
O136 C157 1.254 . S
N137 Zn131 2.036 . S
N137 C138 1.298 . S
N137 N140 1.398 . S
C138 N137 1.298 . S
C138 N141 1.367 . S
C138 C151 1.481 . S
C139 N140 1.299 . S
C139 N141 1.379 . S
N140 N137 1.398 . S
N140 C139 1.299 . S
N141 C138 1.367 . S
N141 C139 1.379 . S
C142 N144 1.298 . S
C142 N146 1.367 . S
C142 C150 1.481 . S
C143 N145 1.299 . S
C143 N146 1.379 . S
N144 Zn128 2.036 . S
N144 C142 1.298 . S
N144 N145 1.398 . S
N145 C143 1.299 . S
N145 N144 1.398 . S
N146 C142 1.367 . S
N146 C143 1.379 . S
H147 C150 0.982 1_565 S
H148 C150 0.981 . S
H149 C150 0.981 . S
C150 C142 1.481 . S
C150 H147 0.982 1_545 S
C150 H148 0.981 . S
C150 H149 0.981 . S
C151 C138 1.481 . S
C151 H152 0.980 . S
C151 H153 0.981 . S
C151 H154 0.981 . S
H152 C151 0.980 . S
H153 C151 0.981 . S
H154 C151 0.981 . S
O155 Zn131 2.074 1_545 S
O155 C134 1.240 1_655 S
O156 Zn128 2.053 . S
O156 C134 1.244 . S
C157 O135 1.259 . S
C157 O136 1.254 . S
O158 Zn128 2.066 1_655 S
O158 C130 1.256 . S
O159 C130 1.244 . S
O159 Zn131 2.053 1_545 S
Zn160 O161 2.055 . S
Zn160 O168 2.046 . S
Zn160 N176 2.036 . S
Zn160 O188 2.053 . S
Zn160 O190 2.066 . S
O161 Zn160 2.055 . S
O161 C164 1.259 . S
C162 O190 1.256 . S
C162 O191 1.244 . S
Zn163 O165 2.046 . S
Zn163 O167 2.055 . S
Zn163 N169 2.036 . S
Zn163 O187 2.066 . S
Zn163 O191 2.053 . S
C164 O161 1.259 . S
C164 O165 1.254 . S
O165 Zn163 2.046 . S
O165 C164 1.254 . S
C166 O187 1.256 . S
C166 O188 1.244 . S
O167 Zn163 2.055 . S
O167 C189 1.259 . S
O168 Zn160 2.046 . S
O168 C189 1.254 . S
N169 Zn163 2.036 . S
N169 C170 1.298 . S
N169 N172 1.398 . S
C170 N169 1.298 . S
C170 N173 1.367 . S
C170 C183 1.481 . S
C171 N172 1.299 . S
C171 N173 1.379 . S
N172 N169 1.398 . S
N172 C171 1.299 . S
N173 C170 1.367 . S
N173 C171 1.379 . S
C174 N176 1.298 . S
C174 N178 1.367 . S
C174 C182 1.481 . S
C175 N177 1.299 . S
C175 N178 1.379 . S
N176 Zn160 2.036 . S
N176 C174 1.298 . S
N176 N177 1.398 . S
N177 C175 1.299 . S
N177 N176 1.398 . S
N178 C174 1.367 . S
N178 C175 1.379 . S
H179 C182 0.980 . S
H180 C182 0.981 . S
H181 C182 0.981 . S
C182 C174 1.481 . S
C182 H179 0.980 . S
C182 H180 0.981 . S
C182 H181 0.981 . S
C183 C170 1.481 . S
C183 H184 0.980 . S
C183 H185 0.981 . S
C183 H186 0.981 . S
H184 C183 0.980 . S
H185 C183 0.981 . S
H186 C183 0.981 . S
O187 Zn163 2.066 . S
O187 C166 1.256 . S
O188 Zn160 2.053 . S
O188 C166 1.244 . S
C189 O167 1.259 . S
C189 O168 1.254 . S
O190 Zn160 2.066 . S
O190 C162 1.256 . S
O191 C162 1.244 . S
O191 Zn163 2.053 . S
Zn192 O193 2.055 . S
Zn192 O200 2.046 . S
Zn192 N208 2.036 . S
Zn192 O220 2.053 1_545 S
Zn192 O222 2.066 1_545 S
O193 Zn192 2.055 . S
O193 C196 1.259 . S
C194 O222 1.256 . S
C194 O223 1.244 . S
Zn195 O197 2.046 1_556 S
Zn195 O199 2.055 . S
Zn195 N201 2.036 1_545 S
Zn195 O219 2.066 1_545 S
Zn195 O223 2.053 1_546 S
C196 O193 1.259 . S
C196 O197 1.254 . S
O197 Zn195 2.046 1_554 S
O197 C196 1.254 . S
C198 O219 1.256 . S
C198 O220 1.244 1_556 S
O199 Zn195 2.055 . S
O199 C221 1.259 . S
O200 Zn192 2.046 . S
O200 C221 1.254 1_554 S
N201 Zn195 2.036 1_565 S
N201 C202 1.298 . S
N201 N204 1.398 . S
C202 N201 1.298 . S
C202 N205 1.367 . S
C202 C215 1.481 1_565 S
C203 N204 1.299 . S
C203 N205 1.379 . S
N204 N201 1.398 . S
N204 C203 1.299 . S
N205 C202 1.367 . S
N205 C203 1.379 . S
C206 N208 1.298 . S
C206 N210 1.367 . S
C206 C214 1.481 . S
C207 N209 1.299 . S
C207 N210 1.379 . S
N208 Zn192 2.036 . S
N208 C206 1.298 . S
N208 N209 1.398 . S
N209 C207 1.299 . S
N209 N208 1.398 . S
N210 C206 1.367 . S
N210 C207 1.379 . S
H211 C214 0.980 . S
H212 C214 0.981 . S
H213 C214 0.981 . S
C214 C206 1.481 . S
C214 H211 0.980 . S
C214 H212 0.981 . S
C214 H213 0.981 . S
C215 C202 1.481 1_545 S
C215 H216 0.980 . S
C215 H217 0.981 . S
C215 H218 0.981 1_545 S
H216 C215 0.980 . S
H217 C215 0.981 . S
H218 C215 0.981 1_565 S
O219 Zn195 2.066 1_565 S
O219 C198 1.256 . S
O220 Zn192 2.053 1_565 S
O220 C198 1.244 1_554 S
C221 O199 1.259 . S
C221 O200 1.254 1_556 S
O222 Zn192 2.066 1_565 S
O222 C194 1.256 . S
O223 C194 1.244 . S
O223 Zn195 2.053 1_564 S
Zn224 O225 2.055 . S
Zn224 O232 2.046 . S
Zn224 N240 2.036 . S
Zn224 O252 2.053 . S
Zn224 O254 2.066 . S
O225 Zn224 2.055 . S
O225 C228 1.259 . S
C226 O254 1.256 . S
C226 O255 1.244 . S
Zn227 O229 2.046 . S
Zn227 O231 2.055 . S
Zn227 N233 2.036 . S
Zn227 O251 2.066 . S
Zn227 O255 2.053 . S
C228 O225 1.259 . S
C228 O229 1.254 . S
O229 Zn227 2.046 . S
O229 C228 1.254 . S
C230 O251 1.256 . S
C230 O252 1.244 . S
O231 Zn227 2.055 . S
O231 C253 1.259 . S
O232 Zn224 2.046 . S
O232 C253 1.254 . S
N233 Zn227 2.036 . S
N233 C234 1.298 . S
N233 N236 1.398 . S
C234 N233 1.298 . S
C234 N237 1.367 . S
C234 C247 1.481 . S
C235 N236 1.299 . S
C235 N237 1.379 . S
N236 N233 1.398 . S
N236 C235 1.299 . S
N237 C234 1.367 . S
N237 C235 1.379 . S
C238 N240 1.298 . S
C238 N242 1.367 . S
C238 C246 1.481 . S
C239 N241 1.299 . S
C239 N242 1.379 . S
N240 Zn224 2.036 . S
N240 C238 1.298 . S
N240 N241 1.398 . S
N241 C239 1.299 . S
N241 N240 1.398 . S
N242 C238 1.367 . S
N242 C239 1.379 . S
H243 C246 0.980 . S
H244 C246 0.981 . S
H245 C246 0.981 . S
C246 C238 1.481 . S
C246 H243 0.980 . S
C246 H244 0.981 . S
C246 H245 0.981 . S
C247 C234 1.481 . S
C247 H248 0.980 . S
C247 H249 0.981 . S
C247 H250 0.981 . S
H248 C247 0.980 . S
H249 C247 0.981 . S
H250 C247 0.981 . S
O251 Zn227 2.066 . S
O251 C230 1.256 . S
O252 Zn224 2.053 . S
O252 C230 1.244 . S
C253 O231 1.259 . S
C253 O232 1.254 . S
O254 Zn224 2.066 . S
O254 C226 1.256 . S
O255 C226 1.244 . S
O255 Zn227 2.053 . S
Zn256 O257 2.055 . S
Zn256 O264 2.046 1_554 S
Zn256 N272 2.036 . S
Zn256 O284 2.053 1_554 S
Zn256 O286 2.066 . S
O257 Zn256 2.055 . S
O257 C260 1.259 . S
C258 O286 1.256 . S
C258 O287 1.244 . S
Zn259 O261 2.031 1_556 S
Zn259 O263 2.055 . S
Zn259 N265 2.036 . S
Zn259 O283 2.066 . S
Zn259 O287 2.053 1_556 S
C260 O257 1.259 . S
C260 O261 1.283 . S
O261 Zn259 2.031 1_554 S
O261 C260 1.283 . S
C262 O283 1.256 . S
C262 O284 1.244 . S
O263 Zn259 2.055 . S
O263 C285 1.259 . S
O264 Zn256 2.046 1_556 S
O264 C285 1.254 . S
N265 Zn259 2.036 . S
N265 C266 1.298 . S
N265 N268 1.398 . S
C266 N265 1.298 . S
C266 N269 1.367 . S
C266 C279 1.481 . S
C267 N268 1.299 . S
C267 N269 1.379 . S
N268 N265 1.398 . S
N268 C267 1.299 . S
N269 C266 1.367 . S
N269 C267 1.379 . S
C270 N272 1.298 . S
C270 N274 1.367 . S
C270 C278 1.481 . S
C271 N273 1.299 . S
C271 N274 1.379 . S
N272 Zn256 2.036 . S
N272 C270 1.298 . S
N272 N273 1.398 . S
N273 C271 1.299 . S
N273 N272 1.398 . S
N274 C270 1.367 . S
N274 C271 1.379 . S
H275 C278 0.980 . S
H276 C278 0.981 . S
H277 C278 0.981 . S
C278 C270 1.481 . S
C278 H275 0.980 . S
C278 H276 0.981 . S
C278 H277 0.981 . S
C279 C266 1.481 . S
C279 H280 0.980 . S
C279 H281 0.981 . S
C279 H282 0.981 . S
H280 C279 0.980 . S
H281 C279 0.981 . S
H282 C279 0.981 . S
O283 Zn259 2.066 . S
O283 C262 1.256 . S
O284 Zn256 2.053 1_556 S
O284 C262 1.244 . S
C285 O263 1.259 . S
C285 O264 1.254 . S
O286 Zn256 2.066 . S
O286 C258 1.256 . S
O287 C258 1.244 . S
O287 Zn259 2.053 1_554 S
Zn288 O289 2.055 . S
Zn288 O296 2.046 . S
Zn288 N304 2.036 . S
Zn288 O316 2.053 . S
Zn288 O318 2.066 . S
O289 Zn288 2.055 . S
O289 C292 1.259 . S
C290 O318 1.256 . S
C290 O319 1.244 . S
Zn291 O293 2.046 . S
Zn291 O295 2.055 . S
Zn291 N297 2.036 . S
Zn291 O315 2.066 . S
Zn291 O319 2.053 . S
C292 O289 1.259 . S
C292 O293 1.254 . S
O293 Zn291 2.046 . S
O293 C292 1.254 . S
C294 O315 1.256 . S
C294 O316 1.244 . S
O295 Zn291 2.055 . S
O295 C317 1.259 . S
O296 Zn288 2.046 . S
O296 C317 1.254 . S
N297 Zn291 2.036 . S
N297 C298 1.298 . S
N297 N300 1.398 . S
C298 N297 1.298 . S
C298 N301 1.367 . S
C298 C311 1.481 . S
C299 N300 1.299 . S
C299 N301 1.379 . S
N300 N297 1.398 . S
N300 C299 1.299 . S
N301 C298 1.367 . S
N301 C299 1.379 . S
C302 N304 1.298 . S
C302 N306 1.367 . S
C302 C310 1.481 . S
C303 N305 1.299 . S
C303 N306 1.379 . S
N304 Zn288 2.036 . S
N304 C302 1.298 . S
N304 N305 1.398 . S
N305 C303 1.299 . S
N305 N304 1.398 . S
N306 C302 1.367 . S
N306 C303 1.379 . S
H307 C310 0.980 . S
H308 C310 0.981 . S
H309 C310 0.981 . S
C310 C302 1.481 . S
C310 H307 0.980 . S
C310 H308 0.981 . S
C310 H309 0.981 . S
C311 C298 1.481 . S
C311 H312 0.980 . S
C311 H313 0.981 . S
C311 H314 0.981 . S
H312 C311 0.980 . S
H313 C311 0.981 . S
H314 C311 0.981 . S
O315 Zn291 2.066 . S
O315 C294 1.256 . S
O316 Zn288 2.053 . S
O316 C294 1.244 . S
C317 O295 1.259 . S
C317 O296 1.254 . S
O318 Zn288 2.066 . S
O318 C290 1.256 . S
O319 C290 1.244 . S
O319 Zn291 2.053 . S
Zn320 O321 2.055 1_455 S
Zn320 O328 2.046 . S
Zn320 N336 2.036 . S
Zn320 O348 2.053 . S
Zn320 O350 2.066 . S
O321 Zn320 2.055 1_655 S
O321 C324 1.259 . S
C322 O350 1.256 1_655 S
C322 O351 1.244 . S
Zn323 O325 2.046 . S
Zn323 O327 2.042 1_655 S
Zn323 N329 2.036 . S
Zn323 O347 2.066 1_655 S
Zn323 O351 2.053 . S
C324 O321 1.259 . S
C324 O325 1.254 . S
O325 Zn323 2.046 . S
O325 C324 1.254 . S
C326 O347 1.256 . S
C326 O348 1.244 . S
O327 Zn323 2.042 1_455 S
O327 C349 1.279 . S
O328 Zn320 2.046 . S
O328 C349 1.254 . S
N329 Zn323 2.036 . S
N329 C330 1.298 . S
N329 N332 1.398 . S
C330 N329 1.298 . S
C330 N333 1.367 . S
C330 C343 1.481 . S
C331 N332 1.299 . S
C331 N333 1.379 . S
N332 N329 1.398 . S
N332 C331 1.299 . S
N333 C330 1.367 . S
N333 C331 1.379 . S
C334 N336 1.298 . S
C334 N338 1.367 . S
C334 C342 1.481 . S
C335 N337 1.299 . S
C335 N338 1.379 . S
N336 Zn320 2.036 . S
N336 C334 1.298 . S
N336 N337 1.398 . S
N337 C335 1.299 . S
N337 N336 1.398 . S
N338 C334 1.367 . S
N338 C335 1.379 . S
H339 C342 0.980 . S
H340 C342 0.981 . S
H341 C342 0.981 . S
C342 C334 1.481 . S
C342 H339 0.980 . S
C342 H340 0.981 . S
C342 H341 0.981 . S
C343 C330 1.481 . S
C343 H344 0.980 . S
C343 H345 0.981 . S
C343 H346 0.981 . S
H344 C343 0.980 . S
H345 C343 0.981 . S
H346 C343 0.981 . S
O347 Zn323 2.066 1_455 S
O347 C326 1.256 . S
O348 Zn320 2.053 . S
O348 C326 1.244 . S
C349 O327 1.279 . S
C349 O328 1.254 . S
O350 Zn320 2.066 . S
O350 C322 1.256 1_455 S
O351 C322 1.244 . S
O351 Zn323 2.053 . S
Zn352 O353 2.055 . S
Zn352 O360 2.046 . S
Zn352 N368 2.036 . S
Zn352 O380 2.053 . S
Zn352 O382 2.066 . S
O353 Zn352 2.055 . S
O353 C356 1.259 . S
C354 O382 1.256 . S
C354 O383 1.244 . S
Zn355 O357 2.046 . S
Zn355 O359 2.055 . S
Zn355 N361 2.036 . S
Zn355 O379 2.066 . S
Zn355 O383 2.053 . S
C356 O353 1.259 . S
C356 O357 1.254 . S
O357 Zn355 2.046 . S
O357 C356 1.254 . S
C358 O379 1.256 . S
C358 O380 1.244 . S
O359 Zn355 2.055 . S
O359 C381 1.259 . S
O360 Zn352 2.046 . S
O360 C381 1.254 . S
N361 Zn355 2.036 . S
N361 C362 1.298 . S
N361 N364 1.398 . S
C362 N361 1.298 . S
C362 N365 1.367 . S
C362 C375 1.481 . S
C363 N364 1.299 . S
C363 N365 1.379 . S
N364 N361 1.398 . S
N364 C363 1.299 . S
N365 C362 1.367 . S
N365 C363 1.379 . S
C366 N368 1.298 . S
C366 N370 1.367 . S
C366 C374 1.481 . S
C367 N369 1.299 . S
C367 N370 1.379 . S
N368 Zn352 2.036 . S
N368 C366 1.298 . S
N368 N369 1.398 . S
N369 C367 1.299 . S
N369 N368 1.398 . S
N370 C366 1.367 . S
N370 C367 1.379 . S
H371 C374 0.980 . S
H372 C374 0.981 . S
H373 C374 0.981 . S
C374 C366 1.481 . S
C374 H371 0.980 . S
C374 H372 0.981 . S
C374 H373 0.981 . S
C375 C362 1.481 . S
C375 H376 0.980 . S
C375 H377 0.981 . S
C375 H378 0.981 . S
H376 C375 0.980 . S
H377 C375 0.981 . S
H378 C375 0.981 . S
O379 Zn355 2.066 . S
O379 C358 1.256 . S
O380 Zn352 2.053 . S
O380 C358 1.244 . S
C381 O359 1.259 . S
C381 O360 1.254 . S
O382 Zn352 2.066 . S
O382 C354 1.256 . S
O383 C354 1.244 . S
O383 Zn355 2.053 . S
Zn384 O385 2.055 . S
Zn384 O392 2.046 . S
Zn384 N400 2.036 . S
Zn384 O412 2.053 . S
Zn384 O414 2.066 . S
O385 Zn384 2.055 . S
O385 C388 1.259 . S
C386 O414 1.256 . S
C386 O415 1.244 . S
Zn387 O389 2.046 . S
Zn387 O391 2.055 . S
Zn387 N393 2.036 . S
Zn387 O411 2.066 . S
Zn387 O415 2.053 . S
C388 O385 1.259 . S
C388 O389 1.254 . S
O389 Zn387 2.046 . S
O389 C388 1.254 . S
C390 O411 1.256 . S
C390 O412 1.244 . S
O391 Zn387 2.055 . S
O391 C413 1.259 . S
O392 Zn384 2.046 . S
O392 C413 1.254 . S
N393 Zn387 2.036 . S
N393 C394 1.298 . S
N393 N396 1.398 . S
C394 N393 1.298 . S
C394 N397 1.367 . S
C394 C407 1.481 . S
C395 N396 1.299 . S
C395 N397 1.379 . S
N396 N393 1.398 . S
N396 C395 1.299 . S
N397 C394 1.367 . S
N397 C395 1.379 . S
C398 N400 1.298 . S
C398 N402 1.367 . S
C398 C406 1.481 . S
C399 N401 1.299 . S
C399 N402 1.379 . S
N400 Zn384 2.036 . S
N400 C398 1.298 . S
N400 N401 1.398 . S
N401 C399 1.299 . S
N401 N400 1.398 . S
N402 C398 1.367 . S
N402 C399 1.379 . S
H403 C406 0.980 . S
H404 C406 0.981 . S
H405 C406 0.981 . S
C406 C398 1.481 . S
C406 H403 0.980 . S
C406 H404 0.981 . S
C406 H405 0.981 . S
C407 C394 1.481 . S
C407 H408 0.980 . S
C407 H409 0.981 . S
C407 H410 0.981 . S
H408 C407 0.980 . S
H409 C407 0.981 . S
H410 C407 0.981 . S
O411 Zn387 2.066 . S
O411 C390 1.256 . S
O412 Zn384 2.053 . S
O412 C390 1.244 . S
C413 O391 1.259 . S
C413 O392 1.254 . S
O414 Zn384 2.066 . S
O414 C386 1.256 . S
O415 C386 1.244 . S
O415 Zn387 2.053 . S
Zn416 O417 2.055 . S
Zn416 O424 2.046 . S
Zn416 N432 2.036 . S
Zn416 O444 2.053 . S
Zn416 O446 2.066 . S
O417 Zn416 2.055 . S
O417 C420 1.259 . S
C418 O446 1.256 . S
C418 O447 1.244 . S
Zn419 O421 2.046 . S
Zn419 O423 2.055 . S
Zn419 N425 2.036 . S
Zn419 O443 2.066 . S
Zn419 O447 2.053 . S
C420 O417 1.259 . S
C420 O421 1.254 . S
O421 Zn419 2.046 . S
O421 C420 1.254 . S
C422 O443 1.256 . S
C422 O444 1.244 . S
O423 Zn419 2.055 . S
O423 C445 1.259 . S
O424 Zn416 2.046 . S
O424 C445 1.254 . S
N425 Zn419 2.036 . S
N425 C426 1.298 . S
N425 N428 1.398 . S
C426 N425 1.298 . S
C426 N429 1.367 . S
C426 C439 1.481 . S
C427 N428 1.299 . S
C427 N429 1.379 . S
N428 N425 1.398 . S
N428 C427 1.299 . S
N429 C426 1.367 . S
N429 C427 1.379 . S
C430 N432 1.298 . S
C430 N434 1.367 . S
C430 C438 1.481 . S
C431 N433 1.299 . S
C431 N434 1.379 . S
N432 Zn416 2.036 . S
N432 C430 1.298 . S
N432 N433 1.398 . S
N433 C431 1.299 . S
N433 N432 1.398 . S
N434 C430 1.367 . S
N434 C431 1.379 . S
H435 C438 0.980 . S
H436 C438 0.981 . S
H437 C438 0.981 . S
C438 C430 1.481 . S
C438 H435 0.980 . S
C438 H436 0.981 . S
C438 H437 0.981 . S
C439 C426 1.481 . S
C439 H440 0.980 . S
C439 H441 0.981 . S
C439 H442 0.981 . S
H440 C439 0.980 . S
H441 C439 0.981 . S
H442 C439 0.981 . S
O443 Zn419 2.066 . S
O443 C422 1.256 . S
O444 Zn416 2.053 . S
O444 C422 1.244 . S
C445 O423 1.259 . S
C445 O424 1.254 . S
O446 Zn416 2.066 . S
O446 C418 1.256 . S
O447 C418 1.244 . S
O447 Zn419 2.053 . S
Zn448 O449 2.055 . S
Zn448 O456 2.046 . S
Zn448 N464 2.036 . S
Zn448 O476 2.053 . S
Zn448 O478 2.066 . S
O449 Zn448 2.055 . S
O449 C452 1.259 . S
C450 O478 1.256 . S
C450 O479 1.244 . S
Zn451 O453 2.046 . S
Zn451 O455 2.055 . S
Zn451 N457 2.036 . S
Zn451 O475 2.066 . S
Zn451 O479 2.053 . S
C452 O449 1.259 . S
C452 O453 1.254 . S
O453 Zn451 2.046 . S
O453 C452 1.254 . S
C454 O475 1.256 . S
C454 O476 1.244 . S
O455 Zn451 2.055 . S
O455 C477 1.259 . S
O456 Zn448 2.046 . S
O456 C477 1.254 . S
N457 Zn451 2.036 . S
N457 C458 1.298 . S
N457 N460 1.398 . S
C458 N457 1.298 . S
C458 N461 1.367 . S
C458 C471 1.481 . S
C459 N460 1.299 . S
C459 N461 1.379 . S
N460 N457 1.398 . S
N460 C459 1.299 . S
N461 C458 1.367 . S
N461 C459 1.379 . S
C462 N464 1.298 . S
C462 N466 1.367 . S
C462 C470 1.481 . S
C463 N465 1.299 . S
C463 N466 1.379 . S
N464 Zn448 2.036 . S
N464 C462 1.298 . S
N464 N465 1.398 . S
N465 C463 1.299 . S
N465 N464 1.398 . S
N466 C462 1.367 . S
N466 C463 1.379 . S
H467 C470 0.980 . S
H468 C470 0.981 . S
H469 C470 0.981 . S
C470 C462 1.481 . S
C470 H467 0.980 . S
C470 H468 0.981 . S
C470 H469 0.981 . S
C471 C458 1.481 . S
C471 H472 0.980 . S
C471 H473 0.981 . S
C471 H474 0.981 . S
H472 C471 0.980 . S
H473 C471 0.981 . S
H474 C471 0.981 . S
O475 Zn451 2.066 . S
O475 C454 1.256 . S
O476 Zn448 2.053 . S
O476 C454 1.244 . S
C477 O455 1.259 . S
C477 O456 1.254 . S
O478 Zn448 2.066 . S
O478 C450 1.256 . S
O479 C450 1.244 . S
O479 Zn451 2.053 . S
Zn480 O481 2.055 1_454 S
Zn480 O488 2.046 1_554 S
Zn480 N496 2.036 . S
Zn480 O508 2.053 . S
Zn480 O510 2.066 1_455 S
O481 Zn480 2.055 1_656 S
O481 C484 1.259 . S
C482 O510 1.256 . S
C482 O511 1.244 . S
Zn483 O485 2.042 1_554 S
Zn483 O487 2.052 1_654 S
Zn483 N489 2.035 1_554 S
Zn483 O507 2.070 . S
Zn483 O511 2.057 . S
C484 O481 1.259 . S
C484 O485 1.254 . S
O485 Zn483 2.042 1_556 S
O485 C484 1.254 . S
C486 O507 1.256 1_455 S
C486 O508 1.244 . S
O487 Zn483 2.052 1_456 S
O487 C509 1.259 . S
O488 Zn480 2.046 1_556 S
O488 C509 1.254 . S
N489 Zn483 2.035 1_556 S
N489 C490 1.298 . S
N489 N492 1.398 . S
C490 N489 1.298 . S
C490 N493 1.367 . S
C490 C503 1.481 . S
C491 N492 1.299 . S
C491 N493 1.379 . S
N492 N489 1.398 . S
N492 C491 1.299 . S
N493 C490 1.367 . S
N493 C491 1.379 . S
C494 N496 1.298 . S
C494 N498 1.367 . S
C494 C502 1.481 . S
C495 N497 1.299 . S
C495 N498 1.379 . S
N496 Zn480 2.036 . S
N496 C494 1.298 . S
N496 N497 1.398 . S
N497 C495 1.299 . S
N497 N496 1.398 . S
N498 C494 1.367 . S
N498 C495 1.379 . S
H499 C502 0.980 . S
H500 C502 0.981 . S
H501 C502 0.981 . S
C502 C494 1.481 . S
C502 H499 0.980 . S
C502 H500 0.981 . S
C502 H501 0.981 . S
C503 C490 1.481 . S
C503 H504 0.980 . S
C503 H505 0.981 . S
C503 H506 0.981 . S
H504 C503 0.980 . S
H505 C503 0.981 . S
H506 C503 0.981 . S
O507 Zn483 2.070 . S
O507 C486 1.256 1_655 S
O508 Zn480 2.053 . S
O508 C486 1.244 . S
C509 O487 1.259 . S
C509 O488 1.254 . S
O510 Zn480 2.066 1_655 S
O510 C482 1.256 . S
O511 C482 1.244 . S
O511 Zn483 2.057 . S
C512 C513 1.349 . S
C512 C514 1.327 . S
C512 H537 0.950 . S
C513 C512 1.349 . S
C513 C529 1.349 . S
C514 C512 1.327 . S
C514 C533 1.429 . S
C514 H538 0.950 . S
C515 C532 1.574 . S
C515 C534 1.368 . S
C515 H539 0.949 . S
H516 C520 0.949 . S
C517 C518 1.349 . S
C517 C519 1.327 . S
C517 H540 0.950 . S
C518 C517 1.349 . S
C518 C530 1.349 . S
C519 C517 1.327 . S
C519 C535 1.429 . S
C519 H541 0.950 . S
C520 H516 0.949 . S
C520 C528 1.574 . S
C520 C536 1.368 . S
H521 C529 0.950 . S
H522 C527 0.950 . S
H523 C528 0.949 . S
H524 C530 0.950 . S
H525 C531 0.950 . S
H526 C532 0.949 . S
C527 H522 0.950 . S
C527 C529 1.327 . S
C527 C533 1.429 . S
C528 C520 1.574 . S
C528 H523 0.949 . S
C528 C534 1.368 . S
C529 C513 1.349 . S
C529 H521 0.950 . S
C529 C527 1.327 . S
C530 C518 1.349 . S
C530 H524 0.950 . S
C530 C531 1.327 . S
C531 H525 0.950 . S
C531 C530 1.327 . S
C531 C535 1.429 . S
C532 C515 1.574 . S
C532 H526 0.949 . S
C532 C536 1.368 . S
C533 C514 1.429 . S
C533 C527 1.429 . S
C533 C534 1.523 . S
C534 C515 1.368 . S
C534 C528 1.368 . S
C534 C533 1.523 . S
C535 C519 1.429 . S
C535 C531 1.429 . S
C535 C536 1.523 . S
C536 C520 1.368 . S
C536 C532 1.368 . S
C536 C535 1.523 . S
H537 C512 0.950 . S
H538 C514 0.950 . S
H539 C515 0.949 . S
H540 C517 0.950 . S
H541 C519 0.950 . S
C542 C543 1.349 . S
C542 C544 1.327 . S
C542 H567 0.950 . S
C543 C542 1.349 . S
C543 C559 1.349 . S
C544 C542 1.327 . S
C544 C563 1.429 . S
C544 H568 0.950 . S
C545 C562 1.574 . S
C545 C564 1.368 . S
C545 H569 0.949 . S
H546 C550 0.949 . S
C547 C548 1.349 . S
C547 C549 1.327 . S
C547 H570 0.950 . S
C548 C547 1.349 . S
C548 C560 1.349 . S
C549 C547 1.327 . S
C549 C565 1.429 . S
C549 H571 0.950 . S
C550 H546 0.949 . S
C550 C558 1.574 . S
C550 C566 1.368 . S
H551 C559 0.950 1_545 S
H552 C557 0.950 . S
H553 C558 0.949 . S
H554 C560 0.950 . S
H555 C561 0.950 . S
H556 C562 0.949 . S
C557 H552 0.950 . S
C557 C559 1.327 . S
C557 C563 1.429 . S
C558 C550 1.574 . S
C558 H553 0.949 . S
C558 C564 1.368 . S
C559 C543 1.349 . S
C559 H551 0.950 1_565 S
C559 C557 1.327 . S
C560 C548 1.349 . S
C560 H554 0.950 . S
C560 C561 1.327 . S
C561 H555 0.950 . S
C561 C560 1.327 . S
C561 C565 1.429 . S
C562 C545 1.574 . S
C562 H556 0.949 . S
C562 C566 1.368 . S
C563 C544 1.429 . S
C563 C557 1.429 . S
C563 C564 1.523 . S
C564 C545 1.368 . S
C564 C558 1.368 . S
C564 C563 1.523 . S
C565 C549 1.429 . S
C565 C561 1.429 . S
C565 C566 1.523 . S
C566 C550 1.368 . S
C566 C562 1.368 . S
C566 C565 1.523 . S
H567 C542 0.950 . S
H568 C544 0.950 . S
H569 C545 0.949 . S
H570 C547 0.950 . S
H571 C549 0.950 . S
C572 C573 1.349 . S
C572 C574 1.327 . S
C572 H597 0.950 . S
C573 C572 1.349 . S
C573 C589 1.349 . S
C574 C572 1.327 . S
C574 C593 1.429 . S
C574 H598 0.950 . S
C575 C592 1.574 . S
C575 C594 1.368 . S
C575 H599 0.949 . S
H576 C580 0.949 . S
C577 C578 1.349 . S
C577 C579 1.327 . S
C577 H600 0.950 . S
C578 C577 1.349 . S
C578 C590 1.349 . S
C579 C577 1.327 . S
C579 C595 1.429 . S
C579 H601 0.950 . S
C580 H576 0.949 . S
C580 C588 1.574 . S
C580 C596 1.368 . S
H581 C589 0.950 . S
H582 C587 0.950 . S
H583 C588 0.949 . S
H584 C590 0.950 . S
H585 C591 0.950 . S
H586 C592 0.949 . S
C587 H582 0.950 . S
C587 C589 1.327 . S
C587 C593 1.429 . S
C588 C580 1.574 . S
C588 H583 0.949 . S
C588 C594 1.368 . S
C589 C573 1.349 . S
C589 H581 0.950 . S
C589 C587 1.327 . S
C590 C578 1.349 . S
C590 H584 0.950 . S
C590 C591 1.327 . S
C591 H585 0.950 . S
C591 C590 1.327 . S
C591 C595 1.429 . S
C592 C575 1.574 . S
C592 H586 0.949 . S
C592 C596 1.368 . S
C593 C574 1.429 . S
C593 C587 1.429 . S
C593 C594 1.523 . S
C594 C575 1.368 . S
C594 C588 1.368 . S
C594 C593 1.523 . S
C595 C579 1.429 . S
C595 C591 1.429 . S
C595 C596 1.523 . S
C596 C580 1.368 . S
C596 C592 1.368 . S
C596 C595 1.523 . S
H597 C572 0.950 . S
H598 C574 0.950 . S
H599 C575 0.949 . S
H600 C577 0.950 . S
H601 C579 0.950 . S
C602 C603 1.349 . S
C602 C604 1.327 . S
C602 H627 0.950 . S
C603 C602 1.349 . S
C603 C619 1.349 . S
C604 C602 1.327 . S
C604 C623 1.429 . S
C604 H628 0.950 . S
C605 C622 1.574 . S
C605 C624 1.368 . S
C605 H629 0.949 . S
H606 C610 0.949 . S
C607 C608 1.349 . S
C607 C609 1.327 . S
C607 H630 0.950 . S
C608 C607 1.349 . S
C608 C620 1.349 . S
C609 C607 1.327 . S
C609 C625 1.429 . S
C609 H631 0.950 . S
C610 H606 0.949 . S
C610 C618 1.574 . S
C610 C626 1.368 . S
H611 C619 0.950 . S
H612 C617 0.950 . S
H613 C618 0.949 . S
H614 C620 0.950 . S
H615 C621 0.950 . S
H616 C622 0.949 . S
C617 H612 0.950 . S
C617 C619 1.327 . S
C617 C623 1.429 . S
C618 C610 1.574 . S
C618 H613 0.949 . S
C618 C624 1.368 . S
C619 C603 1.349 . S
C619 H611 0.950 . S
C619 C617 1.327 . S
C620 C608 1.349 . S
C620 H614 0.950 . S
C620 C621 1.327 . S
C621 H615 0.950 . S
C621 C620 1.327 . S
C621 C625 1.429 . S
C622 C605 1.574 . S
C622 H616 0.949 . S
C622 C626 1.368 . S
C623 C604 1.429 . S
C623 C617 1.429 . S
C623 C624 1.523 . S
C624 C605 1.368 . S
C624 C618 1.368 . S
C624 C623 1.523 . S
C625 C609 1.429 . S
C625 C621 1.429 . S
C625 C626 1.523 . S
C626 C610 1.368 . S
C626 C622 1.368 . S
C626 C625 1.523 . S
H627 C602 0.950 . S
H628 C604 0.950 . S
H629 C605 0.949 . S
H630 C607 0.950 . S
H631 C609 0.950 . S
C632 C633 1.349 . S
C632 C634 1.327 . S
C632 H657 0.950 . S
C633 C632 1.349 . S
C633 C649 1.349 . S
C634 C632 1.327 . S
C634 C653 1.429 . S
C634 H658 0.950 . S
C635 C652 1.574 . S
C635 C654 1.368 . S
C635 H659 0.949 . S
H636 C640 0.949 . S
C637 C638 1.349 . S
C637 C639 1.327 . S
C637 H660 0.950 . S
C638 C637 1.349 . S
C638 C650 1.349 . S
C639 C637 1.327 . S
C639 C655 1.429 . S
C639 H661 0.950 . S
C640 H636 0.949 . S
C640 C648 1.574 . S
C640 C656 1.368 . S
H641 C649 0.950 . S
H642 C647 0.950 . S
H643 C648 0.949 . S
H644 C650 0.950 . S
H645 C651 0.950 . S
H646 C652 0.949 . S
C647 H642 0.950 . S
C647 C649 1.327 . S
C647 C653 1.429 . S
C648 C640 1.574 . S
C648 H643 0.949 . S
C648 C654 1.368 . S
C649 C633 1.349 . S
C649 H641 0.950 . S
C649 C647 1.327 . S
C650 C638 1.349 . S
C650 H644 0.950 . S
C650 C651 1.327 . S
C651 H645 0.950 . S
C651 C650 1.327 . S
C651 C655 1.429 . S
C652 C635 1.574 . S
C652 H646 0.949 . S
C652 C656 1.368 . S
C653 C634 1.429 . S
C653 C647 1.429 . S
C653 C654 1.523 . S
C654 C635 1.368 . S
C654 C648 1.368 . S
C654 C653 1.523 . S
C655 C639 1.429 . S
C655 C651 1.429 . S
C655 C656 1.523 . S
C656 C640 1.368 . S
C656 C652 1.368 . S
C656 C655 1.523 . S
H657 C632 0.950 . S
H658 C634 0.950 . S
H659 C635 0.949 . S
H660 C637 0.950 . S
H661 C639 0.950 . S
C662 C663 1.349 . S
C662 C664 1.327 . S
C662 H687 0.950 . S
C663 C662 1.349 . S
C663 C679 1.349 . S
C664 C662 1.327 . S
C664 C683 1.429 . S
C664 H688 0.950 . S
C665 C682 1.574 . S
C665 C684 1.368 . S
C665 H689 0.949 . S
H666 C670 0.949 . S
C667 C668 1.349 . S
C667 C669 1.327 . S
C667 H690 0.950 1_565 S
C668 C667 1.349 . S
C668 C680 1.349 . S
C669 C667 1.327 . S
C669 C685 1.429 . S
C669 H691 0.950 . S
C670 H666 0.949 . S
C670 C678 1.574 . S
C670 C686 1.368 . S
H671 C679 0.950 . S
H672 C677 0.950 . S
H673 C678 0.949 . S
H674 C680 0.950 . S
H675 C681 0.950 . S
H676 C682 0.949 . S
C677 H672 0.950 . S
C677 C679 1.327 . S
C677 C683 1.429 . S
C678 C670 1.574 . S
C678 H673 0.949 . S
C678 C684 1.368 . S
C679 C663 1.349 . S
C679 H671 0.950 . S
C679 C677 1.327 . S
C680 C668 1.349 . S
C680 H674 0.950 . S
C680 C681 1.327 . S
C681 H675 0.950 . S
C681 C680 1.327 . S
C681 C685 1.429 . S
C682 C665 1.574 . S
C682 H676 0.949 . S
C682 C686 1.368 . S
C683 C664 1.429 . S
C683 C677 1.429 . S
C683 C684 1.523 . S
C684 C665 1.368 . S
C684 C678 1.368 . S
C684 C683 1.523 . S
C685 C669 1.429 . S
C685 C681 1.429 . S
C685 C686 1.523 . S
C686 C670 1.368 . S
C686 C682 1.368 . S
C686 C685 1.523 . S
H687 C662 0.950 . S
H688 C664 0.950 . S
H689 C665 0.949 . S
H690 C667 0.950 1_545 S
H691 C669 0.950 . S
C692 C693 1.349 . S
C692 C694 1.327 . S
C692 H717 0.950 . S
C693 C692 1.349 . S
C693 C709 1.349 . S
C694 C692 1.327 . S
C694 C713 1.429 . S
C694 H718 0.950 . S
C695 C712 1.574 . S
C695 C714 1.368 . S
C695 H719 0.949 . S
H696 C700 0.949 . S
C697 C698 1.349 . S
C697 C699 1.327 . S
C697 H720 0.950 . S
C698 C697 1.349 . S
C698 C710 1.349 . S
C699 C697 1.327 . S
C699 C715 1.429 . S
C699 H721 0.950 . S
C700 H696 0.949 . S
C700 C708 1.574 . S
C700 C716 1.368 . S
H701 C709 0.950 . S
H702 C707 0.950 . S
H703 C708 0.949 . S
H704 C710 0.950 . S
H705 C711 0.950 . S
H706 C712 0.949 . S
C707 H702 0.950 . S
C707 C709 1.327 . S
C707 C713 1.429 . S
C708 C700 1.574 . S
C708 H703 0.949 . S
C708 C714 1.368 . S
C709 C693 1.349 . S
C709 H701 0.950 . S
C709 C707 1.327 . S
C710 C698 1.349 . S
C710 H704 0.950 . S
C710 C711 1.327 . S
C711 H705 0.950 . S
C711 C710 1.327 . S
C711 C715 1.429 . S
C712 C695 1.574 . S
C712 H706 0.949 . S
C712 C716 1.368 . S
C713 C694 1.429 . S
C713 C707 1.429 . S
C713 C714 1.523 . S
C714 C695 1.368 . S
C714 C708 1.368 . S
C714 C713 1.523 . S
C715 C699 1.429 . S
C715 C711 1.429 . S
C715 C716 1.523 . S
C716 C700 1.368 . S
C716 C712 1.368 . S
C716 C715 1.523 . S
H717 C692 0.950 . S
H718 C694 0.950 . S
H719 C695 0.949 . S
H720 C697 0.950 . S
H721 C699 0.950 . S
C722 C723 1.349 . S
C722 C724 1.327 . S
C722 H747 0.950 . S
C723 C722 1.349 . S
C723 C739 1.349 . S
C724 C722 1.327 . S
C724 C743 1.429 . S
C724 H748 0.950 . S
C725 C742 1.574 . S
C725 C744 1.368 . S
C725 H749 0.949 . S
H726 C730 0.949 . S
C727 C728 1.349 . S
C727 C729 1.327 . S
C727 H750 0.950 . S
C728 C727 1.349 . S
C728 C740 1.349 . S
C729 C727 1.327 . S
C729 C745 1.429 . S
C729 H751 0.950 . S
C730 H726 0.949 . S
C730 C738 1.574 . S
C730 C746 1.368 . S
H731 C739 0.950 . S
H732 C737 0.950 . S
H733 C738 0.949 . S
H734 C740 0.950 . S
H735 C741 0.950 . S
H736 C742 0.949 . S
C737 H732 0.950 . S
C737 C739 1.327 . S
C737 C743 1.429 . S
C738 C730 1.574 . S
C738 H733 0.949 . S
C738 C744 1.368 . S
C739 C723 1.349 . S
C739 H731 0.950 . S
C739 C737 1.327 . S
C740 C728 1.349 . S
C740 H734 0.950 . S
C740 C741 1.327 . S
C741 H735 0.950 . S
C741 C740 1.327 . S
C741 C745 1.429 . S
C742 C725 1.574 . S
C742 H736 0.949 . S
C742 C746 1.368 . S
C743 C724 1.429 . S
C743 C737 1.429 . S
C743 C744 1.523 . S
C744 C725 1.368 . S
C744 C738 1.368 . S
C744 C743 1.523 . S
C745 C729 1.429 . S
C745 C741 1.429 . S
C745 C746 1.523 . S
C746 C730 1.368 . S
C746 C742 1.368 . S
C746 C745 1.523 . S
H747 C722 0.950 . S
H748 C724 0.950 . S
H749 C725 0.949 . S
H750 C727 0.950 . S
H751 C729 0.950 . S
C752 C753 1.349 . S
C752 C754 1.327 . S
C752 H777 0.950 . S
C753 C752 1.349 . S
C753 C769 1.349 . S
C754 C752 1.327 . S
C754 C773 1.429 . S
C754 H778 0.950 . S
C755 C772 1.574 . S
C755 C774 1.368 . S
C755 H779 0.949 . S
H756 C760 0.949 . S
C757 C758 1.349 . S
C757 C759 1.327 . S
C757 H780 0.950 . S
C758 C757 1.349 . S
C758 C770 1.349 . S
C759 C757 1.327 . S
C759 C775 1.429 . S
C759 H781 0.950 . S
C760 H756 0.949 . S
C760 C768 1.574 . S
C760 C776 1.368 . S
H761 C769 0.950 . S
H762 C767 0.950 . S
H763 C768 0.949 . S
H764 C770 0.950 . S
H765 C771 0.950 . S
H766 C772 0.949 . S
C767 H762 0.950 . S
C767 C769 1.327 . S
C767 C773 1.429 . S
C768 C760 1.574 . S
C768 H763 0.949 . S
C768 C774 1.368 . S
C769 C753 1.349 . S
C769 H761 0.950 . S
C769 C767 1.327 . S
C770 C758 1.349 . S
C770 H764 0.950 . S
C770 C771 1.327 . S
C771 H765 0.950 . S
C771 C770 1.327 . S
C771 C775 1.429 . S
C772 C755 1.574 . S
C772 H766 0.949 . S
C772 C776 1.368 . S
C773 C754 1.429 . S
C773 C767 1.429 . S
C773 C774 1.523 . S
C774 C755 1.368 . S
C774 C768 1.368 . S
C774 C773 1.523 . S
C775 C759 1.429 . S
C775 C771 1.429 . S
C775 C776 1.523 . S
C776 C760 1.368 . S
C776 C772 1.368 . S
C776 C775 1.523 . S
H777 C752 0.950 . S
H778 C754 0.950 . S
H779 C755 0.949 . S
H780 C757 0.950 . S
H781 C759 0.950 . S
C782 C783 1.349 . S
C782 C784 1.327 . S
C782 H807 0.950 . S
C783 C782 1.349 . S
C783 C799 1.349 . S
C784 C782 1.327 . S
C784 C803 1.429 . S
C784 H808 0.950 . S
C785 C802 1.574 . S
C785 C804 1.368 . S
C785 H809 0.949 . S
H786 C790 0.949 . S
C787 C788 1.349 . S
C787 C789 1.327 . S
C787 H810 0.950 . S
C788 C787 1.349 . S
C788 C800 1.349 . S
C789 C787 1.327 . S
C789 C805 1.429 . S
C789 H811 0.950 . S
C790 H786 0.949 . S
C790 C798 1.574 . S
C790 C806 1.368 . S
H791 C799 0.950 . S
H792 C797 0.950 . S
H793 C798 0.949 . S
H794 C800 0.950 . S
H795 C801 0.950 . S
H796 C802 0.949 . S
C797 H792 0.950 . S
C797 C799 1.327 . S
C797 C803 1.429 . S
C798 C790 1.574 . S
C798 H793 0.949 . S
C798 C804 1.368 . S
C799 C783 1.349 . S
C799 H791 0.950 . S
C799 C797 1.327 . S
C800 C788 1.349 . S
C800 H794 0.950 . S
C800 C801 1.327 . S
C801 H795 0.950 . S
C801 C800 1.327 . S
C801 C805 1.429 . S
C802 C785 1.574 . S
C802 H796 0.949 . S
C802 C806 1.368 . S
C803 C784 1.429 . S
C803 C797 1.429 . S
C803 C804 1.523 . S
C804 C785 1.368 . S
C804 C798 1.368 . S
C804 C803 1.523 . S
C805 C789 1.429 . S
C805 C801 1.429 . S
C805 C806 1.523 . S
C806 C790 1.368 . S
C806 C802 1.368 . S
C806 C805 1.523 . S
H807 C782 0.950 . S
H808 C784 0.950 . S
H809 C785 0.949 . S
H810 C787 0.950 . S
H811 C789 0.950 . S
C812 C813 1.349 . S
C812 C814 1.327 . S
C812 H837 0.950 . S
C813 C812 1.349 . S
C813 C829 1.349 . S
C814 C812 1.327 . S
C814 C833 1.429 . S
C814 H838 0.950 . S
C815 C832 1.574 . S
C815 C834 1.368 . S
C815 H839 0.949 . S
H816 C820 0.949 . S
C817 C818 1.349 . S
C817 C819 1.327 . S
C817 H840 0.950 . S
C818 C817 1.349 . S
C818 C830 1.349 . S
C819 C817 1.327 . S
C819 C835 1.429 . S
C819 H841 0.950 . S
C820 H816 0.949 . S
C820 C828 1.574 . S
C820 C836 1.368 . S
H821 C829 0.950 . S
H822 C827 0.950 . S
H823 C828 0.949 . S
H824 C830 0.950 . S
H825 C831 0.950 . S
H826 C832 0.949 . S
C827 H822 0.950 . S
C827 C829 1.327 . S
C827 C833 1.429 . S
C828 C820 1.574 . S
C828 H823 0.949 . S
C828 C834 1.368 . S
C829 C813 1.349 . S
C829 H821 0.950 . S
C829 C827 1.327 . S
C830 C818 1.349 . S
C830 H824 0.950 . S
C830 C831 1.327 . S
C831 H825 0.950 . S
C831 C830 1.327 . S
C831 C835 1.429 . S
C832 C815 1.574 . S
C832 H826 0.949 . S
C832 C836 1.368 . S
C833 C814 1.429 . S
C833 C827 1.429 . S
C833 C834 1.523 . S
C834 C815 1.368 . S
C834 C828 1.368 . S
C834 C833 1.523 . S
C835 C819 1.429 . S
C835 C831 1.429 . S
C835 C836 1.523 . S
C836 C820 1.368 . S
C836 C832 1.368 . S
C836 C835 1.523 . S
H837 C812 0.950 . S
H838 C814 0.950 . S
H839 C815 0.949 . S
H840 C817 0.950 . S
H841 C819 0.950 . S
C842 C843 1.349 . S
C842 C844 1.327 . S
C842 H867 0.950 . S
C843 C842 1.349 . S
C843 C859 1.349 . S
C844 C842 1.327 . S
C844 C863 1.429 . S
C844 H868 0.950 . S
C845 C862 1.574 . S
C845 C864 1.368 . S
C845 H869 0.949 . S
H846 C850 0.949 . S
C847 C848 1.349 . S
C847 C849 1.327 . S
C847 H870 0.950 . S
C848 C847 1.349 . S
C848 C860 1.349 . S
C849 C847 1.327 . S
C849 C865 1.429 . S
C849 H871 0.950 . S
C850 H846 0.949 . S
C850 C858 1.574 . S
C850 C866 1.368 . S
H851 C859 0.950 . S
H852 C857 0.950 . S
H853 C858 0.949 . S
H854 C860 0.950 . S
H855 C861 0.950 . S
H856 C862 0.949 . S
C857 H852 0.950 . S
C857 C859 1.327 . S
C857 C863 1.429 . S
C858 C850 1.574 . S
C858 H853 0.949 . S
C858 C864 1.368 . S
C859 C843 1.349 . S
C859 H851 0.950 . S
C859 C857 1.327 . S
C860 C848 1.349 . S
C860 H854 0.950 . S
C860 C861 1.327 . S
C861 H855 0.950 . S
C861 C860 1.327 . S
C861 C865 1.429 . S
C862 C845 1.574 . S
C862 H856 0.949 . S
C862 C866 1.368 . S
C863 C844 1.429 . S
C863 C857 1.429 . S
C863 C864 1.523 . S
C864 C845 1.368 . S
C864 C858 1.368 . S
C864 C863 1.523 . S
C865 C849 1.429 . S
C865 C861 1.429 . S
C865 C866 1.523 . S
C866 C850 1.368 . S
C866 C862 1.368 . S
C866 C865 1.523 . S
H867 C842 0.950 . S
H868 C844 0.950 . S
H869 C845 0.949 . S
H870 C847 0.950 . S
H871 C849 0.950 . S
C872 C873 1.349 . S
C872 C874 1.327 . S
C872 H897 0.950 . S
C873 C872 1.349 . S
C873 C889 1.349 . S
C874 C872 1.327 . S
C874 C893 1.429 . S
C874 H898 0.950 . S
C875 C892 1.574 . S
C875 C894 1.368 . S
C875 H899 0.949 . S
H876 C880 0.949 . S
C877 C878 1.349 . S
C877 C879 1.327 . S
C877 H900 0.950 . S
C878 C877 1.349 . S
C878 C890 1.349 . S
C879 C877 1.327 . S
C879 C895 1.429 . S
C879 H901 0.950 . S
C880 H876 0.949 . S
C880 C888 1.574 . S
C880 C896 1.368 . S
H881 C889 0.950 . S
H882 C887 0.950 . S
H883 C888 0.949 . S
H884 C890 0.950 . S
H885 C891 0.950 . S
H886 C892 0.949 . S
C887 H882 0.950 . S
C887 C889 1.327 . S
C887 C893 1.429 . S
C888 C880 1.574 . S
C888 H883 0.949 . S
C888 C894 1.368 . S
C889 C873 1.349 . S
C889 H881 0.950 . S
C889 C887 1.327 . S
C890 C878 1.349 . S
C890 H884 0.950 . S
C890 C891 1.327 . S
C891 H885 0.950 . S
C891 C890 1.327 . S
C891 C895 1.429 . S
C892 C875 1.574 . S
C892 H886 0.949 . S
C892 C896 1.368 . S
C893 C874 1.429 . S
C893 C887 1.429 . S
C893 C894 1.523 . S
C894 C875 1.368 . S
C894 C888 1.368 . S
C894 C893 1.523 . S
C895 C879 1.429 . S
C895 C891 1.429 . S
C895 C896 1.523 . S
C896 C880 1.368 . S
C896 C892 1.368 . S
C896 C895 1.523 . S
H897 C872 0.950 . S
H898 C874 0.950 . S
H899 C875 0.949 . S
H900 C877 0.950 . S
H901 C879 0.950 . S
C902 C903 1.349 . S
C902 C904 1.327 . S
C902 H927 0.950 . S
C903 C902 1.349 . S
C903 C919 1.349 . S
C904 C902 1.327 . S
C904 C923 1.429 . S
C904 H928 0.950 . S
C905 C922 1.574 . S
C905 C924 1.368 . S
C905 H929 0.949 . S
H906 C910 0.949 . S
C907 C908 1.349 . S
C907 C909 1.327 . S
C907 H930 0.950 . S
C908 C907 1.349 . S
C908 C920 1.349 . S
C909 C907 1.327 . S
C909 C925 1.429 . S
C909 H931 0.950 . S
C910 H906 0.949 . S
C910 C918 1.574 . S
C910 C926 1.368 . S
H911 C919 0.950 . S
H912 C917 0.950 . S
H913 C918 0.949 . S
H914 C920 0.950 . S
H915 C921 0.950 . S
H916 C922 0.949 . S
C917 H912 0.950 . S
C917 C919 1.327 . S
C917 C923 1.429 . S
C918 C910 1.574 . S
C918 H913 0.949 . S
C918 C924 1.368 . S
C919 C903 1.349 . S
C919 H911 0.950 . S
C919 C917 1.327 . S
C920 C908 1.349 . S
C920 H914 0.950 . S
C920 C921 1.327 . S
C921 H915 0.950 . S
C921 C920 1.327 . S
C921 C925 1.429 . S
C922 C905 1.574 . S
C922 H916 0.949 . S
C922 C926 1.368 . S
C923 C904 1.429 . S
C923 C917 1.429 . S
C923 C924 1.523 . S
C924 C905 1.368 . S
C924 C918 1.368 . S
C924 C923 1.523 . S
C925 C909 1.429 . S
C925 C921 1.429 . S
C925 C926 1.523 . S
C926 C910 1.368 . S
C926 C922 1.368 . S
C926 C925 1.523 . S
H927 C902 0.950 . S
H928 C904 0.950 . S
H929 C905 0.949 . S
H930 C907 0.950 . S
H931 C909 0.950 . S
C932 C933 1.349 . S
C932 C934 1.327 . S
C932 H957 0.950 . S
C933 C932 1.349 . S
C933 C949 1.349 . S
C934 C932 1.327 . S
C934 C953 1.429 . S
C934 H958 0.950 . S
C935 C952 1.574 . S
C935 C954 1.368 . S
C935 H959 0.949 . S
H936 C940 0.949 . S
C937 C938 1.349 . S
C937 C939 1.327 . S
C937 H960 0.950 . S
C938 C937 1.349 . S
C938 C950 1.349 . S
C939 C937 1.327 . S
C939 C955 1.429 . S
C939 H961 0.950 . S
C940 H936 0.949 . S
C940 C948 1.574 . S
C940 C956 1.368 . S
H941 C949 0.950 . S
H942 C947 0.950 . S
H943 C948 0.949 . S
H944 C950 0.950 . S
H945 C951 0.950 . S
H946 C952 0.949 . S
C947 H942 0.950 . S
C947 C949 1.327 . S
C947 C953 1.429 . S
C948 C940 1.574 . S
C948 H943 0.949 . S
C948 C954 1.368 . S
C949 C933 1.349 . S
C949 H941 0.950 . S
C949 C947 1.327 . S
C950 C938 1.349 . S
C950 H944 0.950 . S
C950 C951 1.327 . S
C951 H945 0.950 . S
C951 C950 1.327 . S
C951 C955 1.429 . S
C952 C935 1.574 . S
C952 H946 0.949 . S
C952 C956 1.368 . S
C953 C934 1.429 . S
C953 C947 1.429 . S
C953 C954 1.523 . S
C954 C935 1.368 . S
C954 C948 1.368 . S
C954 C953 1.523 . S
C955 C939 1.429 . S
C955 C951 1.429 . S
C955 C956 1.523 . S
C956 C940 1.368 . S
C956 C952 1.368 . S
C956 C955 1.523 . S
H957 C932 0.950 . S
H958 C934 0.950 . S
H959 C935 0.949 . S
H960 C937 0.950 . S
H961 C939 0.950 . S
C962 C963 1.349 . S
C962 C964 1.327 . S
C962 H987 0.950 . S
C963 C962 1.349 . S
C963 C979 1.349 . S
C964 C962 1.327 . S
C964 C983 1.429 . S
C964 H988 0.950 . S
C965 C982 1.574 . S
C965 C984 1.368 . S
C965 H989 0.949 . S
H966 C970 0.949 . S
C967 C968 1.349 . S
C967 C969 1.327 . S
C967 H990 0.950 . S
C968 C967 1.349 . S
C968 C980 1.349 . S
C969 C967 1.327 . S
C969 C985 1.429 . S
C969 H991 0.950 . S
C970 H966 0.949 . S
C970 C978 1.574 . S
C970 C986 1.368 . S
H971 C979 0.950 . S
H972 C977 0.950 . S
H973 C978 0.949 . S
H974 C980 0.950 . S
H975 C981 0.950 . S
H976 C982 0.949 . S
C977 H972 0.950 . S
C977 C979 1.327 . S
C977 C983 1.429 . S
C978 C970 1.574 . S
C978 H973 0.949 . S
C978 C984 1.368 . S
C979 C963 1.349 . S
C979 H971 0.950 . S
C979 C977 1.327 . S
C980 C968 1.349 . S
C980 H974 0.950 . S
C980 C981 1.327 . S
C981 H975 0.950 . S
C981 C980 1.327 . S
C981 C985 1.429 . S
C982 C965 1.574 . S
C982 H976 0.949 . S
C982 C986 1.368 . S
C983 C964 1.429 . S
C983 C977 1.429 . S
C983 C984 1.523 . S
C984 C965 1.368 . S
C984 C978 1.368 . S
C984 C983 1.523 . S
C985 C969 1.429 . S
C985 C981 1.429 . S
C985 C986 1.523 . S
C986 C970 1.368 . S
C986 C982 1.368 . S
C986 C985 1.523 . S
H987 C962 0.950 . S
H988 C964 0.950 . S
H989 C965 0.949 . S
H990 C967 0.950 . S
H991 C969 0.950 . S
C992 C993 1.349 . S
C992 C994 1.327 . S
C992 H1017 0.950 . S
C993 C992 1.349 . S
C993 C1009 1.349 . S
C994 C992 1.327 . S
C994 C1013 1.429 . S
C994 H1018 0.950 . S
C995 C1012 1.574 . S
C995 C1014 1.368 . S
C995 H1019 0.949 . S
H996 C1000 0.949 . S
C997 C998 1.349 . S
C997 C999 1.327 . S
C997 H1020 0.950 . S
C998 C997 1.349 . S
C998 C1010 1.349 . S
C999 C997 1.327 . S
C999 C1015 1.429 . S
C999 H1021 0.950 . S
C1000 H996 0.949 . S
C1000 C1008 1.574 . S
C1000 C1016 1.368 . S
H1001 C1009 0.950 . S
H1002 C1007 0.950 . S
H1003 C1008 0.949 . S
H1004 C1010 0.950 . S
H1005 C1011 0.950 . S
H1006 C1012 0.949 . S
C1007 H1002 0.950 . S
C1007 C1009 1.327 . S
C1007 C1013 1.429 . S
C1008 C1000 1.574 . S
C1008 H1003 0.949 . S
C1008 C1014 1.368 . S
C1009 C993 1.349 . S
C1009 H1001 0.950 . S
C1009 C1007 1.327 . S
C1010 C998 1.349 . S
C1010 H1004 0.950 . S
C1010 C1011 1.327 . S
C1011 H1005 0.950 . S
C1011 C1010 1.327 . S
C1011 C1015 1.429 . S
C1012 C995 1.574 . S
C1012 H1006 0.949 . S
C1012 C1016 1.368 . S
C1013 C994 1.429 . S
C1013 C1007 1.429 . S
C1013 C1014 1.523 . S
C1014 C995 1.368 . S
C1014 C1008 1.368 . S
C1014 C1013 1.523 . S
C1015 C999 1.429 . S
C1015 C1011 1.429 . S
C1015 C1016 1.523 . S
C1016 C1000 1.368 . S
C1016 C1012 1.368 . S
C1016 C1015 1.523 . S
H1017 C992 0.950 . S
H1018 C994 0.950 . S
H1019 C995 0.949 . S
H1020 C997 0.950 . S
H1021 C999 0.950 . S
C1022 C1023 1.349 . S
C1022 C1024 1.327 . S
C1022 H1047 0.950 . S
C1023 C1022 1.349 . S
C1023 C1039 1.349 . S
C1024 C1022 1.327 . S
C1024 C1043 1.429 . S
C1024 H1048 0.950 . S
C1025 C1042 1.574 . S
C1025 C1044 1.368 . S
C1025 H1049 0.949 . S
H1026 C1030 0.949 . S
C1027 C1028 1.349 . S
C1027 C1029 1.327 . S
C1027 H1050 0.950 . S
C1028 C1027 1.349 . S
C1028 C1040 1.349 . S
C1029 C1027 1.327 . S
C1029 C1045 1.429 . S
C1029 H1051 0.950 . S
C1030 H1026 0.949 . S
C1030 C1038 1.574 . S
C1030 C1046 1.368 . S
H1031 C1039 0.950 . S
H1032 C1037 0.950 . S
H1033 C1038 0.949 . S
H1034 C1040 0.950 . S
H1035 C1041 0.950 . S
H1036 C1042 0.949 . S
C1037 H1032 0.950 . S
C1037 C1039 1.327 . S
C1037 C1043 1.429 . S
C1038 C1030 1.574 . S
C1038 H1033 0.949 . S
C1038 C1044 1.368 . S
C1039 C1023 1.349 . S
C1039 H1031 0.950 . S
C1039 C1037 1.327 . S
C1040 C1028 1.349 . S
C1040 H1034 0.950 . S
C1040 C1041 1.327 . S
C1041 H1035 0.950 . S
C1041 C1040 1.327 . S
C1041 C1045 1.429 . S
C1042 C1025 1.574 . S
C1042 H1036 0.949 . S
C1042 C1046 1.368 . S
C1043 C1024 1.429 . S
C1043 C1037 1.429 . S
C1043 C1044 1.523 . S
C1044 C1025 1.368 . S
C1044 C1038 1.368 . S
C1044 C1043 1.523 . S
C1045 C1029 1.429 . S
C1045 C1041 1.429 . S
C1045 C1046 1.523 . S
C1046 C1030 1.368 . S
C1046 C1042 1.368 . S
C1046 C1045 1.523 . S
H1047 C1022 0.950 . S
H1048 C1024 0.950 . S
H1049 C1025 0.949 . S
H1050 C1027 0.950 . S
H1051 C1029 0.950 . S
C1052 C1053 1.349 . S
C1052 C1054 1.327 . S
C1052 H1077 0.950 . S
C1053 C1052 1.349 . S
C1053 C1069 1.349 . S
C1054 C1052 1.327 . S
C1054 C1073 1.429 . S
C1054 H1078 0.950 . S
C1055 C1072 1.574 . S
C1055 C1074 1.368 . S
C1055 H1079 0.949 . S
H1056 C1060 0.949 . S
C1057 C1058 1.349 . S
C1057 C1059 1.327 . S
C1057 H1080 0.950 . S
C1058 C1057 1.349 . S
C1058 C1070 1.349 . S
C1059 C1057 1.327 . S
C1059 C1075 1.429 . S
C1059 H1081 0.950 . S
C1060 H1056 0.949 . S
C1060 C1068 1.574 . S
C1060 C1076 1.368 . S
H1061 C1069 0.950 . S
H1062 C1067 0.950 . S
H1063 C1068 0.949 . S
H1064 C1070 0.950 . S
H1065 C1071 0.950 . S
H1066 C1072 0.949 . S
C1067 H1062 0.950 . S
C1067 C1069 1.327 . S
C1067 C1073 1.429 . S
C1068 C1060 1.574 . S
C1068 H1063 0.949 . S
C1068 C1074 1.368 . S
C1069 C1053 1.349 . S
C1069 H1061 0.950 . S
C1069 C1067 1.327 . S
C1070 C1058 1.349 . S
C1070 H1064 0.950 . S
C1070 C1071 1.327 . S
C1071 H1065 0.950 . S
C1071 C1070 1.327 . S
C1071 C1075 1.429 . S
C1072 C1055 1.574 . S
C1072 H1066 0.949 . S
C1072 C1076 1.368 . S
C1073 C1054 1.429 . S
C1073 C1067 1.429 . S
C1073 C1074 1.523 . S
C1074 C1055 1.368 . S
C1074 C1068 1.368 . S
C1074 C1073 1.523 . S
C1075 C1059 1.429 . S
C1075 C1071 1.429 . S
C1075 C1076 1.523 . S
C1076 C1060 1.368 . S
C1076 C1072 1.368 . S
C1076 C1075 1.523 . S
H1077 C1052 0.950 . S
H1078 C1054 0.950 . S
H1079 C1055 0.949 . S
H1080 C1057 0.950 . S
H1081 C1059 0.950 . S
C1082 C1083 1.349 . S
C1082 C1084 1.327 . S
C1082 H1107 0.950 . S
C1083 C1082 1.349 . S
C1083 C1099 1.349 . S
C1084 C1082 1.327 . S
C1084 C1103 1.429 . S
C1084 H1108 0.950 . S
C1085 C1102 1.574 . S
C1085 C1104 1.368 . S
C1085 H1109 0.949 . S
H1086 C1090 0.949 . S
C1087 C1088 1.349 . S
C1087 C1089 1.327 . S
C1087 H1110 0.950 . S
C1088 C1087 1.349 . S
C1088 C1100 1.349 . S
C1089 C1087 1.327 . S
C1089 C1105 1.429 . S
C1089 H1111 0.950 . S
C1090 H1086 0.949 . S
C1090 C1098 1.574 . S
C1090 C1106 1.368 . S
H1091 C1099 0.950 . S
H1092 C1097 0.950 . S
H1093 C1098 0.949 . S
H1094 C1100 0.950 . S
H1095 C1101 0.950 . S
H1096 C1102 0.949 . S
C1097 H1092 0.950 . S
C1097 C1099 1.327 . S
C1097 C1103 1.429 . S
C1098 C1090 1.574 . S
C1098 H1093 0.949 . S
C1098 C1104 1.368 . S
C1099 C1083 1.349 . S
C1099 H1091 0.950 . S
C1099 C1097 1.327 . S
C1100 C1088 1.349 . S
C1100 H1094 0.950 . S
C1100 C1101 1.327 . S
C1101 H1095 0.950 . S
C1101 C1100 1.327 . S
C1101 C1105 1.429 . S
C1102 C1085 1.574 . S
C1102 H1096 0.949 . S
C1102 C1106 1.368 . S
C1103 C1084 1.429 . S
C1103 C1097 1.429 . S
C1103 C1104 1.523 . S
C1104 C1085 1.368 . S
C1104 C1098 1.368 . S
C1104 C1103 1.523 . S
C1105 C1089 1.429 . S
C1105 C1101 1.429 . S
C1105 C1106 1.523 . S
C1106 C1090 1.368 . S
C1106 C1102 1.368 . S
C1106 C1105 1.523 . S
H1107 C1082 0.950 . S
H1108 C1084 0.950 . S
H1109 C1085 0.949 . S
H1110 C1087 0.950 . S
H1111 C1089 0.950 . S
C1112 C1113 1.349 . S
C1112 C1114 1.327 . S
C1112 H1137 0.950 . S
C1113 C1112 1.349 . S
C1113 C1129 1.349 . S
C1114 C1112 1.327 . S
C1114 C1133 1.429 . S
C1114 H1138 0.950 . S
C1115 C1132 1.574 . S
C1115 C1134 1.368 . S
C1115 H1139 0.949 . S
H1116 C1120 0.949 . S
C1117 C1118 1.349 . S
C1117 C1119 1.327 . S
C1117 H1140 0.950 . S
C1118 C1117 1.349 . S
C1118 C1130 1.349 . S
C1119 C1117 1.327 . S
C1119 C1135 1.429 . S
C1119 H1141 0.950 . S
C1120 H1116 0.949 . S
C1120 C1128 1.574 . S
C1120 C1136 1.368 . S
H1121 C1129 0.950 . S
H1122 C1127 0.950 . S
H1123 C1128 0.949 . S
H1124 C1130 0.950 . S
H1125 C1131 0.950 . S
H1126 C1132 0.949 . S
C1127 H1122 0.950 . S
C1127 C1129 1.327 . S
C1127 C1133 1.429 . S
C1128 C1120 1.574 . S
C1128 H1123 0.949 . S
C1128 C1134 1.368 . S
C1129 C1113 1.349 . S
C1129 H1121 0.950 . S
C1129 C1127 1.327 . S
C1130 C1118 1.349 . S
C1130 H1124 0.950 . S
C1130 C1131 1.327 . S
C1131 H1125 0.950 . S
C1131 C1130 1.327 . S
C1131 C1135 1.429 . S
C1132 C1115 1.574 . S
C1132 H1126 0.949 . S
C1132 C1136 1.368 . S
C1133 C1114 1.429 . S
C1133 C1127 1.429 . S
C1133 C1134 1.523 . S
C1134 C1115 1.368 . S
C1134 C1128 1.368 . S
C1134 C1133 1.523 . S
C1135 C1119 1.429 . S
C1135 C1131 1.429 . S
C1135 C1136 1.523 . S
C1136 C1120 1.368 . S
C1136 C1132 1.368 . S
C1136 C1135 1.523 . S
H1137 C1112 0.950 . S
H1138 C1114 0.950 . S
H1139 C1115 0.949 . S
H1140 C1117 0.950 . S
H1141 C1119 0.950 . S
C1142 C1143 1.349 . S
C1142 C1144 1.327 . S
C1142 H1167 0.950 . S
C1143 C1142 1.349 . S
C1143 C1159 1.349 . S
C1144 C1142 1.327 . S
C1144 C1163 1.429 . S
C1144 H1168 0.950 . S
C1145 C1162 1.574 . S
C1145 C1164 1.368 . S
C1145 H1169 0.949 . S
H1146 C1150 0.949 . S
C1147 C1148 1.349 . S
C1147 C1149 1.327 . S
C1147 H1170 0.950 . S
C1148 C1147 1.349 . S
C1148 C1160 1.349 . S
C1149 C1147 1.327 . S
C1149 C1165 1.429 . S
C1149 H1171 0.950 . S
C1150 H1146 0.949 . S
C1150 C1158 1.574 . S
C1150 C1166 1.368 . S
H1151 C1159 0.950 . S
H1152 C1157 0.950 . S
H1153 C1158 0.949 . S
H1154 C1160 0.950 . S
H1155 C1161 0.950 . S
H1156 C1162 0.949 . S
C1157 H1152 0.950 . S
C1157 C1159 1.327 . S
C1157 C1163 1.429 . S
C1158 C1150 1.574 . S
C1158 H1153 0.949 . S
C1158 C1164 1.368 . S
C1159 C1143 1.349 . S
C1159 H1151 0.950 . S
C1159 C1157 1.327 . S
C1160 C1148 1.349 . S
C1160 H1154 0.950 . S
C1160 C1161 1.327 . S
C1161 H1155 0.950 . S
C1161 C1160 1.327 . S
C1161 C1165 1.429 . S
C1162 C1145 1.574 . S
C1162 H1156 0.949 . S
C1162 C1166 1.368 . S
C1163 C1144 1.429 . S
C1163 C1157 1.429 . S
C1163 C1164 1.523 . S
C1164 C1145 1.368 . S
C1164 C1158 1.368 . S
C1164 C1163 1.523 . S
C1165 C1149 1.429 . S
C1165 C1161 1.429 . S
C1165 C1166 1.523 . S
C1166 C1150 1.368 . S
C1166 C1162 1.368 . S
C1166 C1165 1.523 . S
H1167 C1142 0.950 . S
H1168 C1144 0.950 . S
H1169 C1145 0.949 . S
H1170 C1147 0.950 . S
H1171 C1149 0.950 . S
C1172 C1173 1.349 . S
C1172 C1174 1.327 . S
C1172 H1197 0.950 . S
C1173 C1172 1.349 . S
C1173 C1189 1.349 . S
C1174 C1172 1.327 . S
C1174 C1193 1.429 . S
C1174 H1198 0.950 . S
C1175 C1192 1.574 . S
C1175 C1194 1.368 . S
C1175 H1199 0.949 . S
H1176 C1180 0.949 . S
C1177 C1178 1.349 . S
C1177 C1179 1.327 . S
C1177 H1200 0.950 . S
C1178 C1177 1.349 . S
C1178 C1190 1.349 . S
C1179 C1177 1.327 . S
C1179 C1195 1.429 . S
C1179 H1201 0.950 . S
C1180 H1176 0.949 . S
C1180 C1188 1.574 . S
C1180 C1196 1.368 . S
H1181 C1189 0.950 . S
H1182 C1187 0.950 . S
H1183 C1188 0.949 . S
H1184 C1190 0.950 . S
H1185 C1191 0.950 . S
H1186 C1192 0.949 . S
C1187 H1182 0.950 . S
C1187 C1189 1.327 . S
C1187 C1193 1.429 . S
C1188 C1180 1.574 . S
C1188 H1183 0.949 . S
C1188 C1194 1.368 . S
C1189 C1173 1.349 . S
C1189 H1181 0.950 . S
C1189 C1187 1.327 . S
C1190 C1178 1.349 . S
C1190 H1184 0.950 . S
C1190 C1191 1.327 . S
C1191 H1185 0.950 . S
C1191 C1190 1.327 . S
C1191 C1195 1.429 . S
C1192 C1175 1.574 . S
C1192 H1186 0.949 . S
C1192 C1196 1.368 . S
C1193 C1174 1.429 . S
C1193 C1187 1.429 . S
C1193 C1194 1.523 . S
C1194 C1175 1.368 . S
C1194 C1188 1.368 . S
C1194 C1193 1.523 . S
C1195 C1179 1.429 . S
C1195 C1191 1.429 . S
C1195 C1196 1.523 . S
C1196 C1180 1.368 . S
C1196 C1192 1.368 . S
C1196 C1195 1.523 . S
H1197 C1172 0.950 . S
H1198 C1174 0.950 . S
H1199 C1175 0.949 . S
H1200 C1177 0.950 . S
H1201 C1179 0.950 . S
C1202 C1203 1.349 . S
C1202 C1204 1.327 . S
C1202 H1227 0.950 . S
C1203 C1202 1.349 . S
C1203 C1219 1.349 . S
C1204 C1202 1.327 . S
C1204 C1223 1.429 . S
C1204 H1228 0.950 . S
C1205 C1222 1.574 . S
C1205 C1224 1.368 . S
C1205 H1229 0.949 . S
H1206 C1210 0.949 . S
C1207 C1208 1.349 . S
C1207 C1209 1.327 . S
C1207 H1230 0.950 . S
C1208 C1207 1.349 . S
C1208 C1220 1.349 . S
C1209 C1207 1.327 . S
C1209 C1225 1.429 . S
C1209 H1231 0.950 . S
C1210 H1206 0.949 . S
C1210 C1218 1.574 . S
C1210 C1226 1.368 . S
H1211 C1219 0.950 . S
H1212 C1217 0.950 . S
H1213 C1218 0.949 . S
H1214 C1220 0.950 . S
H1215 C1221 0.950 . S
H1216 C1222 0.949 . S
C1217 H1212 0.950 . S
C1217 C1219 1.327 . S
C1217 C1223 1.429 . S
C1218 C1210 1.574 . S
C1218 H1213 0.949 . S
C1218 C1224 1.368 . S
C1219 C1203 1.349 . S
C1219 H1211 0.950 . S
C1219 C1217 1.327 . S
C1220 C1208 1.349 . S
C1220 H1214 0.950 . S
C1220 C1221 1.327 . S
C1221 H1215 0.950 . S
C1221 C1220 1.327 . S
C1221 C1225 1.429 . S
C1222 C1205 1.574 . S
C1222 H1216 0.949 . S
C1222 C1226 1.368 . S
C1223 C1204 1.429 . S
C1223 C1217 1.429 . S
C1223 C1224 1.523 . S
C1224 C1205 1.368 . S
C1224 C1218 1.368 . S
C1224 C1223 1.523 . S
C1225 C1209 1.429 . S
C1225 C1221 1.429 . S
C1225 C1226 1.523 . S
C1226 C1210 1.368 . S
C1226 C1222 1.368 . S
C1226 C1225 1.523 . S
H1227 C1202 0.950 . S
H1228 C1204 0.950 . S
H1229 C1205 0.949 . S
H1230 C1207 0.950 . S
H1231 C1209 0.950 . S
C1232 C1233 1.349 . S
C1232 C1234 1.327 . S
C1232 H1257 0.950 . S
C1233 C1232 1.349 . S
C1233 C1249 1.349 . S
C1234 C1232 1.327 . S
C1234 C1253 1.429 . S
C1234 H1258 0.950 . S
C1235 C1252 1.574 . S
C1235 C1254 1.368 . S
C1235 H1259 0.949 . S
H1236 C1240 0.949 . S
C1237 C1238 1.349 . S
C1237 C1239 1.327 . S
C1237 H1260 0.950 . S
C1238 C1237 1.349 . S
C1238 C1250 1.349 . S
C1239 C1237 1.327 . S
C1239 C1255 1.429 . S
C1239 H1261 0.950 . S
C1240 H1236 0.949 . S
C1240 C1248 1.574 . S
C1240 C1256 1.368 . S
H1241 C1249 0.950 . S
H1242 C1247 0.950 . S
H1243 C1248 0.949 . S
H1244 C1250 0.950 . S
H1245 C1251 0.950 . S
H1246 C1252 0.949 . S
C1247 H1242 0.950 . S
C1247 C1249 1.327 . S
C1247 C1253 1.429 . S
C1248 C1240 1.574 . S
C1248 H1243 0.949 . S
C1248 C1254 1.368 . S
C1249 C1233 1.349 . S
C1249 H1241 0.950 . S
C1249 C1247 1.327 . S
C1250 C1238 1.349 . S
C1250 H1244 0.950 . S
C1250 C1251 1.327 . S
C1251 H1245 0.950 . S
C1251 C1250 1.327 . S
C1251 C1255 1.429 . S
C1252 C1235 1.574 . S
C1252 H1246 0.949 . S
C1252 C1256 1.368 . S
C1253 C1234 1.429 . S
C1253 C1247 1.429 . S
C1253 C1254 1.523 . S
C1254 C1235 1.368 . S
C1254 C1248 1.368 . S
C1254 C1253 1.523 . S
C1255 C1239 1.429 . S
C1255 C1251 1.429 . S
C1255 C1256 1.523 . S
C1256 C1240 1.368 . S
C1256 C1252 1.368 . S
C1256 C1255 1.523 . S
H1257 C1232 0.950 . S
H1258 C1234 0.950 . S
H1259 C1235 0.949 . S
H1260 C1237 0.950 . S
H1261 C1239 0.950 . S
C1262 C1263 1.349 . S
C1262 C1264 1.327 . S
C1262 H1287 0.950 . S
C1263 C1262 1.349 . S
C1263 C1279 1.349 . S
C1264 C1262 1.327 . S
C1264 C1283 1.429 . S
C1264 H1288 0.950 . S
C1265 C1282 1.574 . S
C1265 C1284 1.368 . S
C1265 H1289 0.949 . S
H1266 C1270 0.949 . S
C1267 C1268 1.349 . S
C1267 C1269 1.327 . S
C1267 H1290 0.950 . S
C1268 C1267 1.349 . S
C1268 C1280 1.349 . S
C1269 C1267 1.327 . S
C1269 C1285 1.429 . S
C1269 H1291 0.950 . S
C1270 H1266 0.949 . S
C1270 C1278 1.574 . S
C1270 C1286 1.368 . S
H1271 C1279 0.950 . S
H1272 C1277 0.950 . S
H1273 C1278 0.949 . S
H1274 C1280 0.950 . S
H1275 C1281 0.950 . S
H1276 C1282 0.949 . S
C1277 H1272 0.950 . S
C1277 C1279 1.327 . S
C1277 C1283 1.429 . S
C1278 C1270 1.574 . S
C1278 H1273 0.949 . S
C1278 C1284 1.368 . S
C1279 C1263 1.349 . S
C1279 H1271 0.950 . S
C1279 C1277 1.327 . S
C1280 C1268 1.349 . S
C1280 H1274 0.950 . S
C1280 C1281 1.327 . S
C1281 H1275 0.950 . S
C1281 C1280 1.327 . S
C1281 C1285 1.429 . S
C1282 C1265 1.574 . S
C1282 H1276 0.949 . S
C1282 C1286 1.368 . S
C1283 C1264 1.429 . S
C1283 C1277 1.429 . S
C1283 C1284 1.523 . S
C1284 C1265 1.368 . S
C1284 C1278 1.368 . S
C1284 C1283 1.523 . S
C1285 C1269 1.429 . S
C1285 C1281 1.429 . S
C1285 C1286 1.523 . S
C1286 C1270 1.368 . S
C1286 C1282 1.368 . S
C1286 C1285 1.523 . S
H1287 C1262 0.950 . S
H1288 C1264 0.950 . S
H1289 C1265 0.949 . S
H1290 C1267 0.950 . S
H1291 C1269 0.950 . S
C1292 C1293 1.349 . S
C1292 C1294 1.327 . S
C1292 H1317 0.950 . S
C1293 C1292 1.349 . S
C1293 C1309 1.349 . S
C1294 C1292 1.327 . S
C1294 C1313 1.429 . S
C1294 H1318 0.950 . S
C1295 C1312 1.574 . S
C1295 C1314 1.368 . S
C1295 H1319 0.949 . S
H1296 C1300 0.949 . S
C1297 C1298 1.349 . S
C1297 C1299 1.327 . S
C1297 H1320 0.950 . S
C1298 C1297 1.349 . S
C1298 C1310 1.349 . S
C1299 C1297 1.327 . S
C1299 C1315 1.429 . S
C1299 H1321 0.950 . S
C1300 H1296 0.949 . S
C1300 C1308 1.574 . S
C1300 C1316 1.368 . S
H1301 C1309 0.950 . S
H1302 C1307 0.950 . S
H1303 C1308 0.949 . S
H1304 C1310 0.950 . S
H1305 C1311 0.950 . S
H1306 C1312 0.949 . S
C1307 H1302 0.950 . S
C1307 C1309 1.327 . S
C1307 C1313 1.429 . S
C1308 C1300 1.574 . S
C1308 H1303 0.949 . S
C1308 C1314 1.368 . S
C1309 C1293 1.349 . S
C1309 H1301 0.950 . S
C1309 C1307 1.327 . S
C1310 C1298 1.349 . S
C1310 H1304 0.950 . S
C1310 C1311 1.327 . S
C1311 H1305 0.950 . S
C1311 C1310 1.327 . S
C1311 C1315 1.429 . S
C1312 C1295 1.574 . S
C1312 H1306 0.949 . S
C1312 C1316 1.368 . S
C1313 C1294 1.429 . S
C1313 C1307 1.429 . S
C1313 C1314 1.523 . S
C1314 C1295 1.368 . S
C1314 C1308 1.368 . S
C1314 C1313 1.523 . S
C1315 C1299 1.429 . S
C1315 C1311 1.429 . S
C1315 C1316 1.523 . S
C1316 C1300 1.368 . S
C1316 C1312 1.368 . S
C1316 C1315 1.523 . S
H1317 C1292 0.950 . S
H1318 C1294 0.950 . S
H1319 C1295 0.949 . S
H1320 C1297 0.950 . S
H1321 C1299 0.950 . S
C1322 C1323 1.349 . S
C1322 C1324 1.327 . S
C1322 H1347 0.950 . S
C1323 C1322 1.349 . S
C1323 C1339 1.349 . S
C1324 C1322 1.327 . S
C1324 C1343 1.429 . S
C1324 H1348 0.950 . S
C1325 C1342 1.574 . S
C1325 C1344 1.368 . S
C1325 H1349 0.949 . S
H1326 C1330 0.949 . S
C1327 C1328 1.349 . S
C1327 C1329 1.327 . S
C1327 H1350 0.950 . S
C1328 C1327 1.349 . S
C1328 C1340 1.349 . S
C1329 C1327 1.327 . S
C1329 C1345 1.429 . S
C1329 H1351 0.950 . S
C1330 H1326 0.949 . S
C1330 C1338 1.574 . S
C1330 C1346 1.368 . S
H1331 C1339 0.950 . S
H1332 C1337 0.950 . S
H1333 C1338 0.949 . S
H1334 C1340 0.922 1_554 S
H1335 C1341 0.950 . S
H1336 C1342 0.949 . S
C1337 H1332 0.950 . S
C1337 C1339 1.327 . S
C1337 C1343 1.429 . S
C1338 C1330 1.574 . S
C1338 H1333 0.949 . S
C1338 C1344 1.368 . S
C1339 C1323 1.349 . S
C1339 H1331 0.950 . S
C1339 C1337 1.327 . S
C1340 C1328 1.349 . S
C1340 H1334 0.922 1_556 S
C1340 C1341 1.327 . S
C1341 H1335 0.950 . S
C1341 C1340 1.327 . S
C1341 C1345 1.429 . S
C1342 C1325 1.574 . S
C1342 H1336 0.949 . S
C1342 C1346 1.368 . S
C1343 C1324 1.429 . S
C1343 C1337 1.429 . S
C1343 C1344 1.523 . S
C1344 C1325 1.368 . S
C1344 C1338 1.368 . S
C1344 C1343 1.523 . S
C1345 C1329 1.429 . S
C1345 C1341 1.429 . S
C1345 C1346 1.523 . S
C1346 C1330 1.368 . S
C1346 C1342 1.368 . S
C1346 C1345 1.523 . S
H1347 C1322 0.950 . S
H1348 C1324 0.950 . S
H1349 C1325 0.949 . S
H1350 C1327 0.950 . S
H1351 C1329 0.950 . S
C1352 C1353 1.349 . S
C1352 C1354 1.327 . S
C1352 H1377 0.950 . S
C1353 C1352 1.349 . S
C1353 C1369 1.349 . S
C1354 C1352 1.327 . S
C1354 C1373 1.429 . S
C1354 H1378 0.950 . S
C1355 C1372 1.574 . S
C1355 C1374 1.368 . S
C1355 H1379 0.949 . S
H1356 C1360 0.949 . S
C1357 C1358 1.349 . S
C1357 C1359 1.327 . S
C1357 H1380 0.950 . S
C1358 C1357 1.349 . S
C1358 C1370 1.349 . S
C1359 C1357 1.327 . S
C1359 C1375 1.429 . S
C1359 H1381 0.950 . S
C1360 H1356 0.949 . S
C1360 C1368 1.574 . S
C1360 C1376 1.368 . S
H1361 C1369 0.950 1_545 S
H1362 C1367 0.950 . S
H1363 C1368 0.949 . S
H1364 C1370 0.950 . S
H1365 C1371 0.950 . S
H1366 C1372 0.949 . S
C1367 H1362 0.950 . S
C1367 C1369 1.327 . S
C1367 C1373 1.429 . S
C1368 C1360 1.574 . S
C1368 H1363 0.949 . S
C1368 C1374 1.368 . S
C1369 C1353 1.349 . S
C1369 H1361 0.950 1_565 S
C1369 C1367 1.327 . S
C1370 C1358 1.349 . S
C1370 H1364 0.950 . S
C1370 C1371 1.327 . S
C1371 H1365 0.950 . S
C1371 C1370 1.327 . S
C1371 C1375 1.429 . S
C1372 C1355 1.574 . S
C1372 H1366 0.949 . S
C1372 C1376 1.368 . S
C1373 C1354 1.429 . S
C1373 C1367 1.429 . S
C1373 C1374 1.523 . S
C1374 C1355 1.368 . S
C1374 C1368 1.368 . S
C1374 C1373 1.523 . S
C1375 C1359 1.429 . S
C1375 C1371 1.429 . S
C1375 C1376 1.523 . S
C1376 C1360 1.368 . S
C1376 C1372 1.368 . S
C1376 C1375 1.523 . S
H1377 C1352 0.950 . S
H1378 C1354 0.950 . S
H1379 C1355 0.949 . S
H1380 C1357 0.950 . S
H1381 C1359 0.950 . S
C1382 C1383 1.349 . S
C1382 C1384 1.327 . S
C1382 H1407 0.950 . S
C1383 C1382 1.349 . S
C1383 C1399 1.349 . S
C1384 C1382 1.327 . S
C1384 C1403 1.429 . S
C1384 H1408 0.950 . S
C1385 C1402 1.574 . S
C1385 C1404 1.368 . S
C1385 H1409 0.949 . S
H1386 C1390 0.949 . S
C1387 C1388 1.349 . S
C1387 C1389 1.327 . S
C1387 H1410 0.950 . S
C1388 C1387 1.349 . S
C1388 C1400 1.349 . S
C1389 C1387 1.327 . S
C1389 C1405 1.429 . S
C1389 H1411 0.950 . S
C1390 H1386 0.949 . S
C1390 C1398 1.574 . S
C1390 C1406 1.368 . S
H1391 C1399 0.950 . S
H1392 C1397 0.950 . S
H1393 C1398 0.949 . S
H1394 C1400 0.950 . S
H1395 C1401 0.950 . S
H1396 C1402 0.949 . S
C1397 H1392 0.950 . S
C1397 C1399 1.327 . S
C1397 C1403 1.429 . S
C1398 C1390 1.574 . S
C1398 H1393 0.949 . S
C1398 C1404 1.368 . S
C1399 C1383 1.349 . S
C1399 H1391 0.950 . S
C1399 C1397 1.327 . S
C1400 C1388 1.349 . S
C1400 H1394 0.950 . S
C1400 C1401 1.327 . S
C1401 H1395 0.950 . S
C1401 C1400 1.327 . S
C1401 C1405 1.429 . S
C1402 C1385 1.574 . S
C1402 H1396 0.949 . S
C1402 C1406 1.368 . S
C1403 C1384 1.429 . S
C1403 C1397 1.429 . S
C1403 C1404 1.523 . S
C1404 C1385 1.368 . S
C1404 C1398 1.368 . S
C1404 C1403 1.523 . S
C1405 C1389 1.429 . S
C1405 C1401 1.429 . S
C1405 C1406 1.523 . S
C1406 C1390 1.368 . S
C1406 C1402 1.368 . S
C1406 C1405 1.523 . S
H1407 C1382 0.950 . S
H1408 C1384 0.950 . S
H1409 C1385 0.949 . S
H1410 C1387 0.950 . S
H1411 C1389 0.950 . S
C1412 C1413 1.349 . S
C1412 C1414 1.327 . S
C1412 H1437 0.950 1_655 S
C1413 C1412 1.349 . S
C1413 C1429 1.349 . S
C1414 C1412 1.327 . S
C1414 C1433 1.429 . S
C1414 H1438 0.950 . S
C1415 C1432 1.574 . S
C1415 C1434 1.368 . S
C1415 H1439 0.949 . S
H1416 C1420 0.949 . S
C1417 C1418 1.349 . S
C1417 C1419 1.327 . S
C1417 H1440 0.950 . S
C1418 C1417 1.349 . S
C1418 C1430 1.349 . S
C1419 C1417 1.327 . S
C1419 C1435 1.429 . S
C1419 H1441 0.950 . S
C1420 H1416 0.949 . S
C1420 C1428 1.574 . S
C1420 C1436 1.368 . S
H1421 C1429 0.950 . S
H1422 C1427 0.950 . S
H1423 C1428 0.949 . S
H1424 C1430 0.950 . S
H1425 C1431 0.950 . S
H1426 C1432 0.949 . S
C1427 H1422 0.950 . S
C1427 C1429 1.327 . S
C1427 C1433 1.429 . S
C1428 C1420 1.574 . S
C1428 H1423 0.949 . S
C1428 C1434 1.368 . S
C1429 C1413 1.349 . S
C1429 H1421 0.950 . S
C1429 C1427 1.327 . S
C1430 C1418 1.349 . S
C1430 H1424 0.950 . S
C1430 C1431 1.327 . S
C1431 H1425 0.950 . S
C1431 C1430 1.327 . S
C1431 C1435 1.429 . S
C1432 C1415 1.574 . S
C1432 H1426 0.949 . S
C1432 C1436 1.368 . S
C1433 C1414 1.429 . S
C1433 C1427 1.429 . S
C1433 C1434 1.523 . S
C1434 C1415 1.368 . S
C1434 C1428 1.368 . S
C1434 C1433 1.523 . S
C1435 C1419 1.429 . S
C1435 C1431 1.429 . S
C1435 C1436 1.523 . S
C1436 C1420 1.368 . S
C1436 C1432 1.368 . S
C1436 C1435 1.523 . S
H1437 C1412 0.950 1_455 S
H1438 C1414 0.950 . S
H1439 C1415 0.949 . S
H1440 C1417 0.950 . S
H1441 C1419 0.950 . S
C1442 C1443 1.349 . S
C1442 C1444 1.327 . S
C1442 H1467 0.950 . S
C1443 C1442 1.349 . S
C1443 C1459 1.349 . S
C1444 C1442 1.327 . S
C1444 C1463 1.429 . S
C1444 H1468 0.950 . S
C1445 C1462 1.574 . S
C1445 C1464 1.368 . S
C1445 H1469 0.949 . S
H1446 C1450 0.949 . S
C1447 C1448 1.349 . S
C1447 C1449 1.327 . S
C1447 H1470 0.950 . S
C1448 C1447 1.349 . S
C1448 C1460 1.349 . S
C1449 C1447 1.327 . S
C1449 C1465 1.429 . S
C1449 H1471 0.950 . S
C1450 H1446 0.949 . S
C1450 C1458 1.574 . S
C1450 C1466 1.368 . S
H1451 C1459 0.950 . S
H1452 C1457 0.950 . S
H1453 C1458 0.949 . S
H1454 C1460 0.950 . S
H1455 C1461 0.950 . S
H1456 C1462 0.949 . S
C1457 H1452 0.950 . S
C1457 C1459 1.327 . S
C1457 C1463 1.429 . S
C1458 C1450 1.574 . S
C1458 H1453 0.949 . S
C1458 C1464 1.368 . S
C1459 C1443 1.349 . S
C1459 H1451 0.950 . S
C1459 C1457 1.327 . S
C1460 C1448 1.349 . S
C1460 H1454 0.950 . S
C1460 C1461 1.327 . S
C1461 H1455 0.950 . S
C1461 C1460 1.327 . S
C1461 C1465 1.429 . S
C1462 C1445 1.574 . S
C1462 H1456 0.949 . S
C1462 C1466 1.368 . S
C1463 C1444 1.429 . S
C1463 C1457 1.429 . S
C1463 C1464 1.523 . S
C1464 C1445 1.368 . S
C1464 C1458 1.368 . S
C1464 C1463 1.523 . S
C1465 C1449 1.429 . S
C1465 C1461 1.429 . S
C1465 C1466 1.523 . S
C1466 C1450 1.368 . S
C1466 C1462 1.368 . S
C1466 C1465 1.523 . S
H1467 C1442 0.950 . S
H1468 C1444 0.950 . S
H1469 C1445 0.949 . S
H1470 C1447 0.950 . S
H1471 C1449 0.950 . S
C1472 C1473 1.349 . S
C1472 C1474 1.327 . S
C1472 H1497 0.950 . S
C1473 C1472 1.349 . S
C1473 C1489 1.349 . S
C1474 C1472 1.327 . S
C1474 C1493 1.429 . S
C1474 H1498 0.950 . S
C1475 C1492 1.574 . S
C1475 C1494 1.368 . S
C1475 H1499 0.949 . S
H1476 C1480 0.949 . S
C1477 C1478 1.349 . S
C1477 C1479 1.327 . S
C1477 H1500 0.950 . S
C1478 C1477 1.349 . S
C1478 C1490 1.349 . S
C1479 C1477 1.327 . S
C1479 C1495 1.429 . S
C1479 H1501 0.950 . S
C1480 H1476 0.949 . S
C1480 C1488 1.574 . S
C1480 C1496 1.368 . S
H1481 C1489 0.950 . S
H1482 C1487 0.950 . S
H1483 C1488 0.949 . S
H1484 C1490 0.950 . S
H1485 C1491 0.950 . S
H1486 C1492 0.949 . S
C1487 H1482 0.950 . S
C1487 C1489 1.327 . S
C1487 C1493 1.429 . S
C1488 C1480 1.574 . S
C1488 H1483 0.949 . S
C1488 C1494 1.368 . S
C1489 C1473 1.349 . S
C1489 H1481 0.950 . S
C1489 C1487 1.327 . S
C1490 C1478 1.349 . S
C1490 H1484 0.950 . S
C1490 C1491 1.327 . S
C1491 H1485 0.950 . S
C1491 C1490 1.327 . S
C1491 C1495 1.429 . S
C1492 C1475 1.574 . S
C1492 H1486 0.949 . S
C1492 C1496 1.368 . S
C1493 C1474 1.429 . S
C1493 C1487 1.429 . S
C1493 C1494 1.523 . S
C1494 C1475 1.368 . S
C1494 C1488 1.368 . S
C1494 C1493 1.523 . S
C1495 C1479 1.429 . S
C1495 C1491 1.429 . S
C1495 C1496 1.523 . S
C1496 C1480 1.368 . S
C1496 C1492 1.368 . S
C1496 C1495 1.523 . S
H1497 C1472 0.950 . S
H1498 C1474 0.950 . S
H1499 C1475 0.949 . S
H1500 C1477 0.950 . S
H1501 C1479 0.950 . S
C1502 C1503 1.349 . S
C1502 C1504 1.327 . S
C1502 H1527 0.950 . S
C1503 C1502 1.349 . S
C1503 C1519 1.349 . S
C1504 C1502 1.327 . S
C1504 C1523 1.429 . S
C1504 H1528 0.950 . S
C1505 C1522 1.574 . S
C1505 C1524 1.368 . S
C1505 H1529 0.949 . S
H1506 C1510 0.949 . S
C1507 C1508 1.349 . S
C1507 C1509 1.327 . S
C1507 H1530 0.950 . S
C1508 C1507 1.349 . S
C1508 C1520 1.349 . S
C1509 C1507 1.327 . S
C1509 C1525 1.429 . S
C1509 H1531 0.950 . S
C1510 H1506 0.949 . S
C1510 C1518 1.574 . S
C1510 C1526 1.368 . S
H1511 C1519 0.950 . S
H1512 C1517 0.950 . S
H1513 C1518 0.949 . S
H1514 C1520 0.950 . S
H1515 C1521 0.950 . S
H1516 C1522 0.949 . S
C1517 H1512 0.950 . S
C1517 C1519 1.327 . S
C1517 C1523 1.429 . S
C1518 C1510 1.574 . S
C1518 H1513 0.949 . S
C1518 C1524 1.368 . S
C1519 C1503 1.349 . S
C1519 H1511 0.950 . S
C1519 C1517 1.327 . S
C1520 C1508 1.349 . S
C1520 H1514 0.950 . S
C1520 C1521 1.327 . S
C1521 H1515 0.950 . S
C1521 C1520 1.327 . S
C1521 C1525 1.429 . S
C1522 C1505 1.574 . S
C1522 H1516 0.949 . S
C1522 C1526 1.368 . S
C1523 C1504 1.429 . S
C1523 C1517 1.429 . S
C1523 C1524 1.523 . S
C1524 C1505 1.368 . S
C1524 C1518 1.368 . S
C1524 C1523 1.523 . S
C1525 C1509 1.429 . S
C1525 C1521 1.429 . S
C1525 C1526 1.523 . S
C1526 C1510 1.368 . S
C1526 C1522 1.368 . S
C1526 C1525 1.523 . S
H1527 C1502 0.950 . S
H1528 C1504 0.950 . S
H1529 C1505 0.949 . S
H1530 C1507 0.950 . S
H1531 C1509 0.950 . S
C1532 C1533 1.349 . S
C1532 C1534 1.327 . S
C1532 H1557 0.950 . S
C1533 C1532 1.349 . S
C1533 C1549 1.349 . S
C1534 C1532 1.327 . S
C1534 C1553 1.429 . S
C1534 H1558 0.950 . S
C1535 C1552 1.574 . S
C1535 C1554 1.368 . S
C1535 H1559 0.949 . S
H1536 C1540 0.949 . S
C1537 C1538 1.349 . S
C1537 C1539 1.327 . S
C1537 H1560 0.950 . S
C1538 C1537 1.349 . S
C1538 C1550 1.349 . S
C1539 C1537 1.327 . S
C1539 C1555 1.429 . S
C1539 H1561 0.950 . S
C1540 H1536 0.949 . S
C1540 C1548 1.574 . S
C1540 C1556 1.368 . S
H1541 C1549 0.950 . S
H1542 C1547 0.950 . S
H1543 C1548 0.949 . S
H1544 C1550 0.950 . S
H1545 C1551 0.950 . S
H1546 C1552 0.949 . S
C1547 H1542 0.950 . S
C1547 C1549 1.327 . S
C1547 C1553 1.429 . S
C1548 C1540 1.574 . S
C1548 H1543 0.949 . S
C1548 C1554 1.368 . S
C1549 C1533 1.349 . S
C1549 H1541 0.950 . S
C1549 C1547 1.327 . S
C1550 C1538 1.349 . S
C1550 H1544 0.950 . S
C1550 C1551 1.327 . S
C1551 H1545 0.950 . S
C1551 C1550 1.327 . S
C1551 C1555 1.429 . S
C1552 C1535 1.574 . S
C1552 H1546 0.949 . S
C1552 C1556 1.368 . S
C1553 C1534 1.429 . S
C1553 C1547 1.429 . S
C1553 C1554 1.523 . S
C1554 C1535 1.368 . S
C1554 C1548 1.368 . S
C1554 C1553 1.523 . S
C1555 C1539 1.429 . S
C1555 C1551 1.429 . S
C1555 C1556 1.523 . S
C1556 C1540 1.368 . S
C1556 C1552 1.368 . S
C1556 C1555 1.523 . S
H1557 C1532 0.950 . S
H1558 C1534 0.950 . S
H1559 C1535 0.949 . S
H1560 C1537 0.950 . S
H1561 C1539 0.950 . S
C1562 C1563 1.349 . S
C1562 C1564 1.327 . S
C1562 H1587 0.950 . S
C1563 C1562 1.349 . S
C1563 C1579 1.349 . S
C1564 C1562 1.327 . S
C1564 C1583 1.429 . S
C1564 H1588 0.950 . S
C1565 C1582 1.574 . S
C1565 C1584 1.368 . S
C1565 H1589 0.949 . S
H1566 C1570 0.949 . S
C1567 C1568 1.349 . S
C1567 C1569 1.327 . S
C1567 H1590 0.950 . S
C1568 C1567 1.349 . S
C1568 C1580 1.349 . S
C1569 C1567 1.327 . S
C1569 C1585 1.429 . S
C1569 H1591 0.950 . S
C1570 H1566 0.949 . S
C1570 C1578 1.574 . S
C1570 C1586 1.368 . S
H1571 C1579 0.950 . S
H1572 C1577 0.950 . S
H1573 C1578 0.949 . S
H1574 C1580 0.950 . S
H1575 C1581 0.950 . S
H1576 C1582 0.949 . S
C1577 H1572 0.950 . S
C1577 C1579 1.327 . S
C1577 C1583 1.429 . S
C1578 C1570 1.574 . S
C1578 H1573 0.949 . S
C1578 C1584 1.368 . S
C1579 C1563 1.349 . S
C1579 H1571 0.950 . S
C1579 C1577 1.327 . S
C1580 C1568 1.349 . S
C1580 H1574 0.950 . S
C1580 C1581 1.327 . S
C1581 H1575 0.950 . S
C1581 C1580 1.327 . S
C1581 C1585 1.429 . S
C1582 C1565 1.574 . S
C1582 H1576 0.949 . S
C1582 C1586 1.368 . S
C1583 C1564 1.429 . S
C1583 C1577 1.429 . S
C1583 C1584 1.523 . S
C1584 C1565 1.368 . S
C1584 C1578 1.368 . S
C1584 C1583 1.523 . S
C1585 C1569 1.429 . S
C1585 C1581 1.429 . S
C1585 C1586 1.523 . S
C1586 C1570 1.368 . S
C1586 C1582 1.368 . S
C1586 C1585 1.523 . S
H1587 C1562 0.950 . S
H1588 C1564 0.950 . S
H1589 C1565 0.949 . S
H1590 C1567 0.950 . S
H1591 C1569 0.950 . S
C1592 C1593 1.349 . S
C1592 C1594 1.327 . S
C1592 H1617 0.950 . S
C1593 C1592 1.349 . S
C1593 C1609 1.349 . S
C1594 C1592 1.327 . S
C1594 C1613 1.429 . S
C1594 H1618 0.950 . S
C1595 C1612 1.574 . S
C1595 C1614 1.368 . S
C1595 H1619 0.949 . S
H1596 C1600 0.949 . S
C1597 C1598 1.349 . S
C1597 C1599 1.327 . S
C1597 H1620 0.950 . S
C1598 C1597 1.349 . S
C1598 C1610 1.349 . S
C1599 C1597 1.327 . S
C1599 C1615 1.429 . S
C1599 H1621 0.950 . S
C1600 H1596 0.949 . S
C1600 C1608 1.574 . S
C1600 C1616 1.368 . S
H1601 C1609 0.950 . S
H1602 C1607 0.950 . S
H1603 C1608 0.949 . S
H1604 C1610 0.950 . S
H1605 C1611 0.950 . S
H1606 C1612 0.949 . S
C1607 H1602 0.950 . S
C1607 C1609 1.327 . S
C1607 C1613 1.429 . S
C1608 C1600 1.574 . S
C1608 H1603 0.949 . S
C1608 C1614 1.368 . S
C1609 C1593 1.349 . S
C1609 H1601 0.950 . S
C1609 C1607 1.327 . S
C1610 C1598 1.349 . S
C1610 H1604 0.950 . S
C1610 C1611 1.327 . S
C1611 H1605 0.950 . S
C1611 C1610 1.327 . S
C1611 C1615 1.429 . S
C1612 C1595 1.574 . S
C1612 H1606 0.949 . S
C1612 C1616 1.368 . S
C1613 C1594 1.429 . S
C1613 C1607 1.429 . S
C1613 C1614 1.523 . S
C1614 C1595 1.368 . S
C1614 C1608 1.368 . S
C1614 C1613 1.523 . S
C1615 C1599 1.429 . S
C1615 C1611 1.429 . S
C1615 C1616 1.523 . S
C1616 C1600 1.368 . S
C1616 C1612 1.368 . S
C1616 C1615 1.523 . S
H1617 C1592 0.950 . S
H1618 C1594 0.950 . S
H1619 C1595 0.949 . S
H1620 C1597 0.950 . S
H1621 C1599 0.950 . S
C1622 C1623 1.349 . S
C1622 C1624 1.327 . S
C1622 H1647 0.950 . S
C1623 C1622 1.349 . S
C1623 C1639 1.349 . S
C1624 C1622 1.327 . S
C1624 C1643 1.429 . S
C1624 H1648 0.950 . S
C1625 C1642 1.574 . S
C1625 C1644 1.368 . S
C1625 H1649 0.949 . S
H1626 C1630 0.949 . S
C1627 C1628 1.349 . S
C1627 C1629 1.327 . S
C1627 H1650 0.950 . S
C1628 C1627 1.349 . S
C1628 C1640 1.349 . S
C1629 C1627 1.327 . S
C1629 C1645 1.429 . S
C1629 H1651 0.950 . S
C1630 H1626 0.949 . S
C1630 C1638 1.574 . S
C1630 C1646 1.368 . S
H1631 C1639 0.950 . S
H1632 C1637 0.950 . S
H1633 C1638 0.949 . S
H1634 C1640 0.950 . S
H1635 C1641 0.950 . S
H1636 C1642 0.949 . S
C1637 H1632 0.950 . S
C1637 C1639 1.327 . S
C1637 C1643 1.429 . S
C1638 C1630 1.574 . S
C1638 H1633 0.949 . S
C1638 C1644 1.368 . S
C1639 C1623 1.349 . S
C1639 H1631 0.950 . S
C1639 C1637 1.327 . S
C1640 C1628 1.349 . S
C1640 H1634 0.950 . S
C1640 C1641 1.327 . S
C1641 H1635 0.950 . S
C1641 C1640 1.327 . S
C1641 C1645 1.429 . S
C1642 C1625 1.574 . S
C1642 H1636 0.949 . S
C1642 C1646 1.368 . S
C1643 C1624 1.429 . S
C1643 C1637 1.429 . S
C1643 C1644 1.523 . S
C1644 C1625 1.368 . S
C1644 C1638 1.368 . S
C1644 C1643 1.523 . S
C1645 C1629 1.429 . S
C1645 C1641 1.429 . S
C1645 C1646 1.523 . S
C1646 C1630 1.368 . S
C1646 C1642 1.368 . S
C1646 C1645 1.523 . S
H1647 C1622 0.950 . S
H1648 C1624 0.950 . S
H1649 C1625 0.949 . S
H1650 C1627 0.950 . S
H1651 C1629 0.950 . S
C1652 C1653 1.349 . S
C1652 C1654 1.327 . S
C1652 H1677 0.950 . S
C1653 C1652 1.349 . S
C1653 C1669 1.349 . S
C1654 C1652 1.327 . S
C1654 C1673 1.429 . S
C1654 H1678 0.950 . S
C1655 C1672 1.574 . S
C1655 C1674 1.368 . S
C1655 H1679 0.949 . S
H1656 C1660 0.949 . S
C1657 C1658 1.349 . S
C1657 C1659 1.327 . S
C1657 H1680 0.950 . S
C1658 C1657 1.349 . S
C1658 C1670 1.349 . S
C1659 C1657 1.327 . S
C1659 C1675 1.429 . S
C1659 H1681 0.950 . S
C1660 H1656 0.949 . S
C1660 C1668 1.574 . S
C1660 C1676 1.368 . S
H1661 C1669 0.950 . S
H1662 C1667 0.950 . S
H1663 C1668 0.949 . S
H1664 C1670 0.950 . S
H1665 C1671 0.950 . S
H1666 C1672 0.949 . S
C1667 H1662 0.950 . S
C1667 C1669 1.327 . S
C1667 C1673 1.429 . S
C1668 C1660 1.574 . S
C1668 H1663 0.949 . S
C1668 C1674 1.368 . S
C1669 C1653 1.349 . S
C1669 H1661 0.950 . S
C1669 C1667 1.327 . S
C1670 C1658 1.349 . S
C1670 H1664 0.950 . S
C1670 C1671 1.327 . S
C1671 H1665 0.950 . S
C1671 C1670 1.327 . S
C1671 C1675 1.429 . S
C1672 C1655 1.574 . S
C1672 H1666 0.949 . S
C1672 C1676 1.368 . S
C1673 C1654 1.429 . S
C1673 C1667 1.429 . S
C1673 C1674 1.523 . S
C1674 C1655 1.368 . S
C1674 C1668 1.368 . S
C1674 C1673 1.523 . S
C1675 C1659 1.429 . S
C1675 C1671 1.429 . S
C1675 C1676 1.523 . S
C1676 C1660 1.368 . S
C1676 C1672 1.368 . S
C1676 C1675 1.523 . S
H1677 C1652 0.950 . S
H1678 C1654 0.950 . S
H1679 C1655 0.949 . S
H1680 C1657 0.950 . S
H1681 C1659 0.950 . S
C1682 C1683 1.349 . S
C1682 C1684 1.327 . S
C1682 H1707 0.950 . S
C1683 C1682 1.349 . S
C1683 C1699 1.349 . S
C1684 C1682 1.327 . S
C1684 C1703 1.429 . S
C1684 H1708 0.950 . S
C1685 C1702 1.574 . S
C1685 C1704 1.368 . S
C1685 H1709 0.949 . S
H1686 C1690 0.949 . S
C1687 C1688 1.349 . S
C1687 C1689 1.327 . S
C1687 H1710 0.950 . S
C1688 C1687 1.349 . S
C1688 C1700 1.349 . S
C1689 C1687 1.327 . S
C1689 C1705 1.429 . S
C1689 H1711 0.950 . S
C1690 H1686 0.949 . S
C1690 C1698 1.574 . S
C1690 C1706 1.368 . S
H1691 C1699 0.950 . S
H1692 C1697 0.950 . S
H1693 C1698 0.949 . S
H1694 C1700 0.950 . S
H1695 C1701 0.950 . S
H1696 C1702 0.949 . S
C1697 H1692 0.950 . S
C1697 C1699 1.327 . S
C1697 C1703 1.429 . S
C1698 C1690 1.574 . S
C1698 H1693 0.949 . S
C1698 C1704 1.368 . S
C1699 C1683 1.349 . S
C1699 H1691 0.950 . S
C1699 C1697 1.327 . S
C1700 C1688 1.349 . S
C1700 H1694 0.950 . S
C1700 C1701 1.327 . S
C1701 H1695 0.950 . S
C1701 C1700 1.327 . S
C1701 C1705 1.429 . S
C1702 C1685 1.574 . S
C1702 H1696 0.949 . S
C1702 C1706 1.368 . S
C1703 C1684 1.429 . S
C1703 C1697 1.429 . S
C1703 C1704 1.523 . S
C1704 C1685 1.368 . S
C1704 C1698 1.368 . S
C1704 C1703 1.523 . S
C1705 C1689 1.429 . S
C1705 C1701 1.429 . S
C1705 C1706 1.523 . S
C1706 C1690 1.368 . S
C1706 C1702 1.368 . S
C1706 C1705 1.523 . S
H1707 C1682 0.950 . S
H1708 C1684 0.950 . S
H1709 C1685 0.949 . S
H1710 C1687 0.950 . S
H1711 C1689 0.950 . S
C1712 C1713 1.349 . S
C1712 C1714 1.327 . S
C1712 H1737 0.950 . S
C1713 C1712 1.349 . S
C1713 C1729 1.349 . S
C1714 C1712 1.327 . S
C1714 C1733 1.429 . S
C1714 H1738 0.950 . S
C1715 C1732 1.574 . S
C1715 C1734 1.368 . S
C1715 H1739 0.949 . S
H1716 C1720 0.949 . S
C1717 C1718 1.349 . S
C1717 C1719 1.327 . S
C1717 H1740 0.950 . S
C1718 C1717 1.349 . S
C1718 C1730 1.349 . S
C1719 C1717 1.327 . S
C1719 C1735 1.429 . S
C1719 H1741 0.950 . S
C1720 H1716 0.949 . S
C1720 C1728 1.574 . S
C1720 C1736 1.368 . S
H1721 C1729 0.950 . S
H1722 C1727 0.950 . S
H1723 C1728 0.949 . S
H1724 C1730 0.950 . S
H1725 C1731 0.950 . S
H1726 C1732 0.949 . S
C1727 H1722 0.950 . S
C1727 C1729 1.327 . S
C1727 C1733 1.429 . S
C1728 C1720 1.574 . S
C1728 H1723 0.949 . S
C1728 C1734 1.368 . S
C1729 C1713 1.349 . S
C1729 H1721 0.950 . S
C1729 C1727 1.327 . S
C1730 C1718 1.349 . S
C1730 H1724 0.950 . S
C1730 C1731 1.327 . S
C1731 H1725 0.950 . S
C1731 C1730 1.327 . S
C1731 C1735 1.429 . S
C1732 C1715 1.574 . S
C1732 H1726 0.949 . S
C1732 C1736 1.368 . S
C1733 C1714 1.429 . S
C1733 C1727 1.429 . S
C1733 C1734 1.523 . S
C1734 C1715 1.368 . S
C1734 C1728 1.368 . S
C1734 C1733 1.523 . S
C1735 C1719 1.429 . S
C1735 C1731 1.429 . S
C1735 C1736 1.523 . S
C1736 C1720 1.368 . S
C1736 C1732 1.368 . S
C1736 C1735 1.523 . S
H1737 C1712 0.950 . S
H1738 C1714 0.950 . S
H1739 C1715 0.949 . S
H1740 C1717 0.950 . S
H1741 C1719 0.950 . S
C1742 C1743 1.349 . S
C1742 C1744 1.327 . S
C1742 H1767 0.950 . S
C1743 C1742 1.349 . S
C1743 C1759 1.349 . S
C1744 C1742 1.327 . S
C1744 C1763 1.429 . S
C1744 H1768 0.950 . S
C1745 C1762 1.574 . S
C1745 C1764 1.368 . S
C1745 H1769 0.949 . S
H1746 C1750 0.949 . S
C1747 C1748 1.349 . S
C1747 C1749 1.327 . S
C1747 H1770 0.950 . S
C1748 C1747 1.349 . S
C1748 C1760 1.349 . S
C1749 C1747 1.327 . S
C1749 C1765 1.429 . S
C1749 H1771 0.950 . S
C1750 H1746 0.949 . S
C1750 C1758 1.574 . S
C1750 C1766 1.368 . S
H1751 C1759 0.950 . S
H1752 C1757 0.950 . S
H1753 C1758 0.949 . S
H1754 C1760 0.950 . S
H1755 C1761 0.950 . S
H1756 C1762 0.949 . S
C1757 H1752 0.950 . S
C1757 C1759 1.327 . S
C1757 C1763 1.429 . S
C1758 C1750 1.574 . S
C1758 H1753 0.949 . S
C1758 C1764 1.368 . S
C1759 C1743 1.349 . S
C1759 H1751 0.950 . S
C1759 C1757 1.327 . S
C1760 C1748 1.349 . S
C1760 H1754 0.950 . S
C1760 C1761 1.327 . S
C1761 H1755 0.950 . S
C1761 C1760 1.327 . S
C1761 C1765 1.429 . S
C1762 C1745 1.574 . S
C1762 H1756 0.949 . S
C1762 C1766 1.368 . S
C1763 C1744 1.429 . S
C1763 C1757 1.429 . S
C1763 C1764 1.523 . S
C1764 C1745 1.368 . S
C1764 C1758 1.368 . S
C1764 C1763 1.523 . S
C1765 C1749 1.429 . S
C1765 C1761 1.429 . S
C1765 C1766 1.523 . S
C1766 C1750 1.368 . S
C1766 C1762 1.368 . S
C1766 C1765 1.523 . S
H1767 C1742 0.950 . S
H1768 C1744 0.950 . S
H1769 C1745 0.949 . S
H1770 C1747 0.950 . S
H1771 C1749 0.950 . S
C1772 C1773 1.349 . S
C1772 C1774 1.327 . S
C1772 H1797 0.950 . S
C1773 C1772 1.349 . S
C1773 C1789 1.349 . S
C1774 C1772 1.327 . S
C1774 C1793 1.429 . S
C1774 H1798 0.950 . S
C1775 C1792 1.574 . S
C1775 C1794 1.368 . S
C1775 H1799 0.949 . S
H1776 C1780 0.949 . S
C1777 C1778 1.349 . S
C1777 C1779 1.327 . S
C1777 H1800 0.950 . S
C1778 C1777 1.349 . S
C1778 C1790 1.349 . S
C1779 C1777 1.327 . S
C1779 C1795 1.429 . S
C1779 H1801 0.950 . S
C1780 H1776 0.949 . S
C1780 C1788 1.574 . S
C1780 C1796 1.368 . S
H1781 C1789 0.950 . S
H1782 C1787 0.950 . S
H1783 C1788 0.949 . S
H1784 C1790 0.950 . S
H1785 C1791 0.950 . S
H1786 C1792 0.949 . S
C1787 H1782 0.950 . S
C1787 C1789 1.327 . S
C1787 C1793 1.429 . S
C1788 C1780 1.574 . S
C1788 H1783 0.949 . S
C1788 C1794 1.368 . S
C1789 C1773 1.349 . S
C1789 H1781 0.950 . S
C1789 C1787 1.327 . S
C1790 C1778 1.349 . S
C1790 H1784 0.950 . S
C1790 C1791 1.327 . S
C1791 H1785 0.950 . S
C1791 C1790 1.327 . S
C1791 C1795 1.429 . S
C1792 C1775 1.574 . S
C1792 H1786 0.949 . S
C1792 C1796 1.368 . S
C1793 C1774 1.429 . S
C1793 C1787 1.429 . S
C1793 C1794 1.523 . S
C1794 C1775 1.368 . S
C1794 C1788 1.368 . S
C1794 C1793 1.523 . S
C1795 C1779 1.429 . S
C1795 C1791 1.429 . S
C1795 C1796 1.523 . S
C1796 C1780 1.368 . S
C1796 C1792 1.368 . S
C1796 C1795 1.523 . S
H1797 C1772 0.950 . S
H1798 C1774 0.950 . S
H1799 C1775 0.949 . S
H1800 C1777 0.950 . S
H1801 C1779 0.950 . S
C1802 C1803 1.349 . S
C1802 C1804 1.327 . S
C1802 H1827 0.950 . S
C1803 C1802 1.349 . S
C1803 C1819 1.349 . S
C1804 C1802 1.327 . S
C1804 C1823 1.429 . S
C1804 H1828 0.950 . S
C1805 C1822 1.574 . S
C1805 C1824 1.368 . S
C1805 H1829 0.949 . S
H1806 C1810 0.949 . S
C1807 C1808 1.349 . S
C1807 C1809 1.327 . S
C1807 H1830 0.950 . S
C1808 C1807 1.349 . S
C1808 C1820 1.349 . S
C1809 C1807 1.327 . S
C1809 C1825 1.429 . S
C1809 H1831 0.950 . S
C1810 H1806 0.949 . S
C1810 C1818 1.574 . S
C1810 C1826 1.368 . S
H1811 C1819 0.950 . S
H1812 C1817 0.950 . S
H1813 C1818 0.949 . S
H1814 C1820 0.950 . S
H1815 C1821 0.950 . S
H1816 C1822 0.949 . S
C1817 H1812 0.950 . S
C1817 C1819 1.327 . S
C1817 C1823 1.429 . S
C1818 C1810 1.574 . S
C1818 H1813 0.949 . S
C1818 C1824 1.368 . S
C1819 C1803 1.349 . S
C1819 H1811 0.950 . S
C1819 C1817 1.327 . S
C1820 C1808 1.349 . S
C1820 H1814 0.950 . S
C1820 C1821 1.327 . S
C1821 H1815 0.950 . S
C1821 C1820 1.327 . S
C1821 C1825 1.429 . S
C1822 C1805 1.574 . S
C1822 H1816 0.949 . S
C1822 C1826 1.368 . S
C1823 C1804 1.429 . S
C1823 C1817 1.429 . S
C1823 C1824 1.523 . S
C1824 C1805 1.368 . S
C1824 C1818 1.368 . S
C1824 C1823 1.523 . S
C1825 C1809 1.429 . S
C1825 C1821 1.429 . S
C1825 C1826 1.523 . S
C1826 C1810 1.368 . S
C1826 C1822 1.368 . S
C1826 C1825 1.523 . S
H1827 C1802 0.950 . S
H1828 C1804 0.950 . S
H1829 C1805 0.949 . S
H1830 C1807 0.950 . S
H1831 C1809 0.950 . S
C1832 C1833 1.349 . S
C1832 C1834 1.327 . S
C1832 H1857 0.950 . S
C1833 C1832 1.349 . S
C1833 C1849 1.349 . S
C1834 C1832 1.327 . S
C1834 C1853 1.429 . S
C1834 H1858 0.950 . S
C1835 C1852 1.574 . S
C1835 C1854 1.368 . S
C1835 H1859 0.949 . S
H1836 C1840 0.949 . S
C1837 C1838 1.349 . S
C1837 C1839 1.327 . S
C1837 H1860 0.950 . S
C1838 C1837 1.349 . S
C1838 C1850 1.349 . S
C1839 C1837 1.327 . S
C1839 C1855 1.429 . S
C1839 H1861 0.950 . S
C1840 H1836 0.949 . S
C1840 C1848 1.574 . S
C1840 C1856 1.368 . S
H1841 C1849 0.950 . S
H1842 C1847 0.950 . S
H1843 C1848 0.949 . S
H1844 C1850 0.950 . S
H1845 C1851 0.950 . S
H1846 C1852 0.949 . S
C1847 H1842 0.950 . S
C1847 C1849 1.327 . S
C1847 C1853 1.429 . S
C1848 C1840 1.574 . S
C1848 H1843 0.949 . S
C1848 C1854 1.368 . S
C1849 C1833 1.349 . S
C1849 H1841 0.950 . S
C1849 C1847 1.327 . S
C1850 C1838 1.349 . S
C1850 H1844 0.950 . S
C1850 C1851 1.327 . S
C1851 H1845 0.950 . S
C1851 C1850 1.327 . S
C1851 C1855 1.429 . S
C1852 C1835 1.574 . S
C1852 H1846 0.949 . S
C1852 C1856 1.368 . S
C1853 C1834 1.429 . S
C1853 C1847 1.429 . S
C1853 C1854 1.523 . S
C1854 C1835 1.368 . S
C1854 C1848 1.368 . S
C1854 C1853 1.523 . S
C1855 C1839 1.429 . S
C1855 C1851 1.429 . S
C1855 C1856 1.523 . S
C1856 C1840 1.368 . S
C1856 C1852 1.368 . S
C1856 C1855 1.523 . S
H1857 C1832 0.950 . S
H1858 C1834 0.950 . S
H1859 C1835 0.949 . S
H1860 C1837 0.950 . S
H1861 C1839 0.950 . S
C1862 C1863 1.349 . S
C1862 C1864 1.327 . S
C1862 H1887 0.950 . S
C1863 C1862 1.349 . S
C1863 C1879 1.349 . S
C1864 C1862 1.327 . S
C1864 C1883 1.429 . S
C1864 H1888 0.950 . S
C1865 C1882 1.574 . S
C1865 C1884 1.368 . S
C1865 H1889 0.949 . S
H1866 C1870 0.949 . S
C1867 C1868 1.349 . S
C1867 C1869 1.327 . S
C1867 H1890 0.950 . S
C1868 C1867 1.349 . S
C1868 C1880 1.349 . S
C1869 C1867 1.327 . S
C1869 C1885 1.429 . S
C1869 H1891 0.950 . S
C1870 H1866 0.949 . S
C1870 C1878 1.574 . S
C1870 C1886 1.368 . S
H1871 C1879 0.950 . S
H1872 C1877 0.950 . S
H1873 C1878 0.949 . S
H1874 C1880 0.950 . S
H1875 C1881 0.950 . S
H1876 C1882 0.949 . S
C1877 H1872 0.950 . S
C1877 C1879 1.327 . S
C1877 C1883 1.429 . S
C1878 C1870 1.574 . S
C1878 H1873 0.949 . S
C1878 C1884 1.368 . S
C1879 C1863 1.349 . S
C1879 H1871 0.950 . S
C1879 C1877 1.327 . S
C1880 C1868 1.349 . S
C1880 H1874 0.950 . S
C1880 C1881 1.327 . S
C1881 H1875 0.950 . S
C1881 C1880 1.327 . S
C1881 C1885 1.429 . S
C1882 C1865 1.574 . S
C1882 H1876 0.949 . S
C1882 C1886 1.368 . S
C1883 C1864 1.429 . S
C1883 C1877 1.429 . S
C1883 C1884 1.523 . S
C1884 C1865 1.368 . S
C1884 C1878 1.368 . S
C1884 C1883 1.523 . S
C1885 C1869 1.429 . S
C1885 C1881 1.429 . S
C1885 C1886 1.523 . S
C1886 C1870 1.368 . S
C1886 C1882 1.368 . S
C1886 C1885 1.523 . S
H1887 C1862 0.950 . S
H1888 C1864 0.950 . S
H1889 C1865 0.949 . S
H1890 C1867 0.950 . S
H1891 C1869 0.950 . S
C1892 C1893 1.349 . S
C1892 C1894 1.327 . S
C1892 H1917 0.950 . S
C1893 C1892 1.349 . S
C1893 C1909 1.349 . S
C1894 C1892 1.327 . S
C1894 C1913 1.429 . S
C1894 H1918 0.950 . S
C1895 C1912 1.574 . S
C1895 C1914 1.368 . S
C1895 H1919 0.949 . S
H1896 C1900 0.949 . S
C1897 C1898 1.349 . S
C1897 C1899 1.327 . S
C1897 H1920 0.950 . S
C1898 C1897 1.349 . S
C1898 C1910 1.349 . S
C1899 C1897 1.327 . S
C1899 C1915 1.429 . S
C1899 H1921 0.950 . S
C1900 H1896 0.949 . S
C1900 C1908 1.574 . S
C1900 C1916 1.368 . S
H1901 C1909 0.950 . S
H1902 C1907 0.950 . S
H1903 C1908 0.949 . S
H1904 C1910 0.950 . S
H1905 C1911 0.950 . S
H1906 C1912 0.949 . S
C1907 H1902 0.950 . S
C1907 C1909 1.327 . S
C1907 C1913 1.429 . S
C1908 C1900 1.574 . S
C1908 H1903 0.949 . S
C1908 C1914 1.368 . S
C1909 C1893 1.349 . S
C1909 H1901 0.950 . S
C1909 C1907 1.327 . S
C1910 C1898 1.349 . S
C1910 H1904 0.950 . S
C1910 C1911 1.327 . S
C1911 H1905 0.950 . S
C1911 C1910 1.327 . S
C1911 C1915 1.429 . S
C1912 C1895 1.574 . S
C1912 H1906 0.949 . S
C1912 C1916 1.368 . S
C1913 C1894 1.429 . S
C1913 C1907 1.429 . S
C1913 C1914 1.523 . S
C1914 C1895 1.368 . S
C1914 C1908 1.368 . S
C1914 C1913 1.523 . S
C1915 C1899 1.429 . S
C1915 C1911 1.429 . S
C1915 C1916 1.523 . S
C1916 C1900 1.368 . S
C1916 C1912 1.368 . S
C1916 C1915 1.523 . S
H1917 C1892 0.950 . S
H1918 C1894 0.950 . S
H1919 C1895 0.949 . S
H1920 C1897 0.950 . S
H1921 C1899 0.950 . S
C1922 C1923 1.349 . S
C1922 C1924 1.327 . S
C1922 H1947 0.950 . S
C1923 C1922 1.349 . S
C1923 C1939 1.349 . S
C1924 C1922 1.327 . S
C1924 C1943 1.429 . S
C1924 H1948 0.950 . S
C1925 C1942 1.574 . S
C1925 C1944 1.368 . S
C1925 H1949 0.949 . S
H1926 C1930 0.949 . S
C1927 C1928 1.349 . S
C1927 C1929 1.327 . S
C1927 H1950 0.950 . S
C1928 C1927 1.349 . S
C1928 C1940 1.349 . S
C1929 C1927 1.327 . S
C1929 C1945 1.429 . S
C1929 H1951 0.950 . S
C1930 H1926 0.949 . S
C1930 C1938 1.574 . S
C1930 C1946 1.368 . S
H1931 C1939 0.950 . S
H1932 C1937 0.950 . S
H1933 C1938 0.949 . S
H1934 C1940 0.950 . S
H1935 C1941 0.950 . S
H1936 C1942 0.949 . S
C1937 H1932 0.950 . S
C1937 C1939 1.327 . S
C1937 C1943 1.429 . S
C1938 C1930 1.574 . S
C1938 H1933 0.949 . S
C1938 C1944 1.368 . S
C1939 C1923 1.349 . S
C1939 H1931 0.950 . S
C1939 C1937 1.327 . S
C1940 C1928 1.349 . S
C1940 H1934 0.950 . S
C1940 C1941 1.327 . S
C1941 H1935 0.950 . S
C1941 C1940 1.327 . S
C1941 C1945 1.429 . S
C1942 C1925 1.574 . S
C1942 H1936 0.949 . S
C1942 C1946 1.368 . S
C1943 C1924 1.429 . S
C1943 C1937 1.429 . S
C1943 C1944 1.523 . S
C1944 C1925 1.368 . S
C1944 C1938 1.368 . S
C1944 C1943 1.523 . S
C1945 C1929 1.429 . S
C1945 C1941 1.429 . S
C1945 C1946 1.523 . S
C1946 C1930 1.368 . S
C1946 C1942 1.368 . S
C1946 C1945 1.523 . S
H1947 C1922 0.950 . S
H1948 C1924 0.950 . S
H1949 C1925 0.949 . S
H1950 C1927 0.950 . S
H1951 C1929 0.950 . S
C513 C98 1.051 . S
C518 N18 1.020 . S
C543 C4 1.270 . S
C548 C38 1.277 . S
C573 N77 1.015 . S
C578 C34 1.081 . S
C603 C102 1.630 . S
C608 C66 1.634 . S
C633 C157 1.300 . S
C638 C164 1.279 . S
C663 N178 0.499 . S
C668 N205 0.506 . S
C693 C196 1.659 . S
C698 C226 1.653 . S
C723 N146 0.472 . S
C728 N237 0.742 . S
C753 C317 1.509 . S
C758 C29 1.507 . S
C783 C349 1.140 . S
C788 N50 1.072 . S
C813 C70 1.279 . S
C818 C422 1.282 . S
C843 C285 1.129 . S
C848 N114 1.062 . S
C873 N365 1.062 . S
C878 C132 1.129 . S
C903 C477 1.507 . S
C908 C189 1.509 . S
C933 C221 1.140 . S
C938 N402 1.072 . S
C963 C486 1.279 . S
C968 C230 1.282 . S
C993 N269 0.472 . S
C998 N429 0.742 . S
C1023 C292 1.279 . S
C1028 C260 1.300 . S
C1053 N333 0.506 . S
C1058 N306 0.499 . S
C1083 N466 1.020 . S
C1088 C358 1.050 . S
C1113 C386 1.081 . S
C1118 N493 1.015 . S
C1143 C356 1.227 . S
C1148 N13 1.169 . S
C1173 C388 1.322 . S
C1178 C6 1.317 . S
C1203 C413 1.250 . S
C1208 N82 1.195 . S
C1233 C93 1.818 . S
C1238 C381 1.818 . S
C1263 C294 1.318 . S
C1268 C130 1.323 . S
C1293 N301 0.612 . S
C1298 N210 0.630 . S
C1323 C445 1.795 . S
C1328 C198 1.791 . S
C1353 N141 0.603 . S
C1358 N434 0.642 . S
C1383 C162 1.873 . S
C1388 C2 1.875 . S
C1413 C322 1.258 . S
C1418 N397 1.205 . S
C1443 C68 1.303 . S
C1448 C228 1.301 . S
C1473 C258 1.284 . S
C1478 N370 1.229 . S
C1503 N109 1.229 . S
C1508 C134 1.284 . S
C1533 C290 1.873 . S
C1538 C450 1.875 . S
C1563 C194 1.258 . S
C1568 N45 1.205 . S
C1593 C484 1.303 . S
C1598 C420 1.301 . S
C1623 N274 0.603 . S
C1628 N242 0.642 . S
C1653 C262 1.323 . S
C1658 C166 1.319 . S
C1683 N338 0.630 . S
C1688 N173 0.612 . S
C1713 C125 1.227 . S
C1718 N461 1.169 . S
C1743 C61 1.250 . S
C1748 N498 1.195 . S
C1773 C390 1.277 . S
C1778 C452 1.270 . S
C1803 C354 1.630 . S
C1808 C482 1.634 . S
C1833 C324 1.659 . S
C1838 C418 1.653 . S
C1863 C454 1.317 . S
C1868 C36 1.322 . S
C1893 C100 1.818 . S
C1898 C509 1.818 . S
C1923 C253 1.795 . S
C1928 C326 1.791 . S
