# Generated by pormake.
# Topology crb, (4)-cn, num edge types: 1
# Building blocks:
#     Node 0, Type 0, BuildingBlock: CEKHIL_clean_sbu_0, # of connection points: 4
#     Node 1, Type 0, BuildingBlock: CEKHIL_clean_sbu_0, # of connection points: 4
#     Node 2, Type 0, BuildingBlock: CEKHIL_clean_sbu_0, # of connection points: 4
#     Node 3, Type 0, BuildingBlock: CEKHIL_clean_sbu_0, # of connection points: 4
#     Node 4, Type 0, BuildingBlock: CEKHIL_clean_sbu_0, # of connection points: 4
#     Node 5, Type 0, BuildingBlock: CEKHIL_clean_sbu_0, # of connection points: 4
#     Node 6, Type 0, BuildingBlock: CEKHIL_clean_sbu_0, # of connection points: 4
#     Node 7, Type 0, BuildingBlock: CEKHIL_clean_sbu_0, # of connection points: 4
#     Edge 8, Type (0, 0), BuildingBlock: OJICUG_clean_linker_0, # of connection points: 2
#     Edge 9, Type (0, 0), BuildingBlock: OJICUG_clean_linker_0, # of connection points: 2
#     Edge 10, Type (0, 0), BuildingBlock: OJICUG_clean_linker_0, # of connection points: 2
#     Edge 11, Type (0, 0), BuildingBlock: OJICUG_clean_linker_0, # of connection points: 2
#     Edge 12, Type (0, 0), BuildingBlock: OJICUG_clean_linker_0, # of connection points: 2
#     Edge 13, Type (0, 0), BuildingBlock: OJICUG_clean_linker_0, # of connection points: 2
#     Edge 14, Type (0, 0), BuildingBlock: OJICUG_clean_linker_0, # of connection points: 2
#     Edge 15, Type (0, 0), BuildingBlock: OJICUG_clean_linker_0, # of connection points: 2
#     Edge 16, Type (0, 0), BuildingBlock: OJICUG_clean_linker_0, # of connection points: 2
#     Edge 17, Type (0, 0), BuildingBlock: OJICUG_clean_linker_0, # of connection points: 2
#     Edge 18, Type (0, 0), BuildingBlock: OJICUG_clean_linker_0, # of connection points: 2
#     Edge 19, Type (0, 0), BuildingBlock: OJICUG_clean_linker_0, # of connection points: 2
#     Edge 20, Type (0, 0), BuildingBlock: OJICUG_clean_linker_0, # of connection points: 2
#     Edge 21, Type (0, 0), BuildingBlock: OJICUG_clean_linker_0, # of connection points: 2
#     Edge 22, Type (0, 0), BuildingBlock: OJICUG_clean_linker_0, # of connection points: 2
#     Edge 23, Type (0, 0), BuildingBlock: OJICUG_clean_linker_0, # of connection points: 2
# Relax obj value: 0.118
# Max RMSD: 0.159
# Mean RMSD: 0.159
data_MOF--net-crb--node1-CEKHIL_clean_sbu_0--edge1-OJICUG_clean_linker_0
_symmetry_space_group_name_H-M    P1
_symmetry_Int_Tables_number       1
_symmetry_cell_setting            triclinic
loop_
_symmetry_equiv_pos_as_xyz
'x, y, z'
_cell_length_a     31.733886
_cell_length_b     31.054751
_cell_length_c     16.239281
_cell_angle_alpha  90.035077
_cell_angle_beta   90.100039
_cell_angle_gamma 90.010365
loop_
_atom_site_label
_atom_site_type_symbol
_atom_site_fract_x
_atom_site_fract_y
_atom_site_fract_z
_atom_type_partial_charge
Co0 Co 0.33382 0.33787 0.03006 0.0
O1 O 0.27643 0.32978 0.06861 0.0
O2 O 0.3317 0.29207 0.11009 0.0
C3 C 0.33413 0.41013 0.04245 0.0
O4 O 0.39778 0.33715 1.01237 0.0
Co5 Co 0.36017 0.38989 0.87641 0.0
O6 O 0.41455 0.39466 0.93598 0.0
C7 C 0.32157 0.30376 0.85551 0.0
C8 C 0.29178 0.30035 0.11705 0.0
C9 C 0.42461 0.36522 0.98675 0.0
O10 O 0.3225 0.29731 0.93415 0.0
O11 O 0.33374 0.33876 0.82143 0.0
O12 O 0.34071 0.38588 0.1064 0.0
O13 O 0.32532 0.39024 0.97468 0.0
Co14 Co 0.68655 0.33799 0.06688 0.0
O15 O 0.74393 0.32991 0.02827 0.0
O16 O 0.68867 0.29207 0.98699 0.0
C17 C 0.68618 0.41022 0.05424 0.0
O18 O 0.62259 0.33723 0.08469 0.0
Co19 Co 0.66027 0.39017 0.22045 0.0
O20 O 0.60585 0.39483 0.16097 0.0
C21 C 0.69887 0.30409 0.24151 0.0
C22 C 0.72858 0.3004 0.97993 0.0
C23 C 0.59577 0.36532 0.11028 0.0
O24 O 0.69793 0.29757 0.16288 0.0
O25 O 0.68669 0.33912 0.27554 0.0
O26 O 0.67958 0.38586 0.99039 0.0
O27 O 0.69504 0.39046 0.12207 0.0
Co28 Co 0.68626 0.66798 0.02778 0.0
O29 O 0.74371 0.67599 0.06646 0.0
O30 O 0.68855 0.71384 0.10774 0.0
C31 C 0.68586 0.59574 0.04029 0.0
O32 O 0.62228 0.66884 1.01004 0.0
Co33 Co 0.65948 0.61594 0.87426 0.0
O34 O 0.60527 0.61117 0.9341 0.0
C35 C 0.69837 0.7019 0.85321 0.0
C36 C 0.72845 0.70548 0.11485 0.0
C37 C 0.59537 0.64069 0.98483 0.0
O38 O 0.69755 0.70842 0.93184 0.0
O39 O 0.68601 0.66691 0.81917 0.0
O40 O 0.67938 0.62008 0.10417 0.0
O41 O 0.69458 0.61553 0.97246 0.0
Co42 Co 0.33395 0.66794 0.06777 0.0
O43 O 0.27649 0.6759 0.02912 0.0
O44 O 0.33166 0.71369 0.9877 0.0
C45 C 0.33432 0.59568 0.05549 0.0
O46 O 0.39795 0.66881 0.08543 0.0
Co47 Co 0.36079 0.61607 0.22138 0.0
O48 O 0.41498 0.61125 0.16147 0.0
C49 C 0.32189 0.70204 0.24227 0.0
C50 C 0.29175 0.70533 0.98066 0.0
C51 C 0.42486 0.64071 0.11067 0.0
O52 O 0.32271 0.70849 0.16364 0.0
O53 O 0.33426 0.66709 0.27635 0.0
O54 O 0.34079 0.61991 0.99152 0.0
O55 O 0.32564 0.61557 0.12326 0.0
Co56 Co 0.83379 0.83784 0.52841 0.0
O57 O 0.77636 0.82978 0.56677 0.0
O58 O 0.83157 0.792 0.60832 0.0
C59 C 0.83414 0.9101 0.54097 0.0
O60 O 0.89777 0.83707 0.51094 0.0
Co61 Co 0.86035 0.88992 0.37499 0.0
O62 O 0.91467 0.89463 0.43481 0.0
C63 C 0.82166 0.80386 0.35374 0.0
C64 C 0.79165 0.80031 0.6152 0.0
C65 C 0.92465 0.86514 0.48556 0.0
O66 O 0.82252 0.79736 0.43237 0.0
O67 O 0.83391 0.83887 0.31979 0.0
O68 O 0.84066 0.8858 0.60488 0.0
O69 O 0.82538 0.89026 0.47311 0.0
Co70 Co 0.1864 0.83776 0.56748 0.0
O71 O 0.24383 0.82974 0.52908 0.0
O72 O 0.18863 0.79193 0.48743 0.0
C73 C 0.18603 0.91001 0.55511 0.0
O74 O 0.12242 0.83696 0.58497 0.0
Co75 Co 0.15987 0.88978 0.72107 0.0
O76 O 0.10556 0.89453 0.66122 0.0
C77 C 0.19855 0.80373 0.74205 0.0
C78 C 0.22854 0.80028 0.48055 0.0
C79 C 0.09557 0.86505 0.61039 0.0
O80 O 0.19769 0.79726 0.6634 0.0
O81 O 0.18629 0.83872 0.77612 0.0
O82 O 0.17951 0.88571 0.49115 0.0
O83 O 0.19481 0.89017 0.62292 0.0
Co84 Co 0.18635 0.16778 0.52945 0.0
O85 O 0.24377 0.17578 0.56832 0.0
O86 O 0.18857 0.2136 0.60951 0.0
C87 C 0.18594 0.09554 0.54179 0.0
O88 O 0.12238 0.16863 0.51148 0.0
Co89 Co 0.15975 0.1158 0.3757 0.0
O90 O 0.10546 0.11102 0.43528 0.0
C91 C 0.19859 0.2018 0.35499 0.0
C92 C 0.22847 0.20524 0.61671 0.0
C93 C 0.0955 0.14051 0.48603 0.0
O94 O 0.19771 0.20828 0.43363 0.0
O95 O 0.18628 0.16682 0.32083 0.0
O96 O 0.17941 0.11983 0.60571 0.0
O97 O 0.19473 0.11537 0.47405 0.0
Co98 Co 0.83392 0.16789 0.56719 0.0
O99 O 0.77651 0.17596 0.52834 0.0
O100 O 0.83177 0.21372 0.48727 0.0
C101 C 0.83424 0.09563 0.55465 0.0
O102 O 0.89789 0.16866 0.58515 0.0
Co103 Co 0.86047 0.11585 0.72079 0.0
O104 O 0.91476 0.11105 0.66123 0.0
C105 C 0.82172 0.20187 0.74174 0.0
C106 C 0.79185 0.20542 0.48005 0.0
C107 C 0.92474 0.14054 0.61056 0.0
O108 O 0.82262 0.20837 0.66313 0.0
O109 O 0.83397 0.16687 0.7758 0.0
O110 O 0.8408 0.11993 0.49079 0.0
O111 O 0.82548 0.11547 0.62244 0.0
C112 C 0.33748 0.48184 0.97294 0.0
C113 C 0.33711 0.45752 0.04593 0.0
H114 H 0.33749 0.54473 0.91874 0.0
C115 C 0.33796 0.47899 0.12198 0.0
H116 H 0.33704 0.46615 0.91336 0.0
C117 C 0.33771 0.52396 0.125 0.0
C118 C 0.33722 0.54828 0.05201 0.0
H119 H 0.3377 0.46107 0.17919 0.0
H120 H 0.33745 0.53965 0.18458 0.0
C121 C 0.33784 0.52682 0.97595 0.0
C122 C 0.48968 0.4031 0.03289 0.0
C123 C 0.46845 0.36418 1.018 0.0
H124 H 0.54611 0.43372 0.07537 0.0
C125 C 0.48932 0.32513 0.03411 0.0
H126 H 0.47427 0.43368 1.02163 0.0
C127 C 0.53106 0.32515 0.06303 0.0
C128 C 0.55193 0.36423 0.07908 0.0
H129 H 0.47362 0.29468 0.02308 0.0
H130 H 0.54676 0.29472 0.07409 0.0
C131 C 0.53069 0.40313 0.06415 0.0
C132 C 0.6823 0.47892 0.97437 0.0
C133 C 0.68317 0.45761 0.05053 0.0
H134 H 0.68276 0.53946 0.91147 0.0
C135 C 0.68279 0.48207 0.1234 0.0
H136 H 0.68256 0.46089 0.91725 0.0
C137 C 0.6824 0.52704 0.12016 0.0
C138 C 0.683 0.54835 0.04399 0.0
H139 H 0.68324 0.4665 0.18306 0.0
H140 H 0.68274 0.54507 0.17728 0.0
C141 C 0.68251 0.52389 0.97112 0.0
C142 C 0.48932 0.68082 0.06248 0.0
C143 C 0.46855 0.64176 0.07892 0.0
H144 H 0.54652 0.71125 1.02163 0.0
C145 C 0.4897 0.60284 0.06371 0.0
H146 H 0.47369 0.71126 0.07373 0.0
C147 C 0.53053 0.60284 0.0318 0.0
C148 C 0.55168 0.64175 1.01653 0.0
H149 H 0.47435 0.57226 0.07519 0.0
H150 H 0.54588 0.57225 1.02036 0.0
C151 C 0.5309 0.68081 0.03292 0.0
C152 C 0.83755 0.98187 0.47172 0.0
C153 C 0.8371 0.95749 0.54462 0.0
H154 H 0.8376 0.04482 0.41774 0.0
C155 C 0.83783 0.97888 0.62075 0.0
H156 H 0.8372 0.96624 0.41209 0.0
C157 C 0.83756 0.02385 0.62393 0.0
C158 C 0.83715 0.04824 0.55102 0.0
H159 H 0.83751 0.96091 0.6779 0.0
H160 H 0.83721 0.03949 0.68356 0.0
C161 C 0.83788 0.02685 0.47489 0.0
C162 C 0.03092 0.82495 0.56256 0.0
C163 C 0.05179 0.86401 0.57883 0.0
H164 H 0.97354 0.79455 0.52212 0.0
C165 C 0.03062 0.90293 0.56376 0.0
H166 H 0.04657 0.79451 0.57372 0.0
C167 C 0.98967 0.90295 0.53216 0.0
C168 C 0.96843 0.86405 0.51707 0.0
H169 H 0.04603 0.93351 0.57514 0.0
H170 H 0.97431 0.93355 0.52082 0.0
C171 C 0.98924 0.82498 0.5333 0.0
C172 C 0.1823 0.02676 0.62142 0.0
C173 C 0.18302 0.04814 0.54533 0.0
H174 H 0.18299 0.96616 0.68411 0.0
C175 C 0.1826 0.02375 0.47238 0.0
H176 H 0.1826 0.04474 0.6786 0.0
C177 C 0.18232 0.97878 0.47547 0.0
C178 C 0.18308 0.9574 0.55156 0.0
H179 H 0.18294 0.03938 0.41278 0.0
H180 H 0.18263 0.9608 0.41829 0.0
C181 C 0.18263 0.98179 0.62451 0.0
C182 C 0.98967 0.10267 0.56406 0.0
C183 C 0.9685 0.14158 0.57916 0.0
H184 H 0.04593 0.07207 0.52111 0.0
C185 C 0.98932 0.18064 0.56296 0.0
H186 H 0.97428 0.07209 0.57536 0.0
C187 C 0.03096 0.18064 0.53373 0.0
C188 C 0.05176 0.14157 0.51745 0.0
H189 H 0.97368 0.21108 0.57414 0.0
H190 H 0.04662 0.21107 0.52262 0.0
C191 C 0.03056 0.10266 0.53248 0.0
C192 C 0.26032 0.24733 0.31777 0.0
C193 C 0.21911 0.23361 0.30055 0.0
H194 H 0.31602 0.27812 0.2717 0.0
C195 C 0.20095 0.24423 0.2241 0.0
H196 H 0.27531 0.23886 0.37554 0.0
C197 C 0.2239 0.26752 0.16534 0.0
C198 C 0.26596 0.27897 0.18081 0.0
H199 H 0.1694 0.23345 0.209 0.0
H200 H 0.20945 0.27478 0.10647 0.0
C201 C 0.28375 0.26922 0.25795 0.0
C202 C 0.70115 0.26174 0.3725 0.0
C203 C 0.7193 0.27225 0.2961 0.0
H204 H 0.70962 0.23125 0.49024 0.0
C205 C 0.76044 0.25834 0.27906 0.0
H206 H 0.66965 0.27265 0.38744 0.0
C207 C 0.78382 0.23641 0.33903 0.0
C208 C 0.76604 0.22679 0.41612 0.0
H209 H 0.77541 0.26672 0.22133 0.0
H210 H 0.81604 0.22738 0.32544 0.0
C211 C 0.72404 0.2384 0.43141 0.0
C212 C 0.81929 0.76157 0.22259 0.0
C213 C 0.80118 0.77205 0.29906 0.0
H214 H 0.81073 0.73119 0.10468 0.0
C215 C 0.76002 0.75819 0.31607 0.0
H216 H 0.8508 0.77245 0.20766 0.0
C217 C 0.73659 0.73634 0.25601 0.0
C218 C 0.75432 0.72677 0.17885 0.0
H219 H 0.74508 0.76655 0.37385 0.0
H220 H 0.70435 0.72735 0.26959 0.0
C221 C 0.79634 0.73832 0.16358 0.0
C222 C 0.23665 0.76927 0.33951 0.0
C223 C 0.25441 0.77899 0.41672 0.0
H224 H 0.24515 0.73901 0.22179 0.0
C225 C 0.29648 0.76761 0.43218 0.0
H226 H 0.20437 0.77813 0.32578 0.0
C227 C 0.31947 0.74441 0.37332 0.0
C228 C 0.30134 0.73381 0.2968 0.0
H229 H 0.31089 0.77485 0.4911 0.0
H230 H 0.35103 0.73367 0.3884 0.0
C231 C 0.26012 0.74748 0.2796 0.0
C232 C 0.26015 0.75802 0.77956 0.0
C233 C 0.21901 0.7719 0.79664 0.0
H234 H 0.31581 0.72717 0.82591 0.0
C235 C 0.20091 0.76142 0.8731 0.0
H236 H 0.27509 0.76638 0.72178 0.0
C237 C 0.22386 0.73816 0.93203 0.0
C238 C 0.26587 0.7266 0.9167 0.0
H239 H 0.16941 0.77231 0.88809 0.0
H240 H 0.20948 0.73104 0.99093 0.0
C241 C 0.28359 0.73617 0.83954 0.0
C242 C 0.31929 0.26129 0.72459 0.0
C243 C 0.30112 0.27188 0.80094 0.0
H244 H 0.3108 0.23079 0.60679 0.0
C245 C 0.25992 0.25811 0.81786 0.0
H246 H 0.35083 0.2721 0.70973 0.0
C247 C 0.23651 0.23624 0.75781 0.0
C248 C 0.25431 0.22655 0.68075 0.0
H249 H 0.24493 0.26658 0.87555 0.0
H250 H 0.20425 0.22732 0.7713 0.0
C251 C 0.29636 0.23801 0.6656 0.0
C252 C 0.79645 0.26759 0.93155 0.0
C253 C 0.75438 0.27901 0.91613 0.0
H254 H 0.85094 0.23354 0.88777 0.0
C255 C 0.73657 0.26924 0.83899 0.0
H256 H 0.8109 0.27486 0.99042 0.0
C257 C 0.75999 0.24737 0.7791 0.0
C258 C 0.80121 0.23367 0.79626 0.0
H259 H 0.7043 0.27813 0.82528 0.0
H260 H 0.745 0.23888 0.72133 0.0
C261 C 0.81938 0.24431 0.87272 0.0
C262 C 0.70081 0.74414 0.72208 0.0
C263 C 0.7189 0.73365 0.79867 0.0
H264 H 0.70939 0.77455 0.60434 0.0
C265 C 0.76006 0.7475 0.81601 0.0
H266 H 0.6693 0.73327 0.70689 0.0
C267 C 0.78351 0.76935 0.75619 0.0
C268 C 0.76579 0.77896 0.67893 0.0
H269 H 0.77499 0.73914 0.87389 0.0
H270 H 0.81574 0.77834 0.77004 0.0
C271 C 0.72377 0.7674 0.66331 0.0
loop_
_geom_bond_atom_site_label_1
_geom_bond_atom_site_label_2
_geom_bond_distance
_geom_bond_site_symmetry_2
_ccdc_geom_bond_type
Co0 O1 2.216 . S
Co0 O2 2.091 . S
Co0 O4 2.004 . S
Co0 O10 2.021 1_554 S
Co0 O12 2.137 . S
Co0 O13 2.244 1_554 S
O1 Co0 2.216 . S
O1 C8 1.247 . S
O2 Co0 2.091 . S
O2 C8 1.261 . S
C3 O12 1.247 . S
C3 O13 1.272 1_554 S
O4 Co0 2.004 . S
O4 C9 1.259 1_554 S
Co5 O6 2.061 . S
Co5 O11 2.052 . S
Co5 O13 2.135 . S
O6 Co5 2.061 . S
O6 C9 1.235 . S
C7 O10 1.238 . S
C7 O11 1.241 . S
C8 O1 1.247 . S
C8 O2 1.261 . S
C9 O4 1.259 1_556 S
C9 O6 1.235 . S
O10 Co0 2.021 1_556 S
O10 C7 1.238 . S
O11 Co5 2.052 . S
O11 C7 1.241 . S
O12 Co0 2.137 . S
O12 C3 1.247 . S
O13 Co0 2.244 1_556 S
O13 C3 1.272 1_556 S
O13 Co5 2.135 . S
Co14 O15 2.216 . S
Co14 O16 2.091 . S
Co14 O18 2.004 . S
Co14 O24 2.021 1_556 S
Co14 O26 2.137 . S
Co14 O27 2.244 1_556 S
O15 Co14 2.216 . S
O15 C22 1.247 . S
O16 Co14 2.091 . S
O16 C22 1.261 . S
C17 O26 1.247 . S
C17 O27 1.272 1_556 S
O18 Co14 2.004 . S
O18 C23 1.259 1_556 S
Co19 O20 2.061 . S
Co19 O25 2.052 . S
Co19 O27 2.135 . S
O20 Co19 2.061 . S
O20 C23 1.235 . S
C21 O24 1.238 . S
C21 O25 1.241 . S
C22 O15 1.247 . S
C22 O16 1.261 . S
C23 O18 1.259 1_554 S
C23 O20 1.235 . S
O24 Co14 2.021 1_554 S
O24 C21 1.238 . S
O25 Co19 2.052 . S
O25 C21 1.241 . S
O26 Co14 2.137 . S
O26 C17 1.247 . S
O27 Co14 2.244 1_554 S
O27 C17 1.272 1_554 S
O27 Co19 2.135 . S
Co28 O29 2.216 . S
Co28 O30 2.091 . S
Co28 O32 2.004 . S
Co28 O38 2.021 1_554 S
Co28 O40 2.137 . S
Co28 O41 2.244 1_554 S
O29 Co28 2.216 . S
O29 C36 1.247 . S
O30 Co28 2.091 . S
O30 C36 1.261 . S
C31 O40 1.247 . S
C31 O41 1.272 1_554 S
O32 Co28 2.004 . S
O32 C37 1.259 1_554 S
Co33 O34 2.061 . S
Co33 O39 2.052 . S
Co33 O41 2.135 . S
O34 Co33 2.061 . S
O34 C37 1.235 . S
C35 O38 1.238 . S
C35 O39 1.241 . S
C36 O29 1.247 . S
C36 O30 1.261 . S
C37 O32 1.259 1_556 S
C37 O34 1.235 . S
O38 Co28 2.021 1_556 S
O38 C35 1.238 . S
O39 Co33 2.052 . S
O39 C35 1.241 . S
O40 Co28 2.137 . S
O40 C31 1.247 . S
O41 Co28 2.244 1_556 S
O41 C31 1.272 1_556 S
O41 Co33 2.135 . S
Co42 O43 2.216 . S
Co42 O44 2.091 . S
Co42 O46 2.004 . S
Co42 O52 2.021 1_556 S
Co42 O54 2.137 . S
Co42 O55 2.244 1_556 S
O43 Co42 2.216 . S
O43 C50 1.247 . S
O44 Co42 2.091 . S
O44 C50 1.261 . S
C45 O54 1.247 . S
C45 O55 1.272 1_556 S
O46 Co42 2.004 . S
O46 C51 1.259 1_556 S
Co47 O48 2.061 . S
Co47 O53 2.052 . S
Co47 O55 2.135 . S
O48 Co47 2.061 . S
O48 C51 1.235 . S
C49 O52 1.238 . S
C49 O53 1.241 . S
C50 O43 1.247 . S
C50 O44 1.261 . S
C51 O46 1.259 1_554 S
C51 O48 1.235 . S
O52 Co42 2.021 1_554 S
O52 C49 1.238 . S
O53 Co47 2.052 . S
O53 C49 1.241 . S
O54 Co42 2.137 . S
O54 C45 1.247 . S
O55 Co42 2.244 1_554 S
O55 C45 1.272 1_554 S
O55 Co47 2.135 . S
Co56 O57 2.216 . S
Co56 O58 2.091 . S
Co56 O60 2.004 . S
Co56 O66 2.021 . S
Co56 O68 2.137 . S
Co56 O69 2.244 . S
O57 Co56 2.216 . S
O57 C64 1.247 . S
O58 Co56 2.091 . S
O58 C64 1.261 . S
C59 O68 1.247 . S
C59 O69 1.272 . S
O60 Co56 2.004 . S
O60 C65 1.259 . S
Co61 O62 2.061 . S
Co61 O67 2.052 . S
Co61 O69 2.135 . S
O62 Co61 2.061 . S
O62 C65 1.235 . S
C63 O66 1.238 . S
C63 O67 1.241 . S
C64 O57 1.247 . S
C64 O58 1.261 . S
C65 O60 1.259 . S
C65 O62 1.235 . S
O66 Co56 2.021 . S
O66 C63 1.238 . S
O67 Co61 2.052 . S
O67 C63 1.241 . S
O68 Co56 2.137 . S
O68 C59 1.247 . S
O69 Co56 2.244 . S
O69 C59 1.272 . S
O69 Co61 2.135 . S
Co70 O71 2.216 . S
Co70 O72 2.091 . S
Co70 O74 2.004 . S
Co70 O80 2.021 . S
Co70 O82 2.137 . S
Co70 O83 2.244 . S
O71 Co70 2.216 . S
O71 C78 1.247 . S
O72 Co70 2.091 . S
O72 C78 1.261 . S
C73 O82 1.247 . S
C73 O83 1.272 . S
O74 Co70 2.004 . S
O74 C79 1.259 . S
Co75 O76 2.061 . S
Co75 O81 2.052 . S
Co75 O83 2.135 . S
O76 Co75 2.061 . S
O76 C79 1.235 . S
C77 O80 1.238 . S
C77 O81 1.241 . S
C78 O71 1.247 . S
C78 O72 1.261 . S
C79 O74 1.259 . S
C79 O76 1.235 . S
O80 Co70 2.021 . S
O80 C77 1.238 . S
O81 Co75 2.052 . S
O81 C77 1.241 . S
O82 Co70 2.137 . S
O82 C73 1.247 . S
O83 Co70 2.244 . S
O83 C73 1.272 . S
O83 Co75 2.135 . S
Co84 O85 2.216 . S
Co84 O86 2.091 . S
Co84 O88 2.004 . S
Co84 O94 2.021 . S
Co84 O96 2.137 . S
Co84 O97 2.244 . S
O85 Co84 2.216 . S
O85 C92 1.247 . S
O86 Co84 2.091 . S
O86 C92 1.261 . S
C87 O96 1.247 . S
C87 O97 1.272 . S
O88 Co84 2.004 . S
O88 C93 1.259 . S
Co89 O90 2.061 . S
Co89 O95 2.052 . S
Co89 O97 2.135 . S
O90 Co89 2.061 . S
O90 C93 1.235 . S
C91 O94 1.238 . S
C91 O95 1.241 . S
C92 O85 1.247 . S
C92 O86 1.261 . S
C93 O88 1.259 . S
C93 O90 1.235 . S
O94 Co84 2.021 . S
O94 C91 1.238 . S
O95 Co89 2.052 . S
O95 C91 1.241 . S
O96 Co84 2.137 . S
O96 C87 1.247 . S
O97 Co84 2.244 . S
O97 C87 1.272 . S
O97 Co89 2.135 . S
Co98 O99 2.216 . S
Co98 O100 2.091 . S
Co98 O102 2.004 . S
Co98 O108 2.021 . S
Co98 O110 2.137 . S
Co98 O111 2.244 . S
O99 Co98 2.216 . S
O99 C106 1.247 . S
O100 Co98 2.091 . S
O100 C106 1.261 . S
C101 O110 1.247 . S
C101 O111 1.272 . S
O102 Co98 2.004 . S
O102 C107 1.259 . S
Co103 O104 2.061 . S
Co103 O109 2.052 . S
Co103 O111 2.135 . S
O104 Co103 2.061 . S
O104 C107 1.235 . S
C105 O108 1.238 . S
C105 O109 1.241 . S
C106 O99 1.247 . S
C106 O100 1.261 . S
C107 O102 1.259 . S
C107 O104 1.235 . S
O108 Co98 2.021 . S
O108 C105 1.238 . S
O109 Co103 2.052 . S
O109 C105 1.241 . S
O110 Co98 2.137 . S
O110 C101 1.247 . S
O111 Co98 2.244 . S
O111 C101 1.272 . S
O111 Co103 2.135 . S
C112 C113 1.387 . S
C112 H116 0.950 . S
C112 C121 1.390 . S
C113 C112 1.387 . S
C113 C115 1.387 . S
H114 C121 0.950 . S
C115 C113 1.387 . S
C115 C117 1.390 . S
C115 H119 0.950 . S
H116 C112 0.950 . S
C117 C115 1.390 . S
C117 C118 1.387 . S
C117 H120 0.950 . S
C118 C117 1.387 . S
C118 C121 1.387 . S
H119 C115 0.950 . S
H120 C117 0.950 . S
C121 C112 1.390 . S
C121 H114 0.950 . S
C121 C118 1.387 . S
C122 C123 1.387 . S
C122 H126 0.950 . S
C122 C131 1.390 . S
C123 C122 1.387 . S
C123 C125 1.387 . S
H124 C131 0.950 . S
C125 C123 1.387 . S
C125 C127 1.390 . S
C125 H129 0.950 . S
H126 C122 0.950 . S
C127 C125 1.390 . S
C127 C128 1.387 . S
C127 H130 0.950 . S
C128 C127 1.387 . S
C128 C131 1.387 . S
H129 C125 0.950 . S
H130 C127 0.950 . S
C131 C122 1.390 . S
C131 H124 0.950 . S
C131 C128 1.387 . S
C132 C133 1.387 . S
C132 H136 0.950 . S
C132 C141 1.390 . S
C133 C132 1.387 . S
C133 C135 1.387 . S
H134 C141 0.950 . S
C135 C133 1.387 . S
C135 C137 1.390 . S
C135 H139 0.950 . S
H136 C132 0.950 . S
C137 C135 1.390 . S
C137 C138 1.387 . S
C137 H140 0.950 . S
C138 C137 1.387 . S
C138 C141 1.387 . S
H139 C135 0.950 . S
H140 C137 0.950 . S
C141 C132 1.390 . S
C141 H134 0.950 . S
C141 C138 1.387 . S
C142 C143 1.387 . S
C142 H146 0.950 . S
C142 C151 1.390 . S
C143 C142 1.387 . S
C143 C145 1.387 . S
H144 C151 0.950 . S
C145 C143 1.387 . S
C145 C147 1.390 . S
C145 H149 0.950 . S
H146 C142 0.950 . S
C147 C145 1.390 . S
C147 C148 1.387 . S
C147 H150 0.950 . S
C148 C147 1.387 . S
C148 C151 1.387 . S
H149 C145 0.950 . S
H150 C147 0.950 . S
C151 C142 1.390 . S
C151 H144 0.950 . S
C151 C148 1.387 . S
C152 C153 1.387 . S
C152 H156 0.950 . S
C152 C161 1.390 1_565 S
C153 C152 1.387 . S
C153 C155 1.387 . S
H154 C161 0.950 . S
C155 C153 1.387 . S
C155 C157 1.390 1_565 S
C155 H159 0.950 . S
H156 C152 0.950 . S
C157 C155 1.390 1_545 S
C157 C158 1.387 . S
C157 H160 0.950 . S
C158 C157 1.387 . S
C158 C161 1.387 . S
H159 C155 0.950 . S
H160 C157 0.950 . S
C161 C152 1.390 1_545 S
C161 H154 0.950 . S
C161 C158 1.387 . S
C162 C163 1.387 . S
C162 H166 0.950 . S
C162 C171 1.390 1_455 S
C163 C162 1.387 . S
C163 C165 1.387 . S
H164 C171 0.950 . S
C165 C163 1.387 . S
C165 C167 1.390 1_455 S
C165 H169 0.950 . S
H166 C162 0.950 . S
C167 C165 1.390 1_655 S
C167 C168 1.387 . S
C167 H170 0.950 . S
C168 C167 1.387 . S
C168 C171 1.387 . S
H169 C165 0.950 . S
H170 C167 0.950 . S
C171 C162 1.390 1_655 S
C171 H164 0.950 . S
C171 C168 1.387 . S
C172 C173 1.387 . S
C172 H176 0.950 . S
C172 C181 1.390 1_545 S
C173 C172 1.387 . S
C173 C175 1.387 . S
H174 C181 0.950 . S
C175 C173 1.387 . S
C175 C177 1.390 1_545 S
C175 H179 0.950 . S
H176 C172 0.950 . S
C177 C175 1.390 1_565 S
C177 C178 1.387 . S
C177 H180 0.950 . S
C178 C177 1.387 . S
C178 C181 1.387 . S
H179 C175 0.950 . S
H180 C177 0.950 . S
C181 C172 1.390 1_565 S
C181 H174 0.950 . S
C181 C178 1.387 . S
C182 C183 1.387 . S
C182 H186 0.950 . S
C182 C191 1.390 1_655 S
C183 C182 1.387 . S
C183 C185 1.387 . S
H184 C191 0.950 . S
C185 C183 1.387 . S
C185 C187 1.390 1_655 S
C185 H189 0.950 . S
H186 C182 0.950 . S
C187 C185 1.390 1_455 S
C187 C188 1.387 . S
C187 H190 0.950 . S
C188 C187 1.387 . S
C188 C191 1.387 . S
H189 C185 0.950 . S
H190 C187 0.950 . S
C191 C182 1.390 1_455 S
C191 H184 0.950 . S
C191 C188 1.387 . S
C192 C193 1.387 . S
C192 H196 0.950 . S
C192 C201 1.390 . S
C193 C192 1.387 . S
C193 C195 1.387 . S
H194 C201 0.950 . S
C195 C193 1.387 . S
C195 C197 1.390 . S
C195 H199 0.950 . S
H196 C192 0.950 . S
C197 C195 1.390 . S
C197 C198 1.387 . S
C197 H200 0.950 . S
C198 C197 1.387 . S
C198 C201 1.387 . S
H199 C195 0.950 . S
H200 C197 0.950 . S
C201 C192 1.390 . S
C201 H194 0.950 . S
C201 C198 1.387 . S
C202 C203 1.387 . S
C202 H206 0.950 . S
C202 C211 1.390 . S
C203 C202 1.387 . S
C203 C205 1.387 . S
H204 C211 0.950 . S
C205 C203 1.387 . S
C205 C207 1.390 . S
C205 H209 0.950 . S
H206 C202 0.950 . S
C207 C205 1.390 . S
C207 C208 1.387 . S
C207 H210 0.950 . S
C208 C207 1.387 . S
C208 C211 1.387 . S
H209 C205 0.950 . S
H210 C207 0.950 . S
C211 C202 1.390 . S
C211 H204 0.950 . S
C211 C208 1.387 . S
C212 C213 1.387 . S
C212 H216 0.950 . S
C212 C221 1.390 . S
C213 C212 1.387 . S
C213 C215 1.387 . S
H214 C221 0.950 . S
C215 C213 1.387 . S
C215 C217 1.390 . S
C215 H219 0.950 . S
H216 C212 0.950 . S
C217 C215 1.390 . S
C217 C218 1.387 . S
C217 H220 0.950 . S
C218 C217 1.387 . S
C218 C221 1.387 . S
H219 C215 0.950 . S
H220 C217 0.950 . S
C221 C212 1.390 . S
C221 H214 0.950 . S
C221 C218 1.387 . S
C222 C223 1.387 . S
C222 H226 0.950 . S
C222 C231 1.390 . S
C223 C222 1.387 . S
C223 C225 1.387 . S
H224 C231 0.950 . S
C225 C223 1.387 . S
C225 C227 1.390 . S
C225 H229 0.950 . S
H226 C222 0.950 . S
C227 C225 1.390 . S
C227 C228 1.387 . S
C227 H230 0.950 . S
C228 C227 1.387 . S
C228 C231 1.387 . S
H229 C225 0.950 . S
H230 C227 0.950 . S
C231 C222 1.390 . S
C231 H224 0.950 . S
C231 C228 1.387 . S
C232 C233 1.387 . S
C232 H236 0.950 . S
C232 C241 1.390 . S
C233 C232 1.387 . S
C233 C235 1.387 . S
H234 C241 0.950 . S
C235 C233 1.387 . S
C235 C237 1.390 . S
C235 H239 0.950 . S
H236 C232 0.950 . S
C237 C235 1.390 . S
C237 C238 1.387 . S
C237 H240 0.950 . S
C238 C237 1.387 . S
C238 C241 1.387 . S
H239 C235 0.950 . S
H240 C237 0.950 . S
C241 C232 1.390 . S
C241 H234 0.950 . S
C241 C238 1.387 . S
C242 C243 1.387 . S
C242 H246 0.950 . S
C242 C251 1.390 . S
C243 C242 1.387 . S
C243 C245 1.387 . S
H244 C251 0.950 . S
C245 C243 1.387 . S
C245 C247 1.390 . S
C245 H249 0.950 . S
H246 C242 0.950 . S
C247 C245 1.390 . S
C247 C248 1.387 . S
C247 H250 0.950 . S
C248 C247 1.387 . S
C248 C251 1.387 . S
H249 C245 0.950 . S
H250 C247 0.950 . S
C251 C242 1.390 . S
C251 H244 0.950 . S
C251 C248 1.387 . S
C252 C253 1.387 . S
C252 H256 0.950 . S
C252 C261 1.390 . S
C253 C252 1.387 . S
C253 C255 1.387 . S
H254 C261 0.950 . S
C255 C253 1.387 . S
C255 C257 1.390 . S
C255 H259 0.950 . S
H256 C252 0.950 . S
C257 C255 1.390 . S
C257 C258 1.387 . S
C257 H260 0.950 . S
C258 C257 1.387 . S
C258 C261 1.387 . S
H259 C255 0.950 . S
H260 C257 0.950 . S
C261 C252 1.390 . S
C261 H254 0.950 . S
C261 C258 1.387 . S
C262 C263 1.387 . S
C262 H266 0.950 . S
C262 C271 1.390 . S
C263 C262 1.387 . S
C263 C265 1.387 . S
H264 C271 0.950 . S
C265 C263 1.387 . S
C265 C267 1.390 . S
C265 H269 0.950 . S
H266 C262 0.950 . S
C267 C265 1.390 . S
C267 C268 1.387 . S
C267 H270 0.950 . S
C268 C267 1.387 . S
C268 C271 1.387 . S
H269 C265 0.950 . S
H270 C267 0.950 . S
C271 C262 1.390 . S
C271 H264 0.950 . S
C271 C268 1.387 . S
C113 C3 1.563 . S
C118 C45 1.563 1_554 S
C123 C9 1.575 1_554 S
C128 C23 1.575 . S
C133 C17 1.563 1_554 S
C138 C31 1.563 . S
C143 C51 1.574 . S
C148 C37 1.574 1_554 S
C153 C59 1.565 . S
C158 C101 1.565 . S
C163 C79 1.574 . S
C168 C65 1.574 . S
C173 C87 1.563 . S
C178 C73 1.563 . S
C183 C107 1.575 . S
C188 C93 1.575 . S
C193 C91 1.470 . S
C198 C8 1.501 . S
C203 C21 1.469 . S
C208 C106 1.500 . S
C213 C63 1.468 . S
C218 C36 1.500 . S
C223 C78 1.501 . S
C228 C49 1.469 . S
C233 C77 1.469 . S
C238 C50 1.500 . S
C243 C7 1.469 . S
C248 C92 1.501 . S
C253 C22 1.500 . S
C258 C105 1.468 . S
C263 C35 1.468 . S
C268 C64 1.501 . S
