# Generated by pormake.
# Topology wiv, (6)-cn, num edge types: 1
# Building blocks:
#     Node 0, Type 0, BuildingBlock: VOLQOD_clean_sbu_1, # of connection points: 6
#     Node 1, Type 0, BuildingBlock: VOLQOD_clean_sbu_1, # of connection points: 6
#     Node 2, Type 0, BuildingBlock: VOLQOD_clean_sbu_1, # of connection points: 6
#     Node 3, Type 0, BuildingBlock: VOLQOD_clean_sbu_1, # of connection points: 6
#     Node 4, Type 0, BuildingBlock: VOLQOD_clean_sbu_1, # of connection points: 6
#     Node 5, Type 0, BuildingBlock: VOLQOD_clean_sbu_1, # of connection points: 6
#     Node 6, Type 0, BuildingBlock: VOLQOD_clean_sbu_1, # of connection points: 6
#     Node 7, Type 0, BuildingBlock: VOLQOD_clean_sbu_1, # of connection points: 6
#     Node 8, Type 0, BuildingBlock: VOLQOD_clean_sbu_1, # of connection points: 6
#     Node 9, Type 0, BuildingBlock: VOLQOD_clean_sbu_1, # of connection points: 6
#     Node 10, Type 0, BuildingBlock: VOLQOD_clean_sbu_1, # of connection points: 6
#     Node 11, Type 0, BuildingBlock: VOLQOD_clean_sbu_1, # of connection points: 6
#     Node 12, Type 0, BuildingBlock: VOLQOD_clean_sbu_1, # of connection points: 6
#     Node 13, Type 0, BuildingBlock: VOLQOD_clean_sbu_1, # of connection points: 6
#     Node 14, Type 0, BuildingBlock: VOLQOD_clean_sbu_1, # of connection points: 6
#     Node 15, Type 0, BuildingBlock: VOLQOD_clean_sbu_1, # of connection points: 6
#     Edge 16, Type (0, 0), None
#     Edge 17, Type (0, 0), None
#     Edge 18, Type (0, 0), None
#     Edge 19, Type (0, 0), None
#     Edge 20, Type (0, 0), None
#     Edge 21, Type (0, 0), None
#     Edge 22, Type (0, 0), None
#     Edge 23, Type (0, 0), None
#     Edge 24, Type (0, 0), None
#     Edge 25, Type (0, 0), None
#     Edge 26, Type (0, 0), None
#     Edge 27, Type (0, 0), None
#     Edge 28, Type (0, 0), None
#     Edge 29, Type (0, 0), None
#     Edge 30, Type (0, 0), None
#     Edge 31, Type (0, 0), None
#     Edge 32, Type (0, 0), None
#     Edge 33, Type (0, 0), None
#     Edge 34, Type (0, 0), None
#     Edge 35, Type (0, 0), None
#     Edge 36, Type (0, 0), None
#     Edge 37, Type (0, 0), None
#     Edge 38, Type (0, 0), None
#     Edge 39, Type (0, 0), None
#     Edge 40, Type (0, 0), None
#     Edge 41, Type (0, 0), None
#     Edge 42, Type (0, 0), None
#     Edge 43, Type (0, 0), None
#     Edge 44, Type (0, 0), None
#     Edge 45, Type (0, 0), None
#     Edge 46, Type (0, 0), None
#     Edge 47, Type (0, 0), None
#     Edge 48, Type (0, 0), None
#     Edge 49, Type (0, 0), None
#     Edge 50, Type (0, 0), None
#     Edge 51, Type (0, 0), None
#     Edge 52, Type (0, 0), None
#     Edge 53, Type (0, 0), None
#     Edge 54, Type (0, 0), None
#     Edge 55, Type (0, 0), None
#     Edge 56, Type (0, 0), None
#     Edge 57, Type (0, 0), None
#     Edge 58, Type (0, 0), None
#     Edge 59, Type (0, 0), None
#     Edge 60, Type (0, 0), None
#     Edge 61, Type (0, 0), None
#     Edge 62, Type (0, 0), None
#     Edge 63, Type (0, 0), None
# Relax obj value: 0.194
# Max RMSD: 0.163
# Mean RMSD: 0.160
data_MOF--net-wiv--node1-VOLQOD_clean_sbu_1--edge1-none
_symmetry_space_group_name_H-M    P1
_symmetry_Int_Tables_number       1
_symmetry_cell_setting            triclinic
loop_
_symmetry_equiv_pos_as_xyz
'x, y, z'
_cell_length_a     33.88187
_cell_length_b     33.336676
_cell_length_c     8.1695262
_cell_angle_alpha  89.999839
_cell_angle_beta   89.997539
_cell_angle_gamma 89.999356
loop_
_atom_site_label
_atom_site_type_symbol
_atom_site_fract_x
_atom_site_fract_y
_atom_site_fract_z
_atom_type_partial_charge
O0 O 0.36019 0.12996 0.74973 0.0
Zn1 Zn 0.37548 0.13793 0.98317 0.0
O2 O 0.34032 0.10148 0.08587 0.0
Zn3 Zn 0.29573 0.12903 0.17774 0.0
Zn4 Zn 0.31929 0.05681 0.96758 0.0
Zn5 Zn 0.37206 0.08062 0.25431 0.0
O6 O 0.29997 0.10937 0.42451 0.0
O7 O 0.36446 0.11976 0.42025 0.0
O8 O 0.36022 0.19422 0.03179 0.0
O9 O 0.30395 0.18959 0.17011 0.0
O10 O 0.24896 0.11954 0.00919 0.0
O11 O 0.261 0.0573 0.93186 0.0
O12 O 0.33274 0.00419 0.09261 0.0
O13 O 0.43356 0.13397 0.07013 0.0
O14 O 0.3575 0.02581 0.3297 0.0
O15 O 0.42903 0.08055 0.22916 0.0
C16 C 0.33965 0.10409 0.67142 0.0
C17 C 0.33361 0.1118 0.49827 0.0
C18 C 0.24079 0.08916 0.91898 0.0
C19 C 0.33106 0.2104 0.10323 0.0
C20 C 0.34442 -0.00229 0.24035 0.0
C21 C 0.44906 0.10902 0.17063 0.0
O22 O 0.33041 0.06989 0.73169 0.0
O23 O 0.05275 0.5992 0.19108 0.0
Zn24 Zn 0.05577 0.57951 0.94809 0.0
O25 O 0.09272 0.61682 0.85646 0.0
Zn26 Zn 0.06473 0.66012 0.7499 0.0
Zn27 Zn 0.12547 0.63519 0.02881 0.0
Zn28 Zn 0.12973 0.58975 0.7268 0.0
O29 O 0.07622 0.65134 0.49923 0.0
O30 O 0.10862 0.59345 0.51588 0.0
O31 O 0.00418 0.58635 0.82342 0.0
O32 O 0.00688 0.64783 0.72001 0.0
O33 O 0.07072 0.71123 0.91359 0.0
O34 O 0.10552 0.68579 0.12083 0.0
O35 O 0.18341 0.63728 -0.01384 0.0
O36 O 0.07419 0.52111 0.89214 0.0
O37 O 0.18516 0.61029 0.73872 0.0
O38 O 0.12872 0.53151 0.74605 0.0
C39 C 0.08507 0.60767 0.26435 0.0
C40 C 0.08714 0.61744 0.43767 0.0
C41 C 0.08401 0.7133 0.06264 0.0
C42 C -0.0108 0.61447 0.73728 0.0
C43 C 0.2023 0.62706 0.8589 0.0
C44 C 0.10286 0.50811 0.80383 0.0
O45 O 0.11732 0.59773 0.19854 0.0
O46 O 0.58728 0.83448 0.74976 0.0
Zn47 Zn 0.57199 0.8265 0.98319 0.0
O48 O 0.60715 0.86295 0.0859 0.0
Zn49 Zn 0.65174 0.8354 0.17776 0.0
Zn50 Zn 0.62818 0.90762 0.9676 0.0
Zn51 Zn 0.57541 0.88381 0.25435 0.0
O52 O 0.64751 0.85506 0.42451 0.0
O53 O 0.58301 0.84468 0.42029 0.0
O54 O 0.58725 0.77021 0.03183 0.0
O55 O 0.64352 0.77484 0.17013 0.0
O56 O 0.69851 0.84489 0.00919 0.0
O57 O 0.68648 0.90713 0.93189 0.0
O58 O 0.61472 0.96024 0.09263 0.0
O59 O 0.51391 0.83046 0.07013 0.0
O60 O 0.58997 0.93862 0.32972 0.0
O61 O 0.51845 0.88388 0.22921 0.0
C62 C 0.60783 0.86035 0.67145 0.0
C63 C 0.61386 0.85263 0.49829 0.0
C64 C 0.70668 0.87528 0.91899 0.0
C65 C 0.61641 0.75403 0.10326 0.0
C66 C 0.60305 0.96673 0.24036 0.0
C67 C 0.49841 0.85541 0.17065 0.0
O68 O 0.61706 0.89454 0.73171 0.0
O69 O 0.89472 0.36524 0.19107 0.0
Zn70 Zn 0.89169 0.38493 0.94808 0.0
O71 O 0.85475 0.34762 0.85647 0.0
Zn72 Zn 0.88273 0.30431 0.74989 0.0
Zn73 Zn 0.82199 0.32924 0.02881 0.0
Zn74 Zn 0.81774 0.37469 0.72681 0.0
O75 O 0.87125 0.31309 0.49923 0.0
O76 O 0.83885 0.37099 0.51589 0.0
O77 O 0.94328 0.37808 0.82342 0.0
O78 O 0.94059 0.31661 0.72 0.0
O79 O 0.87675 0.2532 0.91357 0.0
O80 O 0.84194 0.27864 0.12082 0.0
O81 O 0.76406 0.32714 -0.01384 0.0
O82 O 0.87327 0.44332 0.89212 0.0
O83 O 0.76231 0.35415 0.73872 0.0
O84 O 0.81875 0.43292 0.74606 0.0
C85 C 0.86239 0.35676 0.26435 0.0
C86 C 0.86033 0.34699 0.43767 0.0
C87 C 0.86346 0.25114 0.06264 0.0
C88 C 0.95827 0.34996 0.73728 0.0
C89 C 0.74517 0.33737 0.8589 0.0
C90 C 0.8446 0.45632 0.80383 0.0
O91 O 0.83014 0.3667 0.19856 0.0
O92 O 0.36018 0.33448 0.47165 0.0
Zn93 Zn 0.37548 0.32651 0.23822 0.0
O94 O 0.34031 0.36296 0.13551 0.0
Zn95 Zn 0.29573 0.3354 0.04365 0.0
Zn96 Zn 0.31928 0.40763 0.25381 0.0
Zn97 Zn 0.37206 0.38381 0.96706 0.0
O98 O 0.29996 0.35507 0.7969 0.0
O99 O 0.36446 0.34468 0.80112 0.0
O100 O 0.36022 0.27021 0.1896 0.0
O101 O 0.30395 0.27485 0.05129 0.0
O102 O 0.24896 0.34489 0.21222 0.0
O103 O 0.26099 0.40713 0.28952 0.0
O104 O 0.33274 0.46024 0.12878 0.0
O105 O 0.43356 0.33047 0.15128 0.0
O106 O 0.3575 0.43862 0.89169 0.0
O107 O 0.42902 0.38388 -0.0078 0.0
C108 C 0.33964 0.36035 0.54996 0.0
C109 C 0.33361 0.35264 0.72312 0.0
C110 C 0.24078 0.37528 0.30242 0.0
C111 C 0.33106 0.25403 0.11818 0.0
C112 C 0.34442 0.46673 0.98105 0.0
C113 C 0.44905 0.35541 0.05076 0.0
O114 O 0.3304 0.39454 0.4897 0.0
O115 O 0.39472 0.5992 0.53034 0.0
Zn116 Zn 0.3917 0.57951 0.77333 0.0
O117 O 0.35475 0.61681 0.86494 0.0
Zn118 Zn 0.38273 0.66012 0.97151 0.0
Zn119 Zn 0.322 0.63519 0.6926 0.0
Zn120 Zn 0.31774 0.58975 -0.00538 0.0
O121 O 0.37125 0.65134 0.22217 0.0
O122 O 0.33886 0.59344 0.20553 0.0
O123 O 0.44329 0.58635 0.89799 0.0
O124 O 0.44059 0.64782 0.0014 0.0
O125 O 0.37675 0.71123 0.80783 0.0
O126 O 0.34194 0.68579 0.60059 0.0
O127 O 0.26406 0.63728 0.73527 0.0
O128 O 0.37328 0.52111 0.82927 0.0
O129 O 0.26231 0.61029 0.98275 0.0
O130 O 0.31874 0.53151 0.97533 0.0
C131 C 0.3624 0.60767 0.45705 0.0
C132 C 0.36034 0.61744 0.28374 0.0
C133 C 0.36346 0.71329 0.65877 0.0
C134 C 0.45827 0.61447 0.98413 0.0
C135 C 0.24518 0.62707 0.86257 0.0
C136 C 0.3446 0.50811 0.91753 0.0
O137 O 0.33015 0.59773 0.52286 0.0
O138 O 0.58728 0.62995 0.47168 0.0
Zn139 Zn 0.57199 0.63793 0.23825 0.0
O140 O 0.60715 0.60147 0.13554 0.0
Zn141 Zn 0.65173 0.62903 0.04366 0.0
Zn142 Zn 0.62818 0.55681 0.25383 0.0
Zn143 Zn 0.57541 0.58062 0.9671 0.0
O144 O 0.6475 0.60937 0.7969 0.0
O145 O 0.583 0.61975 0.80116 0.0
O146 O 0.58725 0.69422 0.18963 0.0
O147 O 0.64352 0.68959 0.05131 0.0
O148 O 0.69851 0.61954 0.21221 0.0
O149 O 0.68648 0.5573 0.28955 0.0
O150 O 0.61473 0.50419 0.1288 0.0
O151 O 0.51391 0.63397 0.15128 0.0
O152 O 0.58997 0.52581 0.89171 0.0
O153 O 0.51844 0.58055 -0.00774 0.0
C154 C 0.60782 0.60408 0.54999 0.0
C155 C 0.61386 0.6118 0.72314 0.0
C156 C 0.70668 0.58916 0.30243 0.0
C157 C 0.61641 0.7104 0.11821 0.0
C158 C 0.60305 0.4977 0.98106 0.0
C159 C 0.49841 0.60902 0.05079 0.0
O160 O 0.61706 0.56989 0.48972 0.0
O161 O 0.55275 0.36524 0.53035 0.0
Zn162 Zn 0.55578 0.38493 0.77333 0.0
O163 O 0.59272 0.34762 0.86494 0.0
Zn164 Zn 0.56474 0.30431 0.97152 0.0
Zn165 Zn 0.62548 0.32924 0.6926 0.0
Zn166 Zn 0.62973 0.37469 -0.00539 0.0
O167 O 0.57622 0.31309 0.22218 0.0
O168 O 0.6086 0.371 0.20552 0.0
O169 O 0.50418 0.37809 0.898 0.0
O170 O 0.50688 0.31661 0.00142 0.0
O171 O 0.57072 0.2532 0.80784 0.0
O172 O 0.60553 0.27864 0.6006 0.0
O173 O 0.68341 0.32715 0.73526 0.0
O174 O 0.5742 0.44333 0.82929 0.0
O175 O 0.68515 0.35414 0.98274 0.0
O176 O 0.62873 0.43293 0.97532 0.0
C177 C 0.58507 0.35677 0.45705 0.0
C178 C 0.58713 0.34699 0.28374 0.0
C179 C 0.58401 0.25114 0.65878 0.0
C180 C 0.4892 0.34997 0.98414 0.0
C181 C 0.70229 0.33736 0.86257 0.0
C182 C 0.60288 0.45632 0.91753 0.0
O183 O 0.61733 0.36669 0.52284 0.0
O184 O 0.86019 0.62996 0.24972 0.0
Zn185 Zn 0.87548 0.63793 0.48316 0.0
O186 O 0.84032 0.60148 0.58586 0.0
Zn187 Zn 0.79573 0.62903 0.67774 0.0
Zn188 Zn 0.81929 0.55681 0.46757 0.0
Zn189 Zn 0.87206 0.58062 0.75431 0.0
O190 O 0.79997 0.60937 0.9245 0.0
O191 O 0.86447 0.61975 0.92025 0.0
O192 O 0.86022 0.69422 0.53179 0.0
O193 O 0.80395 0.68959 0.67011 0.0
O194 O 0.74896 0.61954 0.50919 0.0
O195 O 0.761 0.5573 0.43185 0.0
O196 O 0.83274 0.50419 0.5926 0.0
O197 O 0.93356 0.63397 0.57013 0.0
O198 O 0.8575 0.52581 0.82968 0.0
O199 O 0.92903 0.58055 0.72915 0.0
C200 C 0.83965 0.60408 0.17142 0.0
C201 C 0.83361 0.6118 -0.00174 0.0
C202 C 0.74079 0.58916 0.41898 0.0
C203 C 0.83106 0.7104 0.60323 0.0
C204 C 0.84442 0.4977 0.74033 0.0
C205 C 0.94906 0.60902 0.67062 0.0
O206 O 0.83041 0.56989 0.23168 0.0
O207 O 0.55275 0.0992 0.69107 0.0
Zn208 Zn 0.55577 0.07951 0.44808 0.0
O209 O 0.59272 0.11681 0.35646 0.0
Zn210 Zn 0.56474 0.16012 0.24989 0.0
Zn211 Zn 0.62547 0.13518 0.52882 0.0
Zn212 Zn 0.62974 0.08974 0.2268 0.0
O213 O 0.57622 0.15133 -0.00078 0.0
O214 O 0.60862 0.09344 0.01588 0.0
O215 O 0.50418 0.08635 0.32341 0.0
O216 O 0.50688 0.14783 0.22001 0.0
O217 O 0.57072 0.21123 0.41358 0.0
O218 O 0.60552 0.18578 0.62085 0.0
O219 O 0.68341 0.13727 0.48617 0.0
O220 O 0.57419 0.02111 0.39214 0.0
O221 O 0.68516 0.11028 0.23871 0.0
O222 O 0.62872 0.0315 0.24607 0.0
C223 C 0.58507 0.10765 0.76435 0.0
C224 C 0.58714 0.11743 0.93766 0.0
C225 C 0.58401 0.21328 0.56265 0.0
C226 C 0.4892 0.11447 0.23727 0.0
C227 C 0.7023 0.12706 0.3589 0.0
C228 C 0.60287 0.00811 0.30388 0.0
O229 O 0.61732 0.09772 0.69854 0.0
O230 O 0.08728 0.33448 0.24976 0.0
Zn231 Zn 0.07199 0.3265 0.48319 0.0
O232 O 0.10715 0.36296 0.58589 0.0
Zn233 Zn 0.15174 0.3354 0.67775 0.0
Zn234 Zn 0.12818 0.40762 0.4676 0.0
Zn235 Zn 0.07541 0.38381 0.75435 0.0
O236 O 0.14751 0.35506 0.92451 0.0
O237 O 0.08301 0.34468 0.92029 0.0
O238 O 0.08725 0.27021 0.53182 0.0
O239 O 0.14352 0.27484 0.67013 0.0
O240 O 0.19851 0.34489 0.50919 0.0
O241 O 0.18648 0.40713 0.43188 0.0
O242 O 0.11472 0.46024 0.59261 0.0
O243 O 0.01391 0.33046 0.57014 0.0
O244 O 0.08996 0.43862 0.82971 0.0
O245 O 0.01844 0.38388 0.7292 0.0
C246 C 0.10783 0.36035 0.17144 0.0
C247 C 0.11386 0.35263 -0.00171 0.0
C248 C 0.20668 0.37528 0.41899 0.0
C249 C 0.11641 0.25403 0.60325 0.0
C250 C 0.10305 0.46673 0.74034 0.0
C251 C -0.00159 0.35541 0.67064 0.0
O252 O 0.11706 0.39454 0.23171 0.0
O253 O 0.39472 0.86524 0.69106 0.0
Zn254 Zn 0.39169 0.88493 0.44807 0.0
O255 O 0.35475 0.84762 0.35647 0.0
Zn256 Zn 0.38273 0.80432 0.24988 0.0
Zn257 Zn 0.32199 0.82925 0.52882 0.0
Zn258 Zn 0.31773 0.87469 0.22681 0.0
O259 O 0.37125 0.8131 -0.00078 0.0
O260 O 0.33885 0.871 0.01589 0.0
O261 O 0.44329 0.87809 0.32341 0.0
O262 O 0.44059 0.81661 0.21999 0.0
O263 O 0.37675 0.75321 0.41357 0.0
O264 O 0.34195 0.77865 0.62084 0.0
O265 O 0.26406 0.82715 0.48617 0.0
O266 O 0.37327 0.94333 0.39212 0.0
O267 O 0.26231 0.85415 0.23872 0.0
O268 O 0.31874 0.93293 0.24608 0.0
C269 C 0.36239 0.85678 0.76435 0.0
C270 C 0.36033 0.847 0.93767 0.0
C271 C 0.36346 0.75115 0.56265 0.0
C272 C 0.45826 0.84997 0.23727 0.0
C273 C 0.24517 0.83737 0.3589 0.0
C274 C 0.34459 0.95633 0.30387 0.0
O275 O 0.33014 0.86671 0.69855 0.0
O276 O 0.86018 0.83448 0.97166 0.0
Zn277 Zn 0.87547 0.82651 0.73822 0.0
O278 O 0.84031 0.86296 0.63552 0.0
Zn279 Zn 0.79573 0.8354 0.54366 0.0
Zn280 Zn 0.81928 0.90762 0.75381 0.0
Zn281 Zn 0.87206 0.88381 0.46706 0.0
O282 O 0.79996 0.85506 0.2969 0.0
O283 O 0.86446 0.84468 0.30113 0.0
O284 O 0.86022 0.77021 0.6896 0.0
O285 O 0.80395 0.77484 0.55129 0.0
O286 O 0.74896 0.84489 0.71222 0.0
O287 O 0.76099 0.90713 0.78953 0.0
O288 O 0.83274 0.96024 0.62879 0.0
O289 O 0.93356 0.83046 0.65129 0.0
O290 O 0.8575 0.93862 0.3917 0.0
O291 O 0.92902 0.88388 0.49221 0.0
C292 C 0.83964 0.86035 0.04997 0.0
C293 C 0.83361 0.85263 0.22312 0.0
C294 C 0.74078 0.87528 0.80242 0.0
C295 C 0.83106 0.75403 0.61818 0.0
C296 C 0.84442 0.96673 0.48105 0.0
C297 C 0.94905 0.85541 0.55077 0.0
O298 O 0.8304 0.89454 -0.0103 0.0
O299 O 0.89473 0.09919 0.03035 0.0
Zn300 Zn 0.8917 0.0795 0.27334 0.0
O301 O 0.85475 0.11681 0.36495 0.0
Zn302 Zn 0.88273 0.16012 0.47152 0.0
Zn303 Zn 0.822 0.13518 0.1926 0.0
Zn304 Zn 0.81774 0.08974 0.49463 0.0
O305 O 0.87125 0.15133 0.72219 0.0
O306 O 0.83886 0.09343 0.70554 0.0
O307 O 0.94329 0.08635 0.39801 0.0
O308 O 0.94059 0.14782 0.50141 0.0
O309 O 0.87675 0.21123 0.30783 0.0
O310 O 0.84195 0.18578 0.10058 0.0
O311 O 0.76406 0.13727 0.23526 0.0
O312 O 0.87328 0.02111 0.32929 0.0
O313 O 0.76231 0.11029 0.48275 0.0
O314 O 0.81874 0.03151 0.47533 0.0
C315 C 0.8624 0.10766 0.95707 0.0
C316 C 0.86034 0.11743 0.78375 0.0
C317 C 0.86346 0.21328 0.15876 0.0
C318 C 0.95827 0.11447 0.48414 0.0
C319 C 0.74518 0.12707 0.36257 0.0
C320 C 0.8446 0.00811 0.41753 0.0
O321 O 0.83015 0.09772 0.02287 0.0
O322 O 0.08728 0.12995 0.97169 0.0
Zn323 Zn 0.07199 0.13793 0.73825 0.0
O324 O 0.10716 0.10148 0.63555 0.0
Zn325 Zn 0.15174 0.12903 0.54367 0.0
Zn326 Zn 0.12818 0.05681 0.75384 0.0
Zn327 Zn 0.07541 0.08062 0.4671 0.0
O328 O 0.1475 0.10937 0.29691 0.0
O329 O 0.083 0.11975 0.30116 0.0
O330 O 0.08725 0.19422 0.68963 0.0
O331 O 0.14352 0.18959 0.55131 0.0
O332 O 0.19851 0.11954 0.71222 0.0
O333 O 0.18648 0.0573 0.78956 0.0
O334 O 0.11473 0.00419 0.6288 0.0
O335 O 0.01391 0.13397 0.65129 0.0
O336 O 0.08997 0.02581 0.39172 0.0
O337 O 0.01845 0.08055 0.49226 0.0
C338 C 0.10782 0.10408 0.05 0.0
C339 C 0.11386 0.1118 0.22315 0.0
C340 C 0.20668 0.08916 0.80243 0.0
C341 C 0.11641 0.2104 0.61821 0.0
C342 C 0.10305 -0.00229 0.48107 0.0
C343 C -0.00158 0.10902 0.5508 0.0
O344 O 0.11706 0.06989 -0.01027 0.0
O345 O 0.05275 0.86524 0.03036 0.0
Zn346 Zn 0.05578 0.88493 0.27335 0.0
O347 O 0.09272 0.84762 0.36495 0.0
Zn348 Zn 0.06474 0.80432 0.47153 0.0
Zn349 Zn 0.12548 0.82925 0.1926 0.0
Zn350 Zn 0.12973 0.87469 0.49462 0.0
O351 O 0.07622 0.8131 0.72219 0.0
O352 O 0.1086 0.87101 0.70553 0.0
O353 O 0.00418 0.87809 0.39801 0.0
O354 O 0.00688 0.81661 0.50143 0.0
O355 O 0.07072 0.75321 0.30784 0.0
O356 O 0.10553 0.77865 0.10058 0.0
O357 O 0.18341 0.82716 0.23526 0.0
O358 O 0.0742 0.94333 0.3293 0.0
O359 O 0.18515 0.85414 0.48275 0.0
O360 O 0.12873 0.93293 0.47532 0.0
C361 C 0.08507 0.85678 0.95707 0.0
C362 C 0.08713 0.847 0.78375 0.0
C363 C 0.08401 0.75115 0.15877 0.0
C364 C -0.0108 0.84997 0.48415 0.0
C365 C 0.20229 0.83736 0.36257 0.0
C366 C 0.10288 0.95633 0.41754 0.0
O367 O 0.11732 0.86671 0.02286 0.0
loop_
_geom_bond_atom_site_label_1
_geom_bond_atom_site_label_2
_geom_bond_distance
_geom_bond_site_symmetry_2
_ccdc_geom_bond_type
O0 Zn1 1.953 1_556 S
O0 C16 1.225 . S
Zn1 O0 1.953 1_554 S
Zn1 O2 1.949 . S
Zn1 O8 1.919 . S
Zn1 O13 1.924 . S
O2 Zn1 1.949 . S
O2 Zn3 1.923 . S
O2 Zn4 1.950 1_554 S
O2 Zn5 1.945 . S
Zn3 O2 1.923 . S
Zn3 O6 1.933 . S
Zn3 O9 1.941 . S
Zn3 O10 1.965 . S
Zn4 O2 1.950 1_556 S
Zn4 O11 1.938 . S
Zn4 O12 1.906 1_556 S
Zn4 O22 1.953 . S
Zn5 O2 1.945 . S
Zn5 O7 1.932 . S
Zn5 O14 1.977 . S
Zn5 O15 1.910 . S
O6 Zn3 1.933 . S
O6 C17 1.226 . S
O7 Zn5 1.932 . S
O7 C17 1.307 . S
O8 Zn1 1.919 . S
O8 C19 1.253 . S
O9 Zn3 1.941 . S
O9 C19 1.283 . S
O10 Zn3 1.965 . S
O10 C18 1.303 1_554 S
O11 Zn4 1.938 . S
O11 C18 1.247 . S
O12 Zn4 1.906 1_554 S
O12 C20 1.304 . S
O13 Zn1 1.924 . S
O13 C21 1.311 . S
O14 Zn5 1.977 . S
O14 C20 1.272 . S
O15 Zn5 1.910 . S
O15 C21 1.231 . S
C16 O0 1.225 . S
C16 O22 1.298 . S
C17 O6 1.226 . S
C17 O7 1.307 . S
C18 O10 1.303 1_556 S
C18 O11 1.247 . S
C19 O8 1.253 . S
C19 O9 1.283 . S
C20 O12 1.304 . S
C20 O14 1.272 . S
C21 O13 1.311 . S
C21 O15 1.231 . S
O22 Zn4 1.953 . S
O22 C16 1.298 . S
O23 Zn24 1.953 1_554 S
O23 C39 1.225 . S
Zn24 O23 1.953 1_556 S
Zn24 O25 1.949 . S
Zn24 O31 1.919 . S
Zn24 O36 1.924 . S
O25 Zn24 1.949 . S
O25 Zn26 1.923 . S
O25 Zn27 1.950 1_556 S
O25 Zn28 1.945 . S
Zn26 O25 1.923 . S
Zn26 O29 1.933 . S
Zn26 O32 1.941 . S
Zn26 O33 1.965 . S
Zn27 O25 1.950 1_554 S
Zn27 O34 1.938 . S
Zn27 O35 1.906 1_554 S
Zn27 O45 1.953 . S
Zn28 O25 1.945 . S
Zn28 O30 1.932 . S
Zn28 O37 1.977 . S
Zn28 O38 1.910 . S
O29 Zn26 1.933 . S
O29 C40 1.226 . S
O30 Zn28 1.932 . S
O30 C40 1.307 . S
O31 Zn24 1.919 . S
O31 C42 1.253 . S
O32 Zn26 1.941 . S
O32 C42 1.283 . S
O33 Zn26 1.965 . S
O33 C41 1.303 1_556 S
O34 Zn27 1.938 . S
O34 C41 1.247 . S
O35 Zn27 1.906 1_556 S
O35 C43 1.304 . S
O36 Zn24 1.924 . S
O36 C44 1.311 . S
O37 Zn28 1.977 . S
O37 C43 1.272 . S
O38 Zn28 1.910 . S
O38 C44 1.231 . S
C39 O23 1.225 . S
C39 O45 1.298 . S
C40 O29 1.226 . S
C40 O30 1.307 . S
C41 O33 1.303 1_554 S
C41 O34 1.247 . S
C42 O31 1.253 . S
C42 O32 1.283 . S
C43 O35 1.304 . S
C43 O37 1.272 . S
C44 O36 1.311 . S
C44 O38 1.231 . S
O45 Zn27 1.953 . S
O45 C39 1.298 . S
O46 Zn47 1.953 1_556 S
O46 C62 1.225 . S
Zn47 O46 1.953 1_554 S
Zn47 O48 1.949 . S
Zn47 O54 1.919 . S
Zn47 O59 1.924 . S
O48 Zn47 1.949 . S
O48 Zn49 1.923 . S
O48 Zn50 1.950 1_554 S
O48 Zn51 1.945 . S
Zn49 O48 1.923 . S
Zn49 O52 1.933 . S
Zn49 O55 1.941 . S
Zn49 O56 1.965 . S
Zn50 O48 1.950 1_556 S
Zn50 O57 1.938 . S
Zn50 O58 1.906 1_556 S
Zn50 O68 1.953 . S
Zn51 O48 1.945 . S
Zn51 O53 1.932 . S
Zn51 O60 1.977 . S
Zn51 O61 1.910 . S
O52 Zn49 1.933 . S
O52 C63 1.226 . S
O53 Zn51 1.932 . S
O53 C63 1.307 . S
O54 Zn47 1.919 . S
O54 C65 1.253 . S
O55 Zn49 1.941 . S
O55 C65 1.283 . S
O56 Zn49 1.965 . S
O56 C64 1.303 1_554 S
O57 Zn50 1.938 . S
O57 C64 1.247 . S
O58 Zn50 1.906 1_554 S
O58 C66 1.304 . S
O59 Zn47 1.924 . S
O59 C67 1.311 . S
O60 Zn51 1.977 . S
O60 C66 1.272 . S
O61 Zn51 1.910 . S
O61 C67 1.231 . S
C62 O46 1.225 . S
C62 O68 1.298 . S
C63 O52 1.226 . S
C63 O53 1.307 . S
C64 O56 1.303 1_556 S
C64 O57 1.247 . S
C65 O54 1.253 . S
C65 O55 1.283 . S
C66 O58 1.304 . S
C66 O60 1.272 . S
C67 O59 1.311 . S
C67 O61 1.231 . S
O68 Zn50 1.953 . S
O68 C62 1.298 . S
O69 Zn70 1.953 1_554 S
O69 C85 1.225 . S
Zn70 O69 1.953 1_556 S
Zn70 O71 1.949 . S
Zn70 O77 1.919 . S
Zn70 O82 1.924 . S
O71 Zn70 1.949 . S
O71 Zn72 1.923 . S
O71 Zn73 1.950 1_556 S
O71 Zn74 1.945 . S
Zn72 O71 1.923 . S
Zn72 O75 1.933 . S
Zn72 O78 1.941 . S
Zn72 O79 1.965 . S
Zn73 O71 1.950 1_554 S
Zn73 O80 1.938 . S
Zn73 O81 1.906 1_554 S
Zn73 O91 1.953 . S
Zn74 O71 1.945 . S
Zn74 O76 1.932 . S
Zn74 O83 1.977 . S
Zn74 O84 1.910 . S
O75 Zn72 1.933 . S
O75 C86 1.226 . S
O76 Zn74 1.932 . S
O76 C86 1.307 . S
O77 Zn70 1.919 . S
O77 C88 1.253 . S
O78 Zn72 1.941 . S
O78 C88 1.283 . S
O79 Zn72 1.965 . S
O79 C87 1.303 1_556 S
O80 Zn73 1.938 . S
O80 C87 1.247 . S
O81 Zn73 1.906 1_556 S
O81 C89 1.304 . S
O82 Zn70 1.924 . S
O82 C90 1.311 . S
O83 Zn74 1.977 . S
O83 C89 1.272 . S
O84 Zn74 1.910 . S
O84 C90 1.231 . S
C85 O69 1.225 . S
C85 O91 1.298 . S
C86 O75 1.226 . S
C86 O76 1.307 . S
C87 O79 1.303 1_554 S
C87 O80 1.247 . S
C88 O77 1.253 . S
C88 O78 1.283 . S
C89 O81 1.304 . S
C89 O83 1.272 . S
C90 O82 1.311 . S
C90 O84 1.231 . S
O91 Zn73 1.953 . S
O91 C85 1.298 . S
O92 Zn93 1.953 . S
O92 C108 1.225 . S
Zn93 O92 1.953 . S
Zn93 O94 1.949 . S
Zn93 O100 1.919 . S
Zn93 O105 1.924 . S
O94 Zn93 1.949 . S
O94 Zn95 1.923 . S
O94 Zn96 1.950 . S
O94 Zn97 1.945 1_554 S
Zn95 O94 1.923 . S
Zn95 O98 1.933 1_554 S
Zn95 O101 1.941 . S
Zn95 O102 1.965 . S
Zn96 O94 1.950 . S
Zn96 O103 1.938 . S
Zn96 O104 1.906 . S
Zn96 O114 1.953 . S
Zn97 O94 1.945 1_556 S
Zn97 O99 1.932 . S
Zn97 O106 1.977 . S
Zn97 O107 1.910 . S
O98 Zn95 1.933 1_556 S
O98 C109 1.226 . S
O99 Zn97 1.932 . S
O99 C109 1.307 . S
O100 Zn93 1.919 . S
O100 C111 1.253 . S
O101 Zn95 1.941 . S
O101 C111 1.283 . S
O102 Zn95 1.965 . S
O102 C110 1.303 . S
O103 Zn96 1.938 . S
O103 C110 1.247 . S
O104 Zn96 1.906 . S
O104 C112 1.304 . S
O105 Zn93 1.924 . S
O105 C113 1.311 . S
O106 Zn97 1.977 . S
O106 C112 1.272 1_556 S
O107 Zn97 1.910 . S
O107 C113 1.231 1_556 S
C108 O92 1.225 . S
C108 O114 1.298 . S
C109 O98 1.226 . S
C109 O99 1.307 . S
C110 O102 1.303 . S
C110 O103 1.247 . S
C111 O100 1.253 . S
C111 O101 1.283 . S
C112 O104 1.304 . S
C112 O106 1.272 1_554 S
C113 O105 1.311 . S
C113 O107 1.231 1_554 S
O114 Zn96 1.953 . S
O114 C108 1.298 . S
O115 Zn116 1.953 . S
O115 C131 1.225 . S
Zn116 O115 1.953 . S
Zn116 O117 1.949 . S
Zn116 O123 1.919 . S
Zn116 O128 1.924 . S
O117 Zn116 1.949 . S
O117 Zn118 1.923 . S
O117 Zn119 1.950 . S
O117 Zn120 1.945 1_556 S
Zn118 O117 1.923 . S
Zn118 O121 1.933 1_556 S
Zn118 O124 1.941 . S
Zn118 O125 1.965 . S
Zn119 O117 1.950 . S
Zn119 O126 1.938 . S
Zn119 O127 1.906 . S
Zn119 O137 1.953 . S
Zn120 O117 1.945 1_554 S
Zn120 O122 1.932 . S
Zn120 O129 1.977 1_554 S
Zn120 O130 1.910 . S
O121 Zn118 1.933 1_554 S
O121 C132 1.226 . S
O122 Zn120 1.932 . S
O122 C132 1.307 . S
O123 Zn116 1.919 . S
O123 C134 1.253 . S
O124 Zn118 1.941 . S
O124 C134 1.283 . S
O125 Zn118 1.965 . S
O125 C133 1.303 . S
O126 Zn119 1.938 . S
O126 C133 1.247 . S
O127 Zn119 1.906 . S
O127 C135 1.304 . S
O128 Zn116 1.924 . S
O128 C136 1.311 . S
O129 Zn120 1.977 1_556 S
O129 C135 1.272 . S
O130 Zn120 1.910 . S
O130 C136 1.231 1_554 S
C131 O115 1.225 . S
C131 O137 1.298 . S
C132 O121 1.226 . S
C132 O122 1.307 . S
C133 O125 1.303 . S
C133 O126 1.247 . S
C134 O123 1.253 . S
C134 O124 1.283 . S
C135 O127 1.304 . S
C135 O129 1.272 . S
C136 O128 1.311 . S
C136 O130 1.231 1_556 S
O137 Zn119 1.953 . S
O137 C131 1.298 . S
O138 Zn139 1.953 . S
O138 C154 1.225 . S
Zn139 O138 1.953 . S
Zn139 O140 1.949 . S
Zn139 O146 1.919 . S
Zn139 O151 1.924 . S
O140 Zn139 1.949 . S
O140 Zn141 1.923 . S
O140 Zn142 1.950 . S
O140 Zn143 1.945 1_554 S
Zn141 O140 1.923 . S
Zn141 O144 1.933 1_554 S
Zn141 O147 1.941 . S
Zn141 O148 1.965 . S
Zn142 O140 1.950 . S
Zn142 O149 1.938 . S
Zn142 O150 1.906 . S
Zn142 O160 1.953 . S
Zn143 O140 1.945 1_556 S
Zn143 O145 1.932 . S
Zn143 O152 1.977 . S
Zn143 O153 1.910 . S
O144 Zn141 1.933 1_556 S
O144 C155 1.226 . S
O145 Zn143 1.932 . S
O145 C155 1.307 . S
O146 Zn139 1.919 . S
O146 C157 1.253 . S
O147 Zn141 1.941 . S
O147 C157 1.283 . S
O148 Zn141 1.965 . S
O148 C156 1.303 . S
O149 Zn142 1.938 . S
O149 C156 1.247 . S
O150 Zn142 1.906 . S
O150 C158 1.304 . S
O151 Zn139 1.924 . S
O151 C159 1.311 . S
O152 Zn143 1.977 . S
O152 C158 1.272 1_556 S
O153 Zn143 1.910 . S
O153 C159 1.231 1_556 S
C154 O138 1.225 . S
C154 O160 1.298 . S
C155 O144 1.226 . S
C155 O145 1.307 . S
C156 O148 1.303 . S
C156 O149 1.247 . S
C157 O146 1.253 . S
C157 O147 1.283 . S
C158 O150 1.304 . S
C158 O152 1.272 1_554 S
C159 O151 1.311 . S
C159 O153 1.231 1_554 S
O160 Zn142 1.953 . S
O160 C154 1.298 . S
O161 Zn162 1.953 . S
O161 C177 1.225 . S
Zn162 O161 1.953 . S
Zn162 O163 1.949 . S
Zn162 O169 1.919 . S
Zn162 O174 1.924 . S
O163 Zn162 1.949 . S
O163 Zn164 1.923 . S
O163 Zn165 1.950 . S
O163 Zn166 1.945 1_556 S
Zn164 O163 1.923 . S
Zn164 O167 1.933 1_556 S
Zn164 O170 1.941 . S
Zn164 O171 1.965 . S
Zn165 O163 1.950 . S
Zn165 O172 1.938 . S
Zn165 O173 1.906 . S
Zn165 O183 1.953 . S
Zn166 O163 1.945 1_554 S
Zn166 O168 1.932 . S
Zn166 O175 1.977 1_554 S
Zn166 O176 1.910 . S
O167 Zn164 1.933 1_554 S
O167 C178 1.226 . S
O168 Zn166 1.932 . S
O168 C178 1.307 . S
O169 Zn162 1.919 . S
O169 C180 1.253 . S
O170 Zn164 1.941 . S
O170 C180 1.283 . S
O171 Zn164 1.965 . S
O171 C179 1.303 . S
O172 Zn165 1.938 . S
O172 C179 1.247 . S
O173 Zn165 1.906 . S
O173 C181 1.304 . S
O174 Zn162 1.924 . S
O174 C182 1.311 . S
O175 Zn166 1.977 1_556 S
O175 C181 1.272 . S
O176 Zn166 1.910 . S
O176 C182 1.231 1_554 S
C177 O161 1.225 . S
C177 O183 1.298 . S
C178 O167 1.226 . S
C178 O168 1.307 . S
C179 O171 1.303 . S
C179 O172 1.247 . S
C180 O169 1.253 . S
C180 O170 1.283 . S
C181 O173 1.304 . S
C181 O175 1.272 . S
C182 O174 1.311 . S
C182 O176 1.231 1_556 S
O183 Zn165 1.953 . S
O183 C177 1.298 . S
O184 Zn185 1.953 . S
O184 C200 1.225 . S
Zn185 O184 1.953 . S
Zn185 O186 1.949 . S
Zn185 O192 1.919 . S
Zn185 O197 1.924 . S
O186 Zn185 1.949 . S
O186 Zn187 1.923 . S
O186 Zn188 1.950 . S
O186 Zn189 1.945 . S
Zn187 O186 1.923 . S
Zn187 O190 1.933 . S
Zn187 O193 1.941 . S
Zn187 O194 1.965 . S
Zn188 O186 1.950 . S
Zn188 O195 1.938 . S
Zn188 O196 1.906 . S
Zn188 O206 1.953 . S
Zn189 O186 1.945 . S
Zn189 O191 1.932 1_556 S
Zn189 O198 1.977 . S
Zn189 O199 1.910 . S
O190 Zn187 1.933 . S
O190 C201 1.226 1_556 S
O191 Zn189 1.932 1_554 S
O191 C201 1.307 . S
O192 Zn185 1.919 . S
O192 C203 1.253 . S
O193 Zn187 1.941 . S
O193 C203 1.283 . S
O194 Zn187 1.965 . S
O194 C202 1.303 . S
O195 Zn188 1.938 . S
O195 C202 1.247 . S
O196 Zn188 1.906 . S
O196 C204 1.304 . S
O197 Zn185 1.924 . S
O197 C205 1.311 . S
O198 Zn189 1.977 . S
O198 C204 1.272 . S
O199 Zn189 1.910 . S
O199 C205 1.231 . S
C200 O184 1.225 . S
C200 O206 1.298 . S
C201 O190 1.226 1_554 S
C201 O191 1.307 . S
C202 O194 1.303 . S
C202 O195 1.247 . S
C203 O192 1.253 . S
C203 O193 1.283 . S
C204 O196 1.304 . S
C204 O198 1.272 . S
C205 O197 1.311 . S
C205 O199 1.231 . S
O206 Zn188 1.953 . S
O206 C200 1.298 . S
O207 Zn208 1.953 . S
O207 C223 1.225 . S
Zn208 O207 1.953 . S
Zn208 O209 1.949 . S
Zn208 O215 1.919 . S
Zn208 O220 1.924 . S
O209 Zn208 1.949 . S
O209 Zn210 1.923 . S
O209 Zn211 1.950 . S
O209 Zn212 1.945 . S
Zn210 O209 1.923 . S
Zn210 O213 1.933 . S
Zn210 O216 1.941 . S
Zn210 O217 1.965 . S
Zn211 O209 1.950 . S
Zn211 O218 1.938 . S
Zn211 O219 1.906 . S
Zn211 O229 1.953 . S
Zn212 O209 1.945 . S
Zn212 O214 1.932 1_554 S
Zn212 O221 1.977 . S
Zn212 O222 1.910 . S
O213 Zn210 1.933 . S
O213 C224 1.226 1_554 S
O214 Zn212 1.932 1_556 S
O214 C224 1.307 . S
O215 Zn208 1.919 . S
O215 C226 1.253 . S
O216 Zn210 1.941 . S
O216 C226 1.283 . S
O217 Zn210 1.965 . S
O217 C225 1.303 . S
O218 Zn211 1.938 . S
O218 C225 1.247 . S
O219 Zn211 1.906 . S
O219 C227 1.304 . S
O220 Zn208 1.924 . S
O220 C228 1.311 . S
O221 Zn212 1.977 . S
O221 C227 1.272 . S
O222 Zn212 1.910 . S
O222 C228 1.231 . S
C223 O207 1.225 . S
C223 O229 1.298 . S
C224 O213 1.226 1_556 S
C224 O214 1.307 . S
C225 O217 1.303 . S
C225 O218 1.247 . S
C226 O215 1.253 . S
C226 O216 1.283 . S
C227 O219 1.304 . S
C227 O221 1.272 . S
C228 O220 1.311 . S
C228 O222 1.231 . S
O229 Zn211 1.953 . S
O229 C223 1.298 . S
O230 Zn231 1.953 . S
O230 C246 1.225 . S
Zn231 O230 1.953 . S
Zn231 O232 1.949 . S
Zn231 O238 1.919 . S
Zn231 O243 1.924 . S
O232 Zn231 1.949 . S
O232 Zn233 1.923 . S
O232 Zn234 1.950 . S
O232 Zn235 1.945 . S
Zn233 O232 1.923 . S
Zn233 O236 1.933 . S
Zn233 O239 1.941 . S
Zn233 O240 1.965 . S
Zn234 O232 1.950 . S
Zn234 O241 1.938 . S
Zn234 O242 1.906 . S
Zn234 O252 1.953 . S
Zn235 O232 1.945 . S
Zn235 O237 1.932 1_556 S
Zn235 O244 1.977 . S
Zn235 O245 1.910 . S
O236 Zn233 1.933 . S
O236 C247 1.226 1_556 S
O237 Zn235 1.932 1_554 S
O237 C247 1.307 . S
O238 Zn231 1.919 . S
O238 C249 1.253 . S
O239 Zn233 1.941 . S
O239 C249 1.283 . S
O240 Zn233 1.965 . S
O240 C248 1.303 . S
O241 Zn234 1.938 . S
O241 C248 1.247 . S
O242 Zn234 1.906 . S
O242 C250 1.304 . S
O243 Zn231 1.924 . S
O243 C251 1.311 . S
O244 Zn235 1.977 . S
O244 C250 1.272 . S
O245 Zn235 1.910 . S
O245 C251 1.231 . S
C246 O230 1.225 . S
C246 O252 1.298 . S
C247 O236 1.226 1_554 S
C247 O237 1.307 . S
C248 O240 1.303 . S
C248 O241 1.247 . S
C249 O238 1.253 . S
C249 O239 1.283 . S
C250 O242 1.304 . S
C250 O244 1.272 . S
C251 O243 1.311 . S
C251 O245 1.231 . S
O252 Zn234 1.953 . S
O252 C246 1.298 . S
O253 Zn254 1.953 . S
O253 C269 1.225 . S
Zn254 O253 1.953 . S
Zn254 O255 1.949 . S
Zn254 O261 1.919 . S
Zn254 O266 1.924 . S
O255 Zn254 1.949 . S
O255 Zn256 1.923 . S
O255 Zn257 1.950 . S
O255 Zn258 1.945 . S
Zn256 O255 1.923 . S
Zn256 O259 1.933 . S
Zn256 O262 1.941 . S
Zn256 O263 1.965 . S
Zn257 O255 1.950 . S
Zn257 O264 1.938 . S
Zn257 O265 1.906 . S
Zn257 O275 1.953 . S
Zn258 O255 1.945 . S
Zn258 O260 1.932 1_554 S
Zn258 O267 1.977 . S
Zn258 O268 1.910 . S
O259 Zn256 1.933 . S
O259 C270 1.226 1_554 S
O260 Zn258 1.932 1_556 S
O260 C270 1.307 . S
O261 Zn254 1.919 . S
O261 C272 1.253 . S
O262 Zn256 1.941 . S
O262 C272 1.283 . S
O263 Zn256 1.965 . S
O263 C271 1.303 . S
O264 Zn257 1.938 . S
O264 C271 1.247 . S
O265 Zn257 1.906 . S
O265 C273 1.304 . S
O266 Zn254 1.924 . S
O266 C274 1.311 . S
O267 Zn258 1.977 . S
O267 C273 1.272 . S
O268 Zn258 1.910 . S
O268 C274 1.231 . S
C269 O253 1.225 . S
C269 O275 1.298 . S
C270 O259 1.226 1_556 S
C270 O260 1.307 . S
C271 O263 1.303 . S
C271 O264 1.247 . S
C272 O261 1.253 . S
C272 O262 1.283 . S
C273 O265 1.304 . S
C273 O267 1.272 . S
C274 O266 1.311 . S
C274 O268 1.231 . S
O275 Zn257 1.953 . S
O275 C269 1.298 . S
O276 Zn277 1.953 . S
O276 C292 1.225 1_556 S
Zn277 O276 1.953 . S
Zn277 O278 1.949 . S
Zn277 O284 1.919 . S
Zn277 O289 1.924 . S
O278 Zn277 1.949 . S
O278 Zn279 1.923 . S
O278 Zn280 1.950 . S
O278 Zn281 1.945 . S
Zn279 O278 1.923 . S
Zn279 O282 1.933 . S
Zn279 O285 1.941 . S
Zn279 O286 1.965 . S
Zn280 O278 1.950 . S
Zn280 O287 1.938 . S
Zn280 O288 1.906 . S
Zn280 O298 1.953 . S
Zn281 O278 1.945 . S
Zn281 O283 1.932 . S
Zn281 O290 1.977 . S
Zn281 O291 1.910 . S
O282 Zn279 1.933 . S
O282 C293 1.226 . S
O283 Zn281 1.932 . S
O283 C293 1.307 . S
O284 Zn277 1.919 . S
O284 C295 1.253 . S
O285 Zn279 1.941 . S
O285 C295 1.283 . S
O286 Zn279 1.965 . S
O286 C294 1.303 . S
O287 Zn280 1.938 . S
O287 C294 1.247 . S
O288 Zn280 1.906 . S
O288 C296 1.304 . S
O289 Zn277 1.924 . S
O289 C297 1.311 . S
O290 Zn281 1.977 . S
O290 C296 1.272 . S
O291 Zn281 1.910 . S
O291 C297 1.231 . S
C292 O276 1.225 1_554 S
C292 O298 1.298 1_554 S
C293 O282 1.226 . S
C293 O283 1.307 . S
C294 O286 1.303 . S
C294 O287 1.247 . S
C295 O284 1.253 . S
C295 O285 1.283 . S
C296 O288 1.304 . S
C296 O290 1.272 . S
C297 O289 1.311 . S
C297 O291 1.231 . S
O298 Zn280 1.953 . S
O298 C292 1.298 1_556 S
O299 Zn300 1.953 . S
O299 C315 1.225 1_554 S
Zn300 O299 1.953 . S
Zn300 O301 1.949 . S
Zn300 O307 1.919 . S
Zn300 O312 1.924 . S
O301 Zn300 1.949 . S
O301 Zn302 1.923 . S
O301 Zn303 1.950 . S
O301 Zn304 1.945 . S
Zn302 O301 1.923 . S
Zn302 O305 1.933 . S
Zn302 O308 1.941 . S
Zn302 O309 1.965 . S
Zn303 O301 1.950 . S
Zn303 O310 1.938 . S
Zn303 O311 1.906 . S
Zn303 O321 1.953 1_554 S
Zn304 O301 1.945 . S
Zn304 O306 1.932 . S
Zn304 O313 1.977 . S
Zn304 O314 1.910 . S
O305 Zn302 1.933 . S
O305 C316 1.226 . S
O306 Zn304 1.932 . S
O306 C316 1.307 . S
O307 Zn300 1.919 . S
O307 C318 1.253 . S
O308 Zn302 1.941 . S
O308 C318 1.283 . S
O309 Zn302 1.965 . S
O309 C317 1.303 . S
O310 Zn303 1.938 . S
O310 C317 1.247 . S
O311 Zn303 1.906 . S
O311 C319 1.304 . S
O312 Zn300 1.924 . S
O312 C320 1.311 . S
O313 Zn304 1.977 . S
O313 C319 1.272 . S
O314 Zn304 1.910 . S
O314 C320 1.231 . S
C315 O299 1.225 1_556 S
C315 O321 1.298 . S
C316 O305 1.226 . S
C316 O306 1.307 . S
C317 O309 1.303 . S
C317 O310 1.247 . S
C318 O307 1.253 . S
C318 O308 1.283 . S
C319 O311 1.304 . S
C319 O313 1.272 . S
C320 O312 1.311 . S
C320 O314 1.231 . S
O321 Zn303 1.953 1_556 S
O321 C315 1.298 . S
O322 Zn323 1.953 . S
O322 C338 1.225 1_556 S
Zn323 O322 1.953 . S
Zn323 O324 1.949 . S
Zn323 O330 1.919 . S
Zn323 O335 1.924 . S
O324 Zn323 1.949 . S
O324 Zn325 1.923 . S
O324 Zn326 1.950 . S
O324 Zn327 1.945 . S
Zn325 O324 1.923 . S
Zn325 O328 1.933 . S
Zn325 O331 1.941 . S
Zn325 O332 1.965 . S
Zn326 O324 1.950 . S
Zn326 O333 1.938 . S
Zn326 O334 1.906 . S
Zn326 O344 1.953 . S
Zn327 O324 1.945 . S
Zn327 O329 1.932 . S
Zn327 O336 1.977 . S
Zn327 O337 1.910 . S
O328 Zn325 1.933 . S
O328 C339 1.226 . S
O329 Zn327 1.932 . S
O329 C339 1.307 . S
O330 Zn323 1.919 . S
O330 C341 1.253 . S
O331 Zn325 1.941 . S
O331 C341 1.283 . S
O332 Zn325 1.965 . S
O332 C340 1.303 . S
O333 Zn326 1.938 . S
O333 C340 1.247 . S
O334 Zn326 1.906 . S
O334 C342 1.304 . S
O335 Zn323 1.924 . S
O335 C343 1.311 . S
O336 Zn327 1.977 . S
O336 C342 1.272 . S
O337 Zn327 1.910 . S
O337 C343 1.231 . S
C338 O322 1.225 1_554 S
C338 O344 1.298 1_554 S
C339 O328 1.226 . S
C339 O329 1.307 . S
C340 O332 1.303 . S
C340 O333 1.247 . S
C341 O330 1.253 . S
C341 O331 1.283 . S
C342 O334 1.304 . S
C342 O336 1.272 . S
C343 O335 1.311 . S
C343 O337 1.231 . S
O344 Zn326 1.953 . S
O344 C338 1.298 1_556 S
O345 Zn346 1.953 . S
O345 C361 1.225 1_554 S
Zn346 O345 1.953 . S
Zn346 O347 1.949 . S
Zn346 O353 1.919 . S
Zn346 O358 1.924 . S
O347 Zn346 1.949 . S
O347 Zn348 1.923 . S
O347 Zn349 1.950 . S
O347 Zn350 1.945 . S
Zn348 O347 1.923 . S
Zn348 O351 1.933 . S
Zn348 O354 1.941 . S
Zn348 O355 1.965 . S
Zn349 O347 1.950 . S
Zn349 O356 1.938 . S
Zn349 O357 1.906 . S
Zn349 O367 1.953 1_554 S
Zn350 O347 1.945 . S
Zn350 O352 1.932 . S
Zn350 O359 1.977 . S
Zn350 O360 1.910 . S
O351 Zn348 1.933 . S
O351 C362 1.226 . S
O352 Zn350 1.932 . S
O352 C362 1.307 . S
O353 Zn346 1.919 . S
O353 C364 1.253 . S
O354 Zn348 1.941 . S
O354 C364 1.283 . S
O355 Zn348 1.965 . S
O355 C363 1.303 . S
O356 Zn349 1.938 . S
O356 C363 1.247 . S
O357 Zn349 1.906 . S
O357 C365 1.304 . S
O358 Zn346 1.924 . S
O358 C366 1.311 . S
O359 Zn350 1.977 . S
O359 C365 1.272 . S
O360 Zn350 1.910 . S
O360 C366 1.231 . S
C361 O345 1.225 1_556 S
C361 O367 1.298 . S
C362 O351 1.226 . S
C362 O352 1.307 . S
C363 O355 1.303 . S
C363 O356 1.247 . S
C364 O353 1.253 . S
C364 O354 1.283 . S
C365 O357 1.304 . S
C365 O359 1.272 . S
C366 O358 1.311 . S
C366 O360 1.231 . S
O367 Zn349 1.953 1_556 S
O367 C361 1.298 . S
C274 C20 1.633 1_565 S
C205 C42 1.714 1_655 S
C66 C228 1.633 1_565 S
C88 C251 1.714 1_655 S
C112 C136 1.633 1_554 S
C159 C134 1.714 1_554 S
C158 C182 1.633 1_554 S
C113 C180 1.714 1_554 S
C90 C204 1.633 . S
C226 C21 1.714 . S
C44 C250 1.633 . S
C67 C272 1.714 . S
C296 C320 1.633 1_565 S
C343 C318 1.714 1_455 S
C366 C342 1.633 1_565 S
C364 C297 1.714 1_455 S
C19 C111 1.251 . S
C135 C43 1.392 . S
C65 C157 1.251 . S
C89 C181 1.392 . S
C203 C295 1.251 . S
C319 C227 1.392 . S
C249 C341 1.251 . S
C273 C365 1.392 . S
C340 C18 2.107 . S
C41 C363 2.019 . S
C64 C294 2.107 . S
C87 C317 2.019 . S
C110 C248 2.107 . S
C133 C271 2.019 . S
C156 C202 2.107 . S
C225 C179 2.019 . S
C17 C16 1.614 . S
C40 C39 1.591 . S
C63 C62 1.614 . S
C85 C86 1.591 . S
C108 C109 1.614 . S
C132 C131 1.591 . S
C155 C154 1.614 . S
C177 C178 1.591 . S
C201 C200 1.614 . S
C223 C224 1.591 . S
C246 C247 1.614 . S
C270 C269 1.591 . S
C293 C292 1.614 . S
C315 C316 1.591 . S
C338 C339 1.614 . S
C362 C361 1.591 . S
