# Generated by pormake.
# Topology rob, (6)-cn, num edge types: 1
# Building blocks:
#     Node 0, Type 0, BuildingBlock: CUKXOW_clean_sbu_0, # of connection points: 6
#     Node 1, Type 0, BuildingBlock: CUKXOW_clean_sbu_0, # of connection points: 6
#     Node 2, Type 0, BuildingBlock: CUKXOW_clean_sbu_0, # of connection points: 6
#     Node 3, Type 0, BuildingBlock: CUKXOW_clean_sbu_0, # of connection points: 6
#     Edge 4, Type (0, 0), BuildingBlock: XUDNAN_clean_linker_2, # of connection points: 2
#     Edge 5, Type (0, 0), BuildingBlock: XUDNAN_clean_linker_2, # of connection points: 2
#     Edge 6, Type (0, 0), BuildingBlock: XUDNAN_clean_linker_2, # of connection points: 2
#     Edge 7, Type (0, 0), BuildingBlock: XUDNAN_clean_linker_2, # of connection points: 2
#     Edge 8, Type (0, 0), BuildingBlock: XUDNAN_clean_linker_2, # of connection points: 2
#     Edge 9, Type (0, 0), BuildingBlock: XUDNAN_clean_linker_2, # of connection points: 2
#     Edge 10, Type (0, 0), BuildingBlock: XUDNAN_clean_linker_2, # of connection points: 2
#     Edge 11, Type (0, 0), BuildingBlock: XUDNAN_clean_linker_2, # of connection points: 2
#     Edge 12, Type (0, 0), BuildingBlock: XUDNAN_clean_linker_2, # of connection points: 2
#     Edge 13, Type (0, 0), BuildingBlock: XUDNAN_clean_linker_2, # of connection points: 2
#     Edge 14, Type (0, 0), BuildingBlock: XUDNAN_clean_linker_2, # of connection points: 2
#     Edge 15, Type (0, 0), BuildingBlock: XUDNAN_clean_linker_2, # of connection points: 2
# Relax obj value: 0.016
# Max RMSD: 0.093
# Mean RMSD: 0.093
data_MOF--net-rob--node1-CUKXOW_clean_sbu_0--edge1-XUDNAN_clean_linker_2
_symmetry_space_group_name_H-M    P1
_symmetry_Int_Tables_number       1
_symmetry_cell_setting            triclinic
loop_
_symmetry_equiv_pos_as_xyz
'x, y, z'
_cell_length_a     12.79899
_cell_length_b     27.68724
_cell_length_c     28.346886
_cell_angle_alpha  102.88009
_cell_angle_beta   89.935885
_cell_angle_gamma 90.098321
loop_
_atom_site_label
_atom_site_type_symbol
_atom_site_fract_x
_atom_site_fract_y
_atom_site_fract_z
_atom_type_partial_charge
Tb0 Tb 0.31107 0.2638 0.06832 0.0
C1 C 0.2942 0.35963 0.02623 0.0
Tb2 Tb 0.18182 0.25807 0.97465 0.0
O3 O 0.45628 0.26962 0.02718 0.0
O4 O 0.32521 0.23205 0.99447 0.0
O5 O 0.32443 0.34099 0.06329 0.0
C6 C 0.14766 0.25533 0.88135 0.0
O7 O 0.24127 0.33382 0.98864 0.0
C8 C 0.07305 0.26899 0.0544 0.0
C9 C 0.19743 0.16296 1.01657 0.0
O10 O 0.23662 0.24842 0.90044 0.0
O11 O 0.07614 0.26355 0.91489 0.0
O12 O 0.03622 0.24861 1.01169 0.0
O13 O 0.16235 0.28688 0.04956 0.0
O14 O 0.18615 0.1806 0.97692 0.0
O15 O 0.23321 0.19056 0.05822 0.0
C16 C 0.36993 0.27103 0.15964 0.0
O17 O 0.40469 0.23817 0.12285 0.0
O18 O 0.30189 0.29906 0.14498 0.0
C19 C 0.41422 0.24701 0.98648 0.0
Tb20 Tb 0.8067 0.75474 0.06168 0.0
C21 C 0.84759 0.8485 0.01984 0.0
Tb22 Tb 0.67897 0.76611 0.97145 0.0
O23 O 0.94774 0.74414 1.01506 0.0
O24 O 0.80137 0.72194 0.9871 0.0
O25 O 0.8574 0.82956 0.05881 0.0
C26 C 0.64211 0.7643 0.87827 0.0
O27 O 0.7886 0.82792 0.98205 0.0
C28 C 0.57829 0.79148 0.05347 0.0
C29 C 0.62726 0.67645 1.01731 0.0
O30 O 0.59382 0.79258 0.9146 0.0
O31 O 0.70944 0.73722 0.89461 0.0
O32 O 0.53272 0.77879 1.01136 0.0
O33 O 0.67562 0.79599 0.04712 0.0
O34 O 0.62479 0.69379 0.97728 0.0
O35 O 0.685 0.69685 0.05583 0.0
C36 C 0.87921 0.74008 0.14632 0.0
O37 O 0.88835 0.70976 0.10441 0.0
O38 O 0.8287 0.77913 0.14074 0.0
C39 C 0.89524 0.72556 0.97605 0.0
Tb40 Tb 0.31003 0.76213 0.4702 0.0
C41 C 0.36486 0.66613 0.50684 0.0
Tb42 Tb 0.18897 0.7409 0.55904 0.0
O43 O 0.45826 0.77101 0.50913 0.0
O44 O 0.3163 0.78556 0.54652 0.0
O45 O 0.36429 0.68755 0.46922 0.0
C46 C 0.12271 0.72383 0.64376 0.0
O47 O 0.31074 0.68358 0.54721 0.0
C48 C 0.09475 0.72048 0.47459 0.0
C49 C 0.14723 0.84145 0.52847 0.0
O50 O 0.11103 0.69404 0.60165 0.0
O51 O 0.17244 0.76311 0.63819 0.0
O52 O 0.04429 0.73407 0.51514 0.0
O53 O 0.18929 0.71565 0.48344 0.0
O54 O 0.14157 0.81681 0.5636 0.0
O55 O 0.20202 0.82547 0.48798 0.0
C56 C 0.34461 0.76744 0.37839 0.0
O57 O 0.39751 0.79143 0.41553 0.0
O58 O 0.27339 0.74098 0.39321 0.0
C59 C 0.41365 0.78091 0.55158 0.0
Tb60 Tb 0.8134 0.24758 0.47304 0.0
C61 C 0.80851 0.16007 0.52565 0.0
Tb62 Tb 0.68163 0.25989 0.56738 0.0
O63 O 0.96181 0.24388 0.51016 0.0
O64 O 0.83311 0.27989 0.54767 0.0
O65 O 0.82151 0.17202 0.48319 0.0
C66 C 0.60019 0.25417 0.65306 0.0
O67 O 0.76815 0.19117 0.56384 0.0
C68 C 0.57471 0.2451 0.48619 0.0
C69 C 0.7022 0.35077 0.51982 0.0
O70 O 0.59195 0.22109 0.61292 0.0
O71 O 0.65356 0.29158 0.64504 0.0
O72 O 0.53813 0.26755 0.528 0.0
O73 O 0.66289 0.22765 0.49286 0.0
O74 O 0.68464 0.33701 0.56126 0.0
O75 O 0.74041 0.32022 0.48057 0.0
C76 C 0.87171 0.23782 0.38083 0.0
O77 O 0.90254 0.27274 0.41673 0.0
O78 O 0.80779 0.20872 0.39685 0.0
C79 C 0.92421 0.26417 0.55257 0.0
H80 H 0.64932 0.6044 0.07058 0.0
H81 H 0.44761 0.65302 0.96715 0.0
H82 H 0.33387 0.5809 0.9642 0.0
H83 H 0.63716 0.47681 1.01516 0.0
H84 H 0.63584 0.45527 0.07065 0.0
H85 H 0.69712 0.51342 0.06893 0.0
H86 H 0.57984 0.55809 0.13982 0.0
H87 H 0.51812 0.49998 0.14176 0.0
H88 H 0.43984 0.55193 0.13462 0.0
H89 H 0.24986 0.50171 0.96646 0.0
H90 H 0.19874 0.41814 0.97394 0.0
H91 H 0.45178 0.41795 0.07592 0.0
C92 C 0.58026 0.60013 0.04799 0.0
C93 C 0.55757 0.63422 0.01894 0.0
C94 C 0.46725 0.62714 0.98933 0.0
C95 C 0.4016 0.58644 0.98762 0.0
C96 C 0.42699 0.55296 1.01575 0.0
C97 C 0.51381 0.55915 0.04547 0.0
C98 C 0.52588 0.51556 0.06946 0.0
C99 C 0.63018 0.48868 0.05518 0.0
C100 C 0.51527 0.53241 0.1247 0.0
C101 C 0.43359 0.48371 0.04767 0.0
C102 C 0.37743 0.50644 1.01714 0.0
C103 C 0.29231 0.48368 0.99069 0.0
C104 C 0.26415 0.43607 0.99507 0.0
C105 C 0.32081 0.41155 0.0257 0.0
C106 C 0.40588 0.43608 0.05285 0.0
H107 H 0.36838 0.60155 0.56845 0.0
H108 H 0.51077 0.62958 0.43785 0.0
H109 H 0.61977 0.55531 0.43106 0.0
H110 H 0.60274 0.55386 0.61583 0.0
H111 H 0.53272 0.50709 0.63832 0.0
H112 H 0.46866 0.56414 0.63491 0.0
H113 H 0.32151 0.51457 0.58267 0.0
H114 H 0.38482 0.45743 0.58609 0.0
H115 H 0.35514 0.47021 0.52794 0.0
H116 H 0.70765 0.4771 0.4356 0.0
H117 H 0.7671 0.39732 0.44999 0.0
H118 H 0.56942 0.41782 0.5776 0.0
C119 C 0.423 0.59227 0.53862 0.0
C120 C 0.43068 0.62151 0.50364 0.0
C121 C 0.50277 0.6078 0.46501 0.0
C122 C 0.56559 0.56574 0.46091 0.0
C123 C 0.55568 0.53764 0.49571 0.0
C124 C 0.48624 0.5501 0.53379 0.0
C125 C 0.48847 0.51206 0.56499 0.0
C126 C 0.52536 0.53571 0.61657 0.0
C127 C 0.38111 0.48709 0.56542 0.0
C128 C 0.56902 0.47603 0.538 0.0
C129 C 0.60705 0.4919 0.49838 0.0
C130 C 0.67909 0.46438 0.46669 0.0
C131 C 0.71224 0.41899 0.4752 0.0
C132 C 0.6734 0.40128 0.51508 0.0
C133 C 0.6018 0.43065 0.54726 0.0
H134 H 0.13626 0.11443 0.08869 0.0
H135 H 0.19167 0.09243 0.93399 0.0
H136 H 0.11961 0.00878 0.92119 0.0
H137 H 0.19578 0.98072 0.09282 0.0
H138 H 0.09621 0.9796 0.13759 0.0
H139 H 0.16379 0.0366 0.13667 0.0
H140 H 0.98698 0.07876 0.13192 0.0
H141 H 0.91692 0.02208 0.13041 0.0
H142 H 0.89884 0.0547 0.08261 0.0
H143 H 0.01726 0.93618 0.92137 0.0
H144 H 0.90825 0.8687 0.93591 0.0
H145 H 0.92841 0.92706 0.09087 0.0
C146 C 0.13573 0.09135 0.05242 0.0
C147 C 0.16881 0.1103 1.01226 0.0
C148 C 0.16567 0.07922 0.96526 0.0
C149 C 0.12522 0.03141 0.95753 0.0
C150 C 0.08947 0.01449 0.9972 0.0
C151 C 0.09606 0.04261 0.04392 0.0
C152 C 0.04745 0.01475 0.07929 0.0
C153 C 0.13079 1.00217 0.11363 0.0
C154 C 0.9571 0.04435 0.10769 0.0
C155 C 0.00812 0.96809 0.04454 0.0
C156 C 0.03413 0.96932 0.9975 0.0
C157 C 0.99933 0.9338 0.95811 0.0
C158 C 0.9372 0.89544 0.96677 0.0
C159 C 0.91212 0.89148 1.01437 0.0
C160 C 0.94848 0.92837 0.05407 0.0
H161 H 0.91744 0.08749 0.46115 0.0
H162 H 0.78618 0.12273 0.60634 0.0
H163 H 0.8559 0.04497 0.62113 0.0
H164 H 0.87004 0.95328 0.4383 0.0
H165 H 0.9908 0.93787 0.40574 0.0
H166 H 0.92609 0.99546 0.40507 0.0
H167 H 0.09527 0.04343 0.43676 0.0
H168 H 0.15993 0.98596 0.43788 0.0
H169 H 0.15388 0.03455 0.49201 0.0
H170 H 0.94352 0.96615 0.6224 0.0
H171 H 0.04261 0.88856 0.60958 0.0
H172 H 0.1195 0.90185 0.46353 0.0
C173 C 0.90234 0.07857 0.49584 0.0
C174 C 0.84594 0.11142 0.5325 0.0
C175 C 0.82887 0.09843 0.57755 0.0
C176 C 0.86817 0.05421 0.5864 0.0
C177 C 0.92428 0.02307 0.54988 0.0
C178 C 0.94113 0.0343 0.50538 0.0
C179 C 0.00651 0.99442 0.47303 0.0
C180 C 0.94465 0.96874 0.42787 0.0
C181 C 0.11004 0.01589 0.45912 0.0
C182 C 0.02463 0.95958 0.50669 0.0
C183 C 0.97591 0.97695 0.55068 0.0
C184 C 0.9817 0.95196 0.58804 0.0
C185 C 0.03851 0.90782 0.5803 0.0
C186 C 0.08932 0.88889 0.53552 0.0
C187 C 0.08205 0.91531 0.49822 0.0
H188 H 0.58309 0.18641 0.39413 0.0
H189 H 0.48548 0.33074 0.47638 0.0
H190 H 0.43107 0.354 0.40113 0.0
H191 H 0.67498 0.22308 0.2874 0.0
H192 H 0.62192 0.16997 0.24563 0.0
H193 H 0.65794 0.16506 0.30578 0.0
H194 H 0.47179 0.13517 0.32026 0.0
H195 H 0.43488 0.13986 0.26014 0.0
H196 H 0.36122 0.17252 0.31163 0.0
H197 H 0.39228 0.36286 0.31774 0.0
H198 H 0.35284 0.35366 0.23099 0.0
H199 H 0.46031 0.20143 0.20211 0.0
C200 C 0.55058 0.22287 0.39598 0.0
C201 C 0.53972 0.2571 0.44073 0.0
C202 C 0.49489 0.30413 0.44229 0.0
C203 C 0.46404 0.31775 0.39979 0.0
C204 C 0.47585 0.28335 0.35615 0.0
C205 C 0.51598 0.23655 0.35386 0.0
C206 C 0.51343 0.20578 0.30239 0.0
C207 C 0.62377 0.19003 0.28421 0.0
C208 C 0.441 0.16067 0.29838 0.0
C209 C 0.46832 0.24302 0.27615 0.0
C210 C 0.44777 0.28759 0.30796 0.0
C211 C 0.40701 0.328 0.29252 0.0
C212 C 0.38472 0.32241 0.2433 0.0
C213 C 0.40194 0.27666 0.21034 0.0
C214 C 0.44603 0.23672 0.22677 0.0
H215 H 0.6408 0.82791 0.14832 0.0
H216 H 0.39839 0.74223 0.06033 0.0
H217 H 0.31089 0.72895 0.13374 0.0
H218 H 0.6567 0.75481 0.23524 0.0
H219 H 0.67116 0.80483 0.28765 0.0
H220 H 0.71598 0.81239 0.22946 0.0
H221 H 0.60422 0.88972 0.23413 0.0
H222 H 0.56191 0.88548 0.29372 0.0
H223 H 0.46671 0.88767 0.24742 0.0
H224 H 0.25345 0.72122 0.21565 0.0
H225 H 0.22706 0.72178 0.3019 0.0
H226 H 0.50143 0.8147 0.33897 0.0
C227 C 0.56922 0.80653 0.14472 0.0
C228 C 0.52648 0.78605 0.09867 0.0
C229 C 0.43222 0.75856 0.09527 0.0
C230 C 0.38189 0.7507 0.13677 0.0
C231 C 0.42581 0.77118 0.18163 0.0
C232 C 0.51663 0.79894 0.18606 0.0
C233 C 0.547 0.81633 0.23886 0.0
C234 C 0.65422 0.79576 0.24833 0.0
C235 C 0.54479 0.87318 0.25444 0.0
C236 C 0.46047 0.79326 0.26319 0.0
C237 C 0.39133 0.76744 0.22934 0.0
C238 C 0.30667 0.74164 0.24252 0.0
C239 C 0.29241 0.74212 0.29161 0.0
C240 C 0.36173 0.76856 0.32707 0.0
C241 C 0.44672 0.79458 0.31263 0.0
H242 H 0.49315 0.81319 0.83689 0.0
H243 H 0.75448 0.71181 0.80278 0.0
H244 H 0.72938 0.70809 0.71573 0.0
H245 H 0.33122 0.75432 0.73665 0.0
H246 H 0.27996 0.81274 0.72882 0.0
H247 H 0.32498 0.80664 0.78739 0.0
H248 H 0.44517 0.88279 0.78901 0.0
H249 H 0.4034 0.88586 0.72907 0.0
H250 H 0.54029 0.87993 0.7415 0.0
H251 H 0.67435 0.71449 0.63237 0.0
H252 H 0.58832 0.72748 0.55822 0.0
H253 H 0.35698 0.82145 0.64556 0.0
C254 C 0.54524 0.79047 0.81102 0.0
C255 C 0.62593 0.76292 0.82644 0.0
C256 C 0.69214 0.73322 0.79165 0.0
C257 C 0.67871 0.73098 0.74214 0.0
C258 C 0.59813 0.7584 0.72798 0.0
C259 C 0.53228 0.78743 0.76131 0.0
C260 C 0.44942 0.8117 0.73628 0.0
C261 C 0.33972 0.79526 0.74794 0.0
C262 C 0.46027 0.86844 0.74977 0.0
C263 C 0.47745 0.79108 0.68374 0.0
C264 C 0.56462 0.76102 0.67981 0.0
C265 C 0.60611 0.73797 0.63502 0.0
C266 C 0.55689 0.74565 0.59316 0.0
C267 C 0.46611 0.77535 0.59636 0.0
C268 C 0.42596 0.79834 0.64223 0.0
H269 H 0.60194 0.32033 0.74237 0.0
H270 H 0.52788 0.16851 0.6712 0.0
H271 H 0.48932 0.14944 0.75009 0.0
H272 H 0.72204 0.29597 0.84873 0.0
H273 H 0.66381 0.34728 0.89098 0.0
H274 H 0.68659 0.35159 0.82936 0.0
H275 H 0.49282 0.37085 0.81773 0.0
H276 H 0.46856 0.36902 0.87991 0.0
H277 H 0.39341 0.33034 0.83232 0.0
H278 H 0.4568 0.14588 0.83461 0.0
H279 H 0.41418 0.16039 0.92148 0.0
H280 H 0.50722 0.31416 0.94101 0.0
C281 C 0.57712 0.28322 0.74359 0.0
C282 C 0.56833 0.24577 0.70071 0.0
C283 C 0.53507 0.19774 0.70355 0.0
C284 C 0.51376 0.18641 0.74824 0.0
C285 C 0.52527 0.2236 0.78989 0.0
C286 C 0.55407 0.27131 0.78818 0.0
C287 C 0.5539 0.30473 0.83865 0.0
C288 C 0.66318 0.32611 0.85274 0.0
C289 C 0.47232 0.34617 0.84236 0.0
C290 C 0.52208 0.26809 0.86878 0.0
C291 C 0.50644 0.22149 0.83963 0.0
C292 C 0.4703 0.18194 0.858 0.0
C293 C 0.44684 0.19043 0.90732 0.0
C294 C 0.46031 0.23791 0.93781 0.0
C295 C 0.50018 0.27711 0.9186 0.0
H296 H 0.89995 0.80455 0.23627 0.0
H297 H 0.94182 0.65129 0.16076 0.0
H298 H 0.99576 0.63001 0.23701 0.0
H299 H 0.12096 0.80799 0.31768 0.0
H300 H 0.0579 0.84668 0.36926 0.0
H301 H 0.02291 0.8517 0.30897 0.0
H302 H 0.83105 0.83644 0.32664 0.0
H303 H 0.86301 0.83039 0.3868 0.0
H304 H 0.7939 0.78114 0.34656 0.0
H305 H 0.04572 0.62442 0.32004 0.0
H306 H 0.0929 0.63568 0.40639 0.0
H307 H 0.01169 0.79113 0.43115 0.0
C308 C 0.91937 0.76648 0.23604 0.0
C309 C 0.915 0.72933 0.19266 0.0
C310 C 0.94411 0.68026 0.1935 0.0
C311 C 0.9746 0.66776 0.23669 0.0
C312 C 0.97604 0.70478 0.27894 0.0
C313 C 0.94996 0.75328 0.27918 0.0
C314 C 0.96036 0.78579 0.32995 0.0
C315 C 0.04561 0.82535 0.33154 0.0
C316 C 0.85569 0.80979 0.34853 0.0
C317 C 0.99318 0.74758 0.35808 0.0
C318 C 0.00289 0.70126 0.32766 0.0
C319 C 0.03698 0.66032 0.34437 0.0
C320 C 0.06287 0.6669 0.3934 0.0
C321 C 0.05242 0.71371 0.42532 0.0
C322 C 0.01658 0.75457 0.4076 0.0
H323 H 0.96509 0.30705 0.33875 0.0
H324 H 0.84744 0.15636 0.30783 0.0
H325 H 0.88148 0.14911 0.22067 0.0
H326 H 0.86543 0.3414 0.23265 0.0
H327 H 0.97882 0.37707 0.2238 0.0
H328 H 0.94397 0.3709 0.28377 0.0
H329 H 0.12789 0.33609 0.29495 0.0
H330 H 0.16274 0.3429 0.23522 0.0
H331 H 0.17545 0.28339 0.25086 0.0
H332 H 0.91391 0.16096 0.13679 0.0
H333 H 0.97197 0.18504 0.06221 0.0
H334 H 0.0851 0.32526 0.14739 0.0
C335 C 0.9472 0.27248 0.31358 0.0
C336 C 0.90126 0.23259 0.32963 0.0
C337 C 0.88027 0.1877 0.29592 0.0
C338 C 0.89942 0.18325 0.24644 0.0
C339 C 0.94159 0.22378 0.23147 0.0
C340 C 0.96716 0.2672 0.26404 0.0
C341 C 0.01491 0.30452 0.23845 0.0
C342 C 0.94669 0.35123 0.24507 0.0
C343 C 0.12701 0.31746 0.25594 0.0
C344 C 0.01294 0.27518 0.18644 0.0
C345 C 0.96807 0.22911 0.18324 0.0
C346 C 0.95151 0.19638 0.1389 0.0
C347 C 0.98391 0.21058 0.09675 0.0
C348 C 0.03415 0.25666 0.09929 0.0
C349 C 0.04847 0.28946 0.14469 0.0
H350 H 0.83927 0.27888 0.64312 0.0
H351 H 0.13055 0.24732 0.56499 0.0
H352 H 0.22051 0.24275 0.64109 0.0
H353 H 0.93852 0.35297 0.75189 0.0
H354 H 0.85693 0.32789 0.7923 0.0
H355 H 0.81082 0.32886 0.73247 0.0
H356 H 0.78258 0.23306 0.70988 0.0
H357 H 0.81514 0.23364 0.77179 0.0
H358 H 0.88427 0.19343 0.72291 0.0
H359 H 0.27751 0.24084 0.72548 0.0
H360 H 0.29716 0.24034 0.81191 0.0
H361 H 0.96635 0.27034 0.83479 0.0
C362 C 0.92164 0.27142 0.64222 0.0
C363 C 0.97788 0.26392 0.5985 0.0
C364 C 0.0861 0.25346 0.59835 0.0
C365 C 0.13775 0.25071 0.64129 0.0
C366 C 0.07945 0.25783 0.68383 0.0
C367 C 0.9736 0.26755 0.68456 0.0
C368 C 0.92816 0.27187 0.73467 0.0
C369 C 0.88073 0.32347 0.75393 0.0
C370 C 0.84777 0.23057 0.7349 0.0
C371 C 0.02544 0.26425 0.76235 0.0
C372 C 0.11181 0.25595 0.73225 0.0
C373 C 0.21037 0.24725 0.74931 0.0
C374 C 0.22078 0.24697 0.79841 0.0
C375 C 0.13335 0.25529 0.82982 0.0
C376 C 0.03445 0.26397 0.81152 0.0
H377 H 0.10098 0.79071 0.73075 0.0
H378 H 0.05659 0.63591 0.66162 0.0
H379 H 0.99588 0.6193 0.73942 0.0
H380 H 0.19725 0.77695 0.84398 0.0
H381 H 0.12391 0.82697 0.88095 0.0
H382 H 0.15911 0.82983 0.8203 0.0
H383 H 0.96961 0.8392 0.79508 0.0
H384 H 0.93179 0.84141 0.85641 0.0
H385 H 0.87147 0.79729 0.80795 0.0
H386 H 0.93758 0.6199 0.82469 0.0
H387 H 0.88813 0.63755 0.91141 0.0
H388 H 0.98264 0.79034 0.92689 0.0
C389 C 0.08041 0.75317 0.73226 0.0
C390 C 0.08543 0.71435 0.6904 0.0
C391 C 0.05386 0.6661 0.69333 0.0
C392 C 0.01949 0.65633 0.73738 0.0
C393 C 0.01679 0.69527 0.77819 0.0
C394 C 0.04628 0.74277 0.77602 0.0
C395 C 0.0317 0.7784 0.82468 0.0
C396 C 0.13431 0.80447 0.84355 0.0
C397 C 0.94604 0.81624 0.82085 0.0
C398 C 0.99631 0.74295 0.85539 0.0
C399 C 0.98526 0.69542 0.82748 0.0
C400 C 0.94755 0.65679 0.84701 0.0
C401 C 0.92038 0.66699 0.89625 0.0
C402 C 0.93417 0.71495 0.92575 0.0
C403 C 0.97341 0.75326 0.90513 0.0
loop_
_geom_bond_atom_site_label_1
_geom_bond_atom_site_label_2
_geom_bond_distance
_geom_bond_site_symmetry_2
_ccdc_geom_bond_type
Tb0 O3 2.453 1_554 S
Tb0 O4 2.596 1_554 S
Tb0 O5 2.374 . S
Tb0 O13 2.343 . S
Tb0 O15 2.354 . S
Tb0 O17 2.427 . S
Tb0 O18 2.513 . S
C1 O5 1.251 . S
C1 O7 1.263 . S
Tb2 O4 2.343 . S
Tb2 O7 2.353 1_556 S
Tb2 O10 2.427 . S
Tb2 O11 2.513 . S
Tb2 O12 2.453 1_556 S
Tb2 O13 2.596 1_556 S
Tb2 O14 2.374 . S
O3 Tb0 2.453 1_556 S
O3 C19 1.245 . S
O4 Tb0 2.596 1_556 S
O4 Tb2 2.343 . S
O4 C19 1.259 . S
O5 Tb0 2.374 . S
O5 C1 1.251 . S
C6 O10 1.275 . S
C6 O11 1.246 . S
O7 C1 1.263 . S
O7 Tb2 2.353 1_554 S
C8 O12 1.245 . S
C8 O13 1.259 . S
C9 O14 1.250 . S
C9 O15 1.262 1_556 S
O10 Tb2 2.427 . S
O10 C6 1.275 . S
O11 Tb2 2.513 . S
O11 C6 1.246 . S
O12 Tb2 2.453 1_554 S
O12 C8 1.245 . S
O13 Tb0 2.343 . S
O13 Tb2 2.596 1_554 S
O13 C8 1.259 . S
O14 Tb2 2.374 . S
O14 C9 1.250 . S
O15 Tb0 2.354 . S
O15 C9 1.262 1_554 S
C16 O17 1.275 . S
C16 O18 1.246 . S
O17 Tb0 2.427 . S
O17 C16 1.275 . S
O18 Tb0 2.513 . S
O18 C16 1.246 . S
C19 O3 1.245 . S
C19 O4 1.259 . S
Tb20 O23 2.453 1_554 S
Tb20 O24 2.596 1_554 S
Tb20 O25 2.374 . S
Tb20 O33 2.343 . S
Tb20 O35 2.354 . S
Tb20 O37 2.427 . S
Tb20 O38 2.513 . S
C21 O25 1.251 . S
C21 O27 1.263 . S
Tb22 O24 2.343 . S
Tb22 O27 2.353 1_556 S
Tb22 O30 2.427 . S
Tb22 O31 2.513 . S
Tb22 O32 2.453 1_556 S
Tb22 O33 2.596 1_556 S
Tb22 O34 2.374 . S
O23 Tb20 2.453 1_556 S
O23 C39 1.245 . S
O24 Tb20 2.596 1_556 S
O24 Tb22 2.343 . S
O24 C39 1.259 . S
O25 Tb20 2.374 . S
O25 C21 1.251 . S
C26 O30 1.275 . S
C26 O31 1.246 . S
O27 C21 1.263 . S
O27 Tb22 2.353 1_554 S
C28 O32 1.245 . S
C28 O33 1.259 . S
C29 O34 1.250 . S
C29 O35 1.262 1_556 S
O30 Tb22 2.427 . S
O30 C26 1.275 . S
O31 Tb22 2.513 . S
O31 C26 1.246 . S
O32 Tb22 2.453 1_554 S
O32 C28 1.245 . S
O33 Tb20 2.343 . S
O33 Tb22 2.596 1_554 S
O33 C28 1.259 . S
O34 Tb22 2.374 . S
O34 C29 1.250 . S
O35 Tb20 2.354 . S
O35 C29 1.262 1_554 S
C36 O37 1.275 . S
C36 O38 1.246 . S
O37 Tb20 2.427 . S
O37 C36 1.275 . S
O38 Tb20 2.513 . S
O38 C36 1.246 . S
C39 O23 1.245 . S
C39 O24 1.259 . S
Tb40 O43 2.453 . S
Tb40 O44 2.596 . S
Tb40 O45 2.374 . S
Tb40 O53 2.343 . S
Tb40 O55 2.353 . S
Tb40 O57 2.427 . S
Tb40 O58 2.513 . S
C41 O45 1.251 . S
C41 O47 1.263 . S
Tb42 O44 2.343 . S
Tb42 O47 2.353 . S
Tb42 O50 2.427 . S
Tb42 O51 2.513 . S
Tb42 O52 2.453 . S
Tb42 O53 2.596 . S
Tb42 O54 2.374 . S
O43 Tb40 2.453 . S
O43 C59 1.245 . S
O44 Tb40 2.596 . S
O44 Tb42 2.343 . S
O44 C59 1.259 . S
O45 Tb40 2.374 . S
O45 C41 1.251 . S
C46 O50 1.275 . S
C46 O51 1.246 . S
O47 C41 1.263 . S
O47 Tb42 2.353 . S
C48 O52 1.245 . S
C48 O53 1.259 . S
C49 O54 1.250 . S
C49 O55 1.263 . S
O50 Tb42 2.427 . S
O50 C46 1.275 . S
O51 Tb42 2.513 . S
O51 C46 1.246 . S
O52 Tb42 2.453 . S
O52 C48 1.245 . S
O53 Tb40 2.343 . S
O53 Tb42 2.596 . S
O53 C48 1.259 . S
O54 Tb42 2.374 . S
O54 C49 1.250 . S
O55 Tb40 2.353 . S
O55 C49 1.263 . S
C56 O57 1.275 . S
C56 O58 1.246 . S
O57 Tb40 2.427 . S
O57 C56 1.275 . S
O58 Tb40 2.513 . S
O58 C56 1.246 . S
C59 O43 1.245 . S
C59 O44 1.259 . S
Tb60 O63 2.453 . S
Tb60 O64 2.596 . S
Tb60 O65 2.374 . S
Tb60 O73 2.343 . S
Tb60 O75 2.353 . S
Tb60 O77 2.427 . S
Tb60 O78 2.513 . S
C61 O65 1.251 . S
C61 O67 1.263 . S
Tb62 O64 2.343 . S
Tb62 O67 2.353 . S
Tb62 O70 2.427 . S
Tb62 O71 2.513 . S
Tb62 O72 2.453 . S
Tb62 O73 2.596 . S
Tb62 O74 2.374 . S
O63 Tb60 2.453 . S
O63 C79 1.245 . S
O64 Tb60 2.596 . S
O64 Tb62 2.343 . S
O64 C79 1.259 . S
O65 Tb60 2.374 . S
O65 C61 1.251 . S
C66 O70 1.275 . S
C66 O71 1.246 . S
O67 C61 1.263 . S
O67 Tb62 2.353 . S
C68 O72 1.245 . S
C68 O73 1.259 . S
C69 O74 1.250 . S
C69 O75 1.263 . S
O70 Tb62 2.427 . S
O70 C66 1.275 . S
O71 Tb62 2.513 . S
O71 C66 1.246 . S
O72 Tb62 2.453 . S
O72 C68 1.245 . S
O73 Tb60 2.343 . S
O73 Tb62 2.596 . S
O73 C68 1.259 . S
O74 Tb62 2.374 . S
O74 C69 1.250 . S
O75 Tb60 2.353 . S
O75 C69 1.263 . S
C76 O77 1.275 . S
C76 O78 1.246 . S
O77 Tb60 2.427 . S
O77 C76 1.275 . S
O78 Tb60 2.513 . S
O78 C76 1.246 . S
C79 O63 1.245 . S
C79 O64 1.259 . S
H80 C92 0.930 . S
H81 C94 0.930 . S
H82 C95 0.930 . S
H83 C99 0.959 . S
H84 C99 0.959 . S
H85 C99 0.961 . S
H86 C100 0.960 . S
H87 C100 0.961 . S
H88 C100 0.959 . S
H89 C103 0.929 . S
H90 C104 0.931 . S
H91 C106 0.930 . S
C92 H80 0.930 . S
C92 C93 1.399 1_554 S
C92 C97 1.399 . S
C93 C92 1.399 1_556 S
C93 C94 1.376 . S
C94 H81 0.930 . S
C94 C93 1.376 . S
C94 C95 1.388 . S
C95 H82 0.930 . S
C95 C94 1.388 . S
C95 C96 1.390 . S
C96 C95 1.390 . S
C96 C97 1.394 1_556 S
C96 C102 1.465 . S
C97 C92 1.399 . S
C97 C96 1.394 1_554 S
C97 C98 1.516 . S
C98 C97 1.516 . S
C98 C99 1.502 . S
C98 C100 1.561 . S
C98 C101 1.526 . S
C99 H83 0.959 . S
C99 H84 0.959 . S
C99 H85 0.961 . S
C99 C98 1.502 . S
C100 H86 0.960 . S
C100 H87 0.961 . S
C100 H88 0.959 . S
C100 C98 1.561 . S
C101 C98 1.526 . S
C101 C102 1.396 1_554 S
C101 C106 1.390 . S
C102 C96 1.465 . S
C102 C101 1.396 1_556 S
C102 C103 1.399 . S
C103 H89 0.929 . S
C103 C102 1.399 . S
C103 C104 1.385 . S
C104 H90 0.931 . S
C104 C103 1.385 . S
C104 C105 1.389 . S
C105 C104 1.389 . S
C105 C106 1.387 1_556 S
C106 H91 0.930 . S
C106 C101 1.390 . S
C106 C105 1.387 1_554 S
H107 C119 0.930 . S
H108 C121 0.930 . S
H109 C122 0.930 . S
H110 C126 0.959 . S
H111 C126 0.959 . S
H112 C126 0.961 . S
H113 C127 0.960 . S
H114 C127 0.961 . S
H115 C127 0.959 . S
H116 C130 0.929 . S
H117 C131 0.931 . S
H118 C133 0.930 . S
C119 H107 0.930 . S
C119 C120 1.399 . S
C119 C124 1.399 . S
C120 C119 1.399 . S
C120 C121 1.376 . S
C121 H108 0.930 . S
C121 C120 1.376 . S
C121 C122 1.388 . S
C122 H109 0.930 . S
C122 C121 1.388 . S
C122 C123 1.390 . S
C123 C122 1.390 . S
C123 C124 1.394 . S
C123 C129 1.465 . S
C124 C119 1.399 . S
C124 C123 1.394 . S
C124 C125 1.516 . S
C125 C124 1.516 . S
C125 C126 1.502 . S
C125 C127 1.561 . S
C125 C128 1.526 . S
C126 H110 0.959 . S
C126 H111 0.959 . S
C126 H112 0.961 . S
C126 C125 1.502 . S
C127 H113 0.960 . S
C127 H114 0.961 . S
C127 H115 0.959 . S
C127 C125 1.561 . S
C128 C125 1.526 . S
C128 C129 1.396 . S
C128 C133 1.390 . S
C129 C123 1.465 . S
C129 C128 1.396 . S
C129 C130 1.399 . S
C130 H116 0.929 . S
C130 C129 1.399 . S
C130 C131 1.385 . S
C131 H117 0.931 . S
C131 C130 1.385 . S
C131 C132 1.389 . S
C132 C131 1.389 . S
C132 C133 1.387 . S
C133 H118 0.930 . S
C133 C128 1.390 . S
C133 C132 1.387 . S
H134 C146 0.930 . S
H135 C148 0.930 . S
H136 C149 0.930 1_655 S
H137 C153 0.959 . S
H138 C153 0.959 . S
H139 C153 0.961 1_545 S
H140 C154 0.960 . S
H141 C154 0.961 . S
H142 C154 0.959 . S
H143 C157 0.929 . S
H144 C158 0.931 . S
H145 C160 0.930 . S
C146 H134 0.930 . S
C146 C147 1.399 1_554 S
C146 C151 1.399 . S
C147 C146 1.399 1_556 S
C147 C148 1.376 . S
C148 H135 0.930 . S
C148 C147 1.376 . S
C148 C149 1.388 . S
C149 H136 0.930 1_455 S
C149 C148 1.388 . S
C149 C150 1.390 1_455 S
C150 C149 1.390 1_655 S
C150 C151 1.393 1_656 S
C150 C156 1.466 1_545 S
C151 C146 1.399 . S
C151 C150 1.393 1_454 S
C151 C152 1.516 . S
C152 C151 1.516 . S
C152 C153 1.502 1_545 S
C152 C154 1.561 1_455 S
C152 C155 1.526 1_445 S
C153 H137 0.959 . S
C153 H138 0.959 . S
C153 H139 0.961 1_565 S
C153 C152 1.502 1_565 S
C154 H140 0.960 . S
C154 H141 0.961 . S
C154 H142 0.959 . S
C154 C152 1.561 1_655 S
C155 C152 1.526 1_665 S
C155 C156 1.396 1_554 S
C155 C160 1.390 . S
C156 C150 1.466 1_565 S
C156 C155 1.396 1_556 S
C156 C157 1.399 . S
C157 H143 0.929 . S
C157 C156 1.399 . S
C157 C158 1.385 . S
C158 H144 0.931 . S
C158 C157 1.385 . S
C158 C159 1.389 . S
C159 C158 1.389 . S
C159 C160 1.387 1_556 S
C160 H145 0.930 . S
C160 C155 1.390 . S
C160 C159 1.387 1_554 S
H161 C173 0.930 . S
H162 C175 0.930 . S
H163 C176 0.930 1_455 S
H164 C180 0.959 . S
H165 C180 0.959 . S
H166 C180 0.961 . S
H167 C181 0.958 1_645 S
H168 C181 0.961 . S
H169 C181 0.956 1_545 S
H170 C184 0.929 . S
H171 C185 0.931 . S
H172 C187 0.930 . S
C173 H161 0.930 . S
C173 C174 1.399 . S
C173 C178 1.399 . S
C174 C173 1.399 . S
C174 C175 1.376 . S
C175 H162 0.930 . S
C175 C174 1.376 . S
C175 C176 1.388 . S
C176 H163 0.930 1_655 S
C176 C175 1.388 . S
C176 C177 1.390 1_655 S
C177 C176 1.390 1_455 S
C177 C178 1.394 1_455 S
C177 C183 1.465 1_545 S
C178 C173 1.399 . S
C178 C177 1.394 1_655 S
C178 C179 1.516 1_545 S
C179 C178 1.516 1_565 S
C179 C180 1.502 . S
C179 C181 1.561 1_655 S
C179 C182 1.526 1_655 S
C180 H164 0.959 . S
C180 H165 0.959 . S
C180 H166 0.961 . S
C180 C179 1.502 . S
C181 H167 0.958 1_465 S
C181 H168 0.961 . S
C181 H169 0.956 1_565 S
C181 C179 1.561 1_455 S
C182 C179 1.526 1_455 S
C182 C183 1.396 . S
C182 C187 1.390 . S
C183 C177 1.465 1_565 S
C183 C182 1.396 . S
C183 C184 1.399 . S
C184 H170 0.929 . S
C184 C183 1.399 . S
C184 C185 1.385 . S
C185 H171 0.931 . S
C185 C184 1.385 . S
C185 C186 1.389 . S
C186 C185 1.389 . S
C186 C187 1.387 . S
C187 H172 0.930 . S
C187 C182 1.390 . S
C187 C186 1.387 . S
H188 C200 0.930 . S
H189 C202 0.930 . S
H190 C203 0.930 . S
H191 C207 0.959 . S
H192 C207 0.959 . S
H193 C207 0.961 . S
H194 C208 0.960 . S
H195 C208 0.961 . S
H196 C208 0.959 . S
H197 C211 0.929 . S
H198 C212 0.931 . S
H199 C214 0.930 . S
C200 H188 0.930 . S
C200 C201 1.399 . S
C200 C205 1.399 . S
C201 C200 1.399 . S
C201 C202 1.376 . S
C202 H189 0.930 . S
C202 C201 1.376 . S
C202 C203 1.388 . S
C203 H190 0.930 . S
C203 C202 1.388 . S
C203 C204 1.390 . S
C204 C203 1.390 . S
C204 C205 1.394 . S
C204 C210 1.465 . S
C205 C200 1.399 . S
C205 C204 1.394 . S
C205 C206 1.516 . S
C206 C205 1.516 . S
C206 C207 1.502 . S
C206 C208 1.561 . S
C206 C209 1.526 . S
C207 H191 0.959 . S
C207 H192 0.959 . S
C207 H193 0.961 . S
C207 C206 1.502 . S
C208 H194 0.960 . S
C208 H195 0.961 . S
C208 H196 0.959 . S
C208 C206 1.561 . S
C209 C206 1.526 . S
C209 C210 1.396 . S
C209 C214 1.390 . S
C210 C204 1.465 . S
C210 C209 1.396 . S
C210 C211 1.399 . S
C211 H197 0.929 . S
C211 C210 1.399 . S
C211 C212 1.385 . S
C212 H198 0.931 . S
C212 C211 1.385 . S
C212 C213 1.389 . S
C213 C212 1.389 . S
C213 C214 1.387 . S
C214 H199 0.930 . S
C214 C209 1.390 . S
C214 C213 1.387 . S
H215 C227 0.930 . S
H216 C229 0.930 . S
H217 C230 0.930 . S
H218 C234 0.959 . S
H219 C234 0.959 . S
H220 C234 0.961 . S
H221 C235 0.960 . S
H222 C235 0.961 . S
H223 C235 0.959 . S
H224 C238 0.929 . S
H225 C239 0.931 . S
H226 C241 0.930 . S
C227 H215 0.930 . S
C227 C228 1.399 . S
C227 C232 1.399 . S
C228 C227 1.399 . S
C228 C229 1.376 . S
C229 H216 0.930 . S
C229 C228 1.376 . S
C229 C230 1.388 . S
C230 H217 0.930 . S
C230 C229 1.388 . S
C230 C231 1.390 . S
C231 C230 1.390 . S
C231 C232 1.394 . S
C231 C237 1.465 . S
C232 C227 1.399 . S
C232 C231 1.394 . S
C232 C233 1.516 . S
C233 C232 1.516 . S
C233 C234 1.502 . S
C233 C235 1.561 . S
C233 C236 1.526 . S
C234 H218 0.959 . S
C234 H219 0.959 . S
C234 H220 0.961 . S
C234 C233 1.502 . S
C235 H221 0.960 . S
C235 H222 0.961 . S
C235 H223 0.959 . S
C235 C233 1.561 . S
C236 C233 1.526 . S
C236 C237 1.396 . S
C236 C241 1.390 . S
C237 C231 1.465 . S
C237 C236 1.396 . S
C237 C238 1.399 . S
C238 H224 0.929 . S
C238 C237 1.399 . S
C238 C239 1.385 . S
C239 H225 0.931 . S
C239 C238 1.385 . S
C239 C240 1.389 . S
C240 C239 1.389 . S
C240 C241 1.387 . S
C241 H226 0.930 . S
C241 C236 1.390 . S
C241 C240 1.387 . S
H242 C254 0.930 . S
H243 C256 0.930 . S
H244 C257 0.930 . S
H245 C261 0.959 . S
H246 C261 0.959 . S
H247 C261 0.961 . S
H248 C262 0.960 . S
H249 C262 0.961 . S
H250 C262 0.959 . S
H251 C265 0.929 . S
H252 C266 0.931 . S
H253 C268 0.930 . S
C254 H242 0.930 . S
C254 C255 1.399 . S
C254 C259 1.399 . S
C255 C254 1.399 . S
C255 C256 1.376 . S
C256 H243 0.930 . S
C256 C255 1.376 . S
C256 C257 1.388 . S
C257 H244 0.930 . S
C257 C256 1.388 . S
C257 C258 1.390 . S
C258 C257 1.390 . S
C258 C259 1.394 . S
C258 C264 1.465 . S
C259 C254 1.399 . S
C259 C258 1.394 . S
C259 C260 1.516 . S
C260 C259 1.516 . S
C260 C261 1.502 . S
C260 C262 1.561 . S
C260 C263 1.526 . S
C261 H245 0.959 . S
C261 H246 0.959 . S
C261 H247 0.961 . S
C261 C260 1.502 . S
C262 H248 0.960 . S
C262 H249 0.961 . S
C262 H250 0.959 . S
C262 C260 1.561 . S
C263 C260 1.526 . S
C263 C264 1.396 . S
C263 C268 1.390 . S
C264 C258 1.465 . S
C264 C263 1.396 . S
C264 C265 1.399 . S
C265 H251 0.929 . S
C265 C264 1.399 . S
C265 C266 1.385 . S
C266 H252 0.931 . S
C266 C265 1.385 . S
C266 C267 1.389 . S
C267 C266 1.389 . S
C267 C268 1.387 . S
C268 H253 0.930 . S
C268 C263 1.390 . S
C268 C267 1.387 . S
H269 C281 0.930 . S
H270 C283 0.930 . S
H271 C284 0.930 . S
H272 C288 0.959 . S
H273 C288 0.959 . S
H274 C288 0.961 . S
H275 C289 0.960 . S
H276 C289 0.961 . S
H277 C289 0.959 . S
H278 C292 0.929 . S
H279 C293 0.931 . S
H280 C295 0.930 . S
C281 H269 0.930 . S
C281 C282 1.399 . S
C281 C286 1.399 . S
C282 C281 1.399 . S
C282 C283 1.376 . S
C283 H270 0.930 . S
C283 C282 1.376 . S
C283 C284 1.388 . S
C284 H271 0.930 . S
C284 C283 1.388 . S
C284 C285 1.390 . S
C285 C284 1.390 . S
C285 C286 1.394 . S
C285 C291 1.465 . S
C286 C281 1.399 . S
C286 C285 1.394 . S
C286 C287 1.516 . S
C287 C286 1.516 . S
C287 C288 1.502 . S
C287 C289 1.561 . S
C287 C290 1.526 . S
C288 H272 0.959 . S
C288 H273 0.959 . S
C288 H274 0.961 . S
C288 C287 1.502 . S
C289 H275 0.960 . S
C289 H276 0.961 . S
C289 H277 0.959 . S
C289 C287 1.561 . S
C290 C287 1.526 . S
C290 C291 1.396 . S
C290 C295 1.390 . S
C291 C285 1.465 . S
C291 C290 1.396 . S
C291 C292 1.399 . S
C292 H278 0.929 . S
C292 C291 1.399 . S
C292 C293 1.385 . S
C293 H279 0.931 . S
C293 C292 1.385 . S
C293 C294 1.389 . S
C294 C293 1.389 . S
C294 C295 1.387 . S
C295 H280 0.930 . S
C295 C290 1.390 . S
C295 C294 1.387 . S
H296 C308 0.930 1_455 S
H297 C310 0.930 . S
H298 C311 0.930 . S
H299 C315 0.959 . S
H300 C315 0.959 . S
H301 C315 0.961 . S
H302 C316 0.960 . S
H303 C316 0.961 1_455 S
H304 C316 0.959 . S
H305 C319 0.929 1_655 S
H306 C320 0.931 . S
H307 C322 0.930 . S
C308 H296 0.930 1_655 S
C308 C309 1.399 . S
C308 C313 1.399 1_655 S
C309 C308 1.399 . S
C309 C310 1.376 . S
C310 H297 0.930 . S
C310 C309 1.376 . S
C310 C311 1.388 . S
C311 H298 0.930 . S
C311 C310 1.388 . S
C311 C312 1.390 . S
C312 C311 1.390 . S
C312 C313 1.394 1_655 S
C312 C318 1.465 1_655 S
C313 C308 1.399 1_455 S
C313 C312 1.394 1_455 S
C313 C314 1.516 . S
C314 C313 1.516 . S
C314 C315 1.502 . S
C314 C316 1.561 1_455 S
C314 C317 1.526 . S
C315 H299 0.959 . S
C315 H300 0.959 . S
C315 H301 0.961 . S
C315 C314 1.502 . S
C316 H302 0.960 . S
C316 H303 0.961 1_655 S
C316 H304 0.959 . S
C316 C314 1.561 1_655 S
C317 C314 1.526 . S
C317 C318 1.396 . S
C317 C322 1.390 . S
C318 C312 1.465 1_455 S
C318 C317 1.396 . S
C318 C319 1.399 . S
C319 H305 0.929 1_455 S
C319 C318 1.399 . S
C319 C320 1.385 . S
C320 H306 0.931 . S
C320 C319 1.385 . S
C320 C321 1.389 . S
C321 C320 1.389 . S
C321 C322 1.387 . S
C322 H307 0.930 . S
C322 C317 1.390 . S
C322 C321 1.387 . S
H323 C335 0.930 . S
H324 C337 0.930 . S
H325 C338 0.930 . S
H326 C342 0.959 . S
H327 C342 0.959 . S
H328 C342 0.961 . S
H329 C343 0.960 . S
H330 C343 0.961 . S
H331 C343 0.959 . S
H332 C346 0.929 . S
H333 C347 0.931 . S
H334 C349 0.930 . S
C335 H323 0.930 . S
C335 C336 1.399 . S
C335 C340 1.399 . S
C336 C335 1.399 . S
C336 C337 1.376 . S
C337 H324 0.930 . S
C337 C336 1.376 . S
C337 C338 1.388 1_655 S
C338 H325 0.930 . S
C338 C337 1.388 1_455 S
C338 C339 1.390 . S
C339 C338 1.390 . S
C339 C340 1.394 1_455 S
C339 C345 1.465 . S
C340 C335 1.399 . S
C340 C339 1.394 1_655 S
C340 C341 1.516 1_655 S
C341 C340 1.516 1_455 S
C341 C342 1.499 1_455 S
C341 C343 1.563 . S
C341 C344 1.527 . S
C342 H326 0.959 . S
C342 H327 0.959 . S
C342 H328 0.961 . S
C342 C341 1.499 1_655 S
C343 H329 0.960 . S
C343 H330 0.961 . S
C343 H331 0.959 . S
C343 C341 1.563 . S
C344 C341 1.527 . S
C344 C345 1.396 . S
C344 C349 1.390 . S
C345 C339 1.465 . S
C345 C344 1.396 . S
C345 C346 1.399 . S
C346 H332 0.929 . S
C346 C345 1.399 . S
C346 C347 1.385 . S
C347 H333 0.931 . S
C347 C346 1.385 . S
C347 C348 1.389 . S
C348 C347 1.389 . S
C348 C349 1.387 . S
C349 H334 0.930 . S
C349 C344 1.390 . S
C349 C348 1.387 . S
H350 C362 0.930 . S
H351 C364 0.930 . S
H352 C365 0.930 1_455 S
H353 C369 0.959 . S
H354 C369 0.959 . S
H355 C369 0.961 . S
H356 C370 0.960 1_655 S
H357 C370 0.961 . S
H358 C370 0.959 . S
H359 C373 0.929 . S
H360 C374 0.931 . S
H361 C376 0.930 . S
C362 H350 0.930 . S
C362 C363 1.399 . S
C362 C367 1.399 . S
C363 C362 1.399 . S
C363 C364 1.376 . S
C364 H351 0.930 . S
C364 C363 1.376 . S
C364 C365 1.388 . S
C365 H352 0.930 1_655 S
C365 C364 1.388 . S
C365 C366 1.390 . S
C366 C365 1.390 . S
C366 C367 1.394 . S
C366 C372 1.465 1_655 S
C367 C362 1.399 . S
C367 C366 1.394 . S
C367 C368 1.516 . S
C368 C367 1.516 . S
C368 C369 1.502 . S
C368 C370 1.561 1_655 S
C368 C371 1.526 . S
C369 H353 0.959 . S
C369 H354 0.959 . S
C369 H355 0.961 . S
C369 C368 1.502 . S
C370 H356 0.960 1_455 S
C370 H357 0.961 . S
C370 H358 0.959 . S
C370 C368 1.561 1_455 S
C371 C368 1.526 . S
C371 C372 1.396 1_655 S
C371 C376 1.390 1_655 S
C372 C366 1.465 1_455 S
C372 C371 1.396 1_455 S
C372 C373 1.399 . S
C373 H359 0.929 . S
C373 C372 1.399 . S
C373 C374 1.385 . S
C374 H360 0.931 . S
C374 C373 1.385 . S
C374 C375 1.389 . S
C375 C374 1.389 . S
C375 C376 1.387 . S
C376 H361 0.930 . S
C376 C371 1.390 1_455 S
C376 C375 1.387 . S
H377 C389 0.930 . S
H378 C391 0.930 . S
H379 C392 0.930 . S
H380 C396 0.959 . S
H381 C396 0.959 . S
H382 C396 0.961 . S
H383 C397 0.960 . S
H384 C397 0.961 . S
H385 C397 0.959 . S
H386 C400 0.929 . S
H387 C401 0.931 . S
H388 C403 0.930 . S
C389 H377 0.930 . S
C389 C390 1.399 . S
C389 C394 1.399 . S
C390 C389 1.399 . S
C390 C391 1.376 . S
C391 H378 0.930 . S
C391 C390 1.376 . S
C391 C392 1.388 1_455 S
C392 H379 0.930 . S
C392 C391 1.388 1_655 S
C392 C393 1.390 . S
C393 C392 1.390 . S
C393 C394 1.394 1_655 S
C393 C399 1.465 . S
C394 C389 1.399 . S
C394 C393 1.394 1_455 S
C394 C395 1.516 1_455 S
C395 C394 1.516 1_655 S
C395 C396 1.502 1_655 S
C395 C397 1.561 . S
C395 C398 1.526 . S
C396 H380 0.959 . S
C396 H381 0.959 . S
C396 H382 0.961 . S
C396 C395 1.502 1_455 S
C397 H383 0.960 . S
C397 H384 0.961 . S
C397 H385 0.959 . S
C397 C395 1.561 . S
C398 C395 1.526 . S
C398 C399 1.396 . S
C398 C403 1.390 . S
C399 C393 1.465 . S
C399 C398 1.396 . S
C399 C400 1.399 . S
C400 H386 0.929 . S
C400 C399 1.399 . S
C400 C401 1.385 . S
C401 H387 0.931 . S
C401 C400 1.385 . S
C401 C402 1.389 . S
C402 C401 1.389 . S
C402 C403 1.387 . S
C403 H388 0.930 . S
C403 C398 1.390 . S
C403 C402 1.387 . S
C93 C29 1.484 . S
C105 C1 1.511 1_556 S
C120 C41 1.487 . S
C132 C69 1.509 . S
C147 C9 1.481 . S
C159 C21 1.513 1_556 S
C174 C61 1.504 . S
C186 C49 1.484 . S
C201 C68 1.286 . S
C213 C16 1.320 . S
C228 C28 1.285 . S
C240 C56 1.321 . S
C255 C26 1.324 . S
C267 C59 1.298 . S
C282 C66 1.304 . S
C294 C19 1.283 . S
C309 C36 1.328 . S
C321 C48 1.265 . S
C336 C76 1.296 . S
C348 C8 1.324 . S
C363 C79 1.262 . S
C375 C6 1.324 . S
C390 C46 1.301 . S
C402 C39 1.288 . S
