# Generated by pormake.
# Topology uka, (4)-cn, num edge types: 1
# Building blocks:
#     Node 0, Type 0, BuildingBlock: AZAVOO_clean_sbu_0, # of connection points: 4
#     Node 1, Type 0, BuildingBlock: AZAVOO_clean_sbu_0, # of connection points: 4
#     Node 2, Type 0, BuildingBlock: AZAVOO_clean_sbu_0, # of connection points: 4
#     Node 3, Type 0, BuildingBlock: AZAVOO_clean_sbu_0, # of connection points: 4
#     Node 4, Type 0, BuildingBlock: AZAVOO_clean_sbu_0, # of connection points: 4
#     Node 5, Type 0, BuildingBlock: AZAVOO_clean_sbu_0, # of connection points: 4
#     Node 6, Type 0, BuildingBlock: AZAVOO_clean_sbu_0, # of connection points: 4
#     Node 7, Type 0, BuildingBlock: AZAVOO_clean_sbu_0, # of connection points: 4
#     Node 8, Type 0, BuildingBlock: AZAVOO_clean_sbu_0, # of connection points: 4
#     Node 9, Type 0, BuildingBlock: AZAVOO_clean_sbu_0, # of connection points: 4
#     Node 10, Type 0, BuildingBlock: AZAVOO_clean_sbu_0, # of connection points: 4
#     Node 11, Type 0, BuildingBlock: AZAVOO_clean_sbu_0, # of connection points: 4
#     Node 12, Type 0, BuildingBlock: AZAVOO_clean_sbu_0, # of connection points: 4
#     Node 13, Type 0, BuildingBlock: AZAVOO_clean_sbu_0, # of connection points: 4
#     Node 14, Type 0, BuildingBlock: AZAVOO_clean_sbu_0, # of connection points: 4
#     Node 15, Type 0, BuildingBlock: AZAVOO_clean_sbu_0, # of connection points: 4
#     Node 16, Type 0, BuildingBlock: AZAVOO_clean_sbu_0, # of connection points: 4
#     Node 17, Type 0, BuildingBlock: AZAVOO_clean_sbu_0, # of connection points: 4
#     Node 18, Type 0, BuildingBlock: AZAVOO_clean_sbu_0, # of connection points: 4
#     Node 19, Type 0, BuildingBlock: AZAVOO_clean_sbu_0, # of connection points: 4
#     Node 20, Type 0, BuildingBlock: AZAVOO_clean_sbu_0, # of connection points: 4
#     Node 21, Type 0, BuildingBlock: AZAVOO_clean_sbu_0, # of connection points: 4
#     Node 22, Type 0, BuildingBlock: AZAVOO_clean_sbu_0, # of connection points: 4
#     Node 23, Type 0, BuildingBlock: AZAVOO_clean_sbu_0, # of connection points: 4
#     Node 24, Type 0, BuildingBlock: AZAVOO_clean_sbu_0, # of connection points: 4
#     Node 25, Type 0, BuildingBlock: AZAVOO_clean_sbu_0, # of connection points: 4
#     Node 26, Type 0, BuildingBlock: AZAVOO_clean_sbu_0, # of connection points: 4
#     Node 27, Type 0, BuildingBlock: AZAVOO_clean_sbu_0, # of connection points: 4
#     Node 28, Type 0, BuildingBlock: AZAVOO_clean_sbu_0, # of connection points: 4
#     Node 29, Type 0, BuildingBlock: AZAVOO_clean_sbu_0, # of connection points: 4
#     Node 30, Type 0, BuildingBlock: AZAVOO_clean_sbu_0, # of connection points: 4
#     Node 31, Type 0, BuildingBlock: AZAVOO_clean_sbu_0, # of connection points: 4
#     Edge 32, Type (0, 0), BuildingBlock: TEMPAE_clean_linker_10, # of connection points: 2
#     Edge 33, Type (0, 0), BuildingBlock: TEMPAE_clean_linker_10, # of connection points: 2
#     Edge 34, Type (0, 0), BuildingBlock: TEMPAE_clean_linker_10, # of connection points: 2
#     Edge 35, Type (0, 0), BuildingBlock: TEMPAE_clean_linker_10, # of connection points: 2
#     Edge 36, Type (0, 0), BuildingBlock: TEMPAE_clean_linker_10, # of connection points: 2
#     Edge 37, Type (0, 0), BuildingBlock: TEMPAE_clean_linker_10, # of connection points: 2
#     Edge 38, Type (0, 0), BuildingBlock: TEMPAE_clean_linker_10, # of connection points: 2
#     Edge 39, Type (0, 0), BuildingBlock: TEMPAE_clean_linker_10, # of connection points: 2
#     Edge 40, Type (0, 0), BuildingBlock: TEMPAE_clean_linker_10, # of connection points: 2
#     Edge 41, Type (0, 0), BuildingBlock: TEMPAE_clean_linker_10, # of connection points: 2
#     Edge 42, Type (0, 0), BuildingBlock: TEMPAE_clean_linker_10, # of connection points: 2
#     Edge 43, Type (0, 0), BuildingBlock: TEMPAE_clean_linker_10, # of connection points: 2
#     Edge 44, Type (0, 0), BuildingBlock: TEMPAE_clean_linker_10, # of connection points: 2
#     Edge 45, Type (0, 0), BuildingBlock: TEMPAE_clean_linker_10, # of connection points: 2
#     Edge 46, Type (0, 0), BuildingBlock: TEMPAE_clean_linker_10, # of connection points: 2
#     Edge 47, Type (0, 0), BuildingBlock: TEMPAE_clean_linker_10, # of connection points: 2
#     Edge 48, Type (0, 0), BuildingBlock: TEMPAE_clean_linker_10, # of connection points: 2
#     Edge 49, Type (0, 0), BuildingBlock: TEMPAE_clean_linker_10, # of connection points: 2
#     Edge 50, Type (0, 0), BuildingBlock: TEMPAE_clean_linker_10, # of connection points: 2
#     Edge 51, Type (0, 0), BuildingBlock: TEMPAE_clean_linker_10, # of connection points: 2
#     Edge 52, Type (0, 0), BuildingBlock: TEMPAE_clean_linker_10, # of connection points: 2
#     Edge 53, Type (0, 0), BuildingBlock: TEMPAE_clean_linker_10, # of connection points: 2
#     Edge 54, Type (0, 0), BuildingBlock: TEMPAE_clean_linker_10, # of connection points: 2
#     Edge 55, Type (0, 0), BuildingBlock: TEMPAE_clean_linker_10, # of connection points: 2
#     Edge 56, Type (0, 0), BuildingBlock: TEMPAE_clean_linker_10, # of connection points: 2
#     Edge 57, Type (0, 0), BuildingBlock: TEMPAE_clean_linker_10, # of connection points: 2
#     Edge 58, Type (0, 0), BuildingBlock: TEMPAE_clean_linker_10, # of connection points: 2
#     Edge 59, Type (0, 0), BuildingBlock: TEMPAE_clean_linker_10, # of connection points: 2
#     Edge 60, Type (0, 0), BuildingBlock: TEMPAE_clean_linker_10, # of connection points: 2
#     Edge 61, Type (0, 0), BuildingBlock: TEMPAE_clean_linker_10, # of connection points: 2
#     Edge 62, Type (0, 0), BuildingBlock: TEMPAE_clean_linker_10, # of connection points: 2
#     Edge 63, Type (0, 0), BuildingBlock: TEMPAE_clean_linker_10, # of connection points: 2
#     Edge 64, Type (0, 0), BuildingBlock: TEMPAE_clean_linker_10, # of connection points: 2
#     Edge 65, Type (0, 0), BuildingBlock: TEMPAE_clean_linker_10, # of connection points: 2
#     Edge 66, Type (0, 0), BuildingBlock: TEMPAE_clean_linker_10, # of connection points: 2
#     Edge 67, Type (0, 0), BuildingBlock: TEMPAE_clean_linker_10, # of connection points: 2
#     Edge 68, Type (0, 0), BuildingBlock: TEMPAE_clean_linker_10, # of connection points: 2
#     Edge 69, Type (0, 0), BuildingBlock: TEMPAE_clean_linker_10, # of connection points: 2
#     Edge 70, Type (0, 0), BuildingBlock: TEMPAE_clean_linker_10, # of connection points: 2
#     Edge 71, Type (0, 0), BuildingBlock: TEMPAE_clean_linker_10, # of connection points: 2
#     Edge 72, Type (0, 0), BuildingBlock: TEMPAE_clean_linker_10, # of connection points: 2
#     Edge 73, Type (0, 0), BuildingBlock: TEMPAE_clean_linker_10, # of connection points: 2
#     Edge 74, Type (0, 0), BuildingBlock: TEMPAE_clean_linker_10, # of connection points: 2
#     Edge 75, Type (0, 0), BuildingBlock: TEMPAE_clean_linker_10, # of connection points: 2
#     Edge 76, Type (0, 0), BuildingBlock: TEMPAE_clean_linker_10, # of connection points: 2
#     Edge 77, Type (0, 0), BuildingBlock: TEMPAE_clean_linker_10, # of connection points: 2
#     Edge 78, Type (0, 0), BuildingBlock: TEMPAE_clean_linker_10, # of connection points: 2
#     Edge 79, Type (0, 0), BuildingBlock: TEMPAE_clean_linker_10, # of connection points: 2
#     Edge 80, Type (0, 0), BuildingBlock: TEMPAE_clean_linker_10, # of connection points: 2
#     Edge 81, Type (0, 0), BuildingBlock: TEMPAE_clean_linker_10, # of connection points: 2
#     Edge 82, Type (0, 0), BuildingBlock: TEMPAE_clean_linker_10, # of connection points: 2
#     Edge 83, Type (0, 0), BuildingBlock: TEMPAE_clean_linker_10, # of connection points: 2
#     Edge 84, Type (0, 0), BuildingBlock: TEMPAE_clean_linker_10, # of connection points: 2
#     Edge 85, Type (0, 0), BuildingBlock: TEMPAE_clean_linker_10, # of connection points: 2
#     Edge 86, Type (0, 0), BuildingBlock: TEMPAE_clean_linker_10, # of connection points: 2
#     Edge 87, Type (0, 0), BuildingBlock: TEMPAE_clean_linker_10, # of connection points: 2
#     Edge 88, Type (0, 0), BuildingBlock: TEMPAE_clean_linker_10, # of connection points: 2
#     Edge 89, Type (0, 0), BuildingBlock: TEMPAE_clean_linker_10, # of connection points: 2
#     Edge 90, Type (0, 0), BuildingBlock: TEMPAE_clean_linker_10, # of connection points: 2
#     Edge 91, Type (0, 0), BuildingBlock: TEMPAE_clean_linker_10, # of connection points: 2
#     Edge 92, Type (0, 0), BuildingBlock: TEMPAE_clean_linker_10, # of connection points: 2
#     Edge 93, Type (0, 0), BuildingBlock: TEMPAE_clean_linker_10, # of connection points: 2
#     Edge 94, Type (0, 0), BuildingBlock: TEMPAE_clean_linker_10, # of connection points: 2
#     Edge 95, Type (0, 0), BuildingBlock: TEMPAE_clean_linker_10, # of connection points: 2
# Relax obj value: 0.272
# Max RMSD: 0.259
# Mean RMSD: 0.247
data_MOF--net-uka--node1-AZAVOO_clean_sbu_0--edge1-TEMPAE_clean_linker_10
_symmetry_space_group_name_H-M    P1
_symmetry_Int_Tables_number       1
_symmetry_cell_setting            triclinic
loop_
_symmetry_equiv_pos_as_xyz
'x, y, z'
_cell_length_a     60.244372
_cell_length_b     57.636803
_cell_length_c     42.195223
_cell_angle_alpha  89.999461
_cell_angle_beta   89.997001
_cell_angle_gamma 89.987676
loop_
_atom_site_label
_atom_site_type_symbol
_atom_site_fract_x
_atom_site_fract_y
_atom_site_fract_z
_atom_type_partial_charge
Mg0 Mg 0.11888 0.25659 0.24152 0.0
O1 O 0.0989 0.22824 0.26945 0.0
O2 O 0.06379 0.24081 0.27482 0.0
Mg3 Mg 0.05946 0.26685 0.23512 0.0
C4 C 0.07946 0.22673 0.28188 0.0
C5 C 0.15891 0.23345 0.27262 0.0
O6 O 0.14572 0.23698 0.29695 0.0
O7 O 0.1112 0.24337 0.19158 0.0
O8 O 0.07761 0.23859 0.20838 0.0
O9 O 0.11907 0.27738 0.28514 0.0
O10 O 0.09252 0.28052 0.24913 0.0
C11 C 0.09064 0.24213 0.18533 0.0
C12 C 0.10018 0.28605 0.2767 0.0
O13 O 0.15123 0.23658 0.2449 0.0
Mg14 Mg 0.01797 0.82886 0.55497 0.0
O15 O 0.99762 0.83617 0.59992 0.0
O16 O 0.02145 0.85013 0.63591 0.0
Mg17 Mg 0.05671 0.84934 0.61554 0.0
C18 C 0.00183 0.84445 0.62738 0.0
C19 C 0.98617 0.83425 0.4977 0.0
O20 O 0.00199 0.84872 0.48947 0.0
O21 O 0.02072 0.86784 0.5462 0.0
O22 O 0.04712 0.87835 0.58071 0.0
O23 O 0.02384 0.79281 0.57114 0.0
O24 O 0.0458 0.82242 0.58236 0.0
C25 C 0.03382 0.88298 0.55799 0.0
C26 C 0.04084 0.80087 0.58632 0.0
O27 O 0.98693 0.82481 0.52486 0.0
Mg28 Mg 0.38909 0.72349 0.76803 0.0
O29 O 0.40684 0.75686 0.78528 0.0
O30 O 0.44228 0.7466 0.79233 0.0
Mg31 Mg 0.4477 0.70883 0.77896 0.0
C32 C 0.42674 0.76163 0.79369 0.0
C33 C 0.34671 0.75141 0.77846 0.0
O34 O 0.35685 0.75349 0.80588 0.0
O35 O 0.40343 0.72662 0.71825 0.0
O36 O 0.43861 0.71601 0.72694 0.0
O37 O 0.38314 0.71384 0.81816 0.0
O38 O 0.41277 0.70316 0.79095 0.0
C39 C 0.42298 0.72218 0.70827 0.0
C40 C 0.40245 0.70405 0.81767 0.0
O41 O 0.35742 0.74284 0.75529 0.0
Mg42 Mg 0.48636 0.17406 0.04651 0.0
O43 O 0.50453 0.16241 0.09169 0.0
O44 O 0.47888 0.14669 0.12355 0.0
Mg45 Mg 0.44462 0.15005 0.10049 0.0
C46 C 0.49897 0.15228 0.11747 0.0
C47 C 0.51988 0.17259 0.99107 0.0
O48 O 0.50356 0.16 0.97966 0.0
O49 O 0.48313 0.13607 0.03157 0.0
O50 O 0.45517 0.12392 0.06239 0.0
O51 O 0.48055 0.20871 0.06798 0.0
O52 O 0.45759 0.17901 0.07257 0.0
C53 C 0.46917 0.12061 0.04012 0.0
C54 C 0.46287 0.19985 0.08052 0.0
O55 O 0.51875 0.17956 0.01957 0.0
Mg56 Mg 0.11257 0.72217 0.23939 0.0
O57 O 0.09372 0.75327 0.21705 0.0
O58 O 0.05857 0.74146 0.21177 0.0
Mg59 Mg 0.05441 0.70486 0.23088 0.0
C60 C 0.07368 0.75675 0.20809 0.0
C61 C 0.15323 0.75127 0.22364 0.0
O62 O 0.14201 0.75145 0.19694 0.0
O63 O 0.09801 0.72931 0.28831 0.0
O64 O 0.06326 0.71672 0.28135 0.0
O65 O 0.11906 0.70844 0.19131 0.0
O66 O 0.08951 0.69931 0.21966 0.0
C67 C 0.07859 0.72503 0.29894 0.0
C68 C 0.09998 0.69827 0.19305 0.0
O69 O 0.14376 0.74347 0.24838 0.0
Mg70 Mg 0.48644 0.8291 0.44845 0.0
O71 O 0.50795 0.84031 0.40603 0.0
O72 O 0.48475 0.85671 0.37114 0.0
Mg73 Mg 0.44896 0.85412 0.3893 0.0
C74 C 0.50425 0.85061 0.37969 0.0
C75 C 0.52523 0.80384 0.48253 0.0
O76 O 0.519 0.78768 0.46247 0.0
O77 O 0.48263 0.86691 0.4635 0.0
O78 O 0.45693 0.87974 0.42934 0.0
O79 O 0.48115 0.79451 0.42618 0.0
O80 O 0.45942 0.82485 0.41867 0.0
C81 C 0.46938 0.88259 0.45352 0.0
C82 C 0.46443 0.80376 0.41169 0.0
O83 O 0.51636 0.82383 0.48072 0.0
Mg84 Mg 0.3834 0.28219 0.73611 0.0
O85 O 0.39961 0.24797 0.71832 0.0
O86 O 0.43566 0.25622 0.71279 0.0
Mg87 Mg 0.44295 0.29343 0.727 0.0
C88 C 0.41939 0.24211 0.71058 0.0
C89 C 0.33952 0.25743 0.72328 0.0
O90 O 0.3497 0.25608 0.69581 0.0
O91 O 0.39693 0.27748 0.78634 0.0
O92 O 0.43269 0.28614 0.77835 0.0
O93 O 0.37881 0.29346 0.68614 0.0
O94 O 0.40853 0.30146 0.71467 0.0
C95 C 0.41664 0.28067 0.79666 0.0
C96 C 0.39856 0.30214 0.68771 0.0
O97 O 0.3504 0.26461 0.74716 0.0
Mg98 Mg 0.01436 0.16198 0.95215 0.0
O99 O 0.99547 0.15492 0.90581 0.0
O100 O 0.02076 0.14279 0.87061 0.0
Mg101 Mg 0.0554 0.14433 0.89297 0.0
C102 C 0.00073 0.14753 0.87824 0.0
C103 C 0.96999 0.18116 0.9786 0.0
O104 O 0.9741 0.19644 0.95626 0.0
O105 O 0.01848 0.12307 0.95993 0.0
O106 O 0.04605 0.11437 0.92633 0.0
O107 O 0.01936 0.19858 0.93747 0.0
O108 O 0.04266 0.17007 0.92652 0.0
C109 C 0.03246 0.10876 0.94826 0.0
C110 C 0.03695 0.19143 0.92286 0.0
O111 O 0.98248 0.16344 0.98097 0.0
Mg112 Mg 0.85833 0.80138 0.81027 0.0
O113 O 0.87389 0.78288 0.76719 0.0
O114 O 0.87074 0.80605 0.72484 0.0
Mg115 Mg 0.8512 0.83767 0.73988 0.0
C116 C 0.87746 0.78739 0.73794 0.0
C117 C 0.8715 0.76717 0.86317 0.0
O118 O 0.87877 0.78696 0.87466 0.0
O119 O 0.82381 0.7924 0.79283 0.0
O120 O 0.82112 0.81382 0.74885 0.0
O121 O 0.89104 0.81682 0.81837 0.0
O122 O 0.86547 0.833 0.78775 0.0
C123 C 0.8133 0.79885 0.76816 0.0
C124 C 0.8861 0.83134 0.79605 0.0
O125 O 0.86068 0.76736 0.83734 0.0
Mg126 Mg 0.00793 0.10336 0.5134 0.0
O127 O 0.02701 0.11275 0.46781 0.0
O128 O 0.00897 0.0973 0.42669 0.0
Mg129 Mg 0.97946 0.07695 0.4458 0.0
C130 C 0.02476 0.1095 0.43801 0.0
C131 C 0.03167 0.12813 0.56712 0.0
O132 O 0.01073 0.12838 0.57586 0.0
O133 O 0.02081 0.06626 0.51301 0.0
O134 O 0.00233 0.0513 0.47179 0.0
O135 O 0.98807 0.13501 0.50596 0.0
O136 O 0.97876 0.10052 0.487 0.0
C137 C 0.01596 0.04929 0.49482 0.0
C138 C 0.97555 0.12266 0.48761 0.0
O139 O 0.03695 0.11695 0.5423 0.0
Mg140 Mg 0.63179 0.19091 0.31314 0.0
O141 O 0.61856 0.20778 0.2678 0.0
O142 O 0.62499 0.18402 0.22686 0.0
Mg143 Mg 0.64278 0.1522 0.24631 0.0
C144 C 0.6172 0.20282 0.23836 0.0
C145 C 0.61594 0.22778 0.36149 0.0
O146 O 0.60633 0.20907 0.37282 0.0
O147 O 0.66665 0.19981 0.29785 0.0
O148 O 0.67321 0.17494 0.25833 0.0
O149 O 0.5988 0.17557 0.31917 0.0
O150 O 0.62572 0.15858 0.29194 0.0
C151 C 0.67931 0.19142 0.27658 0.0
C152 C 0.60474 0.16049 0.29806 0.0
O153 O 0.62865 0.22585 0.33765 0.0
Mg154 Mg 0.48872 0.90045 0.01011 0.0
O155 O 0.47232 0.88889 0.96335 0.0
O156 O 0.49317 0.90122 0.92296 0.0
Mg157 Mg 0.52237 0.92127 0.94368 0.0
C158 C 0.47634 0.89032 0.93367 0.0
C159 C 0.46096 0.87964 0.0627 0.0
O160 O 0.48125 0.87967 0.07415 0.0
O161 O 0.47748 0.93778 0.00358 0.0
O162 O 0.49924 0.94942 0.96365 0.0
O163 O 0.50756 0.86776 0.00915 0.0
O164 O 0.51951 0.90048 0.98747 0.0
C165 C 0.48428 0.95338 0.9844 0.0
C166 C 0.52162 0.87835 0.99102 0.0
O167 O 0.45747 0.88962 0.03632 0.0
Mg168 Mg 0.87248 0.20479 0.68151 0.0
O169 O 0.88318 0.21894 0.73009 0.0
O170 O 0.87395 0.19265 0.76689 0.0
Mg171 Mg 0.8567 0.16264 0.74221 0.0
C172 C 0.88272 0.21194 0.75885 0.0
C173 C 0.88677 0.24047 0.63195 0.0
O174 O 0.89034 0.22056 0.61765 0.0
O175 O 0.83682 0.2139 0.6931 0.0
O176 O 0.82767 0.18696 0.72882 0.0
O177 O 0.90542 0.18901 0.67777 0.0
O178 O 0.87683 0.1713 0.70017 0.0
C179 C 0.8228 0.20455 0.71175 0.0
C180 C 0.89812 0.17299 0.69656 0.0
O181 O 0.87815 0.2403 0.65942 0.0
Mg182 Mg 0.48615 0.09985 0.50316 0.0
O183 O 0.46723 0.11171 0.54766 0.0
O184 O 0.48466 0.09794 0.59037 0.0
Mg185 Mg 0.51454 0.07704 0.57311 0.0
C186 C 0.4691 0.10975 0.5777 0.0
C187 C 0.46215 0.12155 0.4474 0.0
O188 O 0.483 0.12117 0.43826 0.0
O189 O 0.47338 0.06303 0.50726 0.0
O190 O 0.49237 0.04967 0.54901 0.0
O191 O 0.50613 0.13166 0.50689 0.0
O192 O 0.51537 0.0983 0.52948 0.0
C193 C 0.47865 0.04671 0.52627 0.0
C194 C 0.51887 0.12025 0.52608 0.0
O195 O 0.45704 0.11175 0.47334 0.0
Mg196 Mg 0.63954 0.80203 0.18988 0.0
O197 O 0.62581 0.78647 0.23582 0.0
O198 O 0.63353 0.81061 0.27592 0.0
Mg199 Mg 0.65284 0.84105 0.25554 0.0
C200 C 0.62474 0.79208 0.26509 0.0
C201 C 0.62175 0.76579 0.14208 0.0
O202 O 0.61277 0.78496 0.13115 0.0
O203 O 0.67416 0.7916 0.20474 0.0
O204 O 0.68214 0.8167 0.24343 0.0
O205 O 0.60719 0.81884 0.18402 0.0
O206 O 0.63494 0.83489 0.21055 0.0
C207 C 0.68739 0.7997 0.2255 0.0
C208 C 0.61385 0.83381 0.20482 0.0
O209 O 0.63473 0.76704 0.16574 0.0
Mg210 Mg 0.00999 0.88785 0.98123 0.0
O211 O 0.02581 0.8771 0.02879 0.0
O212 O 0.00565 0.89204 0.06824 0.0
Mg213 Mg 0.97779 0.91329 0.04609 0.0
C214 C 0.02186 0.87977 0.05833 0.0
C215 C 0.03663 0.86292 0.93069 0.0
O216 O 0.01623 0.8627 0.91964 0.0
O217 O 0.02345 0.9246 0.98496 0.0
O218 O 0.00263 0.93896 0.02428 0.0
O219 O 0.98916 0.85654 0.98469 0.0
O220 O 0.97933 0.89089 0.0037 0.0
C221 C 0.01772 0.94122 0.00323 0.0
C222 C 0.97578 0.86885 0.00184 0.0
O223 O 0.04056 0.87419 0.95594 0.0
Mg224 Mg 0.60808 0.77537 0.76229 0.0
O225 O 0.59134 0.74235 0.78309 0.0
O226 O 0.55582 0.75282 0.78922 0.0
Mg227 Mg 0.54955 0.7898 0.77288 0.0
C228 C 0.57141 0.73793 0.79191 0.0
C229 C 0.65174 0.77321 0.73506 0.0
O230 O 0.6414 0.79228 0.72641 0.0
O231 O 0.5932 0.76899 0.7136 0.0
O232 O 0.55808 0.78005 0.72136 0.0
O233 O 0.61487 0.78781 0.81094 0.0
O234 O 0.58445 0.79614 0.78398 0.0
C235 C 0.57363 0.77281 0.70328 0.0
C236 C 0.5954 0.79726 0.81017 0.0
O237 O 0.64061 0.75777 0.74959 0.0
Mg238 Mg 0.51032 0.33344 0.05565 0.0
O239 O 0.48874 0.34239 0.09928 0.0
O240 O 0.51194 0.35524 0.13688 0.0
Mg241 Mg 0.54746 0.354 0.11846 0.0
C242 C 0.49241 0.35048 0.12704 0.0
C243 C 0.4802 0.33821 0.99615 0.0
O244 O 0.49682 0.35166 0.98783 0.0
O245 O 0.51477 0.37197 0.04506 0.0
O246 O 0.53791 0.38299 0.08381 0.0
O247 O 0.51476 0.29767 0.07375 0.0
O248 O 0.53717 0.32693 0.08498 0.0
C249 C 0.52636 0.38739 0.05915 0.0
C250 C 0.53159 0.30559 0.08944 0.0
O251 O 0.47997 0.32964 0.02387 0.0
Mg252 Mg 0.8811 0.21258 0.2532 0.0
O253 O 0.89633 0.24678 0.27186 0.0
O254 O 0.93265 0.24007 0.27752 0.0
Mg255 Mg 0.94082 0.20314 0.26236 0.0
C256 C 0.91581 0.25343 0.27979 0.0
C257 C 0.83807 0.23828 0.26678 0.0
O258 O 0.84908 0.24024 0.29353 0.0
O259 O 0.89459 0.21899 0.20357 0.0
O260 O 0.93056 0.2112 0.21101 0.0
O261 O 0.87644 0.20048 0.3026 0.0
O262 O 0.90663 0.19363 0.27443 0.0
C263 C 0.91432 0.21666 0.19299 0.0
C264 C 0.89642 0.19234 0.30122 0.0
O265 O 0.84805 0.22999 0.24278 0.0
Mg266 Mg 0.9909 0.66532 0.55306 0.0
O267 O 0.01326 0.653 0.59391 0.0
O268 O 0.99075 0.63576 0.629 0.0
Mg269 Mg 0.95461 0.63885 0.61259 0.0
C270 C 0.01007 0.64204 0.61989 0.0
C271 C 0.02889 0.69147 0.51819 0.0
O272 O 0.02281 0.70728 0.53886 0.0
O273 O 0.98662 0.62789 0.53633 0.0
O274 O 0.96178 0.61417 0.57109 0.0
O275 O 0.98637 0.69928 0.57736 0.0
O276 O 0.96457 0.66896 0.58444 0.0
C277 C 0.97368 0.6119 0.54622 0.0
C278 C 0.96996 0.68979 0.59226 0.0
O279 O 0.02016 0.67138 0.51967 0.0
Mg280 Mg 0.62094 0.22656 0.73949 0.0
O281 O 0.60381 0.25882 0.71711 0.0
O282 O 0.56785 0.24959 0.71399 0.0
Mg283 Mg 0.56144 0.2137 0.73406 0.0
C284 C 0.58383 0.26368 0.70914 0.0
C285 C 0.66354 0.25158 0.72064 0.0
O286 O 0.65216 0.25124 0.69408 0.0
O287 O 0.6082 0.23513 0.78928 0.0
O288 O 0.57252 0.22525 0.78348 0.0
O289 O 0.62489 0.21112 0.69147 0.0
O290 O 0.59581 0.20513 0.72217 0.0
C291 C 0.58865 0.23244 0.80048 0.0
C292 C 0.60538 0.20221 0.69519 0.0
O293 O 0.65385 0.24549 0.74609 0.0
Mg294 Mg 0.98223 0.33338 0.95954 0.0
O295 O 0.00194 0.34239 0.9145 0.0
O296 O 0.97732 0.35582 0.87924 0.0
Mg297 Mg 0.94232 0.35344 0.90029 0.0
C298 C 0.99721 0.35083 0.88729 0.0
C299 C 0.01266 0.33422 0.01814 0.0
O300 O 0.99469 0.34412 0.02951 0.0
O301 O 0.97815 0.37192 0.97024 0.0
O302 O 0.95126 0.3819 0.93616 0.0
O303 O 0.97773 0.29754 0.94176 0.0
O304 O 0.95443 0.32638 0.93231 0.0
C305 C 0.96439 0.38666 0.95902 0.0
C306 C 0.9604 0.30526 0.92704 0.0
O307 O 0.01366 0.32987 0.98867 0.0
Mg308 Mg 0.88685 0.78013 0.23892 0.0
O309 O 0.90498 0.74782 0.21869 0.0
O310 O 0.94008 0.75902 0.21081 0.0
Mg311 Mg 0.94496 0.79637 0.2263 0.0
C312 C 0.9248 0.74372 0.20923 0.0
C313 C 0.84549 0.75093 0.22785 0.0
O314 O 0.8558 0.74965 0.20046 0.0
O315 O 0.90236 0.77537 0.28775 0.0
O316 O 0.93713 0.78694 0.27796 0.0
O317 O 0.87952 0.79166 0.18994 0.0
O318 O 0.90965 0.80178 0.21635 0.0
C319 C 0.92212 0.77975 0.29695 0.0
C320 C 0.89866 0.80179 0.19015 0.0
O321 O 0.8558 0.75957 0.25132 0.0
Mg322 Mg 0.50913 0.66818 0.44529 0.0
O323 O 0.48865 0.66001 0.40051 0.0
O324 O 0.51284 0.64607 0.36499 0.0
Mg325 Mg 0.54818 0.6478 0.38491 0.0
C326 C 0.49308 0.65146 0.37324 0.0
C327 C 0.47888 0.66352 0.5039 0.0
O328 O 0.4953 0.64961 0.51154 0.0
O329 O 0.51281 0.62934 0.4552 0.0
O330 O 0.53969 0.61947 0.42102 0.0
O331 O 0.51477 0.70425 0.4282 0.0
O332 O 0.53679 0.67458 0.41773 0.0
C333 C 0.52664 0.61467 0.44396 0.0
C334 C 0.53192 0.69608 0.41346 0.0
O335 O 0.47845 0.67229 0.47629 0.0
Mg336 Mg 0.36237 0.29609 0.3204 0.0
O337 O 0.37461 0.2813 0.27288 0.0
O338 O 0.36461 0.30584 0.2343 0.0
Mg339 Mg 0.34523 0.33529 0.25699 0.0
C340 C 0.37427 0.28737 0.24372 0.0
C341 C 0.38085 0.26042 0.3682 0.0
O342 O 0.3878 0.27996 0.3808 0.0
O343 O 0.32764 0.28471 0.30841 0.0
O344 O 0.3174 0.30941 0.27043 0.0
O345 O 0.39431 0.31373 0.32429 0.0
O346 O 0.36517 0.32923 0.30021 0.0
C347 C 0.31341 0.29218 0.28861 0.0
C348 C 0.38647 0.32872 0.30436 0.0
O349 O 0.369 0.2612 0.34336 0.0
Mg350 Mg 0.51163 0.6074 0.01828 0.0
O351 O 0.52657 0.61698 0.96995 0.0
O352 O 0.50311 0.60544 0.93213 0.0
Mg353 Mg 0.47308 0.58869 0.95618 0.0
C354 C 0.52113 0.6152 0.94079 0.0
C355 C 0.54197 0.62463 0.06968 0.0
O356 O 0.52226 0.62333 0.08293 0.0
O357 O 0.52023 0.56908 0.0115 0.0
O358 O 0.49393 0.55906 0.97661 0.0
O359 O 0.49481 0.64157 0.01792 0.0
O360 O 0.47987 0.60942 0.99879 0.0
C361 C 0.50999 0.55386 0.99504 0.0
C362 C 0.47921 0.63166 0.00175 0.0
O363 O 0.54436 0.61648 0.04192 0.0
Mg364 Mg 0.14282 0.69016 0.81168 0.0
O365 O 0.12936 0.70617 0.76584 0.0
O366 O 0.13852 0.6832 0.72512 0.0
Mg367 Mg 0.15835 0.65294 0.74512 0.0
C368 C 0.12902 0.70122 0.73632 0.0
C369 C 0.12366 0.72483 0.86063 0.0
O370 O 0.11607 0.7051 0.87186 0.0
O371 O 0.17722 0.70213 0.79822 0.0
O372 O 0.18665 0.67808 0.75895 0.0
O373 O 0.11106 0.67205 0.81618 0.0
O374 O 0.13967 0.65756 0.78982 0.0
C375 C 0.19102 0.69493 0.77761 0.0
C376 C 0.1185 0.65764 0.79518 0.0
O377 O 0.13633 0.72445 0.83659 0.0
Mg378 Mg 0.98733 0.39623 0.47427 0.0
O379 O 0.9633 0.3872 0.43382 0.0
O380 O 0.97674 0.40215 0.38894 0.0
Mg381 Mg 0.00844 0.4219 0.40093 0.0
C382 C 0.96229 0.39018 0.40384 0.0
C383 C 0.96918 0.37217 0.5329 0.0
O384 O 0.99082 0.37053 0.53617 0.0
O385 O 0.97579 0.4336 0.47665 0.0
O386 O 0.9901 0.44855 0.43223 0.0
O387 O 0.00492 0.36396 0.46294 0.0
O388 O 0.01318 0.39792 0.44126 0.0
C389 C 0.97934 0.45072 0.45817 0.0
C390 C 0.0156 0.37565 0.44163 0.0
O391 O 0.96156 0.38386 0.5098 0.0
Mg392 Mg 0.36027 0.703 0.17953 0.0
O393 O 0.37305 0.71842 0.22609 0.0
O394 O 0.36524 0.69376 0.26554 0.0
Mg395 Mg 0.34664 0.6632 0.24418 0.0
C396 C 0.37384 0.71256 0.25527 0.0
C397 C 0.37779 0.73948 0.13209 0.0
O398 O 0.38609 0.72023 0.12031 0.0
O399 O 0.32524 0.7128 0.19345 0.0
O400 O 0.31726 0.6873 0.23164 0.0
O401 O 0.39296 0.68676 0.1745 0.0
O402 O 0.36502 0.67004 0.19982 0.0
C403 C 0.31191 0.70432 0.21381 0.0
C404 C 0.38618 0.67152 0.19484 0.0
O405 O 0.36517 0.73821 0.15613 0.0
Mg406 Mg 0.9862 0.60727 0.98919 0.0
O407 O 0.97024 0.61847 0.03637 0.0
O408 O 0.99044 0.6043 0.07631 0.0
Mg409 Mg 0.0185 0.58297 0.05482 0.0
C410 C 0.97415 0.61627 0.06599 0.0
C411 C 0.95942 0.63172 0.9383 0.0
O412 O 0.97992 0.6325 0.9277 0.0
O413 O 0.97302 0.57048 0.99385 0.0
O414 O 0.99384 0.55687 0.03367 0.0
O415 O 0.0068 0.6388 0.99206 0.0
O416 O 0.01684 0.60477 0.01187 0.0
C417 C 0.97881 0.55419 0.01264 0.0
C418 C 0.02023 0.6268 0.00954 0.0
O419 O 0.95551 0.62032 0.96346 0.0
Mg420 Mg 0.13064 0.3033 0.69226 0.0
O421 O 0.11938 0.28733 0.73931 0.0
O422 O 0.1273 0.31212 0.77856 0.0
Mg423 Mg 0.14441 0.34337 0.7565 0.0
C424 C 0.11908 0.29305 0.76858 0.0
C425 C 0.11426 0.26718 0.64387 0.0
O426 O 0.10678 0.28664 0.63163 0.0
O427 O 0.1662 0.29462 0.70464 0.0
O428 O 0.1743 0.32033 0.74251 0.0
O429 O 0.09746 0.31846 0.6884 0.0
O430 O 0.12527 0.33602 0.71295 0.0
C431 C 0.17973 0.30351 0.72438 0.0
C432 C 0.10409 0.33395 0.7085 0.0
O433 O 0.12612 0.26812 0.66872 0.0
Mg434 Mg 0.51531 0.39435 0.48607 0.0
O435 O 0.53338 0.38402 0.53204 0.0
O436 O 0.51444 0.39812 0.57324 0.0
Mg437 Mg 0.48451 0.41773 0.55366 0.0
C438 C 0.53067 0.38659 0.56187 0.0
C439 C 0.54096 0.37244 0.43203 0.0
O440 O 0.52047 0.37335 0.42139 0.0
O441 O 0.52714 0.43172 0.48929 0.0
O442 O 0.50681 0.44495 0.52986 0.0
O443 O 0.49581 0.36211 0.49035 0.0
O444 O 0.48542 0.39584 0.51074 0.0
C445 C 0.52102 0.44806 0.50779 0.0
C446 C 0.48238 0.37376 0.50828 0.0
O447 O 0.54535 0.38221 0.45826 0.0
C448 C 0.03707 0.119 0.38284 0.0
C449 C 0.03886 0.12283 0.4156 0.0
C450 C 0.04677 0.13427 0.36097 0.0
C451 C 0.0585 0.15393 0.37208 0.0
C452 C 0.06178 0.15696 0.40505 0.0
C453 C 0.05198 0.14134 0.42644 0.0
C454 C 0.04301 0.13028 0.32601 0.0
C455 C 0.07419 0.17769 0.41788 0.0
C456 C 0.09034 0.1909 0.31247 0.0
C457 C 0.07465 0.20817 0.30536 0.0
C458 C 0.08548 0.17319 0.33438 0.0
C459 C 0.06452 0.17281 0.34957 0.0
C460 C 0.04876 0.19032 0.34276 0.0
C461 C 0.054 0.20771 0.3208 0.0
C462 C 0.10264 0.15472 0.34097 0.0
C463 C 0.02619 0.19061 0.35846 0.0
H464 H 0.02717 0.10464 0.37415 0.0
H465 H 0.05355 0.14446 0.45167 0.0
H466 H 0.03086 0.14316 0.31699 0.0
H467 H 0.05866 0.13272 0.31256 0.0
H468 H 0.03648 0.11262 0.32108 0.0
H469 H 0.07804 0.17581 0.44351 0.0
H470 H 0.08992 0.18036 0.40472 0.0
H471 H 0.06394 0.19352 0.41465 0.0
H472 H 0.10634 0.19109 0.30075 0.0
H473 H 0.04175 0.22097 0.31572 0.0
H474 H 0.09607 0.13749 0.33394 0.0
H475 H 0.10624 0.15394 0.36673 0.0
H476 H 0.1184 0.15788 0.32801 0.0
H477 H 0.01693 0.17459 0.35229 0.0
H478 H 0.01606 0.20582 0.35123 0.0
H479 H 0.02808 0.19091 0.38462 0.0
C480 C 0.07343 0.79406 0.62148 0.0
C481 C 0.05329 0.78623 0.6088 0.0
C482 C 0.08562 0.78026 0.64253 0.0
C483 C 0.07738 0.75816 0.6512 0.0
C484 C 0.05691 0.75023 0.63877 0.0
C485 C 0.04518 0.76433 0.61749 0.0
C486 C 0.10742 0.78924 0.65529 0.0
C487 C 0.04757 0.72673 0.64732 0.0
C488 C 0.11909 0.71433 0.6817 0.0
C489 C 0.11618 0.71617 0.71458 0.0
C490 C 0.10639 0.72774 0.66076 0.0
C491 C 0.09042 0.74332 0.67303 0.0
C492 C 0.08732 0.74521 0.70616 0.0
C493 C 0.10031 0.73167 0.72657 0.0
C494 C 0.11008 0.72526 0.62552 0.0
C495 C 0.07016 0.76141 0.72 0.0
H496 H 0.07986 0.81088 0.61463 0.0
H497 H 0.0296 0.75819 0.60774 0.0
H498 H 0.10692 0.78976 0.68156 0.0
H499 H 0.12107 0.77733 0.64844 0.0
H500 H 0.11139 0.8069 0.64638 0.0
H501 H 0.0298 0.72509 0.64064 0.0
H502 H 0.05701 0.71311 0.63457 0.0
H503 H 0.04924 0.72329 0.67309 0.0
H504 H 0.13128 0.70234 0.67226 0.0
H505 H 0.09778 0.73298 0.75195 0.0
H506 H 0.11535 0.74213 0.61536 0.0
H507 H 0.09433 0.72029 0.6137 0.0
H508 H 0.12287 0.71201 0.61982 0.0
H509 H 0.07374 0.77952 0.7127 0.0
H510 H 0.06967 0.76066 0.7463 0.0
H511 H 0.05348 0.75693 0.7107 0.0
C512 C 0.45118 0.85686 0.92215 0.0
C513 C 0.46306 0.8762 0.91122 0.0
C514 C 0.44247 0.8405 0.90088 0.0
C515 C 0.44537 0.84377 0.86785 0.0
C516 C 0.45563 0.86428 0.85664 0.0
C517 C 0.46455 0.88014 0.87845 0.0
C518 C 0.43187 0.81875 0.9139 0.0
C519 C 0.45861 0.8687 0.82164 0.0
C520 C 0.45319 0.78836 0.82096 0.0
C521 C 0.4318 0.78429 0.80891 0.0
C522 C 0.45784 0.80794 0.83942 0.0
C523 C 0.44082 0.82422 0.84569 0.0
C524 C 0.4195 0.82098 0.83225 0.0
C525 C 0.41517 0.80094 0.81417 0.0
C526 C 0.48084 0.81071 0.85324 0.0
C527 C 0.40109 0.83825 0.83783 0.0
H528 H 0.44996 0.85363 0.9474 0.0
H529 H 0.4735 0.89517 0.86977 0.0
H530 H 0.41603 0.81505 0.90151 0.0
H531 H 0.44309 0.80377 0.90975 0.0
H532 H 0.42856 0.82005 0.93974 0.0
H533 H 0.4628 0.88712 0.81671 0.0
H534 H 0.4723 0.85769 0.8125 0.0
H535 H 0.44336 0.86408 0.80834 0.0
H536 H 0.46626 0.77577 0.81699 0.0
H537 H 0.39862 0.79804 0.80492 0.0
H538 H 0.47995 0.8106 0.87951 0.0
H539 H 0.48793 0.82763 0.84599 0.0
H540 H 0.49236 0.79674 0.84557 0.0
H541 H 0.39592 0.83765 0.86305 0.0
H542 H 0.38634 0.83468 0.8228 0.0
H543 H 0.407 0.85613 0.83294 0.0
C544 C 0.38357 0.27727 0.18772 0.0
C545 C 0.38671 0.27346 0.22025 0.0
C546 C 0.3963 0.2654 0.16515 0.0
C547 C 0.41248 0.24928 0.17536 0.0
C548 C 0.41561 0.24515 0.20811 0.0
C549 C 0.40265 0.25727 0.2302 0.0
C550 C 0.39256 0.27027 0.13038 0.0
C551 C 0.43285 0.22816 0.21977 0.0
C552 C 0.42997 0.20354 0.11603 0.0
C553 C 0.45016 0.21249 0.10494 0.0
C554 C 0.41774 0.21519 0.13934 0.0
C555 C 0.42583 0.23639 0.15166 0.0
C556 C 0.44629 0.24548 0.14073 0.0
C557 C 0.45818 0.23343 0.11737 0.0
C558 C 0.39607 0.20489 0.1506 0.0
C559 C 0.45539 0.26821 0.15288 0.0
H560 H 0.3713 0.28975 0.17982 0.0
H561 H 0.40533 0.25439 0.2553 0.0
H562 H 0.40841 0.27539 0.11894 0.0
H563 H 0.38667 0.25431 0.11835 0.0
H564 H 0.38019 0.28427 0.12644 0.0
H565 H 0.43302 0.2267 0.24603 0.0
H566 H 0.42969 0.21074 0.20956 0.0
H567 H 0.44957 0.2337 0.2117 0.0
H568 H 0.42356 0.18751 0.1063 0.0
H569 H 0.47377 0.24046 0.10886 0.0
H570 H 0.38221 0.21694 0.14522 0.0
H571 H 0.39647 0.2025 0.17669 0.0
H572 H 0.39248 0.18788 0.13933 0.0
H573 H 0.44645 0.28266 0.14114 0.0
H574 H 0.47337 0.27013 0.14761 0.0
H575 H 0.45289 0.26999 0.17882 0.0
C576 C 0.08381 0.79529 0.18374 0.0
C577 C 0.06789 0.77812 0.19013 0.0
C578 C 0.07878 0.81427 0.16399 0.0
C579 C 0.05744 0.81594 0.15006 0.0
C580 C 0.04113 0.79907 0.1572 0.0
C581 C 0.0465 0.78052 0.17724 0.0
C582 C 0.09643 0.83221 0.1574 0.0
C583 C 0.01816 0.80014 0.14281 0.0
C584 C 0.03242 0.87035 0.11433 0.0
C585 C 0.03456 0.86588 0.08176 0.0
C586 C 0.04123 0.85506 0.13699 0.0
C587 C 0.05215 0.83462 0.12685 0.0
C588 C 0.0555 0.8307 0.09405 0.0
C589 C 0.04682 0.84647 0.07192 0.0
C590 C 0.0376 0.86007 0.17172 0.0
C591 C 0.06683 0.809 0.08221 0.0
H592 H 0.10035 0.79367 0.19361 0.0
H593 H 0.03399 0.76747 0.18198 0.0
H594 H 0.10128 0.83146 0.13206 0.0
H595 H 0.08985 0.84988 0.16196 0.0
H596 H 0.1115 0.82953 0.17212 0.0
H597 H 0.00731 0.78578 0.15108 0.0
H598 H 0.01008 0.81685 0.14886 0.0
H599 H 0.01934 0.79925 0.11659 0.0
H600 H 0.02315 0.8854 0.12221 0.0
H601 H 0.04855 0.84281 0.04684 0.0
H602 H 0.05296 0.85671 0.18547 0.0
H603 H 0.02451 0.84841 0.18109 0.0
H604 H 0.03232 0.8783 0.17582 0.0
H605 H 0.08276 0.80623 0.09483 0.0
H606 H 0.07017 0.80967 0.05633 0.0
H607 H 0.05613 0.79374 0.08713 0.0
C608 C 0.4028 0.74246 0.26604 0.0
C609 C 0.38671 0.72702 0.27751 0.0
C610 C 0.41631 0.75503 0.28691 0.0
C611 C 0.41349 0.7522 0.31996 0.0
C612 C 0.39716 0.7368 0.33169 0.0
C613 C 0.38396 0.72436 0.3103 0.0
C614 C 0.4338 0.77109 0.27364 0.0
C615 C 0.39376 0.73335 0.36684 0.0
C616 C 0.45963 0.76937 0.37638 0.0
C617 C 0.45201 0.79093 0.38724 0.0
C618 C 0.44753 0.75672 0.35387 0.0
C619 C 0.42723 0.76581 0.34235 0.0
C620 C 0.41964 0.78771 0.3529 0.0
C621 C 0.43214 0.80002 0.37523 0.0
C622 C 0.45617 0.73335 0.34338 0.0
C623 C 0.39811 0.79796 0.34102 0.0
H624 H 0.40523 0.74434 0.24071 0.0
H625 H 0.37159 0.7124 0.31929 0.0
H626 H 0.43105 0.789 0.28244 0.0
H627 H 0.45046 0.76554 0.28194 0.0
H628 H 0.4338 0.77139 0.24731 0.0
H629 H 0.38081 0.72017 0.37206 0.0
H630 H 0.40953 0.72778 0.37808 0.0
H631 H 0.38884 0.75 0.378 0.0
H632 H 0.475 0.76228 0.3856 0.0
H633 H 0.42608 0.81658 0.38372 0.0
H634 H 0.45355 0.73061 0.31763 0.0
H635 H 0.44704 0.71956 0.35622 0.0
H636 H 0.47414 0.73129 0.34867 0.0
H637 H 0.39837 0.79917 0.31478 0.0
H638 H 0.39492 0.81552 0.35088 0.0
H639 H 0.38407 0.78647 0.34759 0.0
C640 C 0.44526 0.21375 0.68526 0.0
C641 C 0.42372 0.21914 0.69571 0.0
C642 C 0.44958 0.19366 0.66765 0.0
C643 C 0.43201 0.17822 0.66055 0.0
C644 C 0.41042 0.18286 0.67229 0.0
C645 C 0.40647 0.20337 0.68957 0.0
C646 C 0.47289 0.18948 0.65557 0.0
C647 C 0.39139 0.16653 0.66576 0.0
C648 C 0.44424 0.14399 0.58604 0.0
C649 C 0.45501 0.12442 0.5985 0.0
C650 C 0.43511 0.16094 0.60607 0.0
C651 C 0.43643 0.15806 0.63936 0.0
C652 C 0.44536 0.1373 0.65197 0.0
C653 C 0.45473 0.12081 0.63141 0.0
C654 C 0.42589 0.18288 0.59158 0.0
C655 C 0.44659 0.13328 0.68727 0.0
H656 H 0.4588 0.22564 0.68993 0.0
H657 H 0.38979 0.20729 0.69757 0.0
H658 H 0.479 0.17232 0.66367 0.0
H659 H 0.47289 0.18927 0.62926 0.0
H660 H 0.48477 0.20297 0.66368 0.0
H661 H 0.37637 0.17105 0.67974 0.0
H662 H 0.38706 0.16718 0.64023 0.0
H663 H 0.39624 0.14841 0.67129 0.0
H664 H 0.44431 0.14696 0.56067 0.0
H665 H 0.46275 0.1056 0.64126 0.0
H666 H 0.43759 0.1974 0.59598 0.0
H667 H 0.40982 0.18756 0.60269 0.0
H668 H 0.42341 0.18121 0.56559 0.0
H669 H 0.46018 0.14394 0.69741 0.0
H670 H 0.44994 0.11479 0.69302 0.0
H671 H 0.43092 0.13863 0.69898 0.0
C672 C 0.10999 0.2814 0.82412 0.0
C673 C 0.10756 0.27781 0.79142 0.0
C674 C 0.09831 0.26779 0.84601 0.0
C675 C 0.08385 0.25026 0.83489 0.0
C676 C 0.08127 0.24658 0.80196 0.0
C677 C 0.09324 0.26035 0.78059 0.0
C678 C 0.10144 0.27216 0.88102 0.0
C679 C 0.06569 0.22826 0.78931 0.0
C680 C 0.06998 0.20023 0.8895 0.0
C681 C 0.04899 0.20668 0.90074 0.0
C682 C 0.08156 0.21439 0.86819 0.0
C683 C 0.07179 0.23536 0.85773 0.0
C684 C 0.05055 0.24194 0.8689 0.0
C685 C 0.03947 0.22758 0.89055 0.0
C686 C 0.10424 0.20688 0.85686 0.0
C687 C 0.03956 0.26422 0.85838 0.0
H688 H 0.12097 0.29491 0.83267 0.0
H689 H 0.09106 0.25766 0.75535 0.0
H690 H 0.08521 0.27596 0.89229 0.0
H691 H 0.1082 0.25636 0.89256 0.0
H692 H 0.11288 0.28687 0.88573 0.0
H693 H 0.06545 0.22773 0.76299 0.0
H694 H 0.07067 0.21092 0.79826 0.0
H695 H 0.04859 0.23164 0.79792 0.0
H696 H 0.07747 0.18418 0.89754 0.0
H697 H 0.02322 0.23262 0.89919 0.0
H698 H 0.11671 0.22037 0.86275 0.0
H699 H 0.10417 0.20492 0.8307 0.0
H700 H 0.10959 0.19019 0.86759 0.0
H701 H 0.04777 0.27908 0.87024 0.0
H702 H 0.02163 0.26464 0.86454 0.0
H703 H 0.04131 0.26674 0.83242 0.0
C704 C 0.98558 0.86222 0.67623 0.0
C705 C 0.98359 0.84675 0.6507 0.0
C706 C 0.96926 0.86332 0.69991 0.0
C707 C 0.95073 0.84829 0.69833 0.0
C708 C 0.94824 0.8332 0.67206 0.0
C709 C 0.96464 0.83273 0.64843 0.0
C710 C 0.97233 0.87987 0.7273 0.0
C711 C 0.92895 0.81656 0.66982 0.0
C712 C 0.92436 0.82746 0.77459 0.0
C713 C 0.90394 0.8392 0.77442 0.0
C714 C 0.9399 0.83072 0.75034 0.0
C715 C 0.9352 0.84654 0.72562 0.0
C716 C 0.91526 0.85957 0.72632 0.0
C717 C 0.89976 0.85563 0.75066 0.0
C718 C 0.96079 0.81618 0.75025 0.0
C719 C 0.90985 0.87682 0.70056 0.0
H720 H 8e-05 0.87329 0.67793 0.0
H721 H 0.96306 0.82064 0.62887 0.0
H722 H 0.95688 0.88991 0.73146 0.0
H723 H 0.97586 0.86991 0.74923 0.0
H724 H 0.9862 0.8922 0.7232 0.0
H725 H 0.92772 0.80842 0.64603 0.0
H726 H 0.93109 0.80262 0.6877 0.0
H727 H 0.91306 0.82549 0.67509 0.0
H728 H 0.92773 0.81458 0.79268 0.0
H729 H 0.88409 0.86486 0.75052 0.0
H730 H 0.97564 0.8274 0.74784 0.0
H731 H 0.96056 0.80425 0.7296 0.0
H732 H 0.96255 0.80564 0.77215 0.0
H733 H 0.92404 0.88876 0.6967 0.0
H734 H 0.89485 0.88725 0.70623 0.0
H735 H 0.9069 0.86748 0.67795 0.0
C736 C 0.94675 0.12068 0.44521 0.0
C737 C 0.96126 0.13395 0.46378 0.0
C738 C 0.93527 0.13065 0.41974 0.0
C739 C 0.93835 0.15445 0.41284 0.0
C740 C 0.95223 0.16818 0.43232 0.0
C741 C 0.9635 0.15776 0.45764 0.0
C742 C 0.92047 0.11552 0.39956 0.0
C743 C 0.95588 0.19364 0.42564 0.0
C744 C 0.92868 0.17336 0.32797 0.0
C745 C 0.9074 0.1831 0.32983 0.0
C746 C 0.93908 0.16424 0.35495 0.0
C747 C 0.92781 0.16473 0.38438 0.0
C748 C 0.9064 0.17467 0.38649 0.0
C749 C 0.89644 0.18375 0.35916 0.0
C750 C 0.96202 0.15386 0.3519 0.0
C751 C 0.89397 0.17556 0.41755 0.0
H752 H 0.94473 0.10235 0.45014 0.0
H753 H 0.97471 0.16812 0.47188 0.0
H754 H 0.90364 0.12324 0.39782 0.0
H755 H 0.92726 0.11449 0.37516 0.0
H756 H 0.91894 0.09763 0.40912 0.0
H757 H 0.96576 0.20225 0.44451 0.0
H758 H 0.96478 0.19568 0.40279 0.0
H759 H 0.93974 0.20275 0.42335 0.0
H760 H 0.93718 0.17264 0.30537 0.0
H761 H 0.87999 0.19128 0.36079 0.0
H762 H 0.96156 0.13523 0.3585 0.0
H763 H 0.97363 0.16258 0.36847 0.0
H764 H 0.96875 0.1554 0.32748 0.0
H765 H 0.89129 0.15771 0.42662 0.0
H766 H 0.87759 0.18425 0.41526 0.0
H767 H 0.90393 0.18497 0.43554 0.0
C768 C 0.53559 0.16123 0.14254 0.0
C769 C 0.51602 0.14808 0.14208 0.0
C770 C 0.55057 0.15952 0.16789 0.0
C771 C 0.54601 0.14408 0.19319 0.0
C772 C 0.52702 0.12968 0.19185 0.0
C773 C 0.51214 0.132 0.16645 0.0
C774 C 0.57038 0.17553 0.16865 0.0
C775 C 0.52182 0.1127 0.21804 0.0
C776 C 0.59334 0.13577 0.25182 0.0
C777 C 0.58798 0.15236 0.27489 0.0
C778 C 0.57926 0.13192 0.22574 0.0
C779 C 0.55958 0.14518 0.2226 0.0
C780 C 0.55354 0.161 0.24674 0.0
C781 C 0.56764 0.16415 0.27273 0.0
C782 C 0.58605 0.11465 0.20067 0.0
C783 C 0.5329 0.1758 0.24413 0.0
H784 H 0.5387 0.17373 0.12385 0.0
H785 H 0.49718 0.12155 0.16605 0.0
H786 H 0.56708 0.18972 0.18578 0.0
H787 H 0.5855 0.16626 0.1767 0.0
H788 H 0.57376 0.18336 0.14509 0.0
H789 H 0.50826 0.10058 0.21139 0.0
H790 H 0.53678 0.10245 0.22428 0.0
H791 H 0.51666 0.12233 0.23959 0.0
H792 H 0.6089 0.12643 0.2535 0.0
H793 H 0.56333 0.1771 0.29032 0.0
H794 H 0.59104 0.12406 0.17886 0.0
H795 H 0.57188 0.10326 0.19437 0.0
H796 H 0.60019 0.10367 0.20849 0.0
H797 H 0.53464 0.18794 0.22386 0.0
H798 H 0.5298 0.18613 0.26591 0.0
H799 H 0.51815 0.1648 0.23947 0.0
C800 C 0.53205 0.84127 0.96466 0.0
C801 C 0.53617 0.86493 0.96975 0.0
C802 C 0.54304 0.82916 0.94055 0.0
C803 C 0.55861 0.84098 0.92136 0.0
C804 C 0.56385 0.86446 0.92768 0.0
C805 C 0.55252 0.87619 0.95185 0.0
C806 C 0.53694 0.80414 0.93435 0.0
C807 C 0.58054 0.87754 0.90784 0.0
C808 C 0.59679 0.80634 0.86795 0.0
C809 C 0.58577 0.80802 0.83875 0.0
C810 C 0.58809 0.81687 0.89519 0.0
C811 C 0.56797 0.8294 0.89304 0.0
C812 C 0.55671 0.83105 0.86369 0.0
C813 C 0.56576 0.82033 0.83686 0.0
C814 C 0.60044 0.8147 0.92619 0.0
C815 C 0.53523 0.8444 0.86054 0.0
H816 H 0.5194 0.83247 0.97841 0.0
H817 H 0.55595 0.89439 0.95602 0.0
H818 H 0.52764 0.80291 0.91171 0.0
H819 H 0.55209 0.79335 0.93189 0.0
H820 H 0.52646 0.79677 0.95353 0.0
H821 H 0.58426 0.89498 0.91773 0.0
H822 H 0.59626 0.8676 0.90603 0.0
H823 H 0.57399 0.87973 0.88345 0.0
H824 H 0.61226 0.7968 0.86956 0.0
H825 H 0.55728 0.82186 0.81432 0.0
H826 H 0.58959 0.80656 0.9443 0.0
H827 H 0.60498 0.83217 0.93511 0.0
H828 H 0.61581 0.80418 0.92389 0.0
H829 H 0.52288 0.83796 0.87796 0.0
H830 H 0.528 0.84303 0.83639 0.0
H831 H 0.53816 0.863 0.86588 0.0
C832 C 0.90672 0.14553 0.74126 0.0
C833 C 0.9136 0.16287 0.72012 0.0
C834 C 0.91992 0.13938 0.76748 0.0
C835 C 0.94027 0.15108 0.77276 0.0
C836 C 0.94773 0.16778 0.75065 0.0
C837 C 0.93447 0.17323 0.72446 0.0
C838 C 0.91163 0.12119 0.7903 0.0
C839 C 0.96917 0.18094 0.75557 0.0
C840 C 0.96461 0.16019 0.85466 0.0
C841 C 0.9834 0.14586 0.85347 0.0
C842 C 0.94963 0.16109 0.82918 0.0
C843 C 0.9534 0.14706 0.80213 0.0
C844 C 0.9715 0.13141 0.80177 0.0
C845 C 0.98642 0.13117 0.82731 0.0
C846 C 0.93077 0.17832 0.83035 0.0
C847 C 0.97581 0.11584 0.77367 0.0
H848 H 0.89074 0.13727 0.73789 0.0
H849 H 0.93999 0.18671 0.70838 0.0
H850 H 0.92488 0.10834 0.79535 0.0
H851 H 0.90713 0.12952 0.81312 0.0
H852 H 0.89683 0.11191 0.78105 0.0
H853 H 0.97307 0.19268 0.73545 0.0
H854 H 0.96799 0.19152 0.77749 0.0
H855 H 0.98319 0.16868 0.75869 0.0
H856 H 0.96223 0.17167 0.87474 0.0
H857 H 0.00078 0.11984 0.82645 0.0
H858 H 0.91524 0.17067 0.82088 0.0
H859 H 0.93499 0.19351 0.81535 0.0
H860 H 0.92759 0.18454 0.85485 0.0
H861 H 0.96027 0.10717 0.76602 0.0
H862 H 0.98846 0.10235 0.77899 0.0
H863 H 0.98184 0.12641 0.75345 0.0
C864 C 0.60401 0.18883 0.63893 0.0
C865 C 0.59395 0.19037 0.66883 0.0
C866 C 0.5933 0.1776 0.61373 0.0
C867 C 0.57203 0.16787 0.61861 0.0
C868 C 0.56176 0.16942 0.64869 0.0
C869 C 0.57295 0.18049 0.67352 0.0
C870 C 0.60472 0.17615 0.58193 0.0
C871 C 0.53895 0.1594 0.65466 0.0
C872 C 0.533 0.15686 0.55007 0.0
C873 C 0.53435 0.13267 0.54712 0.0
C874 C 0.54577 0.16869 0.57259 0.0
C875 C 0.56034 0.15601 0.59235 0.0
C876 C 0.56255 0.13173 0.58847 0.0
C877 C 0.54946 0.12032 0.56589 0.0
C878 C 0.5429 0.1946 0.57623 0.0
C879 C 0.57809 0.1177 0.609 0.0
H880 H 0.62028 0.19638 0.63518 0.0
H881 H 0.5652 0.18129 0.69663 0.0
H882 H 0.60664 0.15773 0.57481 0.0
H883 H 0.5944 0.18473 0.56356 0.0
H884 H 0.62136 0.18445 0.58214 0.0
H885 H 0.53321 0.16233 0.67936 0.0
H886 H 0.52673 0.16733 0.63823 0.0
H887 H 0.53905 0.14046 0.64996 0.0
H888 H 0.52133 0.16651 0.53562 0.0
H889 H 0.55075 0.10165 0.5634 0.0
H890 H 0.55926 0.2034 0.57581 0.0
H891 H 0.53514 0.19842 0.59951 0.0
H892 H 0.53229 0.20213 0.5573 0.0
H893 H 0.59498 0.12536 0.60861 0.0
H894 H 0.57919 0.09931 0.60125 0.0
H895 H 0.57223 0.11809 0.63392 0.0
C896 C 0.6035 0.85955 0.25069 0.0
C897 C 0.59752 0.84289 0.22802 0.0
C898 C 0.58938 0.86466 0.27636 0.0
C899 C 0.56904 0.85255 0.27957 0.0
C900 C 0.56256 0.83646 0.25602 0.0
C901 C 0.5767 0.83208 0.2304 0.0
C902 C 0.59668 0.88218 0.30078 0.0
C903 C 0.54122 0.8228 0.25877 0.0
C904 C 0.54181 0.84004 0.35872 0.0
C905 C 0.52276 0.85397 0.35697 0.0
C906 C 0.55784 0.8405 0.33456 0.0
C907 C 0.55488 0.85545 0.30823 0.0
C908 C 0.53655 0.87079 0.30756 0.0
C909 C 0.52061 0.86973 0.33179 0.0
C910 C 0.57694 0.82361 0.33601 0.0
C911 C 0.53303 0.88731 0.28026 0.0
H912 H 0.61948 0.86807 0.24891 0.0
H913 H 0.57191 0.81905 0.2132 0.0
H914 H 0.58308 0.89463 0.30583 0.0
H915 H 0.60066 0.87315 0.3233 0.0
H916 H 0.61158 0.89202 0.29302 0.0
H917 H 0.53813 0.81169 0.23771 0.0
H918 H 0.54192 0.81149 0.28005 0.0
H919 H 0.52691 0.8347 0.26179 0.0
H920 H 0.54362 0.8278 0.37806 0.0
H921 H 0.50609 0.88081 0.33049 0.0
H922 H 0.59268 0.8319 0.32845 0.0
H923 H 0.57358 0.80905 0.31949 0.0
H924 H 0.57923 0.81639 0.3602 0.0
H925 H 0.54872 0.89638 0.27426 0.0
H926 H 0.52008 0.90047 0.28559 0.0
H927 H 0.5278 0.8774 0.25899 0.0
C928 C 0.92886 0.82251 0.16118 0.0
C929 C 0.90827 0.81121 0.16068 0.0
C930 C 0.93837 0.83105 0.13324 0.0
C931 C 0.92684 0.82848 0.10423 0.0
C932 C 0.90599 0.81725 0.10354 0.0
C933 C 0.89695 0.8087 0.13183 0.0
C934 C 0.96077 0.84284 0.13478 0.0
C935 C 0.89329 0.81422 0.07296 0.0
C936 C 0.94477 0.87074 0.04074 0.0
C937 C 0.96038 0.8575 0.02408 0.0
C938 C 0.93284 0.86115 0.06603 0.0
C939 C 0.93669 0.83778 0.07471 0.0
C940 C 0.95139 0.82391 0.05671 0.0
C941 C 0.96304 0.83394 0.03146 0.0
C942 C 0.9171 0.87638 0.08456 0.0
C943 C 0.95592 0.79892 0.06533 0.0
H944 H 0.93757 0.82477 0.1834 0.0
H945 H 0.88101 0.79998 0.13128 0.0
H946 H 0.97269 0.83392 0.11888 0.0
H947 H 0.9593 0.86103 0.1264 0.0
H948 H 0.96776 0.84297 0.15914 0.0
H949 H 0.87722 0.80514 0.07653 0.0
H950 H 0.88998 0.8314 0.06208 0.0
H951 H 0.90339 0.80415 0.05581 0.0
H952 H 0.94244 0.88887 0.03477 0.0
H953 H 0.9751 0.82361 0.01865 0.0
H954 H 0.92398 0.87952 0.10858 0.0
H955 H 0.90085 0.86762 0.0876 0.0
H956 H 0.91434 0.89341 0.07288 0.0
H957 H 0.96534 0.79823 0.08792 0.0
H958 H 0.96571 0.78981 0.04681 0.0
H959 H 0.94014 0.78939 0.06907 0.0
C960 C 0.5312 0.62343 0.88422 0.0
C961 C 0.53434 0.62782 0.91663 0.0
C962 C 0.54026 0.6382 0.8611 0.0
C963 C 0.55228 0.65811 0.87065 0.0
C964 C 0.55679 0.66172 0.90323 0.0
C965 C 0.54796 0.6464 0.92579 0.0
C966 C 0.53555 0.63336 0.8266 0.0
C967 C 0.5692 0.68292 0.91454 0.0
C968 C 0.58225 0.69856 0.81327 0.0
C969 C 0.56622 0.71595 0.80884 0.0
C970 C 0.57772 0.67899 0.83223 0.0
C971 C 0.55686 0.67705 0.84753 0.0
C972 C 0.54042 0.69416 0.84229 0.0
C973 C 0.54521 0.71318 0.82285 0.0
C974 C 0.59541 0.66075 0.83659 0.0
C975 C 0.51794 0.69287 0.85817 0.0
H976 H 0.5209 0.60897 0.8769 0.0
H977 H 0.55047 0.64998 0.95076 0.0
H978 H 0.52196 0.64485 0.81832 0.0
H979 H 0.55037 0.63702 0.8118 0.0
H980 H 0.53037 0.61508 0.82271 0.0
H981 H 0.57359 0.6818 0.94007 0.0
H982 H 0.58464 0.68541 0.90064 0.0
H983 H 0.55872 0.69853 0.91092 0.0
H984 H 0.59847 0.70043 0.80245 0.0
H985 H 0.53259 0.72636 0.81962 0.0
H986 H 0.58837 0.64319 0.83269 0.0
H987 H 0.60172 0.66132 0.86127 0.0
H988 H 0.60963 0.6633 0.82018 0.0
H989 H 0.50951 0.6765 0.85152 0.0
H990 H 0.50698 0.70761 0.85159 0.0
H991 H 0.51998 0.6928 0.88431 0.0
C992 C 0.58925 0.23412 0.22966 0.0
C993 C 0.605 0.2187 0.21718 0.0
C994 C 0.57657 0.24833 0.2097 0.0
C995 C 0.57988 0.24719 0.17655 0.0
C996 C 0.59588 0.23181 0.16382 0.0
C997 C 0.60826 0.21772 0.18432 0.0
C998 C 0.55946 0.26435 0.22402 0.0
C999 C 0.59978 0.23011 0.12854 0.0
C1000 C 0.53508 0.26907 0.12092 0.0
C1001 C 0.54344 0.29095 0.1126 0.0
C1002 C 0.54655 0.25475 0.14222 0.0
C1003 C 0.56694 0.26245 0.15515 0.0
C1004 C 0.5753 0.28463 0.14713 0.0
C1005 C 0.56342 0.29863 0.12596 0.0
C1006 C 0.5371 0.23116 0.15009 0.0
C1007 C 0.59698 0.29341 0.16053 0.0
H1008 H 0.58648 0.23474 0.25504 0.0
H1009 H 0.62039 0.20581 0.17457 0.0
H1010 H 0.56303 0.28256 0.2172 0.0
H1011 H 0.54276 0.26001 0.21464 0.0
H1012 H 0.55899 0.26321 0.2503 0.0
H1013 H 0.61274 0.21713 0.12247 0.0
H1014 H 0.58414 0.22522 0.11638 0.0
H1015 H 0.60493 0.24725 0.11908 0.0
H1016 H 0.51961 0.26306 0.11068 0.0
H1017 H 0.57004 0.31544 0.11944 0.0
H1018 H 0.53827 0.22757 0.17587 0.0
H1019 H 0.54686 0.21766 0.1376 0.0
H1020 H 0.51948 0.2295 0.14267 0.0
H1021 H 0.59637 0.29327 0.1868 0.0
H1022 H 0.60089 0.31131 0.15249 0.0
H1023 H 0.61073 0.28177 0.15323 0.0
C1024 C 0.90101 0.29168 0.29964 0.0
C1025 C 0.91902 0.27669 0.29431 0.0
C1026 C 0.90389 0.31278 0.31593 0.0
C1027 C 0.9252 0.31887 0.32738 0.0
C1028 C 0.94352 0.30415 0.32123 0.0
C1029 C 0.94022 0.28337 0.3047 0.0
C1030 C 0.88405 0.32823 0.32163 0.0
C1031 C 0.96658 0.30996 0.33297 0.0
C1032 C 0.94559 0.37817 0.35201 0.0
C1033 C 0.94691 0.37549 0.38504 0.0
C1034 C 0.93645 0.36069 0.33285 0.0
C1035 C 0.92862 0.34001 0.34706 0.0
C1036 C 0.92779 0.33827 0.38051 0.0
C1037 C 0.9368 0.35611 0.39912 0.0
C1038 C 0.93715 0.36349 0.2973 0.0
C1039 C 0.91955 0.31654 0.39667 0.0
H1040 H 0.88457 0.28674 0.29167 0.0
H1041 H 0.9543 0.27205 0.30065 0.0
H1042 H 0.87996 0.32835 0.34726 0.0
H1043 H 0.8879 0.34636 0.31471 0.0
H1044 H 0.8692 0.32233 0.30828 0.0
H1045 H 0.9791 0.29684 0.32572 0.0
H1046 H 0.97184 0.32711 0.3237 0.0
H1047 H 0.96658 0.31112 0.35922 0.0
H1048 H 0.95304 0.39322 0.34087 0.0
H1049 H 0.93754 0.35389 0.42461 0.0
H1050 H 0.92174 0.35673 0.28624 0.0
H1051 H 0.95128 0.35336 0.28764 0.0
H1052 H 0.93935 0.38192 0.29027 0.0
H1053 H 0.90384 0.31047 0.38579 0.0
H1054 H 0.91678 0.31925 0.42244 0.0
H1055 H 0.93202 0.30253 0.39368 0.0
C1056 C 0.90556 0.75561 0.7334 0.0
C1057 C 0.89092 0.77123 0.7188 0.0
C1058 C 0.91961 0.74147 0.7152 0.0
C1059 C 0.91878 0.7429 0.68174 0.0
C1060 C 0.90385 0.75843 0.66693 0.0
C1061 C 0.89012 0.77242 0.68564 0.0
C1062 C 0.93565 0.72538 0.73171 0.0
C1063 C 0.90251 0.76043 0.63128 0.0
C1064 C 0.96614 0.72353 0.62896 0.0
C1065 C 0.95806 0.70229 0.61759 0.0
C1066 C 0.95406 0.73647 0.6512 0.0
C1067 C 0.93329 0.72804 0.66191 0.0
C1068 C 0.92548 0.7062 0.65143 0.0
C1069 C 0.938 0.69355 0.62943 0.0
C1070 C 0.96306 0.75967 0.66179 0.0
C1071 C 0.90339 0.69669 0.6623 0.0
H1072 H 0.90644 0.75484 0.75903 0.0
H1073 H 0.87885 0.78447 0.67423 0.0
H1074 H 0.9329 0.70726 0.72377 0.0
H1075 H 0.95293 0.73009 0.72524 0.0
H1076 H 0.93399 0.72607 0.75792 0.0
H1077 H 0.88997 0.77338 0.62353 0.0
H1078 H 0.9189 0.76557 0.62157 0.0
H1079 H 0.89819 0.74336 0.62081 0.0
H1080 H 0.98172 0.73031 0.62004 0.0
H1081 H 0.93164 0.67717 0.62067 0.0
H1082 H 0.95948 0.76294 0.68719 0.0
H1083 H 0.955 0.7736 0.6478 0.0
H1084 H 0.98127 0.76092 0.65797 0.0
H1085 H 0.90239 0.69687 0.68855 0.0
H1086 H 0.90052 0.67868 0.65387 0.0
H1087 H 0.8898 0.70787 0.65324 0.0
C1088 C 0.54501 0.37848 0.61652 0.0
C1089 C 0.54483 0.37316 0.58405 0.0
C1090 C 0.55478 0.36336 0.6386 0.0
C1091 C 0.56419 0.34223 0.62803 0.0
C1092 C 0.56546 0.33758 0.59511 0.0
C1093 C 0.55594 0.35321 0.5735 0.0
C1094 C 0.55355 0.36925 0.67341 0.0
C1095 C 0.57512 0.31515 0.5828 0.0
C1096 C 0.59565 0.30108 0.68287 0.0
C1097 C 0.57887 0.28529 0.69116 0.0
C1098 C 0.59107 0.32024 0.66318 0.0
C1099 C 0.56931 0.32346 0.65121 0.0
C1100 C 0.55222 0.30798 0.66027 0.0
C1101 C 0.55717 0.28928 0.68023 0.0
C1102 C 0.60959 0.33668 0.65453 0.0
C1103 C 0.52876 0.31067 0.648 0.0
H1104 H 0.53669 0.394 0.62486 0.0
H1105 H 0.55589 0.34893 0.54848 0.0
H1106 H 0.54038 0.35868 0.68478 0.0
H1107 H 0.56945 0.36511 0.68543 0.0
H1108 H 0.54962 0.38787 0.67733 0.0
H1109 H 0.57741 0.31543 0.55667 0.0
H1110 H 0.59135 0.31151 0.59413 0.0
H1111 H 0.5638 0.30061 0.58885 0.0
H1112 H 0.61245 0.29824 0.69121 0.0
H1113 H 0.54398 0.27733 0.68648 0.0
H1114 H 0.60437 0.3549 0.65859 0.0
H1115 H 0.61353 0.33492 0.62896 0.0
H1116 H 0.62494 0.33325 0.66837 0.0
H1117 H 0.52214 0.32802 0.65433 0.0
H1118 H 0.51734 0.29728 0.65763 0.0
H1119 H 0.52867 0.3094 0.62175 0.0
C1120 C 0.92856 0.2982 0.89067 0.0
C1121 C 0.94908 0.29109 0.90288 0.0
C1122 C 0.91778 0.28522 0.86724 0.0
C1123 C 0.92785 0.26472 0.85566 0.0
C1124 C 0.9486 0.25743 0.86787 0.0
C1125 C 0.9589 0.27064 0.89158 0.0
C1126 C 0.8956 0.29344 0.85486 0.0
C1127 C 0.95986 0.23558 0.8563 0.0
C1128 C 0.89035 0.22087 0.81573 0.0
C1129 C 0.89383 0.2259 0.78357 0.0
C1130 C 0.90152 0.23321 0.83946 0.0
C1131 C 0.91652 0.25097 0.8308 0.0
C1132 C 0.92021 0.25608 0.79843 0.0
C1133 C 0.90874 0.24353 0.77517 0.0
C1134 C 0.89723 0.22729 0.87379 0.0
C1135 C 0.93641 0.27468 0.78841 0.0
H1136 H 0.92081 0.31387 0.89956 0.0
H1137 H 0.97478 0.26507 0.90098 0.0
H1138 H 0.89664 0.29651 0.82894 0.0
H1139 H 0.88283 0.27985 0.85874 0.0
H1140 H 0.88998 0.3097 0.86651 0.0
H1141 H 0.97758 0.23484 0.86352 0.0
H1142 H 0.95129 0.22029 0.86651 0.0
H1143 H 0.9589 0.23414 0.83012 0.0
H1144 H 0.87891 0.20721 0.82243 0.0
H1145 H 0.91174 0.24731 0.75037 0.0
H1146 H 0.8902 0.24259 0.88621 0.0
H1147 H 0.91305 0.22282 0.88577 0.0
H1148 H 0.88555 0.21251 0.87649 0.0
H1149 H 0.93128 0.29168 0.79835 0.0
H1150 H 0.93761 0.27631 0.76223 0.0
H1151 H 0.95315 0.27071 0.79798 0.0
C1152 C 0.96345 0.62655 0.12164 0.0
C1153 C 0.96139 0.6305 0.08894 0.0
C1154 C 0.95483 0.64236 0.14377 0.0
C1155 C 0.94421 0.66278 0.13294 0.0
C1156 C 0.94082 0.66611 0.10003 0.0
C1157 C 0.9493 0.64984 0.07844 0.0
C1158 C 0.95843 0.63793 0.17866 0.0
C1159 C 0.92981 0.68777 0.08744 0.0
C1160 C 0.91376 0.70452 0.18787 0.0
C1161 C 0.93008 0.7215 0.19302 0.0
C1162 C 0.91829 0.68476 0.16934 0.0
C1163 C 0.93952 0.6821 0.15538 0.0
C1164 C 0.95627 0.69873 0.16145 0.0
C1165 C 0.9514 0.71806 0.18031 0.0
C1166 C 0.90019 0.66711 0.16392 0.0
C1167 C 0.97917 0.6966 0.14703 0.0
H1168 H 0.97258 0.61154 0.13002 0.0
H1169 H 0.94762 0.65308 0.05325 0.0
H1170 H 0.97195 0.6493 0.18746 0.0
H1171 H 0.94325 0.64213 0.19241 0.0
H1172 H 0.96313 0.61962 0.1834 0.0
H1173 H 0.92629 0.68659 0.06164 0.0
H1174 H 0.91402 0.69114 0.10014 0.0
H1175 H 0.94083 0.7029 0.09157 0.0
H1176 H 0.89727 0.70693 0.19764 0.0
H1177 H 0.96424 0.73092 0.18418 0.0
H1178 H 0.90646 0.64937 0.16887 0.0
H1179 H 0.89496 0.66753 0.13872 0.0
H1180 H 0.88541 0.67041 0.179 0.0
H1181 H 0.98681 0.67982 0.15386 0.0
H1182 H 0.99043 0.71083 0.15454 0.0
H1183 H 0.97793 0.69684 0.12078 0.0
C1184 C 0.59491 0.76292 0.27456 0.0
C1185 C 0.61136 0.77765 0.28672 0.0
C1186 C 0.58108 0.75022 0.29484 0.0
C1187 C 0.58393 0.75218 0.32801 0.0
C1188 C 0.60051 0.76697 0.34045 0.0
C1189 C 0.61404 0.77957 0.31962 0.0
C1190 C 0.56336 0.73479 0.28082 0.0
C1191 C 0.60393 0.76951 0.37573 0.0
C1192 C 0.53746 0.73263 0.38255 0.0
C1193 C 0.5449 0.7105 0.39136 0.0
C1194 C 0.54986 0.74641 0.36164 0.0
C1195 C 0.57026 0.73787 0.34966 0.0
C1196 C 0.5778 0.71555 0.35848 0.0
C1197 C 0.56503 0.70215 0.37924 0.0
C1198 C 0.54133 0.77023 0.35302 0.0
C1199 C 0.59945 0.70587 0.34613 0.0
H1200 H 0.59253 0.76164 0.24916 0.0
H1201 H 0.62667 0.79101 0.32913 0.0
H1202 H 0.56614 0.71655 0.28827 0.0
H1203 H 0.54681 0.74006 0.28985 0.0
H1204 H 0.5631 0.73548 0.25451 0.0
H1205 H 0.61694 0.78248 0.38156 0.0
H1206 H 0.58819 0.77485 0.38726 0.0
H1207 H 0.60879 0.75256 0.38607 0.0
H1208 H 0.52193 0.73919 0.39195 0.0
H1209 H 0.57101 0.68519 0.38627 0.0
H1210 H 0.5435 0.77376 0.32735 0.0
H1211 H 0.55095 0.78345 0.36624 0.0
H1212 H 0.52351 0.77239 0.35916 0.0
H1213 H 0.59917 0.70534 0.31985 0.0
H1214 H 0.60283 0.68809 0.3551 0.0
H1215 H 0.61339 0.71732 0.35323 0.0
C1216 C 0.47567 0.36895 0.17492 0.0
C1217 C 0.47377 0.35334 0.14954 0.0
C1218 C 0.45976 0.36952 0.19916 0.0
C1219 C 0.44177 0.35378 0.19833 0.0
C1220 C 0.43893 0.33913 0.17167 0.0
C1221 C 0.45492 0.33919 0.14743 0.0
C1222 C 0.46309 0.38583 0.22676 0.0
C1223 C 0.42013 0.32189 0.17001 0.0
C1224 C 0.42276 0.32851 0.27644 0.0
C1225 C 0.4017 0.33857 0.2803 0.0
C1226 C 0.43597 0.33364 0.25012 0.0
C1227 C 0.42831 0.34981 0.22739 0.0
C1228 C 0.4077 0.36115 0.23204 0.0
C1229 C 0.39449 0.35522 0.25835 0.0
C1230 C 0.45764 0.32077 0.24583 0.0
C1231 C 0.39922 0.3788 0.20857 0.0
H1232 H 0.49003 0.38025 0.17638 0.0
H1233 H 0.45333 0.32712 0.12785 0.0
H1234 H 0.44717 0.39415 0.23353 0.0
H1235 H 0.4691 0.37588 0.24757 0.0
H1236 H 0.47543 0.39958 0.2213 0.0
H1237 H 0.41764 0.3153 0.14554 0.0
H1238 H 0.42404 0.30698 0.18568 0.0
H1239 H 0.40436 0.32964 0.17844 0.0
H1240 H 0.42849 0.31549 0.29307 0.0
H1241 H 0.37831 0.36315 0.26127 0.0
H1242 H 0.47153 0.33323 0.24307 0.0
H1243 H 0.45693 0.31012 0.22393 0.0
H1244 H 0.46144 0.30913 0.26611 0.0
H1245 H 0.41231 0.39173 0.20311 0.0
H1246 H 0.38428 0.38804 0.21747 0.0
H1247 H 0.39486 0.36999 0.18604 0.0
C1248 C 0.47006 0.66828 0.97319 0.0
C1249 C 0.46442 0.64544 0.98131 0.0
C1250 C 0.45881 0.67989 0.94882 0.0
C1251 C 0.44153 0.66836 0.93247 0.0
C1252 C 0.43474 0.64596 0.94216 0.0
C1253 C 0.44627 0.63477 0.96656 0.0
C1254 C 0.46647 0.70381 0.93912 0.0
C1255 C 0.41627 0.63318 0.92539 0.0
C1256 C 0.40327 0.70075 0.87661 0.0
C1257 C 0.41285 0.69562 0.84713 0.0
C1258 C 0.41272 0.69247 0.90478 0.0
C1259 C 0.43205 0.67861 0.90328 0.0
C1260 C 0.44198 0.67365 0.87362 0.0
C1261 C 0.43225 0.68226 0.84587 0.0
C1262 C 0.40189 0.69827 0.93607 0.0
C1263 C 0.46257 0.65877 0.87114 0.0
H1264 H 0.4841 0.6766 0.98452 0.0
H1265 H 0.44167 0.61725 0.97316 0.0
H1266 H 0.47541 0.70269 0.91617 0.0
H1267 H 0.45207 0.71554 0.93565 0.0
H1268 H 0.47781 0.71163 0.95692 0.0
H1269 H 0.41161 0.61689 0.93779 0.0
H1270 H 0.40134 0.64434 0.92339 0.0
H1271 H 0.42163 0.62874 0.90096 0.0
H1272 H 0.38834 0.71122 0.87772 0.0
H1273 H 0.43964 0.67813 0.82314 0.0
H1274 H 0.39608 0.68213 0.94774 0.0
H1275 H 0.3875 0.71016 0.93323 0.0
H1276 H 0.41413 0.7065 0.95218 0.0
H1277 H 0.47584 0.66563 0.88677 0.0
H1278 H 0.46905 0.65785 0.84652 0.0
H1279 H 0.45876 0.64089 0.87926 0.0
C1280 C 0.08113 0.65714 0.77019 0.0
C1281 C 0.10272 0.64803 0.77162 0.0
C1282 C 0.06729 0.6528 0.74423 0.0
C1283 C 0.07494 0.63846 0.71931 0.0
C1284 C 0.09607 0.62779 0.72161 0.0
C1285 C 0.10979 0.6328 0.74773 0.0
C1286 C 0.04499 0.66477 0.74263 0.0
C1287 C 0.10461 0.6121 0.69572 0.0
C1288 C 0.0278 0.621 0.66511 0.0
C1289 C 0.02894 0.63831 0.64178 0.0
C1290 C 0.04384 0.61955 0.68914 0.0
C1291 C 0.06116 0.63611 0.69022 0.0
C1292 C 0.0632 0.65268 0.66558 0.0
C1293 C 0.04713 0.65348 0.6415 0.0
C1294 C 0.04138 0.60129 0.71455 0.0
C1295 C 0.08121 0.67088 0.66599 0.0
H1296 H 0.07541 0.66894 0.78845 0.0
H1297 H 0.12631 0.62543 0.74886 0.0
H1298 H 0.04483 0.67714 0.72246 0.0
H1299 H 0.03161 0.65192 0.73841 0.0
H1300 H 0.04108 0.6745 0.76466 0.0
H1301 H 0.12002 0.60288 0.70285 0.0
H1302 H 0.09184 0.59909 0.68915 0.0
H1303 H 0.10822 0.62255 0.67425 0.0
H1304 H 0.01392 0.60902 0.6652 0.0
H1305 H 0.0481 0.66694 0.62361 0.0
H1306 H 0.03524 0.6095 0.73666 0.0
H1307 H 0.05765 0.59319 0.71996 0.0
H1308 H 0.02949 0.58749 0.70753 0.0
H1309 H 0.07665 0.68463 0.68321 0.0
H1310 H 0.08342 0.67906 0.64236 0.0
H1311 H 0.09733 0.66344 0.67359 0.0
C1312 C 0.04078 0.37566 0.39448 0.0
C1313 C 0.02761 0.36341 0.41614 0.0
C1314 C 0.05193 0.36405 0.36996 0.0
C1315 C 0.04981 0.33968 0.36716 0.0
C1316 C 0.03623 0.32729 0.38863 0.0
C1317 C 0.02535 0.3393 0.41292 0.0
C1318 C 0.06631 0.37778 0.34743 0.0
C1319 C 0.03348 0.30129 0.38628 0.0
C1320 C 0.06627 0.30897 0.2911 0.0
C1321 C 0.08732 0.30041 0.29913 0.0
C1322 C 0.0539 0.32211 0.31286 0.0
C1323 C 0.06292 0.32683 0.34317 0.0
C1324 C 0.08428 0.31853 0.35118 0.0
C1325 C 0.09621 0.30542 0.32908 0.0
C1326 C 0.03111 0.33069 0.30363 0.0
C1327 C 0.09441 0.32315 0.38333 0.0
H1328 H 0.0426 0.39427 0.39687 0.0
H1329 H 0.01499 0.32974 0.42937 0.0
H1330 H 0.08389 0.37237 0.35006 0.0
H1331 H 0.0614 0.37418 0.32257 0.0
H1332 H 0.06518 0.39676 0.3517 0.0
H1333 H 0.02165 0.29439 0.40414 0.0
H1334 H 0.02745 0.29647 0.36233 0.0
H1335 H 0.04977 0.29266 0.38973 0.0
H1336 H 0.05938 0.30528 0.26793 0.0
H1337 H 0.1125 0.29894 0.33544 0.0
H1338 H 0.03026 0.34982 0.30615 0.0
H1339 H 0.01846 0.32322 0.31978 0.0
H1340 H 0.02671 0.32599 0.27888 0.0
H1341 H 0.09498 0.34209 0.38795 0.0
H1342 H 0.1115 0.31607 0.38543 0.0
H1343 H 0.08397 0.31522 0.40208 0.0
C1344 C 0.45593 0.66273 0.35137 0.0
C1345 C 0.47513 0.64905 0.34942 0.0
C1346 C 0.44032 0.66295 0.32663 0.0
C1347 C 0.44389 0.64897 0.29948 0.0
C1348 C 0.46245 0.63395 0.29839 0.0
C1349 C 0.47794 0.63431 0.32324 0.0
C1350 C 0.42092 0.67946 0.32852 0.0
C1351 C 0.46664 0.61847 0.27016 0.0
C1352 C 0.39623 0.64524 0.24025 0.0
C1353 C 0.40223 0.66251 0.21847 0.0
C1354 C 0.41001 0.6399 0.26621 0.0
C1355 C 0.43 0.65244 0.27067 0.0
C1356 C 0.43646 0.66929 0.24812 0.0
C1357 C 0.42268 0.67387 0.22216 0.0
C1358 C 0.40275 0.62157 0.28953 0.0
C1359 C 0.45741 0.68341 0.25224 0.0
H1360 H 0.45364 0.67421 0.37147 0.0
H1361 H 0.49259 0.62344 0.32174 0.0
H1362 H 0.42397 0.6943 0.31236 0.0
H1363 H 0.40536 0.67092 0.32072 0.0
H1364 H 0.41848 0.68629 0.35289 0.0
H1365 H 0.47987 0.60549 0.27491 0.0
H1366 H 0.45124 0.6092 0.2633 0.0
H1367 H 0.47181 0.62921 0.24962 0.0
H1368 H 0.38051 0.63633 0.23749 0.0
H1369 H 0.42745 0.68743 0.2057 0.0
H1370 H 0.39847 0.62986 0.31246 0.0
H1371 H 0.4165 0.6092 0.29412 0.0
H1372 H 0.38807 0.61174 0.28098 0.0
H1373 H 0.45619 0.69399 0.27416 0.0
H1374 H 0.46047 0.69527 0.23195 0.0
H1375 H 0.47197 0.6718 0.25489 0.0
C1376 C 0.03279 0.66213 0.0384 0.0
C1377 C 0.03557 0.63851 0.03152 0.0
C1378 C 0.04459 0.67259 0.06318 0.0
C1379 C 0.05958 0.65908 0.08124 0.0
C1380 C 0.06342 0.6356 0.07317 0.0
C1381 C 0.05134 0.62558 0.04834 0.0
C1382 C 0.04007 0.6977 0.07116 0.0
C1383 C 0.07944 0.62074 0.09177 0.0
C1384 C 0.10049 0.68957 0.13516 0.0
C1385 C 0.0898 0.68784 0.16461 0.0
C1386 C 0.09086 0.68027 0.10774 0.0
C1387 C 0.07006 0.66904 0.1099 0.0
C1388 C 0.05919 0.66719 0.13954 0.0
C1389 C 0.06927 0.67651 0.16661 0.0
C1390 C 0.10286 0.68257 0.07647 0.0
C1391 C 0.03689 0.65537 0.14264 0.0
H1392 H 0.02058 0.67222 0.0255 0.0
H1393 H 0.05374 0.60739 0.04278 0.0
H1394 H 0.03122 0.69874 0.09419 0.0
H1395 H 0.05586 0.70741 0.07375 0.0
H1396 H 0.02975 0.70639 0.05285 0.0
H1397 H 0.0819 0.60341 0.08081 0.0
H1398 H 0.09579 0.62948 0.0937 0.0
H1399 H 0.07306 0.61826 0.11621 0.0
H1400 H 0.11637 0.69832 0.13344 0.0
H1401 H 0.06104 0.67488 0.1893 0.0
H1402 H 0.0924 0.69231 0.05939 0.0
H1403 H 0.10588 0.66515 0.06615 0.0
H1404 H 0.11903 0.69166 0.0789 0.0
H1405 H 0.02461 0.66377 0.12674 0.0
H1406 H 0.03039 0.65594 0.16727 0.0
H1407 H 0.03829 0.63697 0.1352 0.0
C1408 C 0.09408 0.35944 0.75478 0.0
C1409 C 0.08798 0.34276 0.73221 0.0
C1410 C 0.08025 0.36432 0.78085 0.0
C1411 C 0.06007 0.35199 0.78451 0.0
C1412 C 0.05342 0.33592 0.76103 0.0
C1413 C 0.06729 0.33174 0.73505 0.0
C1414 C 0.08768 0.38185 0.80518 0.0
C1415 C 0.0322 0.32211 0.7642 0.0
C1416 C 0.03405 0.33959 0.86455 0.0
C1417 C 0.01503 0.3536 0.86341 0.0
C1418 C 0.04962 0.33987 0.83977 0.0
C1419 C 0.04621 0.35474 0.81347 0.0
C1420 C 0.02782 0.37003 0.81325 0.0
C1421 C 0.01233 0.36911 0.83807 0.0
C1422 C 0.0688 0.32302 0.84074 0.0
C1423 C 0.02383 0.38644 0.78596 0.0
H1424 H 0.10992 0.36819 0.7526 0.0
H1425 H 0.06237 0.31874 0.71787 0.0
H1426 H 0.07408 0.39425 0.81043 0.0
H1427 H 0.09185 0.37283 0.82763 0.0
H1428 H 0.10249 0.39174 0.79721 0.0
H1429 H 0.02898 0.31098 0.7432 0.0
H1430 H 0.03316 0.31083 0.78548 0.0
H1431 H 0.01784 0.33392 0.76747 0.0
H1432 H 0.0362 0.32749 0.88398 0.0
H1433 H 0.9978 0.38019 0.83725 0.0
H1434 H 0.0844 0.33139 0.8328 0.0
H1435 H 0.06535 0.3084 0.82433 0.0
H1436 H 0.07141 0.31583 0.86487 0.0
H1437 H 0.03936 0.3957 0.77964 0.0
H1438 H 0.01079 0.39945 0.79149 0.0
H1439 H 0.01853 0.37644 0.76482 0.0
C1440 C 0.45108 0.37438 0.54677 0.0
C1441 C 0.46684 0.36169 0.52959 0.0
C1442 C 0.43837 0.36377 0.57046 0.0
C1443 C 0.44158 0.33993 0.57704 0.0
C1444 C 0.45656 0.32673 0.55857 0.0
C1445 C 0.46901 0.33779 0.53493 0.0
C1446 C 0.42238 0.37834 0.58955 0.0
C1447 C 0.46039 0.30126 0.56496 0.0
C1448 C 0.43072 0.32157 0.66164 0.0
C1449 C 0.40972 0.31127 0.6592 0.0
C1450 C 0.44145 0.33053 0.63489 0.0
C1451 C 0.43076 0.3294 0.60507 0.0
C1452 C 0.40963 0.31892 0.60234 0.0
C1453 C 0.39935 0.30992 0.6295 0.0
C1454 C 0.4641 0.34147 0.63863 0.0
C1455 C 0.39782 0.31743 0.57084 0.0
H1456 H 0.44912 0.39279 0.54235 0.0
H1457 H 0.48116 0.32788 0.52166 0.0
H1458 H 0.40587 0.36986 0.59061 0.0
H1459 H 0.42853 0.37995 0.61424 0.0
H1460 H 0.42034 0.39604 0.57954 0.0
H1461 H 0.47061 0.29294 0.54621 0.0
H1462 H 0.46907 0.29918 0.58798 0.0
H1463 H 0.44435 0.29191 0.56675 0.0
H1464 H 0.43874 0.32291 0.68453 0.0
H1465 H 0.38311 0.30196 0.62746 0.0
H1466 H 0.46338 0.36003 0.63169 0.0
H1467 H 0.47622 0.33285 0.62271 0.0
H1468 H 0.47039 0.34033 0.66333 0.0
H1469 H 0.38172 0.30812 0.5726 0.0
H1470 H 0.40844 0.30837 0.55327 0.0
H1471 H 0.39468 0.33514 0.56155 0.0
C1472 C 0.28983 0.25685 0.29549 0.0
C1473 C 0.2918 0.28018 0.28631 0.0
C1474 C 0.26942 0.24521 0.29344 0.0
C1475 C 0.25047 0.25736 0.28268 0.0
C1476 C 0.25239 0.2809 0.27332 0.0
C1477 C 0.27309 0.29194 0.27491 0.0
C1478 C 0.26811 0.21997 0.30284 0.0
C1479 C 0.23246 0.29457 0.26218 0.0
C1480 C 0.1976 0.23026 0.25153 0.0
C1481 C 0.18325 0.23359 0.27732 0.0
C1482 C 0.22015 0.23616 0.25372 0.0
C1483 C 0.22835 0.24597 0.28216 0.0
C1484 C 0.21438 0.2475 0.30904 0.0
C1485 C 0.19204 0.24102 0.30639 0.0
C1486 C 0.23474 0.23355 0.22486 0.0
C1487 C 0.22243 0.25799 0.33976 0.0
H1488 H 0.30433 0.2476 0.30396 0.0
H1489 H 0.27453 0.30997 0.26788 0.0
H1490 H 0.25693 0.21793 0.32353 0.0
H1491 H 0.26095 0.20961 0.28318 0.0
H1492 H 0.28462 0.21269 0.30905 0.0
H1493 H 0.23675 0.31277 0.256 0.0
H1494 H 0.22504 0.28616 0.24106 0.0
H1495 H 0.21959 0.29482 0.281 0.0
H1496 H 0.19097 0.22425 0.2291 0.0
H1497 H 0.18112 0.24354 0.32652 0.0
H1498 H 0.2512 0.22641 0.23149 0.0
H1499 H 0.23754 0.25083 0.21399 0.0
H1500 H 0.22709 0.22206 0.20676 0.0
H1501 H 0.23857 0.25035 0.34686 0.0
H1502 H 0.21037 0.25546 0.35938 0.0
H1503 H 0.22506 0.2769 0.33645 0.0
C1504 C 0.01319 0.91698 0.53631 0.0
C1505 C 0.03329 0.90695 0.54578 0.0
C1506 C 0.01222 0.94038 0.52722 0.0
C1507 C 0.03196 0.95377 0.52661 0.0
C1508 C 0.05244 0.94339 0.53487 0.0
C1509 C 0.0528 0.92019 0.5449 0.0
C1510 C 0.98997 0.95098 0.51929 0.0
C1511 C 0.07391 0.95686 0.53345 0.0
C1512 C 0.02736 0.00936 0.47894 0.0
C1513 C 0.02382 0.02579 0.50289 0.0
C1514 C 0.03131 0.98599 0.48638 0.0
C1515 C 0.03092 0.97884 0.51847 0.0
C1516 C 0.02812 0.99553 0.54278 0.0
C1517 C 0.02495 0.01891 0.53468 0.0
C1518 C 0.03505 0.96884 0.45987 0.0
C1519 C 0.02709 0.98853 0.57725 0.0
H1520 H 0.99809 0.90678 0.53721 0.0
H1521 H 0.06839 0.91234 0.55194 0.0
H1522 H 0.98647 0.9656 0.53566 0.0
H1523 H 0.99021 0.95814 0.49491 0.0
H1524 H 0.9762 0.93822 0.52106 0.0
H1525 H 0.0886 0.94573 0.53817 0.0
H1526 H 0.07586 0.96501 0.50978 0.0
H1527 H 0.07363 0.97106 0.55118 0.0
H1528 H 0.02655 0.01471 0.45433 0.0
H1529 H 0.02193 0.03156 0.55321 0.0
H1530 H 0.02046 0.95721 0.45778 0.0
H1531 H 0.04969 0.95778 0.46506 0.0
H1532 H 0.03765 0.97758 0.4367 0.0
H1533 H 0.01252 0.97711 0.58116 0.0
H1534 H 0.02571 0.00374 0.59331 0.0
H1535 H 0.04208 0.97848 0.58386 0.0
C1536 C 0.31091 0.75128 0.74834 0.0
C1537 C 0.32218 0.75129 0.77742 0.0
C1538 C 0.28822 0.74576 0.74679 0.0
C1539 C 0.27684 0.73941 0.77485 0.0
C1540 C 0.28777 0.74096 0.80446 0.0
C1541 C 0.31022 0.74726 0.80541 0.0
C1542 C 0.27686 0.74526 0.71493 0.0
C1543 C 0.27639 0.73395 0.83489 0.0
C1544 C 0.21446 0.73058 0.77971 0.0
C1545 C 0.21275 0.70654 0.77521 0.0
C1546 C 0.23512 0.74179 0.7781 0.0
C1547 C 0.25453 0.72846 0.77309 0.0
C1548 C 0.25282 0.70418 0.7683 0.0
C1549 C 0.23188 0.69358 0.76887 0.0
C1550 C 0.2362 0.76779 0.78211 0.0
C1551 C 0.27318 0.68925 0.76368 0.0
H1552 H 0.32004 0.75459 0.72666 0.0
H1553 H 0.3188 0.74719 0.82799 0.0
H1554 H 0.27483 0.72701 0.7071 0.0
H1555 H 0.26006 0.75307 0.71649 0.0
H1556 H 0.28657 0.75467 0.6966 0.0
H1557 H 0.28657 0.738 0.85613 0.0
H1558 H 0.26014 0.7428 0.83724 0.0
H1559 H 0.27313 0.71499 0.83451 0.0
H1560 H 0.19958 0.74065 0.7842 0.0
H1561 H 0.23053 0.67498 0.76549 0.0
H1562 H 0.246 0.77565 0.76259 0.0
H1563 H 0.24474 0.77212 0.80462 0.0
H1564 H 0.21945 0.77585 0.78245 0.0
H1565 H 0.28263 0.6952 0.74266 0.0
H1566 H 0.26897 0.67063 0.76044 0.0
H1567 H 0.28429 0.6909 0.78455 0.0
C1568 C 0.44991 0.08542 0.02003 0.0
C1569 C 0.46975 0.09749 0.02532 0.0
C1570 C 0.45013 0.06233 0.00959 0.0
C1571 C 0.4707 0.05087 0.00554 0.0
C1572 C 0.4908 0.06326 0.00986 0.0
C1573 C 0.49007 0.08661 0.01923 0.0
C1574 C 0.42838 0.04996 0.00409 0.0
C1575 C 0.51308 0.0515 0.00642 0.0
C1576 C 0.47337 0.986 0.01967 0.0
C1577 C 0.47709 0.97761 0.98897 0.0
C1578 C 0.47081 0.00982 0.02529 0.0
C1579 C 0.47128 0.02549 -0.00057 0.0
C1580 C 0.47352 0.01694 0.96816 0.0
C1581 C 0.47679 0.99309 0.96334 0.0
C1582 C 0.46888 0.0183 0.05905 0.0
C1583 C 0.47327 0.03303 0.93994 0.0
H1584 H 0.43418 0.09397 0.02451 0.0
H1585 H 0.50539 0.09595 0.02358 0.0
H1586 H 0.42871 0.04058 0.98113 0.0
H1587 H 0.4257 0.03687 0.02298 0.0
H1588 H 0.41406 0.06212 0.00412 0.0
H1589 H 0.52712 0.06381 0.00931 0.0
H1590 H 0.51468 0.03763 0.02451 0.0
H1591 H 0.51445 0.04314 0.98284 0.0
H1592 H 0.47387 0.97409 0.03956 0.0
H1593 H 0.47959 0.98658 0.93956 0.0
H1594 H 0.4537 0.02897 0.06195 0.0
H1595 H 0.48329 0.02952 0.06483 0.0
H1596 H 0.4683 0.00381 0.0764 0.0
H1597 H 0.45894 0.04509 0.94141 0.0
H1598 H 0.47235 0.0234 0.91717 0.0
H1599 H 0.48857 0.04373 0.93984 0.0
C1600 C 0.19017 0.75338 0.2508 0.0
C1601 C 0.17776 0.75254 0.2227 0.0
C1602 C 0.21316 0.74924 0.25052 0.0
C1603 C 0.22377 0.7435 0.22161 0.0
C1604 C 0.2116 0.74425 0.19294 0.0
C1605 C 0.18882 0.74912 0.1938 0.0
C1606 C 0.22576 0.7495 0.28143 0.0
C1607 C 0.22215 0.73788 0.16164 0.0
C1608 C 0.28636 0.73847 0.21246 0.0
C1609 C 0.28958 0.71459 0.21699 0.0
C1610 C 0.26514 0.74838 0.21526 0.0
C1611 C 0.24669 0.73391 0.22161 0.0
C1612 C 0.24993 0.70979 0.22628 0.0
C1613 C 0.2714 0.7005 0.22444 0.0
C1614 C 0.26245 0.77425 0.21122 0.0
C1615 C 0.23062 0.69366 0.23233 0.0
H1616 H 0.18176 0.75624 0.27318 0.0
H1617 H 0.1794 0.74846 0.17193 0.0
H1618 H 0.22919 0.73142 0.28901 0.0
H1619 H 0.24198 0.75838 0.27854 0.0
H1620 H 0.21625 0.75828 0.30054 0.0
H1621 H 0.21098 0.74137 0.14124 0.0
H1622 H 0.23782 0.74762 0.15808 0.0
H1623 H 0.22637 0.71913 0.16169 0.0
H1624 H 0.30049 0.74943 0.20712 0.0
H1625 H 0.27388 0.68203 0.22783 0.0
H1626 H 0.2532 0.78161 0.23164 0.0
H1627 H 0.2526 0.77795 0.18961 0.0
H1628 H 0.27867 0.7833 0.2092 0.0
H1629 H 0.22163 0.69904 0.25404 0.0
H1630 H 0.23597 0.67533 0.2352 0.0
H1631 H 0.2187 0.69463 0.21232 0.0
C1632 C 0.48831 0.91618 0.47897 0.0
C1633 C 0.46866 0.90522 0.46964 0.0
C1634 C 0.48796 0.93897 0.49066 0.0
C1635 C 0.46737 0.95063 0.49406 0.0
C1636 C 0.44737 0.93902 0.48651 0.0
C1637 C 0.44829 0.91657 0.47378 0.0
C1638 C 0.50968 0.95097 0.49772 0.0
C1639 C 0.42508 0.95056 0.49092 0.0
C1640 C 0.47033 0.00595 0.54263 0.0
C1641 C 0.47171 0.02279 0.51874 0.0
C1642 C 0.46757 0.98241 0.53505 0.0
C1643 C 0.467 0.97558 0.50283 0.0
C1644 C 0.46754 0.99263 0.47868 0.0
C1645 C 0.46952 0.01608 0.48697 0.0
C1646 C 0.46616 0.96479 0.56144 0.0
C1647 C 0.46744 0.98604 0.44402 0.0
H1648 H 0.50404 0.90737 0.47554 0.0
H1649 H 0.43307 0.90792 0.46683 0.0
H1650 H 0.51177 0.96601 0.48155 0.0
H1651 H 0.50968 0.95779 0.52228 0.0
H1652 H 0.52417 0.93923 0.4948 0.0
H1653 H 0.41112 0.93815 0.48796 0.0
H1654 H 0.42396 0.95852 0.51481 0.0
H1655 H 0.42309 0.96469 0.47331 0.0
H1656 H 0.47194 0.01114 0.56723 0.0
H1657 H 0.47084 0.02902 0.46842 0.0
H1658 H 0.48171 0.95451 0.5623 0.0
H1659 H 0.45232 0.9525 0.55707 0.0
H1660 H 0.46367 0.97312 0.58492 0.0
H1661 H 0.48238 0.9755 0.43856 0.0
H1662 H 0.46733 0.00145 0.42821 0.0
H1663 H 0.45272 0.97524 0.43849 0.0
C1664 C 0.20617 0.27018 0.72155 0.0
C1665 C 0.20242 0.29393 0.72642 0.0
C1666 C 0.2277 0.2609 0.72303 0.0
C1667 C 0.24592 0.2759 0.72839 0.0
C1668 C 0.24216 0.29989 0.73349 0.0
C1669 C 0.2204 0.30854 0.73297 0.0
C1670 C 0.23098 0.23514 0.71854 0.0
C1671 C 0.26118 0.31656 0.73848 0.0
C1672 C 0.30361 0.25666 0.75332 0.0
C1673 C 0.31496 0.25736 0.72432 0.0
C1674 C 0.28069 0.26106 0.75481 0.0
C1675 C 0.26906 0.26696 0.72676 0.0
C1676 C 0.28021 0.26645 0.69724 0.0
C1677 C 0.30294 0.2613 0.69635 0.0
C1678 C 0.26918 0.26059 0.78657 0.0
C1679 C 0.26856 0.27305 0.66684 0.0
H1680 H 0.19221 0.2588 0.7169 0.0
H1681 H 0.2175 0.32691 0.73663 0.0
H1682 H 0.24017 0.23186 0.69622 0.0
H1683 H 0.24112 0.22798 0.7382 0.0
H1684 H 0.21497 0.22561 0.71756 0.0
H1685 H 0.25542 0.33468 0.74211 0.0
H1686 H 0.2711 0.31125 0.75939 0.0
H1687 H 0.27239 0.31617 0.71761 0.0
H1688 H 0.31279 0.25345 0.77499 0.0
H1689 H 0.31157 0.26196 0.67382 0.0
H1690 H 0.25314 0.25121 0.78485 0.0
H1691 H 0.26548 0.27859 0.79424 0.0
H1692 H 0.27954 0.2522 0.80508 0.0
H1693 H 0.25312 0.26282 0.66389 0.0
H1694 H 0.2792 0.27032 0.64565 0.0
H1695 H 0.26375 0.29162 0.6678 0.0
C1696 C 0.01282 0.07329 0.96705 0.0
C1697 C 0.03271 0.0846 0.95968 0.0
C1698 C 0.01271 0.0497 0.97524 0.0
C1699 C 0.03306 0.03742 0.97709 0.0
C1700 C 0.05328 0.04908 0.97101 0.0
C1701 C 0.05283 0.07246 0.96181 0.0
C1702 C 0.99075 0.03773 0.98083 0.0
C1703 C 0.07533 0.03679 0.97385 0.0
C1704 C 0.02828 0.98071 0.02193 0.0
C1705 C 0.02614 0.96478 0.99703 0.0
C1706 C 0.03209 0.0043 0.01584 0.0
C1707 C 0.03295 0.01217 0.98409 0.0
C1708 C 0.03182 0.99597 0.95889 0.0
C1709 C 0.02877 0.97237 0.96572 0.0
C1710 C 0.03408 0.02093 0.04334 0.0
C1711 C 0.03219 0.00372 0.9247 0.0
H1712 H 0.99727 0.08266 0.96517 0.0
H1713 H 0.06824 0.08132 0.95638 0.0
H1714 H 0.98873 0.02325 0.96372 0.0
H1715 H 0.99033 0.03013 0.00496 0.0
H1716 H 0.97643 0.04973 0.97825 0.0
H1717 H 0.08958 0.04884 0.971 0.0
H1718 H 0.07665 0.02816 0.99729 0.0
H1719 H 0.0766 0.02307 0.95553 0.0
H1720 H 0.02632 0.9748 0.04617 0.0
H1721 H 0.02684 0.9601 0.94643 0.0
H1722 H 0.01882 0.03164 0.04496 0.0
H1723 H 0.04826 0.03292 0.0397 0.0
H1724 H 0.03637 0.01171 0.06623 0.0
H1725 H 0.01723 0.01435 0.9197 0.0
H1726 H 0.03248 0.98884 0.90796 0.0
H1727 H 0.04689 0.01478 0.92006 0.0
C1728 C 0.77592 0.78672 0.78706 0.0
C1729 C 0.791 0.78935 0.7621 0.0
C1730 C 0.75377 0.78056 0.78112 0.0
C1731 C 0.74686 0.77615 0.74957 0.0
C1732 C 0.76255 0.77699 0.72463 0.0
C1733 C 0.78437 0.78408 0.7311 0.0
C1734 C 0.73746 0.7805 0.80829 0.0
C1735 C 0.75605 0.77154 0.69089 0.0
C1736 C 0.6882 0.75232 0.7411 0.0
C1737 C 0.6763 0.77268 0.7346 0.0
C1738 C 0.71145 0.75284 0.74442 0.0
C1739 C 0.72279 0.77432 0.74226 0.0
C1740 C 0.71086 0.79475 0.73479 0.0
C1741 C 0.68788 0.79358 0.73053 0.0
C1742 C 0.72377 0.73058 0.75114 0.0
C1743 C 0.72219 0.81812 0.73287 0.0
H1744 H 0.7811 0.79083 0.81102 0.0
H1745 H 0.79619 0.78577 0.71186 0.0
H1746 H 0.7255 0.79499 0.80523 0.0
H1747 H 0.72776 0.76416 0.80848 0.0
H1748 H 0.74578 0.78251 0.83162 0.0
H1749 H 0.77079 0.76884 0.67551 0.0
H1750 H 0.7455 0.75577 0.68999 0.0
H1751 H 0.74621 0.78611 0.68102 0.0
H1752 H 0.67934 0.7361 0.74408 0.0
H1753 H 0.67885 0.80944 0.72559 0.0
H1754 H 0.72949 0.73047 0.77611 0.0
H1755 H 0.73871 0.72922 0.73587 0.0
H1756 H 0.71317 0.71507 0.74723 0.0
H1757 H 0.73018 0.82222 0.7559 0.0
H1758 H 0.71045 0.83234 0.72694 0.0
H1759 H 0.73543 0.81777 0.71464 0.0
C1760 C 0.71964 0.18696 0.26526 0.0
C1761 C 0.70168 0.20135 0.27271 0.0
C1762 C 0.7412 0.19599 0.2631 0.0
C1763 C 0.74468 0.22011 0.26741 0.0
C1764 C 0.7264 0.23487 0.27356 0.0
C1765 C 0.70513 0.22522 0.27673 0.0
C1766 C 0.76033 0.17958 0.25731 0.0
C1767 C 0.72936 0.26074 0.27713 0.0
C1768 C 0.80232 0.23546 0.29592 0.0
C1769 C 0.81355 0.23884 0.26717 0.0
C1770 C 0.77959 0.23038 0.29644 0.0
C1771 C 0.76767 0.22942 0.26757 0.0
C1772 C 0.77848 0.23495 0.23874 0.0
C1773 C 0.80143 0.23925 0.23882 0.0
C1774 C 0.7688 0.22418 0.32764 0.0
C1775 C 0.76612 0.235 0.20764 0.0
H1776 H 0.71693 0.1685 0.26223 0.0
H1777 H 0.69113 0.23639 0.28205 0.0
H1778 H 0.76949 0.18478 0.23566 0.0
H1779 H 0.77217 0.18046 0.27744 0.0
H1780 H 0.75478 0.16132 0.25451 0.0
H1781 H 0.71323 0.27002 0.27859 0.0
H1782 H 0.73899 0.26454 0.29892 0.0
H1783 H 0.73894 0.26777 0.25681 0.0
H1784 H 0.81157 0.23506 0.31795 0.0
H1785 H 0.81003 0.24206 0.21657 0.0
H1786 H 0.76421 0.20553 0.32751 0.0
H1787 H 0.75331 0.23425 0.33107 0.0
H1788 H 0.77993 0.22742 0.34815 0.0
H1789 H 0.76261 0.21688 0.20033 0.0
H1790 H 0.77582 0.24351 0.18851 0.0
H1791 H 0.74994 0.24404 0.21012 0.0
C1792 C 0.7007 0.2532 0.74734 0.0
C1793 C 0.68811 0.25214 0.71942 0.0
C1794 C 0.72365 0.24885 0.74688 0.0
C1795 C 0.73408 0.24276 0.71796 0.0
C1796 C 0.72172 0.24316 0.68945 0.0
C1797 C 0.69896 0.24816 0.69048 0.0
C1798 C 0.73645 0.24939 0.77763 0.0
C1799 C 0.73208 0.23645 0.65816 0.0
C1800 C 0.79676 0.23832 0.70897 0.0
C1801 C 0.80025 0.21454 0.71401 0.0
C1802 C 0.7754 0.24799 0.7113 0.0
C1803 C 0.75709 0.23338 0.71786 0.0
C1804 C 0.76057 0.20934 0.72293 0.0
C1805 C 0.78215 0.20029 0.7214 0.0
C1806 C 0.77243 0.27377 0.70668 0.0
C1807 C 0.74143 0.19306 0.72927 0.0
H1808 H 0.69246 0.25647 0.76975 0.0
H1809 H 0.6894 0.24732 0.66875 0.0
H1810 H 0.7402 0.23139 0.78524 0.0
H1811 H 0.75251 0.25851 0.77446 0.0
H1812 H 0.72696 0.25807 0.79684 0.0
H1813 H 0.72076 0.23963 0.63784 0.0
H1814 H 0.74768 0.24622 0.65417 0.0
H1815 H 0.73639 0.21773 0.65859 0.0
H1816 H 0.81079 0.24944 0.70366 0.0
H1817 H 0.7848 0.18189 0.7252 0.0
H1818 H 0.76344 0.28131 0.7272 0.0
H1819 H 0.7622 0.27709 0.6853 0.0
H1820 H 0.78853 0.28295 0.70392 0.0
H1821 H 0.7324 0.19855 0.75091 0.0
H1822 H 0.74695 0.17482 0.73244 0.0
H1823 H 0.72949 0.19373 0.70926 0.0
C1824 C 0.80954 0.74947 0.25764 0.0
C1825 C 0.82095 0.74991 0.22868 0.0
C1826 C 0.7866 0.75383 0.25891 0.0
C1827 C 0.77507 0.75945 0.23068 0.0
C1828 C 0.78623 0.75832 0.20121 0.0
C1829 C 0.80896 0.75318 0.20054 0.0
C1830 C 0.77506 0.75389 0.29065 0.0
C1831 C 0.77469 0.76459 0.17058 0.0
C1832 C 0.71239 0.76515 0.22467 0.0
C1833 C 0.70956 0.78911 0.22876 0.0
C1834 C 0.73352 0.75497 0.2269 0.0
C1835 C 0.75227 0.76927 0.23209 0.0
C1836 C 0.74941 0.79347 0.23653 0.0
C1837 C 0.72802 0.80303 0.23536 0.0
C1838 C 0.73582 0.72903 0.22324 0.0
C1839 C 0.76902 0.80942 0.24134 0.0
H1840 H 0.81869 0.74672 0.27945 0.0
H1841 H 0.81763 0.75357 0.17803 0.0
H1842 H 0.77216 0.77204 0.29833 0.0
H1843 H 0.75864 0.74525 0.28897 0.0
H1844 H 0.78509 0.74503 0.30914 0.0
H1845 H 0.78519 0.76101 0.14949 0.0
H1846 H 0.75893 0.75484 0.16813 0.0
H1847 H 0.77047 0.78333 0.17077 0.0
H1848 H 0.69804 0.75434 0.21998 0.0
H1849 H 0.72581 0.82157 0.23841 0.0
H1850 H 0.74596 0.7218 0.24286 0.0
H1851 H 0.74455 0.72498 0.20078 0.0
H1852 H 0.71946 0.72014 0.22301 0.0
H1853 H 0.77859 0.80401 0.26253 0.0
H1854 H 0.76393 0.82781 0.24441 0.0
H1855 H 0.78033 0.80826 0.22064 0.0
C1856 C 0.52681 0.41629 0.01507 0.0
C1857 C 0.52591 0.41145 0.04755 0.0
C1858 C 0.52666 0.43932 0.00414 0.0
C1859 C 0.52463 0.45771 0.02624 0.0
C1860 C 0.52366 0.45279 0.05908 0.0
C1861 C 0.52473 0.42972 0.06935 0.0
C1862 C 0.52846 0.44396 0.96903 0.0
C1863 C 0.52063 0.47181 0.08334 0.0
C1864 C 0.53603 0.52105 0.00715 0.0
C1865 C 0.51461 0.52903 0.0003 0.0
C1866 C 0.53982 0.49749 0.01393 0.0
C1867 C 0.5216 0.48195 0.01514 0.0
C1868 C 0.5 0.48998 0.00796 0.0
C1869 C 0.49685 0.51332 0.0001 0.0
C1870 C 0.56319 0.48932 0.02038 0.0
C1871 C 0.48001 0.4742 0.01008 0.0
H1872 H 0.52798 0.4021 0.99829 0.0
H1873 H 0.52392 0.42588 0.09449 0.0
H1874 H 0.51261 0.45121 0.96007 0.0
H1875 H 0.54158 0.45705 0.96441 0.0
H1876 H 0.53235 0.42798 0.95538 0.0
H1877 H 0.52036 0.46503 0.10798 0.0
H1878 H 0.53421 0.48471 0.08135 0.0
H1879 H 0.50481 0.48111 0.07881 0.0
H1880 H 0.54977 0.5332 0.00713 0.0
H1881 H 0.4802 0.51952 0.99518 0.0
H1882 H 0.5669 0.47359 0.00617 0.0
H1883 H 0.56489 0.48452 0.04571 0.0
H1884 H 0.57571 0.50287 0.0148 0.0
H1885 H 0.48221 0.45892 0.99443 0.0
H1886 H 0.46437 0.48315 0.00334 0.0
H1887 H 0.47826 0.46762 0.03468 0.0
C1888 C 0.97462 0.47945 0.50167 0.0
C1889 C 0.97385 0.47437 0.46921 0.0
C1890 C 0.97336 0.5024 0.51251 0.0
C1891 C 0.97059 0.52065 0.49039 0.0
C1892 C 0.96848 0.5155 0.45772 0.0
C1893 C 0.97051 0.49242 0.44744 0.0
C1894 C 0.97614 0.50719 0.54749 0.0
C1895 C 0.96473 0.53442 0.43357 0.0
C1896 C 0.95243 0.57756 0.52722 0.0
C1897 C 0.97258 0.58964 0.52906 0.0
C1898 C 0.95129 0.55557 0.5131 0.0
C1899 C 0.97094 0.54512 0.50155 0.0
C1900 C 0.99128 0.55747 0.50275 0.0
C1901 C 0.99178 0.57979 0.51607 0.0
C1902 C 0.92919 0.54329 0.51129 0.0
C1903 C 0.01269 0.54668 0.49137 0.0
H1904 H 0.97748 0.46559 0.51856 0.0
H1905 H 0.96985 0.48852 0.42232 0.0
H1906 H 0.99115 0.51801 0.55135 0.0
H1907 H 0.96173 0.51711 0.55662 0.0
H1908 H 0.97783 0.49102 0.56161 0.0
H1909 H 0.96102 0.52733 0.40967 0.0
H1910 H 0.95078 0.54575 0.44104 0.0
H1911 H 0.97974 0.54549 0.43187 0.0
H1912 H 0.93752 0.58531 0.53698 0.0
H1913 H 0.00738 0.58909 0.51768 0.0
H1914 H 0.92922 0.5281 0.52744 0.0
H1915 H 0.92629 0.53667 0.48695 0.0
H1916 H 0.91517 0.55481 0.51801 0.0
H1917 H 0.01646 0.53105 0.50575 0.0
H1918 H 0.02694 0.55885 0.49307 0.0
H1919 H 0.01101 0.54097 0.46639 0.0
C1920 C 0.94397 0.42258 0.97393 0.0
C1921 C 0.96409 0.41047 0.97167 0.0
C1922 C 0.94352 0.44591 0.98333 0.0
C1923 C 0.96374 0.45754 0.98943 0.0
C1924 C 0.98408 0.44522 0.98777 0.0
C1925 C 0.98396 0.42166 0.97941 0.0
C1926 C 0.92148 0.45824 0.986 0.0
C1927 C 0.00604 0.45716 0.99342 0.0
C1928 C 0.968 0.52238 0.97608 0.0
C1929 C 0.97051 0.53049 0.00715 0.0
C1930 C 0.96505 0.49867 0.96999 0.0
C1931 C 0.96389 0.48289 0.99569 0.0
C1932 C 0.96465 0.49129 0.02719 0.0
C1933 C 0.96837 0.51499 0.03255 0.0
C1934 C 0.96478 0.49034 0.93605 0.0
C1935 C 0.96261 0.47512 0.05519 0.0
H1936 H 0.92857 0.4138 0.9682 0.0
H1937 H 0.99951 0.4123 0.97741 0.0
H1938 H 0.92031 0.46747 0.00903 0.0
H1939 H 0.92005 0.47147 0.96703 0.0
H1940 H 0.90723 0.4461 0.98393 0.0
H1941 H 0.02032 0.44503 0.99155 0.0
H1942 H 0.00831 0.47129 0.97584 0.0
H1943 H 0.00628 0.46522 0.01728 0.0
H1944 H 0.96993 0.53433 0.95642 0.0
H1945 H 0.97025 0.52132 0.05661 0.0
H1946 H 0.94997 0.4794 0.93162 0.0
H1947 H 0.97963 0.47944 0.93154 0.0
H1948 H 0.96474 0.50493 0.91884 0.0
H1949 H 0.94846 0.46305 0.05184 0.0
H1950 H 0.96024 0.48471 0.07777 0.0
H1951 H 0.97787 0.46446 0.05724 0.0
C1952 C 0.52884 0.48865 0.52491 0.0
C1953 C 0.52761 0.47212 0.5006 0.0
C1954 C 0.53092 0.51235 0.51793 0.0
C1955 C 0.53099 0.51964 0.4859 0.0
C1956 C 0.53066 0.50292 0.4613 0.0
C1957 C 0.52932 0.4793 0.46899 0.0
C1958 C 0.5321 0.52961 0.54478 0.0
C1959 C 0.53027 0.51003 0.42684 0.0
C1960 C 0.50833 0.57933 0.46588 0.0
C1961 C 0.52773 0.59114 0.45744 0.0
C1962 C 0.50918 0.55606 0.47562 0.0
C1963 C 0.53001 0.54472 0.47795 0.0
C1964 C 0.54973 0.55702 0.47102 0.0
C1965 C 0.54832 0.57999 0.46029 0.0
C1966 C 0.48775 0.54335 0.48214 0.0
C1967 C 0.57226 0.54579 0.47431 0.0
H1968 H 0.52756 0.48307 0.54939 0.0
H1969 H 0.52807 0.46657 0.45015 0.0
H1970 H 0.5457 0.54223 0.54066 0.0
H1971 H 0.51637 0.53957 0.54601 0.0
H1972 H 0.53481 0.52101 0.56803 0.0
H1973 H 0.53083 0.49487 0.4106 0.0
H1974 H 0.51491 0.52004 0.42191 0.0
H1975 H 0.54454 0.52151 0.42142 0.0
H1976 H 0.49243 0.58798 0.46349 0.0
H1977 H 0.56336 0.58927 0.45407 0.0
H1978 H 0.4879 0.53607 0.50647 0.0
H1979 H 0.48605 0.52856 0.46547 0.0
H1980 H 0.47298 0.55475 0.47961 0.0
H1981 H 0.57392 0.53761 0.49801 0.0
H1982 H 0.586 0.55843 0.47111 0.0
H1983 H 0.57413 0.53185 0.45639 0.0
C1984 C 0.02927 0.32998 0.07204 0.0
C1985 C 0.02882 0.32347 0.04005 0.0
C1986 C 0.04162 0.31727 0.09425 0.0
C1987 C 0.05347 0.29734 0.08426 0.0
C1988 C 0.05398 0.29136 0.05175 0.0
C1989 C 0.04181 0.30464 0.02996 0.0
C1990 C 0.04109 0.3245 0.12864 0.0
C1991 C 0.06621 0.27009 0.04024 0.0
C1992 C 0.09516 0.27116 0.14155 0.0
C1993 C 0.0821 0.25454 0.15718 0.0
C1994 C 0.08619 0.28501 0.11736 0.0
C1995 C 0.06381 0.28181 0.1082 0.0
C1996 C 0.05087 0.26433 0.12291 0.0
C1997 C 0.06012 0.25107 0.14745 0.0
C1998 C 0.10037 0.30369 0.10255 0.0
C1999 C 0.02706 0.26004 0.11333 0.0
H2000 H 0.01937 0.3446 0.07992 0.0
H2001 H 0.04148 0.29942 0.00529 0.0
H2002 H 0.03173 0.31147 0.14263 0.0
H2003 H 0.05817 0.32521 0.13841 0.0
H2004 H 0.03311 0.34171 0.13198 0.0
H2005 H 0.06675 0.26908 0.01395 0.0
H2006 H 0.08346 0.26992 0.04942 0.0
H2007 H 0.05784 0.2543 0.04938 0.0
H2008 H 0.11213 0.27406 0.1491 0.0
H2009 H 0.05004 0.23817 0.15939 0.0
H2010 H 0.09339 0.32099 0.10838 0.0
H2011 H 0.10028 0.30204 0.07636 0.0
H2012 H 0.11783 0.30303 0.11097 0.0
H2013 H 0.01682 0.27545 0.11917 0.0
H2014 H 0.01984 0.2447 0.12547 0.0
H2015 H 0.02594 0.25733 0.08734 0.0
C2016 C 0.91138 0.78796 0.35293 0.0
C2017 C 0.92729 0.78013 0.33113 0.0
C2018 C 0.91764 0.79458 0.3837 0.0
C2019 C 0.9402 0.79294 0.39281 0.0
C2020 C 0.95581 0.78275 0.37193 0.0
C2021 C 0.9492 0.77669 0.3412 0.0
C2022 C 0.90049 0.80526 0.40532 0.0
C2023 C 0.97992 0.78001 0.38107 0.0
C2024 C 0.96754 0.83782 0.44524 0.0
C2025 C 0.97069 0.82538 0.47337 0.0
C2026 C 0.95628 0.8279 0.41952 0.0
C2027 C 0.94828 0.80485 0.42186 0.0
C2028 C 0.95019 0.79271 0.45087 0.0
C2029 C 0.96127 0.8032 0.47642 0.0
C2030 C 0.95418 0.84164 0.38917 0.0
C2031 C 0.94197 0.7681 0.4543 0.0
H2032 H 0.89443 0.79072 0.34518 0.0
H2033 H 0.96146 0.7704 0.32445 0.0
H2034 H 0.90247 0.79887 0.42995 0.0
H2035 H 0.90279 0.82436 0.40575 0.0
H2036 H 0.88332 0.8015 0.39722 0.0
H2037 H 0.98925 0.76925 0.36375 0.0
H2038 H 0.98788 0.79735 0.38233 0.0
H2039 H 0.98137 0.77192 0.40483 0.0
H2040 H 0.97461 0.85503 0.44288 0.0
H2041 H 0.9637 0.79344 0.4981 0.0
H2042 H 0.93683 0.84114 0.3804 0.0
H2043 H 0.96487 0.83376 0.37064 0.0
H2044 H 0.95918 0.86005 0.39227 0.0
H2045 H 0.92534 0.76603 0.44337 0.0
H2046 H 0.94105 0.76268 0.47953 0.0
H2047 H 0.95349 0.75621 0.44177 0.0
C2048 C 0.41042 0.71278 0.65335 0.0
C2049 C 0.42718 0.72056 0.67383 0.0
C2050 C 0.41549 0.70549 0.6224 0.0
C2051 C 0.43775 0.7064 0.6117 0.0
C2052 C 0.45429 0.71637 0.63129 0.0
C2053 C 0.44884 0.72312 0.66224 0.0
C2054 C 0.39738 0.69502 0.60224 0.0
C2055 C 0.47812 0.71832 0.62044 0.0
C2056 C 0.46205 0.6606 0.55764 0.0
C2057 C 0.46437 0.67282 0.52915 0.0
C2058 C 0.45203 0.67092 0.58411 0.0
C2059 C 0.44449 0.69417 0.58218 0.0
C2060 C 0.44555 0.70611 0.55292 0.0
C2061 C 0.45535 0.69521 0.52662 0.0
C2062 C 0.45079 0.65738 0.61471 0.0
C2063 C 0.43781 0.73092 0.54991 0.0
H2064 H 0.39365 0.71069 0.66223 0.0
H2065 H 0.46178 0.72938 0.67791 0.0
H2066 H 0.39854 0.70128 0.57744 0.0
H2067 H 0.39937 0.67588 0.60179 0.0
H2068 H 0.38059 0.69911 0.6116 0.0
H2069 H 0.48837 0.72873 0.63706 0.0
H2070 H 0.4855 0.70074 0.61856 0.0
H2071 H 0.47895 0.7264 0.5966 0.0
H2072 H 0.46884 0.64324 0.55962 0.0
H2073 H 0.45719 0.7048 0.50468 0.0
H2074 H 0.43382 0.65839 0.62485 0.0
H2075 H 0.46237 0.66504 0.63229 0.0
H2076 H 0.45522 0.63882 0.61141 0.0
H2077 H 0.4216 0.73343 0.56191 0.0
H2078 H 0.4362 0.73633 0.52474 0.0
H2079 H 0.44998 0.74253 0.56164 0.0
C2080 C 0.60022 0.2228 0.85558 0.0
C2081 C 0.58486 0.23317 0.83501 0.0
C2082 C 0.59372 0.21551 0.886 0.0
C2083 C 0.57149 0.21897 0.8959 0.0
C2084 C 0.55691 0.23219 0.87673 0.0
C2085 C 0.56373 0.23897 0.84638 0.0
C2086 C 0.6099 0.20186 0.90592 0.0
C2087 C 0.53326 0.2369 0.88671 0.0
C2088 C 0.53961 0.17226 0.93923 0.0
C2089 C 0.53676 0.18221 0.96922 0.0
C2090 C 0.55223 0.1834 0.91587 0.0
C2091 C 0.56211 0.20518 0.92255 0.0
C2092 C 0.56062 0.21454 0.95348 0.0
C2093 C 0.54799 0.20288 0.97655 0.0
C2094 C 0.55374 0.17252 0.88335 0.0
C2095 C 0.57097 0.23761 0.96165 0.0
H2096 H 0.61658 0.21824 0.84685 0.0
H2097 H 0.55192 0.24719 0.83057 0.0
H2098 H 0.60809 0.20619 0.93141 0.0
H2099 H 0.60643 0.18306 0.90314 0.0
H2100 H 0.62734 0.2051 0.89859 0.0
H2101 H 0.52532 0.25042 0.87174 0.0
H2102 H 0.5234 0.22071 0.88461 0.0
H2103 H 0.53257 0.24255 0.91182 0.0
H2104 H 0.53119 0.15616 0.93356 0.0
H2105 H 0.54587 0.2107 -0.00028 0.0
H2106 H 0.57125 0.17199 0.87525 0.0
H2107 H 0.54428 0.18319 0.86611 0.0
H2108 H 0.54697 0.1546 0.88291 0.0
H2109 H 0.58757 0.23947 0.95054 0.0
H2110 H 0.57266 0.23993 0.98768 0.0
H2111 H 0.56031 0.25178 0.95241 0.0
C2112 C 0.04711 0.68193 0.46654 0.0
C2113 C 0.04197 0.69832 0.48995 0.0
C2114 C 0.05584 0.68882 0.4372 0.0
C2115 C 0.0595 0.71269 0.4311 0.0
C2116 C 0.0558 0.72916 0.45538 0.0
C2117 C 0.04712 0.72177 0.48458 0.0
C2118 C 0.05981 0.67066 0.41202 0.0
C2119 C 0.05962 0.75473 0.44992 0.0
C2120 C 0.09154 0.72484 0.35538 0.0
C2121 C 0.07416 0.72679 0.33338 0.0
C2122 C 0.08711 0.72154 0.38778 0.0
C2123 C 0.06482 0.72036 0.3983 0.0
C2124 C 0.0473 0.72421 0.37654 0.0
C2125 C 0.05219 0.72728 0.34435 0.0
C2126 C 0.10622 0.71775 0.41031 0.0
C2127 C 0.0233 0.72362 0.3869 0.0
H2128 H 0.04338 0.66376 0.47057 0.0
H2129 H 0.04333 0.73459 0.50258 0.0
H2130 H 0.04762 0.67295 0.39254 0.0
H2131 H 0.07663 0.67269 0.40166 0.0
H2132 H 0.05818 0.65274 0.42143 0.0
H2133 H 0.05953 0.76471 0.47245 0.0
H2134 H 0.07565 0.75771 0.43766 0.0
H2135 H 0.04629 0.76166 0.43443 0.0
H2136 H 0.10856 0.72444 0.34709 0.0
H2137 H 0.0387 0.72911 0.32753 0.0
H2138 H 0.10694 0.69916 0.41707 0.0
H2139 H 0.10382 0.72791 0.43238 0.0
H2140 H 0.12238 0.72265 0.39955 0.0
H2141 H 0.01893 0.70585 0.39488 0.0
H2142 H 0.01178 0.72866 0.36753 0.0
H2143 H 0.02066 0.73547 0.40726 0.0
C2144 C 0.58676 0.77277 0.64693 0.0
C2145 C 0.56924 0.77145 0.66879 0.0
C2146 C 0.58258 0.77572 0.61442 0.0
C2147 C 0.56039 0.77722 0.60363 0.0
C2148 C 0.54267 0.7742 0.6253 0.0
C2149 C 0.54732 0.77143 0.65762 0.0
C2150 C 0.60189 0.77866 0.59198 0.0
C2151 C 0.51875 0.77517 0.61463 0.0
C2152 C 0.54377 0.81432 0.53355 0.0
C2153 C 0.53837 0.79745 0.51089 0.0
C2154 C 0.55228 0.80798 0.56324 0.0
C2155 C 0.55543 0.7842 0.57046 0.0
C2156 C 0.55154 0.76722 0.5469 0.0
C2157 C 0.5431 0.77406 0.51733 0.0
C2158 C 0.55648 0.82666 0.58762 0.0
C2159 C 0.55484 0.74172 0.55358 0.0
H2160 H 0.60376 0.77278 0.65535 0.0
H2161 H 0.5337 0.77008 0.67431 0.0
H2162 H 0.5995 0.76795 0.5704 0.0
H2163 H 0.60289 0.79704 0.5843 0.0
H2164 H 0.61793 0.77383 0.60318 0.0
H2165 H 0.50699 0.77106 0.63412 0.0
H2166 H 0.51489 0.7928 0.60558 0.0
H2167 H 0.51591 0.76277 0.59494 0.0
H2168 H 0.54038 0.83244 0.52867 0.0
H2169 H 0.53911 0.76088 0.4999 0.0
H2170 H 0.57316 0.82447 0.59834 0.0
H2171 H 0.5441 0.82516 0.60699 0.0
H2172 H 0.55532 0.84436 0.57734 0.0
H2173 H 0.57073 0.7387 0.5662 0.0
H2174 H 0.55472 0.7312 0.53151 0.0
H2175 H 0.54127 0.73544 0.56916 0.0
C2176 C 0.44212 0.277 0.84267 0.0
C2177 C 0.42082 0.28187 0.8311 0.0
C2178 C 0.44849 0.28391 0.87318 0.0
C2179 C 0.43329 0.29636 0.89233 0.0
C2180 C 0.41116 0.2995 0.88184 0.0
C2181 C 0.40511 0.29203 0.85131 0.0
C2182 C 0.47209 0.27962 0.88375 0.0
C2183 C 0.39444 0.3126 0.90156 0.0
C2184 C 0.45339 0.30844 0.97601 0.0
C2185 C 0.46464 0.32955 0.97172 0.0
C2186 C 0.44199 0.29787 0.95081 0.0
C2187 C 0.44164 0.30883 0.92081 0.0
C2188 C 0.45155 0.33096 0.91707 0.0
C2189 C 0.46305 0.34097 0.94251 0.0
C2190 C 0.43168 0.27428 0.95576 0.0
C2191 C 0.45119 0.34347 0.88562 0.0
H2192 H 0.45423 0.26895 0.82715 0.0
H2193 H 0.38866 0.29594 0.84238 0.0
H2194 H 0.48144 0.29621 0.88336 0.0
H2195 H 0.47245 0.27298 0.90842 0.0
H2196 H 0.48079 0.26702 0.86817 0.0
H2197 H 0.37721 0.30983 0.89296 0.0
H2198 H 0.39541 0.30735 0.92681 0.0
H2199 H 0.39816 0.33144 0.90034 0.0
H2200 H 0.45456 0.29948 0.99854 0.0
H2201 H 0.47151 0.35739 0.93915 0.0
H2202 H 0.44225 0.2609 0.94435 0.0
H2203 H 0.41505 0.27334 0.94455 0.0
H2204 H 0.43005 0.26993 0.9813 0.0
H2205 H 0.46158 0.3339 0.86826 0.0
H2206 H 0.45761 0.36149 0.88751 0.0
H2207 H 0.43405 0.34409 0.87605 0.0
C2208 C 0.94011 0.2202 0.14708 0.0
C2209 C 0.91839 0.21749 0.15841 0.0
C2210 C 0.94518 0.21652 0.11508 0.0
C2211 C 0.92812 0.20979 0.0939 0.0
C2212 C 0.90589 0.2087 0.10466 0.0
C2213 C 0.90126 0.21265 0.13687 0.0
C2214 C 0.96906 0.21837 0.10444 0.0
C2215 C 0.88724 0.20178 0.08274 0.0
C2216 C 0.94655 0.20981 0.00803 0.0
C2217 C 0.95479 0.18712 0.00496 0.0
C2218 C 0.93633 0.21716 0.03621 0.0
C2219 C 0.93421 0.2014 0.06173 0.0
C2220 C 0.94072 0.17796 0.05769 0.0
C2221 C 0.95096 0.17112 0.02936 0.0
C2222 C 0.92941 0.24222 0.03945 0.0
C2223 C 0.93843 0.16049 0.08417 0.0
H2224 H 0.95338 0.22427 0.16353 0.0
H2225 H 0.88442 0.21054 0.14544 0.0
H2226 H 0.97542 0.20087 0.09823 0.0
H2227 H 0.97033 0.22933 0.08291 0.0
H2228 H 0.97994 0.22584 0.12309 0.0
H2229 H 0.8707 0.20558 0.09317 0.0
H2230 H 0.88866 0.21089 0.05967 0.0
H2231 H 0.88826 0.18289 0.07793 0.0
H2232 H 0.94929 0.22229 0.98921 0.0
H2233 H 0.95701 0.15348 0.02701 0.0
H2234 H 0.94183 0.25159 0.05406 0.0
H2235 H 0.91316 0.24366 0.05165 0.0
H2236 H 0.92827 0.251 0.01606 0.0
H2237 H 0.95025 0.16485 0.10345 0.0
H2238 H 0.9419 0.14251 0.07608 0.0
H2239 H 0.92146 0.16108 0.09433 0.0
C2240 C 0.94775 0.66148 0.89875 0.0
C2241 C 0.94235 0.64727 0.92461 0.0
C2242 C 0.93334 0.67909 0.88867 0.0
C2243 C 0.91295 0.68249 0.90468 0.0
C2244 C 0.90672 0.66724 0.92942 0.0
C2245 C 0.92154 0.64981 0.93917 0.0
C2246 C 0.94059 0.69493 0.86208 0.0
C2247 C 0.88496 0.6701 0.94672 0.0
C2248 C 0.89369 0.74499 0.90291 0.0
C2249 C 0.8791 0.74493 0.87703 0.0
C2250 C 0.90395 0.7245 0.9132 0.0
C2251 C 0.89937 0.70337 0.89737 0.0
C2252 C 0.88354 0.7029 0.87261 0.0
C2253 C 0.87362 0.72372 0.86264 0.0
C2254 C 0.92071 0.72574 0.93977 0.0
C2255 C 0.87799 0.68066 0.85547 0.0
H2256 H 0.9637 0.65954 0.88718 0.0
H2257 H 0.91717 0.63883 0.95907 0.0
H2258 H 0.92742 0.69616 0.84379 0.0
H2259 H 0.94337 0.71268 0.8715 0.0
H2260 H 0.95614 0.68892 0.85056 0.0
H2261 H 0.88118 0.65497 0.96211 0.0
H2262 H 0.88568 0.68586 0.96179 0.0
H2263 H 0.87114 0.6725 0.92967 0.0
H2264 H 0.89791 0.76125 0.91433 0.0
H2265 H 0.86223 0.72347 0.84276 0.0
H2266 H 0.93752 0.72195 0.93033 0.0
H2267 H 0.91699 0.71249 0.95807 0.0
H2268 H 0.92106 0.74308 0.95127 0.0
H2269 H 0.89222 0.67546 0.84038 0.0
H2270 H 0.86311 0.68254 0.84013 0.0
H2271 H 0.87503 0.6664 0.87263 0.0
C2272 C 0.11227 0.22374 0.64661 0.0
C2273 C 0.10652 0.24456 0.63138 0.0
C2274 C 0.10287 0.20253 0.63717 0.0
C2275 C 0.08733 0.20218 0.61203 0.0
C2276 C 0.08223 0.22297 0.59569 0.0
C2277 C 0.09192 0.24387 0.60552 0.0
C2278 C 0.10886 0.18068 0.65495 0.0
C2279 C 0.06576 0.22333 0.5687 0.0
C2280 C 0.06882 0.14771 0.56899 0.0
C2281 C 0.0477 0.14419 0.58222 0.0
C2282 C 0.08257 0.16575 0.57972 0.0
C2283 C 0.07499 0.18059 0.60416 0.0
C2284 C 0.05434 0.17614 0.61898 0.0
C2285 C 0.04098 0.15796 0.60788 0.0
C2286 C 0.10461 0.16977 0.5636 0.0
C2287 C 0.04568 0.19149 0.64524 0.0
H2288 H 0.1236 0.22408 0.66656 0.0
H2289 H 0.08747 0.25983 0.5935 0.0
H2290 H 0.09436 0.17473 0.66896 0.0
H2291 H 0.11316 0.16657 0.63815 0.0
H2292 H 0.12304 0.18338 0.67138 0.0
H2293 H 0.06462 0.24066 0.55727 0.0
H2294 H 0.07046 0.21039 0.55045 0.0
H2295 H 0.04906 0.21851 0.57764 0.0
H2296 H 0.07421 0.13707 0.54926 0.0
H2297 H 0.02479 0.15525 0.61845 0.0
H2298 H 0.11786 0.17276 0.58139 0.0
H2299 H 0.10356 0.18556 0.54862 0.0
H2300 H 0.10947 0.15493 0.5483 0.0
H2301 H 0.05842 0.19364 0.66399 0.0
H2302 H 0.03033 0.18445 0.65621 0.0
H2303 H 0.04196 0.20899 0.63563 0.0
C2304 C 0.55089 0.3433 0.39069 0.0
C2305 C 0.55694 0.35595 0.41773 0.0
C2306 C 0.5635 0.32424 0.38057 0.0
C2307 C 0.58269 0.31778 0.39782 0.0
C2308 C 0.58989 0.33162 0.42355 0.0
C2309 C 0.5769 0.35057 0.43324 0.0
C2310 C 0.55534 0.31004 0.35284 0.0
C2311 C 0.61044 0.32548 0.44222 0.0
C2312 C 0.5937 0.2531 0.3975 0.0
C2313 C 0.60967 0.25102 0.37351 0.0
C2314 C 0.58545 0.27487 0.40647 0.0
C2315 C 0.59346 0.29509 0.39121 0.0
C2316 C 0.61041 0.29324 0.36814 0.0
C2317 C 0.61829 0.27119 0.35949 0.0
C2318 C 0.5674 0.27611 0.43127 0.0
C2319 C 0.61953 0.31443 0.35163 0.0
H2320 H 0.53563 0.34748 0.37834 0.0
H2321 H 0.5818 0.36036 0.45403 0.0
H2322 H 0.56905 0.30672 0.33588 0.0
H2323 H 0.54938 0.29294 0.36145 0.0
H2324 H 0.54153 0.3187 0.33999 0.0
H2325 H 0.61572 0.33986 0.45805 0.0
H2326 H 0.60705 0.30998 0.45704 0.0
H2327 H 0.62436 0.32107 0.4261 0.0
H2328 H 0.58703 0.23763 0.40859 0.0
H2329 H 0.63073 0.26976 0.34103 0.0
H2330 H 0.55186 0.28269 0.42036 0.0
H2331 H 0.57214 0.28842 0.45031 0.0
H2332 H 0.56392 0.25894 0.44217 0.0
H2333 H 0.60669 0.32175 0.33566 0.0
H2334 H 0.63451 0.31037 0.33731 0.0
H2335 H 0.62382 0.32806 0.36915 0.0
C2336 C 0.44915 0.85095 0.10362 0.0
C2337 C 0.44403 0.86397 0.0765 0.0
C2338 C 0.43547 0.83265 0.11347 0.0
C2339 C 0.41611 0.82733 0.09591 0.0
C2340 C 0.4099 0.84157 0.07005 0.0
C2341 C 0.42398 0.85973 0.06058 0.0
C2342 C 0.44265 0.81796 0.1413 0.0
C2343 C 0.38918 0.83669 0.05107 0.0
C2344 C 0.40151 0.76342 0.09625 0.0
C2345 C 0.38538 0.76232 0.12015 0.0
C2346 C 0.41097 0.78464 0.08729 0.0
C2347 C 0.40403 0.80534 0.10243 0.0
C2348 C 0.38692 0.80453 0.12538 0.0
C2349 C 0.37784 0.783 0.13408 0.0
C2350 C 0.42918 0.78475 0.06266 0.0
C2351 C 0.37887 0.82627 0.14171 0.0
H2352 H 0.46449 0.85424 0.11627 0.0
H2353 H 0.41979 0.8698 0.03973 0.0
H2354 H 0.42869 0.81556 0.15812 0.0
H2355 H 0.44762 0.8005 0.13276 0.0
H2356 H 0.45688 0.82571 0.15427 0.0
H2357 H 0.38483 0.85137 0.03517 0.0
H2358 H 0.39181 0.821 0.03631 0.0
H2359 H 0.37492 0.83315 0.06699 0.0
H2360 H 0.40736 0.74757 0.08523 0.0
H2361 H 0.36528 0.78233 0.15245 0.0
H2362 H 0.445 0.7904 0.0737 0.0
H2363 H 0.42521 0.79729 0.04354 0.0
H2364 H 0.43176 0.76738 0.05185 0.0
H2365 H 0.39201 0.83286 0.15778 0.0
H2366 H 0.36363 0.82313 0.1559 0.0
H2367 H 0.37541 0.84009 0.12409 0.0
C2368 C 0.96337 0.34263 0.57535 0.0
C2369 C 0.95434 0.35729 0.55216 0.0
C2370 C 0.95037 0.32562 0.59017 0.0
C2371 C 0.92774 0.32329 0.58174 0.0
C2372 C 0.91814 0.33904 0.55994 0.0
C2373 C 0.93158 0.35585 0.54533 0.0
C2374 C 0.96124 0.30921 0.61338 0.0
C2375 C 0.89401 0.33729 0.55064 0.0
C2376 C 0.90568 0.26193 0.58823 0.0
C2377 C 0.89498 0.26236 0.61774 0.0
C2378 C 0.9157 0.28189 0.57579 0.0
C2379 C 0.91495 0.30288 0.59319 0.0
C2380 C 0.90334 0.30373 0.62233 0.0
C2381 C 0.89351 0.28342 0.63432 0.0
C2382 C 0.92791 0.28025 0.54458 0.0
C2383 C 0.90202 0.32584 0.64141 0.0
H2384 H 0.98089 0.34372 0.58098 0.0
H2385 H 0.92442 0.3672 0.52758 0.0
H2386 H 0.95134 0.30806 0.63548 0.0
H2387 H 0.96194 0.29155 0.60296 0.0
H2388 H 0.9784 0.31464 0.61956 0.0
H2389 H 0.88839 0.35265 0.5369 0.0
H2390 H 0.89148 0.32157 0.53589 0.0
H2391 H 0.88338 0.33548 0.57197 0.0
H2392 H 0.90681 0.24578 0.57516 0.0
H2393 H 0.8852 0.28394 0.65709 0.0
H2394 H 0.94587 0.28343 0.54844 0.0
H2395 H 0.92184 0.29375 0.52797 0.0
H2396 H 0.92591 0.263 0.53318 0.0
H2397 H 0.91873 0.3303 0.65062 0.0
H2398 H 0.89045 0.32427 0.6618 0.0
H2399 H 0.89653 0.34046 0.62621 0.0
C2400 C 0.38251 0.217 0.36595 0.0
C2401 C 0.38874 0.23787 0.38065 0.0
C2402 C 0.39167 0.19574 0.37559 0.0
C2403 C 0.40748 0.1954 0.40036 0.0
C2404 C 0.41316 0.21628 0.41609 0.0
C2405 C 0.40368 0.23724 0.40609 0.0
C2406 C 0.38506 0.17379 0.3585 0.0
C2407 C 0.42995 0.21663 0.44269 0.0
C2408 C 0.4252 0.14139 0.44488 0.0
C2409 C 0.44618 0.13724 0.43154 0.0
C2410 C 0.41168 0.15945 0.43366 0.0
C2411 C 0.41938 0.17365 0.40861 0.0
C2412 C 0.43979 0.16846 0.39358 0.0
C2413 C 0.45292 0.15027 0.40518 0.0
C2414 C 0.38986 0.16425 0.44998 0.0
C2415 C 0.44852 0.18312 0.36665 0.0
H2416 H 0.37088 0.21731 0.34636 0.0
H2417 H 0.40851 0.25325 0.41768 0.0
H2418 H 0.39934 0.16723 0.34453 0.0
H2419 H 0.38051 0.16007 0.37576 0.0
H2420 H 0.37086 0.17662 0.34214 0.0
H2421 H 0.43167 0.23411 0.45352 0.0
H2422 H 0.42511 0.20415 0.46147 0.0
H2423 H 0.44641 0.21115 0.43356 0.0
H2424 H 0.41978 0.1313 0.46513 0.0
H2425 H 0.469 0.14705 0.39453 0.0
H2426 H 0.37655 0.16738 0.43233 0.0
H2427 H 0.3914 0.18017 0.4646 0.0
H2428 H 0.38476 0.14972 0.46568 0.0
H2429 H 0.43562 0.18536 0.34815 0.0
H2430 H 0.46355 0.17544 0.35554 0.0
H2431 H 0.45283 0.20065 0.37565 0.0
C2432 C 0.55466 0.65166 0.11211 0.0
C2433 C 0.55904 0.64013 0.0835 0.0
C2434 C 0.568 0.67014 0.12228 0.0
C2435 C 0.58631 0.67712 0.10355 0.0
C2436 C 0.59198 0.66426 0.07612 0.0
C2437 C 0.57821 0.64593 0.06634 0.0
C2438 C 0.5614 0.68333 0.15175 0.0
C2439 C 0.61164 0.67087 0.05589 0.0
C2440 C 0.59771 0.74169 0.10691 0.0
C2441 C 0.61471 0.74293 0.12952 0.0
C2442 C 0.58894 0.72027 0.09739 0.0
C2443 C 0.59754 0.69952 0.11055 0.0
C2444 C 0.61549 0.70056 0.13213 0.0
C2445 C 0.6238 0.72228 0.14151 0.0
C2446 C 0.56975 0.71994 0.07434 0.0
C2447 C 0.62531 0.6788 0.14627 0.0
H2448 H 0.54004 0.64715 0.12574 0.0
H2449 H 0.58184 0.637 0.04433 0.0
H2450 H 0.57595 0.6859 0.16746 0.0
H2451 H 0.55519 0.70077 0.14498 0.0
H2452 H 0.54819 0.6743 0.16536 0.0
H2453 H 0.61603 0.65697 0.03875 0.0
H2454 H 0.60768 0.68685 0.04236 0.0
H2455 H 0.62633 0.67467 0.07087 0.0
H2456 H 0.59064 0.75752 0.09741 0.0
H2457 H 0.63706 0.72308 0.15885 0.0
H2458 H 0.55476 0.71291 0.08624 0.0
H2459 H 0.57357 0.7084 0.05403 0.0
H2460 H 0.56577 0.73749 0.06505 0.0
H2461 H 0.61327 0.67094 0.16301 0.0
H2462 H 0.64098 0.68234 0.15928 0.0
H2463 H 0.62866 0.6658 0.12748 0.0
C2464 C 0.09941 0.74737 0.89748 0.0
C2465 C 0.1152 0.74718 0.87307 0.0
C2466 C 0.08912 0.76807 0.90688 0.0
C2467 C 0.09481 0.78912 0.89161 0.0
C2468 C 0.11156 0.78925 0.8681 0.0
C2469 C 0.12154 0.76825 0.85905 0.0
C2470 C 0.07136 0.76721 0.93214 0.0
C2471 C 0.11822 0.81139 0.85151 0.0
C2472 C 0.0481 0.83304 0.89117 0.0
C2473 C 0.05341 0.84681 0.91751 0.0
C2474 C 0.06205 0.8149 0.88153 0.0
C2475 C 0.08185 0.81048 0.89855 0.0
C2476 C 0.08804 0.82524 0.92385 0.0
C2477 C 0.07371 0.84325 0.93308 0.0
C2478 C 0.0549 0.79962 0.85428 0.0
C2479 C 0.10915 0.82122 0.94232 0.0
H2480 H 0.0945 0.73121 0.90857 0.0
H2481 H 0.13382 0.76829 0.84027 0.0
H2482 H 0.07494 0.78007 0.95102 0.0
H2483 H 0.05507 0.77186 0.9216 0.0
H2484 H 0.06992 0.74977 0.94315 0.0
H2485 H 0.13323 0.80904 0.83655 0.0
H2486 H 0.10441 0.81738 0.83616 0.0
H2487 H 0.1215 0.82532 0.86904 0.0
H2488 H 0.03254 0.83578 0.87883 0.0
H2489 H 0.078 0.85386 0.95338 0.0
H2490 H 0.05099 0.78199 0.86327 0.0
H2491 H 0.06855 0.79782 0.83681 0.0
H2492 H 0.04001 0.80651 0.84192 0.0
H2493 H 0.10744 0.80526 0.95681 0.0
H2494 H 0.11303 0.83593 0.9584 0.0
H2495 H 0.12337 0.81854 0.92601 0.0
loop_
_geom_bond_atom_site_label_1
_geom_bond_atom_site_label_2
_geom_bond_distance
_geom_bond_site_symmetry_2
_ccdc_geom_bond_type
Mg0 O1 2.028 . S
Mg0 O7 1.986 . S
Mg0 O9 2.114 . S
Mg0 O10 2.251 . S
Mg0 O13 2.010 . S
O1 Mg0 2.028 . S
O1 C4 1.250 . S
O2 Mg3 2.028 . S
O2 C4 1.248 . S
Mg3 O2 2.028 . S
Mg3 O8 2.032 . S
Mg3 O10 2.079 . S
C4 O1 1.250 . S
C4 O2 1.248 . S
C5 O6 1.264 . S
C5 O13 1.249 . S
O6 C5 1.264 . S
O7 Mg0 1.986 . S
O7 C11 1.246 . S
O8 Mg3 2.032 . S
O8 C11 1.259 . S
O9 Mg0 2.114 . S
O9 C12 1.252 . S
O10 Mg0 2.251 . S
O10 Mg3 2.079 . S
O10 C12 1.273 . S
C11 O7 1.246 . S
C11 O8 1.259 . S
C12 O9 1.252 . S
C12 O10 1.273 . S
O13 Mg0 2.010 . S
O13 C5 1.249 . S
Mg14 O15 2.028 1_455 S
Mg14 O21 1.986 1_455 S
Mg14 O23 2.114 . S
Mg14 O24 2.251 . S
Mg14 O27 2.010 1_455 S
O15 Mg14 2.028 1_655 S
O15 C18 1.250 . S
O16 Mg17 2.028 1_655 S
O16 C18 1.248 . S
Mg17 O16 2.028 1_455 S
Mg17 O22 2.032 . S
Mg17 O24 2.079 . S
C18 O15 1.250 . S
C18 O16 1.248 . S
C19 O20 1.264 . S
C19 O27 1.249 . S
O20 C19 1.264 . S
O21 Mg14 1.986 1_655 S
O21 C25 1.252 . S
O22 Mg17 2.032 . S
O22 C25 1.254 1_455 S
O23 Mg14 2.114 . S
O23 C26 1.252 . S
O24 Mg14 2.251 . S
O24 Mg17 2.079 . S
O24 C26 1.273 . S
C25 O21 1.252 . S
C25 O22 1.254 1_655 S
C26 O23 1.252 . S
C26 O24 1.273 . S
O27 Mg14 2.010 1_655 S
O27 C19 1.249 . S
Mg28 O29 2.028 . S
Mg28 O35 1.986 . S
Mg28 O37 2.114 . S
Mg28 O38 2.251 . S
Mg28 O41 2.010 . S
O29 Mg28 2.028 . S
O29 C32 1.250 . S
O30 Mg31 2.028 . S
O30 C32 1.248 . S
Mg31 O30 2.028 . S
Mg31 O36 2.032 . S
Mg31 O38 2.079 . S
C32 O29 1.250 . S
C32 O30 1.248 . S
C33 O34 1.264 . S
C33 O41 1.249 . S
O34 C33 1.264 . S
O35 Mg28 1.986 . S
O35 C39 1.246 . S
O36 Mg31 2.032 . S
O36 C39 1.259 . S
O37 Mg28 2.114 . S
O37 C40 1.252 . S
O38 Mg28 2.251 . S
O38 Mg31 2.079 . S
O38 C40 1.273 . S
C39 O35 1.246 . S
C39 O36 1.259 . S
C40 O37 1.252 . S
C40 O38 1.273 . S
O41 Mg28 2.010 . S
O41 C33 1.249 . S
Mg42 O43 2.028 . S
Mg42 O49 1.986 . S
Mg42 O51 2.114 . S
Mg42 O52 2.251 . S
Mg42 O55 2.010 1_554 S
O43 Mg42 2.028 . S
O43 C46 1.250 . S
O44 Mg45 2.028 . S
O44 C46 1.248 . S
Mg45 O44 2.028 . S
Mg45 O50 2.032 . S
Mg45 O52 2.079 . S
C46 O43 1.250 . S
C46 O44 1.248 . S
C47 O48 1.264 . S
C47 O55 1.249 . S
O48 C47 1.264 . S
O49 Mg42 1.986 . S
O49 C53 1.246 . S
O50 Mg45 2.032 . S
O50 C53 1.259 . S
O51 Mg42 2.114 . S
O51 C54 1.252 . S
O52 Mg42 2.251 . S
O52 Mg45 2.079 . S
O52 C54 1.273 . S
C53 O49 1.246 . S
C53 O50 1.259 . S
C54 O51 1.252 . S
C54 O52 1.273 . S
O55 Mg42 2.010 1_556 S
O55 C47 1.249 . S
Mg56 O57 2.028 . S
Mg56 O63 1.986 . S
Mg56 O65 2.114 . S
Mg56 O66 2.251 . S
Mg56 O69 2.010 . S
O57 Mg56 2.028 . S
O57 C60 1.250 . S
O58 Mg59 2.028 . S
O58 C60 1.248 . S
Mg59 O58 2.028 . S
Mg59 O64 2.032 . S
Mg59 O66 2.079 . S
C60 O57 1.250 . S
C60 O58 1.248 . S
C61 O62 1.264 . S
C61 O69 1.249 . S
O62 C61 1.264 . S
O63 Mg56 1.986 . S
O63 C67 1.246 . S
O64 Mg59 2.032 . S
O64 C67 1.259 . S
O65 Mg56 2.114 . S
O65 C68 1.252 . S
O66 Mg56 2.251 . S
O66 Mg59 2.079 . S
O66 C68 1.273 . S
C67 O63 1.246 . S
C67 O64 1.259 . S
C68 O65 1.252 . S
C68 O66 1.273 . S
O69 Mg56 2.010 . S
O69 C61 1.249 . S
Mg70 O71 2.028 . S
Mg70 O77 1.986 . S
Mg70 O79 2.114 . S
Mg70 O80 2.251 . S
Mg70 O83 2.010 . S
O71 Mg70 2.028 . S
O71 C74 1.250 . S
O72 Mg73 2.028 . S
O72 C74 1.248 . S
Mg73 O72 2.028 . S
Mg73 O78 2.032 . S
Mg73 O80 2.079 . S
C74 O71 1.250 . S
C74 O72 1.248 . S
C75 O76 1.264 . S
C75 O83 1.249 . S
O76 C75 1.264 . S
O77 Mg70 1.986 . S
O77 C81 1.246 . S
O78 Mg73 2.032 . S
O78 C81 1.259 . S
O79 Mg70 2.114 . S
O79 C82 1.252 . S
O80 Mg70 2.251 . S
O80 Mg73 2.079 . S
O80 C82 1.273 . S
C81 O77 1.246 . S
C81 O78 1.259 . S
C82 O79 1.252 . S
C82 O80 1.273 . S
O83 Mg70 2.010 . S
O83 C75 1.249 . S
Mg84 O85 2.028 . S
Mg84 O91 1.986 . S
Mg84 O93 2.114 . S
Mg84 O94 2.251 . S
Mg84 O97 2.010 . S
O85 Mg84 2.028 . S
O85 C88 1.250 . S
O86 Mg87 2.028 . S
O86 C88 1.248 . S
Mg87 O86 2.028 . S
Mg87 O92 2.032 . S
Mg87 O94 2.079 . S
C88 O85 1.250 . S
C88 O86 1.248 . S
C89 O90 1.264 . S
C89 O97 1.249 . S
O90 C89 1.264 . S
O91 Mg84 1.986 . S
O91 C95 1.246 . S
O92 Mg87 2.032 . S
O92 C95 1.259 . S
O93 Mg84 2.114 . S
O93 C96 1.252 . S
O94 Mg84 2.251 . S
O94 Mg87 2.079 . S
O94 C96 1.273 . S
C95 O91 1.246 . S
C95 O92 1.259 . S
C96 O93 1.252 . S
C96 O94 1.273 . S
O97 Mg84 2.010 . S
O97 C89 1.249 . S
Mg98 O99 2.028 1_455 S
Mg98 O105 1.986 1_455 S
Mg98 O107 2.114 . S
Mg98 O108 2.251 . S
Mg98 O111 2.010 1_456 S
O99 Mg98 2.028 1_655 S
O99 C102 1.250 . S
O100 Mg101 2.028 1_655 S
O100 C102 1.248 . S
Mg101 O100 2.028 1_455 S
Mg101 O106 2.032 . S
Mg101 O108 2.079 . S
C102 O99 1.250 . S
C102 O100 1.248 . S
C103 O104 1.264 . S
C103 O111 1.249 . S
O104 C103 1.264 . S
O105 Mg98 1.986 1_655 S
O105 C109 1.252 . S
O106 Mg101 2.032 . S
O106 C109 1.255 1_455 S
O107 Mg98 2.114 . S
O107 C110 1.252 . S
O108 Mg98 2.251 . S
O108 Mg101 2.079 . S
O108 C110 1.273 . S
C109 O105 1.252 . S
C109 O106 1.255 1_655 S
C110 O107 1.252 . S
C110 O108 1.273 . S
O111 Mg98 2.010 1_654 S
O111 C103 1.249 . S
Mg112 O113 2.028 . S
Mg112 O119 1.986 . S
Mg112 O121 2.114 . S
Mg112 O122 2.251 . S
Mg112 O125 2.010 . S
O113 Mg112 2.028 . S
O113 C116 1.250 . S
O114 Mg115 2.028 . S
O114 C116 1.248 . S
Mg115 O114 2.028 . S
Mg115 O120 2.032 . S
Mg115 O122 2.079 . S
C116 O113 1.250 . S
C116 O114 1.248 . S
C117 O118 1.264 . S
C117 O125 1.249 . S
O118 C117 1.264 . S
O119 Mg112 1.986 . S
O119 C123 1.246 . S
O120 Mg115 2.032 . S
O120 C123 1.259 . S
O121 Mg112 2.114 . S
O121 C124 1.252 . S
O122 Mg112 2.251 . S
O122 Mg115 2.079 . S
O122 C124 1.273 . S
C123 O119 1.246 . S
C123 O120 1.259 . S
C124 O121 1.252 . S
C124 O122 1.273 . S
O125 Mg112 2.010 . S
O125 C117 1.249 . S
Mg126 O127 2.028 . S
Mg126 O133 1.986 . S
Mg126 O135 2.114 1_455 S
Mg126 O136 2.251 1_455 S
Mg126 O139 2.010 . S
O127 Mg126 2.028 . S
O127 C130 1.250 . S
O128 Mg129 2.028 . S
O128 C130 1.248 . S
Mg129 O128 2.028 . S
Mg129 O134 2.032 . S
Mg129 O136 2.079 1_455 S
C130 O127 1.250 . S
C130 O128 1.248 . S
C131 O132 1.264 . S
C131 O139 1.249 . S
O132 C131 1.264 . S
O133 Mg126 1.986 . S
O133 C137 1.246 . S
O134 Mg129 2.032 . S
O134 C137 1.259 . S
O135 Mg126 2.114 1_655 S
O135 C138 1.252 . S
O136 Mg126 2.251 1_655 S
O136 Mg129 2.079 1_655 S
O136 C138 1.273 . S
C137 O133 1.246 . S
C137 O134 1.259 . S
C138 O135 1.252 . S
C138 O136 1.273 . S
O139 Mg126 2.010 . S
O139 C131 1.249 . S
Mg140 O141 2.028 . S
Mg140 O147 1.986 . S
Mg140 O149 2.114 . S
Mg140 O150 2.251 . S
Mg140 O153 2.010 . S
O141 Mg140 2.028 . S
O141 C144 1.250 . S
O142 Mg143 2.028 . S
O142 C144 1.248 . S
Mg143 O142 2.028 . S
Mg143 O148 2.032 . S
Mg143 O150 2.079 . S
C144 O141 1.250 . S
C144 O142 1.248 . S
C145 O146 1.264 . S
C145 O153 1.249 . S
O146 C145 1.264 . S
O147 Mg140 1.986 . S
O147 C151 1.246 . S
O148 Mg143 2.032 . S
O148 C151 1.259 . S
O149 Mg140 2.114 . S
O149 C152 1.252 . S
O150 Mg140 2.251 . S
O150 Mg143 2.079 . S
O150 C152 1.273 . S
C151 O147 1.246 . S
C151 O148 1.259 . S
C152 O149 1.252 . S
C152 O150 1.273 . S
O153 Mg140 2.010 . S
O153 C145 1.249 . S
Mg154 O155 2.028 . S
Mg154 O161 1.986 . S
Mg154 O163 2.114 . S
Mg154 O164 2.251 . S
Mg154 O167 2.010 1_556 S
O155 Mg154 2.028 . S
O155 C158 1.250 . S
O156 Mg157 2.028 . S
O156 C158 1.248 . S
Mg157 O156 2.028 . S
Mg157 O162 2.032 . S
Mg157 O164 2.079 . S
C158 O155 1.250 . S
C158 O156 1.248 . S
C159 O160 1.264 . S
C159 O167 1.249 . S
O160 C159 1.264 . S
O161 Mg154 1.986 . S
O161 C165 1.246 . S
O162 Mg157 2.032 . S
O162 C165 1.259 . S
O163 Mg154 2.114 . S
O163 C166 1.252 . S
O164 Mg154 2.251 . S
O164 Mg157 2.079 . S
O164 C166 1.273 . S
C165 O161 1.246 . S
C165 O162 1.259 . S
C166 O163 1.252 . S
C166 O164 1.273 . S
O167 Mg154 2.010 1_554 S
O167 C159 1.249 . S
Mg168 O169 2.028 . S
Mg168 O175 1.986 . S
Mg168 O177 2.114 . S
Mg168 O178 2.251 . S
Mg168 O181 2.010 . S
O169 Mg168 2.028 . S
O169 C172 1.250 . S
O170 Mg171 2.028 . S
O170 C172 1.248 . S
Mg171 O170 2.028 . S
Mg171 O176 2.032 . S
Mg171 O178 2.079 . S
C172 O169 1.250 . S
C172 O170 1.248 . S
C173 O174 1.264 . S
C173 O181 1.249 . S
O174 C173 1.264 . S
O175 Mg168 1.986 . S
O175 C179 1.246 . S
O176 Mg171 2.032 . S
O176 C179 1.259 . S
O177 Mg168 2.114 . S
O177 C180 1.252 . S
O178 Mg168 2.251 . S
O178 Mg171 2.079 . S
O178 C180 1.273 . S
C179 O175 1.246 . S
C179 O176 1.259 . S
C180 O177 1.252 . S
C180 O178 1.273 . S
O181 Mg168 2.010 . S
O181 C173 1.249 . S
Mg182 O183 2.028 . S
Mg182 O189 1.986 . S
Mg182 O191 2.114 . S
Mg182 O192 2.251 . S
Mg182 O195 2.010 . S
O183 Mg182 2.028 . S
O183 C186 1.250 . S
O184 Mg185 2.028 . S
O184 C186 1.248 . S
Mg185 O184 2.028 . S
Mg185 O190 2.032 . S
Mg185 O192 2.079 . S
C186 O183 1.250 . S
C186 O184 1.248 . S
C187 O188 1.264 . S
C187 O195 1.249 . S
O188 C187 1.264 . S
O189 Mg182 1.986 . S
O189 C193 1.246 . S
O190 Mg185 2.032 . S
O190 C193 1.259 . S
O191 Mg182 2.114 . S
O191 C194 1.252 . S
O192 Mg182 2.251 . S
O192 Mg185 2.079 . S
O192 C194 1.273 . S
C193 O189 1.246 . S
C193 O190 1.259 . S
C194 O191 1.252 . S
C194 O192 1.273 . S
O195 Mg182 2.010 . S
O195 C187 1.249 . S
Mg196 O197 2.028 . S
Mg196 O203 1.986 . S
Mg196 O205 2.114 . S
Mg196 O206 2.251 . S
Mg196 O209 2.010 . S
O197 Mg196 2.028 . S
O197 C200 1.250 . S
O198 Mg199 2.028 . S
O198 C200 1.248 . S
Mg199 O198 2.028 . S
Mg199 O204 2.032 . S
Mg199 O206 2.079 . S
C200 O197 1.250 . S
C200 O198 1.248 . S
C201 O202 1.264 . S
C201 O209 1.249 . S
O202 C201 1.264 . S
O203 Mg196 1.986 . S
O203 C207 1.246 . S
O204 Mg199 2.032 . S
O204 C207 1.259 . S
O205 Mg196 2.114 . S
O205 C208 1.252 . S
O206 Mg196 2.251 . S
O206 Mg199 2.079 . S
O206 C208 1.273 . S
C207 O203 1.246 . S
C207 O204 1.259 . S
C208 O205 1.252 . S
C208 O206 1.273 . S
O209 Mg196 2.010 . S
O209 C201 1.249 . S
Mg210 O211 2.028 . S
Mg210 O217 1.986 . S
Mg210 O219 2.114 1_455 S
Mg210 O220 2.251 1_455 S
Mg210 O223 2.010 1_554 S
O211 Mg210 2.028 . S
O211 C214 1.250 . S
O212 Mg213 2.028 . S
O212 C214 1.248 . S
Mg213 O212 2.028 . S
Mg213 O218 2.032 . S
Mg213 O220 2.079 1_455 S
C214 O211 1.250 . S
C214 O212 1.248 . S
C215 O216 1.264 . S
C215 O223 1.249 . S
O216 C215 1.264 . S
O217 Mg210 1.986 . S
O217 C221 1.246 . S
O218 Mg213 2.032 . S
O218 C221 1.259 . S
O219 Mg210 2.114 1_655 S
O219 C222 1.252 . S
O220 Mg210 2.251 1_655 S
O220 Mg213 2.079 1_655 S
O220 C222 1.273 . S
C221 O217 1.246 . S
C221 O218 1.259 . S
C222 O219 1.252 . S
C222 O220 1.273 . S
O223 Mg210 2.010 1_556 S
O223 C215 1.249 . S
Mg224 O225 2.028 . S
Mg224 O231 1.986 . S
Mg224 O233 2.114 . S
Mg224 O234 2.251 . S
Mg224 O237 2.010 . S
O225 Mg224 2.028 . S
O225 C228 1.250 . S
O226 Mg227 2.028 . S
O226 C228 1.248 . S
Mg227 O226 2.028 . S
Mg227 O232 2.032 . S
Mg227 O234 2.079 . S
C228 O225 1.250 . S
C228 O226 1.248 . S
C229 O230 1.264 . S
C229 O237 1.249 . S
O230 C229 1.264 . S
O231 Mg224 1.986 . S
O231 C235 1.246 . S
O232 Mg227 2.032 . S
O232 C235 1.259 . S
O233 Mg224 2.114 . S
O233 C236 1.252 . S
O234 Mg224 2.251 . S
O234 Mg227 2.079 . S
O234 C236 1.273 . S
C235 O231 1.246 . S
C235 O232 1.259 . S
C236 O233 1.252 . S
C236 O234 1.273 . S
O237 Mg224 2.010 . S
O237 C229 1.249 . S
Mg238 O239 2.028 . S
Mg238 O245 1.986 . S
Mg238 O247 2.114 . S
Mg238 O248 2.251 . S
Mg238 O251 2.010 1_554 S
O239 Mg238 2.028 . S
O239 C242 1.250 . S
O240 Mg241 2.028 . S
O240 C242 1.248 . S
Mg241 O240 2.028 . S
Mg241 O246 2.032 . S
Mg241 O248 2.079 . S
C242 O239 1.250 . S
C242 O240 1.248 . S
C243 O244 1.264 . S
C243 O251 1.249 . S
O244 C243 1.264 . S
O245 Mg238 1.986 . S
O245 C249 1.246 . S
O246 Mg241 2.032 . S
O246 C249 1.259 . S
O247 Mg238 2.114 . S
O247 C250 1.252 . S
O248 Mg238 2.251 . S
O248 Mg241 2.079 . S
O248 C250 1.273 . S
C249 O245 1.246 . S
C249 O246 1.259 . S
C250 O247 1.252 . S
C250 O248 1.273 . S
O251 Mg238 2.010 1_556 S
O251 C243 1.249 . S
Mg252 O253 2.028 . S
Mg252 O259 1.986 . S
Mg252 O261 2.114 . S
Mg252 O262 2.251 . S
Mg252 O265 2.010 . S
O253 Mg252 2.028 . S
O253 C256 1.250 . S
O254 Mg255 2.028 . S
O254 C256 1.248 . S
Mg255 O254 2.028 . S
Mg255 O260 2.032 . S
Mg255 O262 2.079 . S
C256 O253 1.250 . S
C256 O254 1.248 . S
C257 O258 1.264 . S
C257 O265 1.249 . S
O258 C257 1.264 . S
O259 Mg252 1.986 . S
O259 C263 1.246 . S
O260 Mg255 2.032 . S
O260 C263 1.259 . S
O261 Mg252 2.114 . S
O261 C264 1.252 . S
O262 Mg252 2.251 . S
O262 Mg255 2.079 . S
O262 C264 1.273 . S
C263 O259 1.246 . S
C263 O260 1.259 . S
C264 O261 1.252 . S
C264 O262 1.273 . S
O265 Mg252 2.010 . S
O265 C257 1.249 . S
Mg266 O267 2.028 1_655 S
Mg266 O273 1.986 1_655 S
Mg266 O275 2.114 . S
Mg266 O276 2.251 . S
Mg266 O279 2.010 1_655 S
O267 Mg266 2.028 1_455 S
O267 C270 1.250 . S
O268 Mg269 2.028 1_455 S
O268 C270 1.248 . S
Mg269 O268 2.028 1_655 S
Mg269 O274 2.032 . S
Mg269 O276 2.079 . S
C270 O267 1.250 . S
C270 O268 1.248 . S
C271 O272 1.264 . S
C271 O279 1.249 . S
O272 C271 1.264 . S
O273 Mg266 1.986 1_455 S
O273 C277 1.252 . S
O274 Mg269 2.032 . S
O274 C277 1.254 1_655 S
O275 Mg266 2.114 . S
O275 C278 1.252 . S
O276 Mg266 2.251 . S
O276 Mg269 2.079 . S
O276 C278 1.273 . S
C277 O273 1.252 . S
C277 O274 1.254 1_455 S
C278 O275 1.252 . S
C278 O276 1.273 . S
O279 Mg266 2.010 1_455 S
O279 C271 1.249 . S
Mg280 O281 2.028 . S
Mg280 O287 1.986 . S
Mg280 O289 2.114 . S
Mg280 O290 2.251 . S
Mg280 O293 2.010 . S
O281 Mg280 2.028 . S
O281 C284 1.250 . S
O282 Mg283 2.028 . S
O282 C284 1.248 . S
Mg283 O282 2.028 . S
Mg283 O288 2.032 . S
Mg283 O290 2.079 . S
C284 O281 1.250 . S
C284 O282 1.248 . S
C285 O286 1.264 . S
C285 O293 1.249 . S
O286 C285 1.264 . S
O287 Mg280 1.986 . S
O287 C291 1.246 . S
O288 Mg283 2.032 . S
O288 C291 1.259 . S
O289 Mg280 2.114 . S
O289 C292 1.252 . S
O290 Mg280 2.251 . S
O290 Mg283 2.079 . S
O290 C292 1.273 . S
C291 O287 1.246 . S
C291 O288 1.259 . S
C292 O289 1.252 . S
C292 O290 1.273 . S
O293 Mg280 2.010 . S
O293 C285 1.249 . S
Mg294 O295 2.028 1_655 S
Mg294 O301 1.986 1_655 S
Mg294 O303 2.114 . S
Mg294 O304 2.251 . S
Mg294 O307 2.010 1_656 S
O295 Mg294 2.028 1_455 S
O295 C298 1.250 . S
O296 Mg297 2.028 1_455 S
O296 C298 1.248 . S
Mg297 O296 2.028 1_655 S
Mg297 O302 2.032 . S
Mg297 O304 2.079 . S
C298 O295 1.250 . S
C298 O296 1.248 . S
C299 O300 1.264 . S
C299 O307 1.249 . S
O300 C299 1.264 . S
O301 Mg294 1.986 1_455 S
O301 C305 1.252 . S
O302 Mg297 2.032 . S
O302 C305 1.255 1_655 S
O303 Mg294 2.114 . S
O303 C306 1.252 . S
O304 Mg294 2.251 . S
O304 Mg297 2.079 . S
O304 C306 1.273 . S
C305 O301 1.252 . S
C305 O302 1.255 1_455 S
C306 O303 1.252 . S
C306 O304 1.273 . S
O307 Mg294 2.010 1_454 S
O307 C299 1.249 . S
Mg308 O309 2.028 . S
Mg308 O315 1.986 . S
Mg308 O317 2.114 . S
Mg308 O318 2.251 . S
Mg308 O321 2.010 . S
O309 Mg308 2.028 . S
O309 C312 1.250 . S
O310 Mg311 2.028 . S
O310 C312 1.248 . S
Mg311 O310 2.028 . S
Mg311 O316 2.032 . S
Mg311 O318 2.079 . S
C312 O309 1.250 . S
C312 O310 1.248 . S
C313 O314 1.264 . S
C313 O321 1.249 . S
O314 C313 1.264 . S
O315 Mg308 1.986 . S
O315 C319 1.246 . S
O316 Mg311 2.032 . S
O316 C319 1.259 . S
O317 Mg308 2.114 . S
O317 C320 1.252 . S
O318 Mg308 2.251 . S
O318 Mg311 2.079 . S
O318 C320 1.273 . S
C319 O315 1.246 . S
C319 O316 1.259 . S
C320 O317 1.252 . S
C320 O318 1.273 . S
O321 Mg308 2.010 . S
O321 C313 1.249 . S
Mg322 O323 2.028 . S
Mg322 O329 1.986 . S
Mg322 O331 2.114 . S
Mg322 O332 2.251 . S
Mg322 O335 2.010 . S
O323 Mg322 2.028 . S
O323 C326 1.250 . S
O324 Mg325 2.028 . S
O324 C326 1.248 . S
Mg325 O324 2.028 . S
Mg325 O330 2.032 . S
Mg325 O332 2.079 . S
C326 O323 1.250 . S
C326 O324 1.248 . S
C327 O328 1.264 . S
C327 O335 1.249 . S
O328 C327 1.264 . S
O329 Mg322 1.986 . S
O329 C333 1.246 . S
O330 Mg325 2.032 . S
O330 C333 1.259 . S
O331 Mg322 2.114 . S
O331 C334 1.252 . S
O332 Mg322 2.251 . S
O332 Mg325 2.079 . S
O332 C334 1.273 . S
C333 O329 1.246 . S
C333 O330 1.259 . S
C334 O331 1.252 . S
C334 O332 1.273 . S
O335 Mg322 2.010 . S
O335 C327 1.249 . S
Mg336 O337 2.028 . S
Mg336 O343 1.986 . S
Mg336 O345 2.114 . S
Mg336 O346 2.251 . S
Mg336 O349 2.010 . S
O337 Mg336 2.028 . S
O337 C340 1.250 . S
O338 Mg339 2.028 . S
O338 C340 1.248 . S
Mg339 O338 2.028 . S
Mg339 O344 2.032 . S
Mg339 O346 2.079 . S
C340 O337 1.250 . S
C340 O338 1.248 . S
C341 O342 1.264 . S
C341 O349 1.249 . S
O342 C341 1.264 . S
O343 Mg336 1.986 . S
O343 C347 1.246 . S
O344 Mg339 2.032 . S
O344 C347 1.259 . S
O345 Mg336 2.114 . S
O345 C348 1.252 . S
O346 Mg336 2.251 . S
O346 Mg339 2.079 . S
O346 C348 1.273 . S
C347 O343 1.246 . S
C347 O344 1.259 . S
C348 O345 1.252 . S
C348 O346 1.273 . S
O349 Mg336 2.010 . S
O349 C341 1.249 . S
Mg350 O351 2.028 . S
Mg350 O357 1.986 . S
Mg350 O359 2.114 . S
Mg350 O360 2.251 . S
Mg350 O363 2.010 1_556 S
O351 Mg350 2.028 . S
O351 C354 1.250 . S
O352 Mg353 2.028 . S
O352 C354 1.248 . S
Mg353 O352 2.028 . S
Mg353 O358 2.032 . S
Mg353 O360 2.079 . S
C354 O351 1.250 . S
C354 O352 1.248 . S
C355 O356 1.264 . S
C355 O363 1.249 . S
O356 C355 1.264 . S
O357 Mg350 1.986 . S
O357 C361 1.246 . S
O358 Mg353 2.032 . S
O358 C361 1.259 . S
O359 Mg350 2.114 . S
O359 C362 1.252 . S
O360 Mg350 2.251 . S
O360 Mg353 2.079 . S
O360 C362 1.273 . S
C361 O357 1.246 . S
C361 O358 1.259 . S
C362 O359 1.252 . S
C362 O360 1.273 . S
O363 Mg350 2.010 1_554 S
O363 C355 1.249 . S
Mg364 O365 2.028 . S
Mg364 O371 1.986 . S
Mg364 O373 2.114 . S
Mg364 O374 2.251 . S
Mg364 O377 2.010 . S
O365 Mg364 2.028 . S
O365 C368 1.250 . S
O366 Mg367 2.028 . S
O366 C368 1.248 . S
Mg367 O366 2.028 . S
Mg367 O372 2.032 . S
Mg367 O374 2.079 . S
C368 O365 1.250 . S
C368 O366 1.248 . S
C369 O370 1.264 . S
C369 O377 1.249 . S
O370 C369 1.264 . S
O371 Mg364 1.986 . S
O371 C375 1.246 . S
O372 Mg367 2.032 . S
O372 C375 1.259 . S
O373 Mg364 2.114 . S
O373 C376 1.252 . S
O374 Mg364 2.251 . S
O374 Mg367 2.079 . S
O374 C376 1.273 . S
C375 O371 1.246 . S
C375 O372 1.259 . S
C376 O373 1.252 . S
C376 O374 1.273 . S
O377 Mg364 2.010 . S
O377 C369 1.249 . S
Mg378 O379 2.028 . S
Mg378 O385 1.986 . S
Mg378 O387 2.114 1_655 S
Mg378 O388 2.251 1_655 S
Mg378 O391 2.010 . S
O379 Mg378 2.028 . S
O379 C382 1.250 . S
O380 Mg381 2.028 . S
O380 C382 1.248 . S
Mg381 O380 2.028 . S
Mg381 O386 2.032 . S
Mg381 O388 2.079 1_655 S
C382 O379 1.250 . S
C382 O380 1.248 . S
C383 O384 1.264 . S
C383 O391 1.249 . S
O384 C383 1.264 . S
O385 Mg378 1.986 . S
O385 C389 1.246 . S
O386 Mg381 2.032 . S
O386 C389 1.259 . S
O387 Mg378 2.114 1_455 S
O387 C390 1.252 . S
O388 Mg378 2.251 1_455 S
O388 Mg381 2.079 1_455 S
O388 C390 1.273 . S
C389 O385 1.246 . S
C389 O386 1.259 . S
C390 O387 1.252 . S
C390 O388 1.273 . S
O391 Mg378 2.010 . S
O391 C383 1.249 . S
Mg392 O393 2.028 . S
Mg392 O399 1.986 . S
Mg392 O401 2.114 . S
Mg392 O402 2.251 . S
Mg392 O405 2.010 . S
O393 Mg392 2.028 . S
O393 C396 1.250 . S
O394 Mg395 2.028 . S
O394 C396 1.248 . S
Mg395 O394 2.028 . S
Mg395 O400 2.032 . S
Mg395 O402 2.079 . S
C396 O393 1.250 . S
C396 O394 1.248 . S
C397 O398 1.264 . S
C397 O405 1.249 . S
O398 C397 1.264 . S
O399 Mg392 1.986 . S
O399 C403 1.246 . S
O400 Mg395 2.032 . S
O400 C403 1.259 . S
O401 Mg392 2.114 . S
O401 C404 1.252 . S
O402 Mg392 2.251 . S
O402 Mg395 2.079 . S
O402 C404 1.273 . S
C403 O399 1.246 . S
C403 O400 1.259 . S
C404 O401 1.252 . S
C404 O402 1.273 . S
O405 Mg392 2.010 . S
O405 C397 1.249 . S
Mg406 O407 2.028 . S
Mg406 O413 1.986 . S
Mg406 O415 2.114 1_655 S
Mg406 O416 2.251 1_655 S
Mg406 O419 2.010 1_554 S
O407 Mg406 2.028 . S
O407 C410 1.250 . S
O408 Mg409 2.028 . S
O408 C410 1.248 . S
Mg409 O408 2.028 . S
Mg409 O414 2.032 . S
Mg409 O416 2.079 1_655 S
C410 O407 1.250 . S
C410 O408 1.248 . S
C411 O412 1.264 . S
C411 O419 1.249 . S
O412 C411 1.264 . S
O413 Mg406 1.986 . S
O413 C417 1.246 . S
O414 Mg409 2.032 . S
O414 C417 1.259 . S
O415 Mg406 2.114 1_455 S
O415 C418 1.252 . S
O416 Mg406 2.251 1_455 S
O416 Mg409 2.079 1_455 S
O416 C418 1.273 . S
C417 O413 1.246 . S
C417 O414 1.259 . S
C418 O415 1.252 . S
C418 O416 1.273 . S
O419 Mg406 2.010 1_556 S
O419 C411 1.249 . S
Mg420 O421 2.028 . S
Mg420 O427 1.986 . S
Mg420 O429 2.114 . S
Mg420 O430 2.251 . S
Mg420 O433 2.010 . S
O421 Mg420 2.028 . S
O421 C424 1.250 . S
O422 Mg423 2.028 . S
O422 C424 1.248 . S
Mg423 O422 2.028 . S
Mg423 O428 2.032 . S
Mg423 O430 2.079 . S
C424 O421 1.250 . S
C424 O422 1.248 . S
C425 O426 1.264 . S
C425 O433 1.249 . S
O426 C425 1.264 . S
O427 Mg420 1.986 . S
O427 C431 1.246 . S
O428 Mg423 2.032 . S
O428 C431 1.259 . S
O429 Mg420 2.114 . S
O429 C432 1.252 . S
O430 Mg420 2.251 . S
O430 Mg423 2.079 . S
O430 C432 1.273 . S
C431 O427 1.246 . S
C431 O428 1.259 . S
C432 O429 1.252 . S
C432 O430 1.273 . S
O433 Mg420 2.010 . S
O433 C425 1.249 . S
Mg434 O435 2.028 . S
Mg434 O441 1.986 . S
Mg434 O443 2.114 . S
Mg434 O444 2.251 . S
Mg434 O447 2.010 . S
O435 Mg434 2.028 . S
O435 C438 1.250 . S
O436 Mg437 2.028 . S
O436 C438 1.248 . S
Mg437 O436 2.028 . S
Mg437 O442 2.032 . S
Mg437 O444 2.079 . S
C438 O435 1.250 . S
C438 O436 1.248 . S
C439 O440 1.264 . S
C439 O447 1.249 . S
O440 C439 1.264 . S
O441 Mg434 1.986 . S
O441 C445 1.246 . S
O442 Mg437 2.032 . S
O442 C445 1.259 . S
O443 Mg434 2.114 . S
O443 C446 1.252 . S
O444 Mg434 2.251 . S
O444 Mg437 2.079 . S
O444 C446 1.273 . S
C445 O441 1.246 . S
C445 O442 1.259 . S
C446 O443 1.252 . S
C446 O444 1.273 . S
O447 Mg434 2.010 . S
O447 C439 1.249 . S
C448 C449 1.391 . S
C448 C450 1.394 . S
C448 H464 0.931 . S
C449 C448 1.391 . S
C449 C453 1.376 . S
C450 C448 1.394 . S
C450 C451 1.369 . S
C450 C454 1.531 . S
C451 C450 1.369 . S
C451 C452 1.410 . S
C451 C459 1.503 . S
C452 C451 1.410 . S
C452 C453 1.392 . S
C452 C455 1.511 . S
C453 C449 1.376 . S
C453 C452 1.392 . S
C453 H465 0.929 . S
C454 C450 1.531 . S
C454 H466 0.960 . S
C454 H467 0.962 . S
C454 H468 0.960 . S
C455 C452 1.511 . S
C455 H469 0.961 . S
C455 H470 0.961 . S
C455 H471 0.961 . S
C456 C457 1.370 . S
C456 C458 1.363 . S
C456 H472 0.931 . S
C457 C456 1.370 . S
C457 C461 1.408 . S
C458 C456 1.363 . S
C458 C459 1.370 . S
C458 C462 1.524 . S
C459 C451 1.503 . S
C459 C458 1.370 . S
C459 C460 1.403 . S
C460 C459 1.403 . S
C460 C461 1.404 . S
C460 C463 1.539 . S
C461 C457 1.408 . S
C461 C460 1.404 . S
C461 H473 0.930 . S
C462 C458 1.524 . S
C462 H474 0.956 . S
C462 H475 0.961 . S
C462 H476 0.961 . S
C463 C460 1.539 . S
C463 H477 0.958 . S
C463 H478 0.961 . S
C463 H479 0.960 . S
H464 C448 0.931 . S
H465 C453 0.929 . S
H466 C454 0.960 . S
H467 C454 0.962 . S
H468 C454 0.960 . S
H469 C455 0.961 . S
H470 C455 0.961 . S
H471 C455 0.961 . S
H472 C456 0.931 . S
H473 C461 0.930 . S
H474 C462 0.956 . S
H475 C462 0.961 . S
H476 C462 0.961 . S
H477 C463 0.958 . S
H478 C463 0.961 . S
H479 C463 0.960 . S
C480 C481 1.391 . S
C480 C482 1.394 . S
C480 H496 0.931 . S
C481 C480 1.391 . S
C481 C485 1.376 . S
C482 C480 1.394 . S
C482 C483 1.369 . S
C482 C486 1.531 . S
C483 C482 1.369 . S
C483 C484 1.410 . S
C483 C491 1.503 . S
C484 C483 1.410 . S
C484 C485 1.392 . S
C484 C487 1.511 . S
C485 C481 1.376 . S
C485 C484 1.392 . S
C485 H497 0.929 . S
C486 C482 1.531 . S
C486 H498 0.960 . S
C486 H499 0.962 . S
C486 H500 0.960 . S
C487 C484 1.511 . S
C487 H501 0.961 . S
C487 H502 0.961 . S
C487 H503 0.961 . S
C488 C489 1.370 . S
C488 C490 1.363 . S
C488 H504 0.931 . S
C489 C488 1.370 . S
C489 C493 1.408 . S
C490 C488 1.363 . S
C490 C491 1.370 . S
C490 C494 1.524 . S
C491 C483 1.503 . S
C491 C490 1.370 . S
C491 C492 1.403 . S
C492 C491 1.403 . S
C492 C493 1.404 . S
C492 C495 1.539 . S
C493 C489 1.408 . S
C493 C492 1.404 . S
C493 H505 0.930 . S
C494 C490 1.524 . S
C494 H506 0.956 . S
C494 H507 0.961 . S
C494 H508 0.961 . S
C495 C492 1.539 . S
C495 H509 0.958 . S
C495 H510 0.961 . S
C495 H511 0.960 . S
H496 C480 0.931 . S
H497 C485 0.929 . S
H498 C486 0.960 . S
H499 C486 0.962 . S
H500 C486 0.960 . S
H501 C487 0.961 . S
H502 C487 0.961 . S
H503 C487 0.961 . S
H504 C488 0.931 . S
H505 C493 0.930 . S
H506 C494 0.956 . S
H507 C494 0.961 . S
H508 C494 0.961 . S
H509 C495 0.958 . S
H510 C495 0.961 . S
H511 C495 0.960 . S
C512 C513 1.391 . S
C512 C514 1.394 . S
C512 H528 0.931 . S
C513 C512 1.391 . S
C513 C517 1.376 . S
C514 C512 1.394 . S
C514 C515 1.369 . S
C514 C518 1.531 . S
C515 C514 1.369 . S
C515 C516 1.410 . S
C515 C523 1.503 . S
C516 C515 1.410 . S
C516 C517 1.392 . S
C516 C519 1.511 . S
C517 C513 1.376 . S
C517 C516 1.392 . S
C517 H529 0.929 . S
C518 C514 1.531 . S
C518 H530 0.960 . S
C518 H531 0.962 . S
C518 H532 0.960 . S
C519 C516 1.511 . S
C519 H533 0.961 . S
C519 H534 0.961 . S
C519 H535 0.961 . S
C520 C521 1.370 . S
C520 C522 1.363 . S
C520 H536 0.931 . S
C521 C520 1.370 . S
C521 C525 1.408 . S
C522 C520 1.363 . S
C522 C523 1.370 . S
C522 C526 1.524 . S
C523 C515 1.503 . S
C523 C522 1.370 . S
C523 C524 1.403 . S
C524 C523 1.403 . S
C524 C525 1.404 . S
C524 C527 1.539 . S
C525 C521 1.408 . S
C525 C524 1.404 . S
C525 H537 0.930 . S
C526 C522 1.524 . S
C526 H538 0.956 . S
C526 H539 0.961 . S
C526 H540 0.961 . S
C527 C524 1.539 . S
C527 H541 0.958 . S
C527 H542 0.961 . S
C527 H543 0.960 . S
H528 C512 0.931 . S
H529 C517 0.929 . S
H530 C518 0.960 . S
H531 C518 0.962 . S
H532 C518 0.960 . S
H533 C519 0.961 . S
H534 C519 0.961 . S
H535 C519 0.961 . S
H536 C520 0.931 . S
H537 C525 0.930 . S
H538 C526 0.956 . S
H539 C526 0.961 . S
H540 C526 0.961 . S
H541 C527 0.958 . S
H542 C527 0.961 . S
H543 C527 0.960 . S
C544 C545 1.391 . S
C544 C546 1.394 . S
C544 H560 0.931 . S
C545 C544 1.391 . S
C545 C549 1.376 . S
C546 C544 1.394 . S
C546 C547 1.369 . S
C546 C550 1.531 . S
C547 C546 1.369 . S
C547 C548 1.410 . S
C547 C555 1.503 . S
C548 C547 1.410 . S
C548 C549 1.392 . S
C548 C551 1.511 . S
C549 C545 1.376 . S
C549 C548 1.392 . S
C549 H561 0.929 . S
C550 C546 1.531 . S
C550 H562 0.960 . S
C550 H563 0.962 . S
C550 H564 0.960 . S
C551 C548 1.511 . S
C551 H565 0.961 . S
C551 H566 0.961 . S
C551 H567 0.961 . S
C552 C553 1.370 . S
C552 C554 1.363 . S
C552 H568 0.931 . S
C553 C552 1.370 . S
C553 C557 1.408 . S
C554 C552 1.363 . S
C554 C555 1.370 . S
C554 C558 1.524 . S
C555 C547 1.503 . S
C555 C554 1.370 . S
C555 C556 1.403 . S
C556 C555 1.403 . S
C556 C557 1.404 . S
C556 C559 1.539 . S
C557 C553 1.408 . S
C557 C556 1.404 . S
C557 H569 0.930 . S
C558 C554 1.524 . S
C558 H570 0.956 . S
C558 H571 0.961 . S
C558 H572 0.961 . S
C559 C556 1.539 . S
C559 H573 0.958 . S
C559 H574 0.961 . S
C559 H575 0.960 . S
H560 C544 0.931 . S
H561 C549 0.929 . S
H562 C550 0.960 . S
H563 C550 0.962 . S
H564 C550 0.960 . S
H565 C551 0.961 . S
H566 C551 0.961 . S
H567 C551 0.961 . S
H568 C552 0.931 . S
H569 C557 0.930 . S
H570 C558 0.956 . S
H571 C558 0.961 . S
H572 C558 0.961 . S
H573 C559 0.958 . S
H574 C559 0.961 . S
H575 C559 0.960 . S
C576 C577 1.391 . S
C576 C578 1.394 . S
C576 H592 0.931 . S
C577 C576 1.391 . S
C577 C581 1.376 . S
C578 C576 1.394 . S
C578 C579 1.369 . S
C578 C582 1.531 . S
C579 C578 1.369 . S
C579 C580 1.410 . S
C579 C587 1.503 . S
C580 C579 1.410 . S
C580 C581 1.392 . S
C580 C583 1.511 . S
C581 C577 1.376 . S
C581 C580 1.392 . S
C581 H593 0.929 . S
C582 C578 1.531 . S
C582 H594 0.960 . S
C582 H595 0.962 . S
C582 H596 0.960 . S
C583 C580 1.511 . S
C583 H597 0.961 . S
C583 H598 0.961 . S
C583 H599 0.961 . S
C584 C585 1.370 . S
C584 C586 1.363 . S
C584 H600 0.931 . S
C585 C584 1.370 . S
C585 C589 1.408 . S
C586 C584 1.363 . S
C586 C587 1.370 . S
C586 C590 1.524 . S
C587 C579 1.503 . S
C587 C586 1.370 . S
C587 C588 1.403 . S
C588 C587 1.403 . S
C588 C589 1.404 . S
C588 C591 1.539 . S
C589 C585 1.408 . S
C589 C588 1.404 . S
C589 H601 0.930 . S
C590 C586 1.524 . S
C590 H602 0.956 . S
C590 H603 0.961 . S
C590 H604 0.961 . S
C591 C588 1.539 . S
C591 H605 0.958 . S
C591 H606 0.961 . S
C591 H607 0.960 . S
H592 C576 0.931 . S
H593 C581 0.929 . S
H594 C582 0.960 . S
H595 C582 0.962 . S
H596 C582 0.960 . S
H597 C583 0.961 . S
H598 C583 0.961 . S
H599 C583 0.961 . S
H600 C584 0.931 . S
H601 C589 0.930 . S
H602 C590 0.956 . S
H603 C590 0.961 . S
H604 C590 0.961 . S
H605 C591 0.958 . S
H606 C591 0.961 . S
H607 C591 0.960 . S
C608 C609 1.391 . S
C608 C610 1.394 . S
C608 H624 0.931 . S
C609 C608 1.391 . S
C609 C613 1.376 . S
C610 C608 1.394 . S
C610 C611 1.369 . S
C610 C614 1.531 . S
C611 C610 1.369 . S
C611 C612 1.410 . S
C611 C619 1.503 . S
C612 C611 1.410 . S
C612 C613 1.392 . S
C612 C615 1.511 . S
C613 C609 1.376 . S
C613 C612 1.392 . S
C613 H625 0.929 . S
C614 C610 1.531 . S
C614 H626 0.960 . S
C614 H627 0.962 . S
C614 H628 0.960 . S
C615 C612 1.511 . S
C615 H629 0.961 . S
C615 H630 0.961 . S
C615 H631 0.961 . S
C616 C617 1.370 . S
C616 C618 1.363 . S
C616 H632 0.931 . S
C617 C616 1.370 . S
C617 C621 1.408 . S
C618 C616 1.363 . S
C618 C619 1.370 . S
C618 C622 1.524 . S
C619 C611 1.503 . S
C619 C618 1.370 . S
C619 C620 1.403 . S
C620 C619 1.403 . S
C620 C621 1.404 . S
C620 C623 1.539 . S
C621 C617 1.408 . S
C621 C620 1.404 . S
C621 H633 0.930 . S
C622 C618 1.524 . S
C622 H634 0.956 . S
C622 H635 0.961 . S
C622 H636 0.961 . S
C623 C620 1.539 . S
C623 H637 0.958 . S
C623 H638 0.961 . S
C623 H639 0.960 . S
H624 C608 0.931 . S
H625 C613 0.929 . S
H626 C614 0.960 . S
H627 C614 0.962 . S
H628 C614 0.960 . S
H629 C615 0.961 . S
H630 C615 0.961 . S
H631 C615 0.961 . S
H632 C616 0.931 . S
H633 C621 0.930 . S
H634 C622 0.956 . S
H635 C622 0.961 . S
H636 C622 0.961 . S
H637 C623 0.958 . S
H638 C623 0.961 . S
H639 C623 0.960 . S
C640 C641 1.391 . S
C640 C642 1.394 . S
C640 H656 0.931 . S
C641 C640 1.391 . S
C641 C645 1.376 . S
C642 C640 1.394 . S
C642 C643 1.369 . S
C642 C646 1.531 . S
C643 C642 1.369 . S
C643 C644 1.410 . S
C643 C651 1.503 . S
C644 C643 1.410 . S
C644 C645 1.392 . S
C644 C647 1.511 . S
C645 C641 1.376 . S
C645 C644 1.392 . S
C645 H657 0.929 . S
C646 C642 1.531 . S
C646 H658 0.960 . S
C646 H659 0.962 . S
C646 H660 0.960 . S
C647 C644 1.511 . S
C647 H661 0.961 . S
C647 H662 0.961 . S
C647 H663 0.961 . S
C648 C649 1.370 . S
C648 C650 1.363 . S
C648 H664 0.931 . S
C649 C648 1.370 . S
C649 C653 1.408 . S
C650 C648 1.363 . S
C650 C651 1.370 . S
C650 C654 1.524 . S
C651 C643 1.503 . S
C651 C650 1.370 . S
C651 C652 1.403 . S
C652 C651 1.403 . S
C652 C653 1.404 . S
C652 C655 1.539 . S
C653 C649 1.408 . S
C653 C652 1.404 . S
C653 H665 0.930 . S
C654 C650 1.524 . S
C654 H666 0.956 . S
C654 H667 0.961 . S
C654 H668 0.961 . S
C655 C652 1.539 . S
C655 H669 0.958 . S
C655 H670 0.961 . S
C655 H671 0.960 . S
H656 C640 0.931 . S
H657 C645 0.929 . S
H658 C646 0.960 . S
H659 C646 0.962 . S
H660 C646 0.960 . S
H661 C647 0.961 . S
H662 C647 0.961 . S
H663 C647 0.961 . S
H664 C648 0.931 . S
H665 C653 0.930 . S
H666 C654 0.956 . S
H667 C654 0.961 . S
H668 C654 0.961 . S
H669 C655 0.958 . S
H670 C655 0.961 . S
H671 C655 0.960 . S
C672 C673 1.391 . S
C672 C674 1.394 . S
C672 H688 0.931 . S
C673 C672 1.391 . S
C673 C677 1.376 . S
C674 C672 1.394 . S
C674 C675 1.369 . S
C674 C678 1.531 . S
C675 C674 1.369 . S
C675 C676 1.410 . S
C675 C683 1.503 . S
C676 C675 1.410 . S
C676 C677 1.392 . S
C676 C679 1.511 . S
C677 C673 1.376 . S
C677 C676 1.392 . S
C677 H689 0.929 . S
C678 C674 1.531 . S
C678 H690 0.960 . S
C678 H691 0.962 . S
C678 H692 0.960 . S
C679 C676 1.511 . S
C679 H693 0.961 . S
C679 H694 0.961 . S
C679 H695 0.961 . S
C680 C681 1.370 . S
C680 C682 1.363 . S
C680 H696 0.931 . S
C681 C680 1.370 . S
C681 C685 1.408 . S
C682 C680 1.363 . S
C682 C683 1.370 . S
C682 C686 1.524 . S
C683 C675 1.503 . S
C683 C682 1.370 . S
C683 C684 1.403 . S
C684 C683 1.403 . S
C684 C685 1.404 . S
C684 C687 1.539 . S
C685 C681 1.408 . S
C685 C684 1.404 . S
C685 H697 0.930 . S
C686 C682 1.524 . S
C686 H698 0.956 . S
C686 H699 0.961 . S
C686 H700 0.961 . S
C687 C684 1.539 . S
C687 H701 0.958 . S
C687 H702 0.961 . S
C687 H703 0.960 . S
H688 C672 0.931 . S
H689 C677 0.929 . S
H690 C678 0.960 . S
H691 C678 0.962 . S
H692 C678 0.960 . S
H693 C679 0.961 . S
H694 C679 0.961 . S
H695 C679 0.961 . S
H696 C680 0.931 . S
H697 C685 0.930 . S
H698 C686 0.956 . S
H699 C686 0.961 . S
H700 C686 0.961 . S
H701 C687 0.958 . S
H702 C687 0.961 . S
H703 C687 0.960 . S
C704 C705 1.391 . S
C704 C706 1.394 . S
C704 H720 0.931 . S
C705 C704 1.391 . S
C705 C709 1.376 . S
C706 C704 1.394 . S
C706 C707 1.369 . S
C706 C710 1.531 . S
C707 C706 1.369 . S
C707 C708 1.410 . S
C707 C715 1.503 . S
C708 C707 1.410 . S
C708 C709 1.392 . S
C708 C711 1.511 . S
C709 C705 1.376 . S
C709 C708 1.392 . S
C709 H721 0.929 . S
C710 C706 1.531 . S
C710 H722 0.960 . S
C710 H723 0.962 . S
C710 H724 0.960 . S
C711 C708 1.511 . S
C711 H725 0.961 . S
C711 H726 0.961 . S
C711 H727 0.961 . S
C712 C713 1.370 . S
C712 C714 1.363 . S
C712 H728 0.931 . S
C713 C712 1.370 . S
C713 C717 1.408 . S
C714 C712 1.363 . S
C714 C715 1.370 . S
C714 C718 1.524 . S
C715 C707 1.503 . S
C715 C714 1.370 . S
C715 C716 1.403 . S
C716 C715 1.403 . S
C716 C717 1.404 . S
C716 C719 1.539 . S
C717 C713 1.408 . S
C717 C716 1.404 . S
C717 H729 0.930 . S
C718 C714 1.524 . S
C718 H730 0.956 . S
C718 H731 0.961 . S
C718 H732 0.961 . S
C719 C716 1.539 . S
C719 H733 0.958 . S
C719 H734 0.961 . S
C719 H735 0.960 . S
H720 C704 0.931 . S
H721 C709 0.929 . S
H722 C710 0.960 . S
H723 C710 0.962 . S
H724 C710 0.960 . S
H725 C711 0.961 . S
H726 C711 0.961 . S
H727 C711 0.961 . S
H728 C712 0.931 . S
H729 C717 0.930 . S
H730 C718 0.956 . S
H731 C718 0.961 . S
H732 C718 0.961 . S
H733 C719 0.958 . S
H734 C719 0.961 . S
H735 C719 0.960 . S
C736 C737 1.391 . S
C736 C738 1.394 . S
C736 H752 0.931 . S
C737 C736 1.391 . S
C737 C741 1.376 . S
C738 C736 1.394 . S
C738 C739 1.369 . S
C738 C742 1.531 . S
C739 C738 1.369 . S
C739 C740 1.410 . S
C739 C747 1.503 . S
C740 C739 1.410 . S
C740 C741 1.392 . S
C740 C743 1.511 . S
C741 C737 1.376 . S
C741 C740 1.392 . S
C741 H753 0.929 . S
C742 C738 1.531 . S
C742 H754 0.960 . S
C742 H755 0.962 . S
C742 H756 0.960 . S
C743 C740 1.511 . S
C743 H757 0.961 . S
C743 H758 0.961 . S
C743 H759 0.961 . S
C744 C745 1.370 . S
C744 C746 1.363 . S
C744 H760 0.931 . S
C745 C744 1.370 . S
C745 C749 1.408 . S
C746 C744 1.363 . S
C746 C747 1.370 . S
C746 C750 1.524 . S
C747 C739 1.503 . S
C747 C746 1.370 . S
C747 C748 1.403 . S
C748 C747 1.403 . S
C748 C749 1.404 . S
C748 C751 1.539 . S
C749 C745 1.408 . S
C749 C748 1.404 . S
C749 H761 0.930 . S
C750 C746 1.524 . S
C750 H762 0.956 . S
C750 H763 0.961 . S
C750 H764 0.961 . S
C751 C748 1.539 . S
C751 H765 0.958 . S
C751 H766 0.961 . S
C751 H767 0.960 . S
H752 C736 0.931 . S
H753 C741 0.929 . S
H754 C742 0.960 . S
H755 C742 0.962 . S
H756 C742 0.960 . S
H757 C743 0.961 . S
H758 C743 0.961 . S
H759 C743 0.961 . S
H760 C744 0.931 . S
H761 C749 0.930 . S
H762 C750 0.956 . S
H763 C750 0.961 . S
H764 C750 0.961 . S
H765 C751 0.958 . S
H766 C751 0.961 . S
H767 C751 0.960 . S
C768 C769 1.391 . S
C768 C770 1.394 . S
C768 H784 0.931 . S
C769 C768 1.391 . S
C769 C773 1.376 . S
C770 C768 1.394 . S
C770 C771 1.369 . S
C770 C774 1.531 . S
C771 C770 1.369 . S
C771 C772 1.410 . S
C771 C779 1.503 . S
C772 C771 1.410 . S
C772 C773 1.392 . S
C772 C775 1.511 . S
C773 C769 1.376 . S
C773 C772 1.392 . S
C773 H785 0.929 . S
C774 C770 1.531 . S
C774 H786 0.960 . S
C774 H787 0.962 . S
C774 H788 0.960 . S
C775 C772 1.511 . S
C775 H789 0.961 . S
C775 H790 0.961 . S
C775 H791 0.961 . S
C776 C777 1.370 . S
C776 C778 1.363 . S
C776 H792 0.931 . S
C777 C776 1.370 . S
C777 C781 1.408 . S
C778 C776 1.363 . S
C778 C779 1.370 . S
C778 C782 1.524 . S
C779 C771 1.503 . S
C779 C778 1.370 . S
C779 C780 1.403 . S
C780 C779 1.403 . S
C780 C781 1.404 . S
C780 C783 1.539 . S
C781 C777 1.408 . S
C781 C780 1.404 . S
C781 H793 0.930 . S
C782 C778 1.524 . S
C782 H794 0.956 . S
C782 H795 0.961 . S
C782 H796 0.961 . S
C783 C780 1.539 . S
C783 H797 0.958 . S
C783 H798 0.961 . S
C783 H799 0.960 . S
H784 C768 0.931 . S
H785 C773 0.929 . S
H786 C774 0.960 . S
H787 C774 0.962 . S
H788 C774 0.960 . S
H789 C775 0.961 . S
H790 C775 0.961 . S
H791 C775 0.961 . S
H792 C776 0.931 . S
H793 C781 0.930 . S
H794 C782 0.956 . S
H795 C782 0.961 . S
H796 C782 0.961 . S
H797 C783 0.958 . S
H798 C783 0.961 . S
H799 C783 0.960 . S
C800 C801 1.391 . S
C800 C802 1.394 . S
C800 H816 0.931 . S
C801 C800 1.391 . S
C801 C805 1.376 . S
C802 C800 1.394 . S
C802 C803 1.369 . S
C802 C806 1.531 . S
C803 C802 1.369 . S
C803 C804 1.410 . S
C803 C811 1.503 . S
C804 C803 1.410 . S
C804 C805 1.392 . S
C804 C807 1.511 . S
C805 C801 1.376 . S
C805 C804 1.392 . S
C805 H817 0.929 . S
C806 C802 1.531 . S
C806 H818 0.960 . S
C806 H819 0.962 . S
C806 H820 0.960 . S
C807 C804 1.511 . S
C807 H821 0.961 . S
C807 H822 0.961 . S
C807 H823 0.961 . S
C808 C809 1.370 . S
C808 C810 1.363 . S
C808 H824 0.931 . S
C809 C808 1.370 . S
C809 C813 1.408 . S
C810 C808 1.363 . S
C810 C811 1.370 . S
C810 C814 1.524 . S
C811 C803 1.503 . S
C811 C810 1.370 . S
C811 C812 1.403 . S
C812 C811 1.403 . S
C812 C813 1.404 . S
C812 C815 1.539 . S
C813 C809 1.408 . S
C813 C812 1.404 . S
C813 H825 0.930 . S
C814 C810 1.524 . S
C814 H826 0.956 . S
C814 H827 0.961 . S
C814 H828 0.961 . S
C815 C812 1.539 . S
C815 H829 0.958 . S
C815 H830 0.961 . S
C815 H831 0.960 . S
H816 C800 0.931 . S
H817 C805 0.929 . S
H818 C806 0.960 . S
H819 C806 0.962 . S
H820 C806 0.960 . S
H821 C807 0.961 . S
H822 C807 0.961 . S
H823 C807 0.961 . S
H824 C808 0.931 . S
H825 C813 0.930 . S
H826 C814 0.956 . S
H827 C814 0.961 . S
H828 C814 0.961 . S
H829 C815 0.958 . S
H830 C815 0.961 . S
H831 C815 0.960 . S
C832 C833 1.391 . S
C832 C834 1.394 . S
C832 H848 0.931 . S
C833 C832 1.391 . S
C833 C837 1.376 . S
C834 C832 1.394 . S
C834 C835 1.369 . S
C834 C838 1.531 . S
C835 C834 1.369 . S
C835 C836 1.410 . S
C835 C843 1.503 . S
C836 C835 1.410 . S
C836 C837 1.392 . S
C836 C839 1.511 . S
C837 C833 1.376 . S
C837 C836 1.392 . S
C837 H849 0.929 . S
C838 C834 1.531 . S
C838 H850 0.960 . S
C838 H851 0.962 . S
C838 H852 0.960 . S
C839 C836 1.511 . S
C839 H853 0.961 . S
C839 H854 0.961 . S
C839 H855 0.961 . S
C840 C841 1.370 . S
C840 C842 1.363 . S
C840 H856 0.931 . S
C841 C840 1.370 . S
C841 C845 1.408 . S
C842 C840 1.363 . S
C842 C843 1.370 . S
C842 C846 1.524 . S
C843 C835 1.503 . S
C843 C842 1.370 . S
C843 C844 1.403 . S
C844 C843 1.403 . S
C844 C845 1.404 . S
C844 C847 1.539 . S
C845 C841 1.408 . S
C845 C844 1.404 . S
C845 H857 0.930 . S
C846 C842 1.524 . S
C846 H858 0.956 . S
C846 H859 0.961 . S
C846 H860 0.961 . S
C847 C844 1.539 . S
C847 H861 0.958 . S
C847 H862 0.961 . S
C847 H863 0.960 . S
H848 C832 0.931 . S
H849 C837 0.929 . S
H850 C838 0.960 . S
H851 C838 0.962 . S
H852 C838 0.960 . S
H853 C839 0.961 . S
H854 C839 0.961 . S
H855 C839 0.961 . S
H856 C840 0.931 . S
H857 C845 0.930 . S
H858 C846 0.956 . S
H859 C846 0.961 . S
H860 C846 0.961 . S
H861 C847 0.958 . S
H862 C847 0.961 . S
H863 C847 0.960 . S
C864 C865 1.391 . S
C864 C866 1.394 . S
C864 H880 0.931 . S
C865 C864 1.391 . S
C865 C869 1.376 . S
C866 C864 1.394 . S
C866 C867 1.369 . S
C866 C870 1.531 . S
C867 C866 1.369 . S
C867 C868 1.410 . S
C867 C875 1.503 . S
C868 C867 1.410 . S
C868 C869 1.392 . S
C868 C871 1.511 . S
C869 C865 1.376 . S
C869 C868 1.392 . S
C869 H881 0.929 . S
C870 C866 1.531 . S
C870 H882 0.960 . S
C870 H883 0.962 . S
C870 H884 0.960 . S
C871 C868 1.511 . S
C871 H885 0.961 . S
C871 H886 0.961 . S
C871 H887 0.961 . S
C872 C873 1.370 . S
C872 C874 1.363 . S
C872 H888 0.931 . S
C873 C872 1.370 . S
C873 C877 1.408 . S
C874 C872 1.363 . S
C874 C875 1.370 . S
C874 C878 1.524 . S
C875 C867 1.503 . S
C875 C874 1.370 . S
C875 C876 1.403 . S
C876 C875 1.403 . S
C876 C877 1.404 . S
C876 C879 1.539 . S
C877 C873 1.408 . S
C877 C876 1.404 . S
C877 H889 0.930 . S
C878 C874 1.524 . S
C878 H890 0.956 . S
C878 H891 0.961 . S
C878 H892 0.961 . S
C879 C876 1.539 . S
C879 H893 0.958 . S
C879 H894 0.961 . S
C879 H895 0.960 . S
H880 C864 0.931 . S
H881 C869 0.929 . S
H882 C870 0.960 . S
H883 C870 0.962 . S
H884 C870 0.960 . S
H885 C871 0.961 . S
H886 C871 0.961 . S
H887 C871 0.961 . S
H888 C872 0.931 . S
H889 C877 0.930 . S
H890 C878 0.956 . S
H891 C878 0.961 . S
H892 C878 0.961 . S
H893 C879 0.958 . S
H894 C879 0.961 . S
H895 C879 0.960 . S
C896 C897 1.391 . S
C896 C898 1.394 . S
C896 H912 0.931 . S
C897 C896 1.391 . S
C897 C901 1.376 . S
C898 C896 1.394 . S
C898 C899 1.369 . S
C898 C902 1.531 . S
C899 C898 1.369 . S
C899 C900 1.410 . S
C899 C907 1.503 . S
C900 C899 1.410 . S
C900 C901 1.392 . S
C900 C903 1.511 . S
C901 C897 1.376 . S
C901 C900 1.392 . S
C901 H913 0.929 . S
C902 C898 1.531 . S
C902 H914 0.960 . S
C902 H915 0.962 . S
C902 H916 0.960 . S
C903 C900 1.511 . S
C903 H917 0.961 . S
C903 H918 0.961 . S
C903 H919 0.961 . S
C904 C905 1.370 . S
C904 C906 1.363 . S
C904 H920 0.931 . S
C905 C904 1.370 . S
C905 C909 1.408 . S
C906 C904 1.363 . S
C906 C907 1.370 . S
C906 C910 1.524 . S
C907 C899 1.503 . S
C907 C906 1.370 . S
C907 C908 1.403 . S
C908 C907 1.403 . S
C908 C909 1.404 . S
C908 C911 1.539 . S
C909 C905 1.408 . S
C909 C908 1.404 . S
C909 H921 0.930 . S
C910 C906 1.524 . S
C910 H922 0.956 . S
C910 H923 0.961 . S
C910 H924 0.961 . S
C911 C908 1.539 . S
C911 H925 0.958 . S
C911 H926 0.961 . S
C911 H927 0.960 . S
H912 C896 0.931 . S
H913 C901 0.929 . S
H914 C902 0.960 . S
H915 C902 0.962 . S
H916 C902 0.960 . S
H917 C903 0.961 . S
H918 C903 0.961 . S
H919 C903 0.961 . S
H920 C904 0.931 . S
H921 C909 0.930 . S
H922 C910 0.956 . S
H923 C910 0.961 . S
H924 C910 0.961 . S
H925 C911 0.958 . S
H926 C911 0.961 . S
H927 C911 0.960 . S
C928 C929 1.391 . S
C928 C930 1.394 . S
C928 H944 0.931 . S
C929 C928 1.391 . S
C929 C933 1.376 . S
C930 C928 1.394 . S
C930 C931 1.369 . S
C930 C934 1.531 . S
C931 C930 1.369 . S
C931 C932 1.410 . S
C931 C939 1.503 . S
C932 C931 1.410 . S
C932 C933 1.392 . S
C932 C935 1.511 . S
C933 C929 1.376 . S
C933 C932 1.392 . S
C933 H945 0.929 . S
C934 C930 1.531 . S
C934 H946 0.960 . S
C934 H947 0.962 . S
C934 H948 0.960 . S
C935 C932 1.511 . S
C935 H949 0.961 . S
C935 H950 0.961 . S
C935 H951 0.961 . S
C936 C937 1.370 . S
C936 C938 1.363 . S
C936 H952 0.931 . S
C937 C936 1.370 . S
C937 C941 1.408 . S
C938 C936 1.363 . S
C938 C939 1.370 . S
C938 C942 1.524 . S
C939 C931 1.503 . S
C939 C938 1.370 . S
C939 C940 1.403 . S
C940 C939 1.403 . S
C940 C941 1.404 . S
C940 C943 1.539 . S
C941 C937 1.408 . S
C941 C940 1.404 . S
C941 H953 0.930 . S
C942 C938 1.524 . S
C942 H954 0.956 . S
C942 H955 0.961 . S
C942 H956 0.961 . S
C943 C940 1.539 . S
C943 H957 0.958 . S
C943 H958 0.961 . S
C943 H959 0.960 . S
H944 C928 0.931 . S
H945 C933 0.929 . S
H946 C934 0.960 . S
H947 C934 0.962 . S
H948 C934 0.960 . S
H949 C935 0.961 . S
H950 C935 0.961 . S
H951 C935 0.961 . S
H952 C936 0.931 . S
H953 C941 0.930 . S
H954 C942 0.956 . S
H955 C942 0.961 . S
H956 C942 0.961 . S
H957 C943 0.958 . S
H958 C943 0.961 . S
H959 C943 0.960 . S
C960 C961 1.391 . S
C960 C962 1.394 . S
C960 H976 0.931 . S
C961 C960 1.391 . S
C961 C965 1.376 . S
C962 C960 1.394 . S
C962 C963 1.369 . S
C962 C966 1.531 . S
C963 C962 1.369 . S
C963 C964 1.410 . S
C963 C971 1.503 . S
C964 C963 1.410 . S
C964 C965 1.392 . S
C964 C967 1.511 . S
C965 C961 1.376 . S
C965 C964 1.392 . S
C965 H977 0.929 . S
C966 C962 1.531 . S
C966 H978 0.960 . S
C966 H979 0.962 . S
C966 H980 0.960 . S
C967 C964 1.511 . S
C967 H981 0.961 . S
C967 H982 0.961 . S
C967 H983 0.961 . S
C968 C969 1.370 . S
C968 C970 1.363 . S
C968 H984 0.931 . S
C969 C968 1.370 . S
C969 C973 1.408 . S
C970 C968 1.363 . S
C970 C971 1.370 . S
C970 C974 1.524 . S
C971 C963 1.503 . S
C971 C970 1.370 . S
C971 C972 1.403 . S
C972 C971 1.403 . S
C972 C973 1.404 . S
C972 C975 1.539 . S
C973 C969 1.408 . S
C973 C972 1.404 . S
C973 H985 0.930 . S
C974 C970 1.524 . S
C974 H986 0.956 . S
C974 H987 0.961 . S
C974 H988 0.961 . S
C975 C972 1.539 . S
C975 H989 0.958 . S
C975 H990 0.961 . S
C975 H991 0.960 . S
H976 C960 0.931 . S
H977 C965 0.929 . S
H978 C966 0.960 . S
H979 C966 0.962 . S
H980 C966 0.960 . S
H981 C967 0.961 . S
H982 C967 0.961 . S
H983 C967 0.961 . S
H984 C968 0.931 . S
H985 C973 0.930 . S
H986 C974 0.956 . S
H987 C974 0.961 . S
H988 C974 0.961 . S
H989 C975 0.958 . S
H990 C975 0.961 . S
H991 C975 0.960 . S
C992 C993 1.391 . S
C992 C994 1.394 . S
C992 H1008 0.931 . S
C993 C992 1.391 . S
C993 C997 1.376 . S
C994 C992 1.394 . S
C994 C995 1.369 . S
C994 C998 1.531 . S
C995 C994 1.369 . S
C995 C996 1.410 . S
C995 C1003 1.503 . S
C996 C995 1.410 . S
C996 C997 1.392 . S
C996 C999 1.511 . S
C997 C993 1.376 . S
C997 C996 1.392 . S
C997 H1009 0.929 . S
C998 C994 1.531 . S
C998 H1010 0.960 . S
C998 H1011 0.962 . S
C998 H1012 0.960 . S
C999 C996 1.511 . S
C999 H1013 0.961 . S
C999 H1014 0.961 . S
C999 H1015 0.961 . S
C1000 C1001 1.370 . S
C1000 C1002 1.363 . S
C1000 H1016 0.931 . S
C1001 C1000 1.370 . S
C1001 C1005 1.408 . S
C1002 C1000 1.363 . S
C1002 C1003 1.370 . S
C1002 C1006 1.524 . S
C1003 C995 1.503 . S
C1003 C1002 1.370 . S
C1003 C1004 1.403 . S
C1004 C1003 1.403 . S
C1004 C1005 1.404 . S
C1004 C1007 1.539 . S
C1005 C1001 1.408 . S
C1005 C1004 1.404 . S
C1005 H1017 0.930 . S
C1006 C1002 1.524 . S
C1006 H1018 0.956 . S
C1006 H1019 0.961 . S
C1006 H1020 0.961 . S
C1007 C1004 1.539 . S
C1007 H1021 0.958 . S
C1007 H1022 0.961 . S
C1007 H1023 0.960 . S
H1008 C992 0.931 . S
H1009 C997 0.929 . S
H1010 C998 0.960 . S
H1011 C998 0.962 . S
H1012 C998 0.960 . S
H1013 C999 0.961 . S
H1014 C999 0.961 . S
H1015 C999 0.961 . S
H1016 C1000 0.931 . S
H1017 C1005 0.930 . S
H1018 C1006 0.956 . S
H1019 C1006 0.961 . S
H1020 C1006 0.961 . S
H1021 C1007 0.958 . S
H1022 C1007 0.961 . S
H1023 C1007 0.960 . S
C1024 C1025 1.391 . S
C1024 C1026 1.394 . S
C1024 H1040 0.931 . S
C1025 C1024 1.391 . S
C1025 C1029 1.376 . S
C1026 C1024 1.394 . S
C1026 C1027 1.369 . S
C1026 C1030 1.531 . S
C1027 C1026 1.369 . S
C1027 C1028 1.410 . S
C1027 C1035 1.503 . S
C1028 C1027 1.410 . S
C1028 C1029 1.392 . S
C1028 C1031 1.511 . S
C1029 C1025 1.376 . S
C1029 C1028 1.392 . S
C1029 H1041 0.929 . S
C1030 C1026 1.531 . S
C1030 H1042 0.960 . S
C1030 H1043 0.962 . S
C1030 H1044 0.960 . S
C1031 C1028 1.511 . S
C1031 H1045 0.961 . S
C1031 H1046 0.961 . S
C1031 H1047 0.961 . S
C1032 C1033 1.370 . S
C1032 C1034 1.363 . S
C1032 H1048 0.931 . S
C1033 C1032 1.370 . S
C1033 C1037 1.408 . S
C1034 C1032 1.363 . S
C1034 C1035 1.370 . S
C1034 C1038 1.524 . S
C1035 C1027 1.503 . S
C1035 C1034 1.370 . S
C1035 C1036 1.403 . S
C1036 C1035 1.403 . S
C1036 C1037 1.404 . S
C1036 C1039 1.539 . S
C1037 C1033 1.408 . S
C1037 C1036 1.404 . S
C1037 H1049 0.930 . S
C1038 C1034 1.524 . S
C1038 H1050 0.956 . S
C1038 H1051 0.961 . S
C1038 H1052 0.961 . S
C1039 C1036 1.539 . S
C1039 H1053 0.958 . S
C1039 H1054 0.961 . S
C1039 H1055 0.960 . S
H1040 C1024 0.931 . S
H1041 C1029 0.929 . S
H1042 C1030 0.960 . S
H1043 C1030 0.962 . S
H1044 C1030 0.960 . S
H1045 C1031 0.961 . S
H1046 C1031 0.961 . S
H1047 C1031 0.961 . S
H1048 C1032 0.931 . S
H1049 C1037 0.930 . S
H1050 C1038 0.956 . S
H1051 C1038 0.961 . S
H1052 C1038 0.961 . S
H1053 C1039 0.958 . S
H1054 C1039 0.961 . S
H1055 C1039 0.960 . S
C1056 C1057 1.391 . S
C1056 C1058 1.394 . S
C1056 H1072 0.931 . S
C1057 C1056 1.391 . S
C1057 C1061 1.376 . S
C1058 C1056 1.394 . S
C1058 C1059 1.369 . S
C1058 C1062 1.531 . S
C1059 C1058 1.369 . S
C1059 C1060 1.410 . S
C1059 C1067 1.503 . S
C1060 C1059 1.410 . S
C1060 C1061 1.392 . S
C1060 C1063 1.511 . S
C1061 C1057 1.376 . S
C1061 C1060 1.392 . S
C1061 H1073 0.929 . S
C1062 C1058 1.531 . S
C1062 H1074 0.960 . S
C1062 H1075 0.962 . S
C1062 H1076 0.960 . S
C1063 C1060 1.511 . S
C1063 H1077 0.961 . S
C1063 H1078 0.961 . S
C1063 H1079 0.961 . S
C1064 C1065 1.370 . S
C1064 C1066 1.363 . S
C1064 H1080 0.931 . S
C1065 C1064 1.370 . S
C1065 C1069 1.408 . S
C1066 C1064 1.363 . S
C1066 C1067 1.370 . S
C1066 C1070 1.524 . S
C1067 C1059 1.503 . S
C1067 C1066 1.370 . S
C1067 C1068 1.403 . S
C1068 C1067 1.403 . S
C1068 C1069 1.404 . S
C1068 C1071 1.539 . S
C1069 C1065 1.408 . S
C1069 C1068 1.404 . S
C1069 H1081 0.930 . S
C1070 C1066 1.524 . S
C1070 H1082 0.956 . S
C1070 H1083 0.961 . S
C1070 H1084 0.961 . S
C1071 C1068 1.539 . S
C1071 H1085 0.958 . S
C1071 H1086 0.961 . S
C1071 H1087 0.960 . S
H1072 C1056 0.931 . S
H1073 C1061 0.929 . S
H1074 C1062 0.960 . S
H1075 C1062 0.962 . S
H1076 C1062 0.960 . S
H1077 C1063 0.961 . S
H1078 C1063 0.961 . S
H1079 C1063 0.961 . S
H1080 C1064 0.931 . S
H1081 C1069 0.930 . S
H1082 C1070 0.956 . S
H1083 C1070 0.961 . S
H1084 C1070 0.961 . S
H1085 C1071 0.958 . S
H1086 C1071 0.961 . S
H1087 C1071 0.960 . S
C1088 C1089 1.391 . S
C1088 C1090 1.394 . S
C1088 H1104 0.931 . S
C1089 C1088 1.391 . S
C1089 C1093 1.376 . S
C1090 C1088 1.394 . S
C1090 C1091 1.369 . S
C1090 C1094 1.531 . S
C1091 C1090 1.369 . S
C1091 C1092 1.410 . S
C1091 C1099 1.503 . S
C1092 C1091 1.410 . S
C1092 C1093 1.392 . S
C1092 C1095 1.511 . S
C1093 C1089 1.376 . S
C1093 C1092 1.392 . S
C1093 H1105 0.929 . S
C1094 C1090 1.531 . S
C1094 H1106 0.960 . S
C1094 H1107 0.962 . S
C1094 H1108 0.960 . S
C1095 C1092 1.511 . S
C1095 H1109 0.961 . S
C1095 H1110 0.961 . S
C1095 H1111 0.961 . S
C1096 C1097 1.370 . S
C1096 C1098 1.363 . S
C1096 H1112 0.931 . S
C1097 C1096 1.370 . S
C1097 C1101 1.408 . S
C1098 C1096 1.363 . S
C1098 C1099 1.370 . S
C1098 C1102 1.524 . S
C1099 C1091 1.503 . S
C1099 C1098 1.370 . S
C1099 C1100 1.403 . S
C1100 C1099 1.403 . S
C1100 C1101 1.404 . S
C1100 C1103 1.539 . S
C1101 C1097 1.408 . S
C1101 C1100 1.404 . S
C1101 H1113 0.930 . S
C1102 C1098 1.524 . S
C1102 H1114 0.956 . S
C1102 H1115 0.961 . S
C1102 H1116 0.961 . S
C1103 C1100 1.539 . S
C1103 H1117 0.958 . S
C1103 H1118 0.961 . S
C1103 H1119 0.960 . S
H1104 C1088 0.931 . S
H1105 C1093 0.929 . S
H1106 C1094 0.960 . S
H1107 C1094 0.962 . S
H1108 C1094 0.960 . S
H1109 C1095 0.961 . S
H1110 C1095 0.961 . S
H1111 C1095 0.961 . S
H1112 C1096 0.931 . S
H1113 C1101 0.930 . S
H1114 C1102 0.956 . S
H1115 C1102 0.961 . S
H1116 C1102 0.961 . S
H1117 C1103 0.958 . S
H1118 C1103 0.961 . S
H1119 C1103 0.960 . S
C1120 C1121 1.391 . S
C1120 C1122 1.394 . S
C1120 H1136 0.931 . S
C1121 C1120 1.391 . S
C1121 C1125 1.376 . S
C1122 C1120 1.394 . S
C1122 C1123 1.369 . S
C1122 C1126 1.531 . S
C1123 C1122 1.369 . S
C1123 C1124 1.410 . S
C1123 C1131 1.503 . S
C1124 C1123 1.410 . S
C1124 C1125 1.392 . S
C1124 C1127 1.511 . S
C1125 C1121 1.376 . S
C1125 C1124 1.392 . S
C1125 H1137 0.929 . S
C1126 C1122 1.531 . S
C1126 H1138 0.960 . S
C1126 H1139 0.962 . S
C1126 H1140 0.960 . S
C1127 C1124 1.511 . S
C1127 H1141 0.961 . S
C1127 H1142 0.961 . S
C1127 H1143 0.961 . S
C1128 C1129 1.370 . S
C1128 C1130 1.363 . S
C1128 H1144 0.931 . S
C1129 C1128 1.370 . S
C1129 C1133 1.408 . S
C1130 C1128 1.363 . S
C1130 C1131 1.370 . S
C1130 C1134 1.524 . S
C1131 C1123 1.503 . S
C1131 C1130 1.370 . S
C1131 C1132 1.403 . S
C1132 C1131 1.403 . S
C1132 C1133 1.404 . S
C1132 C1135 1.539 . S
C1133 C1129 1.408 . S
C1133 C1132 1.404 . S
C1133 H1145 0.930 . S
C1134 C1130 1.524 . S
C1134 H1146 0.956 . S
C1134 H1147 0.961 . S
C1134 H1148 0.961 . S
C1135 C1132 1.539 . S
C1135 H1149 0.958 . S
C1135 H1150 0.961 . S
C1135 H1151 0.960 . S
H1136 C1120 0.931 . S
H1137 C1125 0.929 . S
H1138 C1126 0.960 . S
H1139 C1126 0.962 . S
H1140 C1126 0.960 . S
H1141 C1127 0.961 . S
H1142 C1127 0.961 . S
H1143 C1127 0.961 . S
H1144 C1128 0.931 . S
H1145 C1133 0.930 . S
H1146 C1134 0.956 . S
H1147 C1134 0.961 . S
H1148 C1134 0.961 . S
H1149 C1135 0.958 . S
H1150 C1135 0.961 . S
H1151 C1135 0.960 . S
C1152 C1153 1.391 . S
C1152 C1154 1.394 . S
C1152 H1168 0.931 . S
C1153 C1152 1.391 . S
C1153 C1157 1.376 . S
C1154 C1152 1.394 . S
C1154 C1155 1.369 . S
C1154 C1158 1.531 . S
C1155 C1154 1.369 . S
C1155 C1156 1.410 . S
C1155 C1163 1.503 . S
C1156 C1155 1.410 . S
C1156 C1157 1.392 . S
C1156 C1159 1.511 . S
C1157 C1153 1.376 . S
C1157 C1156 1.392 . S
C1157 H1169 0.929 . S
C1158 C1154 1.531 . S
C1158 H1170 0.960 . S
C1158 H1171 0.962 . S
C1158 H1172 0.960 . S
C1159 C1156 1.511 . S
C1159 H1173 0.961 . S
C1159 H1174 0.961 . S
C1159 H1175 0.961 . S
C1160 C1161 1.370 . S
C1160 C1162 1.363 . S
C1160 H1176 0.931 . S
C1161 C1160 1.370 . S
C1161 C1165 1.408 . S
C1162 C1160 1.363 . S
C1162 C1163 1.370 . S
C1162 C1166 1.524 . S
C1163 C1155 1.503 . S
C1163 C1162 1.370 . S
C1163 C1164 1.403 . S
C1164 C1163 1.403 . S
C1164 C1165 1.404 . S
C1164 C1167 1.539 . S
C1165 C1161 1.408 . S
C1165 C1164 1.404 . S
C1165 H1177 0.930 . S
C1166 C1162 1.524 . S
C1166 H1178 0.956 . S
C1166 H1179 0.961 . S
C1166 H1180 0.961 . S
C1167 C1164 1.539 . S
C1167 H1181 0.958 . S
C1167 H1182 0.961 . S
C1167 H1183 0.960 . S
H1168 C1152 0.931 . S
H1169 C1157 0.929 . S
H1170 C1158 0.960 . S
H1171 C1158 0.962 . S
H1172 C1158 0.960 . S
H1173 C1159 0.961 . S
H1174 C1159 0.961 . S
H1175 C1159 0.961 . S
H1176 C1160 0.931 . S
H1177 C1165 0.930 . S
H1178 C1166 0.956 . S
H1179 C1166 0.961 . S
H1180 C1166 0.961 . S
H1181 C1167 0.958 . S
H1182 C1167 0.961 . S
H1183 C1167 0.960 . S
C1184 C1185 1.391 . S
C1184 C1186 1.394 . S
C1184 H1200 0.931 . S
C1185 C1184 1.391 . S
C1185 C1189 1.376 . S
C1186 C1184 1.394 . S
C1186 C1187 1.369 . S
C1186 C1190 1.531 . S
C1187 C1186 1.369 . S
C1187 C1188 1.410 . S
C1187 C1195 1.503 . S
C1188 C1187 1.410 . S
C1188 C1189 1.392 . S
C1188 C1191 1.511 . S
C1189 C1185 1.376 . S
C1189 C1188 1.392 . S
C1189 H1201 0.929 . S
C1190 C1186 1.531 . S
C1190 H1202 0.960 . S
C1190 H1203 0.962 . S
C1190 H1204 0.960 . S
C1191 C1188 1.511 . S
C1191 H1205 0.961 . S
C1191 H1206 0.961 . S
C1191 H1207 0.961 . S
C1192 C1193 1.370 . S
C1192 C1194 1.363 . S
C1192 H1208 0.931 . S
C1193 C1192 1.370 . S
C1193 C1197 1.408 . S
C1194 C1192 1.363 . S
C1194 C1195 1.370 . S
C1194 C1198 1.524 . S
C1195 C1187 1.503 . S
C1195 C1194 1.370 . S
C1195 C1196 1.403 . S
C1196 C1195 1.403 . S
C1196 C1197 1.404 . S
C1196 C1199 1.539 . S
C1197 C1193 1.408 . S
C1197 C1196 1.404 . S
C1197 H1209 0.930 . S
C1198 C1194 1.524 . S
C1198 H1210 0.956 . S
C1198 H1211 0.961 . S
C1198 H1212 0.961 . S
C1199 C1196 1.539 . S
C1199 H1213 0.958 . S
C1199 H1214 0.961 . S
C1199 H1215 0.960 . S
H1200 C1184 0.931 . S
H1201 C1189 0.929 . S
H1202 C1190 0.960 . S
H1203 C1190 0.962 . S
H1204 C1190 0.960 . S
H1205 C1191 0.961 . S
H1206 C1191 0.961 . S
H1207 C1191 0.961 . S
H1208 C1192 0.931 . S
H1209 C1197 0.930 . S
H1210 C1198 0.956 . S
H1211 C1198 0.961 . S
H1212 C1198 0.961 . S
H1213 C1199 0.958 . S
H1214 C1199 0.961 . S
H1215 C1199 0.960 . S
C1216 C1217 1.391 . S
C1216 C1218 1.394 . S
C1216 H1232 0.931 . S
C1217 C1216 1.391 . S
C1217 C1221 1.376 . S
C1218 C1216 1.394 . S
C1218 C1219 1.369 . S
C1218 C1222 1.531 . S
C1219 C1218 1.369 . S
C1219 C1220 1.410 . S
C1219 C1227 1.503 . S
C1220 C1219 1.410 . S
C1220 C1221 1.392 . S
C1220 C1223 1.511 . S
C1221 C1217 1.376 . S
C1221 C1220 1.392 . S
C1221 H1233 0.929 . S
C1222 C1218 1.531 . S
C1222 H1234 0.960 . S
C1222 H1235 0.962 . S
C1222 H1236 0.960 . S
C1223 C1220 1.511 . S
C1223 H1237 0.961 . S
C1223 H1238 0.961 . S
C1223 H1239 0.961 . S
C1224 C1225 1.370 . S
C1224 C1226 1.363 . S
C1224 H1240 0.931 . S
C1225 C1224 1.370 . S
C1225 C1229 1.408 . S
C1226 C1224 1.363 . S
C1226 C1227 1.370 . S
C1226 C1230 1.524 . S
C1227 C1219 1.503 . S
C1227 C1226 1.370 . S
C1227 C1228 1.403 . S
C1228 C1227 1.403 . S
C1228 C1229 1.404 . S
C1228 C1231 1.539 . S
C1229 C1225 1.408 . S
C1229 C1228 1.404 . S
C1229 H1241 0.930 . S
C1230 C1226 1.524 . S
C1230 H1242 0.956 . S
C1230 H1243 0.961 . S
C1230 H1244 0.961 . S
C1231 C1228 1.539 . S
C1231 H1245 0.958 . S
C1231 H1246 0.961 . S
C1231 H1247 0.960 . S
H1232 C1216 0.931 . S
H1233 C1221 0.929 . S
H1234 C1222 0.960 . S
H1235 C1222 0.962 . S
H1236 C1222 0.960 . S
H1237 C1223 0.961 . S
H1238 C1223 0.961 . S
H1239 C1223 0.961 . S
H1240 C1224 0.931 . S
H1241 C1229 0.930 . S
H1242 C1230 0.956 . S
H1243 C1230 0.961 . S
H1244 C1230 0.961 . S
H1245 C1231 0.958 . S
H1246 C1231 0.961 . S
H1247 C1231 0.960 . S
C1248 C1249 1.391 . S
C1248 C1250 1.394 . S
C1248 H1264 0.931 . S
C1249 C1248 1.391 . S
C1249 C1253 1.376 . S
C1250 C1248 1.394 . S
C1250 C1251 1.369 . S
C1250 C1254 1.531 . S
C1251 C1250 1.369 . S
C1251 C1252 1.410 . S
C1251 C1259 1.503 . S
C1252 C1251 1.410 . S
C1252 C1253 1.392 . S
C1252 C1255 1.511 . S
C1253 C1249 1.376 . S
C1253 C1252 1.392 . S
C1253 H1265 0.929 . S
C1254 C1250 1.531 . S
C1254 H1266 0.960 . S
C1254 H1267 0.962 . S
C1254 H1268 0.960 . S
C1255 C1252 1.511 . S
C1255 H1269 0.961 . S
C1255 H1270 0.961 . S
C1255 H1271 0.961 . S
C1256 C1257 1.370 . S
C1256 C1258 1.363 . S
C1256 H1272 0.931 . S
C1257 C1256 1.370 . S
C1257 C1261 1.408 . S
C1258 C1256 1.363 . S
C1258 C1259 1.370 . S
C1258 C1262 1.524 . S
C1259 C1251 1.503 . S
C1259 C1258 1.370 . S
C1259 C1260 1.403 . S
C1260 C1259 1.403 . S
C1260 C1261 1.404 . S
C1260 C1263 1.539 . S
C1261 C1257 1.408 . S
C1261 C1260 1.404 . S
C1261 H1273 0.930 . S
C1262 C1258 1.524 . S
C1262 H1274 0.956 . S
C1262 H1275 0.961 . S
C1262 H1276 0.961 . S
C1263 C1260 1.539 . S
C1263 H1277 0.958 . S
C1263 H1278 0.961 . S
C1263 H1279 0.960 . S
H1264 C1248 0.931 . S
H1265 C1253 0.929 . S
H1266 C1254 0.960 . S
H1267 C1254 0.962 . S
H1268 C1254 0.960 . S
H1269 C1255 0.961 . S
H1270 C1255 0.961 . S
H1271 C1255 0.961 . S
H1272 C1256 0.931 . S
H1273 C1261 0.930 . S
H1274 C1262 0.956 . S
H1275 C1262 0.961 . S
H1276 C1262 0.961 . S
H1277 C1263 0.958 . S
H1278 C1263 0.961 . S
H1279 C1263 0.960 . S
C1280 C1281 1.391 . S
C1280 C1282 1.394 . S
C1280 H1296 0.931 . S
C1281 C1280 1.391 . S
C1281 C1285 1.376 . S
C1282 C1280 1.394 . S
C1282 C1283 1.369 . S
C1282 C1286 1.531 . S
C1283 C1282 1.369 . S
C1283 C1284 1.410 . S
C1283 C1291 1.503 . S
C1284 C1283 1.410 . S
C1284 C1285 1.392 . S
C1284 C1287 1.511 . S
C1285 C1281 1.376 . S
C1285 C1284 1.392 . S
C1285 H1297 0.929 . S
C1286 C1282 1.531 . S
C1286 H1298 0.960 . S
C1286 H1299 0.962 . S
C1286 H1300 0.960 . S
C1287 C1284 1.511 . S
C1287 H1301 0.961 . S
C1287 H1302 0.961 . S
C1287 H1303 0.961 . S
C1288 C1289 1.370 . S
C1288 C1290 1.363 . S
C1288 H1304 0.931 . S
C1289 C1288 1.370 . S
C1289 C1293 1.408 . S
C1290 C1288 1.363 . S
C1290 C1291 1.370 . S
C1290 C1294 1.524 . S
C1291 C1283 1.503 . S
C1291 C1290 1.370 . S
C1291 C1292 1.403 . S
C1292 C1291 1.403 . S
C1292 C1293 1.404 . S
C1292 C1295 1.539 . S
C1293 C1289 1.408 . S
C1293 C1292 1.404 . S
C1293 H1305 0.930 . S
C1294 C1290 1.524 . S
C1294 H1306 0.956 . S
C1294 H1307 0.961 . S
C1294 H1308 0.961 . S
C1295 C1292 1.539 . S
C1295 H1309 0.958 . S
C1295 H1310 0.961 . S
C1295 H1311 0.960 . S
H1296 C1280 0.931 . S
H1297 C1285 0.929 . S
H1298 C1286 0.960 . S
H1299 C1286 0.962 . S
H1300 C1286 0.960 . S
H1301 C1287 0.961 . S
H1302 C1287 0.961 . S
H1303 C1287 0.961 . S
H1304 C1288 0.931 . S
H1305 C1293 0.930 . S
H1306 C1294 0.956 . S
H1307 C1294 0.961 . S
H1308 C1294 0.961 . S
H1309 C1295 0.958 . S
H1310 C1295 0.961 . S
H1311 C1295 0.960 . S
C1312 C1313 1.391 . S
C1312 C1314 1.394 . S
C1312 H1328 0.931 . S
C1313 C1312 1.391 . S
C1313 C1317 1.376 . S
C1314 C1312 1.394 . S
C1314 C1315 1.369 . S
C1314 C1318 1.531 . S
C1315 C1314 1.369 . S
C1315 C1316 1.410 . S
C1315 C1323 1.503 . S
C1316 C1315 1.410 . S
C1316 C1317 1.392 . S
C1316 C1319 1.511 . S
C1317 C1313 1.376 . S
C1317 C1316 1.392 . S
C1317 H1329 0.929 . S
C1318 C1314 1.531 . S
C1318 H1330 0.960 . S
C1318 H1331 0.962 . S
C1318 H1332 0.960 . S
C1319 C1316 1.511 . S
C1319 H1333 0.961 . S
C1319 H1334 0.961 . S
C1319 H1335 0.961 . S
C1320 C1321 1.370 . S
C1320 C1322 1.363 . S
C1320 H1336 0.931 . S
C1321 C1320 1.370 . S
C1321 C1325 1.408 . S
C1322 C1320 1.363 . S
C1322 C1323 1.370 . S
C1322 C1326 1.524 . S
C1323 C1315 1.503 . S
C1323 C1322 1.370 . S
C1323 C1324 1.403 . S
C1324 C1323 1.403 . S
C1324 C1325 1.404 . S
C1324 C1327 1.539 . S
C1325 C1321 1.408 . S
C1325 C1324 1.404 . S
C1325 H1337 0.930 . S
C1326 C1322 1.524 . S
C1326 H1338 0.956 . S
C1326 H1339 0.961 . S
C1326 H1340 0.961 . S
C1327 C1324 1.539 . S
C1327 H1341 0.958 . S
C1327 H1342 0.961 . S
C1327 H1343 0.960 . S
H1328 C1312 0.931 . S
H1329 C1317 0.929 . S
H1330 C1318 0.960 . S
H1331 C1318 0.962 . S
H1332 C1318 0.960 . S
H1333 C1319 0.961 . S
H1334 C1319 0.961 . S
H1335 C1319 0.961 . S
H1336 C1320 0.931 . S
H1337 C1325 0.930 . S
H1338 C1326 0.956 . S
H1339 C1326 0.961 . S
H1340 C1326 0.961 . S
H1341 C1327 0.958 . S
H1342 C1327 0.961 . S
H1343 C1327 0.960 . S
C1344 C1345 1.391 . S
C1344 C1346 1.394 . S
C1344 H1360 0.931 . S
C1345 C1344 1.391 . S
C1345 C1349 1.376 . S
C1346 C1344 1.394 . S
C1346 C1347 1.369 . S
C1346 C1350 1.531 . S
C1347 C1346 1.369 . S
C1347 C1348 1.410 . S
C1347 C1355 1.503 . S
C1348 C1347 1.410 . S
C1348 C1349 1.392 . S
C1348 C1351 1.511 . S
C1349 C1345 1.376 . S
C1349 C1348 1.392 . S
C1349 H1361 0.929 . S
C1350 C1346 1.531 . S
C1350 H1362 0.960 . S
C1350 H1363 0.962 . S
C1350 H1364 0.960 . S
C1351 C1348 1.511 . S
C1351 H1365 0.961 . S
C1351 H1366 0.961 . S
C1351 H1367 0.961 . S
C1352 C1353 1.370 . S
C1352 C1354 1.363 . S
C1352 H1368 0.931 . S
C1353 C1352 1.370 . S
C1353 C1357 1.408 . S
C1354 C1352 1.363 . S
C1354 C1355 1.370 . S
C1354 C1358 1.524 . S
C1355 C1347 1.503 . S
C1355 C1354 1.370 . S
C1355 C1356 1.403 . S
C1356 C1355 1.403 . S
C1356 C1357 1.404 . S
C1356 C1359 1.539 . S
C1357 C1353 1.408 . S
C1357 C1356 1.404 . S
C1357 H1369 0.930 . S
C1358 C1354 1.524 . S
C1358 H1370 0.956 . S
C1358 H1371 0.961 . S
C1358 H1372 0.961 . S
C1359 C1356 1.539 . S
C1359 H1373 0.958 . S
C1359 H1374 0.961 . S
C1359 H1375 0.960 . S
H1360 C1344 0.931 . S
H1361 C1349 0.929 . S
H1362 C1350 0.960 . S
H1363 C1350 0.962 . S
H1364 C1350 0.960 . S
H1365 C1351 0.961 . S
H1366 C1351 0.961 . S
H1367 C1351 0.961 . S
H1368 C1352 0.931 . S
H1369 C1357 0.930 . S
H1370 C1358 0.956 . S
H1371 C1358 0.961 . S
H1372 C1358 0.961 . S
H1373 C1359 0.958 . S
H1374 C1359 0.961 . S
H1375 C1359 0.960 . S
C1376 C1377 1.391 . S
C1376 C1378 1.394 . S
C1376 H1392 0.931 . S
C1377 C1376 1.391 . S
C1377 C1381 1.376 . S
C1378 C1376 1.394 . S
C1378 C1379 1.369 . S
C1378 C1382 1.531 . S
C1379 C1378 1.369 . S
C1379 C1380 1.410 . S
C1379 C1387 1.503 . S
C1380 C1379 1.410 . S
C1380 C1381 1.392 . S
C1380 C1383 1.511 . S
C1381 C1377 1.376 . S
C1381 C1380 1.392 . S
C1381 H1393 0.929 . S
C1382 C1378 1.531 . S
C1382 H1394 0.960 . S
C1382 H1395 0.962 . S
C1382 H1396 0.960 . S
C1383 C1380 1.511 . S
C1383 H1397 0.961 . S
C1383 H1398 0.961 . S
C1383 H1399 0.961 . S
C1384 C1385 1.370 . S
C1384 C1386 1.363 . S
C1384 H1400 0.931 . S
C1385 C1384 1.370 . S
C1385 C1389 1.408 . S
C1386 C1384 1.363 . S
C1386 C1387 1.370 . S
C1386 C1390 1.524 . S
C1387 C1379 1.503 . S
C1387 C1386 1.370 . S
C1387 C1388 1.403 . S
C1388 C1387 1.403 . S
C1388 C1389 1.404 . S
C1388 C1391 1.539 . S
C1389 C1385 1.408 . S
C1389 C1388 1.404 . S
C1389 H1401 0.930 . S
C1390 C1386 1.524 . S
C1390 H1402 0.956 . S
C1390 H1403 0.961 . S
C1390 H1404 0.961 . S
C1391 C1388 1.539 . S
C1391 H1405 0.958 . S
C1391 H1406 0.961 . S
C1391 H1407 0.960 . S
H1392 C1376 0.931 . S
H1393 C1381 0.929 . S
H1394 C1382 0.960 . S
H1395 C1382 0.962 . S
H1396 C1382 0.960 . S
H1397 C1383 0.961 . S
H1398 C1383 0.961 . S
H1399 C1383 0.961 . S
H1400 C1384 0.931 . S
H1401 C1389 0.930 . S
H1402 C1390 0.956 . S
H1403 C1390 0.961 . S
H1404 C1390 0.961 . S
H1405 C1391 0.958 . S
H1406 C1391 0.961 . S
H1407 C1391 0.960 . S
C1408 C1409 1.391 . S
C1408 C1410 1.394 . S
C1408 H1424 0.931 . S
C1409 C1408 1.391 . S
C1409 C1413 1.376 . S
C1410 C1408 1.394 . S
C1410 C1411 1.369 . S
C1410 C1414 1.531 . S
C1411 C1410 1.369 . S
C1411 C1412 1.410 . S
C1411 C1419 1.503 . S
C1412 C1411 1.410 . S
C1412 C1413 1.392 . S
C1412 C1415 1.511 . S
C1413 C1409 1.376 . S
C1413 C1412 1.392 . S
C1413 H1425 0.929 . S
C1414 C1410 1.531 . S
C1414 H1426 0.960 . S
C1414 H1427 0.962 . S
C1414 H1428 0.960 . S
C1415 C1412 1.511 . S
C1415 H1429 0.961 . S
C1415 H1430 0.961 . S
C1415 H1431 0.961 . S
C1416 C1417 1.370 . S
C1416 C1418 1.363 . S
C1416 H1432 0.931 . S
C1417 C1416 1.370 . S
C1417 C1421 1.408 . S
C1418 C1416 1.363 . S
C1418 C1419 1.370 . S
C1418 C1422 1.524 . S
C1419 C1411 1.503 . S
C1419 C1418 1.370 . S
C1419 C1420 1.403 . S
C1420 C1419 1.403 . S
C1420 C1421 1.404 . S
C1420 C1423 1.539 . S
C1421 C1417 1.408 . S
C1421 C1420 1.404 . S
C1421 H1433 0.930 . S
C1422 C1418 1.524 . S
C1422 H1434 0.956 . S
C1422 H1435 0.961 . S
C1422 H1436 0.961 . S
C1423 C1420 1.539 . S
C1423 H1437 0.958 . S
C1423 H1438 0.961 . S
C1423 H1439 0.960 . S
H1424 C1408 0.931 . S
H1425 C1413 0.929 . S
H1426 C1414 0.960 . S
H1427 C1414 0.962 . S
H1428 C1414 0.960 . S
H1429 C1415 0.961 . S
H1430 C1415 0.961 . S
H1431 C1415 0.961 . S
H1432 C1416 0.931 . S
H1433 C1421 0.930 . S
H1434 C1422 0.956 . S
H1435 C1422 0.961 . S
H1436 C1422 0.961 . S
H1437 C1423 0.958 . S
H1438 C1423 0.961 . S
H1439 C1423 0.960 . S
C1440 C1441 1.391 . S
C1440 C1442 1.394 . S
C1440 H1456 0.931 . S
C1441 C1440 1.391 . S
C1441 C1445 1.376 . S
C1442 C1440 1.394 . S
C1442 C1443 1.369 . S
C1442 C1446 1.531 . S
C1443 C1442 1.369 . S
C1443 C1444 1.410 . S
C1443 C1451 1.503 . S
C1444 C1443 1.410 . S
C1444 C1445 1.392 . S
C1444 C1447 1.511 . S
C1445 C1441 1.376 . S
C1445 C1444 1.392 . S
C1445 H1457 0.929 . S
C1446 C1442 1.531 . S
C1446 H1458 0.960 . S
C1446 H1459 0.962 . S
C1446 H1460 0.960 . S
C1447 C1444 1.511 . S
C1447 H1461 0.961 . S
C1447 H1462 0.961 . S
C1447 H1463 0.961 . S
C1448 C1449 1.370 . S
C1448 C1450 1.363 . S
C1448 H1464 0.931 . S
C1449 C1448 1.370 . S
C1449 C1453 1.408 . S
C1450 C1448 1.363 . S
C1450 C1451 1.370 . S
C1450 C1454 1.524 . S
C1451 C1443 1.503 . S
C1451 C1450 1.370 . S
C1451 C1452 1.403 . S
C1452 C1451 1.403 . S
C1452 C1453 1.404 . S
C1452 C1455 1.539 . S
C1453 C1449 1.408 . S
C1453 C1452 1.404 . S
C1453 H1465 0.930 . S
C1454 C1450 1.524 . S
C1454 H1466 0.956 . S
C1454 H1467 0.961 . S
C1454 H1468 0.961 . S
C1455 C1452 1.539 . S
C1455 H1469 0.958 . S
C1455 H1470 0.961 . S
C1455 H1471 0.960 . S
H1456 C1440 0.931 . S
H1457 C1445 0.929 . S
H1458 C1446 0.960 . S
H1459 C1446 0.962 . S
H1460 C1446 0.960 . S
H1461 C1447 0.961 . S
H1462 C1447 0.961 . S
H1463 C1447 0.961 . S
H1464 C1448 0.931 . S
H1465 C1453 0.930 . S
H1466 C1454 0.956 . S
H1467 C1454 0.961 . S
H1468 C1454 0.961 . S
H1469 C1455 0.958 . S
H1470 C1455 0.961 . S
H1471 C1455 0.960 . S
C1472 C1473 1.391 . S
C1472 C1474 1.394 . S
C1472 H1488 0.931 . S
C1473 C1472 1.391 . S
C1473 C1477 1.376 . S
C1474 C1472 1.394 . S
C1474 C1475 1.369 . S
C1474 C1478 1.531 . S
C1475 C1474 1.369 . S
C1475 C1476 1.410 . S
C1475 C1483 1.503 . S
C1476 C1475 1.410 . S
C1476 C1477 1.392 . S
C1476 C1479 1.511 . S
C1477 C1473 1.376 . S
C1477 C1476 1.392 . S
C1477 H1489 0.929 . S
C1478 C1474 1.531 . S
C1478 H1490 0.960 . S
C1478 H1491 0.962 . S
C1478 H1492 0.960 . S
C1479 C1476 1.511 . S
C1479 H1493 0.961 . S
C1479 H1494 0.961 . S
C1479 H1495 0.961 . S
C1480 C1481 1.370 . S
C1480 C1482 1.363 . S
C1480 H1496 0.931 . S
C1481 C1480 1.370 . S
C1481 C1485 1.408 . S
C1482 C1480 1.363 . S
C1482 C1483 1.370 . S
C1482 C1486 1.524 . S
C1483 C1475 1.503 . S
C1483 C1482 1.370 . S
C1483 C1484 1.403 . S
C1484 C1483 1.403 . S
C1484 C1485 1.404 . S
C1484 C1487 1.539 . S
C1485 C1481 1.408 . S
C1485 C1484 1.404 . S
C1485 H1497 0.930 . S
C1486 C1482 1.524 . S
C1486 H1498 0.956 . S
C1486 H1499 0.961 . S
C1486 H1500 0.961 . S
C1487 C1484 1.539 . S
C1487 H1501 0.958 . S
C1487 H1502 0.961 . S
C1487 H1503 0.960 . S
H1488 C1472 0.931 . S
H1489 C1477 0.929 . S
H1490 C1478 0.960 . S
H1491 C1478 0.962 . S
H1492 C1478 0.960 . S
H1493 C1479 0.961 . S
H1494 C1479 0.961 . S
H1495 C1479 0.961 . S
H1496 C1480 0.931 . S
H1497 C1485 0.930 . S
H1498 C1486 0.956 . S
H1499 C1486 0.961 . S
H1500 C1486 0.961 . S
H1501 C1487 0.958 . S
H1502 C1487 0.961 . S
H1503 C1487 0.960 . S
C1504 C1505 1.391 1_655 S
C1504 C1506 1.394 . S
C1504 H1520 0.931 . S
C1505 C1504 1.391 1_455 S
C1505 C1509 1.376 . S
C1506 C1504 1.394 . S
C1506 C1507 1.369 1_655 S
C1506 C1510 1.531 . S
C1507 C1506 1.369 1_455 S
C1507 C1508 1.410 . S
C1507 C1515 1.503 1_565 S
C1508 C1507 1.410 . S
C1508 C1509 1.392 . S
C1508 C1511 1.511 . S
C1509 C1505 1.376 . S
C1509 C1508 1.392 . S
C1509 H1521 0.929 . S
C1510 C1506 1.531 . S
C1510 H1522 0.960 1_565 S
C1510 H1523 0.962 . S
C1510 H1524 0.960 . S
C1511 C1508 1.511 . S
C1511 H1525 0.961 . S
C1511 H1526 0.961 . S
C1511 H1527 0.961 . S
C1512 C1513 1.370 . S
C1512 C1514 1.363 . S
C1512 H1528 0.931 . S
C1513 C1512 1.370 . S
C1513 C1517 1.408 . S
C1514 C1512 1.363 . S
C1514 C1515 1.370 . S
C1514 C1518 1.490 1_445 S
C1515 C1507 1.503 1_545 S
C1515 C1514 1.370 . S
C1515 C1516 1.403 . S
C1516 C1515 1.403 . S
C1516 C1517 1.404 . S
C1516 C1519 1.539 . S
C1517 C1513 1.408 . S
C1517 C1516 1.404 . S
C1517 H1529 0.930 . S
C1518 C1514 1.490 1_665 S
C1518 H1530 0.997 . S
C1518 H1531 0.969 1_655 S
C1518 H1532 0.949 1_565 S
C1519 C1516 1.539 . S
C1519 H1533 0.958 . S
C1519 H1534 0.961 . S
C1519 H1535 0.960 . S
H1520 C1504 0.931 . S
H1521 C1509 0.929 . S
H1522 C1510 0.960 1_545 S
H1523 C1510 0.962 . S
H1524 C1510 0.960 . S
H1525 C1511 0.961 . S
H1526 C1511 0.961 . S
H1527 C1511 0.961 . S
H1528 C1512 0.931 . S
H1529 C1517 0.930 . S
H1530 C1518 0.997 . S
H1531 C1518 0.969 1_455 S
H1532 C1518 0.949 1_545 S
H1533 C1519 0.958 . S
H1534 C1519 0.961 . S
H1535 C1519 0.960 . S
C1536 C1537 1.391 . S
C1536 C1538 1.394 . S
C1536 H1552 0.931 . S
C1537 C1536 1.391 . S
C1537 C1541 1.376 . S
C1538 C1536 1.394 . S
C1538 C1539 1.369 . S
C1538 C1542 1.531 . S
C1539 C1538 1.369 . S
C1539 C1540 1.410 . S
C1539 C1547 1.503 . S
C1540 C1539 1.410 . S
C1540 C1541 1.392 . S
C1540 C1543 1.511 . S
C1541 C1537 1.376 . S
C1541 C1540 1.392 . S
C1541 H1553 0.929 . S
C1542 C1538 1.531 . S
C1542 H1554 0.960 . S
C1542 H1555 0.962 . S
C1542 H1556 0.960 . S
C1543 C1540 1.511 . S
C1543 H1557 0.961 . S
C1543 H1558 0.961 . S
C1543 H1559 0.961 . S
C1544 C1545 1.370 . S
C1544 C1546 1.363 . S
C1544 H1560 0.931 . S
C1545 C1544 1.370 . S
C1545 C1549 1.408 . S
C1546 C1544 1.363 . S
C1546 C1547 1.370 . S
C1546 C1550 1.524 . S
C1547 C1539 1.503 . S
C1547 C1546 1.370 . S
C1547 C1548 1.403 . S
C1548 C1547 1.403 . S
C1548 C1549 1.404 . S
C1548 C1551 1.539 . S
C1549 C1545 1.408 . S
C1549 C1548 1.404 . S
C1549 H1561 0.930 . S
C1550 C1546 1.524 . S
C1550 H1562 0.956 . S
C1550 H1563 0.961 . S
C1550 H1564 0.961 . S
C1551 C1548 1.539 . S
C1551 H1565 0.958 . S
C1551 H1566 0.961 . S
C1551 H1567 0.960 . S
H1552 C1536 0.931 . S
H1553 C1541 0.929 . S
H1554 C1542 0.960 . S
H1555 C1542 0.962 . S
H1556 C1542 0.960 . S
H1557 C1543 0.961 . S
H1558 C1543 0.961 . S
H1559 C1543 0.961 . S
H1560 C1544 0.931 . S
H1561 C1549 0.930 . S
H1562 C1550 0.956 . S
H1563 C1550 0.961 . S
H1564 C1550 0.961 . S
H1565 C1551 0.958 . S
H1566 C1551 0.961 . S
H1567 C1551 0.960 . S
C1568 C1569 1.391 . S
C1568 C1570 1.394 . S
C1568 H1584 0.931 . S
C1569 C1568 1.391 . S
C1569 C1573 1.376 1_554 S
C1570 C1568 1.394 . S
C1570 C1571 1.369 1_554 S
C1570 C1574 1.531 . S
C1571 C1570 1.369 1_556 S
C1571 C1572 1.410 . S
C1571 C1579 1.503 1_545 S
C1572 C1571 1.410 . S
C1572 C1573 1.392 . S
C1572 C1575 1.511 . S
C1573 C1569 1.376 1_556 S
C1573 C1572 1.392 . S
C1573 H1585 0.929 . S
C1574 C1570 1.531 . S
C1574 H1586 0.960 . S
C1574 H1587 0.962 . S
C1574 H1588 0.960 . S
C1575 C1572 1.511 . S
C1575 H1589 0.961 . S
C1575 H1590 0.940 1_545 S
C1575 H1591 0.961 . S
C1576 C1577 1.344 1_554 S
C1576 C1578 1.370 . S
C1576 H1592 0.951 . S
C1577 C1576 1.344 1_556 S
C1577 C1581 1.408 . S
C1578 C1576 1.370 . S
C1578 C1579 1.370 1_554 S
C1578 C1582 1.524 . S
C1579 C1571 1.503 1_565 S
C1579 C1578 1.370 1_556 S
C1579 C1580 1.403 . S
C1580 C1579 1.403 . S
C1580 C1581 1.404 . S
C1580 C1583 1.539 1_565 S
C1581 C1577 1.408 . S
C1581 C1580 1.404 . S
C1581 H1593 0.930 . S
C1582 C1578 1.524 . S
C1582 H1594 0.956 . S
C1582 H1595 0.961 . S
C1582 H1596 0.961 . S
C1583 C1580 1.539 1_545 S
C1583 H1597 0.958 . S
C1583 H1598 0.961 1_545 S
C1583 H1599 0.960 . S
H1584 C1568 0.931 . S
H1585 C1573 0.929 . S
H1586 C1574 0.960 . S
H1587 C1574 0.962 . S
H1588 C1574 0.960 . S
H1589 C1575 0.961 . S
H1590 C1575 0.940 1_565 S
H1591 C1575 0.961 . S
H1592 C1576 0.951 . S
H1593 C1581 0.930 . S
H1594 C1582 0.956 . S
H1595 C1582 0.961 . S
H1596 C1582 0.961 . S
H1597 C1583 0.958 . S
H1598 C1583 0.961 1_565 S
H1599 C1583 0.960 . S
C1600 C1601 1.391 . S
C1600 C1602 1.394 . S
C1600 H1616 0.931 . S
C1601 C1600 1.391 . S
C1601 C1605 1.376 . S
C1602 C1600 1.394 . S
C1602 C1603 1.369 . S
C1602 C1606 1.531 . S
C1603 C1602 1.369 . S
C1603 C1604 1.410 . S
C1603 C1611 1.503 . S
C1604 C1603 1.410 . S
C1604 C1605 1.392 . S
C1604 C1607 1.511 . S
C1605 C1601 1.376 . S
C1605 C1604 1.392 . S
C1605 H1617 0.929 . S
C1606 C1602 1.531 . S
C1606 H1618 0.960 . S
C1606 H1619 0.962 . S
C1606 H1620 0.960 . S
C1607 C1604 1.511 . S
C1607 H1621 0.961 . S
C1607 H1622 0.961 . S
C1607 H1623 0.961 . S
C1608 C1609 1.370 . S
C1608 C1610 1.363 . S
C1608 H1624 0.931 . S
C1609 C1608 1.370 . S
C1609 C1613 1.408 . S
C1610 C1608 1.363 . S
C1610 C1611 1.370 . S
C1610 C1614 1.524 . S
C1611 C1603 1.503 . S
C1611 C1610 1.370 . S
C1611 C1612 1.403 . S
C1612 C1611 1.403 . S
C1612 C1613 1.404 . S
C1612 C1615 1.539 . S
C1613 C1609 1.408 . S
C1613 C1612 1.404 . S
C1613 H1625 0.930 . S
C1614 C1610 1.524 . S
C1614 H1626 0.956 . S
C1614 H1627 0.961 . S
C1614 H1628 0.961 . S
C1615 C1612 1.539 . S
C1615 H1629 0.958 . S
C1615 H1630 0.961 . S
C1615 H1631 0.960 . S
H1616 C1600 0.931 . S
H1617 C1605 0.929 . S
H1618 C1606 0.960 . S
H1619 C1606 0.962 . S
H1620 C1606 0.960 . S
H1621 C1607 0.961 . S
H1622 C1607 0.961 . S
H1623 C1607 0.961 . S
H1624 C1608 0.931 . S
H1625 C1613 0.930 . S
H1626 C1614 0.956 . S
H1627 C1614 0.961 . S
H1628 C1614 0.961 . S
H1629 C1615 0.958 . S
H1630 C1615 0.961 . S
H1631 C1615 0.960 . S
C1632 C1633 1.391 . S
C1632 C1634 1.394 . S
C1632 H1648 0.931 . S
C1633 C1632 1.391 . S
C1633 C1637 1.376 . S
C1634 C1632 1.394 . S
C1634 C1635 1.369 . S
C1634 C1638 1.531 . S
C1635 C1634 1.369 . S
C1635 C1636 1.410 . S
C1635 C1643 1.503 1_565 S
C1636 C1635 1.410 . S
C1636 C1637 1.392 . S
C1636 C1639 1.511 . S
C1637 C1633 1.376 . S
C1637 C1636 1.392 . S
C1637 H1649 0.929 . S
C1638 C1634 1.531 . S
C1638 H1650 0.960 1_565 S
C1638 H1651 0.962 . S
C1638 H1652 0.960 . S
C1639 C1636 1.511 . S
C1639 H1653 0.961 . S
C1639 H1654 0.961 . S
C1639 H1655 0.961 . S
C1640 C1641 1.370 . S
C1640 C1642 1.363 . S
C1640 H1656 0.931 . S
C1641 C1640 1.370 . S
C1641 C1645 1.408 . S
C1642 C1640 1.363 . S
C1642 C1643 1.370 . S
C1642 C1646 1.524 1_545 S
C1643 C1635 1.503 1_545 S
C1643 C1642 1.370 . S
C1643 C1644 1.403 . S
C1644 C1643 1.403 . S
C1644 C1645 1.404 . S
C1644 C1647 1.539 . S
C1645 C1641 1.408 . S
C1645 C1644 1.404 . S
C1645 H1657 0.930 . S
C1646 C1642 1.524 1_565 S
C1646 H1658 0.956 . S
C1646 H1659 0.961 . S
C1646 H1660 0.961 1_565 S
C1647 C1644 1.539 . S
C1647 H1661 0.958 . S
C1647 H1662 0.961 . S
C1647 H1663 0.960 . S
H1648 C1632 0.931 . S
H1649 C1637 0.929 . S
H1650 C1638 0.960 1_545 S
H1651 C1638 0.962 . S
H1652 C1638 0.960 . S
H1653 C1639 0.961 . S
H1654 C1639 0.961 . S
H1655 C1639 0.961 . S
H1656 C1640 0.931 . S
H1657 C1645 0.930 . S
H1658 C1646 0.956 . S
H1659 C1646 0.961 . S
H1660 C1646 0.961 1_545 S
H1661 C1647 0.958 . S
H1662 C1647 0.961 . S
H1663 C1647 0.960 . S
C1664 C1665 1.391 . S
C1664 C1666 1.394 . S
C1664 H1680 0.931 . S
C1665 C1664 1.391 . S
C1665 C1669 1.376 . S
C1666 C1664 1.394 . S
C1666 C1667 1.369 . S
C1666 C1670 1.531 . S
C1667 C1666 1.369 . S
C1667 C1668 1.410 . S
C1667 C1675 1.503 . S
C1668 C1667 1.410 . S
C1668 C1669 1.392 . S
C1668 C1671 1.511 . S
C1669 C1665 1.376 . S
C1669 C1668 1.392 . S
C1669 H1681 0.929 . S
C1670 C1666 1.531 . S
C1670 H1682 0.960 . S
C1670 H1683 0.962 . S
C1670 H1684 0.960 . S
C1671 C1668 1.511 . S
C1671 H1685 0.961 . S
C1671 H1686 0.961 . S
C1671 H1687 0.961 . S
C1672 C1673 1.370 . S
C1672 C1674 1.363 . S
C1672 H1688 0.931 . S
C1673 C1672 1.370 . S
C1673 C1677 1.408 . S
C1674 C1672 1.363 . S
C1674 C1675 1.370 . S
C1674 C1678 1.524 . S
C1675 C1667 1.503 . S
C1675 C1674 1.370 . S
C1675 C1676 1.403 . S
C1676 C1675 1.403 . S
C1676 C1677 1.404 . S
C1676 C1679 1.539 . S
C1677 C1673 1.408 . S
C1677 C1676 1.404 . S
C1677 H1689 0.930 . S
C1678 C1674 1.524 . S
C1678 H1690 0.956 . S
C1678 H1691 0.961 . S
C1678 H1692 0.961 . S
C1679 C1676 1.539 . S
C1679 H1693 0.958 . S
C1679 H1694 0.961 . S
C1679 H1695 0.960 . S
H1680 C1664 0.931 . S
H1681 C1669 0.929 . S
H1682 C1670 0.960 . S
H1683 C1670 0.962 . S
H1684 C1670 0.960 . S
H1685 C1671 0.961 . S
H1686 C1671 0.961 . S
H1687 C1671 0.961 . S
H1688 C1672 0.931 . S
H1689 C1677 0.930 . S
H1690 C1678 0.956 . S
H1691 C1678 0.961 . S
H1692 C1678 0.961 . S
H1693 C1679 0.958 . S
H1694 C1679 0.961 . S
H1695 C1679 0.960 . S
C1696 C1697 1.412 1_554 S
C1696 C1698 1.394 . S
C1696 H1712 0.932 . S
C1697 C1696 1.412 1_556 S
C1697 C1701 1.351 1_655 S
C1698 C1696 1.394 . S
C1698 C1699 1.369 1_654 S
C1698 C1702 1.531 . S
C1699 C1698 1.369 1_456 S
C1699 C1700 1.410 . S
C1699 C1707 1.503 1_546 S
C1700 C1699 1.410 . S
C1700 C1701 1.392 . S
C1700 C1703 1.511 . S
C1701 C1697 1.351 1_455 S
C1701 C1700 1.392 . S
C1701 H1713 0.929 . S
C1702 C1698 1.531 . S
C1702 H1714 0.960 1_545 S
C1702 H1715 0.962 . S
C1702 H1716 0.960 . S
C1703 C1700 1.511 . S
C1703 H1717 0.961 . S
C1703 H1718 0.961 1_545 S
C1703 H1719 0.961 . S
C1704 C1705 1.370 . S
C1704 C1706 1.363 . S
C1704 H1720 0.931 . S
C1705 C1704 1.370 . S
C1705 C1709 1.408 1_554 S
C1706 C1704 1.363 . S
C1706 C1707 1.370 . S
C1706 C1710 1.524 1_565 S
C1707 C1699 1.503 1_564 S
C1707 C1706 1.370 . S
C1707 C1708 1.403 1_454 S
C1708 C1707 1.403 1_656 S
C1708 C1709 1.404 1_655 S
C1708 C1711 1.539 . S
C1709 C1705 1.408 1_556 S
C1709 C1708 1.404 1_455 S
C1709 H1721 0.930 1_455 S
C1710 C1706 1.524 1_545 S
C1710 H1722 0.956 . S
C1710 H1723 0.961 . S
C1710 H1724 0.961 1_545 S
C1711 C1708 1.539 . S
C1711 H1725 0.958 . S
C1711 H1726 0.961 . S
C1711 H1727 0.960 . S
H1712 C1696 0.932 . S
H1713 C1701 0.929 . S
H1714 C1702 0.960 1_565 S
H1715 C1702 0.962 . S
H1716 C1702 0.960 . S
H1717 C1703 0.961 . S
H1718 C1703 0.961 1_565 S
H1719 C1703 0.961 . S
H1720 C1704 0.931 . S
H1721 C1709 0.930 1_655 S
H1722 C1710 0.956 . S
H1723 C1710 0.961 . S
H1724 C1710 0.961 1_565 S
H1725 C1711 0.958 . S
H1726 C1711 0.961 . S
H1727 C1711 0.960 . S
C1728 C1729 1.391 . S
C1728 C1730 1.394 . S
C1728 H1744 0.931 . S
C1729 C1728 1.391 . S
C1729 C1733 1.376 . S
C1730 C1728 1.394 . S
C1730 C1731 1.369 . S
C1730 C1734 1.531 . S
C1731 C1730 1.369 . S
C1731 C1732 1.410 . S
C1731 C1739 1.503 . S
C1732 C1731 1.410 . S
C1732 C1733 1.392 . S
C1732 C1735 1.511 . S
C1733 C1729 1.376 . S
C1733 C1732 1.392 . S
C1733 H1745 0.929 . S
C1734 C1730 1.531 . S
C1734 H1746 0.960 . S
C1734 H1747 0.962 . S
C1734 H1748 0.960 . S
C1735 C1732 1.511 . S
C1735 H1749 0.961 . S
C1735 H1750 0.961 . S
C1735 H1751 0.961 . S
C1736 C1737 1.370 . S
C1736 C1738 1.363 . S
C1736 H1752 0.931 . S
C1737 C1736 1.370 . S
C1737 C1741 1.408 . S
C1738 C1736 1.363 . S
C1738 C1739 1.370 . S
C1738 C1742 1.524 . S
C1739 C1731 1.503 . S
C1739 C1738 1.370 . S
C1739 C1740 1.403 . S
C1740 C1739 1.403 . S
C1740 C1741 1.404 . S
C1740 C1743 1.539 . S
C1741 C1737 1.408 . S
C1741 C1740 1.404 . S
C1741 H1753 0.930 . S
C1742 C1738 1.524 . S
C1742 H1754 0.956 . S
C1742 H1755 0.961 . S
C1742 H1756 0.961 . S
C1743 C1740 1.539 . S
C1743 H1757 0.958 . S
C1743 H1758 0.961 . S
C1743 H1759 0.960 . S
H1744 C1728 0.931 . S
H1745 C1733 0.929 . S
H1746 C1734 0.960 . S
H1747 C1734 0.962 . S
H1748 C1734 0.960 . S
H1749 C1735 0.961 . S
H1750 C1735 0.961 . S
H1751 C1735 0.961 . S
H1752 C1736 0.931 . S
H1753 C1741 0.930 . S
H1754 C1742 0.956 . S
H1755 C1742 0.961 . S
H1756 C1742 0.961 . S
H1757 C1743 0.958 . S
H1758 C1743 0.961 . S
H1759 C1743 0.960 . S
C1760 C1761 1.391 . S
C1760 C1762 1.394 . S
C1760 H1776 0.931 . S
C1761 C1760 1.391 . S
C1761 C1765 1.376 . S
C1762 C1760 1.394 . S
C1762 C1763 1.369 . S
C1762 C1766 1.531 . S
C1763 C1762 1.369 . S
C1763 C1764 1.410 . S
C1763 C1771 1.503 . S
C1764 C1763 1.410 . S
C1764 C1765 1.392 . S
C1764 C1767 1.511 . S
C1765 C1761 1.376 . S
C1765 C1764 1.392 . S
C1765 H1777 0.929 . S
C1766 C1762 1.531 . S
C1766 H1778 0.960 . S
C1766 H1779 0.962 . S
C1766 H1780 0.960 . S
C1767 C1764 1.511 . S
C1767 H1781 0.961 . S
C1767 H1782 0.961 . S
C1767 H1783 0.961 . S
C1768 C1769 1.370 . S
C1768 C1770 1.363 . S
C1768 H1784 0.931 . S
C1769 C1768 1.370 . S
C1769 C1773 1.408 . S
C1770 C1768 1.363 . S
C1770 C1771 1.370 . S
C1770 C1774 1.524 . S
C1771 C1763 1.503 . S
C1771 C1770 1.370 . S
C1771 C1772 1.403 . S
C1772 C1771 1.403 . S
C1772 C1773 1.404 . S
C1772 C1775 1.539 . S
C1773 C1769 1.408 . S
C1773 C1772 1.404 . S
C1773 H1785 0.930 . S
C1774 C1770 1.524 . S
C1774 H1786 0.956 . S
C1774 H1787 0.961 . S
C1774 H1788 0.961 . S
C1775 C1772 1.539 . S
C1775 H1789 0.958 . S
C1775 H1790 0.961 . S
C1775 H1791 0.960 . S
H1776 C1760 0.931 . S
H1777 C1765 0.929 . S
H1778 C1766 0.960 . S
H1779 C1766 0.962 . S
H1780 C1766 0.960 . S
H1781 C1767 0.961 . S
H1782 C1767 0.961 . S
H1783 C1767 0.961 . S
H1784 C1768 0.931 . S
H1785 C1773 0.930 . S
H1786 C1774 0.956 . S
H1787 C1774 0.961 . S
H1788 C1774 0.961 . S
H1789 C1775 0.958 . S
H1790 C1775 0.961 . S
H1791 C1775 0.960 . S
C1792 C1793 1.391 . S
C1792 C1794 1.394 . S
C1792 H1808 0.931 . S
C1793 C1792 1.391 . S
C1793 C1797 1.376 . S
C1794 C1792 1.394 . S
C1794 C1795 1.369 . S
C1794 C1798 1.531 . S
C1795 C1794 1.369 . S
C1795 C1796 1.410 . S
C1795 C1803 1.503 . S
C1796 C1795 1.410 . S
C1796 C1797 1.392 . S
C1796 C1799 1.511 . S
C1797 C1793 1.376 . S
C1797 C1796 1.392 . S
C1797 H1809 0.929 . S
C1798 C1794 1.531 . S
C1798 H1810 0.960 . S
C1798 H1811 0.962 . S
C1798 H1812 0.960 . S
C1799 C1796 1.511 . S
C1799 H1813 0.961 . S
C1799 H1814 0.961 . S
C1799 H1815 0.961 . S
C1800 C1801 1.370 . S
C1800 C1802 1.363 . S
C1800 H1816 0.931 . S
C1801 C1800 1.370 . S
C1801 C1805 1.408 . S
C1802 C1800 1.363 . S
C1802 C1803 1.370 . S
C1802 C1806 1.524 . S
C1803 C1795 1.503 . S
C1803 C1802 1.370 . S
C1803 C1804 1.403 . S
C1804 C1803 1.403 . S
C1804 C1805 1.404 . S
C1804 C1807 1.539 . S
C1805 C1801 1.408 . S
C1805 C1804 1.404 . S
C1805 H1817 0.930 . S
C1806 C1802 1.524 . S
C1806 H1818 0.956 . S
C1806 H1819 0.961 . S
C1806 H1820 0.961 . S
C1807 C1804 1.539 . S
C1807 H1821 0.958 . S
C1807 H1822 0.961 . S
C1807 H1823 0.960 . S
H1808 C1792 0.931 . S
H1809 C1797 0.929 . S
H1810 C1798 0.960 . S
H1811 C1798 0.962 . S
H1812 C1798 0.960 . S
H1813 C1799 0.961 . S
H1814 C1799 0.961 . S
H1815 C1799 0.961 . S
H1816 C1800 0.931 . S
H1817 C1805 0.930 . S
H1818 C1806 0.956 . S
H1819 C1806 0.961 . S
H1820 C1806 0.961 . S
H1821 C1807 0.958 . S
H1822 C1807 0.961 . S
H1823 C1807 0.960 . S
C1824 C1825 1.391 . S
C1824 C1826 1.394 . S
C1824 H1840 0.931 . S
C1825 C1824 1.391 . S
C1825 C1829 1.376 . S
C1826 C1824 1.394 . S
C1826 C1827 1.369 . S
C1826 C1830 1.531 . S
C1827 C1826 1.369 . S
C1827 C1828 1.410 . S
C1827 C1835 1.503 . S
C1828 C1827 1.410 . S
C1828 C1829 1.392 . S
C1828 C1831 1.511 . S
C1829 C1825 1.376 . S
C1829 C1828 1.392 . S
C1829 H1841 0.929 . S
C1830 C1826 1.531 . S
C1830 H1842 0.960 . S
C1830 H1843 0.962 . S
C1830 H1844 0.960 . S
C1831 C1828 1.511 . S
C1831 H1845 0.961 . S
C1831 H1846 0.961 . S
C1831 H1847 0.961 . S
C1832 C1833 1.370 . S
C1832 C1834 1.363 . S
C1832 H1848 0.931 . S
C1833 C1832 1.370 . S
C1833 C1837 1.408 . S
C1834 C1832 1.363 . S
C1834 C1835 1.370 . S
C1834 C1838 1.524 . S
C1835 C1827 1.503 . S
C1835 C1834 1.370 . S
C1835 C1836 1.403 . S
C1836 C1835 1.403 . S
C1836 C1837 1.404 . S
C1836 C1839 1.539 . S
C1837 C1833 1.408 . S
C1837 C1836 1.404 . S
C1837 H1849 0.930 . S
C1838 C1834 1.524 . S
C1838 H1850 0.956 . S
C1838 H1851 0.961 . S
C1838 H1852 0.961 . S
C1839 C1836 1.539 . S
C1839 H1853 0.958 . S
C1839 H1854 0.961 . S
C1839 H1855 0.960 . S
H1840 C1824 0.931 . S
H1841 C1829 0.929 . S
H1842 C1830 0.960 . S
H1843 C1830 0.962 . S
H1844 C1830 0.960 . S
H1845 C1831 0.961 . S
H1846 C1831 0.961 . S
H1847 C1831 0.961 . S
H1848 C1832 0.931 . S
H1849 C1837 0.930 . S
H1850 C1838 0.956 . S
H1851 C1838 0.961 . S
H1852 C1838 0.961 . S
H1853 C1839 0.958 . S
H1854 C1839 0.961 . S
H1855 C1839 0.960 . S
C1856 C1857 1.391 1_556 S
C1856 C1858 1.394 . S
C1856 H1872 0.931 . S
C1857 C1856 1.391 1_554 S
C1857 C1861 1.376 . S
C1858 C1856 1.394 . S
C1858 C1859 1.369 . S
C1858 C1862 1.531 . S
C1859 C1858 1.369 . S
C1859 C1860 1.410 1_556 S
C1859 C1867 1.503 . S
C1860 C1859 1.410 1_554 S
C1860 C1861 1.392 . S
C1860 C1863 1.511 . S
C1861 C1857 1.376 . S
C1861 C1860 1.392 . S
C1861 H1873 0.929 . S
C1862 C1858 1.531 . S
C1862 H1874 0.960 . S
C1862 H1875 0.962 . S
C1862 H1876 0.960 . S
C1863 C1860 1.511 . S
C1863 H1877 0.961 . S
C1863 H1878 0.961 . S
C1863 H1879 0.961 . S
C1864 C1865 1.370 . S
C1864 C1866 1.366 . S
C1864 H1880 0.931 . S
C1865 C1864 1.370 . S
C1865 C1869 1.408 . S
C1866 C1864 1.366 . S
C1866 C1867 1.374 . S
C1866 C1870 1.518 1_556 S
C1867 C1859 1.503 . S
C1867 C1866 1.374 . S
C1867 C1868 1.403 . S
C1868 C1867 1.403 . S
C1868 C1869 1.404 . S
C1868 C1871 1.539 . S
C1869 C1865 1.408 . S
C1869 C1868 1.404 . S
C1869 H1881 0.930 . S
C1870 C1866 1.518 1_554 S
C1870 H1882 0.956 . S
C1870 H1883 0.961 . S
C1870 H1884 0.961 . S
C1871 C1868 1.539 . S
C1871 H1885 0.958 . S
C1871 H1886 0.961 . S
C1871 H1887 0.960 . S
H1872 C1856 0.931 . S
H1873 C1861 0.929 . S
H1874 C1862 0.960 . S
H1875 C1862 0.962 . S
H1876 C1862 0.960 . S
H1877 C1863 0.961 . S
H1878 C1863 0.961 . S
H1879 C1863 0.961 . S
H1880 C1864 0.931 . S
H1881 C1869 0.930 . S
H1882 C1870 0.956 . S
H1883 C1870 0.961 . S
H1884 C1870 0.961 . S
H1885 C1871 0.958 . S
H1886 C1871 0.961 . S
H1887 C1871 0.960 . S
C1888 C1889 1.391 . S
C1888 C1890 1.403 . S
C1888 H1904 0.931 . S
C1889 C1888 1.391 . S
C1889 C1893 1.376 . S
C1890 C1888 1.403 . S
C1890 C1891 1.379 . S
C1890 C1894 1.513 1_655 S
C1891 C1890 1.379 . S
C1891 C1892 1.410 . S
C1891 C1899 1.503 . S
C1892 C1891 1.410 . S
C1892 C1893 1.392 . S
C1892 C1895 1.511 . S
C1893 C1889 1.376 . S
C1893 C1892 1.392 . S
C1893 H1905 0.929 . S
C1894 C1890 1.513 1_455 S
C1894 H1906 0.960 . S
C1894 H1907 0.962 1_455 S
C1894 H1908 0.960 . S
C1895 C1892 1.511 . S
C1895 H1909 0.961 . S
C1895 H1910 0.961 . S
C1895 H1911 0.961 . S
C1896 C1897 1.366 1_655 S
C1896 C1898 1.363 . S
C1896 H1912 0.931 . S
C1897 C1896 1.366 1_455 S
C1897 C1901 1.412 . S
C1898 C1896 1.363 . S
C1898 C1899 1.370 . S
C1898 C1902 1.524 . S
C1899 C1891 1.503 . S
C1899 C1898 1.370 . S
C1899 C1900 1.403 1_655 S
C1900 C1899 1.403 1_455 S
C1900 C1901 1.404 . S
C1900 C1903 1.539 . S
C1901 C1897 1.412 . S
C1901 C1900 1.404 . S
C1901 H1913 0.930 . S
C1902 C1898 1.524 . S
C1902 H1914 0.956 . S
C1902 H1915 0.961 . S
C1902 H1916 0.961 . S
C1903 C1900 1.539 . S
C1903 H1917 0.958 . S
C1903 H1918 0.961 . S
C1903 H1919 0.960 . S
H1904 C1888 0.931 . S
H1905 C1893 0.929 . S
H1906 C1894 0.960 . S
H1907 C1894 0.962 1_655 S
H1908 C1894 0.960 . S
H1909 C1895 0.961 . S
H1910 C1895 0.961 . S
H1911 C1895 0.961 . S
H1912 C1896 0.931 . S
H1913 C1901 0.930 . S
H1914 C1902 0.956 . S
H1915 C1902 0.961 . S
H1916 C1902 0.961 . S
H1917 C1903 0.958 . S
H1918 C1903 0.961 . S
H1919 C1903 0.960 . S
C1920 C1921 1.376 1_654 S
C1920 C1922 1.394 . S
C1920 H1936 0.931 . S
C1921 C1920 1.376 1_456 S
C1921 C1925 1.389 . S
C1922 C1920 1.394 . S
C1922 C1923 1.369 . S
C1922 C1926 1.531 . S
C1923 C1922 1.369 . S
C1923 C1924 1.410 1_654 S
C1923 C1931 1.503 . S
C1924 C1923 1.410 1_456 S
C1924 C1925 1.392 . S
C1924 C1927 1.511 . S
C1925 C1921 1.389 . S
C1925 C1924 1.392 . S
C1925 H1937 0.929 . S
C1926 C1922 1.531 . S
C1926 H1938 0.960 . S
C1926 H1939 0.962 . S
C1926 H1940 0.960 . S
C1927 C1924 1.511 . S
C1927 H1941 0.961 . S
C1927 H1942 0.961 . S
C1927 H1943 0.961 . S
C1928 C1929 1.370 1_556 S
C1928 C1930 1.363 . S
C1928 H1944 0.931 . S
C1929 C1928 1.370 1_554 S
C1929 C1933 1.408 . S
C1930 C1928 1.363 . S
C1930 C1931 1.370 1_556 S
C1930 C1934 1.524 . S
C1931 C1923 1.503 . S
C1931 C1930 1.370 1_554 S
C1931 C1932 1.403 . S
C1932 C1931 1.403 . S
C1932 C1933 1.404 . S
C1932 C1935 1.539 1_655 S
C1933 C1929 1.408 . S
C1933 C1932 1.404 . S
C1933 H1945 0.932 . S
C1934 C1930 1.524 . S
C1934 H1946 0.956 . S
C1934 H1947 0.961 . S
C1934 H1948 0.961 . S
C1935 C1932 1.539 1_455 S
C1935 H1949 0.958 . S
C1935 H1950 0.961 . S
C1935 H1951 0.960 . S
H1936 C1920 0.931 . S
H1937 C1925 0.929 . S
H1938 C1926 0.960 . S
H1939 C1926 0.962 . S
H1940 C1926 0.960 . S
H1941 C1927 0.961 . S
H1942 C1927 0.961 . S
H1943 C1927 0.961 . S
H1944 C1928 0.931 . S
H1945 C1933 0.932 . S
H1946 C1934 0.956 . S
H1947 C1934 0.961 . S
H1948 C1934 0.961 . S
H1949 C1935 0.958 . S
H1950 C1935 0.961 . S
H1951 C1935 0.960 . S
C1952 C1953 1.391 . S
C1952 C1954 1.394 . S
C1952 H1968 0.931 . S
C1953 C1952 1.391 . S
C1953 C1957 1.376 . S
C1954 C1952 1.394 . S
C1954 C1955 1.369 . S
C1954 C1958 1.531 . S
C1955 C1954 1.369 . S
C1955 C1956 1.410 . S
C1955 C1963 1.503 . S
C1956 C1955 1.410 . S
C1956 C1957 1.392 . S
C1956 C1959 1.511 . S
C1957 C1953 1.376 . S
C1957 C1956 1.392 . S
C1957 H1969 0.929 . S
C1958 C1954 1.531 . S
C1958 H1970 0.960 . S
C1958 H1971 0.962 . S
C1958 H1972 0.960 . S
C1959 C1956 1.511 . S
C1959 H1973 0.961 . S
C1959 H1974 0.961 . S
C1959 H1975 0.961 . S
C1960 C1961 1.370 . S
C1960 C1962 1.363 . S
C1960 H1976 0.931 . S
C1961 C1960 1.370 . S
C1961 C1965 1.408 . S
C1962 C1960 1.363 . S
C1962 C1963 1.370 . S
C1962 C1966 1.524 . S
C1963 C1955 1.503 . S
C1963 C1962 1.370 . S
C1963 C1964 1.403 . S
C1964 C1963 1.403 . S
C1964 C1965 1.404 . S
C1964 C1967 1.539 . S
C1965 C1961 1.408 . S
C1965 C1964 1.404 . S
C1965 H1977 0.930 . S
C1966 C1962 1.524 . S
C1966 H1978 0.956 . S
C1966 H1979 0.961 . S
C1966 H1980 0.961 . S
C1967 C1964 1.539 . S
C1967 H1981 0.958 . S
C1967 H1982 0.961 . S
C1967 H1983 0.960 . S
H1968 C1952 0.931 . S
H1969 C1957 0.929 . S
H1970 C1958 0.960 . S
H1971 C1958 0.962 . S
H1972 C1958 0.960 . S
H1973 C1959 0.961 . S
H1974 C1959 0.961 . S
H1975 C1959 0.961 . S
H1976 C1960 0.931 . S
H1977 C1965 0.930 . S
H1978 C1966 0.956 . S
H1979 C1966 0.961 . S
H1980 C1966 0.961 . S
H1981 C1967 0.958 . S
H1982 C1967 0.961 . S
H1983 C1967 0.960 . S
C1984 C1985 1.391 . S
C1984 C1986 1.394 . S
C1984 H2000 0.931 . S
C1985 C1984 1.391 . S
C1985 C1989 1.376 . S
C1986 C1984 1.394 . S
C1986 C1987 1.369 . S
C1986 C1990 1.531 . S
C1987 C1986 1.369 . S
C1987 C1988 1.410 . S
C1987 C1995 1.503 . S
C1988 C1987 1.410 . S
C1988 C1989 1.392 . S
C1988 C1991 1.511 . S
C1989 C1985 1.376 . S
C1989 C1988 1.392 . S
C1989 H2001 0.929 . S
C1990 C1986 1.531 . S
C1990 H2002 0.960 . S
C1990 H2003 0.962 . S
C1990 H2004 0.960 . S
C1991 C1988 1.511 . S
C1991 H2005 0.961 . S
C1991 H2006 0.961 . S
C1991 H2007 0.961 . S
C1992 C1993 1.370 . S
C1992 C1994 1.363 . S
C1992 H2008 0.931 . S
C1993 C1992 1.370 . S
C1993 C1997 1.408 . S
C1994 C1992 1.363 . S
C1994 C1995 1.370 . S
C1994 C1998 1.524 . S
C1995 C1987 1.503 . S
C1995 C1994 1.370 . S
C1995 C1996 1.403 . S
C1996 C1995 1.403 . S
C1996 C1997 1.404 . S
C1996 C1999 1.539 . S
C1997 C1993 1.408 . S
C1997 C1996 1.404 . S
C1997 H2009 0.930 . S
C1998 C1994 1.524 . S
C1998 H2010 0.956 . S
C1998 H2011 0.961 . S
C1998 H2012 0.961 . S
C1999 C1996 1.539 . S
C1999 H2013 0.958 . S
C1999 H2014 0.961 . S
C1999 H2015 0.960 . S
H2000 C1984 0.931 . S
H2001 C1989 0.929 . S
H2002 C1990 0.960 . S
H2003 C1990 0.962 . S
H2004 C1990 0.960 . S
H2005 C1991 0.961 . S
H2006 C1991 0.961 . S
H2007 C1991 0.961 . S
H2008 C1992 0.931 . S
H2009 C1997 0.930 . S
H2010 C1998 0.956 . S
H2011 C1998 0.961 . S
H2012 C1998 0.961 . S
H2013 C1999 0.958 . S
H2014 C1999 0.961 . S
H2015 C1999 0.960 . S
C2016 C2017 1.391 . S
C2016 C2018 1.394 . S
C2016 H2032 0.931 . S
C2017 C2016 1.391 . S
C2017 C2021 1.376 . S
C2018 C2016 1.394 . S
C2018 C2019 1.369 . S
C2018 C2022 1.531 . S
C2019 C2018 1.369 . S
C2019 C2020 1.410 . S
C2019 C2027 1.503 . S
C2020 C2019 1.410 . S
C2020 C2021 1.392 . S
C2020 C2023 1.511 . S
C2021 C2017 1.376 . S
C2021 C2020 1.392 . S
C2021 H2033 0.929 . S
C2022 C2018 1.531 . S
C2022 H2034 0.960 . S
C2022 H2035 0.962 . S
C2022 H2036 0.960 . S
C2023 C2020 1.511 . S
C2023 H2037 0.961 . S
C2023 H2038 0.961 . S
C2023 H2039 0.961 . S
C2024 C2025 1.370 . S
C2024 C2026 1.363 . S
C2024 H2040 0.931 . S
C2025 C2024 1.370 . S
C2025 C2029 1.408 . S
C2026 C2024 1.363 . S
C2026 C2027 1.370 . S
C2026 C2030 1.524 . S
C2027 C2019 1.503 . S
C2027 C2026 1.370 . S
C2027 C2028 1.403 . S
C2028 C2027 1.403 . S
C2028 C2029 1.404 . S
C2028 C2031 1.539 . S
C2029 C2025 1.408 . S
C2029 C2028 1.404 . S
C2029 H2041 0.930 . S
C2030 C2026 1.524 . S
C2030 H2042 0.956 . S
C2030 H2043 0.961 . S
C2030 H2044 0.961 . S
C2031 C2028 1.539 . S
C2031 H2045 0.958 . S
C2031 H2046 0.961 . S
C2031 H2047 0.960 . S
H2032 C2016 0.931 . S
H2033 C2021 0.929 . S
H2034 C2022 0.960 . S
H2035 C2022 0.962 . S
H2036 C2022 0.960 . S
H2037 C2023 0.961 . S
H2038 C2023 0.961 . S
H2039 C2023 0.961 . S
H2040 C2024 0.931 . S
H2041 C2029 0.930 . S
H2042 C2030 0.956 . S
H2043 C2030 0.961 . S
H2044 C2030 0.961 . S
H2045 C2031 0.958 . S
H2046 C2031 0.961 . S
H2047 C2031 0.960 . S
C2048 C2049 1.391 . S
C2048 C2050 1.394 . S
C2048 H2064 0.931 . S
C2049 C2048 1.391 . S
C2049 C2053 1.376 . S
C2050 C2048 1.394 . S
C2050 C2051 1.369 . S
C2050 C2054 1.531 . S
C2051 C2050 1.369 . S
C2051 C2052 1.410 . S
C2051 C2059 1.503 . S
C2052 C2051 1.410 . S
C2052 C2053 1.392 . S
C2052 C2055 1.511 . S
C2053 C2049 1.376 . S
C2053 C2052 1.392 . S
C2053 H2065 0.929 . S
C2054 C2050 1.531 . S
C2054 H2066 0.960 . S
C2054 H2067 0.962 . S
C2054 H2068 0.960 . S
C2055 C2052 1.511 . S
C2055 H2069 0.961 . S
C2055 H2070 0.961 . S
C2055 H2071 0.961 . S
C2056 C2057 1.370 . S
C2056 C2058 1.363 . S
C2056 H2072 0.931 . S
C2057 C2056 1.370 . S
C2057 C2061 1.408 . S
C2058 C2056 1.363 . S
C2058 C2059 1.370 . S
C2058 C2062 1.524 . S
C2059 C2051 1.503 . S
C2059 C2058 1.370 . S
C2059 C2060 1.403 . S
C2060 C2059 1.403 . S
C2060 C2061 1.404 . S
C2060 C2063 1.539 . S
C2061 C2057 1.408 . S
C2061 C2060 1.404 . S
C2061 H2073 0.930 . S
C2062 C2058 1.524 . S
C2062 H2074 0.956 . S
C2062 H2075 0.961 . S
C2062 H2076 0.961 . S
C2063 C2060 1.539 . S
C2063 H2077 0.958 . S
C2063 H2078 0.961 . S
C2063 H2079 0.960 . S
H2064 C2048 0.931 . S
H2065 C2053 0.929 . S
H2066 C2054 0.960 . S
H2067 C2054 0.962 . S
H2068 C2054 0.960 . S
H2069 C2055 0.961 . S
H2070 C2055 0.961 . S
H2071 C2055 0.961 . S
H2072 C2056 0.931 . S
H2073 C2061 0.930 . S
H2074 C2062 0.956 . S
H2075 C2062 0.961 . S
H2076 C2062 0.961 . S
H2077 C2063 0.958 . S
H2078 C2063 0.961 . S
H2079 C2063 0.960 . S
C2080 C2081 1.391 . S
C2080 C2082 1.394 . S
C2080 H2096 0.931 . S
C2081 C2080 1.391 . S
C2081 C2085 1.376 . S
C2082 C2080 1.394 . S
C2082 C2083 1.369 . S
C2082 C2086 1.531 . S
C2083 C2082 1.369 . S
C2083 C2084 1.410 . S
C2083 C2091 1.503 . S
C2084 C2083 1.410 . S
C2084 C2085 1.392 . S
C2084 C2087 1.511 . S
C2085 C2081 1.376 . S
C2085 C2084 1.392 . S
C2085 H2097 0.929 . S
C2086 C2082 1.531 . S
C2086 H2098 0.960 . S
C2086 H2099 0.962 . S
C2086 H2100 0.960 . S
C2087 C2084 1.511 . S
C2087 H2101 0.961 . S
C2087 H2102 0.961 . S
C2087 H2103 0.961 . S
C2088 C2089 1.370 . S
C2088 C2090 1.363 . S
C2088 H2104 0.931 . S
C2089 C2088 1.370 . S
C2089 C2093 1.408 . S
C2090 C2088 1.363 . S
C2090 C2091 1.370 . S
C2090 C2094 1.524 . S
C2091 C2083 1.503 . S
C2091 C2090 1.370 . S
C2091 C2092 1.403 . S
C2092 C2091 1.403 . S
C2092 C2093 1.404 . S
C2092 C2095 1.539 . S
C2093 C2089 1.408 . S
C2093 C2092 1.404 . S
C2093 H2105 0.930 . S
C2094 C2090 1.524 . S
C2094 H2106 0.956 . S
C2094 H2107 0.961 . S
C2094 H2108 0.961 . S
C2095 C2092 1.539 . S
C2095 H2109 0.958 . S
C2095 H2110 0.961 . S
C2095 H2111 0.960 . S
H2096 C2080 0.931 . S
H2097 C2085 0.929 . S
H2098 C2086 0.960 . S
H2099 C2086 0.962 . S
H2100 C2086 0.960 . S
H2101 C2087 0.961 . S
H2102 C2087 0.961 . S
H2103 C2087 0.961 . S
H2104 C2088 0.931 . S
H2105 C2093 0.930 . S
H2106 C2094 0.956 . S
H2107 C2094 0.961 . S
H2108 C2094 0.961 . S
H2109 C2095 0.958 . S
H2110 C2095 0.961 . S
H2111 C2095 0.960 . S
C2112 C2113 1.391 . S
C2112 C2114 1.394 . S
C2112 H2128 0.931 . S
C2113 C2112 1.391 . S
C2113 C2117 1.376 . S
C2114 C2112 1.394 . S
C2114 C2115 1.369 . S
C2114 C2118 1.531 . S
C2115 C2114 1.369 . S
C2115 C2116 1.410 . S
C2115 C2123 1.503 . S
C2116 C2115 1.410 . S
C2116 C2117 1.392 . S
C2116 C2119 1.511 . S
C2117 C2113 1.376 . S
C2117 C2116 1.392 . S
C2117 H2129 0.929 . S
C2118 C2114 1.531 . S
C2118 H2130 0.960 . S
C2118 H2131 0.962 . S
C2118 H2132 0.960 . S
C2119 C2116 1.511 . S
C2119 H2133 0.961 . S
C2119 H2134 0.961 . S
C2119 H2135 0.961 . S
C2120 C2121 1.370 . S
C2120 C2122 1.363 . S
C2120 H2136 0.931 . S
C2121 C2120 1.370 . S
C2121 C2125 1.408 . S
C2122 C2120 1.363 . S
C2122 C2123 1.370 . S
C2122 C2126 1.524 . S
C2123 C2115 1.503 . S
C2123 C2122 1.370 . S
C2123 C2124 1.403 . S
C2124 C2123 1.403 . S
C2124 C2125 1.404 . S
C2124 C2127 1.539 . S
C2125 C2121 1.408 . S
C2125 C2124 1.404 . S
C2125 H2137 0.930 . S
C2126 C2122 1.524 . S
C2126 H2138 0.956 . S
C2126 H2139 0.961 . S
C2126 H2140 0.961 . S
C2127 C2124 1.539 . S
C2127 H2141 0.958 . S
C2127 H2142 0.961 . S
C2127 H2143 0.960 . S
H2128 C2112 0.931 . S
H2129 C2117 0.929 . S
H2130 C2118 0.960 . S
H2131 C2118 0.962 . S
H2132 C2118 0.960 . S
H2133 C2119 0.961 . S
H2134 C2119 0.961 . S
H2135 C2119 0.961 . S
H2136 C2120 0.931 . S
H2137 C2125 0.930 . S
H2138 C2126 0.956 . S
H2139 C2126 0.961 . S
H2140 C2126 0.961 . S
H2141 C2127 0.958 . S
H2142 C2127 0.961 . S
H2143 C2127 0.960 . S
C2144 C2145 1.391 . S
C2144 C2146 1.394 . S
C2144 H2160 0.931 . S
C2145 C2144 1.391 . S
C2145 C2149 1.376 . S
C2146 C2144 1.394 . S
C2146 C2147 1.369 . S
C2146 C2150 1.531 . S
C2147 C2146 1.369 . S
C2147 C2148 1.410 . S
C2147 C2155 1.503 . S
C2148 C2147 1.410 . S
C2148 C2149 1.392 . S
C2148 C2151 1.511 . S
C2149 C2145 1.376 . S
C2149 C2148 1.392 . S
C2149 H2161 0.929 . S
C2150 C2146 1.531 . S
C2150 H2162 0.960 . S
C2150 H2163 0.962 . S
C2150 H2164 0.960 . S
C2151 C2148 1.511 . S
C2151 H2165 0.961 . S
C2151 H2166 0.961 . S
C2151 H2167 0.961 . S
C2152 C2153 1.370 . S
C2152 C2154 1.363 . S
C2152 H2168 0.931 . S
C2153 C2152 1.370 . S
C2153 C2157 1.408 . S
C2154 C2152 1.363 . S
C2154 C2155 1.370 . S
C2154 C2158 1.524 . S
C2155 C2147 1.503 . S
C2155 C2154 1.370 . S
C2155 C2156 1.403 . S
C2156 C2155 1.403 . S
C2156 C2157 1.404 . S
C2156 C2159 1.539 . S
C2157 C2153 1.408 . S
C2157 C2156 1.404 . S
C2157 H2169 0.930 . S
C2158 C2154 1.524 . S
C2158 H2170 0.956 . S
C2158 H2171 0.961 . S
C2158 H2172 0.961 . S
C2159 C2156 1.539 . S
C2159 H2173 0.958 . S
C2159 H2174 0.961 . S
C2159 H2175 0.960 . S
H2160 C2144 0.931 . S
H2161 C2149 0.929 . S
H2162 C2150 0.960 . S
H2163 C2150 0.962 . S
H2164 C2150 0.960 . S
H2165 C2151 0.961 . S
H2166 C2151 0.961 . S
H2167 C2151 0.961 . S
H2168 C2152 0.931 . S
H2169 C2157 0.930 . S
H2170 C2158 0.956 . S
H2171 C2158 0.961 . S
H2172 C2158 0.961 . S
H2173 C2159 0.958 . S
H2174 C2159 0.961 . S
H2175 C2159 0.960 . S
C2176 C2177 1.391 . S
C2176 C2178 1.394 . S
C2176 H2192 0.931 . S
C2177 C2176 1.391 . S
C2177 C2181 1.376 . S
C2178 C2176 1.394 . S
C2178 C2179 1.369 . S
C2178 C2182 1.531 . S
C2179 C2178 1.369 . S
C2179 C2180 1.410 . S
C2179 C2187 1.503 . S
C2180 C2179 1.410 . S
C2180 C2181 1.392 . S
C2180 C2183 1.511 . S
C2181 C2177 1.376 . S
C2181 C2180 1.392 . S
C2181 H2193 0.929 . S
C2182 C2178 1.531 . S
C2182 H2194 0.960 . S
C2182 H2195 0.962 . S
C2182 H2196 0.960 . S
C2183 C2180 1.511 . S
C2183 H2197 0.961 . S
C2183 H2198 0.961 . S
C2183 H2199 0.961 . S
C2184 C2185 1.370 . S
C2184 C2186 1.363 . S
C2184 H2200 0.931 . S
C2185 C2184 1.370 . S
C2185 C2189 1.408 . S
C2186 C2184 1.363 . S
C2186 C2187 1.370 . S
C2186 C2190 1.524 . S
C2187 C2179 1.503 . S
C2187 C2186 1.370 . S
C2187 C2188 1.403 . S
C2188 C2187 1.403 . S
C2188 C2189 1.404 . S
C2188 C2191 1.539 . S
C2189 C2185 1.408 . S
C2189 C2188 1.404 . S
C2189 H2201 0.930 . S
C2190 C2186 1.524 . S
C2190 H2202 0.956 . S
C2190 H2203 0.961 . S
C2190 H2204 0.961 . S
C2191 C2188 1.539 . S
C2191 H2205 0.958 . S
C2191 H2206 0.961 . S
C2191 H2207 0.960 . S
H2192 C2176 0.931 . S
H2193 C2181 0.929 . S
H2194 C2182 0.960 . S
H2195 C2182 0.962 . S
H2196 C2182 0.960 . S
H2197 C2183 0.961 . S
H2198 C2183 0.961 . S
H2199 C2183 0.961 . S
H2200 C2184 0.931 . S
H2201 C2189 0.930 . S
H2202 C2190 0.956 . S
H2203 C2190 0.961 . S
H2204 C2190 0.961 . S
H2205 C2191 0.958 . S
H2206 C2191 0.961 . S
H2207 C2191 0.960 . S
C2208 C2209 1.391 . S
C2208 C2210 1.394 . S
C2208 H2224 0.931 . S
C2209 C2208 1.391 . S
C2209 C2213 1.376 . S
C2210 C2208 1.394 . S
C2210 C2211 1.369 . S
C2210 C2214 1.531 . S
C2211 C2210 1.369 . S
C2211 C2212 1.410 . S
C2211 C2219 1.503 . S
C2212 C2211 1.410 . S
C2212 C2213 1.392 . S
C2212 C2215 1.511 . S
C2213 C2209 1.376 . S
C2213 C2212 1.392 . S
C2213 H2225 0.929 . S
C2214 C2210 1.531 . S
C2214 H2226 0.960 . S
C2214 H2227 0.962 . S
C2214 H2228 0.960 . S
C2215 C2212 1.511 . S
C2215 H2229 0.961 . S
C2215 H2230 0.961 . S
C2215 H2231 0.961 . S
C2216 C2217 1.370 . S
C2216 C2218 1.363 . S
C2216 H2232 0.931 . S
C2217 C2216 1.370 . S
C2217 C2221 1.408 . S
C2218 C2216 1.363 . S
C2218 C2219 1.370 . S
C2218 C2222 1.524 . S
C2219 C2211 1.503 . S
C2219 C2218 1.370 . S
C2219 C2220 1.403 . S
C2220 C2219 1.403 . S
C2220 C2221 1.404 . S
C2220 C2223 1.539 . S
C2221 C2217 1.408 . S
C2221 C2220 1.404 . S
C2221 H2233 0.930 . S
C2222 C2218 1.524 . S
C2222 H2234 0.956 . S
C2222 H2235 0.961 . S
C2222 H2236 0.961 . S
C2223 C2220 1.539 . S
C2223 H2237 0.958 . S
C2223 H2238 0.961 . S
C2223 H2239 0.960 . S
H2224 C2208 0.931 . S
H2225 C2213 0.929 . S
H2226 C2214 0.960 . S
H2227 C2214 0.962 . S
H2228 C2214 0.960 . S
H2229 C2215 0.961 . S
H2230 C2215 0.961 . S
H2231 C2215 0.961 . S
H2232 C2216 0.931 . S
H2233 C2221 0.930 . S
H2234 C2222 0.956 . S
H2235 C2222 0.961 . S
H2236 C2222 0.961 . S
H2237 C2223 0.958 . S
H2238 C2223 0.961 . S
H2239 C2223 0.960 . S
C2240 C2241 1.391 . S
C2240 C2242 1.394 . S
C2240 H2256 0.931 . S
C2241 C2240 1.391 . S
C2241 C2245 1.376 . S
C2242 C2240 1.394 . S
C2242 C2243 1.369 . S
C2242 C2246 1.531 . S
C2243 C2242 1.369 . S
C2243 C2244 1.410 . S
C2243 C2251 1.503 . S
C2244 C2243 1.410 . S
C2244 C2245 1.392 . S
C2244 C2247 1.511 . S
C2245 C2241 1.376 . S
C2245 C2244 1.392 . S
C2245 H2257 0.929 . S
C2246 C2242 1.531 . S
C2246 H2258 0.960 . S
C2246 H2259 0.962 . S
C2246 H2260 0.960 . S
C2247 C2244 1.511 . S
C2247 H2261 0.961 . S
C2247 H2262 0.961 . S
C2247 H2263 0.961 . S
C2248 C2249 1.370 . S
C2248 C2250 1.363 . S
C2248 H2264 0.931 . S
C2249 C2248 1.370 . S
C2249 C2253 1.408 . S
C2250 C2248 1.363 . S
C2250 C2251 1.370 . S
C2250 C2254 1.524 . S
C2251 C2243 1.503 . S
C2251 C2250 1.370 . S
C2251 C2252 1.403 . S
C2252 C2251 1.403 . S
C2252 C2253 1.404 . S
C2252 C2255 1.539 . S
C2253 C2249 1.408 . S
C2253 C2252 1.404 . S
C2253 H2265 0.930 . S
C2254 C2250 1.524 . S
C2254 H2266 0.956 . S
C2254 H2267 0.961 . S
C2254 H2268 0.961 . S
C2255 C2252 1.539 . S
C2255 H2269 0.958 . S
C2255 H2270 0.961 . S
C2255 H2271 0.960 . S
H2256 C2240 0.931 . S
H2257 C2245 0.929 . S
H2258 C2246 0.960 . S
H2259 C2246 0.962 . S
H2260 C2246 0.960 . S
H2261 C2247 0.961 . S
H2262 C2247 0.961 . S
H2263 C2247 0.961 . S
H2264 C2248 0.931 . S
H2265 C2253 0.930 . S
H2266 C2254 0.956 . S
H2267 C2254 0.961 . S
H2268 C2254 0.961 . S
H2269 C2255 0.958 . S
H2270 C2255 0.961 . S
H2271 C2255 0.960 . S
C2272 C2273 1.391 . S
C2272 C2274 1.394 . S
C2272 H2288 0.931 . S
C2273 C2272 1.391 . S
C2273 C2277 1.376 . S
C2274 C2272 1.394 . S
C2274 C2275 1.369 . S
C2274 C2278 1.531 . S
C2275 C2274 1.369 . S
C2275 C2276 1.410 . S
C2275 C2283 1.503 . S
C2276 C2275 1.410 . S
C2276 C2277 1.392 . S
C2276 C2279 1.511 . S
C2277 C2273 1.376 . S
C2277 C2276 1.392 . S
C2277 H2289 0.929 . S
C2278 C2274 1.531 . S
C2278 H2290 0.960 . S
C2278 H2291 0.962 . S
C2278 H2292 0.960 . S
C2279 C2276 1.511 . S
C2279 H2293 0.961 . S
C2279 H2294 0.961 . S
C2279 H2295 0.961 . S
C2280 C2281 1.370 . S
C2280 C2282 1.363 . S
C2280 H2296 0.931 . S
C2281 C2280 1.370 . S
C2281 C2285 1.408 . S
C2282 C2280 1.363 . S
C2282 C2283 1.370 . S
C2282 C2286 1.524 . S
C2283 C2275 1.503 . S
C2283 C2282 1.370 . S
C2283 C2284 1.403 . S
C2284 C2283 1.403 . S
C2284 C2285 1.404 . S
C2284 C2287 1.539 . S
C2285 C2281 1.408 . S
C2285 C2284 1.404 . S
C2285 H2297 0.930 . S
C2286 C2282 1.524 . S
C2286 H2298 0.956 . S
C2286 H2299 0.961 . S
C2286 H2300 0.961 . S
C2287 C2284 1.539 . S
C2287 H2301 0.958 . S
C2287 H2302 0.961 . S
C2287 H2303 0.960 . S
H2288 C2272 0.931 . S
H2289 C2277 0.929 . S
H2290 C2278 0.960 . S
H2291 C2278 0.962 . S
H2292 C2278 0.960 . S
H2293 C2279 0.961 . S
H2294 C2279 0.961 . S
H2295 C2279 0.961 . S
H2296 C2280 0.931 . S
H2297 C2285 0.930 . S
H2298 C2286 0.956 . S
H2299 C2286 0.961 . S
H2300 C2286 0.961 . S
H2301 C2287 0.958 . S
H2302 C2287 0.961 . S
H2303 C2287 0.960 . S
C2304 C2305 1.391 . S
C2304 C2306 1.394 . S
C2304 H2320 0.931 . S
C2305 C2304 1.391 . S
C2305 C2309 1.376 . S
C2306 C2304 1.394 . S
C2306 C2307 1.369 . S
C2306 C2310 1.531 . S
C2307 C2306 1.369 . S
C2307 C2308 1.410 . S
C2307 C2315 1.503 . S
C2308 C2307 1.410 . S
C2308 C2309 1.392 . S
C2308 C2311 1.511 . S
C2309 C2305 1.376 . S
C2309 C2308 1.392 . S
C2309 H2321 0.929 . S
C2310 C2306 1.531 . S
C2310 H2322 0.960 . S
C2310 H2323 0.962 . S
C2310 H2324 0.960 . S
C2311 C2308 1.511 . S
C2311 H2325 0.961 . S
C2311 H2326 0.961 . S
C2311 H2327 0.961 . S
C2312 C2313 1.370 . S
C2312 C2314 1.363 . S
C2312 H2328 0.931 . S
C2313 C2312 1.370 . S
C2313 C2317 1.408 . S
C2314 C2312 1.363 . S
C2314 C2315 1.370 . S
C2314 C2318 1.524 . S
C2315 C2307 1.503 . S
C2315 C2314 1.370 . S
C2315 C2316 1.403 . S
C2316 C2315 1.403 . S
C2316 C2317 1.404 . S
C2316 C2319 1.539 . S
C2317 C2313 1.408 . S
C2317 C2316 1.404 . S
C2317 H2329 0.930 . S
C2318 C2314 1.524 . S
C2318 H2330 0.956 . S
C2318 H2331 0.961 . S
C2318 H2332 0.961 . S
C2319 C2316 1.539 . S
C2319 H2333 0.958 . S
C2319 H2334 0.961 . S
C2319 H2335 0.960 . S
H2320 C2304 0.931 . S
H2321 C2309 0.929 . S
H2322 C2310 0.960 . S
H2323 C2310 0.962 . S
H2324 C2310 0.960 . S
H2325 C2311 0.961 . S
H2326 C2311 0.961 . S
H2327 C2311 0.961 . S
H2328 C2312 0.931 . S
H2329 C2317 0.930 . S
H2330 C2318 0.956 . S
H2331 C2318 0.961 . S
H2332 C2318 0.961 . S
H2333 C2319 0.958 . S
H2334 C2319 0.961 . S
H2335 C2319 0.960 . S
C2336 C2337 1.391 . S
C2336 C2338 1.394 . S
C2336 H2352 0.931 . S
C2337 C2336 1.391 . S
C2337 C2341 1.376 . S
C2338 C2336 1.394 . S
C2338 C2339 1.369 . S
C2338 C2342 1.531 . S
C2339 C2338 1.369 . S
C2339 C2340 1.410 . S
C2339 C2347 1.503 . S
C2340 C2339 1.410 . S
C2340 C2341 1.392 . S
C2340 C2343 1.511 . S
C2341 C2337 1.376 . S
C2341 C2340 1.392 . S
C2341 H2353 0.929 . S
C2342 C2338 1.531 . S
C2342 H2354 0.960 . S
C2342 H2355 0.962 . S
C2342 H2356 0.960 . S
C2343 C2340 1.511 . S
C2343 H2357 0.961 . S
C2343 H2358 0.961 . S
C2343 H2359 0.961 . S
C2344 C2345 1.370 . S
C2344 C2346 1.363 . S
C2344 H2360 0.931 . S
C2345 C2344 1.370 . S
C2345 C2349 1.408 . S
C2346 C2344 1.363 . S
C2346 C2347 1.370 . S
C2346 C2350 1.524 . S
C2347 C2339 1.503 . S
C2347 C2346 1.370 . S
C2347 C2348 1.403 . S
C2348 C2347 1.403 . S
C2348 C2349 1.404 . S
C2348 C2351 1.539 . S
C2349 C2345 1.408 . S
C2349 C2348 1.404 . S
C2349 H2361 0.930 . S
C2350 C2346 1.524 . S
C2350 H2362 0.956 . S
C2350 H2363 0.961 . S
C2350 H2364 0.961 . S
C2351 C2348 1.539 . S
C2351 H2365 0.958 . S
C2351 H2366 0.961 . S
C2351 H2367 0.960 . S
H2352 C2336 0.931 . S
H2353 C2341 0.929 . S
H2354 C2342 0.960 . S
H2355 C2342 0.962 . S
H2356 C2342 0.960 . S
H2357 C2343 0.961 . S
H2358 C2343 0.961 . S
H2359 C2343 0.961 . S
H2360 C2344 0.931 . S
H2361 C2349 0.930 . S
H2362 C2350 0.956 . S
H2363 C2350 0.961 . S
H2364 C2350 0.961 . S
H2365 C2351 0.958 . S
H2366 C2351 0.961 . S
H2367 C2351 0.960 . S
C2368 C2369 1.391 . S
C2368 C2370 1.394 . S
C2368 H2384 0.931 . S
C2369 C2368 1.391 . S
C2369 C2373 1.376 . S
C2370 C2368 1.394 . S
C2370 C2371 1.369 . S
C2370 C2374 1.531 . S
C2371 C2370 1.369 . S
C2371 C2372 1.410 . S
C2371 C2379 1.503 . S
C2372 C2371 1.410 . S
C2372 C2373 1.392 . S
C2372 C2375 1.511 . S
C2373 C2369 1.376 . S
C2373 C2372 1.392 . S
C2373 H2385 0.929 . S
C2374 C2370 1.531 . S
C2374 H2386 0.960 . S
C2374 H2387 0.962 . S
C2374 H2388 0.960 . S
C2375 C2372 1.511 . S
C2375 H2389 0.961 . S
C2375 H2390 0.961 . S
C2375 H2391 0.961 . S
C2376 C2377 1.370 . S
C2376 C2378 1.363 . S
C2376 H2392 0.931 . S
C2377 C2376 1.370 . S
C2377 C2381 1.408 . S
C2378 C2376 1.363 . S
C2378 C2379 1.370 . S
C2378 C2382 1.524 . S
C2379 C2371 1.503 . S
C2379 C2378 1.370 . S
C2379 C2380 1.403 . S
C2380 C2379 1.403 . S
C2380 C2381 1.404 . S
C2380 C2383 1.539 . S
C2381 C2377 1.408 . S
C2381 C2380 1.404 . S
C2381 H2393 0.930 . S
C2382 C2378 1.524 . S
C2382 H2394 0.956 . S
C2382 H2395 0.961 . S
C2382 H2396 0.961 . S
C2383 C2380 1.539 . S
C2383 H2397 0.958 . S
C2383 H2398 0.961 . S
C2383 H2399 0.960 . S
H2384 C2368 0.931 . S
H2385 C2373 0.929 . S
H2386 C2374 0.960 . S
H2387 C2374 0.962 . S
H2388 C2374 0.960 . S
H2389 C2375 0.961 . S
H2390 C2375 0.961 . S
H2391 C2375 0.961 . S
H2392 C2376 0.931 . S
H2393 C2381 0.930 . S
H2394 C2382 0.956 . S
H2395 C2382 0.961 . S
H2396 C2382 0.961 . S
H2397 C2383 0.958 . S
H2398 C2383 0.961 . S
H2399 C2383 0.960 . S
C2400 C2401 1.391 . S
C2400 C2402 1.394 . S
C2400 H2416 0.931 . S
C2401 C2400 1.391 . S
C2401 C2405 1.376 . S
C2402 C2400 1.394 . S
C2402 C2403 1.369 . S
C2402 C2406 1.531 . S
C2403 C2402 1.369 . S
C2403 C2404 1.410 . S
C2403 C2411 1.503 . S
C2404 C2403 1.410 . S
C2404 C2405 1.392 . S
C2404 C2407 1.511 . S
C2405 C2401 1.376 . S
C2405 C2404 1.392 . S
C2405 H2417 0.929 . S
C2406 C2402 1.531 . S
C2406 H2418 0.960 . S
C2406 H2419 0.962 . S
C2406 H2420 0.960 . S
C2407 C2404 1.511 . S
C2407 H2421 0.961 . S
C2407 H2422 0.961 . S
C2407 H2423 0.961 . S
C2408 C2409 1.370 . S
C2408 C2410 1.363 . S
C2408 H2424 0.931 . S
C2409 C2408 1.370 . S
C2409 C2413 1.408 . S
C2410 C2408 1.363 . S
C2410 C2411 1.370 . S
C2410 C2414 1.524 . S
C2411 C2403 1.503 . S
C2411 C2410 1.370 . S
C2411 C2412 1.403 . S
C2412 C2411 1.403 . S
C2412 C2413 1.404 . S
C2412 C2415 1.539 . S
C2413 C2409 1.408 . S
C2413 C2412 1.404 . S
C2413 H2425 0.930 . S
C2414 C2410 1.524 . S
C2414 H2426 0.956 . S
C2414 H2427 0.961 . S
C2414 H2428 0.961 . S
C2415 C2412 1.539 . S
C2415 H2429 0.958 . S
C2415 H2430 0.961 . S
C2415 H2431 0.960 . S
H2416 C2400 0.931 . S
H2417 C2405 0.929 . S
H2418 C2406 0.960 . S
H2419 C2406 0.962 . S
H2420 C2406 0.960 . S
H2421 C2407 0.961 . S
H2422 C2407 0.961 . S
H2423 C2407 0.961 . S
H2424 C2408 0.931 . S
H2425 C2413 0.930 . S
H2426 C2414 0.956 . S
H2427 C2414 0.961 . S
H2428 C2414 0.961 . S
H2429 C2415 0.958 . S
H2430 C2415 0.961 . S
H2431 C2415 0.960 . S
C2432 C2433 1.391 . S
C2432 C2434 1.394 . S
C2432 H2448 0.931 . S
C2433 C2432 1.391 . S
C2433 C2437 1.376 . S
C2434 C2432 1.394 . S
C2434 C2435 1.369 . S
C2434 C2438 1.531 . S
C2435 C2434 1.369 . S
C2435 C2436 1.410 . S
C2435 C2443 1.503 . S
C2436 C2435 1.410 . S
C2436 C2437 1.392 . S
C2436 C2439 1.511 . S
C2437 C2433 1.376 . S
C2437 C2436 1.392 . S
C2437 H2449 0.929 . S
C2438 C2434 1.531 . S
C2438 H2450 0.960 . S
C2438 H2451 0.962 . S
C2438 H2452 0.960 . S
C2439 C2436 1.511 . S
C2439 H2453 0.961 . S
C2439 H2454 0.961 . S
C2439 H2455 0.961 . S
C2440 C2441 1.370 . S
C2440 C2442 1.363 . S
C2440 H2456 0.931 . S
C2441 C2440 1.370 . S
C2441 C2445 1.408 . S
C2442 C2440 1.363 . S
C2442 C2443 1.370 . S
C2442 C2446 1.524 . S
C2443 C2435 1.503 . S
C2443 C2442 1.370 . S
C2443 C2444 1.403 . S
C2444 C2443 1.403 . S
C2444 C2445 1.404 . S
C2444 C2447 1.539 . S
C2445 C2441 1.408 . S
C2445 C2444 1.404 . S
C2445 H2457 0.930 . S
C2446 C2442 1.524 . S
C2446 H2458 0.956 . S
C2446 H2459 0.961 . S
C2446 H2460 0.961 . S
C2447 C2444 1.539 . S
C2447 H2461 0.958 . S
C2447 H2462 0.961 . S
C2447 H2463 0.960 . S
H2448 C2432 0.931 . S
H2449 C2437 0.929 . S
H2450 C2438 0.960 . S
H2451 C2438 0.962 . S
H2452 C2438 0.960 . S
H2453 C2439 0.961 . S
H2454 C2439 0.961 . S
H2455 C2439 0.961 . S
H2456 C2440 0.931 . S
H2457 C2445 0.930 . S
H2458 C2446 0.956 . S
H2459 C2446 0.961 . S
H2460 C2446 0.961 . S
H2461 C2447 0.958 . S
H2462 C2447 0.961 . S
H2463 C2447 0.960 . S
C2464 C2465 1.391 . S
C2464 C2466 1.394 . S
C2464 H2480 0.931 . S
C2465 C2464 1.391 . S
C2465 C2469 1.376 . S
C2466 C2464 1.394 . S
C2466 C2467 1.369 . S
C2466 C2470 1.531 . S
C2467 C2466 1.369 . S
C2467 C2468 1.410 . S
C2467 C2475 1.503 . S
C2468 C2467 1.410 . S
C2468 C2469 1.392 . S
C2468 C2471 1.511 . S
C2469 C2465 1.376 . S
C2469 C2468 1.392 . S
C2469 H2481 0.929 . S
C2470 C2466 1.531 . S
C2470 H2482 0.960 . S
C2470 H2483 0.962 . S
C2470 H2484 0.960 . S
C2471 C2468 1.511 . S
C2471 H2485 0.961 . S
C2471 H2486 0.961 . S
C2471 H2487 0.961 . S
C2472 C2473 1.370 . S
C2472 C2474 1.363 . S
C2472 H2488 0.931 . S
C2473 C2472 1.370 . S
C2473 C2477 1.408 . S
C2474 C2472 1.363 . S
C2474 C2475 1.370 . S
C2474 C2478 1.524 . S
C2475 C2467 1.503 . S
C2475 C2474 1.370 . S
C2475 C2476 1.403 . S
C2476 C2475 1.403 . S
C2476 C2477 1.404 . S
C2476 C2479 1.539 . S
C2477 C2473 1.408 . S
C2477 C2476 1.404 . S
C2477 H2489 0.930 . S
C2478 C2474 1.524 . S
C2478 H2490 0.956 . S
C2478 H2491 0.961 . S
C2478 H2492 0.961 . S
C2479 C2476 1.539 . S
C2479 H2493 0.958 . S
C2479 H2494 0.961 . S
C2479 H2495 0.960 . S
H2480 C2464 0.931 . S
H2481 C2469 0.929 . S
H2482 C2470 0.960 . S
H2483 C2470 0.962 . S
H2484 C2470 0.960 . S
H2485 C2471 0.961 . S
H2486 C2471 0.961 . S
H2487 C2471 0.961 . S
H2488 C2472 0.931 . S
H2489 C2477 0.930 . S
H2490 C2478 0.956 . S
H2491 C2478 0.961 . S
H2492 C2478 0.961 . S
H2493 C2479 0.958 . S
H2494 C2479 0.961 . S
H2495 C2479 0.960 . S
C449 C130 0.947 . S
C457 C4 0.966 . S
C481 C26 1.028 . S
C489 C368 1.020 . S
C513 C158 1.042 . S
C521 C32 0.967 . S
C545 C340 0.981 . S
C553 C54 1.054 . S
C577 C60 0.901 . S
C585 C214 0.991 . S
C609 C396 1.080 . S
C617 C82 1.054 . S
C641 C88 1.035 . S
C649 C186 1.017 . S
C673 C424 0.984 . S
C681 C110 1.051 . S
C705 C18 0.961 . S
C713 C124 0.926 . S
C737 C138 0.963 . S
C745 C264 0.952 . S
C769 C46 0.865 . S
C777 C152 0.921 . S
C801 C166 0.935 . S
C809 C236 0.966 . S
C833 C180 0.926 . S
C841 C102 0.896 . S
C865 C292 0.965 . S
C873 C194 0.945 . S
C897 C208 0.962 . S
C905 C74 0.922 . S
C929 C320 0.957 . S
C937 C222 0.968 . S
C961 C354 0.962 . S
C969 C228 0.982 . S
C993 C144 1.060 . S
C1001 C250 1.066 . S
C1025 C256 0.909 . S
C1033 C382 0.983 . S
C1057 C116 1.061 . S
C1065 C278 1.066 . S
C1089 C438 0.996 . S
C1097 C284 0.997 . S
C1121 C306 1.042 . S
C1129 C172 1.053 . S
C1153 C410 0.961 . S
C1161 C312 0.981 . S
C1185 C200 1.067 . S
C1193 C334 1.064 . S
C1217 C242 0.909 . S
C1225 C348 0.942 . S
C1249 C362 0.966 . S
C1257 C40 0.972 . S
C1281 C376 0.883 . S
C1289 C270 0.938 . S
C1313 C390 0.973 . S
C1321 C12 0.972 . S
C1345 C326 0.909 . S
C1353 C404 0.903 . S
C1377 C418 0.938 . S
C1385 C68 0.967 . S
C1409 C432 0.932 . S
C1417 C298 0.895 . S
C1441 C446 0.944 . S
C1449 C96 0.949 . S
C1473 C347 1.242 . S
C1481 C5 1.029 . S
C1505 C25 1.253 1_455 S
C1513 C137 1.272 . S
C1537 C33 0.950 . S
C1545 C375 1.237 . S
C1569 C53 1.268 . S
C1577 C165 1.266 . S
C1601 C61 0.926 . S
C1609 C403 1.234 . S
C1633 C81 1.256 . S
C1641 C193 1.272 . S
C1665 C431 1.241 . S
C1673 C89 1.040 . S
C1697 C109 1.265 . S
C1705 C221 1.268 . S
C1729 C123 1.235 . S
C1737 C229 0.984 . S
C1761 C151 1.225 . S
C1769 C257 1.030 . S
C1793 C285 0.977 . S
C1801 C179 1.238 . S
C1825 C313 0.933 . S
C1833 C207 1.235 . S
C1857 C249 1.278 . S
C1865 C361 1.262 . S
C1889 C389 1.251 . S
C1897 C277 1.274 . S
C1921 C305 1.277 . S
C1929 C417 1.262 . S
C1953 C445 1.278 . S
C1961 C333 1.264 . S
C1985 C299 1.409 . S
C1993 C11 1.434 . S
C2017 C319 1.447 . S
C2025 C19 1.378 . S
C2049 C39 1.448 . S
C2057 C327 1.388 . S
C2081 C291 1.431 . S
C2089 C47 1.384 . S
C2113 C271 1.317 . S
C2121 C67 1.403 . S
C2145 C235 1.432 . S
C2153 C75 1.368 . S
C2177 C95 1.377 . S
C2185 C243 1.349 . S
C2209 C263 1.401 . S
C2217 C103 1.370 . S
C2241 C411 1.277 . S
C2249 C117 1.302 . S
C2273 C425 1.296 . S
C2281 C131 1.258 . S
C2305 C439 1.259 . S
C2313 C145 1.308 . S
C2337 C159 1.270 . S
C2345 C397 1.304 . S
C2369 C383 1.231 . S
C2377 C173 1.314 . S
C2401 C341 1.274 . S
C2409 C187 1.267 . S
C2433 C355 1.243 . S
C2441 C201 1.312 . S
C2465 C369 1.290 . S
C2473 C215 1.284 . S
