# Generated by pormake.
# Topology sod, (4)-cn, num edge types: 1
# Building blocks:
#     Node 0, Type 0, BuildingBlock: CEKHIL_clean_sbu_0, # of connection points: 4
#     Node 1, Type 0, BuildingBlock: CEKHIL_clean_sbu_0, # of connection points: 4
#     Node 2, Type 0, BuildingBlock: CEKHIL_clean_sbu_0, # of connection points: 4
#     Node 3, Type 0, BuildingBlock: CEKHIL_clean_sbu_0, # of connection points: 4
#     Node 4, Type 0, BuildingBlock: CEKHIL_clean_sbu_0, # of connection points: 4
#     Node 5, Type 0, BuildingBlock: CEKHIL_clean_sbu_0, # of connection points: 4
#     Node 6, Type 0, BuildingBlock: CEKHIL_clean_sbu_0, # of connection points: 4
#     Node 7, Type 0, BuildingBlock: CEKHIL_clean_sbu_0, # of connection points: 4
#     Node 8, Type 0, BuildingBlock: CEKHIL_clean_sbu_0, # of connection points: 4
#     Node 9, Type 0, BuildingBlock: CEKHIL_clean_sbu_0, # of connection points: 4
#     Node 10, Type 0, BuildingBlock: CEKHIL_clean_sbu_0, # of connection points: 4
#     Node 11, Type 0, BuildingBlock: CEKHIL_clean_sbu_0, # of connection points: 4
#     Edge 12, Type (0, 0), BuildingBlock: ZUJKAS_clean_linker_0, # of connection points: 2
#     Edge 13, Type (0, 0), BuildingBlock: ZUJKAS_clean_linker_0, # of connection points: 2
#     Edge 14, Type (0, 0), BuildingBlock: ZUJKAS_clean_linker_0, # of connection points: 2
#     Edge 15, Type (0, 0), BuildingBlock: ZUJKAS_clean_linker_0, # of connection points: 2
#     Edge 16, Type (0, 0), BuildingBlock: ZUJKAS_clean_linker_0, # of connection points: 2
#     Edge 17, Type (0, 0), BuildingBlock: ZUJKAS_clean_linker_0, # of connection points: 2
#     Edge 18, Type (0, 0), BuildingBlock: ZUJKAS_clean_linker_0, # of connection points: 2
#     Edge 19, Type (0, 0), BuildingBlock: ZUJKAS_clean_linker_0, # of connection points: 2
#     Edge 20, Type (0, 0), BuildingBlock: ZUJKAS_clean_linker_0, # of connection points: 2
#     Edge 21, Type (0, 0), BuildingBlock: ZUJKAS_clean_linker_0, # of connection points: 2
#     Edge 22, Type (0, 0), BuildingBlock: ZUJKAS_clean_linker_0, # of connection points: 2
#     Edge 23, Type (0, 0), BuildingBlock: ZUJKAS_clean_linker_0, # of connection points: 2
#     Edge 24, Type (0, 0), BuildingBlock: ZUJKAS_clean_linker_0, # of connection points: 2
#     Edge 25, Type (0, 0), BuildingBlock: ZUJKAS_clean_linker_0, # of connection points: 2
#     Edge 26, Type (0, 0), BuildingBlock: ZUJKAS_clean_linker_0, # of connection points: 2
#     Edge 27, Type (0, 0), BuildingBlock: ZUJKAS_clean_linker_0, # of connection points: 2
#     Edge 28, Type (0, 0), BuildingBlock: ZUJKAS_clean_linker_0, # of connection points: 2
#     Edge 29, Type (0, 0), BuildingBlock: ZUJKAS_clean_linker_0, # of connection points: 2
#     Edge 30, Type (0, 0), BuildingBlock: ZUJKAS_clean_linker_0, # of connection points: 2
#     Edge 31, Type (0, 0), BuildingBlock: ZUJKAS_clean_linker_0, # of connection points: 2
#     Edge 32, Type (0, 0), BuildingBlock: ZUJKAS_clean_linker_0, # of connection points: 2
#     Edge 33, Type (0, 0), BuildingBlock: ZUJKAS_clean_linker_0, # of connection points: 2
#     Edge 34, Type (0, 0), BuildingBlock: ZUJKAS_clean_linker_0, # of connection points: 2
#     Edge 35, Type (0, 0), BuildingBlock: ZUJKAS_clean_linker_0, # of connection points: 2
# Relax obj value: 0.139
# Max RMSD: 0.179
# Mean RMSD: 0.169
data_MOF--net-sod--node1-CEKHIL_clean_sbu_0--edge1-ZUJKAS_clean_linker_0
_symmetry_space_group_name_H-M    P1
_symmetry_Int_Tables_number       1
_symmetry_cell_setting            triclinic
loop_
_symmetry_equiv_pos_as_xyz
'x, y, z'
_cell_length_a     54.40018
_cell_length_b     54.690714
_cell_length_c     54.532854
_cell_angle_alpha  91.835489
_cell_angle_beta   90.010967
_cell_angle_gamma 90.928707
loop_
_atom_site_label
_atom_site_type_symbol
_atom_site_fract_x
_atom_site_fract_y
_atom_site_fract_z
_atom_type_partial_charge
Co0 Co 0.00635 0.26516 0.50648 0.0
O1 O 0.98714 0.29021 0.49163 0.0
O2 O 0.02533 0.28075 0.48139 0.0
C3 C 0.97715 0.23548 0.50599 0.0
O4 O 0.0319 0.24022 0.51618 0.0
Co5 Co 0.99295 0.24272 0.55647 0.0
O6 O 0.01745 0.21779 0.54697 0.0
C7 C 0.01262 0.29329 0.55493 0.0
C8 C 0.00627 0.29421 0.47794 0.0
C9 C 0.03323 0.2218 0.53027 0.0
O10 O 0.01816 0.29018 0.53209 0.0
O11 O 0.00117 0.27719 0.5673 0.0
O12 O 0.98983 0.23963 0.48629 0.0
O13 O 0.98095 0.25064 0.52426 0.0
Co14 Co 0.76008 0.00786 0.50829 0.0
O15 O 0.78649 0.99267 0.48984 0.0
O16 O 0.77634 0.98476 0.5282 0.0
C17 C 0.73104 0.00497 0.47884 0.0
O18 O 0.73414 0.01786 0.53338 0.0
Co19 Co 0.7346 0.05581 0.49411 0.0
O20 O 0.71018 0.04752 0.5197 0.0
C21 C 0.78671 0.05592 0.50924 0.0
C22 C 0.79056 0.98046 0.50951 0.0
C23 C 0.71507 0.03139 0.53524 0.0
O24 O 0.78359 0.03507 0.51923 0.0
O25 O 0.77013 0.06586 0.49642 0.0
O26 O 0.73564 0.98608 0.49194 0.0
O27 O 0.74526 0.02376 0.48264 0.0
Co28 Co 0.99848 0.7642 0.52735 0.0
O29 O 0.98094 0.73808 0.54325 0.0
O30 O 0.0199 0.74863 0.54997 0.0
C31 C 0.96901 0.79244 0.53146 0.0
O32 O 0.02288 0.7904 0.51656 0.0
Co33 Co 0.98101 0.78834 0.47996 0.0
O34 O 0.00669 0.81356 0.48761 0.0
C35 C 0.00097 0.73832 0.47741 0.0
C36 C 0.00133 0.73442 0.55495 0.0
C37 C 0.02346 0.80932 0.50313 0.0
O38 O 0.00809 0.74042 0.49993 0.0
O39 O 0.98862 0.7547 0.46683 0.0
O40 O 0.98382 0.78864 0.54963 0.0
O41 O 0.97132 0.77811 0.51238 0.0
Co42 Co 0.25901 0.02035 0.50726 0.0
O43 O 0.23323 0.03548 0.48907 0.0
O44 O 0.24076 0.04224 0.52862 0.0
C45 C 0.28894 0.02592 0.47925 0.0
O46 O 0.2844 0.00978 0.53226 0.0
Co47 Co 0.28615 0.97408 0.48805 0.0
O48 O 0.31005 0.98277 0.51451 0.0
C49 C 0.23462 0.97019 0.50506 0.0
C50 C 0.22767 0.04702 0.50947 0.0
C51 C 0.30423 0.9972 0.5323 0.0
O52 O 0.236 0.99204 0.51462 0.0
O53 O 0.25191 0.96072 0.49215 0.0
O54 O 0.28324 0.04368 0.49453 0.0
O55 O 0.27534 0.00646 0.48026 0.0
Co56 Co 0.51722 0.02732 0.26537 0.0
O57 O 0.53653 0.04235 0.23989 0.0
O58 O 0.498 0.0512 0.24927 0.0
C59 C 0.54629 0.0289 0.2948 0.0
O60 O 0.4914 0.01802 0.29065 0.0
Co61 Co 0.52978 0.97864 0.2899 0.0
O62 O 0.50531 0.98892 0.31491 0.0
C63 C 0.51106 0.97802 0.23897 0.0
C64 C 0.51711 0.05516 0.23564 0.0
C65 C 0.48975 0.00519 0.30997 0.0
O66 O 0.50585 0.0009 0.24097 0.0
O67 O 0.52189 0.96645 0.25579 0.0
O68 O 0.53355 0.04825 0.29048 0.0
O69 O 0.54239 0.01028 0.28015 0.0
Co70 Co 0.01696 0.50627 0.26485 0.0
O71 O 0.03556 0.49159 0.29062 0.0
O72 O 0.99696 0.48211 0.28078 0.0
C73 C 0.04627 0.50423 0.2356 0.0
O74 O 0.99175 0.5159 0.23926 0.0
Co75 Co 0.0325 0.55506 0.2412 0.0
O76 O 0.00572 0.54738 0.21744 0.0
C77 C 0.01284 0.55546 0.29171 0.0
C78 C 0.01591 0.47845 0.29459 0.0
C79 C 0.98982 0.53063 0.22141 0.0
O80 O 0.00623 0.53278 0.28912 0.0
O81 O 0.02504 0.56688 0.27545 0.0
O82 O 0.0326 0.48512 0.23995 0.0
O83 O 0.04318 0.52292 0.25024 0.0
Co84 Co 0.51584 0.00616 0.76379 0.0
O85 O 0.53421 0.99198 0.79001 0.0
O86 O 0.49563 0.98243 0.78009 0.0
C87 C 0.54543 0.00335 0.73489 0.0
O88 O 0.4908 0.01538 0.73784 0.0
Co89 Co 0.53163 0.05415 0.73881 0.0
O90 O 0.50641 0.04448 0.71397 0.0
C91 C 0.51165 0.05596 0.7893 0.0
C92 C 0.5145 0.97898 0.7941 0.0
C93 C 0.48986 0.0286 0.71873 0.0
O94 O 0.50511 0.03322 0.78737 0.0
O95 O 0.52377 0.06696 0.77268 0.0
O96 O 0.53161 0.98441 0.73948 0.0
O97 O 0.54221 0.02238 0.74903 0.0
Co98 Co 0.01462 0.52156 0.76555 0.0
O99 O 0.03413 0.537 0.74053 0.0
O100 O 0.99608 0.54686 0.7508 0.0
C101 C 0.04402 0.52103 0.79462 0.0
O102 O 0.9888 0.51168 0.79068 0.0
Co103 Co 0.02626 0.47141 0.78759 0.0
O104 O 0.00401 0.48266 0.81428 0.0
C105 C 0.007 0.47367 0.73695 0.0
C106 C 0.01516 0.55068 0.73707 0.0
C107 C 0.98824 0.49897 0.81015 0.0
O108 O 0.00231 0.49657 0.74015 0.0
O109 O 0.01765 0.46102 0.75308 0.0
O110 O 0.03177 0.54092 0.79137 0.0
O111 O 0.03947 0.5032 0.77917 0.0
Co112 Co 0.25794 0.50773 0.00689 0.0
O113 O 0.28393 0.49133 0.98894 0.0
O114 O 0.27587 0.48741 0.02845 0.0
C115 C 0.2281 0.50103 0.9787 0.0
O116 O 0.23263 0.51936 0.03194 0.0
Co117 Co 0.22996 0.55286 0.98905 0.0
O118 O 0.20647 0.54576 0.01584 0.0
C119 C 0.28246 0.5569 0.00309 0.0
C120 C 0.28931 0.48141 0.0096 0.0
C121 C 0.21272 0.53172 0.03288 0.0
O122 O 0.28097 0.53646 0.01418 0.0
O123 O 0.26481 0.56518 0.99041 0.0
O124 O 0.23358 0.48385 0.99367 0.0
O125 O 0.24173 0.52047 0.98025 0.0
Co126 Co 0.4999 0.26642 0.02354 0.0
O127 O 0.48208 0.24024 0.03913 0.0
O128 O 0.52099 0.25066 0.04629 0.0
C129 C 0.47034 0.29474 0.02722 0.0
O130 O 0.52457 0.29258 0.01315 0.0
Co131 Co 0.48334 0.29101 0.97598 0.0
O132 O 0.50776 0.31687 0.98559 0.0
C133 C 0.50317 0.2409 0.9735 0.0
C134 C 0.50235 0.23646 0.05101 0.0
C135 C 0.52476 0.3122 0.00071 0.0
O136 O 0.50987 0.24279 0.99616 0.0
O137 O 0.49118 0.25744 0.96278 0.0
O138 O 0.48464 0.29065 0.04574 0.0
O139 O 0.47318 0.28054 0.00814 0.0
Co140 Co 0.7591 0.52448 0.00972 0.0
O141 O 0.73401 0.54047 0.99132 0.0
O142 O 0.74254 0.54815 0.03054 0.0
C143 C 0.78881 0.52716 0.9811 0.0
O144 O 0.78414 0.51351 0.03489 0.0
Co145 Co 0.7832 0.47601 0.99256 0.0
O146 O 0.8081 0.48451 0.01806 0.0
C147 C 0.73291 0.47506 0.01297 0.0
C148 C 0.72938 0.55293 0.01144 0.0
C149 C 0.80327 0.49994 0.03529 0.0
O150 O 0.73448 0.49808 0.01863 0.0
O151 O 0.74979 0.46327 0.00158 0.0
O152 O 0.78447 0.54571 0.9959 0.0
O153 O 0.77415 0.50852 0.98292 0.0
Co154 Co 0.50441 0.76632 0.00653 0.0
O155 O 0.48514 0.79077 0.99083 0.0
O156 O 0.5244 0.78336 0.98321 0.0
C157 C 0.47656 0.73543 0.00331 0.0
O158 O 0.53028 0.7424 0.01757 0.0
Co159 Co 0.48828 0.74198 0.05483 0.0
O160 O 0.51513 0.71887 0.0472 0.0
C161 C 0.50327 0.79415 0.05495 0.0
C162 C 0.50497 0.79592 0.97859 0.0
C163 C 0.53171 0.72395 0.03158 0.0
O164 O 0.51309 0.79112 0.03358 0.0
O165 O 0.49075 0.77737 0.06533 0.0
O166 O 0.49048 0.74048 0.98469 0.0
O167 O 0.47849 0.75031 0.02204 0.0
H168 H 0.98079 0.3368 0.47866 0.0
H169 H 0.98256 0.36903 0.44855 0.0
H170 H 0.0332 0.32618 0.40474 0.0
H171 H 0.03272 0.2948 0.43567 0.0
H172 H 0.04814 0.37013 0.40515 0.0
H173 H 0.94857 0.37233 0.38523 0.0
H174 H 0.95462 0.37917 0.41701 0.0
H175 H 0.96167 0.34937 0.404 0.0
C176 C 0.99218 0.33428 0.46251 0.0
C177 C 0.00651 0.31328 0.45938 0.0
C178 C 0.99304 0.35262 0.44518 0.0
C179 C 0.00753 0.34988 0.42393 0.0
C180 C 0.02181 0.3288 0.42087 0.0
H181 H 0.9886 0.43641 0.29467 0.0
H182 H 0.98769 0.40537 0.32594 0.0
C183 C 0.02149 0.31082 0.43852 0.0
C184 C 0.00852 0.36918 0.40521 0.0
H185 H 0.97296 0.40493 0.36977 0.0
C186 C 0.03166 0.37757 0.39728 0.0
C187 C 0.98709 0.37876 0.39459 0.0
C188 C 0.96163 0.36924 0.40045 0.0
C189 C 0.034 0.39508 0.37909 0.0
C190 C 0.01258 0.40554 0.36936 0.0
C191 C 0.98944 0.3972 0.37734 0.0
C192 C 0.01359 0.42448 0.35027 0.0
C193 C 0.05946 0.40137 0.36997 0.0
C194 C 0.02829 0.44575 0.35342 0.0
C195 C 0.02941 0.46314 0.33514 0.0
C196 C 0.01511 0.46004 0.3138 0.0
C197 C 0.99981 0.43923 0.31097 0.0
C198 C 0.99925 0.42151 0.32889 0.0
H199 H 0.07247 0.38631 0.37304 0.0
H200 H 0.05938 0.40517 0.3501 0.0
H201 H 0.06657 0.41784 0.38025 0.0
H202 H 0.03881 0.44905 0.37007 0.0
H203 H 0.04105 0.47925 0.33792 0.0
H204 H 0.71488 0.04533 0.45673 0.0
H205 H 0.68054 0.0487 0.42875 0.0
H206 H 0.66467 0.97153 0.43429 0.0
H207 H 0.69894 0.96813 0.46337 0.0
H208 H 0.67604 0.02664 0.38454 0.0
H209 H 0.59687 1.00067 0.44312 0.0
H210 H 0.62697 0.00788 0.45559 0.0
H211 H 0.62076 0.9784 0.44119 0.0
C212 C 0.70399 0.02904 0.45232 0.0
C213 C 0.70962 0.00642 0.46233 0.0
C214 C 0.68433 0.03104 0.43625 0.0
C215 C 0.66988 0.01047 0.42959 0.0
C216 C 0.67528 0.98777 0.43959 0.0
H217 H 0.56853 0.98806 0.31019 0.0
H218 H 0.59694 0.98444 0.34439 0.0
C219 C 0.69494 0.98579 0.45602 0.0
C220 C 0.65026 0.01292 0.411 0.0
H221 H 0.58848 0.00628 0.40084 0.0
C222 C 0.65688 0.02231 0.3882 0.0
C223 C 0.62526 0.00733 0.41582 0.0
C224 C 0.61692 0.99822 0.44032 0.0
C225 C 0.63925 0.0261 0.37005 0.0
C226 C 0.61439 0.02032 0.3748 0.0
C227 C 0.60763 0.01084 0.39747 0.0
C228 C 0.59553 0.02262 0.35563 0.0
C229 C 0.64723 0.03594 0.34573 0.0
C230 C 0.58522 0.04535 0.35087 0.0
C231 C 0.56879 0.04754 0.3313 0.0
C232 C 0.5627 0.02702 0.31621 0.0
C233 C 0.57285 0.00425 0.32141 0.0
C234 C 0.58902 0.00207 0.341 0.0
H235 H 0.66747 0.03868 0.3446 0.0
H236 H 0.64123 0.02315 0.33059 0.0
H237 H 0.63827 0.05373 0.34287 0.0
H238 H 0.59023 0.06142 0.36201 0.0
H239 H 0.56124 0.06528 0.32771 0.0
H240 H 0.0053 0.53772 0.33782 0.0
H241 H 0.00068 0.56199 0.37636 0.0
H242 H 0.0033 0.62835 0.33578 0.0
H243 H 0.00801 0.60456 0.29761 0.0
H244 H 0.03677 0.60213 0.39289 0.0
H245 H 0.94125 0.63364 0.38158 0.0
H246 H 0.95265 0.60626 0.3663 0.0
H247 H 0.95968 0.63585 0.35438 0.0
C248 C 0.00444 0.55747 0.33715 0.0
C249 C 0.00701 0.56925 0.3147 0.0
C250 C 0.00196 0.57126 0.35914 0.0
C251 C 0.00153 0.59691 0.35881 0.0
C252 C 0.00337 0.60856 0.33637 0.0
H253 H 0.00451 0.73318 0.42792 0.0
H254 H 0.00547 0.69527 0.40329 0.0
C255 C 0.00612 0.59492 0.31458 0.0
C256 C 0.00045 0.61214 0.38169 0.0
H257 H 0.96756 0.65861 0.40784 0.0
C258 C 0.02141 0.61407 0.3967 0.0
C259 C 0.98037 0.6276 0.38651 0.0
C260 C 0.95709 0.62564 0.37148 0.0
C261 C 0.02357 0.63252 0.41521 0.0
C262 C 0.00416 0.64913 0.41877 0.0
C263 C 0.98251 0.64596 0.40493 0.0
C264 C 0.00683 0.6717 0.43435 0.0
C265 C 0.04715 0.63522 0.42964 0.0
C266 C 0.00807 0.67105 0.46005 0.0
C267 C 0.00773 0.69288 0.4743 0.0
C268 C 0.00582 0.71554 0.46297 0.0
C269 C 0.00575 0.71603 0.43722 0.0
C270 C 0.00628 0.69437 0.4231 0.0
H271 H 0.06139 0.6223 0.42295 0.0
H272 H 0.05455 0.6542 0.4286 0.0
H273 H 0.04341 0.6317 0.44923 0.0
H274 H 0.00828 0.65371 0.46909 0.0
H275 H 0.00762 0.69194 0.49411 0.0
H276 H 0.30415 0.99008 0.44754 0.0
H277 H 0.33884 0.99109 0.41939 0.0
H278 H 0.35654 0.06499 0.44412 0.0
H279 H 0.32173 0.06401 0.47286 0.0
H280 H 0.34682 0.02296 0.38125 0.0
H281 H 0.42225 0.02897 0.45024 0.0
H282 H 0.39113 0.02042 0.45815 0.0
H283 H 0.39898 0.05186 0.45307 0.0
C284 C 0.31543 0.00656 0.44714 0.0
C285 C 0.31025 0.02696 0.46249 0.0
C286 C 0.33524 0.0071 0.43098 0.0
C287 C 0.35037 0.02802 0.42979 0.0
C288 C 0.34528 0.04853 0.44502 0.0
H289 H 0.4557 0.04154 0.30886 0.0
H290 H 0.42224 0.04938 0.33781 0.0
C291 C 0.32536 0.04799 0.46132 0.0
C292 C 0.37112 0.02806 0.4122 0.0
H293 H 0.43377 0.02803 0.40856 0.0
C294 C 0.36585 0.02428 0.38716 0.0
C295 C 0.39588 0.02954 0.42006 0.0
C296 C 0.40256 0.03274 0.44685 0.0
C297 C 0.38467 0.02141 0.36977 0.0
C298 C 0.40946 0.02281 0.37761 0.0
C299 C 0.41475 0.02707 0.40261 0.0
C300 C 0.43012 0.0186 0.36034 0.0
C301 C 0.37782 0.0159 0.34331 0.0
C302 C 0.44601 0.99904 0.36372 0.0
C303 C 0.46527 0.99458 0.34732 0.0
C304 C 0.46904 0.00964 0.32717 0.0
C305 C 0.45319 0.02939 0.32398 0.0
C306 C 0.434 0.03389 0.34049 0.0
H307 H 0.35833 0.00974 0.34136 0.0
H308 H 0.38032 0.03272 0.33268 0.0
H309 H 0.38975 0.00155 0.33509 0.0
H310 H 0.44335 0.98704 0.37896 0.0
H311 H 0.47714 0.97928 0.35042 0.0
H312 H 0.97904 0.58324 0.72838 0.0
H313 H 0.97804 0.61388 0.69677 0.0
H314 H 0.04956 0.59157 0.67138 0.0
H315 H 0.0507 0.56067 0.703 0.0
H316 H 0.01244 0.65312 0.6894 0.0
H317 H 0.00555 0.58837 0.60882 0.0
H318 H 0.99905 0.57922 0.63971 0.0
H319 H 0.03029 0.58327 0.62984 0.0
C320 C 0.99458 0.5848 0.71607 0.0
C321 C 0.01494 0.56948 0.71814 0.0
C322 C 0.99397 0.60234 0.69804 0.0
C323 C 0.01359 0.6048 0.6816 0.0
C324 C 0.03407 0.5897 0.6837 0.0
H325 H 0.04031 0.7258 0.5848 0.0
H326 H 0.04363 0.69428 0.61541 0.0
C327 C 0.03475 0.57217 0.70183 0.0
C328 C 0.01259 0.62344 0.66251 0.0
H329 H 0.00904 0.6305 0.60059 0.0
C330 C 0.01177 0.64821 0.66998 0.0
C331 C 0.01145 0.6169 0.63722 0.0
C332 C 0.01143 0.5905 0.62829 0.0
C333 C 0.00998 0.66666 0.65279 0.0
C334 C 0.00915 0.66015 0.6275 0.0
C335 C 0.00981 0.63539 0.62001 0.0
C336 C 0.00731 0.67887 0.60859 0.0
C337 C 0.00856 0.69298 0.66179 0.0
C338 C 0.98593 0.68035 0.59434 0.0
C339 C 0.98393 0.6984 0.57687 0.0
C340 C 0.0034 0.7151 0.57319 0.0
C341 C 0.02495 0.71327 0.58723 0.0
C342 C 0.02687 0.69532 0.60478 0.0
H343 H 0.00451 0.69455 0.68174 0.0
H344 H 0.02644 0.70235 0.65846 0.0
H345 H 0.99417 0.7027 0.65165 0.0
H346 H 0.97068 0.66772 0.59698 0.0
H347 H 0.96715 0.69927 0.56627 0.0
H348 H 0.48413 0.04859 0.67375 0.0
H349 H 0.4497 0.04306 0.64541 0.0
H350 H 0.41285 0.99631 0.69645 0.0
H351 H 0.44759 0.00126 0.72481 0.0
H352 H 0.41093 0.97693 0.65072 0.0
H353 H 0.38287 0.07353 0.64867 0.0
H354 H 0.41471 0.07015 0.64099 0.0
H355 H 0.40409 0.06273 0.67118 0.0
C356 C 0.46867 0.03724 0.6791 0.0
C357 C 0.46864 0.02548 0.70169 0.0
C358 C 0.44887 0.03424 0.6629 0.0
C359 C 0.42841 0.01971 0.669 0.0
C360 C 0.42835 0.00778 0.69143 0.0
H361 H 0.29576 0.0198 0.57719 0.0
H362 H 0.32407 0.02404 0.61205 0.0
C363 C 0.44825 0.01064 0.70763 0.0
C364 C 0.40765 0.01614 0.65143 0.0
H365 H 0.36762 0.04704 0.61594 0.0
C366 C 0.40127 0.99225 0.64332 0.0
C367 C 0.39466 0.03607 0.6421 0.0
C368 C 0.39924 0.06203 0.65139 0.0
C369 C 0.38302 0.98781 0.62543 0.0
C370 C 0.37125 0.00785 0.61486 0.0
C371 C 0.37688 0.03168 0.62373 0.0
C372 C 0.35371 0.00458 0.59404 0.0
C373 C 0.37649 0.96166 0.61814 0.0
C374 C 0.361 0.99248 0.57222 0.0
C375 C 0.34482 0.98983 0.55237 0.0
C376 C 0.32106 0.99959 0.55373 0.0
C377 C 0.31388 0.012 0.57551 0.0
C378 C 0.33005 0.01445 0.59547 0.0
H379 H 0.38068 0.94906 0.63313 0.0
H380 H 0.35673 0.95955 0.61332 0.0
H381 H 0.38759 0.95596 0.60194 0.0
H382 H 0.37939 0.98537 0.57035 0.0
H383 H 0.35115 0.98046 0.53581 0.0
H384 H 0.01432 0.33879 0.53524 0.0
H385 H 0.01607 0.37835 0.55807 0.0
H386 H 0.02414 0.34061 0.62576 0.0
H387 H 0.0222 0.30136 0.60332 0.0
H388 H 0.98059 0.39014 0.59753 0.0
H389 H 0.07717 0.39638 0.62947 0.0
H390 H 0.06774 0.37793 0.60289 0.0
H391 H 0.06343 0.36666 0.63325 0.0
C392 C 0.01713 0.33903 0.55491 0.0
C393 C 0.01813 0.31704 0.56755 0.0
C394 C 0.01797 0.36158 0.5679 0.0
C395 C 0.02042 0.36233 0.59354 0.0
C396 C 0.02259 0.34042 0.60595 0.0
H397 H 0.99722 0.42545 0.72785 0.0
H398 H 0.99871 0.40353 0.68821 0.0
C399 C 0.02139 0.318 0.59311 0.0
C400 C 0.01837 0.3855 0.60808 0.0
H401 H 0.04716 0.41761 0.65468 0.0
C402 C 0.99535 0.39676 0.60949 0.0
C403 C 0.03765 0.39405 0.6236 0.0
C404 C 0.06297 0.38328 0.6221 0.0
C405 C 0.99058 0.41493 0.62759 0.0
C406 C 0.00929 0.4219 0.64442 0.0
C407 C 0.03283 0.41209 0.64171 0.0
C408 C 0.00398 0.43606 0.66723 0.0
C409 C 0.96517 0.42531 0.62991 0.0
C410 C 0.00556 0.4617 0.6683 0.0
C411 C 0.00447 0.47439 0.69103 0.0
C412 C 0.00219 0.46145 0.71284 0.0
C413 C 0.99911 0.43589 0.71138 0.0
C414 C 0.99996 0.42334 0.68878 0.0
H415 H 0.95325 0.41973 0.61409 0.0
H416 H 0.95646 0.41887 0.647 0.0
H417 H 0.96632 0.44559 0.63133 0.0
H418 H 0.00877 0.47174 0.65178 0.0
H419 H 0.0071 0.49408 0.69165 0.0
H420 H 0.57194 0.04257 0.71979 0.0
H421 H 0.60031 0.04452 0.68536 0.0
H422 H 0.58686 0.96792 0.66823 0.0
H423 H 0.55777 0.96594 0.7026 0.0
H424 H 0.64276 0.01947 0.67791 0.0
H425 H 0.57651 0.99906 0.60206 0.0
H426 H 0.56672 0.00681 0.63293 0.0
H427 H 0.57745 0.9766 0.62535 0.0
C428 C 0.57485 0.02612 0.70866 0.0
C429 C 0.56253 0.0041 0.71385 0.0
C430 C 0.59114 0.02727 0.68899 0.0
C431 C 0.59552 0.00646 0.67406 0.0
C432 C 0.58339 0.98433 0.67924 0.0
H433 H 0.71934 0.999 0.57225 0.0
H434 H 0.69062 0.99186 0.60574 0.0
C435 C 0.5669 0.98319 0.69893 0.0
C436 C 0.61328 0.00815 0.65353 0.0
H437 H 0.61832 0.00395 0.5911 0.0
C438 C 0.63745 0.01597 0.65893 0.0
C439 C 0.60622 0.00383 0.62877 0.0
C440 C 0.58027 0.99631 0.6218 0.0
C441 C 0.6547 0.01982 0.64027 0.0
C442 C 0.64771 0.0153 0.61555 0.0
C443 C 0.62361 0.00729 0.61011 0.0
C444 C 0.665 0.01942 0.59504 0.0
C445 C 0.68003 0.02941 0.64715 0.0
C446 C 0.6599 0.037 0.57764 0.0
C447 C 0.67626 0.04113 0.55837 0.0
C448 C 0.69799 0.02763 0.55606 0.0
C449 C 0.70291 0.00989 0.5735 0.0
C450 C 0.68654 0.0058 0.59274 0.0
H451 H 0.68058 0.0374 0.66614 0.0
H452 H 0.69321 0.01414 0.64607 0.0
H453 H 0.68632 0.04358 0.63432 0.0
H454 H 0.64332 0.04766 0.57907 0.0
H455 H 0.67178 0.05481 0.54523 0.0
H456 H 0.44326 0.30882 0.9885 0.0
H457 H 0.41452 0.34237 0.98699 0.0
H458 H 0.42897 0.36074 0.0632 0.0
H459 H 0.45849 0.32728 0.06472 0.0
H460 H 0.37257 0.34817 0.01296 0.0
H461 H 0.43636 0.42693 0.03168 0.0
H462 H 0.44708 0.39661 0.02385 0.0
H463 H 0.43671 0.40393 0.05446 0.0
C464 C 0.44053 0.32007 0.00495 0.0
C465 C 0.45321 0.31544 0.02675 0.0
C466 C 0.42405 0.33925 0.00403 0.0
C467 C 0.41978 0.35425 0.02487 0.0
C468 C 0.43236 0.34971 0.04675 0.0
H469 H 0.30673 0.46183 0.0514 0.0
H470 H 0.3391 0.43164 0.05513 0.0
C471 C 0.44908 0.33051 0.04765 0.0
C472 C 0.40136 0.37388 0.02363 0.0
H473 H 0.39381 0.43573 0.02945 0.0
C474 C 0.37726 0.36731 0.01653 0.0
C475 C 0.40753 0.39886 0.02819 0.0
C476 C 0.43337 0.40712 0.03475 0.0
C477 C 0.35916 0.38502 0.01397 0.0
C478 C 0.36531 0.40989 0.01862 0.0
C479 C 0.38928 0.41656 0.0259 0.0
C480 C 0.34679 0.42911 0.01628 0.0
C481 C 0.33349 0.37715 0.00639 0.0
C482 C 0.34066 0.43775 0.99315 0.0
C483 C 0.32221 0.45509 0.99091 0.0
C484 C 0.30956 0.46388 0.01179 0.0
C485 C 0.31607 0.45537 0.03495 0.0
C486 C 0.33459 0.43819 0.03717 0.0
H487 H 0.33122 0.35692 0.00508 0.0
H488 H 0.31994 0.38462 0.01976 0.0
H489 H 0.32919 0.38468 0.98824 0.0
H490 H 0.34995 0.43086 0.97684 0.0
H491 H 0.31761 0.46129 0.97284 0.0
H492 H 0.29628 0.59208 0.97181 0.0
H493 H 0.333 0.6178 0.97313 0.0
H494 H 0.35814 0.58137 0.03725 0.0
H495 H 0.32115 0.5548 0.03581 0.0
H496 H 0.34456 0.64943 0.01156 0.0
H497 H 0.41992 0.58376 0.9931 0.0
H498 H 0.38808 0.57627 0.98651 0.0
H499 H 0.39911 0.57644 0.01753 0.0
C500 C 0.30957 0.58935 0.98623 0.0
C501 C 0.30559 0.57156 0.00394 0.0
C502 C 0.33066 0.60404 0.98684 0.0
C503 C 0.34833 0.60147 0.0052 0.0
C504 C 0.34486 0.5834 0.0227 0.0
H505 H 0.45063 0.71949 0.04236 0.0
H506 H 0.42163 0.68515 0.04355 0.0
C507 C 0.32367 0.56838 0.02197 0.0
C508 C 0.36916 0.61922 0.00668 0.0
H509 H 0.43151 0.62525 0.00091 0.0
C510 C 0.36358 0.64411 0.00934 0.0
C511 C 0.3939 0.61221 0.0035 0.0
C512 C 0.40075 0.58574 0.99981 0.0
C513 C 0.38197 0.66225 0.00864 0.0
C514 C 0.40674 0.65531 0.00575 0.0
C515 C 0.41247 0.63042 0.0032 0.0
C516 C 0.42671 0.67395 0.00554 0.0
C517 C 0.37468 0.68878 0.01045 0.0
C518 C 0.43977 0.67851 0.98391 0.0
C519 C 0.45655 0.6982 0.98315 0.0
C520 C 0.46038 0.71351 0.00403 0.0
C521 C 0.44795 0.70819 0.02588 0.0
C522 C 0.43138 0.68855 0.02664 0.0
H523 H 0.35475 0.69106 0.00689 0.0
H524 H 0.37873 0.69621 0.02922 0.0
H525 H 0.38528 0.69981 0.99723 0.0
H526 H 0.43636 0.66738 0.96743 0.0
H527 H 0.46597 0.7018 0.96611 0.0
H528 H 0.53028 0.35739 0.98079 0.0
H529 H 0.5646 0.38651 0.98651 0.0
H530 H 0.60044 0.33666 0.03401 0.0
H531 H 0.5663 0.30736 0.0285 0.0
H532 H 0.58531 0.40702 0.03465 0.0
H533 H 0.65073 0.35279 0.97734 0.0
H534 H 0.6178 0.34854 0.97492 0.0
H535 H 0.63406 0.33667 1.00046 0.0
C536 C 0.54546 0.35254 0.99244 0.0
C537 C 0.54556 0.3299 0.00404 0.0
C538 C 0.56498 0.36928 0.99576 0.0
C539 C 0.58504 0.36363 0.01057 0.0
C540 C 0.58516 0.34123 0.02237 0.0
H541 H 0.72914 0.42964 0.03115 0.0
H542 H 0.69204 0.4041 0.03411 0.0
C543 C 0.56561 0.32452 0.01917 0.0
C544 C 0.60614 0.38093 0.01325 0.0
H545 H 0.66628 0.38844 0.99734 0.0
C546 C 0.60308 0.40306 0.02655 0.0
C547 C 0.6292 0.37557 0.0027 0.0
C548 C 0.63327 0.3522 0.98789 0.0
C549 C 0.62273 0.41985 0.03002 0.0
C550 C 0.64583 0.41462 0.01922 0.0
C551 C 0.64869 0.39247 0.00578 0.0
C552 C 0.66741 0.43166 0.02124 0.0
C553 C 0.61863 0.44263 0.04572 0.0
C554 C 0.66592 0.456 0.01382 0.0
C555 C 0.68709 0.47088 0.01286 0.0
C556 C 0.71015 0.46138 0.01856 0.0
C557 C 0.71153 0.43735 0.02668 0.0
C558 C 0.69036 0.42274 0.02826 0.0
H559 H 0.60333 0.43995 0.05892 0.0
H560 H 0.63544 0.44818 0.05616 0.0
H561 H 0.61354 0.45779 0.03377 0.0
H562 H 0.64865 0.46317 0.00762 0.0
H563 H 0.68565 0.48924 0.00615 0.0
H564 H 0.70117 0.56871 0.97377 0.0
H565 H 0.66918 0.59968 0.97574 0.0
H566 H 0.68147 0.61001 0.05354 0.0
H567 H 0.71377 0.57943 0.05166 0.0
H568 H 0.62642 0.59946 0.00173 0.0
H569 H 0.68385 0.67993 0.03061 0.0
H570 H 0.6969 0.65166 0.01913 0.0
H571 H 0.68681 0.65461 0.05049 0.0
C572 C 0.69716 0.57768 0.99128 0.0
C573 C 0.71006 0.57169 0.01255 0.0
C574 C 0.67888 0.59538 0.99237 0.0
C575 C 0.67321 0.60746 0.0147 0.0
C576 C 0.68594 0.60137 0.036 0.0
H577 H 0.5397 0.68134 0.05518 0.0
H578 H 0.57427 0.65374 0.0501 0.0
C579 C 0.70428 0.58375 0.03492 0.0
C580 C 0.65324 0.62564 0.01593 0.0
H581 H 0.64034 0.68459 0.03349 0.0
C582 C 0.62951 0.61811 0.00852 0.0
C583 C 0.65734 0.65009 0.02448 0.0
C584 C 0.68265 0.65966 0.0314 0.0
C585 C 0.60964 0.63415 0.01009 0.0
C586 C 0.61354 0.65823 0.01968 0.0
C587 C 0.63737 0.66602 0.02641 0.0
C588 C 0.59299 0.67545 0.02317 0.0
C589 C 0.58466 0.62523 0.00133 0.0
C590 C 0.5924 0.69717 0.01018 0.0
C591 C 0.57265 0.71309 0.01307 0.0
C592 C 0.55323 0.70768 0.02918 0.0
C593 C 0.55425 0.68612 0.04256 0.0
C594 C 0.57393 0.67021 0.03959 0.0
H595 H 0.58598 0.60884 0.98886 0.0
H596 H 0.57335 0.62018 0.01738 0.0
H597 H 0.57497 0.63978 0.99158 0.0
H598 H 0.60703 0.7016 0.99752 0.0
H599 H 0.57254 0.72954 0.00252 0.0
H600 H 0.47823 0.83767 0.97831 0.0
H601 H 0.48 0.86985 0.94813 0.0
H602 H 0.53354 0.8286 0.90636 0.0
H603 H 0.5331 0.7974 0.93748 0.0
H604 H 0.54688 0.87276 0.90652 0.0
H605 H 0.44781 0.87174 0.88396 0.0
H606 H 0.45273 0.87909 0.91582 0.0
H607 H 0.46107 0.84941 0.90336 0.0
C608 C 0.49031 0.83553 0.96262 0.0
C609 C 0.50544 0.81505 0.96011 0.0
C610 C 0.49115 0.85381 0.94523 0.0
C611 C 0.50642 0.85147 0.92449 0.0
C612 C 0.52154 0.83091 0.92208 0.0
H613 H 0.48792 0.93651 0.79411 0.0
H614 H 0.48706 0.90575 0.82566 0.0
C615 C 0.52125 0.81304 0.93984 0.0
C616 C 0.50729 0.87063 0.90562 0.0
H617 H 0.47155 0.90506 0.86902 0.0
C618 C 0.53037 0.87964 0.89818 0.0
C619 C 0.48585 0.87948 0.89436 0.0
C620 C 0.46052 0.86922 0.8996 0.0
C621 C 0.53265 0.89702 0.87987 0.0
C622 C 0.51116 0.90681 0.86954 0.0
C623 C 0.48808 0.89786 0.87704 0.0
C624 C 0.51208 0.92561 0.85033 0.0
C625 C 0.55814 0.9039 0.87126 0.0
C626 C 0.52626 0.94723 0.85357 0.0
C627 C 0.52739 0.96444 0.83513 0.0
C628 C 0.51358 0.96084 0.81354 0.0
C629 C 0.49874 0.93971 0.81062 0.0
C630 C 0.49821 0.92216 0.82869 0.0
H631 H 0.57145 0.88919 0.87471 0.0
H632 H 0.55838 0.90757 0.85135 0.0
H633 H 0.56463 0.92059 0.88158 0.0
H634 H 0.53637 0.95091 0.87041 0.0
H635 H 0.53865 0.9808 0.83797 0.0
H636 H 0.19263 0.4646 0.97283 0.0
H637 H 0.1576 0.4641 0.94403 0.0
H638 H 0.18053 0.53472 0.91865 0.0
H639 H 0.21511 0.53545 0.94689 0.0
H640 H 0.11949 0.51032 0.93744 0.0
H641 H 0.17668 0.47917 0.85812 0.0
H642 H 0.18368 0.4715 0.88933 0.0
H643 H 0.19005 0.50178 0.87908 0.0
C644 C 0.19008 0.47999 0.96113 0.0
C645 C 0.20666 0.5 0.96206 0.0
C646 C 0.17009 0.47973 0.94484 0.0
C647 C 0.16664 0.49941 0.92934 0.0
C648 C 0.18295 0.51942 0.93051 0.0
H649 H 0.05838 0.55484 0.83044 0.0
H650 H 0.08644 0.54831 0.86485 0.0
C651 C 0.20274 0.51973 0.94667 0.0
C652 C 0.14674 0.49915 0.91097 0.0
H653 H 0.1375 0.49471 0.84918 0.0
C654 C 0.12319 0.50654 0.91816 0.0
C655 C 0.15182 0.49431 0.88593 0.0
C656 C 0.17687 0.4861 0.8775 0.0
C657 C 0.10461 0.50979 0.9007 0.0
C658 C 0.11001 0.50592 0.8755 0.0
C659 C 0.13342 0.49782 0.86849 0.0
C660 C 0.09176 0.50987 0.85589 0.0
C661 C 0.07943 0.51731 0.90935 0.0
C662 C 0.08582 0.49062 0.83927 0.0
C663 C 0.07024 0.49441 0.81953 0.0
C664 C 0.06016 0.51754 0.81597 0.0
C665 C 0.06582 0.53682 0.83278 0.0
C666 C 0.08165 0.53304 0.85254 0.0
H667 H 0.07642 0.51303 0.92892 0.0
H668 H 0.07763 0.53736 0.90759 0.0
H669 H 0.06479 0.50806 0.8981 0.0
H670 H 0.0935 0.47266 0.84143 0.0
H671 H 0.06627 0.47913 0.80695 0.0
H672 H 0.50399 0.03919 0.83575 0.0
H673 H 0.49988 0.06416 0.87388 0.0
H674 H 0.50327 0.12974 0.83212 0.0
H675 H 0.50744 0.10524 0.79432 0.0
H676 H 0.5364 0.10341 0.88983 0.0
H677 H 0.44187 0.13734 0.87799 0.0
H678 H 0.45261 0.10963 0.86285 0.0
H679 H 0.46036 0.13899 0.85079 0.0
C680 C 0.50338 0.05892 0.83472 0.0
C681 C 0.50602 0.07026 0.81204 0.0
C682 C 0.5012 0.07311 0.85649 0.0
C683 C 0.50113 0.09874 0.85572 0.0
C684 C 0.50303 0.10998 0.83305 0.0
H685 H 0.50733 0.23563 0.92404 0.0
H686 H 0.50773 0.19764 0.89951 0.0
C687 C 0.50548 0.09593 0.81147 0.0
C688 C 0.50045 0.11434 0.87837 0.0
H689 H 0.46881 0.16197 0.90397 0.0
C690 C 0.52139 0.11583 0.89344 0.0
C691 C 0.48081 0.13041 0.88296 0.0
C692 C 0.45752 0.12892 0.86794 0.0
C693 C 0.52399 0.13438 0.91179 0.0
C694 C 0.50506 0.15156 0.91512 0.0
C695 C 0.48341 0.14889 0.90122 0.0
C696 C 0.50823 0.17412 0.93064 0.0
C697 C 0.54755 0.13653 0.92634 0.0
C698 C 0.50921 0.1735 0.95635 0.0
C699 C 0.50921 0.19536 0.97054 0.0
C700 C 0.50789 0.21804 0.95914 0.0
C701 C 0.50813 0.21848 0.93339 0.0
C702 C 0.50833 0.19677 0.91933 0.0
H703 H 0.56147 0.12321 0.91976 0.0
H704 H 0.55546 0.15531 0.92527 0.0
H705 H 0.5436 0.13318 0.94592 0.0
H706 H 0.50891 0.15617 0.96543 0.0
H707 H 0.50884 0.19446 0.99035 0.0
H708 H 0.94387 0.52075 0.80328 0.0
H709 H 0.9114 0.52764 0.8336 0.0
H710 H 0.95607 0.49513 0.88885 0.0
H711 H 0.98812 0.48727 0.85841 0.0
H712 H 0.91164 0.47803 0.89148 0.0
H713 H 0.90608 0.57864 0.88708 0.0
H714 H 0.90112 0.56403 0.85756 0.0
H715 H 0.93048 0.56161 0.87252 0.0
C716 C 0.94679 0.51515 0.82191 0.0
C717 C 0.96854 0.50341 0.82842 0.0
C718 C 0.92831 0.51932 0.83931 0.0
C719 C 0.93146 0.51239 0.86369 0.0
C720 C 0.95322 0.50074 0.8702 0.0
H721 H 0.83059 0.55593 0.98235 0.0
H722 H 0.86627 0.55267 0.95489 0.0
C723 C 0.97151 0.4962 0.85275 0.0
C724 C 0.91161 0.51602 0.88213 0.0
H725 H 0.87255 0.55834 0.90704 0.0
C726 C 0.90328 0.49567 0.89502 0.0
C727 C 0.90095 0.5391 0.88718 0.0
C728 C 0.91031 0.56212 0.87554 0.0
C729 C 0.88426 0.49758 0.91228 0.0
C730 C 0.8725 0.5203 0.91613 0.0
C731 C 0.88128 0.54084 0.90381 0.0
C732 C 0.85076 0.52288 0.93243 0.0
C733 C 0.87726 0.47524 0.92645 0.0
C734 C 0.83 0.50768 0.9286 0.0
C735 C 0.80993 0.50923 0.94444 0.0
C736 C 0.80988 0.52648 0.96407 0.0
C737 C 0.83019 0.54244 0.96737 0.0
C738 C 0.85054 0.54058 0.95171 0.0
H739 H 0.89289 0.4625 0.92765 0.0
H740 H 0.87117 0.48027 0.94534 0.0
H741 H 0.862 0.46523 0.91681 0.0
H742 H 0.82934 0.49448 0.91337 0.0
H743 H 0.79436 0.49694 0.94123 0.0
H744 H 0.5558 0.07441 0.20994 0.0
H745 H 0.55416 0.10557 0.1786 0.0
H746 H 0.47519 0.10711 0.18536 0.0
H747 H 0.47677 0.07678 0.21712 0.0
H748 H 0.53238 0.10549 0.13435 0.0
H749 H 0.49176 0.17855 0.1933 0.0
H750 H 0.50377 0.15096 0.20564 0.0
H751 H 0.47331 0.15109 0.19268 0.0
C752 C 0.53812 0.0815 0.20479 0.0
C753 C 0.51645 0.07336 0.21617 0.0
C754 C 0.5372 0.09928 0.18689 0.0
C755 C 0.51459 0.10912 0.18002 0.0
C756 C 0.49291 0.10042 0.19089 0.0
H757 H 0.46544 0.20745 0.06895 0.0
H758 H 0.46892 0.17599 0.09981 0.0
C759 C 0.49384 0.08293 0.20894 0.0
C760 C 0.51351 0.12808 0.16115 0.0
H761 H 0.49143 0.18486 0.15015 0.0
C762 C 0.52362 0.12292 0.13788 0.0
C763 C 0.50213 0.1509 0.16577 0.0
C764 C 0.49237 0.15832 0.19078 0.0
C765 C 0.5221 0.13969 0.11898 0.0
C766 C 0.5102 0.16216 0.12348 0.0
C767 C 0.5003 0.16746 0.14674 0.0
C768 C 0.50823 0.18066 0.10439 0.0
C769 C 0.53284 0.13318 0.09417 0.0
C770 C 0.52916 0.19373 0.09695 0.0
C771 C 0.52721 0.21178 0.07952 0.0
C772 C 0.50428 0.21703 0.06915 0.0
C773 C 0.48335 0.20378 0.07655 0.0
C774 C 0.4853 0.18585 0.09416 0.0
H775 H 0.53765 0.11353 0.09241 0.0
H776 H 0.5197 0.13742 0.07937 0.0
H777 H 0.5498 0.1443 0.09139 0.0
H778 H 0.54696 0.19016 0.10486 0.0
H779 H 0.54369 0.22166 0.07422 0.0
H780 H 0.97226 0.56447 0.19034 0.0
H781 H 0.9381 0.55977 0.16148 0.0
H782 H 0.92531 0.48598 0.18468 0.0
H783 H 0.95902 0.49083 0.21425 0.0
H784 H 0.93411 0.52941 0.12319 0.0
H785 H 0.8564 0.51102 0.18597 0.0
H786 H 0.88598 0.52208 0.1969 0.0
H787 H 0.88113 0.49009 0.18929 0.0
C788 C 0.96205 0.5473 0.1895 0.0
C789 C 0.96837 0.52803 0.20465 0.0
C790 C 0.94248 0.54465 0.17298 0.0
C791 C 0.92886 0.52264 0.17108 0.0
C792 C 0.93507 0.50337 0.18624 0.0
H793 H 0.84537 0.47445 0.0428 0.0
H794 H 0.87487 0.47996 0.07628 0.0
C795 C 0.95448 0.50612 0.20303 0.0
C796 C 0.90928 0.51949 0.15214 0.0
H797 H 0.84882 0.50354 0.14318 0.0
C798 C 0.91544 0.52389 0.12763 0.0
C799 C 0.8848 0.51255 0.1579 0.0
C800 C 0.87659 0.5089 0.18397 0.0
C801 C 0.89799 0.52118 0.10875 0.0
C802 C 0.87382 0.51328 0.11438 0.0
C803 C 0.86745 0.50932 0.13889 0.0
C804 C 0.85501 0.50901 0.09493 0.0
C805 C 0.90553 0.52717 0.08296 0.0
C806 C 0.83359 0.52296 0.09472 0.0
C807 C 0.81653 0.5198 0.07559 0.0
C808 C 0.82053 0.5025 0.05638 0.0
C809 C 0.84171 0.48806 0.05713 0.0
C810 C 0.85869 0.49125 0.07623 0.0
H811 H 0.9223 0.53904 0.08278 0.0
H812 H 0.90962 0.50995 0.07254 0.0
H813 H 0.89054 0.53651 0.07331 0.0
H814 H 0.83034 0.53669 0.10907 0.0
H815 H 0.80041 0.53117 0.0757 0.0
H816 H 0.47547 0.81054 0.09321 0.0
H817 H 0.47898 0.84928 0.11608 0.0
H818 H 0.53958 0.87123 0.07042 0.0
H819 H 0.53602 0.83215 0.04679 0.0
H820 H 0.54441 0.8721 0.12784 0.0
H821 H 0.4652 0.92215 0.091 0.0
H822 H 0.45995 0.89 0.09545 0.0
H823 H 0.48199 0.89958 0.07306 0.0
C824 C 0.48954 0.82353 0.08782 0.0
C825 C 0.50561 0.81813 0.06823 0.0
C826 C 0.49135 0.84578 0.10083 0.0
C827 C 0.5093 0.86313 0.09471 0.0
C828 C 0.52542 0.85806 0.07517 0.0
H829 H 0.51169 0.9955 0.19238 0.0
H830 H 0.51258 0.97078 0.15388 0.0
C831 C 0.52341 0.83576 0.06179 0.0
C832 C 0.512 0.88547 0.11045 0.0
H833 H 0.47912 0.93451 0.13137 0.0
C834 C 0.53058 0.88619 0.12823 0.0
C835 C 0.49394 0.90376 0.11082 0.0
C836 C 0.4742 0.90408 0.09145 0.0
C837 C 0.5305 0.90373 0.14754 0.0
C838 C 0.51116 0.92072 0.14915 0.0
C839 C 0.49372 0.92125 0.13025 0.0
C840 C 0.50757 0.9362 0.17157 0.0
C841 C 0.55052 0.9032 0.16667 0.0
C842 C 0.50318 0.92499 0.19394 0.0
C843 C 0.50274 0.93892 0.21576 0.0
C844 C 0.50632 0.9644 0.2156 0.0
C845 C 0.50878 0.97589 0.19299 0.0
C846 C 0.50945 0.96182 0.17106 0.0
H847 H 0.56742 0.89461 0.15918 0.0
H848 H 0.55524 0.92191 0.17386 0.0
H849 H 0.54404 0.89218 0.18222 0.0
H850 H 0.50101 0.90529 0.19461 0.0
H851 H 0.50051 0.92962 0.23288 0.0
H852 H 0.17064 0.55683 0.04401 0.0
H853 H 0.14279 0.55072 0.07857 0.0
H854 H 0.1888 0.49332 0.10413 0.0
H855 H 0.21698 0.49957 0.07003 0.0
H856 H 0.11629 0.50939 0.09071 0.0
H857 H 0.18143 0.53673 0.16538 0.0
H858 H 0.1875 0.54283 0.13361 0.0
H859 H 0.19248 0.51285 0.14511 0.0
C860 C 0.17499 0.54305 0.05709 0.0
C861 C 0.19621 0.52886 0.0543 0.0
C862 C 0.15899 0.53953 0.07679 0.0
C863 C 0.16389 0.52178 0.09411 0.0
C864 C 0.18493 0.50748 0.0913 0.0
H865 H 0.05673 0.46809 0.20121 0.0
H866 H 0.08517 0.47086 0.1664 0.0
C867 C 0.201 0.51106 0.07171 0.0
C868 C 0.14676 0.51799 0.11486 0.0
H869 H 0.14325 0.51943 0.17739 0.0
C870 C 0.12215 0.5116 0.10968 0.0
C871 C 0.15444 0.52102 0.13957 0.0
C872 C 0.18034 0.52895 0.14633 0.0
C873 C 0.10498 0.50819 0.12856 0.0
C874 C 0.11277 0.51086 0.15327 0.0
C875 C 0.13739 0.51718 0.15843 0.0
C876 C 0.09541 0.50876 0.1741 0.0
C877 C 0.07854 0.50246 0.12191 0.0
C878 C 0.09213 0.52893 0.19022 0.0
C879 C 0.07616 0.52733 0.21012 0.0
C880 C 0.06311 0.50548 0.21438 0.0
C881 C 0.06644 0.4852 0.19831 0.0
C882 C 0.08256 0.4868 0.17835 0.0
H883 H 0.07452 0.50651 0.10249 0.0
H884 H 0.0747 0.48271 0.12446 0.0
H885 H 0.06584 0.51308 0.13394 0.0
H886 H 0.1019 0.54602 0.18732 0.0
H887 H 0.07405 0.54329 0.22216 0.0
H888 H 0.79304 0.94211 0.53967 0.0
H889 H 0.82627 0.91307 0.54329 0.0
H890 H 0.86715 0.95028 0.48739 0.0
H891 H 0.8331 0.97865 0.48274 0.0
H892 H 0.87157 0.90426 0.48003 0.0
H893 H 0.88926 0.92198 0.5785 0.0
H894 H 0.85782 0.91271 0.57412 0.0
H895 H 0.86903 0.94077 0.56125 0.0
C896 C 0.80913 0.94411 0.52816 0.0
C897 C 0.81059 0.9627 0.51102 0.0
C898 C 0.82827 0.92766 0.53045 0.0
C899 C 0.84966 0.92992 0.51623 0.0
C900 C 0.85098 0.94829 0.49878 0.0
H901 H 0.97477 0.83782 0.55364 0.0
H902 H 0.94802 0.87317 0.54908 0.0
C903 C 0.83152 0.96446 0.49608 0.0
C904 C 0.87006 0.9124 0.51893 0.0
H905 H 0.90398 0.88348 0.56166 0.0
C906 C 0.8789 0.9 0.49787 0.0
C907 C 0.88027 0.90722 0.54208 0.0
C908 C 0.87378 0.92163 0.56518 0.0
C909 C 0.8967 0.88182 0.49943 0.0
C910 C 0.90508 0.87499 0.52281 0.0
C911 C 0.89719 0.88824 0.54376 0.0
C912 C 0.92129 0.85367 0.52599 0.0
C913 C 0.90642 0.87039 0.47588 0.0
C914 C 0.9149 0.8308 0.51517 0.0
C915 C 0.93038 0.81091 0.51731 0.0
C916 C 0.95211 0.81318 0.5311 0.0
C917 C 0.95801 0.83563 0.54301 0.0
C918 C 0.94279 0.8558 0.54033 0.0
H919 H 0.90565 0.88341 0.46067 0.0
H920 H 0.92571 0.86444 0.4779 0.0
H921 H 0.89478 0.85425 0.47049 0.0
H922 H 0.89795 0.8283 0.50493 0.0
H923 H 0.9253 0.79366 0.50819 0.0
H924 H 0.96119 0.20318 0.46973 0.0
H925 H 0.93243 0.16853 0.47403 0.0
H926 H 0.92869 0.18372 0.55204 0.0
H927 H 0.95656 0.21867 0.54779 0.0
H928 H 0.93352 0.12645 0.50081 0.0
H929 H 0.85721 0.18597 0.53227 0.0
H930 H 0.88522 0.1981 0.51943 0.0
H931 H 0.88434 0.18915 0.55088 0.0
C932 C 0.95422 0.19908 0.48777 0.0
C933 C 0.96087 0.21381 0.50836 0.0
C934 C 0.93789 0.17926 0.49023 0.0
C935 C 0.92809 0.17384 0.51331 0.0
C936 C 0.93555 0.18793 0.53399 0.0
H937 H 0.81937 0.05777 0.54798 0.0
H938 H 0.85691 0.08365 0.55156 0.0
C939 C 0.95158 0.20786 0.53152 0.0
C940 C 0.90938 0.15405 0.51566 0.0
H941 H 0.84978 0.14337 0.53243 0.0
C942 C 0.91528 0.1301 0.5079 0.0
C943 C 0.88552 0.1589 0.5248 0.0
C944 C 0.87756 0.18444 0.5321 0.0
C945 C 0.89779 0.11097 0.50878 0.0
C946 C 0.87402 0.11594 0.51777 0.0
C947 C 0.86827 0.13966 0.52603 0.0
C948 C 0.85369 0.09791 0.51516 0.0
C949 C 0.90437 0.0857 0.49938 0.0
C950 C 0.83987 0.09738 0.49353 0.0
C951 C 0.81851 0.08314 0.49163 0.0
C952 C 0.81061 0.06897 0.51128 0.0
C953 C 0.82509 0.06855 0.53261 0.0
C954 C 0.84645 0.08323 0.53465 0.0
H955 H 0.92433 0.08413 0.49543 0.0
H956 H 0.899 0.07193 0.51301 0.0
H957 H 0.89394 0.08128 0.48226 0.0
H958 H 0.8452 0.10867 0.47838 0.0
H959 H 0.80791 0.08353 0.47482 0.0
H960 H 0.03997 0.84267 0.47031 0.0
H961 H 0.07483 0.87123 0.47503 0.0
H962 H 0.08803 0.84542 0.54772 0.0
H963 H 0.05387 0.81611 0.54271 0.0
H964 H 0.08438 0.90863 0.50616 0.0
H965 H 0.15474 0.8377 0.51833 0.0
H966 H 0.12369 0.83015 0.50898 0.0
H967 H 0.1307 0.83682 0.54079 0.0
C968 C 0.05038 0.84299 0.48725 0.0
C969 C 0.04437 0.82687 0.50599 0.0
C970 C 0.07026 0.85938 0.48996 0.0
C971 C 0.08438 0.86019 0.51155 0.0
C972 C 0.07791 0.84466 0.53061 0.0
H973 H 0.19557 0.97867 0.53641 0.0
H974 H 0.15845 0.95305 0.54092 0.0
C975 C 0.05831 0.82796 0.52774 0.0
C976 C 0.10598 0.87713 0.51389 0.0
H977 H 0.16805 0.87882 0.52324 0.0
C978 C 0.10268 0.90214 0.50994 0.0
C979 C 0.1299 0.86862 0.5187 0.0
C980 C 0.13507 0.84184 0.52171 0.0
C981 C 0.12268 0.91876 0.51012 0.0
C982 C 0.14654 0.91024 0.51506 0.0
C983 C 0.14971 0.88536 0.51965 0.0
C984 C 0.16887 0.92607 0.51306 0.0
C985 C 0.11819 0.94502 0.50396 0.0
C986 C 0.18731 0.91914 0.49641 0.0
C987 C 0.20857 0.93341 0.49411 0.0
C988 C 0.21197 0.95513 0.50833 0.0
C989 C 0.1935 0.96212 0.5251 0.0
C990 C 0.1722 0.94758 0.52758 0.0
H991 H 0.09993 0.94727 0.49524 0.0
H992 H 0.11876 0.95656 0.52106 0.0
H993 H 0.13259 0.95189 0.49138 0.0
H994 H 0.18518 0.90267 0.48497 0.0
H995 H 0.22224 0.92744 0.48088 0.0
H996 H 0.07183 0.22401 0.4978 0.0
H997 H 0.10508 0.19467 0.49219 0.0
H998 H 0.0747 0.15128 0.54979 0.0
H999 H 0.0414 0.18021 0.55545 0.0
H1000 H 0.14015 0.17953 0.52677 0.0
H1001 H 0.08198 0.10173 0.49194 0.0
H1002 H 0.07142 0.13288 0.4932 0.0
H1003 H 0.07151 0.11523 0.52045 0.0
C1004 C 0.07218 0.20822 0.50927 0.0
C1005 C 0.05382 0.20448 0.52702 0.0
C1006 C 0.09121 0.19148 0.50603 0.0
C1007 C 0.09212 0.17062 0.52032 0.0
C1008 C 0.07407 0.16701 0.53825 0.0
H1009 H 0.21289 0.0747 0.54927 0.0
H1010 H 0.18045 0.10519 0.55094 0.0
C1011 C 0.0551 0.1837 0.54154 0.0
C1012 C 0.11214 0.15276 0.51688 0.0
H1013 H 0.12302 0.09252 0.50326 0.0
C1014 C 0.13646 0.16054 0.52147 0.0
C1015 C 0.10728 0.12807 0.50966 0.0
C1016 C 0.08167 0.11896 0.50329 0.0
C1017 C 0.156 0.1441 0.51974 0.0
C1018 C 0.15101 0.11918 0.51357 0.0
C1019 C 0.12678 0.11157 0.50826 0.0
C1020 C 0.17066 0.10068 0.51258 0.0
C1021 C 0.18184 0.15358 0.52436 0.0
C1022 C 0.17548 0.08754 0.49062 0.0
C1023 C 0.1939 0.07 0.48964 0.0
C1024 C 0.20775 0.06514 0.51067 0.0
C1025 C 0.20263 0.07808 0.53273 0.0
C1026 C 0.18422 0.09564 0.53368 0.0
H1027 H 0.18326 0.17372 0.52239 0.0
H1028 H 0.18733 0.14945 0.54336 0.0
H1029 H 0.19505 0.14465 0.51154 0.0
H1030 H 0.16511 0.09104 0.47417 0.0
H1031 H 0.19735 0.06032 0.47238 0.0
loop_
_geom_bond_atom_site_label_1
_geom_bond_atom_site_label_2
_geom_bond_distance
_geom_bond_site_symmetry_2
_ccdc_geom_bond_type
Co0 O1 2.216 1_455 S
Co0 O2 2.091 . S
Co0 O4 2.004 . S
Co0 O10 2.021 . S
Co0 O12 2.137 1_455 S
Co0 O13 2.244 1_455 S
O1 Co0 2.216 1_655 S
O1 C8 1.247 . S
O2 Co0 2.091 . S
O2 C8 1.261 1_455 S
C3 O12 1.247 . S
C3 O13 1.272 . S
O4 Co0 2.004 . S
O4 C9 1.259 . S
Co5 O6 2.061 1_655 S
Co5 O11 2.053 . S
Co5 O13 2.135 . S
O6 Co5 2.061 1_455 S
O6 C9 1.235 . S
C7 O10 1.238 . S
C7 O11 1.236 1_455 S
C8 O1 1.247 . S
C8 O2 1.261 1_655 S
C9 O4 1.259 . S
C9 O6 1.235 . S
O10 Co0 2.021 . S
O10 C7 1.238 . S
O11 Co5 2.053 . S
O11 C7 1.236 1_655 S
O12 Co0 2.137 1_655 S
O12 C3 1.247 . S
O13 Co0 2.244 1_655 S
O13 C3 1.272 . S
O13 Co5 2.135 . S
Co14 O15 2.216 1_545 S
Co14 O16 2.091 1_545 S
Co14 O18 2.004 . S
Co14 O24 2.021 . S
Co14 O26 2.137 1_545 S
Co14 O27 2.244 . S
O15 Co14 2.216 1_565 S
O15 C22 1.247 . S
O16 Co14 2.091 1_565 S
O16 C22 1.261 . S
C17 O26 1.247 1_545 S
C17 O27 1.272 . S
O18 Co14 2.004 . S
O18 C23 1.259 . S
Co19 O20 2.061 . S
Co19 O25 2.052 . S
Co19 O27 2.135 . S
O20 Co19 2.061 . S
O20 C23 1.235 . S
C21 O24 1.238 . S
C21 O25 1.241 . S
C22 O15 1.247 . S
C22 O16 1.261 . S
C23 O18 1.259 . S
C23 O20 1.235 . S
O24 Co14 2.021 . S
O24 C21 1.238 . S
O25 Co19 2.052 . S
O25 C21 1.241 . S
O26 Co14 2.137 1_565 S
O26 C17 1.247 1_565 S
O27 Co14 2.244 . S
O27 C17 1.272 . S
O27 Co19 2.135 . S
Co28 O29 2.216 1_455 S
Co28 O30 2.091 . S
Co28 O32 2.004 . S
Co28 O38 2.021 . S
Co28 O40 2.137 1_455 S
Co28 O41 2.244 1_455 S
O29 Co28 2.216 1_655 S
O29 C36 1.247 1_655 S
O30 Co28 2.091 . S
O30 C36 1.261 . S
C31 O40 1.247 . S
C31 O41 1.272 . S
O32 Co28 2.004 . S
O32 C37 1.259 . S
Co33 O34 2.061 . S
Co33 O39 2.052 . S
Co33 O41 2.135 1_455 S
O34 Co33 2.061 . S
O34 C37 1.235 . S
C35 O38 1.238 . S
C35 O39 1.241 . S
C36 O29 1.247 1_455 S
C36 O30 1.261 . S
C37 O32 1.259 . S
C37 O34 1.235 . S
O38 Co28 2.021 . S
O38 C35 1.238 . S
O39 Co33 2.052 . S
O39 C35 1.241 . S
O40 Co28 2.137 1_655 S
O40 C31 1.247 . S
O41 Co28 2.244 1_655 S
O41 C31 1.272 . S
O41 Co33 2.135 1_655 S
Co42 O43 2.216 . S
Co42 O44 2.091 . S
Co42 O46 2.004 . S
Co42 O52 2.054 . S
Co42 O54 2.137 . S
Co42 O55 2.244 . S
O43 Co42 2.216 . S
O43 C50 1.247 . S
O44 Co42 2.091 . S
O44 C50 1.261 . S
C45 O54 1.247 . S
C45 O55 1.272 . S
O46 Co42 2.004 . S
O46 C51 1.259 . S
Co47 O48 2.061 . S
Co47 O53 2.052 . S
Co47 O55 2.135 1_565 S
O48 Co47 2.061 . S
O48 C51 1.235 1_565 S
C49 O52 1.193 1_565 S
C49 O53 1.241 . S
C50 O43 1.247 . S
C50 O44 1.261 . S
C51 O46 1.259 . S
C51 O48 1.235 1_545 S
O52 Co42 2.054 . S
O52 C49 1.193 1_545 S
O53 Co47 2.052 . S
O53 C49 1.241 . S
O54 Co42 2.137 . S
O54 C45 1.247 . S
O55 Co42 2.244 . S
O55 C45 1.272 . S
O55 Co47 2.135 1_545 S
Co56 O57 2.216 . S
Co56 O58 2.091 . S
Co56 O60 2.004 . S
Co56 O66 2.021 1_545 S
Co56 O68 2.137 . S
Co56 O69 2.244 . S
O57 Co56 2.216 . S
O57 C64 1.247 . S
O58 Co56 2.091 . S
O58 C64 1.261 . S
C59 O68 1.247 . S
C59 O69 1.272 . S
O60 Co56 2.004 . S
O60 C65 1.259 . S
Co61 O62 2.061 . S
Co61 O67 2.052 . S
Co61 O69 2.135 1_565 S
O62 Co61 2.061 . S
O62 C65 1.235 1_565 S
C63 O66 1.238 . S
C63 O67 1.241 . S
C64 O57 1.247 . S
C64 O58 1.261 . S
C65 O60 1.259 . S
C65 O62 1.235 1_545 S
O66 Co56 2.021 1_565 S
O66 C63 1.238 . S
O67 Co61 2.052 . S
O67 C63 1.241 . S
O68 Co56 2.137 . S
O68 C59 1.247 . S
O69 Co56 2.244 . S
O69 C59 1.272 . S
O69 Co61 2.135 1_545 S
Co70 O71 2.216 . S
Co70 O72 2.091 1_455 S
Co70 O74 2.004 1_455 S
Co70 O80 2.021 1_455 S
Co70 O82 2.137 . S
Co70 O83 2.244 . S
O71 Co70 2.216 . S
O71 C78 1.247 . S
O72 Co70 2.091 1_655 S
O72 C78 1.261 1_655 S
C73 O82 1.247 . S
C73 O83 1.272 . S
O74 Co70 2.004 1_655 S
O74 C79 1.259 . S
Co75 O76 2.061 1_455 S
Co75 O81 2.052 . S
Co75 O83 2.135 . S
O76 Co75 2.061 1_655 S
O76 C79 1.235 . S
C77 O80 1.238 1_455 S
C77 O81 1.241 . S
C78 O71 1.247 . S
C78 O72 1.261 1_455 S
C79 O74 1.259 . S
C79 O76 1.235 . S
O80 Co70 2.021 1_655 S
O80 C77 1.238 1_655 S
O81 Co75 2.052 . S
O81 C77 1.241 . S
O82 Co70 2.137 . S
O82 C73 1.247 . S
O83 Co70 2.244 . S
O83 C73 1.272 . S
O83 Co75 2.135 . S
Co84 O85 2.216 1_545 S
Co84 O86 2.091 1_545 S
Co84 O88 2.004 . S
Co84 O94 2.021 . S
Co84 O96 2.137 1_545 S
Co84 O97 2.244 . S
O85 Co84 2.216 1_565 S
O85 C92 1.247 . S
O86 Co84 2.091 1_565 S
O86 C92 1.261 . S
C87 O96 1.247 1_545 S
C87 O97 1.272 . S
O88 Co84 2.004 . S
O88 C93 1.259 . S
Co89 O90 2.061 . S
Co89 O95 2.052 . S
Co89 O97 2.135 . S
O90 Co89 2.061 . S
O90 C93 1.235 . S
C91 O94 1.238 . S
C91 O95 1.241 . S
C92 O85 1.247 . S
C92 O86 1.261 . S
C93 O88 1.259 . S
C93 O90 1.235 . S
O94 Co84 2.021 . S
O94 C91 1.238 . S
O95 Co89 2.052 . S
O95 C91 1.241 . S
O96 Co84 2.137 1_565 S
O96 C87 1.247 1_565 S
O97 Co84 2.244 . S
O97 C87 1.272 . S
O97 Co89 2.135 . S
Co98 O99 2.216 . S
Co98 O100 2.091 1_455 S
Co98 O102 2.004 1_455 S
Co98 O108 2.021 1_455 S
Co98 O110 2.137 . S
Co98 O111 2.244 . S
O99 Co98 2.216 . S
O99 C106 1.247 . S
O100 Co98 2.091 1_655 S
O100 C106 1.261 1_655 S
C101 O110 1.247 . S
C101 O111 1.272 . S
O102 Co98 2.004 1_655 S
O102 C107 1.259 . S
Co103 O104 2.061 1_455 S
Co103 O109 2.052 . S
Co103 O111 2.135 . S
O104 Co103 2.061 1_655 S
O104 C107 1.235 . S
C105 O108 1.238 1_455 S
C105 O109 1.241 . S
C106 O99 1.247 . S
C106 O100 1.261 1_455 S
C107 O102 1.259 . S
C107 O104 1.235 . S
O108 Co98 2.021 1_655 S
O108 C105 1.238 1_655 S
O109 Co103 2.052 . S
O109 C105 1.241 . S
O110 Co98 2.137 . S
O110 C101 1.247 . S
O111 Co98 2.244 . S
O111 C101 1.272 . S
O111 Co103 2.135 . S
Co112 O113 2.216 1_554 S
Co112 O114 2.091 . S
Co112 O116 2.004 . S
Co112 O122 2.021 . S
Co112 O124 2.137 1_554 S
Co112 O125 2.244 1_554 S
O113 Co112 2.216 1_556 S
O113 C120 1.247 1_556 S
O114 Co112 2.091 . S
O114 C120 1.261 . S
C115 O124 1.247 . S
C115 O125 1.272 . S
O116 Co112 2.004 . S
O116 C121 1.259 . S
Co117 O118 2.061 . S
Co117 O123 2.052 . S
Co117 O125 2.135 1_554 S
O118 Co117 2.061 . S
O118 C121 1.235 . S
C119 O122 1.238 . S
C119 O123 1.241 . S
C120 O113 1.247 1_554 S
C120 O114 1.261 . S
C121 O116 1.259 . S
C121 O118 1.235 . S
O122 Co112 2.021 . S
O122 C119 1.238 . S
O123 Co117 2.052 . S
O123 C119 1.241 . S
O124 Co112 2.137 1_556 S
O124 C115 1.247 . S
O125 Co112 2.244 1_556 S
O125 C115 1.272 . S
O125 Co117 2.135 1_556 S
Co126 O127 2.216 . S
Co126 O128 2.091 . S
Co126 O130 2.004 . S
Co126 O136 2.021 1_554 S
Co126 O138 2.137 . S
Co126 O139 2.258 . S
O127 Co126 2.216 . S
O127 C134 1.247 . S
O128 Co126 2.091 . S
O128 C134 1.261 . S
C129 O138 1.247 . S
C129 O139 1.293 . S
O130 Co126 2.004 . S
O130 C135 1.259 . S
Co131 O132 2.061 . S
Co131 O137 2.052 . S
Co131 O139 2.112 1_556 S
O132 Co131 2.061 . S
O132 C135 1.235 1_556 S
C133 O136 1.238 . S
C133 O137 1.241 . S
C134 O127 1.247 . S
C134 O128 1.261 . S
C135 O130 1.259 . S
C135 O132 1.235 1_554 S
O136 Co126 2.021 1_556 S
O136 C133 1.238 . S
O137 Co131 2.052 . S
O137 C133 1.241 . S
O138 Co126 2.137 . S
O138 C129 1.247 . S
O139 Co126 2.258 . S
O139 C129 1.293 . S
O139 Co131 2.112 1_554 S
Co140 O141 2.216 1_554 S
Co140 O142 2.091 . S
Co140 O144 2.004 . S
Co140 O150 2.021 . S
Co140 O152 2.137 1_554 S
Co140 O153 2.244 1_554 S
O141 Co140 2.216 1_556 S
O141 C148 1.247 1_556 S
O142 Co140 2.091 . S
O142 C148 1.261 . S
C143 O152 1.247 . S
C143 O153 1.272 . S
O144 Co140 2.004 . S
O144 C149 1.259 . S
Co145 O146 2.061 . S
Co145 O151 2.052 . S
Co145 O153 2.135 1_554 S
O146 Co145 2.061 . S
O146 C149 1.235 . S
C147 O150 1.238 . S
C147 O151 1.241 . S
C148 O141 1.247 1_554 S
C148 O142 1.261 . S
C149 O144 1.259 . S
C149 O146 1.235 . S
O150 Co140 2.021 . S
O150 C147 1.238 . S
O151 Co145 2.052 . S
O151 C147 1.241 . S
O152 Co140 2.137 1_556 S
O152 C143 1.247 . S
O153 Co140 2.244 1_556 S
O153 C143 1.272 . S
O153 Co145 2.135 1_556 S
Co154 O155 2.216 1_554 S
Co154 O156 2.091 1_554 S
Co154 O158 2.004 . S
Co154 O164 2.021 . S
Co154 O166 2.137 1_554 S
Co154 O167 2.244 . S
O155 Co154 2.216 1_556 S
O155 C162 1.247 . S
O156 Co154 2.091 1_556 S
O156 C162 1.261 . S
C157 O166 1.247 1_554 S
C157 O167 1.272 . S
O158 Co154 2.004 . S
O158 C163 1.259 . S
Co159 O160 2.061 . S
Co159 O165 2.052 . S
Co159 O167 2.135 . S
O160 Co159 2.061 . S
O160 C163 1.235 . S
C161 O164 1.238 . S
C161 O165 1.241 . S
C162 O155 1.247 . S
C162 O156 1.261 . S
C163 O158 1.259 . S
C163 O160 1.235 . S
O164 Co154 2.021 . S
O164 C161 1.238 . S
O165 Co159 2.052 . S
O165 C161 1.241 . S
O166 Co154 2.137 1_556 S
O166 C157 1.247 1_556 S
O167 Co154 2.244 . S
O167 C157 1.272 . S
O167 Co159 2.135 . S
H168 C176 0.930 . S
H169 C178 0.930 . S
H170 C180 0.930 . S
H171 C183 0.929 . S
H172 C186 0.930 . S
H173 C188 0.960 . S
H174 C188 0.960 . S
H175 C188 0.960 . S
C176 H168 0.930 . S
C176 C177 1.375 1_455 S
C176 C178 1.385 . S
C177 C176 1.375 1_655 S
C177 C183 1.390 . S
C178 H169 0.930 . S
C178 C176 1.385 . S
C178 C179 1.372 . S
C179 C178 1.372 . S
C179 C180 1.400 1_455 S
C179 C184 1.490 . S
C180 H170 0.930 . S
C180 C179 1.400 1_655 S
C180 C183 1.386 . S
H181 C197 0.930 . S
H182 C198 0.931 . S
C183 H171 0.929 . S
C183 C177 1.390 . S
C183 C180 1.386 . S
C184 C179 1.490 . S
C184 C186 1.395 . S
C184 C187 1.403 1_455 S
H185 C191 0.930 . S
C186 H172 0.930 . S
C186 C184 1.395 . S
C186 C189 1.403 . S
C187 C184 1.403 1_655 S
C187 C188 1.524 . S
C187 C191 1.400 . S
C188 H173 0.960 . S
C188 H174 0.960 . S
C188 H175 0.960 . S
C188 C187 1.524 . S
C189 C186 1.403 . S
C189 C190 1.392 . S
C189 C193 1.495 . S
C190 C189 1.392 . S
C190 C191 1.385 1_455 S
C190 C192 1.478 . S
C191 H185 0.930 . S
C191 C187 1.400 . S
C191 C190 1.385 1_655 S
C192 C190 1.478 . S
C192 C194 1.381 . S
C192 C198 1.383 . S
C193 C189 1.495 . S
C193 H199 0.959 . S
C193 H200 0.961 . S
C193 H201 0.960 . S
C194 C192 1.381 . S
C194 C195 1.394 . S
C194 H202 0.930 . S
C195 C194 1.394 . S
C195 C196 1.383 . S
C195 H203 0.929 . S
C196 C195 1.383 . S
C196 C197 1.377 . S
C197 H181 0.930 . S
C197 C196 1.377 . S
C197 C198 1.379 . S
C198 H182 0.931 . S
C198 C192 1.383 . S
C198 C197 1.379 . S
H199 C193 0.959 . S
H200 C193 0.961 . S
H201 C193 0.960 . S
H202 C194 0.930 . S
H203 C195 0.929 . S
H204 C212 0.929 . S
H205 C214 0.930 . S
H206 C216 0.930 . S
H207 C219 0.929 . S
H208 C222 0.930 . S
H209 C224 0.965 . S
H210 C224 0.937 1_545 S
H211 C224 0.989 . S
C212 H204 0.929 . S
C212 C213 1.377 . S
C212 C214 1.384 . S
C213 C212 1.377 . S
C213 C219 1.390 1_545 S
C214 H205 0.930 . S
C214 C212 1.384 . S
C214 C215 1.372 . S
C215 C214 1.372 . S
C215 C216 1.400 1_545 S
C215 C220 1.490 . S
C216 H206 0.930 . S
C216 C215 1.400 1_565 S
C216 C219 1.386 . S
H217 C233 0.969 . S
H218 C234 0.931 . S
C219 H207 0.929 . S
C219 C213 1.390 1_565 S
C219 C216 1.386 . S
C220 C215 1.490 . S
C220 C222 1.395 . S
C220 C223 1.403 . S
H221 C227 0.930 . S
C222 H208 0.930 . S
C222 C220 1.395 . S
C222 C225 1.403 . S
C223 C220 1.403 . S
C223 C224 1.514 1_545 S
C223 C227 1.400 . S
C224 H209 0.965 . S
C224 H210 0.937 1_565 S
C224 H211 0.989 . S
C224 C223 1.514 1_565 S
C225 C222 1.403 . S
C225 C226 1.392 . S
C225 C229 1.495 . S
C226 C225 1.392 . S
C226 C227 1.385 . S
C226 C228 1.478 . S
C227 H221 0.930 . S
C227 C223 1.400 . S
C227 C226 1.385 . S
C228 C226 1.478 . S
C228 C230 1.381 . S
C228 C234 1.383 1_545 S
C229 C225 1.495 . S
C229 H235 0.959 . S
C229 H236 0.961 . S
C229 H237 0.960 . S
C230 C228 1.381 . S
C230 C231 1.394 . S
C230 H238 0.930 . S
C231 C230 1.394 . S
C231 C232 1.383 . S
C231 H239 0.929 . S
C232 C231 1.383 . S
C232 C233 1.334 1_545 S
C233 H217 0.969 . S
C233 C232 1.334 1_565 S
C233 C234 1.385 . S
C234 H218 0.931 . S
C234 C228 1.383 1_565 S
C234 C233 1.385 . S
H235 C229 0.959 . S
H236 C229 0.961 . S
H237 C229 0.960 . S
H238 C230 0.930 . S
H239 C231 0.929 . S
H240 C248 0.929 . S
H241 C250 0.930 . S
H242 C252 0.930 . S
H243 C255 0.929 . S
H244 C258 0.930 . S
H245 C260 0.960 . S
H246 C260 0.960 . S
H247 C260 0.959 1_455 S
C248 H240 0.929 . S
C248 C249 1.377 1_655 S
C248 C250 1.384 . S
C249 C248 1.377 1_455 S
C249 C255 1.390 . S
C250 H241 0.930 . S
C250 C248 1.384 . S
C250 C251 1.372 1_655 S
C251 C250 1.372 1_455 S
C251 C252 1.400 . S
C251 C256 1.490 . S
C252 H242 0.930 . S
C252 C251 1.400 . S
C252 C255 1.386 . S
H253 C269 0.930 . S
H254 C270 0.931 . S
C255 H243 0.929 . S
C255 C249 1.390 . S
C255 C252 1.386 . S
C256 C251 1.490 . S
C256 C258 1.395 . S
C256 C259 1.403 . S
H257 C263 0.942 . S
C258 H244 0.930 . S
C258 C256 1.395 . S
C258 C261 1.403 . S
C259 C256 1.403 . S
C259 C260 1.524 1_455 S
C259 C263 1.400 . S
C260 H245 0.960 . S
C260 H246 0.960 . S
C260 H247 0.959 1_655 S
C260 C259 1.524 1_655 S
C261 C258 1.403 . S
C261 C262 1.392 . S
C261 C265 1.495 . S
C262 C261 1.392 . S
C262 C263 1.385 . S
C262 C264 1.478 . S
C263 H257 0.942 . S
C263 C259 1.400 . S
C263 C262 1.385 . S
C264 C262 1.478 . S
C264 C266 1.381 . S
C264 C270 1.383 . S
C265 C261 1.495 . S
C265 H271 0.959 . S
C265 H272 0.961 . S
C265 H273 0.960 . S
C266 C264 1.381 . S
C266 C267 1.394 . S
C266 H274 0.930 1_455 S
C267 C266 1.394 . S
C267 C268 1.383 . S
C267 H275 0.929 1_455 S
C268 C267 1.383 . S
C268 C269 1.377 . S
C269 H253 0.930 . S
C269 C268 1.377 . S
C269 C270 1.379 . S
C270 H254 0.931 . S
C270 C264 1.383 . S
C270 C269 1.379 . S
H271 C265 0.959 . S
H272 C265 0.961 . S
H273 C265 0.960 . S
H274 C266 0.930 1_655 S
H275 C267 0.929 1_655 S
H276 C284 0.929 1_565 S
H277 C286 0.893 1_565 S
H278 C288 0.930 . S
H279 C291 0.929 . S
H280 C294 0.930 . S
H281 C296 0.960 . S
H282 C296 0.924 1_565 S
H283 C296 0.960 . S
C284 H276 0.929 1_545 S
C284 C285 1.377 . S
C284 C286 1.389 . S
C285 C284 1.377 . S
C285 C291 1.390 . S
C286 H277 0.893 1_545 S
C286 C284 1.389 . S
C286 C287 1.405 . S
C287 C286 1.405 . S
C287 C288 1.400 . S
C287 C292 1.490 . S
C288 H278 0.930 . S
C288 C287 1.400 . S
C288 C291 1.386 . S
H289 C305 0.930 . S
H290 C306 0.931 . S
C291 H279 0.929 . S
C291 C285 1.390 . S
C291 C288 1.386 . S
C292 C287 1.490 . S
C292 C294 1.395 . S
C292 C295 1.403 . S
H293 C299 0.930 . S
C294 H280 0.930 . S
C294 C292 1.395 . S
C294 C297 1.403 . S
C295 C292 1.403 . S
C295 C296 1.524 . S
C295 C299 1.400 . S
C296 H281 0.960 . S
C296 H282 0.924 1_545 S
C296 H283 0.960 . S
C296 C295 1.524 . S
C297 C294 1.403 . S
C297 C298 1.392 . S
C297 C301 1.495 . S
C298 C297 1.392 . S
C298 C299 1.385 . S
C298 C300 1.478 . S
C299 H293 0.930 . S
C299 C295 1.400 . S
C299 C298 1.385 . S
C300 C298 1.478 . S
C300 C302 1.381 1_545 S
C300 C306 1.383 . S
C301 C297 1.495 . S
C301 H307 0.959 . S
C301 H308 0.961 . S
C301 H309 0.960 1_545 S
C302 C300 1.381 1_565 S
C302 C303 1.394 . S
C302 H310 0.930 . S
C303 C302 1.394 . S
C303 C304 1.383 1_565 S
C303 H311 0.929 . S
C304 C303 1.383 1_545 S
C304 C305 1.377 . S
C305 H289 0.930 . S
C305 C304 1.377 . S
C305 C306 1.379 . S
C306 H290 0.931 . S
C306 C300 1.383 . S
C306 C305 1.379 . S
H307 C301 0.959 . S
H308 C301 0.961 . S
H309 C301 0.960 1_565 S
H310 C302 0.930 . S
H311 C303 0.929 . S
H312 C320 0.929 . S
H313 C322 0.930 . S
H314 C324 0.930 . S
H315 C327 0.929 . S
H316 C330 0.930 . S
H317 C332 0.960 . S
H318 C332 0.986 . S
H319 C332 0.960 . S
C320 H312 0.929 . S
C320 C321 1.377 1_655 S
C320 C322 1.384 . S
C321 C320 1.377 1_455 S
C321 C327 1.390 . S
C322 H313 0.930 . S
C322 C320 1.384 . S
C322 C323 1.372 1_655 S
C323 C322 1.372 1_455 S
C323 C324 1.400 . S
C323 C328 1.490 . S
C324 H314 0.930 . S
C324 C323 1.400 . S
C324 C327 1.386 . S
H325 C341 0.930 . S
H326 C342 0.931 . S
C327 H315 0.929 . S
C327 C321 1.390 . S
C327 C324 1.386 . S
C328 C323 1.490 . S
C328 C330 1.395 . S
C328 C331 1.403 . S
H329 C335 0.930 . S
C330 H316 0.930 . S
C330 C328 1.395 . S
C330 C333 1.403 . S
C331 C328 1.403 . S
C331 C332 1.524 . S
C331 C335 1.400 . S
C332 H317 0.960 . S
C332 H318 0.986 . S
C332 H319 0.960 . S
C332 C331 1.524 . S
C333 C330 1.403 . S
C333 C334 1.392 . S
C333 C337 1.495 . S
C334 C333 1.392 . S
C334 C335 1.385 . S
C334 C336 1.478 . S
C335 H329 0.930 . S
C335 C331 1.400 . S
C335 C334 1.385 . S
C336 C334 1.478 . S
C336 C338 1.381 1_455 S
C336 C342 1.383 . S
C337 C333 1.495 . S
C337 H343 0.959 . S
C337 H344 0.961 . S
C337 H345 0.960 1_455 S
C338 C336 1.381 1_655 S
C338 C339 1.394 . S
C338 H346 0.930 . S
C339 C338 1.394 . S
C339 C340 1.383 1_655 S
C339 H347 0.929 . S
C340 C339 1.383 1_455 S
C340 C341 1.377 . S
C341 H325 0.930 . S
C341 C340 1.377 . S
C341 C342 1.379 . S
C342 H326 0.931 . S
C342 C336 1.383 . S
C342 C341 1.379 . S
H343 C337 0.959 . S
H344 C337 0.961 . S
H345 C337 0.960 1_655 S
H346 C338 0.930 . S
H347 C339 0.929 . S
H348 C356 0.929 . S
H349 C358 0.930 . S
H350 C360 0.930 . S
H351 C363 0.929 . S
H352 C366 0.930 . S
H353 C368 0.960 . S
H354 C368 0.960 . S
H355 C368 0.960 . S
C356 H348 0.929 . S
C356 C357 1.377 . S
C356 C358 1.384 . S
C357 C356 1.377 . S
C357 C363 1.390 . S
C358 H349 0.930 . S
C358 C356 1.384 . S
C358 C359 1.372 . S
C359 C358 1.372 . S
C359 C360 1.400 . S
C359 C364 1.490 . S
C360 H350 0.930 . S
C360 C359 1.400 . S
C360 C363 1.386 . S
H361 C377 0.930 . S
H362 C378 0.931 . S
C363 H351 0.929 . S
C363 C357 1.390 . S
C363 C360 1.386 . S
C364 C359 1.490 . S
C364 C366 1.395 1_545 S
C364 C367 1.403 . S
H365 C371 0.930 . S
C366 H352 0.930 . S
C366 C364 1.395 1_565 S
C366 C369 1.403 . S
C367 C364 1.403 . S
C367 C368 1.524 . S
C367 C371 1.400 . S
C368 H353 0.960 . S
C368 H354 0.960 . S
C368 H355 0.960 . S
C368 C367 1.524 . S
C369 C366 1.403 . S
C369 C370 1.392 1_565 S
C369 C373 1.495 . S
C370 C369 1.392 1_545 S
C370 C371 1.385 . S
C370 C372 1.478 . S
C371 H365 0.930 . S
C371 C367 1.400 . S
C371 C370 1.385 . S
C372 C370 1.478 . S
C372 C374 1.381 . S
C372 C378 1.383 . S
C373 C369 1.495 . S
C373 H379 0.959 . S
C373 H380 0.961 . S
C373 H381 0.960 . S
C374 C372 1.381 . S
C374 C375 1.394 . S
C374 H382 0.930 . S
C375 C374 1.394 . S
C375 C376 1.383 . S
C375 H383 0.929 . S
C376 C375 1.383 . S
C376 C377 1.377 . S
C377 H361 0.930 . S
C377 C376 1.377 . S
C377 C378 1.379 . S
C378 H362 0.931 . S
C378 C372 1.383 . S
C378 C377 1.379 . S
H379 C373 0.959 . S
H380 C373 0.961 . S
H381 C373 0.960 . S
H382 C374 0.930 . S
H383 C375 0.929 . S
H384 C392 0.929 . S
H385 C394 0.930 . S
H386 C396 0.930 . S
H387 C399 0.929 . S
H388 C402 0.930 . S
H389 C404 0.960 . S
H390 C404 0.960 . S
H391 C404 0.960 . S
C392 H384 0.929 . S
C392 C393 1.377 . S
C392 C394 1.384 . S
C393 C392 1.377 . S
C393 C399 1.390 . S
C394 H385 0.930 . S
C394 C392 1.384 . S
C394 C395 1.372 . S
C395 C394 1.372 . S
C395 C396 1.400 . S
C395 C400 1.490 . S
C396 H386 0.930 . S
C396 C395 1.400 . S
C396 C399 1.386 . S
H397 C413 0.930 . S
H398 C414 0.931 . S
C399 H387 0.929 . S
C399 C393 1.390 . S
C399 C396 1.386 . S
C400 C395 1.490 . S
C400 C402 1.395 1_455 S
C400 C403 1.403 . S
H401 C407 0.930 . S
C402 H388 0.930 . S
C402 C400 1.395 1_655 S
C402 C405 1.403 . S
C403 C400 1.403 . S
C403 C404 1.524 . S
C403 C407 1.400 . S
C404 H389 0.960 . S
C404 H390 0.960 . S
C404 H391 0.960 . S
C404 C403 1.524 . S
C405 C402 1.403 . S
C405 C406 1.392 1_655 S
C405 C409 1.495 . S
C406 C405 1.392 1_455 S
C406 C407 1.385 . S
C406 C408 1.476 1_455 S
C407 H401 0.930 . S
C407 C403 1.400 . S
C407 C406 1.385 . S
C408 C406 1.476 1_655 S
C408 C410 1.377 1_655 S
C408 C414 1.387 . S
C409 C405 1.495 . S
C409 H415 0.959 . S
C409 H416 0.961 . S
C409 H417 0.960 . S
C410 C408 1.377 1_455 S
C410 C411 1.394 . S
C410 H418 0.930 . S
C411 C410 1.394 . S
C411 C412 1.383 1_455 S
C411 H419 0.929 . S
C412 C411 1.383 1_655 S
C412 C413 1.377 . S
C413 H397 0.930 . S
C413 C412 1.377 . S
C413 C414 1.379 . S
C414 H398 0.931 . S
C414 C408 1.387 . S
C414 C413 1.379 . S
H415 C409 0.959 . S
H416 C409 0.961 . S
H417 C409 0.960 . S
H418 C410 0.930 . S
H419 C411 0.929 . S
H420 C428 0.929 . S
H421 C430 0.930 . S
H422 C432 0.930 . S
H423 C435 0.929 . S
H424 C438 0.930 . S
H425 C440 0.960 . S
H426 C440 0.960 . S
H427 C440 0.960 . S
C428 H420 0.929 . S
C428 C429 1.377 . S
C428 C430 1.384 . S
C429 C428 1.377 . S
C429 C435 1.390 1_545 S
C430 H421 0.930 . S
C430 C428 1.384 . S
C430 C431 1.372 . S
C431 C430 1.372 . S
C431 C432 1.400 1_545 S
C431 C436 1.490 . S
C432 H422 0.930 . S
C432 C431 1.400 1_565 S
C432 C435 1.386 . S
H433 C449 0.930 1_565 S
H434 C450 0.931 1_565 S
C435 H423 0.929 . S
C435 C429 1.390 1_565 S
C435 C432 1.386 . S
C436 C431 1.490 . S
C436 C438 1.395 . S
C436 C439 1.404 . S
H437 C443 0.930 1_565 S
C438 H424 0.930 . S
C438 C436 1.395 . S
C438 C441 1.403 . S
C439 C436 1.404 . S
C439 C440 1.522 1_545 S
C439 C443 1.400 . S
C440 H425 0.960 . S
C440 H426 0.960 . S
C440 H427 0.960 . S
C440 C439 1.522 1_565 S
C441 C438 1.403 . S
C441 C442 1.392 . S
C441 C445 1.495 . S
C442 C441 1.392 . S
C442 C443 1.385 . S
C442 C444 1.478 . S
C443 H437 0.930 1_545 S
C443 C439 1.400 . S
C443 C442 1.385 . S
C444 C442 1.478 . S
C444 C446 1.381 . S
C444 C450 1.383 . S
C445 C441 1.495 . S
C445 H451 0.959 . S
C445 H452 0.961 . S
C445 H453 0.960 . S
C446 C444 1.381 . S
C446 C447 1.394 . S
C446 H454 0.930 . S
C447 C446 1.394 . S
C447 C448 1.383 . S
C447 H455 0.929 . S
C448 C447 1.383 . S
C448 C449 1.377 . S
C449 H433 0.930 1_545 S
C449 C448 1.377 . S
C449 C450 1.379 . S
C450 H434 0.931 1_545 S
C450 C444 1.383 . S
C450 C449 1.379 . S
H451 C445 0.959 . S
H452 C445 0.961 . S
H453 C445 0.960 . S
H454 C446 0.930 . S
H455 C447 0.929 . S
H456 C464 0.929 . S
H457 C466 0.930 . S
H458 C468 0.930 . S
H459 C471 0.929 . S
H460 C474 0.930 . S
H461 C476 0.960 . S
H462 C476 0.960 . S
H463 C476 0.960 . S
C464 H456 0.929 . S
C464 C465 1.377 1_556 S
C464 C466 1.384 . S
C465 C464 1.377 1_554 S
C465 C471 1.390 . S
C466 H457 0.930 . S
C466 C464 1.384 . S
C466 C467 1.372 1_556 S
C467 C466 1.372 1_554 S
C467 C468 1.400 . S
C467 C472 1.490 . S
C468 H458 0.930 . S
C468 C467 1.400 . S
C468 C471 1.386 . S
H469 C485 0.930 . S
H470 C486 0.931 . S
C471 H459 0.929 . S
C471 C465 1.390 . S
C471 C468 1.386 . S
C472 C467 1.490 . S
C472 C474 1.395 . S
C472 C475 1.403 . S
H473 C479 0.930 . S
C474 H460 0.930 . S
C474 C472 1.395 . S
C474 C477 1.403 . S
C475 C472 1.403 . S
C475 C476 1.524 . S
C475 C479 1.400 . S
C476 H461 0.960 . S
C476 H462 0.960 . S
C476 H463 0.960 . S
C476 C475 1.524 . S
C477 C474 1.403 . S
C477 C478 1.392 . S
C477 C481 1.492 1_554 S
C478 C477 1.392 . S
C478 C479 1.385 . S
C478 C480 1.478 . S
C479 H473 0.930 . S
C479 C475 1.400 . S
C479 C478 1.385 . S
C480 C478 1.478 . S
C480 C482 1.381 1_554 S
C480 C486 1.383 . S
C481 C477 1.492 1_556 S
C481 H487 0.960 . S
C481 H488 0.948 1_556 S
C481 H489 0.975 . S
C482 C480 1.381 1_556 S
C482 C483 1.394 . S
C482 H490 0.930 . S
C483 C482 1.394 . S
C483 C484 1.383 1_556 S
C483 H491 0.929 . S
C484 C483 1.383 1_554 S
C484 C485 1.377 . S
C485 H469 0.930 . S
C485 C484 1.377 . S
C485 C486 1.379 . S
C486 H470 0.931 . S
C486 C480 1.383 . S
C486 C485 1.379 . S
H487 C481 0.960 . S
H488 C481 0.948 1_554 S
H489 C481 0.975 . S
H490 C482 0.930 . S
H491 C483 0.929 . S
H492 C500 0.904 1_556 S
H493 C502 0.930 . S
H494 C504 0.930 . S
H495 C507 0.929 . S
H496 C510 0.930 . S
H497 C512 0.960 . S
H498 C512 0.960 . S
H499 C512 0.960 . S
C500 H492 0.904 1_554 S
C500 C501 1.406 . S
C500 C502 1.380 1_554 S
C501 C500 1.406 . S
C501 C507 1.390 . S
C502 H493 0.930 . S
C502 C500 1.380 1_556 S
C502 C503 1.372 1_556 S
C503 C502 1.372 1_554 S
C503 C504 1.400 . S
C503 C508 1.490 . S
C504 H494 0.930 . S
C504 C503 1.400 . S
C504 C507 1.386 . S
H505 C521 0.930 . S
H506 C522 0.931 . S
C507 H495 0.929 . S
C507 C501 1.390 . S
C507 C504 1.386 . S
C508 C503 1.490 . S
C508 C510 1.395 . S
C508 C511 1.403 . S
H509 C515 0.930 . S
C510 H496 0.930 . S
C510 C508 1.395 . S
C510 C513 1.403 . S
C511 C508 1.403 . S
C511 C512 1.524 . S
C511 C515 1.400 . S
C512 H497 0.960 . S
C512 H498 0.960 . S
C512 H499 0.960 . S
C512 C511 1.524 . S
C513 C510 1.403 . S
C513 C514 1.392 . S
C513 C517 1.495 . S
C514 C513 1.392 . S
C514 C515 1.385 . S
C514 C516 1.478 . S
C515 H509 0.930 . S
C515 C511 1.400 . S
C515 C514 1.385 . S
C516 C514 1.478 . S
C516 C518 1.381 1_554 S
C516 C522 1.383 . S
C517 C513 1.495 . S
C517 H523 0.959 . S
C517 H524 0.961 . S
C517 H525 0.960 1_554 S
C518 C516 1.381 1_556 S
C518 C519 1.394 . S
C518 H526 0.930 . S
C519 C518 1.394 . S
C519 C520 1.383 1_556 S
C519 H527 0.929 . S
C520 C519 1.383 1_554 S
C520 C521 1.377 . S
C521 H505 0.930 . S
C521 C520 1.377 . S
C521 C522 1.379 . S
C522 H506 0.931 . S
C522 C516 1.383 . S
C522 C521 1.379 . S
H523 C517 0.959 . S
H524 C517 0.961 . S
H525 C517 0.960 1_556 S
H526 C518 0.930 . S
H527 C519 0.929 . S
H528 C536 0.929 . S
H529 C538 0.930 . S
H530 C540 0.930 . S
H531 C543 0.929 . S
H532 C546 0.930 . S
H533 C548 0.960 . S
H534 C548 0.960 1_556 S
H535 C548 0.960 . S
C536 H528 0.929 . S
C536 C537 1.377 1_556 S
C536 C538 1.384 . S
C537 C536 1.377 1_554 S
C537 C543 1.390 . S
C538 H529 0.930 . S
C538 C536 1.384 . S
C538 C539 1.372 1_556 S
C539 C538 1.372 1_554 S
C539 C540 1.400 . S
C539 C544 1.490 . S
C540 H530 0.930 . S
C540 C539 1.400 . S
C540 C543 1.386 . S
H541 C557 0.930 . S
H542 C558 0.931 . S
C543 H531 0.929 . S
C543 C537 1.390 . S
C543 C540 1.386 . S
C544 C539 1.490 . S
C544 C546 1.395 . S
C544 C547 1.403 . S
H545 C551 0.930 . S
C546 H532 0.930 . S
C546 C544 1.395 . S
C546 C549 1.403 . S
C547 C544 1.403 . S
C547 C548 1.524 . S
C547 C551 1.400 . S
C548 H533 0.960 . S
C548 H534 0.960 1_554 S
C548 H535 0.960 . S
C548 C547 1.524 . S
C549 C546 1.403 . S
C549 C550 1.392 . S
C549 C553 1.495 . S
C550 C549 1.392 . S
C550 C551 1.385 . S
C550 C552 1.478 . S
C551 H545 0.930 . S
C551 C547 1.400 . S
C551 C550 1.385 . S
C552 C550 1.478 . S
C552 C554 1.381 1_554 S
C552 C558 1.383 . S
C553 C549 1.495 . S
C553 H559 0.959 . S
C553 H560 0.961 . S
C553 H561 0.960 1_554 S
C554 C552 1.381 1_556 S
C554 C555 1.394 . S
C554 H562 0.930 . S
C555 C554 1.394 . S
C555 C556 1.383 1_556 S
C555 H563 0.929 . S
C556 C555 1.383 1_554 S
C556 C557 1.377 . S
C557 H541 0.930 . S
C557 C556 1.377 . S
C557 C558 1.379 . S
C558 H542 0.931 . S
C558 C552 1.383 . S
C558 C557 1.379 . S
H559 C553 0.959 . S
H560 C553 0.961 . S
H561 C553 0.960 1_556 S
H562 C554 0.930 . S
H563 C555 0.929 . S
H564 C572 0.929 . S
H565 C574 0.930 . S
H566 C576 0.930 . S
H567 C579 0.929 . S
H568 C582 0.930 . S
H569 C584 0.960 . S
H570 C584 0.960 . S
H571 C584 0.960 . S
C572 H564 0.929 . S
C572 C573 1.377 1_556 S
C572 C574 1.384 . S
C573 C572 1.377 1_554 S
C573 C579 1.390 . S
C574 H565 0.930 . S
C574 C572 1.384 . S
C574 C575 1.372 1_556 S
C575 C574 1.372 1_554 S
C575 C576 1.400 . S
C575 C580 1.490 . S
C576 H566 0.930 . S
C576 C575 1.400 . S
C576 C579 1.386 . S
H577 C593 0.930 . S
H578 C594 0.931 . S
C579 H567 0.929 . S
C579 C573 1.390 . S
C579 C576 1.386 . S
C580 C575 1.490 . S
C580 C582 1.395 1_554 S
C580 C583 1.403 . S
H581 C587 0.930 . S
C582 H568 0.930 . S
C582 C580 1.395 1_556 S
C582 C585 1.403 . S
C583 C580 1.403 . S
C583 C584 1.524 . S
C583 C587 1.400 . S
C584 H569 0.960 . S
C584 H570 0.960 . S
C584 H571 0.960 . S
C584 C583 1.524 . S
C585 C582 1.403 . S
C585 C586 1.392 1_556 S
C585 C589 1.495 . S
C586 C585 1.392 1_554 S
C586 C587 1.385 . S
C586 C588 1.478 . S
C587 H581 0.930 . S
C587 C583 1.400 . S
C587 C586 1.385 . S
C588 C586 1.478 . S
C588 C590 1.381 1_554 S
C588 C594 1.383 . S
C589 C585 1.495 . S
C589 H595 0.959 . S
C589 H596 0.961 . S
C589 H597 0.960 . S
C590 C588 1.381 1_556 S
C590 C591 1.394 1_556 S
C590 H598 0.930 . S
C591 C590 1.394 1_554 S
C591 C592 1.383 . S
C591 H599 0.929 1_554 S
C592 C591 1.383 . S
C592 C593 1.377 . S
C593 H577 0.930 . S
C593 C592 1.377 . S
C593 C594 1.379 . S
C594 H578 0.931 . S
C594 C588 1.383 . S
C594 C593 1.379 . S
H595 C589 0.959 . S
H596 C589 0.961 . S
H597 C589 0.960 . S
H598 C590 0.930 . S
H599 C591 0.929 1_556 S
H600 C608 0.929 . S
H601 C610 0.930 . S
H602 C612 0.930 . S
H603 C615 0.929 . S
H604 C618 0.930 . S
H605 C620 0.960 . S
H606 C620 0.960 . S
H607 C620 0.960 . S
C608 H600 0.929 . S
C608 C609 1.377 . S
C608 C610 1.384 . S
C609 C608 1.377 . S
C609 C615 1.390 . S
C610 H601 0.930 . S
C610 C608 1.384 . S
C610 C611 1.372 . S
C611 C610 1.372 . S
C611 C612 1.400 . S
C611 C616 1.490 . S
C612 H602 0.930 . S
C612 C611 1.400 . S
C612 C615 1.386 . S
H613 C629 0.930 . S
H614 C630 0.931 . S
C615 H603 0.929 . S
C615 C609 1.390 . S
C615 C612 1.386 . S
C616 C611 1.490 . S
C616 C618 1.395 . S
C616 C619 1.403 . S
H617 C623 0.930 . S
C618 H604 0.930 . S
C618 C616 1.395 . S
C618 C621 1.403 . S
C619 C616 1.403 . S
C619 C620 1.524 . S
C619 C623 1.400 . S
C620 H605 0.960 . S
C620 H606 0.960 . S
C620 H607 0.960 . S
C620 C619 1.524 . S
C621 C618 1.403 . S
C621 C622 1.392 . S
C621 C625 1.495 . S
C622 C621 1.392 . S
C622 C623 1.385 . S
C622 C624 1.478 . S
C623 H617 0.930 . S
C623 C619 1.400 . S
C623 C622 1.385 . S
C624 C622 1.478 . S
C624 C626 1.381 . S
C624 C630 1.383 . S
C625 C621 1.495 . S
C625 H631 0.959 . S
C625 H632 0.961 . S
C625 H633 0.960 . S
C626 C624 1.381 . S
C626 C627 1.394 . S
C626 H634 0.930 . S
C627 C626 1.394 . S
C627 C628 1.383 . S
C627 H635 0.929 . S
C628 C627 1.383 . S
C628 C629 1.377 . S
C629 H613 0.930 . S
C629 C628 1.377 . S
C629 C630 1.379 . S
C630 H614 0.931 . S
C630 C624 1.383 . S
C630 C629 1.379 . S
H631 C625 0.959 . S
H632 C625 0.961 . S
H633 C625 0.960 . S
H634 C626 0.930 . S
H635 C627 0.929 . S
H636 C644 0.929 . S
H637 C646 0.930 . S
H638 C648 0.930 . S
H639 C651 0.929 . S
H640 C654 0.930 . S
H641 C656 0.960 . S
H642 C656 0.960 . S
H643 C656 0.960 . S
C644 H636 0.929 . S
C644 C645 1.377 . S
C644 C646 1.384 . S
C645 C644 1.377 . S
C645 C651 1.390 . S
C646 H637 0.930 . S
C646 C644 1.384 . S
C646 C647 1.372 . S
C647 C646 1.372 . S
C647 C648 1.400 . S
C647 C652 1.490 . S
C648 H638 0.930 . S
C648 C647 1.400 . S
C648 C651 1.386 . S
H649 C665 0.930 . S
H650 C666 0.931 . S
C651 H639 0.929 . S
C651 C645 1.390 . S
C651 C648 1.386 . S
C652 C647 1.490 . S
C652 C654 1.395 . S
C652 C655 1.403 . S
H653 C659 0.930 . S
C654 H640 0.930 . S
C654 C652 1.395 . S
C654 C657 1.403 . S
C655 C652 1.403 . S
C655 C656 1.524 . S
C655 C659 1.400 . S
C656 H641 0.960 . S
C656 H642 0.960 . S
C656 H643 0.960 . S
C656 C655 1.524 . S
C657 C654 1.403 . S
C657 C658 1.392 . S
C657 C661 1.495 . S
C658 C657 1.392 . S
C658 C659 1.385 . S
C658 C660 1.478 . S
C659 H653 0.930 . S
C659 C655 1.400 . S
C659 C658 1.385 . S
C660 C658 1.478 . S
C660 C662 1.381 . S
C660 C666 1.383 . S
C661 C657 1.495 . S
C661 H667 0.959 . S
C661 H668 0.961 . S
C661 H669 0.960 . S
C662 C660 1.381 . S
C662 C663 1.394 . S
C662 H670 0.930 . S
C663 C662 1.394 . S
C663 C664 1.383 . S
C663 H671 0.929 . S
C664 C663 1.383 . S
C664 C665 1.377 . S
C665 H649 0.930 . S
C665 C664 1.377 . S
C665 C666 1.379 . S
C666 H650 0.931 . S
C666 C660 1.383 . S
C666 C665 1.379 . S
H667 C661 0.959 . S
H668 C661 0.961 . S
H669 C661 0.960 . S
H670 C662 0.930 . S
H671 C663 0.929 . S
H672 C680 0.929 . S
H673 C682 0.930 . S
H674 C684 0.930 . S
H675 C687 0.929 . S
H676 C690 0.930 . S
H677 C692 0.960 . S
H678 C692 0.960 . S
H679 C692 0.960 . S
C680 H672 0.929 . S
C680 C681 1.377 . S
C680 C682 1.384 . S
C681 C680 1.377 . S
C681 C687 1.390 . S
C682 H673 0.930 . S
C682 C680 1.384 . S
C682 C683 1.372 . S
C683 C682 1.372 . S
C683 C684 1.400 . S
C683 C688 1.490 . S
C684 H674 0.930 . S
C684 C683 1.400 . S
C684 C687 1.386 . S
H685 C701 0.930 . S
H686 C702 0.931 . S
C687 H675 0.929 . S
C687 C681 1.390 . S
C687 C684 1.386 . S
C688 C683 1.490 . S
C688 C690 1.395 . S
C688 C691 1.403 . S
H689 C695 0.930 . S
C690 H676 0.930 . S
C690 C688 1.395 . S
C690 C693 1.403 . S
C691 C688 1.403 . S
C691 C692 1.524 . S
C691 C695 1.400 . S
C692 H677 0.960 . S
C692 H678 0.960 . S
C692 H679 0.960 . S
C692 C691 1.524 . S
C693 C690 1.403 . S
C693 C694 1.392 . S
C693 C697 1.495 . S
C694 C693 1.392 . S
C694 C695 1.385 . S
C694 C696 1.478 . S
C695 H689 0.930 . S
C695 C691 1.400 . S
C695 C694 1.385 . S
C696 C694 1.478 . S
C696 C698 1.381 . S
C696 C702 1.383 . S
C697 C693 1.495 . S
C697 H703 0.959 . S
C697 H704 0.961 . S
C697 H705 0.960 . S
C698 C696 1.381 . S
C698 C699 1.394 . S
C698 H706 0.930 . S
C699 C698 1.394 . S
C699 C700 1.383 . S
C699 H707 0.929 . S
C700 C699 1.383 . S
C700 C701 1.377 . S
C701 H685 0.930 . S
C701 C700 1.377 . S
C701 C702 1.379 . S
C702 H686 0.931 . S
C702 C696 1.383 . S
C702 C701 1.379 . S
H703 C697 0.959 . S
H704 C697 0.961 . S
H705 C697 0.960 . S
H706 C698 0.930 . S
H707 C699 0.929 . S
H708 C716 0.929 . S
H709 C718 0.930 . S
H710 C720 0.930 . S
H711 C723 0.929 . S
H712 C726 0.930 . S
H713 C728 0.960 . S
H714 C728 0.960 . S
H715 C728 0.960 . S
C716 H708 0.929 . S
C716 C717 1.377 . S
C716 C718 1.384 . S
C717 C716 1.377 . S
C717 C723 1.390 . S
C718 H709 0.930 . S
C718 C716 1.384 . S
C718 C719 1.372 . S
C719 C718 1.372 . S
C719 C720 1.400 . S
C719 C724 1.490 . S
C720 H710 0.930 . S
C720 C719 1.400 . S
C720 C723 1.386 . S
H721 C737 0.930 . S
H722 C738 0.931 . S
C723 H711 0.929 . S
C723 C717 1.390 . S
C723 C720 1.386 . S
C724 C719 1.490 . S
C724 C726 1.395 . S
C724 C727 1.403 . S
H725 C731 0.930 . S
C726 H712 0.930 . S
C726 C724 1.395 . S
C726 C729 1.403 . S
C727 C724 1.403 . S
C727 C728 1.524 . S
C727 C731 1.400 . S
C728 H713 0.960 . S
C728 H714 0.960 . S
C728 H715 0.960 . S
C728 C727 1.524 . S
C729 C726 1.403 . S
C729 C730 1.392 . S
C729 C733 1.495 . S
C730 C729 1.392 . S
C730 C731 1.385 . S
C730 C732 1.478 . S
C731 H725 0.930 . S
C731 C727 1.400 . S
C731 C730 1.385 . S
C732 C730 1.478 . S
C732 C734 1.381 . S
C732 C738 1.383 . S
C733 C729 1.495 . S
C733 H739 0.959 . S
C733 H740 0.961 . S
C733 H741 0.960 . S
C734 C732 1.381 . S
C734 C735 1.394 . S
C734 H742 0.930 . S
C735 C734 1.394 . S
C735 C736 1.383 . S
C735 H743 0.929 . S
C736 C735 1.383 . S
C736 C737 1.377 . S
C737 H721 0.930 . S
C737 C736 1.377 . S
C737 C738 1.379 . S
C738 H722 0.931 . S
C738 C732 1.383 . S
C738 C737 1.379 . S
H739 C733 0.959 . S
H740 C733 0.961 . S
H741 C733 0.960 . S
H742 C734 0.930 . S
H743 C735 0.929 . S
H744 C752 0.929 . S
H745 C754 0.930 . S
H746 C756 0.930 . S
H747 C759 0.929 . S
H748 C762 0.930 . S
H749 C764 0.960 . S
H750 C764 0.960 . S
H751 C764 0.960 . S
C752 H744 0.929 . S
C752 C753 1.377 . S
C752 C754 1.384 . S
C753 C752 1.377 . S
C753 C759 1.390 . S
C754 H745 0.930 . S
C754 C752 1.384 . S
C754 C755 1.372 . S
C755 C754 1.372 . S
C755 C756 1.400 . S
C755 C760 1.490 . S
C756 H746 0.930 . S
C756 C755 1.400 . S
C756 C759 1.386 . S
H757 C773 0.930 . S
H758 C774 0.931 . S
C759 H747 0.929 . S
C759 C753 1.390 . S
C759 C756 1.386 . S
C760 C755 1.490 . S
C760 C762 1.395 . S
C760 C763 1.403 . S
H761 C767 0.930 . S
C762 H748 0.930 . S
C762 C760 1.395 . S
C762 C765 1.403 . S
C763 C760 1.403 . S
C763 C764 1.524 . S
C763 C767 1.400 . S
C764 H749 0.960 . S
C764 H750 0.960 . S
C764 H751 0.960 . S
C764 C763 1.524 . S
C765 C762 1.403 . S
C765 C766 1.392 . S
C765 C769 1.495 . S
C766 C765 1.392 . S
C766 C767 1.385 . S
C766 C768 1.478 . S
C767 H761 0.930 . S
C767 C763 1.400 . S
C767 C766 1.385 . S
C768 C766 1.478 . S
C768 C770 1.381 . S
C768 C774 1.383 . S
C769 C765 1.495 . S
C769 H775 0.959 . S
C769 H776 0.961 . S
C769 H777 0.960 . S
C770 C768 1.381 . S
C770 C771 1.394 . S
C770 H778 0.930 . S
C771 C770 1.394 . S
C771 C772 1.383 . S
C771 H779 0.929 . S
C772 C771 1.383 . S
C772 C773 1.377 . S
C773 H757 0.930 . S
C773 C772 1.377 . S
C773 C774 1.379 . S
C774 H758 0.931 . S
C774 C768 1.383 . S
C774 C773 1.379 . S
H775 C769 0.959 . S
H776 C769 0.961 . S
H777 C769 0.960 . S
H778 C770 0.930 . S
H779 C771 0.929 . S
H780 C788 0.929 . S
H781 C790 0.930 . S
H782 C792 0.930 . S
H783 C795 0.929 . S
H784 C798 0.930 . S
H785 C800 0.960 . S
H786 C800 0.960 . S
H787 C800 0.960 . S
C788 H780 0.929 . S
C788 C789 1.377 . S
C788 C790 1.384 . S
C789 C788 1.377 . S
C789 C795 1.390 . S
C790 H781 0.930 . S
C790 C788 1.384 . S
C790 C791 1.372 . S
C791 C790 1.372 . S
C791 C792 1.400 . S
C791 C796 1.490 . S
C792 H782 0.930 . S
C792 C791 1.400 . S
C792 C795 1.386 . S
H793 C809 0.930 . S
H794 C810 0.931 . S
C795 H783 0.929 . S
C795 C789 1.390 . S
C795 C792 1.386 . S
C796 C791 1.490 . S
C796 C798 1.395 . S
C796 C799 1.403 . S
H797 C803 0.930 . S
C798 H784 0.930 . S
C798 C796 1.395 . S
C798 C801 1.403 . S
C799 C796 1.403 . S
C799 C800 1.524 . S
C799 C803 1.400 . S
C800 H785 0.960 . S
C800 H786 0.960 . S
C800 H787 0.960 . S
C800 C799 1.524 . S
C801 C798 1.403 . S
C801 C802 1.392 . S
C801 C805 1.495 . S
C802 C801 1.392 . S
C802 C803 1.385 . S
C802 C804 1.478 . S
C803 H797 0.930 . S
C803 C799 1.400 . S
C803 C802 1.385 . S
C804 C802 1.478 . S
C804 C806 1.381 . S
C804 C810 1.383 . S
C805 C801 1.495 . S
C805 H811 0.959 . S
C805 H812 0.961 . S
C805 H813 0.960 . S
C806 C804 1.381 . S
C806 C807 1.394 . S
C806 H814 0.930 . S
C807 C806 1.394 . S
C807 C808 1.383 . S
C807 H815 0.929 . S
C808 C807 1.383 . S
C808 C809 1.377 . S
C809 H793 0.930 . S
C809 C808 1.377 . S
C809 C810 1.379 . S
C810 H794 0.931 . S
C810 C804 1.383 . S
C810 C809 1.379 . S
H811 C805 0.959 . S
H812 C805 0.961 . S
H813 C805 0.960 . S
H814 C806 0.930 . S
H815 C807 0.929 . S
H816 C824 0.929 . S
H817 C826 0.930 . S
H818 C828 0.930 . S
H819 C831 0.929 . S
H820 C834 0.930 . S
H821 C836 0.960 . S
H822 C836 0.960 . S
H823 C836 0.960 . S
C824 H816 0.929 . S
C824 C825 1.377 . S
C824 C826 1.384 . S
C825 C824 1.377 . S
C825 C831 1.390 . S
C826 H817 0.930 . S
C826 C824 1.384 . S
C826 C827 1.372 . S
C827 C826 1.372 . S
C827 C828 1.400 . S
C827 C832 1.490 . S
C828 H818 0.930 . S
C828 C827 1.400 . S
C828 C831 1.386 . S
H829 C845 0.930 . S
H830 C846 0.931 . S
C831 H819 0.929 . S
C831 C825 1.390 . S
C831 C828 1.386 . S
C832 C827 1.490 . S
C832 C834 1.395 . S
C832 C835 1.403 . S
H833 C839 0.930 . S
C834 H820 0.930 . S
C834 C832 1.395 . S
C834 C837 1.403 . S
C835 C832 1.403 . S
C835 C836 1.524 . S
C835 C839 1.400 . S
C836 H821 0.960 . S
C836 H822 0.960 . S
C836 H823 0.960 . S
C836 C835 1.524 . S
C837 C834 1.403 . S
C837 C838 1.392 . S
C837 C841 1.495 . S
C838 C837 1.392 . S
C838 C839 1.385 . S
C838 C840 1.478 . S
C839 H833 0.930 . S
C839 C835 1.400 . S
C839 C838 1.385 . S
C840 C838 1.478 . S
C840 C842 1.381 . S
C840 C846 1.383 . S
C841 C837 1.495 . S
C841 H847 0.959 . S
C841 H848 0.961 . S
C841 H849 0.960 . S
C842 C840 1.381 . S
C842 C843 1.394 . S
C842 H850 0.930 . S
C843 C842 1.394 . S
C843 C844 1.383 . S
C843 H851 0.929 . S
C844 C843 1.383 . S
C844 C845 1.377 . S
C845 H829 0.930 . S
C845 C844 1.377 . S
C845 C846 1.379 . S
C846 H830 0.931 . S
C846 C840 1.383 . S
C846 C845 1.379 . S
H847 C841 0.959 . S
H848 C841 0.961 . S
H849 C841 0.960 . S
H850 C842 0.930 . S
H851 C843 0.929 . S
H852 C860 0.929 . S
H853 C862 0.930 . S
H854 C864 0.930 . S
H855 C867 0.929 . S
H856 C870 0.930 . S
H857 C872 0.960 . S
H858 C872 0.960 . S
H859 C872 0.960 . S
C860 H852 0.929 . S
C860 C861 1.377 . S
C860 C862 1.384 . S
C861 C860 1.377 . S
C861 C867 1.390 . S
C862 H853 0.930 . S
C862 C860 1.384 . S
C862 C863 1.372 . S
C863 C862 1.372 . S
C863 C864 1.400 . S
C863 C868 1.490 . S
C864 H854 0.930 . S
C864 C863 1.400 . S
C864 C867 1.386 . S
H865 C881 0.930 . S
H866 C882 0.931 . S
C867 H855 0.929 . S
C867 C861 1.390 . S
C867 C864 1.386 . S
C868 C863 1.490 . S
C868 C870 1.395 . S
C868 C871 1.403 . S
H869 C875 0.930 . S
C870 H856 0.930 . S
C870 C868 1.395 . S
C870 C873 1.403 . S
C871 C868 1.403 . S
C871 C872 1.524 . S
C871 C875 1.400 . S
C872 H857 0.960 . S
C872 H858 0.960 . S
C872 H859 0.960 . S
C872 C871 1.524 . S
C873 C870 1.403 . S
C873 C874 1.392 . S
C873 C877 1.495 . S
C874 C873 1.392 . S
C874 C875 1.385 . S
C874 C876 1.478 . S
C875 H869 0.930 . S
C875 C871 1.400 . S
C875 C874 1.385 . S
C876 C874 1.478 . S
C876 C878 1.381 . S
C876 C882 1.383 . S
C877 C873 1.495 . S
C877 H883 0.959 . S
C877 H884 0.961 . S
C877 H885 0.960 . S
C878 C876 1.381 . S
C878 C879 1.394 . S
C878 H886 0.930 . S
C879 C878 1.394 . S
C879 C880 1.383 . S
C879 H887 0.929 . S
C880 C879 1.383 . S
C880 C881 1.377 . S
C881 H865 0.930 . S
C881 C880 1.377 . S
C881 C882 1.379 . S
C882 H866 0.931 . S
C882 C876 1.383 . S
C882 C881 1.379 . S
H883 C877 0.959 . S
H884 C877 0.961 . S
H885 C877 0.960 . S
H886 C878 0.930 . S
H887 C879 0.929 . S
H888 C896 0.929 . S
H889 C898 0.930 . S
H890 C900 0.930 . S
H891 C903 0.929 . S
H892 C906 0.930 . S
H893 C908 0.960 . S
H894 C908 0.960 . S
H895 C908 0.960 . S
C896 H888 0.929 . S
C896 C897 1.377 . S
C896 C898 1.384 . S
C897 C896 1.377 . S
C897 C903 1.390 . S
C898 H889 0.930 . S
C898 C896 1.384 . S
C898 C899 1.372 . S
C899 C898 1.372 . S
C899 C900 1.400 . S
C899 C904 1.490 . S
C900 H890 0.930 . S
C900 C899 1.400 . S
C900 C903 1.386 . S
H901 C917 0.930 . S
H902 C918 0.931 . S
C903 H891 0.929 . S
C903 C897 1.390 . S
C903 C900 1.386 . S
C904 C899 1.490 . S
C904 C906 1.395 . S
C904 C907 1.403 . S
H905 C911 0.930 . S
C906 H892 0.930 . S
C906 C904 1.395 . S
C906 C909 1.403 . S
C907 C904 1.403 . S
C907 C908 1.524 . S
C907 C911 1.400 . S
C908 H893 0.960 . S
C908 H894 0.960 . S
C908 H895 0.960 . S
C908 C907 1.524 . S
C909 C906 1.403 . S
C909 C910 1.392 . S
C909 C913 1.495 . S
C910 C909 1.392 . S
C910 C911 1.385 . S
C910 C912 1.478 . S
C911 H905 0.930 . S
C911 C907 1.400 . S
C911 C910 1.385 . S
C912 C910 1.478 . S
C912 C914 1.381 . S
C912 C918 1.383 . S
C913 C909 1.495 . S
C913 H919 0.959 . S
C913 H920 0.961 . S
C913 H921 0.960 . S
C914 C912 1.381 . S
C914 C915 1.394 . S
C914 H922 0.930 . S
C915 C914 1.394 . S
C915 C916 1.383 . S
C915 H923 0.929 . S
C916 C915 1.383 . S
C916 C917 1.377 . S
C917 H901 0.930 . S
C917 C916 1.377 . S
C917 C918 1.379 . S
C918 H902 0.931 . S
C918 C912 1.383 . S
C918 C917 1.379 . S
H919 C913 0.959 . S
H920 C913 0.961 . S
H921 C913 0.960 . S
H922 C914 0.930 . S
H923 C915 0.929 . S
H924 C932 0.929 . S
H925 C934 0.930 . S
H926 C936 0.930 . S
H927 C939 0.929 . S
H928 C942 0.930 . S
H929 C944 0.960 . S
H930 C944 0.960 . S
H931 C944 0.960 . S
C932 H924 0.929 . S
C932 C933 1.377 . S
C932 C934 1.384 . S
C933 C932 1.377 . S
C933 C939 1.390 . S
C934 H925 0.930 . S
C934 C932 1.384 . S
C934 C935 1.372 . S
C935 C934 1.372 . S
C935 C936 1.400 . S
C935 C940 1.490 . S
C936 H926 0.930 . S
C936 C935 1.400 . S
C936 C939 1.386 . S
H937 C953 0.930 . S
H938 C954 0.931 . S
C939 H927 0.929 . S
C939 C933 1.390 . S
C939 C936 1.386 . S
C940 C935 1.490 . S
C940 C942 1.395 . S
C940 C943 1.403 . S
H941 C947 0.930 . S
C942 H928 0.930 . S
C942 C940 1.395 . S
C942 C945 1.403 . S
C943 C940 1.403 . S
C943 C944 1.524 . S
C943 C947 1.400 . S
C944 H929 0.960 . S
C944 H930 0.960 . S
C944 H931 0.960 . S
C944 C943 1.524 . S
C945 C942 1.403 . S
C945 C946 1.392 . S
C945 C949 1.495 . S
C946 C945 1.392 . S
C946 C947 1.385 . S
C946 C948 1.478 . S
C947 H941 0.930 . S
C947 C943 1.400 . S
C947 C946 1.385 . S
C948 C946 1.478 . S
C948 C950 1.381 . S
C948 C954 1.383 . S
C949 C945 1.495 . S
C949 H955 0.959 . S
C949 H956 0.961 . S
C949 H957 0.960 . S
C950 C948 1.381 . S
C950 C951 1.394 . S
C950 H958 0.930 . S
C951 C950 1.394 . S
C951 C952 1.383 . S
C951 H959 0.929 . S
C952 C951 1.383 . S
C952 C953 1.377 . S
C953 H937 0.930 . S
C953 C952 1.377 . S
C953 C954 1.379 . S
C954 H938 0.931 . S
C954 C948 1.383 . S
C954 C953 1.379 . S
H955 C949 0.959 . S
H956 C949 0.961 . S
H957 C949 0.960 . S
H958 C950 0.930 . S
H959 C951 0.929 . S
H960 C968 0.929 . S
H961 C970 0.930 . S
H962 C972 0.930 . S
H963 C975 0.929 . S
H964 C978 0.930 . S
H965 C980 0.960 . S
H966 C980 0.960 . S
H967 C980 0.960 . S
C968 H960 0.929 . S
C968 C969 1.377 . S
C968 C970 1.384 . S
C969 C968 1.377 . S
C969 C975 1.390 . S
C970 H961 0.930 . S
C970 C968 1.384 . S
C970 C971 1.372 . S
C971 C970 1.372 . S
C971 C972 1.400 . S
C971 C976 1.490 . S
C972 H962 0.930 . S
C972 C971 1.400 . S
C972 C975 1.386 . S
H973 C989 0.930 . S
H974 C990 0.931 . S
C975 H963 0.929 . S
C975 C969 1.390 . S
C975 C972 1.386 . S
C976 C971 1.490 . S
C976 C978 1.395 . S
C976 C979 1.403 . S
H977 C983 0.930 . S
C978 H964 0.930 . S
C978 C976 1.395 . S
C978 C981 1.403 . S
C979 C976 1.403 . S
C979 C980 1.524 . S
C979 C983 1.400 . S
C980 H965 0.960 . S
C980 H966 0.960 . S
C980 H967 0.960 . S
C980 C979 1.524 . S
C981 C978 1.403 . S
C981 C982 1.392 . S
C981 C985 1.495 . S
C982 C981 1.392 . S
C982 C983 1.385 . S
C982 C984 1.478 . S
C983 H977 0.930 . S
C983 C979 1.400 . S
C983 C982 1.385 . S
C984 C982 1.478 . S
C984 C986 1.381 . S
C984 C990 1.383 . S
C985 C981 1.495 . S
C985 H991 0.959 . S
C985 H992 0.961 . S
C985 H993 0.960 . S
C986 C984 1.381 . S
C986 C987 1.394 . S
C986 H994 0.930 . S
C987 C986 1.394 . S
C987 C988 1.383 . S
C987 H995 0.929 . S
C988 C987 1.383 . S
C988 C989 1.377 . S
C989 H973 0.930 . S
C989 C988 1.377 . S
C989 C990 1.379 . S
C990 H974 0.931 . S
C990 C984 1.383 . S
C990 C989 1.379 . S
H991 C985 0.959 . S
H992 C985 0.961 . S
H993 C985 0.960 . S
H994 C986 0.930 . S
H995 C987 0.929 . S
H996 C1004 0.929 . S
H997 C1006 0.930 . S
H998 C1008 0.930 . S
H999 C1011 0.929 . S
H1000 C1014 0.930 . S
H1001 C1016 0.960 . S
H1002 C1016 0.960 . S
H1003 C1016 0.960 . S
C1004 H996 0.929 . S
C1004 C1005 1.377 . S
C1004 C1006 1.384 . S
C1005 C1004 1.377 . S
C1005 C1011 1.390 . S
C1006 H997 0.930 . S
C1006 C1004 1.384 . S
C1006 C1007 1.372 . S
C1007 C1006 1.372 . S
C1007 C1008 1.400 . S
C1007 C1012 1.490 . S
C1008 H998 0.930 . S
C1008 C1007 1.400 . S
C1008 C1011 1.386 . S
H1009 C1025 0.930 . S
H1010 C1026 0.931 . S
C1011 H999 0.929 . S
C1011 C1005 1.390 . S
C1011 C1008 1.386 . S
C1012 C1007 1.490 . S
C1012 C1014 1.395 . S
C1012 C1015 1.403 . S
H1013 C1019 0.930 . S
C1014 H1000 0.930 . S
C1014 C1012 1.395 . S
C1014 C1017 1.403 . S
C1015 C1012 1.403 . S
C1015 C1016 1.524 . S
C1015 C1019 1.400 . S
C1016 H1001 0.960 . S
C1016 H1002 0.960 . S
C1016 H1003 0.960 . S
C1016 C1015 1.524 . S
C1017 C1014 1.403 . S
C1017 C1018 1.392 . S
C1017 C1021 1.495 . S
C1018 C1017 1.392 . S
C1018 C1019 1.385 . S
C1018 C1020 1.478 . S
C1019 H1013 0.930 . S
C1019 C1015 1.400 . S
C1019 C1018 1.385 . S
C1020 C1018 1.478 . S
C1020 C1022 1.381 . S
C1020 C1026 1.383 . S
C1021 C1017 1.495 . S
C1021 H1027 0.959 . S
C1021 H1028 0.961 . S
C1021 H1029 0.960 . S
C1022 C1020 1.381 . S
C1022 C1023 1.394 . S
C1022 H1030 0.930 . S
C1023 C1022 1.394 . S
C1023 C1024 1.383 . S
C1023 H1031 0.929 . S
C1024 C1023 1.383 . S
C1024 C1025 1.377 . S
C1025 H1009 0.930 . S
C1025 C1024 1.377 . S
C1025 C1026 1.379 . S
C1026 H1010 0.931 . S
C1026 C1020 1.383 . S
C1026 C1025 1.379 . S
H1027 C1021 0.959 . S
H1028 C1021 0.961 . S
H1029 C1021 0.960 . S
H1030 C1022 0.930 . S
H1031 C1023 0.929 . S
C177 C8 1.436 . S
C196 C78 1.446 . S
C213 C17 1.502 . S
C232 C59 1.507 . S
C249 C77 1.334 . S
C268 C35 1.349 . S
C285 C45 1.401 . S
C304 C65 1.406 . S
C321 C106 1.471 . S
C340 C36 1.471 . S
C357 C93 1.329 . S
C376 C51 1.323 . S
C393 C7 1.374 . S
C412 C105 1.387 1_655 S
C429 C87 1.440 . S
C448 C23 1.443 . S
C465 C129 1.495 . S
C484 C120 1.483 . S
C501 C119 1.420 . S
C520 C157 1.451 . S
C537 C135 1.341 . S
C556 C147 1.337 . S
C573 C148 1.383 . S
C592 C163 1.372 . S
C609 C162 1.436 . S
C628 C92 1.446 . S
C645 C115 1.505 . S
C664 C101 1.501 . S
C681 C91 1.334 . S
C700 C133 1.349 . S
C717 C107 1.398 . S
C736 C143 1.395 . S
C753 C64 1.473 . S
C772 C134 1.461 . S
C789 C79 1.333 . S
C808 C149 1.320 . S
C825 C161 1.368 . S
C844 C63 1.349 . S
C861 C121 1.437 . S
C880 C73 1.434 . S
C897 C22 1.484 . S
C916 C31 1.491 . S
C933 C3 1.450 . S
C952 C21 1.432 . S
C969 C37 1.342 . S
C988 C49 1.324 . S
C1005 C9 1.383 . S
C1024 C50 1.375 . S
