# Generated by pormake.
# Topology fcu, (12)-cn, num edge types: 1
# Building blocks:
#     Node 0, Type 0, BuildingBlock: ENOWUB_clean_sbu_0, # of connection points: 12
#     Node 1, Type 0, BuildingBlock: ENOWUB_clean_sbu_0, # of connection points: 12
#     Node 2, Type 0, BuildingBlock: ENOWUB_clean_sbu_0, # of connection points: 12
#     Node 3, Type 0, BuildingBlock: ENOWUB_clean_sbu_0, # of connection points: 12
#     Edge 4, Type (0, 0), BuildingBlock: KIFKEQ_clean_linker_1, # of connection points: 2
#     Edge 5, Type (0, 0), BuildingBlock: KIFKEQ_clean_linker_1, # of connection points: 2
#     Edge 6, Type (0, 0), BuildingBlock: KIFKEQ_clean_linker_1, # of connection points: 2
#     Edge 7, Type (0, 0), BuildingBlock: KIFKEQ_clean_linker_1, # of connection points: 2
#     Edge 8, Type (0, 0), BuildingBlock: KIFKEQ_clean_linker_1, # of connection points: 2
#     Edge 9, Type (0, 0), BuildingBlock: KIFKEQ_clean_linker_1, # of connection points: 2
#     Edge 10, Type (0, 0), BuildingBlock: KIFKEQ_clean_linker_1, # of connection points: 2
#     Edge 11, Type (0, 0), BuildingBlock: KIFKEQ_clean_linker_1, # of connection points: 2
#     Edge 12, Type (0, 0), BuildingBlock: KIFKEQ_clean_linker_1, # of connection points: 2
#     Edge 13, Type (0, 0), BuildingBlock: KIFKEQ_clean_linker_1, # of connection points: 2
#     Edge 14, Type (0, 0), BuildingBlock: KIFKEQ_clean_linker_1, # of connection points: 2
#     Edge 15, Type (0, 0), BuildingBlock: KIFKEQ_clean_linker_1, # of connection points: 2
#     Edge 16, Type (0, 0), BuildingBlock: KIFKEQ_clean_linker_1, # of connection points: 2
#     Edge 17, Type (0, 0), BuildingBlock: KIFKEQ_clean_linker_1, # of connection points: 2
#     Edge 18, Type (0, 0), BuildingBlock: KIFKEQ_clean_linker_1, # of connection points: 2
#     Edge 19, Type (0, 0), BuildingBlock: KIFKEQ_clean_linker_1, # of connection points: 2
#     Edge 20, Type (0, 0), BuildingBlock: KIFKEQ_clean_linker_1, # of connection points: 2
#     Edge 21, Type (0, 0), BuildingBlock: KIFKEQ_clean_linker_1, # of connection points: 2
#     Edge 22, Type (0, 0), BuildingBlock: KIFKEQ_clean_linker_1, # of connection points: 2
#     Edge 23, Type (0, 0), BuildingBlock: KIFKEQ_clean_linker_1, # of connection points: 2
#     Edge 24, Type (0, 0), BuildingBlock: KIFKEQ_clean_linker_1, # of connection points: 2
#     Edge 25, Type (0, 0), BuildingBlock: KIFKEQ_clean_linker_1, # of connection points: 2
#     Edge 26, Type (0, 0), BuildingBlock: KIFKEQ_clean_linker_1, # of connection points: 2
#     Edge 27, Type (0, 0), BuildingBlock: KIFKEQ_clean_linker_1, # of connection points: 2
# Relax obj value: 0.000
# Max RMSD: 0.000
# Mean RMSD: 0.000
data_MOF--net-fcu--node1-ENOWUB_clean_sbu_0--edge1-KIFKEQ_clean_linker_1
_symmetry_space_group_name_H-M    P1
_symmetry_Int_Tables_number       1
_symmetry_cell_setting            triclinic
loop_
_symmetry_equiv_pos_as_xyz
'x, y, z'
_cell_length_a     27.436667
_cell_length_b     27.463865
_cell_length_c     27.516155
_cell_angle_alpha  90.147235
_cell_angle_beta   90.199455
_cell_angle_gamma 89.958
loop_
_atom_site_label
_atom_site_type_symbol
_atom_site_fract_x
_atom_site_fract_y
_atom_site_fract_z
_atom_type_partial_charge
O0 O 0.11819 0.89739 -0.00662 0.0
O1 O 0.02887 0.93051 0.0363 0.0
O2 O 0.04909 0.03804 0.94959 0.0
O3 O 0.04042 0.93921 0.93849 0.0
O4 O 0.03757 0.02809 0.04695 0.0
Zr5 Zr 0.08646 0.97915 -0.00212 0.0
Zr6 Zr 0.9788 0.97958 0.08397 0.0
Zr7 Zr 0.98119 0.89238 0.97726 0.0
O8 O 0.9394 0.03862 0.03729 0.0
O9 O 0.94243 0.95011 0.92892 0.0
O10 O 0.931 0.94017 0.02604 0.0
Zr11 Zr -0.00151 0.08557 -0.00155 0.0
Zr12 Zr 0.00127 -0.00163 0.89181 0.0
Zr13 Zr 0.89341 -0.00109 0.97778 0.0
O14 O 0.95104 0.04748 0.93931 0.0
O15 O 0.86141 0.08051 0.98259 0.0
O16 O 0.84608 0.92575 0.96534 0.0
O17 O 0.13375 0.05236 0.0099 0.0
O18 O 0.00912 0.13361 0.92564 0.0
O19 O 0.97151 0.84424 0.05026 0.0
O20 O 0.9799 0.86236 0.8947 0.0
O21 O -0.00711 0.11676 0.08027 0.0
O22 O 0.89599 0.97898 0.11349 0.0
O23 O 0.0834 -0.00739 0.86114 0.0
O24 O 0.92874 0.01035 0.84344 0.0
O25 O 0.05157 0.96918 0.13245 0.0
O26 O 0.92483 0.1339 -0.00713 0.0
O27 O 0.055 0.84415 0.9808 0.0
O28 O 0.89932 0.86135 0.96623 0.0
O29 O 0.08022 0.11653 0.01121 0.0
O30 O 0.11638 0.96765 0.08006 0.0
O31 O 0.86377 0.01101 0.89564 0.0
O32 O 0.84352 -0.00752 0.04992 0.0
O33 O 0.13608 0.98316 0.92526 0.0
C34 C 0.10042 0.85441 0.98722 0.0
O35 O 0.98173 0.05307 0.1328 0.0
O36 O 0.96977 0.89745 0.11458 0.0
C37 C 0.87931 0.1236 0.98743 0.0
C38 C 0.8563 0.88003 0.96277 0.0
C39 C 0.12337 0.09796 0.01371 0.0
C40 C 0.01316 0.12352 0.88005 0.0
C41 C 0.9684 0.85432 0.09595 0.0
C42 C 0.98481 0.88075 0.85195 0.0
C43 C 0.9872 0.09863 0.12302 0.0
C44 C 0.85304 0.98401 0.09502 0.0
C45 C 0.12635 0.98768 0.87962 0.0
C46 C 0.88295 0.01375 0.85298 0.0
C47 C 0.09735 0.96565 0.12285 0.0
O48 O -0.00605 0.92572 0.84241 0.0
O49 O 0.01216 0.08038 0.8614 0.0
O50 O 0.13022 0.41854 0.51134 0.0
O51 O 0.03661 0.44717 0.5468 0.0
O52 O 0.04309 0.53645 0.4384 0.0
O53 O 0.04593 0.43753 0.44929 0.0
O54 O 0.0321 0.54484 0.53672 0.0
Zr55 Zr 0.08704 0.4939 0.49743 0.0
Zr56 Zr 0.98045 0.49806 0.58466 0.0
Zr57 Zr -0.00607 0.39228 0.49839 0.0
O58 O 0.93451 0.54038 0.52736 0.0
O59 O 0.94831 0.4331 0.43985 0.0
O60 O 0.93719 0.44146 0.53816 0.0
Zr61 Zr 0.98644 0.58577 0.47831 0.0
Zr62 Zr 7e-05 0.47965 0.39179 0.0
Zr63 Zr 0.89339 0.48414 0.47909 0.0
O64 O 0.94398 0.53073 0.42976 0.0
O65 O 0.85012 0.55958 0.46555 0.0
O66 O 0.858 0.40378 0.47734 0.0
O67 O 0.12244 0.57427 0.49902 0.0
O68 O -0.00741 0.61749 0.39664 0.0
O69 O 0.98778 0.36038 0.57992 0.0
O70 O 0.00443 0.34422 0.42553 0.0
O71 O 0.97551 0.63368 0.55151 0.0
O72 O 0.89812 0.502 0.61523 0.0
O73 O 0.08242 0.47572 0.36136 0.0
O74 O 0.92632 0.47012 0.34424 0.0
O75 O 0.05414 0.50753 0.63226 0.0
O76 O 0.90667 0.62088 0.4659 0.0
O77 O 0.0737 0.35721 0.51096 0.0
O78 O 0.91857 0.34766 0.49018 0.0
O79 O 0.06182 0.63039 0.48644 0.0
O80 O 0.11797 0.50369 0.57898 0.0
O81 O 0.8625 0.47451 0.39751 0.0
O82 O 0.8445 0.49139 0.55198 0.0
O83 O 0.13599 0.4863 0.42466 0.0
C84 C 0.11761 0.37349 0.51464 0.0
O85 O 0.97371 0.58018 0.61522 0.0
O86 O 0.98164 0.4244 0.63312 0.0
C87 C 0.86274 0.60464 0.46236 0.0
C88 C 0.87406 0.3599 0.48155 0.0
C89 C 0.10636 0.61815 0.49488 0.0
C90 C -0.00387 0.59928 0.35355 0.0
C91 C 0.98443 0.3786 0.62301 0.0
C92 C 0.0086 0.35419 0.38001 0.0
C93 C 0.97235 0.62338 0.59709 0.0
C94 C 0.85484 0.49893 0.59713 0.0
C95 C 0.12568 0.47868 0.37952 0.0
C96 C 0.88053 0.46978 0.35458 0.0
C97 C 0.09991 0.50818 0.62193 0.0
O98 O 0.00788 0.39724 0.36136 0.0
O99 O -0.00097 0.55346 0.34344 0.0
O100 O 0.61642 0.97971 0.39555 0.0
O101 O 0.53564 0.03215 0.43043 0.0
O102 O 0.54355 0.94047 0.53621 0.0
O103 O 0.53122 0.93413 0.43792 0.0
O104 O 0.5469 0.03954 0.52799 0.0
Zr105 Zr 0.58686 0.98408 0.47792 0.0
Zr106 Zr 0.49403 0.08604 0.48048 0.0
Zr107 Zr 0.47883 0.98243 0.39192 0.0
O108 O 0.44919 0.04433 0.53863 0.0
O109 O 0.4333 0.93919 0.44862 0.0
O110 O 0.43656 0.03793 0.44043 0.0
Zr111 Zr 0.50164 -0.0038 0.58472 0.0
Zr112 Zr 0.4861 0.8924 0.49591 0.0
Zr113 Zr 0.39324 -0.0055 0.49896 0.0
O114 O 0.44467 0.94638 0.54627 0.0
O115 O 0.36383 0.00255 0.58146 0.0
O116 O 0.34347 -0.00896 0.42598 0.0
O117 O 0.63679 0.98757 0.55066 0.0
O118 O 0.49975 0.92149 0.63108 0.0
O119 O 0.48005 0.05703 0.34549 0.0
O120 O 0.47097 0.90113 0.35923 0.0
O121 O 0.51085 0.07773 0.61724 0.0
O122 O 0.41903 0.13105 0.49041 0.0
O123 O 0.56121 0.84749 0.48622 0.0
O124 O 0.40637 0.85749 0.50783 0.0
O125 O 0.57373 0.12101 0.46858 0.0
O126 O 0.42906 0.0036 0.63382 0.0
O127 O 0.55178 0.9767 0.34273 0.0
O128 O 0.39618 0.98474 0.36177 0.0
O129 O 0.5842 -0.00638 0.61496 0.0
O130 O 0.6303 0.05966 0.46718 0.0
O131 O 0.34991 0.9189 0.51038 0.0
O132 O 0.35845 0.07512 0.50326 0.0
O133 O 0.62168 0.90346 0.47301 0.0
C134 C 0.59777 0.97731 0.35256 0.0
O135 O 0.50608 0.13199 0.55421 0.0
O136 O 0.48714 0.12004 0.39978 0.0
C137 C 0.38308 0.00515 0.62423 0.0
C138 C 0.35318 0.98769 0.38025 0.0
C139 C 0.62716 -0.00918 0.59639 0.0
C140 C 0.49645 0.87594 0.62013 0.0
C141 C 0.48326 0.10257 0.35641 0.0
C142 C 0.46995 0.85758 0.37656 0.0
C143 C 0.51116 0.12114 0.59943 0.0
C144 C 0.37465 0.11897 0.49957 0.0
C145 C 0.60557 0.85958 0.47691 0.0
C146 C 0.36252 0.87373 0.51211 0.0
C147 C 0.61765 0.10478 0.4649 0.0
O148 O 0.4739 0.8464 0.42186 0.0
O149 O 0.49273 0.85849 0.57673 0.0
O150 O 0.63317 0.42484 0.96947 0.0
O151 O 0.54745 0.4404 0.02836 0.0
O152 O 0.53024 0.54701 0.93998 0.0
O153 O 0.53825 0.44899 0.93104 0.0
O154 O 0.54005 0.53916 0.03897 0.0
Zr155 Zr 0.58636 0.49834 0.98064 0.0
Zr156 Zr 0.49923 0.48062 0.08502 0.0
Zr157 Zr 0.49779 0.39233 0.97905 0.0
O158 O 0.44177 0.52891 0.0456 0.0
O159 O 0.43992 0.43918 0.9379 0.0
O160 O 0.44964 0.43117 0.03686 0.0
Zr161 Zr 0.48191 0.58578 -0.00226 0.0
Zr162 Zr 0.48083 0.4975 0.89174 0.0
Zr163 Zr 0.3935 0.4798 -0.00387 0.0
O164 O 0.43247 0.53766 0.94835 0.0
O165 O 0.34657 0.55324 0.007 0.0
O166 O 0.36061 0.39838 -0.00729 0.0
O167 O 0.61909 0.57985 0.98442 0.0
O168 O 0.47263 0.633 0.9241 0.0
O169 O 0.5076 0.34514 0.05256 0.0
O170 O 0.49294 0.36014 0.89765 0.0
O171 O 0.48046 0.61689 0.07973 0.0
O172 O 0.42532 0.47048 0.13173 0.0
O173 O 0.55482 0.5067 0.84492 0.0
O174 O 0.3985 0.5003 0.86051 0.0
O175 O 0.58154 0.47856 0.11636 0.0
O176 O 0.40008 0.61735 0.00725 0.0
O177 O 0.57951 0.36087 0.96792 0.0
O178 O 0.42386 0.34452 0.9843 0.0
O179 O 0.55592 0.6336 -0.00566 0.0
O180 O 0.63488 0.49119 0.05364 0.0
O181 O 0.34512 0.48692 0.92304 0.0
O182 O 0.3618 0.47127 0.07751 0.0
O183 O 0.61823 0.50673 0.89928 0.0
C184 C 0.6227 0.37929 0.9658 0.0
O185 O 0.49387 0.55428 0.13321 0.0
O186 O 0.50807 0.39894 0.11644 0.0
C187 C 0.35696 0.59886 0.00982 0.0
C188 C 0.37833 0.35507 -0.01093 0.0
C189 C 0.60141 0.6231 -0.01095 0.0
C190 C 0.47024 0.62243 0.87848 0.0
C191 C 0.51016 0.35573 0.09816 0.0
C192 C 0.48817 0.37784 0.8546 0.0
C193 C 0.48517 0.5992 0.12281 0.0
C194 C 0.37961 0.46875 0.12085 0.0
C195 C 0.60051 0.50868 0.85586 0.0
C196 C 0.35535 0.49587 0.87832 0.0
C197 C 0.62468 0.4827 0.09846 0.0
O198 O 0.48349 0.42333 0.84409 0.0
O199 O 0.47232 0.57919 0.86023 0.0
H200 H 0.96688 0.19513 0.12014 0.0
H201 H 0.01188 0.07996 0.21748 0.0
H202 H 0.97632 0.25412 0.1852 0.0
H203 H 0.02229 0.13967 0.28275 0.0
H204 H 0.97778 0.26097 0.39425 0.0
H205 H 0.97406 0.19599 0.33382 0.0
H206 H 0.04484 0.28957 0.22956 0.0
H207 H 0.04752 0.35484 0.28938 0.0
C208 C 0.97887 0.18247 0.15548 0.0
C209 C 0.98897 0.13309 0.16377 0.0
C210 C 0.9846 0.21628 0.1926 0.0
C211 C 0.00092 0.20147 0.23862 0.0
C212 C 0.00963 0.1519 0.2475 0.0
C213 C 0.00357 0.11784 0.21028 0.0
C214 C -0.00682 0.26735 0.35863 0.0
C215 C 0.0122 0.3131 0.3461 0.0
C216 C -0.00885 0.23015 0.32417 0.0
C217 C 0.0084 0.23819 0.27693 0.0
C218 C 0.03015 0.28294 0.26544 0.0
C219 C 0.03181 0.32019 0.29965 0.0
H220 H 0.85268 0.93402 0.17963 0.0
H221 H 0.76039 0.0201 0.08526 0.0
H222 H 0.78725 0.9286 0.23835 0.0
H223 H 0.69473 0.01536 0.14516 0.0
H224 H 0.57871 0.95955 0.25594 0.0
H225 H 0.63783 0.95752 0.1895 0.0
H226 H 0.75311 -0.00746 0.29105 0.0
H227 H 0.69525 -0.00607 0.35691 0.0
C228 C 0.8184 0.95192 0.17151 0.0
C229 C 0.81188 0.97841 0.12843 0.0
C230 C 0.78097 0.94869 0.20507 0.0
C231 C 0.73642 0.97228 0.1965 0.0
C232 C 0.72883 -0.0032 0.15242 0.0
C233 C 0.76638 -0.00027 0.11842 0.0
C234 C 0.61671 0.96672 0.26397 0.0
C235 C 0.63235 0.97632 0.31179 0.0
C236 C 0.65036 0.96571 0.22599 0.0
C237 C 0.69992 0.9742 0.23547 0.0
C238 C 0.71522 0.9847 0.283 0.0
C239 C 0.68192 0.98562 0.32072 0.0
H240 H -0.00043 0.761 0.08124 0.0
H241 H 0.93257 0.85533 0.18796 0.0
H242 H 0.00612 0.69669 0.14189 0.0
H243 H 0.93805 0.79077 0.24803 0.0
H244 H 0.01609 0.69617 0.35655 0.0
H245 H 0.00612 0.75507 0.29172 0.0
H246 H 0.96061 0.6403 0.19387 0.0
H247 H 0.9716 0.58075 0.25878 0.0
C248 C 0.98533 0.76762 0.11734 0.0
C249 C 0.96613 0.81333 0.13014 0.0
C250 C 0.98906 0.7308 0.152 0.0
C251 C 0.97336 0.73909 0.19983 0.0
C252 C 0.95163 0.78386 0.21174 0.0
C253 C 0.94826 0.82071 0.17731 0.0
C254 C 0.00416 0.68337 0.32119 0.0
C255 C -0.00568 0.63389 0.31283 0.0
C256 C -0.00189 0.71718 0.28415 0.0
C257 C 0.98173 0.70235 0.23804 0.0
C258 C 0.97337 0.65268 0.22909 0.0
C259 C 0.97972 0.61865 0.2662 0.0
H260 H 0.3551 0.01125 0.28475 0.0
H261 H 0.25916 0.95963 0.3979 0.0
H262 H 0.2903 0.00161 0.22547 0.0
H263 H 0.19406 0.9491 0.33776 0.0
H264 H 0.08121 -0.00663 0.21673 0.0
H265 H 0.1411 -0.0028 0.28231 0.0
H266 H 0.24884 0.93222 0.18798 0.0
H267 H 0.18955 0.92939 0.12216 0.0
C268 C 0.32013 -0.00228 0.29693 0.0
C269 C 0.31225 0.9857 0.34581 0.0
C270 C 0.28315 -0.00809 0.26291 0.0
C271 C 0.23761 0.97363 0.27695 0.0
C272 C 0.22897 0.96319 0.32611 0.0
C273 C 0.26609 0.96929 0.36041 0.0
C274 C 0.11749 0.9792 0.21028 0.0
C275 C 0.13107 0.96177 0.16419 0.0
C276 C 0.15165 0.98132 0.24784 0.0
C277 C 0.19967 0.96579 0.23981 0.0
C278 C 0.21229 0.94557 0.19465 0.0
C279 C 0.17837 0.94381 0.15708 0.0
H280 H 0.92415 0.80347 0.84936 0.0
H281 H 0.02636 0.88462 0.76202 0.0
H282 H 0.91344 0.74524 0.78365 0.0
H283 H 0.01695 0.82498 0.69645 0.0
H284 H 0.96461 0.72108 0.5773 0.0
H285 H 0.96103 0.7877 0.63618 0.0
H286 H 0.96837 0.68362 0.75356 0.0
H287 H 0.97067 0.61758 0.69573 0.0
C288 C 0.9445 0.80863 0.81608 0.0
C289 C 0.97693 0.8477 0.81092 0.0
C290 C 0.93827 0.77544 0.7785 0.0
C291 C 0.96498 0.78026 0.7354 0.0
C292 C -0.00427 0.82066 0.72927 0.0
C293 C 0.00143 0.85444 0.76679 0.0
C294 C 0.96504 0.71248 0.61571 0.0
C295 C 0.96802 0.664 0.63179 0.0
C296 C 0.96316 0.7506 0.64927 0.0
C297 C 0.96416 0.7407 0.69927 0.0
C298 C 0.96653 0.69229 0.7152 0.0
C299 C 0.96823 0.65438 0.68191 0.0
H300 H 0.12337 0.96517 0.78374 0.0
H301 H 0.22141 0.01187 0.89815 0.0
H302 H 0.18857 0.97241 0.72501 0.0
H303 H 0.28691 0.02006 0.83859 0.0
H304 H 0.39847 0.9747 0.71739 0.0
H305 H 0.33832 0.9711 0.78256 0.0
H306 H 0.23234 0.0404 0.68888 0.0
H307 H 0.29174 0.04291 0.62364 0.0
C308 C 0.15889 0.97712 0.7963 0.0
C309 C 0.16725 0.98846 0.84537 0.0
C310 C 0.19613 0.98151 0.76263 0.0
C311 C 0.24242 -0.00226 0.77719 0.0
C312 C 0.25146 0.00749 0.82653 0.0
C313 C 0.21408 0.00277 0.86049 0.0
C314 C 0.36249 -0.01026 0.71108 0.0
C315 C 0.34937 0.00838 0.66536 0.0
C316 C 0.3282 0.98775 0.74834 0.0
C317 C 0.28057 0.00468 0.74033 0.0
C318 C 0.2685 0.02593 0.69552 0.0
C319 C 0.30248 0.0275 0.65828 0.0
H320 H 0.00998 0.39714 0.71745 0.0
H321 H 0.96414 0.28179 0.62021 0.0
H322 H 0.02165 0.33759 0.78222 0.0
H323 H 0.9748 0.22287 0.68493 0.0
H324 H 0.04887 0.12246 0.78792 0.0
H325 H 0.04341 0.18712 0.72796 0.0
H326 H 0.97628 0.28138 0.83453 0.0
H327 H 0.98282 0.21703 0.89505 0.0
C328 C 0.0017 0.35926 0.71014 0.0
C329 C 0.98652 0.34402 0.6637 0.0
C330 C 0.00846 0.32523 0.74716 0.0
C331 C -8e-05 0.27558 0.73828 0.0
C332 C 0.98296 0.26075 0.69239 0.0
C333 C 0.97651 0.29456 0.65544 0.0
C334 C 0.03345 0.15716 0.79871 0.0
C335 C 0.01579 0.16456 0.84595 0.0
C336 C 0.03009 0.19406 0.76434 0.0
C337 C 0.00857 0.23888 0.77641 0.0
C338 C -0.00682 0.24721 0.82432 0.0
C339 C -0.00309 0.21036 0.85891 0.0
H340 H 0.72078 0.01965 0.5783 0.0
H341 H 0.62571 0.96741 0.69192 0.0
H342 H 0.78593 0.03105 0.63819 0.0
H343 H 0.69059 0.97794 0.75097 0.0
H344 H 0.791 0.05056 0.85384 0.0
H345 H 0.73165 0.04795 0.78804 0.0
H346 H 0.83931 0.98321 0.69345 0.0
H347 H 0.89924 0.98685 0.75897 0.0
C348 C 0.71406 0.01003 0.61585 0.0
C349 C 0.66814 -0.00683 0.63067 0.0
C350 C 0.7512 0.01665 0.64999 0.0
C351 C 0.74279 0.0063 0.69919 0.0
C352 C 0.69751 0.98758 0.71347 0.0
C353 C 0.66051 0.98125 0.6796 0.0
C354 C 0.80215 0.0363 0.81884 0.0
C355 C 0.84939 0.01823 0.81164 0.0
C356 C 0.76821 0.03468 0.7813 0.0
C357 C 0.7808 0.01448 0.73613 0.0
C358 C 0.82882 -0.00096 0.72796 0.0
C359 C 0.86299 0.00105 0.76547 0.0
H360 H 0.39702 0.26122 0.0162 0.0
H361 H 0.28116 0.35804 0.9707 0.0
H362 H 0.33745 0.19645 0.02869 0.0
H363 H 0.22223 0.29334 0.98212 0.0
H364 H 0.21735 0.08354 0.98536 0.0
H365 H 0.28185 0.14429 0.98193 0.0
H366 H 0.18639 0.24958 0.04968 0.0
H367 H 0.12147 0.18934 0.05191 0.0
C368 C 0.35899 0.26843 0.00828 0.0
C369 C 0.34359 0.31466 -0.00727 0.0
C370 C 0.32498 0.23146 0.01554 0.0
C371 C 0.27525 0.24021 0.00709 0.0
C372 C 0.2602 0.28602 -0.00979 0.0
C373 C 0.29399 0.32293 0.9833 0.0
C374 C 0.21045 0.11943 0.00026 0.0
C375 C 0.16426 0.13208 0.01823 0.0
C376 C 0.2474 0.15412 -0.00162 0.0
C377 C 0.23874 0.20175 0.0148 0.0
C378 C 0.19355 0.21339 0.03565 0.0
C379 C 0.15651 0.17893 0.03709 0.0
H380 H 0.3588 0.69063 0.04691 0.0
H381 H 0.26303 0.58376 0.98142 0.0
H382 H 0.29332 0.75038 0.04463 0.0
H383 H 0.19796 0.64401 0.97795 0.0
H384 H 0.08247 0.76055 0.01413 0.0
H385 H 0.14271 0.69592 0.02558 0.0
H386 H 0.25619 0.79311 0.97653 0.0
H387 H 0.19664 0.85759 0.9662 0.0
C388 C 0.3237 0.67992 0.03224 0.0
C389 C 0.31607 0.63293 0.01372 0.0
C390 C 0.28634 0.71406 0.03081 0.0
C391 C 0.24101 0.7019 0.0103 0.0
C392 C 0.23255 0.65417 -0.00588 0.0
C393 C 0.26981 0.61981 -0.004 0.0
C394 C 0.12026 0.76776 0.00539 0.0
C395 C 0.13512 0.81399 -0.01038 0.0
C396 C 0.15462 0.73094 0.01206 0.0
C397 C 0.20407 0.73994 0.00273 0.0
C398 C 0.21847 0.78568 0.98533 0.0
C399 C 0.18435 0.82242 0.97905 0.0
H400 H 0.62045 0.28738 0.92889 0.0
H401 H 0.71706 0.39439 -0.00705 0.0
H402 H 0.68591 0.22762 0.93059 0.0
H403 H 0.78211 0.33411 -0.00419 0.0
H404 H 0.89708 0.2172 0.95935 0.0
H405 H 0.83682 0.28182 0.94786 0.0
H406 H 0.72363 0.18517 -0.00142 0.0
H407 H 0.78317 0.12072 0.009 0.0
C408 C 0.65572 0.29814 0.94311 0.0
C409 C 0.66356 0.34519 0.96143 0.0
C410 C 0.69307 0.26398 0.9442 0.0
C411 C 0.73865 0.27615 0.96415 0.0
C412 C 0.74733 0.32392 0.98007 0.0
C413 C 0.71006 0.3583 0.97855 0.0
C414 C 0.85936 0.21009 0.96841 0.0
C415 C 0.84458 0.16402 0.98472 0.0
C416 C 0.82498 0.24691 0.96172 0.0
C417 C 0.7756 0.23806 0.97154 0.0
C418 C 0.76129 0.19248 -0.01061 0.0
C419 C 0.79541 0.15574 -0.00428 0.0
H420 H 0.85813 0.78834 0.92544 0.0
H421 H 0.76241 0.89486 -0.00896 0.0
H422 H 0.79323 0.72811 0.92849 0.0
H423 H 0.69791 0.83412 -0.00466 0.0
H424 H 0.58268 0.71689 0.96201 0.0
H425 H 0.64225 0.78162 0.94932 0.0
H426 H 0.75744 0.68491 -0.00364 0.0
H427 H 0.69848 0.62021 0.00792 0.0
C428 C 0.82311 0.7989 0.94024 0.0
C429 C 0.81539 0.84595 0.9586 0.0
C430 C 0.7861 0.76444 0.94217 0.0
C431 C 0.74096 0.7763 0.96302 0.0
C432 C 0.73232 0.82412 0.97892 0.0
C433 C 0.76925 0.8588 0.97653 0.0
C434 C 0.6207 0.70973 0.97004 0.0
C435 C 0.6361 0.66355 0.9857 0.0
C436 C 0.65471 0.74667 0.96266 0.0
C437 C 0.70444 0.73794 0.97113 0.0
C438 C 0.71947 0.69221 -0.01175 0.0
C439 C 0.68568 0.65531 -0.00475 0.0
H440 H 0.58181 0.52395 0.75898 0.0
H441 H 0.69909 0.49945 0.86181 0.0
H442 H 0.64109 0.52649 0.69299 0.0
H443 H 0.75734 0.50091 0.79623 0.0
H444 H 0.8563 0.55119 0.68058 0.0
H445 H 0.7918 0.55909 0.74017 0.0
H446 H 0.69745 0.47004 0.65061 0.0
H447 H 0.76199 0.46324 0.58981 0.0
C448 C 0.62007 0.51917 0.76755 0.0
C449 C 0.63573 0.51176 0.81571 0.0
C450 C 0.65387 0.52043 0.72977 0.0
C451 C 0.70372 0.51429 0.73964 0.0
C452 C 0.71922 0.50684 0.78769 0.0
C453 C 0.68569 0.50578 0.82529 0.0
C454 C 0.82176 0.53338 0.6735 0.0
C455 C 0.81432 0.5058 0.63111 0.0
C456 C 0.78487 0.53794 0.70758 0.0
C457 C 0.74001 0.51451 0.7003 0.0
C458 C 0.73169 0.48865 0.65694 0.0
C459 C 0.76861 0.48452 0.62238 0.0
H460 H 0.1988 0.51057 0.61562 0.0
H461 H 0.08045 0.51749 0.71928 0.0
H462 H 0.25701 0.51362 0.68137 0.0
H463 H 0.13968 0.52199 0.78553 0.0
H464 H 0.26476 0.45537 0.88176 0.0
H465 H 0.19919 0.46567 0.82232 0.0
H466 H 0.28827 0.56788 0.7429 0.0
H467 H 0.35409 0.55621 0.80101 0.0
C468 C 0.18507 0.51335 0.65242 0.0
C469 C 0.13487 0.51342 0.6622 0.0
C470 C 0.2186 0.51556 0.69011 0.0
C471 C 0.20277 0.51832 0.73844 0.0
C472 C 0.15268 0.51952 0.74847 0.0
C473 C 0.11889 0.51712 0.71058 0.0
C474 C 0.26997 0.48019 0.85168 0.0
C475 C 0.31462 0.50405 0.84501 0.0
C476 C 0.23243 0.48644 0.81803 0.0
C477 C 0.23905 0.51713 0.77783 0.0
C478 C 0.28273 0.54316 0.773 0.0
C479 C 0.32037 0.53635 0.80608 0.0
H480 H 0.21857 0.5142 0.38671 0.0
H481 H 0.12416 0.42576 0.29652 0.0
H482 H 0.28313 0.50688 0.32599 0.0
H483 H 0.18867 0.41737 0.23699 0.0
H484 H 0.281 0.47765 0.11509 0.0
H485 H 0.22289 0.47579 0.18078 0.0
H486 H 0.33938 0.44997 0.28368 0.0
H487 H 0.39852 0.45285 0.21759 0.0
C488 C 0.21195 0.4927 0.35429 0.0
C489 C 0.1662 0.47147 0.34565 0.0
C490 C 0.24887 0.48826 0.31979 0.0
C491 C 0.2405 0.46214 0.27659 0.0
C492 C 0.19563 0.4387 0.26946 0.0
C493 C 0.15874 0.44356 0.30349 0.0
C494 C 0.29449 0.47116 0.15155 0.0
C495 C 0.34447 0.46527 0.16102 0.0
C496 C 0.26104 0.46987 0.18921 0.0
C497 C 0.27667 0.46229 0.23719 0.0
C498 C 0.32653 0.45613 0.24694 0.0
C499 C 0.36024 0.45759 0.2091 0.0
H500 H 0.7153 0.52317 0.09491 0.0
H501 H 0.62595 0.42254 0.17587 0.0
H502 H 0.78095 0.51283 0.15428 0.0
H503 H 0.69184 0.41078 0.23387 0.0
H504 H 0.78167 0.46745 0.36099 0.0
H505 H 0.72332 0.46475 0.29539 0.0
H506 H 0.84046 0.45654 0.19099 0.0
H507 H 0.89986 0.46075 0.25713 0.0
C508 C 0.7101 0.4984 0.12503 0.0
C509 C 0.66543 0.4746 0.13178 0.0
C510 C 0.74768 0.49212 0.15864 0.0
C511 C 0.74109 0.46145 0.19886 0.0
C512 C 0.69736 0.4355 0.20377 0.0
C513 C 0.65969 0.44235 0.17075 0.0
C514 C 0.79532 0.46479 0.3242 0.0
C515 C 0.84552 0.46468 0.31433 0.0
C516 C 0.76173 0.46277 0.28655 0.0
C517 C 0.77745 0.46015 0.23819 0.0
C518 C 0.82753 0.45891 0.22807 0.0
C519 C 0.86139 0.46113 0.26591 0.0
H520 H 0.26552 0.88997 0.529 0.0
H521 H 0.37163 0.77515 0.50705 0.0
H522 H 0.20087 0.82924 0.53174 0.0
H523 H 0.30718 0.71532 0.50861 0.0
H524 H 0.18869 0.614 0.54925 0.0
H525 H 0.24819 0.67826 0.56204 0.0
H526 H 0.1629 0.77484 0.47149 0.0
H527 H 0.10235 0.71081 0.45985 0.0
C528 C 0.27512 0.85191 0.52499 0.0
C529 C 0.32367 0.83741 0.51749 0.0
C530 C 0.23811 0.81729 0.52642 0.0
C531 C 0.24916 0.76778 0.52031 0.0
C532 C 0.29775 0.75324 0.51419 0.0
C533 C 0.33467 0.78766 0.51297 0.0
C534 C 0.18269 0.64896 0.53203 0.0
C535 C 0.14153 0.65736 0.50283 0.0
C536 C 0.2166 0.68569 0.53951 0.0
C537 C 0.21023 0.73121 0.5174 0.0
C538 C 0.16832 0.74015 0.48937 0.0
C539 C 0.134 0.70349 0.48234 0.0
H540 H 0.1091 0.27477 0.51116 0.0
H541 H 0.21429 0.3904 0.533 0.0
H542 H 0.17397 0.21528 0.51436 0.0
H543 H 0.27933 0.3301 0.53738 0.0
H544 H 0.37842 0.21209 0.46578 0.0
H545 H 0.31775 0.27588 0.47779 0.0
H546 H 0.23349 0.17865 0.5679 0.0
H547 H 0.29316 0.11458 0.55469 0.0
C548 C 0.14593 0.28752 0.51744 0.0
C549 C 0.15658 0.33739 0.5213 0.0
C550 C 0.1831 0.25331 0.51962 0.0
C551 C 0.23158 0.26821 0.52608 0.0
C552 C 0.24221 0.31785 0.53176 0.0
C553 C 0.20497 0.35223 0.52937 0.0
C554 C 0.34704 0.20458 0.48833 0.0
C555 C 0.33979 0.15829 0.50846 0.0
C556 C 0.31262 0.24113 0.49558 0.0
C557 C 0.27088 0.23192 0.52349 0.0
C558 C 0.26493 0.1863 0.54545 0.0
C559 C 0.29894 0.14968 0.53775 0.0
H560 H 0.766 0.58799 0.44393 0.0
H561 H 0.87131 0.70331 0.46678 0.0
H562 H 0.70104 0.64843 0.43983 0.0
H563 H 0.80653 0.76292 0.46384 0.0
H564 H 0.68768 0.86394 0.42262 0.0
H565 H 0.74746 0.79986 0.41002 0.0
H566 H 0.66228 0.70263 0.49924 0.0
H567 H 0.60152 0.76644 0.51068 0.0
C568 C 0.77536 0.62611 0.44786 0.0
C569 C 0.82377 0.64083 0.45605 0.0
C570 C 0.73816 0.66058 0.44563 0.0
C571 C 0.74886 0.71018 0.45161 0.0
C572 C 0.79735 0.72494 0.45833 0.0
C573 C 0.83446 0.69066 0.46034 0.0
C574 C 0.68171 0.82885 0.43949 0.0
C575 C 0.64054 0.82025 0.46834 0.0
C576 C 0.71581 0.79221 0.43215 0.0
C577 C 0.70962 0.74657 0.45403 0.0
C578 C 0.66761 0.73739 0.48153 0.0
C579 C 0.63312 0.77395 0.48843 0.0
H580 H 0.71445 0.08837 0.44722 0.0
H581 H 0.60877 0.20332 0.47053 0.0
H582 H 0.77921 0.14898 0.4442 0.0
H583 H 0.67334 0.26304 0.46862 0.0
H584 H 0.79163 0.36421 0.42734 0.0
H585 H 0.73204 0.30003 0.41461 0.0
H586 H 0.81762 0.20314 0.50456 0.0
H587 H 0.87824 0.2671 0.51618 0.0
C588 C 0.70497 0.12644 0.4515 0.0
C589 C 0.65652 0.14103 0.45946 0.0
C590 C 0.74204 0.16098 0.44988 0.0
C591 C 0.73113 0.21049 0.45624 0.0
C592 C 0.68263 0.22512 0.46283 0.0
C593 C 0.64565 0.19078 0.46425 0.0
C594 C 0.79769 0.3292 0.44443 0.0
C595 C 0.83892 0.3207 0.47351 0.0
C596 C 0.76373 0.29251 0.43698 0.0
C597 C 0.77015 0.24695 0.45897 0.0
C598 C 0.81217 0.23788 0.48679 0.0
C599 C 0.84653 0.2745 0.49381 0.0
H600 H 0.46584 0.28186 0.85784 0.0
H601 H 0.51613 0.39505 0.76115 0.0
H602 H 0.47621 0.22197 0.79374 0.0
H603 H 0.52758 0.33451 0.69701 0.0
H604 H 0.4832 0.21511 0.58472 0.0
H605 H 0.47944 0.27983 0.64504 0.0
H606 H 0.5445 0.1841 0.7516 0.0
H607 H 0.54718 0.11884 0.6917 0.0
C608 C 0.47919 0.29387 0.82284 0.0
C609 C 0.49043 0.34293 0.81439 0.0
C610 C 0.4855 0.25956 0.78634 0.0
C611 C 0.50354 0.27361 0.74086 0.0
C612 C 0.51355 0.32288 0.73184 0.0
C613 C 0.50687 0.35742 0.76839 0.0
C614 C 0.49737 0.20809 0.62083 0.0
C615 C 0.51482 0.16178 0.63384 0.0
C616 C 0.49533 0.24519 0.65524 0.0
C617 C 0.51102 0.23659 0.70299 0.0
C618 C 0.53111 0.19119 0.71521 0.0
C619 C 0.53277 0.15397 0.68097 0.0
H620 H 0.51486 0.77866 0.61638 0.0
H621 H 0.47235 0.89428 0.71463 0.0
H622 H 0.50521 0.71973 0.68127 0.0
H623 H 0.46158 0.83487 0.77937 0.0
H624 H 0.50213 0.71546 0.8921 0.0
H625 H 0.5081 0.77909 0.83077 0.0
H626 H 0.43805 0.68437 0.72604 0.0
H627 H 0.43325 0.62043 0.78681 0.0
C628 C 0.5034 0.79147 0.65183 0.0
C629 C 0.4942 0.84101 0.66041 0.0
C630 C 0.49753 0.75769 0.68887 0.0
C631 C 0.48194 0.77271 0.73509 0.0
C632 C 0.47387 0.82238 0.7441 0.0
C633 C 0.48008 0.85632 0.70707 0.0
C634 C 0.48735 0.70859 0.85616 0.0
C635 C 0.46777 0.66293 0.84391 0.0
C636 C 0.49074 0.74498 0.82113 0.0
C637 C 0.47425 0.73629 0.77353 0.0
C638 C 0.45221 0.69154 0.76216 0.0
C639 C 0.44923 0.65509 0.79696 0.0
H640 H 0.4267 0.67826 0.12245 0.0
H641 H 0.52465 0.59558 0.21402 0.0
H642 H 0.41566 0.73745 0.1871 0.0
H643 H 0.51476 0.6561 0.27864 0.0
H644 H 0.45896 0.76021 0.39536 0.0
H645 H 0.45663 0.69396 0.33615 0.0
H646 H 0.47068 0.79826 0.21966 0.0
H647 H 0.4719 0.86415 0.27793 0.0
C648 C 0.4461 0.67298 0.15641 0.0
C649 C 0.47738 0.6331 0.1631 0.0
C650 C 0.43966 0.70674 0.19338 0.0
C651 C 0.46492 0.70161 0.23744 0.0
C652 C 0.49464 0.66063 0.24501 0.0
C653 C 0.50062 0.62632 0.20806 0.0
C654 C 0.46114 0.76898 0.35707 0.0
C655 C 0.4657 0.81745 0.34135 0.0
C656 C 0.45998 0.73106 0.32333 0.0
C657 C 0.46333 0.74113 0.27351 0.0
C658 C 0.46712 0.78955 0.25786 0.0
C659 C 0.4681 0.82731 0.29137 0.0
H660 H 0.50682 0.08405 0.26186 0.0
H661 H 0.46507 0.19989 0.36019 0.0
H662 H 0.51781 0.14338 0.19712 0.0
H663 H 0.47491 0.25877 0.29526 0.0
H664 H 0.54753 0.35753 0.18966 0.0
H665 H 0.54241 0.29362 0.25046 0.0
H666 H 0.47152 0.19938 0.14586 0.0
H667 H 0.47782 0.26292 0.08453 0.0
C668 C 0.49929 0.12204 0.26944 0.0
C669 C 0.48536 0.13745 0.31612 0.0
C670 C 0.50563 0.15593 0.2324 0.0
C671 C 0.49786 0.20563 0.24145 0.0
C672 C 0.48237 0.22076 0.28767 0.0
C673 C 0.47638 0.18703 0.32472 0.0
C674 C 0.53133 0.32296 0.17955 0.0
C675 C 0.51264 0.31522 0.13266 0.0
C676 C 0.52816 0.28655 0.21437 0.0
C677 C 0.50577 0.24197 0.20302 0.0
C678 C 0.48914 0.23336 0.15547 0.0
C679 C 0.49274 0.26969 0.12043 0.0
loop_
_geom_bond_atom_site_label_1
_geom_bond_atom_site_label_2
_geom_bond_distance
_geom_bond_site_symmetry_2
_ccdc_geom_bond_type
O0 Zr5 2.207 1_565 S
O0 C34 1.295 . S
O1 Zr5 2.133 1_565 S
O1 Zr6 2.133 1_565 S
O1 Zr7 2.133 . S
O2 Zr5 2.133 1_556 S
O2 Zr11 2.133 1_556 S
O2 Zr12 2.133 . S
O3 Zr5 2.133 1_566 S
O3 Zr7 2.133 1_556 S
O3 Zr12 2.133 1_565 S
O4 Zr5 2.133 . S
O4 Zr6 2.133 . S
O4 Zr11 2.133 . S
Zr5 O0 2.207 1_545 S
Zr5 O1 2.133 1_545 S
Zr5 O2 2.133 1_554 S
Zr5 O3 2.133 1_544 S
Zr5 O4 2.133 . S
Zr5 O17 2.207 . S
Zr5 O30 2.207 . S
Zr5 O33 2.207 1_554 S
Zr6 O1 2.133 1_545 S
Zr6 O4 2.133 . S
Zr6 O8 2.133 1_455 S
Zr6 O10 2.133 1_445 S
Zr6 O22 2.207 1_455 S
Zr6 O25 2.207 . S
Zr6 O35 2.207 . S
Zr6 O36 2.207 1_545 S
Zr7 O1 2.133 . S
Zr7 O3 2.133 1_554 S
Zr7 O9 2.133 1_454 S
Zr7 O10 2.133 1_455 S
Zr7 O19 2.207 . S
Zr7 O20 2.207 1_554 S
Zr7 O27 2.207 . S
Zr7 O28 2.207 1_455 S
O8 Zr6 2.133 1_655 S
O8 Zr11 2.133 1_655 S
O8 Zr13 2.133 . S
O9 Zr7 2.133 1_656 S
O9 Zr12 2.133 1_665 S
O9 Zr13 2.133 1_566 S
O10 Zr6 2.133 1_665 S
O10 Zr7 2.133 1_655 S
O10 Zr13 2.133 1_565 S
Zr11 O2 2.133 1_554 S
Zr11 O4 2.133 . S
Zr11 O8 2.133 1_455 S
Zr11 O14 2.133 1_454 S
Zr11 O18 2.207 1_554 S
Zr11 O21 2.207 . S
Zr11 O26 2.207 1_455 S
Zr11 O29 2.207 . S
Zr12 O2 2.133 . S
Zr12 O3 2.133 1_545 S
Zr12 O9 2.133 1_445 S
Zr12 O14 2.133 1_455 S
Zr12 O23 2.207 . S
Zr12 O24 2.207 1_455 S
Zr12 O48 2.207 1_545 S
Zr12 O49 2.207 . S
Zr13 O8 2.133 . S
Zr13 O9 2.133 1_544 S
Zr13 O10 2.133 1_545 S
Zr13 O14 2.133 1_554 S
Zr13 O15 2.207 . S
Zr13 O16 2.207 1_545 S
Zr13 O31 2.207 1_554 S
Zr13 O32 2.207 . S
O14 Zr11 2.133 1_656 S
O14 Zr12 2.133 1_655 S
O14 Zr13 2.133 1_556 S
O15 Zr13 2.207 . S
O15 C37 1.295 . S
O16 Zr13 2.207 1_565 S
O16 C38 1.295 . S
O17 Zr5 2.207 . S
O17 C39 1.295 . S
O18 Zr11 2.207 1_556 S
O18 C40 1.295 . S
O19 Zr7 2.207 . S
O19 C41 1.295 . S
O20 Zr7 2.207 1_556 S
O20 C42 1.295 . S
O21 Zr11 2.207 . S
O21 C43 1.295 . S
O22 Zr6 2.207 1_655 S
O22 C44 1.295 . S
O23 Zr12 2.207 . S
O23 C45 1.295 . S
O24 Zr12 2.207 1_655 S
O24 C46 1.295 . S
O25 Zr6 2.207 . S
O25 C47 1.295 . S
O26 Zr11 2.207 1_655 S
O26 C37 1.295 . S
O27 Zr7 2.207 . S
O27 C34 1.295 . S
O28 Zr7 2.207 1_655 S
O28 C38 1.295 . S
O29 Zr11 2.207 . S
O29 C39 1.295 . S
O30 Zr5 2.207 . S
O30 C47 1.295 . S
O31 Zr13 2.207 1_556 S
O31 C46 1.295 . S
O32 Zr13 2.207 . S
O32 C44 1.295 . S
O33 Zr5 2.207 1_556 S
O33 C45 1.295 . S
C34 O0 1.295 . S
C34 O27 1.295 . S
O35 Zr6 2.207 . S
O35 C43 1.295 . S
O36 Zr6 2.207 1_565 S
O36 C41 1.295 . S
C37 O15 1.295 . S
C37 O26 1.295 . S
C38 O16 1.295 . S
C38 O28 1.295 . S
C39 O17 1.295 . S
C39 O29 1.295 . S
C40 O18 1.295 . S
C40 O49 1.295 . S
C41 O19 1.295 . S
C41 O36 1.295 . S
C42 O20 1.295 . S
C42 O48 1.295 . S
C43 O21 1.295 . S
C43 O35 1.295 . S
C44 O22 1.295 . S
C44 O32 1.295 . S
C45 O23 1.295 . S
C45 O33 1.295 . S
C46 O24 1.295 . S
C46 O31 1.295 . S
C47 O25 1.295 . S
C47 O30 1.295 . S
O48 Zr12 2.207 1_565 S
O48 C42 1.295 . S
O49 Zr12 2.207 . S
O49 C40 1.295 . S
O50 Zr55 2.207 . S
O50 C84 1.295 . S
O51 Zr55 2.133 . S
O51 Zr56 2.133 . S
O51 Zr57 2.133 . S
O52 Zr55 2.133 . S
O52 Zr61 2.133 . S
O52 Zr62 2.133 . S
O53 Zr55 2.133 . S
O53 Zr57 2.133 . S
O53 Zr62 2.133 . S
O54 Zr55 2.133 . S
O54 Zr56 2.133 . S
O54 Zr61 2.133 . S
Zr55 O50 2.207 . S
Zr55 O51 2.133 . S
Zr55 O52 2.133 . S
Zr55 O53 2.133 . S
Zr55 O54 2.133 . S
Zr55 O67 2.207 . S
Zr55 O80 2.207 . S
Zr55 O83 2.207 . S
Zr56 O51 2.133 . S
Zr56 O54 2.133 . S
Zr56 O58 2.133 1_455 S
Zr56 O60 2.133 1_455 S
Zr56 O72 2.207 1_455 S
Zr56 O75 2.207 . S
Zr56 O85 2.207 . S
Zr56 O86 2.207 . S
Zr57 O51 2.133 . S
Zr57 O53 2.133 . S
Zr57 O59 2.133 1_455 S
Zr57 O60 2.133 1_455 S
Zr57 O69 2.207 . S
Zr57 O70 2.207 . S
Zr57 O77 2.207 . S
Zr57 O78 2.207 1_455 S
O58 Zr56 2.133 1_655 S
O58 Zr61 2.133 1_655 S
O58 Zr63 2.133 . S
O59 Zr57 2.133 1_655 S
O59 Zr62 2.133 1_655 S
O59 Zr63 2.133 . S
O60 Zr56 2.133 1_655 S
O60 Zr57 2.133 1_655 S
O60 Zr63 2.133 . S
Zr61 O52 2.133 . S
Zr61 O54 2.133 . S
Zr61 O58 2.133 1_455 S
Zr61 O64 2.133 1_455 S
Zr61 O68 2.207 . S
Zr61 O71 2.207 . S
Zr61 O76 2.207 1_455 S
Zr61 O79 2.207 . S
Zr62 O52 2.133 . S
Zr62 O53 2.133 . S
Zr62 O59 2.133 1_455 S
Zr62 O64 2.133 1_455 S
Zr62 O73 2.207 . S
Zr62 O74 2.207 1_455 S
Zr62 O98 2.207 . S
Zr62 O99 2.207 . S
Zr63 O58 2.133 . S
Zr63 O59 2.133 . S
Zr63 O60 2.133 . S
Zr63 O64 2.133 . S
Zr63 O65 2.207 . S
Zr63 O66 2.207 . S
Zr63 O81 2.207 . S
Zr63 O82 2.207 . S
O64 Zr61 2.133 1_655 S
O64 Zr62 2.133 1_655 S
O64 Zr63 2.133 . S
O65 Zr63 2.207 . S
O65 C87 1.295 . S
O66 Zr63 2.207 . S
O66 C88 1.295 . S
O67 Zr55 2.207 . S
O67 C89 1.295 . S
O68 Zr61 2.207 . S
O68 C90 1.295 . S
O69 Zr57 2.207 . S
O69 C91 1.295 . S
O70 Zr57 2.207 . S
O70 C92 1.295 . S
O71 Zr61 2.207 . S
O71 C93 1.295 . S
O72 Zr56 2.207 1_655 S
O72 C94 1.295 . S
O73 Zr62 2.207 . S
O73 C95 1.295 . S
O74 Zr62 2.207 1_655 S
O74 C96 1.295 . S
O75 Zr56 2.207 . S
O75 C97 1.295 . S
O76 Zr61 2.207 1_655 S
O76 C87 1.295 . S
O77 Zr57 2.207 . S
O77 C84 1.295 . S
O78 Zr57 2.207 1_655 S
O78 C88 1.295 . S
O79 Zr61 2.207 . S
O79 C89 1.295 . S
O80 Zr55 2.207 . S
O80 C97 1.295 . S
O81 Zr63 2.207 . S
O81 C96 1.295 . S
O82 Zr63 2.207 . S
O82 C94 1.295 . S
O83 Zr55 2.207 . S
O83 C95 1.295 . S
C84 O50 1.295 . S
C84 O77 1.295 . S
O85 Zr56 2.207 . S
O85 C93 1.295 . S
O86 Zr56 2.207 . S
O86 C91 1.295 . S
C87 O65 1.295 . S
C87 O76 1.295 . S
C88 O66 1.295 . S
C88 O78 1.295 . S
C89 O67 1.295 . S
C89 O79 1.295 . S
C90 O68 1.295 . S
C90 O99 1.295 . S
C91 O69 1.295 . S
C91 O86 1.295 . S
C92 O70 1.295 . S
C92 O98 1.295 . S
C93 O71 1.295 . S
C93 O85 1.295 . S
C94 O72 1.295 . S
C94 O82 1.295 . S
C95 O73 1.295 . S
C95 O83 1.295 . S
C96 O74 1.295 . S
C96 O81 1.295 . S
C97 O75 1.295 . S
C97 O80 1.295 . S
O98 Zr62 2.207 . S
O98 C92 1.295 . S
O99 Zr62 2.207 . S
O99 C90 1.295 . S
O100 Zr105 2.207 . S
O100 C134 1.295 . S
O101 Zr105 2.133 . S
O101 Zr106 2.133 . S
O101 Zr107 2.133 . S
O102 Zr105 2.133 1_565 S
O102 Zr111 2.133 1_565 S
O102 Zr112 2.133 . S
O103 Zr105 2.133 1_565 S
O103 Zr107 2.133 1_565 S
O103 Zr112 2.133 . S
O104 Zr105 2.133 . S
O104 Zr106 2.133 . S
O104 Zr111 2.133 . S
Zr105 O100 2.207 . S
Zr105 O101 2.133 . S
Zr105 O102 2.133 1_545 S
Zr105 O103 2.133 1_545 S
Zr105 O104 2.133 . S
Zr105 O117 2.207 . S
Zr105 O130 2.207 . S
Zr105 O133 2.207 1_545 S
Zr106 O101 2.133 . S
Zr106 O104 2.133 . S
Zr106 O108 2.133 . S
Zr106 O110 2.133 . S
Zr106 O122 2.207 . S
Zr106 O125 2.207 . S
Zr106 O135 2.207 . S
Zr106 O136 2.207 . S
Zr107 O101 2.133 . S
Zr107 O103 2.133 1_545 S
Zr107 O109 2.133 1_545 S
Zr107 O110 2.133 . S
Zr107 O119 2.207 . S
Zr107 O120 2.207 1_545 S
Zr107 O127 2.207 . S
Zr107 O128 2.207 . S
O108 Zr106 2.133 . S
O108 Zr111 2.133 . S
O108 Zr113 2.133 . S
O109 Zr107 2.133 1_565 S
O109 Zr112 2.133 . S
O109 Zr113 2.133 1_565 S
O110 Zr106 2.133 . S
O110 Zr107 2.133 . S
O110 Zr113 2.133 . S
Zr111 O102 2.133 1_545 S
Zr111 O104 2.133 . S
Zr111 O108 2.133 . S
Zr111 O114 2.133 1_545 S
Zr111 O118 2.207 1_545 S
Zr111 O121 2.207 . S
Zr111 O126 2.207 . S
Zr111 O129 2.207 . S
Zr112 O102 2.133 . S
Zr112 O103 2.133 . S
Zr112 O109 2.133 . S
Zr112 O114 2.133 . S
Zr112 O123 2.207 . S
Zr112 O124 2.207 . S
Zr112 O148 2.207 . S
Zr112 O149 2.207 . S
Zr113 O108 2.133 . S
Zr113 O109 2.133 1_545 S
Zr113 O110 2.133 . S
Zr113 O114 2.133 1_545 S
Zr113 O115 2.207 . S
Zr113 O116 2.207 . S
Zr113 O131 2.207 1_545 S
Zr113 O132 2.207 . S
O114 Zr111 2.133 1_565 S
O114 Zr112 2.133 . S
O114 Zr113 2.133 1_565 S
O115 Zr113 2.207 . S
O115 C137 1.295 . S
O116 Zr113 2.207 . S
O116 C138 1.295 . S
O117 Zr105 2.207 . S
O117 C139 1.295 . S
O118 Zr111 2.207 1_565 S
O118 C140 1.295 . S
O119 Zr107 2.207 . S
O119 C141 1.295 . S
O120 Zr107 2.207 1_565 S
O120 C142 1.295 . S
O121 Zr111 2.207 . S
O121 C143 1.295 . S
O122 Zr106 2.207 . S
O122 C144 1.295 . S
O123 Zr112 2.207 . S
O123 C145 1.295 . S
O124 Zr112 2.207 . S
O124 C146 1.295 . S
O125 Zr106 2.207 . S
O125 C147 1.295 . S
O126 Zr111 2.207 . S
O126 C137 1.295 . S
O127 Zr107 2.207 . S
O127 C134 1.295 . S
O128 Zr107 2.207 . S
O128 C138 1.295 . S
O129 Zr111 2.207 . S
O129 C139 1.295 . S
O130 Zr105 2.207 . S
O130 C147 1.295 . S
O131 Zr113 2.207 1_565 S
O131 C146 1.295 . S
O132 Zr113 2.207 . S
O132 C144 1.295 . S
O133 Zr105 2.207 1_565 S
O133 C145 1.295 . S
C134 O100 1.295 . S
C134 O127 1.295 . S
O135 Zr106 2.207 . S
O135 C143 1.295 . S
O136 Zr106 2.207 . S
O136 C141 1.295 . S
C137 O115 1.295 . S
C137 O126 1.295 . S
C138 O116 1.295 . S
C138 O128 1.295 . S
C139 O117 1.295 . S
C139 O129 1.295 . S
C140 O118 1.295 . S
C140 O149 1.295 . S
C141 O119 1.295 . S
C141 O136 1.295 . S
C142 O120 1.295 . S
C142 O148 1.295 . S
C143 O121 1.295 . S
C143 O135 1.295 . S
C144 O122 1.295 . S
C144 O132 1.295 . S
C145 O123 1.295 . S
C145 O133 1.295 . S
C146 O124 1.295 . S
C146 O131 1.295 . S
C147 O125 1.295 . S
C147 O130 1.295 . S
O148 Zr112 2.207 . S
O148 C142 1.295 . S
O149 Zr112 2.207 . S
O149 C140 1.295 . S
O150 Zr155 2.207 . S
O150 C184 1.295 . S
O151 Zr155 2.133 . S
O151 Zr156 2.133 . S
O151 Zr157 2.133 . S
O152 Zr155 2.133 1_556 S
O152 Zr161 2.133 1_556 S
O152 Zr162 2.133 . S
O153 Zr155 2.133 1_556 S
O153 Zr157 2.133 1_556 S
O153 Zr162 2.133 . S
O154 Zr155 2.133 . S
O154 Zr156 2.133 . S
O154 Zr161 2.133 . S
Zr155 O150 2.207 . S
Zr155 O151 2.133 . S
Zr155 O152 2.133 1_554 S
Zr155 O153 2.133 1_554 S
Zr155 O154 2.133 . S
Zr155 O167 2.207 . S
Zr155 O180 2.207 . S
Zr155 O183 2.207 1_554 S
Zr156 O151 2.133 . S
Zr156 O154 2.133 . S
Zr156 O158 2.133 . S
Zr156 O160 2.133 . S
Zr156 O172 2.207 . S
Zr156 O175 2.207 . S
Zr156 O185 2.207 . S
Zr156 O186 2.207 . S
Zr157 O151 2.133 . S
Zr157 O153 2.133 1_554 S
Zr157 O159 2.133 1_554 S
Zr157 O160 2.133 . S
Zr157 O169 2.207 . S
Zr157 O170 2.207 1_554 S
Zr157 O177 2.207 . S
Zr157 O178 2.207 . S
O158 Zr156 2.133 . S
O158 Zr161 2.133 . S
O158 Zr163 2.133 . S
O159 Zr157 2.133 1_556 S
O159 Zr162 2.133 . S
O159 Zr163 2.133 1_556 S
O160 Zr156 2.133 . S
O160 Zr157 2.133 . S
O160 Zr163 2.133 . S
Zr161 O152 2.133 1_554 S
Zr161 O154 2.133 . S
Zr161 O158 2.133 . S
Zr161 O164 2.133 1_554 S
Zr161 O168 2.207 1_554 S
Zr161 O171 2.207 . S
Zr161 O176 2.207 . S
Zr161 O179 2.207 . S
Zr162 O152 2.133 . S
Zr162 O153 2.133 . S
Zr162 O159 2.133 . S
Zr162 O164 2.133 . S
Zr162 O173 2.207 . S
Zr162 O174 2.207 . S
Zr162 O198 2.207 . S
Zr162 O199 2.207 . S
Zr163 O158 2.133 . S
Zr163 O159 2.133 1_554 S
Zr163 O160 2.133 . S
Zr163 O164 2.133 1_554 S
Zr163 O165 2.207 . S
Zr163 O166 2.207 . S
Zr163 O181 2.207 1_554 S
Zr163 O182 2.207 . S
O164 Zr161 2.133 1_556 S
O164 Zr162 2.133 . S
O164 Zr163 2.133 1_556 S
O165 Zr163 2.207 . S
O165 C187 1.295 . S
O166 Zr163 2.207 . S
O166 C188 1.295 . S
O167 Zr155 2.207 . S
O167 C189 1.295 . S
O168 Zr161 2.207 1_556 S
O168 C190 1.295 . S
O169 Zr157 2.207 . S
O169 C191 1.295 . S
O170 Zr157 2.207 1_556 S
O170 C192 1.295 . S
O171 Zr161 2.207 . S
O171 C193 1.295 . S
O172 Zr156 2.207 . S
O172 C194 1.295 . S
O173 Zr162 2.207 . S
O173 C195 1.295 . S
O174 Zr162 2.207 . S
O174 C196 1.295 . S
O175 Zr156 2.207 . S
O175 C197 1.295 . S
O176 Zr161 2.207 . S
O176 C187 1.295 . S
O177 Zr157 2.207 . S
O177 C184 1.295 . S
O178 Zr157 2.207 . S
O178 C188 1.295 . S
O179 Zr161 2.207 . S
O179 C189 1.295 . S
O180 Zr155 2.207 . S
O180 C197 1.295 . S
O181 Zr163 2.207 1_556 S
O181 C196 1.295 . S
O182 Zr163 2.207 . S
O182 C194 1.295 . S
O183 Zr155 2.207 1_556 S
O183 C195 1.295 . S
C184 O150 1.295 . S
C184 O177 1.295 . S
O185 Zr156 2.207 . S
O185 C193 1.295 . S
O186 Zr156 2.207 . S
O186 C191 1.295 . S
C187 O165 1.295 . S
C187 O176 1.295 . S
C188 O166 1.295 . S
C188 O178 1.295 . S
C189 O167 1.295 . S
C189 O179 1.295 . S
C190 O168 1.295 . S
C190 O199 1.295 . S
C191 O169 1.295 . S
C191 O186 1.295 . S
C192 O170 1.295 . S
C192 O198 1.295 . S
C193 O171 1.295 . S
C193 O185 1.295 . S
C194 O172 1.295 . S
C194 O182 1.295 . S
C195 O173 1.295 . S
C195 O183 1.295 . S
C196 O174 1.295 . S
C196 O181 1.295 . S
C197 O175 1.295 . S
C197 O180 1.295 . S
O198 Zr162 2.207 . S
O198 C192 1.295 . S
O199 Zr162 2.207 . S
O199 C190 1.295 . S
H200 C208 0.950 . S
H201 C213 0.950 . S
H202 C210 0.950 . S
H203 C212 0.950 . S
H204 C214 0.950 . S
H205 C216 0.950 . S
H206 C218 0.950 . S
H207 C219 0.950 . S
C208 H200 0.950 . S
C208 C209 1.386 . S
C208 C210 1.391 . S
C209 C208 1.386 . S
C209 C213 1.393 1_655 S
C210 H202 0.950 . S
C210 C208 1.391 . S
C210 C211 1.405 . S
C211 C210 1.405 . S
C211 C212 1.395 1_655 S
C211 C217 1.490 1_655 S
C212 H203 0.950 . S
C212 C211 1.395 1_455 S
C212 C213 1.391 . S
C213 H201 0.950 . S
C213 C209 1.393 1_455 S
C213 C212 1.391 . S
C214 H204 0.950 . S
C214 C215 1.386 . S
C214 C216 1.391 . S
C215 C214 1.386 . S
C215 C219 1.393 1_455 S
C216 H205 0.950 . S
C216 C214 1.391 . S
C216 C217 1.406 . S
C217 C211 1.490 1_455 S
C217 C216 1.406 . S
C217 C218 1.394 1_455 S
C218 H206 0.950 . S
C218 C217 1.394 1_655 S
C218 C219 1.391 . S
C219 H207 0.950 . S
C219 C215 1.393 1_655 S
C219 C218 1.391 . S
H220 C228 0.950 . S
H221 C233 0.950 . S
H222 C230 0.950 . S
H223 C232 0.950 . S
H224 C234 0.950 . S
H225 C236 0.950 . S
H226 C238 0.950 . S
H227 C239 0.950 . S
C228 H220 0.950 . S
C228 C229 1.401 . S
C228 C230 1.391 . S
C229 C228 1.401 . S
C229 C233 1.378 1_545 S
C230 H222 0.950 . S
C230 C228 1.391 . S
C230 C231 1.409 . S
C231 C230 1.409 . S
C231 C232 1.390 1_545 S
C231 C237 1.490 1_545 S
C232 H223 0.950 . S
C232 C231 1.390 1_565 S
C232 C233 1.391 . S
C233 H221 0.950 . S
C233 C229 1.378 1_565 S
C233 C232 1.391 . S
C234 H224 0.950 . S
C234 C235 1.397 . S
C234 C236 1.391 . S
C235 C234 1.397 . S
C235 C239 1.381 1_565 S
C236 H225 0.950 . S
C236 C234 1.391 . S
C236 C237 1.405 . S
C237 C231 1.490 1_565 S
C237 C236 1.405 . S
C237 C238 1.394 1_565 S
C238 H226 0.950 . S
C238 C237 1.394 1_545 S
C238 C239 1.391 . S
C239 H227 0.950 . S
C239 C235 1.381 1_545 S
C239 C238 1.391 . S
H240 C248 0.950 . S
H241 C253 0.950 . S
H242 C250 0.950 . S
H243 C252 0.950 . S
H244 C254 0.950 . S
H245 C256 0.950 . S
H246 C258 0.950 . S
H247 C259 0.950 . S
C248 H240 0.950 . S
C248 C249 1.386 1_655 S
C248 C250 1.391 . S
C249 C248 1.386 1_455 S
C249 C253 1.393 . S
C250 H242 0.950 . S
C250 C248 1.391 . S
C250 C251 1.389 1_655 S
C251 C250 1.389 1_455 S
C251 C252 1.410 . S
C251 C257 1.490 1_455 S
C252 H243 0.950 . S
C252 C251 1.410 . S
C252 C253 1.391 . S
C253 H241 0.950 . S
C253 C249 1.393 . S
C253 C252 1.391 . S
C254 H244 0.950 . S
C254 C255 1.386 1_455 S
C254 C256 1.391 . S
C255 C254 1.386 1_655 S
C255 C259 1.393 . S
C256 H245 0.950 . S
C256 C254 1.391 . S
C256 C257 1.393 1_455 S
C257 C251 1.490 1_655 S
C257 C256 1.393 1_655 S
C257 C258 1.406 . S
C258 H246 0.950 . S
C258 C257 1.406 . S
C258 C259 1.391 . S
C259 H247 0.950 . S
C259 C255 1.393 . S
C259 C258 1.391 . S
H260 C268 0.950 . S
H261 C273 0.950 . S
H262 C270 0.950 . S
H263 C272 0.950 . S
H264 C274 0.950 . S
H265 C276 0.950 . S
H266 C278 0.950 . S
H267 C279 0.950 . S
C268 H260 0.950 . S
C268 C269 1.386 . S
C268 C270 1.391 . S
C269 C268 1.386 . S
C269 C273 1.393 1_565 S
C270 H262 0.950 . S
C270 C268 1.391 . S
C270 C271 1.407 . S
C271 C270 1.407 . S
C271 C272 1.392 1_565 S
C271 C277 1.490 1_565 S
C272 H263 0.950 . S
C272 C271 1.392 1_545 S
C272 C273 1.391 . S
C273 H261 0.950 . S
C273 C269 1.393 1_545 S
C273 C272 1.391 . S
C274 H264 0.950 . S
C274 C275 1.386 . S
C274 C276 1.391 . S
C275 C274 1.386 . S
C275 C279 1.393 1_545 S
C276 H265 0.950 . S
C276 C274 1.391 . S
C276 C277 1.410 . S
C277 C271 1.490 1_545 S
C277 C276 1.410 . S
C277 C278 1.390 1_545 S
C278 H266 0.950 . S
C278 C277 1.390 1_565 S
C278 C279 1.391 . S
C279 H267 0.950 . S
C279 C275 1.393 1_565 S
C279 C278 1.391 . S
H280 C288 0.949 . S
H281 C293 0.950 . S
H282 C290 0.949 1_455 S
H283 C292 0.950 . S
H284 C294 0.949 . S
H285 C296 0.949 1_655 S
H286 C298 0.950 . S
H287 C299 0.950 . S
C288 H280 0.949 . S
C288 C289 1.386 . S
C288 C290 1.391 . S
C289 C288 1.386 . S
C289 C293 1.393 . S
C290 H282 0.949 1_655 S
C290 C288 1.391 . S
C290 C291 1.400 . S
C291 C290 1.400 . S
C291 C292 1.400 . S
C291 C297 1.490 1_655 S
C292 H283 0.950 . S
C292 C291 1.400 . S
C292 C293 1.391 . S
C293 H281 0.950 . S
C293 C289 1.393 . S
C293 C292 1.391 . S
C294 H284 0.949 . S
C294 C295 1.386 . S
C294 C296 1.391 . S
C295 C294 1.386 . S
C295 C299 1.393 . S
C296 H285 0.949 1_455 S
C296 C294 1.391 . S
C296 C297 1.400 . S
C297 C291 1.490 1_455 S
C297 C296 1.400 . S
C297 C298 1.398 . S
C298 H286 0.950 . S
C298 C297 1.398 . S
C298 C299 1.391 . S
C299 H287 0.950 . S
C299 C295 1.393 . S
C299 C298 1.391 . S
H300 C308 0.950 . S
H301 C313 0.950 . S
H302 C310 0.950 . S
H303 C312 0.950 . S
H304 C314 0.950 . S
H305 C316 0.950 . S
H306 C318 0.950 . S
H307 C319 0.950 . S
C308 H300 0.950 . S
C308 C309 1.387 . S
C308 C310 1.391 . S
C309 C308 1.387 . S
C309 C313 1.391 1_545 S
C310 H302 0.950 . S
C310 C308 1.391 . S
C310 C311 1.402 . S
C311 C310 1.402 . S
C311 C312 1.397 1_545 S
C311 C317 1.491 . S
C312 H303 0.950 . S
C312 C311 1.397 1_565 S
C312 C313 1.391 . S
C313 H301 0.950 . S
C313 C309 1.391 1_565 S
C313 C312 1.391 . S
C314 H304 0.950 . S
C314 C315 1.387 1_565 S
C314 C316 1.391 . S
C315 C314 1.387 1_545 S
C315 C319 1.391 . S
C316 H305 0.950 . S
C316 C314 1.391 . S
C316 C317 1.402 1_565 S
C317 C311 1.491 . S
C317 C316 1.402 1_545 S
C317 C318 1.397 . S
C318 H306 0.950 . S
C318 C317 1.397 . S
C318 C319 1.391 . S
C319 H307 0.950 . S
C319 C315 1.391 . S
C319 C318 1.391 . S
H320 C328 0.950 . S
H321 C333 0.950 . S
H322 C330 0.950 . S
H323 C332 0.950 . S
H324 C334 0.950 . S
H325 C336 0.950 . S
H326 C338 0.950 . S
H327 C339 0.950 . S
C328 H320 0.950 . S
C328 C329 1.386 . S
C328 C330 1.391 . S
C329 C328 1.386 . S
C329 C333 1.393 1_655 S
C330 H322 0.950 . S
C330 C328 1.391 . S
C330 C331 1.407 . S
C331 C330 1.407 . S
C331 C332 1.392 1_655 S
C331 C337 1.490 1_655 S
C332 H323 0.950 . S
C332 C331 1.392 1_455 S
C332 C333 1.391 . S
C333 H321 0.950 . S
C333 C329 1.393 1_455 S
C333 C332 1.391 . S
C334 H324 0.950 . S
C334 C335 1.386 . S
C334 C336 1.391 . S
C335 C334 1.386 . S
C335 C339 1.393 1_455 S
C336 H325 0.950 . S
C336 C334 1.391 . S
C336 C337 1.410 . S
C337 C331 1.490 1_455 S
C337 C336 1.410 . S
C337 C338 1.389 1_455 S
C338 H326 0.950 . S
C338 C337 1.389 1_655 S
C338 C339 1.391 . S
C339 H327 0.950 . S
C339 C335 1.393 1_655 S
C339 C338 1.391 . S
H340 C348 0.950 . S
H341 C353 0.950 . S
H342 C350 0.950 . S
H343 C352 0.950 . S
H344 C354 0.950 . S
H345 C356 0.950 . S
H346 C358 0.950 . S
H347 C359 0.950 . S
C348 H340 0.950 . S
C348 C349 1.402 . S
C348 C350 1.391 . S
C349 C348 1.402 . S
C349 C353 1.376 1_545 S
C350 H342 0.950 . S
C350 C348 1.391 . S
C350 C351 1.409 . S
C351 C350 1.409 . S
C351 C352 1.390 1_545 S
C351 C357 1.490 1_545 S
C352 H343 0.950 . S
C352 C351 1.390 1_565 S
C352 C353 1.391 . S
C353 H341 0.950 . S
C353 C349 1.376 1_565 S
C353 C352 1.391 . S
C354 H344 0.950 . S
C354 C355 1.399 . S
C354 C356 1.391 . S
C355 C354 1.399 . S
C355 C359 1.380 1_565 S
C356 H345 0.950 . S
C356 C354 1.391 . S
C356 C357 1.406 . S
C357 C351 1.490 1_565 S
C357 C356 1.406 . S
C357 C358 1.393 1_565 S
C358 H346 0.950 . S
C358 C357 1.393 1_545 S
C358 C359 1.391 . S
C359 H347 0.950 . S
C359 C355 1.380 1_545 S
C359 C358 1.391 . S
H360 C368 0.950 . S
H361 C373 0.950 . S
H362 C370 0.950 . S
H363 C372 0.950 . S
H364 C374 0.950 . S
H365 C376 0.950 . S
H366 C378 0.950 . S
H367 C379 0.950 . S
C368 H360 0.950 . S
C368 C369 1.375 1_554 S
C368 C370 1.391 . S
C369 C368 1.375 1_556 S
C369 C373 1.404 . S
C370 H362 0.950 . S
C370 C368 1.391 . S
C370 C371 1.397 1_554 S
C371 C370 1.397 1_556 S
C371 C372 1.401 . S
C371 C377 1.490 1_556 S
C372 H363 0.950 . S
C372 C371 1.401 . S
C372 C373 1.391 . S
C373 H361 0.950 . S
C373 C369 1.404 . S
C373 C372 1.391 . S
C374 H364 0.950 . S
C374 C375 1.371 1_556 S
C374 C376 1.391 . S
C375 C374 1.371 1_554 S
C375 C379 1.408 . S
C376 H365 0.950 . S
C376 C374 1.391 . S
C376 C377 1.393 1_556 S
C377 C371 1.490 1_554 S
C377 C376 1.393 1_554 S
C377 C378 1.406 . S
C378 H366 0.950 . S
C378 C377 1.406 . S
C378 C379 1.391 . S
C379 H367 0.950 . S
C379 C375 1.408 . S
C379 C378 1.391 . S
H380 C388 0.950 . S
H381 C393 0.950 . S
H382 C390 0.950 . S
H383 C392 0.950 . S
H384 C394 0.950 . S
H385 C396 0.950 . S
H386 C398 0.950 . S
H387 C399 0.950 . S
C388 H380 0.950 . S
C388 C389 1.386 . S
C388 C390 1.391 . S
C389 C388 1.386 . S
C389 C393 1.393 1_556 S
C390 H382 0.950 . S
C390 C388 1.391 . S
C390 C391 1.407 . S
C391 C390 1.407 . S
C391 C392 1.392 1_556 S
C391 C397 1.490 1_556 S
C392 H383 0.950 . S
C392 C391 1.392 1_554 S
C392 C393 1.391 . S
C393 H381 0.950 . S
C393 C389 1.393 1_554 S
C393 C392 1.391 . S
C394 H384 0.950 . S
C394 C395 1.386 . S
C394 C396 1.391 . S
C395 C394 1.386 . S
C395 C399 1.393 1_554 S
C396 H385 0.950 . S
C396 C394 1.391 . S
C396 C397 1.410 . S
C397 C391 1.490 1_554 S
C397 C396 1.410 . S
C397 C398 1.389 1_554 S
C398 H386 0.950 . S
C398 C397 1.389 1_556 S
C398 C399 1.391 . S
C399 H387 0.950 . S
C399 C395 1.393 1_556 S
C399 C398 1.391 . S
H400 C408 0.950 . S
H401 C413 0.950 . S
H402 C410 0.950 . S
H403 C412 0.950 . S
H404 C414 0.950 . S
H405 C416 0.950 . S
H406 C418 0.950 . S
H407 C419 0.950 . S
C408 H400 0.950 . S
C408 C409 1.392 . S
C408 C410 1.391 . S
C409 C408 1.392 . S
C409 C413 1.387 1_556 S
C410 H402 0.950 . S
C410 C408 1.391 . S
C410 C411 1.402 . S
C411 C410 1.402 . S
C411 C412 1.397 1_556 S
C411 C417 1.491 1_556 S
C412 H403 0.950 . S
C412 C411 1.397 1_554 S
C412 C413 1.391 . S
C413 H401 0.950 . S
C413 C409 1.387 1_554 S
C413 C412 1.391 . S
C414 H404 0.950 . S
C414 C415 1.396 . S
C414 C416 1.391 . S
C415 C414 1.396 . S
C415 C419 1.382 1_554 S
C416 H405 0.950 . S
C416 C414 1.391 . S
C416 C417 1.406 . S
C417 C411 1.491 1_554 S
C417 C416 1.406 . S
C417 C418 1.392 1_554 S
C418 H406 0.950 . S
C418 C417 1.392 1_556 S
C418 C419 1.391 . S
C419 H407 0.950 . S
C419 C415 1.382 1_556 S
C419 C418 1.391 . S
H420 C428 0.950 . S
H421 C433 0.950 . S
H422 C430 0.950 . S
H423 C432 0.950 . S
H424 C434 0.950 . S
H425 C436 0.950 . S
H426 C438 0.950 . S
H427 C439 0.950 . S
C428 H420 0.950 . S
C428 C429 1.386 . S
C428 C430 1.391 . S
C429 C428 1.386 . S
C429 C433 1.393 1_554 S
C430 H422 0.950 . S
C430 C428 1.391 . S
C430 C431 1.400 . S
C431 C430 1.400 . S
C431 C432 1.398 1_554 S
C431 C437 1.490 1_554 S
C432 H423 0.950 . S
C432 C431 1.398 1_556 S
C432 C433 1.391 . S
C433 H421 0.950 . S
C433 C429 1.393 1_556 S
C433 C432 1.391 . S
C434 H424 0.950 . S
C434 C435 1.386 . S
C434 C436 1.391 . S
C435 C434 1.386 . S
C435 C439 1.393 1_556 S
C436 H425 0.950 . S
C436 C434 1.391 . S
C436 C437 1.404 . S
C437 C431 1.490 1_556 S
C437 C436 1.404 . S
C437 C438 1.396 1_556 S
C438 H426 0.950 . S
C438 C437 1.396 1_554 S
C438 C439 1.391 . S
C439 H427 0.950 . S
C439 C435 1.393 1_554 S
C439 C438 1.391 . S
H440 C448 0.950 . S
H441 C453 0.950 . S
H442 C450 0.950 . S
H443 C452 0.950 . S
H444 C454 0.950 . S
H445 C456 0.950 . S
H446 C458 0.950 . S
H447 C459 0.950 . S
C448 H440 0.950 . S
C448 C449 1.386 . S
C448 C450 1.391 . S
C449 C448 1.386 . S
C449 C453 1.393 . S
C450 H442 0.950 . S
C450 C448 1.391 . S
C450 C451 1.400 . S
C451 C450 1.400 . S
C451 C452 1.398 . S
C451 C457 1.491 . S
C452 H443 0.950 . S
C452 C451 1.398 . S
C452 C453 1.391 . S
C453 H441 0.950 . S
C453 C449 1.393 . S
C453 C452 1.391 . S
C454 H444 0.950 . S
C454 C455 1.386 . S
C454 C456 1.391 . S
C455 C454 1.386 . S
C455 C459 1.393 . S
C456 H445 0.950 . S
C456 C454 1.391 . S
C456 C457 1.400 . S
C457 C451 1.491 . S
C457 C456 1.400 . S
C457 C458 1.398 . S
C458 H446 0.950 . S
C458 C457 1.398 . S
C458 C459 1.391 . S
C459 H447 0.950 . S
C459 C455 1.393 . S
C459 C458 1.391 . S
H460 C468 0.950 . S
H461 C473 0.950 . S
H462 C470 0.950 . S
H463 C472 0.950 . S
H464 C474 0.950 . S
H465 C476 0.950 . S
H466 C478 0.950 . S
H467 C479 0.950 . S
C468 H460 0.950 . S
C468 C469 1.386 . S
C468 C470 1.391 . S
C469 C468 1.386 . S
C469 C473 1.393 . S
C470 H462 0.950 . S
C470 C468 1.391 . S
C470 C471 1.400 . S
C471 C470 1.400 . S
C471 C472 1.398 . S
C471 C477 1.491 . S
C472 H463 0.950 . S
C472 C471 1.398 . S
C472 C473 1.391 . S
C473 H461 0.950 . S
C473 C469 1.393 . S
C473 C472 1.391 . S
C474 H464 0.950 . S
C474 C475 1.386 . S
C474 C476 1.391 . S
C475 C474 1.386 . S
C475 C479 1.393 . S
C476 H465 0.950 . S
C476 C474 1.391 . S
C476 C477 1.400 . S
C477 C471 1.491 . S
C477 C476 1.400 . S
C477 C478 1.398 . S
C478 H466 0.950 . S
C478 C477 1.398 . S
C478 C479 1.391 . S
C479 H467 0.950 . S
C479 C475 1.393 . S
C479 C478 1.391 . S
H480 C488 0.950 . S
H481 C493 0.950 . S
H482 C490 0.950 . S
H483 C492 0.950 . S
H484 C494 0.950 . S
H485 C496 0.950 . S
H486 C498 0.950 . S
H487 C499 0.950 . S
C488 H480 0.950 . S
C488 C489 1.386 . S
C488 C490 1.391 . S
C489 C488 1.386 . S
C489 C493 1.393 . S
C490 H482 0.950 . S
C490 C488 1.391 . S
C490 C491 1.400 . S
C491 C490 1.400 . S
C491 C492 1.398 . S
C491 C497 1.491 . S
C492 H483 0.950 . S
C492 C491 1.398 . S
C492 C493 1.391 . S
C493 H481 0.950 . S
C493 C489 1.393 . S
C493 C492 1.391 . S
C494 H484 0.950 . S
C494 C495 1.386 . S
C494 C496 1.391 . S
C495 C494 1.386 . S
C495 C499 1.393 . S
C496 H485 0.950 . S
C496 C494 1.391 . S
C496 C497 1.400 . S
C497 C491 1.491 . S
C497 C496 1.400 . S
C497 C498 1.398 . S
C498 H486 0.950 . S
C498 C497 1.398 . S
C498 C499 1.391 . S
C499 H487 0.950 . S
C499 C495 1.393 . S
C499 C498 1.391 . S
H500 C508 0.950 . S
H501 C513 0.950 . S
H502 C510 0.950 . S
H503 C512 0.950 . S
H504 C514 0.950 . S
H505 C516 0.950 . S
H506 C518 0.950 . S
H507 C519 0.950 . S
C508 H500 0.950 . S
C508 C509 1.386 . S
C508 C510 1.391 . S
C509 C508 1.386 . S
C509 C513 1.393 . S
C510 H502 0.950 . S
C510 C508 1.391 . S
C510 C511 1.400 . S
C511 C510 1.400 . S
C511 C512 1.398 . S
C511 C517 1.491 . S
C512 H503 0.950 . S
C512 C511 1.398 . S
C512 C513 1.391 . S
C513 H501 0.950 . S
C513 C509 1.393 . S
C513 C512 1.391 . S
C514 H504 0.950 . S
C514 C515 1.386 . S
C514 C516 1.391 . S
C515 C514 1.386 . S
C515 C519 1.393 . S
C516 H505 0.950 . S
C516 C514 1.391 . S
C516 C517 1.400 . S
C517 C511 1.491 . S
C517 C516 1.400 . S
C517 C518 1.398 . S
C518 H506 0.950 . S
C518 C517 1.398 . S
C518 C519 1.391 . S
C519 H507 0.950 . S
C519 C515 1.393 . S
C519 C518 1.391 . S
H520 C528 0.950 . S
H521 C533 0.950 . S
H522 C530 0.950 . S
H523 C532 0.950 . S
H524 C534 0.950 . S
H525 C536 0.950 . S
H526 C538 0.950 . S
H527 C539 0.950 . S
C528 H520 0.950 . S
C528 C529 1.386 . S
C528 C530 1.391 . S
C529 C528 1.386 . S
C529 C533 1.393 . S
C530 H522 0.950 . S
C530 C528 1.391 . S
C530 C531 1.400 . S
C531 C530 1.400 . S
C531 C532 1.398 . S
C531 C537 1.491 . S
C532 H523 0.950 . S
C532 C531 1.398 . S
C532 C533 1.391 . S
C533 H521 0.950 . S
C533 C529 1.393 . S
C533 C532 1.391 . S
C534 H524 0.950 . S
C534 C535 1.386 . S
C534 C536 1.391 . S
C535 C534 1.386 . S
C535 C539 1.393 . S
C536 H525 0.950 . S
C536 C534 1.391 . S
C536 C537 1.400 . S
C537 C531 1.491 . S
C537 C536 1.400 . S
C537 C538 1.398 . S
C538 H526 0.950 . S
C538 C537 1.398 . S
C538 C539 1.391 . S
C539 H527 0.950 . S
C539 C535 1.393 . S
C539 C538 1.391 . S
H540 C548 0.950 . S
H541 C553 0.950 . S
H542 C550 0.950 . S
H543 C552 0.950 . S
H544 C554 0.950 . S
H545 C556 0.950 . S
H546 C558 0.950 . S
H547 C559 0.950 . S
C548 H540 0.950 . S
C548 C549 1.386 . S
C548 C550 1.391 . S
C549 C548 1.386 . S
C549 C553 1.393 . S
C550 H542 0.950 . S
C550 C548 1.391 . S
C550 C551 1.400 . S
C551 C550 1.400 . S
C551 C552 1.398 . S
C551 C557 1.491 . S
C552 H543 0.950 . S
C552 C551 1.398 . S
C552 C553 1.391 . S
C553 H541 0.950 . S
C553 C549 1.393 . S
C553 C552 1.391 . S
C554 H544 0.950 . S
C554 C555 1.386 . S
C554 C556 1.391 . S
C555 C554 1.386 . S
C555 C559 1.393 . S
C556 H545 0.950 . S
C556 C554 1.391 . S
C556 C557 1.400 . S
C557 C551 1.491 . S
C557 C556 1.400 . S
C557 C558 1.398 . S
C558 H546 0.950 . S
C558 C557 1.398 . S
C558 C559 1.391 . S
C559 H547 0.950 . S
C559 C555 1.393 . S
C559 C558 1.391 . S
H560 C568 0.950 . S
H561 C573 0.950 . S
H562 C570 0.950 . S
H563 C572 0.950 . S
H564 C574 0.950 . S
H565 C576 0.950 . S
H566 C578 0.950 . S
H567 C579 0.950 . S
C568 H560 0.950 . S
C568 C569 1.386 . S
C568 C570 1.391 . S
C569 C568 1.386 . S
C569 C573 1.393 . S
C570 H562 0.950 . S
C570 C568 1.391 . S
C570 C571 1.400 . S
C571 C570 1.400 . S
C571 C572 1.398 . S
C571 C577 1.491 . S
C572 H563 0.950 . S
C572 C571 1.398 . S
C572 C573 1.391 . S
C573 H561 0.950 . S
C573 C569 1.393 . S
C573 C572 1.391 . S
C574 H564 0.950 . S
C574 C575 1.386 . S
C574 C576 1.391 . S
C575 C574 1.386 . S
C575 C579 1.393 . S
C576 H565 0.950 . S
C576 C574 1.391 . S
C576 C577 1.400 . S
C577 C571 1.491 . S
C577 C576 1.400 . S
C577 C578 1.398 . S
C578 H566 0.950 . S
C578 C577 1.398 . S
C578 C579 1.391 . S
C579 H567 0.950 . S
C579 C575 1.393 . S
C579 C578 1.391 . S
H580 C588 0.950 . S
H581 C593 0.950 . S
H582 C590 0.950 . S
H583 C592 0.950 . S
H584 C594 0.950 . S
H585 C596 0.950 . S
H586 C598 0.950 . S
H587 C599 0.950 . S
C588 H580 0.950 . S
C588 C589 1.386 . S
C588 C590 1.391 . S
C589 C588 1.386 . S
C589 C593 1.393 . S
C590 H582 0.950 . S
C590 C588 1.391 . S
C590 C591 1.400 . S
C591 C590 1.400 . S
C591 C592 1.398 . S
C591 C597 1.491 . S
C592 H583 0.950 . S
C592 C591 1.398 . S
C592 C593 1.391 . S
C593 H581 0.950 . S
C593 C589 1.393 . S
C593 C592 1.391 . S
C594 H584 0.950 . S
C594 C595 1.386 . S
C594 C596 1.391 . S
C595 C594 1.386 . S
C595 C599 1.393 . S
C596 H585 0.950 . S
C596 C594 1.391 . S
C596 C597 1.400 . S
C597 C591 1.491 . S
C597 C596 1.400 . S
C597 C598 1.398 . S
C598 H586 0.950 . S
C598 C597 1.398 . S
C598 C599 1.391 . S
C599 H587 0.950 . S
C599 C595 1.393 . S
C599 C598 1.391 . S
H600 C608 0.950 . S
H601 C613 0.950 . S
H602 C610 0.950 . S
H603 C612 0.950 . S
H604 C614 0.950 . S
H605 C616 0.950 . S
H606 C618 0.950 . S
H607 C619 0.950 . S
C608 H600 0.950 . S
C608 C609 1.386 . S
C608 C610 1.391 . S
C609 C608 1.386 . S
C609 C613 1.393 . S
C610 H602 0.950 . S
C610 C608 1.391 . S
C610 C611 1.400 . S
C611 C610 1.400 . S
C611 C612 1.398 . S
C611 C617 1.491 . S
C612 H603 0.950 . S
C612 C611 1.398 . S
C612 C613 1.391 . S
C613 H601 0.950 . S
C613 C609 1.393 . S
C613 C612 1.391 . S
C614 H604 0.950 . S
C614 C615 1.386 . S
C614 C616 1.391 . S
C615 C614 1.386 . S
C615 C619 1.393 . S
C616 H605 0.950 . S
C616 C614 1.391 . S
C616 C617 1.400 . S
C617 C611 1.491 . S
C617 C616 1.400 . S
C617 C618 1.398 . S
C618 H606 0.950 . S
C618 C617 1.398 . S
C618 C619 1.391 . S
C619 H607 0.950 . S
C619 C615 1.393 . S
C619 C618 1.391 . S
H620 C628 0.950 . S
H621 C633 0.950 . S
H622 C630 0.950 . S
H623 C632 0.950 . S
H624 C634 0.950 . S
H625 C636 0.950 . S
H626 C638 0.950 . S
H627 C639 0.950 . S
C628 H620 0.950 . S
C628 C629 1.386 . S
C628 C630 1.391 . S
C629 C628 1.386 . S
C629 C633 1.393 . S
C630 H622 0.950 . S
C630 C628 1.391 . S
C630 C631 1.400 . S
C631 C630 1.400 . S
C631 C632 1.398 . S
C631 C637 1.491 . S
C632 H623 0.950 . S
C632 C631 1.398 . S
C632 C633 1.391 . S
C633 H621 0.950 . S
C633 C629 1.393 . S
C633 C632 1.391 . S
C634 H624 0.950 . S
C634 C635 1.386 . S
C634 C636 1.391 . S
C635 C634 1.386 . S
C635 C639 1.393 . S
C636 H625 0.950 . S
C636 C634 1.391 . S
C636 C637 1.400 . S
C637 C631 1.491 . S
C637 C636 1.400 . S
C637 C638 1.398 . S
C638 H626 0.950 . S
C638 C637 1.398 . S
C638 C639 1.391 . S
C639 H627 0.950 . S
C639 C635 1.393 . S
C639 C638 1.391 . S
H640 C648 0.950 . S
H641 C653 0.950 . S
H642 C650 0.950 . S
H643 C652 0.950 . S
H644 C654 0.950 . S
H645 C656 0.950 . S
H646 C658 0.950 . S
H647 C659 0.950 . S
C648 H640 0.950 . S
C648 C649 1.386 . S
C648 C650 1.391 . S
C649 C648 1.386 . S
C649 C653 1.393 . S
C650 H642 0.950 . S
C650 C648 1.391 . S
C650 C651 1.400 . S
C651 C650 1.400 . S
C651 C652 1.398 . S
C651 C657 1.491 . S
C652 H643 0.950 . S
C652 C651 1.398 . S
C652 C653 1.391 . S
C653 H641 0.950 . S
C653 C649 1.393 . S
C653 C652 1.391 . S
C654 H644 0.950 . S
C654 C655 1.386 . S
C654 C656 1.391 . S
C655 C654 1.386 . S
C655 C659 1.393 . S
C656 H645 0.950 . S
C656 C654 1.391 . S
C656 C657 1.400 . S
C657 C651 1.491 . S
C657 C656 1.400 . S
C657 C658 1.398 . S
C658 H646 0.950 . S
C658 C657 1.398 . S
C658 C659 1.391 . S
C659 H647 0.950 . S
C659 C655 1.393 . S
C659 C658 1.391 . S
H660 C668 0.950 . S
H661 C673 0.950 . S
H662 C670 0.950 . S
H663 C672 0.950 . S
H664 C674 0.950 . S
H665 C676 0.950 . S
H666 C678 0.950 . S
H667 C679 0.950 . S
C668 H660 0.950 . S
C668 C669 1.386 . S
C668 C670 1.391 . S
C669 C668 1.386 . S
C669 C673 1.393 . S
C670 H662 0.950 . S
C670 C668 1.391 . S
C670 C671 1.400 . S
C671 C670 1.400 . S
C671 C672 1.398 . S
C671 C677 1.491 . S
C672 H663 0.950 . S
C672 C671 1.398 . S
C672 C673 1.391 . S
C673 H661 0.950 . S
C673 C669 1.393 . S
C673 C672 1.391 . S
C674 H664 0.950 . S
C674 C675 1.386 . S
C674 C676 1.391 . S
C675 C674 1.386 . S
C675 C679 1.393 . S
C676 H665 0.950 . S
C676 C674 1.391 . S
C676 C677 1.400 . S
C677 C671 1.491 . S
C677 C676 1.400 . S
C677 C678 1.398 . S
C678 H666 0.950 . S
C678 C677 1.398 . S
C678 C679 1.391 . S
C679 H667 0.950 . S
C679 C675 1.393 . S
C679 C678 1.391 . S
C209 C43 1.499 1_655 S
C215 C92 1.495 . S
C229 C44 1.499 . S
C235 C134 1.499 1_565 S
C249 C41 1.499 . S
C255 C90 1.499 1_655 S
C269 C138 1.499 1_565 S
C275 C47 1.495 . S
C289 C42 1.499 1_655 S
C295 C93 1.503 . S
C309 C45 1.499 . S
C315 C137 1.499 . S
C329 C91 1.499 1_655 S
C335 C40 1.499 . S
C349 C139 1.499 . S
C355 C46 1.503 1_565 S
C369 C188 1.499 1_556 S
C375 C39 1.495 . S
C389 C187 1.499 1_556 S
C395 C34 1.499 . S
C409 C184 1.499 1_556 S
C415 C37 1.499 . S
C429 C38 1.499 . S
C435 C189 1.503 1_556 S
C449 C195 1.499 . S
C455 C94 1.503 . S
C469 C97 1.499 . S
C475 C196 1.499 . S
C489 C95 1.499 . S
C495 C194 1.495 . S
C509 C197 1.499 . S
C515 C96 1.499 . S
C529 C146 1.499 . S
C535 C89 1.499 . S
C549 C84 1.499 . S
C555 C144 1.495 . S
C569 C87 1.499 . S
C575 C145 1.503 . S
C589 C147 1.499 . S
C595 C88 1.499 . S
C609 C192 1.499 . S
C615 C143 1.499 . S
C629 C140 1.499 . S
C635 C190 1.503 . S
C649 C193 1.499 . S
C655 C142 1.499 . S
C669 C141 1.499 . S
C675 C191 1.495 . S
