# Generated by pormake.
# Topology uoc, (4)-cn, num edge types: 1
# Building blocks:
#     Node 0, Type 0, BuildingBlock: NAHDIM_clean_sbu_0, # of connection points: 4
#     Node 1, Type 0, BuildingBlock: NAHDIM_clean_sbu_0, # of connection points: 4
#     Node 2, Type 0, BuildingBlock: NAHDIM_clean_sbu_0, # of connection points: 4
#     Node 3, Type 0, BuildingBlock: NAHDIM_clean_sbu_0, # of connection points: 4
#     Node 4, Type 0, BuildingBlock: NAHDIM_clean_sbu_0, # of connection points: 4
#     Node 5, Type 0, BuildingBlock: NAHDIM_clean_sbu_0, # of connection points: 4
#     Node 6, Type 0, BuildingBlock: NAHDIM_clean_sbu_0, # of connection points: 4
#     Node 7, Type 0, BuildingBlock: NAHDIM_clean_sbu_0, # of connection points: 4
#     Edge 8, Type (0, 0), BuildingBlock: KIFKEQ_clean_linker_1, # of connection points: 2
#     Edge 9, Type (0, 0), BuildingBlock: KIFKEQ_clean_linker_1, # of connection points: 2
#     Edge 10, Type (0, 0), BuildingBlock: KIFKEQ_clean_linker_1, # of connection points: 2
#     Edge 11, Type (0, 0), BuildingBlock: KIFKEQ_clean_linker_1, # of connection points: 2
#     Edge 12, Type (0, 0), BuildingBlock: KIFKEQ_clean_linker_1, # of connection points: 2
#     Edge 13, Type (0, 0), BuildingBlock: KIFKEQ_clean_linker_1, # of connection points: 2
#     Edge 14, Type (0, 0), BuildingBlock: KIFKEQ_clean_linker_1, # of connection points: 2
#     Edge 15, Type (0, 0), BuildingBlock: KIFKEQ_clean_linker_1, # of connection points: 2
#     Edge 16, Type (0, 0), BuildingBlock: KIFKEQ_clean_linker_1, # of connection points: 2
#     Edge 17, Type (0, 0), BuildingBlock: KIFKEQ_clean_linker_1, # of connection points: 2
#     Edge 18, Type (0, 0), BuildingBlock: KIFKEQ_clean_linker_1, # of connection points: 2
#     Edge 19, Type (0, 0), BuildingBlock: KIFKEQ_clean_linker_1, # of connection points: 2
#     Edge 20, Type (0, 0), BuildingBlock: KIFKEQ_clean_linker_1, # of connection points: 2
#     Edge 21, Type (0, 0), BuildingBlock: KIFKEQ_clean_linker_1, # of connection points: 2
#     Edge 22, Type (0, 0), BuildingBlock: KIFKEQ_clean_linker_1, # of connection points: 2
#     Edge 23, Type (0, 0), BuildingBlock: KIFKEQ_clean_linker_1, # of connection points: 2
# Relax obj value: 0.200
# Max RMSD: 0.198
# Mean RMSD: 0.198
data_MOF--net-uoc--node1-NAHDIM_clean_sbu_0--edge1-KIFKEQ_clean_linker_1
_symmetry_space_group_name_H-M    P1
_symmetry_Int_Tables_number       1
_symmetry_cell_setting            triclinic
loop_
_symmetry_equiv_pos_as_xyz
'x, y, z'
_cell_length_a     27.550931
_cell_length_b     27.407411
_cell_length_c     54.352091
_cell_angle_alpha  89.692649
_cell_angle_beta   89.795306
_cell_angle_gamma 94.530085
loop_
_atom_site_label
_atom_site_type_symbol
_atom_site_fract_x
_atom_site_fract_y
_atom_site_fract_z
_atom_type_partial_charge
C0 C 0.10011 0.34211 0.11974 0.0
O1 O 0.13851 0.34513 0.13408 0.0
O2 O 0.18118 0.24642 0.08782 0.0
Zn3 Zn 0.12816 0.2444 0.11345 0.0
O4 O 0.15547 0.24519 0.14757 0.0
C5 C 0.10643 0.14226 0.10738 0.0
O6 O 0.15408 0.14336 0.10899 0.0
O7 O 0.08798 0.30193 0.109 0.0
C8 C 0.19967 0.23981 0.15271 0.0
O9 O 0.23062 0.23266 0.1349 0.0
C10 C 0.19044 0.28214 0.07308 0.0
O11 O 0.16625 0.32133 0.07513 0.0
O12 O 0.08599 0.1821 0.10895 0.0
C13 C 0.8774 0.62237 0.34488 0.0
O14 O 0.88257 0.66924 0.33938 0.0
O15 O 0.78726 0.68879 0.38289 0.0
Zn16 Zn 0.7787 0.64409 0.35386 0.0
O17 O 0.77328 0.68242 0.32238 0.0
C18 C 0.68215 0.61497 0.37097 0.0
O19 O 0.68553 0.66002 0.37929 0.0
O20 O 0.8358 0.60332 0.35142 0.0
C21 C 0.73514 0.67919 0.30919 0.0
O22 O 0.69692 0.65123 0.31658 0.0
C23 C 0.80358 0.67163 0.4027 0.0
O24 O 0.81738 0.62682 0.40281 0.0
O25 O 0.71801 0.59949 0.35941 0.0
C26 C 0.39475 0.18847 0.59482 0.0
O27 O 0.39103 0.21308 0.57419 0.0
O28 O 0.28169 0.25201 0.58656 0.0
Zn29 Zn 0.33094 0.2588 0.61374 0.0
O30 O 0.29798 0.26171 0.64671 0.0
C31 C 0.35187 0.35978 0.60225 0.0
O32 O 0.30409 0.35746 0.60144 0.0
O33 O 0.37262 0.20171 0.61392 0.0
C34 C 0.31474 0.29111 0.66319 0.0
O35 O 0.35308 0.32112 0.65818 0.0
C36 C 0.26863 0.2131 0.57492 0.0
O37 O 0.28543 0.1715 0.58158 0.0
O38 O 0.37272 0.32123 0.60733 0.0
C39 C 0.66125 0.89053 0.83561 0.0
O40 O 0.65438 0.84532 0.8277 0.0
O41 O 0.74572 0.81302 0.87281 0.0
Zn42 Zn 0.75711 0.86096 0.84474 0.0
O43 O 0.76092 0.82793 0.81207 0.0
C44 C 0.8588 0.87903 0.8533 0.0
O45 O 0.85654 0.83104 0.85197 0.0
O46 O 0.70299 0.90596 0.8435 0.0
C47 C 0.74136 0.78558 0.80722 0.0
O48 O 0.7186 0.7596 0.82475 0.0
C49 C 0.71918 0.82409 0.89082 0.0
O50 O 0.69802 0.86535 0.89003 0.0
O51 O 0.82006 0.90071 0.85067 0.0
C52 C 0.5693 0.87882 0.60118 0.0
O53 O 0.61115 0.8781 0.61263 0.0
O54 O 0.6319 0.78095 0.56187 0.0
Zn55 Zn 0.58817 0.77946 0.59152 0.0
O56 O 0.62679 0.77849 0.62285 0.0
C57 C 0.55324 0.68069 0.57953 0.0
O58 O 0.5953 0.68188 0.56799 0.0
O59 O 0.55137 0.84013 0.59073 0.0
C60 C 0.63946 0.73956 0.63295 0.0
O61 O 0.62828 0.69718 0.6224 0.0
C62 C 0.67787 0.77944 0.56237 0.0
O63 O 0.70016 0.77755 0.58363 0.0
O64 O 0.54155 0.71881 0.59064 0.0
C65 C 0.37519 0.0935 0.85833 0.0
O66 O 0.37969 0.14137 0.8559 0.0
O67 O 0.28167 0.14174 0.90314 0.0
Zn68 Zn 0.27739 0.11274 0.86947 0.0
O69 O 0.27948 0.16454 0.84316 0.0
C70 C 0.17804 0.07795 0.87939 0.0
O71 O 0.18066 0.1154 0.89444 0.0
O72 O 0.33408 0.07246 0.86432 0.0
C73 C 0.24192 0.18057 0.83347 0.0
O74 O 0.19857 0.16475 0.84166 0.0
C75 C 0.29888 0.18478 0.90834 0.0
O76 O 0.31618 0.21418 0.89068 0.0
O77 O 0.21525 0.06939 0.86671 0.0
C78 C 0.92089 0.64144 0.08428 0.0
O79 O 0.91155 0.65394 0.06151 0.0
O80 O 0.83462 0.71929 0.06352 0.0
Zn81 Zn 0.86673 0.72445 0.09654 0.0
O82 O 0.81832 0.72495 0.12429 0.0
C83 C 0.90295 0.82334 0.08486 0.0
O84 O 0.86423 0.82131 0.07075 0.0
O85 O 0.90575 0.66654 0.10189 0.0
C86 C 0.80961 0.76356 0.13582 0.0
O87 O 0.83006 0.80597 0.12834 0.0
C88 C 0.78919 0.71453 0.05934 0.0
O89 O 0.75833 0.71197 0.07787 0.0
O90 O 0.91178 0.78593 0.09751 0.0
C91 C 0.16489 0.41723 0.35301 0.0
O92 O 0.15984 0.37034 0.34782 0.0
O93 O 0.24673 0.35692 0.39939 0.0
Zn94 Zn 0.25909 0.39161 0.36727 0.0
O95 O 0.2612 0.34494 0.33895 0.0
C96 C 0.36091 0.41222 0.37553 0.0
O97 O 0.35805 0.36488 0.37991 0.0
O98 O 0.20517 0.43536 0.36158 0.0
C99 C 0.2873 0.35745 0.3203 0.0
O100 O 0.31393 0.39937 0.32061 0.0
C101 C 0.22642 0.31418 0.40286 0.0
O102 O 0.21173 0.28747 0.3839 0.0
O103 O 0.32256 0.43241 0.36976 0.0
H104 H 0.19855 0.3387 0.03151 0.0
H105 H 0.25295 0.21119 0.06563 0.0
H106 H 0.23682 0.31858 -0.00716 0.0
H107 H 0.2926 0.19193 0.02714 0.0
H108 H 0.26978 0.13095 0.94866 0.0
H109 H 0.25625 0.15973 -0.01007 0.0
H110 H 0.30842 0.30641 0.96791 0.0
H111 H 0.32108 0.27753 0.92602 0.0
C112 C 0.21983 0.30714 0.03095 0.0
C113 C 0.22186 0.27591 0.05144 0.0
C114 C 0.24205 0.29575 0.00879 0.0
C115 C 0.26702 0.25314 0.00679 0.0
C116 C 0.27261 0.22437 0.02794 0.0
C117 C 0.25005 0.2355 0.05001 0.0
C118 C 0.27894 0.16928 0.95259 0.0
C119 C 0.296 0.20206 0.93397 0.0
C120 C 0.27165 0.18573 0.9764 0.0
C121 C 0.28133 0.23541 -0.01774 0.0
C122 C 0.30024 0.26799 0.96389 0.0
C123 C 0.30763 0.25143 0.93995 0.0
H124 H 0.66648 0.66633 0.27312 0.0
H125 H 0.80573 0.74318 0.28926 0.0
H126 H 0.67326 0.69487 0.23053 0.0
H127 H 0.81247 0.77136 0.24674 0.0
H128 H 0.80571 0.83367 0.17122 0.0
H129 H 0.77763 0.82155 0.21364 0.0
H130 H 0.72934 0.67153 0.19723 0.0
H131 H 0.75705 0.68356 0.1549 0.0
C132 C 0.69814 0.68995 0.26771 0.0
C133 C 0.7359 0.70197 0.28447 0.0
C134 C 0.70201 0.70617 0.24332 0.0
C135 C 0.74348 0.73508 0.2353 0.0
C136 C 0.77984 0.74951 0.25243 0.0
C137 C 0.77615 0.73302 0.27676 0.0
C138 C 0.78807 0.79844 0.17651 0.0
C139 C 0.78427 0.75932 0.15983 0.0
C140 C 0.77222 0.79149 0.20082 0.0
C141 C 0.75182 0.74549 0.20878 0.0
C142 C 0.74466 0.7075 0.1916 0.0
C143 C 0.76084 0.71431 0.16738 0.0
H144 H 0.21015 0.28357 0.56106 0.0
H145 H 0.27228 0.15356 0.5349 0.0
H146 H 0.18622 0.30288 0.51925 0.0
H147 H 0.2499 0.17377 0.49287 0.0
H148 H 0.19534 0.22097 0.41811 0.0
H149 H 0.19063 0.18987 0.46051 0.0
H150 H 0.24053 0.33357 0.4869 0.0
H151 H 0.24439 0.36446 0.44516 0.0
C152 C 0.21775 0.25858 0.54642 0.0
C153 C 0.24381 0.21758 0.55112 0.0
C154 C 0.20429 0.26974 0.52246 0.0
C155 C 0.21734 0.24056 0.50269 0.0
C156 C 0.23929 0.19699 0.5077 0.0
C157 C 0.25223 0.18546 0.53178 0.0
C158 C 0.2047 0.2459 0.43306 0.0
C159 C 0.22052 0.29509 0.42827 0.0
C160 C 0.20209 0.22809 0.45729 0.0
C161 C 0.21483 0.2593 0.47709 0.0
C162 C 0.22941 0.30869 0.47219 0.0
C163 C 0.23218 0.32633 0.44814 0.0
H164 H 0.68296 0.70984 0.78802 0.0
H165 H 0.79086 0.8263 0.76773 0.0
H166 H 0.66623 0.69417 0.74461 0.0
H167 H 0.77484 0.80993 0.72442 0.0
H168 H 0.67175 0.82139 0.65812 0.0
H169 H 0.70474 0.8262 0.69947 0.0
H170 H 0.69546 0.6683 0.70418 0.0
H171 H 0.66152 0.66338 0.66268 0.0
C172 C 0.70394 0.73128 0.77431 0.0
C173 C 0.7376 0.76986 0.78129 0.0
C174 C 0.69449 0.72217 0.74942 0.0
C175 C 0.71869 0.75136 0.73111 0.0
C176 C 0.75487 0.78754 0.73813 0.0
C177 C 0.76416 0.79676 0.76294 0.0
C178 C 0.67715 0.78763 0.66783 0.0
C179 C 0.66367 0.74201 0.65718 0.0
C180 C 0.69647 0.79038 0.69149 0.0
C181 C 0.70278 0.7476 0.7051 0.0
C182 C 0.69064 0.70189 0.69421 0.0
C183 C 0.67141 0.69911 0.67042 0.0
H184 H 0.33661 0.37528 0.27716 0.0
H185 H 0.22714 0.2752 0.31144 0.0
H186 H 0.31963 0.33667 0.2376 0.0
H187 H 0.2108 0.23596 0.27182 0.0
H188 H 0.1436 0.24756 0.19365 0.0
H189 H 0.17059 0.26598 0.23527 0.0
H190 H 0.32041 0.26298 0.21195 0.0
H191 H 0.29332 0.24512 0.16993 0.0
C192 C 0.3096 0.34439 0.27636 0.0
C193 C 0.28264 0.32883 0.29735 0.0
C194 C 0.30014 0.322 0.25369 0.0
C195 C 0.26352 0.2836 0.25155 0.0
C196 C 0.23872 0.26599 0.27286 0.0
C197 C 0.24823 0.28835 0.29555 0.0
C198 C 0.18231 0.25023 0.19739 0.0
C199 C 0.21635 0.24545 0.17842 0.0
C200 C 0.19777 0.26035 0.22134 0.0
C201 C 0.24765 0.26602 0.22689 0.0
C202 C 0.28173 0.25924 0.20814 0.0
C203 C 0.26621 0.24887 0.18413 0.0
H204 H 0.64345 0.78891 0.51585 0.0
H205 H 0.7733 0.76024 0.55611 0.0
H206 H 0.68409 0.77236 0.47747 0.0
H207 H 0.81448 0.74436 0.51738 0.0
H208 H 0.82651 0.64124 0.44883 0.0
H209 H 0.80447 0.67728 0.4877 0.0
H210 H 0.74874 0.79842 0.44852 0.0
H211 H 0.76983 0.76182 0.40952 0.0
C212 C 0.68099 0.77985 0.51648 0.0
C213 C 0.70495 0.7753 0.53905 0.0
C214 C 0.70449 0.77082 0.49442 0.0
C215 C 0.75252 0.75696 0.49438 0.0
C216 C 0.7773 0.75453 0.51687 0.0
C217 C 0.75377 0.76378 0.53902 0.0
C218 C 0.81041 0.67604 0.44849 0.0
C219 C 0.79906 0.69819 0.42608 0.0
C220 C 0.79808 0.69689 0.47081 0.0
C221 C 0.77424 0.74037 0.47117 0.0
C222 C 0.76627 0.76441 0.4488 0.0
C223 C 0.77854 0.74353 0.42647 0.0
H224 H 0.24004 0.22866 0.68058 0.0
H225 H 0.34567 0.34458 0.70326 0.0
H226 H 0.2169 0.21351 0.72335 0.0
H227 H 0.32183 0.32987 0.74607 0.0
H228 H 0.1703 0.20506 0.80196 0.0
H229 H 0.18127 0.24345 0.76144 0.0
H230 H 0.33662 0.26141 0.77335 0.0
H231 H 0.32571 0.22391 0.81378 0.0
C232 C 0.25762 0.25159 0.69464 0.0
C233 C 0.2953 0.28723 0.68857 0.0
C234 C 0.24407 0.24316 0.71916 0.0
C235 C 0.26788 0.27021 0.7381 0.0
C236 C 0.30336 0.30797 0.73188 0.0
C237 C 0.3169 0.31643 0.70735 0.0
C238 C 0.20666 0.21817 0.79612 0.0
C239 C 0.24722 0.21085 0.81091 0.0
C240 C 0.21293 0.23992 0.77288 0.0
C241 C 0.25982 0.25504 0.76412 0.0
C242 C 0.29996 0.25058 0.77962 0.0
C243 C 0.29374 0.2287 0.80275 0.0
H244 H 0.69561 0.71983 0.04299 0.0
H245 H 0.84393 0.71438 0.01759 0.0
H246 H 0.66968 0.73376 0.00072 0.0
H247 H 0.81841 0.72932 0.9758 0.0
H248 H 0.76404 0.7403 0.90024 0.0
H249 H 0.77284 0.70089 0.94016 0.0
H250 H 0.68165 0.80388 0.97335 0.0
H251 H 0.67177 0.84227 0.93351 0.0
C252 C 0.72253 0.72095 0.02838 0.0
C253 C 0.7719 0.71669 0.03367 0.0
C254 C 0.70772 0.72909 0.0042 0.0
C255 C 0.74201 0.73295 -0.0151 0.0
C256 C 0.79089 0.72595 -0.00988 0.0
C257 C 0.80564 0.71789 0.01419 0.0
C258 C 0.74505 0.75384 0.91597 0.0
C259 C 0.71795 0.79497 0.91381 0.0
C260 C 0.75024 0.73139 0.93885 0.0
C261 C 0.72856 0.74971 0.96 0.0
C262 C 0.69859 0.78858 0.95744 0.0
C263 C 0.69327 0.8109 0.93458 0.0
H264 H 0.13905 0.05115 0.10285 0.0
H265 H 0.00749 0.12728 0.10329 0.0
H266 H 0.0908 0.97389 0.09641 0.0
H267 H 0.95925 0.04987 0.0973 0.0
H268 H 0.89301 0.91026 0.06128 0.0
H269 H 0.94297 0.98704 0.06604 0.0
H270 H 0.03285 0.91791 0.11877 0.0
H271 H 0.98349 0.84088 0.1137 0.0
C272 C 0.09984 0.05141 0.10166 0.0
C273 C 0.07711 0.09537 0.1036 0.0
C274 C 0.07219 0.00708 0.09808 0.0
C275 C 0.02121 0.00575 0.09635 0.0
C276 C 0.99851 0.04975 0.09823 0.0
C277 C 0.02614 0.09408 0.10182 0.0
C278 C 0.92355 0.91135 0.07381 0.0
C279 C 0.93423 0.86947 0.08713 0.0
C280 C 0.95199 0.95545 0.07665 0.0
C281 C 0.99175 0.9586 0.09285 0.0
C282 C 0.00279 0.91654 0.10593 0.0
C283 C 0.97434 0.87245 0.10311 0.0
H284 H 0.16161 0.51394 0.36446 0.0
H285 H 0.07487 0.39025 0.33437 0.0
H286 H 0.09233 0.56354 0.36108 0.0
H287 H 0.00593 0.44021 0.3305 0.0
H288 H 0.8793 0.52582 0.35716 0.0
H289 H 0.94929 0.47699 0.35769 0.0
H290 H 0.04109 0.60164 0.33137 0.0
H291 H 0.97113 0.65096 0.33133 0.0
C292 C 0.1279 0.49745 0.35692 0.0
C293 C 0.12367 0.44806 0.34981 0.0
C294 C 0.08827 0.52598 0.35484 0.0
C295 C 0.04357 0.50578 0.34559 0.0
C296 C 0.03966 0.45665 0.33805 0.0
C297 C 0.07926 0.42809 0.34015 0.0
C298 C 0.91436 0.54283 0.3514 0.0
C299 C 0.91967 0.59234 0.34427 0.0
C300 C 0.95444 0.51471 0.35155 0.0
C301 C 0.00077 0.53541 0.34455 0.0
C302 C 0.00599 0.58479 0.33715 0.0
C303 C 0.96586 0.61297 0.33701 0.0
H304 H 0.45098 0.37741 0.6028 0.0
H305 H 0.31823 0.44867 0.59176 0.0
H306 H 0.49842 0.45535 0.59636 0.0
H307 H 0.36577 0.52642 0.58492 0.0
H308 H 0.46596 0.66413 0.60357 0.0
H309 H 0.41694 0.58657 0.6083 0.0
H310 H 0.52024 0.51512 0.56382 0.0
H311 H 0.56969 0.59239 0.55941 0.0
C312 C 0.43192 0.40963 0.59887 0.0
C313 C 0.38082 0.40683 0.59784 0.0
C314 C 0.45913 0.45425 0.59503 0.0
C315 C 0.43585 0.49708 0.59011 0.0
C316 C 0.38476 0.49421 0.58896 0.0
C317 C 0.35755 0.44957 0.59276 0.0
C318 C 0.47808 0.63194 0.59469 0.0
C319 C 0.52182 0.63443 0.58118 0.0
C320 C 0.44987 0.58753 0.59731 0.0
C321 C 0.46481 0.54464 0.58652 0.0
C322 C 0.50812 0.54735 0.57266 0.0
C323 C 0.53628 0.59174 0.57001 0.0
H324 H 0.66124 0.98242 0.85488 0.0
H325 H 0.56817 0.86945 0.81958 0.0
H326 H 0.59217 0.0319 0.8595 0.0
H327 H 0.49933 0.91947 0.82372 0.0
H328 H 0.37873 0.99463 0.86334 0.0
H329 H 0.4483 0.94677 0.85662 0.0
H330 H 0.53623 0.07843 0.83623 0.0
H331 H 0.46688 0.12655 0.84347 0.0
C332 C 0.62616 0.96836 0.84786 0.0
C333 C 0.62012 0.9219 0.83697 0.0
C334 C 0.58662 0.99685 0.85041 0.0
C335 C 0.54022 0.97953 0.84207 0.0
C336 C 0.53445 0.9335 0.83069 0.0
C337 C 0.57397 0.90498 0.82819 0.0
C338 C 0.41288 0.0134 0.85741 0.0
C339 C 0.41731 0.06442 0.854 0.0
C340 C 0.45267 0.9859 0.85339 0.0
C341 C 0.49776 0.00878 0.84582 0.0
C342 C 0.50213 0.05979 0.84232 0.0
C343 C 0.46233 0.08733 0.84637 0.0
H344 H 0.95351 0.57633 0.0513 0.0
H345 H 0.94885 0.60802 0.12907 0.0
H346 H 0.9968 0.50395 0.06009 0.0
H347 H 0.9915 0.53537 0.13781 0.0
H348 H 0.11523 0.43254 0.14049 0.0
H349 H 0.07241 0.50515 0.13174 0.0
H350 H 0.98083 0.42283 0.07975 0.0
H351 H 0.02402 0.35031 0.08822 0.0
C352 C 0.96168 0.56787 0.07026 0.0
C353 C 0.94775 0.59794 0.08948 0.0
C354 C 0.9862 0.52625 0.07529 0.0
C355 C 0.99746 0.51395 0.09964 0.0
C356 C 0.98379 0.54419 0.11884 0.0
C357 C 0.95914 0.58568 0.11383 0.0
C358 C 0.08589 0.42987 0.12723 0.0
C359 C 0.07304 0.38566 0.11505 0.0
C360 C 0.06124 0.47142 0.12231 0.0
C361 C 0.02333 0.4697 0.10503 0.0
C362 C 0.01031 0.42544 0.09293 0.0
C363 C 0.03484 0.38382 0.09792 0.0
H364 H 0.45025 0.38013 0.38565 0.0
H365 H 0.37877 0.51046 0.36758 0.0
H366 H 0.52859 0.42833 0.38637 0.0
H367 H 0.45705 0.55831 0.36792 0.0
H368 H 0.59833 0.63796 0.39355 0.0
H369 H 0.52124 0.58811 0.39635 0.0
H370 H 0.58443 0.47205 0.35692 0.0
H371 H 0.66182 0.52153 0.35444 0.0
C372 C 0.45122 0.41903 0.38185 0.0
C373 C 0.40829 0.44145 0.37654 0.0
C374 C 0.49612 0.44657 0.38214 0.0
C375 C 0.49898 0.4971 0.3772 0.0
C376 C 0.45598 0.51956 0.37213 0.0
C377 C 0.41114 0.49205 0.37179 0.0
C378 C 0.5959 0.6017 0.3856 0.0
C379 C 0.63614 0.58379 0.37368 0.0
C380 C 0.55164 0.57326 0.3871 0.0
C381 C 0.54669 0.52626 0.37674 0.0
C382 C 0.58724 0.50793 0.36529 0.0
C383 C 0.6315 0.53641 0.36376 0.0
H384 H 0.4221 0.13859 0.63544 0.0
H385 H 0.42869 0.13786 0.55598 0.0
H386 H 0.4647 0.06388 0.63677 0.0
H387 H 0.47127 0.06295 0.55739 0.0
H388 H 0.49202 0.89862 0.57231 0.0
H389 H 0.45091 0.97439 0.57052 0.0
H390 H 0.54812 0.03762 0.62597 0.0
H391 H 0.58934 0.96208 0.62778 0.0
C392 C 0.43276 0.12257 0.61826 0.0
C393 C 0.42204 0.14414 0.5956 0.0
C394 C 0.45732 0.07993 0.61904 0.0
C395 C 0.47119 0.05763 0.59719 0.0
C396 C 0.4606 0.07918 0.57452 0.0
C397 C 0.43653 0.12221 0.57373 0.0
C398 C 0.50458 0.92867 0.58413 0.0
C399 C 0.5439 0.92435 0.6002 0.0
C400 C 0.48125 0.9721 0.58298 0.0
C401 C 0.49639 0.01184 0.59809 0.0
C402 C 0.53548 0.00742 0.61425 0.0
C403 C 0.55918 0.96424 0.6152 0.0
H404 H 0.87532 0.97815 0.85798 0.0
H405 H 0.94852 0.84432 0.8587 0.0
H406 H 0.95281 0.02517 0.86482 0.0
H407 H 0.02596 0.89144 0.86593 0.0
H408 H 0.16008 0.99839 0.84969 0.0
H409 H 0.083 0.94982 0.8439 0.0
H410 H 0.01446 0.03935 0.89693 0.0
H411 H 0.09128 0.08844 0.90246 0.0
C412 C 0.9079 0.95872 0.85969 0.0
C413 C 0.90577 0.90749 0.85775 0.0
C414 C 0.95226 0.98567 0.86377 0.0
C415 C 0.99548 0.962 0.86595 0.0
C416 C 0.99334 0.91076 0.86406 0.0
C417 C 0.94894 0.88376 0.86004 0.0
C418 C 0.12861 0.00765 0.86017 0.0
C419 C 0.13177 0.04738 0.87648 0.0
C420 C 0.08452 0.97964 0.85694 0.0
C421 C 0.04264 0.99082 0.86992 0.0
C422 C 0.04595 0.03024 0.88642 0.0
C423 C 0.09005 0.05819 0.88969 0.0
loop_
_geom_bond_atom_site_label_1
_geom_bond_atom_site_label_2
_geom_bond_distance
_geom_bond_site_symmetry_2
_ccdc_geom_bond_type
C0 O1 1.160 . S
C0 O7 1.185 . S
O1 C0 1.160 . S
O2 Zn3 1.899 . S
O2 C10 1.284 . S
Zn3 O2 1.899 . S
Zn3 O4 2.032 . S
Zn3 O7 2.086 . S
Zn3 O12 1.977 . S
O4 Zn3 2.032 . S
O4 C8 1.278 . S
C5 O6 1.203 . S
C5 O12 1.267 . S
O6 C5 1.203 . S
O7 C0 1.185 . S
O7 Zn3 2.086 . S
C8 O4 1.278 . S
C8 O9 1.211 . S
O9 C8 1.211 . S
C10 O2 1.284 . S
C10 O11 1.273 . S
O11 C10 1.273 . S
O12 Zn3 1.977 . S
O12 C5 1.267 . S
C13 O14 1.160 . S
C13 O20 1.185 . S
O14 C13 1.160 . S
O15 Zn16 1.899 . S
O15 C23 1.284 . S
Zn16 O15 1.899 . S
Zn16 O17 2.032 . S
Zn16 O20 2.086 . S
Zn16 O25 1.977 . S
O17 Zn16 2.032 . S
O17 C21 1.278 . S
C18 O19 1.203 . S
C18 O25 1.267 . S
O19 C18 1.203 . S
O20 C13 1.185 . S
O20 Zn16 2.086 . S
C21 O17 1.278 . S
C21 O22 1.211 . S
O22 C21 1.211 . S
C23 O15 1.284 . S
C23 O24 1.273 . S
O24 C23 1.273 . S
O25 Zn16 1.977 . S
O25 C18 1.267 . S
C26 O27 1.160 . S
C26 O33 1.185 . S
O27 C26 1.160 . S
O28 Zn29 1.899 . S
O28 C36 1.284 . S
Zn29 O28 1.899 . S
Zn29 O30 2.032 . S
Zn29 O33 2.086 . S
Zn29 O38 1.977 . S
O30 Zn29 2.032 . S
O30 C34 1.278 . S
C31 O32 1.203 . S
C31 O38 1.267 . S
O32 C31 1.203 . S
O33 C26 1.185 . S
O33 Zn29 2.086 . S
C34 O30 1.278 . S
C34 O35 1.211 . S
O35 C34 1.211 . S
C36 O28 1.284 . S
C36 O37 1.273 . S
O37 C36 1.273 . S
O38 Zn29 1.977 . S
O38 C31 1.267 . S
C39 O40 1.160 . S
C39 O46 1.185 . S
O40 C39 1.160 . S
O41 Zn42 1.899 . S
O41 C49 1.284 . S
Zn42 O41 1.899 . S
Zn42 O43 2.032 . S
Zn42 O46 2.086 . S
Zn42 O51 1.977 . S
O43 Zn42 2.032 . S
O43 C47 1.278 . S
C44 O45 1.203 . S
C44 O51 1.267 . S
O45 C44 1.203 . S
O46 C39 1.185 . S
O46 Zn42 2.086 . S
C47 O43 1.278 . S
C47 O48 1.211 . S
O48 C47 1.211 . S
C49 O41 1.284 . S
C49 O50 1.273 . S
O50 C49 1.273 . S
O51 Zn42 1.977 . S
O51 C44 1.267 . S
C52 O53 1.160 . S
C52 O59 1.185 . S
O53 C52 1.160 . S
O54 Zn55 1.899 . S
O54 C62 1.284 . S
Zn55 O54 1.899 . S
Zn55 O56 2.032 . S
Zn55 O59 2.086 . S
Zn55 O64 1.977 . S
O56 Zn55 2.032 . S
O56 C60 1.278 . S
C57 O58 1.203 . S
C57 O64 1.267 . S
O58 C57 1.203 . S
O59 C52 1.185 . S
O59 Zn55 2.086 . S
C60 O56 1.278 . S
C60 O61 1.211 . S
O61 C60 1.211 . S
C62 O54 1.284 . S
C62 O63 1.273 . S
O63 C62 1.273 . S
O64 Zn55 1.977 . S
O64 C57 1.267 . S
C65 O66 1.160 . S
C65 O72 1.185 . S
O66 C65 1.160 . S
O67 Zn68 1.899 . S
O67 C75 1.284 . S
Zn68 O67 1.899 . S
Zn68 O69 2.032 . S
Zn68 O72 2.086 . S
Zn68 O77 1.977 . S
O69 Zn68 2.032 . S
O69 C73 1.278 . S
C70 O71 1.203 . S
C70 O77 1.267 . S
O71 C70 1.203 . S
O72 C65 1.185 . S
O72 Zn68 2.086 . S
C73 O69 1.278 . S
C73 O74 1.211 . S
O74 C73 1.211 . S
C75 O67 1.284 . S
C75 O76 1.273 . S
O76 C75 1.273 . S
O77 Zn68 1.977 . S
O77 C70 1.267 . S
C78 O79 1.160 . S
C78 O85 1.185 . S
O79 C78 1.160 . S
O80 Zn81 1.899 . S
O80 C88 1.284 . S
Zn81 O80 1.899 . S
Zn81 O82 2.032 . S
Zn81 O85 2.086 . S
Zn81 O90 1.977 . S
O82 Zn81 2.032 . S
O82 C86 1.278 . S
C83 O84 1.203 . S
C83 O90 1.267 . S
O84 C83 1.203 . S
O85 C78 1.185 . S
O85 Zn81 2.086 . S
C86 O82 1.278 . S
C86 O87 1.211 . S
O87 C86 1.211 . S
C88 O80 1.284 . S
C88 O89 1.273 . S
O89 C88 1.273 . S
O90 Zn81 1.977 . S
O90 C83 1.267 . S
C91 O92 1.160 . S
C91 O98 1.185 . S
O92 C91 1.160 . S
O93 Zn94 1.899 . S
O93 C101 1.284 . S
Zn94 O93 1.899 . S
Zn94 O95 2.032 . S
Zn94 O98 2.086 . S
Zn94 O103 1.977 . S
O95 Zn94 2.032 . S
O95 C99 1.278 . S
C96 O97 1.203 . S
C96 O103 1.267 . S
O97 C96 1.203 . S
O98 C91 1.185 . S
O98 Zn94 2.086 . S
C99 O95 1.278 . S
C99 O100 1.211 . S
O100 C99 1.211 . S
C101 O93 1.284 . S
C101 O102 1.273 . S
O102 C101 1.273 . S
O103 Zn94 1.977 . S
O103 C96 1.267 . S
H104 C112 0.950 . S
H105 C117 0.950 . S
H106 C114 0.950 . S
H107 C116 0.950 . S
H108 C118 0.950 . S
H109 C120 0.950 . S
H110 C122 0.950 . S
H111 C123 0.950 . S
C112 H104 0.950 . S
C112 C113 1.386 . S
C112 C114 1.391 . S
C113 C112 1.386 . S
C113 C117 1.393 . S
C114 H106 0.950 . S
C114 C112 1.391 . S
C114 C115 1.400 . S
C115 C114 1.400 . S
C115 C116 1.398 . S
C115 C121 1.491 1_554 S
C116 H107 0.950 . S
C116 C115 1.398 . S
C116 C117 1.391 . S
C117 H105 0.950 . S
C117 C113 1.393 . S
C117 C116 1.391 . S
C118 H108 0.950 . S
C118 C119 1.386 . S
C118 C120 1.391 . S
C119 C118 1.386 . S
C119 C123 1.393 . S
C120 H109 0.950 . S
C120 C118 1.391 . S
C120 C121 1.400 . S
C121 C115 1.491 1_556 S
C121 C120 1.400 . S
C121 C122 1.398 . S
C122 H110 0.950 . S
C122 C121 1.398 . S
C122 C123 1.391 . S
C123 H111 0.950 . S
C123 C119 1.393 . S
C123 C122 1.391 . S
H124 C132 0.950 . S
H125 C137 0.950 . S
H126 C134 0.950 . S
H127 C136 0.950 . S
H128 C138 0.950 . S
H129 C140 0.950 . S
H130 C142 0.950 . S
H131 C143 0.950 . S
C132 H124 0.950 . S
C132 C133 1.386 . S
C132 C134 1.391 . S
C133 C132 1.386 . S
C133 C137 1.393 . S
C134 H126 0.950 . S
C134 C132 1.391 . S
C134 C135 1.400 . S
C135 C134 1.400 . S
C135 C136 1.398 . S
C135 C141 1.491 . S
C136 H127 0.950 . S
C136 C135 1.398 . S
C136 C137 1.391 . S
C137 H125 0.950 . S
C137 C133 1.393 . S
C137 C136 1.391 . S
C138 H128 0.950 . S
C138 C139 1.386 . S
C138 C140 1.391 . S
C139 C138 1.386 . S
C139 C143 1.393 . S
C140 H129 0.950 . S
C140 C138 1.391 . S
C140 C141 1.400 . S
C141 C135 1.491 . S
C141 C140 1.400 . S
C141 C142 1.398 . S
C142 H130 0.950 . S
C142 C141 1.398 . S
C142 C143 1.391 . S
C143 H131 0.950 . S
C143 C139 1.393 . S
C143 C142 1.391 . S
H144 C152 0.950 . S
H145 C157 0.950 . S
H146 C154 0.950 . S
H147 C156 0.950 . S
H148 C158 0.950 . S
H149 C160 0.950 . S
H150 C162 0.950 . S
H151 C163 0.950 . S
C152 H144 0.950 . S
C152 C153 1.386 . S
C152 C154 1.391 . S
C153 C152 1.386 . S
C153 C157 1.393 . S
C154 H146 0.950 . S
C154 C152 1.391 . S
C154 C155 1.400 . S
C155 C154 1.400 . S
C155 C156 1.398 . S
C155 C161 1.491 . S
C156 H147 0.950 . S
C156 C155 1.398 . S
C156 C157 1.391 . S
C157 H145 0.950 . S
C157 C153 1.393 . S
C157 C156 1.391 . S
C158 H148 0.950 . S
C158 C159 1.386 . S
C158 C160 1.391 . S
C159 C158 1.386 . S
C159 C163 1.393 . S
C160 H149 0.950 . S
C160 C158 1.391 . S
C160 C161 1.400 . S
C161 C155 1.491 . S
C161 C160 1.400 . S
C161 C162 1.398 . S
C162 H150 0.950 . S
C162 C161 1.398 . S
C162 C163 1.391 . S
C163 H151 0.950 . S
C163 C159 1.393 . S
C163 C162 1.391 . S
H164 C172 0.950 . S
H165 C177 0.950 . S
H166 C174 0.950 . S
H167 C176 0.950 . S
H168 C178 0.950 . S
H169 C180 0.950 . S
H170 C182 0.950 . S
H171 C183 0.950 . S
C172 H164 0.950 . S
C172 C173 1.386 . S
C172 C174 1.391 . S
C173 C172 1.386 . S
C173 C177 1.393 . S
C174 H166 0.950 . S
C174 C172 1.391 . S
C174 C175 1.400 . S
C175 C174 1.400 . S
C175 C176 1.398 . S
C175 C181 1.491 . S
C176 H167 0.950 . S
C176 C175 1.398 . S
C176 C177 1.391 . S
C177 H165 0.950 . S
C177 C173 1.393 . S
C177 C176 1.391 . S
C178 H168 0.950 . S
C178 C179 1.386 . S
C178 C180 1.391 . S
C179 C178 1.386 . S
C179 C183 1.393 . S
C180 H169 0.950 . S
C180 C178 1.391 . S
C180 C181 1.400 . S
C181 C175 1.491 . S
C181 C180 1.400 . S
C181 C182 1.398 . S
C182 H170 0.950 . S
C182 C181 1.398 . S
C182 C183 1.391 . S
C183 H171 0.950 . S
C183 C179 1.393 . S
C183 C182 1.391 . S
H184 C192 0.950 . S
H185 C197 0.950 . S
H186 C194 0.950 . S
H187 C196 0.950 . S
H188 C198 0.950 . S
H189 C200 0.950 . S
H190 C202 0.950 . S
H191 C203 0.950 . S
C192 H184 0.950 . S
C192 C193 1.386 . S
C192 C194 1.391 . S
C193 C192 1.386 . S
C193 C197 1.393 . S
C194 H186 0.950 . S
C194 C192 1.391 . S
C194 C195 1.400 . S
C195 C194 1.400 . S
C195 C196 1.398 . S
C195 C201 1.491 . S
C196 H187 0.950 . S
C196 C195 1.398 . S
C196 C197 1.391 . S
C197 H185 0.950 . S
C197 C193 1.393 . S
C197 C196 1.391 . S
C198 H188 0.950 . S
C198 C199 1.386 . S
C198 C200 1.391 . S
C199 C198 1.386 . S
C199 C203 1.393 . S
C200 H189 0.950 . S
C200 C198 1.391 . S
C200 C201 1.400 . S
C201 C195 1.491 . S
C201 C200 1.400 . S
C201 C202 1.398 . S
C202 H190 0.950 . S
C202 C201 1.398 . S
C202 C203 1.391 . S
C203 H191 0.950 . S
C203 C199 1.393 . S
C203 C202 1.391 . S
H204 C212 0.950 . S
H205 C217 0.950 . S
H206 C214 0.950 . S
H207 C216 0.950 . S
H208 C218 0.950 . S
H209 C220 0.950 . S
H210 C222 0.950 . S
H211 C223 0.950 . S
C212 H204 0.950 . S
C212 C213 1.386 . S
C212 C214 1.391 . S
C213 C212 1.386 . S
C213 C217 1.393 . S
C214 H206 0.950 . S
C214 C212 1.391 . S
C214 C215 1.400 . S
C215 C214 1.400 . S
C215 C216 1.398 . S
C215 C221 1.491 . S
C216 H207 0.950 . S
C216 C215 1.398 . S
C216 C217 1.391 . S
C217 H205 0.950 . S
C217 C213 1.393 . S
C217 C216 1.391 . S
C218 H208 0.950 . S
C218 C219 1.386 . S
C218 C220 1.391 . S
C219 C218 1.386 . S
C219 C223 1.393 . S
C220 H209 0.950 . S
C220 C218 1.391 . S
C220 C221 1.400 . S
C221 C215 1.491 . S
C221 C220 1.400 . S
C221 C222 1.398 . S
C222 H210 0.950 . S
C222 C221 1.398 . S
C222 C223 1.391 . S
C223 H211 0.950 . S
C223 C219 1.393 . S
C223 C222 1.391 . S
H224 C232 0.950 . S
H225 C237 0.950 . S
H226 C234 0.950 . S
H227 C236 0.950 . S
H228 C238 0.950 . S
H229 C240 0.950 . S
H230 C242 0.950 . S
H231 C243 0.950 . S
C232 H224 0.950 . S
C232 C233 1.386 . S
C232 C234 1.391 . S
C233 C232 1.386 . S
C233 C237 1.393 . S
C234 H226 0.950 . S
C234 C232 1.391 . S
C234 C235 1.400 . S
C235 C234 1.400 . S
C235 C236 1.398 . S
C235 C241 1.491 . S
C236 H227 0.950 . S
C236 C235 1.398 . S
C236 C237 1.391 . S
C237 H225 0.950 . S
C237 C233 1.393 . S
C237 C236 1.391 . S
C238 H228 0.950 . S
C238 C239 1.386 . S
C238 C240 1.391 . S
C239 C238 1.386 . S
C239 C243 1.393 . S
C240 H229 0.950 . S
C240 C238 1.391 . S
C240 C241 1.400 . S
C241 C235 1.491 . S
C241 C240 1.400 . S
C241 C242 1.398 . S
C242 H230 0.950 . S
C242 C241 1.398 . S
C242 C243 1.391 . S
C243 H231 0.950 . S
C243 C239 1.393 . S
C243 C242 1.391 . S
H244 C252 0.950 . S
H245 C257 0.950 . S
H246 C254 0.950 . S
H247 C256 0.950 . S
H248 C258 0.950 . S
H249 C260 0.950 . S
H250 C262 0.950 . S
H251 C263 0.950 . S
C252 H244 0.950 . S
C252 C253 1.386 . S
C252 C254 1.391 . S
C253 C252 1.386 . S
C253 C257 1.393 . S
C254 H246 0.950 . S
C254 C252 1.391 . S
C254 C255 1.400 . S
C255 C254 1.400 . S
C255 C256 1.398 . S
C255 C261 1.491 1_554 S
C256 H247 0.950 . S
C256 C255 1.398 . S
C256 C257 1.391 . S
C257 H245 0.950 . S
C257 C253 1.393 . S
C257 C256 1.391 . S
C258 H248 0.950 . S
C258 C259 1.386 . S
C258 C260 1.391 . S
C259 C258 1.386 . S
C259 C263 1.393 . S
C260 H249 0.950 . S
C260 C258 1.391 . S
C260 C261 1.400 . S
C261 C255 1.491 1_556 S
C261 C260 1.400 . S
C261 C262 1.398 . S
C262 H250 0.950 . S
C262 C261 1.398 . S
C262 C263 1.391 . S
C263 H251 0.950 . S
C263 C259 1.393 . S
C263 C262 1.391 . S
H264 C272 0.950 . S
H265 C277 0.950 . S
H266 C274 0.950 . S
H267 C276 0.950 1_655 S
H268 C278 0.950 . S
H269 C280 0.950 . S
H270 C282 0.950 1_455 S
H271 C283 0.950 . S
C272 H264 0.950 . S
C272 C273 1.386 . S
C272 C274 1.391 . S
C273 C272 1.386 . S
C273 C277 1.393 . S
C274 H266 0.950 . S
C274 C272 1.391 . S
C274 C275 1.400 . S
C275 C274 1.400 . S
C275 C276 1.398 . S
C275 C281 1.491 1_445 S
C276 H267 0.950 1_455 S
C276 C275 1.398 . S
C276 C277 1.391 . S
C277 H265 0.950 . S
C277 C273 1.393 . S
C277 C276 1.391 . S
C278 H268 0.950 . S
C278 C279 1.386 . S
C278 C280 1.391 . S
C279 C278 1.386 . S
C279 C283 1.393 . S
C280 H269 0.950 . S
C280 C278 1.391 . S
C280 C281 1.400 . S
C281 C275 1.491 1_665 S
C281 C280 1.400 . S
C281 C282 1.398 . S
C282 H270 0.950 1_655 S
C282 C281 1.398 . S
C282 C283 1.391 . S
C283 H271 0.950 . S
C283 C279 1.393 . S
C283 C282 1.391 . S
H284 C292 0.950 . S
H285 C297 0.950 . S
H286 C294 0.950 . S
H287 C296 0.950 . S
H288 C298 0.950 . S
H289 C300 0.950 . S
H290 C302 0.950 . S
H291 C303 0.950 . S
C292 H284 0.950 . S
C292 C293 1.386 . S
C292 C294 1.391 . S
C293 C292 1.386 . S
C293 C297 1.393 . S
C294 H286 0.950 . S
C294 C292 1.391 . S
C294 C295 1.400 . S
C295 C294 1.400 . S
C295 C296 1.398 . S
C295 C301 1.491 1_455 S
C296 H287 0.950 . S
C296 C295 1.398 . S
C296 C297 1.391 . S
C297 H285 0.950 . S
C297 C293 1.393 . S
C297 C296 1.391 . S
C298 H288 0.950 . S
C298 C299 1.386 . S
C298 C300 1.391 . S
C299 C298 1.386 . S
C299 C303 1.393 . S
C300 H289 0.950 . S
C300 C298 1.391 . S
C300 C301 1.400 . S
C301 C295 1.491 1_655 S
C301 C300 1.400 . S
C301 C302 1.398 . S
C302 H290 0.950 . S
C302 C301 1.398 . S
C302 C303 1.391 . S
C303 H291 0.950 . S
C303 C299 1.393 . S
C303 C302 1.391 . S
H304 C312 0.950 . S
H305 C317 0.950 . S
H306 C314 0.950 . S
H307 C316 0.950 . S
H308 C318 0.950 . S
H309 C320 0.950 . S
H310 C322 0.950 . S
H311 C323 0.950 . S
C312 H304 0.950 . S
C312 C313 1.386 . S
C312 C314 1.391 . S
C313 C312 1.386 . S
C313 C317 1.393 . S
C314 H306 0.950 . S
C314 C312 1.391 . S
C314 C315 1.400 . S
C315 C314 1.400 . S
C315 C316 1.398 . S
C315 C321 1.491 . S
C316 H307 0.950 . S
C316 C315 1.398 . S
C316 C317 1.391 . S
C317 H305 0.950 . S
C317 C313 1.393 . S
C317 C316 1.391 . S
C318 H308 0.950 . S
C318 C319 1.386 . S
C318 C320 1.391 . S
C319 C318 1.386 . S
C319 C323 1.393 . S
C320 H309 0.950 . S
C320 C318 1.391 . S
C320 C321 1.400 . S
C321 C315 1.491 . S
C321 C320 1.400 . S
C321 C322 1.398 . S
C322 H310 0.950 . S
C322 C321 1.398 . S
C322 C323 1.391 . S
C323 H311 0.950 . S
C323 C319 1.393 . S
C323 C322 1.391 . S
H324 C332 0.950 . S
H325 C337 0.950 . S
H326 C334 0.950 . S
H327 C336 0.950 . S
H328 C338 0.950 . S
H329 C340 0.950 . S
H330 C342 0.950 . S
H331 C343 0.950 . S
C332 H324 0.950 . S
C332 C333 1.386 . S
C332 C334 1.391 . S
C333 C332 1.386 . S
C333 C337 1.393 . S
C334 H326 0.950 . S
C334 C332 1.391 . S
C334 C335 1.400 . S
C335 C334 1.400 . S
C335 C336 1.398 . S
C335 C341 1.491 1_565 S
C336 H327 0.950 . S
C336 C335 1.398 . S
C336 C337 1.391 . S
C337 H325 0.950 . S
C337 C333 1.393 . S
C337 C336 1.391 . S
C338 H328 0.950 . S
C338 C339 1.386 . S
C338 C340 1.391 . S
C339 C338 1.386 . S
C339 C343 1.393 . S
C340 H329 0.950 . S
C340 C338 1.391 . S
C340 C341 1.400 . S
C341 C335 1.491 1_545 S
C341 C340 1.400 . S
C341 C342 1.398 . S
C342 H330 0.950 . S
C342 C341 1.398 . S
C342 C343 1.391 . S
C343 H331 0.950 . S
C343 C339 1.393 . S
C343 C342 1.391 . S
H344 C352 0.950 . S
H345 C357 0.957 . S
H346 C354 0.950 . S
H347 C356 0.950 . S
H348 C358 0.950 . S
H349 C360 0.950 . S
H350 C362 0.950 . S
H351 C363 0.957 . S
C352 H344 0.950 . S
C352 C353 1.386 . S
C352 C354 1.391 . S
C353 C352 1.386 . S
C353 C357 1.393 . S
C354 H346 0.950 . S
C354 C352 1.391 . S
C354 C355 1.400 . S
C355 C354 1.400 . S
C355 C356 1.398 1_655 S
C355 C361 1.491 1_655 S
C356 H347 0.950 . S
C356 C355 1.398 1_455 S
C356 C357 1.391 1_455 S
C357 H345 0.957 . S
C357 C353 1.393 . S
C357 C356 1.391 1_655 S
C358 H348 0.950 . S
C358 C359 1.386 . S
C358 C360 1.391 . S
C359 C358 1.386 . S
C359 C363 1.393 . S
C360 H349 0.950 . S
C360 C358 1.391 . S
C360 C361 1.400 . S
C361 C355 1.491 1_455 S
C361 C360 1.400 . S
C361 C362 1.398 1_455 S
C362 H350 0.950 . S
C362 C361 1.398 1_655 S
C362 C363 1.391 1_655 S
C363 H351 0.957 . S
C363 C359 1.393 . S
C363 C362 1.391 1_455 S
H364 C372 0.950 . S
H365 C377 0.950 . S
H366 C374 0.950 . S
H367 C376 0.950 . S
H368 C378 0.950 . S
H369 C380 0.950 . S
H370 C382 0.950 . S
H371 C383 0.950 . S
C372 H364 0.950 . S
C372 C373 1.386 . S
C372 C374 1.391 . S
C373 C372 1.386 . S
C373 C377 1.393 . S
C374 H366 0.950 . S
C374 C372 1.391 . S
C374 C375 1.400 . S
C375 C374 1.400 . S
C375 C376 1.398 . S
C375 C381 1.491 . S
C376 H367 0.950 . S
C376 C375 1.398 . S
C376 C377 1.391 . S
C377 H365 0.950 . S
C377 C373 1.393 . S
C377 C376 1.391 . S
C378 H368 0.950 . S
C378 C379 1.386 . S
C378 C380 1.391 . S
C379 C378 1.386 . S
C379 C383 1.393 . S
C380 H369 0.950 . S
C380 C378 1.391 . S
C380 C381 1.400 . S
C381 C375 1.491 . S
C381 C380 1.400 . S
C381 C382 1.398 . S
C382 H370 0.950 . S
C382 C381 1.398 . S
C382 C383 1.391 . S
C383 H371 0.950 . S
C383 C379 1.393 . S
C383 C382 1.391 . S
H384 C392 0.950 . S
H385 C397 0.950 . S
H386 C394 0.950 . S
H387 C396 0.950 1_565 S
H388 C398 0.950 . S
H389 C400 0.950 . S
H390 C402 0.950 1_545 S
H391 C403 0.950 . S
C392 H384 0.950 . S
C392 C393 1.386 . S
C392 C394 1.391 . S
C393 C392 1.386 . S
C393 C397 1.393 . S
C394 H386 0.950 . S
C394 C392 1.391 . S
C394 C395 1.400 . S
C395 C394 1.400 . S
C395 C396 1.398 . S
C395 C401 1.491 1_545 S
C396 H387 0.950 1_545 S
C396 C395 1.398 . S
C396 C397 1.391 . S
C397 H385 0.950 . S
C397 C393 1.393 . S
C397 C396 1.391 . S
C398 H388 0.950 . S
C398 C399 1.386 . S
C398 C400 1.391 . S
C399 C398 1.386 . S
C399 C403 1.393 . S
C400 H389 0.950 . S
C400 C398 1.391 . S
C400 C401 1.400 . S
C401 C395 1.491 1_565 S
C401 C400 1.400 . S
C401 C402 1.398 . S
C402 H390 0.950 1_565 S
C402 C401 1.398 . S
C402 C403 1.391 . S
C403 H391 0.950 . S
C403 C399 1.393 . S
C403 C402 1.391 . S
H404 C412 0.950 . S
H405 C417 0.950 . S
H406 C414 0.950 1_545 S
H407 C416 0.950 . S
H408 C418 0.950 . S
H409 C420 0.950 1_565 S
H410 C422 0.950 . S
H411 C423 0.950 . S
C412 H404 0.950 . S
C412 C413 1.386 . S
C412 C414 1.391 . S
C413 C412 1.386 . S
C413 C417 1.393 . S
C414 H406 0.950 1_565 S
C414 C412 1.391 . S
C414 C415 1.400 . S
C415 C414 1.400 . S
C415 C416 1.398 . S
C415 C421 1.491 1_665 S
C416 H407 0.950 . S
C416 C415 1.398 . S
C416 C417 1.391 . S
C417 H405 0.950 . S
C417 C413 1.393 . S
C417 C416 1.391 . S
C418 H408 0.950 . S
C418 C419 1.386 . S
C418 C420 1.391 . S
C419 C418 1.386 . S
C419 C423 1.393 . S
C420 H409 0.950 1_545 S
C420 C418 1.391 . S
C420 C421 1.400 . S
C421 C415 1.491 1_445 S
C421 C420 1.400 . S
C421 C422 1.398 . S
C422 H410 0.950 . S
C422 C421 1.398 . S
C422 C423 1.391 . S
C423 H411 0.950 . S
C423 C419 1.393 . S
C423 C422 1.391 . S
C113 C10 1.060 . S
C119 C75 1.054 . S
C133 C21 1.028 . S
C139 C86 1.023 . S
C153 C36 1.042 . S
C159 C101 1.048 . S
C173 C47 1.002 . S
C179 C60 1.009 . S
C193 C99 1.032 . S
C199 C8 1.030 . S
C213 C62 1.052 . S
C219 C23 1.042 . S
C233 C34 0.984 . S
C239 C73 0.983 . S
C253 C88 1.050 . S
C259 C49 1.060 . S
C273 C5 1.515 . S
C279 C83 1.511 . S
C293 C91 1.521 . S
C299 C13 1.517 . S
C313 C31 1.499 . S
C319 C57 1.510 . S
C333 C39 1.529 . S
C339 C65 1.524 . S
C353 C78 1.519 . S
C359 C0 1.531 . S
C373 C96 1.515 . S
C379 C18 1.507 . S
C393 C26 1.525 . S
C399 C52 1.516 . S
C413 C44 1.495 . S
C419 C70 1.500 . S
