# Generated by pormake.
# Topology wjd, (6)-cn, num edge types: 1
# Building blocks:
#     Node 0, Type 0, BuildingBlock: JUFBIX_clean_sbu_0, # of connection points: 6
#     Node 1, Type 0, BuildingBlock: JUFBIX_clean_sbu_0, # of connection points: 6
#     Node 2, Type 0, BuildingBlock: JUFBIX_clean_sbu_0, # of connection points: 6
#     Node 3, Type 0, BuildingBlock: JUFBIX_clean_sbu_0, # of connection points: 6
#     Node 4, Type 0, BuildingBlock: JUFBIX_clean_sbu_0, # of connection points: 6
#     Node 5, Type 0, BuildingBlock: JUFBIX_clean_sbu_0, # of connection points: 6
#     Node 6, Type 0, BuildingBlock: JUFBIX_clean_sbu_0, # of connection points: 6
#     Node 7, Type 0, BuildingBlock: JUFBIX_clean_sbu_0, # of connection points: 6
#     Node 8, Type 0, BuildingBlock: JUFBIX_clean_sbu_0, # of connection points: 6
#     Node 9, Type 0, BuildingBlock: JUFBIX_clean_sbu_0, # of connection points: 6
#     Node 10, Type 0, BuildingBlock: JUFBIX_clean_sbu_0, # of connection points: 6
#     Node 11, Type 0, BuildingBlock: JUFBIX_clean_sbu_0, # of connection points: 6
#     Edge 12, Type (0, 0), BuildingBlock: AJUNOK_clean_linker_0, # of connection points: 2
#     Edge 13, Type (0, 0), BuildingBlock: AJUNOK_clean_linker_0, # of connection points: 2
#     Edge 14, Type (0, 0), BuildingBlock: AJUNOK_clean_linker_0, # of connection points: 2
#     Edge 15, Type (0, 0), BuildingBlock: AJUNOK_clean_linker_0, # of connection points: 2
#     Edge 16, Type (0, 0), BuildingBlock: AJUNOK_clean_linker_0, # of connection points: 2
#     Edge 17, Type (0, 0), BuildingBlock: AJUNOK_clean_linker_0, # of connection points: 2
#     Edge 18, Type (0, 0), BuildingBlock: AJUNOK_clean_linker_0, # of connection points: 2
#     Edge 19, Type (0, 0), BuildingBlock: AJUNOK_clean_linker_0, # of connection points: 2
#     Edge 20, Type (0, 0), BuildingBlock: AJUNOK_clean_linker_0, # of connection points: 2
#     Edge 21, Type (0, 0), BuildingBlock: AJUNOK_clean_linker_0, # of connection points: 2
#     Edge 22, Type (0, 0), BuildingBlock: AJUNOK_clean_linker_0, # of connection points: 2
#     Edge 23, Type (0, 0), BuildingBlock: AJUNOK_clean_linker_0, # of connection points: 2
#     Edge 24, Type (0, 0), BuildingBlock: AJUNOK_clean_linker_0, # of connection points: 2
#     Edge 25, Type (0, 0), BuildingBlock: AJUNOK_clean_linker_0, # of connection points: 2
#     Edge 26, Type (0, 0), BuildingBlock: AJUNOK_clean_linker_0, # of connection points: 2
#     Edge 27, Type (0, 0), BuildingBlock: AJUNOK_clean_linker_0, # of connection points: 2
#     Edge 28, Type (0, 0), BuildingBlock: AJUNOK_clean_linker_0, # of connection points: 2
#     Edge 29, Type (0, 0), BuildingBlock: AJUNOK_clean_linker_0, # of connection points: 2
#     Edge 30, Type (0, 0), BuildingBlock: AJUNOK_clean_linker_0, # of connection points: 2
#     Edge 31, Type (0, 0), BuildingBlock: AJUNOK_clean_linker_0, # of connection points: 2
#     Edge 32, Type (0, 0), BuildingBlock: AJUNOK_clean_linker_0, # of connection points: 2
#     Edge 33, Type (0, 0), BuildingBlock: AJUNOK_clean_linker_0, # of connection points: 2
#     Edge 34, Type (0, 0), BuildingBlock: AJUNOK_clean_linker_0, # of connection points: 2
#     Edge 35, Type (0, 0), BuildingBlock: AJUNOK_clean_linker_0, # of connection points: 2
#     Edge 36, Type (0, 0), BuildingBlock: AJUNOK_clean_linker_0, # of connection points: 2
#     Edge 37, Type (0, 0), BuildingBlock: AJUNOK_clean_linker_0, # of connection points: 2
#     Edge 38, Type (0, 0), BuildingBlock: AJUNOK_clean_linker_0, # of connection points: 2
#     Edge 39, Type (0, 0), BuildingBlock: AJUNOK_clean_linker_0, # of connection points: 2
#     Edge 40, Type (0, 0), BuildingBlock: AJUNOK_clean_linker_0, # of connection points: 2
#     Edge 41, Type (0, 0), BuildingBlock: AJUNOK_clean_linker_0, # of connection points: 2
#     Edge 42, Type (0, 0), BuildingBlock: AJUNOK_clean_linker_0, # of connection points: 2
#     Edge 43, Type (0, 0), BuildingBlock: AJUNOK_clean_linker_0, # of connection points: 2
#     Edge 44, Type (0, 0), BuildingBlock: AJUNOK_clean_linker_0, # of connection points: 2
#     Edge 45, Type (0, 0), BuildingBlock: AJUNOK_clean_linker_0, # of connection points: 2
#     Edge 46, Type (0, 0), BuildingBlock: AJUNOK_clean_linker_0, # of connection points: 2
#     Edge 47, Type (0, 0), BuildingBlock: AJUNOK_clean_linker_0, # of connection points: 2
# Relax obj value: 0.321
# Max RMSD: 0.245
# Mean RMSD: 0.245
data_MOF--net-wjd--node1-JUFBIX_clean_sbu_0--edge1-AJUNOK_clean_linker_0
_symmetry_space_group_name_H-M    P1
_symmetry_Int_Tables_number       1
_symmetry_cell_setting            triclinic
loop_
_symmetry_equiv_pos_as_xyz
'x, y, z'
_cell_length_a     25.510102
_cell_length_b     25.39216
_cell_length_c     39.862358
_cell_angle_alpha  90.007544
_cell_angle_beta   90.262214
_cell_angle_gamma 119.94314
loop_
_atom_site_label
_atom_site_type_symbol
_atom_site_fract_x
_atom_site_fract_y
_atom_site_fract_z
_atom_type_partial_charge
Co0 Co 0.2973 0.13773 0.14245 0.0
C1 C 0.36616 0.15372 0.20245 0.0
Co2 Co 0.36992 0.11464 0.13941 0.0
C3 C 0.22294 0.19812 0.14416 0.0
C4 C 0.19846 0.12609 0.1794 0.0
N5 N 0.23535 0.15393 0.15309 0.0
N6 N 0.18074 0.19885 0.16441 0.0
C7 C 0.16483 0.1529 0.18609 0.0
H8 H 0.24594 0.23052 0.12428 0.0
H9 H 0.19784 0.09014 0.19422 0.0
C10 C 0.29809 0.09225 0.08028 0.0
N11 N 0.43161 0.09758 0.13147 0.0
C12 C 0.49191 0.13334 0.13611 0.0
C13 C 0.42493 0.04616 0.1175 0.0
N14 N 0.5229 0.10622 0.12544 0.0
C15 C 0.48081 0.0512 0.11396 0.0
C16 C 0.26058 0.01562 0.15551 0.0
O17 O 0.26933 0.11349 0.09637 0.0
O18 O 0.34486 0.0954 0.09392 0.0
O19 O 0.31523 0.03011 0.15035 0.0
O20 O 0.24584 0.05622 0.15438 0.0
O21 O 0.39369 0.13272 0.18541 0.0
H22 H 0.38217 1.00773 0.10984 0.0
H23 H 0.5126 0.17819 0.14728 0.0
O24 O 0.32454 0.15926 0.18816 0.0
O25 O 0.34999 0.22006 0.12994 0.0
O26 O 0.42365 0.19926 0.12853 0.0
C27 C 0.40601 0.23811 0.12624 0.0
H28 H 0.13092 0.13943 0.20547 0.0
H29 H 0.48995 0.01746 0.10322 0.0
Co30 Co 0.79275 0.70374 0.40631 0.0
C31 C 0.80823 0.63885 0.35806 0.0
Co32 Co 0.82758 0.64773 0.42848 0.0
C33 C 0.8016 0.81706 0.39649 0.0
C34 C 0.72252 0.74966 0.37089 0.0
N35 N 0.76913 0.75691 0.39029 0.0
N36 N 0.77825 0.84806 0.38151 0.0
C37 C 0.72772 0.806 0.36571 0.0
H38 H 0.84128 0.83791 0.41251 0.0
H39 H 0.68733 0.70652 0.36119 0.0
C40 C 0.80783 0.71643 0.47604 0.0
N41 N 0.85768 0.5987 0.44455 0.0
C42 C 0.85758 0.55148 0.42876 0.0
C43 C 0.89294 0.60888 0.47187 0.0
N44 N 0.89202 0.53244 0.44474 0.0
C45 C 0.91373 0.5681 0.47218 0.0
C46 C 0.91981 0.75871 0.40879 0.0
O47 O 0.79646 0.73541 0.44926 0.0
O48 O 0.82184 0.6746 0.47414 0.0
O49 O 0.90775 0.71124 0.42495 0.0
O50 O 0.87646 0.76495 0.3977 0.0
O51 O 0.83102 0.62309 0.38197 0.0
H52 H 0.90455 0.64498 0.48987 0.0
H53 H 0.83434 0.5326 0.40525 0.0
O54 O 0.78764 0.67386 0.36396 0.0
O55 O 0.70971 0.6393 0.4141 0.0
O56 O 0.74777 0.5832 0.43218 0.0
C57 C 0.70206 0.58843 0.42493 0.0
H58 H 0.69706 0.81537 0.35148 0.0
H59 H 0.94228 0.56489 0.49127 0.0
Co60 Co 0.87666 0.17677 0.14468 0.0
C61 C 0.85917 0.20865 0.20878 0.0
Co62 Co 0.90119 0.27357 0.14862 0.0
C63 C 0.81398 0.04513 0.15557 0.0
C64 C 0.8881 0.07631 0.12139 0.0
N65 N 0.85783 0.09596 0.14058 0.0
N66 N 0.81542 0.99493 0.14577 0.0
C67 C 0.86204 0.01443 0.12442 0.0
H68 H 0.78222 0.04495 0.17355 0.0
H69 H 0.92791 0.10536 0.10692 0.0
C70 C 0.92559 0.2454 0.08578 0.0
N71 N 0.9196 0.35453 0.15263 0.0
C72 C 0.88897 0.38056 0.1395 0.0
C73 C 0.96507 0.39944 0.17047 0.0
N74 N 0.91317 0.43939 0.14863 0.0
C75 C 0.96139 0.45164 0.1679 0.0
C76 C 0.99668 0.2535 0.16057 0.0
O77 O 0.90319 0.19235 0.09841 0.0
O78 O 0.92352 0.28669 0.10279 0.0
O79 O 0.98365 0.29572 0.15894 0.0
O80 O 0.95558 0.19863 0.15678 0.0
O81 O 0.88022 0.26058 0.19505 0.0
H82 H 0.998 0.39436 0.18517 0.0
H83 H 0.84933 0.35689 0.1237 0.0
O84 O 0.85308 0.16417 0.19103 0.0
O85 O 0.79698 0.15438 0.13238 0.0
O86 O 0.81833 0.2489 0.13782 0.0
C87 C 0.77982 0.19345 0.1319 0.0
H88 H 0.8777 0.98611 0.11304 0.0
H89 H 0.99038 0.49455 0.18034 0.0
Co90 Co 0.31557 0.08191 0.3959 0.0
C91 C 0.37348 0.16493 0.34627 0.0
Co92 Co 0.37127 0.17469 0.41683 0.0
C93 C 0.20657 0.9697 0.39401 0.0
C94 C 0.25955 0.97384 0.35169 0.0
N95 N 0.26173 1.00382 0.38013 0.0
N96 N 0.17029 0.91999 0.37588 0.0
C97 C 0.20291 0.92221 0.3489 0.0
H98 H 0.19123 0.9831 0.41597 0.0
H99 H 0.2953 0.99004 0.33329 0.0
C100 C 0.31005 0.08483 0.46551 0.0
N101 N 0.41952 0.25407 0.43367 0.0
C102 C 0.46851 0.30339 0.42061 0.0
C103 C 0.40794 0.27472 0.46229 0.0
N104 N 0.48763 0.35359 0.44011 0.0
C105 C 0.44968 0.33527 0.4664 0.0
C106 C 0.25719 0.15047 0.40141 0.0
O107 O 0.28964 0.05355 0.43924 0.0
O108 O 0.34975 0.14112 0.46278 0.0
O109 O 0.30582 0.18815 0.41589 0.0
O110 O 0.25153 0.10096 0.3903 0.0
O111 O 0.39092 0.20382 0.37021 0.0
H112 H 0.37065 0.24776 0.47892 0.0
H113 H 0.48996 0.30237 0.39745 0.0
O114 O 0.34105 0.10891 0.35263 0.0
O115 O 0.38322 0.06632 0.40137 0.0
O116 O 0.43694 0.16207 0.41763 0.0
C117 C 0.43406 0.11199 0.4104 0.0
H118 H 0.18655 0.88985 0.3284 0.0
H119 H 0.45145 0.364 0.48697 0.0
Co120 Co 0.83946 0.71945 0.15712 0.0
C121 C 0.79543 0.65265 0.2167 0.0
Co122 Co 0.74245 0.64797 0.15562 0.0
C123 C 0.97429 0.79271 0.15201 0.0
C124 C 0.93468 0.82079 0.19014 0.0
N125 N 0.92002 0.78156 0.16416 0.0
N126 N 0.02135 0.83705 0.16968 0.0
C127 C 0.99599 0.85472 0.19336 0.0
H128 H 0.97911 0.76699 0.1318 0.0
H129 H 0.90292 0.82292 0.20715 0.0
C130 C 0.78429 0.71704 0.09664 0.0
N131 N 0.66118 0.58448 0.15227 0.0
C132 C 0.63699 0.5295 0.13673 0.0
C133 C 0.6137 0.58337 0.16776 0.0
N134 N 0.57654 0.49493 0.1417 0.0
C135 C 0.5621 0.52892 0.16132 0.0
C136 C 0.75867 0.7595 0.17431 0.0
O137 O 0.83503 0.74642 0.11215 0.0
O138 O 0.7415 0.6694 0.11012 0.0
O139 O 0.71705 0.7058 0.16729 0.0
O140 O 0.81315 0.772 0.17306 0.0
O141 O 0.74439 0.62798 0.20177 0.0
H142 H 0.61643 0.61896 0.18382 0.0
H143 H 0.66317 0.51459 0.12243 0.0
O144 O 0.84148 0.69279 0.20131 0.0
O145 O 0.86505 0.66553 0.14107 0.0
O146 O 0.77018 0.59295 0.14372 0.0
C147 C 0.82562 0.60933 0.13902 0.0
H148 H 0.02022 0.88978 0.21199 0.0
H149 H 0.51779 0.51434 0.17169 0.0
Co150 Co 0.93714 0.22902 0.40282 0.0
C151 C 0.85425 0.20332 0.35293 0.0
Co152 Co 0.84564 0.19347 0.42375 0.0
C153 C 0.04658 0.2279 0.39803 0.0
C154 C 0.04229 0.28262 0.35854 0.0
N155 N 0.01343 0.25206 0.38651 0.0
N156 N 0.09416 0.24114 0.37843 0.0
C157 C 0.09212 0.27567 0.3534 0.0
H158 H 0.0337 0.19725 0.41917 0.0
H159 H 0.02631 0.30538 0.34195 0.0
C160 C 0.93606 0.2216 0.47278 0.0
N161 N 0.76653 0.16507 0.4393 0.0
C162 C 0.72034 0.16501 0.42237 0.0
C163 C 0.74103 0.13427 0.46774 0.0
N164 N 0.6671 0.13556 0.43895 0.0
C165 C 0.68018 0.11616 0.46759 0.0
C166 C 0.86629 0.10153 0.40842 0.0
O167 O 0.96639 0.2317 0.44626 0.0
O168 O 0.87974 0.20534 0.47024 0.0
O169 O 0.83004 0.11405 0.42308 0.0
O170 O 0.9164 0.14479 0.39786 0.0
O171 O 0.81646 0.18343 0.37702 0.0
H172 H 0.76472 0.12413 0.48696 0.0
H173 H 0.72531 0.18426 0.39763 0.0
O174 O 0.91 0.22719 0.35929 0.0
O175 O 0.95446 0.31276 0.40773 0.0
O176 O 0.85977 0.27258 0.42407 0.0
C177 C 0.90982 0.31915 0.41684 0.0
H178 H 0.12333 0.29317 0.3326 0.0
H179 H 0.64808 0.09063 0.4871 0.0
Co180 Co 0.13375 0.37455 0.64837 0.0
C181 C 0.10524 0.31138 0.58684 0.0
Co182 Co 0.16854 0.31187 0.64376 0.0
C183 C 0.13584 0.48685 0.65395 0.0
C184 C 0.04839 0.41666 0.63815 0.0
N185 N 0.1023 0.42625 0.64955 0.0
N186 N 0.1064 0.51604 0.64447 0.0
C187 C 0.0509 0.47193 0.63482 0.0
H188 H 0.18322 0.50979 0.66072 0.0
H189 H 1.01171 0.37318 0.62993 0.0
C190 C 0.18555 0.36887 0.70742 0.0
N191 N 0.20784 0.26707 0.64324 0.0
C192 C 0.19011 0.20758 0.63972 0.0
C193 C 0.26729 0.29378 0.65142 0.0
N194 N 0.23683 0.19743 0.64473 0.0
C195 C 0.28507 0.25147 0.65219 0.0
C196 C 0.25182 0.43031 0.62622 0.0
O197 O 0.15585 0.39123 0.69405 0.0
O198 O 0.1995 0.33653 0.68926 0.0
O199 O 0.23898 0.37573 0.62515 0.0
O200 O 0.21164 0.442 0.63605 0.0
O201 O 0.13302 0.28524 0.59901 0.0
H202 H 0.29584 0.34106 0.65819 0.0
H203 H 0.14396 0.17244 0.63464 0.0
O204 O 0.1083 0.35628 0.60274 0.0
O205 O 0.05813 0.30642 0.66073 0.0
O206 O 0.09893 0.24773 0.66134 0.0
C207 C 0.05308 0.25422 0.66481 0.0
H208 H 0.01609 0.47929 0.62399 0.0
H209 H 0.32931 0.25922 0.65952 0.0
Co210 Co 0.16849 0.88077 0.90105 0.0
C211 C 0.22367 0.86339 0.84336 0.0
Co212 Co 0.26332 0.90532 0.90598 0.0
C213 C 0.03672 0.8264 0.90407 0.0
C214 C 0.07773 0.87825 0.85984 0.0
N215 N 0.09083 0.86143 0.88943 0.0
N216 N 0.99073 0.82101 0.88457 0.0
C217 C 0.01664 0.8537 0.85683 0.0
H218 H 0.03127 0.80481 0.92821 0.0
H219 H 0.11069 0.9063 0.84128 0.0
C220 C 0.21151 0.92878 0.96313 0.0
N221 N 0.34191 0.92545 0.91648 0.0
C222 C 0.37073 0.89334 0.91285 0.0
C223 C 0.37836 0.97252 0.93648 0.0
N224 N 0.4235 0.91816 0.93031 0.0
C225 C 0.42755 0.96765 0.94545 0.0
C226 C 0.24974 1.00136 0.88596 0.0
O227 O 0.16314 0.9097 0.94575 0.0
O228 O 0.25436 0.92323 0.95095 0.0
O229 O 0.29028 0.98897 0.89487 0.0
O230 O 0.19521 0.95928 0.88545 0.0
O231 O 0.27245 0.88817 0.86043 0.0
H232 H 0.36767 1.00593 0.94603 0.0
H233 H 0.35201 0.85133 0.89876 0.0
O234 O 0.17544 0.85506 0.85718 0.0
O235 O 0.14078 0.8003 0.91657 0.0
O236 O 0.23521 0.82162 0.91708 0.0
C237 C 0.17922 0.78267 0.92011 0.0
H238 H 0.9931 0.86095 0.83627 0.0
H239 H 0.461 0.99641 0.96375 0.0
Co240 Co 0.65275 0.74972 0.65085 0.0
C241 C 0.71957 0.79105 0.59135 0.0
Co242 Co 0.71524 0.84769 0.64944 0.0
C243 C 0.53859 0.64056 0.65121 0.0
C244 C 0.60845 0.62142 0.63793 0.0
N245 N 0.59931 0.66639 0.64889 0.0
N246 N 0.50906 0.58244 0.64057 0.0
C247 C 0.55303 0.56965 0.6329 0.0
H248 H 0.51593 0.66519 0.65833 0.0
H249 H 0.6522 0.62689 0.63195 0.0
C250 C 0.65268 0.80096 0.71088 0.0
N251 N 0.76022 0.93167 0.65197 0.0
C252 C 0.81938 0.97351 0.64894 0.0
C253 C 0.73357 0.96399 0.66135 0.0
N254 N 0.82941 0.03013 0.65542 0.0
C255 C 0.77566 0.02405 0.66335 0.0
C256 C 0.59999 0.81605 0.62888 0.0
O257 O 0.6327 0.75016 0.69628 0.0
O258 O 0.68645 0.84899 0.69437 0.0
O259 O 0.65423 0.85764 0.62986 0.0
O260 O 0.58738 0.76325 0.63782 0.0
O261 O 0.74521 0.84368 0.60518 0.0
H262 H 0.68631 0.94488 0.66761 0.0
H263 H 0.85428 0.96276 0.64277 0.0
O264 O 0.67402 0.74759 0.6056 0.0
O265 O 0.72027 0.73973 0.66367 0.0
O266 O 0.77731 0.83922 0.66791 0.0
C267 C 0.77184 0.78682 0.66957 0.0
H268 H 0.5461 0.52673 0.62341 0.0
H269 H 0.76789 0.06029 0.67143 0.0
Co270 Co 0.15795 0.31787 0.91777 0.0
C271 C 0.17874 0.36712 0.85335 0.0
Co272 Co 0.1238 0.38134 0.91039 0.0
C273 C 0.20134 0.23415 0.90317 0.0
C274 C 0.2056 0.25503 0.95544 0.0
N275 N 0.18795 0.26568 0.92549 0.0
N276 N 0.22642 0.20401 0.91803 0.0
C277 C 0.22889 0.21709 0.95097 0.0
H278 H 0.19402 0.2346 0.87651 0.0
H279 H 0.20253 0.27426 0.97905 0.0
C280 C 0.09472 0.32838 0.97282 0.0
N281 N 0.09727 0.43713 0.90389 0.0
C282 C 0.11856 0.49077 0.92023 0.0
C283 C 0.0604 0.43812 0.87988 0.0
N284 N 0.09801 0.526 0.90688 0.0
C285 C 0.06063 0.49257 0.88172 0.0
C286 C 0.04195 0.26096 0.89534 0.0
O287 O 0.12045 0.29987 0.96172 0.0
O288 O 0.09715 0.37136 0.95539 0.0
O289 O 0.04619 0.31312 0.89838 0.0
O290 O 0.08772 0.25522 0.9008 0.0
O291 O 0.14869 0.39049 0.86505 0.0
H292 H 0.03736 0.40296 0.86117 0.0
H293 H 0.1501 0.50449 0.94103 0.0
O294 O 0.19175 0.33533 0.87283 0.0
O295 O 0.22947 0.38024 0.93519 0.0
O296 O 0.20216 0.44679 0.92237 0.0
C297 C 0.24169 0.43479 0.93354 0.0
H298 H 0.24542 0.19962 0.97063 0.0
H299 H 0.03789 0.50783 0.86463 0.0
Co300 Co 0.27501 0.89089 0.63933 0.0
C301 C 0.23774 0.9159 0.57828 0.0
Co302 Co 0.1772 0.85537 0.63574 0.0
C303 C 0.38439 0.88661 0.64238 0.0
C304 C 0.4042 0.9775 0.63311 0.0
N305 N 0.35815 0.92128 0.63981 0.0
N306 N 0.44397 0.91761 0.63597 0.0
C307 C 0.45711 0.97539 0.63064 0.0
H308 H 0.35995 0.83835 0.64724 0.0
H309 H 0.39941 0.01693 0.62891 0.0
C310 C 0.22168 0.84203 0.69866 0.0
N311 N 0.09211 0.81619 0.6367 0.0
C312 C 0.05155 0.83569 0.63938 0.0
C313 C 0.05866 0.75547 0.64188 0.0
N314 N 0.99487 0.78913 0.64566 0.0
C315 C 0.99972 0.73896 0.64692 0.0
C316 C 0.21098 0.77104 0.61958 0.0
O317 O 0.27248 0.87264 0.68468 0.0
O318 O 0.17393 0.82606 0.68128 0.0
O319 O 0.16931 0.78362 0.61735 0.0
O320 O 0.26281 0.8124 0.62864 0.0
O321 O 0.18436 0.88962 0.59085 0.0
H322 H 0.07609 0.72466 0.64441 0.0
H323 H 0.06372 0.883 0.63797 0.0
O324 O 0.2793 0.91201 0.59379 0.0
O325 O 0.28397 0.96796 0.65031 0.0
O326 O 0.18484 0.9266 0.65314 0.0
C327 C 0.23725 0.97308 0.65519 0.0
H328 H 0.50132 0.01326 0.62483 0.0
H329 H 0.96368 0.69379 0.65319 0.0
Co330 Co 0.70664 0.85268 0.91935 0.0
C331 C 0.64576 0.80286 0.85683 0.0
Co332 Co 0.63952 0.75576 0.91854 0.0
C333 C 0.81197 0.97944 0.91775 0.0
C334 C 0.72643 0.96771 0.90239 0.0
N335 N 0.75288 0.93684 0.91475 0.0
N336 N 0.82196 0.03496 0.90819 0.0
C337 C 0.76819 0.02744 0.8988 0.0
H338 H 0.84685 0.96981 0.92591 0.0
H339 H 0.67955 0.94764 0.89484 0.0
C340 C 0.70395 0.80022 0.97978 0.0
N341 N 0.58685 0.67372 0.92193 0.0
C342 C 0.5266 0.64719 0.91783 0.0
C343 C 0.59633 0.62988 0.93453 0.0
N344 N 0.4975 0.58939 0.92858 0.0
C345 C 0.54126 0.57766 0.93853 0.0
C346 C 0.75811 0.78622 0.90298 0.0
O347 O 0.73282 0.85207 0.96539 0.0
O348 O 0.65945 0.75716 0.96435 0.0
O349 O 0.7049 0.74185 0.9077 0.0
O350 O 0.76869 0.84058 0.90493 0.0
O351 O 0.62037 0.75294 0.87255 0.0
H352 H 0.63997 0.63641 0.94208 0.0
H353 H 0.50392 0.67104 0.90916 0.0
O354 O 0.68188 0.85076 0.87295 0.0
O355 O 0.64486 0.8651 0.93485 0.0
O356 O 0.57455 0.7714 0.92952 0.0
C357 C 0.58969 0.82588 0.93619 0.0
H358 H 0.76032 0.0623 0.88837 0.0
H359 H 0.53423 0.53519 0.94876 0.0
C360 C 0.08201 0.25553 0.13108 0.0
C361 C 0.05924 0.26592 0.16095 0.0
C362 C 0.12811 0.2407 0.13182 0.0
C363 C 0.15213 0.23528 0.16251 0.0
H364 H 0.05982 0.25268 0.10734 0.0
H365 H 0.14012 0.22692 0.10874 0.0
S366 S 0.11618 0.27008 0.24688 0.0
N367 N 0.06978 0.27853 0.22128 0.0
N368 N 0.15763 0.25225 0.22281 0.0
C369 C 0.13481 0.25298 0.19206 0.0
C370 C 0.08776 0.26773 0.19127 0.0
C371 C 0.06174 0.86529 0.36015 0.0
C372 C 0.108 0.87775 0.38353 0.0
C373 C 1.00041 0.82888 0.36889 0.0
C374 C 0.9837 0.80291 0.40106 0.0
H375 H 0.0731 0.88485 0.33528 0.0
H376 H 0.966 0.81972 0.35014 0.0
S377 S 0.08815 0.8224 0.47113 0.0
N378 N 0.13311 0.86234 0.44009 0.0
N379 N 0.01852 0.79277 0.45626 0.0
C380 C 0.02974 0.81505 0.42448 0.0
C381 C 0.09172 0.85277 0.41579 0.0
C382 C 0.74676 0.88605 0.13598 0.0
C383 C 0.78167 0.93394 0.15833 0.0
C384 C 0.72959 0.82571 0.14405 0.0
C385 C 0.74847 0.81175 0.17434 0.0
H386 H 0.73724 0.8961 0.11103 0.0
H387 H 0.70816 0.79123 0.12475 0.0
S388 S 0.83505 0.92023 0.24254 0.0
N389 N 0.82876 0.96279 0.21322 0.0
N390 N 0.79877 0.84984 0.22798 0.0
C391 C 0.77877 0.85858 0.19799 0.0
C392 C 0.79501 0.9197 0.19004 0.0
C393 C 0.19983 0.19988 0.42072 0.0
C394 C 0.21076 0.16777 0.39558 0.0
C395 C 0.16181 0.22387 0.41476 0.0
C396 C 0.13492 0.21825 0.38317 0.0
H397 H 0.22121 0.20687 0.44514 0.0
H398 H 0.15396 0.24787 0.4348 0.0
S399 S 0.14862 0.13813 0.309 0.0
N400 N 0.19085 0.13061 0.33807 0.0
N401 N 0.12021 0.17725 0.3267 0.0
C402 C 0.14511 0.18608 0.35782 0.0
C403 C 0.18278 0.16032 0.36411 0.0
C404 C 0.18594 0.9309 0.19 0.0
C405 C 0.211 0.95238 0.15829 0.0
C406 C 0.12466 0.88694 0.19333 0.0
C407 C 0.08589 0.86415 0.16512 0.0
H408 H 0.2121 0.95255 0.21242 0.0
H409 H 0.10622 0.87481 0.21838 0.0
S410 S 0.13272 0.89871 0.07636 0.0
N411 N 0.1953 0.94117 0.09807 0.0
N412 N 0.07958 0.8601 0.10432 0.0
C413 C 0.11212 0.88022 0.13321 0.0
C414 C 0.17487 0.92425 0.12984 0.0
C415 C 0.76134 0.93306 0.39392 0.0
C416 C 0.80083 0.91211 0.38513 0.0
C417 C 0.78343 0.99429 0.40174 0.0
C418 C 0.84588 0.03714 0.40062 0.0
H419 H 0.71326 0.90146 0.39587 0.0
H420 H 0.75098 1.00804 0.40866 0.0
S421 S 0.96759 1.0053 0.37657 0.0
N422 N 0.90485 0.93863 0.37415 0.0
N423 N 0.94653 0.05431 0.38841 0.0
C424 C 0.88574 0.01699 0.3908 0.0
C425 C 0.86318 0.95432 0.38321 0.0
C426 C 0.19358 0.0387 0.66893 0.0
C427 C 0.24171 0.03299 0.65579 0.0
C428 C 0.19098 0.09198 0.66437 0.0
C429 C 0.23623 0.1409 0.6464 0.0
H430 H 0.15714 1.00131 0.68233 0.0
H431 H 0.15401 0.09538 0.67532 0.0
S432 S 0.3689 0.14747 0.60473 0.0
N433 N 0.33412 0.08014 0.62284 0.0
N434 N 0.32857 0.17989 0.61406 0.0
C435 C 0.28416 0.13568 0.63293 0.0
C436 C 0.2872 0.08187 0.63778 0.0
C437 C 0.88444 0.77083 0.86636 0.0
C438 C 0.92777 0.79484 0.89244 0.0
C439 C 0.82619 0.76212 0.87063 0.0
C440 C 0.80982 0.77666 0.90122 0.0
H441 H 0.8972 0.76304 0.84178 0.0
H442 H 0.79568 0.74854 0.8493 0.0
S443 S 0.90248 0.83154 0.97868 0.0
N444 N 0.94738 0.8261 0.95093 0.0
N445 N 0.83753 0.80879 0.95902 0.0
C446 C 0.85038 0.79488 0.92835 0.0
C447 C 0.90957 0.80391 0.92403 0.0
C448 C 0.93497 0.08923 0.67448 0.0
C449 C 0.88555 0.08604 0.65713 0.0
C450 C 0.98823 0.14498 0.67879 0.0
C451 C 0.99341 0.19909 0.66599 0.0
H452 H 0.93203 0.04856 0.68506 0.0
H453 H 0.02605 0.1456 0.69167 0.0
S454 S 0.87752 0.21302 0.61641 0.0
N455 N 0.84545 0.14011 0.6257 0.0
N456 N 0.94528 0.24513 0.63394 0.0
C457 C 0.94402 0.19618 0.64861 0.0
C458 C 0.89018 0.13949 0.64405 0.0
C459 C 0.28878 0.15444 0.91843 0.0
C460 C 0.24358 0.16297 0.90312 0.0
C461 C 0.29724 0.10582 0.90933 0.0
C462 C 0.26074 0.06411 0.88456 0.0
H463 H 0.31535 0.18334 0.93904 0.0
H464 H 0.32812 0.09749 0.92411 0.0
S465 S 0.14445 0.07223 0.83226 0.0
N466 N 0.16779 0.12982 0.85865 0.0
N467 N 0.18506 0.0398 0.84107 0.0
C468 C 0.22059 0.07625 0.86638 0.0
C469 C 0.2115 0.12528 0.8758 0.0
C470 C 0.88391 0.73996 0.64288 0.0
C471 C 0.93988 0.78975 0.65283 0.0
C472 C 0.8291 0.73671 0.651 0.0
C473 C 0.82801 0.78346 0.66922 0.0
H474 H 0.88252 0.70358 0.62803 0.0
H475 H 0.78759 0.69885 0.64132 0.0
S476 S 0.96156 0.92143 0.70368 0.0
N477 N 0.99058 0.88473 0.68397 0.0
N478 N 0.88754 0.87968 0.69867 0.0
C479 C 0.88355 0.83275 0.68024 0.0
C480 C 0.93948 0.83584 0.67205 0.0
C481 C 0.9323 0.20187 0.90778 0.0
C482 C 0.98333 0.20463 0.8929 0.0
C483 C 0.88029 0.14587 0.91347 0.0
C484 C 0.87767 0.09094 0.90459 0.0
H485 H 0.93353 0.24282 0.91662 0.0
H486 H 0.84194 0.14527 0.9254 0.0
S487 S 0.9967 0.07395 0.86166 0.0
N488 N 0.02656 0.14797 0.86702 0.0
N489 N 0.92818 0.04274 0.87784 0.0
C490 C 0.92743 0.0931 0.88866 0.0
C491 C 0.9803 0.15001 0.88262 0.0
C492 C 0.3509 0.19759 0.29199 0.0
C493 C 0.3876 0.18152 0.31063 0.0
C494 C 0.34686 0.19151 0.25684 0.0
C495 C 0.37901 0.16861 0.23896 0.0
H496 H 0.32157 0.21044 0.30481 0.0
H497 H 0.3157 0.20185 0.24385 0.0
S498 S 0.48596 0.12576 0.27651 0.0
N499 N 0.45981 0.14601 0.30891 0.0
N500 N 0.45326 0.13527 0.24301 0.0
C501 C 0.41901 0.15633 0.25733 0.0
C502 C 0.42288 0.16246 0.2931 0.0
C503 C 0.75305 0.59289 0.30558 0.0
C504 C 0.80878 0.62291 0.32272 0.0
C505 C 0.74941 0.59953 0.27085 0.0
C506 C 0.80141 0.63735 0.25206 0.0
H507 H 0.71138 0.56827 0.31957 0.0
H508 H 0.70507 0.57811 0.25916 0.0
S509 S 0.9592 0.72036 0.28501 0.0
N510 N 0.91739 0.68701 0.31829 0.0
N511 N 0.91156 0.69977 0.25302 0.0
C512 C 0.85809 0.6636 0.26863 0.0
C513 C 0.86154 0.65626 0.30397 0.0
C514 C 0.85351 0.25239 0.26431 0.0
C515 C 0.84544 0.20174 0.24549 0.0
C516 C 0.84962 0.25047 0.29947 0.0
C517 C 0.83637 0.19759 0.31729 0.0
H518 H 0.86604 0.29507 0.252 0.0
H519 H 0.86086 0.29188 0.31296 0.0
S520 S 0.80676 0.0511 0.28072 0.0
N521 N 0.81959 0.09554 0.24787 0.0
N522 N 0.81243 0.09262 0.31391 0.0
C523 C 0.82465 0.14561 0.29895 0.0
C524 C 0.82897 0.14745 0.26308 0.0
C525 C 0.187 0.41666 0.76264 0.0
C526 C 0.19628 0.37448 0.74448 0.0
C527 C 0.18522 0.41604 0.79781 0.0
C528 C 0.19255 0.37316 0.81667 0.0
H529 H 0.1785 0.44909 0.74957 0.0
H530 H 0.17553 0.44816 0.81025 0.0
S531 S 0.22395 0.25624 0.78162 0.0
N532 N 0.21768 0.29135 0.74827 0.0
N533 N 0.21429 0.29026 0.81438 0.0
C534 C 0.20574 0.33313 0.79899 0.0
C535 C 0.20761 0.33377 0.76297 0.0
C536 C 0.16899 0.83135 0.78826 0.0
C537 C 0.22208 0.84833 0.80714 0.0
C538 C 0.16769 0.82469 0.7533 0.0
C539 C 0.21942 0.83465 0.7357 0.0
H540 H 0.12855 0.82578 0.8003 0.0
H541 H 0.12684 0.81515 0.73988 0.0
S542 S 0.36646 0.86865 0.77365 0.0
N543 N 0.32525 0.86701 0.80589 0.0
N544 N 0.32284 0.85405 0.74022 0.0
C545 C 0.27134 0.84681 0.75448 0.0
C546 C 0.27271 0.85383 0.79014 0.0
C547 C 0.68079 0.85641 0.76615 0.0
C548 C 0.64275 0.80356 0.74756 0.0
C549 C 0.67916 0.85678 0.80141 0.0
C550 C 0.63935 0.80434 0.81963 0.0
H551 H 0.71425 0.8971 0.75351 0.0
H552 H 0.71139 0.89782 0.81447 0.0
S553 S 0.52347 0.65706 0.78275 0.0
N554 N 0.55907 0.6995 0.75 0.0
N555 N 0.55595 0.70017 0.81599 0.0
C556 C 0.59819 0.75247 0.80124 0.0
C557 C 0.59991 0.75209 0.76535 0.0
C558 C 0.27537 0.97463 1.014 0.0
C559 C 0.22516 0.96573 0.99475 0.0
C560 C 0.29892 0.01707 0.04013 0.0
C561 C 0.27317 0.05285 0.04943 0.0
H562 H 0.2982 0.94937 1.00838 0.0
H563 H 0.3377 0.02084 0.05348 0.0
S564 S 0.14021 0.04768 1.00763 0.0
N565 N 0.15027 0.99726 0.98665 0.0
N566 N 0.19297 0.07546 0.03719 0.0
C567 C 0.22194 0.04392 0.03096 0.0
C568 C 0.19829 1.0008 1.00351 0.0
C569 C 0.76269 0.69832 0.53369 0.0
C570 C 0.79639 0.73916 0.50817 0.0
C571 C 0.73842 0.71606 0.56017 0.0
C572 C 0.74732 0.77565 0.56264 0.0
H573 H 0.75207 0.6514 0.53224 0.0
H574 H 0.7118 0.68223 0.57879 0.0
S575 S 0.83688 0.90148 0.50361 0.0
N576 N 0.84031 0.84305 0.48791 0.0
N577 N 0.79618 0.87644 0.53814 0.0
C578 C 0.78365 0.81779 0.53823 0.0
C579 C 0.80761 0.79949 0.51092 0.0
C580 C 0.03459 0.34415 1.0174 0.0
C581 C 0.0539 0.30638 1.0026 0.0
C582 C 0.99126 0.3231 0.04307 0.0
C583 C 0.96438 0.26292 0.05505 0.0
H584 H 0.05311 0.39068 1.00907 0.0
H585 H 0.97943 0.35487 0.05393 0.0
S586 S 0.99641 0.14409 1.02341 0.0
N587 N 0.04103 0.20485 1.00107 0.0
N588 N 0.95932 0.16511 0.0489 0.0
C589 C 0.98239 0.22418 0.03997 0.0
C590 C 0.02721 0.24593 1.01402 0.0
C591 C 0.23056 1.00727 0.50324 0.0
C592 C 0.29192 0.05107 0.49777 0.0
C593 C 0.21287 0.96379 0.52914 0.0
C594 C 0.25606 0.9606 0.54983 0.0
H595 H 0.19594 1.00559 0.48669 0.0
H596 H 0.16521 0.9316 0.53241 0.0
S597 S 0.42323 0.06417 0.54478 0.0
N598 N 0.39555 0.08868 0.51506 0.0
N599 N 0.36404 1.00651 0.56245 0.0
C600 C 0.31779 1.00462 0.54443 0.0
C601 C 0.33526 0.04987 0.51882 0.0
C602 C 0.71751 0.70151 0.04726 0.0
C603 C 0.76979 0.74096 0.06567 0.0
C604 C 0.69616 0.72226 1.02093 0.0
C605 C 0.7259 0.78386 1.01104 0.0
H606 H 0.69194 0.65364 0.05347 0.0
H607 H 0.65585 0.68869 1.00791 0.0
S608 S 0.86435 0.90726 0.05142 0.0
N609 N 0.85044 0.84578 0.07271 0.0
N610 N 0.81081 0.8847 1.02245 0.0
C611 C 0.77838 0.82433 1.0292 0.0
C612 C 0.80025 0.80296 0.05646 0.0
C613 C 0.01549 0.30136 0.55396 0.0
C614 C 0.06079 0.28494 0.55809 0.0
C615 C 0.97136 0.27657 0.52823 0.0
C616 C 0.97059 0.23446 0.50511 0.0
H617 H 0.01409 0.33419 0.5707 0.0
H618 H 0.9397 0.29298 0.52539 0.0
S619 S 0.07618 0.1734 0.50508 0.0
N620 N 0.09918 0.22091 0.53724 0.0
N621 N 0.0178 0.17571 0.48865 0.0
C622 C 0.01442 0.21638 0.50939 0.0
C623 C 0.0589 0.24105 0.53584 0.0
C624 C 0.67184 0.11173 0.13573 0.0
C625 C 0.71439 0.17263 0.12831 0.0
C626 C 0.60963 0.09069 0.13482 0.0
C627 C 0.58725 0.12956 0.12646 0.0
H628 H 0.68659 0.08006 0.14303 0.0
H629 H 0.57871 0.04373 0.14124 0.0
S630 S 0.67861 0.29085 0.10092 0.0
N631 N 0.72926 0.27046 0.1099 0.0
N632 N 0.61189 0.23041 0.10794 0.0
C633 C 0.62893 0.19014 0.11819 0.0
C634 C 0.69257 0.21176 0.11915 0.0
C635 C 0.62584 0.50429 0.45996 0.0
C636 C 0.64161 0.53376 0.42873 0.0
C637 C 0.57511 0.44608 0.46342 0.0
C638 C 0.53895 0.41402 0.43559 0.0
H639 H 0.65402 0.52584 0.48179 0.0
H640 H 0.56525 0.42506 0.48794 0.0
S641 S 0.56085 0.47134 0.34823 0.0
N642 N 0.61669 0.52724 0.36949 0.0
N643 N 0.52178 0.41716 0.37578 0.0
C644 C 0.55383 0.44326 0.40422 0.0
C645 C 0.60497 0.50329 0.40085 0.0
C646 C 0.9278 0.54019 0.13349 0.0
C647 C 0.88913 0.47925 0.14248 0.0
C648 C 0.90619 0.58121 0.13046 0.0
C649 C 0.84507 0.56297 0.13664 0.0
H650 H 0.97538 0.55643 0.12936 0.0
H651 H 0.93817 0.62806 0.12433 0.0
S652 S 0.72618 0.4084 0.16267 0.0
N653 N 0.78749 0.40275 0.15824 0.0
N654 N 0.74643 0.47907 0.15266 0.0
C655 C 0.8057 0.50152 0.14502 0.0
C656 C 0.82783 0.4599 0.14796 0.0
C657 C 0.49694 0.06639 0.43025 0.0
C658 C 0.49174 0.11098 0.41206 0.0
C659 C 0.55431 0.07399 0.43831 0.0
C660 C 0.60848 0.12631 0.4284 0.0
H661 H 0.45676 0.02715 0.43983 0.0
H662 H 0.55626 0.03914 0.45298 0.0
S663 S 0.61827 0.25491 0.3789 0.0
N664 N 0.54506 0.20746 0.38283 0.0
N665 N 0.65184 0.22254 0.3986 0.0
C666 C 0.6033 0.16995 0.40911 0.0
C667 C 0.54526 0.16204 0.40083 0.0
C668 C 0.51297 0.32602 0.13101 0.0
C669 C 0.45116 0.30459 0.12413 0.0
C670 C 0.55463 0.38855 0.13491 0.0
C671 C 0.53619 0.43219 0.13215 0.0
H672 H 0.52894 0.29418 0.13506 0.0
H673 H 0.60082 0.40254 0.14188 0.0
S674 S 0.38254 0.40155 0.10861 0.0
N675 N 0.37583 0.3335 0.11065 0.0
N676 N 0.45393 0.45028 0.1178 0.0
C677 C 0.47567 0.41179 0.12301 0.0
C678 C 0.43329 0.34831 0.11903 0.0
C679 C 0.85394 0.43144 0.41904 0.0
C680 C 0.90116 0.48274 0.43486 0.0
C681 C 0.8593 0.38054 0.4115 0.0
C682 C 0.91231 0.37863 0.41917 0.0
H683 H 0.81134 0.42944 0.41369 0.0
H684 H 0.8205 0.34128 0.40054 0.0
S685 S 0.05186 0.50328 0.45733 0.0
N686 N 1.00511 0.53056 0.45534 0.0
N687 N 0.01457 0.43393 0.4414 0.0
C688 C 0.96121 0.4306 0.43335 0.0
C689 C 0.95569 0.48275 0.44128 0.0
C690 C 0.14616 0.66349 0.60198 0.0
C691 C 0.19337 0.70657 0.62224 0.0
C692 C 0.11766 0.60137 0.60946 0.0
C693 C 0.13449 0.58026 0.6379 0.0
H694 H 0.12994 0.67815 0.58079 0.0
H695 H 0.08213 0.56977 0.59287 0.0
S696 S 0.25268 0.67548 0.70035 0.0
N697 N 0.25488 0.72428 0.67227 0.0
N698 N 0.19972 0.60792 0.68714 0.0
C699 C 0.18172 0.62304 0.65834 0.0
C700 C 0.21163 0.68607 0.65028 0.0
C701 C 0.44443 0.83239 0.92867 0.0
C702 C 0.46453 0.89457 0.93412 0.0
C703 C 0.48401 0.80908 0.93137 0.0
C704 C 0.54519 0.84696 0.94003 0.0
H705 H 0.39794 0.80146 0.92182 0.0
H706 H 0.467 0.7616 0.92547 0.0
S707 S 0.62085 0.01265 0.95836 0.0
N708 N 0.55083 0.99344 0.94827 0.0
N709 N 0.62302 0.94898 0.95654 0.0
C710 C 0.56516 0.90855 0.94721 0.0
C711 C 0.52556 0.93257 0.94337 0.0
C712 C 0.4042 0.55578 0.65464 0.0
C713 C 0.44449 0.54656 0.63466 0.0
C714 C 0.34141 0.52203 0.64951 0.0
C715 C 0.31635 0.47718 0.62444 0.0
H716 H 0.4211 0.58793 0.67522 0.0
H717 H 0.31224 0.5283 0.66676 0.0
S718 S 0.401 0.43978 0.56256 0.0
N719 N 0.45404 0.49348 0.58623 0.0
N720 N 0.33601 0.4282 0.57778 0.0
C721 C 0.35585 0.46919 0.60336 0.0
C722 C 0.41984 0.50411 0.60823 0.0
C723 C 0.09694 0.67317 0.91669 0.0
C724 C 0.15848 0.71632 0.92217 0.0
C725 C 0.07734 0.61103 0.91265 0.0
C726 C 0.11817 0.58911 0.91433 0.0
H727 H 0.06374 0.68765 0.91409 0.0
H728 H 0.02992 0.5799 0.90755 0.0
S729 S 0.28358 0.68191 0.92973 0.0
N730 N 0.25973 0.73156 0.93055 0.0
N731 N 0.22286 0.61525 0.92271 0.0
C732 C 0.17939 0.63121 0.92109 0.0
C733 C 0.19949 0.69457 0.92508 0.0
C734 C 0.47013 0.83923 0.65127 0.0
C735 C 0.4818 0.89068 0.63214 0.0
C736 C 0.50515 0.81117 0.64772 0.0
C737 C 0.55362 0.83398 0.62517 0.0
H738 H 0.43478 0.82154 0.66995 0.0
H739 H 0.49661 0.77389 0.66427 0.0
S740 S 0.59907 0.96262 0.56637 0.0
N741 N 0.54161 0.95901 0.58726 0.0
N742 N 0.60907 0.90781 0.58166 0.0
C743 C 0.56436 0.88369 0.60492 0.0
C744 C 0.52825 0.91183 0.60822 0.0
C745 C 0.39468 0.56023 0.90939 0.0
C746 C 0.43296 0.55266 0.93206 0.0
C747 C 0.33181 0.52587 0.91215 0.0
C748 C 0.30508 0.48196 0.93733 0.0
H749 H 0.41337 0.59156 0.88862 0.0
H750 H 0.30415 0.53077 0.89307 0.0
S751 S 0.38381 0.44938 1.00556 0.0
N752 N 0.4388 0.50275 0.98299 0.0
N753 N 0.32022 0.43565 0.98696 0.0
C754 C 0.34234 0.4756 0.96105 0.0
C755 C 0.40643 0.51137 0.95864 0.0
loop_
_geom_bond_atom_site_label_1
_geom_bond_atom_site_label_2
_geom_bond_distance
_geom_bond_site_symmetry_2
_ccdc_geom_bond_type
Co0 N5 2.057 . S
Co0 O17 2.021 . S
Co0 O20 2.062 . S
Co0 O24 2.117 . S
Co0 O25 2.020 . S
C1 O21 1.259 . S
C1 O24 1.258 . S
Co2 N11 2.057 . S
Co2 O18 2.117 . S
Co2 O19 2.020 . S
Co2 O21 2.021 . S
Co2 O26 2.062 . S
C3 N5 1.316 . S
C3 N6 1.347 . S
C3 H8 0.931 . S
C4 N5 1.375 . S
C4 C7 1.350 . S
C4 H9 0.930 . S
N5 Co0 2.057 . S
N5 C3 1.316 . S
N5 C4 1.375 . S
N6 C3 1.347 . S
N6 C7 1.373 . S
C7 C4 1.350 . S
C7 N6 1.373 . S
C7 H28 0.931 . S
H8 C3 0.931 . S
H9 C4 0.930 . S
C10 O17 1.259 . S
C10 O18 1.258 . S
N11 Co2 2.057 . S
N11 C12 1.316 . S
N11 C13 1.375 . S
C12 N11 1.316 . S
C12 N14 1.347 . S
C12 H23 0.931 . S
C13 N11 1.375 . S
C13 C15 1.350 . S
C13 H22 0.930 . S
N14 C12 1.347 . S
N14 C15 1.373 . S
C15 C13 1.350 . S
C15 N14 1.373 . S
C15 H29 0.931 . S
C16 O19 1.256 . S
C16 O20 1.255 . S
O17 Co0 2.021 . S
O17 C10 1.259 . S
O18 Co2 2.117 . S
O18 C10 1.258 . S
O19 Co2 2.020 . S
O19 C16 1.256 . S
O20 Co0 2.062 . S
O20 C16 1.255 . S
O21 C1 1.259 . S
O21 Co2 2.021 . S
H22 C13 0.930 . S
H23 C12 0.931 . S
O24 Co0 2.117 . S
O24 C1 1.258 . S
O25 Co0 2.020 . S
O25 C27 1.256 . S
O26 Co2 2.062 . S
O26 C27 1.255 . S
C27 O25 1.256 . S
C27 O26 1.255 . S
H28 C7 0.931 . S
H29 C15 0.931 . S
Co30 N35 2.057 . S
Co30 O47 2.021 . S
Co30 O50 2.062 . S
Co30 O54 2.117 . S
Co30 O55 2.020 . S
C31 O51 1.259 . S
C31 O54 1.258 . S
Co32 N41 2.057 . S
Co32 O48 2.117 . S
Co32 O49 2.020 . S
Co32 O51 2.021 . S
Co32 O56 2.062 . S
C33 N35 1.316 . S
C33 N36 1.347 . S
C33 H38 0.931 . S
C34 N35 1.375 . S
C34 C37 1.350 . S
C34 H39 0.930 . S
N35 Co30 2.057 . S
N35 C33 1.316 . S
N35 C34 1.375 . S
N36 C33 1.347 . S
N36 C37 1.373 . S
C37 C34 1.350 . S
C37 N36 1.373 . S
C37 H58 0.931 . S
H38 C33 0.931 . S
H39 C34 0.930 . S
C40 O47 1.259 . S
C40 O48 1.258 . S
N41 Co32 2.057 . S
N41 C42 1.316 . S
N41 C43 1.375 . S
C42 N41 1.316 . S
C42 N44 1.347 . S
C42 H53 0.931 . S
C43 N41 1.375 . S
C43 C45 1.350 . S
C43 H52 0.930 . S
N44 C42 1.347 . S
N44 C45 1.373 . S
C45 C43 1.350 . S
C45 N44 1.373 . S
C45 H59 0.931 . S
C46 O49 1.256 . S
C46 O50 1.255 . S
O47 Co30 2.021 . S
O47 C40 1.259 . S
O48 Co32 2.117 . S
O48 C40 1.258 . S
O49 Co32 2.020 . S
O49 C46 1.256 . S
O50 Co30 2.062 . S
O50 C46 1.255 . S
O51 C31 1.259 . S
O51 Co32 2.021 . S
H52 C43 0.930 . S
H53 C42 0.931 . S
O54 Co30 2.117 . S
O54 C31 1.258 . S
O55 Co30 2.020 . S
O55 C57 1.256 . S
O56 Co32 2.062 . S
O56 C57 1.255 . S
C57 O55 1.256 . S
C57 O56 1.255 . S
H58 C37 0.931 . S
H59 C45 0.931 . S
Co60 N65 2.057 . S
Co60 O77 2.021 . S
Co60 O80 2.062 . S
Co60 O84 2.117 . S
Co60 O85 2.020 . S
C61 O81 1.259 . S
C61 O84 1.258 . S
Co62 N71 2.057 . S
Co62 O78 2.117 . S
Co62 O79 2.020 . S
Co62 O81 2.021 . S
Co62 O86 2.062 . S
C63 N65 1.316 . S
C63 N66 1.347 1_545 S
C63 H68 0.931 . S
C64 N65 1.375 . S
C64 C67 1.350 1_545 S
C64 H69 0.930 . S
N65 Co60 2.057 . S
N65 C63 1.316 . S
N65 C64 1.375 . S
N66 C63 1.347 1_565 S
N66 C67 1.373 . S
C67 C64 1.350 1_565 S
C67 N66 1.373 . S
C67 H88 0.931 . S
H68 C63 0.931 . S
H69 C64 0.930 . S
C70 O77 1.259 . S
C70 O78 1.258 . S
N71 Co62 2.057 . S
N71 C72 1.316 . S
N71 C73 1.375 . S
C72 N71 1.316 . S
C72 N74 1.347 . S
C72 H83 0.931 . S
C73 N71 1.375 . S
C73 C75 1.350 . S
C73 H82 0.930 . S
N74 C72 1.347 . S
N74 C75 1.373 . S
C75 C73 1.350 . S
C75 N74 1.373 . S
C75 H89 0.931 . S
C76 O79 1.256 . S
C76 O80 1.255 . S
O77 Co60 2.021 . S
O77 C70 1.259 . S
O78 Co62 2.117 . S
O78 C70 1.258 . S
O79 Co62 2.020 . S
O79 C76 1.256 . S
O80 Co60 2.062 . S
O80 C76 1.255 . S
O81 C61 1.259 . S
O81 Co62 2.021 . S
H82 C73 0.930 . S
H83 C72 0.931 . S
O84 Co60 2.117 . S
O84 C61 1.258 . S
O85 Co60 2.020 . S
O85 C87 1.256 . S
O86 Co62 2.062 . S
O86 C87 1.255 . S
C87 O85 1.256 . S
C87 O86 1.255 . S
H88 C67 0.931 . S
H89 C75 0.931 . S
Co90 N95 2.057 1_545 S
Co90 O107 2.021 . S
Co90 O110 2.062 . S
Co90 O114 2.117 . S
Co90 O115 2.020 . S
C91 O111 1.259 . S
C91 O114 1.258 . S
Co92 N101 2.057 . S
Co92 O108 2.117 . S
Co92 O109 2.020 . S
Co92 O111 2.021 . S
Co92 O116 2.062 . S
C93 N95 1.316 . S
C93 N96 1.347 . S
C93 H98 0.931 . S
C94 N95 1.375 . S
C94 C97 1.350 . S
C94 H99 0.930 . S
N95 Co90 2.057 1_565 S
N95 C93 1.316 . S
N95 C94 1.375 . S
N96 C93 1.347 . S
N96 C97 1.373 . S
C97 C94 1.350 . S
C97 N96 1.373 . S
C97 H118 0.931 . S
H98 C93 0.931 . S
H99 C94 0.930 . S
C100 O107 1.259 . S
C100 O108 1.258 . S
N101 Co92 2.057 . S
N101 C102 1.316 . S
N101 C103 1.375 . S
C102 N101 1.316 . S
C102 N104 1.347 . S
C102 H113 0.931 . S
C103 N101 1.375 . S
C103 C105 1.350 . S
C103 H112 0.930 . S
N104 C102 1.347 . S
N104 C105 1.373 . S
C105 C103 1.350 . S
C105 N104 1.373 . S
C105 H119 0.931 . S
C106 O109 1.256 . S
C106 O110 1.255 . S
O107 Co90 2.021 . S
O107 C100 1.259 . S
O108 Co92 2.117 . S
O108 C100 1.258 . S
O109 Co92 2.020 . S
O109 C106 1.256 . S
O110 Co90 2.062 . S
O110 C106 1.255 . S
O111 C91 1.259 . S
O111 Co92 2.021 . S
H112 C103 0.930 . S
H113 C102 0.931 . S
O114 Co90 2.117 . S
O114 C91 1.258 . S
O115 Co90 2.020 . S
O115 C117 1.256 . S
O116 Co92 2.062 . S
O116 C117 1.255 . S
C117 O115 1.256 . S
C117 O116 1.255 . S
H118 C97 0.931 . S
H119 C105 0.931 . S
Co120 N125 2.057 . S
Co120 O137 2.021 . S
Co120 O140 2.062 . S
Co120 O144 2.117 . S
Co120 O145 2.020 . S
C121 O141 1.259 . S
C121 O144 1.258 . S
Co122 N131 2.057 . S
Co122 O138 2.117 . S
Co122 O139 2.020 . S
Co122 O141 2.021 . S
Co122 O146 2.062 . S
C123 N125 1.316 . S
C123 N126 1.347 1_655 S
C123 H128 0.931 . S
C124 N125 1.375 . S
C124 C127 1.350 1_655 S
C124 H129 0.930 . S
N125 Co120 2.057 . S
N125 C123 1.316 . S
N125 C124 1.375 . S
N126 C123 1.347 1_455 S
N126 C127 1.373 . S
C127 C124 1.350 1_455 S
C127 N126 1.373 . S
C127 H148 0.931 . S
H128 C123 0.931 . S
H129 C124 0.930 . S
C130 O137 1.259 . S
C130 O138 1.258 . S
N131 Co122 2.057 . S
N131 C132 1.316 . S
N131 C133 1.375 . S
C132 N131 1.316 . S
C132 N134 1.347 . S
C132 H143 0.931 . S
C133 N131 1.375 . S
C133 C135 1.350 . S
C133 H142 0.930 . S
N134 C132 1.347 . S
N134 C135 1.373 . S
C135 C133 1.350 . S
C135 N134 1.373 . S
C135 H149 0.931 . S
C136 O139 1.256 . S
C136 O140 1.255 . S
O137 Co120 2.021 . S
O137 C130 1.259 . S
O138 Co122 2.117 . S
O138 C130 1.258 . S
O139 Co122 2.020 . S
O139 C136 1.256 . S
O140 Co120 2.062 . S
O140 C136 1.255 . S
O141 C121 1.259 . S
O141 Co122 2.021 . S
H142 C133 0.930 . S
H143 C132 0.931 . S
O144 Co120 2.117 . S
O144 C121 1.258 . S
O145 Co120 2.020 . S
O145 C147 1.256 . S
O146 Co122 2.062 . S
O146 C147 1.255 . S
C147 O145 1.256 . S
C147 O146 1.255 . S
H148 C127 0.931 . S
H149 C135 0.931 . S
Co150 N155 2.057 1_655 S
Co150 O167 2.021 . S
Co150 O170 2.062 . S
Co150 O174 2.117 . S
Co150 O175 2.020 . S
C151 O171 1.259 . S
C151 O174 1.258 . S
Co152 N161 2.057 . S
Co152 O168 2.117 . S
Co152 O169 2.020 . S
Co152 O171 2.021 . S
Co152 O176 2.062 . S
C153 N155 1.316 . S
C153 N156 1.347 . S
C153 H158 0.931 . S
C154 N155 1.375 . S
C154 C157 1.350 . S
C154 H159 0.930 . S
N155 Co150 2.057 1_455 S
N155 C153 1.316 . S
N155 C154 1.375 . S
N156 C153 1.347 . S
N156 C157 1.373 . S
C157 C154 1.350 . S
C157 N156 1.373 . S
C157 H178 0.931 . S
H158 C153 0.931 . S
H159 C154 0.930 . S
C160 O167 1.259 . S
C160 O168 1.258 . S
N161 Co152 2.057 . S
N161 C162 1.316 . S
N161 C163 1.375 . S
C162 N161 1.316 . S
C162 N164 1.347 . S
C162 H173 0.931 . S
C163 N161 1.375 . S
C163 C165 1.350 . S
C163 H172 0.930 . S
N164 C162 1.347 . S
N164 C165 1.373 . S
C165 C163 1.350 . S
C165 N164 1.373 . S
C165 H179 0.931 . S
C166 O169 1.256 . S
C166 O170 1.255 . S
O167 Co150 2.021 . S
O167 C160 1.259 . S
O168 Co152 2.117 . S
O168 C160 1.258 . S
O169 Co152 2.020 . S
O169 C166 1.256 . S
O170 Co150 2.062 . S
O170 C166 1.255 . S
O171 C151 1.259 . S
O171 Co152 2.021 . S
H172 C163 0.930 . S
H173 C162 0.931 . S
O174 Co150 2.117 . S
O174 C151 1.258 . S
O175 Co150 2.020 . S
O175 C177 1.256 . S
O176 Co152 2.062 . S
O176 C177 1.255 . S
C177 O175 1.256 . S
C177 O176 1.255 . S
H178 C157 0.931 . S
H179 C165 0.931 . S
Co180 N185 2.057 . S
Co180 O197 2.021 . S
Co180 O200 2.062 . S
Co180 O204 2.117 . S
Co180 O205 2.020 . S
C181 O201 1.259 . S
C181 O204 1.258 . S
Co182 N191 2.057 . S
Co182 O198 2.117 . S
Co182 O199 2.020 . S
Co182 O201 2.021 . S
Co182 O206 2.062 . S
C183 N185 1.316 . S
C183 N186 1.347 . S
C183 H188 0.931 . S
C184 N185 1.375 . S
C184 C187 1.350 . S
C184 H189 0.930 . S
N185 Co180 2.057 . S
N185 C183 1.316 . S
N185 C184 1.375 . S
N186 C183 1.347 . S
N186 C187 1.373 . S
C187 C184 1.350 . S
C187 N186 1.373 . S
C187 H208 0.931 . S
H188 C183 0.931 . S
H189 C184 0.930 . S
C190 O197 1.259 . S
C190 O198 1.258 . S
N191 Co182 2.057 . S
N191 C192 1.316 . S
N191 C193 1.375 . S
C192 N191 1.316 . S
C192 N194 1.347 . S
C192 H203 0.931 . S
C193 N191 1.375 . S
C193 C195 1.350 . S
C193 H202 0.930 . S
N194 C192 1.347 . S
N194 C195 1.373 . S
C195 C193 1.350 . S
C195 N194 1.373 . S
C195 H209 0.931 . S
C196 O199 1.256 . S
C196 O200 1.255 . S
O197 Co180 2.021 . S
O197 C190 1.259 . S
O198 Co182 2.117 . S
O198 C190 1.258 . S
O199 Co182 2.020 . S
O199 C196 1.256 . S
O200 Co180 2.062 . S
O200 C196 1.255 . S
O201 C181 1.259 . S
O201 Co182 2.021 . S
H202 C193 0.930 . S
H203 C192 0.931 . S
O204 Co180 2.117 . S
O204 C181 1.258 . S
O205 Co180 2.020 . S
O205 C207 1.256 . S
O206 Co182 2.062 . S
O206 C207 1.255 . S
C207 O205 1.256 . S
C207 O206 1.255 . S
H208 C187 0.931 . S
H209 C195 0.931 . S
Co210 N215 2.057 . S
Co210 O227 2.021 . S
Co210 O230 2.062 . S
Co210 O234 2.117 . S
Co210 O235 2.020 . S
C211 O231 1.259 . S
C211 O234 1.258 . S
Co212 N221 2.057 . S
Co212 O228 2.117 . S
Co212 O229 2.020 . S
Co212 O231 2.021 . S
Co212 O236 2.062 . S
C213 N215 1.316 . S
C213 N216 1.347 1_455 S
C213 H218 0.931 . S
C214 N215 1.375 . S
C214 C217 1.350 1_455 S
C214 H219 0.930 . S
N215 Co210 2.057 . S
N215 C213 1.316 . S
N215 C214 1.375 . S
N216 C213 1.347 1_655 S
N216 C217 1.373 . S
C217 C214 1.350 1_655 S
C217 N216 1.373 . S
C217 H238 0.931 . S
H218 C213 0.931 . S
H219 C214 0.930 . S
C220 O227 1.259 . S
C220 O228 1.258 . S
N221 Co212 2.057 . S
N221 C222 1.316 . S
N221 C223 1.375 . S
C222 N221 1.316 . S
C222 N224 1.347 . S
C222 H233 0.931 . S
C223 N221 1.375 . S
C223 C225 1.350 . S
C223 H232 0.930 . S
N224 C222 1.347 . S
N224 C225 1.373 . S
C225 C223 1.350 . S
C225 N224 1.373 . S
C225 H239 0.931 . S
C226 O229 1.256 . S
C226 O230 1.255 . S
O227 Co210 2.021 . S
O227 C220 1.259 . S
O228 Co212 2.117 . S
O228 C220 1.258 . S
O229 Co212 2.020 . S
O229 C226 1.256 . S
O230 Co210 2.062 . S
O230 C226 1.255 . S
O231 C211 1.259 . S
O231 Co212 2.021 . S
H232 C223 0.930 . S
H233 C222 0.931 . S
O234 Co210 2.117 . S
O234 C211 1.258 . S
O235 Co210 2.020 . S
O235 C237 1.256 . S
O236 Co212 2.062 . S
O236 C237 1.255 . S
C237 O235 1.256 . S
C237 O236 1.255 . S
H238 C217 0.931 . S
H239 C225 0.931 . S
Co240 N245 2.057 . S
Co240 O257 2.021 . S
Co240 O260 2.062 . S
Co240 O264 2.117 . S
Co240 O265 2.020 . S
C241 O261 1.259 . S
C241 O264 1.258 . S
Co242 N251 2.057 . S
Co242 O258 2.117 . S
Co242 O259 2.020 . S
Co242 O261 2.021 . S
Co242 O266 2.062 . S
C243 N245 1.316 . S
C243 N246 1.347 . S
C243 H248 0.931 . S
C244 N245 1.375 . S
C244 C247 1.350 . S
C244 H249 0.930 . S
N245 Co240 2.057 . S
N245 C243 1.316 . S
N245 C244 1.375 . S
N246 C243 1.347 . S
N246 C247 1.373 . S
C247 C244 1.350 . S
C247 N246 1.373 . S
C247 H268 0.931 . S
H248 C243 0.931 . S
H249 C244 0.930 . S
C250 O257 1.259 . S
C250 O258 1.258 . S
N251 Co242 2.057 . S
N251 C252 1.316 . S
N251 C253 1.375 . S
C252 N251 1.316 . S
C252 N254 1.347 1_565 S
C252 H263 0.931 . S
C253 N251 1.375 . S
C253 C255 1.350 1_565 S
C253 H262 0.930 . S
N254 C252 1.347 1_545 S
N254 C255 1.373 . S
C255 C253 1.350 1_545 S
C255 N254 1.373 . S
C255 H269 0.931 . S
C256 O259 1.256 . S
C256 O260 1.255 . S
O257 Co240 2.021 . S
O257 C250 1.259 . S
O258 Co242 2.117 . S
O258 C250 1.258 . S
O259 Co242 2.020 . S
O259 C256 1.256 . S
O260 Co240 2.062 . S
O260 C256 1.255 . S
O261 C241 1.259 . S
O261 Co242 2.021 . S
H262 C253 0.930 . S
H263 C252 0.931 . S
O264 Co240 2.117 . S
O264 C241 1.258 . S
O265 Co240 2.020 . S
O265 C267 1.256 . S
O266 Co242 2.062 . S
O266 C267 1.255 . S
C267 O265 1.256 . S
C267 O266 1.255 . S
H268 C247 0.931 . S
H269 C255 0.931 . S
Co270 N275 2.057 . S
Co270 O287 2.021 . S
Co270 O290 2.062 . S
Co270 O294 2.117 . S
Co270 O295 2.020 . S
C271 O291 1.259 . S
C271 O294 1.258 . S
Co272 N281 2.057 . S
Co272 O288 2.117 . S
Co272 O289 2.020 . S
Co272 O291 2.021 . S
Co272 O296 2.062 . S
C273 N275 1.316 . S
C273 N276 1.347 . S
C273 H278 0.931 . S
C274 N275 1.375 . S
C274 C277 1.350 . S
C274 H279 0.930 . S
N275 Co270 2.057 . S
N275 C273 1.316 . S
N275 C274 1.375 . S
N276 C273 1.347 . S
N276 C277 1.373 . S
C277 C274 1.350 . S
C277 N276 1.373 . S
C277 H298 0.931 . S
H278 C273 0.931 . S
H279 C274 0.930 . S
C280 O287 1.259 . S
C280 O288 1.258 . S
N281 Co272 2.057 . S
N281 C282 1.316 . S
N281 C283 1.375 . S
C282 N281 1.316 . S
C282 N284 1.347 . S
C282 H293 0.931 . S
C283 N281 1.375 . S
C283 C285 1.350 . S
C283 H292 0.930 . S
N284 C282 1.347 . S
N284 C285 1.373 . S
C285 C283 1.350 . S
C285 N284 1.373 . S
C285 H299 0.931 . S
C286 O289 1.256 . S
C286 O290 1.255 . S
O287 Co270 2.021 . S
O287 C280 1.259 . S
O288 Co272 2.117 . S
O288 C280 1.258 . S
O289 Co272 2.020 . S
O289 C286 1.256 . S
O290 Co270 2.062 . S
O290 C286 1.255 . S
O291 C271 1.259 . S
O291 Co272 2.021 . S
H292 C283 0.930 . S
H293 C282 0.931 . S
O294 Co270 2.117 . S
O294 C271 1.258 . S
O295 Co270 2.020 . S
O295 C297 1.256 . S
O296 Co272 2.062 . S
O296 C297 1.255 . S
C297 O295 1.256 . S
C297 O296 1.255 . S
H298 C277 0.931 . S
H299 C285 0.931 . S
Co300 N305 2.057 . S
Co300 O317 2.021 . S
Co300 O320 2.062 . S
Co300 O324 2.117 . S
Co300 O325 2.020 . S
C301 O321 1.259 . S
C301 O324 1.258 . S
Co302 N311 2.057 . S
Co302 O318 2.117 . S
Co302 O319 2.020 . S
Co302 O321 2.021 . S
Co302 O326 2.062 . S
C303 N305 1.316 . S
C303 N306 1.347 . S
C303 H308 0.931 . S
C304 N305 1.375 . S
C304 C307 1.350 . S
C304 H309 0.930 . S
N305 Co300 2.057 . S
N305 C303 1.316 . S
N305 C304 1.375 . S
N306 C303 1.347 . S
N306 C307 1.373 . S
C307 C304 1.350 . S
C307 N306 1.373 . S
C307 H328 0.931 . S
H308 C303 0.931 . S
H309 C304 0.930 . S
C310 O317 1.259 . S
C310 O318 1.258 . S
N311 Co302 2.057 . S
N311 C312 1.316 . S
N311 C313 1.375 . S
C312 N311 1.316 . S
C312 N314 1.347 1_455 S
C312 H323 0.931 . S
C313 N311 1.375 . S
C313 C315 1.350 1_455 S
C313 H322 0.930 . S
N314 C312 1.347 1_655 S
N314 C315 1.373 . S
C315 C313 1.350 1_655 S
C315 N314 1.373 . S
C315 H329 0.931 . S
C316 O319 1.256 . S
C316 O320 1.255 . S
O317 Co300 2.021 . S
O317 C310 1.259 . S
O318 Co302 2.117 . S
O318 C310 1.258 . S
O319 Co302 2.020 . S
O319 C316 1.256 . S
O320 Co300 2.062 . S
O320 C316 1.255 . S
O321 C301 1.259 . S
O321 Co302 2.021 . S
H322 C313 0.930 . S
H323 C312 0.931 . S
O324 Co300 2.117 . S
O324 C301 1.258 . S
O325 Co300 2.020 . S
O325 C327 1.256 . S
O326 Co302 2.062 . S
O326 C327 1.255 . S
C327 O325 1.256 . S
C327 O326 1.255 . S
H328 C307 0.931 . S
H329 C315 0.931 . S
Co330 N335 2.057 . S
Co330 O347 2.021 . S
Co330 O350 2.062 . S
Co330 O354 2.117 . S
Co330 O355 2.020 . S
C331 O351 1.259 . S
C331 O354 1.258 . S
Co332 N341 2.057 . S
Co332 O348 2.117 . S
Co332 O349 2.020 . S
Co332 O351 2.021 . S
Co332 O356 2.062 . S
C333 N335 1.316 . S
C333 N336 1.347 1_565 S
C333 H338 0.931 . S
C334 N335 1.375 . S
C334 C337 1.350 1_565 S
C334 H339 0.930 . S
N335 Co330 2.057 . S
N335 C333 1.316 . S
N335 C334 1.375 . S
N336 C333 1.347 1_545 S
N336 C337 1.373 . S
C337 C334 1.350 1_545 S
C337 N336 1.373 . S
C337 H358 0.931 . S
H338 C333 0.931 . S
H339 C334 0.930 . S
C340 O347 1.259 . S
C340 O348 1.258 . S
N341 Co332 2.057 . S
N341 C342 1.316 . S
N341 C343 1.375 . S
C342 N341 1.316 . S
C342 N344 1.347 . S
C342 H353 0.931 . S
C343 N341 1.375 . S
C343 C345 1.350 . S
C343 H352 0.930 . S
N344 C342 1.347 . S
N344 C345 1.373 . S
C345 C343 1.350 . S
C345 N344 1.373 . S
C345 H359 0.931 . S
C346 O349 1.256 . S
C346 O350 1.255 . S
O347 Co330 2.021 . S
O347 C340 1.259 . S
O348 Co332 2.117 . S
O348 C340 1.258 . S
O349 Co332 2.020 . S
O349 C346 1.256 . S
O350 Co330 2.062 . S
O350 C346 1.255 . S
O351 C331 1.259 . S
O351 Co332 2.021 . S
H352 C343 0.930 . S
H353 C342 0.931 . S
O354 Co330 2.117 . S
O354 C331 1.258 . S
O355 Co330 2.020 . S
O355 C357 1.256 . S
O356 Co332 2.062 . S
O356 C357 1.255 . S
C357 O355 1.256 . S
C357 O356 1.255 . S
H358 C337 0.931 . S
H359 C345 0.931 . S
C360 C361 1.369 . S
C360 C362 1.419 . S
C360 H364 0.930 1_455 S
C361 C360 1.369 . S
C361 C370 1.429 . S
C362 C360 1.419 . S
C362 C363 1.363 . S
C362 H365 0.929 . S
C363 C362 1.363 . S
C363 C369 1.428 . S
H364 C360 0.930 1_655 S
H365 C362 0.929 . S
S366 N367 1.613 . S
S366 N368 1.610 . S
N367 S366 1.613 . S
N367 C370 1.350 . S
N368 S366 1.610 . S
N368 C369 1.351 . S
C369 C363 1.428 . S
C369 N368 1.351 . S
C369 C370 1.434 . S
C370 C361 1.429 . S
C370 N367 1.350 . S
C370 C369 1.434 . S
C371 C372 1.369 . S
C371 C373 1.419 1_455 S
C371 H375 0.930 . S
C372 C371 1.369 . S
C372 C381 1.429 . S
C373 C371 1.419 1_655 S
C373 C374 1.363 . S
C373 H376 0.929 . S
C374 C373 1.363 . S
C374 C380 1.428 1_655 S
H375 C371 0.930 . S
H376 C373 0.929 . S
S377 N378 1.613 . S
S377 N379 1.610 . S
N378 S377 1.613 . S
N378 C381 1.350 . S
N379 S377 1.610 . S
N379 C380 1.351 . S
C380 C374 1.428 1_455 S
C380 N379 1.351 . S
C380 C381 1.434 . S
C381 C372 1.429 . S
C381 N378 1.350 . S
C381 C380 1.434 . S
C382 C383 1.369 . S
C382 C384 1.419 . S
C382 H386 0.930 . S
C383 C382 1.369 . S
C383 C392 1.429 . S
C384 C382 1.419 . S
C384 C385 1.363 . S
C384 H387 0.929 . S
C385 C384 1.363 . S
C385 C391 1.428 . S
H386 C382 0.930 . S
H387 C384 0.929 . S
S388 N389 1.613 . S
S388 N390 1.610 . S
N389 S388 1.613 . S
N389 C392 1.350 . S
N390 S388 1.610 . S
N390 C391 1.351 . S
C391 C385 1.428 . S
C391 N390 1.351 . S
C391 C392 1.434 . S
C392 C383 1.429 . S
C392 N389 1.350 . S
C392 C391 1.434 . S
C393 C394 1.369 . S
C393 C395 1.419 . S
C393 H397 0.930 . S
C394 C393 1.369 . S
C394 C403 1.429 . S
C395 C393 1.419 . S
C395 C396 1.363 . S
C395 H398 0.929 . S
C396 C395 1.363 . S
C396 C402 1.428 . S
H397 C393 0.930 . S
H398 C395 0.929 . S
S399 N400 1.613 . S
S399 N401 1.610 . S
N400 S399 1.613 . S
N400 C403 1.350 . S
N401 S399 1.610 . S
N401 C402 1.351 . S
C402 C396 1.428 . S
C402 N401 1.351 . S
C402 C403 1.434 . S
C403 C394 1.429 . S
C403 N400 1.350 . S
C403 C402 1.434 . S
C404 C405 1.369 . S
C404 C406 1.419 . S
C404 H408 0.930 . S
C405 C404 1.369 . S
C405 C414 1.429 . S
C406 C404 1.419 . S
C406 C407 1.363 . S
C406 H409 0.929 . S
C407 C406 1.363 . S
C407 C413 1.428 . S
H408 C404 0.930 . S
H409 C406 0.929 . S
S410 N411 1.613 . S
S410 N412 1.610 1_545 S
N411 S410 1.613 . S
N411 C414 1.350 1_545 S
N412 S410 1.610 1_565 S
N412 C413 1.351 . S
C413 C407 1.428 . S
C413 N412 1.351 . S
C413 C414 1.434 . S
C414 C405 1.429 . S
C414 N411 1.350 1_565 S
C414 C413 1.434 . S
C415 C416 1.369 . S
C415 C417 1.419 1_565 S
C415 H419 0.930 . S
C416 C415 1.369 . S
C416 C425 1.429 . S
C417 C415 1.419 1_545 S
C417 C418 1.363 . S
C417 H420 0.929 . S
C418 C417 1.363 . S
C418 C424 1.428 1_545 S
H419 C415 0.930 . S
H420 C417 0.929 . S
S421 N422 1.613 . S
S421 N423 1.610 1_565 S
N422 S421 1.613 . S
N422 C425 1.350 . S
N423 S421 1.610 1_545 S
N423 C424 1.351 1_545 S
C424 C418 1.428 1_565 S
C424 N423 1.351 1_565 S
C424 C425 1.434 . S
C425 C416 1.429 . S
C425 N422 1.350 . S
C425 C424 1.434 . S
C426 C427 1.369 . S
C426 C428 1.419 . S
C426 H430 0.930 1_545 S
C427 C426 1.369 . S
C427 C436 1.429 . S
C428 C426 1.419 . S
C428 C429 1.363 . S
C428 H431 0.929 . S
C429 C428 1.363 . S
C429 C435 1.428 . S
H430 C426 0.930 1_565 S
H431 C428 0.929 . S
S432 N433 1.613 . S
S432 N434 1.610 . S
N433 S432 1.613 . S
N433 C436 1.350 . S
N434 S432 1.610 . S
N434 C435 1.351 . S
C435 C429 1.428 . S
C435 N434 1.351 . S
C435 C436 1.434 . S
C436 C427 1.429 . S
C436 N433 1.350 . S
C436 C435 1.434 . S
C437 C438 1.369 . S
C437 C439 1.419 . S
C437 H441 0.930 . S
C438 C437 1.369 . S
C438 C447 1.429 . S
C439 C437 1.419 . S
C439 C440 1.363 . S
C439 H442 0.929 . S
C440 C439 1.363 . S
C440 C446 1.428 . S
H441 C437 0.930 . S
H442 C439 0.929 . S
S443 N444 1.613 . S
S443 N445 1.610 . S
N444 S443 1.613 . S
N444 C447 1.350 . S
N445 S443 1.610 . S
N445 C446 1.351 . S
C446 C440 1.428 . S
C446 N445 1.351 . S
C446 C447 1.434 . S
C447 C438 1.429 . S
C447 N444 1.350 . S
C447 C446 1.434 . S
C448 C449 1.369 . S
C448 C450 1.419 . S
C448 H452 0.930 . S
C449 C448 1.369 . S
C449 C458 1.429 . S
C450 C448 1.419 . S
C450 C451 1.363 . S
C450 H453 0.929 1_655 S
C451 C450 1.363 . S
C451 C457 1.428 . S
H452 C448 0.930 . S
H453 C450 0.929 1_455 S
S454 N455 1.613 . S
S454 N456 1.610 . S
N455 S454 1.613 . S
N455 C458 1.350 . S
N456 S454 1.610 . S
N456 C457 1.351 . S
C457 C451 1.428 . S
C457 N456 1.351 . S
C457 C458 1.434 . S
C458 C449 1.429 . S
C458 N455 1.350 . S
C458 C457 1.434 . S
C459 C460 1.369 . S
C459 C461 1.419 . S
C459 H463 0.930 . S
C460 C459 1.369 . S
C460 C469 1.429 . S
C461 C459 1.419 . S
C461 C462 1.363 . S
C461 H464 0.929 . S
C462 C461 1.363 . S
C462 C468 1.434 1_545 S
H463 C459 0.930 . S
H464 C461 0.929 . S
S465 N466 1.613 1_565 S
S465 N467 1.610 . S
N466 S465 1.613 1_545 S
N466 C469 1.350 . S
N467 S465 1.610 . S
N467 C468 1.366 . S
C468 C462 1.434 1_565 S
C468 N467 1.366 . S
C468 C469 1.412 1_565 S
C469 C460 1.429 . S
C469 N466 1.350 . S
C469 C468 1.412 1_545 S
C470 C471 1.369 . S
C470 C472 1.419 . S
C470 H474 0.930 . S
C471 C470 1.369 . S
C471 C480 1.429 . S
C472 C470 1.419 . S
C472 C473 1.363 . S
C472 H475 0.929 . S
C473 C472 1.363 . S
C473 C479 1.428 . S
H474 C470 0.930 . S
H475 C472 0.929 . S
S476 N477 1.613 . S
S476 N478 1.610 . S
N477 S476 1.613 . S
N477 C480 1.350 . S
N478 S476 1.610 . S
N478 C479 1.351 . S
C479 C473 1.428 . S
C479 N478 1.351 . S
C479 C480 1.434 . S
C480 C471 1.429 . S
C480 N477 1.350 . S
C480 C479 1.434 . S
C481 C482 1.369 . S
C481 C483 1.419 . S
C481 H485 0.930 . S
C482 C481 1.369 . S
C482 C491 1.429 . S
C483 C481 1.419 . S
C483 C484 1.363 . S
C483 H486 0.929 . S
C484 C483 1.363 . S
C484 C490 1.428 . S
H485 C481 0.930 . S
H486 C483 0.929 . S
S487 N488 1.613 1_655 S
S487 N489 1.611 . S
N488 S487 1.613 1_455 S
N488 C491 1.350 1_455 S
N489 S487 1.611 . S
N489 C490 1.351 . S
C490 C484 1.428 . S
C490 N489 1.351 . S
C490 C491 1.434 . S
C491 C482 1.429 . S
C491 N488 1.350 1_655 S
C491 C490 1.434 . S
C492 C493 1.369 . S
C492 C494 1.419 . S
C492 H496 0.930 . S
C493 C492 1.369 . S
C493 C502 1.429 . S
C494 C492 1.419 . S
C494 C495 1.363 . S
C494 H497 0.929 . S
C495 C494 1.363 . S
C495 C501 1.428 . S
H496 C492 0.930 . S
H497 C494 0.929 . S
S498 N499 1.613 . S
S498 N500 1.610 . S
N499 S498 1.613 . S
N499 C502 1.350 . S
N500 S498 1.610 . S
N500 C501 1.351 . S
C501 C495 1.428 . S
C501 N500 1.351 . S
C501 C502 1.434 . S
C502 C493 1.429 . S
C502 N499 1.350 . S
C502 C501 1.434 . S
C503 C504 1.369 . S
C503 C505 1.419 . S
C503 H507 0.930 . S
C504 C503 1.369 . S
C504 C513 1.429 . S
C505 C503 1.419 . S
C505 C506 1.363 . S
C505 H508 0.929 . S
C506 C505 1.363 . S
C506 C512 1.428 . S
H507 C503 0.930 . S
H508 C505 0.929 . S
S509 N510 1.613 . S
S509 N511 1.610 . S
N510 S509 1.613 . S
N510 C513 1.350 . S
N511 S509 1.610 . S
N511 C512 1.351 . S
C512 C506 1.428 . S
C512 N511 1.351 . S
C512 C513 1.434 . S
C513 C504 1.429 . S
C513 N510 1.350 . S
C513 C512 1.434 . S
C514 C515 1.369 . S
C514 C516 1.419 . S
C514 H518 0.930 . S
C515 C514 1.369 . S
C515 C524 1.429 . S
C516 C514 1.419 . S
C516 C517 1.363 . S
C516 H519 0.929 . S
C517 C516 1.363 . S
C517 C523 1.428 . S
H518 C514 0.930 . S
H519 C516 0.929 . S
S520 N521 1.613 . S
S520 N522 1.610 . S
N521 S520 1.613 . S
N521 C524 1.350 . S
N522 S520 1.610 . S
N522 C523 1.351 . S
C523 C517 1.428 . S
C523 N522 1.351 . S
C523 C524 1.434 . S
C524 C515 1.429 . S
C524 N521 1.350 . S
C524 C523 1.434 . S
C525 C526 1.369 . S
C525 C527 1.419 . S
C525 H529 0.930 . S
C526 C525 1.369 . S
C526 C535 1.429 . S
C527 C525 1.419 . S
C527 C528 1.363 . S
C527 H530 0.929 . S
C528 C527 1.363 . S
C528 C534 1.428 . S
H529 C525 0.930 . S
H530 C527 0.929 . S
S531 N532 1.613 . S
S531 N533 1.610 . S
N532 S531 1.613 . S
N532 C535 1.350 . S
N533 S531 1.610 . S
N533 C534 1.351 . S
C534 C528 1.428 . S
C534 N533 1.351 . S
C534 C535 1.434 . S
C535 C526 1.429 . S
C535 N532 1.350 . S
C535 C534 1.434 . S
C536 C537 1.369 . S
C536 C538 1.419 . S
C536 H540 0.930 . S
C537 C536 1.369 . S
C537 C546 1.429 . S
C538 C536 1.419 . S
C538 C539 1.363 . S
C538 H541 0.929 . S
C539 C538 1.363 . S
C539 C545 1.428 . S
H540 C536 0.930 . S
H541 C538 0.929 . S
S542 N543 1.613 . S
S542 N544 1.610 . S
N543 S542 1.613 . S
N543 C546 1.350 . S
N544 S542 1.610 . S
N544 C545 1.351 . S
C545 C539 1.428 . S
C545 N544 1.351 . S
C545 C546 1.434 . S
C546 C537 1.429 . S
C546 N543 1.350 . S
C546 C545 1.434 . S
C547 C548 1.369 . S
C547 C549 1.419 . S
C547 H551 0.930 . S
C548 C547 1.369 . S
C548 C557 1.429 . S
C549 C547 1.419 . S
C549 C550 1.363 . S
C549 H552 0.929 . S
C550 C549 1.363 . S
C550 C556 1.428 . S
H551 C547 0.930 . S
H552 C549 0.929 . S
S553 N554 1.613 . S
S553 N555 1.610 . S
N554 S553 1.613 . S
N554 C557 1.350 . S
N555 S553 1.610 . S
N555 C556 1.351 . S
C556 C550 1.428 . S
C556 N555 1.351 . S
C556 C557 1.434 . S
C557 C548 1.429 . S
C557 N554 1.350 . S
C557 C556 1.434 . S
C558 C559 1.369 1_554 S
C558 C560 1.426 . S
C558 H562 0.930 . S
C559 C558 1.369 1_556 S
C559 C568 1.429 1_565 S
C560 C558 1.426 . S
C560 C561 1.356 1_565 S
C560 H563 0.929 . S
C561 C560 1.356 1_545 S
C561 C567 1.428 1_554 S
H562 C558 0.930 . S
H563 C560 0.929 . S
S564 N565 1.613 . S
S564 N566 1.610 . S
N565 S564 1.613 . S
N565 C568 1.350 . S
N566 S564 1.610 . S
N566 C567 1.351 . S
C567 C561 1.428 1_556 S
C567 N566 1.351 . S
C567 C568 1.434 . S
C568 C559 1.429 1_545 S
C568 N565 1.350 . S
C568 C567 1.434 . S
C569 C570 1.369 . S
C569 C571 1.419 . S
C569 H573 0.930 . S
C570 C569 1.369 . S
C570 C579 1.429 . S
C571 C569 1.419 . S
C571 C572 1.363 . S
C571 H574 0.929 . S
C572 C571 1.363 . S
C572 C578 1.428 . S
H573 C569 0.930 . S
H574 C571 0.929 . S
S575 N576 1.613 . S
S575 N577 1.610 . S
N576 S575 1.613 . S
N576 C579 1.350 . S
N577 S575 1.610 . S
N577 C578 1.351 . S
C578 C572 1.428 . S
C578 N577 1.351 . S
C578 C579 1.434 . S
C579 C570 1.429 . S
C579 N576 1.350 . S
C579 C578 1.434 . S
C580 C581 1.369 . S
C580 C582 1.419 1_455 S
C580 H584 0.930 . S
C581 C580 1.369 . S
C581 C590 1.429 1_556 S
C582 C580 1.419 1_655 S
C582 C583 1.363 1_556 S
C582 H585 0.929 . S
C583 C582 1.363 1_554 S
C583 C589 1.428 . S
H584 C580 0.930 . S
H585 C582 0.929 . S
S586 N587 1.613 . S
S586 N588 1.610 1_455 S
N587 S586 1.613 . S
N587 C590 1.350 . S
N588 S586 1.610 1_655 S
N588 C589 1.351 . S
C589 C583 1.428 . S
C589 N588 1.351 . S
C589 C590 1.434 1_655 S
C590 C581 1.429 1_554 S
C590 N587 1.350 . S
C590 C589 1.434 1_455 S
C591 C592 1.369 . S
C591 C593 1.419 1_545 S
C591 H595 0.930 . S
C592 C591 1.369 . S
C592 C601 1.429 . S
C593 C591 1.419 1_565 S
C593 C594 1.363 . S
C593 H596 0.929 . S
C594 C593 1.363 . S
C594 C600 1.428 . S
H595 C591 0.930 . S
H596 C593 0.929 . S
S597 N598 1.613 . S
S597 N599 1.610 . S
N598 S597 1.613 . S
N598 C601 1.350 1_565 S
N599 S597 1.610 . S
N599 C600 1.351 . S
C600 C594 1.428 . S
C600 N599 1.351 . S
C600 C601 1.434 1_565 S
C601 C592 1.429 . S
C601 N598 1.350 1_545 S
C601 C600 1.434 1_545 S
C602 C603 1.369 . S
C602 C604 1.419 . S
C602 H606 0.930 . S
C603 C602 1.369 . S
C603 C612 1.429 1_554 S
C604 C602 1.419 . S
C604 C605 1.363 1_554 S
C604 H607 0.929 . S
C605 C604 1.363 1_556 S
C605 C611 1.428 . S
H606 C602 0.930 . S
H607 C604 0.929 . S
S608 N609 1.613 . S
S608 N610 1.610 . S
N609 S608 1.613 . S
N609 C612 1.350 . S
N610 S608 1.610 . S
N610 C611 1.351 . S
C611 C605 1.428 . S
C611 N610 1.351 . S
C611 C612 1.434 . S
C612 C603 1.429 1_556 S
C612 N609 1.350 . S
C612 C611 1.434 . S
C613 C614 1.369 . S
C613 C615 1.419 1_455 S
C613 H617 0.930 . S
C614 C613 1.369 . S
C614 C623 1.429 . S
C615 C613 1.419 1_655 S
C615 C616 1.363 . S
C615 H618 0.929 . S
C616 C615 1.363 . S
C616 C622 1.445 . S
H617 C613 0.930 . S
H618 C615 0.929 . S
S619 N620 1.613 . S
S619 N621 1.610 . S
N620 S619 1.613 . S
N620 C623 1.350 . S
N621 S619 1.610 . S
N621 C622 1.345 1_455 S
C622 C616 1.445 . S
C622 N621 1.345 1_655 S
C622 C623 1.421 1_655 S
C623 C614 1.429 . S
C623 N620 1.350 . S
C623 C622 1.421 1_455 S
C624 C625 1.369 . S
C624 C626 1.419 . S
C624 H628 0.930 . S
C625 C624 1.369 . S
C625 C634 1.429 . S
C626 C624 1.419 . S
C626 C627 1.363 . S
C626 H629 0.929 . S
C627 C626 1.363 . S
C627 C633 1.428 . S
H628 C624 0.930 . S
H629 C626 0.929 . S
S630 N631 1.613 . S
S630 N632 1.610 . S
N631 S630 1.613 . S
N631 C634 1.350 . S
N632 S630 1.610 . S
N632 C633 1.351 . S
C633 C627 1.428 . S
C633 N632 1.351 . S
C633 C634 1.434 . S
C634 C625 1.429 . S
C634 N631 1.350 . S
C634 C633 1.434 . S
C635 C636 1.369 . S
C635 C637 1.419 . S
C635 H639 0.930 . S
C636 C635 1.369 . S
C636 C645 1.429 . S
C637 C635 1.419 . S
C637 C638 1.363 . S
C637 H640 0.929 . S
C638 C637 1.363 . S
C638 C644 1.428 . S
H639 C635 0.930 . S
H640 C637 0.929 . S
S641 N642 1.613 . S
S641 N643 1.610 . S
N642 S641 1.613 . S
N642 C645 1.350 . S
N643 S641 1.610 . S
N643 C644 1.351 . S
C644 C638 1.428 . S
C644 N643 1.351 . S
C644 C645 1.434 . S
C645 C636 1.429 . S
C645 N642 1.350 . S
C645 C644 1.434 . S
C646 C647 1.369 . S
C646 C648 1.419 . S
C646 H650 0.930 . S
C647 C646 1.369 . S
C647 C656 1.429 . S
C648 C646 1.419 . S
C648 C649 1.363 . S
C648 H651 0.929 . S
C649 C648 1.363 . S
C649 C655 1.428 . S
H650 C646 0.930 . S
H651 C648 0.929 . S
S652 N653 1.613 . S
S652 N654 1.610 . S
N653 S652 1.613 . S
N653 C656 1.350 . S
N654 S652 1.610 . S
N654 C655 1.351 . S
C655 C649 1.428 . S
C655 N654 1.351 . S
C655 C656 1.434 . S
C656 C647 1.429 . S
C656 N653 1.350 . S
C656 C655 1.434 . S
C657 C658 1.369 . S
C657 C659 1.419 . S
C657 H661 0.930 . S
C658 C657 1.369 . S
C658 C667 1.429 . S
C659 C657 1.419 . S
C659 C660 1.363 . S
C659 H662 0.929 . S
C660 C659 1.363 . S
C660 C666 1.428 . S
H661 C657 0.930 . S
H662 C659 0.929 . S
S663 N664 1.613 . S
S663 N665 1.610 . S
N664 S663 1.613 . S
N664 C667 1.350 . S
N665 S663 1.610 . S
N665 C666 1.351 . S
C666 C660 1.428 . S
C666 N665 1.351 . S
C666 C667 1.434 . S
C667 C658 1.429 . S
C667 N664 1.350 . S
C667 C666 1.434 . S
C668 C669 1.369 . S
C668 C670 1.419 . S
C668 H672 0.930 . S
C669 C668 1.369 . S
C669 C678 1.429 . S
C670 C668 1.419 . S
C670 C671 1.363 . S
C670 H673 0.929 . S
C671 C670 1.363 . S
C671 C677 1.428 . S
H672 C668 0.930 . S
H673 C670 0.929 . S
S674 N675 1.613 . S
S674 N676 1.610 . S
N675 S674 1.613 . S
N675 C678 1.350 . S
N676 S674 1.610 . S
N676 C677 1.351 . S
C677 C671 1.428 . S
C677 N676 1.351 . S
C677 C678 1.434 . S
C678 C669 1.429 . S
C678 N675 1.350 . S
C678 C677 1.434 . S
C679 C680 1.369 . S
C679 C681 1.419 . S
C679 H683 0.930 . S
C680 C679 1.369 . S
C680 C689 1.429 . S
C681 C679 1.419 . S
C681 C682 1.363 . S
C681 H684 0.929 . S
C682 C681 1.363 . S
C682 C688 1.428 . S
H683 C679 0.930 . S
H684 C681 0.929 . S
S685 N686 1.613 1_455 S
S685 N687 1.610 1_455 S
N686 S685 1.613 1_655 S
N686 C689 1.350 . S
N687 S685 1.610 1_655 S
N687 C688 1.351 . S
C688 C682 1.428 . S
C688 N687 1.351 . S
C688 C689 1.434 . S
C689 C680 1.429 . S
C689 N686 1.350 . S
C689 C688 1.434 . S
C690 C691 1.369 . S
C690 C692 1.419 . S
C690 H694 0.930 . S
C691 C690 1.369 . S
C691 C700 1.429 . S
C692 C690 1.419 . S
C692 C693 1.363 . S
C692 H695 0.929 . S
C693 C692 1.363 . S
C693 C699 1.428 . S
H694 C690 0.930 . S
H695 C692 0.929 . S
S696 N697 1.613 . S
S696 N698 1.610 . S
N697 S696 1.613 . S
N697 C700 1.350 . S
N698 S696 1.610 . S
N698 C699 1.351 . S
C699 C693 1.428 . S
C699 N698 1.351 . S
C699 C700 1.434 . S
C700 C691 1.429 . S
C700 N697 1.350 . S
C700 C699 1.434 . S
C701 C702 1.369 . S
C701 C703 1.419 . S
C701 H705 0.930 . S
C702 C701 1.369 . S
C702 C711 1.429 . S
C703 C701 1.419 . S
C703 C704 1.363 . S
C703 H706 0.929 . S
C704 C703 1.363 . S
C704 C710 1.428 . S
H705 C701 0.930 . S
H706 C703 0.929 . S
S707 N708 1.613 1_545 S
S707 N709 1.610 1_545 S
N708 S707 1.613 1_565 S
N708 C711 1.350 . S
N709 S707 1.610 1_565 S
N709 C710 1.351 . S
C710 C704 1.428 . S
C710 N709 1.351 . S
C710 C711 1.434 . S
C711 C702 1.429 . S
C711 N708 1.350 . S
C711 C710 1.434 . S
C712 C713 1.369 . S
C712 C714 1.419 . S
C712 H716 0.930 . S
C713 C712 1.369 . S
C713 C722 1.429 . S
C714 C712 1.419 . S
C714 C715 1.363 . S
C714 H717 0.929 . S
C715 C714 1.363 . S
C715 C721 1.428 . S
H716 C712 0.930 . S
H717 C714 0.929 . S
S718 N719 1.613 . S
S718 N720 1.610 . S
N719 S718 1.613 . S
N719 C722 1.350 . S
N720 S718 1.610 . S
N720 C721 1.351 . S
C721 C715 1.428 . S
C721 N720 1.351 . S
C721 C722 1.434 . S
C722 C713 1.429 . S
C722 N719 1.350 . S
C722 C721 1.434 . S
C723 C724 1.369 . S
C723 C725 1.419 . S
C723 H727 0.930 . S
C724 C723 1.369 . S
C724 C733 1.429 . S
C725 C723 1.419 . S
C725 C726 1.363 . S
C725 H728 0.929 . S
C726 C725 1.363 . S
C726 C732 1.428 . S
H727 C723 0.930 . S
H728 C725 0.929 . S
S729 N730 1.613 . S
S729 N731 1.610 . S
N730 S729 1.613 . S
N730 C733 1.350 . S
N731 S729 1.610 . S
N731 C732 1.351 . S
C732 C726 1.428 . S
C732 N731 1.351 . S
C732 C733 1.434 . S
C733 C724 1.429 . S
C733 N730 1.350 . S
C733 C732 1.434 . S
C734 C735 1.369 . S
C734 C736 1.419 . S
C734 H738 0.930 . S
C735 C734 1.369 . S
C735 C744 1.429 . S
C736 C734 1.419 . S
C736 C737 1.363 . S
C736 H739 0.929 . S
C737 C736 1.363 . S
C737 C743 1.428 . S
H738 C734 0.930 . S
H739 C736 0.929 . S
S740 N741 1.613 . S
S740 N742 1.610 . S
N741 S740 1.613 . S
N741 C744 1.350 . S
N742 S740 1.610 . S
N742 C743 1.351 . S
C743 C737 1.428 . S
C743 N742 1.351 . S
C743 C744 1.434 . S
C744 C735 1.429 . S
C744 N741 1.350 . S
C744 C743 1.434 . S
C745 C746 1.369 . S
C745 C747 1.419 . S
C745 H749 0.930 . S
C746 C745 1.369 . S
C746 C755 1.429 . S
C747 C745 1.419 . S
C747 C748 1.363 . S
C747 H750 0.929 . S
C748 C747 1.363 . S
C748 C754 1.428 . S
H749 C745 0.930 . S
H750 C747 0.929 . S
S751 N752 1.613 . S
S751 N753 1.610 . S
N752 S751 1.613 . S
N752 C755 1.350 . S
N753 S751 1.610 . S
N753 C754 1.351 . S
C754 C748 1.428 . S
C754 N753 1.351 . S
C754 C755 1.434 . S
C755 C746 1.429 . S
C755 N752 1.350 . S
C755 C754 1.434 . S
C361 C76 1.004 1_455 S
C363 N6 0.974 . S
C372 N96 1.214 . S
C374 C46 1.220 . S
C383 N66 0.970 . S
C385 C136 1.003 . S
C394 C106 1.214 . S
C396 N156 1.213 . S
C405 C16 0.992 1_565 S
C407 N126 0.984 . S
C416 N36 1.210 . S
C418 C166 1.222 . S
C427 C327 1.005 1_545 S
C429 N194 0.971 . S
C438 N216 0.986 . S
C440 C346 0.993 . S
C449 N254 0.981 . S
C451 C207 0.998 1_655 S
C460 N276 0.986 . S
C462 C226 0.994 1_545 S
C471 N314 0.969 . S
C473 C267 1.003 . S
C482 C286 1.001 1_655 S
C484 N336 0.974 . S
C493 C91 1.666 . S
C495 C1 1.648 . S
C504 C31 1.666 . S
C506 C121 1.651 . S
C515 C61 1.652 . S
C517 C151 1.666 . S
C526 C190 1.650 . S
C528 C271 1.650 . S
C537 C211 1.649 . S
C539 C310 1.649 . S
C548 C250 1.648 . S
C550 C331 1.648 . S
C559 C220 2.039 . S
C561 C10 2.045 . S
C570 C40 1.944 . S
C572 C241 2.046 . S
C581 C280 2.042 . S
C583 C70 2.041 . S
C592 C100 1.942 . S
C594 C301 2.047 . S
C603 C130 2.045 . S
C605 C340 2.039 . S
C614 C181 2.047 . S
C616 C160 1.943 . S
C625 C87 1.437 . S
C627 N14 1.381 . S
C636 C57 1.271 . S
C638 N104 1.294 . S
C647 N74 1.379 . S
C649 C147 1.436 . S
C658 C117 1.263 . S
C660 N164 1.297 . S
C669 C27 1.437 . S
C671 N134 1.380 . S
C680 N44 1.293 . S
C682 C177 1.270 . S
C691 C316 1.430 . S
C693 N186 1.389 . S
C702 N224 1.388 . S
C704 C357 1.430 . S
C713 N246 1.385 . S
C715 C196 1.432 . S
C724 C237 1.431 . S
C726 N284 1.386 . S
C735 N306 1.380 . S
C737 C256 1.435 . S
C746 N344 1.380 . S
C748 C297 1.434 . S
