# Generated by pormake.
# Topology snx, (6)-cn, num edge types: 1
# Building blocks:
#     Node 0, Type 0, BuildingBlock: OJICUG_clean_sbu_0, # of connection points: 6
#     Node 1, Type 0, BuildingBlock: OJICUG_clean_sbu_0, # of connection points: 6
#     Node 2, Type 0, BuildingBlock: OJICUG_clean_sbu_0, # of connection points: 6
#     Node 3, Type 0, BuildingBlock: OJICUG_clean_sbu_0, # of connection points: 6
#     Node 4, Type 0, BuildingBlock: OJICUG_clean_sbu_0, # of connection points: 6
#     Node 5, Type 0, BuildingBlock: OJICUG_clean_sbu_0, # of connection points: 6
#     Edge 6, Type (0, 0), BuildingBlock: TEMPAE_clean_linker_10, # of connection points: 2
#     Edge 7, Type (0, 0), BuildingBlock: TEMPAE_clean_linker_10, # of connection points: 2
#     Edge 8, Type (0, 0), BuildingBlock: TEMPAE_clean_linker_10, # of connection points: 2
#     Edge 9, Type (0, 0), BuildingBlock: TEMPAE_clean_linker_10, # of connection points: 2
#     Edge 10, Type (0, 0), BuildingBlock: TEMPAE_clean_linker_10, # of connection points: 2
#     Edge 11, Type (0, 0), BuildingBlock: TEMPAE_clean_linker_10, # of connection points: 2
#     Edge 12, Type (0, 0), BuildingBlock: TEMPAE_clean_linker_10, # of connection points: 2
#     Edge 13, Type (0, 0), BuildingBlock: TEMPAE_clean_linker_10, # of connection points: 2
#     Edge 14, Type (0, 0), BuildingBlock: TEMPAE_clean_linker_10, # of connection points: 2
#     Edge 15, Type (0, 0), BuildingBlock: TEMPAE_clean_linker_10, # of connection points: 2
#     Edge 16, Type (0, 0), BuildingBlock: TEMPAE_clean_linker_10, # of connection points: 2
#     Edge 17, Type (0, 0), BuildingBlock: TEMPAE_clean_linker_10, # of connection points: 2
#     Edge 18, Type (0, 0), BuildingBlock: TEMPAE_clean_linker_10, # of connection points: 2
#     Edge 19, Type (0, 0), BuildingBlock: TEMPAE_clean_linker_10, # of connection points: 2
#     Edge 20, Type (0, 0), BuildingBlock: TEMPAE_clean_linker_10, # of connection points: 2
#     Edge 21, Type (0, 0), BuildingBlock: TEMPAE_clean_linker_10, # of connection points: 2
#     Edge 22, Type (0, 0), BuildingBlock: TEMPAE_clean_linker_10, # of connection points: 2
#     Edge 23, Type (0, 0), BuildingBlock: TEMPAE_clean_linker_10, # of connection points: 2
# Relax obj value: 0.060
# Max RMSD: 0.112
# Mean RMSD: 0.112
data_MOF--net-snx--node1-OJICUG_clean_sbu_0--edge1-TEMPAE_clean_linker_10
_symmetry_space_group_name_H-M    P1
_symmetry_Int_Tables_number       1
_symmetry_cell_setting            triclinic
loop_
_symmetry_equiv_pos_as_xyz
'x, y, z'
_cell_length_a     39.133597
_cell_length_b     39.1282
_cell_length_c     21.642995
_cell_angle_alpha  89.6906
_cell_angle_beta   90.140184
_cell_angle_gamma 120.0483
loop_
_atom_site_label
_atom_site_type_symbol
_atom_site_fract_x
_atom_site_fract_y
_atom_site_fract_z
_atom_type_partial_charge
Sc0 Sc 0.19837 0.40162 0.16199 0.0
Sc1 Sc 0.18935 0.40058 0.32374 0.0
Sc2 Sc 0.14857 0.31126 0.24209 0.0
O3 O 0.17876 0.37114 0.2426 0.0
C4 C 0.11299 0.33273 0.1244 0.0
C5 C 0.16983 0.45338 0.23672 0.0
C6 C 0.10187 0.32834 0.34558 0.0
C7 C 0.27023 0.45332 0.24972 0.0
C8 C 0.21293 0.32929 0.13889 0.0
C9 C 0.20516 0.33089 0.35979 0.0
O10 O 0.1412 0.36817 0.11907 0.0
O11 O 0.16686 0.43712 0.28895 0.0
O12 O 0.10294 0.30748 0.30171 0.0
O13 O 0.25718 0.43762 0.19734 0.0
O14 O 0.19054 0.30788 0.1823 0.0
O15 O 0.2127 0.36637 0.36576 0.0
O16 O 0.21705 0.36272 0.12505 0.0
O17 O 0.24865 0.44453 0.29767 0.0
O18 O 0.18143 0.30762 0.31924 0.0
O19 O 0.18298 0.44522 0.1887 0.0
O20 O 0.11274 0.30888 0.16483 0.0
O21 O 0.13138 0.36138 0.36024 0.0
Sc22 Sc 0.82778 0.15207 0.74265 0.0
Sc23 Sc 0.77863 0.19303 0.66205 0.0
Sc24 Sc 0.78755 0.20131 0.82388 0.0
O25 O 0.79801 0.18215 0.74287 0.0
C26 C 0.77116 0.11557 0.86039 0.0
C27 C 0.76333 0.10582 0.63948 0.0
C28 C 0.7067 0.17301 0.74988 0.0
C29 C 0.86384 0.2089 0.62475 0.0
C30 C 0.87484 0.21622 0.84578 0.0
C31 C 0.80728 0.27358 0.73623 0.0
O32 O 0.7945 0.11558 0.81956 0.0
O33 O 0.75933 0.13519 0.62566 0.0
O34 O 0.72815 0.18561 0.79798 0.0
O35 O 0.86395 0.18543 0.66558 0.0
O36 O 0.84563 0.22034 0.86003 0.0
O37 O 0.79455 0.25225 0.68818 0.0
O38 O 0.87339 0.19374 0.80252 0.0
O39 O 0.83573 0.2162 0.61903 0.0
O40 O 0.80982 0.26027 0.7887 0.0
O41 O 0.78583 0.10681 0.68267 0.0
O42 O 0.76425 0.14389 0.86657 0.0
O43 O 0.7199 0.17071 0.69743 0.0
Sc44 Sc 0.66588 0.83088 0.24658 0.0
Sc45 Sc 0.57753 0.78737 0.16063 0.0
Sc46 Sc 0.57444 0.7843 0.32378 0.0
O47 O 0.60588 0.80082 0.24367 0.0
C48 C 0.64467 0.76788 0.35518 0.0
C49 C 0.64916 0.77253 0.1336 0.0
C50 C 0.52396 0.70901 0.23842 0.0
C51 C 0.64877 0.875 0.13669 0.0
C52 C 0.64483 0.87001 0.35827 0.0
C53 C 0.52372 0.8102 0.2406 0.0
O54 O 0.66792 0.79163 0.31448 0.0
O55 O 0.61494 0.76715 0.12226 0.0
O56 O 0.53508 0.72546 0.29085 0.0
O57 O 0.67048 0.87358 0.17923 0.0
O58 O 0.61014 0.84105 0.36617 0.0
O59 O 0.53626 0.80506 0.1894 0.0
O60 O 0.66799 0.8704 0.31691 0.0
O61 O 0.61466 0.84616 0.12447 0.0
O62 O 0.53517 0.80459 0.29277 0.0
O63 O 0.6708 0.79474 0.17679 0.0
O64 O 0.61008 0.76219 0.36387 0.0
O65 O 0.53669 0.72744 0.18753 0.0
Sc66 Sc 0.82567 0.66892 0.74489 0.0
Sc67 Sc 0.77873 0.57797 0.66696 0.0
Sc68 Sc 0.78209 0.58001 0.83008 0.0
O69 O 0.79546 0.6089 0.7473 0.0
C70 C 0.8697 0.65095 0.85356 0.0
C71 C 0.86453 0.6484 0.63201 0.0
C72 C 0.80486 0.52674 0.74867 0.0
C73 C 0.76242 0.64857 0.63748 0.0
C74 C 0.7676 0.6516 0.85894 0.0
C75 C 0.70371 0.52697 0.75307 0.0
O76 O 0.86865 0.67295 0.81104 0.0
O77 O 0.83563 0.61368 0.62428 0.0
O78 O 0.80018 0.53919 0.80027 0.0
O79 O 0.78607 0.67147 0.67836 0.0
O80 O 0.76167 0.61705 0.86944 0.0
O81 O 0.71978 0.53862 0.70034 0.0
O82 O 0.79006 0.67352 0.81598 0.0
O83 O 0.75696 0.61415 0.6279 0.0
O84 O 0.7224 0.53915 0.80364 0.0
O85 O 0.86479 0.67141 0.67343 0.0
O86 O 0.84063 0.61699 0.8659 0.0
O87 O 0.79871 0.53825 0.69693 0.0
Sc88 Sc 0.1471 0.82839 0.24455 0.0
Sc89 Sc 0.19007 0.78257 0.32981 0.0
Sc90 Sc 0.19353 0.78389 0.1667 0.0
O91 O 0.17692 0.79825 0.24701 0.0
C92 C 0.10788 0.7688 0.13193 0.0
C93 C 0.10272 0.76653 0.35336 0.0
C94 C 0.16717 0.70644 0.24859 0.0
C95 C 0.2053 0.86896 0.3585 0.0
C96 C 0.21025 0.87096 0.13689 0.0
C97 C 0.26846 0.80783 0.25272 0.0
O98 O 0.10791 0.79182 0.17312 0.0
O99 O 0.13161 0.76141 0.36576 0.0
O100 O 0.17365 0.7242 0.19686 0.0
O101 O 0.18289 0.86857 0.31562 0.0
O102 O 0.21538 0.84181 0.12729 0.0
O103 O 0.24968 0.80107 0.30327 0.0
O104 O 0.18684 0.87045 0.17797 0.0
O105 O 0.21095 0.84017 0.36897 0.0
O106 O 0.25249 0.80366 0.19997 0.0
O107 O 0.10398 0.78961 0.31074 0.0
O108 O 0.13655 0.76263 0.12429 0.0
O109 O 0.17153 0.72353 0.30014 0.0
Sc110 Sc 0.30875 0.15003 0.74592 0.0
Sc111 Sc 0.40005 0.19502 0.82337 0.0
Sc112 Sc 0.39723 0.19499 0.66019 0.0
O113 O 0.36874 0.18004 0.74316 0.0
C114 C 0.32573 0.10846 0.63305 0.0
C115 C 0.32987 0.10812 0.85434 0.0
C116 C 0.45103 0.17076 0.73834 0.0
C117 C 0.32953 0.21001 0.85788 0.0
C118 C 0.32595 0.21121 0.63596 0.0
C119 C 0.45054 0.27181 0.74017 0.0
O120 O 0.30395 0.10918 0.67584 0.0
O121 O 0.36438 0.13715 0.86335 0.0
O122 O 0.43835 0.17641 0.6874 0.0
O123 O 0.30639 0.18714 0.81656 0.0
O124 O 0.35991 0.2162 0.62355 0.0
O125 O 0.4392 0.25467 0.79232 0.0
O126 O 0.30428 0.18837 0.67885 0.0
O127 O 0.36427 0.21593 0.86562 0.0
O128 O 0.43813 0.25414 0.68893 0.0
O129 O 0.30671 0.10857 0.81348 0.0
O130 O 0.36011 0.13718 0.62201 0.0
O131 O 0.43963 0.1758 0.79071 0.0
C132 C 0.18678 0.5199 0.19868 0.0
C133 C 0.16157 0.48613 0.23304 0.0
C134 C 0.18282 0.55351 0.20035 0.0
C135 C 0.15199 0.55275 0.23557 0.0
C136 C 0.12498 0.51786 0.26744 0.0
C137 C 0.1306 0.48511 0.26686 0.0
C138 C 0.21299 0.5905 0.16724 0.0
C139 C 0.09094 0.51554 0.3036 0.0
C140 C 0.17422 0.65235 0.29584 0.0
C141 C 0.1583 0.66512 0.24914 0.0
C142 C 0.17118 0.61518 0.29301 0.0
C143 C 0.1506 0.58971 0.24327 0.0
C144 C 0.13223 0.60144 0.19811 0.0
C145 C 0.13694 0.63942 0.20092 0.0
C146 C 0.19215 0.60427 0.34116 0.0
C147 C 0.10889 0.57451 0.14565 0.0
H148 H 0.21099 0.52078 0.17305 0.0
H149 H 0.11095 0.45881 0.29308 0.0
H150 H 0.19814 0.60102 0.13499 0.0
H151 H 0.22943 0.61432 0.20135 0.0
H152 H 0.23455 0.58581 0.14069 0.0
H153 H 0.0696 0.48484 0.31832 0.0
H154 H 0.10226 0.53417 0.34545 0.0
H155 H 0.07512 0.52707 0.27552 0.0
H156 H 0.19107 0.67234 0.33285 0.0
H157 H 0.12436 0.64921 0.16505 0.0
H158 H 0.21592 0.6011 0.31884 0.0
H159 H 0.17138 0.57545 0.36274 0.0
H160 H 0.20552 0.62677 0.37817 0.0
H161 H 0.12927 0.57215 0.1127 0.0
H162 H 0.09164 0.58553 0.1201 0.0
H163 H 0.08834 0.54434 0.16329 0.0
C164 C 0.63602 0.13499 0.71715 0.0
C165 C 0.66559 0.16453 0.75361 0.0
C166 C 0.59776 0.12962 0.71595 0.0
C167 C 0.58954 0.15543 0.75013 0.0
C168 C 0.61912 0.18466 0.78817 0.0
C169 C 0.65662 0.1884 0.79021 0.0
C170 C 0.56656 0.09724 0.67662 0.0
C171 C 0.61191 0.2135 0.82401 0.0
C172 C 0.51303 0.17993 0.69175 0.0
C173 C 0.48351 0.16198 0.73675 0.0
C174 C 0.54723 0.17698 0.69451 0.0
C175 C 0.55134 0.15444 0.74231 0.0
C176 C 0.52043 0.13411 0.78553 0.0
C177 C 0.48712 0.13875 0.78295 0.0
C178 C 0.57995 0.19999 0.64852 0.0
C179 C 0.52319 0.10871 0.83579 0.0
H180 H 0.64295 0.11635 0.68915 0.0
H181 H 0.67962 0.21153 0.81792 0.0
H182 H 0.53869 0.08036 0.70311 0.0
H183 H 0.56004 0.11035 0.6359 0.0
H184 H 0.57602 0.07645 0.65993 0.0
H185 H 0.63771 0.23376 0.85271 0.0
H186 H 0.60535 0.23148 0.79146 0.0
H187 H 0.5859 0.19742 0.85463 0.0
H188 H 0.51044 0.19824 0.65637 0.0
H189 H 0.46412 0.12463 0.81752 0.0
H190 H 0.58839 0.18019 0.62504 0.0
H191 H 0.60649 0.22278 0.67311 0.0
H192 H 0.57144 0.21487 0.61284 0.0
H193 H 0.53301 0.08887 0.81628 0.0
H194 H 0.49453 0.09049 0.85979 0.0
H195 H 0.54546 0.12771 0.87048 0.0
C196 C 0.3198 0.51907 0.28997 0.0
C197 C 0.31122 0.4863 0.25344 0.0
C198 C 0.35707 0.55318 0.28785 0.0
C199 C 0.38685 0.55398 0.24977 0.0
C200 C 0.37905 0.52005 0.21565 0.0
C201 C 0.34099 0.48678 0.21694 0.0
C202 C 0.36382 0.5891 0.32363 0.0
C203 C 0.41049 0.51936 0.1763 0.0
C204 C 0.4624 0.65558 0.1916 0.0
C205 C 0.49187 0.66753 0.2367 0.0
C206 C 0.42855 0.6181 0.1942 0.0
C207 C 0.42479 0.59153 0.24195 0.0
C208 C 0.45571 0.60254 0.28525 0.0
C209 C 0.48864 0.64079 0.28282 0.0
C210 C 0.3958 0.60792 0.14813 0.0
C211 C 0.45334 0.57451 0.33545 0.0
H212 H 0.29665 0.51887 0.31769 0.0
H213 H 0.33437 0.46128 0.18897 0.0
H214 H 0.38986 0.59938 0.35427 0.0
H215 H 0.37011 0.61357 0.29105 0.0
H216 H 0.33791 0.58322 0.35231 0.0
H217 H 0.40141 0.48917 0.15972 0.0
H218 H 0.41673 0.5389 0.13552 0.0
H219 H 0.43841 0.53076 0.20274 0.0
H220 H 0.46472 0.6764 0.15627 0.0
H221 H 0.51163 0.64998 0.31745 0.0
H222 H 0.36909 0.60376 0.17265 0.0
H223 H 0.38773 0.57975 0.12469 0.0
H224 H 0.40406 0.63127 0.11242 0.0
H225 H 0.43094 0.57087 0.37015 0.0
H226 H 0.48205 0.58534 0.35945 0.0
H227 H 0.4439 0.54492 0.3159 0.0
C228 C 0.79665 0.46467 0.79384 0.0
C229 C 0.81401 0.49453 0.74908 0.0
C230 C 0.80046 0.431 0.79079 0.0
C231 C 0.82333 0.42781 0.74297 0.0
C232 C 0.84296 0.45904 0.69986 0.0
C233 C 0.83741 0.49179 0.70267 0.0
C234 C 0.77808 0.39786 0.83657 0.0
C235 C 0.86871 0.45727 0.64962 0.0
C236 C 0.84464 0.34431 0.76874 0.0
C237 C 0.81529 0.31454 0.73231 0.0
C238 C 0.84947 0.38237 0.76952 0.0
C239 C 0.82328 0.39013 0.735 0.0
C240 C 0.79428 0.36037 0.69694 0.0
C241 C 0.7911 0.32312 0.6953 0.0
C242 C 0.88163 0.41382 0.80884 0.0
C243 C 0.76501 0.36704 0.66083 0.0
H244 H 0.77822 0.46662 0.82938 0.0
H245 H 0.85107 0.51509 0.66833 0.0
H246 H 0.75584 0.37111 0.81178 0.0
H247 H 0.79844 0.39012 0.86033 0.0
H248 H 0.76261 0.40556 0.87205 0.0
H249 H 0.88634 0.48616 0.62576 0.0
H250 H 0.88912 0.44805 0.66912 0.0
H251 H 0.85002 0.43496 0.61481 0.0
H252 H 0.86352 0.33769 0.79702 0.0
H253 H 0.76812 0.29997 0.66759 0.0
H254 H 0.86836 0.41973 0.8497 0.0
H255 H 0.89792 0.44187 0.78245 0.0
H256 H 0.90296 0.4049 0.82533 0.0
H257 H 0.74664 0.37294 0.69324 0.0
H258 H 0.74514 0.34123 0.63191 0.0
H259 H 0.78069 0.39328 0.63039 0.0
C260 C 0.46037 0.79875 0.19677 0.0
C261 C 0.49109 0.81865 0.2392 0.0
C262 C 0.42634 0.80194 0.19936 0.0
C263 C 0.42369 0.8268 0.24406 0.0
C264 C 0.45576 0.84892 0.28454 0.0
C265 C 0.48885 0.84389 0.28255 0.0
C266 C 0.39232 0.77682 0.1567 0.0
C267 C 0.45457 0.87685 0.33115 0.0
C268 C 0.33809 0.84431 0.21487 0.0
C269 C 0.30966 0.81675 0.25532 0.0
C270 C 0.37649 0.85004 0.21374 0.0
C271 C 0.38582 0.82635 0.25195 0.0
C272 C 0.35732 0.79911 0.29383 0.0
C273 C 0.31977 0.7952 0.29577 0.0
C274 C 0.40661 0.88045 0.1703 0.0
C275 C 0.3656 0.77232 0.33387 0.0
H276 H 0.462 0.77889 0.16369 0.0
H277 H 0.51282 0.85945 0.31508 0.0
H278 H 0.36631 0.75572 0.18437 0.0
H279 H 0.38362 0.79555 0.1301 0.0
H280 H 0.39957 0.75979 0.1236 0.0
H281 H 0.48394 0.89614 0.3524 0.0
H282 H 0.44421 0.89571 0.30905 0.0
H283 H 0.43337 0.85975 0.36847 0.0
H284 H 0.33019 0.86113 0.18392 0.0
H285 H 0.29755 0.77359 0.32659 0.0
H286 H 0.41196 0.86545 0.13131 0.0
H287 H 0.43519 0.89846 0.19444 0.0
H288 H 0.39671 0.90044 0.15108 0.0
H289 H 0.37145 0.75278 0.30415 0.0
H290 H 0.34057 0.75355 0.36515 0.0
H291 H 0.39233 0.78996 0.36232 0.0
C292 C 0.63417 0.49301 0.71471 0.0
C293 C 0.66259 0.49443 0.75567 0.0
C294 C 0.59596 0.45997 0.7134 0.0
C295 C 0.58686 0.42713 0.75195 0.0
C296 C 0.61533 0.42896 0.79439 0.0
C297 C 0.65264 0.46295 0.79649 0.0
C298 C 0.56584 0.45965 0.66936 0.0
C299 C 0.60731 0.39411 0.83483 0.0
C300 C 0.48431 0.34048 0.78181 0.0
C301 C 0.48278 0.31311 0.73885 0.0
C302 C 0.51698 0.3789 0.78384 0.0
C303 C 0.54936 0.3893 0.74384 0.0
C304 C 0.54743 0.3619 0.69952 0.0
C305 C 0.5138 0.32435 0.69686 0.0
C306 C 0.51738 0.40788 0.83 0.0
C307 C 0.58183 0.37132 0.6574 0.0
H308 H 0.64194 0.51759 0.68345 0.0
H309 H 0.67486 0.46397 0.8277 0.0
H310 H 0.56112 0.43942 0.63045 0.0
H311 H 0.53703 0.44857 0.69301 0.0
H312 H 0.5754 0.48948 0.65008 0.0
H313 H 0.63224 0.40082 0.86657 0.0
H314 H 0.58033 0.38465 0.86282 0.0
H315 H 0.60203 0.36877 0.8054 0.0
H316 H 0.46009 0.33173 0.81398 0.0
H317 H 0.5127 0.30296 0.66407 0.0
H318 H 0.52745 0.43698 0.80764 0.0
H319 H 0.53846 0.41242 0.86771 0.0
H320 H 0.48781 0.39736 0.85075 0.0
H321 H 0.59022 0.39859 0.6305 0.0
H322 H 0.57514 0.34703 0.62457 0.0
H323 H 0.60785 0.37679 0.6855 0.0
C324 C 0.2768 0.22411 0.89194 0.0
C325 C 0.31492 0.22977 0.89967 0.0
C326 C 0.26197 0.24148 0.93219 0.0
C327 C 0.2858 0.26511 0.9814 0.0
C328 C 0.3244 0.27135 0.98924 0.0
C329 C 0.33854 0.25362 0.94823 0.0
C330 C 0.22065 0.23429 0.9223 0.0
C331 C 0.35061 0.29646 0.04124 0.0
C332 C 0.25654 0.33563 0.04993 0.0
C333 C 0.23403 0.31412 0.10129 0.0
C334 C 0.27452 0.32051 0.01147 0.0
C335 C 0.26998 0.28303 0.02473 0.0
C336 C 0.24844 0.2617 0.07752 0.0
C337 C 0.23069 0.27748 0.11517 0.0
C338 C 0.29735 0.3441 0.95555 0.0
C339 C 0.24319 0.22168 0.09323 0.0
H340 H 0.2583 0.20585 0.85455 0.0
H341 H 0.36803 0.25822 0.95465 0.0
H342 H 0.20227 0.21964 0.96364 0.0
H343 H 0.22141 0.26282 0.91606 0.0
H344 H 0.20612 0.21553 0.88134 0.0
H345 H 0.38013 0.29887 0.04041 0.0
H346 H 0.35465 0.32658 0.03837 0.0
H347 H 0.33641 0.28369 0.08634 0.0
H348 H 0.2595 0.36404 0.03886 0.0
H349 H 0.21361 0.26072 0.15492 0.0
H350 H 0.28227 0.32797 0.91284 0.0
H351 H 0.32735 0.34777 0.95542 0.0
H352 H 0.30016 0.37379 0.95385 0.0
H353 H 0.22588 0.20034 0.05636 0.0
H354 H 0.2277 0.21004 0.13798 0.0
H355 H 0.27231 0.22335 0.09554 0.0
C356 C 0.89847 0.25226 0.53322 0.0
C357 C 0.89796 0.22814 0.58192 0.0
C358 C 0.93049 0.26999 0.49207 0.0
C359 C 0.96271 0.26349 0.49994 0.0
C360 C 0.96249 0.23941 0.54909 0.0
C361 C 0.93016 0.22204 0.5894 0.0
C362 C 0.9298 0.29553 0.44009 0.0
C363 C -0.0036 0.23189 0.55908 0.0
C364 C 0.0317 0.27677 0.36766 0.0
C365 C 0.06511 0.31306 0.38238 0.0
C366 C -0.00241 0.26091 0.40435 0.0
C367 C -0.00311 0.2818 0.45704 0.0
C368 C 0.02996 0.31899 0.47108 0.0
C369 C 0.06365 0.33419 0.43357 0.0
C370 C 0.96278 0.22121 0.38783 0.0
C371 C 0.03026 0.34212 0.52693 0.0
H372 H 0.87377 0.25716 0.52695 0.0
H373 H 0.93023 0.20359 0.62687 0.0
H374 H 0.95578 0.32569 0.44352 0.0
H375 H 0.93183 0.28331 0.39499 0.0
H376 H 0.90259 0.29774 0.44043 0.0
H377 H -0.00829 0.21253 0.59969 0.0
H378 H 0.00045 0.2178 0.51754 0.0
H379 H 0.02421 0.26028 0.56601 0.0
H380 H 0.03235 0.2603 0.32801 0.0
H381 H 0.08916 0.36234 0.44526 0.0
H382 H 0.93543 0.22306 0.3854 0.0
H383 H 0.9583 0.19934 0.42435 0.0
H384 H 0.96692 0.21012 0.34294 0.0
H385 H 0.00397 0.34586 0.5266 0.0
H386 H 0.05719 0.37176 0.52902 0.0
H387 H 0.02874 0.32561 0.56965 0.0
C388 C 0.75658 0.04823 0.89365 0.0
C389 C 0.75127 0.08083 0.90222 0.0
C390 C 0.73843 0.01522 0.93276 0.0
C391 C 0.71436 0.01467 0.98184 0.0
C392 C 0.70858 0.04724 0.99071 0.0
C393 C 0.72708 0.07995 0.95073 0.0
C394 C 0.74525 0.98099 0.92174 0.0
C395 C 0.68312 0.04764 0.04269 0.0
C396 C 0.64313 0.91348 0.048 0.0
C397 C 0.66431 0.91164 0.09913 0.0
C398 C 0.65853 0.94733 0.01043 0.0
C399 C 0.69595 0.98014 0.02437 0.0
C400 C 0.71696 0.97896 0.07685 0.0
C401 C 0.70093 0.94475 0.11354 0.0
C402 C 0.63528 0.94755 0.95479 0.0
C403 C 0.75693 0.01344 0.0933 0.0
H404 H 0.77503 0.04841 0.85625 0.0
H405 H 0.72273 0.10492 0.9578 0.0
H406 H 0.75945 0.97635 0.96287 0.0
H407 H 0.71662 0.95347 0.91476 0.0
H408 H 0.76427 0.98578 0.88084 0.0
H409 H 0.68102 0.07492 0.04265 0.0
H410 H 0.65292 0.02174 0.03903 0.0
H411 H 0.69538 0.04526 0.08775 0.0
H412 H 0.61476 0.88819 0.03652 0.0
H413 H 0.71746 0.94386 0.15316 0.0
H414 H 0.65159 0.94927 0.91195 0.0
H415 H 0.63173 0.97396 0.95554 0.0
H416 H 0.60556 0.92073 0.95259 0.0
H417 H 0.77847 0.01809 0.05636 0.0
H418 H 0.76828 0.00882 0.13779 0.0
H419 H 0.75533 0.0409 0.09652 0.0
C420 C 0.6968 0.75192 0.38617 0.0
C421 C 0.65903 0.74687 0.39531 0.0
C422 C 0.71166 0.73388 0.42551 0.0
C423 C 0.68824 0.71021 0.47526 0.0
C424 C 0.6498 0.70421 0.48407 0.0
C425 C 0.63563 0.72259 0.44396 0.0
C426 C 0.75278 0.74083 0.41454 0.0
C427 C 0.624 0.67906 0.53663 0.0
C428 C 0.71864 0.6409 0.54756 0.0
C429 C 0.74125 0.66311 0.59814 0.0
C430 C 0.70038 0.65544 0.50794 0.0
C431 C 0.70474 0.69299 0.51928 0.0
C432 C 0.72652 0.71506 0.57116 0.0
C433 C 0.74455 0.69989 0.60991 0.0
C434 C 0.67732 0.63109 0.45301 0.0
C435 C 0.73161 0.75516 0.58491 0.0
H436 H 0.7151 0.77041 0.34861 0.0
H437 H 0.60638 0.71837 0.4514 0.0
H438 H 0.77185 0.75629 0.45477 0.0
H439 H 0.75197 0.71221 0.4099 0.0
H440 H 0.76659 0.7588 0.37237 0.0
H441 H 0.59414 0.67583 0.53541 0.0
H442 H 0.62077 0.64925 0.53506 0.0
H443 H 0.63809 0.69245 0.5814 0.0
H444 H 0.71579 0.61242 0.53807 0.0
H445 H 0.76167 0.71719 0.64908 0.0
H446 H 0.69199 0.6468 0.40965 0.0
H447 H 0.64719 0.62711 0.45292 0.0
H448 H 0.67482 0.60153 0.45268 0.0
H449 H 0.74818 0.77598 0.54679 0.0
H450 H 0.74772 0.76764 0.62885 0.0
H451 H 0.70237 0.7532 0.58778 0.0
C452 C 0.90718 0.64402 0.94211 0.0
C453 C 0.90604 0.66587 0.89126 0.0
C454 C 0.94062 0.65872 0.98009 0.0
C455 C 0.97374 0.69612 0.96686 0.0
C456 C 0.97331 0.7178 0.91463 0.0
C457 C 0.93946 0.70245 0.87748 0.0
C458 C 0.94006 0.63478 0.03546 0.0
C459 C 0.00821 0.75775 0.89897 0.0
C460 C 0.04075 0.75466 0.09906 0.0
C461 C 0.07316 0.74905 0.0905 0.0
C462 C 0.00814 0.73731 0.05939 0.0
C463 C 0.00782 0.71372 0.00987 0.0
C464 C 0.0401 0.70747 0.0012 0.0
C465 C 0.07242 0.7252 0.04168 0.0
C466 C 0.97415 0.74456 0.07018 0.0
C467 C 0.04065 0.68241 0.94883 0.0
H468 H 0.88163 0.61566 0.95309 0.0
H469 H 0.93906 0.71946 0.83808 0.0
H470 H 0.96628 0.63092 0.03491 0.0
H471 H 0.94155 0.65074 0.07852 0.0
H472 H 0.91305 0.60517 0.03707 0.0
H473 H 0.00415 0.76967 0.85459 0.0
H474 H 0.01275 0.77899 0.93622 0.0
H475 H 0.0355 0.75583 0.89595 0.0
H476 H 0.04087 0.77289 0.13668 0.0
H477 H 0.09725 0.72062 0.03464 0.0
H478 H 0.94633 0.71604 0.07637 0.0
H479 H 0.97021 0.75943 0.02925 0.0
H480 H 0.97873 0.76313 0.11145 0.0
H481 H 0.01441 0.65237 0.95163 0.0
H482 H 0.06763 0.67977 0.94922 0.0
H483 H 0.03909 0.69539 0.90395 0.0
C484 C 0.33157 0.07173 0.54289 0.0
C485 C 0.31006 0.07273 0.59399 0.0
C486 C 0.31639 0.03852 0.50452 0.0
C487 C 0.27887 0.00555 0.51763 0.0
C488 C 0.25734 0.00602 0.5697 0.0
C489 C 0.27316 0.0396 0.60721 0.0
C490 C 0.34014 0.03898 0.4493 0.0
C491 C 0.21724 0.97131 0.58518 0.0
C492 C 0.21969 0.93669 0.38764 0.0
C493 C 0.22523 0.90437 0.39828 0.0
C494 C 0.23743 0.97001 0.42569 0.0
C495 C 0.26134 0.97109 0.47561 0.0
C496 C 0.26758 0.93892 0.48624 0.0
C497 C 0.24944 0.90591 0.44744 0.0
C498 C 0.23015 0.00384 0.41293 0.0
C499 C 0.29297 0.93917 0.53909 0.0
H500 H 0.36012 0.0971 0.53229 0.0
H501 H 0.25637 0.0399 0.64674 0.0
H502 H 0.34453 0.0131 0.45091 0.0
H503 H 0.32377 0.03672 0.40616 0.0
H504 H 0.3695 0.06628 0.44694 0.0
H505 H 0.20498 0.97579 0.62865 0.0
H506 H 0.19627 0.96636 0.54706 0.0
H507 H 0.21914 0.94406 0.58994 0.0
H508 H 0.20118 0.93594 0.34973 0.0
H509 H 0.25402 0.88118 0.45603 0.0
H510 H 0.25865 0.03164 0.40642 0.0
H511 H 0.21517 0.00813 0.45311 0.0
H512 H 0.21165 -0.0012 0.37122 0.0
H513 H 0.3229 0.96552 0.53572 0.0
H514 H 0.29583 0.91232 0.53995 0.0
H515 H 0.2801 0.9411 0.58365 0.0
C516 C 0.70207 0.757 0.1066 0.0
C517 C 0.66474 0.75242 0.09452 0.0
C518 C 0.7177 0.73906 0.06911 0.0
C519 C 0.69549 0.71599 0.01828 0.0
C520 C 0.65758 0.71066 0.00629 0.0
C521 C 0.64263 0.72893 0.04457 0.0
C522 C 0.75826 0.74534 0.08331 0.0
C523 C 0.63309 0.6862 0.95243 0.0
C524 C 0.75294 0.7049 0.88696 0.0
C525 C 0.748 0.66737 0.89882 0.0
C526 C 0.73556 0.72081 0.92505 0.0
C527 C 0.71268 0.69869 0.97631 0.0
C528 C 0.70706 0.66062 0.98822 0.0
C529 C 0.72478 0.64538 0.94929 0.0
C530 C 0.74213 0.76152 0.91088 0.0
C531 C 0.68278 0.63624 0.04254 0.0
H532 H 0.71936 0.7749 0.14518 0.0
H533 H 0.61373 0.72508 0.03486 0.0
H534 H 0.75686 0.71647 0.08905 0.0
H535 H 0.77848 0.76086 0.04412 0.0
H536 H 0.7711 0.76295 0.12588 0.0
H537 H 0.60356 0.68372 0.95083 0.0
H538 H 0.64871 0.69965 0.90846 0.0
H539 H 0.62906 0.65608 0.95515 0.0
H540 H 0.77066 0.72212 0.84799 0.0
H541 H 0.7207 0.61636 0.95886 0.0
H542 H 0.75759 0.78159 0.95007 0.0
H543 H 0.71336 0.76029 0.90514 0.0
H544 H 0.75989 0.77444 0.8683 0.0
H545 H 0.6963 0.65195 0.08625 0.0
H546 H 0.68033 0.60671 0.04438 0.0
H547 H 0.65264 0.63217 0.04013 0.0
C548 C 0.89988 0.6397 0.54217 0.0
C549 C 0.8992 0.66316 0.59049 0.0
C550 C 0.9322 0.654 0.50173 0.0
C551 C 0.96454 0.69259 0.50989 0.0
C552 C 0.96427 0.71624 0.55886 0.0
C553 C 0.93165 0.70126 0.59853 0.0
C554 C 0.93159 0.62798 0.44996 0.0
C555 C -0.00168 0.75757 0.56907 0.0
C556 C 0.06512 0.72278 0.44257 0.0
C557 C 0.06636 0.74543 0.39115 0.0
C558 C 0.03167 0.70443 0.48065 0.0
C559 C -0.00134 0.70873 0.46693 0.0
C560 C -0.00082 0.73047 0.41415 0.0
C561 C 0.03304 0.7486 0.37693 0.0
C562 C 0.03212 0.68142 0.53662 0.0
C563 C 0.96439 0.73552 0.39794 0.0
H564 H 0.87502 0.61023 0.53554 0.0
H565 H 0.93157 0.71966 0.63573 0.0
H566 H 0.9333 0.64227 0.40475 0.0
H567 H 0.95774 0.62409 0.45325 0.0
H568 H 0.90452 0.59839 0.45064 0.0
H569 H -0.00625 0.7719 0.60992 0.0
H570 H 0.02608 0.75687 0.57567 0.0
H571 H 0.00235 0.77611 0.52772 0.0
H572 H 0.0906 0.71998 0.45391 0.0
H573 H 0.03351 0.76574 0.33708 0.0
H574 H 0.00585 0.65134 0.53647 0.0
H575 H 0.03065 0.69624 0.57927 0.0
H576 H 0.05908 0.6788 0.53866 0.0
H577 H 0.93704 0.70631 0.39528 0.0
H578 H 0.96853 0.75121 0.35324 0.0
H579 H 0.95991 0.75253 0.43473 0.0
C580 C 0.25575 0.90758 0.04878 0.0
C581 C 0.23158 0.90663 0.0974 0.0
C582 C 0.27436 0.94036 0.00911 0.0
C583 C 0.26871 0.97296 0.01832 0.0
C584 C 0.24527 0.97269 0.06818 0.0
C585 C 0.22698 0.93955 0.10709 0.0
C586 C 0.29926 0.9397 0.95643 0.0
C587 C 0.2387 0.00703 0.07957 0.0
C588 C 0.33791 0.07241 0.94484 0.0
C589 C 0.31544 0.07264 0.89431 0.0
C590 C 0.32345 0.0398 0.98496 0.0
C591 C 0.28571 0.00664 0.97418 0.0
C592 C 0.26335 0.00621 0.92243 0.0
C593 C 0.27845 0.03919 0.88318 0.0
C594 C 0.34813 0.04122 0.0397 0.0
C595 C 0.22303 0.97124 0.90927 0.0
H596 H 0.25966 0.88241 0.04094 0.0
H597 H 0.20861 0.93931 0.14467 0.0
H598 H 0.28562 0.94028 0.91174 0.0
H599 H 0.32907 0.96635 0.95779 0.0
H600 H 0.30252 0.91308 0.95768 0.0
H601 H 0.22118 0.00298 0.12208 0.0
H602 H 0.26745 0.03479 0.08381 0.0
H603 H 0.22291 0.01068 0.03969 0.0
H604 H 0.36655 0.09802 0.95385 0.0
H605 H 0.26093 0.03888 0.84409 0.0
H606 H 0.35205 0.01504 0.03982 0.0
H607 H 0.33271 0.04027 0.08319 0.0
H608 H 0.37771 0.06829 0.03975 0.0
H609 H 0.22483 0.94389 0.90619 0.0
H610 H 0.21018 0.97487 0.86561 0.0
H611 H 0.20262 0.9671 0.94777 0.0
C612 C 0.27497 0.23057 0.61425 0.0
C613 C 0.31058 0.23235 0.59821 0.0
C614 C 0.25914 0.24892 0.57758 0.0
C615 C 0.27928 0.26944 0.52339 0.0
C616 C 0.31569 0.27224 0.50769 0.0
C617 C 0.33095 0.25373 0.54533 0.0
C618 C 0.22031 0.24544 0.59597 0.0
C619 C 0.33795 0.29383 0.45014 0.0
C620 C 0.21743 0.27691 0.3948 0.0
C621 C 0.22468 0.31567 0.4016 0.0
C622 C 0.23523 0.26171 0.43391 0.0
C623 C 0.26096 0.28576 0.48113 0.0
C624 C 0.26866 0.32493 0.48824 0.0
C625 C 0.25044 0.33945 0.44836 0.0
C626 C 0.22631 0.21976 0.42483 0.0
C627 C 0.29596 0.35138 0.53818 0.0
H628 H 0.25913 0.21444 0.65525 0.0
H629 H 0.35851 0.25541 0.53254 0.0
H630 H 0.22326 0.27513 0.59811 0.0
H631 H 0.19758 0.2283 0.56061 0.0
H632 H 0.20964 0.23061 0.64147 0.0
H633 H 0.36699 0.29535 0.44643 0.0
H634 H 0.32019 0.27865 0.40865 0.0
H635 H 0.34285 0.32432 0.44963 0.0
H636 H 0.1977 0.25822 0.35884 0.0
H637 H 0.2563 0.36942 0.45404 0.0
H638 H 0.21266 0.20215 0.46728 0.0
H639 H 0.25407 0.21936 0.41655 0.0
H640 H 0.20602 0.20511 0.38538 0.0
H641 H 0.28453 0.33794 0.58422 0.0
H642 H 0.29926 0.38128 0.5371 0.0
H643 H 0.32556 0.35445 0.53296 0.0
C644 C 0.91337 0.2602 0.93373 0.0
C645 C 0.91166 0.23757 0.88245 0.0
C646 C 0.94709 0.27844 0.9712 0.0
C647 C 0.97994 0.27404 0.95701 0.0
C648 C 0.97902 0.25246 0.90418 0.0
C649 C 0.94489 0.23444 0.86755 0.0
C650 C 0.94702 0.30128 0.02721 0.0
C651 C 0.01362 0.24729 0.88746 0.0
C652 C 0.07861 0.34211 0.0332 0.0
C653 C 0.07888 0.31823 0.08165 0.0
C654 C 0.04659 0.32819 0.99217 0.0
C655 C 0.0141 0.28957 -0.0001 0.0
C656 C 0.01407 0.26542 0.04879 0.0
C657 C 0.04641 0.28001 0.08898 0.0
C658 C 0.04756 0.35471 0.94043 0.0
C659 C 0.97986 0.22407 0.05863 0.0
H660 H 0.888 0.26302 0.94556 0.0
H661 H 0.94407 0.21731 0.82781 0.0
H662 H 0.94831 0.28606 0.06982 0.0
H663 H 0.97352 0.33121 0.02703 0.0
H664 H 0.92029 0.30428 0.02937 0.0
H665 H 0.00936 0.23216 0.84245 0.0
H666 H 0.04113 0.27641 0.88518 0.0
H667 H 0.01787 0.22965 0.9238 0.0
H668 H 0.10352 0.37165 0.02704 0.0
H669 H 0.04616 0.26128 0.12627 0.0
H670 H 0.02176 0.35914 0.94402 0.0
H671 H 0.04541 0.34055 0.8952 0.0
H672 H 0.07494 0.38404 0.94091 0.0
H673 H 0.95222 0.22492 0.06566 0.0
H674 H 0.98435 0.20919 0.09912 0.0
H675 H 0.97564 0.20596 0.01698 0.0
C676 C 0.637 0.90345 0.45127 0.0
C677 C 0.6594 0.90441 0.40002 0.0
C678 C 0.65137 0.93526 0.49245 0.0
C679 C 0.68893 0.96879 0.48197 0.0
C680 C 0.71141 0.97025 0.42991 0.0
C681 C 0.69641 0.93805 0.38962 0.0
C682 C 0.62662 0.93279 0.54757 0.0
C683 C 0.75155 0.00568 0.41709 0.0
C684 C 0.717 0.06749 0.55377 0.0
C685 C 0.74189 0.06944 0.60215 0.0
C686 C 0.69857 0.03434 0.51541 0.0
C687 C 0.70516 0.00238 0.52566 0.0
C688 C 0.72915 0.00352 0.57553 0.0
C689 C 0.74723 0.03704 0.61323 0.0
C690 C 0.67303 0.03405 0.46273 0.0
C691 C 0.73671 0.96985 0.58792 0.0
H692 H 0.60839 0.87761 0.45978 0.0
H693 H 0.71391 0.93923 0.35006 0.0
H694 H 0.64266 0.93457 0.59087 0.0
H695 H 0.62137 0.95814 0.54732 0.0
H696 H 0.59764 0.90499 0.54834 0.0
H697 H 0.76496 0.00242 0.37396 0.0
H698 H 0.74915 0.03268 0.41309 0.0
H699 H 0.77179 0.01021 0.45614 0.0
H700 H 0.71242 0.0922 0.54499 0.0
H701 H 0.7662 0.03811 0.65063 0.0
H702 H 0.64365 0.00686 0.46455 0.0
H703 H 0.6868 0.03392 0.41805 0.0
H704 H 0.6688 0.06008 0.4635 0.0
H705 H 0.70835 0.94163 0.59194 0.0
H706 H 0.75404 0.97425 0.63085 0.0
H707 H 0.75315 0.96687 0.54859 0.0
loop_
_geom_bond_atom_site_label_1
_geom_bond_atom_site_label_2
_geom_bond_distance
_geom_bond_site_symmetry_2
_ccdc_geom_bond_type
Sc0 O3 2.025 . S
Sc0 O10 2.105 . S
Sc0 O13 2.105 . S
Sc0 O16 2.105 . S
Sc0 O19 2.105 . S
Sc1 O3 2.025 . S
Sc1 O11 2.105 . S
Sc1 O15 2.105 . S
Sc1 O17 2.105 . S
Sc1 O21 2.105 . S
Sc2 O3 2.025 . S
Sc2 O12 2.105 . S
Sc2 O14 2.105 . S
Sc2 O18 2.105 . S
Sc2 O20 2.105 . S
O3 Sc0 2.025 . S
O3 Sc1 2.025 . S
O3 Sc2 2.025 . S
C4 O10 1.268 . S
C4 O20 1.268 . S
C5 O11 1.268 . S
C5 O19 1.268 . S
C6 O12 1.268 . S
C6 O21 1.268 . S
C7 O13 1.268 . S
C7 O17 1.268 . S
C8 O14 1.268 . S
C8 O16 1.268 . S
C9 O15 1.268 . S
C9 O18 1.268 . S
O10 Sc0 2.105 . S
O10 C4 1.268 . S
O11 Sc1 2.105 . S
O11 C5 1.268 . S
O12 Sc2 2.105 . S
O12 C6 1.268 . S
O13 Sc0 2.105 . S
O13 C7 1.268 . S
O14 Sc2 2.105 . S
O14 C8 1.268 . S
O15 Sc1 2.105 . S
O15 C9 1.268 . S
O16 Sc0 2.105 . S
O16 C8 1.268 . S
O17 Sc1 2.105 . S
O17 C7 1.268 . S
O18 Sc2 2.105 . S
O18 C9 1.268 . S
O19 Sc0 2.105 . S
O19 C5 1.268 . S
O20 Sc2 2.105 . S
O20 C4 1.268 . S
O21 Sc1 2.105 . S
O21 C6 1.268 . S
Sc22 O25 2.025 . S
Sc22 O32 2.105 . S
Sc22 O35 2.105 . S
Sc22 O38 2.105 . S
Sc22 O41 2.105 . S
Sc23 O25 2.025 . S
Sc23 O33 2.105 . S
Sc23 O37 2.105 . S
Sc23 O39 2.105 . S
Sc23 O43 2.105 . S
Sc24 O25 2.025 . S
Sc24 O34 2.105 . S
Sc24 O36 2.105 . S
Sc24 O40 2.105 . S
Sc24 O42 2.105 . S
O25 Sc22 2.025 . S
O25 Sc23 2.025 . S
O25 Sc24 2.025 . S
C26 O32 1.268 . S
C26 O42 1.268 . S
C27 O33 1.268 . S
C27 O41 1.268 . S
C28 O34 1.268 . S
C28 O43 1.268 . S
C29 O35 1.268 . S
C29 O39 1.268 . S
C30 O36 1.268 . S
C30 O38 1.268 . S
C31 O37 1.268 . S
C31 O40 1.268 . S
O32 Sc22 2.105 . S
O32 C26 1.268 . S
O33 Sc23 2.105 . S
O33 C27 1.268 . S
O34 Sc24 2.105 . S
O34 C28 1.268 . S
O35 Sc22 2.105 . S
O35 C29 1.268 . S
O36 Sc24 2.105 . S
O36 C30 1.268 . S
O37 Sc23 2.105 . S
O37 C31 1.268 . S
O38 Sc22 2.105 . S
O38 C30 1.268 . S
O39 Sc23 2.105 . S
O39 C29 1.268 . S
O40 Sc24 2.105 . S
O40 C31 1.268 . S
O41 Sc22 2.105 . S
O41 C27 1.268 . S
O42 Sc24 2.105 . S
O42 C26 1.268 . S
O43 Sc23 2.105 . S
O43 C28 1.268 . S
Sc44 O47 2.025 . S
Sc44 O54 2.105 . S
Sc44 O57 2.105 . S
Sc44 O60 2.105 . S
Sc44 O63 2.105 . S
Sc45 O47 2.025 . S
Sc45 O55 2.105 . S
Sc45 O59 2.105 . S
Sc45 O61 2.105 . S
Sc45 O65 2.105 . S
Sc46 O47 2.025 . S
Sc46 O56 2.105 . S
Sc46 O58 2.105 . S
Sc46 O62 2.105 . S
Sc46 O64 2.105 . S
O47 Sc44 2.025 . S
O47 Sc45 2.025 . S
O47 Sc46 2.025 . S
C48 O54 1.268 . S
C48 O64 1.268 . S
C49 O55 1.268 . S
C49 O63 1.268 . S
C50 O56 1.268 . S
C50 O65 1.268 . S
C51 O57 1.268 . S
C51 O61 1.268 . S
C52 O58 1.268 . S
C52 O60 1.268 . S
C53 O59 1.268 . S
C53 O62 1.268 . S
O54 Sc44 2.105 . S
O54 C48 1.268 . S
O55 Sc45 2.105 . S
O55 C49 1.268 . S
O56 Sc46 2.105 . S
O56 C50 1.268 . S
O57 Sc44 2.105 . S
O57 C51 1.268 . S
O58 Sc46 2.105 . S
O58 C52 1.268 . S
O59 Sc45 2.105 . S
O59 C53 1.268 . S
O60 Sc44 2.105 . S
O60 C52 1.268 . S
O61 Sc45 2.105 . S
O61 C51 1.268 . S
O62 Sc46 2.105 . S
O62 C53 1.268 . S
O63 Sc44 2.105 . S
O63 C49 1.268 . S
O64 Sc46 2.105 . S
O64 C48 1.268 . S
O65 Sc45 2.105 . S
O65 C50 1.268 . S
Sc66 O69 2.025 . S
Sc66 O76 2.105 . S
Sc66 O79 2.105 . S
Sc66 O82 2.105 . S
Sc66 O85 2.105 . S
Sc67 O69 2.025 . S
Sc67 O77 2.105 . S
Sc67 O81 2.105 . S
Sc67 O83 2.105 . S
Sc67 O87 2.105 . S
Sc68 O69 2.025 . S
Sc68 O78 2.105 . S
Sc68 O80 2.105 . S
Sc68 O84 2.105 . S
Sc68 O86 2.105 . S
O69 Sc66 2.025 . S
O69 Sc67 2.025 . S
O69 Sc68 2.025 . S
C70 O76 1.268 . S
C70 O86 1.268 . S
C71 O77 1.268 . S
C71 O85 1.268 . S
C72 O78 1.268 . S
C72 O87 1.268 . S
C73 O79 1.268 . S
C73 O83 1.268 . S
C74 O80 1.268 . S
C74 O82 1.268 . S
C75 O81 1.268 . S
C75 O84 1.268 . S
O76 Sc66 2.105 . S
O76 C70 1.268 . S
O77 Sc67 2.105 . S
O77 C71 1.268 . S
O78 Sc68 2.105 . S
O78 C72 1.268 . S
O79 Sc66 2.105 . S
O79 C73 1.268 . S
O80 Sc68 2.105 . S
O80 C74 1.268 . S
O81 Sc67 2.105 . S
O81 C75 1.268 . S
O82 Sc66 2.105 . S
O82 C74 1.268 . S
O83 Sc67 2.105 . S
O83 C73 1.268 . S
O84 Sc68 2.105 . S
O84 C75 1.268 . S
O85 Sc66 2.105 . S
O85 C71 1.268 . S
O86 Sc68 2.105 . S
O86 C70 1.268 . S
O87 Sc67 2.105 . S
O87 C72 1.268 . S
Sc88 O91 2.025 . S
Sc88 O98 2.105 . S
Sc88 O101 2.105 . S
Sc88 O104 2.105 . S
Sc88 O107 2.105 . S
Sc89 O91 2.025 . S
Sc89 O99 2.105 . S
Sc89 O103 2.105 . S
Sc89 O105 2.105 . S
Sc89 O109 2.105 . S
Sc90 O91 2.025 . S
Sc90 O100 2.105 . S
Sc90 O102 2.105 . S
Sc90 O106 2.105 . S
Sc90 O108 2.105 . S
O91 Sc88 2.025 . S
O91 Sc89 2.025 . S
O91 Sc90 2.025 . S
C92 O98 1.268 . S
C92 O108 1.268 . S
C93 O99 1.268 . S
C93 O107 1.268 . S
C94 O100 1.268 . S
C94 O109 1.268 . S
C95 O101 1.268 . S
C95 O105 1.268 . S
C96 O102 1.268 . S
C96 O104 1.268 . S
C97 O103 1.268 . S
C97 O106 1.268 . S
O98 Sc88 2.105 . S
O98 C92 1.268 . S
O99 Sc89 2.105 . S
O99 C93 1.268 . S
O100 Sc90 2.105 . S
O100 C94 1.268 . S
O101 Sc88 2.105 . S
O101 C95 1.268 . S
O102 Sc90 2.105 . S
O102 C96 1.268 . S
O103 Sc89 2.105 . S
O103 C97 1.268 . S
O104 Sc88 2.105 . S
O104 C96 1.268 . S
O105 Sc89 2.105 . S
O105 C95 1.268 . S
O106 Sc90 2.105 . S
O106 C97 1.268 . S
O107 Sc88 2.105 . S
O107 C93 1.268 . S
O108 Sc90 2.105 . S
O108 C92 1.268 . S
O109 Sc89 2.105 . S
O109 C94 1.268 . S
Sc110 O113 2.025 . S
Sc110 O120 2.105 . S
Sc110 O123 2.105 . S
Sc110 O126 2.105 . S
Sc110 O129 2.105 . S
Sc111 O113 2.025 . S
Sc111 O121 2.105 . S
Sc111 O125 2.105 . S
Sc111 O127 2.105 . S
Sc111 O131 2.105 . S
Sc112 O113 2.025 . S
Sc112 O122 2.105 . S
Sc112 O124 2.105 . S
Sc112 O128 2.105 . S
Sc112 O130 2.105 . S
O113 Sc110 2.025 . S
O113 Sc111 2.025 . S
O113 Sc112 2.025 . S
C114 O120 1.268 . S
C114 O130 1.268 . S
C115 O121 1.268 . S
C115 O129 1.268 . S
C116 O122 1.268 . S
C116 O131 1.268 . S
C117 O123 1.268 . S
C117 O127 1.268 . S
C118 O124 1.268 . S
C118 O126 1.268 . S
C119 O125 1.268 . S
C119 O128 1.268 . S
O120 Sc110 2.105 . S
O120 C114 1.268 . S
O121 Sc111 2.105 . S
O121 C115 1.268 . S
O122 Sc112 2.105 . S
O122 C116 1.268 . S
O123 Sc110 2.105 . S
O123 C117 1.268 . S
O124 Sc112 2.105 . S
O124 C118 1.268 . S
O125 Sc111 2.105 . S
O125 C119 1.268 . S
O126 Sc110 2.105 . S
O126 C118 1.268 . S
O127 Sc111 2.105 . S
O127 C117 1.268 . S
O128 Sc112 2.105 . S
O128 C119 1.268 . S
O129 Sc110 2.105 . S
O129 C115 1.268 . S
O130 Sc112 2.105 . S
O130 C114 1.268 . S
O131 Sc111 2.105 . S
O131 C116 1.268 . S
C132 C133 1.391 . S
C132 C134 1.394 . S
C132 H148 0.931 . S
C133 C132 1.391 . S
C133 C137 1.376 . S
C134 C132 1.394 . S
C134 C135 1.369 . S
C134 C138 1.531 . S
C135 C134 1.369 . S
C135 C136 1.410 . S
C135 C143 1.503 . S
C136 C135 1.410 . S
C136 C137 1.392 . S
C136 C139 1.511 . S
C137 C133 1.376 . S
C137 C136 1.392 . S
C137 H149 0.929 . S
C138 C134 1.531 . S
C138 H150 0.960 . S
C138 H151 0.962 . S
C138 H152 0.960 . S
C139 C136 1.511 . S
C139 H153 0.961 . S
C139 H154 0.961 . S
C139 H155 0.961 . S
C140 C141 1.370 . S
C140 C142 1.363 . S
C140 H156 0.931 . S
C141 C140 1.370 . S
C141 C145 1.408 . S
C142 C140 1.363 . S
C142 C143 1.370 . S
C142 C146 1.524 . S
C143 C135 1.503 . S
C143 C142 1.370 . S
C143 C144 1.403 . S
C144 C143 1.403 . S
C144 C145 1.404 . S
C144 C147 1.539 . S
C145 C141 1.408 . S
C145 C144 1.404 . S
C145 H157 0.930 . S
C146 C142 1.524 . S
C146 H158 0.956 . S
C146 H159 0.961 . S
C146 H160 0.961 . S
C147 C144 1.539 . S
C147 H161 0.958 . S
C147 H162 0.961 . S
C147 H163 0.960 . S
H148 C132 0.931 . S
H149 C137 0.929 . S
H150 C138 0.960 . S
H151 C138 0.962 . S
H152 C138 0.960 . S
H153 C139 0.961 . S
H154 C139 0.961 . S
H155 C139 0.961 . S
H156 C140 0.931 . S
H157 C145 0.930 . S
H158 C146 0.956 . S
H159 C146 0.961 . S
H160 C146 0.961 . S
H161 C147 0.958 . S
H162 C147 0.961 . S
H163 C147 0.960 . S
C164 C165 1.391 . S
C164 C166 1.394 . S
C164 H180 0.931 . S
C165 C164 1.391 . S
C165 C169 1.376 . S
C166 C164 1.394 . S
C166 C167 1.369 . S
C166 C170 1.531 . S
C167 C166 1.369 . S
C167 C168 1.410 . S
C167 C175 1.503 . S
C168 C167 1.410 . S
C168 C169 1.392 . S
C168 C171 1.511 . S
C169 C165 1.376 . S
C169 C168 1.392 . S
C169 H181 0.929 . S
C170 C166 1.531 . S
C170 H182 0.960 . S
C170 H183 0.962 . S
C170 H184 0.960 . S
C171 C168 1.511 . S
C171 H185 0.961 . S
C171 H186 0.961 . S
C171 H187 0.961 . S
C172 C173 1.370 . S
C172 C174 1.363 . S
C172 H188 0.931 . S
C173 C172 1.370 . S
C173 C177 1.408 . S
C174 C172 1.363 . S
C174 C175 1.370 . S
C174 C178 1.524 . S
C175 C167 1.503 . S
C175 C174 1.370 . S
C175 C176 1.403 . S
C176 C175 1.403 . S
C176 C177 1.404 . S
C176 C179 1.539 . S
C177 C173 1.408 . S
C177 C176 1.404 . S
C177 H189 0.930 . S
C178 C174 1.524 . S
C178 H190 0.956 . S
C178 H191 0.961 . S
C178 H192 0.961 . S
C179 C176 1.539 . S
C179 H193 0.958 . S
C179 H194 0.961 . S
C179 H195 0.960 . S
H180 C164 0.931 . S
H181 C169 0.929 . S
H182 C170 0.960 . S
H183 C170 0.962 . S
H184 C170 0.960 . S
H185 C171 0.961 . S
H186 C171 0.961 . S
H187 C171 0.961 . S
H188 C172 0.931 . S
H189 C177 0.930 . S
H190 C178 0.956 . S
H191 C178 0.961 . S
H192 C178 0.961 . S
H193 C179 0.958 . S
H194 C179 0.961 . S
H195 C179 0.960 . S
C196 C197 1.391 . S
C196 C198 1.394 . S
C196 H212 0.931 . S
C197 C196 1.391 . S
C197 C201 1.376 . S
C198 C196 1.394 . S
C198 C199 1.369 . S
C198 C202 1.531 . S
C199 C198 1.369 . S
C199 C200 1.410 . S
C199 C207 1.503 . S
C200 C199 1.410 . S
C200 C201 1.392 . S
C200 C203 1.511 . S
C201 C197 1.376 . S
C201 C200 1.392 . S
C201 H213 0.929 . S
C202 C198 1.531 . S
C202 H214 0.960 . S
C202 H215 0.962 . S
C202 H216 0.960 . S
C203 C200 1.511 . S
C203 H217 0.961 . S
C203 H218 0.961 . S
C203 H219 0.961 . S
C204 C205 1.370 . S
C204 C206 1.363 . S
C204 H220 0.931 . S
C205 C204 1.370 . S
C205 C209 1.408 . S
C206 C204 1.363 . S
C206 C207 1.370 . S
C206 C210 1.524 . S
C207 C199 1.503 . S
C207 C206 1.370 . S
C207 C208 1.403 . S
C208 C207 1.403 . S
C208 C209 1.404 . S
C208 C211 1.539 . S
C209 C205 1.408 . S
C209 C208 1.404 . S
C209 H221 0.930 . S
C210 C206 1.524 . S
C210 H222 0.956 . S
C210 H223 0.961 . S
C210 H224 0.961 . S
C211 C208 1.539 . S
C211 H225 0.958 . S
C211 H226 0.961 . S
C211 H227 0.960 . S
H212 C196 0.931 . S
H213 C201 0.929 . S
H214 C202 0.960 . S
H215 C202 0.962 . S
H216 C202 0.960 . S
H217 C203 0.961 . S
H218 C203 0.961 . S
H219 C203 0.961 . S
H220 C204 0.931 . S
H221 C209 0.930 . S
H222 C210 0.956 . S
H223 C210 0.961 . S
H224 C210 0.961 . S
H225 C211 0.958 . S
H226 C211 0.961 . S
H227 C211 0.960 . S
C228 C229 1.391 . S
C228 C230 1.394 . S
C228 H244 0.931 . S
C229 C228 1.391 . S
C229 C233 1.376 . S
C230 C228 1.394 . S
C230 C231 1.369 . S
C230 C234 1.531 . S
C231 C230 1.369 . S
C231 C232 1.410 . S
C231 C239 1.503 . S
C232 C231 1.410 . S
C232 C233 1.392 . S
C232 C235 1.511 . S
C233 C229 1.376 . S
C233 C232 1.392 . S
C233 H245 0.929 . S
C234 C230 1.531 . S
C234 H246 0.960 . S
C234 H247 0.962 . S
C234 H248 0.960 . S
C235 C232 1.511 . S
C235 H249 0.961 . S
C235 H250 0.961 . S
C235 H251 0.961 . S
C236 C237 1.370 . S
C236 C238 1.363 . S
C236 H252 0.931 . S
C237 C236 1.370 . S
C237 C241 1.408 . S
C238 C236 1.363 . S
C238 C239 1.370 . S
C238 C242 1.524 . S
C239 C231 1.503 . S
C239 C238 1.370 . S
C239 C240 1.403 . S
C240 C239 1.403 . S
C240 C241 1.404 . S
C240 C243 1.539 . S
C241 C237 1.408 . S
C241 C240 1.404 . S
C241 H253 0.930 . S
C242 C238 1.524 . S
C242 H254 0.956 . S
C242 H255 0.961 . S
C242 H256 0.961 . S
C243 C240 1.539 . S
C243 H257 0.958 . S
C243 H258 0.961 . S
C243 H259 0.960 . S
H244 C228 0.931 . S
H245 C233 0.929 . S
H246 C234 0.960 . S
H247 C234 0.962 . S
H248 C234 0.960 . S
H249 C235 0.961 . S
H250 C235 0.961 . S
H251 C235 0.961 . S
H252 C236 0.931 . S
H253 C241 0.930 . S
H254 C242 0.956 . S
H255 C242 0.961 . S
H256 C242 0.961 . S
H257 C243 0.958 . S
H258 C243 0.961 . S
H259 C243 0.960 . S
C260 C261 1.391 . S
C260 C262 1.394 . S
C260 H276 0.931 . S
C261 C260 1.391 . S
C261 C265 1.376 . S
C262 C260 1.394 . S
C262 C263 1.369 . S
C262 C266 1.531 . S
C263 C262 1.369 . S
C263 C264 1.410 . S
C263 C271 1.503 . S
C264 C263 1.410 . S
C264 C265 1.392 . S
C264 C267 1.511 . S
C265 C261 1.376 . S
C265 C264 1.392 . S
C265 H277 0.929 . S
C266 C262 1.531 . S
C266 H278 0.960 . S
C266 H279 0.962 . S
C266 H280 0.960 . S
C267 C264 1.511 . S
C267 H281 0.961 . S
C267 H282 0.961 . S
C267 H283 0.961 . S
C268 C269 1.370 . S
C268 C270 1.363 . S
C268 H284 0.931 . S
C269 C268 1.370 . S
C269 C273 1.408 . S
C270 C268 1.363 . S
C270 C271 1.370 . S
C270 C274 1.524 . S
C271 C263 1.503 . S
C271 C270 1.370 . S
C271 C272 1.403 . S
C272 C271 1.403 . S
C272 C273 1.404 . S
C272 C275 1.539 . S
C273 C269 1.408 . S
C273 C272 1.404 . S
C273 H285 0.930 . S
C274 C270 1.524 . S
C274 H286 0.956 . S
C274 H287 0.961 . S
C274 H288 0.961 . S
C275 C272 1.539 . S
C275 H289 0.958 . S
C275 H290 0.961 . S
C275 H291 0.960 . S
H276 C260 0.931 . S
H277 C265 0.929 . S
H278 C266 0.960 . S
H279 C266 0.962 . S
H280 C266 0.960 . S
H281 C267 0.961 . S
H282 C267 0.961 . S
H283 C267 0.961 . S
H284 C268 0.931 . S
H285 C273 0.930 . S
H286 C274 0.956 . S
H287 C274 0.961 . S
H288 C274 0.961 . S
H289 C275 0.958 . S
H290 C275 0.961 . S
H291 C275 0.960 . S
C292 C293 1.391 . S
C292 C294 1.394 . S
C292 H308 0.931 . S
C293 C292 1.391 . S
C293 C297 1.376 . S
C294 C292 1.394 . S
C294 C295 1.369 . S
C294 C298 1.531 . S
C295 C294 1.369 . S
C295 C296 1.410 . S
C295 C303 1.503 . S
C296 C295 1.410 . S
C296 C297 1.392 . S
C296 C299 1.511 . S
C297 C293 1.376 . S
C297 C296 1.392 . S
C297 H309 0.929 . S
C298 C294 1.531 . S
C298 H310 0.960 . S
C298 H311 0.962 . S
C298 H312 0.960 . S
C299 C296 1.511 . S
C299 H313 0.961 . S
C299 H314 0.961 . S
C299 H315 0.961 . S
C300 C301 1.370 . S
C300 C302 1.363 . S
C300 H316 0.931 . S
C301 C300 1.370 . S
C301 C305 1.408 . S
C302 C300 1.363 . S
C302 C303 1.370 . S
C302 C306 1.524 . S
C303 C295 1.503 . S
C303 C302 1.370 . S
C303 C304 1.403 . S
C304 C303 1.403 . S
C304 C305 1.404 . S
C304 C307 1.539 . S
C305 C301 1.408 . S
C305 C304 1.404 . S
C305 H317 0.930 . S
C306 C302 1.524 . S
C306 H318 0.956 . S
C306 H319 0.961 . S
C306 H320 0.961 . S
C307 C304 1.539 . S
C307 H321 0.958 . S
C307 H322 0.961 . S
C307 H323 0.960 . S
H308 C292 0.931 . S
H309 C297 0.929 . S
H310 C298 0.960 . S
H311 C298 0.962 . S
H312 C298 0.960 . S
H313 C299 0.961 . S
H314 C299 0.961 . S
H315 C299 0.961 . S
H316 C300 0.931 . S
H317 C305 0.930 . S
H318 C306 0.956 . S
H319 C306 0.961 . S
H320 C306 0.961 . S
H321 C307 0.958 . S
H322 C307 0.961 . S
H323 C307 0.960 . S
C324 C325 1.391 . S
C324 C326 1.394 . S
C324 H340 0.931 . S
C325 C324 1.391 . S
C325 C329 1.376 . S
C326 C324 1.394 . S
C326 C327 1.369 . S
C326 C330 1.531 1_556 S
C327 C326 1.369 . S
C327 C328 1.410 . S
C327 C335 1.503 1_556 S
C328 C327 1.410 . S
C328 C329 1.392 . S
C328 C331 1.511 . S
C329 C325 1.376 . S
C329 C328 1.392 . S
C329 H341 0.929 . S
C330 C326 1.531 1_554 S
C330 H342 0.960 . S
C330 H343 0.969 . S
C330 H344 0.960 . S
C331 C328 1.511 . S
C331 H345 0.961 . S
C331 H346 0.961 . S
C331 H347 0.961 . S
C332 C333 1.370 . S
C332 C334 1.363 . S
C332 H348 0.931 . S
C333 C332 1.370 . S
C333 C337 1.408 . S
C334 C332 1.363 . S
C334 C335 1.370 . S
C334 C338 1.524 1_554 S
C335 C327 1.503 1_554 S
C335 C334 1.370 . S
C335 C336 1.403 . S
C336 C335 1.403 . S
C336 C337 1.404 . S
C336 C339 1.539 . S
C337 C333 1.408 . S
C337 C336 1.404 . S
C337 H349 0.930 . S
C338 C334 1.524 1_556 S
C338 H350 0.956 . S
C338 H351 0.961 . S
C338 H352 0.961 . S
C339 C336 1.539 . S
C339 H353 0.958 . S
C339 H354 0.961 . S
C339 H355 0.960 . S
H340 C324 0.931 . S
H341 C329 0.929 . S
H342 C330 0.960 . S
H343 C330 0.969 . S
H344 C330 0.960 . S
H345 C331 0.961 . S
H346 C331 0.961 . S
H347 C331 0.961 . S
H348 C332 0.931 . S
H349 C337 0.930 . S
H350 C338 0.956 . S
H351 C338 0.961 . S
H352 C338 0.961 . S
H353 C339 0.958 . S
H354 C339 0.961 . S
H355 C339 0.960 . S
C356 C357 1.391 . S
C356 C358 1.394 . S
C356 H372 0.931 . S
C357 C356 1.391 . S
C357 C361 1.376 . S
C358 C356 1.394 . S
C358 C359 1.369 . S
C358 C362 1.531 . S
C359 C358 1.369 . S
C359 C360 1.410 . S
C359 C367 1.503 1_655 S
C360 C359 1.410 . S
C360 C361 1.392 . S
C360 C363 1.511 1_655 S
C361 C357 1.376 . S
C361 C360 1.392 . S
C361 H373 0.929 . S
C362 C358 1.531 . S
C362 H374 0.960 . S
C362 H375 0.962 . S
C362 H376 0.960 . S
C363 C360 1.511 1_455 S
C363 H377 0.961 . S
C363 H378 0.961 . S
C363 H379 0.961 . S
C364 C365 1.370 . S
C364 C366 1.363 . S
C364 H380 0.931 . S
C365 C364 1.370 . S
C365 C369 1.408 . S
C366 C364 1.363 . S
C366 C367 1.370 . S
C366 C370 1.524 1_455 S
C367 C359 1.503 1_455 S
C367 C366 1.370 . S
C367 C368 1.403 . S
C368 C367 1.403 . S
C368 C369 1.404 . S
C368 C371 1.539 . S
C369 C365 1.408 . S
C369 C368 1.404 . S
C369 H381 0.930 . S
C370 C366 1.524 1_655 S
C370 H382 0.956 . S
C370 H383 0.961 . S
C370 H384 0.961 . S
C371 C368 1.539 . S
C371 H385 0.958 . S
C371 H386 0.961 . S
C371 H387 0.960 . S
H372 C356 0.931 . S
H373 C361 0.929 . S
H374 C362 0.960 . S
H375 C362 0.962 . S
H376 C362 0.960 . S
H377 C363 0.961 . S
H378 C363 0.961 . S
H379 C363 0.961 . S
H380 C364 0.931 . S
H381 C369 0.930 . S
H382 C370 0.956 . S
H383 C370 0.961 . S
H384 C370 0.961 . S
H385 C371 0.958 . S
H386 C371 0.961 . S
H387 C371 0.960 . S
C388 C389 1.391 . S
C388 C390 1.394 . S
C388 H404 0.931 . S
C389 C388 1.391 . S
C389 C393 1.376 . S
C390 C388 1.394 . S
C390 C391 1.369 . S
C390 C394 1.531 1_545 S
C391 C390 1.369 . S
C391 C392 1.410 1_556 S
C391 C399 1.503 1_546 S
C392 C391 1.410 1_554 S
C392 C393 1.392 1_554 S
C392 C395 1.511 . S
C393 C389 1.376 . S
C393 C392 1.392 1_556 S
C393 H405 0.929 . S
C394 C390 1.531 1_565 S
C394 H406 0.960 . S
C394 H407 0.962 . S
C394 H408 0.960 . S
C395 C392 1.511 . S
C395 H409 0.961 . S
C395 H410 0.961 . S
C395 H411 0.961 . S
C396 C397 1.370 . S
C396 C398 1.363 . S
C396 H412 0.931 . S
C397 C396 1.370 . S
C397 C401 1.408 . S
C398 C396 1.363 . S
C398 C399 1.370 . S
C398 C402 1.524 1_554 S
C399 C391 1.503 1_564 S
C399 C398 1.370 . S
C399 C400 1.403 . S
C400 C399 1.403 . S
C400 C401 1.404 . S
C400 C403 1.539 . S
C401 C397 1.408 . S
C401 C400 1.404 . S
C401 H413 0.930 . S
C402 C398 1.524 1_556 S
C402 H414 0.956 . S
C402 H415 0.961 1_566 S
C402 H416 0.961 1_556 S
C403 C400 1.539 . S
C403 H417 0.958 . S
C403 H418 0.961 . S
C403 H419 0.960 1_565 S
H404 C388 0.931 . S
H405 C393 0.929 . S
H406 C394 0.960 . S
H407 C394 0.962 . S
H408 C394 0.960 . S
H409 C395 0.961 . S
H410 C395 0.961 . S
H411 C395 0.961 . S
H412 C396 0.931 . S
H413 C401 0.930 . S
H414 C402 0.956 . S
H415 C402 0.961 1_544 S
H416 C402 0.961 1_554 S
H417 C403 0.958 . S
H418 C403 0.961 . S
H419 C403 0.960 1_545 S
C420 C421 1.391 . S
C420 C422 1.394 . S
C420 H436 0.931 . S
C421 C420 1.391 . S
C421 C425 1.376 . S
C422 C420 1.394 . S
C422 C423 1.369 . S
C422 C426 1.531 . S
C423 C422 1.369 . S
C423 C424 1.410 . S
C423 C431 1.503 . S
C424 C423 1.410 . S
C424 C425 1.392 . S
C424 C427 1.511 . S
C425 C421 1.376 . S
C425 C424 1.392 . S
C425 H437 0.929 . S
C426 C422 1.531 . S
C426 H438 0.960 . S
C426 H439 0.962 . S
C426 H440 0.960 . S
C427 C424 1.511 . S
C427 H441 0.961 . S
C427 H442 0.961 . S
C427 H443 0.961 . S
C428 C429 1.370 . S
C428 C430 1.363 . S
C428 H444 0.931 . S
C429 C428 1.370 . S
C429 C433 1.408 . S
C430 C428 1.363 . S
C430 C431 1.370 . S
C430 C434 1.524 . S
C431 C423 1.503 . S
C431 C430 1.370 . S
C431 C432 1.403 . S
C432 C431 1.403 . S
C432 C433 1.404 . S
C432 C435 1.539 . S
C433 C429 1.408 . S
C433 C432 1.404 . S
C433 H445 0.930 . S
C434 C430 1.524 . S
C434 H446 0.956 . S
C434 H447 0.961 . S
C434 H448 0.961 . S
C435 C432 1.539 . S
C435 H449 0.958 . S
C435 H450 0.961 . S
C435 H451 0.960 . S
H436 C420 0.931 . S
H437 C425 0.929 . S
H438 C426 0.960 . S
H439 C426 0.962 . S
H440 C426 0.960 . S
H441 C427 0.961 . S
H442 C427 0.961 . S
H443 C427 0.961 . S
H444 C428 0.931 . S
H445 C433 0.930 . S
H446 C434 0.956 . S
H447 C434 0.961 . S
H448 C434 0.961 . S
H449 C435 0.958 . S
H450 C435 0.961 . S
H451 C435 0.960 . S
C452 C453 1.391 . S
C452 C454 1.385 1_556 S
C452 H468 0.931 . S
C453 C452 1.391 . S
C453 C457 1.376 . S
C454 C452 1.385 1_554 S
C454 C455 1.364 1_554 S
C454 C458 1.544 . S
C455 C454 1.364 1_556 S
C455 C456 1.410 . S
C455 C463 1.503 1_656 S
C456 C455 1.410 . S
C456 C457 1.392 . S
C456 C459 1.511 1_655 S
C457 C453 1.376 . S
C457 C456 1.392 . S
C457 H469 0.929 . S
C458 C454 1.544 . S
C458 H470 0.960 . S
C458 H471 0.962 . S
C458 H472 0.960 . S
C459 C456 1.511 1_455 S
C459 H473 0.961 . S
C459 H474 0.961 . S
C459 H475 0.961 . S
C460 C461 1.370 . S
C460 C462 1.363 . S
C460 H476 0.931 . S
C461 C460 1.370 . S
C461 C465 1.408 . S
C462 C460 1.363 . S
C462 C463 1.370 . S
C462 C466 1.524 . S
C463 C455 1.503 1_454 S
C463 C462 1.370 . S
C463 C464 1.403 . S
C464 C463 1.403 . S
C464 C465 1.404 . S
C464 C467 1.539 . S
C465 C461 1.408 . S
C465 C464 1.404 . S
C465 H477 0.930 . S
C466 C462 1.524 . S
C466 H478 0.956 1_455 S
C466 H479 0.961 1_554 S
C466 H480 0.961 . S
C467 C464 1.539 . S
C467 H481 0.958 . S
C467 H482 0.961 . S
C467 H483 0.960 1_554 S
H468 C452 0.931 . S
H469 C457 0.929 . S
H470 C458 0.960 . S
H471 C458 0.962 . S
H472 C458 0.960 . S
H473 C459 0.961 . S
H474 C459 0.961 . S
H475 C459 0.961 . S
H476 C460 0.931 . S
H477 C465 0.930 . S
H478 C466 0.956 1_655 S
H479 C466 0.961 1_556 S
H480 C466 0.961 . S
H481 C467 0.958 . S
H482 C467 0.961 . S
H483 C467 0.960 1_556 S
C484 C485 1.391 . S
C484 C486 1.394 . S
C484 H500 0.931 . S
C485 C484 1.391 . S
C485 C489 1.376 . S
C486 C484 1.394 . S
C486 C487 1.369 . S
C486 C490 1.531 . S
C487 C486 1.369 . S
C487 C488 1.410 . S
C487 C495 1.503 1_545 S
C488 C487 1.410 . S
C488 C489 1.392 . S
C488 C491 1.511 1_545 S
C489 C485 1.376 . S
C489 C488 1.392 . S
C489 H501 0.929 . S
C490 C486 1.531 . S
C490 H502 0.960 . S
C490 H503 0.962 . S
C490 H504 0.960 . S
C491 C488 1.511 1_565 S
C491 H505 0.961 . S
C491 H506 0.961 . S
C491 H507 0.961 . S
C492 C493 1.370 . S
C492 C494 1.363 . S
C492 H508 0.931 . S
C493 C492 1.370 . S
C493 C497 1.408 . S
C494 C492 1.363 . S
C494 C495 1.370 . S
C494 C498 1.524 . S
C495 C487 1.503 1_565 S
C495 C494 1.370 . S
C495 C496 1.403 . S
C496 C495 1.403 . S
C496 C497 1.404 . S
C496 C499 1.539 . S
C497 C493 1.408 . S
C497 C496 1.404 . S
C497 H509 0.930 . S
C498 C494 1.524 . S
C498 H510 0.956 1_565 S
C498 H511 0.961 . S
C498 H512 0.961 . S
C499 C496 1.539 . S
C499 H513 0.958 1_565 S
C499 H514 0.961 . S
C499 H515 0.960 . S
H500 C484 0.931 . S
H501 C489 0.929 . S
H502 C490 0.960 . S
H503 C490 0.962 . S
H504 C490 0.960 . S
H505 C491 0.961 . S
H506 C491 0.961 . S
H507 C491 0.961 . S
H508 C492 0.931 . S
H509 C497 0.930 . S
H510 C498 0.956 1_545 S
H511 C498 0.961 . S
H512 C498 0.961 . S
H513 C499 0.958 1_545 S
H514 C499 0.961 . S
H515 C499 0.960 . S
C516 C517 1.391 . S
C516 C518 1.394 . S
C516 H532 0.931 . S
C517 C516 1.391 . S
C517 C521 1.376 . S
C518 C516 1.394 . S
C518 C519 1.369 . S
C518 C522 1.531 . S
C519 C518 1.369 . S
C519 C520 1.410 . S
C519 C527 1.503 1_554 S
C520 C519 1.410 . S
C520 C521 1.392 . S
C520 C523 1.511 . S
C521 C517 1.376 . S
C521 C520 1.392 . S
C521 H533 0.929 . S
C522 C518 1.531 . S
C522 H534 0.960 . S
C522 H535 0.962 . S
C522 H536 0.960 . S
C523 C520 1.511 . S
C523 H537 0.961 . S
C523 H538 0.961 1_554 S
C523 H539 0.961 . S
C524 C525 1.370 . S
C524 C526 1.363 . S
C524 H540 0.931 . S
C525 C524 1.370 . S
C525 C529 1.408 . S
C526 C524 1.363 . S
C526 C527 1.370 . S
C526 C530 1.524 . S
C527 C519 1.503 1_556 S
C527 C526 1.370 . S
C527 C528 1.403 1_556 S
C528 C527 1.403 1_554 S
C528 C529 1.404 1_554 S
C528 C531 1.539 . S
C529 C525 1.408 . S
C529 C528 1.404 1_556 S
C529 H541 0.930 . S
C530 C526 1.524 . S
C530 H542 0.956 . S
C530 H543 0.961 . S
C530 H544 0.961 . S
C531 C528 1.539 . S
C531 H545 0.958 . S
C531 H546 0.961 . S
C531 H547 0.960 . S
H532 C516 0.931 . S
H533 C521 0.929 . S
H534 C522 0.960 . S
H535 C522 0.962 . S
H536 C522 0.960 . S
H537 C523 0.961 . S
H538 C523 0.961 1_556 S
H539 C523 0.961 . S
H540 C524 0.931 . S
H541 C529 0.930 . S
H542 C530 0.956 . S
H543 C530 0.961 . S
H544 C530 0.961 . S
H545 C531 0.958 . S
H546 C531 0.961 . S
H547 C531 0.960 . S
C548 C549 1.391 . S
C548 C550 1.394 . S
C548 H564 0.931 . S
C549 C548 1.391 . S
C549 C553 1.376 . S
C550 C548 1.394 . S
C550 C551 1.369 . S
C550 C554 1.531 . S
C551 C550 1.369 . S
C551 C552 1.410 . S
C551 C559 1.503 1_655 S
C552 C551 1.410 . S
C552 C553 1.392 . S
C552 C555 1.511 . S
C553 C549 1.376 . S
C553 C552 1.392 . S
C553 H565 0.929 . S
C554 C550 1.531 . S
C554 H566 0.960 . S
C554 H567 0.962 1_655 S
C554 H568 0.960 . S
C555 C552 1.511 . S
C555 H569 0.961 . S
C555 H570 0.961 . S
C555 H571 0.961 . S
C556 C557 1.370 . S
C556 C558 1.363 . S
C556 H572 0.931 . S
C557 C556 1.370 . S
C557 C561 1.408 . S
C558 C556 1.363 . S
C558 C559 1.370 . S
C558 C562 1.524 . S
C559 C551 1.503 1_455 S
C559 C558 1.370 . S
C559 C560 1.403 . S
C560 C559 1.403 . S
C560 C561 1.404 . S
C560 C563 1.539 1_455 S
C561 C557 1.408 . S
C561 C560 1.404 . S
C561 H573 0.930 . S
C562 C558 1.524 . S
C562 H574 0.956 . S
C562 H575 0.961 . S
C562 H576 0.961 . S
C563 C560 1.539 1_655 S
C563 H577 0.958 . S
C563 H578 0.961 . S
C563 H579 0.960 . S
H564 C548 0.931 . S
H565 C553 0.929 . S
H566 C554 0.960 . S
H567 C554 0.962 1_455 S
H568 C554 0.960 . S
H569 C555 0.961 . S
H570 C555 0.961 . S
H571 C555 0.961 . S
H572 C556 0.931 . S
H573 C561 0.930 . S
H574 C562 0.956 . S
H575 C562 0.961 . S
H576 C562 0.961 . S
H577 C563 0.958 . S
H578 C563 0.961 . S
H579 C563 0.960 . S
C580 C581 1.391 . S
C580 C582 1.394 . S
C580 H596 0.931 . S
C581 C580 1.391 . S
C581 C585 1.376 . S
C582 C580 1.394 . S
C582 C583 1.369 . S
C582 C586 1.531 1_554 S
C583 C582 1.369 . S
C583 C584 1.410 . S
C583 C591 1.503 1_564 S
C584 C583 1.410 . S
C584 C585 1.392 . S
C584 C587 1.511 . S
C585 C581 1.376 . S
C585 C584 1.392 . S
C585 H597 0.929 . S
C586 C582 1.531 1_556 S
C586 H598 0.960 . S
C586 H599 0.962 1_556 S
C586 H600 0.960 . S
C587 C584 1.511 . S
C587 H601 0.961 . S
C587 H602 0.961 1_565 S
C587 H603 0.961 1_554 S
C588 C589 1.370 . S
C588 C590 1.363 . S
C588 H604 0.931 . S
C589 C588 1.370 . S
C589 C593 1.408 . S
C590 C588 1.363 . S
C590 C591 1.370 . S
C590 C594 1.524 1_556 S
C591 C583 1.503 1_546 S
C591 C590 1.370 . S
C591 C592 1.403 . S
C592 C591 1.403 . S
C592 C593 1.404 . S
C592 C595 1.539 1_545 S
C593 C589 1.408 . S
C593 C592 1.404 . S
C593 H605 0.930 . S
C594 C590 1.524 1_554 S
C594 H606 0.956 . S
C594 H607 0.961 . S
C594 H608 0.961 . S
C595 C592 1.539 1_565 S
C595 H609 0.958 . S
C595 H610 0.961 . S
C595 H611 0.960 . S
H596 C580 0.931 . S
H597 C585 0.929 . S
H598 C586 0.960 . S
H599 C586 0.962 1_554 S
H600 C586 0.960 . S
H601 C587 0.961 . S
H602 C587 0.961 1_545 S
H603 C587 0.961 1_556 S
H604 C588 0.931 . S
H605 C593 0.930 . S
H606 C594 0.956 . S
H607 C594 0.961 . S
H608 C594 0.961 . S
H609 C595 0.958 . S
H610 C595 0.961 . S
H611 C595 0.960 . S
C612 C613 1.391 . S
C612 C614 1.394 . S
C612 H628 0.931 . S
C613 C612 1.391 . S
C613 C617 1.376 . S
C614 C612 1.394 . S
C614 C615 1.369 . S
C614 C618 1.531 . S
C615 C614 1.369 . S
C615 C616 1.410 . S
C615 C623 1.503 . S
C616 C615 1.410 . S
C616 C617 1.392 . S
C616 C619 1.511 . S
C617 C613 1.376 . S
C617 C616 1.392 . S
C617 H629 0.929 . S
C618 C614 1.531 . S
C618 H630 0.960 . S
C618 H631 0.962 . S
C618 H632 0.960 . S
C619 C616 1.511 . S
C619 H633 0.961 . S
C619 H634 0.961 . S
C619 H635 0.961 . S
C620 C621 1.370 . S
C620 C622 1.363 . S
C620 H636 0.931 . S
C621 C620 1.370 . S
C621 C625 1.408 . S
C622 C620 1.363 . S
C622 C623 1.370 . S
C622 C626 1.524 . S
C623 C615 1.503 . S
C623 C622 1.370 . S
C623 C624 1.403 . S
C624 C623 1.403 . S
C624 C625 1.404 . S
C624 C627 1.539 . S
C625 C621 1.408 . S
C625 C624 1.404 . S
C625 H637 0.930 . S
C626 C622 1.524 . S
C626 H638 0.956 . S
C626 H639 0.961 . S
C626 H640 0.961 . S
C627 C624 1.539 . S
C627 H641 0.958 . S
C627 H642 0.961 . S
C627 H643 0.960 . S
H628 C612 0.931 . S
H629 C617 0.929 . S
H630 C618 0.960 . S
H631 C618 0.962 . S
H632 C618 0.960 . S
H633 C619 0.961 . S
H634 C619 0.961 . S
H635 C619 0.961 . S
H636 C620 0.931 . S
H637 C625 0.930 . S
H638 C626 0.956 . S
H639 C626 0.961 . S
H640 C626 0.961 . S
H641 C627 0.958 . S
H642 C627 0.961 . S
H643 C627 0.960 . S
C644 C645 1.391 . S
C644 C646 1.394 . S
C644 H660 0.931 . S
C645 C644 1.391 . S
C645 C649 1.376 . S
C646 C644 1.394 . S
C646 C647 1.369 . S
C646 C650 1.531 1_556 S
C647 C646 1.369 . S
C647 C648 1.410 . S
C647 C655 1.503 1_656 S
C648 C647 1.410 . S
C648 C649 1.392 . S
C648 C651 1.511 1_655 S
C649 C645 1.376 . S
C649 C648 1.392 . S
C649 H661 0.929 . S
C650 C646 1.531 1_554 S
C650 H662 0.960 . S
C650 H663 0.962 . S
C650 H664 0.960 . S
C651 C648 1.511 1_455 S
C651 H665 0.961 . S
C651 H666 0.961 . S
C651 H667 0.961 1_455 S
C652 C653 1.370 . S
C652 C654 1.363 . S
C652 H668 0.931 . S
C653 C652 1.370 . S
C653 C657 1.408 . S
C654 C652 1.363 . S
C654 C655 1.370 . S
C654 C658 1.524 1_554 S
C655 C647 1.503 1_454 S
C655 C654 1.370 . S
C655 C656 1.403 . S
C656 C655 1.403 . S
C656 C657 1.404 . S
C656 C659 1.539 1_455 S
C657 C653 1.408 . S
C657 C656 1.404 . S
C657 H669 0.930 . S
C658 C654 1.524 1_556 S
C658 H670 0.956 . S
C658 H671 0.961 . S
C658 H672 0.961 . S
C659 C656 1.539 1_655 S
C659 H673 0.958 . S
C659 H674 0.961 . S
C659 H675 0.960 . S
H660 C644 0.931 . S
H661 C649 0.929 . S
H662 C650 0.960 . S
H663 C650 0.962 . S
H664 C650 0.960 . S
H665 C651 0.961 . S
H666 C651 0.961 . S
H667 C651 0.961 1_655 S
H668 C652 0.931 . S
H669 C657 0.930 . S
H670 C658 0.956 . S
H671 C658 0.961 . S
H672 C658 0.961 . S
H673 C659 0.958 . S
H674 C659 0.961 . S
H675 C659 0.960 . S
C676 C677 1.391 . S
C676 C678 1.394 . S
C676 H692 0.931 . S
C677 C676 1.391 . S
C677 C681 1.376 . S
C678 C676 1.394 . S
C678 C679 1.369 . S
C678 C682 1.531 . S
C679 C678 1.369 . S
C679 C680 1.410 . S
C679 C687 1.503 1_565 S
C680 C679 1.410 . S
C680 C681 1.392 . S
C680 C683 1.511 1_565 S
C681 C677 1.376 . S
C681 C680 1.392 . S
C681 H693 0.929 . S
C682 C678 1.531 . S
C682 H694 0.960 . S
C682 H695 0.962 . S
C682 H696 0.960 . S
C683 C680 1.511 1_545 S
C683 H697 0.961 . S
C683 H698 0.961 . S
C683 H699 0.961 . S
C684 C685 1.370 . S
C684 C686 1.363 . S
C684 H700 0.931 . S
C685 C684 1.370 . S
C685 C689 1.408 . S
C686 C684 1.363 . S
C686 C687 1.370 . S
C686 C690 1.524 . S
C687 C679 1.503 1_545 S
C687 C686 1.370 . S
C687 C688 1.403 . S
C688 C687 1.403 . S
C688 C689 1.404 . S
C688 C691 1.539 . S
C689 C685 1.408 . S
C689 C688 1.404 . S
C689 H701 0.930 . S
C690 C686 1.524 . S
C690 H702 0.956 . S
C690 H703 0.961 . S
C690 H704 0.961 . S
C691 C688 1.539 . S
C691 H705 0.958 1_545 S
C691 H706 0.961 . S
C691 H707 0.960 1_545 S
H692 C676 0.931 . S
H693 C681 0.929 . S
H694 C682 0.960 . S
H695 C682 0.962 . S
H696 C682 0.960 . S
H697 C683 0.961 . S
H698 C683 0.961 . S
H699 C683 0.961 . S
H700 C684 0.931 . S
H701 C689 0.930 . S
H702 C690 0.956 . S
H703 C690 0.961 . S
H704 C690 0.961 . S
H705 C691 0.958 1_565 S
H706 C691 0.961 . S
H707 C691 0.960 1_565 S
C133 C5 1.348 . S
C141 C94 1.347 . S
C165 C28 1.338 . S
C173 C116 1.339 . S
C197 C7 1.356 . S
C205 C50 1.350 . S
C229 C72 1.320 . S
C237 C31 1.336 . S
C261 C53 1.317 . S
C269 C97 1.334 . S
C293 C75 1.323 . S
C301 C119 1.333 . S
C325 C117 1.546 . S
C333 C8 1.565 . S
C357 C29 1.571 . S
C365 C6 1.557 . S
C389 C26 1.538 . S
C397 C51 1.555 . S
C421 C48 1.543 . S
C429 C73 1.564 . S
C453 C70 1.566 . S
C461 C92 1.562 . S
C485 C114 1.565 . S
C493 C95 1.562 . S
C517 C49 1.569 . S
C525 C74 1.555 . S
C549 C71 1.544 . S
C557 C93 1.563 . S
C581 C96 1.539 . S
C589 C115 1.560 . S
C613 C118 1.555 . S
C621 C9 1.565 . S
C645 C30 1.536 . S
C653 C4 1.557 . S
C677 C52 1.538 . S
C685 C27 1.553 . S
