# Generated by pormake.
# Topology swa, (7)-cn, num edge types: 1
# Building blocks:
#     Node 0, Type 0, BuildingBlock: NUHQUE_clean_sbu_2, # of connection points: 7
#     Node 1, Type 0, BuildingBlock: NUHQUE_clean_sbu_2, # of connection points: 7
#     Node 2, Type 0, BuildingBlock: NUHQUE_clean_sbu_2, # of connection points: 7
#     Node 3, Type 0, BuildingBlock: NUHQUE_clean_sbu_2, # of connection points: 7
#     Node 4, Type 0, BuildingBlock: NUHQUE_clean_sbu_2, # of connection points: 7
#     Node 5, Type 0, BuildingBlock: NUHQUE_clean_sbu_2, # of connection points: 7
#     Node 6, Type 0, BuildingBlock: NUHQUE_clean_sbu_2, # of connection points: 7
#     Node 7, Type 0, BuildingBlock: NUHQUE_clean_sbu_2, # of connection points: 7
#     Node 8, Type 0, BuildingBlock: NUHQUE_clean_sbu_2, # of connection points: 7
#     Node 9, Type 0, BuildingBlock: NUHQUE_clean_sbu_2, # of connection points: 7
#     Node 10, Type 0, BuildingBlock: NUHQUE_clean_sbu_2, # of connection points: 7
#     Node 11, Type 0, BuildingBlock: NUHQUE_clean_sbu_2, # of connection points: 7
#     Node 12, Type 0, BuildingBlock: NUHQUE_clean_sbu_2, # of connection points: 7
#     Node 13, Type 0, BuildingBlock: NUHQUE_clean_sbu_2, # of connection points: 7
#     Node 14, Type 0, BuildingBlock: NUHQUE_clean_sbu_2, # of connection points: 7
#     Node 15, Type 0, BuildingBlock: NUHQUE_clean_sbu_2, # of connection points: 7
#     Node 16, Type 0, BuildingBlock: NUHQUE_clean_sbu_2, # of connection points: 7
#     Node 17, Type 0, BuildingBlock: NUHQUE_clean_sbu_2, # of connection points: 7
#     Node 18, Type 0, BuildingBlock: NUHQUE_clean_sbu_2, # of connection points: 7
#     Node 19, Type 0, BuildingBlock: NUHQUE_clean_sbu_2, # of connection points: 7
#     Node 20, Type 0, BuildingBlock: NUHQUE_clean_sbu_2, # of connection points: 7
#     Node 21, Type 0, BuildingBlock: NUHQUE_clean_sbu_2, # of connection points: 7
#     Node 22, Type 0, BuildingBlock: NUHQUE_clean_sbu_2, # of connection points: 7
#     Node 23, Type 0, BuildingBlock: NUHQUE_clean_sbu_2, # of connection points: 7
#     Node 24, Type 0, BuildingBlock: NUHQUE_clean_sbu_2, # of connection points: 7
#     Node 25, Type 0, BuildingBlock: NUHQUE_clean_sbu_2, # of connection points: 7
#     Node 26, Type 0, BuildingBlock: NUHQUE_clean_sbu_2, # of connection points: 7
#     Node 27, Type 0, BuildingBlock: NUHQUE_clean_sbu_2, # of connection points: 7
#     Node 28, Type 0, BuildingBlock: NUHQUE_clean_sbu_2, # of connection points: 7
#     Node 29, Type 0, BuildingBlock: NUHQUE_clean_sbu_2, # of connection points: 7
#     Node 30, Type 0, BuildingBlock: NUHQUE_clean_sbu_2, # of connection points: 7
#     Node 31, Type 0, BuildingBlock: NUHQUE_clean_sbu_2, # of connection points: 7
#     Node 32, Type 0, BuildingBlock: NUHQUE_clean_sbu_2, # of connection points: 7
#     Node 33, Type 0, BuildingBlock: NUHQUE_clean_sbu_2, # of connection points: 7
#     Node 34, Type 0, BuildingBlock: NUHQUE_clean_sbu_2, # of connection points: 7
#     Node 35, Type 0, BuildingBlock: NUHQUE_clean_sbu_2, # of connection points: 7
#     Node 36, Type 0, BuildingBlock: NUHQUE_clean_sbu_2, # of connection points: 7
#     Node 37, Type 0, BuildingBlock: NUHQUE_clean_sbu_2, # of connection points: 7
#     Node 38, Type 0, BuildingBlock: NUHQUE_clean_sbu_2, # of connection points: 7
#     Node 39, Type 0, BuildingBlock: NUHQUE_clean_sbu_2, # of connection points: 7
#     Node 40, Type 0, BuildingBlock: NUHQUE_clean_sbu_2, # of connection points: 7
#     Node 41, Type 0, BuildingBlock: NUHQUE_clean_sbu_2, # of connection points: 7
#     Node 42, Type 0, BuildingBlock: NUHQUE_clean_sbu_2, # of connection points: 7
#     Node 43, Type 0, BuildingBlock: NUHQUE_clean_sbu_2, # of connection points: 7
#     Node 44, Type 0, BuildingBlock: NUHQUE_clean_sbu_2, # of connection points: 7
#     Node 45, Type 0, BuildingBlock: NUHQUE_clean_sbu_2, # of connection points: 7
#     Node 46, Type 0, BuildingBlock: NUHQUE_clean_sbu_2, # of connection points: 7
#     Node 47, Type 0, BuildingBlock: NUHQUE_clean_sbu_2, # of connection points: 7
#     Edge 48, Type (0, 0), BuildingBlock: ZUJKAS_clean_linker_0, # of connection points: 2
#     Edge 49, Type (0, 0), BuildingBlock: ZUJKAS_clean_linker_0, # of connection points: 2
#     Edge 50, Type (0, 0), BuildingBlock: ZUJKAS_clean_linker_0, # of connection points: 2
#     Edge 51, Type (0, 0), BuildingBlock: ZUJKAS_clean_linker_0, # of connection points: 2
#     Edge 52, Type (0, 0), BuildingBlock: ZUJKAS_clean_linker_0, # of connection points: 2
#     Edge 53, Type (0, 0), BuildingBlock: ZUJKAS_clean_linker_0, # of connection points: 2
#     Edge 54, Type (0, 0), BuildingBlock: ZUJKAS_clean_linker_0, # of connection points: 2
#     Edge 55, Type (0, 0), BuildingBlock: ZUJKAS_clean_linker_0, # of connection points: 2
#     Edge 56, Type (0, 0), BuildingBlock: ZUJKAS_clean_linker_0, # of connection points: 2
#     Edge 57, Type (0, 0), BuildingBlock: ZUJKAS_clean_linker_0, # of connection points: 2
#     Edge 58, Type (0, 0), BuildingBlock: ZUJKAS_clean_linker_0, # of connection points: 2
#     Edge 59, Type (0, 0), BuildingBlock: ZUJKAS_clean_linker_0, # of connection points: 2
#     Edge 60, Type (0, 0), BuildingBlock: ZUJKAS_clean_linker_0, # of connection points: 2
#     Edge 61, Type (0, 0), BuildingBlock: ZUJKAS_clean_linker_0, # of connection points: 2
#     Edge 62, Type (0, 0), BuildingBlock: ZUJKAS_clean_linker_0, # of connection points: 2
#     Edge 63, Type (0, 0), BuildingBlock: ZUJKAS_clean_linker_0, # of connection points: 2
#     Edge 64, Type (0, 0), BuildingBlock: ZUJKAS_clean_linker_0, # of connection points: 2
#     Edge 65, Type (0, 0), BuildingBlock: ZUJKAS_clean_linker_0, # of connection points: 2
#     Edge 66, Type (0, 0), BuildingBlock: ZUJKAS_clean_linker_0, # of connection points: 2
#     Edge 67, Type (0, 0), BuildingBlock: ZUJKAS_clean_linker_0, # of connection points: 2
#     Edge 68, Type (0, 0), BuildingBlock: ZUJKAS_clean_linker_0, # of connection points: 2
#     Edge 69, Type (0, 0), BuildingBlock: ZUJKAS_clean_linker_0, # of connection points: 2
#     Edge 70, Type (0, 0), BuildingBlock: ZUJKAS_clean_linker_0, # of connection points: 2
#     Edge 71, Type (0, 0), BuildingBlock: ZUJKAS_clean_linker_0, # of connection points: 2
#     Edge 72, Type (0, 0), BuildingBlock: ZUJKAS_clean_linker_0, # of connection points: 2
#     Edge 73, Type (0, 0), BuildingBlock: ZUJKAS_clean_linker_0, # of connection points: 2
#     Edge 74, Type (0, 0), BuildingBlock: ZUJKAS_clean_linker_0, # of connection points: 2
#     Edge 75, Type (0, 0), BuildingBlock: ZUJKAS_clean_linker_0, # of connection points: 2
#     Edge 76, Type (0, 0), BuildingBlock: ZUJKAS_clean_linker_0, # of connection points: 2
#     Edge 77, Type (0, 0), BuildingBlock: ZUJKAS_clean_linker_0, # of connection points: 2
#     Edge 78, Type (0, 0), BuildingBlock: ZUJKAS_clean_linker_0, # of connection points: 2
#     Edge 79, Type (0, 0), BuildingBlock: ZUJKAS_clean_linker_0, # of connection points: 2
#     Edge 80, Type (0, 0), BuildingBlock: ZUJKAS_clean_linker_0, # of connection points: 2
#     Edge 81, Type (0, 0), BuildingBlock: ZUJKAS_clean_linker_0, # of connection points: 2
#     Edge 82, Type (0, 0), BuildingBlock: ZUJKAS_clean_linker_0, # of connection points: 2
#     Edge 83, Type (0, 0), BuildingBlock: ZUJKAS_clean_linker_0, # of connection points: 2
#     Edge 84, Type (0, 0), BuildingBlock: ZUJKAS_clean_linker_0, # of connection points: 2
#     Edge 85, Type (0, 0), BuildingBlock: ZUJKAS_clean_linker_0, # of connection points: 2
#     Edge 86, Type (0, 0), BuildingBlock: ZUJKAS_clean_linker_0, # of connection points: 2
#     Edge 87, Type (0, 0), BuildingBlock: ZUJKAS_clean_linker_0, # of connection points: 2
#     Edge 88, Type (0, 0), BuildingBlock: ZUJKAS_clean_linker_0, # of connection points: 2
#     Edge 89, Type (0, 0), BuildingBlock: ZUJKAS_clean_linker_0, # of connection points: 2
#     Edge 90, Type (0, 0), BuildingBlock: ZUJKAS_clean_linker_0, # of connection points: 2
#     Edge 91, Type (0, 0), BuildingBlock: ZUJKAS_clean_linker_0, # of connection points: 2
#     Edge 92, Type (0, 0), BuildingBlock: ZUJKAS_clean_linker_0, # of connection points: 2
#     Edge 93, Type (0, 0), BuildingBlock: ZUJKAS_clean_linker_0, # of connection points: 2
#     Edge 94, Type (0, 0), BuildingBlock: ZUJKAS_clean_linker_0, # of connection points: 2
#     Edge 95, Type (0, 0), BuildingBlock: ZUJKAS_clean_linker_0, # of connection points: 2
#     Edge 96, Type (0, 0), BuildingBlock: ZUJKAS_clean_linker_0, # of connection points: 2
#     Edge 97, Type (0, 0), BuildingBlock: ZUJKAS_clean_linker_0, # of connection points: 2
#     Edge 98, Type (0, 0), BuildingBlock: ZUJKAS_clean_linker_0, # of connection points: 2
#     Edge 99, Type (0, 0), BuildingBlock: ZUJKAS_clean_linker_0, # of connection points: 2
#     Edge 100, Type (0, 0), BuildingBlock: ZUJKAS_clean_linker_0, # of connection points: 2
#     Edge 101, Type (0, 0), BuildingBlock: ZUJKAS_clean_linker_0, # of connection points: 2
#     Edge 102, Type (0, 0), BuildingBlock: ZUJKAS_clean_linker_0, # of connection points: 2
#     Edge 103, Type (0, 0), BuildingBlock: ZUJKAS_clean_linker_0, # of connection points: 2
#     Edge 104, Type (0, 0), BuildingBlock: ZUJKAS_clean_linker_0, # of connection points: 2
#     Edge 105, Type (0, 0), BuildingBlock: ZUJKAS_clean_linker_0, # of connection points: 2
#     Edge 106, Type (0, 0), BuildingBlock: ZUJKAS_clean_linker_0, # of connection points: 2
#     Edge 107, Type (0, 0), BuildingBlock: ZUJKAS_clean_linker_0, # of connection points: 2
#     Edge 108, Type (0, 0), BuildingBlock: ZUJKAS_clean_linker_0, # of connection points: 2
#     Edge 109, Type (0, 0), BuildingBlock: ZUJKAS_clean_linker_0, # of connection points: 2
#     Edge 110, Type (0, 0), BuildingBlock: ZUJKAS_clean_linker_0, # of connection points: 2
#     Edge 111, Type (0, 0), BuildingBlock: ZUJKAS_clean_linker_0, # of connection points: 2
#     Edge 112, Type (0, 0), BuildingBlock: ZUJKAS_clean_linker_0, # of connection points: 2
#     Edge 113, Type (0, 0), BuildingBlock: ZUJKAS_clean_linker_0, # of connection points: 2
#     Edge 114, Type (0, 0), BuildingBlock: ZUJKAS_clean_linker_0, # of connection points: 2
#     Edge 115, Type (0, 0), BuildingBlock: ZUJKAS_clean_linker_0, # of connection points: 2
#     Edge 116, Type (0, 0), BuildingBlock: ZUJKAS_clean_linker_0, # of connection points: 2
#     Edge 117, Type (0, 0), BuildingBlock: ZUJKAS_clean_linker_0, # of connection points: 2
#     Edge 118, Type (0, 0), BuildingBlock: ZUJKAS_clean_linker_0, # of connection points: 2
#     Edge 119, Type (0, 0), BuildingBlock: ZUJKAS_clean_linker_0, # of connection points: 2
#     Edge 120, Type (0, 0), BuildingBlock: ZUJKAS_clean_linker_0, # of connection points: 2
#     Edge 121, Type (0, 0), BuildingBlock: ZUJKAS_clean_linker_0, # of connection points: 2
#     Edge 122, Type (0, 0), BuildingBlock: ZUJKAS_clean_linker_0, # of connection points: 2
#     Edge 123, Type (0, 0), BuildingBlock: ZUJKAS_clean_linker_0, # of connection points: 2
#     Edge 124, Type (0, 0), BuildingBlock: ZUJKAS_clean_linker_0, # of connection points: 2
#     Edge 125, Type (0, 0), BuildingBlock: ZUJKAS_clean_linker_0, # of connection points: 2
#     Edge 126, Type (0, 0), BuildingBlock: ZUJKAS_clean_linker_0, # of connection points: 2
#     Edge 127, Type (0, 0), BuildingBlock: ZUJKAS_clean_linker_0, # of connection points: 2
#     Edge 128, Type (0, 0), BuildingBlock: ZUJKAS_clean_linker_0, # of connection points: 2
#     Edge 129, Type (0, 0), BuildingBlock: ZUJKAS_clean_linker_0, # of connection points: 2
#     Edge 130, Type (0, 0), BuildingBlock: ZUJKAS_clean_linker_0, # of connection points: 2
#     Edge 131, Type (0, 0), BuildingBlock: ZUJKAS_clean_linker_0, # of connection points: 2
#     Edge 132, Type (0, 0), BuildingBlock: ZUJKAS_clean_linker_0, # of connection points: 2
#     Edge 133, Type (0, 0), BuildingBlock: ZUJKAS_clean_linker_0, # of connection points: 2
#     Edge 134, Type (0, 0), BuildingBlock: ZUJKAS_clean_linker_0, # of connection points: 2
#     Edge 135, Type (0, 0), BuildingBlock: ZUJKAS_clean_linker_0, # of connection points: 2
#     Edge 136, Type (0, 0), BuildingBlock: ZUJKAS_clean_linker_0, # of connection points: 2
#     Edge 137, Type (0, 0), BuildingBlock: ZUJKAS_clean_linker_0, # of connection points: 2
#     Edge 138, Type (0, 0), BuildingBlock: ZUJKAS_clean_linker_0, # of connection points: 2
#     Edge 139, Type (0, 0), BuildingBlock: ZUJKAS_clean_linker_0, # of connection points: 2
#     Edge 140, Type (0, 0), BuildingBlock: ZUJKAS_clean_linker_0, # of connection points: 2
#     Edge 141, Type (0, 0), BuildingBlock: ZUJKAS_clean_linker_0, # of connection points: 2
#     Edge 142, Type (0, 0), BuildingBlock: ZUJKAS_clean_linker_0, # of connection points: 2
#     Edge 143, Type (0, 0), BuildingBlock: ZUJKAS_clean_linker_0, # of connection points: 2
#     Edge 144, Type (0, 0), BuildingBlock: ZUJKAS_clean_linker_0, # of connection points: 2
#     Edge 145, Type (0, 0), BuildingBlock: ZUJKAS_clean_linker_0, # of connection points: 2
#     Edge 146, Type (0, 0), BuildingBlock: ZUJKAS_clean_linker_0, # of connection points: 2
#     Edge 147, Type (0, 0), BuildingBlock: ZUJKAS_clean_linker_0, # of connection points: 2
#     Edge 148, Type (0, 0), BuildingBlock: ZUJKAS_clean_linker_0, # of connection points: 2
#     Edge 149, Type (0, 0), BuildingBlock: ZUJKAS_clean_linker_0, # of connection points: 2
#     Edge 150, Type (0, 0), BuildingBlock: ZUJKAS_clean_linker_0, # of connection points: 2
#     Edge 151, Type (0, 0), BuildingBlock: ZUJKAS_clean_linker_0, # of connection points: 2
#     Edge 152, Type (0, 0), BuildingBlock: ZUJKAS_clean_linker_0, # of connection points: 2
#     Edge 153, Type (0, 0), BuildingBlock: ZUJKAS_clean_linker_0, # of connection points: 2
#     Edge 154, Type (0, 0), BuildingBlock: ZUJKAS_clean_linker_0, # of connection points: 2
#     Edge 155, Type (0, 0), BuildingBlock: ZUJKAS_clean_linker_0, # of connection points: 2
#     Edge 156, Type (0, 0), BuildingBlock: ZUJKAS_clean_linker_0, # of connection points: 2
#     Edge 157, Type (0, 0), BuildingBlock: ZUJKAS_clean_linker_0, # of connection points: 2
#     Edge 158, Type (0, 0), BuildingBlock: ZUJKAS_clean_linker_0, # of connection points: 2
#     Edge 159, Type (0, 0), BuildingBlock: ZUJKAS_clean_linker_0, # of connection points: 2
#     Edge 160, Type (0, 0), BuildingBlock: ZUJKAS_clean_linker_0, # of connection points: 2
#     Edge 161, Type (0, 0), BuildingBlock: ZUJKAS_clean_linker_0, # of connection points: 2
#     Edge 162, Type (0, 0), BuildingBlock: ZUJKAS_clean_linker_0, # of connection points: 2
#     Edge 163, Type (0, 0), BuildingBlock: ZUJKAS_clean_linker_0, # of connection points: 2
#     Edge 164, Type (0, 0), BuildingBlock: ZUJKAS_clean_linker_0, # of connection points: 2
#     Edge 165, Type (0, 0), BuildingBlock: ZUJKAS_clean_linker_0, # of connection points: 2
#     Edge 166, Type (0, 0), BuildingBlock: ZUJKAS_clean_linker_0, # of connection points: 2
#     Edge 167, Type (0, 0), BuildingBlock: ZUJKAS_clean_linker_0, # of connection points: 2
#     Edge 168, Type (0, 0), BuildingBlock: ZUJKAS_clean_linker_0, # of connection points: 2
#     Edge 169, Type (0, 0), BuildingBlock: ZUJKAS_clean_linker_0, # of connection points: 2
#     Edge 170, Type (0, 0), BuildingBlock: ZUJKAS_clean_linker_0, # of connection points: 2
#     Edge 171, Type (0, 0), BuildingBlock: ZUJKAS_clean_linker_0, # of connection points: 2
#     Edge 172, Type (0, 0), BuildingBlock: ZUJKAS_clean_linker_0, # of connection points: 2
#     Edge 173, Type (0, 0), BuildingBlock: ZUJKAS_clean_linker_0, # of connection points: 2
#     Edge 174, Type (0, 0), BuildingBlock: ZUJKAS_clean_linker_0, # of connection points: 2
#     Edge 175, Type (0, 0), BuildingBlock: ZUJKAS_clean_linker_0, # of connection points: 2
#     Edge 176, Type (0, 0), BuildingBlock: ZUJKAS_clean_linker_0, # of connection points: 2
#     Edge 177, Type (0, 0), BuildingBlock: ZUJKAS_clean_linker_0, # of connection points: 2
#     Edge 178, Type (0, 0), BuildingBlock: ZUJKAS_clean_linker_0, # of connection points: 2
#     Edge 179, Type (0, 0), BuildingBlock: ZUJKAS_clean_linker_0, # of connection points: 2
#     Edge 180, Type (0, 0), BuildingBlock: ZUJKAS_clean_linker_0, # of connection points: 2
#     Edge 181, Type (0, 0), BuildingBlock: ZUJKAS_clean_linker_0, # of connection points: 2
#     Edge 182, Type (0, 0), BuildingBlock: ZUJKAS_clean_linker_0, # of connection points: 2
#     Edge 183, Type (0, 0), BuildingBlock: ZUJKAS_clean_linker_0, # of connection points: 2
#     Edge 184, Type (0, 0), BuildingBlock: ZUJKAS_clean_linker_0, # of connection points: 2
#     Edge 185, Type (0, 0), BuildingBlock: ZUJKAS_clean_linker_0, # of connection points: 2
#     Edge 186, Type (0, 0), BuildingBlock: ZUJKAS_clean_linker_0, # of connection points: 2
#     Edge 187, Type (0, 0), BuildingBlock: ZUJKAS_clean_linker_0, # of connection points: 2
#     Edge 188, Type (0, 0), BuildingBlock: ZUJKAS_clean_linker_0, # of connection points: 2
#     Edge 189, Type (0, 0), BuildingBlock: ZUJKAS_clean_linker_0, # of connection points: 2
#     Edge 190, Type (0, 0), BuildingBlock: ZUJKAS_clean_linker_0, # of connection points: 2
#     Edge 191, Type (0, 0), BuildingBlock: ZUJKAS_clean_linker_0, # of connection points: 2
#     Edge 192, Type (0, 0), BuildingBlock: ZUJKAS_clean_linker_0, # of connection points: 2
#     Edge 193, Type (0, 0), BuildingBlock: ZUJKAS_clean_linker_0, # of connection points: 2
#     Edge 194, Type (0, 0), BuildingBlock: ZUJKAS_clean_linker_0, # of connection points: 2
#     Edge 195, Type (0, 0), BuildingBlock: ZUJKAS_clean_linker_0, # of connection points: 2
#     Edge 196, Type (0, 0), BuildingBlock: ZUJKAS_clean_linker_0, # of connection points: 2
#     Edge 197, Type (0, 0), BuildingBlock: ZUJKAS_clean_linker_0, # of connection points: 2
#     Edge 198, Type (0, 0), BuildingBlock: ZUJKAS_clean_linker_0, # of connection points: 2
#     Edge 199, Type (0, 0), BuildingBlock: ZUJKAS_clean_linker_0, # of connection points: 2
#     Edge 200, Type (0, 0), BuildingBlock: ZUJKAS_clean_linker_0, # of connection points: 2
#     Edge 201, Type (0, 0), BuildingBlock: ZUJKAS_clean_linker_0, # of connection points: 2
#     Edge 202, Type (0, 0), BuildingBlock: ZUJKAS_clean_linker_0, # of connection points: 2
#     Edge 203, Type (0, 0), BuildingBlock: ZUJKAS_clean_linker_0, # of connection points: 2
#     Edge 204, Type (0, 0), BuildingBlock: ZUJKAS_clean_linker_0, # of connection points: 2
#     Edge 205, Type (0, 0), BuildingBlock: ZUJKAS_clean_linker_0, # of connection points: 2
#     Edge 206, Type (0, 0), BuildingBlock: ZUJKAS_clean_linker_0, # of connection points: 2
#     Edge 207, Type (0, 0), BuildingBlock: ZUJKAS_clean_linker_0, # of connection points: 2
#     Edge 208, Type (0, 0), BuildingBlock: ZUJKAS_clean_linker_0, # of connection points: 2
#     Edge 209, Type (0, 0), BuildingBlock: ZUJKAS_clean_linker_0, # of connection points: 2
#     Edge 210, Type (0, 0), BuildingBlock: ZUJKAS_clean_linker_0, # of connection points: 2
#     Edge 211, Type (0, 0), BuildingBlock: ZUJKAS_clean_linker_0, # of connection points: 2
#     Edge 212, Type (0, 0), BuildingBlock: ZUJKAS_clean_linker_0, # of connection points: 2
#     Edge 213, Type (0, 0), BuildingBlock: ZUJKAS_clean_linker_0, # of connection points: 2
#     Edge 214, Type (0, 0), BuildingBlock: ZUJKAS_clean_linker_0, # of connection points: 2
#     Edge 215, Type (0, 0), BuildingBlock: ZUJKAS_clean_linker_0, # of connection points: 2
# Relax obj value: 0.234
# Max RMSD: 0.235
# Mean RMSD: 0.235
data_MOF--net-swa--node1-NUHQUE_clean_sbu_2--edge1-ZUJKAS_clean_linker_0
_symmetry_space_group_name_H-M    P1
_symmetry_Int_Tables_number       1
_symmetry_cell_setting            triclinic
loop_
_symmetry_equiv_pos_as_xyz
'x, y, z'
_cell_length_a     87.401327
_cell_length_b     87.400704
_cell_length_c     87.396812
_cell_angle_alpha  90.056278
_cell_angle_beta   90.047227
_cell_angle_gamma 90.006879
loop_
_atom_site_label
_atom_site_type_symbol
_atom_site_fract_x
_atom_site_fract_y
_atom_site_fract_z
_atom_type_partial_charge
O0 O 0.11215 0.63053 0.13566 0.0
Tb1 Tb 0.09387 0.64602 0.1288 0.0
Eu2 Eu 0.08565 0.65451 0.16925 0.0
C3 C 0.12067 0.63287 0.14785 0.0
O4 O 0.11595 0.6425 0.15832 0.0
C5 C 0.10863 0.67459 0.14685 0.0
O6 O 0.06547 0.67019 0.16583 0.0
C7 C 0.09102 0.65009 0.1981 0.0
C8 C 0.064 0.67788 0.15299 0.0
O9 O 0.07404 0.67577 0.14204 0.0
C10 C 0.06567 0.63454 0.14735 0.0
C11 C 0.08638 0.64122 0.21169 0.0
C12 C 0.09779 0.63565 0.22154 0.0
C13 C 0.09388 0.62876 0.2355 0.0
C14 C 0.0784 0.62734 0.23947 0.0
C15 C 0.06687 0.63332 0.23002 0.0
C16 C 0.07091 0.64002 0.21599 0.0
O17 O 0.10519 0.66742 0.13405 0.0
O18 O 0.10368 0.67074 0.16054 0.0
O19 O 0.09528 0.63431 0.10662 0.0
O20 O 0.09171 0.65829 0.10716 0.0
C21 C 0.09343 0.64651 0.09829 0.0
O22 O 0.07432 0.63346 0.15958 0.0
O23 O 0.07023 0.64258 0.13555 0.0
O24 O 0.08127 0.6603 0.19291 0.0
O25 O 0.09855 0.64286 0.18724 0.0
H26 H 0.10975 0.63726 0.21866 0.0
H27 H 0.07542 0.62287 0.25065 0.0
H28 H 0.06206 0.64487 0.20878 0.0
O29 O 0.8759 0.11383 0.13008 0.0
Tb30 Tb 0.86272 0.09339 0.12473 0.0
Eu31 Eu 0.85248 0.0891 0.16531 0.0
C32 C 0.87691 0.12045 0.14354 0.0
O33 O 0.87126 0.11368 0.15565 0.0
C34 C 0.83434 0.10918 0.14036 0.0
O35 O 0.83538 0.0702 0.16103 0.0
C36 C 0.85363 0.09502 0.19444 0.0
C37 C 0.83196 0.06534 0.14721 0.0
O38 O 0.83914 0.07111 0.13539 0.0
C39 C 0.87692 0.06844 0.14711 0.0
C40 C 0.86081 0.09 0.2089 0.0
C41 C 0.8675 0.10105 0.21851 0.0
C42 C 0.87325 0.09699 0.23298 0.0
C43 C 0.87241 0.08163 0.23761 0.0
C44 C 0.8657 0.07046 0.22823 0.0
C45 C 0.85993 0.07469 0.21384 0.0
O46 O 0.83955 0.10118 0.12877 0.0
O47 O 0.84075 0.10909 0.15396 0.0
O48 O 0.87343 0.09841 0.10266 0.0
O49 O 0.85376 0.08428 0.10314 0.0
C50 C 0.86387 0.09064 0.09433 0.0
O51 O 0.87443 0.07685 0.15935 0.0
O52 O 0.87135 0.07186 0.13356 0.0
O53 O 0.84344 0.08589 0.18819 0.0
O54 O 0.86247 0.10184 0.18439 0.0
H55 H 0.86788 0.11289 0.21485 0.0
H56 H 0.87609 0.07848 0.24903 0.0
H57 H 0.85453 0.06612 0.20667 0.0
O58 O 0.39832 0.85158 0.13939 0.0
Tb59 Tb 0.41978 0.8462 0.12806 0.0
Eu60 Eu 0.42359 0.83754 0.16758 0.0
C61 C 0.38616 0.84379 0.13513 0.0
O62 O 0.38788 0.83264 0.12517 0.0
C63 C 0.4129 0.815 0.14216 0.0
O64 O 0.44144 0.81914 0.16958 0.0
C65 C 0.41279 0.84407 0.19448 0.0
C66 C 0.4512 0.81695 0.15837 0.0
O67 O 0.45094 0.82619 0.14654 0.0
C68 C 0.44642 0.86115 0.14826 0.0
C69 C 0.4179 0.85195 0.20854 0.0
C70 C 0.40698 0.85759 0.21895 0.0
C71 C 0.41158 0.86375 0.23313 0.0
C72 C 0.42727 0.86423 0.23664 0.0
C73 C 0.4383 0.8586 0.22645 0.0
C74 C 0.43355 0.85253 0.21234 0.0
O75 O 0.42167 0.82191 0.1322 0.0
O76 O 0.40752 0.82266 0.15392 0.0
O77 O 0.41066 0.85872 0.10827 0.0
O78 O 0.42328 0.8384 0.1045 0.0
C79 C 0.41582 0.8494 0.09787 0.0
O80 O 0.44131 0.85542 0.1613 0.0
O81 O 0.44011 0.85859 0.13479 0.0
O82 O 0.42004 0.8313 0.19125 0.0
O83 O 0.40999 0.85255 0.18233 0.0
H84 H 0.39492 0.85683 0.21615 0.0
H85 H 0.43091 0.86813 0.24785 0.0
H86 H 0.44199 0.84791 0.20451 0.0
O87 O 0.64628 0.39515 0.13703 0.0
Tb88 Tb 0.66069 0.41382 0.129 0.0
Eu89 Eu 0.66869 0.4225 0.16943 0.0
C90 C 0.64896 0.38719 0.14951 0.0
O91 O 0.65938 0.39195 0.15919 0.0
C92 C 0.69101 0.4021 0.14642 0.0
O93 O 0.68204 0.44438 0.16674 0.0
C94 C 0.66428 0.41638 0.19819 0.0
C95 C 0.68983 0.44679 0.15411 0.0
O96 O 0.68914 0.43663 0.14306 0.0
C97 C 0.64745 0.44122 0.14733 0.0
C98 C 0.65542 0.42111 0.2118 0.0
C99 C 0.65012 0.40985 0.22202 0.0
C100 C 0.64324 0.41402 0.23597 0.0
C101 C 0.64164 0.42963 0.23947 0.0
C102 C 0.64697 0.441 0.2295 0.0
C103 C 0.65372 0.43667 0.21558 0.0
O104 O 0.68322 0.40463 0.13377 0.0
O105 O 0.68677 0.40647 0.16023 0.0
O106 O 0.64752 0.41158 0.1077 0.0
O107 O 0.67138 0.41544 0.10641 0.0
C108 C 0.65902 0.41331 0.09844 0.0
O109 O 0.64705 0.43268 0.15968 0.0
O110 O 0.65603 0.43729 0.13566 0.0
O111 O 0.67463 0.42607 0.1932 0.0
O112 O 0.65697 0.40919 0.18713 0.0
H113 H 0.65178 0.39786 0.21929 0.0
H114 H 0.63721 0.43296 0.25056 0.0
H115 H 0.65808 0.44541 0.20794 0.0
O116 O 0.1141 0.87643 0.37093 0.0
Tb117 Tb 0.09678 0.86088 0.3799 0.0
Eu118 Eu 0.08785 0.85057 0.3405 0.0
C119 C 0.12339 0.87266 0.3597 0.0
O120 O 0.12027 0.86061 0.35136 0.0
C121 C 0.11032 0.83068 0.36373 0.0
O122 O 0.0677 0.83493 0.34393 0.0
C123 C 0.09398 0.85434 0.31172 0.0
C124 C 0.06554 0.82862 0.3574 0.0
O125 O 0.07494 0.832 0.36863 0.0
C126 C 0.06776 0.87137 0.36188 0.0
C127 C 0.08961 0.86319 0.29804 0.0
C128 C 0.10102 0.86727 0.28746 0.0
C129 C 0.09708 0.87428 0.27357 0.0
C130 C 0.08165 0.8772 0.27033 0.0
C131 C 0.07007 0.87269 0.28049 0.0
C132 C 0.07414 0.86595 0.2945 0.0
O133 O 0.10792 0.83909 0.37599 0.0
O134 O 0.10489 0.83371 0.35001 0.0
O135 O 0.10005 0.87409 0.40104 0.0
O136 O 0.09469 0.8505 0.40253 0.0
C137 C 0.09768 0.86275 0.41037 0.0
O138 O 0.07584 0.8717 0.34923 0.0
O139 O 0.07287 0.8642 0.37402 0.0
O140 O 0.08389 0.84443 0.31685 0.0
O141 O 0.10148 0.86155 0.32264 0.0
H142 H 0.11288 0.86445 0.28977 0.0
H143 H 0.07861 0.88172 0.25918 0.0
H144 H 0.06525 0.86226 0.30231 0.0
O145 O 0.62949 0.11742 0.36815 0.0
Tb146 Tb 0.64604 0.10051 0.37585 0.0
Eu147 Eu 0.65817 0.08335 0.33829 0.0
C148 C 0.63211 0.12606 0.35611 0.0
O149 O 0.64327 0.12232 0.34679 0.0
C150 C 0.67803 0.1044 0.36086 0.0
O151 O 0.66695 0.05934 0.3359 0.0
C152 C 0.65731 0.09631 0.31155 0.0
C153 C 0.66982 0.05154 0.34841 0.0
O154 O 0.66613 0.05748 0.36171 0.0
C155 C 0.63353 0.07023 0.36021 0.0
C156 C 0.64898 0.09461 0.29689 0.0
C157 C 0.6442 0.10773 0.28888 0.0
C158 C 0.63702 0.1063 0.27456 0.0
C159 C 0.63472 0.09172 0.26831 0.0
C160 C 0.64054 0.07858 0.27547 0.0
C161 C 0.6472 0.08008 0.29005 0.0
O162 O 0.66591 0.11174 0.3658 0.0
O163 O 0.67705 0.09118 0.35387 0.0
O164 O 0.63659 0.10601 0.39841 0.0
O165 O 0.65991 0.09957 0.39677 0.0
C166 C 0.64911 0.10369 0.40613 0.0
O167 O 0.63492 0.07652 0.34668 0.0
O168 O 0.64008 0.07645 0.37229 0.0
O169 O 0.66673 0.08516 0.31514 0.0
O170 O 0.6496 0.10157 0.32337 0.0
H171 H 0.64642 0.11901 0.29355 0.0
H172 H 0.62933 0.09079 0.25717 0.0
H173 H 0.6518 0.07007 0.29572 0.0
O174 O 0.39448 0.64275 0.37997 0.0
Tb175 Tb 0.41647 0.65279 0.38583 0.0
Eu176 Eu 0.42215 0.66059 0.34502 0.0
C177 C 0.38975 0.63826 0.36642 0.0
O178 O 0.39894 0.63892 0.35459 0.0
C179 C 0.40282 0.68013 0.36806 0.0
O180 O 0.43991 0.67907 0.34859 0.0
C181 C 0.41748 0.65751 0.31584 0.0
C182 C 0.44652 0.68177 0.36184 0.0
O183 O 0.44301 0.6733 0.3737 0.0
C184 C 0.44234 0.63694 0.36541 0.0
C185 C 0.42428 0.64951 0.30258 0.0
C186 C 0.41466 0.64119 0.29272 0.0
C187 C 0.42062 0.63395 0.27968 0.0
C188 C 0.43632 0.63507 0.27662 0.0
C189 C 0.44606 0.6436 0.28612 0.0
C190 C 0.44 0.65076 0.29917 0.0
O191 O 0.41192 0.67626 0.37935 0.0
O192 O 0.4015 0.67145 0.35589 0.0
O193 O 0.42077 0.66406 0.40783 0.0
O194 O 0.41271 0.6412 0.40769 0.0
C195 C 0.4167 0.6526 0.41637 0.0
O196 O 0.43519 0.63956 0.35241 0.0
O197 O 0.43805 0.64283 0.3786 0.0
O198 O 0.42542 0.66878 0.32183 0.0
O199 O 0.41064 0.64895 0.32611 0.0
H200 H 0.40249 0.6406 0.29504 0.0
H201 H 0.44083 0.63016 0.26615 0.0
H202 H 0.44748 0.65745 0.30647 0.0
O203 O 0.86617 0.39248 0.37761 0.0
Tb204 Tb 0.85747 0.41532 0.38224 0.0
Eu205 Eu 0.84823 0.41972 0.34132 0.0
C206 C 0.8704 0.38685 0.36432 0.0
O207 O 0.87058 0.3956 0.35212 0.0
C208 C 0.8298 0.40151 0.36562 0.0
O209 O 0.82951 0.43709 0.34498 0.0
C210 C 0.85004 0.41304 0.31244 0.0
C211 C 0.82803 0.4445 0.35799 0.0
O212 O 0.83785 0.44195 0.36906 0.0
C213 C 0.8729 0.44099 0.36034 0.0
C214 C 0.8556 0.41882 0.29759 0.0
C215 C 0.86231 0.40839 0.28736 0.0
C216 C 0.86629 0.41293 0.27247 0.0
C217 C 0.86356 0.42811 0.26802 0.0
C218 C 0.85661 0.43865 0.27796 0.0
C219 C 0.8529 0.43401 0.2929 0.0
O220 O 0.8338 0.41129 0.37624 0.0
O221 O 0.83854 0.39937 0.35367 0.0
O222 O 0.86814 0.41172 0.40462 0.0
O223 O 0.84645 0.42252 0.40354 0.0
C224 C 0.85716 0.41772 0.41266 0.0
O225 O 0.86799 0.43528 0.34724 0.0
O226 O 0.86926 0.43556 0.37394 0.0
O227 O 0.83833 0.42017 0.3186 0.0
O228 O 0.86033 0.40857 0.32248 0.0
H229 H 0.86407 0.39663 0.29088 0.0
H230 H 0.86628 0.43162 0.25645 0.0
H231 H 0.84729 0.44197 0.30058 0.0
O232 O 0.13383 0.11652 0.63215 0.0
Tb233 Tb 0.12694 0.09722 0.64622 0.0
Eu234 Eu 0.16791 0.09041 0.65599 0.0
C235 C 0.14777 0.12203 0.6314 0.0
O236 O 0.15903 0.11466 0.63797 0.0
C237 C 0.14424 0.11253 0.67446 0.0
O238 O 0.1638 0.07134 0.67287 0.0
C239 C 0.19717 0.09511 0.65322 0.0
C240 C 0.15004 0.06817 0.67802 0.0
O241 O 0.13831 0.07603 0.67297 0.0
C242 C 0.14703 0.06966 0.6346 0.0
C243 C 0.21135 0.08955 0.64588 0.0
C244 C 0.22122 0.10027 0.63903 0.0
C245 C 0.23535 0.09563 0.633 0.0
C246 C 0.23963 0.08024 0.634 0.0
C247 C 0.23036 0.06952 0.64154 0.0
C248 C 0.21599 0.07414 0.64709 0.0
O249 O 0.13182 0.10618 0.66881 0.0
O250 O 0.15805 0.1106 0.66879 0.0
O251 O 0.10523 0.09868 0.63367 0.0
O252 O 0.10478 0.09488 0.65759 0.0
C253 C 0.09639 0.09672 0.64548 0.0
O254 O 0.15949 0.07811 0.63484 0.0
O255 O 0.13438 0.07405 0.64141 0.0
O256 O 0.1911 0.08656 0.66398 0.0
O257 O 0.18697 0.10182 0.64446 0.0
H258 H 0.21809 0.11228 0.63873 0.0
H259 H 0.25073 0.07677 0.62966 0.0
H260 H 0.20884 0.06596 0.65306 0.0
O261 O 0.39224 0.14249 0.6348 0.0
Tb262 Tb 0.41349 0.13138 0.64144 0.0
Eu263 Eu 0.41628 0.17043 0.65266 0.0
C264 C 0.38658 0.14099 0.62094 0.0
O265 O 0.39504 0.13459 0.61028 0.0
C266 C 0.40187 0.14407 0.67141 0.0
O267 O 0.4329 0.17016 0.67239 0.0
C268 C 0.40589 0.19784 0.64796 0.0
C269 C 0.44218 0.15844 0.67412 0.0
O270 O 0.44183 0.14733 0.66401 0.0
C271 C 0.44003 0.15307 0.62836 0.0
C272 C 0.41091 0.2129 0.64237 0.0
C273 C 0.3999 0.22435 0.63974 0.0
C274 C 0.40451 0.23937 0.63643 0.0
C275 C 0.42014 0.24267 0.63517 0.0
C276 C 0.43124 0.23139 0.63774 0.0
C277 C 0.42658 0.21647 0.64142 0.0
O278 O 0.41209 0.13466 0.66587 0.0
O279 O 0.39788 0.15614 0.66349 0.0
O280 O 0.40247 0.11077 0.63227 0.0
O281 O 0.42223 0.10838 0.64612 0.0
C282 C 0.41181 0.10101 0.63848 0.0
O283 O 0.43543 0.1653 0.63599 0.0
O284 O 0.43292 0.13974 0.62851 0.0
O285 O 0.41207 0.19338 0.66092 0.0
O286 O 0.40449 0.18674 0.63783 0.0
H287 H 0.38784 0.22179 0.64111 0.0
H288 H 0.4237 0.25434 0.63288 0.0
H289 H 0.43509 0.20779 0.64392 0.0
O290 O 0.37532 0.39534 0.63876 0.0
Tb291 Tb 0.38 0.41827 0.64717 0.0
Eu292 Eu 0.33931 0.42022 0.6594 0.0
C293 C 0.36203 0.3901 0.63406 0.0
O294 O 0.35004 0.39911 0.63382 0.0
C295 C 0.36603 0.40374 0.6758 0.0
O296 O 0.34188 0.4364 0.67936 0.0
C297 C 0.31121 0.411 0.65663 0.0
C298 C 0.35409 0.44512 0.68049 0.0
O299 O 0.3646 0.44432 0.6698 0.0
C300 C 0.35606 0.44378 0.6347 0.0
C301 C 0.29619 0.41597 0.6508 0.0
C302 C 0.28631 0.40494 0.64452 0.0
C303 C 0.27168 0.40911 0.63945 0.0
C304 C 0.26692 0.42434 0.64085 0.0
C305 C 0.27633 0.43538 0.64779 0.0
C306 C 0.29118 0.43121 0.65239 0.0
O307 O 0.37569 0.4142 0.6712 0.0
O308 O 0.3538 0.40073 0.6677 0.0
O309 O 0.40185 0.41488 0.63539 0.0
O310 O 0.40169 0.42635 0.65676 0.0
C311 C 0.41034 0.42137 0.64576 0.0
O312 O 0.34378 0.43839 0.64166 0.0
O313 O 0.36993 0.43785 0.63562 0.0
O314 O 0.31648 0.41805 0.66885 0.0
O315 O 0.32182 0.40801 0.64639 0.0
H316 H 0.28988 0.39307 0.64383 0.0
H317 H 0.25547 0.42742 0.63719 0.0
H318 H 0.29854 0.4396 0.65783 0.0
O319 O 0.11156 0.36453 0.64034 0.0
Tb320 Tb 0.08969 0.37431 0.64707 0.0
Eu321 Eu 0.08595 0.3347 0.65583 0.0
C322 C 0.12365 0.36915 0.64805 0.0
O323 O 0.12169 0.37879 0.65942 0.0
C324 C 0.09978 0.35982 0.67717 0.0
O325 O 0.06741 0.33628 0.67367 0.0
C326 C 0.09506 0.30668 0.65252 0.0
C327 C 0.05869 0.34849 0.67465 0.0
O328 O 0.06043 0.35953 0.66464 0.0
C329 C 0.06534 0.35294 0.62986 0.0
C330 C 0.09055 0.29243 0.64465 0.0
C331 C 0.10199 0.28288 0.63865 0.0
C332 C 0.09827 0.26851 0.63242 0.0
C333 C 0.08284 0.26398 0.63206 0.0
C334 C 0.07125 0.27338 0.63798 0.0
C335 C 0.07518 0.28767 0.6442 0.0
O336 O 0.09038 0.36996 0.67141 0.0
O337 O 0.10368 0.34772 0.6692 0.0
O338 O 0.0999 0.39501 0.6373 0.0
O339 O 0.08149 0.39725 0.65293 0.0
C340 C 0.09114 0.40468 0.64443 0.0
O341 O 0.07094 0.34009 0.63546 0.0
O342 O 0.07032 0.36667 0.63361 0.0
O343 O 0.08614 0.31125 0.66373 0.0
O344 O 0.10021 0.31795 0.64396 0.0
H345 H 0.11384 0.28651 0.63921 0.0
H346 H 0.07988 0.25261 0.62806 0.0
H347 H 0.06631 0.29491 0.64898 0.0
O348 O 0.12878 0.39048 0.8697 0.0
Tb349 Tb 0.1222 0.41182 0.85871 0.0
Eu350 Eu 0.16347 0.41864 0.84928 0.0
C351 C 0.14273 0.38548 0.87217 0.0
O352 O 0.15449 0.39419 0.86901 0.0
C353 C 0.1394 0.39877 0.83033 0.0
O354 O 0.16071 0.43635 0.83068 0.0
C355 C 0.19249 0.41296 0.85294 0.0
C356 C 0.14751 0.44281 0.82746 0.0
O357 O 0.13533 0.439 0.83535 0.0
C358 C 0.14227 0.43975 0.87138 0.0
C359 C 0.20636 0.41852 0.86086 0.0
C360 C 0.2167 0.40776 0.86693 0.0
C361 C 0.23044 0.41256 0.87378 0.0
C362 C 0.23369 0.42824 0.87456 0.0
C363 C 0.22373 0.43912 0.86823 0.0
C364 C 0.21 0.43422 0.86145 0.0
O365 O 0.12785 0.40709 0.83509 0.0
O366 O 0.15258 0.39837 0.83754 0.0
O367 O 0.1007 0.4089 0.87133 0.0
O368 O 0.09979 0.41383 0.84765 0.0
C369 C 0.09163 0.41099 0.85973 0.0
O370 O 0.15539 0.43249 0.86965 0.0
O371 O 0.12912 0.43449 0.86621 0.0
O372 O 0.18699 0.42151 0.84187 0.0
O373 O 0.18181 0.40665 0.86139 0.0
H374 H 0.2142 0.39564 0.86602 0.0
H375 H 0.24462 0.43196 0.87913 0.0
H376 H 0.20236 0.44258 0.85638 0.0
O377 O 0.11078 0.1392 0.86433 0.0
Tb378 Tb 0.08968 0.12846 0.85671 0.0
Eu379 Eu 0.08574 0.16847 0.84952 0.0
C380 C 0.12336 0.13518 0.85711 0.0
O381 O 0.12231 0.12546 0.84568 0.0
C382 C 0.10006 0.14425 0.82738 0.0
O383 O 0.06761 0.1693 0.83112 0.0
C384 C 0.09609 0.19567 0.85551 0.0
C385 C 0.05918 0.15717 0.8282 0.0
O386 O 0.06103 0.14486 0.83658 0.0
C387 C 0.06307 0.14829 0.87208 0.0
C388 C 0.09163 0.20994 0.86326 0.0
C389 C 0.10273 0.22132 0.86579 0.0
C390 C 0.09835 0.23589 0.87096 0.0
C391 C 0.0829 0.23876 0.87411 0.0
C392 C 0.07168 0.22755 0.87161 0.0
C393 C 0.07613 0.21307 0.86623 0.0
O394 O 0.09095 0.13356 0.83255 0.0
O395 O 0.1037 0.15594 0.83604 0.0
O396 O 0.09726 0.10792 0.86901 0.0
O397 O 0.08671 0.10546 0.8473 0.0
C398 C 0.09297 0.09815 0.85861 0.0
O399 O 0.06929 0.16155 0.86833 0.0
O400 O 0.06835 0.1349 0.86755 0.0
O401 O 0.0882 0.19225 0.84317 0.0
O402 O 0.09916 0.18372 0.86414 0.0
H403 H 0.11458 0.21915 0.86285 0.0
H404 H 0.07949 0.25016 0.87768 0.0
H405 H 0.06752 0.20447 0.86379 0.0
O406 O 0.36657 0.11497 0.87052 0.0
Tb407 Tb 0.37595 0.09706 0.85585 0.0
Eu408 Eu 0.33655 0.08757 0.84699 0.0
C409 C 0.35611 0.12473 0.86583 0.0
O410 O 0.34879 0.12202 0.85302 0.0
C411 C 0.35957 0.10791 0.82474 0.0
O412 O 0.33868 0.06584 0.83325 0.0
C413 C 0.30816 0.09485 0.85153 0.0
C414 C 0.35143 0.06314 0.82574 0.0
O415 O 0.36284 0.07283 0.82711 0.0
C416 C 0.35832 0.06896 0.86855 0.0
C417 C 0.29482 0.09117 0.86119 0.0
C418 C 0.2852 0.10309 0.86608 0.0
C419 C 0.27148 0.09983 0.87374 0.0
C420 C 0.26738 0.08456 0.87641 0.0
C421 C 0.27655 0.07248 0.87111 0.0
C422 C 0.29049 0.07589 0.86385 0.0
O423 O 0.37186 0.10647 0.83331 0.0
O424 O 0.3459 0.10272 0.82836 0.0
O425 O 0.39704 0.10149 0.86881 0.0
O426 O 0.39862 0.09459 0.84563 0.0
C427 C 0.40641 0.09849 0.85765 0.0
O428 O 0.34581 0.07724 0.86872 0.0
O429 O 0.37021 0.07337 0.86056 0.0
O430 O 0.3126 0.08423 0.84184 0.0
O431 O 0.31958 0.10237 0.85791 0.0
H432 H 0.28806 0.11485 0.86338 0.0
H433 H 0.25628 0.08212 0.88137 0.0
H434 H 0.2976 0.06663 0.85965 0.0
O435 O 0.3892 0.37015 0.87572 0.0
Tb436 Tb 0.40809 0.37883 0.86185 0.0
Eu437 Eu 0.41674 0.33897 0.85231 0.0
C438 C 0.3797 0.3594 0.87115 0.0
O439 O 0.38317 0.35113 0.85915 0.0
C440 C 0.39722 0.36293 0.83051 0.0
O441 O 0.43795 0.34007 0.83771 0.0
C442 C 0.40916 0.3107 0.8573 0.0
C443 C 0.44183 0.35302 0.83112 0.0
O444 O 0.43365 0.36533 0.83384 0.0
C445 C 0.43659 0.3606 0.87343 0.0
C446 C 0.41417 0.29724 0.86618 0.0
C447 C 0.40316 0.28709 0.87206 0.0
C448 C 0.40766 0.27327 0.87897 0.0
C449 C 0.42331 0.2698 0.88001 0.0
C450 C 0.43441 0.27962 0.87389 0.0
C451 C 0.42979 0.29346 0.86721 0.0
O452 O 0.40001 0.37527 0.83869 0.0
O453 O 0.40087 0.3489 0.8346 0.0
O454 O 0.40584 0.39966 0.87579 0.0
O455 O 0.40906 0.40175 0.8519 0.0
C456 C 0.40714 0.40929 0.86454 0.0
O457 O 0.4285 0.34796 0.87348 0.0
O458 O 0.43181 0.37279 0.86609 0.0
O459 O 0.41832 0.31506 0.84622 0.0
O460 O 0.40298 0.3222 0.86484 0.0
H461 H 0.3911 0.28969 0.87076 0.0
H462 H 0.42683 0.25876 0.88444 0.0
H463 H 0.43834 0.30096 0.86226 0.0
O464 O 0.64406 0.14371 0.11452 0.0
Tb465 Tb 0.64996 0.13237 0.09311 0.0
Eu466 Eu 0.66055 0.1718 0.08617 0.0
C467 C 0.65196 0.13971 0.12672 0.0
O468 O 0.66309 0.12973 0.12508 0.0
C469 C 0.68075 0.14661 0.10118 0.0
O470 O 0.67832 0.17018 0.06756 0.0
C471 C 0.65687 0.19996 0.09482 0.0
C472 C 0.67957 0.15751 0.05953 0.0
O473 O 0.6701 0.14618 0.06231 0.0
C474 C 0.63456 0.1524 0.06618 0.0
C475 C 0.65085 0.21485 0.08974 0.0
C476 C 0.6474 0.22598 0.10086 0.0
C477 C 0.64399 0.24104 0.09649 0.0
C478 C 0.64347 0.2447 0.0809 0.0
C479 C 0.64728 0.2339 0.06964 0.0
C480 C 0.65066 0.21882 0.07411 0.0
O481 O 0.67443 0.13592 0.0928 0.0
O482 O 0.6731 0.15904 0.10458 0.0
O483 O 0.64052 0.11252 0.10522 0.0
O484 O 0.6545 0.10882 0.08579 0.0
C485 C 0.64669 0.10216 0.09652 0.0
O486 O 0.64164 0.16528 0.06978 0.0
O487 O 0.63621 0.13935 0.07362 0.0
O488 O 0.66908 0.19497 0.08761 0.0
O489 O 0.64698 0.18909 0.09816 0.0
H490 H 0.64833 0.22315 0.11291 0.0
H491 H 0.64069 0.25631 0.07753 0.0
H492 H 0.65403 0.21047 0.06558 0.0
O493 O 0.63621 0.37534 0.39285 0.0
Tb494 Tb 0.64974 0.38052 0.41317 0.0
Eu495 Eu 0.65784 0.33937 0.41943 0.0
C496 C 0.63592 0.36206 0.38579 0.0
O497 O 0.64168 0.34997 0.3925 0.0
C498 C 0.67729 0.36257 0.39766 0.0
O499 O 0.67445 0.34249 0.43899 0.0
C500 C 0.65387 0.31039 0.41402 0.0
C501 C 0.68004 0.356 0.44255 0.0
O502 O 0.67558 0.36803 0.43478 0.0
C503 C 0.63675 0.36039 0.44019 0.0
C504 C 0.64601 0.29657 0.41961 0.0
C505 C 0.64137 0.28543 0.40893 0.0
C506 C 0.63553 0.27132 0.41389 0.0
C507 C 0.63373 0.26873 0.42961 0.0
C508 C 0.63843 0.27963 0.44041 0.0
C509 C 0.64459 0.29358 0.43538 0.0
O510 O 0.67224 0.37505 0.40437 0.0
O511 O 0.67131 0.34891 0.39959 0.0
O512 O 0.63829 0.40283 0.41214 0.0
O513 O 0.66207 0.40199 0.41675 0.0
C514 C 0.65043 0.411 0.41484 0.0
O515 O 0.63673 0.34812 0.43149 0.0
O516 O 0.64398 0.37291 0.43612 0.0
O517 O 0.66498 0.31584 0.42257 0.0
O518 O 0.64541 0.32109 0.40768 0.0
H519 H 0.64316 0.28741 0.39682 0.0
H520 H 0.62944 0.25775 0.4335 0.0
H521 H 0.64862 0.30187 0.44369 0.0
O522 O 0.13982 0.64197 0.39511 0.0
Tb523 Tb 0.13058 0.64982 0.41681 0.0
Eu524 Eu 0.1709 0.65823 0.42035 0.0
C525 C 0.135 0.64914 0.38278 0.0
O526 O 0.12559 0.66074 0.38444 0.0
C527 C 0.14629 0.67886 0.40547 0.0
O528 O 0.16951 0.67776 0.4372 0.0
C529 C 0.19887 0.65412 0.41121 0.0
C530 C 0.15742 0.6794 0.446 0.0
O531 O 0.14647 0.66916 0.44531 0.0
C532 C 0.15154 0.63497 0.44313 0.0
C533 C 0.21338 0.64702 0.41601 0.0
C534 C 0.22481 0.64432 0.40499 0.0
C535 C 0.23943 0.63943 0.4095 0.0
C536 C 0.2423 0.63661 0.42503 0.0
C537 C 0.23109 0.63933 0.43615 0.0
C538 C 0.2166 0.64458 0.43161 0.0
O539 O 0.13592 0.67391 0.41507 0.0
O540 O 0.15777 0.67001 0.40168 0.0
O541 O 0.10942 0.6379 0.41038 0.0
O542 O 0.10796 0.65962 0.42108 0.0
C543 C 0.1001 0.64845 0.41521 0.0
O544 O 0.16466 0.63947 0.43708 0.0
O545 O 0.13794 0.63867 0.43772 0.0
O546 O 0.19439 0.66598 0.41929 0.0
O547 O 0.18758 0.64494 0.40727 0.0
H548 H 0.22259 0.64688 0.39305 0.0
H549 H 0.25366 0.63307 0.42857 0.0
H550 H 0.20803 0.64717 0.44019 0.0
O551 O 0.87939 0.13975 0.38678 0.0
Tb552 Tb 0.86333 0.1311 0.40365 0.0
Eu553 Eu 0.85039 0.16834 0.42244 0.0
C554 C 0.87649 0.15218 0.37882 0.0
O555 O 0.86538 0.16125 0.3833 0.0
C556 C 0.83103 0.14572 0.40098 0.0
O557 O 0.84373 0.17035 0.44717 0.0
C558 C 0.84997 0.19552 0.41042 0.0
C559 C 0.84143 0.15781 0.45511 0.0
O560 O 0.84455 0.14452 0.44882 0.0
C561 C 0.87619 0.14678 0.43345 0.0
C562 C 0.85677 0.21055 0.41419 0.0
C563 C 0.86079 0.22077 0.40242 0.0
C564 C 0.86644 0.23544 0.40595 0.0
C565 C 0.86787 0.23977 0.42137 0.0
C566 C 0.86369 0.22984 0.43324 0.0
C567 C 0.85833 0.21515 0.42957 0.0
O568 O 0.84309 0.1413 0.39321 0.0
O569 O 0.83212 0.15206 0.41452 0.0
O570 O 0.87315 0.10897 0.39716 0.0
O571 O 0.85006 0.1098 0.40451 0.0
C572 C 0.86095 0.10085 0.39973 0.0
O573 O 0.87425 0.16011 0.42692 0.0
O574 O 0.8699 0.13444 0.42752 0.0
O575 O 0.83962 0.19052 0.42007 0.0
O576 O 0.85931 0.18471 0.40571 0.0
H577 H 0.85932 0.21739 0.39057 0.0
H578 H 0.87139 0.25135 0.42414 0.0
H579 H 0.85507 0.20741 0.43869 0.0
O580 O 0.37229 0.87556 0.39067 0.0
Tb581 Tb 0.37888 0.86178 0.41041 0.0
Eu582 Eu 0.33814 0.85332 0.41849 0.0
C583 C 0.35935 0.87389 0.38316 0.0
O584 O 0.34821 0.86608 0.38939 0.0
C585 C 0.36105 0.83281 0.39672 0.0
O586 O 0.34085 0.83746 0.43864 0.0
C587 C 0.30937 0.85823 0.41287 0.0
C588 C 0.35411 0.83095 0.44152 0.0
O589 O 0.36587 0.83418 0.43278 0.0
C590 C 0.36017 0.87366 0.43875 0.0
C591 C 0.29588 0.86676 0.41841 0.0
C592 C 0.28572 0.87317 0.40769 0.0
C593 C 0.27198 0.88 0.4125 0.0
C594 C 0.2686 0.88045 0.42819 0.0
C595 C 0.27844 0.87384 0.43901 0.0
C596 C 0.29218 0.86716 0.43407 0.0
O597 O 0.37381 0.8392 0.40154 0.0
O598 O 0.34721 0.8378 0.39993 0.0
O599 O 0.40077 0.87404 0.40909 0.0
O600 O 0.40085 0.85002 0.41228 0.0
C601 C 0.40942 0.86204 0.41072 0.0
O602 O 0.34763 0.87418 0.43047 0.0
O603 O 0.37232 0.86627 0.43396 0.0
O604 O 0.31439 0.84707 0.4216 0.0
O605 O 0.32038 0.86611 0.40632 0.0
H606 H 0.28829 0.87239 0.39557 0.0
H607 H 0.25763 0.88488 0.43192 0.0
H608 H 0.2997 0.86184 0.44237 0.0
O609 O 0.87425 0.37812 0.11645 0.0
Tb610 Tb 0.86386 0.38474 0.09486 0.0
Eu611 Eu 0.85755 0.33539 0.07401 0.0
C612 C 0.87082 0.36534 0.12359 0.0
O613 O 0.86181 0.35534 0.11693 0.0
C614 C 0.83846 0.35929 0.0932 0.0
O615 O 0.84548 0.33464 0.0513 0.0
C616 C 0.86799 0.30923 0.08342 0.0
C617 C 0.84061 0.34762 0.04547 0.0
O618 O 0.84434 0.36044 0.05238 0.0
C619 C 0.87831 0.36571 0.07033 0.0
C620 C 0.86776 0.29301 0.07907 0.0
C621 C 0.87228 0.28195 0.08981 0.0
C622 C 0.87237 0.26636 0.08589 0.0
C623 C 0.8677 0.26203 0.07113 0.0
C624 C 0.86292 0.27293 0.06032 0.0
C625 C 0.86306 0.28849 0.06437 0.0
O626 O 0.8469 0.36894 0.08529 0.0
O627 O 0.83927 0.3446 0.08981 0.0
O628 O 0.84822 0.40351 0.10043 0.0
O629 O 0.86944 0.40847 0.08958 0.0
C630 C 0.85695 0.41437 0.09513 0.0
O631 O 0.87272 0.35535 0.07967 0.0
O632 O 0.87884 0.37974 0.07566 0.0
O633 O 0.8549 0.31503 0.08804 0.0
O634 O 0.87577 0.31845 0.07444 0.0
H635 H 0.87591 0.28551 0.10113 0.0
H636 H 0.86775 0.25002 0.06805 0.0
H637 H 0.85937 0.29707 0.05622 0.0
O638 O 0.1396 0.8616 0.11102 0.0
Tb639 Tb 0.13078 0.85393 0.08904 0.0
Eu640 Eu 0.17091 0.8451 0.08572 0.0
C641 C 0.13447 0.85435 0.12318 0.0
O642 O 0.12485 0.84296 0.12123 0.0
C643 C 0.14605 0.82498 0.10093 0.0
O644 O 0.16902 0.82553 0.06889 0.0
C645 C 0.19899 0.84836 0.0948 0.0
C646 C 0.15726 0.82424 0.05959 0.0
O647 O 0.14659 0.8348 0.05978 0.0
C648 C 0.15223 0.86909 0.06352 0.0
C649 C 0.21342 0.85604 0.09069 0.0
C650 C 0.22342 0.86054 0.10245 0.0
C651 C 0.23784 0.86664 0.09896 0.0
C652 C 0.24219 0.86819 0.08362 0.0
C653 C 0.2327 0.86298 0.07172 0.0
C654 C 0.21808 0.85733 0.07531 0.0
O655 O 0.13589 0.82981 0.09104 0.0
O656 O 0.15777 0.83361 0.10449 0.0
O657 O 0.1097 0.86651 0.09424 0.0
O658 O 0.10813 0.8442 0.08482 0.0
C659 C 0.10033 0.85583 0.08977 0.0
O660 O 0.16514 0.86501 0.07025 0.0
O661 O 0.13857 0.86463 0.06808 0.0
O662 O 0.19441 0.83731 0.08567 0.0
O663 O 0.18775 0.857 0.09988 0.0
H664 H 0.2202 0.85883 0.1143 0.0
H665 H 0.25351 0.87254 0.08099 0.0
H666 H 0.21072 0.85307 0.06627 0.0
O667 O 0.38169 0.62656 0.12126 0.0
Tb668 Tb 0.38441 0.64111 0.10135 0.0
Eu669 Eu 0.33764 0.65169 0.07453 0.0
C670 C 0.37113 0.62997 0.13141 0.0
O671 O 0.36161 0.64121 0.12844 0.0
C672 C 0.36108 0.66855 0.09518 0.0
O673 O 0.33724 0.66249 0.05119 0.0
C674 C 0.31071 0.64515 0.08516 0.0
C675 C 0.35023 0.66773 0.04572 0.0
O676 O 0.36283 0.66535 0.05358 0.0
C677 C 0.36749 0.63051 0.07232 0.0
C678 C 0.2946 0.6493 0.0827 0.0
C679 C 0.28379 0.64628 0.09423 0.0
C680 C 0.26838 0.65033 0.09215 0.0
C681 C 0.26392 0.65732 0.07843 0.0
C682 C 0.2745 0.66005 0.06669 0.0
C683 C 0.28989 0.65607 0.06889 0.0
O684 O 0.36337 0.65415 0.09866 0.0
O685 O 0.34916 0.67157 0.08651 0.0
O686 O 0.40036 0.65955 0.10753 0.0
O687 O 0.40837 0.64051 0.09464 0.0
C688 C 0.4123 0.65336 0.10105 0.0
O689 O 0.3555 0.63409 0.08065 0.0
O690 O 0.38089 0.6298 0.07925 0.0
O691 O 0.31949 0.65588 0.09102 0.0
O692 O 0.31738 0.6373 0.07414 0.0
H693 H 0.28736 0.64079 0.10477 0.0
H694 H 0.25192 0.65986 0.07653 0.0
H695 H 0.29815 0.65813 0.05987 0.0
O696 O 0.88935 0.36624 0.86834 0.0
Tb697 Tb 0.90648 0.35085 0.87794 0.0
Eu698 Eu 0.91563 0.34088 0.83838 0.0
C699 C 0.88071 0.3627 0.85653 0.0
O700 O 0.88399 0.35053 0.84842 0.0
C701 C 0.89364 0.32038 0.86154 0.0
O702 O 0.93671 0.32658 0.8422 0.0
C703 C 0.90995 0.344 0.80939 0.0
C704 C 0.93858 0.31938 0.85528 0.0
O705 O 0.92841 0.32128 0.86616 0.0
C706 C 0.93463 0.36254 0.85975 0.0
C707 C 0.91442 0.35226 0.79537 0.0
C708 C 0.9031 0.35565 0.78441 0.0
C709 C 0.90724 0.3613 0.76998 0.0
C710 C 0.92268 0.36407 0.76676 0.0
C711 C 0.93412 0.36077 0.77751 0.0
C712 C 0.92994 0.35489 0.79187 0.0
O713 O 0.89586 0.32879 0.87385 0.0
O714 O 0.89895 0.32363 0.84783 0.0
O715 O 0.90251 0.36428 0.89881 0.0
O716 O 0.90819 0.34083 0.90081 0.0
C717 C 0.90476 0.35313 0.9084 0.0
O718 O 0.92612 0.36267 0.84737 0.0
O719 O 0.93025 0.35486 0.87189 0.0
O720 O 0.91996 0.33424 0.81495 0.0
O721 O 0.90238 0.35156 0.81999 0.0
H722 H 0.89121 0.35299 0.78675 0.0
H723 H 0.92586 0.36795 0.7554 0.0
H724 H 0.93877 0.35186 0.80004 0.0
O725 O 0.1333 0.89412 0.86944 0.0
Tb726 Tb 0.14926 0.91194 0.87638 0.0
Eu727 Eu 0.15648 0.92012 0.83592 0.0
C728 C 0.13438 0.88659 0.85646 0.0
O729 O 0.14383 0.89148 0.84593 0.0
C730 C 0.17747 0.89729 0.85774 0.0
O731 O 0.17153 0.94077 0.83949 0.0
C732 C 0.15129 0.9152 0.80709 0.0
C733 C 0.17939 0.94221 0.85225 0.0
O734 O 0.17796 0.93172 0.86288 0.0
C735 C 0.13662 0.93967 0.85821 0.0
C736 C 0.14167 0.92019 0.79414 0.0
C737 C 0.13507 0.90906 0.78457 0.0
C738 C 0.12713 0.91334 0.77125 0.0
C739 C 0.12573 0.92895 0.76773 0.0
C740 C 0.13246 0.9402 0.77701 0.0
C741 C 0.14029 0.93577 0.79032 0.0
O742 O 0.17046 0.90048 0.87067 0.0
O743 O 0.1733 0.90233 0.84416 0.0
O744 O 0.13778 0.90991 0.89859 0.0
O745 O 0.16158 0.91453 0.89798 0.0
C746 C 0.14992 0.91227 0.90688 0.0
O747 O 0.13539 0.93089 0.84609 0.0
O748 O 0.14531 0.93549 0.86969 0.0
O749 O 0.1616 0.92493 0.81217 0.0
O750 O 0.1446 0.90731 0.81802 0.0
H751 H 0.13654 0.89703 0.78724 0.0
H752 H 0.12042 0.93232 0.75704 0.0
H753 H 0.1457 0.94442 0.79738 0.0
O754 O 0.61088 0.1339 0.86975 0.0
Tb755 Tb 0.59334 0.14969 0.87778 0.0
Eu756 Eu 0.5856 0.15888 0.83745 0.0
C757 C 0.6194 0.13636 0.85761 0.0
O758 O 0.61584 0.14749 0.84826 0.0
C759 C 0.60754 0.17912 0.86072 0.0
O760 O 0.56506 0.17415 0.84045 0.0
C761 C 0.59125 0.1547 0.80859 0.0
C762 C 0.56263 0.18105 0.85359 0.0
O763 O 0.57197 0.17847 0.86507 0.0
C764 C 0.56539 0.13847 0.85894 0.0
C765 C 0.58588 0.1466 0.79476 0.0
C766 C 0.59672 0.14091 0.78434 0.0
C767 C 0.59212 0.13505 0.77006 0.0
C768 C 0.57645 0.13479 0.76647 0.0
C769 C 0.56545 0.14044 0.77672 0.0
C770 C 0.57024 0.14618 0.79095 0.0
O771 O 0.60397 0.17166 0.87331 0.0
O772 O 0.6033 0.17512 0.84683 0.0
O773 O 0.59461 0.13671 0.89927 0.0
O774 O 0.59212 0.16078 0.9002 0.0
C775 C 0.59345 0.14845 0.90835 0.0
O776 O 0.5741 0.13775 0.84673 0.0
O777 O 0.56971 0.14638 0.87094 0.0
O778 O 0.58236 0.16561 0.81388 0.0
O779 O 0.59794 0.14662 0.8194 0.0
H780 H 0.60879 0.14154 0.78717 0.0
H781 H 0.57285 0.13119 0.75515 0.0
H782 H 0.56184 0.1508 0.79882 0.0
O783 O 0.36497 0.61752 0.86679 0.0
Tb784 Tb 0.35688 0.59828 0.88027 0.0
Eu785 Eu 0.3485 0.58933 0.8411 0.0
C786 C 0.35758 0.6305 0.86865 0.0
O787 O 0.34569 0.63071 0.87784 0.0
C788 C 0.32648 0.60579 0.86444 0.0
O789 O 0.33089 0.57042 0.84183 0.0
C790 C 0.35448 0.59666 0.81295 0.0
C791 C 0.32723 0.56383 0.85485 0.0
O792 O 0.33438 0.56799 0.86738 0.0
C793 C 0.36977 0.56872 0.86375 0.0
C794 C 0.36297 0.59121 0.79942 0.0
C795 C 0.36879 0.60198 0.78899 0.0
C796 C 0.37562 0.59719 0.77523 0.0
C797 C 0.37663 0.58146 0.77212 0.0
C798 C 0.37069 0.57054 0.78227 0.0
C799 C 0.36396 0.57549 0.79601 0.0
O800 O 0.33255 0.59846 0.87601 0.0
O801 O 0.33419 0.60793 0.85175 0.0
O802 O 0.34701 0.60306 0.90272 0.0
O803 O 0.37112 0.60344 0.9004 0.0
C804 C 0.35981 0.60527 0.90991 0.0
O805 O 0.36811 0.57501 0.85013 0.0
O806 O 0.36442 0.57496 0.87639 0.0
O807 O 0.34258 0.58846 0.81708 0.0
O808 O 0.36249 0.6019 0.82461 0.0
H809 H 0.36762 0.6141 0.79139 0.0
H810 H 0.38107 0.57773 0.76115 0.0
H811 H 0.35913 0.56715 0.8038 0.0
O812 O 0.88762 0.13758 0.63097 0.0
Tb813 Tb 0.91001 0.14621 0.62452 0.0
Eu814 Eu 0.91484 0.15569 0.66534 0.0
C815 C 0.8833 0.13171 0.64411 0.0
O816 O 0.89319 0.13007 0.65529 0.0
C817 C 0.89672 0.17447 0.64056 0.0
O818 O 0.93359 0.17334 0.66315 0.0
C819 C 0.90748 0.15325 0.69402 0.0
C820 C 0.94052 0.17625 0.65013 0.0
O821 O 0.93659 0.16861 0.63782 0.0
C822 C 0.93665 0.13261 0.6459 0.0
C823 C 0.91308 0.14763 0.70889 0.0
C824 C 0.90231 0.14328 0.71999 0.0
C825 C 0.90702 0.13958 0.73486 0.0
C826 C 0.92267 0.13968 0.73839 0.0
C827 C 0.93363 0.14388 0.72745 0.0
C828 C 0.92876 0.14793 0.71265 0.0
O829 O 0.90593 0.17003 0.62962 0.0
O830 O 0.89487 0.16627 0.65296 0.0
O831 O 0.90701 0.13325 0.60324 0.0
O832 O 0.91363 0.15656 0.60205 0.0
C833 C 0.91029 0.14448 0.59405 0.0
O834 O 0.92935 0.13528 0.65884 0.0
O835 O 0.93189 0.13751 0.63246 0.0
O836 O 0.91458 0.16516 0.68824 0.0
O837 O 0.90357 0.14301 0.68371 0.0
H838 H 0.8902 0.14355 0.71726 0.0
H839 H 0.92629 0.137 0.74996 0.0
H840 H 0.93708 0.15154 0.7042 0.0
O841 O 0.36822 0.89377 0.64018 0.0
Tb842 Tb 0.3613 0.91483 0.629 0.0
Eu843 Eu 0.35123 0.91754 0.66895 0.0
C844 C 0.38238 0.88874 0.6396 0.0
O845 O 0.39302 0.89751 0.63362 0.0
C846 C 0.33209 0.90262 0.64314 0.0
O847 O 0.331 0.93354 0.66871 0.0
C848 C 0.35622 0.90719 0.69635 0.0
C849 C 0.32904 0.94298 0.65718 0.0
O850 O 0.33915 0.94311 0.64608 0.0
C851 C 0.3739 0.94195 0.65043 0.0
C852 C 0.36218 0.91149 0.71153 0.0
C853 C 0.36512 0.89988 0.7223 0.0
C854 C 0.36873 0.90366 0.73748 0.0
C855 C 0.36989 0.91906 0.7417 0.0
C856 C 0.36711 0.9308 0.73112 0.0
C857 C 0.36317 0.92695 0.71599 0.0
O858 O 0.33707 0.91273 0.63332 0.0
O859 O 0.34058 0.89885 0.65489 0.0
O860 O 0.37302 0.907 0.60816 0.0
O861 O 0.35248 0.9197 0.60611 0.0
C862 C 0.36316 0.91268 0.59854 0.0
O863 O 0.36795 0.93651 0.66325 0.0
O864 O 0.37236 0.93561 0.6368 0.0
O865 O 0.34346 0.91394 0.69216 0.0
O866 O 0.36609 0.90549 0.68509 0.0
H867 H 0.3638 0.88796 0.71908 0.0
H868 H 0.37231 0.9219 0.75354 0.0
H869 H 0.36054 0.9359 0.70783 0.0
O870 O 0.61205 0.36435 0.63985 0.0
Tb871 Tb 0.5908 0.35691 0.62934 0.0
Eu872 Eu 0.58589 0.34915 0.66963 0.0
C873 C 0.62449 0.35702 0.63562 0.0
O874 O 0.62313 0.34561 0.62591 0.0
C875 C 0.60107 0.32755 0.6454 0.0
O876 O 0.56671 0.33188 0.66816 0.0
C877 C 0.5944 0.35237 0.69796 0.0
C878 C 0.55915 0.32967 0.65533 0.0
O879 O 0.56246 0.33808 0.64338 0.0
C880 C 0.56514 0.37311 0.64954 0.0
C881 C 0.58979 0.35916 0.71271 0.0
C882 C 0.60116 0.36277 0.72355 0.0
C883 C 0.59706 0.36714 0.73846 0.0
C884 C 0.58154 0.3685 0.74225 0.0
C885 C 0.57008 0.36494 0.73161 0.0
C886 C 0.57424 0.36024 0.71681 0.0
O887 O 0.5922 0.33278 0.63452 0.0
O888 O 0.60432 0.33604 0.65735 0.0
O889 O 0.59781 0.36936 0.60868 0.0
O890 O 0.58801 0.3473 0.60638 0.0
C891 C 0.59384 0.35877 0.59897 0.0
O892 O 0.5721 0.36996 0.66259 0.0
O893 O 0.5695 0.36759 0.63619 0.0
O894 O 0.58599 0.34095 0.69298 0.0
O895 O 0.59894 0.36165 0.68702 0.0
H896 H 0.61313 0.3613 0.72068 0.0
H897 H 0.57838 0.37157 0.75385 0.0
H898 H 0.56543 0.35701 0.70869 0.0
O899 O 0.13748 0.61196 0.6405 0.0
Tb900 Tb 0.14455 0.59009 0.63094 0.0
Eu901 Eu 0.15366 0.58668 0.67094 0.0
C902 C 0.14497 0.62418 0.6359 0.0
O903 O 0.15643 0.62245 0.62633 0.0
C904 C 0.1742 0.60079 0.64591 0.0
O905 O 0.17395 0.5708 0.6719 0.0
C906 C 0.14636 0.59699 0.69775 0.0
C907 C 0.17613 0.56098 0.66071 0.0
O908 O 0.16622 0.5605 0.64942 0.0
C909 C 0.13059 0.5632 0.65171 0.0
C910 C 0.13797 0.59266 0.71171 0.0
C911 C 0.1309 0.60422 0.72033 0.0
C912 C 0.12388 0.60078 0.73433 0.0
C913 C 0.12394 0.58565 0.73963 0.0
C914 C 0.13171 0.57406 0.73163 0.0
C915 C 0.13836 0.57758 0.71739 0.0
O916 O 0.16881 0.59103 0.6359 0.0
O917 O 0.1658 0.60486 0.65762 0.0
O918 O 0.13403 0.59878 0.60986 0.0
O919 O 0.15282 0.58355 0.60824 0.0
C920 C 0.14313 0.59168 0.60045 0.0
O921 O 0.13732 0.56777 0.66445 0.0
O922 O 0.13166 0.57022 0.63839 0.0
O923 O 0.15909 0.58947 0.69494 0.0
O924 O 0.1382 0.59992 0.68541 0.0
H925 H 0.13131 0.61599 0.71643 0.0
H926 H 0.11877 0.58314 0.75062 0.0
H927 H 0.14457 0.56885 0.71116 0.0
O928 O 0.86803 0.8929 0.37533 0.0
Tb929 Tb 0.87729 0.91033 0.36005 0.0
Eu930 Eu 0.83723 0.91714 0.34919 0.0
C931 C 0.85768 0.88291 0.37085 0.0
O932 O 0.85042 0.88523 0.35795 0.0
C933 C 0.86245 0.89696 0.32904 0.0
O934 O 0.8372 0.93792 0.334 0.0
C935 C 0.80966 0.90712 0.35395 0.0
C936 C 0.85004 0.94197 0.32731 0.0
O937 O 0.8625 0.93406 0.33016 0.0
C938 C 0.85783 0.93913 0.36907 0.0
C939 C 0.79534 0.91 0.36248 0.0
C940 C 0.78756 0.89758 0.36923 0.0
C941 C 0.7732 0.8998 0.37608 0.0
C942 C 0.76666 0.9144 0.37607 0.0
C943 C 0.77357 0.92658 0.36828 0.0
C944 C 0.78822 0.92448 0.36201 0.0
O945 O 0.87426 0.89917 0.33813 0.0
O946 O 0.8485 0.90199 0.33164 0.0
O947 O 0.89827 0.90763 0.37373 0.0
O948 O 0.90012 0.91253 0.3501 0.0
C949 C 0.9078 0.90985 0.36251 0.0
O950 O 0.84551 0.93053 0.36967 0.0
O951 O 0.87044 0.93412 0.36261 0.0
O952 O 0.81325 0.91701 0.34321 0.0
O953 O 0.8216 0.90195 0.36157 0.0
H954 H 0.79237 0.88616 0.36863 0.0
H955 H 0.75541 0.91593 0.38107 0.0
H956 H 0.79359 0.9338 0.35587 0.0
O957 O 0.61623 0.86635 0.36509 0.0
Tb958 Tb 0.59583 0.87892 0.35837 0.0
Eu959 Eu 0.59101 0.83931 0.34957 0.0
C960 C 0.62157 0.86687 0.37916 0.0
O961 O 0.61332 0.87349 0.38984 0.0
C962 C 0.60578 0.86414 0.32849 0.0
O963 O 0.57271 0.83867 0.3313 0.0
C964 C 0.60066 0.81174 0.35499 0.0
C965 C 0.56447 0.85084 0.32804 0.0
O966 O 0.56663 0.86344 0.33591 0.0
C967 C 0.5681 0.85944 0.37156 0.0
C968 C 0.59574 0.79739 0.36228 0.0
C969 C 0.60671 0.786 0.36529 0.0
C970 C 0.60214 0.77147 0.37035 0.0
C971 C 0.58659 0.76865 0.37301 0.0
C972 C 0.57549 0.77985 0.37008 0.0
C973 C 0.5801 0.79425 0.36463 0.0
O974 O 0.59681 0.87474 0.33408 0.0
O975 O 0.60928 0.85211 0.33672 0.0
O976 O 0.60195 0.89921 0.37202 0.0
O977 O 0.59569 0.90198 0.34876 0.0
C978 C 0.60002 0.90911 0.36105 0.0
O979 O 0.57492 0.84627 0.36866 0.0
O980 O 0.57345 0.87279 0.36701 0.0
O981 O 0.59312 0.81565 0.34259 0.0
O982 O 0.60387 0.82341 0.36398 0.0
H983 H 0.61869 0.78817 0.36286 0.0
H984 H 0.58302 0.75734 0.37668 0.0
H985 H 0.57157 0.80281 0.36186 0.0
O986 O 0.63441 0.61669 0.3735 0.0
Tb987 Tb 0.62938 0.59485 0.36269 0.0
Eu988 Eu 0.67059 0.59152 0.3538 0.0
C989 C 0.64802 0.62205 0.37693 0.0
O990 O 0.66015 0.61348 0.37496 0.0
C991 C 0.64557 0.60981 0.33478 0.0
O992 O 0.66864 0.5736 0.33526 0.0
C993 C 0.69928 0.59853 0.35728 0.0
C994 C 0.65568 0.56686 0.33165 0.0
O995 O 0.64323 0.57026 0.33928 0.0
C996 C 0.65145 0.56916 0.37617 0.0
C997 C 0.7129 0.59281 0.36543 0.0
C998 C 0.72349 0.60335 0.37138 0.0
C999 C 0.73686 0.59824 0.37869 0.0
C1000 C 0.73949 0.58246 0.37997 0.0
C1001 C 0.72918 0.57177 0.37386 0.0
C1002 C 0.71579 0.57701 0.36668 0.0
O1003 O 0.63453 0.60067 0.3392 0.0
O1004 O 0.65841 0.61122 0.34245 0.0
O1005 O 0.60792 0.59575 0.37556 0.0
O1006 O 0.60718 0.59074 0.35183 0.0
C1007 C 0.59898 0.59272 0.36406 0.0
O1008 O 0.66382 0.57759 0.3745 0.0
O1009 O 0.63813 0.57287 0.37022 0.0
O1010 O 0.6941 0.59006 0.346 0.0
O1011 O 0.68838 0.60444 0.36575 0.0
H1012 H 0.72144 0.61552 0.37011 0.0
H1013 H 0.75018 0.57848 0.38486 0.0
H1014 H 0.70781 0.56882 0.36186 0.0
O1015 O 0.89509 0.63632 0.38035 0.0
Tb1016 Tb 0.91303 0.62923 0.36456 0.0
Eu1017 Eu 0.91974 0.66986 0.35586 0.0
C1018 C 0.88663 0.64857 0.37823 0.0
O1019 O 0.89073 0.65859 0.3679 0.0
C1020 C 0.89779 0.64644 0.33574 0.0
O1021 O 0.93978 0.66728 0.33987 0.0
C1022 C 0.9134 0.69847 0.36072 0.0
C1023 C 0.94233 0.65406 0.33313 0.0
O1024 O 0.93338 0.64242 0.33628 0.0
C1025 C 0.94073 0.64863 0.37584 0.0
C1026 C 0.91834 0.71185 0.36977 0.0
C1027 C 0.90722 0.72185 0.37573 0.0
C1028 C 0.91158 0.73552 0.38305 0.0
C1029 C 0.9272 0.73897 0.38442 0.0
C1030 C 0.93841 0.72928 0.37827 0.0
C1031 C 0.93393 0.71562 0.37112 0.0
O1032 O 0.9017 0.63384 0.34298 0.0
O1033 O 0.90204 0.66036 0.33967 0.0
O1034 O 0.91187 0.60737 0.37685 0.0
O1035 O 0.9155 0.60724 0.35289 0.0
C1036 C 0.91385 0.5987 0.3649 0.0
O1037 O 0.9318 0.66067 0.37675 0.0
O1038 O 0.93651 0.63655 0.36799 0.0
O1039 O 0.92282 0.6937 0.35001 0.0
O1040 O 0.90653 0.68727 0.36806 0.0
H1041 H 0.89519 0.71923 0.37424 0.0
H1042 H 0.93064 0.7499 0.38921 0.0
H1043 H 0.94257 0.70822 0.36615 0.0
O1044 O 0.86408 0.61792 0.1461 0.0
Tb1045 Tb 0.87494 0.5966 0.15278 0.0
Eu1046 Eu 0.83555 0.59634 0.16197 0.0
C1047 C 0.86394 0.62253 0.1318 0.0
O1048 O 0.86888 0.61321 0.12108 0.0
C1049 C 0.86174 0.60858 0.1826 0.0
O1050 O 0.83393 0.57896 0.18101 0.0
C1051 C 0.80914 0.60861 0.15625 0.0
C1052 C 0.84493 0.56886 0.18284 0.0
O1053 O 0.85656 0.569 0.17335 0.0
C1054 C 0.85244 0.57134 0.13896 0.0
C1055 C 0.7946 0.60423 0.14899 0.0
C1056 C 0.78359 0.61552 0.14583 0.0
C1057 C 0.76896 0.61129 0.14073 0.0
C1058 C 0.76561 0.59578 0.13838 0.0
C1059 C 0.7765 0.58439 0.14142 0.0
C1060 C 0.79105 0.5887 0.1467 0.0
O1061 O 0.87119 0.59833 0.17715 0.0
O1062 O 0.85038 0.61345 0.17414 0.0
O1063 O 0.89536 0.60389 0.14009 0.0
O1064 O 0.89811 0.59167 0.16084 0.0
C1065 C 0.9053 0.59832 0.14968 0.0
O1066 O 0.83996 0.57833 0.14387 0.0
O1067 O 0.86649 0.57593 0.14203 0.0
O1068 O 0.81236 0.60137 0.16903 0.0
O1069 O 0.82105 0.61031 0.14719 0.0
H1070 H 0.78613 0.62746 0.14808 0.0
H1071 H 0.75416 0.59255 0.13483 0.0
H1072 H 0.79946 0.58 0.14943 0.0
O1073 O 0.89631 0.86905 0.14041 0.0
Tb1074 Tb 0.9175 0.87944 0.14827 0.0
Eu1075 Eu 0.92197 0.83942 0.1554 0.0
C1076 C 0.88374 0.87281 0.14778 0.0
O1077 O 0.88478 0.88223 0.15946 0.0
C1078 C 0.90695 0.8631 0.17742 0.0
O1079 O 0.94036 0.84147 0.17349 0.0
C1080 C 0.91365 0.81115 0.15178 0.0
C1081 C 0.948 0.85431 0.17527 0.0
O1082 O 0.94532 0.86571 0.16592 0.0
C1083 C 0.94276 0.85926 0.13129 0.0
C1084 C 0.91789 0.79713 0.1434 0.0
C1085 C 0.90627 0.78718 0.1384 0.0
C1086 C 0.90999 0.77324 0.13136 0.0
C1087 C 0.9254 0.76926 0.12946 0.0
C1088 C 0.93716 0.77879 0.13484 0.0
C1089 C 0.93333 0.79288 0.14159 0.0
O1090 O 0.91582 0.87405 0.17236 0.0
O1091 O 0.90351 0.85146 0.1686 0.0
O1092 O 0.90888 0.90044 0.13754 0.0
O1093 O 0.92303 0.90215 0.15719 0.0
C1094 C 0.9153 0.90987 0.14713 0.0
O1095 O 0.93592 0.84622 0.13468 0.0
O1096 O 0.93829 0.87267 0.13655 0.0
O1097 O 0.92316 0.81573 0.16251 0.0
O1098 O 0.90775 0.82245 0.14377 0.0
H1099 H 0.89437 0.7901 0.14032 0.0
H1100 H 0.92819 0.75807 0.12485 0.0
H1101 H 0.94233 0.80029 0.14585 0.0
O1102 O 0.64092 0.89427 0.13154 0.0
Tb1103 Tb 0.63221 0.91331 0.14516 0.0
Eu1104 Eu 0.67201 0.92277 0.15653 0.0
C1105 C 0.65223 0.88547 0.13613 0.0
O1106 O 0.66071 0.8899 0.14767 0.0
C1107 C 0.64774 0.90197 0.17674 0.0
O1108 O 0.66973 0.94302 0.17228 0.0
C1109 C 0.7005 0.91531 0.1529 0.0
C1110 C 0.65617 0.94766 0.17684 0.0
O1111 O 0.64389 0.94072 0.17168 0.0
C1112 C 0.65104 0.94186 0.13388 0.0
C1113 C 0.71421 0.91816 0.14346 0.0
C1114 C 0.72281 0.90555 0.13835 0.0
C1115 C 0.73677 0.90777 0.13077 0.0
C1116 C 0.74215 0.92266 0.12841 0.0
C1117 C 0.73418 0.93535 0.13417 0.0
C1118 C 0.71994 0.93309 0.14127 0.0
O1119 O 0.63571 0.90443 0.16804 0.0
O1120 O 0.66173 0.90661 0.17368 0.0
O1121 O 0.61082 0.90947 0.13245 0.0
O1122 O 0.60977 0.91585 0.1558 0.0
C1123 C 0.60169 0.9123 0.14386 0.0
O1124 O 0.66383 0.93405 0.13486 0.0
O1125 O 0.63817 0.93682 0.13975 0.0
O1126 O 0.6959 0.92647 0.1619 0.0
O1127 O 0.6892 0.90752 0.14668 0.0
H1128 H 0.71897 0.89401 0.1408 0.0
H1129 H 0.75323 0.92431 0.12308 0.0
H1130 H 0.71387 0.94283 0.14596 0.0
O1131 O 0.61652 0.6338 0.14225 0.0
Tb1132 Tb 0.59425 0.62651 0.15039 0.0
Eu1133 Eu 0.5964 0.66662 0.16111 0.0
C1134 C 0.61964 0.64563 0.13355 0.0
O1135 O 0.60869 0.65483 0.12896 0.0
C1136 C 0.60995 0.63903 0.17901 0.0
O1137 O 0.57944 0.66764 0.18059 0.0
C1138 C 0.60808 0.69352 0.15643 0.0
C1139 C 0.57026 0.65602 0.18323 0.0
O1140 O 0.571 0.644 0.17426 0.0
C1141 C 0.56932 0.65132 0.13972 0.0
C1142 C 0.60222 0.70825 0.1508 0.0
C1143 C 0.61228 0.71912 0.14448 0.0
C1144 C 0.6067 0.73338 0.13955 0.0
C1145 C 0.59109 0.7367 0.14129 0.0
C1146 C 0.58106 0.72617 0.14804 0.0
C1147 C 0.58661 0.71178 0.1524 0.0
O1148 O 0.59913 0.62972 0.17442 0.0
O1149 O 0.61416 0.65054 0.17039 0.0
O1150 O 0.59762 0.6061 0.13616 0.0
O1151 O 0.5894 0.60346 0.15881 0.0
C1152 C 0.59349 0.59621 0.14648 0.0
O1153 O 0.578 0.66318 0.14322 0.0
O1154 O 0.57299 0.63696 0.14271 0.0
O1155 O 0.60262 0.68905 0.1697 0.0
O1156 O 0.6089 0.68239 0.14633 0.0
H1157 H 0.62437 0.71653 0.14351 0.0
H1158 H 0.58682 0.74784 0.13789 0.0
H1159 H 0.57895 0.70358 0.15767 0.0
O1160 O 0.36636 0.87606 0.892 0.0
Tb1161 Tb 0.35873 0.88174 0.91495 0.0
Eu1162 Eu 0.34919 0.8411 0.91552 0.0
C1163 C 0.37354 0.86364 0.88752 0.0
O1164 O 0.37677 0.85277 0.89736 0.0
C1165 C 0.33027 0.8672 0.90095 0.0
O1166 O 0.32895 0.84274 0.93146 0.0
C1167 C 0.35222 0.81337 0.90523 0.0
C1168 C 0.32775 0.85407 0.94129 0.0
O1169 O 0.33858 0.86445 0.94183 0.0
C1170 C 0.3727 0.85817 0.93977 0.0
C1171 C 0.35987 0.79873 0.90874 0.0
C1172 C 0.36618 0.79017 0.89666 0.0
C1173 C 0.3729 0.77587 0.89948 0.0
C1174 C 0.37326 0.77017 0.91444 0.0
C1175 C 0.36647 0.77823 0.92653 0.0
C1176 C 0.35991 0.79263 0.92368 0.0
O1177 O 0.33469 0.8769 0.9115 0.0
O1178 O 0.33925 0.85587 0.89703 0.0
O1179 O 0.37148 0.90293 0.91098 0.0
O1180 O 0.34942 0.90423 0.92095 0.0
C1181 C 0.36103 0.91218 0.91615 0.0
O1182 O 0.36813 0.84566 0.93258 0.0
O1183 O 0.36938 0.87224 0.93535 0.0
O1184 O 0.34109 0.81767 0.91439 0.0
O1185 O 0.36098 0.82475 0.90074 0.0
H1186 H 0.36551 0.79443 0.88503 0.0
H1187 H 0.37773 0.75876 0.91643 0.0
H1188 H 0.35454 0.79885 0.93297 0.0
O1189 O 0.37191 0.64259 0.61707 0.0
Tb1190 Tb 0.35664 0.63327 0.59964 0.0
Eu1191 Eu 0.34638 0.67275 0.59054 0.0
C1192 C 0.36726 0.65273 0.62717 0.0
O1193 O 0.3544 0.66003 0.62473 0.0
C1194 C 0.32538 0.64895 0.61079 0.0
O1195 O 0.33235 0.66835 0.56936 0.0
C1196 C 0.3488 0.70192 0.5955 0.0
C1197 C 0.3273 0.65454 0.56613 0.0
O1198 O 0.3313 0.64306 0.57493 0.0
C1199 C 0.371 0.6527 0.57326 0.0
C1200 C 0.35814 0.71518 0.59071 0.0
C1201 C 0.36451 0.72482 0.60195 0.0
C1202 C 0.37267 0.73798 0.5977 0.0
C1203 C 0.37437 0.7415 0.58216 0.0
C1204 C 0.36761 0.73237 0.57082 0.0
C1205 C 0.35969 0.71908 0.57514 0.0
O1206 O 0.33337 0.63666 0.60738 0.0
O1207 O 0.32936 0.66305 0.6073 0.0
O1208 O 0.36596 0.6122 0.60958 0.0
O1209 O 0.3514 0.61057 0.59032 0.0
C1210 C 0.35939 0.6028 0.60011 0.0
O1211 O 0.36934 0.66505 0.58164 0.0
O1212 O 0.36429 0.63984 0.577 0.0
O1213 O 0.33965 0.69596 0.58514 0.0
O1214 O 0.35543 0.69162 0.60426 0.0
H1215 H 0.36281 0.72228 0.61397 0.0
H1216 H 0.37995 0.75211 0.57894 0.0
H1217 H 0.3544 0.71206 0.56638 0.0
O1218 O 0.87564 0.36591 0.61387 0.0
Tb1219 Tb 0.87951 0.35685 0.59102 0.0
Eu1220 Eu 0.83837 0.34902 0.58866 0.0
C1221 C 0.86247 0.37023 0.61967 0.0
O1222 O 0.85011 0.37013 0.61117 0.0
C1223 C 0.86322 0.32915 0.6055 0.0
O1224 O 0.84061 0.3309 0.57031 0.0
C1225 C 0.8098 0.35159 0.59639 0.0
C1226 C 0.85315 0.32888 0.56225 0.0
O1227 O 0.86496 0.33782 0.56467 0.0
C1228 C 0.85681 0.37382 0.56777 0.0
C1229 C 0.79587 0.35998 0.59189 0.0
C1230 C 0.78592 0.36524 0.60335 0.0
C1231 C 0.7722 0.37261 0.59946 0.0
C1232 C 0.76852 0.37472 0.58399 0.0
C1233 C 0.77808 0.36911 0.57239 0.0
C1234 C 0.79188 0.36189 0.5764 0.0
O1235 O 0.87342 0.33326 0.59532 0.0
O1236 O 0.85086 0.33729 0.60787 0.0
O1237 O 0.90198 0.36768 0.59343 0.0
O1238 O 0.90057 0.34553 0.58363 0.0
C1239 C 0.90983 0.35645 0.58765 0.0
O1240 O 0.84437 0.37052 0.57562 0.0
O1241 O 0.87038 0.36802 0.57082 0.0
O1242 O 0.81489 0.34121 0.58678 0.0
O1243 O 0.82075 0.35961 0.60286 0.0
H1244 H 0.78866 0.36326 0.61529 0.0
H1245 H 0.75755 0.3797 0.581 0.0
H1246 H 0.79928 0.35746 0.56748 0.0
O1247 O 0.13218 0.86984 0.61576 0.0
Tb1248 Tb 0.14779 0.87885 0.59852 0.0
Eu1249 Eu 0.15679 0.83915 0.58943 0.0
C1250 C 0.13584 0.85858 0.62503 0.0
O1251 O 0.1481 0.85044 0.6222 0.0
C1252 C 0.17797 0.86194 0.61114 0.0
O1253 O 0.17189 0.84173 0.56875 0.0
C1254 C 0.15223 0.81051 0.59565 0.0
C1255 C 0.17892 0.8548 0.56627 0.0
O1256 O 0.17639 0.86633 0.57557 0.0
C1257 C 0.13632 0.86119 0.56981 0.0
C1258 C 0.14329 0.79689 0.59114 0.0
C1259 C 0.13734 0.78737 0.60265 0.0
C1260 C 0.13048 0.77336 0.59885 0.0
C1261 C 0.1296 0.76892 0.58348 0.0
C1262 C 0.1363 0.77781 0.57191 0.0
C1263 C 0.14266 0.79208 0.57576 0.0
O1264 O 0.16982 0.8744 0.60896 0.0
O1265 O 0.17432 0.84826 0.60599 0.0
O1266 O 0.135 0.90024 0.60179 0.0
O1267 O 0.15869 0.90128 0.59685 0.0
C1268 C 0.14658 0.90936 0.59969 0.0
O1269 O 0.13571 0.8486 0.57795 0.0
O1270 O 0.14411 0.87306 0.57467 0.0
O1271 O 0.16254 0.81539 0.58585 0.0
O1272 O 0.14508 0.82162 0.60291 0.0
H1273 H 0.13868 0.79051 0.61458 0.0
H1274 H 0.12479 0.75782 0.58066 0.0
H1275 H 0.14811 0.79888 0.56695 0.0
O1276 O 0.63559 0.13161 0.61327 0.0
Tb1277 Tb 0.62954 0.14602 0.59385 0.0
Eu1278 Eu 0.67067 0.15632 0.58886 0.0
C1279 C 0.64799 0.13354 0.62154 0.0
O1280 O 0.65883 0.14254 0.61648 0.0
C1281 C 0.64526 0.17551 0.60926 0.0
O1282 O 0.66806 0.1734 0.56972 0.0
C1283 C 0.69915 0.15375 0.59711 0.0
C1284 C 0.65446 0.17872 0.56611 0.0
O1285 O 0.64242 0.17349 0.57339 0.0
C1286 C 0.65113 0.13476 0.56711 0.0
C1287 C 0.71401 0.1458 0.5954 0.0
C1288 C 0.72117 0.13981 0.60857 0.0
C1289 C 0.73604 0.13385 0.60771 0.0
C1290 C 0.74369 0.13377 0.59369 0.0
C1291 C 0.73728 0.14068 0.58069 0.0
C1292 C 0.7222 0.14628 0.5815 0.0
O1293 O 0.63309 0.16836 0.60401 0.0
O1294 O 0.65951 0.17144 0.60655 0.0
O1295 O 0.60778 0.13356 0.59554 0.0
O1296 O 0.60751 0.15682 0.58882 0.0
C1297 C 0.59903 0.14496 0.59167 0.0
O1298 O 0.66315 0.13504 0.5762 0.0
O1299 O 0.63815 0.14127 0.57101 0.0
O1300 O 0.69448 0.1626 0.58588 0.0
O1301 O 0.68795 0.14654 0.60411 0.0
H1302 H 0.71551 0.14047 0.61958 0.0
H1303 H 0.75525 0.12928 0.59325 0.0
H1304 H 0.71724 0.15187 0.57161 0.0
O1305 O 0.13469 0.64073 0.89167 0.0
Tb1306 Tb 0.14387 0.62997 0.91208 0.0
Eu1307 Eu 0.15119 0.67022 0.91459 0.0
C1308 C 0.14096 0.63664 0.87862 0.0
O1309 O 0.15232 0.6268 0.8789 0.0
C1310 C 0.17277 0.64528 0.89988 0.0
O1311 O 0.16863 0.67321 0.9333 0.0
C1312 C 0.14445 0.6973 0.90447 0.0
C1313 C 0.17334 0.66158 0.94155 0.0
O1314 O 0.16754 0.64796 0.93902 0.0
C1315 C 0.13133 0.65017 0.93937 0.0
C1316 C 0.13879 0.71197 0.91053 0.0
C1317 C 0.13438 0.7235 0.9002 0.0
C1318 C 0.13152 0.73842 0.90545 0.0
C1319 C 0.13254 0.74149 0.92117 0.0
C1320 C 0.13747 0.7303 0.93156 0.0
C1321 C 0.14021 0.71539 0.92623 0.0
O1322 O 0.16787 0.63492 0.90948 0.0
O1323 O 0.16443 0.65732 0.89657 0.0
O1324 O 0.13047 0.60904 0.90813 0.0
O1325 O 0.15431 0.60728 0.9122 0.0
C1326 C 0.14193 0.59959 0.90934 0.0
O1327 O 0.13292 0.663 0.93154 0.0
O1328 O 0.13661 0.63687 0.93467 0.0
O1329 O 0.1581 0.69334 0.9093 0.0
O1330 O 0.13479 0.68576 0.90376 0.0
H1331 H 0.13419 0.72111 0.88803 0.0
H1332 H 0.13023 0.75297 0.92528 0.0
H1333 H 0.14445 0.70675 0.93406 0.0
O1334 O 0.8722 0.1293 0.88694 0.0
Tb1335 Tb 0.87651 0.13629 0.91037 0.0
Eu1336 Eu 0.8361 0.14951 0.91272 0.0
C1337 C 0.85923 0.12394 0.88156 0.0
O1338 O 0.84735 0.12247 0.8906 0.0
C1339 C 0.86275 0.16551 0.89703 0.0
O1340 O 0.83697 0.17134 0.92637 0.0
C1341 C 0.80843 0.1434 0.90388 0.0
C1342 C 0.84817 0.17339 0.9362 0.0
O1343 O 0.85851 0.16261 0.93781 0.0
C1344 C 0.85309 0.12505 0.93632 0.0
C1345 C 0.794 0.13743 0.91015 0.0
C1346 C 0.78307 0.13128 0.90008 0.0
C1347 C 0.76895 0.12603 0.90562 0.0
C1348 C 0.76593 0.12695 0.92136 0.0
C1349 C 0.77661 0.13329 0.93155 0.0
C1350 C 0.79072 0.1385 0.92588 0.0
O1351 O 0.87229 0.16053 0.90745 0.0
O1352 O 0.85097 0.15705 0.89334 0.0
O1353 O 0.89856 0.12575 0.90501 0.0
O1354 O 0.89787 0.14379 0.92121 0.0
C1355 C 0.90678 0.13434 0.91396 0.0
O1356 O 0.84228 0.13513 0.93321 0.0
O1357 O 0.86514 0.12235 0.9276 0.0
O1358 O 0.81275 0.15693 0.90886 0.0
O1359 O 0.81977 0.1336 0.90254 0.0
H1360 H 0.78547 0.1308 0.88792 0.0
H1361 H 0.75476 0.12361 0.92559 0.0
H1362 H 0.799 0.14355 0.93363 0.0
O1363 O 0.63029 0.37036 0.8917 0.0
Tb1364 Tb 0.62528 0.36171 0.91445 0.0
Eu1365 Eu 0.66613 0.35117 0.91496 0.0
C1366 C 0.64332 0.37596 0.88677 0.0
O1367 O 0.65509 0.37705 0.89602 0.0
C1368 C 0.63961 0.33348 0.89957 0.0
O1369 O 0.66414 0.33065 0.93049 0.0
C1370 C 0.69413 0.3538 0.90534 0.0
C1371 C 0.65302 0.32942 0.94052 0.0
O1372 O 0.64286 0.34041 0.94162 0.0
C1373 C 0.64929 0.3745 0.93959 0.0
C1374 C 0.70889 0.36055 0.91001 0.0
C1375 C 0.71838 0.36712 0.89879 0.0
C1376 C 0.73277 0.37306 0.9028 0.0
C1377 C 0.73758 0.37233 0.91807 0.0
C1378 C 0.72852 0.36538 0.9293 0.0
C1379 C 0.71407 0.3596 0.92525 0.0
O1380 O 0.63005 0.33779 0.91027 0.0
O1381 O 0.6513 0.34214 0.89603 0.0
O1382 O 0.6039 0.3745 0.91176 0.0
O1383 O 0.603 0.35186 0.92034 0.0
C1384 C 0.59486 0.36368 0.91646 0.0
O1385 O 0.66174 0.36985 0.93237 0.0
O1386 O 0.63517 0.37152 0.93508 0.0
O1387 O 0.68917 0.34214 0.91341 0.0
O1388 O 0.68322 0.36336 0.90138 0.0
H1389 H 0.71473 0.36733 0.88693 0.0
H1390 H 0.74902 0.37618 0.92101 0.0
H1391 H 0.70706 0.35413 0.93388 0.0
H1392 H 0.10586 0.70031 0.16416 0.0
H1393 H 0.11623 0.72559 0.15826 0.0
H1394 H 0.14183 0.70636 0.12068 0.0
H1395 H 0.13091 0.68115 0.12609 0.0
H1396 H 0.14353 0.73968 0.1551 0.0
H1397 H 0.11402 0.7358 0.09893 0.0
H1398 H 0.11136 0.72176 0.11375 0.0
H1399 H 0.12811 0.72117 0.10177 0.0
C1400 C 0.11396 0.70142 0.15485 0.0
C1401 C 0.11741 0.68888 0.1454 0.0
C1402 C 0.11987 0.71587 0.15149 0.0
C1403 C 0.12945 0.7179 0.13877 0.0
C1404 C 0.13408 0.70509 0.13025 0.0
H1405 H 0.16813 0.80707 0.11383 0.0
H1406 H 0.16511 0.78108 0.12384 0.0
C1407 C 0.12791 0.69071 0.1334 0.0
C1408 C 0.13322 0.73355 0.13356 0.0
H1409 H 0.12858 0.75795 0.1035 0.0
C1410 C 0.14032 0.7437 0.14381 0.0
C1411 C 0.12872 0.73883 0.11892 0.0
C1412 C 0.12 0.72889 0.10776 0.0
C1413 C 0.14294 0.75905 0.13984 0.0
C1414 C 0.13872 0.76419 0.12509 0.0
C1415 C 0.13185 0.75396 0.11479 0.0
C1416 C 0.14062 0.78027 0.12013 0.0
C1417 C 0.14966 0.76969 0.15168 0.0
C1418 C 0.12791 0.78833 0.11451 0.0
C1419 C 0.12968 0.80297 0.10846 0.0
C1420 C 0.14416 0.80988 0.1081 0.0
C1421 C 0.15682 0.80202 0.11411 0.0
C1422 C 0.15509 0.78723 0.11992 0.0
H1423 H 0.14823 0.76514 0.16345 0.0
H1424 H 0.1621 0.77102 0.14951 0.0
H1425 H 0.14427 0.78118 0.1511 0.0
H1426 H 0.11664 0.78318 0.11456 0.0
H1427 H 0.11971 0.80883 0.104 0.0
H1428 H 0.69454 0.1195 0.10755 0.0
H1429 H 0.7206 0.11543 0.11678 0.0
H1430 H 0.7282 0.16425 0.11701 0.0
H1431 H 0.70181 0.16837 0.10858 0.0
H1432 H 0.74563 0.12142 0.10288 0.0
H1433 H 0.74638 0.1538 0.15732 0.0
H1434 H 0.7289 0.14978 0.1471 0.0
H1435 H 0.74086 0.16559 0.14147 0.0
C1436 C 0.70173 0.12936 0.10977 0.0
C1437 C 0.69622 0.14424 0.10739 0.0
C1438 C 0.7166 0.12704 0.11506 0.0
C1439 C 0.72634 0.13954 0.1178 0.0
C1440 C 0.7208 0.15444 0.11544 0.0
H1441 H 0.82455 0.12424 0.11504 0.0
H1442 H 0.79873 0.1339 0.11009 0.0
C1443 C 0.70577 0.15678 0.1105 0.0
C1444 C 0.74258 0.1368 0.12192 0.0
H1445 H 0.77071 0.14611 0.14744 0.0
C1446 C 0.75106 0.12675 0.1127 0.0
C1447 C 0.74965 0.14363 0.13481 0.0
C1448 C 0.74092 0.15367 0.14583 0.0
C1449 C 0.76634 0.12329 0.11599 0.0
C1450 C 0.77364 0.13068 0.12844 0.0
C1451 C 0.76518 0.14068 0.13773 0.0
C1452 C 0.78985 0.12753 0.13233 0.0
C1453 C 0.77428 0.11132 0.10635 0.0
C1454 C 0.79373 0.12194 0.14688 0.0
C1455 C 0.80861 0.11691 0.14989 0.0
C1456 C 0.81971 0.11722 0.1383 0.0
C1457 C 0.81608 0.12372 0.12408 0.0
C1458 C 0.80134 0.1291 0.12122 0.0
H1459 H 0.76593 0.10365 0.10058 0.0
H1460 H 0.78108 0.11705 0.09731 0.0
H1461 H 0.78208 0.10417 0.11337 0.0
H1462 H 0.78507 0.12074 0.15567 0.0
H1463 H 0.81114 0.1119 0.16094 0.0
H1464 H 0.42349 0.79608 0.11978 0.0
H1465 H 0.41662 0.76945 0.11513 0.0
H1466 H 0.3871 0.77003 0.15464 0.0
H1467 H 0.39379 0.7969 0.15933 0.0
H1468 H 0.41891 0.74279 0.1337 0.0
H1469 H 0.35876 0.75775 0.11889 0.0
H1470 H 0.37364 0.77199 0.12033 0.0
H1471 H 0.36537 0.764 0.13735 0.0
C1472 C 0.41554 0.79059 0.12752 0.0
C1473 C 0.40902 0.79868 0.13982 0.0
C1474 C 0.41171 0.77532 0.12489 0.0
C1475 C 0.40127 0.76782 0.13445 0.0
C1476 C 0.39506 0.77569 0.14702 0.0
H1477 H 0.37449 0.67136 0.12328 0.0
H1478 H 0.38601 0.69467 0.13408 0.0
C1479 C 0.39889 0.79102 0.14968 0.0
C1480 C 0.3963 0.75209 0.13058 0.0
H1481 H 0.36576 0.7319 0.11702 0.0
C1482 C 0.40726 0.74032 0.13021 0.0
C1483 C 0.38113 0.74901 0.12587 0.0
C1484 C 0.36903 0.76133 0.12549 0.0
C1485 C 0.40346 0.72557 0.12499 0.0
C1486 C 0.38835 0.72261 0.1201 0.0
C1487 C 0.37734 0.73427 0.12081 0.0
C1488 C 0.38377 0.70783 0.11323 0.0
C1489 C 0.4157 0.71343 0.12417 0.0
C1490 C 0.37899 0.70748 0.09791 0.0
C1491 C 0.37249 0.69426 0.09178 0.0
C1492 C 0.37072 0.68114 0.10083 0.0
C1493 C 0.37608 0.68125 0.11599 0.0
C1494 C 0.3826 0.69453 0.12216 0.0
H1495 H 0.4273 0.71816 0.12634 0.0
H1496 H 0.41334 0.70448 0.13285 0.0
H1497 H 0.41561 0.70782 0.11276 0.0
H1498 H 0.37975 0.71765 0.09087 0.0
H1499 H 0.3683 0.69449 0.08011 0.0
H1500 H 0.69969 0.38028 0.12595 0.0
H1501 H 0.72571 0.37151 0.1206 0.0
H1502 H 0.74292 0.40065 0.15663 0.0
H1503 H 0.71682 0.40874 0.16254 0.0
H1504 H 0.74722 0.38808 0.11003 0.0
H1505 H 0.76833 0.36406 0.16459 0.0
H1506 H 0.7484 0.3684 0.16146 0.0
H1507 H 0.76158 0.38327 0.167 0.0
C1508 C 0.70901 0.38447 0.13298 0.0
C1509 C 0.70627 0.3951 0.1447 0.0
C1510 C 0.72388 0.3795 0.12991 0.0
C1511 C 0.73634 0.3853 0.13829 0.0
C1512 C 0.73353 0.39564 0.15029 0.0
H1513 H 0.82535 0.38768 0.09384 0.0
H1514 H 0.80194 0.39519 0.10705 0.0
C1515 C 0.7186 0.40032 0.15362 0.0
C1516 C 0.75224 0.38179 0.13334 0.0
H1517 H 0.78741 0.37012 0.14584 0.0
C1518 C 0.75595 0.38402 0.11787 0.0
C1519 C 0.76366 0.37641 0.14351 0.0
C1520 C 0.76025 0.37274 0.16002 0.0
C1521 C 0.77065 0.38101 0.11226 0.0
C1522 C 0.78228 0.37634 0.12255 0.0
C1523 C 0.77859 0.37401 0.13802 0.0
C1524 C 0.79804 0.37293 0.1172 0.0
C1525 C 0.77336 0.38239 0.09524 0.0
C1526 C 0.80434 0.35836 0.11956 0.0
C1527 C 0.81815 0.3543 0.1126 0.0
C1528 C 0.82585 0.3647 0.10307 0.0
C1529 C 0.82 0.37958 0.10148 0.0
C1530 C 0.80637 0.38375 0.10872 0.0
H1531 H 0.76249 0.38158 0.08868 0.0
H1532 H 0.77852 0.39371 0.09274 0.0
H1533 H 0.78122 0.37333 0.09106 0.0
H1534 H 0.79821 0.34985 0.12615 0.0
H1535 H 0.82238 0.34274 0.11407 0.0
H1536 H 0.13234 0.82451 0.38501 0.0
H1537 H 0.1442 0.79974 0.39038 0.0
H1538 H 0.11869 0.77952 0.35319 0.0
H1539 H 0.10743 0.80434 0.34734 0.0
H1540 H 0.13011 0.77617 0.40017 0.0
H1541 H 0.15836 0.75875 0.34658 0.0
H1542 H 0.15183 0.77809 0.34973 0.0
H1543 H 0.13883 0.76364 0.34277 0.0
C1544 C 0.12957 0.81484 0.37776 0.0
C1545 C 0.11898 0.81633 0.36576 0.0
C1546 C 0.13635 0.8007 0.38083 0.0
C1547 C 0.13251 0.78776 0.37208 0.0
C1548 C 0.12225 0.78937 0.3598 0.0
H1549 H 0.12126 0.69729 0.40529 0.0
H1550 H 0.11975 0.72389 0.39706 0.0
C1551 C 0.11571 0.80357 0.35654 0.0
C1552 C 0.13759 0.77231 0.37696 0.0
H1553 H 0.15055 0.738 0.36347 0.0
C1554 C 0.13487 0.76795 0.39218 0.0
C1555 C 0.14406 0.76157 0.36668 0.0
C1556 C 0.14859 0.76584 0.35059 0.0
C1557 C 0.13763 0.75298 0.39717 0.0
C1558 C 0.14271 0.74191 0.38651 0.0
C1559 C 0.14631 0.74643 0.37154 0.0
C1560 C 0.1436 0.72549 0.39057 0.0
C1561 C 0.13494 0.7492 0.4138 0.0
C1562 C 0.15732 0.71731 0.3889 0.0
C1563 C 0.15815 0.70196 0.39334 0.0
C1564 C 0.14527 0.69462 0.39957 0.0
C1565 C 0.13144 0.70271 0.40074 0.0
C1566 C 0.13058 0.71794 0.39614 0.0
H1567 H 0.13633 0.75948 0.42116 0.0
H1568 H 0.12305 0.74501 0.41526 0.0
H1569 H 0.14293 0.7402 0.41788 0.0
H1570 H 0.16746 0.7229 0.38448 0.0
H1571 H 0.16895 0.69599 0.3923 0.0
H1572 H 0.80609 0.13773 0.41736 0.0
H1573 H 0.78032 0.1327 0.40797 0.0
H1574 H 0.79509 0.14266 0.36189 0.0
H1575 H 0.82128 0.14672 0.37125 0.0
H1576 H 0.7605 0.1501 0.39527 0.0
H1577 H 0.77392 0.10347 0.35426 0.0
H1578 H 0.78795 0.11091 0.3674 0.0
H1579 H 0.78356 0.12106 0.35002 0.0
C1580 C 0.80386 0.13871 0.4052 0.0
C1581 C 0.81563 0.1425 0.39499 0.0
C1582 C 0.78912 0.13589 0.39984 0.0
C1583 C 0.78574 0.13711 0.38418 0.0
C1584 C 0.79747 0.14119 0.37396 0.0
H1585 H 0.68714 0.13436 0.36115 0.0
H1586 H 0.71322 0.14404 0.3651 0.0
C1587 C 0.81239 0.1436 0.3793 0.0
C1588 C 0.76985 0.13423 0.37887 0.0
H1589 H 0.74834 0.11187 0.35517 0.0
C1590 C 0.75784 0.14172 0.38649 0.0
C1591 C 0.76637 0.12329 0.36744 0.0
C1592 C 0.77861 0.11411 0.35941 0.0
C1593 C 0.74248 0.13808 0.38356 0.0
C1594 C 0.739 0.12718 0.37208 0.0
C1595 C 0.75101 0.12023 0.36395 0.0
C1596 C 0.72316 0.1217 0.36925 0.0
C1597 C 0.73028 0.14534 0.39341 0.0
C1598 C 0.72015 0.10593 0.36972 0.0
C1599 C 0.70546 0.10041 0.36696 0.0
C1600 C 0.69338 0.11055 0.36398 0.0
C1601 C 0.69627 0.12635 0.36364 0.0
C1602 C 0.71113 0.13187 0.36598 0.0
H1603 H 0.7351 0.15002 0.40421 0.0
H1604 H 0.72498 0.15498 0.38708 0.0
H1605 H 0.72119 0.13698 0.39637 0.0
H1606 H 0.72918 0.09783 0.37227 0.0
H1607 H 0.70351 0.08817 0.36735 0.0
H1608 H 0.38344 0.82483 0.37668 0.0
H1609 H 0.38811 0.79947 0.36581 0.0
H1610 H 0.3473 0.78256 0.3879 0.0
H1611 H 0.3422 0.80808 0.39806 0.0
H1612 H 0.39494 0.77643 0.38218 0.0
H1613 H 0.344 0.7599 0.34875 0.0
H1614 H 0.34736 0.77939 0.35472 0.0
H1615 H 0.33845 0.76591 0.36754 0.0
C1616 C 0.37526 0.81577 0.37882 0.0
C1617 C 0.36249 0.81835 0.38821 0.0
C1618 C 0.37791 0.8013 0.37261 0.0
C1619 C 0.368 0.78908 0.37592 0.0
C1620 C 0.35488 0.79184 0.38478 0.0
H1621 H 0.39739 0.69789 0.39299 0.0
H1622 H 0.38807 0.7242 0.39341 0.0
C1623 C 0.35203 0.80642 0.39069 0.0
C1624 C 0.37261 0.77318 0.37214 0.0
H1625 H 0.3593 0.73891 0.35881 0.0
C1626 C 0.3872 0.76834 0.3768 0.0
C1627 C 0.36264 0.76259 0.36496 0.0
C1628 C 0.34732 0.76729 0.35857 0.0
C1629 C 0.39186 0.75313 0.3751 0.0
C1630 C 0.38144 0.74229 0.36911 0.0
C1631 C 0.36713 0.7472 0.36373 0.0
C1632 C 0.38518 0.72579 0.36886 0.0
C1633 C 0.40792 0.74882 0.37984 0.0
C1634 C 0.38576 0.71771 0.355 0.0
C1635 C 0.39086 0.70253 0.35475 0.0
C1636 C 0.39551 0.69533 0.36837 0.0
C1637 C 0.39412 0.70323 0.38229 0.0
C1638 C 0.38886 0.71827 0.38255 0.0
H1639 H 0.41572 0.75885 0.37947 0.0
H1640 H 0.40775 0.74452 0.39178 0.0
H1641 H 0.41266 0.73971 0.37235 0.0
H1642 H 0.38283 0.7233 0.34433 0.0
H1643 H 0.39178 0.6967 0.34385 0.0
H1644 H 0.68497 0.38544 0.37815 0.0
H1645 H 0.70996 0.38984 0.36637 0.0
H1646 H 0.72668 0.34787 0.38638 0.0
H1647 H 0.70143 0.34302 0.39728 0.0
H1648 H 0.73359 0.39577 0.38166 0.0
H1649 H 0.74813 0.34528 0.34681 0.0
H1650 H 0.72892 0.34871 0.35356 0.0
H1651 H 0.74277 0.33929 0.36564 0.0
C1652 C 0.69389 0.37695 0.37959 0.0
C1653 C 0.69137 0.36391 0.38858 0.0
C1654 C 0.70815 0.37945 0.37288 0.0
C1655 C 0.72024 0.36915 0.37537 0.0
C1656 C 0.71749 0.35577 0.38386 0.0
H1657 H 0.81224 0.39697 0.39078 0.0
H1658 H 0.78571 0.3883 0.39163 0.0
C1659 C 0.70308 0.35306 0.39021 0.0
C1660 C 0.73611 0.37353 0.3712 0.0
H1661 H 0.76977 0.35975 0.3569 0.0
C1662 C 0.74137 0.38796 0.37596 0.0
C1663 C 0.74632 0.3635 0.36359 0.0
C1664 C 0.74116 0.34841 0.35697 0.0
C1665 C 0.75662 0.39236 0.37396 0.0
C1666 C 0.76711 0.3818 0.36762 0.0
C1667 C 0.76177 0.36768 0.36211 0.0
C1668 C 0.78369 0.38517 0.36713 0.0
C1669 C 0.76132 0.4083 0.37874 0.0
C1670 C 0.79162 0.38535 0.35317 0.0
C1671 C 0.80693 0.39001 0.3527 0.0
C1672 C 0.81441 0.39465 0.36617 0.0
C1673 C 0.80666 0.39369 0.38019 0.0
C1674 C 0.7915 0.38882 0.38068 0.0
H1675 H 0.75145 0.41631 0.37844 0.0
H1676 H 0.76566 0.408 0.39067 0.0
H1677 H 0.77047 0.41289 0.37123 0.0
H1678 H 0.78582 0.38243 0.34261 0.0
H1679 H 0.81266 0.39062 0.34173 0.0
H1680 H 0.16341 0.1116 0.69896 0.0
H1681 H 0.15758 0.1202 0.72498 0.0
H1682 H 0.11576 0.14087 0.70877 0.0
H1683 H 0.12115 0.13153 0.68291 0.0
H1684 H 0.15174 0.14589 0.74045 0.0
H1685 H 0.09935 0.11015 0.73836 0.0
H1686 H 0.1135 0.1098 0.7234 0.0
H1687 H 0.09941 0.12484 0.72407 0.0
C1688 C 0.15315 0.11827 0.70092 0.0
C1689 C 0.14261 0.12075 0.68905 0.0
C1690 C 0.14981 0.12315 0.71578 0.0
C1691 C 0.136 0.13075 0.71889 0.0
C1692 C 0.12622 0.13456 0.70671 0.0
H1693 H 0.11088 0.16691 0.80888 0.0
H1694 H 0.12042 0.1643 0.78268 0.0
C1695 C 0.12936 0.12934 0.69195 0.0
C1696 C 0.1312 0.13342 0.73494 0.0
H1697 H 0.10268 0.1255 0.76033 0.0
C1698 C 0.14102 0.14143 0.74483 0.0
C1699 C 0.11737 0.12728 0.74072 0.0
C1700 C 0.10688 0.1174 0.73114 0.0
C1701 C 0.13735 0.14354 0.76034 0.0
C1702 C 0.12324 0.13788 0.76595 0.0
C1703 C 0.11345 0.12992 0.75602 0.0
C1704 C 0.11845 0.1396 0.78214 0.0
C1705 C 0.14883 0.15134 0.77063 0.0
C1706 C 0.11385 0.12664 0.79045 0.0
C1707 C 0.10801 0.12816 0.80522 0.0
C1708 C 0.10686 0.14265 0.81205 0.0
C1709 C 0.1118 0.15559 0.80391 0.0
C1710 C 0.11736 0.1541 0.78899 0.0
H1711 H 0.16058 0.15069 0.76583 0.0
H1712 H 0.14578 0.16362 0.77173 0.0
H1713 H 0.1489 0.14618 0.78223 0.0
H1714 H 0.11458 0.11533 0.78542 0.0
H1715 H 0.10438 0.11798 0.81128 0.0
H1716 H 0.4011 0.1173 0.6872 0.0
H1717 H 0.39164 0.11313 0.71315 0.0
H1718 H 0.37965 0.16092 0.71658 0.0
H1719 H 0.3885 0.16501 0.69035 0.0
H1720 H 0.40226 0.12482 0.73856 0.0
H1721 H 0.34141 0.1417 0.73278 0.0
H1722 H 0.35368 0.13883 0.71645 0.0
H1723 H 0.35438 0.15651 0.72701 0.0
C1724 C 0.39627 0.12688 0.69342 0.0
C1725 C 0.39548 0.14146 0.68677 0.0
C1726 C 0.39087 0.12449 0.70824 0.0
C1727 C 0.38475 0.13667 0.71675 0.0
C1728 C 0.38392 0.15126 0.7101 0.0
H1729 H 0.38092 0.12902 0.81618 0.0
H1730 H 0.38627 0.13802 0.79023 0.0
C1731 C 0.38908 0.15361 0.69515 0.0
C1732 C 0.38018 0.13417 0.73288 0.0
H1733 H 0.35062 0.13781 0.75813 0.0
C1734 C 0.39095 0.12762 0.74282 0.0
C1735 C 0.36537 0.13772 0.73838 0.0
C1736 C 0.353 0.14393 0.72806 0.0
C1737 C 0.38732 0.12437 0.75808 0.0
C1738 C 0.37268 0.12837 0.76374 0.0
C1739 C 0.3619 0.13498 0.75382 0.0
C1740 C 0.36809 0.12489 0.77966 0.0
C1741 C 0.39905 0.11617 0.76777 0.0
C1742 C 0.35547 0.11536 0.78244 0.0
C1743 C 0.35216 0.11052 0.79728 0.0
C1744 C 0.36154 0.11499 0.80956 0.0
C1745 C 0.37365 0.12521 0.80688 0.0
C1746 C 0.37677 0.13028 0.79207 0.0
H1747 H 0.40774 0.11024 0.76064 0.0
H1748 H 0.40513 0.12463 0.77504 0.0
H1749 H 0.39355 0.10759 0.77534 0.0
H1750 H 0.34857 0.11114 0.77303 0.0
H1751 H 0.34277 0.10261 0.79901 0.0
H1752 H 0.39249 0.40029 0.69167 0.0
H1753 H 0.39557 0.39098 0.71782 0.0
H1754 H 0.34683 0.38363 0.72096 0.0
H1755 H 0.3438 0.39228 0.69451 0.0
H1756 H 0.38481 0.40364 0.74252 0.0
H1757 H 0.36201 0.34457 0.73916 0.0
H1758 H 0.36612 0.35579 0.72234 0.0
H1759 H 0.34856 0.35865 0.73271 0.0
C1760 C 0.38247 0.39644 0.69786 0.0
C1761 C 0.36792 0.39695 0.69109 0.0
C1762 C 0.38423 0.39114 0.7128 0.0
C1763 C 0.37145 0.38645 0.72132 0.0
C1764 C 0.35691 0.38679 0.7145 0.0
H1765 H 0.3786 0.38615 0.82099 0.0
H1766 H 0.37015 0.39135 0.79481 0.0
C1767 C 0.35517 0.39182 0.69942 0.0
C1768 C 0.37336 0.38236 0.73767 0.0
H1769 H 0.36661 0.35447 0.76415 0.0
C1770 C 0.38088 0.39285 0.74723 0.0
C1771 C 0.36829 0.36825 0.74377 0.0
C1772 C 0.36093 0.3561 0.73393 0.0
C1773 C 0.38368 0.3896 0.76266 0.0
C1774 C 0.37821 0.37569 0.7689 0.0
C1775 C 0.37058 0.36521 0.75938 0.0
C1776 C 0.38122 0.37145 0.78503 0.0
C1777 C 0.393 0.40086 0.77191 0.0
C1778 C 0.38934 0.35801 0.78835 0.0
C1779 C 0.39383 0.35481 0.80334 0.0
C1780 C 0.39042 0.3651 0.81522 0.0
C1781 C 0.38158 0.37814 0.81201 0.0
C1782 C 0.37683 0.38116 0.79705 0.0
H1783 H 0.3998 0.40859 0.76445 0.0
H1784 H 0.38518 0.40808 0.77883 0.0
H1785 H 0.40096 0.39487 0.77978 0.0
H1786 H 0.39277 0.35031 0.77926 0.0
H1787 H 0.40066 0.34469 0.80547 0.0
H1788 H 0.15995 0.39795 0.80696 0.0
H1789 H 0.15508 0.38917 0.78072 0.0
H1790 H 0.11062 0.3727 0.79451 0.0
H1791 H 0.11509 0.38235 0.82042 0.0
H1792 H 0.1485 0.36353 0.76596 0.0
H1793 H 0.09865 0.40243 0.76222 0.0
H1794 H 0.11157 0.40265 0.77828 0.0
H1795 H 0.09643 0.38868 0.77724 0.0
C1796 C 0.14925 0.39224 0.80437 0.0
C1797 C 0.13779 0.39096 0.81554 0.0
C1798 C 0.14646 0.38725 0.78942 0.0
C1799 C 0.13228 0.38071 0.78555 0.0
C1800 C 0.1214 0.37822 0.79709 0.0
H1801 H 0.10966 0.33855 0.69775 0.0
H1802 H 0.11868 0.3432 0.72389 0.0
C1803 C 0.124 0.3836 0.8119 0.0
C1804 C 0.12846 0.37747 0.76933 0.0
H1805 H 0.10175 0.38481 0.74185 0.0
C1806 C 0.13832 0.36823 0.76064 0.0
C1807 C 0.11536 0.38392 0.76229 0.0
C1808 C 0.105 0.3951 0.77044 0.0
C1809 C 0.13533 0.3651 0.74514 0.0
C1810 C 0.12182 0.37093 0.73835 0.0
C1811 C 0.11205 0.38023 0.74706 0.0
C1812 C 0.11757 0.36791 0.72218 0.0
C1813 C 0.14688 0.35594 0.73616 0.0
C1814 C 0.11364 0.3802 0.7126 0.0
C1815 C 0.10804 0.37753 0.6979 0.0
C1816 C 0.10651 0.36253 0.69238 0.0
C1817 C 0.11089 0.35023 0.70172 0.0
C1818 C 0.11616 0.35289 0.71661 0.0
H1819 H 0.15845 0.35666 0.74139 0.0
H1820 H 0.14342 0.34373 0.73613 0.0
H1821 H 0.14761 0.35994 0.72413 0.0
H1822 H 0.11463 0.39189 0.71661 0.0
H1823 H 0.10485 0.38723 0.69087 0.0
H1824 H 0.8971 0.29451 0.84457 0.0
H1825 H 0.88689 0.26919 0.85004 0.0
H1826 H 0.86164 0.28754 0.88831 0.0
H1827 H 0.87248 0.31286 0.88331 0.0
H1828 H 0.8762 0.26387 0.89709 0.0
H1829 H 0.84767 0.24783 0.84323 0.0
H1830 H 0.86701 0.25329 0.83928 0.0
H1831 H 0.85381 0.26718 0.847 0.0
C1832 C 0.8891 0.29324 0.85394 0.0
C1833 C 0.88559 0.30567 0.86351 0.0
C1834 C 0.88316 0.27874 0.857 0.0
C1835 C 0.87324 0.27645 0.86942 0.0
C1836 C 0.86922 0.28902 0.87862 0.0
H1837 H 0.83966 0.18281 0.88479 0.0
H1838 H 0.84033 0.21019 0.87886 0.0
C1839 C 0.87541 0.30348 0.87576 0.0
C1840 C 0.86859 0.26071 0.87381 0.0
H1841 H 0.85645 0.22662 0.85906 0.0
C1842 C 0.87159 0.25583 0.88882 0.0
C1843 C 0.86228 0.25021 0.86318 0.0
C1844 C 0.85735 0.25498 0.84734 0.0
C1845 C 0.86929 0.2406 0.89324 0.0
C1846 C 0.86443 0.2298 0.88218 0.0
C1847 C 0.86054 0.23483 0.86744 0.0
C1848 C 0.86399 0.21319 0.88554 0.0
C1849 C 0.87214 0.23625 0.90971 0.0
C1850 C 0.87717 0.20573 0.89089 0.0
C1851 C 0.87678 0.19018 0.89443 0.0
C1852 C 0.86329 0.18171 0.89237 0.0
C1853 C 0.85024 0.18905 0.88647 0.0
C1854 C 0.85059 0.20468 0.88311 0.0
H1855 H 0.87041 0.24618 0.91747 0.0
H1856 H 0.86448 0.22682 0.91343 0.0
H1857 H 0.88418 0.23244 0.91102 0.0
H1858 H 0.88779 0.21195 0.89236 0.0
H1859 H 0.88705 0.18479 0.89879 0.0
H1860 H 0.20314 0.90146 0.84072 0.0
H1861 H 0.22866 0.89165 0.84627 0.0
H1862 H 0.21021 0.86418 0.88291 0.0
H1863 H 0.18475 0.87468 0.8779 0.0
H1864 H 0.23234 0.87987 0.89322 0.0
H1865 H 0.2528 0.85411 0.83942 0.0
H1866 H 0.24655 0.8733 0.83597 0.0
H1867 H 0.23298 0.8591 0.84228 0.0
C1868 C 0.20446 0.89298 0.84966 0.0
C1869 C 0.19201 0.88883 0.85891 0.0
C1870 C 0.21907 0.88729 0.85278 0.0
C1871 C 0.2214 0.877 0.86491 0.0
C1872 C 0.20873 0.8721 0.8735 0.0
H1873 H 0.31418 0.8448 0.88613 0.0
H1874 H 0.28753 0.84586 0.87755 0.0
C1875 C 0.19419 0.87807 0.87062 0.0
C1876 C 0.23715 0.87312 0.86996 0.0
H1877 H 0.27254 0.86278 0.85703 0.0
C1878 C 0.24104 0.87586 0.88532 0.0
C1879 C 0.24853 0.86768 0.85979 0.0
C1880 C 0.24493 0.86322 0.8435 0.0
C1881 C 0.25603 0.87395 0.89064 0.0
C1882 C 0.26764 0.86978 0.88017 0.0
C1883 C 0.26369 0.86632 0.86498 0.0
C1884 C 0.28396 0.86929 0.88475 0.0
C1885 C 0.25922 0.87639 0.90745 0.0
C1886 C 0.29092 0.88223 0.89128 0.0
C1887 C 0.30604 0.8816 0.89637 0.0
C1888 C 0.3146 0.86811 0.89471 0.0
C1889 C 0.30785 0.85536 0.88756 0.0
C1890 C 0.29263 0.85594 0.88267 0.0
H1891 H 0.24882 0.87433 0.91446 0.0
H1892 H 0.26847 0.86873 0.91159 0.0
H1893 H 0.26279 0.88843 0.90934 0.0
H1894 H 0.2846 0.89281 0.89256 0.0
H1895 H 0.311 0.89166 0.90165 0.0
H1896 H 0.62734 0.18757 0.88344 0.0
H1897 H 0.63724 0.21331 0.88843 0.0
H1898 H 0.6149 0.22979 0.8476 0.0
H1899 H 0.60565 0.20401 0.84216 0.0
H1900 H 0.64127 0.24425 0.85172 0.0
H1901 H 0.60862 0.24422 0.90619 0.0
H1902 H 0.62303 0.22965 0.90534 0.0
H1903 H 0.60702 0.22901 0.89237 0.0
C1904 C 0.6248 0.19664 0.87539 0.0
C1905 C 0.61559 0.19385 0.86251 0.0
C1906 C 0.63037 0.21135 0.8783 0.0
C1907 C 0.6264 0.22356 0.86865 0.0
C1908 C 0.61803 0.22056 0.85526 0.0
H1909 H 0.61376 0.31663 0.89648 0.0
H1910 H 0.61161 0.29018 0.88772 0.0
C1911 C 0.61275 0.20582 0.85216 0.0
C1912 C 0.6298 0.23959 0.87301 0.0
H1913 H 0.62323 0.26615 0.90085 0.0
C1914 C 0.63737 0.24906 0.86247 0.0
C1915 C 0.62444 0.2459 0.88694 0.0
C1916 C 0.6152 0.23673 0.89829 0.0
C1917 C 0.63956 0.26472 0.86539 0.0
C1918 C 0.63446 0.27093 0.87945 0.0
C1919 C 0.62717 0.26137 0.89009 0.0
C1920 C 0.63583 0.28741 0.88325 0.0
C1921 C 0.64674 0.27452 0.85314 0.0
C1922 C 0.65012 0.29475 0.88343 0.0
C1923 C 0.65131 0.31001 0.88812 0.0
C1924 C 0.63827 0.31799 0.89308 0.0
C1925 C 0.62398 0.3107 0.89275 0.0
C1926 C 0.62276 0.29559 0.88777 0.0
H1927 H 0.64589 0.26907 0.84168 0.0
H1928 H 0.64125 0.28596 0.8526 0.0
H1929 H 0.65906 0.27612 0.85577 0.0
H1930 H 0.66042 0.28857 0.8804 0.0
H1931 H 0.6625 0.31533 0.88847 0.0
H1932 H 0.31279 0.61556 0.89052 0.0
H1933 H 0.28638 0.6241 0.89367 0.0
H1934 H 0.27853 0.61807 0.84527 0.0
H1935 H 0.30528 0.61022 0.84196 0.0
H1936 H 0.26389 0.64284 0.85548 0.0
H1937 H 0.25173 0.59434 0.89417 0.0
H1938 H 0.26693 0.60601 0.90146 0.0
H1939 H 0.26939 0.59585 0.88367 0.0
C1940 C 0.30545 0.61616 0.88054 0.0
C1941 C 0.31095 0.61206 0.86603 0.0
C1942 C 0.29035 0.62096 0.88236 0.0
C1943 C 0.28036 0.62126 0.86978 0.0
C1944 C 0.28602 0.61779 0.85515 0.0
H1945 H 0.18329 0.61845 0.88868 0.0
H1946 H 0.20869 0.61315 0.8784 0.0
C1947 C 0.30126 0.61331 0.85327 0.0
C1948 C 0.26391 0.62463 0.87208 0.0
H1949 H 0.23313 0.61426 0.89358 0.0
C1950 C 0.25708 0.63651 0.86369 0.0
C1951 C 0.25494 0.61611 0.88251 0.0
C1952 C 0.26108 0.60226 0.89083 0.0
C1953 C 0.24162 0.64039 0.8658 0.0
C1954 C 0.23295 0.63251 0.87697 0.0
C1955 C 0.23975 0.62042 0.88508 0.0
C1956 C 0.21685 0.63646 0.88069 0.0
C1957 C 0.23474 0.65268 0.85583 0.0
C1958 C 0.21275 0.65143 0.88496 0.0
C1959 C 0.19802 0.65455 0.89038 0.0
C1960 C 0.1874 0.64265 0.8921 0.0
C1961 C 0.19135 0.6278 0.8875 0.0
C1962 C 0.20586 0.62477 0.88165 0.0
H1963 H 0.24089 0.65359 0.84474 0.0
H1964 H 0.22246 0.65045 0.85347 0.0
H1965 H 0.23577 0.66389 0.86172 0.0
H1966 H 0.22111 0.66057 0.88478 0.0
H1967 H 0.19522 0.66606 0.89406 0.0
H1968 H 0.84096 0.30872 0.61322 0.0
H1969 H 0.8447 0.2825 0.62232 0.0
H1970 H 0.89344 0.29032 0.62467 0.0
H1971 H 0.88977 0.31614 0.61467 0.0
H1972 H 0.88842 0.26603 0.60959 0.0
H1973 H 0.85328 0.26237 0.66203 0.0
H1974 H 0.84213 0.26848 0.64594 0.0
H1975 H 0.8575 0.28036 0.65286 0.0
C1976 C 0.85242 0.30488 0.61599 0.0
C1977 C 0.8651 0.31434 0.61321 0.0
C1978 C 0.85455 0.28994 0.6213 0.0
C1979 C 0.86935 0.28445 0.62437 0.0
C1980 C 0.88192 0.29427 0.62236 0.0
H1981 H 0.89353 0.19593 0.66289 0.0
H1982 H 0.88563 0.22265 0.65942 0.0
C1983 C 0.87983 0.30901 0.61667 0.0
C1984 C 0.87202 0.26806 0.62789 0.0
H1985 H 0.86114 0.23845 0.65094 0.0
C1986 C 0.88255 0.26008 0.61876 0.0
C1987 C 0.86446 0.26026 0.63991 0.0
C1988 C 0.85384 0.26836 0.65084 0.0
C1989 C 0.88575 0.24461 0.62124 0.0
C1990 C 0.87759 0.23659 0.63269 0.0
C1991 C 0.86716 0.24455 0.64198 0.0
C1992 C 0.88016 0.22005 0.63538 0.0
C1993 C 0.89819 0.23721 0.61179 0.0
C1994 C 0.87903 0.20959 0.62322 0.0
C1995 C 0.88395 0.19453 0.62508 0.0
C1996 C 0.88945 0.18954 0.63929 0.0
C1997 C 0.8893 0.19958 0.65183 0.0
C1998 C 0.8848 0.21481 0.64985 0.0
H1999 H 0.90636 0.24583 0.60726 0.0
H2000 H 0.90474 0.2287 0.61858 0.0
H2001 H 0.89296 0.2313 0.60184 0.0
H2002 H 0.87495 0.21324 0.6121 0.0
H2003 H 0.88379 0.18687 0.61532 0.0
H2004 H 0.18629 0.88358 0.63214 0.0
H2005 H 0.21214 0.88882 0.64156 0.0
H2006 H 0.22927 0.85015 0.61606 0.0
H2007 H 0.20341 0.84445 0.60718 0.0
H2008 H 0.24413 0.85301 0.6426 0.0
H2009 H 0.24181 0.90926 0.61322 0.0
H2010 H 0.22753 0.90708 0.62777 0.0
H2011 H 0.22703 0.89507 0.61103 0.0
C2012 C 0.19554 0.87605 0.62878 0.0
C2013 C 0.19289 0.86372 0.61879 0.0
C2014 C 0.2103 0.87911 0.63408 0.0
C2015 C 0.22268 0.87015 0.62913 0.0
C2016 C 0.21989 0.85727 0.61995 0.0
H2017 H 0.31501 0.90095 0.61722 0.0
H2018 H 0.28867 0.89196 0.61472 0.0
C2019 C 0.2051 0.85402 0.61489 0.0
C2020 C 0.23864 0.87478 0.63247 0.0
H2021 H 0.26418 0.90379 0.6272 0.0
C2022 C 0.24854 0.86412 0.63928 0.0
C2023 C 0.24441 0.88919 0.62784 0.0
C2024 C 0.2347 0.90075 0.61943 0.0
C2025 C 0.26411 0.86743 0.64147 0.0
C2026 C 0.26977 0.88196 0.63715 0.0
C2027 C 0.2598 0.89268 0.63056 0.0
C2028 C 0.2861 0.88622 0.63869 0.0
C2029 C 0.27441 0.85511 0.64783 0.0
C2030 C 0.29346 0.88586 0.65297 0.0
C2031 C 0.30863 0.89073 0.65436 0.0
C2032 C 0.31652 0.89638 0.64155 0.0
C2033 C 0.30917 0.89669 0.62728 0.0
C2034 C 0.29413 0.89157 0.62585 0.0
H2035 H 0.26933 0.84354 0.64637 0.0
H2036 H 0.28579 0.85527 0.6422 0.0
H2037 H 0.27608 0.85708 0.66026 0.0
H2038 H 0.28738 0.88218 0.6631 0.0
H2039 H 0.31399 0.89056 0.66553 0.0
H2040 H 0.62116 0.18284 0.62765 0.0
H2041 H 0.61505 0.20808 0.63818 0.0
H2042 H 0.65695 0.22611 0.61932 0.0
H2043 H 0.66346 0.20077 0.60945 0.0
H2044 H 0.65072 0.23939 0.64611 0.0
H2045 H 0.59879 0.23981 0.6095 0.0
H2046 H 0.59888 0.22459 0.62323 0.0
H2047 H 0.61301 0.22496 0.60825 0.0
C2048 C 0.62918 0.19215 0.626 0.0
C2049 C 0.64268 0.18994 0.61759 0.0
C2050 C 0.62565 0.20656 0.63194 0.0
C2051 C 0.63532 0.21907 0.62911 0.0
C2052 C 0.64927 0.21664 0.62155 0.0
H2053 H 0.60645 0.31204 0.61905 0.0
H2054 H 0.61595 0.28595 0.61628 0.0
C2055 C 0.65298 0.20216 0.61592 0.0
C2056 C 0.63042 0.23485 0.63287 0.0
H2057 H 0.60244 0.26106 0.62564 0.0
C2058 C 0.64015 0.24415 0.64167 0.0
C2059 C 0.61675 0.24111 0.62682 0.0
C2060 C 0.60633 0.23217 0.6163 0.0
C2061 C 0.63666 0.25959 0.64447 0.0
C2062 C 0.62283 0.26572 0.63868 0.0
C2063 C 0.61301 0.25633 0.63012 0.0
C2064 C 0.61851 0.282 0.64062 0.0
C2065 C 0.64808 0.26929 0.65307 0.0
C2066 C 0.61701 0.28856 0.65522 0.0
C2067 C 0.61184 0.30363 0.6568 0.0
C2068 C 0.60775 0.31218 0.64383 0.0
C2069 C 0.60943 0.30566 0.62925 0.0
C2070 C 0.61485 0.29076 0.62766 0.0
H2071 H 0.6597 0.26414 0.65287 0.0
H2072 H 0.64875 0.281 0.64819 0.0
H2073 H 0.64447 0.27023 0.6652 0.0
H2074 H 0.61938 0.28192 0.66539 0.0
H2075 H 0.6105 0.30837 0.66818 0.0
H2076 H 0.1913 0.60138 0.61991 0.0
H2077 H 0.21732 0.61109 0.61692 0.0
H2078 H 0.21828 0.62382 0.66463 0.0
H2079 H 0.19198 0.61462 0.66757 0.0
H2080 H 0.23109 0.64552 0.64731 0.0
H2081 H 0.25503 0.58921 0.63124 0.0
H2082 H 0.23979 0.59471 0.61866 0.0
H2083 H 0.23589 0.59135 0.63862 0.0
C2084 C 0.19705 0.60625 0.62976 0.0
C2085 C 0.1897 0.60712 0.64401 0.0
C2086 C 0.21194 0.61172 0.62806 0.0
C2087 C 0.21987 0.61781 0.64064 0.0
C2088 C 0.2124 0.61905 0.6548 0.0
H2089 H 0.31841 0.62708 0.63172 0.0
H2090 H 0.29313 0.62087 0.6419 0.0
C2091 C 0.1974 0.61379 0.65646 0.0
C2092 C 0.23595 0.62283 0.63898 0.0
H2093 H 0.2707 0.611 0.62592 0.0
C2094 C 0.23982 0.63795 0.6428 0.0
C2095 C 0.24741 0.61282 0.63347 0.0
C2096 C 0.24436 0.59608 0.63043 0.0
C2097 C 0.25474 0.64351 0.64067 0.0
C2098 C 0.26591 0.6338 0.63411 0.0
C2099 C 0.26213 0.61853 0.63082 0.0
C2100 C 0.28146 0.63919 0.62998 0.0
C2101 C 0.25835 0.65965 0.64562 0.0
C2102 C 0.28339 0.6518 0.62021 0.0
C2103 C 0.2979 0.65558 0.61467 0.0
C2104 C 0.3106 0.64652 0.61846 0.0
C2105 C 0.30876 0.63419 0.62857 0.0
C2106 C 0.29433 0.63064 0.63439 0.0
H2107 H 0.25074 0.66336 0.65511 0.0
H2108 H 0.27042 0.66079 0.64943 0.0
H2109 H 0.25641 0.66753 0.63586 0.0
H2110 H 0.27362 0.6583 0.61627 0.0
H2111 H 0.29902 0.66502 0.60672 0.0
H2112 H 0.9058 0.88812 0.19588 0.0
H2113 H 0.89741 0.8893 0.22246 0.0
H2114 H 0.88667 0.84113 0.22136 0.0
H2115 H 0.89465 0.83995 0.19448 0.0
H2116 H 0.86492 0.85725 0.23625 0.0
H2117 H 0.92189 0.8736 0.25821 0.0
H2118 H 0.91561 0.88665 0.2437 0.0
H2119 H 0.919 0.86688 0.23889 0.0
C2120 C 0.90163 0.87777 0.20127 0.0
C2121 C 0.90101 0.86391 0.19317 0.0
C2122 C 0.89694 0.87844 0.21649 0.0
C2123 C 0.89184 0.86521 0.22399 0.0
C2124 C 0.89073 0.85143 0.2158 0.0
H2125 H 0.88469 0.87585 0.32301 0.0
H2126 H 0.89088 0.86439 0.29824 0.0
C2127 C 0.89526 0.85079 0.20047 0.0
C2128 C 0.88763 0.86593 0.24036 0.0
H2129 H 0.90055 0.87899 0.27476 0.0
C2130 C 0.87276 0.86177 0.24475 0.0
C2131 C 0.89801 0.87139 0.25153 0.0
C2132 C 0.91457 0.87471 0.24787 0.0
C2133 C 0.8677 0.86385 0.25985 0.0
C2134 C 0.87766 0.87068 0.27066 0.0
C2135 C 0.89281 0.87395 0.26645 0.0
C2136 C 0.87245 0.8756 0.28604 0.0
C2137 C 0.85174 0.85876 0.26398 0.0
C2138 C 0.85988 0.88551 0.28749 0.0
C2139 C 0.85618 0.89185 0.30166 0.0
C2140 C 0.86522 0.88872 0.31458 0.0
C2141 C 0.87757 0.87853 0.31322 0.0
C2142 C 0.8811 0.87196 0.29909 0.0
H2143 H 0.84811 0.84888 0.25683 0.0
H2144 H 0.8509 0.85545 0.27621 0.0
H2145 H 0.84362 0.86826 0.26176 0.0
H2146 H 0.85334 0.88892 0.27754 0.0
H2147 H 0.84671 0.89982 0.30233 0.0
H2148 H 0.60651 0.88986 0.31104 0.0
H2149 H 0.61454 0.89214 0.28443 0.0
H2150 H 0.62554 0.84403 0.2834 0.0
H2151 H 0.61793 0.84174 0.31029 0.0
H2152 H 0.64705 0.86091 0.26895 0.0
H2153 H 0.58966 0.87764 0.2484 0.0
H2154 H 0.59609 0.89016 0.26333 0.0
H2155 H 0.59286 0.87021 0.26738 0.0
C2156 C 0.61066 0.87976 0.30517 0.0
C2157 C 0.61147 0.86559 0.31269 0.0
C2158 C 0.61515 0.88106 0.28994 0.0
C2159 C 0.62023 0.86816 0.28184 0.0
C2160 C 0.62151 0.85408 0.28943 0.0
H2161 H 0.62563 0.88091 0.18306 0.0
H2162 H 0.61994 0.86926 0.20783 0.0
C2163 C 0.61718 0.8528 0.30477 0.0
C2164 C 0.62422 0.86954 0.26546 0.0
H2165 H 0.6107 0.88356 0.23171 0.0
C2166 C 0.63906 0.86565 0.26072 0.0
C2167 C 0.61365 0.87531 0.25465 0.0
C2168 C 0.59713 0.87839 0.25866 0.0
C2169 C 0.64387 0.86821 0.24562 0.0
C2170 C 0.63369 0.87526 0.23518 0.0
C2171 C 0.6186 0.87835 0.23974 0.0
C2172 C 0.63855 0.88045 0.21979 0.0
C2173 C 0.65979 0.86335 0.24108 0.0
C2174 C 0.65105 0.89043 0.21821 0.0
C2175 C 0.65447 0.89689 0.20402 0.0
C2176 C 0.64521 0.8938 0.19125 0.0
C2177 C 0.6329 0.88357 0.19275 0.0
C2178 C 0.62967 0.87688 0.20688 0.0
H2179 H 0.66367 0.85339 0.24796 0.0
H2180 H 0.6604 0.86025 0.22877 0.0
H2181 H 0.66786 0.8729 0.24329 0.0
H2182 H 0.65778 0.89377 0.22807 0.0
H2183 H 0.66392 0.90488 0.20323 0.0
H2184 H 0.61333 0.61295 0.19552 0.0
H2185 H 0.62137 0.61071 0.22222 0.0
H2186 H 0.62743 0.65967 0.22465 0.0
H2187 H 0.62023 0.66184 0.19764 0.0
H2188 H 0.64895 0.64623 0.24044 0.0
H2189 H 0.59363 0.62046 0.25683 0.0
H2190 H 0.60304 0.60902 0.24267 0.0
H2191 H 0.59697 0.62818 0.23802 0.0
C2192 C 0.61653 0.6232 0.20173 0.0
C2193 C 0.61607 0.63757 0.19462 0.0
C2194 C 0.621 0.62193 0.21701 0.0
C2195 C 0.62452 0.63507 0.22559 0.0
C2196 C 0.62464 0.64939 0.2183 0.0
H2197 H 0.62099 0.62546 0.32437 0.0
H2198 H 0.61672 0.63485 0.29836 0.0
C2199 C 0.62054 0.65061 0.20289 0.0
C2200 C 0.62767 0.63389 0.24222 0.0
H2201 H 0.61379 0.61847 0.27517 0.0
C2202 C 0.64119 0.6403 0.2481 0.0
C2203 C 0.61735 0.62657 0.2523 0.0
C2204 C 0.60186 0.62084 0.24715 0.0
C2205 C 0.64491 0.63914 0.2637 0.0
C2206 C 0.63512 0.63078 0.27354 0.0
C2207 C 0.62141 0.62476 0.26768 0.0
C2208 C 0.63888 0.62766 0.28983 0.0
C2209 C 0.65911 0.64711 0.26942 0.0
C2210 C 0.65293 0.62095 0.29389 0.0
C2211 C 0.65555 0.61611 0.30891 0.0
C2212 C 0.64396 0.6174 0.31991 0.0
C2213 C 0.63008 0.62441 0.31601 0.0
C2214 C 0.62765 0.62971 0.30116 0.0
H2215 H 0.66182 0.6573 0.26232 0.0
H2216 H 0.65787 0.65083 0.28151 0.0
H2217 H 0.66898 0.63916 0.26859 0.0
H2218 H 0.66159 0.61874 0.28533 0.0
H2219 H 0.66624 0.61045 0.31165 0.0
H2220 H 0.89974 0.66403 0.31021 0.0
H2221 H 0.88886 0.65853 0.28513 0.0
H2222 H 0.86511 0.61948 0.30384 0.0
H2223 H 0.87671 0.62449 0.32884 0.0
H2224 H 0.87953 0.61111 0.28014 0.0
H2225 H 0.84926 0.66402 0.26423 0.0
H2226 H 0.86859 0.66852 0.26928 0.0
H2227 H 0.85588 0.66062 0.28349 0.0
C2228 C 0.89189 0.6545 0.30906 0.0
C2229 C 0.88907 0.64466 0.32143 0.0
C2230 C 0.88557 0.65142 0.29472 0.0
C2231 C 0.87594 0.63872 0.29259 0.0
C2232 C 0.87248 0.62936 0.30519 0.0
H2233 H 0.83959 0.62125 0.20058 0.0
H2234 H 0.84155 0.628 0.2277 0.0
C2235 C 0.87909 0.63223 0.31945 0.0
C2236 C 0.87118 0.63413 0.27695 0.0
H2237 H 0.85788 0.64814 0.24302 0.0
C2238 C 0.87451 0.61916 0.27213 0.0
C2239 C 0.8644 0.64447 0.2665 0.0
C2240 C 0.85918 0.66024 0.27123 0.0
C2241 C 0.87194 0.61448 0.25702 0.0
C2242 C 0.8665 0.62526 0.24625 0.0
C2243 C 0.86241 0.63998 0.25121 0.0
C2244 C 0.86538 0.62156 0.22975 0.0
C2245 C 0.87508 0.59801 0.25282 0.0
C2246 C 0.87822 0.61605 0.22181 0.0
C2247 C 0.87707 0.61196 0.20643 0.0
C2248 C 0.86316 0.6137 0.19859 0.0
C2249 C 0.85047 0.61982 0.20635 0.0
C2250 C 0.85156 0.62366 0.22183 0.0
H2251 H 0.87385 0.59038 0.26291 0.0
H2252 H 0.86722 0.59394 0.2437 0.0
H2253 H 0.88702 0.59696 0.24867 0.0
H2254 H 0.88914 0.61484 0.22755 0.0
H2255 H 0.88707 0.60746 0.20066 0.0
H2256 H 0.09135 0.67182 0.0804 0.0
H2257 H 0.09467 0.67346 0.05264 0.0
H2258 H 0.10135 0.62461 0.05047 0.0
H2259 H 0.09795 0.6229 0.07829 0.0
H2260 H 0.12111 0.66435 0.03667 0.0
H2261 H 0.06981 0.63288 0.01632 0.0
H2262 H 0.07144 0.64034 0.03554 0.0
H2263 H 0.08096 0.62286 0.03039 0.0
C2264 C 0.09334 0.66141 0.07398 0.0
C2265 C 0.09437 0.64722 0.08145 0.0
C2266 C 0.09524 0.66237 0.05814 0.0
C2267 C 0.09807 0.64914 0.04948 0.0
C2268 C 0.09888 0.63492 0.0569 0.0
H2269 H 0.12485 0.62615 0.9583 0.0
H2270 H 0.11566 0.62714 0.98457 0.0
C2271 C 0.09702 0.63396 0.07278 0.0
C2272 C 0.10119 0.65038 0.03286 0.0
H2273 H 0.08904 0.6382 0.99777 0.0
C2274 C 0.11402 0.65878 0.02813 0.0
C2275 C 0.09191 0.64308 0.02179 0.0
C2276 C 0.07768 0.63439 0.0262 0.0
C2277 C 0.11816 0.65963 0.01264 0.0
C2278 C 0.10901 0.65214 1.00156 0.0
C2279 C 0.096 0.64398 0.00628 0.0
C2280 C 0.11335 0.65177 0.98516 0.0
C2281 C 0.13265 0.66799 0.00835 0.0
C2282 C 0.1147 0.66529 0.97659 0.0
C2283 C 0.12005 0.6648 0.96149 0.0
C2284 C 0.12404 0.65075 0.95469 0.0
C2285 C 0.12199 0.6372 0.96314 0.0
C2286 C 0.1167 0.63772 0.97819 0.0
H2287 H 0.1401 0.6701 0.01844 0.0
H2288 H 0.13928 0.66143 0.99973 0.0
H2289 H 0.12965 0.67924 1.00329 0.0
H2290 H 0.11189 0.67624 0.98166 0.0
H2291 H 0.12142 0.67545 0.95533 0.0
H2292 H 0.84799 0.07123 0.07574 0.0
H2293 H 0.84653 0.07185 0.04772 0.0
H2294 H 0.87676 0.11091 0.04719 0.0
H2295 H 0.87889 0.10974 0.07501 0.0
H2296 H 0.83526 0.09205 0.02989 0.0
H2297 H 0.89606 0.08684 0.01426 0.0
H2298 H 0.88943 0.08342 0.03349 0.0
H2299 H 0.89367 0.1026 0.02713 0.0
C2300 C 0.85454 0.07975 0.06956 0.0
C2301 C 0.86365 0.09036 0.07747 0.0
C2302 C 0.85368 0.08012 0.05358 0.0
C2303 C 0.86178 0.09123 0.04524 0.0
C2304 C 0.87084 0.10187 0.05323 0.0
H2305 H 0.83709 0.13392 0.96155 0.0
H2306 H 0.83841 0.12321 0.98715 0.0
C2307 C 0.87195 0.10129 0.06916 0.0
C2308 C 0.85988 0.0925 0.02836 0.0
H2309 H 0.87971 0.0989 0.99536 0.0
C2310 C 0.845 0.09327 0.02231 0.0
C2311 C 0.87253 0.09369 0.0183 0.0
C2312 C 0.88879 0.09141 0.02364 0.0
C2313 C 0.84244 0.09605 0.0067 0.0
C2314 C 0.85508 0.09876 0.99694 0.0
C2315 C 0.86996 0.09711 1.00282 0.0
C2316 C 0.85322 0.10432 0.98096 0.0
C2317 C 0.82617 0.09605 1.00089 0.0
C2318 C 0.86137 0.09753 0.96887 0.0
C2319 C 0.86095 0.1039 0.95418 0.0
C2320 C 0.85224 0.11712 0.95127 0.0
C2321 C 0.84371 0.12359 0.96329 0.0
C2322 C 0.84437 0.11739 0.97798 0.0
H2323 H 0.81892 0.08813 0.00769 0.0
H2324 H 0.82128 0.1077 1.00216 0.0
H2325 H 0.82552 0.09263 0.98867 0.0
H2326 H 0.86835 0.08749 0.97087 0.0
H2327 H 0.86766 0.09865 0.94519 0.0
H2328 H 0.38685 0.88036 0.95693 0.0
H2329 H 0.39646 0.87812 0.98308 0.0
H2330 H 0.386 0.82993 0.98291 0.0
H2331 H 0.3763 0.832 0.95675 0.0
H2332 H 0.37334 0.84665 0.00788 0.0
H2333 H 0.43546 0.85809 1.00112 0.0
H2334 H 0.42306 0.87174 0.99201 0.0
H2335 H 0.4234 0.85229 0.98535 0.0
C2336 C 0.38684 0.8692 0.96231 0.0
C2337 C 0.38075 0.85636 0.95467 0.0
C2338 C 0.3924 0.86794 0.97727 0.0
C2339 C 0.39203 0.85384 0.98492 0.0
C2340 C 0.38645 0.84091 0.97719 0.0
H2341 H 0.4274 0.83127 0.07532 0.0
H2342 H 0.42187 0.83244 0.04783 0.0
C2343 C 0.38096 0.84212 0.96219 0.0
C2344 C 0.39625 0.85288 1.00136 0.0
H2345 H 0.42574 0.85805 0.02655 0.0
C2346 C 0.38481 0.84907 0.01196 0.0
C2347 C 0.41124 0.85598 0.00664 0.0
C2348 C 0.42406 0.85963 0.99571 0.0
C2349 C 0.38789 0.84854 0.02773 0.0
C2350 C 0.40277 0.85202 0.03305 0.0
C2351 C 0.4143 0.85554 0.02244 0.0
C2352 C 0.40658 0.85181 0.0496 0.0
C2353 C 0.37522 0.84413 0.03859 0.0
C2354 C 0.40001 0.86249 0.05967 0.0
C2355 C 0.40321 0.86189 0.07536 0.0
C2356 C 0.41301 0.85059 0.08123 0.0
C2357 C 0.41978 0.84009 0.07111 0.0
C2358 C 0.41666 0.84075 0.05541 0.0
H2359 H 0.36542 0.83875 0.03252 0.0
H2360 H 0.3795 0.83605 0.04742 0.0
H2361 H 0.37099 0.85453 0.04452 0.0
H2362 H 0.39234 0.87122 0.05538 0.0
H2363 H 0.39785 0.87013 0.08291 0.0
H2364 H 0.68293 0.41424 0.07852 0.0
H2365 H 0.6822 0.41064 0.05071 0.0
H2366 H 0.63316 0.40561 0.05256 0.0
H2367 H 0.63382 0.40922 0.0804 0.0
H2368 H 0.67044 0.38422 0.03552 0.0
H2369 H 0.64008 0.43712 0.01778 0.0
H2370 H 0.64924 0.43518 0.03621 0.0
H2371 H 0.63093 0.42647 0.03279 0.0
C2372 C 0.67198 0.41253 0.07297 0.0
C2373 C 0.65842 0.41203 0.08159 0.0
C2374 C 0.67158 0.41046 0.0571 0.0
C2375 C 0.65761 0.40804 0.04955 0.0
C2376 C 0.64403 0.40774 0.05812 0.0
H2377 H 0.62684 0.38361 0.95949 0.0
H2378 H 0.62994 0.39281 0.98562 0.0
C2379 C 0.64443 0.40972 0.07402 0.0
C2380 C 0.65735 0.4049 0.03285 0.0
H2381 H 0.64326 0.41788 0.99879 0.0
C2382 C 0.66463 0.39164 0.02745 0.0
C2383 C 0.64972 0.41458 0.02238 0.0
C2384 C 0.64214 0.42921 0.02751 0.0
C2385 C 0.66405 0.38752 0.01192 0.0
C2386 C 0.65632 0.39715 1.00142 0.0
C2387 C 0.64924 0.41055 0.00681 0.0
C2388 C 0.65468 0.39302 0.98499 0.0
C2389 C 0.67119 0.37257 0.00703 0.0
C2390 C 0.66756 0.39059 0.97569 0.0
C2391 C 0.66585 0.3852 0.96068 0.0
C2392 C 0.6512 0.3823 0.95462 0.0
C2393 C 0.63832 0.38563 0.96372 0.0
C2394 C 0.64005 0.39091 0.97871 0.0
H2395 H 0.67325 0.36486 0.01692 0.0
H2396 H 0.6638 0.36651 0.99864 0.0
H2397 H 0.68238 0.37488 1.00151 0.0
H2398 H 0.67896 0.39252 0.98015 0.0
H2399 H 0.67604 0.38291 0.95402 0.0
H2400 H 0.12388 0.83747 0.55326 0.0
H2401 H 0.11553 0.83801 0.52645 0.0
H2402 H 0.12568 0.88622 0.52423 0.0
H2403 H 0.13413 0.88582 0.55082 0.0
H2404 H 0.09279 0.85632 0.51105 0.0
H2405 H 0.15152 0.86737 0.48951 0.0
H2406 H 0.1478 0.86078 0.50872 0.0
H2407 H 0.14513 0.88059 0.5039 0.0
C2408 C 0.12421 0.84821 0.5471 0.0
C2409 C 0.12982 0.86157 0.55415 0.0
C2410 C 0.11944 0.84849 0.5318 0.0
C2411 C 0.12026 0.8621 0.5233 0.0
C2412 C 0.12525 0.87554 0.53049 0.0
H2413 H 0.10591 0.88712 0.42815 0.0
H2414 H 0.1102 0.88726 0.45592 0.0
C2415 C 0.13002 0.87528 0.54573 0.0
C2416 C 0.11631 0.86225 0.50681 0.0
H2417 H 0.13138 0.86907 0.47144 0.0
C2418 C 0.10122 0.85904 0.50236 0.0
C2419 C 0.12735 0.86581 0.49553 0.0
C2420 C 0.1439 0.8687 0.49959 0.0
C2421 C 0.09679 0.85961 0.4869 0.0
C2422 C 0.10783 0.86325 0.47563 0.0
C2423 C 0.12292 0.8664 0.48011 0.0
C2424 C 0.10413 0.86346 0.45907 0.0
C2425 C 0.08029 0.85663 0.4828 0.0
C2426 C 0.09931 0.85005 0.45166 0.0
C2427 C 0.09686 0.84996 0.43586 0.0
C2428 C 0.09927 0.86326 0.42717 0.0
C2429 C 0.10391 0.87674 0.4346 0.0
C2430 C 0.10637 0.87682 0.45043 0.0
H2431 H 0.07262 0.85813 0.49282 0.0
H2432 H 0.07643 0.86437 0.4735 0.0
H2433 H 0.0791 0.84466 0.47872 0.0
H2434 H 0.09782 0.83953 0.45804 0.0
H2435 H 0.09337 0.83938 0.4304 0.0
H2436 H 0.6269 0.11105 0.42672 0.0
H2437 H 0.62956 0.11409 0.45448 0.0
H2438 H 0.67758 0.10327 0.45118 0.0
H2439 H 0.67499 0.10026 0.42336 0.0
H2440 H 0.64029 0.09197 0.47628 0.0
H2441 H 0.67666 0.14422 0.47513 0.0
H2442 H 0.66581 0.13791 0.4587 0.0
H2443 H 0.6832 0.12828 0.46388 0.0
C2444 C 0.63803 0.10935 0.43191 0.0
C2445 C 0.65075 0.10547 0.42289 0.0
C2446 C 0.63953 0.11107 0.44777 0.0
C2447 C 0.6538 0.10907 0.45489 0.0
C2448 C 0.66651 0.10509 0.44591 0.0
H2449 H 0.67705 0.12537 0.55173 0.0
H2450 H 0.67887 0.11723 0.52489 0.0
C2451 C 0.665 0.10332 0.43004 0.0
C2452 C 0.65522 0.11101 0.47173 0.0
H2453 H 0.67065 0.13407 0.49934 0.0
C2454 C 0.64699 0.10113 0.48133 0.0
C2455 C 0.66408 0.12287 0.47831 0.0
C2456 C 0.67288 0.13403 0.46853 0.0
C2457 C 0.6472 0.1029 0.49731 0.0
C2458 C 0.6556 0.11511 0.50388 0.0
C2459 C 0.66422 0.12471 0.49431 0.0
C2460 C 0.65456 0.1189 0.52046 0.0
C2461 C 0.6384 0.09166 0.50701 0.0
C2462 C 0.64032 0.12253 0.52691 0.0
C2463 C 0.63924 0.12713 0.54217 0.0
C2464 C 0.6524 0.12834 0.5514 0.0
C2465 C 0.66667 0.12445 0.54501 0.0
C2466 C 0.66774 0.11986 0.52965 0.0
H2467 H 0.63701 0.08051 0.50106 0.0
H2468 H 0.64418 0.08967 0.51815 0.0
H2469 H 0.6268 0.0963 0.50927 0.0
H2470 H 0.63004 0.12223 0.52 0.0
H2471 H 0.62806 0.13007 0.54662 0.0
H2472 H 0.42152 0.67685 0.43547 0.0
H2473 H 0.41633 0.67809 0.46301 0.0
H2474 H 0.40311 0.63054 0.46261 0.0
H2475 H 0.40802 0.62932 0.43507 0.0
H2476 H 0.38168 0.64934 0.47608 0.0
H2477 H 0.43943 0.66114 0.49997 0.0
H2478 H 0.43337 0.67401 0.48515 0.0
H2479 H 0.43656 0.65419 0.48071 0.0
C2480 C 0.41773 0.66662 0.44133 0.0
C2481 C 0.41517 0.65299 0.43317 0.0
C2482 C 0.41485 0.66731 0.45707 0.0
C2483 C 0.40949 0.65436 0.4649 0.0
C2484 C 0.4073 0.64065 0.4568 0.0
H2485 H 0.37794 0.62907 0.55411 0.0
H2486 H 0.38815 0.63052 0.52821 0.0
C2487 C 0.41012 0.63996 0.44108 0.0
C2488 C 0.40502 0.6553 0.48126 0.0
H2489 H 0.41858 0.66207 0.51735 0.0
C2490 C 0.38976 0.65211 0.48509 0.0
C2491 C 0.41556 0.65906 0.49299 0.0
C2492 C 0.43218 0.66218 0.48957 0.0
C2493 C 0.38477 0.65244 0.50032 0.0
C2494 C 0.39534 0.65589 0.51207 0.0
C2495 C 0.41053 0.65942 0.50828 0.0
C2496 C 0.39083 0.6551 0.52836 0.0
C2497 C 0.36817 0.6491 0.50376 0.0
C2498 C 0.38949 0.66844 0.53722 0.0
C2499 C 0.38364 0.66768 0.55213 0.0
C2500 C 0.37909 0.65354 0.55837 0.0
C2501 C 0.3812 0.64016 0.54966 0.0
C2502 C 0.38702 0.64095 0.53482 0.0
H2503 H 0.36088 0.65011 0.49339 0.0
H2504 H 0.36713 0.63724 0.50816 0.0
H2505 H 0.36374 0.657 0.51267 0.0
H2506 H 0.39243 0.67947 0.53241 0.0
H2507 H 0.38216 0.6782 0.55852 0.0
H2508 H 0.87911 0.40854 0.43276 0.0
H2509 H 0.87671 0.40598 0.46059 0.0
H2510 H 0.83071 0.42364 0.45834 0.0
H2511 H 0.83306 0.42632 0.43048 0.0
H2512 H 0.86693 0.42985 0.48429 0.0
H2513 H 0.82858 0.3792 0.4783 0.0
H2514 H 0.84102 0.38534 0.46299 0.0
H2515 H 0.82415 0.39613 0.46743 0.0
C2516 C 0.86856 0.41205 0.43823 0.0
C2517 C 0.85625 0.41756 0.42951 0.0
C2518 C 0.86721 0.41061 0.4541 0.0
C2519 C 0.8535 0.41452 0.46145 0.0
C2520 C 0.84134 0.42049 0.45283 0.0
H2521 H 0.83066 0.38558 0.55472 0.0
H2522 H 0.82845 0.39853 0.52998 0.0
C2523 C 0.84272 0.42203 0.43696 0.0
C2524 C 0.85173 0.41152 0.47801 0.0
H2525 H 0.8361 0.38607 0.5031 0.0
C2526 C 0.86006 0.4204 0.48847 0.0
C2527 C 0.84264 0.39928 0.48337 0.0
C2528 C 0.8336 0.38933 0.47251 0.0
C2529 C 0.85984 0.4171 0.50419 0.0
C2530 C 0.8514 0.40432 0.50949 0.0
C2531 C 0.84256 0.39586 0.49905 0.0
C2532 C 0.85278 0.39854 0.5254 0.0
C2533 C 0.86874 0.42728 0.51494 0.0
C2534 C 0.86719 0.39439 0.53114 0.0
C2535 C 0.8685 0.38709 0.54526 0.0
C2536 C 0.85541 0.38354 0.55392 0.0
C2537 C 0.84099 0.38816 0.5484 0.0
C2538 C 0.8397 0.39554 0.53424 0.0
H2539 H 0.8696 0.43911 0.51037 0.0
H2540 H 0.86338 0.42774 0.52645 0.0
H2541 H 0.88054 0.42276 0.51616 0.0
H2542 H 0.87741 0.39619 0.52438 0.0
H2543 H 0.8798 0.3837 0.54907 0.0
H2544 H 0.95463 0.12414 0.62176 0.0
H2545 H 0.98108 0.11543 0.62247 0.0
H2546 H 0.98004 0.11547 0.67177 0.0
H2547 H 0.95343 0.12427 0.67126 0.0
H2548 H 0.00458 0.13328 0.63757 0.0
H2549 H 1.00064 0.07377 0.6598 0.0
H2550 H 0.98462 0.08338 0.65094 0.0
H2551 H 0.99022 0.08827 0.67008 0.0
C2552 C 0.95986 0.12207 0.6328 0.0
C2553 C 0.95185 0.125 0.64647 0.0
C2554 C 0.97502 0.11708 0.63315 0.0
C2555 C 0.9825 0.11476 0.64715 0.0
C2556 C 0.9744 0.11701 0.66084 0.0
H2557 H 0.07731 0.09502 0.67001 0.0
H2558 H 0.04957 0.09902 0.67039 0.0
C2559 C 0.95919 0.12207 0.66051 0.0
C2560 C 0.9991 0.11134 0.64729 0.0
H2561 H 0.02547 0.08394 0.65626 0.0
C2562 C 0.00916 0.12248 0.64161 0.0
C2563 C 0.00501 0.09731 0.6527 0.0
C2564 C 0.99461 0.0849 0.65865 0.0
C2565 C 0.02502 0.12001 0.64127 0.0
C2566 C 0.03095 0.10584 0.64639 0.0
C2567 C 0.02089 0.09475 0.65223 0.0
C2568 C 0.0476 0.10247 0.64595 0.0
C2569 C 0.03529 0.13275 0.63576 0.0
C2570 C 0.05565 0.10271 0.63204 0.0
C2571 C 0.0715 0.1005 0.63181 0.0
C2572 C 0.07954 0.09787 0.64547 0.0
C2573 C 0.0714 0.09707 0.65931 0.0
C2574 C 0.05556 0.09933 0.65954 0.0
H2575 H 0.02946 0.14404 0.63627 0.0
H2576 H 0.04593 0.13338 0.64267 0.0
H2577 H 0.03851 0.13057 0.62367 0.0
H2578 H 0.04969 0.10478 0.62137 0.0
H2579 H 0.0775 0.10109 0.62098 0.0
H2580 H 0.36827 0.96531 0.67038 0.0
H2581 H 0.37699 0.9918 0.66829 0.0
H2582 H 0.40535 0.97944 0.62983 0.0
H2583 H 0.3961 0.95307 0.63143 0.0
H2584 H 0.40295 0.00677 0.6697 0.0
H2585 H 0.38008 0.01226 0.61081 0.0
H2586 H 0.37645 0.9957 0.62253 0.0
H2587 H 0.39428 0.99755 0.61238 0.0
C2588 C 0.37655 0.96818 0.66163 0.0
C2589 C 0.38138 0.95714 0.65097 0.0
C2590 C 0.38149 0.98335 0.6604 0.0
C2591 C 0.39148 0.98774 0.6486 0.0
C2592 C 0.39721 0.97647 0.63867 0.0
H2593 H 0.4325 0.07946 0.64738 0.0
H2594 H 0.42852 0.05178 0.64926 0.0
C2595 C 0.39204 0.96136 0.6397 0.0
C2596 C 0.39538 0.00418 0.6464 0.0
H2597 H 0.39457 0.03315 0.62018 0.0
C2598 C 0.40111 0.01254 0.65887 0.0
C2599 C 0.39269 0.01182 0.63235 0.0
C2600 C 0.38539 0.00392 0.61881 0.0
C2601 C 0.40423 0.02828 0.65772 0.0
C2602 C 0.40209 0.03578 0.6435 0.0
C2603 C 0.39639 0.0274 0.63102 0.0
C2604 C 0.405 0.05244 0.64146 0.0
C2605 C 0.40921 0.03676 0.67193 0.0
C2606 C 0.39343 0.06197 0.63563 0.0
C2607 C 0.39585 0.07772 0.63412 0.0
C2608 C 0.40983 0.08425 0.63856 0.0
C2609 C 0.42156 0.0747 0.64399 0.0
C2610 C 0.41924 0.05891 0.64523 0.0
H2611 H 0.40583 0.03057 0.6825 0.0
H2612 H 0.42186 0.0378 0.67197 0.0
H2613 H 0.4042 0.04843 0.67234 0.0
H2614 H 0.38237 0.05728 0.63254 0.0
H2615 H 0.3866 0.08483 0.62993 0.0
H2616 H 0.42905 0.42993 0.66919 0.0
H2617 H 0.45684 0.42634 0.67093 0.0
H2618 H 0.45736 0.40817 0.62505 0.0
H2619 H 0.4296 0.41164 0.62327 0.0
H2620 H 0.47088 0.39655 0.66712 0.0
H2621 H 0.49356 0.43939 0.62615 0.0
H2622 H 0.47476 0.44091 0.63463 0.0
H2623 H 0.47803 0.42791 0.61904 0.0
C2624 C 0.43515 0.42544 0.65938 0.0
C2625 C 0.42721 0.42106 0.64608 0.0
C2626 C 0.45099 0.42338 0.6604 0.0
C2627 C 0.45915 0.41713 0.64807 0.0
C2628 C 0.45131 0.41324 0.63459 0.0
H2629 H 0.5457 0.37917 0.62579 0.0
H2630 H 0.5208 0.39155 0.62686 0.0
C2631 C 0.43545 0.41518 0.63361 0.0
C2632 C 0.47558 0.4133 0.64974 0.0
H2633 H 0.51082 0.41992 0.63432 0.0
C2634 C 0.47968 0.40179 0.66013 0.0
C2635 C 0.48696 0.42014 0.64055 0.0
C2636 C 0.48319 0.43287 0.62954 0.0
C2637 C 0.49478 0.39638 0.66106 0.0
C2638 C 0.50617 0.40299 0.65162 0.0
C2639 C 0.50212 0.41488 0.64158 0.0
C2640 C 0.522 0.39683 0.65102 0.0
C2641 C 0.49819 0.38308 0.67153 0.0
C2642 C 0.53122 0.39607 0.66417 0.0
C2643 C 0.5455 0.38882 0.66366 0.0
C2644 C 0.55091 0.38238 0.64992 0.0
C2645 C 0.54195 0.38393 0.63661 0.0
C2646 C 0.52767 0.39104 0.63717 0.0
H2647 H 0.48759 0.37709 0.67519 0.0
H2648 H 0.50581 0.37465 0.66585 0.0
H2649 H 0.50406 0.38735 0.68196 0.0
H2650 H 0.52724 0.40081 0.67491 0.0
H2651 H 0.55213 0.38797 0.6741 0.0
H2652 H 0.13556 0.53961 0.67141 0.0
H2653 H 0.12572 0.5136 0.66956 0.0
H2654 H 0.09754 0.52681 0.63122 0.0
H2655 H 0.108 0.55278 0.63252 0.0
H2656 H 0.09943 0.50017 0.67173 0.0
H2657 H 0.12033 0.49233 0.61233 0.0
H2658 H 0.12498 0.509 0.62354 0.0
H2659 H 0.1067 0.50755 0.61411 0.0
C2660 C 0.12713 0.53706 0.66268 0.0
C2661 C 0.12267 0.54823 0.65201 0.0
C2662 C 0.12152 0.52214 0.66161 0.0
C2663 C 0.11118 0.5181 0.64998 0.0
C2664 C 0.10591 0.5295 0.63995 0.0
H2665 H 0.07034 0.42605 0.65348 0.0
H2666 H 0.07363 0.45388 0.65398 0.0
C2667 C 0.11178 0.54438 0.6408 0.0
C2668 C 0.10647 0.50183 0.64819 0.0
H2669 H 0.10624 0.47194 0.62298 0.0
C2670 C 0.10089 0.494 0.66106 0.0
C2671 C 0.10861 0.4937 0.63432 0.0
C2672 C 0.11562 0.50102 0.62034 0.0
C2673 C 0.09769 0.47826 0.66056 0.0
C2674 C 0.09947 0.47021 0.64659 0.0
C2675 C 0.10475 0.47811 0.63365 0.0
C2676 C 0.09686 0.45343 0.64535 0.0
C2677 C 0.09315 0.47036 0.67523 0.0
C2678 C 0.10847 0.44393 0.63954 0.0
C2679 C 0.10641 0.42809 0.63879 0.0
C2680 C 0.09278 0.42145 0.64404 0.0
C2681 C 0.08102 0.43092 0.64952 0.0
C2682 C 0.08296 0.4468 0.64994 0.0
H2683 H 0.0967 0.47703 0.68546 0.0
H2684 H 0.08052 0.46918 0.6756 0.0
H2685 H 0.09831 0.45878 0.67601 0.0
H2686 H 0.11928 0.44874 0.63586 0.0
H2687 H 0.11565 0.42102 0.63454 0.0
H2688 H 0.07364 0.40252 0.88379 0.0
H2689 H 0.0463 0.39624 0.88323 0.0
H2690 H 0.04453 0.40782 0.8353 0.0
H2691 H 0.07189 0.41389 0.83575 0.0
H2692 H 0.02047 0.41352 0.87527 0.0
H2693 H 0.02795 0.36407 0.83602 0.0
H2694 H 0.04384 0.37318 0.84557 0.0
H2695 H 0.03545 0.38181 0.82889 0.0
C2696 C 0.06738 0.40383 0.87317 0.0
C2697 C 0.07489 0.40861 0.85979 0.0
C2698 C 0.05177 0.40023 0.87286 0.0
C2699 C 0.04343 0.40129 0.85916 0.0
C2700 C 0.0508 0.4066 0.84592 0.0
H2701 H 0.9495 0.37606 0.83561 0.0
H2702 H 0.97545 0.38668 0.83534 0.0
C2703 C 0.06641 0.41018 0.84622 0.0
C2704 C 0.0271 0.39656 0.85868 0.0
H2705 H 1.00254 0.37086 0.84233 0.0
C2706 C 0.01654 0.4042 0.86808 0.0
C2707 C 0.02199 0.38438 0.84928 0.0
C2708 C 0.0329 0.37527 0.83946 0.0
C2709 C 1.00099 0.40007 0.86823 0.0
C2710 C 0.99592 0.38782 0.85891 0.0
C2711 C 0.00644 0.38029 0.84941 0.0
C2712 C 0.97987 0.38221 0.85928 0.0
C2713 C 0.9901 0.40896 0.87824 0.0
C2714 C 0.97376 0.37612 0.87281 0.0
C2715 C 0.95897 0.37005 0.87301 0.0
C2716 C 0.94996 0.36986 0.85965 0.0
C2717 C 0.95607 0.3761 0.84613 0.0
C2718 C 0.97091 0.38214 0.84594 0.0
H2719 H 0.99477 0.42039 0.88127 0.0
H2720 H 0.97887 0.41051 0.87251 0.0
H2721 H 0.9882 0.40255 0.88903 0.0
H2722 H 0.98057 0.37576 0.88317 0.0
H2723 H 0.95469 0.36528 0.88361 0.0
H2724 H 0.12123 0.95444 0.83501 0.0
H2725 H 0.1125 0.98114 0.83475 0.0
H2726 H 0.12862 0.98698 0.88101 0.0
H2727 H 0.13738 0.96051 0.88141 0.0
H2728 H 0.09175 0.99725 0.85562 0.0
H2729 H 0.15072 0.0209 0.85614 0.0
H2730 H 0.14663 1.00129 0.85108 0.0
H2731 H 0.1469 0.00705 0.87082 0.0
C2732 C 0.12281 0.96137 0.84516 0.0
C2733 C 0.13012 0.95535 0.85818 0.0
C2734 C 0.11783 0.97662 0.84499 0.0
C2735 C 0.12016 0.98608 0.85778 0.0
C2736 C 0.12697 0.97994 0.87093 0.0
H2737 H 0.10681 0.08153 0.88115 0.0
H2738 H 0.11248 0.05404 0.881 0.0
C2739 C 0.13192 0.96477 0.87114 0.0
C2740 C 0.11574 1.00245 0.85743 0.0
H2741 H 0.13048 0.03853 0.86009 0.0
C2742 C 0.10019 0.00631 0.85649 0.0
C2743 C 0.12681 0.0142 0.85861 0.0
C2744 C 0.14372 0.01072 0.85909 0.0
C2745 C 0.09537 0.02165 0.8571 0.0
C2746 C 0.10644 0.03341 0.8584 0.0
C2747 C 0.12201 0.02951 0.85919 0.0
C2748 C 0.10221 0.04986 0.85883 0.0
C2749 C 0.07846 0.0251 0.85678 0.0
C2750 C 0.09459 0.05664 0.84643 0.0
C2751 C 0.09132 0.0723 0.84653 0.0
C2752 C 0.0957 0.08148 0.85899 0.0
C2753 C 0.10325 0.0747 0.87144 0.0
C2754 C 0.10651 0.05902 0.87134 0.0
H2755 H 0.07153 0.01493 0.85995 0.0
H2756 H 0.0756 0.03462 0.8647 0.0
H2757 H 0.07513 0.02857 0.84503 0.0
H2758 H 0.09148 0.04989 0.83651 0.0
H2759 H 0.08559 0.07726 0.83672 0.0
H2760 H 0.42413 0.10843 0.88145 0.0
H2761 H 0.45184 0.11311 0.88122 0.0
H2762 H 0.45411 0.09732 0.8345 0.0
H2763 H 0.42648 0.09279 0.83462 0.0
H2764 H 0.47675 0.09292 0.87492 0.0
H2765 H 0.47321 0.14032 0.83272 0.0
H2766 H 0.45664 0.1331 0.8427 0.0
H2767 H 0.46441 0.12273 0.82674 0.0
C2768 C 0.43058 0.10589 0.87118 0.0
C2769 C 0.42319 0.10035 0.85802 0.0
C2770 C 0.44638 0.10856 0.87105 0.0
C2771 C 0.45497 0.10579 0.85776 0.0
C2772 C 0.44765 0.09981 0.84478 0.0
H2773 H 0.55051 0.1246 0.83493 0.0
H2774 H 0.52413 0.11509 0.83447 0.0
C2775 C 0.43188 0.09715 0.84489 0.0
C2776 C 0.47154 0.10939 0.85738 0.0
H2777 H 0.49796 0.13237 0.84009 0.0
C2778 C 0.48141 0.10154 0.86731 0.0
C2779 C 0.47757 0.1206 0.84739 0.0
C2780 C 0.46742 0.12979 0.83686 0.0
C2781 C 0.4972 0.10455 0.86747 0.0
C2782 C 0.5032 0.11591 0.85763 0.0
C2783 C 0.49335 0.12362 0.84756 0.0
C2784 C 0.5195 0.12061 0.85816 0.0
C2785 C 0.50733 0.09545 0.87807 0.0
C2786 C 0.52562 0.12689 0.87161 0.0
C2787 C 0.54064 0.13231 0.87191 0.0
C2788 C 0.54986 0.13167 0.85873 0.0
C2789 C 0.54377 0.12519 0.8453 0.0
C2790 C 0.52868 0.11978 0.84501 0.0
H2791 H 0.50195 0.0844 0.88132 0.0
H2792 H 0.51861 0.09307 0.87272 0.0
H2793 H 0.50931 0.10211 0.88871 0.0
H2794 H 0.51864 0.12796 0.88179 0.0
H2795 H 0.54492 0.13727 0.88244 0.0
H2796 H 0.38022 0.55056 0.84031 0.0
H2797 H 0.38892 0.52401 0.84196 0.0
H2798 H 0.38417 0.52536 0.89102 0.0
H2799 H 0.37535 0.55183 0.88956 0.0
H2800 H 0.41354 0.50978 0.85868 0.0
H2801 H 0.35621 0.48964 0.87746 0.0
H2802 H 0.35924 0.50832 0.86923 0.0
H2803 H 0.36439 0.50472 0.8888 0.0
C2804 C 0.38119 0.54531 0.85149 0.0
C2805 C 0.37693 0.55334 0.86479 0.0
C2806 C 0.38617 0.53011 0.85239 0.0
C2807 C 0.38692 0.52265 0.86658 0.0
C2808 C 0.38339 0.53083 0.87993 0.0
H2809 H 0.40168 0.42655 0.89007 0.0
H2810 H 0.39813 0.4544 0.89137 0.0
C2811 C 0.37842 0.54601 0.87906 0.0
C2812 C 0.39079 0.50615 0.86734 0.0
H2813 H 0.37587 0.47119 0.87638 0.0
C2814 C 0.40533 0.50133 0.86256 0.0
C2815 C 0.38004 0.49517 0.87244 0.0
C2816 C 0.36404 0.49964 0.87717 0.0
C2817 C 0.40946 0.48578 0.86283 0.0
C2818 C 0.39864 0.47478 0.86773 0.0
C2819 C 0.38416 0.47965 0.87269 0.0
C2820 C 0.40179 0.45809 0.86716 0.0
C2821 C 0.42541 0.48131 0.85801 0.0
C2822 C 0.40496 0.45094 0.85313 0.0
C2823 C 0.40699 0.4351 0.85238 0.0
C2824 C 0.40579 0.42609 0.86563 0.0
C2825 C 0.40273 0.43324 0.8797 0.0
C2826 C 0.40069 0.44912 0.88044 0.0
H2827 H 0.4335 0.49107 0.85901 0.0
H2828 H 0.42979 0.47166 0.86501 0.0
H2829 H 0.42521 0.47763 0.84586 0.0
H2830 H 0.4055 0.45756 0.84268 0.0
H2831 H 0.40925 0.42987 0.84137 0.0
H2832 H 0.67412 0.96276 0.13572 0.0
H2833 H 0.67311 0.9898 0.12848 0.0
H2834 H 0.62783 0.98309 0.10988 0.0
H2835 H 0.62845 0.95633 0.11803 0.0
H2836 H 0.67095 0.00533 0.10385 0.0
H2837 H 0.61879 0.01762 0.13739 0.0
H2838 H 0.62856 0.99952 0.13857 0.0
H2839 H 0.61524 1.00323 0.12323 0.0
C2840 C 0.66401 0.96706 0.12997 0.0
C2841 C 0.65131 0.95751 0.12753 0.0
C2842 C 0.66341 0.98253 0.12587 0.0
C2843 C 0.6502 0.98867 0.11902 0.0
C2844 C 0.6379 0.97884 0.1157 0.0
H2845 H 0.65188 0.07929 0.07598 0.0
H2846 H 0.6522 0.05171 0.08088 0.0
C2847 C 0.63833 0.9635 0.12019 0.0
C2848 C 0.64927 0.00535 0.11554 0.0
H2849 H 0.6268 0.03702 0.12009 0.0
C2850 C 0.66133 0.01227 0.10749 0.0
C2851 C 0.63689 0.01457 0.12056 0.0
C2852 C 0.62424 0.00839 0.13056 0.0
C2853 C 0.66134 0.02802 0.10423 0.0
C2854 C 0.64854 0.03705 0.10848 0.0
C2855 C 0.63653 0.03013 0.1166 0.0
C2856 C 0.64757 0.05377 0.10516 0.0
C2857 C 0.67535 0.03482 0.09677 0.0
C2858 C 0.64395 0.06416 0.11692 0.0
C2859 C 0.64316 0.07987 0.11397 0.0
C2860 C 0.64625 0.08553 0.09928 0.0
C2861 C 0.64961 0.07519 0.08745 0.0
C2862 C 0.64998 0.05944 0.0903 0.0
H2863 H 0.68568 0.02775 0.09899 0.0
H2864 H 0.67361 0.0352 0.0842 0.0
H2865 H 0.67759 0.0466 0.10095 0.0
H2866 H 0.64196 0.06014 0.12847 0.0
H2867 H 0.6406 0.08762 0.12331 0.0
H2868 H 0.67574 0.4288 0.41832 0.0
H2869 H 0.67754 0.45665 0.41559 0.0
H2870 H 0.62896 0.45898 0.40719 0.0
H2871 H 0.62708 0.43114 0.41001 0.0
H2872 H 0.66962 0.47302 0.38924 0.0
H2873 H 0.63589 0.49279 0.43918 0.0
H2874 H 0.64332 0.47356 0.43764 0.0
H2875 H 0.62618 0.47888 0.42757 0.0
C2876 C 0.66541 0.43529 0.4161 0.0
C2877 C 0.65126 0.42786 0.4144 0.0
C2878 C 0.66647 0.45118 0.41454 0.0
C2879 C 0.65337 0.4599 0.41138 0.0
C2880 C 0.63917 0.45251 0.40994 0.0
H2881 H 0.62829 0.54923 0.38267 0.0
H2882 H 0.63034 0.52335 0.39268 0.0
C2883 C 0.63811 0.43661 0.41146 0.0
C2884 C 0.65469 0.47657 0.40849 0.0
H2885 H 0.6411 0.51139 0.41984 0.0
C2886 C 0.66357 0.48146 0.39604 0.0
C2887 C 0.64678 0.48751 0.4174 0.0
C2888 C 0.63761 0.48297 0.43129 0.0
C2889 C 0.66418 0.49694 0.39181 0.0
C2890 C 0.65593 0.50786 0.40048 0.0
C2891 C 0.64743 0.50301 0.41322 0.0
C2892 C 0.65489 0.52413 0.39572 0.0
C2893 C 0.67303 0.50135 0.37765 0.0
C2894 C 0.66799 0.53337 0.39451 0.0
C2895 C 0.66688 0.54826 0.38868 0.0
C2896 C 0.65263 0.55417 0.38405 0.0
C2897 C 0.63948 0.54508 0.386 0.0
C2898 C 0.64061 0.53025 0.39177 0.0
H2899 H 0.67594 0.49124 0.37051 0.0
H2900 H 0.6664 0.50954 0.37055 0.0
H2901 H 0.68387 0.50698 0.38109 0.0
H2902 H 0.6791 0.52897 0.3978 0.0
H2903 H 0.67724 0.55494 0.38741 0.0
H2904 H 0.0801 0.671 0.42304 0.0
H2905 H 0.05239 0.67155 0.41876 0.0
H2906 H 0.05455 0.62654 0.39861 0.0
H2907 H 0.08228 0.62591 0.40291 0.0
H2908 H 0.03737 0.66887 0.39011 0.0
H2909 H 0.01961 0.62299 0.43019 0.0
H2910 H 0.03807 0.63222 0.43131 0.0
H2911 H 0.03463 0.61762 0.41722 0.0
C2912 C 0.07464 0.66116 0.41784 0.0
C2913 C 0.0833 0.64838 0.41336 0.0
C2914 C 0.05883 0.6615 0.41538 0.0
C2915 C 0.05139 0.64902 0.40854 0.0
C2916 C 0.06002 0.63618 0.40416 0.0
H2917 H 0.96225 0.62604 0.37502 0.0
H2918 H 0.98865 0.62716 0.38387 0.0
C2919 C 0.07585 0.63586 0.40656 0.0
C2920 C 0.03474 0.64971 0.40532 0.0
H2921 H 1.00081 0.63177 0.41256 0.0
C2922 C 0.02933 0.66087 0.39512 0.0
C2923 C 0.0243 0.63925 0.41189 0.0
C2924 C 0.02938 0.62742 0.42337 0.0
C2925 C 0.01383 0.6615 0.39086 0.0
C2926 C 1.00342 0.65087 0.39725 0.0
C2927 C 0.0088 0.63991 0.40769 0.0
C2928 C 0.9871 0.6503 0.39252 0.0
C2929 C 0.00888 0.67313 0.37909 0.0
C2930 C 0.97731 0.66287 0.39469 0.0
C2931 C 0.96212 0.66231 0.38956 0.0
C2932 C 0.95644 0.64911 0.38227 0.0
C2933 C 0.9662 0.63642 0.38054 0.0
C2934 C 0.98133 0.63701 0.38562 0.0
H2935 H 0.01878 0.67799 0.37278 0.0
H2936 H 1.00085 0.66796 0.3707 0.0
H2937 H 1.00289 0.68268 0.38492 0.0
H2938 H 0.98143 0.67314 0.40028 0.0
H2939 H 0.95491 0.67226 0.39113 0.0
H2940 H 0.83577 0.08276 0.40379 0.0
H2941 H 0.83395 0.05492 0.40039 0.0
H2942 H 0.88151 0.0534 0.38738 0.0
H2943 H 0.8834 0.08115 0.39083 0.0
H2944 H 0.83987 0.03731 0.37376 0.0
H2945 H 0.87856 0.02099 0.42133 0.0
H2946 H 0.87038 0.03988 0.41965 0.0
H2947 H 0.8867 0.03461 0.4083 0.0
C2948 C 0.84584 0.07646 0.40025 0.0
C2949 C 0.85975 0.08409 0.39764 0.0
C2950 C 0.84478 0.06057 0.39831 0.0
C2951 C 0.85765 0.05204 0.39386 0.0
C2952 C 0.87151 0.0597 0.39111 0.0
H2953 H 0.88119 0.9599 0.36971 0.0
H2954 H 0.87997 0.98695 0.37646 0.0
C2955 C 0.87255 0.07556 0.393 0.0
C2956 C 0.85658 0.03519 0.39173 0.0
H2957 H 0.87194 1.00129 0.40367 0.0
C2958 C 0.84675 0.0294 0.3804 0.0
C2959 C 0.86555 0.02489 0.40042 0.0
C2960 C 0.87579 0.03036 0.41321 0.0
C2961 C 0.8461 0.01365 0.37711 0.0
C2962 C 0.85532 1.00338 0.3856 0.0
C2963 C 0.86489 0.00916 0.39716 0.0
C2964 C 0.85588 0.98673 0.3821 0.0
C2965 C 0.83603 0.00821 0.36417 0.0
C2966 C 0.84279 0.97747 0.38332 0.0
C2967 C 0.84343 0.9619 0.37944 0.0
C2968 C 0.85721 0.9553 0.37434 0.0
C2969 C 0.87036 0.96455 0.37355 0.0
C2970 C 0.8697 0.98006 0.37742 0.0
H2971 H 0.83238 0.01779 0.35665 0.0
H2972 H 0.84205 0.99955 0.35709 0.0
H2973 H 0.8256 1.00281 0.36897 0.0
H2974 H 0.83206 0.98229 0.3872 0.0
H2975 H 0.83309 0.95513 0.38022 0.0
H2976 H 0.42799 0.83719 0.41265 0.0
H2977 H 0.45577 0.83629 0.40921 0.0
H2978 H 0.45661 0.8852 0.40276 0.0
H2979 H 0.42878 0.88618 0.4063 0.0
H2980 H 0.47115 0.8458 0.38271 0.0
H2981 H 0.49141 0.87779 0.43376 0.0
H2982 H 0.47234 0.86992 0.43237 0.0
H2983 H 0.47701 0.88746 0.42272 0.0
C2984 C 0.43413 0.84778 0.41069 0.0
C2985 C 0.42627 0.86177 0.40975 0.0
C2986 C 0.44998 0.84724 0.40873 0.0
C2987 C 0.45827 0.86069 0.40591 0.0
C2988 C 0.45047 0.87473 0.40522 0.0
H2989 H 0.54969 0.88385 0.37842 0.0
H2990 H 0.52349 0.88328 0.38791 0.0
C2991 C 0.43458 0.87527 0.40716 0.0
C2992 C 0.47489 0.85985 0.4026 0.0
H2993 H 0.50991 0.87251 0.41449 0.0
C2994 C 0.47966 0.85151 0.38973 0.0
C2995 C 0.48592 0.86737 0.41176 0.0
C2996 C 0.48147 0.87604 0.42601 0.0
C2997 C 0.49513 0.85084 0.38549 0.0
C2998 C 0.50618 0.85844 0.3946 0.0
C2999 C 0.50143 0.86664 0.40758 0.0
C3000 C 0.5226 0.85867 0.39031 0.0
C3001 C 0.49941 0.84249 0.37099 0.0
C3002 C 0.53101 0.84504 0.38898 0.0
C3003 C 0.54604 0.84529 0.38346 0.0
C3004 C 0.55297 0.85921 0.37928 0.0
C3005 C 0.54475 0.8729 0.38143 0.0
C3006 C 0.52973 0.87262 0.38688 0.0
H3007 H 0.48932 0.8405 0.3635 0.0
H3008 H 0.50811 0.84899 0.36441 0.0
H3009 H 0.50434 0.83118 0.37397 0.0
H3010 H 0.52583 0.83417 0.39189 0.0
H3011 H 0.55203 0.83454 0.38208 0.0
H3012 H 0.87399 0.55603 0.12224 0.0
H3013 H 0.87226 0.53015 0.11191 0.0
H3014 H 0.82548 0.52699 0.12727 0.0
H3015 H 0.82699 0.55303 0.13736 0.0
H3016 H 0.86737 0.50528 0.12961 0.0
H3017 H 0.82236 0.50838 0.08487 0.0
H3018 H 0.83146 0.52523 0.09267 0.0
H3019 H 0.81655 0.51572 0.10316 0.0
C3020 C 0.86322 0.54997 0.12317 0.0
C3021 C 0.85065 0.55662 0.13069 0.0
C3022 C 0.86225 0.53516 0.11725 0.0
C3023 C 0.84872 0.52664 0.11872 0.0
C3024 C 0.83594 0.53343 0.1257 0.0
H3025 H 0.83237 0.4285 0.1084 0.0
H3026 H 0.82933 0.45602 0.11344 0.0
C3027 C 0.83686 0.54833 0.13153 0.0
C3028 C 0.8486 0.5102 0.11439 0.0
H3029 H 0.83082 0.48345 0.092 0.0
C3030 C 0.85942 0.50055 0.12132 0.0
C3031 C 0.83812 0.504 0.1037 0.0
C3032 C 0.82654 0.51388 0.09556 0.0
C3033 C 0.86007 0.48491 0.11785 0.0
C3034 C 0.84973 0.47874 0.10704 0.0
C3035 C 0.83873 0.48827 0.10026 0.0
C3036 C 0.85057 0.46244 0.1025 0.0
C3037 C 0.87176 0.47504 0.12586 0.0
C3038 C 0.8633 0.45707 0.09435 0.0
C3039 C 0.86505 0.44145 0.09147 0.0
C3040 C 0.85409 0.43094 0.0967 0.0
C3041 C 0.841 0.43638 0.10428 0.0
C3042 C 0.83924 0.45206 0.10714 0.0
H3043 H 0.87663 0.48079 0.13611 0.0
H3044 H 0.86662 0.46398 0.12942 0.0
H3045 H 0.88129 0.47251 0.11786 0.0
H3046 H 0.8721 0.46494 0.09057 0.0
H3047 H 0.87522 0.43758 0.08555 0.0
H3048 H 0.08026 0.83287 0.08357 0.0
H3049 H 0.05244 0.83307 0.08707 0.0
H3050 H 0.05466 0.87993 0.1024 0.0
H3051 H 0.08253 0.87979 0.09898 0.0
H3052 H 0.03765 0.83987 0.1161 0.0
H3053 H 0.01975 0.87917 0.06945 0.0
H3054 H 0.03793 0.86932 0.06938 0.0
H3055 H 0.0352 0.88579 0.08135 0.0
C3056 C 0.07479 0.84327 0.08754 0.0
C3057 C 0.08351 0.85633 0.091 0.0
C3058 C 0.05892 0.84336 0.08952 0.0
C3059 C 0.0515 0.85656 0.09482 0.0
C3060 C 0.06016 0.86971 0.09806 0.0
H3061 H 0.96225 0.88294 0.12501 0.0
H3062 H 0.98802 0.88135 0.1146 0.0
C3063 C 0.07606 0.86959 0.09618 0.0
C3064 C 0.03486 0.85625 0.09796 0.0
H3065 H 1.00079 0.87234 0.08765 0.0
C3066 C 0.02953 0.84683 0.1098 0.0
C3067 C 0.02438 0.86542 0.08975 0.0
C3068 C 0.02952 0.87543 0.07668 0.0
C3069 C 0.01404 0.84672 0.11401 0.0
C3070 C 1.00352 0.85596 0.10585 0.0
C3071 C 0.00884 0.86519 0.09382 0.0
C3072 C 0.98717 0.85698 0.11036 0.0
C3073 C 0.00925 0.83722 0.12761 0.0
C3074 C 0.97785 0.8439 0.11085 0.0
C3075 C 0.96307 0.84471 0.11695 0.0
C3076 C 0.95727 0.85869 0.12248 0.0
C3077 C 0.9663 0.87195 0.12095 0.0
C3078 C 0.98109 0.87108 0.11498 0.0
H3079 H 0.01919 0.83388 0.13481 0.0
H3080 H 1.00095 0.84353 0.13488 0.0
H3081 H 0.00366 0.82657 0.12352 0.0
H3082 H 0.98217 0.83296 0.10695 0.0
H3083 H 0.95641 0.8343 0.1178 0.0
H3084 H 0.55661 0.67911 0.13203 0.0
H3085 H 0.53012 0.6842 0.12442 0.0
H3086 H 0.5204 0.63588 0.12545 0.0
H3087 H 0.54675 0.63059 0.13301 0.0
H3088 H 0.51174 0.67123 0.09829 0.0
H3089 H 0.48939 0.65714 0.15604 0.0
H3090 H 0.50919 0.662 0.15262 0.0
H3091 H 0.50226 0.64319 0.14808 0.0
C3092 C 0.54893 0.66951 0.13046 0.0
C3093 C 0.55388 0.65441 0.13323 0.0
C3094 C 0.53377 0.67248 0.12612 0.0
C3095 C 0.52328 0.66043 0.12459 0.0
C3096 C 0.5283 0.64535 0.12677 0.0
H3097 H 0.43696 0.64219 0.08604 0.0
H3098 H 0.46387 0.64749 0.09118 0.0
C3099 C 0.54342 0.64235 0.13102 0.0
C3100 C 0.50694 0.66348 0.12116 0.0
H3101 H 0.47109 0.65879 0.13589 0.0
C3102 C 0.50284 0.66872 0.10656 0.0
C3103 C 0.49538 0.66048 0.13206 0.0
C3104 C 0.49922 0.65552 0.14814 0.0
C3105 C 0.48739 0.67017 0.10228 0.0
C3106 C 0.4758 0.66617 0.11287 0.0
C3107 C 0.47995 0.6618 0.12775 0.0
C3108 C 0.45947 0.66481 0.10834 0.0
C3109 C 0.48359 0.67571 0.08639 0.0
C3110 C 0.44796 0.67284 0.11622 0.0
C3111 C 0.43247 0.66983 0.11326 0.0
C3112 C 0.42831 0.65855 0.10256 0.0
C3113 C 0.43983 0.65097 0.09432 0.0
C3114 C 0.45524 0.65406 0.09718 0.0
H3115 H 0.49297 0.68285 0.08164 0.0
H3116 H 0.48206 0.66569 0.07874 0.0
H3117 H 0.47283 0.68247 0.08632 0.0
H3118 H 0.45097 0.68111 0.12496 0.0
H3119 H 0.4238 0.67578 0.11982 0.0
H3120 H 0.88156 0.33832 0.05511 0.0
H3121 H 0.88544 0.33438 0.02759 0.0
H3122 H 0.88462 0.38318 0.02058 0.0
H3123 H 0.8806 0.38716 0.0479 0.0
H3124 H 0.86578 0.36506 0.99968 0.0
H3125 H 0.926 0.34468 0.00406 0.0
H3126 H 0.91203 0.33538 0.01597 0.0
H3127 H 0.91674 0.35507 0.01933 0.0
C3128 C 0.88211 0.34816 0.04772 0.0
C3129 C 0.88073 0.363 0.05374 0.0
C3130 C 0.88444 0.34592 0.032 0.0
C3131 C 0.88544 0.35851 0.02208 0.0
C3132 C 0.88392 0.37331 0.02805 0.0
H3133 H 0.89752 0.37813 0.92571 0.0
H3134 H 0.89264 0.37893 0.95332 0.0
C3135 C 0.88168 0.37554 0.0437 0.0
C3136 C 0.88811 0.35644 0.00546 0.0
H3137 H 0.91535 0.3463 0.97936 0.0
C3138 C 0.87659 0.3609 0.99521 0.0
C3139 C 0.9022 0.35096 0.99971 0.0
C3140 C 0.91504 0.34632 0.01027 0.0
C3141 C 0.8788 0.36008 0.97931 0.0
C3142 C 0.89306 0.35503 0.97352 0.0
C3143 C 0.90447 0.35026 0.9838 0.0
C3144 C 0.89642 0.35469 0.95685 0.0
C3145 C 0.86574 0.36443 0.96888 0.0
C3146 C 0.90075 0.34095 0.94974 0.0
C3147 C 0.90373 0.34053 0.93402 0.0
C3148 C 0.90248 0.35386 0.92513 0.0
C3149 C 0.89849 0.36768 0.93228 0.0
C3150 C 0.89557 0.36811 0.94803 0.0
H3151 H 0.85453 0.36361 0.97483 0.0
H3152 H 0.86725 0.37646 0.96511 0.0
H3153 H 0.86541 0.35702 0.95856 0.0
H3154 H 0.90159 0.33048 0.95632 0.0
H3155 H 0.9068 0.32971 0.9288 0.0
H3156 H 0.17793 0.87856 0.04805 0.0
H3157 H 0.17904 0.89021 0.02264 0.0
H3158 H 0.12974 0.89086 0.02066 0.0
H3159 H 0.12847 0.8796 0.04606 0.0
H3160 H 0.16813 0.87679 0.99697 0.0
H3161 H 0.13967 0.93282 0.0044 0.0
H3162 H 0.14638 0.92162 0.0204 0.0
H3163 H 0.12824 0.91738 0.01158 0.0
C3164 C 0.16731 0.8815 0.04238 0.0
C3165 C 0.15311 0.87807 0.04914 0.0
C3166 C 0.16798 0.88814 0.02783 0.0
C3167 C 0.15447 0.89158 0.01981 0.0
C3168 C 0.14031 0.88866 0.02675 0.0
H3169 H 0.12656 0.90671 0.92681 0.0
H3170 H 0.12848 0.90297 0.95459 0.0
C3171 C 0.13962 0.88208 0.04128 0.0
C3172 C 0.15508 0.89662 1.00361 0.0
H3173 H 0.14116 0.92323 0.97859 0.0
C3174 C 0.16246 0.88708 0.99299 0.0
C3175 C 0.1476 0.91 0.99842 0.0
C3176 C 0.14016 0.92112 0.00933 0.0
C3177 C 0.16205 0.89025 0.97727 0.0
C3178 C 0.1542 0.90339 0.97205 0.0
C3179 C 0.14711 0.91312 0.98266 0.0
C3180 C 0.1529 0.90689 0.95553 0.0
C3181 C 0.16954 0.87921 0.96629 0.0
C3182 C 0.16594 0.91066 0.94699 0.0
C3183 C 0.16487 0.91281 0.93119 0.0
C3184 C 0.15073 0.91123 0.92369 0.0
C3185 C 0.13759 0.90795 0.93233 0.0
C3186 C 0.13867 0.90584 0.94816 0.0
H3187 H 0.17254 0.8682 0.97188 0.0
H3188 H 0.1619 0.87682 0.95641 0.0
H3189 H 0.18022 0.88439 0.96179 0.0
H3190 H 0.17699 0.91169 0.95252 0.0
H3191 H 0.17516 0.91539 0.9248 0.0
H3192 H 0.62749 0.17648 0.04723 0.0
H3193 H 0.61675 0.17509 0.02144 0.0
H3194 H 0.61079 0.12639 0.02631 0.0
H3195 H 0.62148 0.12758 0.05208 0.0
H3196 H 0.62872 0.13621 1.00042 0.0
H3197 H 0.57306 0.16668 0.00406 0.0
H3198 H 0.58908 0.1763 0.01271 0.0
H3199 H 0.58243 0.15855 0.02061 0.0
C3200 C 0.62358 0.16551 0.043 0.0
C3201 C 0.62547 0.15213 0.05179 0.0
C3202 C 0.61738 0.16476 0.02825 0.0
C3203 C 0.61293 0.15065 0.022 0.0
C3204 C 0.61412 0.1374 0.03095 0.0
H3205 H 0.59491 0.12341 0.92701 0.0
H3206 H 0.59839 0.12314 0.95487 0.0
C3207 C 0.62021 0.13814 0.04573 0.0
C3208 C 0.60864 0.14946 0.00561 0.0
H3209 H 0.58237 0.16109 0.97914 0.0
C3210 C 0.61851 0.14151 0.99576 0.0
C3211 C 0.5954 0.15652 0.9996 0.0
C3212 C 0.58428 0.16491 0.00977 0.0
C3213 C 0.61574 0.14077 0.97995 0.0
C3214 C 0.60247 0.14782 0.97388 0.0
C3215 C 0.59249 0.15563 0.98379 0.0
C3216 C 0.59914 0.14781 0.95719 0.0
C3217 C 0.6274 0.13299 0.96987 0.0
C3218 C 0.59773 0.16173 0.94931 0.0
C3219 C 0.59551 0.16189 0.93347 0.0
C3220 C 0.59469 0.14812 0.9252 0.0
C3221 C 0.59563 0.13418 0.93311 0.0
C3222 C 0.59772 0.13403 0.949 0.0
H3223 H 0.63866 0.13189 0.97567 0.0
H3224 H 0.62334 0.1213 0.96702 0.0
H3225 H 0.62905 0.13937 0.95902 0.0
H3226 H 0.59872 0.1725 0.95537 0.0
H3227 H 0.59478 0.1728 0.92766 0.0
H3228 H 0.33652 0.61085 0.92968 0.0
H3229 H 0.3382 0.61691 0.95696 0.0
H3230 H 0.38744 0.61483 0.9545 0.0
H3231 H 0.3858 0.60867 0.92709 0.0
H3232 H 0.37472 0.59782 0.97864 0.0
H3233 H 0.35144 0.65687 0.97795 0.0
H3234 H 0.33953 0.64304 0.96847 0.0
H3235 H 0.35815 0.64733 0.96089 0.0
C3236 C 0.34771 0.61178 0.93493 0.0
C3237 C 0.36104 0.6093 0.92629 0.0
C3238 C 0.34866 0.61536 0.95049 0.0
C3239 C 0.36295 0.61657 0.95772 0.0
C3240 C 0.3763 0.61408 0.94911 0.0
H3241 H 0.39125 0.62955 0.05215 0.0
H3242 H 0.39009 0.62673 0.02438 0.0
C3243 C 0.37536 0.61055 0.93349 0.0
C3244 C 0.36386 0.61951 0.97443 0.0
H3245 H 0.35399 0.64507 1.00239 0.0
C3246 C 0.3703 0.6082 0.98382 0.0
C3247 C 0.358 0.63303 0.98117 0.0
C3248 C 0.35151 0.64584 0.97161 0.0
C3249 C 0.37076 0.60989 0.99979 0.0
C3250 C 0.36484 0.62336 0.00654 0.0
C3251 C 0.35845 0.63472 0.99717 0.0
C3252 C 0.36539 0.62586 0.02332 0.0
C3253 C 0.37727 0.59707 0.00936 0.0
C3254 C 0.35185 0.62671 0.03191 0.0
C3255 C 0.35246 0.6283 0.04786 0.0
C3256 C 0.36663 0.62926 0.05543 0.0
C3257 C 0.38014 0.62874 0.04671 0.0
C3258 C 0.37952 0.62711 0.03082 0.0
H3259 H 0.37797 0.58618 1.00284 0.0
H3260 H 0.389 0.60019 0.0131 0.0
H3261 H 0.37022 0.59516 0.01975 0.0
H3262 H 0.34082 0.62582 0.02631 0.0
H3263 H 0.34186 0.6286 0.05425 0.0
H3264 H 0.90365 0.11989 0.57595 0.0
H3265 H 0.89952 0.1198 0.54816 0.0
H3266 H 0.90929 0.16814 0.54656 0.0
H3267 H 0.91346 0.16829 0.57429 0.0
H3268 H 0.88097 0.15829 0.53183 0.0
H3269 H 0.93176 0.12482 0.51311 0.0
H3270 H 0.92066 0.11671 0.52841 0.0
H3271 H 0.93084 0.13428 0.53148 0.0
C3272 C 0.90509 0.13044 0.56962 0.0
C3273 C 0.90891 0.14408 0.57723 0.0
C3274 C 0.90278 0.13037 0.55377 0.0
C3275 C 0.90422 0.14394 0.54532 0.0
C3276 C 0.90819 0.15754 0.55289 0.0
H3277 H 0.88582 0.1707 0.45134 0.0
H3278 H 0.89302 0.16995 0.47836 0.0
C3279 C 0.9106 0.1576 0.5687 0.0
C3280 C 0.90088 0.14415 0.5287 0.0
H3281 H 0.91341 0.13091 0.49414 0.0
C3282 C 0.88809 0.15237 0.52356 0.0
C3283 C 0.91014 0.13631 0.518 0.0
C3284 C 0.9242 0.1276 0.52294 0.0
C3285 C 0.88417 0.15281 0.50798 0.0
C3286 C 0.89355 0.14513 0.49724 0.0
C3287 C 0.90631 0.13684 0.5024 0.0
C3288 C 0.89016 0.14547 0.48062 0.0
C3289 C 0.86983 0.16118 0.5032 0.0
C3290 C 0.88673 0.13187 0.4728 0.0
C3291 C 0.88271 0.13223 0.45732 0.0
C3292 C 0.8821 0.14621 0.44935 0.0
C3293 C 0.88612 0.15974 0.45711 0.0
C3294 C 0.89013 0.15936 0.47259 0.0
H3295 H 0.86192 0.16297 0.51298 0.0
H3296 H 0.87299 0.17257 0.49858 0.0
H3297 H 0.86366 0.15481 0.49409 0.0
H3298 H 0.88678 0.12102 0.47878 0.0
H3299 H 0.87972 0.12159 0.45171 0.0
H3300 H 0.33691 0.88835 0.4542 0.0
H3301 H 0.33719 0.89744 0.48077 0.0
H3302 H 0.38381 0.88205 0.48562 0.0
H3303 H 0.38379 0.87331 0.45919 0.0
H3304 H 0.34143 0.88076 0.50675 0.0
H3305 H 0.38688 0.92465 0.50294 0.0
H3306 H 0.37793 0.9165 0.4862 0.0
H3307 H 0.3931 0.90643 0.49584 0.0
C3308 C 0.3473 0.88712 0.46085 0.0
C3309 C 0.36035 0.88017 0.45448 0.0
C3310 C 0.34743 0.89228 0.47606 0.0
C3311 C 0.36062 0.89069 0.48514 0.0
C3312 C 0.37364 0.88381 0.47876 0.0
H3313 H 0.38475 0.89827 0.58102 0.0
H3314 H 0.38383 0.89354 0.5533 0.0
C3315 C 0.37355 0.87871 0.46361 0.0
C3316 C 0.3606 0.89532 0.50153 0.0
H3317 H 0.38038 0.91611 0.52818 0.0
C3318 C 0.34982 0.88864 0.51139 0.0
C3319 C 0.37159 0.90558 0.50763 0.0
C3320 C 0.38293 0.91382 0.49757 0.0
C3321 C 0.35004 0.89157 0.52721 0.0
C3322 C 0.36125 0.90152 0.53333 0.0
C3323 C 0.37188 0.90839 0.52347 0.0
C3324 C 0.36209 0.90491 0.54995 0.0
C3325 C 0.33854 0.88365 0.53736 0.0
C3326 C 0.35034 0.91312 0.55717 0.0
C3327 C 0.35089 0.91589 0.57292 0.0
C3328 C 0.3632 0.9105 0.58176 0.0
C3329 C 0.37512 0.90255 0.57448 0.0
C3330 C 0.37461 0.89984 0.55868 0.0
H3331 H 0.33268 0.87408 0.53136 0.0
H3332 H 0.34418 0.8791 0.5478 0.0
H3333 H 0.32973 0.89202 0.54102 0.0
H3334 H 0.34068 0.9173 0.55061 0.0
H3335 H 0.34155 0.92207 0.57822 0.0
H3336 H 0.58815 0.33612 0.57834 0.0
H3337 H 0.59429 0.33589 0.55099 0.0
H3338 H 0.6117 0.38194 0.55458 0.0
H3339 H 0.60588 0.38208 0.58202 0.0
H3340 H 0.58485 0.35391 0.52709 0.0
H3341 H 0.6475 0.35953 0.53538 0.0
H3342 H 0.63463 0.35518 0.55091 0.0
H3343 H 0.63679 0.37457 0.54435 0.0
C3344 C 0.59325 0.34621 0.57327 0.0
C3345 C 0.59664 0.35909 0.5823 0.0
C3346 C 0.59675 0.34607 0.55765 0.0
C3347 C 0.60372 0.35879 0.55077 0.0
C3348 C 0.60666 0.37186 0.5597 0.0
H3349 H 0.63471 0.38369 0.46089 0.0
H3350 H 0.62576 0.38253 0.48725 0.0
C3351 C 0.60323 0.37197 0.57534 0.0
C3352 C 0.608 0.35833 0.53431 0.0
H3353 H 0.63828 0.36228 0.50992 0.0
C3354 C 0.59654 0.35564 0.52333 0.0
C3355 C 0.62329 0.36045 0.52941 0.0
C3356 C 0.63629 0.36244 0.54063 0.0
C3357 C 0.5999 0.3555 0.50759 0.0
C3358 C 0.61512 0.35799 0.50273 0.0
C3359 C 0.6266 0.36045 0.51369 0.0
C3360 C 0.61939 0.35865 0.48631 0.0
C3361 C 0.58711 0.35312 0.49624 0.0
C3362 C 0.61866 0.34559 0.47694 0.0
C3363 C 0.62383 0.34618 0.46176 0.0
C3364 C 0.62985 0.35985 0.45572 0.0
C3365 C 0.63018 0.37296 0.46509 0.0
C3366 C 0.62508 0.37234 0.48021 0.0
H3367 H 0.57567 0.35413 0.50167 0.0
H3368 H 0.58791 0.36156 0.48678 0.0
H3369 H 0.5881 0.34151 0.49118 0.0
H3370 H 0.6145 0.33485 0.48149 0.0
H3371 H 0.62349 0.33585 0.45491 0.0
H3372 H 0.17624 0.63 0.46195 0.0
H3373 H 0.17594 0.61947 0.48788 0.0
H3374 H 0.12754 0.6108 0.48389 0.0
H3375 H 0.1277 0.6211 0.45798 0.0
H3376 H 0.15869 0.63205 0.51152 0.0
H3377 H 0.1435 0.57106 0.50289 0.0
H3378 H 0.15068 0.583 0.48764 0.0
H3379 H 0.13092 0.58412 0.49324 0.0
C3380 C 0.16559 0.62553 0.46642 0.0
C3381 C 0.15198 0.62646 0.45784 0.0
C3382 C 0.16544 0.61956 0.48128 0.0
C3383 C 0.15174 0.61425 0.48778 0.0
C3384 C 0.13829 0.61458 0.47903 0.0
H3385 H 0.12569 0.61098 0.5832 0.0
H3386 H 0.12792 0.61587 0.55565 0.0
C3387 C 0.13841 0.62058 0.46421 0.0
C3388 C 0.15116 0.60977 0.50414 0.0
H3389 H 0.14095 0.58083 0.52834 0.0
C3390 C 0.15494 0.62081 0.5152 0.0
C3391 C 0.14634 0.59508 0.50892 0.0
C3392 C 0.14276 0.58257 0.49756 0.0
C3393 C 0.15363 0.61769 0.53089 0.0
C3394 C 0.14824 0.6032 0.53566 0.0
C3395 C 0.14488 0.592 0.52464 0.0
C3396 C 0.14616 0.59951 0.55208 0.0
C3397 C 0.15809 0.62991 0.54227 0.0
C3398 C 0.15535 0.58837 0.55907 0.0
C3399 C 0.15409 0.58556 0.57477 0.0
C3400 C 0.14351 0.59375 0.5837 0.0
C3401 C 0.13395 0.60452 0.57658 0.0
C3402 C 0.13526 0.60738 0.56089 0.0
H3403 H 0.16523 0.63897 0.53693 0.0
H3404 H 0.14759 0.63536 0.54686 0.0
H3405 H 0.1645 0.62488 0.55202 0.0
H3406 H 0.16378 0.58215 0.55245 0.0
H3407 H 0.16159 0.57718 0.57998 0.0
H3408 H 0.92539 0.90161 0.38709 0.0
H3409 H 0.95313 0.89702 0.38742 0.0
H3410 H 0.95567 0.90911 0.33965 0.0
H3411 H 0.9281 0.91385 0.33932 0.0
H3412 H 0.96887 0.87571 0.3697 0.0
H3413 H 0.99046 0.93423 0.35806 0.0
H3414 H 0.97106 0.93056 0.36412 0.0
H3415 H 0.9765 0.92764 0.34449 0.0
C3416 C 0.93193 0.90349 0.37674 0.0
C3417 C 0.92462 0.90815 0.36321 0.0
C3418 C 0.94775 0.90084 0.37692 0.0
C3419 C 0.95652 0.90293 0.36361 0.0
C3420 C 0.94922 0.90775 0.35014 0.0
H3421 H 0.05102 0.88329 0.33798 0.0
H3422 H 0.02409 0.89126 0.33836 0.0
C3423 C 0.93344 0.91038 0.34995 0.0
C3424 C 0.97311 0.89916 0.36352 0.0
H3425 H 0.0086 0.91398 0.35631 0.0
C3426 C 0.97757 0.88411 0.36689 0.0
C3427 C 0.98445 0.9101 0.35971 0.0
C3428 C 0.98043 0.92657 0.35652 0.0
C3429 C 0.99299 0.87962 0.36634 0.0
C3430 C 0.00433 0.89056 0.36258 0.0
C3431 C 0.99989 0.90561 0.35917 0.0
C3432 C 0.02085 0.88659 0.36245 0.0
C3433 C 0.99699 0.86312 0.36948 0.0
C3434 C 0.02806 0.88173 0.37594 0.0
C3435 C 0.04339 0.8772 0.37576 0.0
C3436 C 0.05191 0.8775 0.3621 0.0
C3437 C 0.04481 0.8829 0.34869 0.0
C3438 C 0.02942 0.88744 0.34888 0.0
H3439 H 0.98689 0.85549 0.36821 0.0
H3440 H 0.00614 0.85907 0.36164 0.0
H3441 H 1.00124 0.86205 0.38139 0.0
H3442 H 0.02177 0.88129 0.3866 0.0
H3443 H 0.04847 0.87324 0.38635 0.0
H3444 H 0.6225 0.05203 0.33709 0.0
H3445 H 0.61571 0.02493 0.33848 0.0
H3446 H 0.62542 0.02488 0.38685 0.0
H3447 H 0.63202 0.05201 0.38566 0.0
H3448 H 0.63506 1.00144 0.34732 0.0
H3449 H 0.58406 1.00338 0.38509 0.0
H3450 H 0.59163 0.0202 0.37581 0.0
H3451 H 0.60064 0.0128 0.39276 0.0
C3452 C 0.62295 0.04635 0.34809 0.0
C3453 C 0.62777 0.05426 0.36128 0.0
C3454 C 0.6191 0.03083 0.34885 0.0
C3455 C 0.61989 0.0229 0.36279 0.0
C3456 C 0.62442 0.03082 0.37602 0.0
H3457 H 0.60909 0.92594 0.38596 0.0
H3458 H 0.61424 0.95361 0.38687 0.0
C3459 C 0.62825 0.04634 0.37529 0.0
C3460 C 0.6169 0.00617 0.36328 0.0
H3461 H 0.59414 0.97878 0.37944 0.0
C3462 C 0.62606 0.9965 0.35429 0.0
C3463 C 0.60526 0.99971 0.37249 0.0
C3464 C 0.59473 0.00955 0.38199 0.0
C3465 C 0.62394 0.98058 0.3543 0.0
C3466 C 0.6122 0.97413 0.36337 0.0
C3467 C 0.60315 0.98375 0.37252 0.0
C3468 C 0.60879 0.95749 0.36303 0.0
C3469 C 0.63443 0.97075 0.34473 0.0
C3470 C 0.60378 0.95059 0.34942 0.0
C3471 C 0.60082 0.93489 0.3489 0.0
C3472 C 0.60277 0.92577 0.36199 0.0
C3473 C 0.60754 0.9327 0.3757 0.0
C3474 C 0.61047 0.94848 0.37623 0.0
H3475 H 0.64516 0.97686 0.34172 0.0
H3476 H 0.63743 0.96001 0.35083 0.0
H3477 H 0.62853 0.96763 0.33392 0.0
H3478 H 0.60215 0.95737 0.33918 0.0
H3479 H 0.59708 0.92987 0.33819 0.0
H3480 H 0.58074 0.59723 0.38888 0.0
H3481 H 0.55295 0.60085 0.3891 0.0
H3482 H 0.55156 0.59378 0.34025 0.0
H3483 H 0.5793 0.58986 0.34003 0.0
H3484 H 0.53839 0.6239 0.37383 0.0
H3485 H 0.51569 0.5678 0.35456 0.0
H3486 H 0.53509 0.57024 0.36127 0.0
H3487 H 0.52995 0.57576 0.34212 0.0
C3488 C 0.57445 0.59616 0.37825 0.0
C3489 C 0.58212 0.59327 0.36444 0.0
C3490 C 0.5586 0.59824 0.37838 0.0
C3491 C 0.55015 0.59742 0.36472 0.0
C3492 C 0.55777 0.59412 0.35097 0.0
H3493 H 0.45845 0.62694 0.34032 0.0
H3494 H 0.48422 0.61593 0.3401 0.0
C3495 C 0.57363 0.59199 0.35085 0.0
C3496 C 0.53368 0.6015 0.36469 0.0
H3497 H 0.49797 0.58856 0.35529 0.0
C3498 C 0.52955 0.61612 0.3699 0.0
C3499 C 0.52218 0.59138 0.3594 0.0
C3500 C 0.5259 0.57537 0.35414 0.0
C3501 C 0.51427 0.62097 0.36983 0.0
C3502 C 0.50277 0.61085 0.36462 0.0
C3503 C 0.50684 0.59626 0.35931 0.0
C3504 C 0.48646 0.61539 0.36473 0.0
C3505 C 0.51057 0.63701 0.37509 0.0
C3506 C 0.47904 0.61818 0.37866 0.0
C3507 C 0.46436 0.62447 0.37886 0.0
C3508 C 0.4568 0.62806 0.3651 0.0
C3509 C 0.46393 0.62436 0.35113 0.0
C3510 C 0.47866 0.61807 0.35096 0.0
H3511 H 0.52091 0.64439 0.37551 0.0
H3512 H 0.50202 0.64241 0.36739 0.0
H3513 H 0.5056 0.63655 0.38676 0.0
H3514 H 0.48483 0.61599 0.3894 0.0
H3515 H 0.45919 0.627 0.38983 0.0
H3516 H 0.91015 0.57938 0.38916 0.0
H3517 H 0.90692 0.55151 0.38834 0.0
H3518 H 0.91177 0.55232 0.33923 0.0
H3519 H 0.91534 0.58005 0.34004 0.0
H3520 H 0.88408 0.53628 0.37405 0.0
H3521 H 0.93966 0.51716 0.35029 0.0
H3522 H 0.93675 0.5362 0.35777 0.0
H3523 H 0.93045 0.53142 0.33875 0.0
C3524 C 0.91077 0.57355 0.37823 0.0
C3525 C 0.91303 0.58183 0.36467 0.0
C3526 C 0.90892 0.55765 0.37777 0.0
C3527 C 0.90933 0.54977 0.36375 0.0
C3528 C 0.9118 0.55806 0.35022 0.0
H3529 H 0.879 0.45953 0.33564 0.0
H3530 H 0.88942 0.48555 0.3363 0.0
C3531 C 0.91372 0.57393 0.35068 0.0
C3532 C 0.90594 0.53313 0.36314 0.0
H3533 H 0.91949 0.49864 0.3505 0.0
C3534 C 0.8919 0.52805 0.36903 0.0
C3535 C 0.91611 0.52239 0.3565 0.0
C3536 C 0.93165 0.52703 0.3506 0.0
C3537 C 0.88763 0.5126 0.36824 0.0
C3538 C 0.89773 0.50191 0.3615 0.0
C3539 C 0.91178 0.50691 0.35562 0.0
C3540 C 0.89372 0.48548 0.36066 0.0
C3541 C 0.87224 0.5078 0.37441 0.0
C3542 C 0.89326 0.4767 0.37405 0.0
C3543 C 0.88738 0.46185 0.37374 0.0
C3544 C 0.88178 0.45549 0.36002 0.0
C3545 C 0.88317 0.46403 0.34642 0.0
C3546 C 0.88911 0.47891 0.34676 0.0
H3547 H 0.86474 0.51777 0.37685 0.0
H3548 H 0.86631 0.50015 0.36616 0.0
H3549 H 0.87388 0.50133 0.38521 0.0
H3550 H 0.89691 0.48157 0.38486 0.0
H3551 H 0.88663 0.45563 0.38442 0.0
H3552 H 0.04465 0.63604 0.12433 0.0
H3553 H 0.01781 0.62849 0.12505 0.0
H3554 H 0.02339 0.61239 0.17131 0.0
H3555 H 0.05045 0.61995 0.17077 0.0
H3556 H 0.00611 0.59219 0.14983 0.0
H3557 H 0.98528 0.65226 0.15106 0.0
H3558 H 0.99902 0.64798 0.13637 0.0
H3559 H 0.00465 0.64709 0.15612 0.0
C3560 C 0.04026 0.63082 0.13467 0.0
C3561 C 0.04972 0.6287 0.14755 0.0
C3562 C 0.02488 0.62656 0.13506 0.0
C3563 C 0.01858 0.6201 0.1483 0.0
C3564 C 0.02805 0.61745 0.16101 0.0
H3565 H 0.92651 0.58882 0.17037 0.0
H3566 H 0.95412 0.59341 0.16995 0.0
C3567 C 0.0435 0.62176 0.16067 0.0
C3568 C 1.00203 0.61644 0.14883 0.0
H3569 H 0.96665 0.63294 0.14738 0.0
C3570 C 0.99745 0.60107 0.1494 0.0
C3571 C 0.9908 0.62807 0.14818 0.0
C3572 C 0.99512 0.6448 0.14802 0.0
C3573 C 0.98189 0.59699 0.14896 0.0
C3574 C 0.97064 0.60864 0.14827 0.0
C3575 C 0.97527 0.62402 0.14783 0.0
C3576 C 0.95398 0.6052 0.14818 0.0
C3577 C 0.97767 0.58025 0.1488 0.0
C3578 C 0.94463 0.61054 0.13623 0.0
C3579 C 0.92881 0.60805 0.13652 0.0
C3580 C 0.92207 0.60022 0.14881 0.0
C3581 C 0.93143 0.59478 0.16069 0.0
C3582 C 0.94722 0.59732 0.16042 0.0
H3583 H 0.98738 0.573 0.14495 0.0
H3584 H 0.97456 0.57664 0.16056 0.0
H3585 H 0.96772 0.57809 0.1412 0.0
H3586 H 0.94959 0.61674 0.12671 0.0
H3587 H 0.92184 0.61243 0.12725 0.0
H3588 H 0.92947 0.93038 0.1658 0.0
H3589 H 0.92522 0.95808 0.16716 0.0
H3590 H 0.8924 0.95485 0.13044 0.0
H3591 H 0.89663 0.92712 0.12899 0.0
H3592 H 0.92804 0.98103 0.14274 0.0
H3593 H 0.86943 0.97618 0.16693 0.0
H3594 H 0.883 0.9606 0.16739 0.0
H3595 H 0.87298 0.96501 0.15 0.0
C3596 C 0.92141 0.9356 0.15797 0.0
C3597 C 0.91334 0.92664 0.14732 0.0
C3598 C 0.91901 0.9514 0.15875 0.0
C3599 C 0.90838 0.95845 0.14902 0.0
C3600 C 0.90052 0.94957 0.13817 0.0
H3601 H 0.8895 0.05111 0.12439 0.0
H3602 H 0.899 0.02495 0.12626 0.0
C3603 C 0.90299 0.93377 0.13731 0.0
C3604 C 0.90538 0.97508 0.15033 0.0
H3605 H 0.87752 1.00093 0.15931 0.0
C3606 C 0.91704 0.98541 0.14645 0.0
C3607 C 0.8911 0.98072 0.1554 0.0
C3608 C 0.87842 0.97009 0.1603 0.0
C3609 C 0.91458 1.00129 0.14699 0.0
C3610 C 0.90009 0.00692 0.15148 0.0
C3611 C 0.88862 0.99658 0.15585 0.0
C3612 C 0.89621 0.02341 0.1508 0.0
C3613 C 0.92747 0.01193 0.14272 0.0
C3614 C 0.89159 0.0313 0.16402 0.0
C3615 C 0.88617 0.04635 0.16301 0.0
C3616 C 0.88504 0.05364 0.1487 0.0
C3617 C 0.8902 0.04585 0.13559 0.0
C3618 C 0.89573 0.0309 0.13663 0.0
H3619 H 0.93878 0.00619 0.14359 0.0
H3620 H 0.92591 0.01573 0.13071 0.0
H3621 H 0.92752 0.02224 0.15016 0.0
H3622 H 0.89179 0.02567 0.17505 0.0
H3623 H 0.88217 0.05196 0.17331 0.0
H3624 H 0.4632 0.87099 0.12375 0.0
H3625 H 0.48866 0.88226 0.12396 0.0
H3626 H 0.48823 0.88289 0.17329 0.0
H3627 H 0.46283 0.87112 0.17326 0.0
H3628 H 0.50098 0.90837 0.13487 0.0
H3629 H 0.51132 0.86758 0.17528 0.0
H3630 H 0.5264 0.85843 0.16479 0.0
H3631 H 0.50714 0.85825 0.1574 0.0
C3632 C 0.4684 0.87362 0.13469 0.0
C3633 C 0.46098 0.86994 0.1485 0.0
C3634 C 0.483 0.88009 0.13477 0.0
C3635 C 0.49052 0.88309 0.14863 0.0
C3636 C 0.48283 0.88027 0.16245 0.0
H3637 H 0.58264 0.91508 0.16819 0.0
H3638 H 0.55526 0.90933 0.16922 0.0
C3639 C 0.46824 0.87364 0.1624 0.0
C3640 C 0.50661 0.8886 0.14847 0.0
H3641 H 0.54284 0.87932 0.15987 0.0
C3642 C 0.51013 0.90203 0.14035 0.0
C3643 C 0.51857 0.88024 0.15551 0.0
C3644 C 0.51574 0.86525 0.16361 0.0
C3645 C 0.52526 0.90734 0.13918 0.0
C3646 C 0.53714 0.899 0.14626 0.0
C3647 C 0.53364 0.88569 0.1545 0.0
C3648 C 0.55337 0.90374 0.14519 0.0
C3649 C 0.52847 0.92188 0.13048 0.0
C3650 C 0.56135 0.90256 0.13129 0.0
C3651 C 0.57704 0.90575 0.13069 0.0
C3652 C 0.58494 0.91018 0.14397 0.0
C3653 C 0.57683 0.91173 0.15777 0.0
C3654 C 0.5612 0.90844 0.15838 0.0
H3655 H 0.51785 0.92842 0.12803 0.0
H3656 H 0.53647 0.9293 0.13701 0.0
H3657 H 0.53401 0.91899 0.11942 0.0
H3658 H 0.55552 0.89875 0.12103 0.0
H3659 H 0.58305 0.90441 0.11993 0.0
H3660 H 0.58831 0.57496 0.16867 0.0
H3661 H 0.59549 0.54786 0.16827 0.0
H3662 H 0.611 0.55258 0.12168 0.0
H3663 H 0.60409 0.57977 0.12211 0.0
H3664 H 0.58745 0.52292 0.14974 0.0
H3665 H 0.64909 0.53711 0.14404 0.0
H3666 H 0.63486 0.55127 0.14884 0.0
H3667 H 0.63723 0.54517 0.12933 0.0
C3668 C 0.59307 0.57016 0.15827 0.0
C3669 C 0.59576 0.57948 0.14545 0.0
C3670 C 0.59717 0.55469 0.15807 0.0
C3671 C 0.60407 0.54827 0.14506 0.0
C3672 C 0.60601 0.55738 0.13196 0.0
H3673 H 0.64578 0.4613 0.1235 0.0
H3674 H 0.63422 0.48669 0.1232 0.0
C3675 C 0.60195 0.57287 0.13217 0.0
C3676 C 0.60982 0.53227 0.14545 0.0
H3677 H 0.64241 0.51094 0.14227 0.0
C3678 C 0.59946 0.52028 0.14814 0.0
C3679 C 0.62554 0.52886 0.14349 0.0
C3680 C 0.63737 0.54127 0.14141 0.0
C3681 C 0.60435 0.50494 0.14855 0.0
C3682 C 0.62003 0.50155 0.14641 0.0
C3683 C 0.63038 0.51355 0.14384 0.0
C3684 C 0.62603 0.48565 0.14652 0.0
C3685 C 0.59266 0.49247 0.1509 0.0
C3686 C 0.62523 0.47655 0.15975 0.0
C3687 C 0.63186 0.46194 0.15998 0.0
C3688 C 0.63948 0.45622 0.147 0.0
C3689 C 0.64003 0.46531 0.13372 0.0
C3690 C 0.63342 0.47986 0.13351 0.0
H3691 H 0.58083 0.49662 0.14879 0.0
H3692 H 0.59496 0.4826 0.14323 0.0
H3693 H 0.59332 0.48837 0.16289 0.0
H3694 H 0.61983 0.4809 0.17002 0.0
H3695 H 0.6313 0.4553 0.17041 0.0
H3696 H 0.38415 0.92973 0.90491 0.0
H3697 H 0.38354 0.9572 0.89942 0.0
H3698 H 0.33776 0.9599 0.91762 0.0
H3699 H 0.33841 0.93246 0.92334 0.0
H3700 H 0.36299 0.97083 0.87966 0.0
H3701 H 0.35846 0.99682 0.93749 0.0
H3702 H 0.36435 0.97723 0.93454 0.0
H3703 H 0.34446 0.98231 0.93348 0.0
C3704 C 0.37408 0.93625 0.90801 0.0
C3705 C 0.36134 0.92899 0.91458 0.0
C3706 C 0.37372 0.95192 0.90484 0.0
C3707 C 0.36066 0.96064 0.90823 0.0
C3708 C 0.34807 0.95348 0.91518 0.0
H3709 H 0.33493 0.0542 0.88355 0.0
H3710 H 0.3351 0.02803 0.89372 0.0
C3711 C 0.34843 0.93779 0.91838 0.0
C3712 C 0.35981 0.97688 0.90334 0.0
H3713 H 0.35515 0.01351 0.9163 0.0
C3714 C 0.36134 0.98016 0.88769 0.0
C3715 C 0.3575 0.98903 0.91381 0.0
C3716 C 0.35622 0.98624 0.93079 0.0
C3717 C 0.36061 0.99522 0.88221 0.0
C3718 C 0.35853 0.00739 0.89269 0.0
C3719 C 0.35676 0.00414 0.90831 0.0
C3720 C 0.35865 0.02355 0.88756 0.0
C3721 C 0.3619 0.99799 0.86521 0.0
C3722 C 0.37193 0.02979 0.88111 0.0
C3723 C 0.37189 0.04468 0.87533 0.0
C3724 C 0.35855 0.05368 0.87591 0.0
C3725 C 0.34539 0.04758 0.88289 0.0
C3726 C 0.34546 0.03264 0.8887 0.0
H3727 H 0.35959 0.98743 0.8585 0.0
H3728 H 0.35382 0.00705 0.86146 0.0
H3729 H 0.37369 1.00185 0.86251 0.0
H3730 H 0.3823 0.02305 0.88035 0.0
H3731 H 0.38228 0.04901 0.87015 0.0
H3732 H 0.3351 0.4663 0.63989 0.0
H3733 H 0.33549 0.49233 0.63002 0.0
H3734 H 0.37398 0.48098 0.60128 0.0
H3735 H 0.37411 0.45502 0.61171 0.0
H3736 H 0.37999 0.50569 0.61578 0.0
H3737 H 0.32195 0.51275 0.59209 0.0
H3738 H 0.32083 0.5067 0.61163 0.0
H3739 H 0.32936 0.49427 0.59751 0.0
C3740 C 0.34341 0.46921 0.63117 0.0
C3741 C 0.35457 0.45857 0.62656 0.0
C3742 C 0.34358 0.48414 0.62546 0.0
C3743 C 0.35462 0.48865 0.6147 0.0
C3744 C 0.36533 0.47781 0.60955 0.0
H3745 H 0.34977 0.58226 0.57871 0.0
H3746 H 0.34982 0.55429 0.58064 0.0
C3747 C 0.36536 0.46295 0.61549 0.0
C3748 C 0.35598 0.50499 0.61009 0.0
H3749 H 0.33518 0.53612 0.59894 0.0
C3750 C 0.37022 0.51226 0.61185 0.0
C3751 C 0.34336 0.51361 0.60471 0.0
C3752 C 0.32808 0.50636 0.60121 0.0
C3753 C 0.37204 0.52796 0.60899 0.0
C3754 C 0.35913 0.53681 0.60482 0.0
C3755 C 0.34504 0.52943 0.60241 0.0
C3756 C 0.35987 0.55375 0.6033 0.0
C3757 C 0.38784 0.5348 0.61038 0.0
C3758 C 0.36545 0.56281 0.61537 0.0
C3759 C 0.36569 0.57876 0.61415 0.0
C3760 C 0.35999 0.58597 0.60099 0.0
C3761 C 0.35428 0.57696 0.58896 0.0
C3762 C 0.35427 0.56099 0.59007 0.0
H3763 H 0.39683 0.5261 0.60813 0.0
H3764 H 0.38946 0.54446 0.6023 0.0
H3765 H 0.38953 0.53907 0.62222 0.0
H3766 H 0.36936 0.55758 0.6259 0.0
H3767 H 0.36997 0.58545 0.62368 0.0
H3768 H 0.92732 0.33201 0.57935 0.0
H3769 H 0.95521 0.32954 0.58158 0.0
H3770 H 0.95812 0.37608 0.59771 0.0
H3771 H 0.93025 0.37862 0.59557 0.0
H3772 H 0.98164 0.36501 0.57395 0.0
H3773 H 0.97526 0.32893 0.62613 0.0
H3774 H 0.9642 0.32395 0.60947 0.0
H3775 H 0.96015 0.34138 0.61952 0.0
C3776 C 0.93395 0.34177 0.58317 0.0
C3777 C 0.92667 0.35549 0.58738 0.0
C3778 C 0.94983 0.34033 0.58445 0.0
C3779 C 0.95865 0.3526 0.58989 0.0
C3780 C 0.95147 0.36651 0.59348 0.0
H3781 H 0.04816 0.37663 0.61875 0.0
H3782 H 0.02329 0.37517 0.60642 0.0
C3783 C 0.93559 0.36793 0.59228 0.0
C3784 C 0.97519 0.35068 0.59288 0.0
H3785 H 1.00016 0.33528 0.6186 0.0
C3786 C 0.98575 0.3584 0.58361 0.0
C3787 C 0.98046 0.34195 0.60541 0.0
C3788 C 0.96949 0.3336 0.61581 0.0
C3789 C 1.00152 0.35782 0.58673 0.0
C3790 C 0.00675 0.34965 0.5997 0.0
C3791 C 0.99618 0.34152 0.60864 0.0
C3792 C 0.02286 0.35044 0.60511 0.0
C3793 C 0.01237 0.36597 0.57608 0.0
C3794 C 0.03099 0.33701 0.60856 0.0
C3795 C 0.04522 0.33778 0.61588 0.0
C3796 C 0.05157 0.35202 0.61993 0.0
C3797 C 0.04371 0.36545 0.61577 0.0
C3798 C 0.02947 0.36465 0.60857 0.0
H3799 H 0.00761 0.36661 0.5643 0.0
H3800 H 0.01409 0.37786 0.58019 0.0
H3801 H 0.02367 0.36018 0.5756 0.0
H3802 H 0.02607 0.3259 0.60606 0.0
H3803 H 0.05092 0.3272 0.61887 0.0
H3804 H 0.172 0.05333 0.62441 0.0
H3805 H 0.17247 0.02643 0.61636 0.0
H3806 H 0.12354 0.02378 0.622 0.0
H3807 H 0.12291 0.05044 0.63005 0.0
H3808 H 0.14038 1.00093 0.63779 0.0
H3809 H 0.15724 0.00514 0.57657 0.0
H3810 H 0.16897 0.01546 0.59 0.0
H3811 H 0.14945 0.02115 0.58708 0.0
C3812 C 0.16131 0.0471 0.62366 0.0
C3813 C 0.14743 0.05406 0.62793 0.0
C3814 C 0.1616 0.03174 0.61903 0.0
C3815 C 0.14802 0.02315 0.61852 0.0
C3816 C 0.13414 0.03021 0.62231 0.0
H3817 H 0.12219 0.92777 0.6063 0.0
H3818 H 0.12247 0.95556 0.61036 0.0
C3819 C 0.13383 0.04548 0.62692 0.0
C3820 C 0.14824 0.00653 0.61514 0.0
H3821 H 0.15523 0.98027 0.58705 0.0
C3822 C 0.1436 0.9964 0.62668 0.0
C3823 C 0.15252 1.00069 0.60068 0.0
C3824 C 0.15723 0.01113 0.58779 0.0
C3825 C 0.14321 0.98054 0.62421 0.0
C3826 C 0.14724 0.97468 0.60967 0.0
C3827 C 0.15205 0.9848 0.59815 0.0
C3828 C 0.14679 0.95804 0.60632 0.0
C3829 C 0.13878 0.9702 0.63731 0.0
C3830 C 0.16023 0.95032 0.60216 0.0
C3831 C 0.16006 0.93452 0.59972 0.0
C3832 C 0.14642 0.92616 0.60134 0.0
C3833 C 0.13287 0.93394 0.60507 0.0
C3834 C 0.13304 0.94977 0.60747 0.0
H3835 H 0.13999 0.97605 0.64854 0.0
H3836 H 0.12663 0.96677 0.63598 0.0
H3837 H 0.14589 0.95968 0.63742 0.0
H3838 H 0.17094 0.95648 0.60114 0.0
H3839 H 0.17066 0.9288 0.59682 0.0
H3840 H 0.58002 0.12221 0.60148 0.0
H3841 H 0.55215 0.1235 0.60464 0.0
H3842 H 0.55215 0.1694 0.58657 0.0
H3843 H 0.57998 0.16816 0.58339 0.0
H3844 H 0.53705 0.14569 0.6232 0.0
H3845 H 0.51702 0.14784 0.5629 0.0
H3846 H 0.5358 0.141 0.56819 0.0
H3847 H 0.53194 0.16117 0.5677 0.0
C3848 C 0.57403 0.13247 0.59796 0.0
C3849 C 0.58213 0.14508 0.59217 0.0
C3850 C 0.55813 0.13321 0.59979 0.0
C3851 C 0.55006 0.14649 0.5957 0.0
C3852 C 0.55811 0.15895 0.58956 0.0
H3853 H 0.46158 0.17587 0.6299 0.0
H3854 H 0.48798 0.17483 0.62077 0.0
C3855 C 0.57401 0.15825 0.58781 0.0
C3856 C 0.53344 0.14775 0.59893 0.0
H3857 H 0.49845 0.15287 0.58215 0.0
C3858 C 0.52861 0.14721 0.61423 0.0
C3859 C 0.52245 0.14968 0.58719 0.0
C3860 C 0.52699 0.14984 0.57054 0.0
C3861 C 0.51311 0.14877 0.61812 0.0
C3862 C 0.50215 0.15104 0.60642 0.0
C3863 C 0.50692 0.15132 0.59109 0.0
C3864 C 0.48565 0.15265 0.61003 0.0
C3865 C 0.50851 0.14781 0.63474 0.0
C3866 C 0.47544 0.14081 0.60644 0.0
C3867 C 0.46031 0.14134 0.61165 0.0
C3868 C 0.45508 0.15379 0.62046 0.0
C3869 C 0.46514 0.16609 0.62317 0.0
C3870 C 0.48029 0.1655 0.61803 0.0
H3871 H 0.51786 0.14321 0.64202 0.0
H3872 H 0.50556 0.15942 0.63895 0.0
H3873 H 0.49825 0.14044 0.63611 0.0
H3874 H 0.47936 0.13083 0.60022 0.0
H3875 H 0.4529 0.13169 0.60926 0.0
H3876 H 0.16693 0.45693 0.88094 0.0
H3877 H 0.16673 0.48364 0.88945 0.0
H3878 H 0.11754 0.4845 0.88594 0.0
H3879 H 0.11755 0.45795 0.87746 0.0
H3880 H 0.13284 0.50836 0.86993 0.0
H3881 H 0.15259 0.50362 0.93021 0.0
H3882 H 0.16412 0.49389 0.91621 0.0
H3883 H 0.1449 0.48755 0.91971 0.0
C3884 C 0.15604 0.46269 0.88226 0.0
C3885 C 0.14227 0.45522 0.87847 0.0
C3886 C 0.15595 0.47796 0.88715 0.0
C3887 C 0.1421 0.48602 0.8884 0.0
C3888 C 0.12835 0.47848 0.88507 0.0
H3889 H 0.11695 0.58176 0.90304 0.0
H3890 H 0.11656 0.55405 0.89839 0.0
C3891 C 0.1284 0.46325 0.88024 0.0
C3892 C 0.14193 0.5026 0.89208 0.0
H3893 H 0.15018 0.52863 0.92006 0.0
C3894 C 0.13656 0.51281 0.88091 0.0
C3895 C 0.14687 0.50833 0.90638 0.0
C3896 C 0.15235 0.49781 0.9189 0.0
C3897 C 0.13621 0.52865 0.88356 0.0
C3898 C 0.14102 0.53442 0.89792 0.0
C3899 C 0.14642 0.52419 0.90909 0.0
C3900 C 0.14098 0.55106 0.90138 0.0
C3901 C 0.13109 0.53909 0.8708 0.0
C3902 C 0.15472 0.55849 0.9051 0.0
C3903 C 0.15493 0.57424 0.90788 0.0
C3904 C 0.14138 0.58286 0.90705 0.0
C3905 C 0.12756 0.57539 0.90366 0.0
C3906 C 0.12735 0.5596 0.90092 0.0
H3907 H 0.13163 0.53332 0.85947 0.0
H3908 H 0.11905 0.54257 0.87281 0.0
H3909 H 0.13823 0.54959 0.87036 0.0
H3910 H 0.16536 0.55214 0.90557 0.0
H3911 H 0.16575 0.5797 0.91049 0.0
H3912 H 0.04439 0.17275 0.87852 0.0
H3913 H 0.01886 0.17204 0.88998 0.0
H3914 H 0.02308 0.12335 0.8966 0.0
H3915 H 0.04858 0.12391 0.88534 0.0
H3916 H 0.99491 0.1553 0.87748 0.0
H3917 H 0.0051 0.13757 0.93748 0.0
H3918 H 0.02003 0.14532 0.92547 0.0
H3919 H 0.01454 0.12556 0.92373 0.0
C3920 C 0.04006 0.16193 0.88273 0.0
C3921 C 0.04856 0.14837 0.88093 0.0
C3922 C 0.02543 0.16155 0.88925 0.0
C3923 C 0.01912 0.14767 0.89429 0.0
C3924 C 0.02782 0.13424 0.89307 0.0
H3925 H 0.92615 0.11711 0.89678 0.0
H3926 H 0.9537 0.12083 0.89336 0.0
C3927 C 0.04239 0.13458 0.8865 0.0
C3928 C 1.00289 0.14685 0.89921 0.0
H3929 H 0.97946 0.13455 0.928 0.0
C3930 C 0.99155 0.15095 0.8886 0.0
C3931 C 0.9985 0.14124 0.91375 0.0
C3932 C 0.01018 0.13731 0.92583 0.0
C3933 C 0.97596 0.14905 0.89192 0.0
C3934 C 0.9716 0.14274 0.90615 0.0
C3935 C 0.98288 0.1392 0.91702 0.0
C3936 C 0.95535 0.13943 0.90962 0.0
C3937 C 0.96424 0.15362 0.88008 0.0
C3938 C 0.9473 0.14831 0.9203 0.0
C3939 C 0.93153 0.14621 0.92227 0.0
C3940 C 0.92366 0.13513 0.91366 0.0
C3941 C 0.93192 0.12574 0.90356 0.0
C3942 C 0.94763 0.12789 0.90155 0.0
H3943 H 0.9692 0.16122 0.8712 0.0
H3944 H 0.9598 0.14319 0.87434 0.0
H3945 H 0.95443 0.15956 0.88554 0.0
H3946 H 0.95309 0.15725 0.92666 0.0
H3947 H 0.92542 0.15361 0.93012 0.0
H3948 H 0.45205 0.33697 0.88734 0.0
H3949 H 0.47837 0.33723 0.89704 0.0
H3950 H 0.48243 0.38489 0.88508 0.0
H3951 H 0.4563 0.38477 0.87531 0.0
H3952 H 0.50616 0.36615 0.87376 0.0
H3953 H 0.49678 0.357 0.936 0.0
H3954 H 0.48748 0.34361 0.92342 0.0
H3955 H 0.48174 0.36333 0.9233 0.0
C3956 C 0.45847 0.34757 0.88696 0.0
C3957 C 0.45203 0.36085 0.88052 0.0
C3958 C 0.47349 0.3477 0.89257 0.0
C3959 C 0.4823 0.36112 0.89191 0.0
C3960 C 0.47581 0.37443 0.88575 0.0
H3961 H 0.57676 0.38744 0.90757 0.0
H3962 H 0.54918 0.38686 0.90256 0.0
C3963 C 0.46084 0.37432 0.88017 0.0
C3964 C 0.49861 0.36116 0.89665 0.0
H3965 H 0.52247 0.35715 0.92739 0.0
C3966 C 0.50973 0.36423 0.88549 0.0
C3967 C 0.50322 0.35852 0.91194 0.0
C3968 C 0.49171 0.35554 0.92442 0.0
C3969 C 0.52535 0.36466 0.88917 0.0
C3970 C 0.52998 0.36232 0.90451 0.0
C3971 C 0.51888 0.35905 0.91566 0.0
C3972 C 0.54632 0.36315 0.90909 0.0
C3973 C 0.53678 0.36734 0.87651 0.0
C3974 C 0.55373 0.35024 0.91513 0.0
C3975 C 0.56945 0.3506 0.91815 0.0
C3976 C 0.57801 0.36389 0.91522 0.0
C3977 C 0.57045 0.37702 0.90986 0.0
C3978 C 0.55473 0.37667 0.9069 0.0
H3979 H 0.53181 0.36481 0.86507 0.0
H3980 H 0.54034 0.37953 0.87661 0.0
H3981 H 0.54714 0.36017 0.87811 0.0
H3982 H 0.54744 0.33972 0.917 0.0
H3983 H 0.575 0.34032 0.92229 0.0
H3984 H 0.13423 0.612 0.12884 0.0
H3985 H 0.1616 0.6094 0.12377 0.0
H3986 H 0.17141 0.64158 0.15992 0.0
H3987 H 0.14417 0.64385 0.16537 0.0
H3988 H 0.17697 0.63284 0.11325 0.0
H3989 H 0.20668 0.6128 0.16532 0.0
H3990 H 0.18624 0.61095 0.16284 0.0
H3991 H 0.19439 0.62872 0.1694 0.0
C3992 C 0.14224 0.61811 0.13607 0.0
C3993 C 0.13699 0.62824 0.14742 0.0
C3994 C 0.1579 0.61663 0.13315 0.0
C3995 C 0.16863 0.62528 0.14146 0.0
C3996 C 0.16346 0.63453 0.15354 0.0
H3997 H 0.24696 0.66935 0.10426 0.0
H3998 H 0.22378 0.66197 0.11808 0.0
C3999 C 0.1478 0.63588 0.15659 0.0
C4000 C 0.18465 0.62666 0.13586 0.0
H4001 H 0.22217 0.6269 0.14711 0.0
C4002 C 0.18683 0.63126 0.12063 0.0
C4003 C 0.19759 0.62459 0.14542 0.0
C4004 C 0.19612 0.61884 0.16161 0.0
C4005 C 0.20144 0.63441 0.11487 0.0
C4006 C 0.21427 0.63324 0.12466 0.0
C4007 C 0.21227 0.62802 0.13971 0.0
C4008 C 0.22965 0.63796 0.11933 0.0
C4009 C 0.20302 0.63921 0.09835 0.0
C4010 C 0.241 0.62703 0.11622 0.0
C4011 C 0.25434 0.63125 0.10838 0.0
C4012 C 0.25643 0.64645 0.10355 0.0
C4013 C 0.24557 0.65754 0.10776 0.0
C4014 C 0.23234 0.65334 0.11563 0.0
H4015 H 0.1928 0.63598 0.09149 0.0
H4016 H 0.20431 0.65183 0.09778 0.0
H4017 H 0.2133 0.63395 0.09306 0.0
H4018 H 0.23911 0.6151 0.11899 0.0
H4019 H 0.26248 0.62248 0.10518 0.0
H4020 H 0.89061 0.24149 0.08088 0.0
H4021 H 0.89466 0.21968 0.09778 0.0
H4022 H 0.86913 0.24237 0.1334 0.0
H4023 H 0.86446 0.26408 0.11623 0.0
H4024 H 0.90738 0.21513 0.12641 0.0
H4025 H 0.84472 0.20331 0.12689 0.0
H4026 H 0.85318 0.21706 0.11407 0.0
H4027 H 0.85056 0.22173 0.13392 0.0
C4028 C 0.88588 0.24188 0.09232 0.0
C4029 C 0.87692 0.25438 0.09709 0.0
C4030 C 0.88832 0.22945 0.10203 0.0
C4031 C 0.88193 0.22924 0.11675 0.0
C4032 C 0.8739 0.24215 0.12197 0.0
H4033 H 0.86988 0.14205 0.1652 0.0
H4034 H 0.87331 0.16981 0.16285 0.0
C4035 C 0.87137 0.25461 0.1122 0.0
C4036 C 0.88273 0.21494 0.12589 0.0
H4037 H 0.86069 0.1851 0.13811 0.0
C4038 C 0.89716 0.20868 0.12922 0.0
C4039 C 0.86939 0.20652 0.1296 0.0
C4040 C 0.85357 0.21238 0.12587 0.0
C4041 C 0.89861 0.19394 0.13549 0.0
C4042 C 0.8853 0.18521 0.13834 0.0
C4043 C 0.87088 0.19185 0.13595 0.0
C4044 C 0.88594 0.16856 0.14161 0.0
C4045 C 0.91439 0.18769 0.13857 0.0
C4046 C 0.8922 0.15864 0.13064 0.0
C4047 C 0.89018 0.14285 0.1319 0.0
C4048 C 0.88185 0.13664 0.14416 0.0
C4049 C 0.87645 0.14649 0.15569 0.0
C4050 C 0.87836 0.16235 0.15434 0.0
H4051 H 0.92267 0.19705 0.14092 0.0
H4052 H 0.91434 0.17968 0.14843 0.0
H4053 H 0.91844 0.18139 0.12832 0.0
H4054 H 0.89782 0.16315 0.12056 0.0
H4055 H 0.89448 0.13557 0.12284 0.0
H4056 H 0.24845 0.84569 0.11916 0.0
H4057 H 0.27243 0.847 0.13335 0.0
H4058 H 0.27803 0.89413 0.11972 0.0
H4059 H 0.25431 0.89252 0.10483 0.0
H4060 H 0.30148 0.87906 0.11164 0.0
H4061 H 0.291 0.86258 0.17144 0.0
H4062 H 0.28266 0.84853 0.15908 0.0
H4063 H 0.27559 0.86794 0.15876 0.0
C4064 C 0.25449 0.85651 0.11972 0.0
C4065 C 0.24956 0.86902 0.11096 0.0
C4066 C 0.26821 0.85729 0.12792 0.0
C4067 C 0.27706 0.87072 0.1278 0.0
C4068 C 0.27142 0.88365 0.12005 0.0
H4069 H 0.3767 0.8719 0.14543 0.0
H4070 H 0.35013 0.8809 0.14732 0.0
C4071 C 0.25786 0.88276 0.1116 0.0
C4072 C 0.29323 0.87031 0.13318 0.0
H4073 H 0.31641 0.85591 0.16124 0.0
C4074 C 0.3047 0.87446 0.12271 0.0
C4075 C 0.29757 0.86428 0.1476 0.0
C4076 C 0.286 0.86075 0.15989 0.0
C4077 C 0.3202 0.87175 0.12578 0.0
C4078 C 0.3244 0.86467 0.13967 0.0
C4079 C 0.31311 0.86129 0.15055 0.0
C4080 C 0.34014 0.8589 0.14192 0.0
C4081 C 0.33196 0.87555 0.11371 0.0
C4082 C 0.34322 0.84349 0.13877 0.0
C4083 C 0.35829 0.83838 0.13751 0.0
C4084 C 0.37056 0.84859 0.13952 0.0
C4085 C 0.36747 0.86378 0.14385 0.0
C4086 C 0.35233 0.86893 0.14494 0.0
H4087 H 0.32673 0.88049 0.10323 0.0
H4088 H 0.3403 0.88392 0.11839 0.0
H4089 H 0.33841 0.86509 0.11049 0.0
H4090 H 0.33396 0.83561 0.13634 0.0
H4091 H 0.36032 0.82659 0.13428 0.0
H4092 H 0.65942 0.26783 0.09607 0.0
H4093 H 0.65673 0.28959 0.11321 0.0
H4094 H 0.6237 0.26464 0.14005 0.0
H4095 H 0.62622 0.2426 0.12253 0.0
H4096 H 0.61418 0.29437 0.13247 0.0
H4097 H 0.67241 0.296 0.15654 0.0
H4098 H 0.67323 0.29437 0.13611 0.0
H4099 H 0.66476 0.2792 0.1472 0.0
C4100 C 0.65162 0.26691 0.10565 0.0
C4101 C 0.64292 0.25358 0.1079 0.0
C4102 C 0.65022 0.2793 0.11556 0.0
C4103 C 0.6402 0.27867 0.12806 0.0
C4104 C 0.6316 0.2653 0.13054 0.0
H4105 H 0.65254 0.36684 0.17314 0.0
H4106 H 0.64672 0.33945 0.17271 0.0
C4107 C 0.63307 0.25274 0.12059 0.0
C4108 C 0.63822 0.29255 0.13764 0.0
H4109 H 0.65956 0.3207 0.15415 0.0
C4110 C 0.62398 0.29998 0.13762 0.0
C4111 C 0.65087 0.29972 0.14474 0.0
C4112 C 0.66613 0.2918 0.1463 0.0
C4113 C 0.62248 0.31503 0.14312 0.0
C4114 C 0.63564 0.32292 0.1484 0.0
C4115 C 0.64948 0.31486 0.14986 0.0
C4116 C 0.636 0.33984 0.15037 0.0
C4117 C 0.60691 0.32245 0.14274 0.0
C4118 C 0.63147 0.34933 0.13821 0.0
C4119 C 0.63462 0.36499 0.13851 0.0
C4120 C 0.64266 0.37149 0.15085 0.0
C4121 C 0.64638 0.36219 0.16344 0.0
C4122 C 0.64307 0.34651 0.1632 0.0
H4123 H 0.5978 0.31387 0.14496 0.0
H4124 H 0.60593 0.33179 0.15131 0.0
H4125 H 0.60484 0.32725 0.13117 0.0
H4126 H 0.62641 0.3445 0.12798 0.0
H4127 H 0.63162 0.37177 0.12859 0.0
H4128 H 0.14865 0.86126 0.34525 0.0
H4129 H 0.17522 0.86834 0.35006 0.0
H4130 H 0.16024 0.9063 0.37782 0.0
H4131 H 0.13356 0.89889 0.37359 0.0
H4132 H 0.19458 0.89265 0.34727 0.0
H4133 H 0.18296 0.88054 0.40859 0.0
H4134 H 0.16925 0.87643 0.39375 0.0
H4135 H 0.1715 0.89566 0.40078 0.0
C4136 C 0.15096 0.87133 0.35211 0.0
C4137 C 0.13898 0.87933 0.35931 0.0
C4138 C 0.1662 0.87537 0.35484 0.0
C4139 C 0.16974 0.88756 0.36468 0.0
C4140 C 0.15778 0.89655 0.37057 0.0
H4141 H 0.25462 0.90601 0.4132 0.0
H4142 H 0.23081 0.9106 0.3992 0.0
C4143 C 0.14253 0.89237 0.36805 0.0
C4144 C 0.18574 0.88967 0.37008 0.0
H4145 H 0.20788 0.88807 0.40225 0.0
C4146 C 0.19749 0.89179 0.3593 0.0
C4147 C 0.18957 0.88833 0.38578 0.0
C4148 C 0.1777 0.88497 0.39789 0.0
C4149 C 0.21294 0.89255 0.36382 0.0
C4150 C 0.21668 0.89113 0.37949 0.0
C4151 C 0.20494 0.88934 0.39026 0.0
C4152 C 0.23268 0.89033 0.38511 0.0
C4153 C 0.22513 0.89478 0.35185 0.0
C4154 C 0.2419 0.87769 0.38146 0.0
C4155 C 0.25549 0.875 0.38951 0.0
C4156 C 0.26001 0.88485 0.40141 0.0
C4157 C 0.25136 0.89814 0.40419 0.0
C4158 C 0.23778 0.90081 0.39617 0.0
H4159 H 0.22033 0.89951 0.34108 0.0
H4160 H 0.23425 0.90256 0.35609 0.0
H4161 H 0.23046 0.88357 0.34919 0.0
H4162 H 0.23805 0.86931 0.37317 0.0
H4163 H 0.26179 0.86457 0.38722 0.0
H4164 H 0.61465 0.14042 0.37773 0.0
H4165 H 0.61043 0.1678 0.38009 0.0
H4166 H 0.6309 0.17494 0.33576 0.0
H4167 H 0.63561 0.14746 0.33352 0.0
H4168 H 0.64526 0.19092 0.35636 0.0
H4169 H 0.58383 0.20159 0.365 0.0
H4170 H 0.58999 0.18673 0.37769 0.0
H4171 H 0.59085 0.18374 0.35728 0.0
C4172 C 0.61781 0.14771 0.36823 0.0
C4173 C 0.62569 0.14175 0.35553 0.0
C4174 C 0.61526 0.16344 0.36955 0.0
C4175 C 0.62026 0.17351 0.35807 0.0
C4176 C 0.62692 0.16742 0.34477 0.0
H4177 H 0.61938 0.27125 0.38678 0.0
H4178 H 0.61498 0.24922 0.36963 0.0
C4179 C 0.6296 0.15168 0.3435 0.0
C4180 C 0.62108 0.19022 0.36128 0.0
H4181 H 0.6013 0.21948 0.37805 0.0
C4182 C 0.63551 0.19728 0.36067 0.0
C4183 C 0.6084 0.19871 0.36674 0.0
C4184 C 0.59238 0.19231 0.36654 0.0
C4185 C 0.63785 0.21201 0.36658 0.0
C4186 C 0.62551 0.21981 0.37351 0.0
C4187 C 0.61081 0.21338 0.37293 0.0
C4188 C 0.62818 0.23338 0.38332 0.0
C4189 C 0.65371 0.2188 0.36604 0.0
C4190 C 0.63693 0.23168 0.39665 0.0
C4191 C 0.63938 0.24408 0.40636 0.0
C4192 C 0.63306 0.25848 0.40303 0.0
C4193 C 0.62439 0.26027 0.38958 0.0
C4194 C 0.62184 0.24774 0.37984 0.0
H4195 H 0.66048 0.21396 0.35644 0.0
H4196 H 0.65325 0.23144 0.36481 0.0
H4197 H 0.65979 0.21608 0.37686 0.0
H4198 H 0.64178 0.22067 0.39963 0.0
H4199 H 0.64627 0.24238 0.41653 0.0
H4200 H 0.37207 0.63815 0.34026 0.0
H4201 H 0.34411 0.63504 0.33887 0.0
H4202 H 0.34278 0.62623 0.3874 0.0
H4203 H 0.37042 0.62911 0.38884 0.0
H4204 H 0.32276 0.60744 0.37015 0.0
H4205 H 0.31655 0.6694 0.35625 0.0
H4206 H 0.328 0.65767 0.34379 0.0
H4207 H 0.33445 0.66155 0.3629 0.0
C4208 C 0.36582 0.63523 0.35054 0.0
C4209 C 0.37342 0.63405 0.36469 0.0
C4210 C 0.34985 0.63356 0.34975 0.0
C4211 C 0.34135 0.63062 0.36308 0.0
C4212 C 0.34909 0.62852 0.37697 0.0
H4213 H 0.26664 0.65382 0.41235 0.0
H4214 H 0.28936 0.65094 0.39647 0.0
C4215 C 0.36491 0.63025 0.37779 0.0
C4216 C 0.32436 0.631 0.36327 0.0
H4217 H 0.29477 0.65647 0.36471 0.0
C4218 C 0.31649 0.61802 0.36852 0.0
C4219 C 0.31626 0.64487 0.36119 0.0
C4220 C 0.32417 0.65923 0.35579 0.0
C4221 C 0.30105 0.61884 0.37292 0.0
C4222 C 0.29326 0.63299 0.37187 0.0
C4223 C 0.30078 0.64564 0.36544 0.0
C4224 C 0.27868 0.63567 0.38015 0.0
C4225 C 0.29356 0.60494 0.37988 0.0
C4226 C 0.26496 0.62831 0.37604 0.0
C4227 C 0.25185 0.62996 0.38519 0.0
C4228 C 0.25241 0.63887 0.39859 0.0
C4229 C 0.26596 0.64671 0.40221 0.0
C4230 C 0.27893 0.64515 0.39309 0.0
H4231 H 0.30162 0.59517 0.381 0.0
H4232 H 0.28897 0.60775 0.39139 0.0
H4233 H 0.28382 0.60127 0.3726 0.0
H4234 H 0.2645 0.62107 0.36599 0.0
H4235 H 0.24151 0.62384 0.38215 0.0
H4236 H 0.84858 0.2431 0.38132 0.0
H4237 H 0.85091 0.26612 0.36548 0.0
H4238 H 0.89305 0.27763 0.38853 0.0
H4239 H 0.89106 0.25448 0.40387 0.0
H4240 H 0.84909 0.29338 0.37777 0.0
H4241 H 0.90363 0.2914 0.34638 0.0
H4242 H 0.89513 0.27448 0.35464 0.0
H4243 H 0.90691 0.28698 0.36611 0.0
C4244 C 0.85866 0.25021 0.38253 0.0
C4245 C 0.86958 0.24705 0.39392 0.0
C4246 C 0.85995 0.26342 0.37354 0.0
C4247 C 0.87221 0.27363 0.3757 0.0
C4248 C 0.88366 0.26985 0.38633 0.0
H4249 H 0.87589 0.36728 0.38778 0.0
H4250 H 0.87643 0.33944 0.38702 0.0
C4251 C 0.88242 0.25667 0.39525 0.0
C4252 C 0.87179 0.28929 0.36903 0.0
H4253 H 0.89467 0.31708 0.35367 0.0
C4254 C 0.85891 0.2984 0.37209 0.0
C4255 C 0.88452 0.29595 0.36151 0.0
C4256 C 0.89824 0.2866 0.35683 0.0
C4257 C 0.85889 0.31413 0.36896 0.0
C4258 C 0.87213 0.321 0.36277 0.0
C4259 C 0.88459 0.31179 0.35861 0.0
C4260 C 0.87374 0.33787 0.36249 0.0
C4261 C 0.84496 0.32348 0.37304 0.0
C4262 C 0.8726 0.34622 0.34882 0.0
C4263 C 0.87229 0.36229 0.34919 0.0
C4264 C 0.87311 0.37014 0.36325 0.0
C4265 C 0.87508 0.36164 0.37676 0.0
C4266 C 0.8754 0.34571 0.37637 0.0
H4267 H 0.83459 0.31621 0.37419 0.0
H4268 H 0.84696 0.32932 0.38415 0.0
H4269 H 0.84277 0.3324 0.36426 0.0
H4270 H 0.87132 0.34033 0.33798 0.0
H4271 H 0.87073 0.36851 0.33859 0.0
H4272 H 0.12584 0.26301 0.64646 0.0
H4273 H 0.14309 0.24154 0.64192 0.0
H4274 H 0.11459 0.22655 0.60445 0.0
H4275 H 0.09795 0.24853 0.60823 0.0
H4276 H 0.1343 0.21395 0.64661 0.0
H4277 H 0.15494 0.21554 0.58719 0.0
H4278 H 0.14645 0.23206 0.59624 0.0
H4279 H 0.13458 0.21771 0.5873 0.0
C4280 C 0.1236 0.25555 0.63682 0.0
C4281 C 0.11037 0.25742 0.62782 0.0
C4282 C 0.13344 0.24318 0.6343 0.0
C4283 C 0.13024 0.2324 0.62279 0.0
C4284 C 0.11759 0.23483 0.61318 0.0
H4285 H 0.12855 0.1385 0.61326 0.0
H4286 H 0.12873 0.16618 0.6095 0.0
C4287 C 0.10788 0.24729 0.61555 0.0
C4288 C 0.13832 0.21742 0.62253 0.0
H4289 H 0.15205 0.18988 0.59837 0.0
C4290 C 0.13863 0.20889 0.63614 0.0
C4291 C 0.14397 0.21073 0.60889 0.0
C4292 C 0.14511 0.2196 0.59414 0.0
C4293 C 0.14333 0.19356 0.63626 0.0
C4294 C 0.14791 0.18657 0.62242 0.0
C4295 C 0.14847 0.19529 0.60896 0.0
C4296 C 0.15004 0.16981 0.62155 0.0
C4297 C 0.14236 0.18463 0.65102 0.0
C4298 C 0.16236 0.16264 0.62895 0.0
C4299 C 0.16232 0.14676 0.63109 0.0
C4300 C 0.14988 0.13791 0.62596 0.0
C4301 C 0.13823 0.14503 0.61746 0.0
C4302 C 0.13834 0.16084 0.61524 0.0
H4303 H 0.13717 0.1914 0.66045 0.0
H4304 H 0.13547 0.17408 0.64932 0.0
H4305 H 0.15402 0.18111 0.65461 0.0
H4306 H 0.17151 0.16941 0.63386 0.0
H4307 H 0.17147 0.14162 0.63768 0.0
H4308 H 0.24889 0.09687 0.60498 0.0
H4309 H 0.2726 0.11041 0.59859 0.0
H4310 H 0.27239 0.13185 0.64307 0.0
H4311 H 0.24835 0.11877 0.64922 0.0
H4312 H 0.28506 0.15072 0.62082 0.0
H4313 H 0.31031 0.09242 0.61862 0.0
H4314 H 0.29527 0.09545 0.60498 0.0
H4315 H 0.29106 0.09587 0.62513 0.0
C4316 C 0.25364 0.10492 0.61314 0.0
C4317 C 0.24687 0.10679 0.62759 0.0
C4318 C 0.26724 0.11253 0.60956 0.0
C4319 C 0.27451 0.12178 0.62053 0.0
C4320 C 0.26705 0.12469 0.63446 0.0
H4321 H 0.36536 0.15196 0.64122 0.0
H4322 H 0.33756 0.14998 0.63912 0.0
C4323 C 0.25329 0.11727 0.63795 0.0
C4324 C 0.2906 0.12683 0.6183 0.0
H4325 H 0.32683 0.11298 0.61359 0.0
C4326 C 0.29419 0.14249 0.61913 0.0
C4327 C 0.30255 0.11606 0.6163 0.0
C4328 C 0.29968 0.09901 0.61635 0.0
C4329 C 0.30941 0.14764 0.61795 0.0
C4330 C 0.3213 0.13684 0.61596 0.0
C4331 C 0.31767 0.12125 0.61491 0.0
C4332 C 0.33774 0.14112 0.616 0.0
C4333 C 0.31268 0.16455 0.61883 0.0
C4334 C 0.3471 0.13709 0.60359 0.0
C4335 C 0.36303 0.13816 0.60476 0.0
C4336 C 0.36991 0.1431 0.61846 0.0
C4337 C 0.36046 0.14808 0.63051 0.0
C4338 C 0.34452 0.14705 0.6293 0.0
H4339 H 0.30233 0.17146 0.6162 0.0
H4340 H 0.31646 0.16746 0.6306 0.0
H4341 H 0.32196 0.16781 0.6108 0.0
H4342 H 0.34211 0.13241 0.59324 0.0
H4343 H 0.36994 0.13425 0.59525 0.0
H4344 H 0.38514 0.37097 0.62621 0.0
H4345 H 0.38418 0.34334 0.62304 0.0
H4346 H 0.3354 0.34395 0.63044 0.0
H4347 H 0.33629 0.37192 0.6337 0.0
H4348 H 0.35098 0.32318 0.6491 0.0
H4349 H 0.36878 0.31527 0.58908 0.0
H4350 H 0.38131 0.3283 0.59879 0.0
H4351 H 0.36147 0.33326 0.59621 0.0
C4352 C 0.37413 0.36531 0.62691 0.0
C4353 C 0.36079 0.37364 0.63023 0.0
C4354 C 0.37359 0.34949 0.62496 0.0
C4355 C 0.35969 0.34158 0.62626 0.0
C4356 C 0.34622 0.34986 0.62921 0.0
H4357 H 0.37983 0.24296 0.61726 0.0
H4358 H 0.36396 0.26612 0.61435 0.0
C4359 C 0.34674 0.36582 0.63103 0.0
C4360 C 0.35987 0.32459 0.62615 0.0
H4361 H 0.37559 0.29463 0.60664 0.0
C4362 C 0.35594 0.31684 0.63965 0.0
C4363 C 0.36607 0.31623 0.61375 0.0
C4364 C 0.36948 0.32369 0.59858 0.0
C4365 C 0.35947 0.30128 0.64159 0.0
C4366 C 0.36729 0.29337 0.62982 0.0
C4367 C 0.3698 0.30073 0.61577 0.0
C4368 C 0.37511 0.27856 0.63267 0.0
C4369 C 0.35545 0.29365 0.65652 0.0
C4370 C 0.38653 0.27786 0.64393 0.0
C4371 C 0.39556 0.26482 0.6455 0.0
C4372 C 0.39341 0.25217 0.63582 0.0
C4373 C 0.38161 0.25255 0.62491 0.0
C4374 C 0.3726 0.26575 0.62323 0.0
H4375 H 0.34506 0.29888 0.66165 0.0
H4376 H 0.35347 0.28119 0.65498 0.0
H4377 H 0.36501 0.29524 0.66474 0.0
H4378 H 0.38894 0.28769 0.6511 0.0
H4379 H 0.40459 0.26478 0.65401 0.0
H4380 H 0.26013 0.38597 0.65644 0.0
H4381 H 0.23659 0.37183 0.65139 0.0
H4382 H 0.23384 0.3923 0.60652 0.0
H4383 H 0.25701 0.40712 0.61202 0.0
H4384 H 0.2092 0.39753 0.62064 0.0
H4385 H 0.22017 0.3362 0.6292 0.0
H4386 H 0.22715 0.34647 0.64549 0.0
H4387 H 0.23557 0.34977 0.62692 0.0
C4388 C 0.2548 0.38696 0.64529 0.0
C4389 C 0.26035 0.39754 0.63458 0.0
C4390 C 0.24136 0.3788 0.64234 0.0
C4391 C 0.23343 0.38079 0.62847 0.0
C4392 C 0.23972 0.39049 0.61728 0.0
H4393 H 0.13419 0.36232 0.61927 0.0
H4394 H 0.16116 0.36166 0.6112 0.0
C4395 C 0.25298 0.3989 0.62037 0.0
C4396 C 0.21743 0.37512 0.6269 0.0
H4397 H 0.1941 0.34495 0.63565 0.0
C4398 C 0.20598 0.38587 0.62341 0.0
C4399 C 0.21308 0.35992 0.6305 0.0
C4400 C 0.22471 0.34743 0.63306 0.0
C4401 C 0.19042 0.3822 0.62458 0.0
C4402 C 0.18614 0.3674 0.62941 0.0
C4403 C 0.19746 0.35632 0.63199 0.0
C4404 C 0.1702 0.36425 0.63411 0.0
C4405 C 0.17862 0.39448 0.62169 0.0
C4406 C 0.16646 0.36539 0.64965 0.0
C4407 C 0.1512 0.36597 0.65422 0.0
C4408 C 0.13938 0.36523 0.64334 0.0
C4409 C 0.14309 0.36284 0.62788 0.0
C4410 C 0.15846 0.36247 0.62326 0.0
H4411 H 0.18388 0.40556 0.61837 0.0
H4412 H 0.17079 0.39078 0.6124 0.0
H4413 H 0.17162 0.39629 0.63214 0.0
H4414 H 0.17537 0.36684 0.65816 0.0
H4415 H 0.14865 0.36772 0.66623 0.0
H4416 H 0.12174 0.367 0.88562 0.0
H4417 H 0.12292 0.33938 0.88865 0.0
H4418 H 0.16915 0.33923 0.87141 0.0
H4419 H 0.16799 0.36714 0.86819 0.0
H4420 H 0.15071 0.31967 0.85581 0.0
H4421 H 0.14288 0.30929 0.91743 0.0
H4422 H 0.12883 0.32265 0.91075 0.0
H4423 H 0.14884 0.32765 0.91003 0.0
C4424 C 0.13231 0.36118 0.8828 0.0
C4425 C 0.14475 0.36926 0.87661 0.0
C4426 C 0.13303 0.34535 0.88468 0.0
C4427 C 0.1462 0.3372 0.88047 0.0
C4428 C 0.15893 0.3453 0.87489 0.0
H4429 H 0.12559 0.23816 0.88662 0.0
H4430 H 0.14196 0.26107 0.88891 0.0
C4431 C 0.15826 0.36125 0.8731 0.0
C4432 C 0.14559 0.32022 0.87993 0.0
H4433 H 0.13227 0.28968 0.90028 0.0
C4434 C 0.14713 0.31301 0.86564 0.0
C4435 C 0.1412 0.31139 0.89277 0.0
C4436 C 0.14052 0.31815 0.90863 0.0
C4437 C 0.14291 0.29765 0.86358 0.0
C4438 C 0.13679 0.28937 0.87605 0.0
C4439 C 0.13673 0.29609 0.89065 0.0
C4440 C 0.12816 0.27493 0.87371 0.0
C4441 C 0.14431 0.29066 0.84786 0.0
C4442 C 0.11505 0.27515 0.86446 0.0
C4443 C 0.10575 0.26226 0.86325 0.0
C4444 C 0.10931 0.24883 0.87131 0.0
C4445 C 0.12268 0.24837 0.88025 0.0
C4446 C 0.13197 0.26142 0.88158 0.0
H4447 H 0.15382 0.29598 0.84133 0.0
H4448 H 0.14627 0.27812 0.84851 0.0
H4449 H 0.13357 0.29272 0.8414 0.0
H4450 H 0.11168 0.28551 0.85855 0.0
H4451 H 0.09554 0.26289 0.85623 0.0
H4452 H 0.13273 0.14189 0.88627 0.0
H4453 H 0.15936 0.14454 0.89502 0.0
H4454 H 0.17489 0.14192 0.84827 0.0
H4455 H 0.14852 0.13902 0.83956 0.0
H4456 H 0.17989 0.11973 0.88735 0.0
H4457 H 0.20276 0.17542 0.86777 0.0
H4458 H 0.18259 0.17209 0.87103 0.0
H4459 H 0.19146 0.16565 0.85362 0.0
C4460 C 0.14182 0.14238 0.87787 0.0
C4461 C 0.13864 0.14015 0.86227 0.0
C4462 C 0.15699 0.1439 0.88287 0.0
C4463 C 0.16907 0.1436 0.87227 0.0
C4464 C 0.16575 0.14247 0.85661 0.0
H4465 H 0.258 0.1181 0.8527 0.0
H4466 H 0.23395 0.13202 0.85582 0.0
C4467 C 0.15068 0.14069 0.85166 0.0
C4468 C 0.18511 0.14158 0.87737 0.0
H4469 H 0.22121 0.1552 0.87143 0.0
C4470 C 0.18895 0.12765 0.8843 0.0
C4471 C 0.19683 0.15188 0.8732 0.0
C4472 C 0.19322 0.16717 0.86611 0.0
C4473 C 0.20426 0.12312 0.88599 0.0
C4474 C 0.21609 0.13312 0.88114 0.0
C4475 C 0.21219 0.14754 0.87517 0.0
C4476 C 0.23225 0.12792 0.88021 0.0
C4477 C 0.20747 0.10713 0.89172 0.0
C4478 C 0.23981 0.12179 0.89301 0.0
C4479 C 0.2534 0.11355 0.89116 0.0
C4480 C 0.25991 0.11183 0.87657 0.0
C4481 C 0.25326 0.1194 0.86408 0.0
C4482 C 0.2395 0.12732 0.86587 0.0
H4483 H 0.19703 0.09987 0.89177 0.0
H4484 H 0.21623 0.1014 0.88452 0.0
H4485 H 0.21183 0.10773 0.90362 0.0
H4486 H 0.23469 0.12251 0.90426 0.0
H4487 H 0.25838 0.1078 0.90095 0.0
H4488 H 0.34257 0.15032 0.85406 0.0
H4489 H 0.34691 0.1767 0.86204 0.0
H4490 H 0.37223 0.16083 0.90131 0.0
H4491 H 0.36847 0.13433 0.89304 0.0
H4492 H 0.34241 0.19537 0.88665 0.0
H4493 H 0.40448 0.18436 0.87825 0.0
H4494 H 0.39004 0.17069 0.87281 0.0
H4495 H 0.39574 0.17251 0.89252 0.0
C4496 C 0.34881 0.15238 0.86457 0.0
C4497 C 0.35547 0.14021 0.87274 0.0
C4498 C 0.35126 0.16752 0.86914 0.0
C4499 C 0.36029 0.17077 0.88202 0.0
C4500 C 0.36562 0.1586 0.89106 0.0
H4501 H 0.40713 0.2556 0.90476 0.0
H4502 H 0.39307 0.23165 0.90828 0.0
C4503 C 0.36337 0.14345 0.88638 0.0
C4504 C 0.36543 0.18673 0.8849 0.0
H4505 H 0.39746 0.2091 0.88579 0.0
C4506 C 0.35445 0.19837 0.88661 0.0
C4507 C 0.38116 0.19068 0.88465 0.0
C4508 C 0.39354 0.17896 0.88182 0.0
C4509 C 0.35878 0.21382 0.88798 0.0
C4510 C 0.37447 0.2177 0.88759 0.0
C4511 C 0.38543 0.20606 0.88625 0.0
C4512 C 0.38 0.23375 0.88737 0.0
C4513 C 0.34659 0.22589 0.88973 0.0
C4514 C 0.3769 0.24315 0.87471 0.0
C4515 C 0.38498 0.25683 0.87264 0.0
C4516 C 0.39636 0.26125 0.88314 0.0
C4517 C 0.39852 0.25242 0.89641 0.0
C4518 C 0.39048 0.23876 0.89846 0.0
H4519 H 0.33564 0.22092 0.89386 0.0
H4520 H 0.35032 0.23497 0.89782 0.0
H4521 H 0.34444 0.2313 0.87845 0.0
H4522 H 0.36908 0.23938 0.86586 0.0
H4523 H 0.38318 0.26327 0.86221 0.0
H4524 H 0.36826 0.37495 0.89586 0.0
H4525 H 0.3413 0.37908 0.90203 0.0
H4526 H 0.32819 0.34849 0.86554 0.0
H4527 H 0.35503 0.34394 0.85963 0.0
H4528 H 0.32295 0.39277 0.88236 0.0
H4529 H 0.29691 0.33705 0.89698 0.0
H4530 H 0.31736 0.33998 0.8968 0.0
H4531 H 0.3072 0.33616 0.87927 0.0
C4532 C 0.35965 0.36871 0.88946 0.0
C4533 C 0.36382 0.35921 0.87716 0.0
C4534 C 0.34422 0.3711 0.893 0.0
C4535 C 0.33265 0.36406 0.88431 0.0
C4536 C 0.33683 0.35381 0.87266 0.0
H4537 H 0.24169 0.38831 0.85752 0.0
H4538 H 0.26568 0.37461 0.86243 0.0
C4539 C 0.35226 0.35129 0.86921 0.0
C4540 C 0.3165 0.36923 0.88578 0.0
H4541 H 0.27946 0.35681 0.88852 0.0
C4542 C 0.31349 0.38491 0.88401 0.0
C4543 C 0.30409 0.35899 0.88776 0.0
C4544 C 0.30656 0.34213 0.89046 0.0
C4545 C 0.29848 0.39057 0.88363 0.0
C4546 C 0.28608 0.3803 0.88524 0.0
C4547 C 0.28901 0.36465 0.88729 0.0
C4548 C 0.27007 0.38579 0.88408 0.0
C4549 C 0.29601 0.40745 0.88089 0.0
C4550 C 0.26424 0.396 0.89501 0.0
C4551 C 0.25058 0.40383 0.89223 0.0
C4552 C 0.24247 0.40152 0.87851 0.0
C4553 C 0.24762 0.39025 0.86823 0.0
C4554 C 0.26135 0.38246 0.871 0.0
H4555 H 0.30661 0.41327 0.87698 0.0
H4556 H 0.28692 0.40931 0.87221 0.0
H4557 H 0.29227 0.41295 0.89171 0.0
H4558 H 0.27072 0.3986 0.90526 0.0
H4559 H 0.24679 0.41235 0.90041 0.0
H4560 H 0.67032 0.14043 0.15169 0.0
H4561 H 0.66265 0.14371 0.17833 0.0
H4562 H 0.6164 0.15315 0.16398 0.0
H4563 H 0.62406 0.14991 0.13708 0.0
H4564 H 0.64565 0.16802 0.19598 0.0
H4565 H 0.61552 0.11209 0.18959 0.0
H4566 H 0.6296 0.11838 0.17589 0.0
H4567 H 0.6111 0.12724 0.17636 0.0
C4568 C 0.65857 0.14353 0.15416 0.0
C4569 C 0.64773 0.14473 0.14232 0.0
C4570 C 0.65423 0.14548 0.16939 0.0
C4571 C 0.63894 0.14853 0.17313 0.0
C4572 C 0.62825 0.15075 0.16131 0.0
H4573 H 0.61003 0.11587 0.26218 0.0
H4574 H 0.60735 0.13131 0.23896 0.0
C4575 C 0.63264 0.14894 0.14597 0.0
C4576 C 0.63414 0.14727 0.18935 0.0
H4577 H 0.61919 0.12133 0.21428 0.0
C4578 C 0.63955 0.158 0.20002 0.0
C4579 C 0.62615 0.13423 0.19457 0.0
C4580 C 0.62027 0.12224 0.18359 0.0
C4581 C 0.63772 0.15569 0.21585 0.0
C4582 C 0.63074 0.14205 0.22112 0.0
C4583 C 0.62453 0.13181 0.21035 0.0
C4584 C 0.63142 0.13699 0.2374 0.0
C4585 C 0.64355 0.16777 0.22671 0.0
C4586 C 0.64565 0.13578 0.24485 0.0
C4587 C 0.64708 0.1273 0.25834 0.0
C4588 C 0.63439 0.11962 0.26445 0.0
C4589 C 0.61994 0.12187 0.25778 0.0
C4590 C 0.61845 0.13059 0.24444 0.0
H4591 H 0.64238 0.17935 0.22161 0.0
H4592 H 0.63734 0.16755 0.23779 0.0
H4593 H 0.6559 0.16582 0.22891 0.0
H4594 H 0.65593 0.14018 0.23954 0.0
H4595 H 0.65839 0.12545 0.26307 0.0
H4596 H 0.65958 0.38862 0.24463 0.0
H4597 H 0.65547 0.37282 0.26735 0.0
H4598 H 0.61453 0.39837 0.27769 0.0
H4599 H 0.6181 0.41356 0.25463 0.0
H4600 H 0.65694 0.3837 0.29505 0.0
H4601 H 0.60017 0.35685 0.28918 0.0
H4602 H 0.60994 0.36539 0.27313 0.0
H4603 H 0.59877 0.37704 0.28599 0.0
C4604 C 0.64937 0.39046 0.25139 0.0
C4605 C 0.63923 0.40245 0.24784 0.0
C4606 C 0.64709 0.38149 0.26447 0.0
C4607 C 0.63463 0.38428 0.27425 0.0
C4608 C 0.62404 0.39568 0.27023 0.0
H4609 H 0.62022 0.38353 0.36945 0.0
H4610 H 0.61885 0.38585 0.3416 0.0
C4611 C 0.62623 0.40454 0.25711 0.0
C4612 C 0.63384 0.37696 0.28962 0.0
H4613 H 0.60916 0.36078 0.31534 0.0
C4614 C 0.6466 0.37835 0.29932 0.0
C4615 C 0.62036 0.36996 0.29531 0.0
C4616 C 0.60661 0.36708 0.28527 0.0
C4617 C 0.64598 0.37374 0.31468 0.0
C4618 C 0.63224 0.3676 0.32055 0.0
C4619 C 0.61966 0.36559 0.31079 0.0
C4620 C 0.63055 0.36453 0.33713 0.0
C4621 C 0.65978 0.37612 0.32481 0.0
C4622 C 0.63711 0.35148 0.34379 0.0
C4623 C 0.63782 0.35006 0.35974 0.0
C4624 C 0.63214 0.36176 0.36925 0.0
C4625 C 0.62474 0.37434 0.36247 0.0
C4626 C 0.62392 0.37568 0.34655 0.0
H4627 H 0.66943 0.38159 0.31862 0.0
H4628 H 0.65666 0.3834 0.33474 0.0
H4629 H 0.66371 0.36493 0.32934 0.0
H4630 H 0.64233 0.34279 0.33666 0.0
H4631 H 0.64367 0.34026 0.36458 0.0
H4632 H 0.11544 0.64819 0.2465 0.0
H4633 H 0.12993 0.64541 0.27015 0.0
H4634 H 0.11313 0.59922 0.27505 0.0
H4635 H 0.098 0.60231 0.25164 0.0
H4636 H 0.1069 0.61423 0.29915 0.0
H4637 H 0.16734 0.62675 0.2871 0.0
H4638 H 0.15582 0.6418 0.27937 0.0
H4639 H 0.15386 0.62259 0.27199 0.0
C4640 C 0.11532 0.63724 0.25231 0.0
C4641 C 0.10564 0.62545 0.24726 0.0
C4642 C 0.12369 0.63561 0.26583 0.0
C4643 C 0.12283 0.62202 0.27439 0.0
C4644 C 0.11405 0.6098 0.26867 0.0
H4645 H 0.14276 0.62005 0.37379 0.0
H4646 H 0.14331 0.61032 0.34736 0.0
C4647 C 0.10544 0.61154 0.25528 0.0
C4648 C 0.12872 0.62169 0.29038 0.0
H4649 H 0.1583 0.63399 0.31286 0.0
C4650 C 0.11833 0.61805 0.3021 0.0
C4651 C 0.14364 0.62666 0.29436 0.0
C4652 C 0.15581 0.62949 0.28248 0.0
C4653 C 0.12201 0.62041 0.31754 0.0
C4654 C 0.13643 0.62659 0.32139 0.0
C4655 C 0.14721 0.62931 0.30983 0.0
C4656 C 0.13936 0.63244 0.337 0.0
C4657 C 0.11004 0.61732 0.3296 0.0
C4658 C 0.13745 0.6481 0.3398 0.0
C4659 C 0.13695 0.65362 0.35477 0.0
C4660 C 0.13851 0.64358 0.36721 0.0
C4661 C 0.14157 0.62804 0.3644 0.0
C4662 C 0.14188 0.62247 0.34934 0.0
H4663 H 0.09917 0.61298 0.32463 0.0
H4664 H 0.11443 0.60872 0.33784 0.0
H4665 H 0.10759 0.62797 0.33609 0.0
H4666 H 0.13543 0.65595 0.33042 0.0
H4667 H 0.13469 0.66567 0.3566 0.0
H4668 H 0.86952 0.17383 0.35726 0.0
H4669 H 0.8736 0.17161 0.32966 0.0
H4670 H 0.90048 0.13089 0.33677 0.0
H4671 H 0.89662 0.13305 0.36435 0.0
H4672 H 0.91017 0.15076 0.31089 0.0
H4673 H 0.84828 0.13535 0.31123 0.0
H4674 H 0.85338 0.15356 0.31934 0.0
H4675 H 0.85948 0.13625 0.32855 0.0
C4676 C 0.8767 0.16466 0.35302 0.0
C4677 C 0.88246 0.15341 0.363 0.0
C4678 C 0.879 0.16341 0.33723 0.0
C4679 C 0.88707 0.15091 0.33119 0.0
C4680 C 0.89415 0.14058 0.34121 0.0
H4681 H 0.8974 0.09526 0.25294 0.0
H4682 H 0.90219 0.11167 0.27497 0.0
C4683 C 0.89189 0.14182 0.35699 0.0
C4684 C 0.88611 0.14716 0.31469 0.0
H4685 H 0.86137 0.13271 0.28817 0.0
C4686 C 0.89948 0.14702 0.30581 0.0
C4687 C 0.87214 0.14227 0.30811 0.0
C4688 C 0.85749 0.14173 0.31726 0.0
C4689 C 0.89929 0.14184 0.29056 0.0
C4690 C 0.88543 0.1363 0.28421 0.0
C4691 C 0.87198 0.13702 0.29296 0.0
C4692 C 0.88467 0.12823 0.26924 0.0
C4693 C 0.91394 0.14225 0.28147 0.0
C4694 C 0.87332 0.13208 0.25851 0.0
C4695 C 0.87029 0.12246 0.24607 0.0
C4696 C 0.87855 0.10879 0.24411 0.0
C4697 C 0.89067 0.10558 0.25423 0.0
C4698 C 0.89359 0.11512 0.26674 0.0
H4699 H 0.92148 0.1517 0.28541 0.0
H4700 H 0.92023 0.13136 0.28321 0.0
H4701 H 0.91169 0.14369 0.26905 0.0
H4702 H 0.86622 0.14209 0.26024 0.0
H4703 H 0.86079 0.12523 0.23861 0.0
H4704 H 0.4131 0.88821 0.25268 0.0
H4705 H 0.39836 0.89206 0.27602 0.0
H4706 H 0.36921 0.8541 0.26392 0.0
H4707 H 0.38461 0.84951 0.241 0.0
H4708 H 0.36981 0.89775 0.28477 0.0
H4709 H 0.38607 0.83928 0.3038 0.0
H4710 H 0.39396 0.84789 0.28684 0.0
H4711 H 0.37507 0.83968 0.28647 0.0
C4712 C 0.40351 0.88069 0.25493 0.0
C4713 C 0.40033 0.86828 0.24515 0.0
C4714 C 0.395 0.88299 0.26825 0.0
C4715 C 0.38297 0.87306 0.27203 0.0
C4716 C 0.37877 0.8616 0.26152 0.0
H4717 H 0.33916 0.86335 0.36166 0.0
H4718 H 0.34198 0.86471 0.33383 0.0
C4719 C 0.38745 0.85914 0.24827 0.0
C4720 C 0.37588 0.87401 0.2875 0.0
H4721 H 0.37136 0.85394 0.32076 0.0
C4722 C 0.37002 0.88812 0.29258 0.0
C4723 C 0.37627 0.86148 0.29781 0.0
C4724 C 0.3833 0.84627 0.29355 0.0
C4725 C 0.36484 0.8901 0.30769 0.0
C4726 C 0.36546 0.87764 0.31795 0.0
C4727 C 0.37079 0.86343 0.31278 0.0
C4728 C 0.36196 0.87929 0.33448 0.0
C4729 C 0.35895 0.90551 0.3127 0.0
C4730 C 0.37205 0.88734 0.34404 0.0
C4731 C 0.37057 0.88647 0.35996 0.0
C4732 C 0.35892 0.87757 0.3666 0.0
C4733 C 0.34821 0.87037 0.35695 0.0
C4734 C 0.34982 0.8711 0.34103 0.0
H4735 H 0.35614 0.91295 0.30278 0.0
H4736 H 0.3486 0.90421 0.31995 0.0
H4737 H 0.36786 0.91133 0.31965 0.0
H4738 H 0.38162 0.89356 0.33922 0.0
H4739 H 0.37901 0.89214 0.36705 0.0
H4740 H 0.88856 0.41678 0.2508 0.0
H4741 H 0.89256 0.40115 0.228 0.0
H4742 H 0.86069 0.36765 0.24518 0.0
H4743 H 0.85594 0.38367 0.26763 0.0
H4744 H 0.90102 0.37191 0.2201 0.0
H4745 H 0.83957 0.3822 0.20668 0.0
H4746 H 0.84918 0.39178 0.22221 0.0
H4747 H 0.84319 0.37221 0.22424 0.0
C4748 C 0.88251 0.40601 0.24981 0.0
C4749 C 0.87162 0.40169 0.26084 0.0
C4750 C 0.88491 0.39701 0.23683 0.0
C4751 C 0.87659 0.38345 0.23468 0.0
C4752 C 0.86694 0.37828 0.24643 0.0
H4753 H 0.86018 0.3441 0.14402 0.0
H4754 H 0.8635 0.3444 0.17183 0.0
C4755 C 0.86437 0.38738 0.25936 0.0
C4756 C 0.87671 0.37594 0.21945 0.0
H4757 H 0.85417 0.36986 0.1881 0.0
C4758 C 0.89074 0.37123 0.21317 0.0
C4759 C 0.86329 0.37512 0.21037 0.0
C4760 C 0.84796 0.38069 0.21612 0.0
C4761 C 0.89178 0.36621 0.19792 0.0
C4762 C 0.87847 0.36602 0.18872 0.0
C4763 C 0.86434 0.36995 0.19522 0.0
C4764 C 0.87902 0.36368 0.17193 0.0
C4765 C 0.90715 0.3615 0.19169 0.0
C4766 C 0.88691 0.37422 0.16275 0.0
C4767 C 0.88496 0.37414 0.14688 0.0
C4768 C 0.87505 0.36356 0.1399 0.0
C4769 C 0.8679 0.35241 0.14903 0.0
C4770 C 0.86979 0.35254 0.16493 0.0
H4771 H 0.91488 0.3575 0.20096 0.0
H4772 H 0.90597 0.35226 0.18303 0.0
H4773 H 0.91262 0.37151 0.18612 0.0
H4774 H 0.89383 0.38312 0.16791 0.0
H4775 H 0.89066 0.38287 0.14019 0.0
H4776 H 0.14064 0.88336 0.13343 0.0
H4777 H 0.14169 0.89174 0.16031 0.0
H4778 H 0.13749 0.84485 0.17502 0.0
H4779 H 0.13615 0.83651 0.14838 0.0
H4780 H 0.11543 0.88345 0.18005 0.0
H4781 H 0.17091 0.86413 0.204 0.0
H4782 H 0.16812 0.86805 0.18387 0.0
H4783 H 0.16138 0.8504 0.19196 0.0
C4784 C 0.1404 0.87485 0.14242 0.0
C4785 C 0.13823 0.85931 0.13888 0.0
C4786 C 0.14098 0.87963 0.15774 0.0
C4787 C 0.13983 0.86889 0.16963 0.0
C4788 C 0.13866 0.8533 0.16603 0.0
H4789 H 0.11466 0.8523 0.26051 0.0
H4790 H 0.12775 0.8539 0.23584 0.0
C4791 C 0.13778 0.84856 0.15081 0.0
C4792 C 0.13734 0.87382 0.18566 0.0
H4793 H 0.15072 0.86871 0.222 0.0
C4794 C 0.12327 0.88061 0.18925 0.0
C4795 C 0.14754 0.86987 0.19755 0.0
C4796 C 0.16291 0.86281 0.1942 0.0
C4797 C 0.11862 0.88259 0.20449 0.0
C4798 C 0.12862 0.87819 0.2165 0.0
C4799 C 0.14308 0.87215 0.21284 0.0
C4800 C 0.12353 0.87813 0.23275 0.0
C4801 C 0.10257 0.88828 0.20747 0.0
C4802 C 0.11756 0.89136 0.23966 0.0
C4803 C 0.10982 0.89039 0.25364 0.0
C4804 C 0.10841 0.87626 0.26115 0.0
C4805 C 0.11572 0.86335 0.255 0.0
C4806 C 0.12316 0.86426 0.24087 0.0
H4807 H 0.09528 0.88767 0.19706 0.0
H4808 H 0.09697 0.88152 0.21664 0.0
H4809 H 0.10303 0.90042 0.21115 0.0
H4810 H 0.11812 0.90229 0.23385 0.0
H4811 H 0.10429 0.90049 0.25821 0.0
H4812 H 0.42428 0.6064 0.26537 0.0
H4813 H 0.41185 0.5982 0.24161 0.0
H4814 H 0.38221 0.63758 0.24348 0.0
H4815 H 0.39457 0.64584 0.26725 0.0
H4816 H 0.36867 0.6086 0.23047 0.0
H4817 H 0.42424 0.62687 0.2051 0.0
H4818 H 0.42506 0.61275 0.22001 0.0
H4819 H 0.41883 0.63182 0.22439 0.0
C4820 C 0.4148 0.61305 0.26095 0.0
C4821 C 0.41052 0.62686 0.26802 0.0
C4822 C 0.40771 0.60835 0.2474 0.0
C4823 C 0.39631 0.61743 0.24071 0.0
C4824 C 0.391 0.63042 0.24851 0.0
H4825 H 0.35438 0.63843 0.15635 0.0
H4826 H 0.3591 0.6315 0.18289 0.0
C4827 C 0.39805 0.63511 0.2621 0.0
C4828 C 0.39174 0.6149 0.22461 0.0
H4829 H 0.4049 0.61958 0.18821 0.0
C4830 C 0.3766 0.6108 0.22118 0.0
C4831 C 0.40215 0.61777 0.21256 0.0
C4832 C 0.41846 0.62265 0.2156 0.0
C4833 C 0.37152 0.60973 0.20594 0.0
C4834 C 0.38178 0.61323 0.19391 0.0
C4835 C 0.39705 0.61679 0.1974 0.0
C4836 C 0.3768 0.61494 0.17775 0.0
C4837 C 0.35522 0.60495 0.20291 0.0
C4838 C 0.38507 0.60787 0.16591 0.0
C4839 C 0.38259 0.61205 0.15066 0.0
C4840 C 0.37178 0.62337 0.14699 0.0
C4841 C 0.36279 0.62965 0.15877 0.0
C4842 C 0.36537 0.62558 0.174 0.0
H4843 H 0.3509 0.59735 0.21214 0.0
H4844 H 0.34783 0.61528 0.20268 0.0
H4845 H 0.3541 0.59892 0.19178 0.0
H4846 H 0.39399 0.59967 0.16853 0.0
H4847 H 0.38965 0.60694 0.14185 0.0
H4848 H 0.85654 0.35313 0.83911 0.0
H4849 H 0.83004 0.36141 0.84145 0.0
H4850 H 0.84387 0.39729 0.87244 0.0
H4851 H 0.87042 0.38875 0.87053 0.0
H4852 H 0.82366 0.37885 0.88516 0.0
H4853 H 0.80155 0.39486 0.82812 0.0
H4854 H 0.81075 0.37652 0.82783 0.0
H4855 H 0.82178 0.3934 0.83214 0.0
C4856 C 0.85405 0.36309 0.84605 0.0
C4857 C 0.86558 0.37014 0.85481 0.0
C4858 C 0.83884 0.3679 0.84729 0.0
C4859 C 0.83491 0.38003 0.85707 0.0
C4860 C 0.84662 0.3879 0.86481 0.0
H4861 H 0.74852 0.39993 0.9021 0.0
H4862 H 0.7724 0.40461 0.88822 0.0
C4863 C 0.8618 0.383 0.86371 0.0
C4864 C 0.81866 0.38264 0.86132 0.0
H4865 H 0.78257 0.38752 0.84694 0.0
C4866 C 0.81474 0.38108 0.87681 0.0
C4867 C 0.80696 0.38533 0.85042 0.0
C4868 C 0.8105 0.38777 0.83372 0.0
C4869 C 0.79948 0.38156 0.88166 0.0
C4870 C 0.78776 0.38391 0.87074 0.0
C4871 C 0.79161 0.38578 0.85527 0.0
C4872 C 0.77148 0.38345 0.8754 0.0
C4873 C 0.79599 0.3789 0.89838 0.0
C4874 C 0.76257 0.37054 0.87195 0.0
C4875 C 0.74884 0.36792 0.87976 0.0
C4876 C 0.74394 0.37816 0.89115 0.0
C4877 C 0.75209 0.39185 0.89339 0.0
C4878 C 0.76572 0.39451 0.88551 0.0
H4879 H 0.80605 0.37444 0.90474 0.0
H4880 H 0.7925 0.38986 0.90374 0.0
H4881 H 0.7864 0.37066 0.89969 0.0
H4882 H 0.76685 0.36186 0.8642 0.0
H4883 H 0.74284 0.35722 0.87792 0.0
H4884 H 0.12011 0.87034 0.87895 0.0
H4885 H 0.11505 0.84299 0.87915 0.0
H4886 H 0.12822 0.83992 0.83169 0.0
H4887 H 0.134 0.86736 0.83158 0.0
H4888 H 0.09811 0.82189 0.86447 0.0
H4889 H 0.15984 0.813 0.85122 0.0
H4890 H 0.15214 0.83168 0.85523 0.0
H4891 H 0.14883 0.82282 0.83694 0.0
C4892 C 0.12168 0.86396 0.86843 0.0
C4893 C 0.12781 0.87099 0.85534 0.0
C4894 C 0.11873 0.84827 0.86856 0.0
C4895 C 0.12168 0.83928 0.85557 0.0
C4896 C 0.12631 0.84653 0.842 0.0
H4897 H 0.11254 0.74061 0.88023 0.0
H4898 H 0.10881 0.76322 0.86376 0.0
C4899 C 0.1295 0.86224 0.84192 0.0
C4900 C 0.12158 0.82234 0.85708 0.0
H4901 H 0.1459 0.79182 0.85919 0.0
C4902 C 0.10845 0.8152 0.86301 0.0
C4903 C 0.13513 0.81362 0.85517 0.0
C4904 C 0.14983 0.82063 0.8494 0.0
C4905 C 0.10883 0.79998 0.8682 0.0
C4906 C 0.12263 0.7916 0.86711 0.0
C4907 C 0.13535 0.7983 0.85997 0.0
C4908 C 0.12515 0.77733 0.87595 0.0
C4909 C 0.09488 0.7934 0.87592 0.0
C4910 C 0.13587 0.77762 0.88788 0.0
C4911 C 0.13808 0.76484 0.89709 0.0
C4912 C 0.12955 0.75142 0.89469 0.0
C4913 C 0.11918 0.75086 0.88239 0.0
C4914 C 0.11696 0.76377 0.87307 0.0
H4915 H 0.0856 0.80199 0.87726 0.0
H4916 H 0.09039 0.78373 0.86902 0.0
H4917 H 0.09792 0.7889 0.88741 0.0
H4918 H 0.14238 0.7879 0.89029 0.0
H4919 H 0.14644 0.76553 0.90623 0.0
H4920 H 0.75043 0.10105 0.90843 0.0
H4921 H 0.72617 0.09661 0.89517 0.0
H4922 H 0.73473 0.13569 0.86634 0.0
H4923 H 0.75899 0.14021 0.8796 0.0
H4924 H 0.70459 0.12024 0.8974 0.0
H4925 H 0.71457 0.10463 0.83667 0.0
H4926 H 0.72884 0.10191 0.8514 0.0
H4927 H 0.72561 0.12059 0.84349 0.0
C4928 C 0.74734 0.10842 0.89896 0.0
C4929 C 0.75652 0.12107 0.89515 0.0
C4930 C 0.73352 0.10584 0.89136 0.0
C4931 C 0.72867 0.11578 0.87974 0.0
C4932 C 0.73838 0.1277 0.87508 0.0
H4933 H 0.6443 0.14633 0.8416 0.0
H4934 H 0.67083 0.13849 0.84552 0.0
C4935 C 0.75224 0.13029 0.88268 0.0
C4936 C 0.71251 0.11544 0.8746 0.0
H4937 H 0.68934 0.11303 0.84319 0.0
C4938 C 0.70122 0.1184 0.88559 0.0
C4939 C 0.70822 0.11328 0.85916 0.0
C4940 C 0.71992 0.1098 0.84698 0.0
C4941 C 0.68578 0.11982 0.88153 0.0
C4942 C 0.6814 0.11771 0.86606 0.0
C4943 C 0.69268 0.11447 0.85506 0.0
C4944 C 0.66533 0.12007 0.8611 0.0
C4945 C 0.67446 0.12439 0.89377 0.0
C4946 C 0.65336 0.11174 0.86784 0.0
C4947 C 0.63818 0.11637 0.86584 0.0
C4948 C 0.63471 0.12918 0.85677 0.0
C4949 C 0.64659 0.13645 0.84872 0.0
C4950 C 0.66179 0.13198 0.85094 0.0
H4951 H 0.68023 0.12921 0.90403 0.0
H4952 H 0.66623 0.13301 0.88939 0.0
H4953 H 0.66792 0.11415 0.89745 0.0
H4954 H 0.65582 0.10223 0.87539 0.0
H4955 H 0.62925 0.11041 0.87202 0.0
H4956 H 0.40083 0.76305 0.89435 0.0
H4957 H 0.40577 0.74001 0.87916 0.0
H4958 H 0.35914 0.741 0.86284 0.0
H4959 H 0.35455 0.76438 0.87735 0.0
H4960 H 0.39251 0.7155 0.88693 0.0
H4961 H 0.37831 0.72298 0.82619 0.0
H4962 H 0.38166 0.73914 0.83865 0.0
H4963 H 0.36293 0.73051 0.8374 0.0
C4964 C 0.39194 0.75875 0.88686 0.0
C4965 C 0.37735 0.76547 0.88691 0.0
C4966 C 0.39472 0.74555 0.87824 0.0
C4967 C 0.38286 0.73869 0.86977 0.0
C4968 C 0.36865 0.74619 0.86887 0.0
H4969 H 0.34113 0.65611 0.86308 0.0
H4970 H 0.35101 0.68188 0.859 0.0
C4971 C 0.36597 0.75956 0.87724 0.0
C4972 C 0.38417 0.72244 0.86477 0.0
H4973 H 0.37221 0.69752 0.83708 0.0
C4974 C 0.38861 0.71162 0.87581 0.0
C4975 C 0.37909 0.71725 0.85028 0.0
C4976 C 0.3754 0.72815 0.83744 0.0
C4977 C 0.38678 0.69588 0.87329 0.0
C4978 C 0.38042 0.69078 0.85931 0.0
C4979 C 0.37704 0.70147 0.84782 0.0
C4980 C 0.37471 0.67489 0.85777 0.0
C4981 C 0.39048 0.6849 0.88611 0.0
C4982 C 0.38473 0.66232 0.85769 0.0
C4983 C 0.37908 0.64748 0.85998 0.0
C4984 C 0.36337 0.64514 0.86253 0.0
C4985 C 0.35331 0.65761 0.86132 0.0
C4986 C 0.35893 0.67234 0.85889 0.0
H4987 H 0.39414 0.69089 0.89672 0.0
H4988 H 0.38034 0.67773 0.88879 0.0
H4989 H 0.39986 0.67716 0.88248 0.0
H4990 H 0.39696 0.66409 0.85678 0.0
H4991 H 0.38708 0.63806 0.86087 0.0
H4992 H 0.86797 0.12228 0.67019 0.0
H4993 H 0.84043 0.11659 0.67254 0.0
H4994 H 0.83433 0.12673 0.62465 0.0
H4995 H 0.86137 0.13205 0.62214 0.0
H4996 H 0.81539 0.13505 0.66743 0.0
H4997 H 0.81271 0.08618 0.62797 0.0
H4998 H 0.83059 0.093 0.6358 0.0
H4999 H 0.82263 0.10157 0.61878 0.0
C5000 C 0.86074 0.12307 0.66015 0.0
C5001 C 0.86693 0.12753 0.64596 0.0
C5002 C 0.84503 0.11986 0.66152 0.0
C5003 C 0.83536 0.12089 0.64868 0.0
C5004 C 0.84158 0.1254 0.63462 0.0
H5005 H 0.75246 0.15404 0.62394 0.0
H5006 H 0.77473 0.14818 0.63948 0.0
C5007 C 0.85712 0.12858 0.63324 0.0
C5008 C 0.81859 0.11822 0.64969 0.0
H5009 H 0.78988 0.10252 0.62852 0.0
C5010 C 0.80974 0.12761 0.65924 0.0
C5011 C 0.81111 0.10811 0.63948 0.0
C5012 C 0.8198 0.09653 0.63008 0.0
C5013 C 0.79373 0.12838 0.6576 0.0
C5014 C 0.78651 0.11997 0.64573 0.0
C5015 C 0.79524 0.10931 0.63743 0.0
C5016 C 0.77082 0.12366 0.63999 0.0
C5017 C 0.78487 0.13856 0.66835 0.0
C5018 C 0.76082 0.11197 0.63514 0.0
C5019 C 0.74822 0.11536 0.62579 0.0
C5020 C 0.74522 0.13053 0.62149 0.0
C5021 C 0.75432 0.14231 0.62749 0.0
C5022 C 0.76707 0.13892 0.63649 0.0
H5023 H 0.78977 0.13796 0.68007 0.0
H5024 H 0.78585 0.15062 0.66451 0.0
H5025 H 0.77259 0.13535 0.66889 0.0
H5026 H 0.7634 0.10011 0.6376 0.0
H5027 H 0.74155 0.10608 0.62099 0.0
H5028 H 0.35517 0.7524 0.61899 0.0
H5029 H 0.36159 0.77621 0.63237 0.0
H5030 H 0.4078 0.77338 0.61531 0.0
H5031 H 0.40125 0.74984 0.60151 0.0
H5032 H 0.38332 0.78798 0.65312 0.0
H5033 H 0.39101 0.8115 0.5945 0.0
H5034 H 0.38313 0.79276 0.59789 0.0
H5035 H 0.40344 0.79584 0.59913 0.0
C5036 C 0.36683 0.7566 0.61855 0.0
C5037 C 0.3777 0.74942 0.60914 0.0
C5038 C 0.37048 0.77021 0.62615 0.0
C5039 C 0.38507 0.77675 0.62451 0.0
C5040 C 0.39638 0.7687 0.61644 0.0
H5041 H 0.40901 0.87293 0.63482 0.0
H5042 H 0.41216 0.84513 0.63448 0.0
C5043 C 0.39268 0.75522 0.60866 0.0
C5044 C 0.3877 0.79281 0.62936 0.0
H5045 H 0.3942 0.8285 0.61493 0.0
C5046 C 0.38586 0.79684 0.64481 0.0
C5047 C 0.39088 0.80438 0.61847 0.0
C5048 C 0.3921 0.80099 0.60156 0.0
C5049 C 0.38699 0.81217 0.64964 0.0
C5050 C 0.3899 0.82371 0.63869 0.0
C5051 C 0.39215 0.81961 0.62334 0.0
C5052 C 0.38922 0.84028 0.64237 0.0
C5053 C 0.38497 0.81588 0.66636 0.0
C5054 C 0.37543 0.84679 0.64738 0.0
C5055 C 0.37358 0.86267 0.64757 0.0
C5056 C 0.38546 0.87234 0.64262 0.0
C5057 C 0.39962 0.86583 0.63865 0.0
C5058 C 0.40145 0.84993 0.63846 0.0
H5059 H 0.38771 0.80586 0.67369 0.0
H5060 H 0.39232 0.82565 0.66984 0.0
H5061 H 0.37286 0.81906 0.66847 0.0
H5062 H 0.36573 0.8396 0.65016 0.0
H5063 H 0.36253 0.86731 0.65074 0.0
H5064 H 0.63364 0.38577 0.64435 0.0
H5065 H 0.66021 0.39486 0.64651 0.0
H5066 H 0.67651 0.34891 0.63901 0.0
H5067 H 0.6502 0.33983 0.63671 0.0
H5068 H 0.69379 0.36939 0.66237 0.0
H5069 H 0.68439 0.39304 0.60381 0.0
H5070 H 0.67113 0.39765 0.61888 0.0
H5071 H 0.67193 0.37852 0.61153 0.0
C5072 C 0.6429 0.37758 0.64361 0.0
C5073 C 0.63992 0.36215 0.64016 0.0
C5074 C 0.65804 0.38277 0.64483 0.0
C5075 C 0.67026 0.37254 0.64283 0.0
C5076 C 0.66722 0.35696 0.64063 0.0
H5077 H 0.75986 0.35313 0.62018 0.0
H5078 H 0.73625 0.35684 0.63452 0.0
C5079 C 0.65219 0.35181 0.63923 0.0
C5080 C 0.68611 0.37803 0.64063 0.0
H5081 H 0.70955 0.3905 0.61216 0.0
C5082 C 0.69728 0.37438 0.65157 0.0
C5083 C 0.69057 0.38463 0.62658 0.0
C5084 C 0.67896 0.3887 0.61444 0.0
C5085 C 0.71293 0.37643 0.64845 0.0
C5086 C 0.71746 0.38175 0.63384 0.0
C5087 C 0.70617 0.38639 0.62337 0.0
C5088 C 0.7335 0.38068 0.62823 0.0
C5089 C 0.72439 0.37254 0.66076 0.0
C5090 C 0.74004 0.39283 0.61996 0.0
C5091 C 0.75337 0.39056 0.61142 0.0
C5092 C 0.76052 0.37618 0.61119 0.0
C5093 C 0.7547 0.3644 0.62039 0.0
C5094 C 0.74122 0.36657 0.62869 0.0
H5095 H 0.71968 0.37516 0.67227 0.0
H5096 H 0.72683 0.36009 0.6604 0.0
H5097 H 0.73527 0.37891 0.65926 0.0
H5098 H 0.73431 0.4038 0.61936 0.0
H5099 H 0.75764 0.3998 0.60435 0.0
H5100 H 0.15039 0.76052 0.61873 0.0
H5101 H 0.14699 0.73624 0.63213 0.0
H5102 H 0.09939 0.73558 0.61895 0.0
H5103 H 0.10308 0.7595 0.60472 0.0
H5104 H 0.1305 0.72269 0.6538 0.0
H5105 H 0.11437 0.69852 0.59708 0.0
H5106 H 0.12089 0.71793 0.59928 0.0
H5107 H 0.10153 0.71285 0.60417 0.0
C5108 C 0.13909 0.75543 0.61912 0.0
C5109 C 0.12701 0.76177 0.61066 0.0
C5110 C 0.13715 0.74152 0.62674 0.0
C5111 C 0.12305 0.73381 0.62615 0.0
C5112 C 0.11051 0.74105 0.61914 0.0
H5113 H 0.11592 0.63439 0.64172 0.0
H5114 H 0.10766 0.66127 0.64318 0.0
C5115 C 0.11254 0.75479 0.61119 0.0
C5116 C 0.12222 0.71756 0.63113 0.0
H5117 H 0.11735 0.68131 0.6172 0.0
C5118 C 0.12738 0.71366 0.64587 0.0
C5119 C 0.11826 0.7057 0.62074 0.0
C5120 C 0.11358 0.70889 0.6044 0.0
C5121 C 0.12928 0.6983 0.65024 0.0
C5122 C 0.12582 0.68657 0.63968 0.0
C5123 C 0.11981 0.69039 0.62532 0.0
C5124 C 0.1306 0.67052 0.64214 0.0
C5125 C 0.13553 0.69468 0.6659 0.0
C5126 C 0.1462 0.66688 0.64131 0.0
C5127 C 0.15088 0.65166 0.64018 0.0
C5128 C 0.14005 0.63979 0.64004 0.0
C5129 C 0.12449 0.64335 0.64193 0.0
C5130 C 0.11977 0.65866 0.64275 0.0
H5131 H 0.13404 0.70442 0.67393 0.0
H5132 H 0.12984 0.6844 0.67074 0.0
H5133 H 0.14795 0.69219 0.66496 0.0
H5134 H 0.15471 0.67586 0.64056 0.0
H5135 H 0.16295 0.64922 0.63876 0.0
H5136 H 0.87039 0.87386 0.3981 0.0
H5137 H 0.87459 0.84751 0.4066 0.0
H5138 H 0.84906 0.83082 0.36777 0.0
H5139 H 0.84426 0.85703 0.35959 0.0
H5140 H 0.84518 0.81226 0.39229 0.0
H5141 H 0.90702 0.82438 0.38357 0.0
H5142 H 0.89814 0.83606 0.39791 0.0
H5143 H 0.89232 0.83779 0.37823 0.0
C5144 C 0.86534 0.86459 0.3916 0.0
C5145 C 0.85725 0.86755 0.378 0.0
C5146 C 0.86784 0.84952 0.39641 0.0
C5147 C 0.8626 0.83717 0.38753 0.0
C5148 C 0.85336 0.84015 0.37473 0.0
H5149 H 0.887 0.74557 0.36644 0.0
H5150 H 0.87255 0.76916 0.37061 0.0
C5151 C 0.85064 0.85519 0.37005 0.0
C5152 C 0.86804 0.82132 0.39043 0.0
H5153 H 0.90045 0.7995 0.3909 0.0
C5154 C 0.85728 0.80948 0.39214 0.0
C5155 C 0.88384 0.81764 0.39005 0.0
C5156 C 0.89601 0.82959 0.3872 0.0
C5157 C 0.86188 0.7941 0.39333 0.0
C5158 C 0.87763 0.79049 0.39277 0.0
C5159 C 0.88838 0.80233 0.39149 0.0
C5160 C 0.8834 0.77454 0.39221 0.0
C5161 C 0.84991 0.7818 0.39503 0.0
C5162 C 0.89397 0.7695 0.4032 0.0
C5163 C 0.90221 0.756 0.40087 0.0
C5164 C 0.90017 0.74737 0.38741 0.0
C5165 C 0.88873 0.75183 0.377 0.0
C5166 C 0.88045 0.76534 0.37937 0.0
H5167 H 0.8389 0.78654 0.39926 0.0
H5168 H 0.84781 0.77643 0.38371 0.0
H5169 H 0.85385 0.77273 0.40301 0.0
H5170 H 0.89646 0.77646 0.41316 0.0
H5171 H 0.91084 0.75277 0.40916 0.0
H5172 H 0.76052 0.87865 0.35737 0.0
H5173 H 0.73612 0.86578 0.36216 0.0
H5174 H 0.73798 0.87992 0.4094 0.0
H5175 H 0.76213 0.89328 0.40446 0.0
H5176 H 0.72113 0.84501 0.3822 0.0
H5177 H 0.70303 0.90533 0.39139 0.0
H5178 H 0.72173 0.90038 0.38428 0.0
H5179 H 0.71751 0.89868 0.40435 0.0
C5180 C 0.75611 0.87832 0.36895 0.0
C5181 C 0.76316 0.88694 0.38055 0.0
C5182 C 0.7421 0.87106 0.37166 0.0
C5183 C 0.73503 0.87227 0.38603 0.0
C5184 C 0.7431 0.87912 0.39814 0.0
H5185 H 0.63745 0.86968 0.40604 0.0
H5186 H 0.66514 0.86787 0.40956 0.0
C5187 C 0.75699 0.88657 0.39538 0.0
C5188 C 0.71843 0.86891 0.38752 0.0
H5189 H 0.68398 0.8866 0.39276 0.0
C5190 C 0.713 0.85404 0.38466 0.0
C5191 C 0.70779 0.88078 0.39051 0.0
C5192 C 0.71274 0.89722 0.39267 0.0
C5193 C 0.69722 0.85075 0.38475 0.0
C5194 C 0.68663 0.86267 0.38761 0.0
C5195 C 0.6921 0.87743 0.39074 0.0
C5196 C 0.6698 0.8606 0.38635 0.0
C5197 C 0.692 0.83459 0.38174 0.0
C5198 C 0.66314 0.85673 0.37225 0.0
C5199 C 0.64729 0.85777 0.37018 0.0
C5200 C 0.63779 0.86283 0.38217 0.0
C5201 C 0.6444 0.86579 0.39655 0.0
C5202 C 0.66025 0.86475 0.39859 0.0
H5203 H 0.70118 0.82618 0.38428 0.0
H5204 H 0.68175 0.83172 0.38868 0.0
H5205 H 0.68891 0.83342 0.36948 0.0
H5206 H 0.67026 0.85379 0.36254 0.0
H5207 H 0.6426 0.85539 0.35895 0.0
H5208 H 0.67315 0.64076 0.37422 0.0
H5209 H 0.67358 0.66878 0.37669 0.0
H5210 H 0.62623 0.66823 0.39054 0.0
H5211 H 0.62575 0.6405 0.38821 0.0
H5212 H 0.6556 0.68761 0.35923 0.0
H5213 H 0.64399 0.69921 0.42012 0.0
H5214 H 0.65082 0.68086 0.41346 0.0
H5215 H 0.63071 0.6854 0.41278 0.0
C5216 C 0.66299 0.64661 0.37822 0.0
C5217 C 0.6494 0.63844 0.38098 0.0
C5218 C 0.66324 0.66261 0.37959 0.0
C5219 C 0.65 0.6706 0.384 0.0
C5220 C 0.63669 0.66233 0.38747 0.0
H5221 H 0.60002 0.74421 0.35593 0.0
H5222 H 0.6161 0.72167 0.35932 0.0
C5223 C 0.6364 0.64645 0.386 0.0
C5224 C 0.64917 0.68755 0.38304 0.0
H5225 H 0.63449 0.71838 0.40201 0.0
C5226 C 0.65142 0.69445 0.36872 0.0
C5227 C 0.64397 0.69659 0.39543 0.0
C5228 C 0.6424 0.69014 0.41135 0.0
C5229 C 0.64718 0.70972 0.36611 0.0
C5230 C 0.64035 0.71821 0.37807 0.0
C5231 C 0.63952 0.7118 0.39277 0.0
C5232 C 0.63186 0.73259 0.37502 0.0
C5233 C 0.64934 0.71638 0.35035 0.0
C5234 C 0.63531 0.74625 0.38281 0.0
C5235 C 0.62606 0.75925 0.38085 0.0
C5236 C 0.61309 0.75858 0.37135 0.0
C5237 C 0.60991 0.74499 0.36336 0.0
C5238 C 0.61918 0.73215 0.36519 0.0
H5239 H 0.65915 0.71093 0.34438 0.0
H5240 H 0.63892 0.7142 0.34342 0.0
H5241 H 0.65128 0.72893 0.35086 0.0
H5242 H 0.64496 0.74677 0.39057 0.0
H5243 H 0.62867 0.76958 0.38717 0.0
H5244 H 0.74889 0.62218 0.36256 0.0
H5245 H 0.77294 0.63559 0.36798 0.0
H5246 H 0.77685 0.61155 0.41084 0.0
H5247 H 0.75279 0.59819 0.40558 0.0
H5248 H 0.7867 0.65271 0.3967 0.0
H5249 H 0.81246 0.59671 0.3803 0.0
H5250 H 0.79313 0.60185 0.37514 0.0
H5251 H 0.79752 0.59647 0.39445 0.0
C5252 C 0.75457 0.62018 0.3734 0.0
C5253 C 0.74907 0.60901 0.38357 0.0
C5254 C 0.76832 0.62783 0.37646 0.0
C5255 C 0.77669 0.62442 0.38973 0.0
C5256 C 0.77056 0.61427 0.40051 0.0
H5257 H 0.8749 0.63123 0.40145 0.0
H5258 H 0.84787 0.62757 0.40755 0.0
C5259 C 0.75686 0.60663 0.39746 0.0
C5260 C 0.79277 0.62951 0.39112 0.0
H5261 H 0.82926 0.6165 0.38674 0.0
C5262 C 0.79606 0.64482 0.39464 0.0
C5263 C 0.80489 0.61915 0.38844 0.0
C5264 C 0.80193 0.60263 0.38427 0.0
C5265 C 0.81127 0.65006 0.39555 0.0
C5266 C 0.82341 0.63975 0.39251 0.0
C5267 C 0.82001 0.62439 0.38922 0.0
C5268 C 0.83968 0.6446 0.39154 0.0
C5269 C 0.81416 0.66652 0.39986 0.0
C5270 C 0.84416 0.65583 0.38097 0.0
C5271 C 0.85964 0.65809 0.37763 0.0
C5272 C 0.87092 0.64892 0.38454 0.0
C5273 C 0.86649 0.63842 0.39587 0.0
C5274 C 0.85103 0.63631 0.39936 0.0
H5275 H 0.80466 0.67117 0.40691 0.0
H5276 H 0.82504 0.6678 0.40631 0.0
H5277 H 0.81489 0.67351 0.3893 0.0
H5278 H 0.83567 0.66214 0.37452 0.0
H5279 H 0.86263 0.66623 0.36878 0.0
H5280 H 0.85483 0.64501 0.15158 0.0
H5281 H 0.8562 0.67258 0.14743 0.0
H5282 H 0.86897 0.66497 0.1004 0.0
H5283 H 0.86779 0.63732 0.10447 0.0
H5284 H 0.89013 0.68157 0.11707 0.0
H5285 H 0.8323 0.70622 0.12518 0.0
H5286 H 0.83794 0.69325 0.14008 0.0
H5287 H 0.83541 0.68622 0.12091 0.0
C5288 C 0.85752 0.64917 0.14022 0.0
C5289 C 0.8614 0.63894 0.1284 0.0
C5290 C 0.85818 0.66498 0.13785 0.0
C5291 C 0.8626 0.67085 0.12358 0.0
C5292 C 0.86545 0.66067 0.11148 0.0
H5293 H 0.90477 0.75919 0.10403 0.0
H5294 H 0.89036 0.73547 0.09997 0.0
C5295 C 0.86478 0.64486 0.11383 0.0
C5296 C 0.86672 0.68725 0.12208 0.0
H5297 H 0.85345 0.72368 0.1272 0.0
C5298 C 0.88205 0.69079 0.11899 0.0
C5299 C 0.8562 0.69923 0.12483 0.0
C5300 C 0.8395 0.69608 0.12781 0.0
C5301 C 0.88733 0.70593 0.11917 0.0
C5302 C 0.87686 0.71796 0.12207 0.0
C5303 C 0.86142 0.71447 0.12486 0.0
C5304 C 0.88216 0.73406 0.12329 0.0
C5305 C 0.90425 0.70879 0.11704 0.0
C5306 C 0.88128 0.74175 0.13738 0.0
C5307 C 0.88923 0.75548 0.1396 0.0
C5308 C 0.8982 0.76162 0.12779 0.0
C5309 C 0.89795 0.75462 0.11331 0.0
C5310 C 0.88983 0.74104 0.11103 0.0
H5311 H 0.9111 0.6982 0.11863 0.0
H5312 H 0.90633 0.71301 0.10526 0.0
H5313 H 0.90846 0.71756 0.12522 0.0
H5314 H 0.87538 0.73659 0.14697 0.0
H5315 H 0.88936 0.7606 0.1509 0.0
H5316 H 0.74954 0.88919 0.1519 0.0
H5317 H 0.77327 0.87476 0.14879 0.0
H5318 H 0.77211 0.88324 0.10016 0.0
H5319 H 0.74875 0.89849 0.10346 0.0
H5320 H 0.78617 0.85135 0.13354 0.0
H5321 H 0.80957 0.9066 0.11207 0.0
H5322 H 0.79044 0.90499 0.1195 0.0
H5323 H 0.79477 0.89835 0.10049 0.0
C5324 C 0.75406 0.88748 0.14048 0.0
C5325 C 0.74745 0.89499 0.12793 0.0
C5326 C 0.76765 0.87928 0.1387 0.0
C5327 C 0.77475 0.87834 0.12431 0.0
C5328 C 0.7671 0.88424 0.11145 0.0
H5329 H 0.87448 0.86581 0.11864 0.0
H5330 H 0.84791 0.86267 0.10986 0.0
C5331 C 0.75368 0.89276 0.11329 0.0
C5332 C 0.79097 0.8733 0.12339 0.0
H5333 H 0.82697 0.88712 0.11699 0.0
C5334 C 0.79507 0.85906 0.12965 0.0
C5335 C 0.80266 0.88339 0.11837 0.0
C5336 C 0.79922 0.89923 0.11235 0.0
C5337 C 0.8105 0.85501 0.13173 0.0
C5338 C 0.82207 0.86541 0.12739 0.0
C5339 C 0.81802 0.87913 0.12017 0.0
C5340 C 0.83812 0.86375 0.13257 0.0
C5341 C 0.81432 0.83992 0.13914 0.0
C5342 C 0.84138 0.86515 0.14822 0.0
C5343 C 0.85641 0.86722 0.15318 0.0
C5344 C 0.86848 0.86779 0.14261 0.0
C5345 C 0.86537 0.86532 0.12702 0.0
C5346 C 0.85024 0.86352 0.12201 0.0
H5347 H 0.80494 0.83147 0.13756 0.0
H5348 H 0.82508 0.83509 0.13439 0.0
H5349 H 0.81595 0.8417 0.15161 0.0
H5350 H 0.83221 0.86567 0.15653 0.0
H5351 H 0.85851 0.86904 0.16527 0.0
H5352 H 0.60322 0.75046 0.11376 0.0
H5353 H 0.61577 0.77479 0.10802 0.0
H5354 H 0.64528 0.7689 0.14713 0.0
H5355 H 0.63274 0.74447 0.1529 0.0
H5356 H 0.61338 0.79769 0.13036 0.0
H5357 H 0.67413 0.7879 0.11464 0.0
H5358 H 0.65966 0.7732 0.11295 0.0
H5359 H 0.66762 0.7778 0.13133 0.0
C5360 C 0.61273 0.75412 0.12083 0.0
C5361 C 0.61696 0.74564 0.13382 0.0
C5362 C 0.61989 0.76801 0.11754 0.0
C5363 C 0.63148 0.77366 0.12712 0.0
C5364 C 0.63655 0.76464 0.13943 0.0
H5365 H 0.66848 0.86193 0.14882 0.0
H5366 H 0.66466 0.83462 0.14432 0.0
C5367 C 0.62938 0.75068 0.14272 0.0
C5368 C 0.63627 0.7899 0.12578 0.0
H5369 H 0.66701 0.81354 0.12078 0.0
C5370 C 0.62507 0.80116 0.12806 0.0
C5371 C 0.65156 0.79437 0.123 0.0
C5372 C 0.66395 0.78271 0.12022 0.0
C5373 C 0.62875 0.81677 0.12803 0.0
C5374 C 0.64404 0.82133 0.12519 0.0
C5375 C 0.65527 0.81006 0.12278 0.0
C5376 C 0.64859 0.83771 0.12575 0.0
C5377 C 0.61631 0.82818 0.13176 0.0
C5378 C 0.64147 0.84854 0.11624 0.0
C5379 C 0.64347 0.86421 0.11891 0.0
C5380 C 0.65283 0.86931 0.13097 0.0
C5381 C 0.6611 0.85842 0.13949 0.0
C5382 C 0.65895 0.84277 0.13693 0.0
H5383 H 0.60633 0.82266 0.13736 0.0
H5384 H 0.62066 0.83734 0.13942 0.0
H5385 H 0.61222 0.83357 0.12102 0.0
H5386 H 0.63373 0.84489 0.10727 0.0
H5387 H 0.63708 0.87228 0.11202 0.0
H5388 H 0.74214 0.61123 0.15593 0.0
H5389 H 0.7196 0.6269 0.15089 0.0
H5390 H 0.74474 0.65242 0.11697 0.0
H5391 H 0.76752 0.6365 0.122 0.0
H5392 H 0.71367 0.65932 0.15096 0.0
H5393 H 0.70851 0.63248 0.09322 0.0
H5394 H 0.72106 0.62461 0.1076 0.0
H5395 H 0.72596 0.64221 0.09827 0.0
C5396 C 0.74293 0.62036 0.14758 0.0
C5397 C 0.75645 0.6226 0.13923 0.0
C5398 C 0.73009 0.62935 0.14475 0.0
C5399 C 0.73044 0.64072 0.13345 0.0
C5400 C 0.74421 0.6436 0.12565 0.0
H5401 H 0.6341 0.6729 0.12671 0.0
H5402 H 0.66188 0.67678 0.12341 0.0
C5403 C 0.75719 0.6346 0.12857 0.0
C5404 C 0.71582 0.64816 0.12912 0.0
H5405 H 0.68658 0.64368 0.1036 0.0
C5406 C 0.70787 0.65643 0.14037 0.0
C5407 C 0.70831 0.64432 0.11529 0.0
C5408 C 0.71629 0.63539 0.10285 0.0
C5409 C 0.6922 0.65967 0.13877 0.0
C5410 C 0.68438 0.65455 0.12556 0.0
C5411 C 0.69267 0.64763 0.11367 0.0
C5412 C 0.66752 0.65276 0.1256 0.0
C5413 C 0.68378 0.66715 0.15185 0.0
C5414 C 0.66156 0.63802 0.12752 0.0
C5415 C 0.64593 0.63582 0.12949 0.0
C5416 C 0.63582 0.64831 0.12946 0.0
C5417 C 0.64165 0.66307 0.12676 0.0
C5418 C 0.65747 0.6653 0.12494 0.0
H5419 H 0.69155 0.67034 0.1614 0.0
H5420 H 0.67792 0.67763 0.14773 0.0
H5421 H 0.67488 0.65926 0.15631 0.0
H5422 H 0.66911 0.62819 0.12808 0.0
H5423 H 0.64179 0.62429 0.1314 0.0
H5424 H 0.39054 0.88141 0.74111 0.0
H5425 H 0.39456 0.86546 0.76403 0.0
H5426 H 0.35372 0.88448 0.78419 0.0
H5427 H 0.34973 0.90018 0.76148 0.0
H5428 H 0.39982 0.87748 0.7922 0.0
H5429 H 0.34929 0.84005 0.79598 0.0
H5430 H 0.35479 0.84937 0.77836 0.0
H5431 H 0.34342 0.85936 0.79238 0.0
C5432 C 0.38222 0.88173 0.75028 0.0
C5433 C 0.3698 0.8919 0.74959 0.0
C5434 C 0.38452 0.87269 0.76335 0.0
C5435 C 0.3743 0.87357 0.77576 0.0
C5436 C 0.36153 0.88324 0.77466 0.0
H5437 H 0.37754 0.88673 0.86738 0.0
H5438 H 0.38094 0.8851 0.83984 0.0
C5439 C 0.35931 0.8923 0.76172 0.0
C5440 C 0.37788 0.8663 0.79071 0.0
H5441 H 0.36036 0.84819 0.82055 0.0
C5442 C 0.3914 0.87065 0.79823 0.0
C5443 C 0.36708 0.85715 0.79859 0.0
C5444 C 0.35292 0.85108 0.79081 0.0
C5445 C 0.39364 0.86747 0.81382 0.0
C5446 C 0.38198 0.85994 0.82212 0.0
C5447 C 0.36922 0.85418 0.81425 0.0
C5448 C 0.38154 0.86036 0.8391 0.0
C5449 C 0.4081 0.87298 0.82147 0.0
C5450 C 0.38065 0.84695 0.84793 0.0
C5451 C 0.37874 0.84785 0.86387 0.0
C5452 C 0.37736 0.86218 0.87109 0.0
C5453 C 0.37853 0.87551 0.86219 0.0
C5454 C 0.38061 0.87461 0.84642 0.0
H5455 H 0.41775 0.87341 0.81322 0.0
H5456 H 0.40627 0.88474 0.8259 0.0
H5457 H 0.41134 0.86548 0.8312 0.0
H5458 H 0.38116 0.83583 0.84246 0.0
H5459 H 0.37774 0.83739 0.87044 0.0
H5460 H 0.40142 0.59692 0.75756 0.0
H5461 H 0.40565 0.61108 0.73381 0.0
H5462 H 0.36392 0.63628 0.74132 0.0
H5463 H 0.35952 0.62204 0.765 0.0
H5464 H 0.38328 0.60811 0.7106 0.0
H5465 H 0.39383 0.66916 0.72452 0.0
H5466 H 0.39701 0.6539 0.73812 0.0
H5467 H 0.37794 0.66061 0.73438 0.0
C5468 C 0.39334 0.60575 0.75435 0.0
C5469 C 0.38006 0.60826 0.76309 0.0
C5470 C 0.39581 0.61387 0.74081 0.0
C5471 C 0.38514 0.62477 0.73582 0.0
C5472 C 0.37245 0.62811 0.74509 0.0
H5473 H 0.35579 0.66627 0.65291 0.0
H5474 H 0.36296 0.66076 0.67929 0.0
C5475 C 0.36994 0.61995 0.75864 0.0
C5476 C 0.38594 0.63073 0.71995 0.0
H5477 H 0.38718 0.66342 0.69861 0.0
C5478 C 0.38439 0.62018 0.70794 0.0
C5479 C 0.3872 0.64648 0.71657 0.0
C5480 C 0.38922 0.65822 0.72905 0.0
C5481 C 0.38341 0.62497 0.69267 0.0
C5482 C 0.38455 0.64077 0.68921 0.0
C5483 C 0.38647 0.65132 0.70123 0.0
C5484 C 0.38232 0.64652 0.67335 0.0
C5485 C 0.3803 0.61308 0.68049 0.0
C5486 C 0.39135 0.6411 0.6612 0.0
C5487 C 0.38714 0.64404 0.64603 0.0
C5488 C 0.37398 0.65271 0.64276 0.0
C5489 C 0.36592 0.65944 0.65498 0.0
C5490 C 0.37002 0.65631 0.67012 0.0
H5491 H 0.37607 0.60217 0.68547 0.0
H5492 H 0.3717 0.61725 0.67212 0.0
H5493 H 0.39106 0.61055 0.67425 0.0
H5494 H 0.40119 0.6339 0.66344 0.0
H5495 H 0.39371 0.63885 0.63689 0.0
H5496 H 0.88279 0.38084 0.76728 0.0
H5497 H 0.86695 0.38489 0.74424 0.0
H5498 H 0.89141 0.3487 0.72122 0.0
H5499 H 0.90704 0.3447 0.74401 0.0
H5500 H 0.87868 0.39355 0.71603 0.0
H5501 H 0.84732 0.33915 0.70972 0.0
H5502 H 0.85589 0.34502 0.72762 0.0
H5503 H 0.86726 0.33572 0.71315 0.0
C5504 C 0.88443 0.37354 0.75739 0.0
C5505 C 0.89603 0.36244 0.75734 0.0
C5506 C 0.87545 0.37587 0.74426 0.0
C5507 C 0.87783 0.36693 0.73108 0.0
C5508 C 0.88908 0.35548 0.73134 0.0
H5509 H 0.88614 0.37765 0.63838 0.0
H5510 H 0.88602 0.37967 0.66613 0.0
C5511 C 0.89808 0.35326 0.74432 0.0
C5512 C 0.87003 0.37047 0.7164 0.0
H5513 H 0.85305 0.35273 0.686 0.0
C5514 C 0.87269 0.38477 0.70961 0.0
C5515 C 0.86196 0.35915 0.70808 0.0
C5516 C 0.8578 0.34396 0.71511 0.0
C5517 C 0.86878 0.38753 0.69427 0.0
C5518 C 0.86225 0.3756 0.68545 0.0
C5519 C 0.85826 0.36182 0.69267 0.0
C5520 C 0.86159 0.37632 0.66849 0.0
C5521 C 0.8723 0.40297 0.68745 0.0
C5522 C 0.84788 0.37369 0.66048 0.0
C5523 C 0.84792 0.37251 0.64446 0.0
C5524 C 0.86172 0.37365 0.63626 0.0
C5525 C 0.87531 0.37671 0.64432 0.0
C5526 C 0.87524 0.37801 0.66023 0.0
H5527 H 0.87184 0.41209 0.6963 0.0
H5528 H 0.88406 0.40284 0.68267 0.0
H5529 H 0.86418 0.40588 0.67811 0.0
H5530 H 0.83725 0.37218 0.66664 0.0
H5531 H 0.83729 0.37003 0.63858 0.0
H5532 H 0.10032 0.9127 0.75506 0.0
H5533 H 0.09516 0.89791 0.73183 0.0
H5534 H 0.13759 0.87351 0.73789 0.0
H5535 H 0.14293 0.88835 0.76098 0.0
H5536 H 0.11655 0.90135 0.70807 0.0
H5537 H 0.10809 0.84002 0.72182 0.0
H5538 H 0.10502 0.85512 0.73564 0.0
H5539 H 0.12409 0.84878 0.73133 0.0
C5540 C 0.10835 0.90388 0.75167 0.0
C5541 C 0.12211 0.90181 0.75977 0.0
C5542 C 0.10534 0.8954 0.73845 0.0
C5543 C 0.11595 0.88457 0.73317 0.0
C5544 C 0.1291 0.88159 0.74191 0.0
H5545 H 0.14717 0.84494 0.65073 0.0
H5546 H 0.13906 0.84963 0.67699 0.0
C5547 C 0.13214 0.89011 0.75513 0.0
C5548 C 0.1148 0.87863 0.71732 0.0
H5549 H 0.11475 0.84594 0.69588 0.0
C5550 C 0.11584 0.88925 0.70536 0.0
C5551 C 0.11409 0.86284 0.71389 0.0
C5552 C 0.11263 0.85101 0.72634 0.0
C5553 C 0.11699 0.88454 0.69008 0.0
C5554 C 0.11652 0.8687 0.68657 0.0
C5555 C 0.11497 0.85806 0.69853 0.0
C5556 C 0.11923 0.86309 0.67075 0.0
C5557 C 0.11969 0.89658 0.67798 0.0
C5558 C 0.11027 0.86829 0.65846 0.0
C5559 C 0.11506 0.86589 0.64337 0.0
C5560 C 0.12868 0.85789 0.64036 0.0
C5561 C 0.13667 0.85123 0.65264 0.0
C5562 C 0.13203 0.85389 0.66771 0.0
H5563 H 0.12339 0.90766 0.68302 0.0
H5564 H 0.12856 0.89281 0.6697 0.0
H5565 H 0.1089 0.89864 0.67162 0.0
H5566 H 0.10007 0.87501 0.66053 0.0
H5567 H 0.10854 0.87096 0.63414 0.0
H5568 H 0.59076 0.1112 0.7497 0.0
H5569 H 0.60619 0.10773 0.72676 0.0
H5570 H 0.63491 0.14556 0.74027 0.0
H5571 H 0.61895 0.14967 0.76283 0.0
H5572 H 0.62455 0.14965 0.71255 0.0
H5573 H 0.64683 0.09065 0.71528 0.0
H5574 H 0.62651 0.09084 0.71795 0.0
H5575 H 0.63873 0.10012 0.73176 0.0
C5576 C 0.6005 0.11866 0.74792 0.0
C5577 C 0.60348 0.13083 0.75805 0.0
C5578 C 0.60948 0.1165 0.73488 0.0
C5579 C 0.62186 0.12627 0.73181 0.0
C5580 C 0.62547 0.13781 0.74241 0.0
H5581 H 0.66835 0.1413 0.64411 0.0
H5582 H 0.66483 0.13803 0.6717 0.0
C5583 C 0.61639 0.14008 0.7554 0.0
C5584 C 0.62949 0.12584 0.71659 0.0
H5585 H 0.64496 0.10178 0.68985 0.0
C5586 C 0.62934 0.13925 0.70775 0.0
C5587 C 0.63567 0.11226 0.71023 0.0
C5588 C 0.63709 0.09771 0.71939 0.0
C5589 C 0.63448 0.1393 0.69256 0.0
C5590 C 0.64002 0.12559 0.68601 0.0
C5591 C 0.64067 0.11227 0.69492 0.0
C5592 C 0.64401 0.12483 0.66956 0.0
C5593 C 0.63328 0.15387 0.68336 0.0
C5594 C 0.63385 0.11788 0.65926 0.0
C5595 C 0.63579 0.11975 0.64349 0.0
C5596 C 0.64796 0.12859 0.63777 0.0
C5597 C 0.65882 0.13447 0.64811 0.0
C5598 C 0.65682 0.13265 0.66389 0.0
H5599 H 0.62687 0.16296 0.68952 0.0
H5600 H 0.64494 0.15823 0.68085 0.0
H5601 H 0.62751 0.15163 0.67225 0.0
H5602 H 0.62389 0.11179 0.66343 0.0
H5603 H 0.62726 0.11498 0.63585 0.0
H5604 H 0.11156 0.64515 0.87157 0.0
H5605 H 0.10079 0.64788 0.84567 0.0
H5606 H 0.14578 0.64183 0.82639 0.0
H5607 H 0.1565 0.63893 0.852 0.0
H5608 H 0.12342 0.66512 0.81094 0.0
H5609 H 0.10241 0.60557 0.82046 0.0
H5610 H 0.0983 0.6203 0.83429 0.0
H5611 H 0.1175 0.61343 0.83215 0.0
C5612 C 0.11917 0.64486 0.8618 0.0
C5613 C 0.13481 0.64162 0.86372 0.0
C5614 C 0.11302 0.64642 0.84705 0.0
C5615 C 0.12251 0.64499 0.83417 0.0
C5616 C 0.13829 0.64304 0.8362 0.0
H5617 H 0.14116 0.62398 0.74529 0.0
H5618 H 0.13618 0.63881 0.76832 0.0
C5619 C 0.14438 0.64128 0.85083 0.0
C5620 C 0.11612 0.64291 0.81864 0.0
H5621 H 0.10413 0.6141 0.79531 0.0
C5622 C 0.11877 0.65414 0.8075 0.0
C5623 C 0.10992 0.62864 0.81424 0.0
C5624 C 0.10684 0.61621 0.82583 0.0
C5625 C 0.11629 0.65108 0.79189 0.0
C5626 C 0.11161 0.63623 0.78735 0.0
C5627 C 0.10777 0.62548 0.79867 0.0
C5628 C 0.11293 0.63064 0.77129 0.0
C5629 C 0.11913 0.66368 0.78048 0.0
C5630 C 0.1015 0.62123 0.76496 0.0
C5631 C 0.10454 0.61237 0.75197 0.0
C5632 C 0.11896 0.61302 0.74493 0.0
C5633 C 0.12986 0.6235 0.75036 0.0
C5634 C 0.12695 0.63208 0.76352 0.0
H5635 H 0.11567 0.67493 0.78529 0.0
H5636 H 0.13156 0.66433 0.77797 0.0
H5637 H 0.11281 0.66175 0.76962 0.0
H5638 H 0.09061 0.61987 0.77071 0.0
H5639 H 0.09601 0.6043 0.74801 0.0
H5640 H 0.83369 0.1241 0.86313 0.0
H5641 H 0.83323 0.12225 0.83501 0.0
H5642 H 0.88205 0.11503 0.83483 0.0
H5643 H 0.88258 0.11684 0.86258 0.0
H5644 H 0.84903 0.14237 0.81613 0.0
H5645 H 0.86762 0.0834 0.80382 0.0
H5646 H 0.85977 0.08896 0.82214 0.0
H5647 H 0.87976 0.09191 0.81801 0.0
C5648 C 0.84422 0.12173 0.85706 0.0
C5649 C 0.85818 0.12067 0.86501 0.0
C5650 C 0.84396 0.1207 0.84103 0.0
C5651 C 0.85757 0.11825 0.83284 0.0
C5652 C 0.87135 0.11655 0.84089 0.0
H5653 H 0.90597 0.15344 0.76256 0.0
H5654 H 0.88918 0.14763 0.78403 0.0
C5655 C 0.87165 0.11775 0.85677 0.0
C5656 C 0.85812 0.11945 0.81593 0.0
H5657 H 0.87568 0.10288 0.78526 0.0
C5658 C 0.85439 0.13355 0.80923 0.0
C5659 C 0.86485 0.10789 0.80682 0.0
C5660 C 0.86807 0.09214 0.81306 0.0
C5661 C 0.85876 0.13695 0.79416 0.0
C5662 C 0.86722 0.12604 0.78572 0.0
C5663 C 0.86942 0.11136 0.79182 0.0
C5664 C 0.87606 0.13042 0.77193 0.0
C5665 C 0.85504 0.15252 0.78773 0.0
C5666 C 0.87439 0.12256 0.758 0.0
C5667 C 0.88408 0.12586 0.74564 0.0
C5668 C 0.89575 0.13683 0.74722 0.0
C5669 C 0.89715 0.14485 0.76108 0.0
C5670 C 0.88744 0.14166 0.7733 0.0
H5671 H 0.8443 0.15709 0.79277 0.0
H5672 H 0.86441 0.16058 0.79066 0.0
H5673 H 0.85383 0.15214 0.77509 0.0
H5674 H 0.86579 0.11371 0.75678 0.0
H5675 H 0.88282 0.1195 0.73508 0.0
H5676 H 0.62176 0.38659 0.73996 0.0
H5677 H 0.63858 0.39088 0.76226 0.0
H5678 H 0.61461 0.3555 0.78692 0.0
H5679 H 0.59804 0.35123 0.76489 0.0
H5680 H 0.62829 0.40026 0.79081 0.0
H5681 H 0.65895 0.3455 0.79676 0.0
H5682 H 0.6498 0.35119 0.7791 0.0
H5683 H 0.63888 0.34221 0.7941 0.0
C5684 C 0.62039 0.37955 0.75006 0.0
C5685 C 0.60862 0.36863 0.75079 0.0
C5686 C 0.62995 0.38201 0.76276 0.0
C5687 C 0.62802 0.37334 0.77618 0.0
C5688 C 0.61659 0.36208 0.77661 0.0
H5689 H 0.62026 0.38407 0.8678 0.0
H5690 H 0.62097 0.38653 0.84011 0.0
C5691 C 0.60702 0.35974 0.76406 0.0
C5692 C 0.63649 0.377 0.79047 0.0
H5693 H 0.65376 0.35925 0.82065 0.0
C5694 C 0.63429 0.39144 0.79716 0.0
C5695 C 0.64459 0.36565 0.79869 0.0
C5696 C 0.64834 0.35033 0.79169 0.0
C5697 C 0.63854 0.39426 0.81241 0.0
C5698 C 0.64495 0.38227 0.82121 0.0
C5699 C 0.64863 0.36839 0.81401 0.0
C5700 C 0.64539 0.38292 0.83818 0.0
C5701 C 0.6354 0.40981 0.8192 0.0
C5702 C 0.65892 0.38004 0.84642 0.0
C5703 C 0.65854 0.37865 0.86243 0.0
C5704 C 0.64457 0.37978 0.87033 0.0
C5705 C 0.6312 0.38312 0.86206 0.0
C5706 C 0.63161 0.38468 0.8462 0.0
H5707 H 0.63609 0.41887 0.81032 0.0
H5708 H 0.62364 0.40998 0.82397 0.0
H5709 H 0.64359 0.41255 0.82854 0.0
H5710 H 0.66965 0.37846 0.84044 0.0
H5711 H 0.669 0.37593 0.86851 0.0
H5712 H 0.95324 0.62757 0.32076 0.0
H5713 H 0.97319 0.62465 0.30143 0.0
H5714 H 0.97876 0.67367 0.29972 0.0
H5715 H 0.95912 0.67666 0.31944 0.0
H5716 H 0.97445 0.63469 0.27234 0.0
H5717 H 0.02226 0.65994 0.30569 0.0
H5718 H 0.00416 0.65507 0.31429 0.0
H5719 H 0.00623 0.67258 0.30368 0.0
C5720 C 0.95878 0.63774 0.31636 0.0
C5721 C 0.95468 0.65235 0.32171 0.0
C5722 C 0.97016 0.63605 0.30527 0.0
C5723 C 0.97762 0.64892 0.29926 0.0
C5724 C 0.97342 0.66354 0.30445 0.0
H5725 H 0.04914 0.65891 0.23095 0.0
H5726 H 0.02583 0.66274 0.246 0.0
C5727 C 0.96215 0.66524 0.31568 0.0
C5728 C 0.98964 0.64696 0.28744 0.0
H5729 H 0.02719 0.65439 0.27959 0.0
C5730 C 0.98599 0.63899 0.27393 0.0
C5731 C 0.00472 0.65252 0.28955 0.0
C5732 C 0.00965 0.66037 0.30414 0.0
C5733 C 0.99699 0.63649 0.26249 0.0
C5734 C 0.01196 0.64213 0.26461 0.0
C5735 C 0.0156 0.65021 0.27799 0.0
C5736 C 0.02432 0.63921 0.25345 0.0
C5737 C 0.99259 0.62789 0.24819 0.0
C5738 C 0.03091 0.62461 0.2524 0.0
C5739 C 0.04424 0.6224 0.24385 0.0
C5740 C 0.05113 0.63474 0.23619 0.0
C5741 C 0.04396 0.64914 0.23654 0.0
C5742 C 0.03072 0.65137 0.2452 0.0
H5743 H 0.98 0.62644 0.24715 0.0
H5744 H 0.9969 0.63395 0.23789 0.0
H5745 H 0.99794 0.61637 0.24841 0.0
H5746 H 0.0262 0.61513 0.25883 0.0
H5747 H 0.04956 0.6112 0.2438 0.0
H5748 H 0.8259 0.95813 0.31545 0.0
H5749 H 0.82682 0.97824 0.29595 0.0
H5750 H 0.87604 0.9748 0.29472 0.0
H5751 H 0.8752 0.95454 0.31386 0.0
H5752 H 0.84048 0.00609 0.29644 0.0
H5753 H 0.86564 0.97138 0.24983 0.0
H5754 H 0.85791 0.96291 0.267 0.0
H5755 H 0.87697 0.97076 0.26694 0.0
C5756 C 0.83691 0.96164 0.311 0.0
C5757 C 0.85047 0.95465 0.31611 0.0
C5758 C 0.83742 0.97311 0.29983 0.0
C5759 C 0.85147 0.97775 0.29359 0.0
C5760 C 0.86503 0.97107 0.299 0.0
H5761 H 0.88695 0.05224 0.24198 0.0
H5762 H 0.88227 0.02859 0.25628 0.0
C5763 C 0.86453 0.95957 0.31006 0.0
C5764 C 0.8521 0.99 0.28185 0.0
H5765 H 0.86669 0.99867 0.24662 0.0
C5766 C 0.84599 0.0044 0.28545 0.0
C5767 C 0.85925 0.98776 0.26747 0.0
C5768 C 0.86517 0.97232 0.26251 0.0
C5769 C 0.84744 0.0168 0.27536 0.0
C5770 C 0.8551 0.01469 0.26128 0.0
C5771 C 0.86085 1.00022 0.25746 0.0
C5772 C 0.85813 0.02771 0.25092 0.0
C5773 C 0.84131 0.03225 0.28005 0.0
C5774 C 0.84618 0.03467 0.24275 0.0
C5775 C 0.84885 0.04812 0.23449 0.0
C5776 C 0.86347 0.05482 0.2344 0.0
C5777 C 0.87556 0.04734 0.24194 0.0
C5778 C 0.87291 0.03386 0.25007 0.0
H5779 H 0.83732 0.0324 0.29211 0.0
H5780 H 0.85024 0.04117 0.2786 0.0
H5781 H 0.83152 0.03533 0.27256 0.0
H5782 H 0.83471 0.03 0.24323 0.0
H5783 H 0.83931 0.05372 0.2289 0.0
H5784 H 0.54583 0.87406 0.31858 0.0
H5785 H 0.527 0.87362 0.29791 0.0
H5786 H 0.53864 0.8267 0.28805 0.0
H5787 H 0.55743 0.82696 0.30888 0.0
H5788 H 0.53107 0.86746 0.26638 0.0
H5789 H 0.492 0.82541 0.29389 0.0
H5790 H 0.50698 0.83507 0.30434 0.0
H5791 H 0.51157 0.81945 0.2918 0.0
C5792 C 0.54438 0.86361 0.31206 0.0
C5793 C 0.55307 0.8505 0.31546 0.0
C5794 C 0.53364 0.8634 0.30021 0.0
C5795 C 0.5313 0.85009 0.29155 0.0
C5796 C 0.54009 0.83702 0.29475 0.0
H5797 H 0.45757 0.83396 0.22534 0.0
H5798 H 0.48223 0.83122 0.2385 0.0
C5799 C 0.55085 0.83721 0.30663 0.0
C5800 C 0.51952 0.84996 0.2793 0.0
H5801 H 0.48483 0.83473 0.26972 0.0
C5802 C 0.52101 0.86022 0.26704 0.0
C5803 C 0.50645 0.84045 0.28013 0.0
C5804 C 0.50401 0.82954 0.29328 0.0
C5805 C 0.50964 0.86143 0.25573 0.0
C5806 C 0.49631 0.85232 0.25686 0.0
C5807 C 0.49508 0.84167 0.26883 0.0
C5808 C 0.48287 0.85458 0.24671 0.0
C5809 C 0.51195 0.87253 0.24272 0.0
C5810 C 0.47522 0.86871 0.24665 0.0
C5811 C 0.46121 0.8703 0.23912 0.0
C5812 C 0.4545 0.85777 0.23156 0.0
C5813 C 0.46255 0.84386 0.23091 0.0
C5814 C 0.47658 0.84225 0.23851 0.0
H5815 H 0.5243 0.87471 0.24066 0.0
H5816 H 0.50669 0.86821 0.23198 0.0
H5817 H 0.5065 0.8836 0.24568 0.0
H5818 H 0.47968 0.8783 0.25312 0.0
H5819 H 0.45527 0.88115 0.2398 0.0
H5820 H 0.6237 0.45698 0.24293 0.0
H5821 H 0.6257 0.48131 0.2566 0.0
H5822 H 0.67265 0.48571 0.24211 0.0
H5823 H 0.67081 0.46119 0.22864 0.0
H5824 H 0.66873 0.4869 0.27361 0.0
H5825 H 0.62836 0.52657 0.24505 0.0
H5826 H 0.62009 0.5083 0.24949 0.0
H5827 H 0.63549 0.50944 0.23591 0.0
C5828 C 0.63434 0.46332 0.24236 0.0
C5829 C 0.64711 0.45716 0.23477 0.0
C5830 C 0.63543 0.47728 0.25007 0.0
C5831 C 0.6493 0.48538 0.25028 0.0
C5832 C 0.66182 0.47968 0.242 0.0
H5833 H 0.67881 0.55867 0.3122 0.0
H5834 H 0.67788 0.53983 0.29151 0.0
C5835 C 0.66072 0.46573 0.23423 0.0
C5836 C 0.65125 0.49858 0.26077 0.0
H5837 H 0.63631 0.53337 0.27043 0.0
C5838 C 0.66182 0.49718 0.27279 0.0
C5839 C 0.64211 0.51189 0.25974 0.0
C5840 C 0.63097 0.51424 0.24677 0.0
C5841 C 0.6631 0.50846 0.28415 0.0
C5842 C 0.65378 0.52166 0.28328 0.0
C5843 C 0.64343 0.52323 0.27108 0.0
C5844 C 0.6542 0.53366 0.29528 0.0
C5845 C 0.67397 0.50582 0.29733 0.0
C5846 C 0.64108 0.53677 0.30398 0.0
C5847 C 0.64153 0.5476 0.31575 0.0
C5848 C 0.65514 0.55556 0.31902 0.0
C5849 C 0.66819 0.55264 0.31008 0.0
C5850 C 0.6677 0.54184 0.29828 0.0
H5851 H 0.67746 0.49363 0.29821 0.0
H5852 H 0.68444 0.51277 0.29558 0.0
H5853 H 0.66869 0.50934 0.30834 0.0
H5854 H 0.63053 0.53061 0.30183 0.0
H5855 H 0.63126 0.54962 0.32237 0.0
H5856 H 0.05478 0.89583 0.26603 0.0
H5857 H 0.03106 0.89347 0.25131 0.0
H5858 H 0.02568 0.84711 0.26725 0.0
H5859 H 0.04936 0.84938 0.28196 0.0
H5860 H 0.03022 0.87135 0.22816 0.0
H5861 H 0.98157 0.86368 0.26829 0.0
H5862 H 0.99954 0.87215 0.27406 0.0
H5863 H 0.99792 0.85177 0.27199 0.0
C5864 C 0.04828 0.8853 0.26676 0.0
C5865 C 0.05396 0.87277 0.27508 0.0
C5866 C 0.03475 0.88397 0.25836 0.0
C5867 C 0.0266 0.87012 0.25821 0.0
C5868 C 0.03162 0.85798 0.26742 0.0
H5869 H 0.95711 0.83311 0.1966 0.0
H5870 H 0.97589 0.83669 0.2172 0.0
C5871 C 0.04517 0.85931 0.27585 0.0
C5872 C 0.01442 0.86765 0.24668 0.0
H5873 H 0.97672 0.85845 0.24198 0.0
C5874 C 0.01849 0.86865 0.23119 0.0
C5875 C 0.99921 0.86386 0.25068 0.0
C5876 C 0.99421 0.8629 0.26715 0.0
C5877 C 0.00781 0.86592 0.21955 0.0
C5878 C 0.99253 0.86238 0.22351 0.0
C5879 C 0.98844 0.86119 0.239 0.0
C5880 C 0.98063 0.86033 0.21161 0.0
C5881 C 0.01305 0.86658 0.20311 0.0
C5882 C 0.97694 0.87249 0.20185 0.0
C5883 C 0.96636 0.87047 0.19007 0.0
C5884 C 0.95913 0.85626 0.18788 0.0
C5885 C 0.96256 0.84416 0.19792 0.0
C5886 C 0.97322 0.8462 0.20973 0.0
H5887 H 0.02565 0.86528 0.20213 0.0
H5888 H 0.00747 0.85752 0.19615 0.0
H5889 H 0.0099 0.87785 0.19818 0.0
H5890 H 0.98234 0.88356 0.20329 0.0
H5891 H 0.96387 0.88009 0.18267 0.0
H5892 H 0.64566 0.07483 0.24482 0.0
H5893 H 0.64744 0.05134 0.23033 0.0
H5894 H 0.64139 0.02512 0.27168 0.0
H5895 H 0.63814 0.04885 0.28627 0.0
H5896 H 0.66799 0.03043 0.23159 0.0
H5897 H 0.61201 1.00331 0.24436 0.0
H5898 H 0.61623 0.02285 0.24948 0.0
H5899 H 0.62328 0.00735 0.26105 0.0
C5900 C 0.64411 0.06415 0.25089 0.0
C5901 C 0.64136 0.06387 0.26677 0.0
C5902 C 0.64541 0.05064 0.24255 0.0
C5903 C 0.64437 0.0364 0.24982 0.0
C5904 C 0.64186 0.03596 0.26571 0.0
H5905 H 0.67733 0.95693 0.19782 0.0
H5906 H 0.67477 0.97735 0.21679 0.0
C5907 C 0.64023 0.04956 0.27409 0.0
C5908 C 0.64656 0.02225 0.24061 0.0
H5909 H 0.62954 0.98878 0.22972 0.0
C5910 C 0.65956 0.02132 0.2312 0.0
C5911 C 0.63553 0.01041 0.23998 0.0
C5912 C 0.62091 0.01105 0.24914 0.0
C5913 C 0.66163 0.0092 0.22088 0.0
C5914 C 0.65075 0.99721 0.22044 0.0
C5915 C 0.63792 0.99792 0.23011 0.0
C5916 C 0.65208 0.98421 0.20953 0.0
C5917 C 0.6751 0.00984 0.21008 0.0
C5918 C 0.63993 0.98076 0.19956 0.0
C5919 C 0.64122 0.96881 0.18899 0.0
C5920 C 0.65477 0.96023 0.18805 0.0
C5921 C 0.66686 0.96355 0.19812 0.0
C5922 C 0.66543 0.97527 0.20892 0.0
H5923 H 0.67945 0.0217 0.20871 0.0
H5924 H 0.68456 1.0028 0.21477 0.0
H5925 H 0.67203 0.00535 0.19859 0.0
H5926 H 0.6295 0.98745 0.19982 0.0
H5927 H 0.63171 0.96647 0.18139 0.0
H5928 H 0.46111 0.67087 0.28338 0.0
H5929 H 0.48485 0.67548 0.26908 0.0
H5930 H 0.49038 0.62691 0.26253 0.0
H5931 H 0.46677 0.62223 0.27682 0.0
H5932 H 0.51896 0.65718 0.27034 0.0
H5933 H 0.48103 0.65281 0.21922 0.0
H5934 H 0.47402 0.65922 0.23758 0.0
H5935 H 0.47822 0.63937 0.23458 0.0
C5936 C 0.46771 0.66117 0.27939 0.0
C5937 C 0.46207 0.64619 0.28111 0.0
C5938 C 0.48121 0.66382 0.27119 0.0
C5939 C 0.48925 0.65153 0.26472 0.0
C5940 C 0.4843 0.63653 0.26747 0.0
H5941 H 0.55091 0.63323 0.19191 0.0
H5942 H 0.5321 0.6336 0.21247 0.0
C5943 C 0.47082 0.63387 0.2756 0.0
C5944 C 0.50142 0.65426 0.25331 0.0
H5945 H 0.50756 0.65398 0.21478 0.0
C5946 C 0.51652 0.65667 0.25818 0.0
C5947 C 0.4981 0.65357 0.23751 0.0
C5948 C 0.48197 0.65118 0.23179 0.0
C5949 C 0.52855 0.65788 0.24753 0.0
C5950 C 0.52525 0.65679 0.2317 0.0
C5951 C 0.51005 0.6548 0.22691 0.0
C5952 C 0.53739 0.65663 0.21986 0.0
C5953 C 0.54473 0.65967 0.25327 0.0
C5954 C 0.54663 0.66949 0.21717 0.0
C5955 C 0.55747 0.66933 0.20536 0.0
C5956 C 0.55915 0.65632 0.19601 0.0
C5957 C 0.54991 0.64345 0.19884 0.0
C5958 C 0.53915 0.64363 0.21062 0.0
H5959 H 0.54564 0.65747 0.26576 0.0
H5960 H 0.55254 0.65175 0.24713 0.0
H5961 H 0.54866 0.67153 0.25105 0.0
H5962 H 0.54526 0.67975 0.224 0.0
H5963 H 0.56438 0.67943 0.20343 0.0
H5964 H 0.8627 0.54352 0.18592 0.0
H5965 H 0.86214 0.52454 0.2063 0.0
H5966 H 0.82607 0.54957 0.22884 0.0
H5967 H 0.82624 0.56848 0.2081 0.0
H5968 H 0.86758 0.52722 0.23645 0.0
H5969 H 0.80791 0.50717 0.22702 0.0
H5970 H 0.81765 0.51944 0.21362 0.0
H5971 H 0.80996 0.52722 0.23104 0.0
C5972 C 0.85459 0.545 0.19518 0.0
C5973 C 0.84444 0.55745 0.19534 0.0
C5974 C 0.85432 0.53414 0.20686 0.0
C5975 C 0.84396 0.53551 0.21905 0.0
C5976 C 0.83394 0.54808 0.2194 0.0
H5977 H 0.86001 0.4667 0.29204 0.0
H5978 H 0.85517 0.49203 0.28079 0.0
C5979 C 0.83409 0.55891 0.20757 0.0
C5980 C 0.84381 0.52358 0.23117 0.0
H5981 H 0.82208 0.4948 0.24618 0.0
C5982 C 0.85759 0.52022 0.23873 0.0
C5983 C 0.83075 0.51447 0.23411 0.0
C5984 C 0.81575 0.51712 0.22596 0.0
C5985 C 0.85893 0.50753 0.24849 0.0
C5986 C 0.84598 0.49817 0.25112 0.0
C5987 C 0.83197 0.50204 0.24422 0.0
C5988 C 0.84723 0.48317 0.25903 0.0
C5989 C 0.87445 0.50372 0.25505 0.0
C5990 C 0.84362 0.46982 0.25088 0.0
C5991 C 0.8461 0.45547 0.25734 0.0
C5992 C 0.85241 0.45406 0.27208 0.0
C5993 C 0.85527 0.46742 0.28061 0.0
C5994 C 0.85265 0.48188 0.27414 0.0
H5995 H 0.88376 0.51039 0.24953 0.0
H5996 H 0.87455 0.50642 0.26746 0.0
H5997 H 0.87701 0.49135 0.25366 0.0
H5998 H 0.83932 0.47048 0.23927 0.0
H5999 H 0.84336 0.44542 0.25061 0.0
H6000 H 0.32458 0.96685 0.63769 0.0
H6001 H 0.3031 0.98461 0.63699 0.0
H6002 H 0.28157 0.9603 0.67413 0.0
H6003 H 0.30336 0.94266 0.6752 0.0
H6004 H 0.27268 0.9804 0.63192 0.0
H6005 H 0.28247 1.0036 0.69045 0.0
H6006 H 0.29619 0.99145 0.681 0.0
H6007 H 0.27922 0.98334 0.68928 0.0
C6008 C 0.31529 0.96525 0.64573 0.0
C6009 C 0.31574 0.95344 0.65661 0.0
C6010 C 0.30298 0.97539 0.64527 0.0
C6011 C 0.2908 0.97391 0.65562 0.0
C6012 C 0.29098 0.96186 0.66624 0.0
H6013 H 0.2162 0.04134 0.63934 0.0
H6014 H 0.22777 0.01611 0.64421 0.0
C6015 C 0.30342 0.95177 0.66681 0.0
C6016 C 0.27828 0.98539 0.65538 0.0
H6017 H 0.26309 0.01498 0.67587 0.0
C6018 C 0.27039 0.98785 0.64159 0.0
C6019 C 0.27534 0.99507 0.66803 0.0
C6020 C 0.2838 0.99337 0.68301 0.0
C6021 C 0.26033 1.00025 0.6398 0.0
C6022 C 0.25783 0.01025 0.65228 0.0
C6023 C 0.26499 0.00723 0.66636 0.0
C6024 C 0.25001 0.0252 0.65034 0.0
C6025 C 0.25328 1.00312 0.6243 0.0
C6026 C 0.25847 0.03861 0.65268 0.0
C6027 C 0.2519 0.05287 0.65011 0.0
C6028 C 0.2367 0.05412 0.645 0.0
C6029 C 0.22798 0.04071 0.64316 0.0
C6030 C 0.2346 0.02632 0.64582 0.0
H6031 H 0.25826 0.99565 0.61529 0.0
H6032 H 0.2408 1.00083 0.62485 0.0
H6033 H 0.25488 0.01524 0.62086 0.0
H6034 H 0.27034 0.03805 0.65625 0.0
H6035 H 0.25882 0.06298 0.65206 0.0
H6036 H 0.45154 0.22754 0.66115 0.0
H6037 H 0.47578 0.24136 0.66457 0.0
H6038 H 0.47147 0.26005 0.61913 0.0
H6039 H 0.44722 0.24644 0.61575 0.0
H6040 H 0.50473 0.24502 0.64722 0.0
H6041 H 0.46847 0.29717 0.6491 0.0
H6042 H 0.46066 0.27813 0.65077 0.0
H6043 H 0.46582 0.28558 0.63232 0.0
C6044 C 0.45607 0.23417 0.65172 0.0
C6045 C 0.4475 0.23606 0.63824 0.0
C6046 C 0.46985 0.2421 0.65371 0.0
C6047 C 0.4752 0.25194 0.64221 0.0
C6048 C 0.46738 0.25268 0.62822 0.0
H6049 H 0.54089 0.32345 0.63082 0.0
H6050 H 0.52132 0.30366 0.62858 0.0
C6051 C 0.45359 0.24488 0.62627 0.0
C6052 C 0.48781 0.2628 0.64539 0.0
H6053 H 0.4953 0.30102 0.64839 0.0
C6054 C 0.50271 0.25726 0.64759 0.0
C6055 C 0.48504 0.27874 0.64604 0.0
C6056 C 0.46912 0.2853 0.64458 0.0
C6057 C 0.51506 0.26735 0.64981 0.0
C6058 C 0.51231 0.2833 0.64998 0.0
C6059 C 0.49735 0.28877 0.64816 0.0
C6060 C 0.5248 0.29466 0.65136 0.0
C6061 C 0.531 0.26097 0.65148 0.0
C6062 C 0.53317 0.29621 0.66499 0.0
C6063 C 0.54436 0.30761 0.66636 0.0
C6064 C 0.54731 0.31762 0.65411 0.0
C6065 C 0.53891 0.31595 0.64048 0.0
C6066 C 0.52774 0.30462 0.63915 0.0
H6067 H 0.53154 0.24862 0.64848 0.0
H6068 H 0.53914 0.26734 0.64409 0.0
H6069 H 0.53483 0.26234 0.66351 0.0
H6070 H 0.53088 0.28879 0.67463 0.0
H6071 H 0.55064 0.3086 0.677 0.0
H6072 H 0.18076 0.53634 0.64226 0.0
H6073 H 0.20241 0.51878 0.64223 0.0
H6074 H 0.22373 0.54473 0.67846 0.0
H6075 H 0.20175 0.56218 0.67887 0.0
H6076 H 0.23258 0.52332 0.63682 0.0
H6077 H 0.22393 0.50205 0.69619 0.0
H6078 H 0.20989 0.51364 0.68651 0.0
H6079 H 0.22684 0.5223 0.6943 0.0
C6080 C 0.19003 0.53833 0.65025 0.0
C6081 C 0.18947 0.55057 0.66067 0.0
C6082 C 0.20244 0.5283 0.65018 0.0
C6083 C 0.21463 0.53032 0.66045 0.0
C6084 C 0.21431 0.54275 0.67065 0.0
H6085 H 0.28991 0.46372 0.64458 0.0
H6086 H 0.27809 0.48885 0.64927 0.0
C6087 C 0.20177 0.55274 0.67084 0.0
C6088 C 0.22735 0.51906 0.66049 0.0
H6089 H 0.2433 0.49046 0.68177 0.0
C6090 C 0.2351 0.51625 0.6467 0.0
C6091 C 0.23062 0.50987 0.67342 0.0
C6092 C 0.22234 0.51198 0.68843 0.0
C6093 C 0.24533 0.50394 0.64519 0.0
C6094 C 0.24816 0.49442 0.65796 0.0
C6095 C 0.24115 0.49782 0.67202 0.0
C6096 C 0.25626 0.47956 0.65641 0.0
C6097 C 0.25216 0.50064 0.62968 0.0
C6098 C 0.24816 0.46606 0.65947 0.0
C6099 C 0.2549 0.45185 0.65704 0.0
C6100 C 0.2699 0.45072 0.65134 0.0
C6101 C 0.2783 0.46423 0.64886 0.0
C6102 C 0.27152 0.47857 0.65141 0.0
H6103 H 0.24677 0.50757 0.62049 0.0
H6104 H 0.26456 0.50335 0.6299 0.0
H6105 H 0.25088 0.48835 0.62673 0.0
H6106 H 0.23642 0.46651 0.66343 0.0
H6107 H 0.24826 0.44168 0.65949 0.0
H6108 H 0.05479 0.2592 0.6155 0.0
H6109 H 0.03046 0.24562 0.61825 0.0
H6110 H 0.02771 0.26001 0.66537 0.0
H6111 H 0.05217 0.2735 0.66274 0.0
H6112 H 0.02533 0.22793 0.66057 0.0
H6113 H 0.98565 0.25993 0.62273 0.0
H6114 H 0.00365 0.25512 0.61405 0.0
H6115 H 1.00321 0.26811 0.62999 0.0
C6116 C 0.04885 0.2597 0.62636 0.0
C6117 C 0.05537 0.2674 0.6389 0.0
C6118 C 0.03491 0.25203 0.62789 0.0
C6119 C 0.02722 0.25192 0.64197 0.0
C6120 C 0.03342 0.26006 0.65437 0.0
H6121 H 0.95138 0.19436 0.67332 0.0
H6122 H 0.97181 0.21345 0.67198 0.0
C6123 C 0.04733 0.26784 0.65282 0.0
C6124 C 0.01362 0.24203 0.64412 0.0
H6125 H 0.97757 0.2351 0.63072 0.0
C6126 C 0.01479 0.2296 0.65421 0.0
C6127 C 0.99997 0.24418 0.6357 0.0
C6128 C 0.99793 0.25763 0.6251 0.0
C6129 C 1.00287 0.21894 0.65573 0.0
C6130 C 0.98928 0.22097 0.64716 0.0
C6131 C 0.988 0.23357 0.63727 0.0
C6132 C 0.97648 0.20985 0.64793 0.0
C6133 C 0.00518 0.20528 0.66603 0.0
C6134 C 0.97205 0.20178 0.63477 0.0
C6135 C 0.96032 0.19092 0.63547 0.0
C6136 C 0.95276 0.18796 0.64935 0.0
C6137 C 0.95704 0.19627 0.66247 0.0
C6138 C 0.96876 0.20715 0.66174 0.0
H6139 H 0.01745 0.20347 0.66884 0.0
H6140 H 0.99891 0.20714 0.6769 0.0
H6141 H 1.00066 0.1947 0.66061 0.0
H6142 H 0.97782 0.20373 0.62398 0.0
H6143 H 0.95728 0.18478 0.62513 0.0
H6144 H 0.22528 0.45718 0.84281 0.0
H6145 H 0.24027 0.48077 0.84007 0.0
H6146 H 0.24959 0.48058 0.88852 0.0
H6147 H 0.23474 0.45699 0.8913 0.0
H6148 H 0.24118 0.51113 0.85508 0.0
H6149 H 0.29183 0.47462 0.86708 0.0
H6150 H 0.27332 0.46674 0.86239 0.0
H6151 H 0.27706 0.47382 0.88134 0.0
C6152 C 0.23008 0.46248 0.85295 0.0
C6153 C 0.22899 0.45522 0.86725 0.0
C6154 C 0.2387 0.4759 0.85136 0.0
C6155 C 0.24628 0.4822 0.86405 0.0
C6156 C 0.24402 0.47573 0.87856 0.0
H6157 H 0.31769 0.54797 0.87993 0.0
H6158 H 0.29737 0.52888 0.88142 0.0
C6159 C 0.2355 0.46232 0.88014 0.0
C6160 C 0.25787 0.49438 0.86195 0.0
H6161 H 0.29619 0.50124 0.86519 0.0
C6162 C 0.25322 0.509 0.85721 0.0
C6163 C 0.27357 0.49148 0.86462 0.0
C6164 C 0.27932 0.47579 0.86901 0.0
C6165 C 0.26387 0.52096 0.85556 0.0
C6166 C 0.27953 0.51809 0.85851 0.0
C6167 C 0.28416 0.50341 0.863 0.0
C6168 C 0.29136 0.5302 0.85745 0.0
C6169 C 0.25825 0.53666 0.85112 0.0
C6170 C 0.29483 0.53719 0.84341 0.0
C6171 C 0.30651 0.54812 0.84249 0.0
C6172 C 0.31495 0.55219 0.8556 0.0
C6173 C 0.31143 0.54512 0.86961 0.0
C6174 C 0.2998 0.53422 0.8705 0.0
H6175 H 0.24566 0.53776 0.85249 0.0
H6176 H 0.26394 0.54562 0.85812 0.0
H6177 H 0.2611 0.53881 0.83894 0.0
H6178 H 0.28866 0.53403 0.83313 0.0
H6179 H 0.30896 0.55333 0.83153 0.0
H6180 H 0.04927 0.22274 0.85037 0.0
H6181 H 0.02452 0.23582 0.849 0.0
H6182 H 0.03272 0.25614 0.89321 0.0
H6183 H 0.05746 0.24306 0.8947 0.0
H6184 H 0.9974 0.23919 0.8695 0.0
H6185 H 0.03174 0.29214 0.86122 0.0
H6186 H 0.03985 0.27323 0.85937 0.0
H6187 H 0.03626 0.28114 0.878 0.0
C6188 C 0.04556 0.22954 0.86004 0.0
C6189 C 0.05535 0.23203 0.87257 0.0
C6190 C 0.03146 0.23707 0.8592 0.0
C6191 C 0.02699 0.24714 0.87088 0.0
C6192 C 0.03611 0.24856 0.884 0.0
H6193 H 0.9443 0.30133 0.88012 0.0
H6194 H 0.96532 0.28323 0.88363 0.0
C6195 C 0.0502 0.24108 0.88484 0.0
C6196 C 0.01383 0.2575 0.86854 0.0
H6197 H 0.00495 0.29506 0.86259 0.0
C6198 C 0.99899 0.2514 0.86801 0.0
C6199 C 0.01605 0.27338 0.86633 0.0
C6200 C 0.03183 0.28041 0.86612 0.0
C6201 C 0.98623 0.26089 0.8656 0.0
C6202 C 0.98844 0.27683 0.86378 0.0
C6203 C 1.00331 0.28285 0.86408 0.0
C6204 C 0.97552 0.28753 0.86151 0.0
C6205 C 0.97053 0.25378 0.86477 0.0
C6206 C 0.97452 0.29623 0.84806 0.0
C6207 C 0.96257 0.30667 0.84603 0.0
C6208 C 0.95148 0.30866 0.8575 0.0
C6209 C 0.95263 0.30004 0.87104 0.0
C6210 C 0.96456 0.28959 0.87303 0.0
H6211 H 0.97112 0.24125 0.86269 0.0
H6212 H 0.96452 0.25567 0.87579 0.0
H6213 H 0.96361 0.25912 0.85555 0.0
H6214 H 0.98297 0.29489 0.83909 0.0
H6215 H 0.96202 0.31314 0.83549 0.0
H6216 H 0.18385 0.96705 0.83367 0.0
H6217 H 0.20208 0.98805 0.83741 0.0
H6218 H 0.21727 0.96756 0.87963 0.0
H6219 H 0.19919 0.94656 0.87601 0.0
H6220 H 0.20401 0.00849 0.86299 0.0
H6221 H 0.25727 0.9747 0.85506 0.0
H6222 H 0.23875 0.96796 0.84881 0.0
H6223 H 0.24395 0.96696 0.86867 0.0
C6224 C 0.1911 0.967 0.84373 0.0
C6225 C 0.19012 0.95511 0.85451 0.0
C6226 C 0.20149 0.97899 0.84585 0.0
C6227 C 0.21117 0.9792 0.85867 0.0
C6228 C 0.2101 0.96745 0.86952 0.0
H6229 H 0.26102 0.05772 0.89402 0.0
H6230 H 0.246 0.03417 0.89166 0.0
C6231 C 0.19968 0.95551 0.86746 0.0
C6232 C 0.22211 0.99193 0.86095 0.0
H6233 H 0.26021 1.00028 0.86375 0.0
C6234 C 0.21629 0.00672 0.86315 0.0
C6235 C 0.23812 0.98956 0.86102 0.0
C6236 C 0.24496 0.97397 0.85814 0.0
C6237 C 0.22608 0.01921 0.8656 0.0
C6238 C 0.24208 0.01678 0.86604 0.0
C6239 C 0.24792 1.00203 0.86362 0.0
C6240 C 0.25286 0.02964 0.86832 0.0
C6241 C 0.21924 0.03496 0.86745 0.0
C6242 C 0.26227 0.03441 0.85625 0.0
C6243 C 0.27085 0.04784 0.85755 0.0
C6244 C 0.2702 0.0567 0.87099 0.0
C6245 C 0.2616 0.05126 0.88346 0.0
C6246 C 0.253 0.03784 0.88212 0.0
H6247 H 0.20708 0.03533 0.86374 0.0
H6248 H 0.21974 0.03834 0.87968 0.0
H6249 H 0.22581 0.04353 0.86076 0.0
H6250 H 0.26234 0.02818 0.84552 0.0
H6251 H 0.27719 0.05177 0.84766 0.0
H6252 H 0.55188 0.19368 0.88005 0.0
H6253 H 0.53126 0.21234 0.88295 0.0
H6254 H 0.5246 0.21267 0.83403 0.0
H6255 H 0.54489 0.19363 0.83108 0.0
H6256 H 0.52852 0.24112 0.87227 0.0
H6257 H 0.4817 0.20523 0.84876 0.0
H6258 H 0.50024 0.1975 0.85346 0.0
H6259 H 0.49737 0.20756 0.83573 0.0
C6260 C 0.54595 0.19764 0.86991 0.0
C6261 C 0.54993 0.19209 0.85534 0.0
C6262 C 0.5342 0.20834 0.87159 0.0
C6263 C 0.52623 0.21375 0.85874 0.0
C6264 C 0.53032 0.20838 0.84415 0.0
H6265 H 0.45198 0.27904 0.84818 0.0
H6266 H 0.47589 0.2649 0.84443 0.0
C6267 C 0.54197 0.19754 0.84247 0.0
C6268 C 0.51376 0.22511 0.86065 0.0
H6269 H 0.47581 0.23127 0.85363 0.0
C6270 C 0.51699 0.23895 0.86822 0.0
C6271 C 0.4987 0.22225 0.8554 0.0
C6272 C 0.49423 0.20727 0.84802 0.0
C6273 C 0.50558 0.25001 0.87059 0.0
C6274 C 0.49062 0.24716 0.86524 0.0
C6275 C 0.48739 0.23343 0.85757 0.0
C6276 C 0.47786 0.25788 0.86806 0.0
C6277 C 0.50951 0.2647 0.87876 0.0
C6278 C 0.47133 0.25889 0.88268 0.0
C6279 C 0.45766 0.2669 0.88485 0.0
C6280 C 0.45037 0.27407 0.87244 0.0
C6281 C 0.45746 0.27381 0.858 0.0
C6282 C 0.47104 0.26567 0.85581 0.0
H6283 H 0.52206 0.26622 0.8801 0.0
H6284 H 0.50479 0.27466 0.87243 0.0
H6285 H 0.50423 0.26463 0.8903 0.0
H6286 H 0.47638 0.25281 0.89223 0.0
H6287 H 0.45242 0.26691 0.89608 0.0
H6288 H 0.66182 0.25957 0.06009 0.0
H6289 H 0.663 0.2701 0.03444 0.0
H6290 H 0.63956 0.23037 0.01678 0.0
H6291 H 0.63769 0.21997 0.0429 0.0
H6292 H 0.67564 0.26059 0.00828 0.0
H6293 H 0.61239 0.26468 1.00158 0.0
H6294 H 0.62123 0.26007 0.01965 0.0
H6295 H 0.62011 0.2459 0.00478 0.0
C6296 C 0.65678 0.25308 0.0508 0.0
C6297 C 0.64927 0.23913 0.05359 0.0
C6298 C 0.65761 0.25906 0.03608 0.0
C6299 C 0.65112 0.25119 0.02369 0.0
C6300 C 0.64434 0.23681 0.02623 0.0
H6301 H 0.66725 0.30167 0.93736 0.0
H6302 H 0.66639 0.27997 0.95508 0.0
C6303 C 0.6434 0.23082 0.04111 0.0
C6304 C 0.6511 0.25871 0.00845 0.0
H6305 H 0.62746 0.27645 0.98289 0.0
C6306 C 0.66513 0.26387 1.00255 0.0
C6307 C 0.63735 0.26303 1.00106 0.0
C6308 C 0.62188 0.25826 0.00709 0.0
C6309 C 0.66576 0.27405 0.99016 0.0
C6310 C 0.65198 0.27879 0.98308 0.0
C6311 C 0.63801 0.27282 0.98834 0.0
C6312 C 0.65162 0.29122 0.97149 0.0
C6313 C 0.68112 0.28045 0.98551 0.0
C6314 C 0.64309 0.30451 0.97446 0.0
C6315 C 0.64332 0.31677 0.96423 0.0
C6316 C 0.65222 0.31607 0.95088 0.0
C6317 C 0.66047 0.30263 0.94769 0.0
C6318 C 0.66004 0.29024 0.95783 0.0
H6319 H 0.69006 0.27827 0.9943 0.0
H6320 H 0.68486 0.27493 0.97471 0.0
H6321 H 0.68042 0.29298 0.98355 0.0
H6322 H 0.6365 0.30556 0.9849 0.0
H6323 H 0.63683 0.32695 0.96701 0.0
H6324 H 0.62782 0.19078 0.55517 0.0
H6325 H 0.62472 0.2107 0.53582 0.0
H6326 H 0.6737 0.214 0.53114 0.0
H6327 H 0.67697 0.19401 0.55055 0.0
H6328 H 0.65599 0.24351 0.53385 0.0
H6329 H 0.63461 0.20339 0.48921 0.0
H6330 H 0.62555 0.20212 0.50764 0.0
H6331 H 0.64534 0.197 0.50568 0.0
C6332 C 0.63796 0.19571 0.55004 0.0
C6333 C 0.65265 0.19074 0.55433 0.0
C6334 C 0.63615 0.2071 0.539 0.0
C6335 C 0.64898 0.21373 0.53204 0.0
C6336 C 0.66367 0.20899 0.53642 0.0
H6337 H 0.66296 0.27944 0.45958 0.0
H6338 H 0.66506 0.26539 0.4837 0.0
C6339 C 0.6655 0.19753 0.54744 0.0
C6340 C 0.64697 0.22532 0.51988 0.0
H6341 H 0.63406 0.22966 0.48333 0.0
C6342 C 0.65121 0.24054 0.52278 0.0
C6343 C 0.6407 0.22135 0.50551 0.0
C6344 C 0.63637 0.20507 0.5017 0.0
C6345 C 0.64912 0.252 0.51168 0.0
C6346 C 0.64289 0.24801 0.49727 0.0
C6347 C 0.6387 0.23275 0.49443 0.0
C6348 C 0.64109 0.25918 0.48462 0.0
C6349 C 0.65332 0.26828 0.5156 0.0
C6350 C 0.62687 0.26068 0.47728 0.0
C6351 C 0.6257 0.26857 0.46344 0.0
C6352 C 0.63873 0.27515 0.45674 0.0
C6353 C 0.65271 0.27468 0.46466 0.0
C6354 C 0.65391 0.26665 0.47845 0.0
H6355 H 0.65337 0.2702 0.52817 0.0
H6356 H 0.66499 0.27072 0.51126 0.0
H6357 H 0.64527 0.27652 0.51024 0.0
H6358 H 0.61683 0.25501 0.48183 0.0
H6359 H 0.61481 0.26874 0.45751 0.0
H6360 H 0.24383 0.61523 0.45116 0.0
H6361 H 0.25717 0.61603 0.47579 0.0
H6362 H 0.24322 0.66302 0.48178 0.0
H6363 H 0.2295 0.66205 0.45738 0.0
H6364 H 0.28112 0.63413 0.47999 0.0
H6365 H 0.2383 0.64748 0.52468 0.0
H6366 H 0.23293 0.64082 0.50586 0.0
H6367 H 0.23752 0.66067 0.509 0.0
C6368 C 0.24316 0.62552 0.45804 0.0
C6369 C 0.2356 0.63855 0.45245 0.0
C6370 C 0.25083 0.62601 0.47206 0.0
C6371 C 0.25118 0.63957 0.48069 0.0
C6372 C 0.24285 0.65232 0.47553 0.0
H6373 H 0.31312 0.67625 0.54859 0.0
H6374 H 0.29436 0.67211 0.52815 0.0
C6375 C 0.23501 0.65177 0.46158 0.0
C6376 C 0.26189 0.64098 0.49383 0.0
H6377 H 0.26463 0.65199 0.53128 0.0
C6378 C 0.27745 0.63784 0.49125 0.0
C6379 C 0.25714 0.64593 0.50851 0.0
C6380 C 0.24053 0.64877 0.51224 0.0
C6381 C 0.2884 0.63979 0.50282 0.0
C6382 C 0.28369 0.64501 0.51735 0.0
C6383 C 0.26816 0.64805 0.52005 0.0
C6384 C 0.29485 0.64744 0.52984 0.0
C6385 C 0.30502 0.63659 0.49939 0.0
C6386 C 0.30131 0.63491 0.53747 0.0
C6387 C 0.31199 0.63721 0.54916 0.0
C6388 C 0.31644 0.6521 0.55336 0.0
C6389 C 0.30999 0.66463 0.54559 0.0
C6390 C 0.29922 0.66231 0.53397 0.0
H6391 H 0.30704 0.63445 0.48703 0.0
H6392 H 0.31224 0.64637 0.50312 0.0
H6393 H 0.30876 0.62635 0.5059 0.0
H6394 H 0.29803 0.62334 0.5344 0.0
H6395 H 0.31672 0.62731 0.55492 0.0
H6396 H 0.87682 0.32255 0.54281 0.0
H6397 H 0.87796 0.30274 0.52308 0.0
H6398 H 0.83276 0.28745 0.5356 0.0
H6399 H 0.8314 0.30741 0.55521 0.0
H6400 H 0.87556 0.27088 0.52535 0.0
H6401 H 0.82878 0.29509 0.48967 0.0
H6402 H 0.83771 0.30575 0.50494 0.0
H6403 H 0.82373 0.2913 0.50921 0.0
C6404 C 0.8671 0.315 0.54137 0.0
C6405 C 0.85396 0.31666 0.55051 0.0
C6406 C 0.86779 0.30365 0.53012 0.0
C6407 C 0.85537 0.29375 0.52773 0.0
C6408 C 0.84236 0.29516 0.53704 0.0
H6409 H 0.84094 0.22695 0.45453 0.0
H6410 H 0.83901 0.24016 0.47919 0.0
C6411 C 0.84163 0.30654 0.54829 0.0
C6412 C 0.85604 0.28213 0.51536 0.0
H6413 H 0.83965 0.27186 0.48139 0.0
C6414 C 0.86767 0.27105 0.51577 0.0
C6415 C 0.84571 0.28234 0.50288 0.0
C6416 C 0.83335 0.29432 0.50151 0.0
C6417 C 0.86932 0.26023 0.50397 0.0
C6418 C 0.8592 0.26067 0.49134 0.0
C6419 C 0.84734 0.2715 0.49113 0.0
C6420 C 0.86131 0.25081 0.47767 0.0
C6421 C 0.88186 0.24844 0.50513 0.0
C6422 C 0.8746 0.25216 0.46878 0.0
C6423 C 0.87575 0.2446 0.45474 0.0
C6424 C 0.86359 0.23559 0.44926 0.0
C6425 C 0.85058 0.23366 0.45851 0.0
C6426 C 0.84941 0.24128 0.47256 0.0
H6427 H 0.88545 0.24663 0.51719 0.0
H6428 H 0.87817 0.23731 0.50021 0.0
H6429 H 0.89199 0.25248 0.49863 0.0
H6430 H 0.88381 0.25966 0.47236 0.0
H6431 H 0.88595 0.24625 0.44789 0.0
H6432 H 0.19023 0.83222 0.54773 0.0
H6433 H 0.20996 0.83467 0.52802 0.0
H6434 H 0.21269 0.88319 0.53672 0.0
H6435 H 0.19329 0.88079 0.55666 0.0
H6436 H 0.20987 0.85105 0.50191 0.0
H6437 H 0.25724 0.87123 0.53894 0.0
H6438 H 0.23979 0.86329 0.5466 0.0
H6439 H 0.24047 0.88294 0.54049 0.0
C6440 C 0.19505 0.84341 0.54546 0.0
C6441 C 0.19027 0.8563 0.55383 0.0
C6442 C 0.20635 0.84478 0.53423 0.0
C6443 C 0.21306 0.85905 0.53115 0.0
C6444 C 0.20802 0.87199 0.53922 0.0
H6445 H 0.26604 0.89577 0.45751 0.0
H6446 H 0.25184 0.89153 0.48133 0.0
C6447 C 0.19682 0.87061 0.55052 0.0
C6448 C 0.22485 0.86054 0.51905 0.0
H6449 H 0.26092 0.87389 0.51189 0.0
C6450 C 0.22109 0.85586 0.50414 0.0
C6451 C 0.23952 0.8668 0.52198 0.0
C6452 C 0.24457 0.87121 0.5379 0.0
C6453 C 0.23141 0.85773 0.49202 0.0
C6454 C 0.24588 0.86436 0.49489 0.0
C6455 C 0.24978 0.86883 0.50979 0.0
C6456 C 0.25671 0.8673 0.48228 0.0
C6457 C 0.22668 0.85297 0.47609 0.0
C6458 C 0.2646 0.85516 0.47536 0.0
C6459 C 0.27277 0.85756 0.46183 0.0
C6460 C 0.27304 0.87211 0.45498 0.0
C6461 C 0.26595 0.88443 0.46253 0.0
C6462 C 0.25788 0.88205 0.4761 0.0
H6463 H 0.21446 0.84954 0.47551 0.0
H6464 H 0.22864 0.86249 0.46792 0.0
H6465 H 0.2338 0.84315 0.47234 0.0
H6466 H 0.2638 0.84371 0.48002 0.0
H6467 H 0.27797 0.84782 0.45618 0.0
H6468 H 0.84527 0.24822 0.05303 0.0
H6469 H 0.84113 0.23714 0.02783 0.0
H6470 H 0.86441 0.27537 0.00706 0.0
H6471 H 0.86952 0.28609 0.03249 0.0
H6472 H 0.82742 0.24509 1.0019 0.0
H6473 H 0.89021 0.24048 0.99215 0.0
H6474 H 0.88236 0.24621 0.01032 0.0
H6475 H 0.88295 0.25952 0.99465 0.0
C6476 C 0.84958 0.25427 0.04312 0.0
C6477 C 0.85813 0.2678 0.04481 0.0
C6478 C 0.84705 0.24801 0.02868 0.0
C6479 C 0.85281 0.25521 0.01556 0.0
C6480 C 0.86024 0.26939 0.01706 0.0
H6481 H 0.83329 0.20071 0.93199 0.0
H6482 H 0.83428 0.22334 0.94864 0.0
C6483 C 0.86298 0.27559 0.03159 0.0
C6484 C 0.85193 0.24703 1.00068 0.0
H6485 H 0.87419 0.22858 0.9744 0.0
C6486 C 0.83761 0.24165 0.99572 0.0
C6487 C 0.86528 0.24252 0.99267 0.0
C6488 C 0.88109 0.24735 0.99773 0.0
C6489 C 0.83634 0.23109 0.98367 0.0
C6490 C 0.84975 0.22617 0.97603 0.0
C6491 C 0.86394 0.23237 0.98029 0.0
C6492 C 0.84966 0.21311 0.96516 0.0
C6493 C 0.8208 0.2245 0.97997 0.0
C6494 C 0.8584 0.20008 0.9686 0.0
C6495 C 0.85807 0.18733 0.95902 0.0
C6496 C 0.84887 0.18725 0.94585 0.0
C6497 C 0.84032 0.20039 0.9422 0.0
C6498 C 0.84082 0.21329 0.95172 0.0
H6499 H 0.8122 0.22726 0.98891 0.0
H6500 H 0.8167 0.22934 0.96898 0.0
H6501 H 0.82143 0.21187 0.97873 0.0
H6502 H 0.86529 0.19966 0.9789 0.0
H6503 H 0.86479 0.1774 0.96215 0.0
H6504 H 0.32485 0.87265 0.96615 0.0
H6505 H 0.30396 0.87338 0.9846 0.0
H6506 H 0.27979 0.83886 0.95883 0.0
H6507 H 0.30098 0.83771 0.94049 0.0
H6508 H 0.27368 0.87994 0.98227 0.0
H6509 H 0.28184 0.81957 1.00074 0.0
H6510 H 0.2954 0.82927 0.98863 0.0
H6511 H 0.27773 0.82224 0.9808 0.0
C6512 C 0.31509 0.86521 0.96436 0.0
C6513 C 0.31465 0.85497 0.95196 0.0
C6514 C 0.30311 0.86569 0.9749 0.0
C6515 C 0.2904 0.85602 0.97324 0.0
C6516 C 0.28964 0.84618 0.96054 0.0
H6517 H 0.21849 0.86919 0.04414 0.0
H6518 H 0.22955 0.86671 0.01837 0.0
C6519 C 0.30173 0.84557 0.95005 0.0
C6520 C 0.27841 0.85596 0.98526 0.0
H6521 H 0.26348 0.83398 0.01386 0.0
C6522 C 0.27127 0.86986 0.98907 0.0
C6523 C 0.27531 0.84277 0.99412 0.0
C6524 C 0.28303 0.82763 0.991 0.0
C6525 C 0.26177 0.87112 1.00198 0.0
C6526 C 0.2591 0.85805 0.01112 0.0
C6527 C 0.26552 0.84397 0.00679 0.0
C6528 C 0.25174 0.85912 0.02638 0.0
C6529 C 0.25549 0.88663 0.00627 0.0
C6530 C 0.26037 0.85528 0.03933 0.0
C6531 C 0.25408 0.85648 0.0539 0.0
C6532 C 0.23899 0.86169 0.05595 0.0
C6533 C 0.23018 0.86525 0.04294 0.0
C6534 C 0.23652 0.86395 0.02824 0.0
H6535 H 0.26067 0.89597 0.99939 0.0
H6536 H 0.24295 0.88676 0.00431 0.0
H6537 H 0.25757 0.88904 0.01858 0.0
H6538 H 0.27211 0.85144 0.03819 0.0
H6539 H 0.26107 0.85318 0.06359 0.0
H6540 H 0.27944 0.64748 0.0386 0.0
H6541 H 0.26471 0.65248 0.01533 0.0
H6542 H 0.24154 0.68975 0.03795 0.0
H6543 H 0.2561 0.68462 0.06132 0.0
H6544 H 0.22201 0.66814 0.02776 0.0
H6545 H 0.26187 0.68379 0.98111 0.0
H6546 H 0.26769 0.66686 0.99116 0.0
H6547 H 0.26715 0.6849 1.00108 0.0
C6548 C 0.27164 0.65711 0.03839 0.0
C6549 C 0.26881 0.66561 0.05174 0.0
C6550 C 0.26323 0.65998 0.02508 0.0
C6551 C 0.25205 0.67152 0.02489 0.0
C6552 C 0.25012 0.6808 0.03786 0.0
H6553 H 0.18897 0.68782 0.94853 0.0
H6554 H 0.20827 0.69139 0.96858 0.0
C6555 C 0.25842 0.67787 0.05118 0.0
C6556 C 0.24075 0.67223 0.01226 0.0
H6557 H 0.23706 0.67451 0.97343 0.0
C6558 C 0.2253 0.66977 0.01591 0.0
C6559 C 0.24502 0.67439 0.99681 0.0
C6560 C 0.26132 0.67778 0.9923 0.0
C6561 C 0.21408 0.66886 0.00449 0.0
C6562 C 0.21847 0.67023 0.98901 0.0
C6563 C 0.2338 0.67329 0.98534 0.0
C6564 C 0.20728 0.66799 0.97652 0.0
C6565 C 0.19763 0.6663 0.00908 0.0
C6566 C 0.20052 0.6536 0.9743 0.0
C6567 C 0.18953 0.65151 0.96289 0.0
C6568 C 0.18511 0.66378 0.9535 0.0
C6569 C 0.19208 0.67815 0.95563 0.0
C6570 C 0.20313 0.68021 0.96702 0.0
H6571 H 0.19564 0.66924 0.02129 0.0
H6572 H 0.18978 0.67321 1.00187 0.0
H6573 H 0.19471 0.65405 0.00745 0.0
H6574 H 0.20372 0.64399 0.98144 0.0
H6575 H 0.18444 0.64029 0.96152 0.0
H6576 H 0.03955 0.37255 0.68008 0.0
H6577 H 0.0209 0.37529 0.70069 0.0
H6578 H 0.03341 0.33086 0.71809 0.0
H6579 H 0.05229 0.32808 0.69757 0.0
H6580 H 0.99615 0.35617 0.70593 0.0
H6581 H 0.03454 0.35783 0.75662 0.0
H6582 H 0.0414 0.3608 0.73736 0.0
H6583 H 0.03734 0.3418 0.74405 0.0
C6584 C 0.03842 0.36338 0.68832 0.0
C6585 C 0.0474 0.35008 0.68717 0.0
C6586 C 0.02778 0.36498 0.70012 0.0
C6587 C 0.02594 0.35339 0.71105 0.0
C6588 C 0.03488 0.34009 0.70997 0.0
H6589 H 0.95574 0.33833 0.77937 0.0
H6590 H 0.97974 0.33715 0.76488 0.0
C6591 C 0.04556 0.33847 0.69815 0.0
C6592 C 0.01394 0.35487 0.72293 0.0
H6593 H 0.0078 0.3567 0.76153 0.0
C6594 C 0.99871 0.35636 0.71808 0.0
C6595 C 0.01732 0.35501 0.73877 0.0
C6596 C 0.03354 0.3539 0.74457 0.0
C6597 C 0.98675 0.35789 0.72862 0.0
C6598 C 0.99012 0.35821 0.74445 0.0
C6599 C 0.00531 0.35655 0.74937 0.0
C6600 C 0.97778 0.36011 0.75588 0.0
C6601 C 0.97053 0.35893 0.72273 0.0
C6602 C 0.96926 0.3737 0.75626 0.0
C6603 C 0.9556 0.3744 0.7645 0.0
C6604 C 0.95031 0.36154 0.77256 0.0
C6605 C 0.95961 0.34844 0.77335 0.0
C6606 C 0.97327 0.34773 0.76503 0.0
H6607 H 0.96961 0.35514 0.71062 0.0
H6608 H 0.96269 0.35186 0.7298 0.0
H6609 H 0.96661 0.37099 0.72339 0.0
H6610 H 0.97268 0.38344 0.74941 0.0
H6611 H 0.94868 0.38466 0.76379 0.0
H6612 H 0.15746 0.95866 0.77471 0.0
H6613 H 0.15938 0.98267 0.76055 0.0
H6614 H 0.11076 0.98163 0.75202 0.0
H6615 H 0.10884 0.95743 0.76599 0.0
H6616 H 0.12699 0.98412 0.72602 0.0
H6617 H 0.14829 0.02689 0.76771 0.0
H6618 H 0.1598 0.00991 0.76722 0.0
H6619 H 0.14024 0.00879 0.77354 0.0
C6620 C 0.1471 0.96383 0.77027 0.0
C6621 C 0.133 0.9562 0.77144 0.0
C6622 C 0.14821 0.97757 0.76218 0.0
C6623 C 0.13519 0.98403 0.75532 0.0
C6624 C 0.12095 0.97686 0.75724 0.0
H6625 H 0.12296 0.05786 0.68969 0.0
H6626 H 0.11912 0.03778 0.70877 0.0
C6627 C 0.11985 0.96307 0.76522 0.0
C6628 C 0.13674 0.99709 0.74461 0.0
H6629 H 0.15067 0.03345 0.74117 0.0
C6630 C 0.13199 0.99497 0.7294 0.0
C6631 C 0.14338 0.0112 0.74899 0.0
C6632 C 0.14808 0.01441 0.76529 0.0
C6633 C 0.13399 0.00643 0.71837 0.0
C6634 C 0.14082 0.02043 0.72271 0.0
C6635 C 0.14549 0.02265 0.73791 0.0
C6636 C 0.14321 0.03287 0.71151 0.0
C6637 C 0.12914 1.00338 0.70207 0.0
C6638 C 0.15806 0.03684 0.70692 0.0
C6639 C 0.16031 0.04828 0.69597 0.0
C6640 C 0.14774 0.056 0.68955 0.0
C6641 C 0.13289 0.0521 0.69436 0.0
C6642 C 0.13066 0.04062 0.70524 0.0
H6643 H 0.12678 0.99105 0.70001 0.0
H6644 H 0.11856 0.00991 0.69956 0.0
H6645 H 0.13812 0.00722 0.69395 0.0
H6646 H 0.16788 0.03095 0.71166 0.0
H6647 H 0.17189 0.05106 0.69255 0.0
H6648 H 0.54653 0.1652 0.77977 0.0
H6649 H 0.52187 0.16929 0.76713 0.0
H6650 H 0.52381 0.12364 0.74845 0.0
H6651 H 0.54815 0.1193 0.76144 0.0
H6652 H 0.51905 0.16907 0.73635 0.0
H6653 H 0.47936 0.12633 0.76064 0.0
H6654 H 0.4971 0.13149 0.76991 0.0
H6655 H 0.49696 0.1177 0.75458 0.0
C6656 C 0.54142 0.15584 0.77343 0.0
C6657 C 0.54931 0.14193 0.77157 0.0
C6658 C 0.52738 0.15824 0.76613 0.0
C6659 C 0.52091 0.14674 0.75694 0.0
C6660 C 0.52838 0.13257 0.75572 0.0
H6661 H 0.46149 0.13506 0.6814 0.0
H6662 H 0.47925 0.13356 0.70292 0.0
C6663 C 0.54239 0.13016 0.76303 0.0
C6664 C 0.50753 0.15011 0.74705 0.0
H6665 H 0.47299 0.13593 0.73548 0.0
C6666 C 0.50882 0.16204 0.73637 0.0
C6667 C 0.49421 0.14091 0.74706 0.0
C6668 C 0.49174 0.12849 0.75878 0.0
C6669 C 0.49758 0.16447 0.72516 0.0
C6670 C 0.48461 0.1548 0.72475 0.0
C6671 C 0.48299 0.14327 0.7358 0.0
C6672 C 0.47327 0.15572 0.71219 0.0
C6673 C 0.50002 0.17681 0.71335 0.0
C6674 C 0.46391 0.16864 0.71036 0.0
C6675 C 0.45373 0.16956 0.69802 0.0
C6676 C 0.45276 0.15756 0.68733 0.0
C6677 C 0.462 0.14455 0.68937 0.0
C6678 C 0.47212 0.14363 0.7017 0.0
H6679 H 0.51179 0.18159 0.71378 0.0
H6680 H 0.49788 0.17228 0.70166 0.0
H6681 H 0.49182 0.18628 0.71541 0.0
H6682 H 0.46453 0.17802 0.71845 0.0
H6683 H 0.4467 0.17969 0.69682 0.0
H6684 H 0.33301 0.45291 0.70242 0.0
H6685 H 0.33578 0.47222 0.72263 0.0
H6686 H 0.38212 0.48085 0.70809 0.0
H6687 H 0.37937 0.46189 0.68776 0.0
H6688 H 0.3565 0.47559 0.74719 0.0
H6689 H 0.36219 0.52294 0.7054 0.0
H6690 H 0.35568 0.50411 0.69998 0.0
H6691 H 0.37579 0.50786 0.70239 0.0
C6692 C 0.3438 0.45889 0.70356 0.0
C6693 C 0.3559 0.45602 0.69335 0.0
C6694 C 0.34538 0.46988 0.71514 0.0
C6695 C 0.35906 0.47816 0.71668 0.0
C6696 C 0.37134 0.47484 0.70689 0.0
H6697 H 0.39352 0.55347 0.76953 0.0
H6698 H 0.39065 0.52933 0.75564 0.0
C6699 C 0.36975 0.46396 0.69529 0.0
C6700 C 0.36043 0.49065 0.7281 0.0
H6701 H 0.36808 0.52882 0.73128 0.0
C6702 C 0.35894 0.48725 0.74374 0.0
C6703 C 0.36346 0.50589 0.72355 0.0
C6704 C 0.36422 0.51048 0.70691 0.0
C6705 C 0.36092 0.49864 0.75497 0.0
C6706 C 0.3644 0.51374 0.75038 0.0
C6707 C 0.3656 0.51716 0.73476 0.0
C6708 C 0.36679 0.52638 0.76143 0.0
C6709 C 0.35963 0.49445 0.77165 0.0
C6710 C 0.35444 0.53242 0.76973 0.0
C6711 C 0.35603 0.54627 0.77766 0.0
C6712 C 0.36998 0.5543 0.7773 0.0
C6713 C 0.38261 0.5476 0.7699 0.0
C6714 C 0.381 0.53381 0.76199 0.0
H6715 H 0.35954 0.48186 0.7734 0.0
H6716 H 0.36927 0.49947 0.77825 0.0
H6717 H 0.34885 0.49923 0.77634 0.0
H6718 H 0.34332 0.52697 0.76926 0.0
H6719 H 0.34606 0.55122 0.7831 0.0
H6720 H 0.95052 0.12302 0.74327 0.0
H6721 H 0.97503 0.12733 0.75605 0.0
H6722 H 0.97797 0.17209 0.73555 0.0
H6723 H 0.9532 0.16795 0.72294 0.0
H6724 H 0.00501 0.13545 0.74651 0.0
H6725 H 0.97755 0.18079 0.78195 0.0
H6726 H 0.96656 0.16778 0.77026 0.0
H6727 H 0.97678 0.18332 0.76156 0.0
C6728 C 0.95652 0.13368 0.74128 0.0
C6729 C 0.94987 0.14522 0.73227 0.0
C6730 C 0.97053 0.13612 0.74855 0.0
C6731 C 0.97816 0.15015 0.747 0.0
C6732 C 0.97213 0.16128 0.7371 0.0
H6733 H 0.05221 0.18054 0.80841 0.0
H6734 H 0.03406 0.17991 0.78697 0.0
C6735 C 0.95807 0.15884 0.72978 0.0
C6736 C 0.99163 0.15339 0.75682 0.0
H6737 H 1.00274 0.17403 0.78815 0.0
C6738 C 0.00461 0.14402 0.75549 0.0
C6739 C 0.99108 0.16458 0.76854 0.0
C6740 C 0.97724 0.17465 0.77082 0.0
C6741 C 0.01688 0.14528 0.76581 0.0
C6742 C 0.01601 0.15599 0.77794 0.0
C6743 C 1.00335 0.16582 0.77885 0.0
C6744 C 0.02745 0.15632 0.79049 0.0
C6745 C 0.03058 0.13499 0.76375 0.0
C6746 C 0.02954 0.14336 0.79973 0.0
C6747 C 0.0398 0.1437 0.81197 0.0
C6748 C 0.04815 0.15705 0.81531 0.0
C6749 C 0.04597 0.17008 0.80612 0.0
C6750 C 0.03564 0.16973 0.79386 0.0
H6751 H 0.03172 0.13114 0.75169 0.0
H6752 H 0.04131 0.14086 0.76722 0.0
H6753 H 0.02917 0.12467 0.771 0.0
H6754 H 0.02305 0.13302 0.79759 0.0
H6755 H 0.04115 0.13348 0.81883 0.0
H6756 H 0.33062 0.04018 0.82076 0.0
H6757 H 0.33286 0.01872 0.80281 0.0
H6758 H 0.37735 0.03484 0.78896 0.0
H6759 H 0.37523 0.0563 0.80676 0.0
H6760 H 0.35698 0.02666 0.76413 0.0
H6761 H 0.36198 0.98147 0.80866 0.0
H6762 H 0.34588 0.99415 0.81046 0.0
H6763 H 0.36492 1.00149 0.81282 0.0
C6764 C 0.3409 0.03913 0.81393 0.0
C6765 C 0.35277 0.04991 0.81525 0.0
C6766 C 0.34216 0.02686 0.8037 0.0
C6767 C 0.35531 0.02517 0.79464 0.0
C6768 C 0.36711 0.03596 0.79585 0.0
H6769 H 0.38871 0.9451 0.74843 0.0
H6770 H 0.38592 0.96923 0.76235 0.0
C6771 C 0.3659 0.04817 0.80609 0.0
C6772 C 0.35692 0.01209 0.78398 0.0
H6773 H 0.36119 0.9733 0.78294 0.0
C6774 C 0.35785 0.01497 0.7682 0.0
C6775 C 0.35821 0.99691 0.78938 0.0
C6776 C 0.35782 0.99324 0.80625 0.0
C6777 C 0.36001 1.00302 0.75764 0.0
C6778 C 0.3612 0.98784 0.76306 0.0
C6779 C 0.36025 0.98498 0.77884 0.0
C6780 C 0.36379 0.97466 0.75269 0.0
C6781 C 0.36135 0.00671 0.74085 0.0
C6782 C 0.35248 0.96999 0.74227 0.0
C6783 C 0.35406 0.95619 0.73425 0.0
C6784 C 0.36693 0.94684 0.73668 0.0
C6785 C 0.37863 0.95205 0.74642 0.0
C6786 C 0.37705 0.96579 0.75439 0.0
H6787 H 0.36327 0.01912 0.73886 0.0
H6788 H 0.37089 1.00018 0.73558 0.0
H6789 H 0.35062 1.00335 0.73495 0.0
H6790 H 0.34207 0.97658 0.74094 0.0
H6791 H 0.34479 0.95236 0.72697 0.0
H6792 H 0.45676 0.32901 0.81765 0.0
H6793 H 0.47687 0.33019 0.79824 0.0
H6794 H 0.47597 0.3795 0.80021 0.0
H6795 H 0.45552 0.37842 0.81923 0.0
H6796 H 0.47667 0.36966 0.77114 0.0
H6797 H 0.52139 0.3394 0.80453 0.0
H6798 H 0.50422 0.32842 0.80215 0.0
H6799 H 0.50377 0.3459 0.81305 0.0
C6800 C 0.46094 0.3401 0.81404 0.0
C6801 C 0.45461 0.35362 0.82003 0.0
C6802 C 0.47248 0.34076 0.80297 0.0
C6803 C 0.47812 0.35493 0.79792 0.0
C6804 C 0.47183 0.36843 0.80394 0.0
H6805 H 0.55396 0.38759 0.74566 0.0
H6806 H 0.5298 0.38483 0.75962 0.0
C6807 C 0.46017 0.36779 0.81485 0.0
C6808 C 0.49041 0.35578 0.78621 0.0
H6809 H 0.52719 0.34494 0.77866 0.0
C6810 C 0.48771 0.36425 0.77279 0.0
C6811 C 0.50484 0.34873 0.78836 0.0
C6812 C 0.50882 0.34023 0.80286 0.0
C6813 C 0.49906 0.36588 0.76154 0.0
C6814 C 0.51342 0.35884 0.76374 0.0
C6815 C 0.51606 0.35017 0.77697 0.0
C6816 C 0.52632 0.36122 0.75305 0.0
C6817 C 0.49573 0.37516 0.74739 0.0
C6818 C 0.53211 0.34896 0.74444 0.0
C6819 C 0.5458 0.35057 0.73631 0.0
C6820 C 0.55401 0.36439 0.73693 0.0
C6821 C 0.54778 0.37686 0.74494 0.0
C6822 C 0.53401 0.3753 0.7529 0.0
H6823 H 0.48331 0.37756 0.74608 0.0
H6824 H 0.50189 0.38624 0.74812 0.0
H6825 H 0.49987 0.36909 0.73702 0.0
H6826 H 0.52637 0.33797 0.74455 0.0
H6827 H 0.55049 0.34073 0.73041 0.0
H6828 H 0.12383 0.46236 0.82168 0.0
H6829 H 0.12245 0.48222 0.80212 0.0
H6830 H 0.16716 0.46928 0.78569 0.0
H6831 H 0.16883 0.44971 0.80563 0.0
H6832 H 0.16556 0.4989 0.78827 0.0
H6833 H 0.11388 0.47993 0.75733 0.0
H6834 H 0.10986 0.48225 0.7773 0.0
H6835 H 0.12343 0.46797 0.77118 0.0
C6836 C 0.13332 0.46364 0.81383 0.0
C6837 C 0.14643 0.45444 0.8152 0.0
C6838 C 0.13245 0.47492 0.80253 0.0
C6839 C 0.14454 0.47705 0.79216 0.0
C6840 C 0.15762 0.46779 0.79347 0.0
H6841 H 0.13149 0.54523 0.71862 0.0
H6842 H 0.13625 0.52068 0.73147 0.0
C6843 C 0.15858 0.45662 0.80488 0.0
C6844 C 0.14397 0.48964 0.78074 0.0
H6845 H 0.12086 0.50654 0.75411 0.0
C6846 C 0.15589 0.50041 0.78063 0.0
C6847 C 0.13156 0.4915 0.77046 0.0
C6848 C 0.11906 0.47968 0.76894 0.0
C6849 C 0.15533 0.51339 0.77121 0.0
C6850 C 0.14225 0.51595 0.76197 0.0
C6851 C 0.13076 0.50474 0.76138 0.0
C6852 C 0.13977 0.53068 0.75387 0.0
C6853 C 0.16873 0.52427 0.77137 0.0
C6854 C 0.13999 0.5444 0.76219 0.0
C6855 C 0.13749 0.55834 0.7549 0.0
C6856 C 0.13432 0.55896 0.73911 0.0
C6857 C 0.13397 0.54518 0.73076 0.0
C6858 C 0.13662 0.53115 0.7381 0.0
H6859 H 0.17954 0.51819 0.77418 0.0
H6860 H 0.17015 0.53009 0.76017 0.0
H6861 H 0.16687 0.53309 0.78032 0.0
H6862 H 0.14201 0.54434 0.77442 0.0
H6863 H 0.13821 0.56868 0.76169 0.0
H6864 H 0.78286 0.95683 0.3677 0.0
H6865 H 0.76706 0.97931 0.36174 0.0
H6866 H 0.72779 0.95003 0.35549 0.0
H6867 H 0.74349 0.92774 0.36035 0.0
H6868 H 0.72895 0.97082 0.3337 0.0
H6869 H 0.7367 0.99899 0.39026 0.0
H6870 H 0.75404 0.99571 0.37976 0.0
H6871 H 0.74306 0.97972 0.38658 0.0
C6872 C 0.77088 0.95523 0.36497 0.0
C6873 C 0.76438 0.9405 0.36489 0.0
C6874 C 0.76183 0.96808 0.36171 0.0
C6875 C 0.74616 0.96637 0.35848 0.0
C6876 C 0.73981 0.95167 0.35806 0.0
H6877 H 0.67196 0.02919 0.36992 0.0
H6878 H 0.69067 0.00842 0.37094 0.0
C6879 C 0.74881 0.93891 0.36109 0.0
C6880 C 0.73604 0.97969 0.35559 0.0
H6881 H 0.72084 0.01145 0.37246 0.0
C6882 C 0.72723 0.97977 0.34213 0.0
C6883 C 0.73371 0.99125 0.36668 0.0
C6884 C 0.74226 0.99141 0.3817 0.0
C6885 C 0.71579 0.99075 0.33968 0.0
C6886 C 0.71347 1.00232 0.35076 0.0
C6887 C 0.72262 1.00254 0.36399 0.0
C6888 C 0.70125 0.014 0.34925 0.0
C6889 C 0.70587 0.9894 0.32559 0.0
C6890 C 0.70073 0.02381 0.33654 0.0
C6891 C 0.68982 0.03548 0.33579 0.0
C6892 C 0.67951 0.03775 0.34792 0.0
C6893 C 0.6798 0.0277 0.36043 0.0
C6894 C 0.69053 0.01589 0.36105 0.0
H6895 H 0.7062 0.97767 0.32071 0.0
H6896 H 0.69379 0.99237 0.32817 0.0
H6897 H 0.71014 0.9974 0.31671 0.0
H6898 H 0.70909 0.02281 0.32746 0.0
H6899 H 0.68999 0.0432 0.3261 0.0
H6900 H 0.46339 0.68934 0.38709 0.0
H6901 H 0.48288 0.70929 0.38932 0.0
H6902 H 0.47521 0.72218 0.34233 0.0
H6903 H 0.45561 0.7023 0.33998 0.0
H6904 H 0.50953 0.71076 0.3711 0.0
H6905 H 0.47459 0.76358 0.36543 0.0
H6906 H 0.46635 0.74524 0.37021 0.0
H6907 H 0.47166 0.74938 0.35081 0.0
C6908 C 0.46574 0.6965 0.37725 0.0
C6909 C 0.45796 0.6942 0.36334 0.0
C6910 C 0.47686 0.70791 0.37857 0.0
C6911 C 0.48033 0.71735 0.36606 0.0
C6912 C 0.47249 0.71523 0.35221 0.0
H6913 H 0.55379 0.78143 0.34769 0.0
H6914 H 0.52925 0.76774 0.34732 0.0
C6915 C 0.46138 0.70377 0.35086 0.0
C6916 C 0.493 0.72858 0.36722 0.0
H6917 H 0.50161 0.7667 0.36539 0.0
C6918 C 0.50779 0.723 0.36996 0.0
C6919 C 0.49069 0.74451 0.36556 0.0
C6920 C 0.47496 0.75111 0.36296 0.0
C6921 C 0.52038 0.73288 0.37091 0.0
C6922 C 0.51808 0.74885 0.36947 0.0
C6923 C 0.50331 0.75447 0.36662 0.0
C6924 C 0.53108 0.75969 0.37066 0.0
C6925 C 0.53611 0.72607 0.37309 0.0
C6926 C 0.53976 0.76041 0.38416 0.0
C6927 C 0.55374 0.76813 0.38436 0.0
C6928 C 0.55916 0.77545 0.37113 0.0
C6929 C 0.54979 0.77597 0.35807 0.0
C6930 C 0.53583 0.7681 0.35783 0.0
H6931 H 0.53637 0.71371 0.37012 0.0
H6932 H 0.54472 0.73212 0.36597 0.0
H6933 H 0.53953 0.72723 0.38526 0.0
H6934 H 0.53614 0.75425 0.39427 0.0
H6935 H 0.56075 0.76764 0.39458 0.0
H6936 H 0.80746 0.45475 0.33667 0.0
H6937 H 0.78763 0.47425 0.34013 0.0
H6938 H 0.8002 0.4787 0.38765 0.0
H6939 H 0.8202 0.45949 0.38426 0.0
H6940 H 0.76224 0.47627 0.36002 0.0
H6941 H 0.80465 0.52222 0.37125 0.0
H6942 H 0.80999 0.50385 0.36349 0.0
H6943 H 0.80658 0.506 0.38368 0.0
C6944 C 0.80599 0.45986 0.34787 0.0
C6945 C 0.81554 0.45572 0.36014 0.0
C6946 C 0.79461 0.47096 0.34983 0.0
C6947 C 0.79261 0.47808 0.36408 0.0
C6948 C 0.80176 0.47356 0.37648 0.0
H6949 H 0.74028 0.55467 0.39747 0.0
H6950 H 0.75345 0.53005 0.39553 0.0
C6951 C 0.81317 0.46255 0.37452 0.0
C6952 C 0.78139 0.49066 0.36589 0.0
H6953 H 0.77862 0.52844 0.37531 0.0
C6954 C 0.76579 0.4877 0.36333 0.0
C6955 C 0.78609 0.50557 0.3701 0.0
C6956 C 0.80274 0.50969 0.37215 0.0
C6957 C 0.75472 0.49923 0.36521 0.0
C6958 C 0.75944 0.51405 0.36965 0.0
C6959 C 0.77503 0.517 0.37209 0.0
C6960 C 0.74862 0.52697 0.37145 0.0
C6961 C 0.73807 0.49546 0.36269 0.0
C6962 C 0.74106 0.53309 0.35867 0.0
C6963 C 0.73353 0.54718 0.35975 0.0
C6964 C 0.73358 0.55538 0.3736 0.0
C6965 C 0.74018 0.54865 0.38663 0.0
C6966 C 0.74767 0.53459 0.38555 0.0
H6967 H 0.73599 0.48292 0.36276 0.0
H6968 H 0.73083 0.5009 0.37161 0.0
H6969 H 0.73442 0.5 0.35141 0.0
H6970 H 0.74187 0.52752 0.34763 0.0
H6971 H 0.72869 0.55218 0.34949 0.0
H6972 H 0.04661 0.81579 0.33594 0.0
H6973 H 0.02649 0.79669 0.34021 0.0
H6974 H 0.03633 0.79702 0.38854 0.0
H6975 H 0.05648 0.816 0.38444 0.0
H6976 H 0.03105 0.7657 0.35802 0.0
H6977 H 0.98835 0.80677 0.38159 0.0
H6978 H 1.00353 0.81273 0.3689 0.0
H6979 H 0.00776 0.80808 0.38843 0.0
C6980 C 0.04447 0.81183 0.34748 0.0
C6981 C 0.05311 0.81742 0.35986 0.0
C6982 C 0.03304 0.80089 0.34987 0.0
C6983 C 0.03 0.79552 0.36467 0.0
C6984 C 0.03855 0.80109 0.37704 0.0
H6985 H 0.95577 0.74124 0.40135 0.0
H6986 H 0.9798 0.7554 0.39868 0.0
C6987 C 0.05003 0.81193 0.37467 0.0
C6988 C 0.01773 0.78422 0.36728 0.0
H6989 H 0.98159 0.78073 0.38143 0.0
C6990 C 0.02021 0.76892 0.36313 0.0
C6991 C 0.00372 0.78853 0.37404 0.0
C6992 C 1.00053 0.80492 0.37846 0.0
C6993 C 0.00898 0.7577 0.3657 0.0
C6994 C 0.99485 0.76205 0.37228 0.0
C6995 C 0.99246 0.77739 0.37648 0.0
C6996 C 0.98202 0.75114 0.37438 0.0
C6997 C 0.01247 0.7413 0.36159 0.0
C6998 C 0.97557 0.74364 0.36171 0.0
C6999 C 0.96194 0.73543 0.36326 0.0
C7000 C 0.95442 0.73479 0.37745 0.0
C7001 C 0.96133 0.74159 0.39028 0.0
C7002 C 0.97502 0.74969 0.38876 0.0
H7003 H 0.025 0.73914 0.36136 0.0
H7004 H 0.00709 0.73325 0.36979 0.0
H7005 H 0.0079 0.73884 0.35 0.0
H7006 H 0.98055 0.74489 0.35044 0.0
H7007 H 0.95673 0.73052 0.35313 0.0
H7008 H 0.69327 0.47067 0.17414 0.0
H7009 H 0.70999 0.49299 0.17134 0.0
H7010 H 0.7255 0.47599 0.1277 0.0
H7011 H 0.70893 0.45364 0.1304 0.0
H7012 H 0.74943 0.4865 0.14787 0.0
H7013 H 0.70225 0.5286 0.14085 0.0
H7014 H 0.7009 0.51655 0.15745 0.0
H7015 H 0.69939 0.50826 0.1387 0.0
C7016 C 0.70021 0.4717 0.16394 0.0
C7017 C 0.69971 0.46043 0.15246 0.0
C7018 C 0.70973 0.48446 0.16235 0.0
C7019 C 0.71887 0.48616 0.14926 0.0
C7020 C 0.71852 0.47487 0.13787 0.0
H7021 H 0.7607 0.57019 0.11852 0.0
H7022 H 0.74836 0.54509 0.11959 0.0
C7023 C 0.70898 0.46215 0.13942 0.0
C7024 C 0.72869 0.49981 0.14732 0.0
H7025 H 0.72734 0.53853 0.14279 0.0
C7026 C 0.74464 0.4979 0.14674 0.0
C7027 C 0.72236 0.51459 0.14566 0.0
C7028 C 0.70528 0.51719 0.14556 0.0
C7029 C 0.75445 0.51047 0.14477 0.0
C7030 C 0.74811 0.52529 0.14344 0.0
C7031 C 0.73216 0.52714 0.14384 0.0
C7032 C 0.75768 0.53916 0.14174 0.0
C7033 C 0.77148 0.50782 0.1439 0.0
C7034 C 0.76738 0.54391 0.15364 0.0
C7035 C 0.77445 0.55826 0.15305 0.0
C7036 C 0.77181 0.5681 0.1406 0.0
C7037 C 0.76282 0.5629 0.12831 0.0
C7038 C 0.75579 0.54858 0.1289 0.0
H7039 H 0.77424 0.49566 0.14141 0.0
H7040 H 0.77675 0.51514 0.13496 0.0
H7041 H 0.77675 0.51087 0.15505 0.0
H7042 H 0.7688 0.53692 0.16376 0.0
H7043 H 0.78115 0.56204 0.16278 0.0
H7044 H 0.05996 0.69773 0.12923 0.0
H7045 H 0.03993 0.717 0.12623 0.0
H7046 H 0.02015 0.70334 0.16928 0.0
H7047 H 0.04015 0.68394 0.17239 0.0
H7048 H 0.99903 0.70591 0.14455 0.0
H7049 H 0.03547 0.75769 0.15032 0.0
H7050 H 0.0421 0.74383 0.13664 0.0
H7051 H 0.04161 0.73897 0.15659 0.0
C7052 C 0.05137 0.69881 0.13809 0.0
C7053 C 0.05166 0.68932 0.15108 0.0
C7054 C 0.04001 0.70992 0.1364 0.0
C7055 C 0.02874 0.71176 0.14765 0.0
C7056 C 0.02885 0.70217 0.16053 0.0
H7057 H 0.95741 0.77967 0.15868 0.0
H7058 H 0.98095 0.7647 0.16127 0.0
C7059 C 0.04027 0.69109 0.16228 0.0
C7060 C 0.01647 0.72326 0.14567 0.0
H7061 H 0.00977 0.76165 0.14225 0.0
C7062 C 1.00136 0.71809 0.14409 0.0
C7063 C 0.01957 0.73915 0.14519 0.0
C7064 C 0.03554 0.74531 0.1474 0.0
C7065 C 0.98928 0.72838 0.14177 0.0
C7066 C 0.99242 0.74423 0.14088 0.0
C7067 C 0.00747 0.74946 0.14276 0.0
C7068 C 0.98001 0.75544 0.13834 0.0
C7069 C 0.97319 0.72225 0.14042 0.0
C7070 C 0.97218 0.75574 0.12434 0.0
C7071 C 0.95882 0.76436 0.12277 0.0
C7072 C 0.95306 0.7728 0.13522 0.0
C7073 C 0.96161 0.77341 0.14885 0.0
C7074 C 0.97501 0.76479 0.15039 0.0
H7075 H 0.97236 0.71015 0.14422 0.0
H7076 H 0.96513 0.72926 0.1473 0.0
H7077 H 0.96948 0.72284 0.12828 0.0
H7078 H 0.97601 0.74872 0.11486 0.0
H7079 H 0.95258 0.76383 0.11207 0.0
H7080 H 0.81825 0.05701 0.12037 0.0
H7081 H 0.79835 0.03772 0.11656 0.0
H7082 H 0.79878 0.02775 0.1649 0.0
H7083 H 0.81833 0.04736 0.16886 0.0
H7084 H 0.80001 0.00811 0.12111 0.0
H7085 H 0.75358 0.03077 0.15753 0.0
H7086 H 0.77008 0.04208 0.15238 0.0
H7087 H 0.77105 0.02879 0.1681 0.0
C7088 C 0.81402 0.05079 0.13022 0.0
C7089 C 0.81986 0.05371 0.14493 0.0
C7090 C 0.80261 0.0398 0.12802 0.0
C7091 C 0.79683 0.03147 0.14048 0.0
C7092 C 0.80269 0.03434 0.15517 0.0
H7093 H 0.76328 0.94105 0.14323 0.0
H7094 H 0.7769 0.96533 0.14337 0.0
C7095 C 0.81399 0.04545 0.15741 0.0
C7096 C 0.7856 0.01896 0.13793 0.0
H7097 H 0.75197 0.00392 0.15103 0.0
C7098 C 0.7894 0.00736 0.12749 0.0
C7099 C 0.77159 0.01806 0.14601 0.0
C7100 C 0.76625 0.03069 0.1565 0.0
C7101 C 0.78 0.99451 0.12553 0.0
C7102 C 0.76663 0.99303 0.1345 0.0
C7103 C 0.76235 0.00499 0.14431 0.0
C7104 C 0.75782 0.97855 0.1348 0.0
C7105 C 0.78465 0.98248 0.11402 0.0
C7106 C 0.74232 0.97801 0.1305 0.0
C7107 C 0.73442 0.96402 0.13042 0.0
C7108 C 0.74196 0.95045 0.13463 0.0
C7109 C 0.75729 0.95122 0.13946 0.0
C7110 C 0.7651 0.9651 0.13957 0.0
H7111 H 0.79199 0.9874 0.10489 0.0
H7112 H 0.79133 0.97343 0.11991 0.0
H7113 H 0.77449 0.97709 0.10861 0.0
H7114 H 0.73646 0.98833 0.12695 0.0
H7115 H 0.72258 0.96376 0.12678 0.0
H7116 H 0.57185 0.75299 0.16065 0.0
H7117 H 0.54589 0.76187 0.16502 0.0
H7118 H 0.52814 0.71879 0.1486 0.0
H7119 H 0.5544 0.70994 0.14363 0.0
H7120 H 0.51388 0.74267 0.13542 0.0
H7121 H 0.51496 0.75255 0.19754 0.0
H7122 H 0.53126 0.76161 0.18908 0.0
H7123 H 0.52927 0.74109 0.188 0.0
C7124 C 0.56245 0.74537 0.15795 0.0
C7125 C 0.56515 0.73085 0.15161 0.0
C7126 C 0.5476 0.75036 0.16072 0.0
C7127 C 0.53507 0.74088 0.15745 0.0
C7128 C 0.53767 0.72622 0.15137 0.0
H7129 H 0.45118 0.79249 0.17794 0.0
H7130 H 0.46873 0.77062 0.17787 0.0
C7131 C 0.55264 0.72118 0.14857 0.0
C7132 C 0.51942 0.74717 0.15904 0.0
H7133 H 0.49839 0.76987 0.18279 0.0
C7134 C 0.51026 0.74827 0.1459 0.0
C7135 C 0.51444 0.75412 0.17279 0.0
C7136 C 0.52295 0.75211 0.18767 0.0
C7137 C 0.49708 0.75742 0.14575 0.0
C7138 C 0.49326 0.76599 0.15896 0.0
C7139 C 0.50153 0.76363 0.17253 0.0
C7140 C 0.48193 0.7786 0.1585 0.0
C7141 C 0.48768 0.75817 0.13129 0.0
C7142 C 0.48367 0.79046 0.14782 0.0
C7143 C 0.47367 0.80288 0.14779 0.0
C7144 C 0.46186 0.80385 0.15863 0.0
C7145 C 0.46021 0.79208 0.16947 0.0
C7146 C 0.47017 0.77955 0.1694 0.0
H7147 H 0.48823 0.74717 0.12493 0.0
H7148 H 0.4755 0.76085 0.13375 0.0
H7149 H 0.49239 0.7672 0.12372 0.0
H7150 H 0.49298 0.79027 0.13965 0.0
H7151 H 0.47532 0.81182 0.13938 0.0
H7152 H 0.37528 0.67741 0.02997 0.0
H7153 H 0.3763 0.69681 0.00988 0.0
H7154 H 0.32713 0.70065 0.01085 0.0
H7155 H 0.32598 0.68122 0.03106 0.0
H7156 H 0.36139 0.69786 0.9803 0.0
H7157 H 0.34326 0.74494 0.01923 0.0
H7158 H 0.35013 0.72678 0.02629 0.0
H7159 H 0.33118 0.72829 0.01852 0.0
C7160 C 0.36466 0.68227 0.02583 0.0
C7161 C 0.35056 0.6779 0.03221 0.0
C7162 C 0.36527 0.69335 0.01435 0.0
C7163 C 0.35182 0.70036 0.00912 0.0
C7164 C 0.33765 0.69555 0.01496 0.0
H7165 H 0.3402 0.77429 0.94293 0.0
H7166 H 0.33613 0.75603 0.96384 0.0
C7167 C 0.33702 0.68437 0.0264 0.0
C7168 C 0.3528 0.71291 0.99778 0.0
H7169 H 0.34837 0.75154 0.99358 0.0
C7170 C 0.3585 0.70959 0.98317 0.0
C7171 C 0.34897 0.72818 1.00158 0.0
C7172 C 0.34313 0.73238 0.01728 0.0
C7173 C 0.36053 0.72114 0.97223 0.0
C7174 C 0.35712 0.7365 0.97616 0.0
C7175 C 0.35109 0.73978 0.99066 0.0
C7176 C 0.35989 0.74922 0.96529 0.0
C7177 C 0.36617 0.71677 0.9565 0.0
C7178 C 0.37471 0.75205 0.95981 0.0
C7179 C 0.37705 0.76246 0.94793 0.0
C7180 C 0.36464 0.77035 0.94144 0.0
C7181 C 0.34999 0.76846 0.94781 0.0
C7182 C 0.34764 0.75795 0.95966 0.0
H7183 H 0.36425 0.70444 0.95406 0.0
H7184 H 0.36039 0.72363 0.9475 0.0
H7185 H 0.37865 0.71899 0.95578 0.0
H7186 H 0.38438 0.74571 0.96427 0.0
H7187 H 0.38847 0.7638 0.9433 0.0
H7188 H 0.34274 0.73513 0.55221 0.0
H7189 H 0.34111 0.74948 0.52828 0.0
H7190 H 0.38983 0.75733 0.52963 0.0
H7191 H 0.39145 0.74321 0.55377 0.0
H7192 H 0.37423 0.78352 0.52688 0.0
H7193 H 0.3521 0.74221 0.48416 0.0
H7194 H 0.3405 0.74308 0.50106 0.0
H7195 H 0.35988 0.73625 0.50234 0.0
C7196 C 0.35317 0.73947 0.54713 0.0
C7197 C 0.36723 0.73805 0.55483 0.0
C7198 C 0.35223 0.74768 0.53343 0.0
C7199 C 0.36536 0.7544 0.52707 0.0
C7200 C 0.37955 0.75224 0.53432 0.0
H7201 H 0.38042 0.81781 0.45204 0.0
H7202 H 0.38317 0.79906 0.47262 0.0
C7203 C 0.38047 0.74416 0.54807 0.0
C7204 C 0.36405 0.76512 0.51396 0.0
H7205 H 0.35049 0.76876 0.47745 0.0
C7206 C 0.3692 0.78022 0.51602 0.0
C7207 C 0.35738 0.76086 0.49982 0.0
C7208 C 0.35229 0.74468 0.49664 0.0
C7209 C 0.36763 0.79121 0.50445 0.0
C7210 C 0.36078 0.787 0.49043 0.0
C7211 C 0.35567 0.77193 0.48828 0.0
C7212 C 0.359 0.79814 0.47782 0.0
C7213 C 0.37302 0.80736 0.50736 0.0
C7214 C 0.34448 0.80373 0.47391 0.0
C7215 C 0.34286 0.81453 0.46221 0.0
C7216 C 0.35575 0.81978 0.45414 0.0
C7217 C 0.37027 0.81403 0.45804 0.0
C7218 C 0.37187 0.80332 0.46979 0.0
H7219 H 0.37565 0.8094 0.51964 0.0
H7220 H 0.38355 0.80954 0.50062 0.0
H7221 H 0.36421 0.81572 0.50362 0.0
H7222 H 0.33442 0.79983 0.48001 0.0
H7223 H 0.33152 0.81869 0.45944 0.0
H7224 H 0.77695 0.34505 0.55256 0.0
H7225 H 0.76277 0.34369 0.52847 0.0
H7226 H 0.75184 0.39169 0.53218 0.0
H7227 H 0.76578 0.39301 0.55646 0.0
H7228 H 0.7267 0.3746 0.52855 0.0
H7229 H 0.76933 0.35732 0.48497 0.0
H7230 H 0.76919 0.34487 0.50128 0.0
H7231 H 0.77479 0.36456 0.50354 0.0
C7232 C 0.77195 0.35542 0.54797 0.0
C7233 C 0.77246 0.36914 0.55637 0.0
C7234 C 0.76386 0.35464 0.53418 0.0
C7235 C 0.75633 0.36762 0.52843 0.0
C7236 C 0.75757 0.38153 0.53639 0.0
H7237 H 0.69167 0.38252 0.45433 0.0
H7238 H 0.71045 0.38538 0.47489 0.0
C7239 C 0.76554 0.38229 0.55023 0.0
C7240 C 0.74571 0.36629 0.51522 0.0
H7241 H 0.74294 0.35446 0.47803 0.0
C7242 C 0.73032 0.37036 0.51746 0.0
C7243 C 0.75038 0.36064 0.50077 0.0
C7244 C 0.76686 0.35674 0.49743 0.0
C7245 C 0.71945 0.3687 0.50577 0.0
C7246 C 0.72409 0.3629 0.49142 0.0
C7247 C 0.73945 0.35885 0.4891 0.0
C7248 C 0.71307 0.36108 0.47869 0.0
C7249 C 0.70299 0.37288 0.50889 0.0
C7250 C 0.70846 0.34645 0.47396 0.0
C7251 C 0.69765 0.34476 0.46227 0.0
C7252 C 0.6914 0.35769 0.45501 0.0
C7253 C 0.69622 0.37233 0.45969 0.0
C7254 C 0.70694 0.37399 0.47143 0.0
H7255 H 0.70078 0.37464 0.52129 0.0
H7256 H 0.70017 0.38365 0.50279 0.0
H7257 H 0.69519 0.36382 0.50457 0.0
H7258 H 0.71309 0.33635 0.47946 0.0
H7259 H 0.69422 0.33333 0.45889 0.0
H7260 H 0.14548 0.7488 0.56549 0.0
H7261 H 0.15024 0.73729 0.54067 0.0
H7262 H 0.13873 0.7798 0.51845 0.0
H7263 H 0.13335 0.79144 0.54356 0.0
H7264 H 0.12535 0.75427 0.50459 0.0
H7265 H 0.18708 0.74438 0.51326 0.0
H7266 H 0.17626 0.73699 0.52903 0.0
H7267 H 0.17615 0.75724 0.5252 0.0
C7268 C 0.14371 0.75571 0.55536 0.0
C7269 C 0.13883 0.77101 0.55652 0.0
C7270 C 0.14671 0.74916 0.54117 0.0
C7271 C 0.14516 0.75777 0.52774 0.0
C7272 C 0.14015 0.77302 0.52872 0.0
H7273 H 0.17576 0.70482 0.44771 0.0
H7274 H 0.17291 0.72678 0.46496 0.0
C7275 C 0.13712 0.77964 0.54303 0.0
C7276 C 0.14825 0.75034 0.51281 0.0
H7277 H 0.17444 0.72733 0.49527 0.0
C7278 C 0.13619 0.74866 0.50235 0.0
C7279 C 0.1625 0.74333 0.50968 0.0
C7280 C 0.17628 0.74573 0.51982 0.0
C7281 C 0.13762 0.73909 0.48951 0.0
C7282 C 0.15134 0.73075 0.48733 0.0
C7283 C 0.16381 0.73348 0.49708 0.0
C7284 C 0.15253 0.71811 0.47603 0.0
C7285 C 0.12429 0.73776 0.47862 0.0
C7286 C 0.14216 0.70587 0.47665 0.0
C7287 C 0.14374 0.69338 0.46683 0.0
C7288 C 0.15587 0.69274 0.45631 0.0
C7289 C 0.16632 0.70496 0.45572 0.0
C7290 C 0.16467 0.71754 0.46552 0.0
H7291 H 0.11749 0.7485 0.47841 0.0
H7292 H 0.12815 0.73512 0.46681 0.0
H7293 H 0.11661 0.72844 0.48253 0.0
H7294 H 0.13301 0.70579 0.485 0.0
H7295 H 0.13555 0.68412 0.46766 0.0
H7296 H 0.72976 0.13956 0.54996 0.0
H7297 H 0.74671 0.14452 0.52814 0.0
H7298 H 0.78417 0.15304 0.55918 0.0
H7299 H 0.76725 0.14933 0.58079 0.0
H7300 H 0.78465 0.17314 0.53747 0.0
H7301 H 0.7779 0.11562 0.5113 0.0
H7302 H 0.76031 0.12609 0.51291 0.0
H7303 H 0.77033 0.12022 0.52992 0.0
C7304 C 0.74158 0.14261 0.5521 0.0
C7305 C 0.74719 0.14365 0.56716 0.0
C7306 C 0.7513 0.14526 0.53962 0.0
C7307 C 0.76684 0.14877 0.542 0.0
C7308 C 0.7723 0.15019 0.55701 0.0
H7309 H 0.84063 0.13625 0.47756 0.0
H7310 H 0.82309 0.1352 0.49934 0.0
C7311 C 0.7626 0.14782 0.5694 0.0
C7312 C 0.77763 0.15103 0.52908 0.0
H7313 H 0.79321 0.13338 0.49792 0.0
C7314 C 0.78652 0.16444 0.52881 0.0
C7315 C 0.78024 0.13959 0.51791 0.0
C7316 C 0.77181 0.12451 0.51806 0.0
C7317 C 0.79808 0.16662 0.5179 0.0
C7318 C 0.80044 0.15534 0.50653 0.0
C7319 C 0.7914 0.14204 0.50664 0.0
C7320 C 0.81226 0.15694 0.49443 0.0
C7321 C 0.80799 0.18072 0.51907 0.0
C7322 C 0.81232 0.1697 0.48467 0.0
C7323 C 0.82259 0.17048 0.47244 0.0
C7324 C 0.83268 0.15831 0.46952 0.0
C7325 C 0.83293 0.14576 0.47954 0.0
C7326 C 0.82287 0.14513 0.49193 0.0
H7327 H 0.80805 0.18543 0.53089 0.0
H7328 H 0.81998 0.17826 0.51567 0.0
H7329 H 0.80338 0.1897 0.51138 0.0
H7330 H 0.80402 0.17878 0.4861 0.0
H7331 H 0.822 0.1802 0.46479 0.0
H7332 H 0.13779 0.82111 0.03543 0.0
H7333 H 0.13556 0.79956 0.01788 0.0
H7334 H 0.17088 0.77554 0.04265 0.0
H7335 H 0.17355 0.79742 0.06003 0.0
H7336 H 0.17594 0.77333 0.0134 0.0
H7337 H 0.11531 0.75904 0.0224 0.0
H7338 H 0.11691 0.77889 0.01764 0.0
H7339 H 0.12554 0.77182 0.03501 0.0
C7340 C 0.14502 0.81121 0.03724 0.0
C7341 C 0.15583 0.81097 0.04914 0.0
C7342 C 0.14361 0.79879 0.02728 0.0
C7343 C 0.15274 0.7857 0.02916 0.0
C7344 C 0.16358 0.78543 0.04105 0.0
H7345 H 0.13035 0.71621 0.95891 0.0
H7346 H 0.13576 0.72588 0.98487 0.0
C7347 C 0.16513 0.79796 0.05094 0.0
C7348 C 0.15169 0.77293 0.01794 0.0
H7349 H 0.12577 0.75211 0.99738 0.0
C7350 C 0.165 0.76843 0.01015 0.0
C7351 C 0.13754 0.76609 0.01394 0.0
C7352 C 0.12307 0.76909 0.02285 0.0
C7353 C 0.16432 0.75838 0.99763 0.0
C7354 C 0.14991 0.75306 0.99247 0.0
C7355 C 0.1368 0.75642 1.00111 0.0
C7356 C 0.14794 0.74602 0.97712 0.0
C7357 C 0.17903 0.75396 0.98979 0.0
C7358 C 0.15298 0.75407 0.9642 0.0
C7359 C 0.14997 0.74859 0.94955 0.0
C7360 C 0.14157 0.73504 0.94737 0.0
C7361 C 0.13683 0.72669 0.96027 0.0
C7362 C 0.13989 0.73221 0.97506 0.0
H7363 H 0.18863 0.75346 0.99812 0.0
H7364 H 0.17806 0.74269 0.98398 0.0
H7365 H 0.18197 0.76276 0.98113 0.0
H7366 H 0.15884 0.76492 0.96541 0.0
H7367 H 0.15401 0.75517 0.93986 0.0
H7368 H 0.77857 0.15955 0.94853 0.0
H7369 H 0.76527 0.16487 0.97269 0.0
H7370 H 0.75033 0.1179 0.97477 0.0
H7371 H 0.76362 0.11251 0.95075 0.0
H7372 H 0.72658 0.14159 0.97362 0.0
H7373 H 0.77008 0.15189 0.0191 0.0
H7374 H 0.77298 0.16074 1.00072 0.0
H7375 H 0.7741 0.14034 1.0024 0.0
C7376 C 0.77293 0.15024 0.95445 0.0
C7377 C 0.77202 0.13564 0.94773 0.0
C7378 C 0.76532 0.1533 0.96822 0.0
C7379 C 0.75681 0.14177 0.97547 0.0
C7380 C 0.75684 0.12694 0.96934 0.0
H7381 H 0.68598 0.13215 0.04253 0.0
H7382 H 0.7052 0.12934 0.02251 0.0
C7383 C 0.76442 0.12389 0.95563 0.0
C7384 C 0.74614 0.1455 0.98808 0.0
H7385 H 0.7441 0.15513 0.02591 0.0
C7386 C 0.73041 0.14457 0.98505 0.0
C7387 C 0.7512 0.14961 1.00288 0.0
C7388 C 0.768 0.15067 0.00661 0.0
C7389 C 0.71954 0.14741 0.99649 0.0
C7390 C 0.72456 0.15095 0.01147 0.0
C7391 C 0.74031 0.15232 0.01443 0.0
C7392 C 0.71354 0.15259 0.02426 0.0
C7393 C 0.70278 0.1467 0.99237 0.0
C7394 C 0.71216 0.16647 0.03223 0.0
C7395 C 0.70119 0.16811 0.04379 0.0
C7396 C 0.69146 0.15586 0.04758 0.0
C7397 C 0.69316 0.14188 0.0398 0.0
C7398 C 0.70412 0.14025 0.02832 0.0
H7399 H 0.70093 0.14834 0.9799 0.0
H7400 H 0.6982 0.13528 0.99549 0.0
H7401 H 0.69613 0.15552 0.99866 0.0
H7402 H 0.71938 0.17612 0.02931 0.0
H7403 H 0.70022 0.179 0.04963 0.0
H7404 H 0.74273 0.38611 0.94777 0.0
H7405 H 0.7594 0.38047 0.96955 0.0
H7406 H 0.74684 0.33283 0.96689 0.0
H7407 H 0.73025 0.33839 0.94492 0.0
H7408 H 0.75539 0.36545 0.99872 0.0
H7409 H 0.7938 0.33372 0.95897 0.0
H7410 H 0.77876 0.34615 0.9522 0.0
H7411 H 0.77417 0.32761 0.95971 0.0
C7412 C 0.74325 0.3745 0.95207 0.0
C7413 C 0.7353 0.36266 0.94461 0.0
C7414 C 0.75277 0.37129 0.96449 0.0
C7415 C 0.75458 0.35619 0.9696 0.0
C7416 C 0.74576 0.34452 0.96294 0.0
H7417 H 0.82607 0.32318 0.03212 0.0
H7418 H 0.80465 0.32407 0.014 0.0
C7419 C 0.73616 0.34773 0.95053 0.0
C7420 C 0.76666 0.35267 0.98096 0.0
H7421 H 0.80212 0.33656 0.98437 0.0
C7422 C 0.76554 0.35901 0.99566 0.0
C7423 C 0.7799 0.34427 0.97688 0.0
C7424 C 0.78188 0.3376 0.96106 0.0
C7425 C 0.77742 0.35736 0.00634 0.0
C7426 C 0.7909 0.34945 1.00208 0.0
C7427 C 0.7918 0.34266 0.98756 0.0
C7428 C 0.80443 0.34876 0.01228 0.0
C7429 C 0.77547 0.36415 0.0221 0.0
C7430 C 0.81178 0.3623 0.0168 0.0
C7431 C 0.82399 0.36184 0.02708 0.0
C7432 C 0.82917 0.34781 0.03299 0.0
C7433 C 0.82232 0.33418 0.02782 0.0
C7434 C 0.81005 0.33466 0.01752 0.0
H7435 H 0.76319 0.36579 0.02498 0.0
H7436 H 0.78079 0.35677 0.03097 0.0
H7437 H 0.78111 0.37552 0.02249 0.0
H7438 H 0.80789 0.37327 0.01255 0.0
H7439 H 0.82912 0.37254 0.0307 0.0
loop_
_geom_bond_atom_site_label_1
_geom_bond_atom_site_label_2
_geom_bond_distance
_geom_bond_site_symmetry_2
_ccdc_geom_bond_type
O0 Tb1 2.292 . S
O0 C3 1.255 . S
Tb1 O0 2.292 . S
Tb1 O17 2.326 . S
Tb1 O19 2.500 . S
Tb1 O20 2.473 . S
Tb1 O23 2.324 . S
Eu2 O6 2.292 . S
Eu2 C7 2.852 . S
Eu2 O18 2.324 . S
Eu2 O22 2.326 . S
Eu2 O24 2.500 . S
Eu2 O25 2.473 . S
C3 O0 1.255 . S
C3 O4 1.247 . S
O4 C3 1.247 . S
C5 O17 1.242 . S
C5 O18 1.258 . S
O6 Eu2 2.292 . S
O6 C8 1.255 . S
C7 Eu2 2.852 . S
C7 C11 1.503 . S
C7 O24 1.273 . S
C7 O25 1.257 . S
C8 O6 1.255 . S
C8 O9 1.247 . S
O9 C8 1.247 . S
C10 O22 1.242 . S
C10 O23 1.258 . S
C11 C7 1.503 . S
C11 C12 1.379 . S
C11 C16 1.392 . S
C12 C11 1.379 . S
C12 C13 1.404 . S
C12 H26 0.929 . S
C13 C12 1.404 . S
C13 C14 1.389 . S
C14 C13 1.389 . S
C14 C15 1.399 . S
C14 H27 0.931 . S
C15 C14 1.399 . S
C15 C16 1.390 . S
C16 C11 1.392 . S
C16 C15 1.390 . S
C16 H28 0.929 . S
O17 Tb1 2.326 . S
O17 C5 1.242 . S
O18 Eu2 2.324 . S
O18 C5 1.258 . S
O19 Tb1 2.500 . S
O19 C21 1.273 . S
O20 Tb1 2.473 . S
O20 C21 1.257 . S
C21 O19 1.273 . S
C21 O20 1.257 . S
O22 Eu2 2.326 . S
O22 C10 1.242 . S
O23 Tb1 2.324 . S
O23 C10 1.258 . S
O24 Eu2 2.500 . S
O24 C7 1.273 . S
O25 Eu2 2.473 . S
O25 C7 1.257 . S
H26 C12 0.929 . S
H27 C14 0.931 . S
H28 C16 0.929 . S
O29 Tb30 2.292 . S
O29 C32 1.255 . S
Tb30 O29 2.292 . S
Tb30 O46 2.326 . S
Tb30 O48 2.500 . S
Tb30 O49 2.473 . S
Tb30 O52 2.324 . S
Eu31 O35 2.292 . S
Eu31 C36 2.852 . S
Eu31 O47 2.324 . S
Eu31 O51 2.326 . S
Eu31 O53 2.500 . S
Eu31 O54 2.473 . S
C32 O29 1.255 . S
C32 O33 1.247 . S
O33 C32 1.247 . S
C34 O46 1.242 . S
C34 O47 1.258 . S
O35 Eu31 2.292 . S
O35 C37 1.255 . S
C36 Eu31 2.852 . S
C36 C40 1.503 . S
C36 O53 1.273 . S
C36 O54 1.257 . S
C37 O35 1.255 . S
C37 O38 1.247 . S
O38 C37 1.247 . S
C39 O51 1.242 . S
C39 O52 1.258 . S
C40 C36 1.503 . S
C40 C41 1.379 . S
C40 C45 1.392 . S
C41 C40 1.379 . S
C41 C42 1.404 . S
C41 H55 0.929 . S
C42 C41 1.404 . S
C42 C43 1.389 . S
C43 C42 1.389 . S
C43 C44 1.399 . S
C43 H56 0.931 . S
C44 C43 1.399 . S
C44 C45 1.390 . S
C45 C40 1.392 . S
C45 C44 1.390 . S
C45 H57 0.929 . S
O46 Tb30 2.326 . S
O46 C34 1.242 . S
O47 Eu31 2.324 . S
O47 C34 1.258 . S
O48 Tb30 2.500 . S
O48 C50 1.273 . S
O49 Tb30 2.473 . S
O49 C50 1.257 . S
C50 O48 1.273 . S
C50 O49 1.257 . S
O51 Eu31 2.326 . S
O51 C39 1.242 . S
O52 Tb30 2.324 . S
O52 C39 1.258 . S
O53 Eu31 2.500 . S
O53 C36 1.273 . S
O54 Eu31 2.473 . S
O54 C36 1.257 . S
H55 C41 0.929 . S
H56 C43 0.931 . S
H57 C45 0.929 . S
O58 Tb59 2.292 . S
O58 C61 1.255 . S
Tb59 O58 2.292 . S
Tb59 O75 2.326 . S
Tb59 O77 2.500 . S
Tb59 O78 2.473 . S
Tb59 O81 2.324 . S
Eu60 O64 2.292 . S
Eu60 C65 2.852 . S
Eu60 O76 2.324 . S
Eu60 O80 2.326 . S
Eu60 O82 2.500 . S
Eu60 O83 2.473 . S
C61 O58 1.255 . S
C61 O62 1.247 . S
O62 C61 1.247 . S
C63 O75 1.242 . S
C63 O76 1.258 . S
O64 Eu60 2.292 . S
O64 C66 1.255 . S
C65 Eu60 2.852 . S
C65 C69 1.503 . S
C65 O82 1.273 . S
C65 O83 1.257 . S
C66 O64 1.255 . S
C66 O67 1.247 . S
O67 C66 1.247 . S
C68 O80 1.242 . S
C68 O81 1.258 . S
C69 C65 1.503 . S
C69 C70 1.379 . S
C69 C74 1.392 . S
C70 C69 1.379 . S
C70 C71 1.404 . S
C70 H84 0.929 . S
C71 C70 1.404 . S
C71 C72 1.389 . S
C72 C71 1.389 . S
C72 C73 1.399 . S
C72 H85 0.931 . S
C73 C72 1.399 . S
C73 C74 1.390 . S
C74 C69 1.392 . S
C74 C73 1.390 . S
C74 H86 0.929 . S
O75 Tb59 2.326 . S
O75 C63 1.242 . S
O76 Eu60 2.324 . S
O76 C63 1.258 . S
O77 Tb59 2.500 . S
O77 C79 1.273 . S
O78 Tb59 2.473 . S
O78 C79 1.257 . S
C79 O77 1.273 . S
C79 O78 1.257 . S
O80 Eu60 2.326 . S
O80 C68 1.242 . S
O81 Tb59 2.324 . S
O81 C68 1.258 . S
O82 Eu60 2.500 . S
O82 C65 1.273 . S
O83 Eu60 2.473 . S
O83 C65 1.257 . S
H84 C70 0.929 . S
H85 C72 0.931 . S
H86 C74 0.929 . S
O87 Tb88 2.292 . S
O87 C90 1.255 . S
Tb88 O87 2.292 . S
Tb88 O104 2.326 . S
Tb88 O106 2.500 . S
Tb88 O107 2.473 . S
Tb88 O110 2.324 . S
Eu89 O93 2.292 . S
Eu89 C94 2.852 . S
Eu89 O105 2.324 . S
Eu89 O109 2.326 . S
Eu89 O111 2.500 . S
Eu89 O112 2.473 . S
C90 O87 1.255 . S
C90 O91 1.247 . S
O91 C90 1.247 . S
C92 O104 1.242 . S
C92 O105 1.258 . S
O93 Eu89 2.292 . S
O93 C95 1.255 . S
C94 Eu89 2.852 . S
C94 C98 1.503 . S
C94 O111 1.273 . S
C94 O112 1.257 . S
C95 O93 1.255 . S
C95 O96 1.247 . S
O96 C95 1.247 . S
C97 O109 1.242 . S
C97 O110 1.258 . S
C98 C94 1.503 . S
C98 C99 1.379 . S
C98 C103 1.392 . S
C99 C98 1.379 . S
C99 C100 1.404 . S
C99 H113 0.929 . S
C100 C99 1.404 . S
C100 C101 1.389 . S
C101 C100 1.389 . S
C101 C102 1.399 . S
C101 H114 0.931 . S
C102 C101 1.399 . S
C102 C103 1.390 . S
C103 C98 1.392 . S
C103 C102 1.390 . S
C103 H115 0.929 . S
O104 Tb88 2.326 . S
O104 C92 1.242 . S
O105 Eu89 2.324 . S
O105 C92 1.258 . S
O106 Tb88 2.500 . S
O106 C108 1.273 . S
O107 Tb88 2.473 . S
O107 C108 1.257 . S
C108 O106 1.273 . S
C108 O107 1.257 . S
O109 Eu89 2.326 . S
O109 C97 1.242 . S
O110 Tb88 2.324 . S
O110 C97 1.258 . S
O111 Eu89 2.500 . S
O111 C94 1.273 . S
O112 Eu89 2.473 . S
O112 C94 1.257 . S
H113 C99 0.929 . S
H114 C101 0.931 . S
H115 C103 0.929 . S
O116 Tb117 2.292 . S
O116 C119 1.255 . S
Tb117 O116 2.292 . S
Tb117 O133 2.326 . S
Tb117 O135 2.500 . S
Tb117 O136 2.473 . S
Tb117 O139 2.324 . S
Eu118 O122 2.292 . S
Eu118 C123 2.852 . S
Eu118 O134 2.324 . S
Eu118 O138 2.326 . S
Eu118 O140 2.500 . S
Eu118 O141 2.473 . S
C119 O116 1.255 . S
C119 O120 1.247 . S
O120 C119 1.247 . S
C121 O133 1.242 . S
C121 O134 1.258 . S
O122 Eu118 2.292 . S
O122 C124 1.255 . S
C123 Eu118 2.852 . S
C123 C127 1.503 . S
C123 O140 1.273 . S
C123 O141 1.257 . S
C124 O122 1.255 . S
C124 O125 1.247 . S
O125 C124 1.247 . S
C126 O138 1.242 . S
C126 O139 1.258 . S
C127 C123 1.503 . S
C127 C128 1.379 . S
C127 C132 1.392 . S
C128 C127 1.379 . S
C128 C129 1.404 . S
C128 H142 0.929 . S
C129 C128 1.404 . S
C129 C130 1.389 . S
C130 C129 1.389 . S
C130 C131 1.399 . S
C130 H143 0.931 . S
C131 C130 1.399 . S
C131 C132 1.390 . S
C132 C127 1.392 . S
C132 C131 1.390 . S
C132 H144 0.929 . S
O133 Tb117 2.326 . S
O133 C121 1.242 . S
O134 Eu118 2.324 . S
O134 C121 1.258 . S
O135 Tb117 2.500 . S
O135 C137 1.273 . S
O136 Tb117 2.473 . S
O136 C137 1.257 . S
C137 O135 1.273 . S
C137 O136 1.257 . S
O138 Eu118 2.326 . S
O138 C126 1.242 . S
O139 Tb117 2.324 . S
O139 C126 1.258 . S
O140 Eu118 2.500 . S
O140 C123 1.273 . S
O141 Eu118 2.473 . S
O141 C123 1.257 . S
H142 C128 0.929 . S
H143 C130 0.931 . S
H144 C132 0.929 . S
O145 Tb146 2.292 . S
O145 C148 1.255 . S
Tb146 O145 2.292 . S
Tb146 O162 2.326 . S
Tb146 O164 2.500 . S
Tb146 O165 2.473 . S
Tb146 O168 2.324 . S
Eu147 O151 2.292 . S
Eu147 C152 2.852 . S
Eu147 O163 2.324 . S
Eu147 O167 2.326 . S
Eu147 O169 2.500 . S
Eu147 O170 2.473 . S
C148 O145 1.255 . S
C148 O149 1.247 . S
O149 C148 1.247 . S
C150 O162 1.242 . S
C150 O163 1.258 . S
O151 Eu147 2.292 . S
O151 C153 1.255 . S
C152 Eu147 2.852 . S
C152 C156 1.503 . S
C152 O169 1.273 . S
C152 O170 1.257 . S
C153 O151 1.255 . S
C153 O154 1.247 . S
O154 C153 1.247 . S
C155 O167 1.242 . S
C155 O168 1.258 . S
C156 C152 1.503 . S
C156 C157 1.379 . S
C156 C161 1.392 . S
C157 C156 1.379 . S
C157 C158 1.404 . S
C157 H171 0.929 . S
C158 C157 1.404 . S
C158 C159 1.389 . S
C159 C158 1.389 . S
C159 C160 1.399 . S
C159 H172 0.931 . S
C160 C159 1.399 . S
C160 C161 1.390 . S
C161 C156 1.392 . S
C161 C160 1.390 . S
C161 H173 0.929 . S
O162 Tb146 2.326 . S
O162 C150 1.242 . S
O163 Eu147 2.324 . S
O163 C150 1.258 . S
O164 Tb146 2.500 . S
O164 C166 1.273 . S
O165 Tb146 2.473 . S
O165 C166 1.257 . S
C166 O164 1.273 . S
C166 O165 1.257 . S
O167 Eu147 2.326 . S
O167 C155 1.242 . S
O168 Tb146 2.324 . S
O168 C155 1.258 . S
O169 Eu147 2.500 . S
O169 C152 1.273 . S
O170 Eu147 2.473 . S
O170 C152 1.257 . S
H171 C157 0.929 . S
H172 C159 0.931 . S
H173 C161 0.929 . S
O174 Tb175 2.292 . S
O174 C177 1.255 . S
Tb175 O174 2.292 . S
Tb175 O191 2.326 . S
Tb175 O193 2.500 . S
Tb175 O194 2.473 . S
Tb175 O197 2.324 . S
Eu176 O180 2.292 . S
Eu176 C181 2.852 . S
Eu176 O192 2.324 . S
Eu176 O196 2.326 . S
Eu176 O198 2.500 . S
Eu176 O199 2.473 . S
C177 O174 1.255 . S
C177 O178 1.247 . S
O178 C177 1.247 . S
C179 O191 1.242 . S
C179 O192 1.258 . S
O180 Eu176 2.292 . S
O180 C182 1.255 . S
C181 Eu176 2.852 . S
C181 C185 1.503 . S
C181 O198 1.273 . S
C181 O199 1.257 . S
C182 O180 1.255 . S
C182 O183 1.247 . S
O183 C182 1.247 . S
C184 O196 1.242 . S
C184 O197 1.258 . S
C185 C181 1.503 . S
C185 C186 1.379 . S
C185 C190 1.392 . S
C186 C185 1.379 . S
C186 C187 1.404 . S
C186 H200 0.929 . S
C187 C186 1.404 . S
C187 C188 1.389 . S
C188 C187 1.389 . S
C188 C189 1.399 . S
C188 H201 0.931 . S
C189 C188 1.399 . S
C189 C190 1.390 . S
C190 C185 1.392 . S
C190 C189 1.390 . S
C190 H202 0.929 . S
O191 Tb175 2.326 . S
O191 C179 1.242 . S
O192 Eu176 2.324 . S
O192 C179 1.258 . S
O193 Tb175 2.500 . S
O193 C195 1.273 . S
O194 Tb175 2.473 . S
O194 C195 1.257 . S
C195 O193 1.273 . S
C195 O194 1.257 . S
O196 Eu176 2.326 . S
O196 C184 1.242 . S
O197 Tb175 2.324 . S
O197 C184 1.258 . S
O198 Eu176 2.500 . S
O198 C181 1.273 . S
O199 Eu176 2.473 . S
O199 C181 1.257 . S
H200 C186 0.929 . S
H201 C188 0.931 . S
H202 C190 0.929 . S
O203 Tb204 2.292 . S
O203 C206 1.255 . S
Tb204 O203 2.292 . S
Tb204 O220 2.326 . S
Tb204 O222 2.500 . S
Tb204 O223 2.473 . S
Tb204 O226 2.324 . S
Eu205 O209 2.292 . S
Eu205 C210 2.852 . S
Eu205 O221 2.324 . S
Eu205 O225 2.326 . S
Eu205 O227 2.500 . S
Eu205 O228 2.473 . S
C206 O203 1.255 . S
C206 O207 1.247 . S
O207 C206 1.247 . S
C208 O220 1.242 . S
C208 O221 1.258 . S
O209 Eu205 2.292 . S
O209 C211 1.255 . S
C210 Eu205 2.852 . S
C210 C214 1.503 . S
C210 O227 1.273 . S
C210 O228 1.257 . S
C211 O209 1.255 . S
C211 O212 1.247 . S
O212 C211 1.247 . S
C213 O225 1.242 . S
C213 O226 1.258 . S
C214 C210 1.503 . S
C214 C215 1.379 . S
C214 C219 1.392 . S
C215 C214 1.379 . S
C215 C216 1.404 . S
C215 H229 0.929 . S
C216 C215 1.404 . S
C216 C217 1.389 . S
C217 C216 1.389 . S
C217 C218 1.399 . S
C217 H230 0.931 . S
C218 C217 1.399 . S
C218 C219 1.390 . S
C219 C214 1.392 . S
C219 C218 1.390 . S
C219 H231 0.929 . S
O220 Tb204 2.326 . S
O220 C208 1.242 . S
O221 Eu205 2.324 . S
O221 C208 1.258 . S
O222 Tb204 2.500 . S
O222 C224 1.273 . S
O223 Tb204 2.473 . S
O223 C224 1.257 . S
C224 O222 1.273 . S
C224 O223 1.257 . S
O225 Eu205 2.326 . S
O225 C213 1.242 . S
O226 Tb204 2.324 . S
O226 C213 1.258 . S
O227 Eu205 2.500 . S
O227 C210 1.273 . S
O228 Eu205 2.473 . S
O228 C210 1.257 . S
H229 C215 0.929 . S
H230 C217 0.931 . S
H231 C219 0.929 . S
O232 Tb233 2.292 . S
O232 C235 1.255 . S
Tb233 O232 2.292 . S
Tb233 O249 2.326 . S
Tb233 O251 2.500 . S
Tb233 O252 2.473 . S
Tb233 O255 2.324 . S
Eu234 O238 2.292 . S
Eu234 C239 2.852 . S
Eu234 O250 2.324 . S
Eu234 O254 2.326 . S
Eu234 O256 2.500 . S
Eu234 O257 2.473 . S
C235 O232 1.255 . S
C235 O236 1.247 . S
O236 C235 1.247 . S
C237 O249 1.242 . S
C237 O250 1.258 . S
O238 Eu234 2.292 . S
O238 C240 1.255 . S
C239 Eu234 2.852 . S
C239 C243 1.503 . S
C239 O256 1.273 . S
C239 O257 1.257 . S
C240 O238 1.255 . S
C240 O241 1.247 . S
O241 C240 1.247 . S
C242 O254 1.242 . S
C242 O255 1.258 . S
C243 C239 1.503 . S
C243 C244 1.379 . S
C243 C248 1.392 . S
C244 C243 1.379 . S
C244 C245 1.404 . S
C244 H258 0.929 . S
C245 C244 1.404 . S
C245 C246 1.389 . S
C246 C245 1.389 . S
C246 C247 1.399 . S
C246 H259 0.931 . S
C247 C246 1.399 . S
C247 C248 1.390 . S
C248 C243 1.392 . S
C248 C247 1.390 . S
C248 H260 0.929 . S
O249 Tb233 2.326 . S
O249 C237 1.242 . S
O250 Eu234 2.324 . S
O250 C237 1.258 . S
O251 Tb233 2.500 . S
O251 C253 1.273 . S
O252 Tb233 2.473 . S
O252 C253 1.257 . S
C253 O251 1.273 . S
C253 O252 1.257 . S
O254 Eu234 2.326 . S
O254 C242 1.242 . S
O255 Tb233 2.324 . S
O255 C242 1.258 . S
O256 Eu234 2.500 . S
O256 C239 1.273 . S
O257 Eu234 2.473 . S
O257 C239 1.257 . S
H258 C244 0.929 . S
H259 C246 0.931 . S
H260 C248 0.929 . S
O261 Tb262 2.292 . S
O261 C264 1.255 . S
Tb262 O261 2.292 . S
Tb262 O278 2.326 . S
Tb262 O280 2.500 . S
Tb262 O281 2.473 . S
Tb262 O284 2.324 . S
Eu263 O267 2.292 . S
Eu263 C268 2.852 . S
Eu263 O279 2.324 . S
Eu263 O283 2.326 . S
Eu263 O285 2.500 . S
Eu263 O286 2.473 . S
C264 O261 1.255 . S
C264 O265 1.247 . S
O265 C264 1.247 . S
C266 O278 1.242 . S
C266 O279 1.258 . S
O267 Eu263 2.292 . S
O267 C269 1.255 . S
C268 Eu263 2.852 . S
C268 C272 1.503 . S
C268 O285 1.273 . S
C268 O286 1.257 . S
C269 O267 1.255 . S
C269 O270 1.247 . S
O270 C269 1.247 . S
C271 O283 1.242 . S
C271 O284 1.258 . S
C272 C268 1.503 . S
C272 C273 1.379 . S
C272 C277 1.392 . S
C273 C272 1.379 . S
C273 C274 1.404 . S
C273 H287 0.929 . S
C274 C273 1.404 . S
C274 C275 1.389 . S
C275 C274 1.389 . S
C275 C276 1.399 . S
C275 H288 0.931 . S
C276 C275 1.399 . S
C276 C277 1.390 . S
C277 C272 1.392 . S
C277 C276 1.390 . S
C277 H289 0.929 . S
O278 Tb262 2.326 . S
O278 C266 1.242 . S
O279 Eu263 2.324 . S
O279 C266 1.258 . S
O280 Tb262 2.500 . S
O280 C282 1.273 . S
O281 Tb262 2.473 . S
O281 C282 1.257 . S
C282 O280 1.273 . S
C282 O281 1.257 . S
O283 Eu263 2.326 . S
O283 C271 1.242 . S
O284 Tb262 2.324 . S
O284 C271 1.258 . S
O285 Eu263 2.500 . S
O285 C268 1.273 . S
O286 Eu263 2.473 . S
O286 C268 1.257 . S
H287 C273 0.929 . S
H288 C275 0.931 . S
H289 C277 0.929 . S
O290 Tb291 2.292 . S
O290 C293 1.255 . S
Tb291 O290 2.292 . S
Tb291 O307 2.326 . S
Tb291 O309 2.500 . S
Tb291 O310 2.473 . S
Tb291 O313 2.324 . S
Eu292 O296 2.292 . S
Eu292 C297 2.852 . S
Eu292 O308 2.324 . S
Eu292 O312 2.326 . S
Eu292 O314 2.500 . S
Eu292 O315 2.473 . S
C293 O290 1.255 . S
C293 O294 1.247 . S
O294 C293 1.247 . S
C295 O307 1.242 . S
C295 O308 1.258 . S
O296 Eu292 2.292 . S
O296 C298 1.255 . S
C297 Eu292 2.852 . S
C297 C301 1.503 . S
C297 O314 1.273 . S
C297 O315 1.257 . S
C298 O296 1.255 . S
C298 O299 1.247 . S
O299 C298 1.247 . S
C300 O312 1.242 . S
C300 O313 1.258 . S
C301 C297 1.503 . S
C301 C302 1.379 . S
C301 C306 1.392 . S
C302 C301 1.379 . S
C302 C303 1.404 . S
C302 H316 0.929 . S
C303 C302 1.404 . S
C303 C304 1.389 . S
C304 C303 1.389 . S
C304 C305 1.399 . S
C304 H317 0.931 . S
C305 C304 1.399 . S
C305 C306 1.390 . S
C306 C301 1.392 . S
C306 C305 1.390 . S
C306 H318 0.929 . S
O307 Tb291 2.326 . S
O307 C295 1.242 . S
O308 Eu292 2.324 . S
O308 C295 1.258 . S
O309 Tb291 2.500 . S
O309 C311 1.273 . S
O310 Tb291 2.473 . S
O310 C311 1.257 . S
C311 O309 1.273 . S
C311 O310 1.257 . S
O312 Eu292 2.326 . S
O312 C300 1.242 . S
O313 Tb291 2.324 . S
O313 C300 1.258 . S
O314 Eu292 2.500 . S
O314 C297 1.273 . S
O315 Eu292 2.473 . S
O315 C297 1.257 . S
H316 C302 0.929 . S
H317 C304 0.931 . S
H318 C306 0.929 . S
O319 Tb320 2.292 . S
O319 C322 1.255 . S
Tb320 O319 2.292 . S
Tb320 O336 2.326 . S
Tb320 O338 2.500 . S
Tb320 O339 2.473 . S
Tb320 O342 2.324 . S
Eu321 O325 2.292 . S
Eu321 C326 2.852 . S
Eu321 O337 2.324 . S
Eu321 O341 2.326 . S
Eu321 O343 2.500 . S
Eu321 O344 2.473 . S
C322 O319 1.255 . S
C322 O323 1.247 . S
O323 C322 1.247 . S
C324 O336 1.242 . S
C324 O337 1.258 . S
O325 Eu321 2.292 . S
O325 C327 1.255 . S
C326 Eu321 2.852 . S
C326 C330 1.503 . S
C326 O343 1.273 . S
C326 O344 1.257 . S
C327 O325 1.255 . S
C327 O328 1.247 . S
O328 C327 1.247 . S
C329 O341 1.242 . S
C329 O342 1.258 . S
C330 C326 1.503 . S
C330 C331 1.379 . S
C330 C335 1.392 . S
C331 C330 1.379 . S
C331 C332 1.404 . S
C331 H345 0.929 . S
C332 C331 1.404 . S
C332 C333 1.389 . S
C333 C332 1.389 . S
C333 C334 1.399 . S
C333 H346 0.931 . S
C334 C333 1.399 . S
C334 C335 1.390 . S
C335 C330 1.392 . S
C335 C334 1.390 . S
C335 H347 0.929 . S
O336 Tb320 2.326 . S
O336 C324 1.242 . S
O337 Eu321 2.324 . S
O337 C324 1.258 . S
O338 Tb320 2.500 . S
O338 C340 1.273 . S
O339 Tb320 2.473 . S
O339 C340 1.257 . S
C340 O338 1.273 . S
C340 O339 1.257 . S
O341 Eu321 2.326 . S
O341 C329 1.242 . S
O342 Tb320 2.324 . S
O342 C329 1.258 . S
O343 Eu321 2.500 . S
O343 C326 1.273 . S
O344 Eu321 2.473 . S
O344 C326 1.257 . S
H345 C331 0.929 . S
H346 C333 0.931 . S
H347 C335 0.929 . S
O348 Tb349 2.292 . S
O348 C351 1.255 . S
Tb349 O348 2.292 . S
Tb349 O365 2.326 . S
Tb349 O367 2.500 . S
Tb349 O368 2.473 . S
Tb349 O371 2.324 . S
Eu350 O354 2.292 . S
Eu350 C355 2.852 . S
Eu350 O366 2.324 . S
Eu350 O370 2.326 . S
Eu350 O372 2.500 . S
Eu350 O373 2.473 . S
C351 O348 1.255 . S
C351 O352 1.247 . S
O352 C351 1.247 . S
C353 O365 1.242 . S
C353 O366 1.258 . S
O354 Eu350 2.292 . S
O354 C356 1.255 . S
C355 Eu350 2.852 . S
C355 C359 1.503 . S
C355 O372 1.273 . S
C355 O373 1.257 . S
C356 O354 1.255 . S
C356 O357 1.247 . S
O357 C356 1.247 . S
C358 O370 1.242 . S
C358 O371 1.258 . S
C359 C355 1.503 . S
C359 C360 1.379 . S
C359 C364 1.392 . S
C360 C359 1.379 . S
C360 C361 1.404 . S
C360 H374 0.929 . S
C361 C360 1.404 . S
C361 C362 1.389 . S
C362 C361 1.389 . S
C362 C363 1.399 . S
C362 H375 0.931 . S
C363 C362 1.399 . S
C363 C364 1.390 . S
C364 C359 1.392 . S
C364 C363 1.390 . S
C364 H376 0.929 . S
O365 Tb349 2.326 . S
O365 C353 1.242 . S
O366 Eu350 2.324 . S
O366 C353 1.258 . S
O367 Tb349 2.500 . S
O367 C369 1.273 . S
O368 Tb349 2.473 . S
O368 C369 1.257 . S
C369 O367 1.273 . S
C369 O368 1.257 . S
O370 Eu350 2.326 . S
O370 C358 1.242 . S
O371 Tb349 2.324 . S
O371 C358 1.258 . S
O372 Eu350 2.500 . S
O372 C355 1.273 . S
O373 Eu350 2.473 . S
O373 C355 1.257 . S
H374 C360 0.929 . S
H375 C362 0.931 . S
H376 C364 0.929 . S
O377 Tb378 2.292 . S
O377 C380 1.255 . S
Tb378 O377 2.292 . S
Tb378 O394 2.326 . S
Tb378 O396 2.500 . S
Tb378 O397 2.473 . S
Tb378 O400 2.324 . S
Eu379 O383 2.292 . S
Eu379 C384 2.852 . S
Eu379 O395 2.324 . S
Eu379 O399 2.326 . S
Eu379 O401 2.500 . S
Eu379 O402 2.473 . S
C380 O377 1.255 . S
C380 O381 1.247 . S
O381 C380 1.247 . S
C382 O394 1.242 . S
C382 O395 1.258 . S
O383 Eu379 2.292 . S
O383 C385 1.255 . S
C384 Eu379 2.852 . S
C384 C388 1.503 . S
C384 O401 1.273 . S
C384 O402 1.257 . S
C385 O383 1.255 . S
C385 O386 1.247 . S
O386 C385 1.247 . S
C387 O399 1.242 . S
C387 O400 1.258 . S
C388 C384 1.503 . S
C388 C389 1.379 . S
C388 C393 1.392 . S
C389 C388 1.379 . S
C389 C390 1.404 . S
C389 H403 0.929 . S
C390 C389 1.404 . S
C390 C391 1.389 . S
C391 C390 1.389 . S
C391 C392 1.399 . S
C391 H404 0.931 . S
C392 C391 1.399 . S
C392 C393 1.390 . S
C393 C388 1.392 . S
C393 C392 1.390 . S
C393 H405 0.929 . S
O394 Tb378 2.326 . S
O394 C382 1.242 . S
O395 Eu379 2.324 . S
O395 C382 1.258 . S
O396 Tb378 2.500 . S
O396 C398 1.273 . S
O397 Tb378 2.473 . S
O397 C398 1.257 . S
C398 O396 1.273 . S
C398 O397 1.257 . S
O399 Eu379 2.326 . S
O399 C387 1.242 . S
O400 Tb378 2.324 . S
O400 C387 1.258 . S
O401 Eu379 2.500 . S
O401 C384 1.273 . S
O402 Eu379 2.473 . S
O402 C384 1.257 . S
H403 C389 0.929 . S
H404 C391 0.931 . S
H405 C393 0.929 . S
O406 Tb407 2.292 . S
O406 C409 1.255 . S
Tb407 O406 2.292 . S
Tb407 O423 2.326 . S
Tb407 O425 2.500 . S
Tb407 O426 2.473 . S
Tb407 O429 2.324 . S
Eu408 O412 2.292 . S
Eu408 C413 2.852 . S
Eu408 O424 2.324 . S
Eu408 O428 2.326 . S
Eu408 O430 2.500 . S
Eu408 O431 2.473 . S
C409 O406 1.255 . S
C409 O410 1.247 . S
O410 C409 1.247 . S
C411 O423 1.242 . S
C411 O424 1.258 . S
O412 Eu408 2.292 . S
O412 C414 1.255 . S
C413 Eu408 2.852 . S
C413 C417 1.503 . S
C413 O430 1.273 . S
C413 O431 1.257 . S
C414 O412 1.255 . S
C414 O415 1.247 . S
O415 C414 1.247 . S
C416 O428 1.242 . S
C416 O429 1.258 . S
C417 C413 1.503 . S
C417 C418 1.379 . S
C417 C422 1.392 . S
C418 C417 1.379 . S
C418 C419 1.404 . S
C418 H432 0.929 . S
C419 C418 1.404 . S
C419 C420 1.389 . S
C420 C419 1.389 . S
C420 C421 1.399 . S
C420 H433 0.931 . S
C421 C420 1.399 . S
C421 C422 1.390 . S
C422 C417 1.392 . S
C422 C421 1.390 . S
C422 H434 0.929 . S
O423 Tb407 2.326 . S
O423 C411 1.242 . S
O424 Eu408 2.324 . S
O424 C411 1.258 . S
O425 Tb407 2.500 . S
O425 C427 1.273 . S
O426 Tb407 2.473 . S
O426 C427 1.257 . S
C427 O425 1.273 . S
C427 O426 1.257 . S
O428 Eu408 2.326 . S
O428 C416 1.242 . S
O429 Tb407 2.324 . S
O429 C416 1.258 . S
O430 Eu408 2.500 . S
O430 C413 1.273 . S
O431 Eu408 2.473 . S
O431 C413 1.257 . S
H432 C418 0.929 . S
H433 C420 0.931 . S
H434 C422 0.929 . S
O435 Tb436 2.292 . S
O435 C438 1.255 . S
Tb436 O435 2.292 . S
Tb436 O452 2.326 . S
Tb436 O454 2.500 . S
Tb436 O455 2.473 . S
Tb436 O458 2.324 . S
Eu437 O441 2.292 . S
Eu437 C442 2.852 . S
Eu437 O453 2.324 . S
Eu437 O457 2.326 . S
Eu437 O459 2.500 . S
Eu437 O460 2.473 . S
C438 O435 1.255 . S
C438 O439 1.247 . S
O439 C438 1.247 . S
C440 O452 1.242 . S
C440 O453 1.258 . S
O441 Eu437 2.292 . S
O441 C443 1.255 . S
C442 Eu437 2.852 . S
C442 C446 1.503 . S
C442 O459 1.273 . S
C442 O460 1.257 . S
C443 O441 1.255 . S
C443 O444 1.247 . S
O444 C443 1.247 . S
C445 O457 1.242 . S
C445 O458 1.258 . S
C446 C442 1.503 . S
C446 C447 1.379 . S
C446 C451 1.392 . S
C447 C446 1.379 . S
C447 C448 1.404 . S
C447 H461 0.929 . S
C448 C447 1.404 . S
C448 C449 1.389 . S
C449 C448 1.389 . S
C449 C450 1.399 . S
C449 H462 0.931 . S
C450 C449 1.399 . S
C450 C451 1.390 . S
C451 C446 1.392 . S
C451 C450 1.390 . S
C451 H463 0.929 . S
O452 Tb436 2.326 . S
O452 C440 1.242 . S
O453 Eu437 2.324 . S
O453 C440 1.258 . S
O454 Tb436 2.500 . S
O454 C456 1.273 . S
O455 Tb436 2.473 . S
O455 C456 1.257 . S
C456 O454 1.273 . S
C456 O455 1.257 . S
O457 Eu437 2.326 . S
O457 C445 1.242 . S
O458 Tb436 2.324 . S
O458 C445 1.258 . S
O459 Eu437 2.500 . S
O459 C442 1.273 . S
O460 Eu437 2.473 . S
O460 C442 1.257 . S
H461 C447 0.929 . S
H462 C449 0.931 . S
H463 C451 0.929 . S
O464 Tb465 2.292 . S
O464 C467 1.255 . S
Tb465 O464 2.292 . S
Tb465 O481 2.326 . S
Tb465 O483 2.500 . S
Tb465 O484 2.473 . S
Tb465 O487 2.324 . S
Eu466 O470 2.292 . S
Eu466 C471 2.852 . S
Eu466 O482 2.324 . S
Eu466 O486 2.326 . S
Eu466 O488 2.500 . S
Eu466 O489 2.473 . S
C467 O464 1.255 . S
C467 O468 1.247 . S
O468 C467 1.247 . S
C469 O481 1.242 . S
C469 O482 1.258 . S
O470 Eu466 2.292 . S
O470 C472 1.255 . S
C471 Eu466 2.852 . S
C471 C475 1.503 . S
C471 O488 1.273 . S
C471 O489 1.257 . S
C472 O470 1.255 . S
C472 O473 1.247 . S
O473 C472 1.247 . S
C474 O486 1.242 . S
C474 O487 1.258 . S
C475 C471 1.503 . S
C475 C476 1.379 . S
C475 C480 1.392 . S
C476 C475 1.379 . S
C476 C477 1.404 . S
C476 H490 0.929 . S
C477 C476 1.404 . S
C477 C478 1.389 . S
C478 C477 1.389 . S
C478 C479 1.399 . S
C478 H491 0.931 . S
C479 C478 1.399 . S
C479 C480 1.390 . S
C480 C475 1.392 . S
C480 C479 1.390 . S
C480 H492 0.929 . S
O481 Tb465 2.326 . S
O481 C469 1.242 . S
O482 Eu466 2.324 . S
O482 C469 1.258 . S
O483 Tb465 2.500 . S
O483 C485 1.273 . S
O484 Tb465 2.473 . S
O484 C485 1.257 . S
C485 O483 1.273 . S
C485 O484 1.257 . S
O486 Eu466 2.326 . S
O486 C474 1.242 . S
O487 Tb465 2.324 . S
O487 C474 1.258 . S
O488 Eu466 2.500 . S
O488 C471 1.273 . S
O489 Eu466 2.473 . S
O489 C471 1.257 . S
H490 C476 0.929 . S
H491 C478 0.931 . S
H492 C480 0.929 . S
O493 Tb494 2.292 . S
O493 C496 1.255 . S
Tb494 O493 2.292 . S
Tb494 O510 2.326 . S
Tb494 O512 2.500 . S
Tb494 O513 2.473 . S
Tb494 O516 2.324 . S
Eu495 O499 2.292 . S
Eu495 C500 2.852 . S
Eu495 O511 2.324 . S
Eu495 O515 2.326 . S
Eu495 O517 2.500 . S
Eu495 O518 2.473 . S
C496 O493 1.255 . S
C496 O497 1.247 . S
O497 C496 1.247 . S
C498 O510 1.242 . S
C498 O511 1.258 . S
O499 Eu495 2.292 . S
O499 C501 1.255 . S
C500 Eu495 2.852 . S
C500 C504 1.503 . S
C500 O517 1.273 . S
C500 O518 1.257 . S
C501 O499 1.255 . S
C501 O502 1.247 . S
O502 C501 1.247 . S
C503 O515 1.242 . S
C503 O516 1.258 . S
C504 C500 1.503 . S
C504 C505 1.379 . S
C504 C509 1.392 . S
C505 C504 1.379 . S
C505 C506 1.404 . S
C505 H519 0.929 . S
C506 C505 1.404 . S
C506 C507 1.389 . S
C507 C506 1.389 . S
C507 C508 1.399 . S
C507 H520 0.931 . S
C508 C507 1.399 . S
C508 C509 1.390 . S
C509 C504 1.392 . S
C509 C508 1.390 . S
C509 H521 0.929 . S
O510 Tb494 2.326 . S
O510 C498 1.242 . S
O511 Eu495 2.324 . S
O511 C498 1.258 . S
O512 Tb494 2.500 . S
O512 C514 1.273 . S
O513 Tb494 2.473 . S
O513 C514 1.257 . S
C514 O512 1.273 . S
C514 O513 1.257 . S
O515 Eu495 2.326 . S
O515 C503 1.242 . S
O516 Tb494 2.324 . S
O516 C503 1.258 . S
O517 Eu495 2.500 . S
O517 C500 1.273 . S
O518 Eu495 2.473 . S
O518 C500 1.257 . S
H519 C505 0.929 . S
H520 C507 0.931 . S
H521 C509 0.929 . S
O522 Tb523 2.292 . S
O522 C525 1.255 . S
Tb523 O522 2.292 . S
Tb523 O539 2.326 . S
Tb523 O541 2.500 . S
Tb523 O542 2.473 . S
Tb523 O545 2.324 . S
Eu524 O528 2.292 . S
Eu524 C529 2.852 . S
Eu524 O540 2.324 . S
Eu524 O544 2.326 . S
Eu524 O546 2.500 . S
Eu524 O547 2.473 . S
C525 O522 1.255 . S
C525 O526 1.247 . S
O526 C525 1.247 . S
C527 O539 1.242 . S
C527 O540 1.258 . S
O528 Eu524 2.292 . S
O528 C530 1.255 . S
C529 Eu524 2.852 . S
C529 C533 1.503 . S
C529 O546 1.273 . S
C529 O547 1.257 . S
C530 O528 1.255 . S
C530 O531 1.247 . S
O531 C530 1.247 . S
C532 O544 1.242 . S
C532 O545 1.258 . S
C533 C529 1.503 . S
C533 C534 1.379 . S
C533 C538 1.392 . S
C534 C533 1.379 . S
C534 C535 1.404 . S
C534 H548 0.929 . S
C535 C534 1.404 . S
C535 C536 1.389 . S
C536 C535 1.389 . S
C536 C537 1.399 . S
C536 H549 0.931 . S
C537 C536 1.399 . S
C537 C538 1.390 . S
C538 C533 1.392 . S
C538 C537 1.390 . S
C538 H550 0.929 . S
O539 Tb523 2.326 . S
O539 C527 1.242 . S
O540 Eu524 2.324 . S
O540 C527 1.258 . S
O541 Tb523 2.500 . S
O541 C543 1.273 . S
O542 Tb523 2.473 . S
O542 C543 1.257 . S
C543 O541 1.273 . S
C543 O542 1.257 . S
O544 Eu524 2.326 . S
O544 C532 1.242 . S
O545 Tb523 2.324 . S
O545 C532 1.258 . S
O546 Eu524 2.500 . S
O546 C529 1.273 . S
O547 Eu524 2.473 . S
O547 C529 1.257 . S
H548 C534 0.929 . S
H549 C536 0.931 . S
H550 C538 0.929 . S
O551 Tb552 2.292 . S
O551 C554 1.255 . S
Tb552 O551 2.292 . S
Tb552 O568 2.326 . S
Tb552 O570 2.500 . S
Tb552 O571 2.473 . S
Tb552 O574 2.324 . S
Eu553 O557 2.292 . S
Eu553 C558 2.852 . S
Eu553 O569 2.324 . S
Eu553 O573 2.326 . S
Eu553 O575 2.500 . S
Eu553 O576 2.473 . S
C554 O551 1.255 . S
C554 O555 1.247 . S
O555 C554 1.247 . S
C556 O568 1.242 . S
C556 O569 1.258 . S
O557 Eu553 2.292 . S
O557 C559 1.255 . S
C558 Eu553 2.852 . S
C558 C562 1.503 . S
C558 O575 1.273 . S
C558 O576 1.257 . S
C559 O557 1.255 . S
C559 O560 1.247 . S
O560 C559 1.247 . S
C561 O573 1.242 . S
C561 O574 1.258 . S
C562 C558 1.503 . S
C562 C563 1.379 . S
C562 C567 1.392 . S
C563 C562 1.379 . S
C563 C564 1.404 . S
C563 H577 0.929 . S
C564 C563 1.404 . S
C564 C565 1.389 . S
C565 C564 1.389 . S
C565 C566 1.399 . S
C565 H578 0.931 . S
C566 C565 1.399 . S
C566 C567 1.390 . S
C567 C562 1.392 . S
C567 C566 1.390 . S
C567 H579 0.929 . S
O568 Tb552 2.326 . S
O568 C556 1.242 . S
O569 Eu553 2.324 . S
O569 C556 1.258 . S
O570 Tb552 2.500 . S
O570 C572 1.273 . S
O571 Tb552 2.473 . S
O571 C572 1.257 . S
C572 O570 1.273 . S
C572 O571 1.257 . S
O573 Eu553 2.326 . S
O573 C561 1.242 . S
O574 Tb552 2.324 . S
O574 C561 1.258 . S
O575 Eu553 2.500 . S
O575 C558 1.273 . S
O576 Eu553 2.473 . S
O576 C558 1.257 . S
H577 C563 0.929 . S
H578 C565 0.931 . S
H579 C567 0.929 . S
O580 Tb581 2.292 . S
O580 C583 1.255 . S
Tb581 O580 2.292 . S
Tb581 O597 2.326 . S
Tb581 O599 2.500 . S
Tb581 O600 2.473 . S
Tb581 O603 2.324 . S
Eu582 O586 2.292 . S
Eu582 C587 2.852 . S
Eu582 O598 2.324 . S
Eu582 O602 2.326 . S
Eu582 O604 2.500 . S
Eu582 O605 2.473 . S
C583 O580 1.255 . S
C583 O584 1.247 . S
O584 C583 1.247 . S
C585 O597 1.242 . S
C585 O598 1.258 . S
O586 Eu582 2.292 . S
O586 C588 1.255 . S
C587 Eu582 2.852 . S
C587 C591 1.503 . S
C587 O604 1.273 . S
C587 O605 1.257 . S
C588 O586 1.255 . S
C588 O589 1.247 . S
O589 C588 1.247 . S
C590 O602 1.242 . S
C590 O603 1.258 . S
C591 C587 1.503 . S
C591 C592 1.379 . S
C591 C596 1.392 . S
C592 C591 1.379 . S
C592 C593 1.404 . S
C592 H606 0.929 . S
C593 C592 1.404 . S
C593 C594 1.389 . S
C594 C593 1.389 . S
C594 C595 1.399 . S
C594 H607 0.931 . S
C595 C594 1.399 . S
C595 C596 1.390 . S
C596 C591 1.392 . S
C596 C595 1.390 . S
C596 H608 0.929 . S
O597 Tb581 2.326 . S
O597 C585 1.242 . S
O598 Eu582 2.324 . S
O598 C585 1.258 . S
O599 Tb581 2.500 . S
O599 C601 1.273 . S
O600 Tb581 2.473 . S
O600 C601 1.257 . S
C601 O599 1.273 . S
C601 O600 1.257 . S
O602 Eu582 2.326 . S
O602 C590 1.242 . S
O603 Tb581 2.324 . S
O603 C590 1.258 . S
O604 Eu582 2.500 . S
O604 C587 1.273 . S
O605 Eu582 2.473 . S
O605 C587 1.257 . S
H606 C592 0.929 . S
H607 C594 0.931 . S
H608 C596 0.929 . S
O609 Tb610 2.292 . S
O609 C612 1.255 . S
Tb610 O609 2.292 . S
Tb610 O626 2.326 . S
Tb610 O628 2.500 . S
Tb610 O629 2.473 . S
Tb610 O632 2.324 . S
Eu611 O615 2.292 . S
Eu611 C616 2.852 . S
Eu611 O627 2.324 . S
Eu611 O631 2.326 . S
Eu611 O633 2.500 . S
Eu611 O634 2.473 . S
C612 O609 1.255 . S
C612 O613 1.247 . S
O613 C612 1.247 . S
C614 O626 1.242 . S
C614 O627 1.258 . S
O615 Eu611 2.292 . S
O615 C617 1.255 . S
C616 Eu611 2.852 . S
C616 C620 1.503 . S
C616 O633 1.273 . S
C616 O634 1.257 . S
C617 O615 1.255 . S
C617 O618 1.247 . S
O618 C617 1.247 . S
C619 O631 1.242 . S
C619 O632 1.258 . S
C620 C616 1.503 . S
C620 C621 1.379 . S
C620 C625 1.392 . S
C621 C620 1.379 . S
C621 C622 1.404 . S
C621 H635 0.929 . S
C622 C621 1.404 . S
C622 C623 1.389 . S
C623 C622 1.389 . S
C623 C624 1.399 . S
C623 H636 0.931 . S
C624 C623 1.399 . S
C624 C625 1.390 . S
C625 C620 1.392 . S
C625 C624 1.390 . S
C625 H637 0.929 . S
O626 Tb610 2.326 . S
O626 C614 1.242 . S
O627 Eu611 2.324 . S
O627 C614 1.258 . S
O628 Tb610 2.500 . S
O628 C630 1.273 . S
O629 Tb610 2.473 . S
O629 C630 1.257 . S
C630 O628 1.273 . S
C630 O629 1.257 . S
O631 Eu611 2.326 . S
O631 C619 1.242 . S
O632 Tb610 2.324 . S
O632 C619 1.258 . S
O633 Eu611 2.500 . S
O633 C616 1.273 . S
O634 Eu611 2.473 . S
O634 C616 1.257 . S
H635 C621 0.929 . S
H636 C623 0.931 . S
H637 C625 0.929 . S
O638 Tb639 2.292 . S
O638 C641 1.255 . S
Tb639 O638 2.292 . S
Tb639 O655 2.326 . S
Tb639 O657 2.500 . S
Tb639 O658 2.473 . S
Tb639 O661 2.324 . S
Eu640 O644 2.292 . S
Eu640 C645 2.852 . S
Eu640 O656 2.324 . S
Eu640 O660 2.326 . S
Eu640 O662 2.500 . S
Eu640 O663 2.473 . S
C641 O638 1.255 . S
C641 O642 1.247 . S
O642 C641 1.247 . S
C643 O655 1.242 . S
C643 O656 1.258 . S
O644 Eu640 2.292 . S
O644 C646 1.255 . S
C645 Eu640 2.852 . S
C645 C649 1.503 . S
C645 O662 1.273 . S
C645 O663 1.257 . S
C646 O644 1.255 . S
C646 O647 1.247 . S
O647 C646 1.247 . S
C648 O660 1.242 . S
C648 O661 1.258 . S
C649 C645 1.503 . S
C649 C650 1.379 . S
C649 C654 1.392 . S
C650 C649 1.379 . S
C650 C651 1.404 . S
C650 H664 0.929 . S
C651 C650 1.404 . S
C651 C652 1.389 . S
C652 C651 1.389 . S
C652 C653 1.399 . S
C652 H665 0.931 . S
C653 C652 1.399 . S
C653 C654 1.390 . S
C654 C649 1.392 . S
C654 C653 1.390 . S
C654 H666 0.929 . S
O655 Tb639 2.326 . S
O655 C643 1.242 . S
O656 Eu640 2.324 . S
O656 C643 1.258 . S
O657 Tb639 2.500 . S
O657 C659 1.273 . S
O658 Tb639 2.473 . S
O658 C659 1.257 . S
C659 O657 1.273 . S
C659 O658 1.257 . S
O660 Eu640 2.326 . S
O660 C648 1.242 . S
O661 Tb639 2.324 . S
O661 C648 1.258 . S
O662 Eu640 2.500 . S
O662 C645 1.273 . S
O663 Eu640 2.473 . S
O663 C645 1.257 . S
H664 C650 0.929 . S
H665 C652 0.931 . S
H666 C654 0.929 . S
O667 Tb668 2.292 . S
O667 C670 1.255 . S
Tb668 O667 2.292 . S
Tb668 O684 2.326 . S
Tb668 O686 2.500 . S
Tb668 O687 2.473 . S
Tb668 O690 2.324 . S
Eu669 O673 2.292 . S
Eu669 C674 2.852 . S
Eu669 O685 2.324 . S
Eu669 O689 2.326 . S
Eu669 O691 2.500 . S
Eu669 O692 2.473 . S
C670 O667 1.255 . S
C670 O671 1.247 . S
O671 C670 1.247 . S
C672 O684 1.242 . S
C672 O685 1.258 . S
O673 Eu669 2.292 . S
O673 C675 1.255 . S
C674 Eu669 2.852 . S
C674 C678 1.503 . S
C674 O691 1.273 . S
C674 O692 1.257 . S
C675 O673 1.255 . S
C675 O676 1.247 . S
O676 C675 1.247 . S
C677 O689 1.242 . S
C677 O690 1.258 . S
C678 C674 1.503 . S
C678 C679 1.379 . S
C678 C683 1.392 . S
C679 C678 1.379 . S
C679 C680 1.404 . S
C679 H693 0.929 . S
C680 C679 1.404 . S
C680 C681 1.389 . S
C681 C680 1.389 . S
C681 C682 1.399 . S
C681 H694 0.931 . S
C682 C681 1.399 . S
C682 C683 1.390 . S
C683 C678 1.392 . S
C683 C682 1.390 . S
C683 H695 0.929 . S
O684 Tb668 2.326 . S
O684 C672 1.242 . S
O685 Eu669 2.324 . S
O685 C672 1.258 . S
O686 Tb668 2.500 . S
O686 C688 1.273 . S
O687 Tb668 2.473 . S
O687 C688 1.257 . S
C688 O686 1.273 . S
C688 O687 1.257 . S
O689 Eu669 2.326 . S
O689 C677 1.242 . S
O690 Tb668 2.324 . S
O690 C677 1.258 . S
O691 Eu669 2.500 . S
O691 C674 1.273 . S
O692 Eu669 2.473 . S
O692 C674 1.257 . S
H693 C679 0.929 . S
H694 C681 0.931 . S
H695 C683 0.929 . S
O696 Tb697 2.292 . S
O696 C699 1.255 . S
Tb697 O696 2.292 . S
Tb697 O713 2.326 . S
Tb697 O715 2.500 . S
Tb697 O716 2.473 . S
Tb697 O719 2.324 . S
Eu698 O702 2.292 . S
Eu698 C703 2.852 . S
Eu698 O714 2.324 . S
Eu698 O718 2.326 . S
Eu698 O720 2.500 . S
Eu698 O721 2.473 . S
C699 O696 1.255 . S
C699 O700 1.247 . S
O700 C699 1.247 . S
C701 O713 1.242 . S
C701 O714 1.258 . S
O702 Eu698 2.292 . S
O702 C704 1.255 . S
C703 Eu698 2.852 . S
C703 C707 1.503 . S
C703 O720 1.273 . S
C703 O721 1.257 . S
C704 O702 1.255 . S
C704 O705 1.247 . S
O705 C704 1.247 . S
C706 O718 1.242 . S
C706 O719 1.258 . S
C707 C703 1.503 . S
C707 C708 1.379 . S
C707 C712 1.392 . S
C708 C707 1.379 . S
C708 C709 1.404 . S
C708 H722 0.929 . S
C709 C708 1.404 . S
C709 C710 1.389 . S
C710 C709 1.389 . S
C710 C711 1.399 . S
C710 H723 0.931 . S
C711 C710 1.399 . S
C711 C712 1.390 . S
C712 C707 1.392 . S
C712 C711 1.390 . S
C712 H724 0.929 . S
O713 Tb697 2.326 . S
O713 C701 1.242 . S
O714 Eu698 2.324 . S
O714 C701 1.258 . S
O715 Tb697 2.500 . S
O715 C717 1.273 . S
O716 Tb697 2.473 . S
O716 C717 1.257 . S
C717 O715 1.273 . S
C717 O716 1.257 . S
O718 Eu698 2.326 . S
O718 C706 1.242 . S
O719 Tb697 2.324 . S
O719 C706 1.258 . S
O720 Eu698 2.500 . S
O720 C703 1.273 . S
O721 Eu698 2.473 . S
O721 C703 1.257 . S
H722 C708 0.929 . S
H723 C710 0.931 . S
H724 C712 0.929 . S
O725 Tb726 2.292 . S
O725 C728 1.255 . S
Tb726 O725 2.292 . S
Tb726 O742 2.326 . S
Tb726 O744 2.500 . S
Tb726 O745 2.473 . S
Tb726 O748 2.324 . S
Eu727 O731 2.292 . S
Eu727 C732 2.852 . S
Eu727 O743 2.324 . S
Eu727 O747 2.326 . S
Eu727 O749 2.500 . S
Eu727 O750 2.473 . S
C728 O725 1.255 . S
C728 O729 1.247 . S
O729 C728 1.247 . S
C730 O742 1.242 . S
C730 O743 1.258 . S
O731 Eu727 2.292 . S
O731 C733 1.255 . S
C732 Eu727 2.852 . S
C732 C736 1.503 . S
C732 O749 1.273 . S
C732 O750 1.257 . S
C733 O731 1.255 . S
C733 O734 1.247 . S
O734 C733 1.247 . S
C735 O747 1.242 . S
C735 O748 1.258 . S
C736 C732 1.503 . S
C736 C737 1.379 . S
C736 C741 1.392 . S
C737 C736 1.379 . S
C737 C738 1.404 . S
C737 H751 0.929 . S
C738 C737 1.404 . S
C738 C739 1.389 . S
C739 C738 1.389 . S
C739 C740 1.399 . S
C739 H752 0.931 . S
C740 C739 1.399 . S
C740 C741 1.390 . S
C741 C736 1.392 . S
C741 C740 1.390 . S
C741 H753 0.929 . S
O742 Tb726 2.326 . S
O742 C730 1.242 . S
O743 Eu727 2.324 . S
O743 C730 1.258 . S
O744 Tb726 2.500 . S
O744 C746 1.273 . S
O745 Tb726 2.473 . S
O745 C746 1.257 . S
C746 O744 1.273 . S
C746 O745 1.257 . S
O747 Eu727 2.326 . S
O747 C735 1.242 . S
O748 Tb726 2.324 . S
O748 C735 1.258 . S
O749 Eu727 2.500 . S
O749 C732 1.273 . S
O750 Eu727 2.473 . S
O750 C732 1.257 . S
H751 C737 0.929 . S
H752 C739 0.931 . S
H753 C741 0.929 . S
O754 Tb755 2.292 . S
O754 C757 1.255 . S
Tb755 O754 2.292 . S
Tb755 O771 2.326 . S
Tb755 O773 2.500 . S
Tb755 O774 2.473 . S
Tb755 O777 2.324 . S
Eu756 O760 2.292 . S
Eu756 C761 2.852 . S
Eu756 O772 2.324 . S
Eu756 O776 2.326 . S
Eu756 O778 2.500 . S
Eu756 O779 2.473 . S
C757 O754 1.255 . S
C757 O758 1.247 . S
O758 C757 1.247 . S
C759 O771 1.242 . S
C759 O772 1.258 . S
O760 Eu756 2.292 . S
O760 C762 1.255 . S
C761 Eu756 2.852 . S
C761 C765 1.503 . S
C761 O778 1.273 . S
C761 O779 1.257 . S
C762 O760 1.255 . S
C762 O763 1.247 . S
O763 C762 1.247 . S
C764 O776 1.242 . S
C764 O777 1.258 . S
C765 C761 1.503 . S
C765 C766 1.379 . S
C765 C770 1.392 . S
C766 C765 1.379 . S
C766 C767 1.404 . S
C766 H780 0.929 . S
C767 C766 1.404 . S
C767 C768 1.389 . S
C768 C767 1.389 . S
C768 C769 1.399 . S
C768 H781 0.931 . S
C769 C768 1.399 . S
C769 C770 1.390 . S
C770 C765 1.392 . S
C770 C769 1.390 . S
C770 H782 0.929 . S
O771 Tb755 2.326 . S
O771 C759 1.242 . S
O772 Eu756 2.324 . S
O772 C759 1.258 . S
O773 Tb755 2.500 . S
O773 C775 1.273 . S
O774 Tb755 2.473 . S
O774 C775 1.257 . S
C775 O773 1.273 . S
C775 O774 1.257 . S
O776 Eu756 2.326 . S
O776 C764 1.242 . S
O777 Tb755 2.324 . S
O777 C764 1.258 . S
O778 Eu756 2.500 . S
O778 C761 1.273 . S
O779 Eu756 2.473 . S
O779 C761 1.257 . S
H780 C766 0.929 . S
H781 C768 0.931 . S
H782 C770 0.929 . S
O783 Tb784 2.292 . S
O783 C786 1.255 . S
Tb784 O783 2.292 . S
Tb784 O800 2.326 . S
Tb784 O802 2.500 . S
Tb784 O803 2.473 . S
Tb784 O806 2.324 . S
Eu785 O789 2.292 . S
Eu785 C790 2.852 . S
Eu785 O801 2.324 . S
Eu785 O805 2.326 . S
Eu785 O807 2.500 . S
Eu785 O808 2.473 . S
C786 O783 1.255 . S
C786 O787 1.247 . S
O787 C786 1.247 . S
C788 O800 1.242 . S
C788 O801 1.258 . S
O789 Eu785 2.292 . S
O789 C791 1.255 . S
C790 Eu785 2.852 . S
C790 C794 1.503 . S
C790 O807 1.273 . S
C790 O808 1.257 . S
C791 O789 1.255 . S
C791 O792 1.247 . S
O792 C791 1.247 . S
C793 O805 1.242 . S
C793 O806 1.258 . S
C794 C790 1.503 . S
C794 C795 1.379 . S
C794 C799 1.392 . S
C795 C794 1.379 . S
C795 C796 1.404 . S
C795 H809 0.929 . S
C796 C795 1.404 . S
C796 C797 1.389 . S
C797 C796 1.389 . S
C797 C798 1.399 . S
C797 H810 0.931 . S
C798 C797 1.399 . S
C798 C799 1.390 . S
C799 C794 1.392 . S
C799 C798 1.390 . S
C799 H811 0.929 . S
O800 Tb784 2.326 . S
O800 C788 1.242 . S
O801 Eu785 2.324 . S
O801 C788 1.258 . S
O802 Tb784 2.500 . S
O802 C804 1.273 . S
O803 Tb784 2.473 . S
O803 C804 1.257 . S
C804 O802 1.273 . S
C804 O803 1.257 . S
O805 Eu785 2.326 . S
O805 C793 1.242 . S
O806 Tb784 2.324 . S
O806 C793 1.258 . S
O807 Eu785 2.500 . S
O807 C790 1.273 . S
O808 Eu785 2.473 . S
O808 C790 1.257 . S
H809 C795 0.929 . S
H810 C797 0.931 . S
H811 C799 0.929 . S
O812 Tb813 2.292 . S
O812 C815 1.255 . S
Tb813 O812 2.292 . S
Tb813 O829 2.326 . S
Tb813 O831 2.500 . S
Tb813 O832 2.473 . S
Tb813 O835 2.324 . S
Eu814 O818 2.292 . S
Eu814 C819 2.852 . S
Eu814 O830 2.324 . S
Eu814 O834 2.326 . S
Eu814 O836 2.500 . S
Eu814 O837 2.473 . S
C815 O812 1.255 . S
C815 O816 1.247 . S
O816 C815 1.247 . S
C817 O829 1.242 . S
C817 O830 1.258 . S
O818 Eu814 2.292 . S
O818 C820 1.255 . S
C819 Eu814 2.852 . S
C819 C823 1.503 . S
C819 O836 1.273 . S
C819 O837 1.257 . S
C820 O818 1.255 . S
C820 O821 1.247 . S
O821 C820 1.247 . S
C822 O834 1.242 . S
C822 O835 1.258 . S
C823 C819 1.503 . S
C823 C824 1.379 . S
C823 C828 1.392 . S
C824 C823 1.379 . S
C824 C825 1.404 . S
C824 H838 0.929 . S
C825 C824 1.404 . S
C825 C826 1.389 . S
C826 C825 1.389 . S
C826 C827 1.399 . S
C826 H839 0.931 . S
C827 C826 1.399 . S
C827 C828 1.390 . S
C828 C823 1.392 . S
C828 C827 1.390 . S
C828 H840 0.929 . S
O829 Tb813 2.326 . S
O829 C817 1.242 . S
O830 Eu814 2.324 . S
O830 C817 1.258 . S
O831 Tb813 2.500 . S
O831 C833 1.273 . S
O832 Tb813 2.473 . S
O832 C833 1.257 . S
C833 O831 1.273 . S
C833 O832 1.257 . S
O834 Eu814 2.326 . S
O834 C822 1.242 . S
O835 Tb813 2.324 . S
O835 C822 1.258 . S
O836 Eu814 2.500 . S
O836 C819 1.273 . S
O837 Eu814 2.473 . S
O837 C819 1.257 . S
H838 C824 0.929 . S
H839 C826 0.931 . S
H840 C828 0.929 . S
O841 Tb842 2.292 . S
O841 C844 1.255 . S
Tb842 O841 2.292 . S
Tb842 O858 2.326 . S
Tb842 O860 2.500 . S
Tb842 O861 2.473 . S
Tb842 O864 2.324 . S
Eu843 O847 2.292 . S
Eu843 C848 2.852 . S
Eu843 O859 2.324 . S
Eu843 O863 2.326 . S
Eu843 O865 2.500 . S
Eu843 O866 2.473 . S
C844 O841 1.255 . S
C844 O845 1.247 . S
O845 C844 1.247 . S
C846 O858 1.242 . S
C846 O859 1.258 . S
O847 Eu843 2.292 . S
O847 C849 1.255 . S
C848 Eu843 2.852 . S
C848 C852 1.503 . S
C848 O865 1.273 . S
C848 O866 1.257 . S
C849 O847 1.255 . S
C849 O850 1.247 . S
O850 C849 1.247 . S
C851 O863 1.242 . S
C851 O864 1.258 . S
C852 C848 1.503 . S
C852 C853 1.379 . S
C852 C857 1.392 . S
C853 C852 1.379 . S
C853 C854 1.404 . S
C853 H867 0.929 . S
C854 C853 1.404 . S
C854 C855 1.389 . S
C855 C854 1.389 . S
C855 C856 1.399 . S
C855 H868 0.931 . S
C856 C855 1.399 . S
C856 C857 1.390 . S
C857 C852 1.392 . S
C857 C856 1.390 . S
C857 H869 0.929 . S
O858 Tb842 2.326 . S
O858 C846 1.242 . S
O859 Eu843 2.324 . S
O859 C846 1.258 . S
O860 Tb842 2.500 . S
O860 C862 1.273 . S
O861 Tb842 2.473 . S
O861 C862 1.257 . S
C862 O860 1.273 . S
C862 O861 1.257 . S
O863 Eu843 2.326 . S
O863 C851 1.242 . S
O864 Tb842 2.324 . S
O864 C851 1.258 . S
O865 Eu843 2.500 . S
O865 C848 1.273 . S
O866 Eu843 2.473 . S
O866 C848 1.257 . S
H867 C853 0.929 . S
H868 C855 0.931 . S
H869 C857 0.929 . S
O870 Tb871 2.292 . S
O870 C873 1.255 . S
Tb871 O870 2.292 . S
Tb871 O887 2.326 . S
Tb871 O889 2.500 . S
Tb871 O890 2.473 . S
Tb871 O893 2.324 . S
Eu872 O876 2.292 . S
Eu872 C877 2.852 . S
Eu872 O888 2.324 . S
Eu872 O892 2.326 . S
Eu872 O894 2.500 . S
Eu872 O895 2.473 . S
C873 O870 1.255 . S
C873 O874 1.247 . S
O874 C873 1.247 . S
C875 O887 1.242 . S
C875 O888 1.258 . S
O876 Eu872 2.292 . S
O876 C878 1.255 . S
C877 Eu872 2.852 . S
C877 C881 1.503 . S
C877 O894 1.273 . S
C877 O895 1.257 . S
C878 O876 1.255 . S
C878 O879 1.247 . S
O879 C878 1.247 . S
C880 O892 1.242 . S
C880 O893 1.258 . S
C881 C877 1.503 . S
C881 C882 1.379 . S
C881 C886 1.392 . S
C882 C881 1.379 . S
C882 C883 1.404 . S
C882 H896 0.929 . S
C883 C882 1.404 . S
C883 C884 1.389 . S
C884 C883 1.389 . S
C884 C885 1.399 . S
C884 H897 0.931 . S
C885 C884 1.399 . S
C885 C886 1.390 . S
C886 C881 1.392 . S
C886 C885 1.390 . S
C886 H898 0.929 . S
O887 Tb871 2.326 . S
O887 C875 1.242 . S
O888 Eu872 2.324 . S
O888 C875 1.258 . S
O889 Tb871 2.500 . S
O889 C891 1.273 . S
O890 Tb871 2.473 . S
O890 C891 1.257 . S
C891 O889 1.273 . S
C891 O890 1.257 . S
O892 Eu872 2.326 . S
O892 C880 1.242 . S
O893 Tb871 2.324 . S
O893 C880 1.258 . S
O894 Eu872 2.500 . S
O894 C877 1.273 . S
O895 Eu872 2.473 . S
O895 C877 1.257 . S
H896 C882 0.929 . S
H897 C884 0.931 . S
H898 C886 0.929 . S
O899 Tb900 2.292 . S
O899 C902 1.255 . S
Tb900 O899 2.292 . S
Tb900 O916 2.326 . S
Tb900 O918 2.500 . S
Tb900 O919 2.473 . S
Tb900 O922 2.324 . S
Eu901 O905 2.292 . S
Eu901 C906 2.852 . S
Eu901 O917 2.324 . S
Eu901 O921 2.326 . S
Eu901 O923 2.500 . S
Eu901 O924 2.473 . S
C902 O899 1.255 . S
C902 O903 1.247 . S
O903 C902 1.247 . S
C904 O916 1.242 . S
C904 O917 1.258 . S
O905 Eu901 2.292 . S
O905 C907 1.255 . S
C906 Eu901 2.852 . S
C906 C910 1.503 . S
C906 O923 1.273 . S
C906 O924 1.257 . S
C907 O905 1.255 . S
C907 O908 1.247 . S
O908 C907 1.247 . S
C909 O921 1.242 . S
C909 O922 1.258 . S
C910 C906 1.503 . S
C910 C911 1.379 . S
C910 C915 1.392 . S
C911 C910 1.379 . S
C911 C912 1.404 . S
C911 H925 0.929 . S
C912 C911 1.404 . S
C912 C913 1.389 . S
C913 C912 1.389 . S
C913 C914 1.399 . S
C913 H926 0.931 . S
C914 C913 1.399 . S
C914 C915 1.390 . S
C915 C910 1.392 . S
C915 C914 1.390 . S
C915 H927 0.929 . S
O916 Tb900 2.326 . S
O916 C904 1.242 . S
O917 Eu901 2.324 . S
O917 C904 1.258 . S
O918 Tb900 2.500 . S
O918 C920 1.273 . S
O919 Tb900 2.473 . S
O919 C920 1.257 . S
C920 O918 1.273 . S
C920 O919 1.257 . S
O921 Eu901 2.326 . S
O921 C909 1.242 . S
O922 Tb900 2.324 . S
O922 C909 1.258 . S
O923 Eu901 2.500 . S
O923 C906 1.273 . S
O924 Eu901 2.473 . S
O924 C906 1.257 . S
H925 C911 0.929 . S
H926 C913 0.931 . S
H927 C915 0.929 . S
O928 Tb929 2.292 . S
O928 C931 1.255 . S
Tb929 O928 2.292 . S
Tb929 O945 2.326 . S
Tb929 O947 2.500 . S
Tb929 O948 2.473 . S
Tb929 O951 2.324 . S
Eu930 O934 2.292 . S
Eu930 C935 2.852 . S
Eu930 O946 2.324 . S
Eu930 O950 2.326 . S
Eu930 O952 2.500 . S
Eu930 O953 2.473 . S
C931 O928 1.255 . S
C931 O932 1.247 . S
O932 C931 1.247 . S
C933 O945 1.242 . S
C933 O946 1.258 . S
O934 Eu930 2.292 . S
O934 C936 1.255 . S
C935 Eu930 2.852 . S
C935 C939 1.503 . S
C935 O952 1.273 . S
C935 O953 1.257 . S
C936 O934 1.255 . S
C936 O937 1.247 . S
O937 C936 1.247 . S
C938 O950 1.242 . S
C938 O951 1.258 . S
C939 C935 1.503 . S
C939 C940 1.379 . S
C939 C944 1.392 . S
C940 C939 1.379 . S
C940 C941 1.404 . S
C940 H954 0.929 . S
C941 C940 1.404 . S
C941 C942 1.389 . S
C942 C941 1.389 . S
C942 C943 1.399 . S
C942 H955 0.931 . S
C943 C942 1.399 . S
C943 C944 1.390 . S
C944 C939 1.392 . S
C944 C943 1.390 . S
C944 H956 0.929 . S
O945 Tb929 2.326 . S
O945 C933 1.242 . S
O946 Eu930 2.324 . S
O946 C933 1.258 . S
O947 Tb929 2.500 . S
O947 C949 1.273 . S
O948 Tb929 2.473 . S
O948 C949 1.257 . S
C949 O947 1.273 . S
C949 O948 1.257 . S
O950 Eu930 2.326 . S
O950 C938 1.242 . S
O951 Tb929 2.324 . S
O951 C938 1.258 . S
O952 Eu930 2.500 . S
O952 C935 1.273 . S
O953 Eu930 2.473 . S
O953 C935 1.257 . S
H954 C940 0.929 . S
H955 C942 0.931 . S
H956 C944 0.929 . S
O957 Tb958 2.292 . S
O957 C960 1.255 . S
Tb958 O957 2.292 . S
Tb958 O974 2.326 . S
Tb958 O976 2.500 . S
Tb958 O977 2.473 . S
Tb958 O980 2.324 . S
Eu959 O963 2.292 . S
Eu959 C964 2.852 . S
Eu959 O975 2.324 . S
Eu959 O979 2.326 . S
Eu959 O981 2.500 . S
Eu959 O982 2.473 . S
C960 O957 1.255 . S
C960 O961 1.247 . S
O961 C960 1.247 . S
C962 O974 1.242 . S
C962 O975 1.258 . S
O963 Eu959 2.292 . S
O963 C965 1.255 . S
C964 Eu959 2.852 . S
C964 C968 1.503 . S
C964 O981 1.273 . S
C964 O982 1.257 . S
C965 O963 1.255 . S
C965 O966 1.247 . S
O966 C965 1.247 . S
C967 O979 1.242 . S
C967 O980 1.258 . S
C968 C964 1.503 . S
C968 C969 1.379 . S
C968 C973 1.392 . S
C969 C968 1.379 . S
C969 C970 1.404 . S
C969 H983 0.929 . S
C970 C969 1.404 . S
C970 C971 1.389 . S
C971 C970 1.389 . S
C971 C972 1.399 . S
C971 H984 0.931 . S
C972 C971 1.399 . S
C972 C973 1.390 . S
C973 C968 1.392 . S
C973 C972 1.390 . S
C973 H985 0.929 . S
O974 Tb958 2.326 . S
O974 C962 1.242 . S
O975 Eu959 2.324 . S
O975 C962 1.258 . S
O976 Tb958 2.500 . S
O976 C978 1.273 . S
O977 Tb958 2.473 . S
O977 C978 1.257 . S
C978 O976 1.273 . S
C978 O977 1.257 . S
O979 Eu959 2.326 . S
O979 C967 1.242 . S
O980 Tb958 2.324 . S
O980 C967 1.258 . S
O981 Eu959 2.500 . S
O981 C964 1.273 . S
O982 Eu959 2.473 . S
O982 C964 1.257 . S
H983 C969 0.929 . S
H984 C971 0.931 . S
H985 C973 0.929 . S
O986 Tb987 2.292 . S
O986 C989 1.255 . S
Tb987 O986 2.292 . S
Tb987 O1003 2.326 . S
Tb987 O1005 2.500 . S
Tb987 O1006 2.473 . S
Tb987 O1009 2.324 . S
Eu988 O992 2.292 . S
Eu988 C993 2.852 . S
Eu988 O1004 2.324 . S
Eu988 O1008 2.326 . S
Eu988 O1010 2.500 . S
Eu988 O1011 2.473 . S
C989 O986 1.255 . S
C989 O990 1.247 . S
O990 C989 1.247 . S
C991 O1003 1.242 . S
C991 O1004 1.258 . S
O992 Eu988 2.292 . S
O992 C994 1.255 . S
C993 Eu988 2.852 . S
C993 C997 1.503 . S
C993 O1010 1.273 . S
C993 O1011 1.257 . S
C994 O992 1.255 . S
C994 O995 1.247 . S
O995 C994 1.247 . S
C996 O1008 1.242 . S
C996 O1009 1.258 . S
C997 C993 1.503 . S
C997 C998 1.379 . S
C997 C1002 1.392 . S
C998 C997 1.379 . S
C998 C999 1.404 . S
C998 H1012 0.929 . S
C999 C998 1.404 . S
C999 C1000 1.389 . S
C1000 C999 1.389 . S
C1000 C1001 1.399 . S
C1000 H1013 0.931 . S
C1001 C1000 1.399 . S
C1001 C1002 1.390 . S
C1002 C997 1.392 . S
C1002 C1001 1.390 . S
C1002 H1014 0.929 . S
O1003 Tb987 2.326 . S
O1003 C991 1.242 . S
O1004 Eu988 2.324 . S
O1004 C991 1.258 . S
O1005 Tb987 2.500 . S
O1005 C1007 1.273 . S
O1006 Tb987 2.473 . S
O1006 C1007 1.257 . S
C1007 O1005 1.273 . S
C1007 O1006 1.257 . S
O1008 Eu988 2.326 . S
O1008 C996 1.242 . S
O1009 Tb987 2.324 . S
O1009 C996 1.258 . S
O1010 Eu988 2.500 . S
O1010 C993 1.273 . S
O1011 Eu988 2.473 . S
O1011 C993 1.257 . S
H1012 C998 0.929 . S
H1013 C1000 0.931 . S
H1014 C1002 0.929 . S
O1015 Tb1016 2.292 . S
O1015 C1018 1.255 . S
Tb1016 O1015 2.292 . S
Tb1016 O1032 2.326 . S
Tb1016 O1034 2.500 . S
Tb1016 O1035 2.473 . S
Tb1016 O1038 2.324 . S
Eu1017 O1021 2.292 . S
Eu1017 C1022 2.852 . S
Eu1017 O1033 2.324 . S
Eu1017 O1037 2.326 . S
Eu1017 O1039 2.500 . S
Eu1017 O1040 2.473 . S
C1018 O1015 1.255 . S
C1018 O1019 1.247 . S
O1019 C1018 1.247 . S
C1020 O1032 1.242 . S
C1020 O1033 1.258 . S
O1021 Eu1017 2.292 . S
O1021 C1023 1.255 . S
C1022 Eu1017 2.852 . S
C1022 C1026 1.503 . S
C1022 O1039 1.273 . S
C1022 O1040 1.257 . S
C1023 O1021 1.255 . S
C1023 O1024 1.247 . S
O1024 C1023 1.247 . S
C1025 O1037 1.242 . S
C1025 O1038 1.258 . S
C1026 C1022 1.503 . S
C1026 C1027 1.379 . S
C1026 C1031 1.392 . S
C1027 C1026 1.379 . S
C1027 C1028 1.404 . S
C1027 H1041 0.929 . S
C1028 C1027 1.404 . S
C1028 C1029 1.389 . S
C1029 C1028 1.389 . S
C1029 C1030 1.399 . S
C1029 H1042 0.931 . S
C1030 C1029 1.399 . S
C1030 C1031 1.390 . S
C1031 C1026 1.392 . S
C1031 C1030 1.390 . S
C1031 H1043 0.929 . S
O1032 Tb1016 2.326 . S
O1032 C1020 1.242 . S
O1033 Eu1017 2.324 . S
O1033 C1020 1.258 . S
O1034 Tb1016 2.500 . S
O1034 C1036 1.273 . S
O1035 Tb1016 2.473 . S
O1035 C1036 1.257 . S
C1036 O1034 1.273 . S
C1036 O1035 1.257 . S
O1037 Eu1017 2.326 . S
O1037 C1025 1.242 . S
O1038 Tb1016 2.324 . S
O1038 C1025 1.258 . S
O1039 Eu1017 2.500 . S
O1039 C1022 1.273 . S
O1040 Eu1017 2.473 . S
O1040 C1022 1.257 . S
H1041 C1027 0.929 . S
H1042 C1029 0.931 . S
H1043 C1031 0.929 . S
O1044 Tb1045 2.292 . S
O1044 C1047 1.255 . S
Tb1045 O1044 2.292 . S
Tb1045 O1061 2.326 . S
Tb1045 O1063 2.500 . S
Tb1045 O1064 2.473 . S
Tb1045 O1067 2.324 . S
Eu1046 O1050 2.292 . S
Eu1046 C1051 2.852 . S
Eu1046 O1062 2.324 . S
Eu1046 O1066 2.326 . S
Eu1046 O1068 2.500 . S
Eu1046 O1069 2.473 . S
C1047 O1044 1.255 . S
C1047 O1048 1.247 . S
O1048 C1047 1.247 . S
C1049 O1061 1.242 . S
C1049 O1062 1.258 . S
O1050 Eu1046 2.292 . S
O1050 C1052 1.255 . S
C1051 Eu1046 2.852 . S
C1051 C1055 1.503 . S
C1051 O1068 1.273 . S
C1051 O1069 1.257 . S
C1052 O1050 1.255 . S
C1052 O1053 1.247 . S
O1053 C1052 1.247 . S
C1054 O1066 1.242 . S
C1054 O1067 1.258 . S
C1055 C1051 1.503 . S
C1055 C1056 1.379 . S
C1055 C1060 1.392 . S
C1056 C1055 1.379 . S
C1056 C1057 1.404 . S
C1056 H1070 0.929 . S
C1057 C1056 1.404 . S
C1057 C1058 1.389 . S
C1058 C1057 1.389 . S
C1058 C1059 1.399 . S
C1058 H1071 0.931 . S
C1059 C1058 1.399 . S
C1059 C1060 1.390 . S
C1060 C1055 1.392 . S
C1060 C1059 1.390 . S
C1060 H1072 0.929 . S
O1061 Tb1045 2.326 . S
O1061 C1049 1.242 . S
O1062 Eu1046 2.324 . S
O1062 C1049 1.258 . S
O1063 Tb1045 2.500 . S
O1063 C1065 1.273 . S
O1064 Tb1045 2.473 . S
O1064 C1065 1.257 . S
C1065 O1063 1.273 . S
C1065 O1064 1.257 . S
O1066 Eu1046 2.326 . S
O1066 C1054 1.242 . S
O1067 Tb1045 2.324 . S
O1067 C1054 1.258 . S
O1068 Eu1046 2.500 . S
O1068 C1051 1.273 . S
O1069 Eu1046 2.473 . S
O1069 C1051 1.257 . S
H1070 C1056 0.929 . S
H1071 C1058 0.931 . S
H1072 C1060 0.929 . S
O1073 Tb1074 2.292 . S
O1073 C1076 1.255 . S
Tb1074 O1073 2.292 . S
Tb1074 O1090 2.326 . S
Tb1074 O1092 2.500 . S
Tb1074 O1093 2.473 . S
Tb1074 O1096 2.324 . S
Eu1075 O1079 2.292 . S
Eu1075 C1080 2.852 . S
Eu1075 O1091 2.324 . S
Eu1075 O1095 2.326 . S
Eu1075 O1097 2.500 . S
Eu1075 O1098 2.473 . S
C1076 O1073 1.255 . S
C1076 O1077 1.247 . S
O1077 C1076 1.247 . S
C1078 O1090 1.242 . S
C1078 O1091 1.258 . S
O1079 Eu1075 2.292 . S
O1079 C1081 1.255 . S
C1080 Eu1075 2.852 . S
C1080 C1084 1.503 . S
C1080 O1097 1.273 . S
C1080 O1098 1.257 . S
C1081 O1079 1.255 . S
C1081 O1082 1.247 . S
O1082 C1081 1.247 . S
C1083 O1095 1.242 . S
C1083 O1096 1.258 . S
C1084 C1080 1.503 . S
C1084 C1085 1.379 . S
C1084 C1089 1.392 . S
C1085 C1084 1.379 . S
C1085 C1086 1.404 . S
C1085 H1099 0.929 . S
C1086 C1085 1.404 . S
C1086 C1087 1.389 . S
C1087 C1086 1.389 . S
C1087 C1088 1.399 . S
C1087 H1100 0.931 . S
C1088 C1087 1.399 . S
C1088 C1089 1.390 . S
C1089 C1084 1.392 . S
C1089 C1088 1.390 . S
C1089 H1101 0.929 . S
O1090 Tb1074 2.326 . S
O1090 C1078 1.242 . S
O1091 Eu1075 2.324 . S
O1091 C1078 1.258 . S
O1092 Tb1074 2.500 . S
O1092 C1094 1.273 . S
O1093 Tb1074 2.473 . S
O1093 C1094 1.257 . S
C1094 O1092 1.273 . S
C1094 O1093 1.257 . S
O1095 Eu1075 2.326 . S
O1095 C1083 1.242 . S
O1096 Tb1074 2.324 . S
O1096 C1083 1.258 . S
O1097 Eu1075 2.500 . S
O1097 C1080 1.273 . S
O1098 Eu1075 2.473 . S
O1098 C1080 1.257 . S
H1099 C1085 0.929 . S
H1100 C1087 0.931 . S
H1101 C1089 0.929 . S
O1102 Tb1103 2.292 . S
O1102 C1105 1.255 . S
Tb1103 O1102 2.292 . S
Tb1103 O1119 2.326 . S
Tb1103 O1121 2.500 . S
Tb1103 O1122 2.473 . S
Tb1103 O1125 2.324 . S
Eu1104 O1108 2.292 . S
Eu1104 C1109 2.852 . S
Eu1104 O1120 2.324 . S
Eu1104 O1124 2.326 . S
Eu1104 O1126 2.500 . S
Eu1104 O1127 2.473 . S
C1105 O1102 1.255 . S
C1105 O1106 1.247 . S
O1106 C1105 1.247 . S
C1107 O1119 1.242 . S
C1107 O1120 1.258 . S
O1108 Eu1104 2.292 . S
O1108 C1110 1.255 . S
C1109 Eu1104 2.852 . S
C1109 C1113 1.503 . S
C1109 O1126 1.273 . S
C1109 O1127 1.257 . S
C1110 O1108 1.255 . S
C1110 O1111 1.247 . S
O1111 C1110 1.247 . S
C1112 O1124 1.242 . S
C1112 O1125 1.258 . S
C1113 C1109 1.503 . S
C1113 C1114 1.379 . S
C1113 C1118 1.392 . S
C1114 C1113 1.379 . S
C1114 C1115 1.404 . S
C1114 H1128 0.929 . S
C1115 C1114 1.404 . S
C1115 C1116 1.389 . S
C1116 C1115 1.389 . S
C1116 C1117 1.399 . S
C1116 H1129 0.931 . S
C1117 C1116 1.399 . S
C1117 C1118 1.390 . S
C1118 C1113 1.392 . S
C1118 C1117 1.390 . S
C1118 H1130 0.929 . S
O1119 Tb1103 2.326 . S
O1119 C1107 1.242 . S
O1120 Eu1104 2.324 . S
O1120 C1107 1.258 . S
O1121 Tb1103 2.500 . S
O1121 C1123 1.273 . S
O1122 Tb1103 2.473 . S
O1122 C1123 1.257 . S
C1123 O1121 1.273 . S
C1123 O1122 1.257 . S
O1124 Eu1104 2.326 . S
O1124 C1112 1.242 . S
O1125 Tb1103 2.324 . S
O1125 C1112 1.258 . S
O1126 Eu1104 2.500 . S
O1126 C1109 1.273 . S
O1127 Eu1104 2.473 . S
O1127 C1109 1.257 . S
H1128 C1114 0.929 . S
H1129 C1116 0.931 . S
H1130 C1118 0.929 . S
O1131 Tb1132 2.292 . S
O1131 C1134 1.255 . S
Tb1132 O1131 2.292 . S
Tb1132 O1148 2.326 . S
Tb1132 O1150 2.500 . S
Tb1132 O1151 2.473 . S
Tb1132 O1154 2.324 . S
Eu1133 O1137 2.292 . S
Eu1133 C1138 2.852 . S
Eu1133 O1149 2.324 . S
Eu1133 O1153 2.326 . S
Eu1133 O1155 2.500 . S
Eu1133 O1156 2.473 . S
C1134 O1131 1.255 . S
C1134 O1135 1.247 . S
O1135 C1134 1.247 . S
C1136 O1148 1.242 . S
C1136 O1149 1.258 . S
O1137 Eu1133 2.292 . S
O1137 C1139 1.255 . S
C1138 Eu1133 2.852 . S
C1138 C1142 1.503 . S
C1138 O1155 1.273 . S
C1138 O1156 1.257 . S
C1139 O1137 1.255 . S
C1139 O1140 1.247 . S
O1140 C1139 1.247 . S
C1141 O1153 1.242 . S
C1141 O1154 1.258 . S
C1142 C1138 1.503 . S
C1142 C1143 1.379 . S
C1142 C1147 1.392 . S
C1143 C1142 1.379 . S
C1143 C1144 1.404 . S
C1143 H1157 0.929 . S
C1144 C1143 1.404 . S
C1144 C1145 1.389 . S
C1145 C1144 1.389 . S
C1145 C1146 1.399 . S
C1145 H1158 0.931 . S
C1146 C1145 1.399 . S
C1146 C1147 1.390 . S
C1147 C1142 1.392 . S
C1147 C1146 1.390 . S
C1147 H1159 0.929 . S
O1148 Tb1132 2.326 . S
O1148 C1136 1.242 . S
O1149 Eu1133 2.324 . S
O1149 C1136 1.258 . S
O1150 Tb1132 2.500 . S
O1150 C1152 1.273 . S
O1151 Tb1132 2.473 . S
O1151 C1152 1.257 . S
C1152 O1150 1.273 . S
C1152 O1151 1.257 . S
O1153 Eu1133 2.326 . S
O1153 C1141 1.242 . S
O1154 Tb1132 2.324 . S
O1154 C1141 1.258 . S
O1155 Eu1133 2.500 . S
O1155 C1138 1.273 . S
O1156 Eu1133 2.473 . S
O1156 C1138 1.257 . S
H1157 C1143 0.929 . S
H1158 C1145 0.931 . S
H1159 C1147 0.929 . S
O1160 Tb1161 2.292 . S
O1160 C1163 1.255 . S
Tb1161 O1160 2.292 . S
Tb1161 O1177 2.326 . S
Tb1161 O1179 2.500 . S
Tb1161 O1180 2.473 . S
Tb1161 O1183 2.324 . S
Eu1162 O1166 2.292 . S
Eu1162 C1167 2.852 . S
Eu1162 O1178 2.324 . S
Eu1162 O1182 2.326 . S
Eu1162 O1184 2.500 . S
Eu1162 O1185 2.473 . S
C1163 O1160 1.255 . S
C1163 O1164 1.247 . S
O1164 C1163 1.247 . S
C1165 O1177 1.242 . S
C1165 O1178 1.258 . S
O1166 Eu1162 2.292 . S
O1166 C1168 1.255 . S
C1167 Eu1162 2.852 . S
C1167 C1171 1.503 . S
C1167 O1184 1.273 . S
C1167 O1185 1.257 . S
C1168 O1166 1.255 . S
C1168 O1169 1.247 . S
O1169 C1168 1.247 . S
C1170 O1182 1.242 . S
C1170 O1183 1.258 . S
C1171 C1167 1.503 . S
C1171 C1172 1.379 . S
C1171 C1176 1.392 . S
C1172 C1171 1.379 . S
C1172 C1173 1.404 . S
C1172 H1186 0.929 . S
C1173 C1172 1.404 . S
C1173 C1174 1.389 . S
C1174 C1173 1.389 . S
C1174 C1175 1.399 . S
C1174 H1187 0.931 . S
C1175 C1174 1.399 . S
C1175 C1176 1.390 . S
C1176 C1171 1.392 . S
C1176 C1175 1.390 . S
C1176 H1188 0.929 . S
O1177 Tb1161 2.326 . S
O1177 C1165 1.242 . S
O1178 Eu1162 2.324 . S
O1178 C1165 1.258 . S
O1179 Tb1161 2.500 . S
O1179 C1181 1.273 . S
O1180 Tb1161 2.473 . S
O1180 C1181 1.257 . S
C1181 O1179 1.273 . S
C1181 O1180 1.257 . S
O1182 Eu1162 2.326 . S
O1182 C1170 1.242 . S
O1183 Tb1161 2.324 . S
O1183 C1170 1.258 . S
O1184 Eu1162 2.500 . S
O1184 C1167 1.273 . S
O1185 Eu1162 2.473 . S
O1185 C1167 1.257 . S
H1186 C1172 0.929 . S
H1187 C1174 0.931 . S
H1188 C1176 0.929 . S
O1189 Tb1190 2.292 . S
O1189 C1192 1.255 . S
Tb1190 O1189 2.292 . S
Tb1190 O1206 2.326 . S
Tb1190 O1208 2.500 . S
Tb1190 O1209 2.473 . S
Tb1190 O1212 2.324 . S
Eu1191 O1195 2.292 . S
Eu1191 C1196 2.852 . S
Eu1191 O1207 2.324 . S
Eu1191 O1211 2.326 . S
Eu1191 O1213 2.500 . S
Eu1191 O1214 2.473 . S
C1192 O1189 1.255 . S
C1192 O1193 1.247 . S
O1193 C1192 1.247 . S
C1194 O1206 1.242 . S
C1194 O1207 1.258 . S
O1195 Eu1191 2.292 . S
O1195 C1197 1.255 . S
C1196 Eu1191 2.852 . S
C1196 C1200 1.503 . S
C1196 O1213 1.273 . S
C1196 O1214 1.257 . S
C1197 O1195 1.255 . S
C1197 O1198 1.247 . S
O1198 C1197 1.247 . S
C1199 O1211 1.242 . S
C1199 O1212 1.258 . S
C1200 C1196 1.503 . S
C1200 C1201 1.379 . S
C1200 C1205 1.392 . S
C1201 C1200 1.379 . S
C1201 C1202 1.404 . S
C1201 H1215 0.929 . S
C1202 C1201 1.404 . S
C1202 C1203 1.389 . S
C1203 C1202 1.389 . S
C1203 C1204 1.399 . S
C1203 H1216 0.931 . S
C1204 C1203 1.399 . S
C1204 C1205 1.390 . S
C1205 C1200 1.392 . S
C1205 C1204 1.390 . S
C1205 H1217 0.929 . S
O1206 Tb1190 2.326 . S
O1206 C1194 1.242 . S
O1207 Eu1191 2.324 . S
O1207 C1194 1.258 . S
O1208 Tb1190 2.500 . S
O1208 C1210 1.273 . S
O1209 Tb1190 2.473 . S
O1209 C1210 1.257 . S
C1210 O1208 1.273 . S
C1210 O1209 1.257 . S
O1211 Eu1191 2.326 . S
O1211 C1199 1.242 . S
O1212 Tb1190 2.324 . S
O1212 C1199 1.258 . S
O1213 Eu1191 2.500 . S
O1213 C1196 1.273 . S
O1214 Eu1191 2.473 . S
O1214 C1196 1.257 . S
H1215 C1201 0.929 . S
H1216 C1203 0.931 . S
H1217 C1205 0.929 . S
O1218 Tb1219 2.292 . S
O1218 C1221 1.255 . S
Tb1219 O1218 2.292 . S
Tb1219 O1235 2.326 . S
Tb1219 O1237 2.500 . S
Tb1219 O1238 2.473 . S
Tb1219 O1241 2.324 . S
Eu1220 O1224 2.292 . S
Eu1220 C1225 2.852 . S
Eu1220 O1236 2.324 . S
Eu1220 O1240 2.326 . S
Eu1220 O1242 2.500 . S
Eu1220 O1243 2.473 . S
C1221 O1218 1.255 . S
C1221 O1222 1.247 . S
O1222 C1221 1.247 . S
C1223 O1235 1.242 . S
C1223 O1236 1.258 . S
O1224 Eu1220 2.292 . S
O1224 C1226 1.255 . S
C1225 Eu1220 2.852 . S
C1225 C1229 1.503 . S
C1225 O1242 1.273 . S
C1225 O1243 1.257 . S
C1226 O1224 1.255 . S
C1226 O1227 1.247 . S
O1227 C1226 1.247 . S
C1228 O1240 1.242 . S
C1228 O1241 1.258 . S
C1229 C1225 1.503 . S
C1229 C1230 1.379 . S
C1229 C1234 1.392 . S
C1230 C1229 1.379 . S
C1230 C1231 1.404 . S
C1230 H1244 0.929 . S
C1231 C1230 1.404 . S
C1231 C1232 1.389 . S
C1232 C1231 1.389 . S
C1232 C1233 1.399 . S
C1232 H1245 0.931 . S
C1233 C1232 1.399 . S
C1233 C1234 1.390 . S
C1234 C1229 1.392 . S
C1234 C1233 1.390 . S
C1234 H1246 0.929 . S
O1235 Tb1219 2.326 . S
O1235 C1223 1.242 . S
O1236 Eu1220 2.324 . S
O1236 C1223 1.258 . S
O1237 Tb1219 2.500 . S
O1237 C1239 1.273 . S
O1238 Tb1219 2.473 . S
O1238 C1239 1.257 . S
C1239 O1237 1.273 . S
C1239 O1238 1.257 . S
O1240 Eu1220 2.326 . S
O1240 C1228 1.242 . S
O1241 Tb1219 2.324 . S
O1241 C1228 1.258 . S
O1242 Eu1220 2.500 . S
O1242 C1225 1.273 . S
O1243 Eu1220 2.473 . S
O1243 C1225 1.257 . S
H1244 C1230 0.929 . S
H1245 C1232 0.931 . S
H1246 C1234 0.929 . S
O1247 Tb1248 2.292 . S
O1247 C1250 1.255 . S
Tb1248 O1247 2.292 . S
Tb1248 O1264 2.326 . S
Tb1248 O1266 2.500 . S
Tb1248 O1267 2.473 . S
Tb1248 O1270 2.324 . S
Eu1249 O1253 2.292 . S
Eu1249 C1254 2.852 . S
Eu1249 O1265 2.324 . S
Eu1249 O1269 2.326 . S
Eu1249 O1271 2.500 . S
Eu1249 O1272 2.473 . S
C1250 O1247 1.255 . S
C1250 O1251 1.247 . S
O1251 C1250 1.247 . S
C1252 O1264 1.242 . S
C1252 O1265 1.258 . S
O1253 Eu1249 2.292 . S
O1253 C1255 1.255 . S
C1254 Eu1249 2.852 . S
C1254 C1258 1.503 . S
C1254 O1271 1.273 . S
C1254 O1272 1.257 . S
C1255 O1253 1.255 . S
C1255 O1256 1.247 . S
O1256 C1255 1.247 . S
C1257 O1269 1.242 . S
C1257 O1270 1.258 . S
C1258 C1254 1.503 . S
C1258 C1259 1.379 . S
C1258 C1263 1.392 . S
C1259 C1258 1.379 . S
C1259 C1260 1.404 . S
C1259 H1273 0.929 . S
C1260 C1259 1.404 . S
C1260 C1261 1.389 . S
C1261 C1260 1.389 . S
C1261 C1262 1.399 . S
C1261 H1274 0.931 . S
C1262 C1261 1.399 . S
C1262 C1263 1.390 . S
C1263 C1258 1.392 . S
C1263 C1262 1.390 . S
C1263 H1275 0.929 . S
O1264 Tb1248 2.326 . S
O1264 C1252 1.242 . S
O1265 Eu1249 2.324 . S
O1265 C1252 1.258 . S
O1266 Tb1248 2.500 . S
O1266 C1268 1.273 . S
O1267 Tb1248 2.473 . S
O1267 C1268 1.257 . S
C1268 O1266 1.273 . S
C1268 O1267 1.257 . S
O1269 Eu1249 2.326 . S
O1269 C1257 1.242 . S
O1270 Tb1248 2.324 . S
O1270 C1257 1.258 . S
O1271 Eu1249 2.500 . S
O1271 C1254 1.273 . S
O1272 Eu1249 2.473 . S
O1272 C1254 1.257 . S
H1273 C1259 0.929 . S
H1274 C1261 0.931 . S
H1275 C1263 0.929 . S
O1276 Tb1277 2.292 . S
O1276 C1279 1.255 . S
Tb1277 O1276 2.292 . S
Tb1277 O1293 2.326 . S
Tb1277 O1295 2.500 . S
Tb1277 O1296 2.473 . S
Tb1277 O1299 2.324 . S
Eu1278 O1282 2.292 . S
Eu1278 C1283 2.852 . S
Eu1278 O1294 2.324 . S
Eu1278 O1298 2.326 . S
Eu1278 O1300 2.500 . S
Eu1278 O1301 2.473 . S
C1279 O1276 1.255 . S
C1279 O1280 1.247 . S
O1280 C1279 1.247 . S
C1281 O1293 1.242 . S
C1281 O1294 1.258 . S
O1282 Eu1278 2.292 . S
O1282 C1284 1.255 . S
C1283 Eu1278 2.852 . S
C1283 C1287 1.503 . S
C1283 O1300 1.273 . S
C1283 O1301 1.257 . S
C1284 O1282 1.255 . S
C1284 O1285 1.247 . S
O1285 C1284 1.247 . S
C1286 O1298 1.242 . S
C1286 O1299 1.258 . S
C1287 C1283 1.503 . S
C1287 C1288 1.379 . S
C1287 C1292 1.392 . S
C1288 C1287 1.379 . S
C1288 C1289 1.404 . S
C1288 H1302 0.929 . S
C1289 C1288 1.404 . S
C1289 C1290 1.389 . S
C1290 C1289 1.389 . S
C1290 C1291 1.399 . S
C1290 H1303 0.931 . S
C1291 C1290 1.399 . S
C1291 C1292 1.390 . S
C1292 C1287 1.392 . S
C1292 C1291 1.390 . S
C1292 H1304 0.929 . S
O1293 Tb1277 2.326 . S
O1293 C1281 1.242 . S
O1294 Eu1278 2.324 . S
O1294 C1281 1.258 . S
O1295 Tb1277 2.500 . S
O1295 C1297 1.273 . S
O1296 Tb1277 2.473 . S
O1296 C1297 1.257 . S
C1297 O1295 1.273 . S
C1297 O1296 1.257 . S
O1298 Eu1278 2.326 . S
O1298 C1286 1.242 . S
O1299 Tb1277 2.324 . S
O1299 C1286 1.258 . S
O1300 Eu1278 2.500 . S
O1300 C1283 1.273 . S
O1301 Eu1278 2.473 . S
O1301 C1283 1.257 . S
H1302 C1288 0.929 . S
H1303 C1290 0.931 . S
H1304 C1292 0.929 . S
O1305 Tb1306 2.292 . S
O1305 C1308 1.255 . S
Tb1306 O1305 2.292 . S
Tb1306 O1322 2.326 . S
Tb1306 O1324 2.500 . S
Tb1306 O1325 2.473 . S
Tb1306 O1328 2.324 . S
Eu1307 O1311 2.292 . S
Eu1307 C1312 2.852 . S
Eu1307 O1323 2.324 . S
Eu1307 O1327 2.326 . S
Eu1307 O1329 2.500 . S
Eu1307 O1330 2.473 . S
C1308 O1305 1.255 . S
C1308 O1309 1.247 . S
O1309 C1308 1.247 . S
C1310 O1322 1.242 . S
C1310 O1323 1.258 . S
O1311 Eu1307 2.292 . S
O1311 C1313 1.255 . S
C1312 Eu1307 2.852 . S
C1312 C1316 1.503 . S
C1312 O1329 1.273 . S
C1312 O1330 1.257 . S
C1313 O1311 1.255 . S
C1313 O1314 1.247 . S
O1314 C1313 1.247 . S
C1315 O1327 1.242 . S
C1315 O1328 1.258 . S
C1316 C1312 1.503 . S
C1316 C1317 1.379 . S
C1316 C1321 1.392 . S
C1317 C1316 1.379 . S
C1317 C1318 1.404 . S
C1317 H1331 0.929 . S
C1318 C1317 1.404 . S
C1318 C1319 1.389 . S
C1319 C1318 1.389 . S
C1319 C1320 1.399 . S
C1319 H1332 0.931 . S
C1320 C1319 1.399 . S
C1320 C1321 1.390 . S
C1321 C1316 1.392 . S
C1321 C1320 1.390 . S
C1321 H1333 0.929 . S
O1322 Tb1306 2.326 . S
O1322 C1310 1.242 . S
O1323 Eu1307 2.324 . S
O1323 C1310 1.258 . S
O1324 Tb1306 2.500 . S
O1324 C1326 1.273 . S
O1325 Tb1306 2.473 . S
O1325 C1326 1.257 . S
C1326 O1324 1.273 . S
C1326 O1325 1.257 . S
O1327 Eu1307 2.326 . S
O1327 C1315 1.242 . S
O1328 Tb1306 2.324 . S
O1328 C1315 1.258 . S
O1329 Eu1307 2.500 . S
O1329 C1312 1.273 . S
O1330 Eu1307 2.473 . S
O1330 C1312 1.257 . S
H1331 C1317 0.929 . S
H1332 C1319 0.931 . S
H1333 C1321 0.929 . S
O1334 Tb1335 2.292 . S
O1334 C1337 1.255 . S
Tb1335 O1334 2.292 . S
Tb1335 O1351 2.326 . S
Tb1335 O1353 2.500 . S
Tb1335 O1354 2.473 . S
Tb1335 O1357 2.324 . S
Eu1336 O1340 2.292 . S
Eu1336 C1341 2.852 . S
Eu1336 O1352 2.324 . S
Eu1336 O1356 2.326 . S
Eu1336 O1358 2.500 . S
Eu1336 O1359 2.473 . S
C1337 O1334 1.255 . S
C1337 O1338 1.247 . S
O1338 C1337 1.247 . S
C1339 O1351 1.242 . S
C1339 O1352 1.258 . S
O1340 Eu1336 2.292 . S
O1340 C1342 1.255 . S
C1341 Eu1336 2.852 . S
C1341 C1345 1.503 . S
C1341 O1358 1.273 . S
C1341 O1359 1.257 . S
C1342 O1340 1.255 . S
C1342 O1343 1.247 . S
O1343 C1342 1.247 . S
C1344 O1356 1.242 . S
C1344 O1357 1.258 . S
C1345 C1341 1.503 . S
C1345 C1346 1.379 . S
C1345 C1350 1.392 . S
C1346 C1345 1.379 . S
C1346 C1347 1.404 . S
C1346 H1360 0.929 . S
C1347 C1346 1.404 . S
C1347 C1348 1.389 . S
C1348 C1347 1.389 . S
C1348 C1349 1.399 . S
C1348 H1361 0.931 . S
C1349 C1348 1.399 . S
C1349 C1350 1.390 . S
C1350 C1345 1.392 . S
C1350 C1349 1.390 . S
C1350 H1362 0.929 . S
O1351 Tb1335 2.326 . S
O1351 C1339 1.242 . S
O1352 Eu1336 2.324 . S
O1352 C1339 1.258 . S
O1353 Tb1335 2.500 . S
O1353 C1355 1.273 . S
O1354 Tb1335 2.473 . S
O1354 C1355 1.257 . S
C1355 O1353 1.273 . S
C1355 O1354 1.257 . S
O1356 Eu1336 2.326 . S
O1356 C1344 1.242 . S
O1357 Tb1335 2.324 . S
O1357 C1344 1.258 . S
O1358 Eu1336 2.500 . S
O1358 C1341 1.273 . S
O1359 Eu1336 2.473 . S
O1359 C1341 1.257 . S
H1360 C1346 0.929 . S
H1361 C1348 0.931 . S
H1362 C1350 0.929 . S
O1363 Tb1364 2.292 . S
O1363 C1366 1.255 . S
Tb1364 O1363 2.292 . S
Tb1364 O1380 2.326 . S
Tb1364 O1382 2.500 . S
Tb1364 O1383 2.473 . S
Tb1364 O1386 2.324 . S
Eu1365 O1369 2.292 . S
Eu1365 C1370 2.852 . S
Eu1365 O1381 2.324 . S
Eu1365 O1385 2.326 . S
Eu1365 O1387 2.500 . S
Eu1365 O1388 2.473 . S
C1366 O1363 1.255 . S
C1366 O1367 1.247 . S
O1367 C1366 1.247 . S
C1368 O1380 1.242 . S
C1368 O1381 1.258 . S
O1369 Eu1365 2.292 . S
O1369 C1371 1.255 . S
C1370 Eu1365 2.852 . S
C1370 C1374 1.503 . S
C1370 O1387 1.273 . S
C1370 O1388 1.257 . S
C1371 O1369 1.255 . S
C1371 O1372 1.247 . S
O1372 C1371 1.247 . S
C1373 O1385 1.242 . S
C1373 O1386 1.258 . S
C1374 C1370 1.503 . S
C1374 C1375 1.379 . S
C1374 C1379 1.392 . S
C1375 C1374 1.379 . S
C1375 C1376 1.404 . S
C1375 H1389 0.929 . S
C1376 C1375 1.404 . S
C1376 C1377 1.389 . S
C1377 C1376 1.389 . S
C1377 C1378 1.399 . S
C1377 H1390 0.931 . S
C1378 C1377 1.399 . S
C1378 C1379 1.390 . S
C1379 C1374 1.392 . S
C1379 C1378 1.390 . S
C1379 H1391 0.929 . S
O1380 Tb1364 2.326 . S
O1380 C1368 1.242 . S
O1381 Eu1365 2.324 . S
O1381 C1368 1.258 . S
O1382 Tb1364 2.500 . S
O1382 C1384 1.273 . S
O1383 Tb1364 2.473 . S
O1383 C1384 1.257 . S
C1384 O1382 1.273 . S
C1384 O1383 1.257 . S
O1385 Eu1365 2.326 . S
O1385 C1373 1.242 . S
O1386 Tb1364 2.324 . S
O1386 C1373 1.258 . S
O1387 Eu1365 2.500 . S
O1387 C1370 1.273 . S
O1388 Eu1365 2.473 . S
O1388 C1370 1.257 . S
H1389 C1375 0.929 . S
H1390 C1377 0.931 . S
H1391 C1379 0.929 . S
H1392 C1400 0.929 . S
H1393 C1402 0.930 . S
H1394 C1404 0.930 . S
H1395 C1407 0.929 . S
H1396 C1410 0.930 . S
H1397 C1412 0.960 . S
H1398 C1412 0.960 . S
H1399 C1412 0.960 . S
C1400 H1392 0.929 . S
C1400 C1401 1.377 . S
C1400 C1402 1.384 . S
C1401 C1400 1.377 . S
C1401 C1407 1.390 . S
C1402 H1393 0.930 . S
C1402 C1400 1.384 . S
C1402 C1403 1.372 . S
C1403 C1402 1.372 . S
C1403 C1404 1.400 . S
C1403 C1408 1.490 . S
C1404 H1394 0.930 . S
C1404 C1403 1.400 . S
C1404 C1407 1.386 . S
H1405 C1421 0.930 . S
H1406 C1422 0.931 . S
C1407 H1395 0.929 . S
C1407 C1401 1.390 . S
C1407 C1404 1.386 . S
C1408 C1403 1.490 . S
C1408 C1410 1.395 . S
C1408 C1411 1.403 . S
H1409 C1415 0.930 . S
C1410 H1396 0.930 . S
C1410 C1408 1.395 . S
C1410 C1413 1.403 . S
C1411 C1408 1.403 . S
C1411 C1412 1.524 . S
C1411 C1415 1.400 . S
C1412 H1397 0.960 . S
C1412 H1398 0.960 . S
C1412 H1399 0.960 . S
C1412 C1411 1.524 . S
C1413 C1410 1.403 . S
C1413 C1414 1.392 . S
C1413 C1417 1.495 . S
C1414 C1413 1.392 . S
C1414 C1415 1.385 . S
C1414 C1416 1.478 . S
C1415 H1409 0.930 . S
C1415 C1411 1.400 . S
C1415 C1414 1.385 . S
C1416 C1414 1.478 . S
C1416 C1418 1.381 . S
C1416 C1422 1.383 . S
C1417 C1413 1.495 . S
C1417 H1423 0.959 . S
C1417 H1424 0.961 . S
C1417 H1425 0.960 . S
C1418 C1416 1.381 . S
C1418 C1419 1.394 . S
C1418 H1426 0.930 . S
C1419 C1418 1.394 . S
C1419 C1420 1.383 . S
C1419 H1427 0.929 . S
C1420 C1419 1.383 . S
C1420 C1421 1.377 . S
C1421 H1405 0.930 . S
C1421 C1420 1.377 . S
C1421 C1422 1.379 . S
C1422 H1406 0.931 . S
C1422 C1416 1.383 . S
C1422 C1421 1.379 . S
H1423 C1417 0.959 . S
H1424 C1417 0.961 . S
H1425 C1417 0.960 . S
H1426 C1418 0.930 . S
H1427 C1419 0.929 . S
H1428 C1436 0.929 . S
H1429 C1438 0.930 . S
H1430 C1440 0.930 . S
H1431 C1443 0.929 . S
H1432 C1446 0.930 . S
H1433 C1448 0.960 . S
H1434 C1448 0.960 . S
H1435 C1448 0.960 . S
C1436 H1428 0.929 . S
C1436 C1437 1.377 . S
C1436 C1438 1.384 . S
C1437 C1436 1.377 . S
C1437 C1443 1.390 . S
C1438 H1429 0.930 . S
C1438 C1436 1.384 . S
C1438 C1439 1.372 . S
C1439 C1438 1.372 . S
C1439 C1440 1.400 . S
C1439 C1444 1.490 . S
C1440 H1430 0.930 . S
C1440 C1439 1.400 . S
C1440 C1443 1.386 . S
H1441 C1457 0.930 . S
H1442 C1458 0.931 . S
C1443 H1431 0.929 . S
C1443 C1437 1.390 . S
C1443 C1440 1.386 . S
C1444 C1439 1.490 . S
C1444 C1446 1.395 . S
C1444 C1447 1.403 . S
H1445 C1451 0.930 . S
C1446 H1432 0.930 . S
C1446 C1444 1.395 . S
C1446 C1449 1.403 . S
C1447 C1444 1.403 . S
C1447 C1448 1.524 . S
C1447 C1451 1.400 . S
C1448 H1433 0.960 . S
C1448 H1434 0.960 . S
C1448 H1435 0.960 . S
C1448 C1447 1.524 . S
C1449 C1446 1.403 . S
C1449 C1450 1.392 . S
C1449 C1453 1.495 . S
C1450 C1449 1.392 . S
C1450 C1451 1.385 . S
C1450 C1452 1.478 . S
C1451 H1445 0.930 . S
C1451 C1447 1.400 . S
C1451 C1450 1.385 . S
C1452 C1450 1.478 . S
C1452 C1454 1.381 . S
C1452 C1458 1.383 . S
C1453 C1449 1.495 . S
C1453 H1459 0.959 . S
C1453 H1460 0.961 . S
C1453 H1461 0.960 . S
C1454 C1452 1.381 . S
C1454 C1455 1.394 . S
C1454 H1462 0.930 . S
C1455 C1454 1.394 . S
C1455 C1456 1.383 . S
C1455 H1463 0.929 . S
C1456 C1455 1.383 . S
C1456 C1457 1.377 . S
C1457 H1441 0.930 . S
C1457 C1456 1.377 . S
C1457 C1458 1.379 . S
C1458 H1442 0.931 . S
C1458 C1452 1.383 . S
C1458 C1457 1.379 . S
H1459 C1453 0.959 . S
H1460 C1453 0.961 . S
H1461 C1453 0.960 . S
H1462 C1454 0.930 . S
H1463 C1455 0.929 . S
H1464 C1472 0.929 . S
H1465 C1474 0.930 . S
H1466 C1476 0.930 . S
H1467 C1479 0.929 . S
H1468 C1482 0.930 . S
H1469 C1484 0.960 . S
H1470 C1484 0.960 . S
H1471 C1484 0.960 . S
C1472 H1464 0.929 . S
C1472 C1473 1.377 . S
C1472 C1474 1.384 . S
C1473 C1472 1.377 . S
C1473 C1479 1.390 . S
C1474 H1465 0.930 . S
C1474 C1472 1.384 . S
C1474 C1475 1.372 . S
C1475 C1474 1.372 . S
C1475 C1476 1.400 . S
C1475 C1480 1.490 . S
C1476 H1466 0.930 . S
C1476 C1475 1.400 . S
C1476 C1479 1.386 . S
H1477 C1493 0.930 . S
H1478 C1494 0.931 . S
C1479 H1467 0.929 . S
C1479 C1473 1.390 . S
C1479 C1476 1.386 . S
C1480 C1475 1.490 . S
C1480 C1482 1.395 . S
C1480 C1483 1.403 . S
H1481 C1487 0.930 . S
C1482 H1468 0.930 . S
C1482 C1480 1.395 . S
C1482 C1485 1.403 . S
C1483 C1480 1.403 . S
C1483 C1484 1.524 . S
C1483 C1487 1.400 . S
C1484 H1469 0.960 . S
C1484 H1470 0.960 . S
C1484 H1471 0.960 . S
C1484 C1483 1.524 . S
C1485 C1482 1.403 . S
C1485 C1486 1.392 . S
C1485 C1489 1.495 . S
C1486 C1485 1.392 . S
C1486 C1487 1.385 . S
C1486 C1488 1.478 . S
C1487 H1481 0.930 . S
C1487 C1483 1.400 . S
C1487 C1486 1.385 . S
C1488 C1486 1.478 . S
C1488 C1490 1.381 . S
C1488 C1494 1.383 . S
C1489 C1485 1.495 . S
C1489 H1495 0.959 . S
C1489 H1496 0.961 . S
C1489 H1497 0.960 . S
C1490 C1488 1.381 . S
C1490 C1491 1.394 . S
C1490 H1498 0.930 . S
C1491 C1490 1.394 . S
C1491 C1492 1.383 . S
C1491 H1499 0.929 . S
C1492 C1491 1.383 . S
C1492 C1493 1.377 . S
C1493 H1477 0.930 . S
C1493 C1492 1.377 . S
C1493 C1494 1.379 . S
C1494 H1478 0.931 . S
C1494 C1488 1.383 . S
C1494 C1493 1.379 . S
H1495 C1489 0.959 . S
H1496 C1489 0.961 . S
H1497 C1489 0.960 . S
H1498 C1490 0.930 . S
H1499 C1491 0.929 . S
H1500 C1508 0.929 . S
H1501 C1510 0.930 . S
H1502 C1512 0.930 . S
H1503 C1515 0.929 . S
H1504 C1518 0.930 . S
H1505 C1520 0.960 . S
H1506 C1520 0.960 . S
H1507 C1520 0.960 . S
C1508 H1500 0.929 . S
C1508 C1509 1.377 . S
C1508 C1510 1.384 . S
C1509 C1508 1.377 . S
C1509 C1515 1.390 . S
C1510 H1501 0.930 . S
C1510 C1508 1.384 . S
C1510 C1511 1.372 . S
C1511 C1510 1.372 . S
C1511 C1512 1.400 . S
C1511 C1516 1.490 . S
C1512 H1502 0.930 . S
C1512 C1511 1.400 . S
C1512 C1515 1.386 . S
H1513 C1529 0.930 . S
H1514 C1530 0.931 . S
C1515 H1503 0.929 . S
C1515 C1509 1.390 . S
C1515 C1512 1.386 . S
C1516 C1511 1.490 . S
C1516 C1518 1.395 . S
C1516 C1519 1.403 . S
H1517 C1523 0.930 . S
C1518 H1504 0.930 . S
C1518 C1516 1.395 . S
C1518 C1521 1.403 . S
C1519 C1516 1.403 . S
C1519 C1520 1.524 . S
C1519 C1523 1.400 . S
C1520 H1505 0.960 . S
C1520 H1506 0.960 . S
C1520 H1507 0.960 . S
C1520 C1519 1.524 . S
C1521 C1518 1.403 . S
C1521 C1522 1.392 . S
C1521 C1525 1.495 . S
C1522 C1521 1.392 . S
C1522 C1523 1.385 . S
C1522 C1524 1.478 . S
C1523 H1517 0.930 . S
C1523 C1519 1.400 . S
C1523 C1522 1.385 . S
C1524 C1522 1.478 . S
C1524 C1526 1.381 . S
C1524 C1530 1.383 . S
C1525 C1521 1.495 . S
C1525 H1531 0.959 . S
C1525 H1532 0.961 . S
C1525 H1533 0.960 . S
C1526 C1524 1.381 . S
C1526 C1527 1.394 . S
C1526 H1534 0.930 . S
C1527 C1526 1.394 . S
C1527 C1528 1.383 . S
C1527 H1535 0.929 . S
C1528 C1527 1.383 . S
C1528 C1529 1.377 . S
C1529 H1513 0.930 . S
C1529 C1528 1.377 . S
C1529 C1530 1.379 . S
C1530 H1514 0.931 . S
C1530 C1524 1.383 . S
C1530 C1529 1.379 . S
H1531 C1525 0.959 . S
H1532 C1525 0.961 . S
H1533 C1525 0.960 . S
H1534 C1526 0.930 . S
H1535 C1527 0.929 . S
H1536 C1544 0.929 . S
H1537 C1546 0.930 . S
H1538 C1548 0.930 . S
H1539 C1551 0.929 . S
H1540 C1554 0.930 . S
H1541 C1556 0.960 . S
H1542 C1556 0.960 . S
H1543 C1556 0.960 . S
C1544 H1536 0.929 . S
C1544 C1545 1.377 . S
C1544 C1546 1.384 . S
C1545 C1544 1.377 . S
C1545 C1551 1.390 . S
C1546 H1537 0.930 . S
C1546 C1544 1.384 . S
C1546 C1547 1.372 . S
C1547 C1546 1.372 . S
C1547 C1548 1.400 . S
C1547 C1552 1.490 . S
C1548 H1538 0.930 . S
C1548 C1547 1.400 . S
C1548 C1551 1.386 . S
H1549 C1565 0.930 . S
H1550 C1566 0.931 . S
C1551 H1539 0.929 . S
C1551 C1545 1.390 . S
C1551 C1548 1.386 . S
C1552 C1547 1.490 . S
C1552 C1554 1.395 . S
C1552 C1555 1.403 . S
H1553 C1559 0.930 . S
C1554 H1540 0.930 . S
C1554 C1552 1.395 . S
C1554 C1557 1.403 . S
C1555 C1552 1.403 . S
C1555 C1556 1.524 . S
C1555 C1559 1.400 . S
C1556 H1541 0.960 . S
C1556 H1542 0.960 . S
C1556 H1543 0.960 . S
C1556 C1555 1.524 . S
C1557 C1554 1.403 . S
C1557 C1558 1.392 . S
C1557 C1561 1.495 . S
C1558 C1557 1.392 . S
C1558 C1559 1.385 . S
C1558 C1560 1.478 . S
C1559 H1553 0.930 . S
C1559 C1555 1.400 . S
C1559 C1558 1.385 . S
C1560 C1558 1.478 . S
C1560 C1562 1.381 . S
C1560 C1566 1.383 . S
C1561 C1557 1.495 . S
C1561 H1567 0.959 . S
C1561 H1568 0.961 . S
C1561 H1569 0.960 . S
C1562 C1560 1.381 . S
C1562 C1563 1.394 . S
C1562 H1570 0.930 . S
C1563 C1562 1.394 . S
C1563 C1564 1.383 . S
C1563 H1571 0.929 . S
C1564 C1563 1.383 . S
C1564 C1565 1.377 . S
C1565 H1549 0.930 . S
C1565 C1564 1.377 . S
C1565 C1566 1.379 . S
C1566 H1550 0.931 . S
C1566 C1560 1.383 . S
C1566 C1565 1.379 . S
H1567 C1561 0.959 . S
H1568 C1561 0.961 . S
H1569 C1561 0.960 . S
H1570 C1562 0.930 . S
H1571 C1563 0.929 . S
H1572 C1580 0.929 . S
H1573 C1582 0.930 . S
H1574 C1584 0.930 . S
H1575 C1587 0.929 . S
H1576 C1590 0.930 . S
H1577 C1592 0.960 . S
H1578 C1592 0.960 . S
H1579 C1592 0.960 . S
C1580 H1572 0.929 . S
C1580 C1581 1.377 . S
C1580 C1582 1.384 . S
C1581 C1580 1.377 . S
C1581 C1587 1.390 . S
C1582 H1573 0.930 . S
C1582 C1580 1.384 . S
C1582 C1583 1.372 . S
C1583 C1582 1.372 . S
C1583 C1584 1.400 . S
C1583 C1588 1.490 . S
C1584 H1574 0.930 . S
C1584 C1583 1.400 . S
C1584 C1587 1.386 . S
H1585 C1601 0.930 . S
H1586 C1602 0.931 . S
C1587 H1575 0.929 . S
C1587 C1581 1.390 . S
C1587 C1584 1.386 . S
C1588 C1583 1.490 . S
C1588 C1590 1.395 . S
C1588 C1591 1.403 . S
H1589 C1595 0.930 . S
C1590 H1576 0.930 . S
C1590 C1588 1.395 . S
C1590 C1593 1.403 . S
C1591 C1588 1.403 . S
C1591 C1592 1.524 . S
C1591 C1595 1.400 . S
C1592 H1577 0.960 . S
C1592 H1578 0.960 . S
C1592 H1579 0.960 . S
C1592 C1591 1.524 . S
C1593 C1590 1.403 . S
C1593 C1594 1.392 . S
C1593 C1597 1.495 . S
C1594 C1593 1.392 . S
C1594 C1595 1.385 . S
C1594 C1596 1.478 . S
C1595 H1589 0.930 . S
C1595 C1591 1.400 . S
C1595 C1594 1.385 . S
C1596 C1594 1.478 . S
C1596 C1598 1.381 . S
C1596 C1602 1.383 . S
C1597 C1593 1.495 . S
C1597 H1603 0.959 . S
C1597 H1604 0.961 . S
C1597 H1605 0.960 . S
C1598 C1596 1.381 . S
C1598 C1599 1.394 . S
C1598 H1606 0.930 . S
C1599 C1598 1.394 . S
C1599 C1600 1.383 . S
C1599 H1607 0.929 . S
C1600 C1599 1.383 . S
C1600 C1601 1.377 . S
C1601 H1585 0.930 . S
C1601 C1600 1.377 . S
C1601 C1602 1.379 . S
C1602 H1586 0.931 . S
C1602 C1596 1.383 . S
C1602 C1601 1.379 . S
H1603 C1597 0.959 . S
H1604 C1597 0.961 . S
H1605 C1597 0.960 . S
H1606 C1598 0.930 . S
H1607 C1599 0.929 . S
H1608 C1616 0.929 . S
H1609 C1618 0.930 . S
H1610 C1620 0.930 . S
H1611 C1623 0.929 . S
H1612 C1626 0.930 . S
H1613 C1628 0.960 . S
H1614 C1628 0.960 . S
H1615 C1628 0.960 . S
C1616 H1608 0.929 . S
C1616 C1617 1.377 . S
C1616 C1618 1.384 . S
C1617 C1616 1.377 . S
C1617 C1623 1.390 . S
C1618 H1609 0.930 . S
C1618 C1616 1.384 . S
C1618 C1619 1.372 . S
C1619 C1618 1.372 . S
C1619 C1620 1.400 . S
C1619 C1624 1.490 . S
C1620 H1610 0.930 . S
C1620 C1619 1.400 . S
C1620 C1623 1.386 . S
H1621 C1637 0.930 . S
H1622 C1638 0.931 . S
C1623 H1611 0.929 . S
C1623 C1617 1.390 . S
C1623 C1620 1.386 . S
C1624 C1619 1.490 . S
C1624 C1626 1.395 . S
C1624 C1627 1.403 . S
H1625 C1631 0.930 . S
C1626 H1612 0.930 . S
C1626 C1624 1.395 . S
C1626 C1629 1.403 . S
C1627 C1624 1.403 . S
C1627 C1628 1.524 . S
C1627 C1631 1.400 . S
C1628 H1613 0.960 . S
C1628 H1614 0.960 . S
C1628 H1615 0.960 . S
C1628 C1627 1.524 . S
C1629 C1626 1.403 . S
C1629 C1630 1.392 . S
C1629 C1633 1.495 . S
C1630 C1629 1.392 . S
C1630 C1631 1.385 . S
C1630 C1632 1.478 . S
C1631 H1625 0.930 . S
C1631 C1627 1.400 . S
C1631 C1630 1.385 . S
C1632 C1630 1.478 . S
C1632 C1634 1.381 . S
C1632 C1638 1.383 . S
C1633 C1629 1.495 . S
C1633 H1639 0.959 . S
C1633 H1640 0.961 . S
C1633 H1641 0.960 . S
C1634 C1632 1.381 . S
C1634 C1635 1.394 . S
C1634 H1642 0.930 . S
C1635 C1634 1.394 . S
C1635 C1636 1.383 . S
C1635 H1643 0.929 . S
C1636 C1635 1.383 . S
C1636 C1637 1.377 . S
C1637 H1621 0.930 . S
C1637 C1636 1.377 . S
C1637 C1638 1.379 . S
C1638 H1622 0.931 . S
C1638 C1632 1.383 . S
C1638 C1637 1.379 . S
H1639 C1633 0.959 . S
H1640 C1633 0.961 . S
H1641 C1633 0.960 . S
H1642 C1634 0.930 . S
H1643 C1635 0.929 . S
H1644 C1652 0.929 . S
H1645 C1654 0.930 . S
H1646 C1656 0.930 . S
H1647 C1659 0.929 . S
H1648 C1662 0.930 . S
H1649 C1664 0.960 . S
H1650 C1664 0.960 . S
H1651 C1664 0.960 . S
C1652 H1644 0.929 . S
C1652 C1653 1.377 . S
C1652 C1654 1.384 . S
C1653 C1652 1.377 . S
C1653 C1659 1.390 . S
C1654 H1645 0.930 . S
C1654 C1652 1.384 . S
C1654 C1655 1.372 . S
C1655 C1654 1.372 . S
C1655 C1656 1.400 . S
C1655 C1660 1.490 . S
C1656 H1646 0.930 . S
C1656 C1655 1.400 . S
C1656 C1659 1.386 . S
H1657 C1673 0.930 . S
H1658 C1674 0.931 . S
C1659 H1647 0.929 . S
C1659 C1653 1.390 . S
C1659 C1656 1.386 . S
C1660 C1655 1.490 . S
C1660 C1662 1.395 . S
C1660 C1663 1.403 . S
H1661 C1667 0.930 . S
C1662 H1648 0.930 . S
C1662 C1660 1.395 . S
C1662 C1665 1.403 . S
C1663 C1660 1.403 . S
C1663 C1664 1.524 . S
C1663 C1667 1.400 . S
C1664 H1649 0.960 . S
C1664 H1650 0.960 . S
C1664 H1651 0.960 . S
C1664 C1663 1.524 . S
C1665 C1662 1.403 . S
C1665 C1666 1.392 . S
C1665 C1669 1.495 . S
C1666 C1665 1.392 . S
C1666 C1667 1.385 . S
C1666 C1668 1.478 . S
C1667 H1661 0.930 . S
C1667 C1663 1.400 . S
C1667 C1666 1.385 . S
C1668 C1666 1.478 . S
C1668 C1670 1.381 . S
C1668 C1674 1.383 . S
C1669 C1665 1.495 . S
C1669 H1675 0.959 . S
C1669 H1676 0.961 . S
C1669 H1677 0.960 . S
C1670 C1668 1.381 . S
C1670 C1671 1.394 . S
C1670 H1678 0.930 . S
C1671 C1670 1.394 . S
C1671 C1672 1.383 . S
C1671 H1679 0.929 . S
C1672 C1671 1.383 . S
C1672 C1673 1.377 . S
C1673 H1657 0.930 . S
C1673 C1672 1.377 . S
C1673 C1674 1.379 . S
C1674 H1658 0.931 . S
C1674 C1668 1.383 . S
C1674 C1673 1.379 . S
H1675 C1669 0.959 . S
H1676 C1669 0.961 . S
H1677 C1669 0.960 . S
H1678 C1670 0.930 . S
H1679 C1671 0.929 . S
H1680 C1688 0.929 . S
H1681 C1690 0.930 . S
H1682 C1692 0.930 . S
H1683 C1695 0.929 . S
H1684 C1698 0.930 . S
H1685 C1700 0.960 . S
H1686 C1700 0.960 . S
H1687 C1700 0.960 . S
C1688 H1680 0.929 . S
C1688 C1689 1.377 . S
C1688 C1690 1.384 . S
C1689 C1688 1.377 . S
C1689 C1695 1.390 . S
C1690 H1681 0.930 . S
C1690 C1688 1.384 . S
C1690 C1691 1.372 . S
C1691 C1690 1.372 . S
C1691 C1692 1.400 . S
C1691 C1696 1.490 . S
C1692 H1682 0.930 . S
C1692 C1691 1.400 . S
C1692 C1695 1.386 . S
H1693 C1709 0.930 . S
H1694 C1710 0.931 . S
C1695 H1683 0.929 . S
C1695 C1689 1.390 . S
C1695 C1692 1.386 . S
C1696 C1691 1.490 . S
C1696 C1698 1.395 . S
C1696 C1699 1.403 . S
H1697 C1703 0.930 . S
C1698 H1684 0.930 . S
C1698 C1696 1.395 . S
C1698 C1701 1.403 . S
C1699 C1696 1.403 . S
C1699 C1700 1.524 . S
C1699 C1703 1.400 . S
C1700 H1685 0.960 . S
C1700 H1686 0.960 . S
C1700 H1687 0.960 . S
C1700 C1699 1.524 . S
C1701 C1698 1.403 . S
C1701 C1702 1.392 . S
C1701 C1705 1.495 . S
C1702 C1701 1.392 . S
C1702 C1703 1.385 . S
C1702 C1704 1.478 . S
C1703 H1697 0.930 . S
C1703 C1699 1.400 . S
C1703 C1702 1.385 . S
C1704 C1702 1.478 . S
C1704 C1706 1.381 . S
C1704 C1710 1.383 . S
C1705 C1701 1.495 . S
C1705 H1711 0.959 . S
C1705 H1712 0.961 . S
C1705 H1713 0.960 . S
C1706 C1704 1.381 . S
C1706 C1707 1.394 . S
C1706 H1714 0.930 . S
C1707 C1706 1.394 . S
C1707 C1708 1.383 . S
C1707 H1715 0.929 . S
C1708 C1707 1.383 . S
C1708 C1709 1.377 . S
C1709 H1693 0.930 . S
C1709 C1708 1.377 . S
C1709 C1710 1.379 . S
C1710 H1694 0.931 . S
C1710 C1704 1.383 . S
C1710 C1709 1.379 . S
H1711 C1705 0.959 . S
H1712 C1705 0.961 . S
H1713 C1705 0.960 . S
H1714 C1706 0.930 . S
H1715 C1707 0.929 . S
H1716 C1724 0.929 . S
H1717 C1726 0.930 . S
H1718 C1728 0.930 . S
H1719 C1731 0.929 . S
H1720 C1734 0.930 . S
H1721 C1736 0.960 . S
H1722 C1736 0.960 . S
H1723 C1736 0.960 . S
C1724 H1716 0.929 . S
C1724 C1725 1.377 . S
C1724 C1726 1.384 . S
C1725 C1724 1.377 . S
C1725 C1731 1.390 . S
C1726 H1717 0.930 . S
C1726 C1724 1.384 . S
C1726 C1727 1.372 . S
C1727 C1726 1.372 . S
C1727 C1728 1.400 . S
C1727 C1732 1.490 . S
C1728 H1718 0.930 . S
C1728 C1727 1.400 . S
C1728 C1731 1.386 . S
H1729 C1745 0.930 . S
H1730 C1746 0.931 . S
C1731 H1719 0.929 . S
C1731 C1725 1.390 . S
C1731 C1728 1.386 . S
C1732 C1727 1.490 . S
C1732 C1734 1.395 . S
C1732 C1735 1.403 . S
H1733 C1739 0.930 . S
C1734 H1720 0.930 . S
C1734 C1732 1.395 . S
C1734 C1737 1.403 . S
C1735 C1732 1.403 . S
C1735 C1736 1.524 . S
C1735 C1739 1.400 . S
C1736 H1721 0.960 . S
C1736 H1722 0.960 . S
C1736 H1723 0.960 . S
C1736 C1735 1.524 . S
C1737 C1734 1.403 . S
C1737 C1738 1.392 . S
C1737 C1741 1.495 . S
C1738 C1737 1.392 . S
C1738 C1739 1.385 . S
C1738 C1740 1.478 . S
C1739 H1733 0.930 . S
C1739 C1735 1.400 . S
C1739 C1738 1.385 . S
C1740 C1738 1.478 . S
C1740 C1742 1.381 . S
C1740 C1746 1.383 . S
C1741 C1737 1.495 . S
C1741 H1747 0.959 . S
C1741 H1748 0.961 . S
C1741 H1749 0.960 . S
C1742 C1740 1.381 . S
C1742 C1743 1.394 . S
C1742 H1750 0.930 . S
C1743 C1742 1.394 . S
C1743 C1744 1.383 . S
C1743 H1751 0.929 . S
C1744 C1743 1.383 . S
C1744 C1745 1.377 . S
C1745 H1729 0.930 . S
C1745 C1744 1.377 . S
C1745 C1746 1.379 . S
C1746 H1730 0.931 . S
C1746 C1740 1.383 . S
C1746 C1745 1.379 . S
H1747 C1741 0.959 . S
H1748 C1741 0.961 . S
H1749 C1741 0.960 . S
H1750 C1742 0.930 . S
H1751 C1743 0.929 . S
H1752 C1760 0.929 . S
H1753 C1762 0.930 . S
H1754 C1764 0.930 . S
H1755 C1767 0.929 . S
H1756 C1770 0.930 . S
H1757 C1772 0.960 . S
H1758 C1772 0.960 . S
H1759 C1772 0.960 . S
C1760 H1752 0.929 . S
C1760 C1761 1.377 . S
C1760 C1762 1.384 . S
C1761 C1760 1.377 . S
C1761 C1767 1.390 . S
C1762 H1753 0.930 . S
C1762 C1760 1.384 . S
C1762 C1763 1.372 . S
C1763 C1762 1.372 . S
C1763 C1764 1.400 . S
C1763 C1768 1.490 . S
C1764 H1754 0.930 . S
C1764 C1763 1.400 . S
C1764 C1767 1.386 . S
H1765 C1781 0.930 . S
H1766 C1782 0.931 . S
C1767 H1755 0.929 . S
C1767 C1761 1.390 . S
C1767 C1764 1.386 . S
C1768 C1763 1.490 . S
C1768 C1770 1.395 . S
C1768 C1771 1.403 . S
H1769 C1775 0.930 . S
C1770 H1756 0.930 . S
C1770 C1768 1.395 . S
C1770 C1773 1.403 . S
C1771 C1768 1.403 . S
C1771 C1772 1.524 . S
C1771 C1775 1.400 . S
C1772 H1757 0.960 . S
C1772 H1758 0.960 . S
C1772 H1759 0.960 . S
C1772 C1771 1.524 . S
C1773 C1770 1.403 . S
C1773 C1774 1.392 . S
C1773 C1777 1.495 . S
C1774 C1773 1.392 . S
C1774 C1775 1.385 . S
C1774 C1776 1.478 . S
C1775 H1769 0.930 . S
C1775 C1771 1.400 . S
C1775 C1774 1.385 . S
C1776 C1774 1.478 . S
C1776 C1778 1.381 . S
C1776 C1782 1.383 . S
C1777 C1773 1.495 . S
C1777 H1783 0.959 . S
C1777 H1784 0.961 . S
C1777 H1785 0.960 . S
C1778 C1776 1.381 . S
C1778 C1779 1.394 . S
C1778 H1786 0.930 . S
C1779 C1778 1.394 . S
C1779 C1780 1.383 . S
C1779 H1787 0.929 . S
C1780 C1779 1.383 . S
C1780 C1781 1.377 . S
C1781 H1765 0.930 . S
C1781 C1780 1.377 . S
C1781 C1782 1.379 . S
C1782 H1766 0.931 . S
C1782 C1776 1.383 . S
C1782 C1781 1.379 . S
H1783 C1777 0.959 . S
H1784 C1777 0.961 . S
H1785 C1777 0.960 . S
H1786 C1778 0.930 . S
H1787 C1779 0.929 . S
H1788 C1796 0.929 . S
H1789 C1798 0.930 . S
H1790 C1800 0.930 . S
H1791 C1803 0.929 . S
H1792 C1806 0.930 . S
H1793 C1808 0.960 . S
H1794 C1808 0.960 . S
H1795 C1808 0.960 . S
C1796 H1788 0.929 . S
C1796 C1797 1.377 . S
C1796 C1798 1.384 . S
C1797 C1796 1.377 . S
C1797 C1803 1.390 . S
C1798 H1789 0.930 . S
C1798 C1796 1.384 . S
C1798 C1799 1.372 . S
C1799 C1798 1.372 . S
C1799 C1800 1.400 . S
C1799 C1804 1.490 . S
C1800 H1790 0.930 . S
C1800 C1799 1.400 . S
C1800 C1803 1.386 . S
H1801 C1817 0.930 . S
H1802 C1818 0.931 . S
C1803 H1791 0.929 . S
C1803 C1797 1.390 . S
C1803 C1800 1.386 . S
C1804 C1799 1.490 . S
C1804 C1806 1.395 . S
C1804 C1807 1.403 . S
H1805 C1811 0.930 . S
C1806 H1792 0.930 . S
C1806 C1804 1.395 . S
C1806 C1809 1.403 . S
C1807 C1804 1.403 . S
C1807 C1808 1.524 . S
C1807 C1811 1.400 . S
C1808 H1793 0.960 . S
C1808 H1794 0.960 . S
C1808 H1795 0.960 . S
C1808 C1807 1.524 . S
C1809 C1806 1.403 . S
C1809 C1810 1.392 . S
C1809 C1813 1.495 . S
C1810 C1809 1.392 . S
C1810 C1811 1.385 . S
C1810 C1812 1.478 . S
C1811 H1805 0.930 . S
C1811 C1807 1.400 . S
C1811 C1810 1.385 . S
C1812 C1810 1.478 . S
C1812 C1814 1.381 . S
C1812 C1818 1.383 . S
C1813 C1809 1.495 . S
C1813 H1819 0.959 . S
C1813 H1820 0.961 . S
C1813 H1821 0.960 . S
C1814 C1812 1.381 . S
C1814 C1815 1.394 . S
C1814 H1822 0.930 . S
C1815 C1814 1.394 . S
C1815 C1816 1.383 . S
C1815 H1823 0.929 . S
C1816 C1815 1.383 . S
C1816 C1817 1.377 . S
C1817 H1801 0.930 . S
C1817 C1816 1.377 . S
C1817 C1818 1.379 . S
C1818 H1802 0.931 . S
C1818 C1812 1.383 . S
C1818 C1817 1.379 . S
H1819 C1813 0.959 . S
H1820 C1813 0.961 . S
H1821 C1813 0.960 . S
H1822 C1814 0.930 . S
H1823 C1815 0.929 . S
H1824 C1832 0.929 . S
H1825 C1834 0.930 . S
H1826 C1836 0.930 . S
H1827 C1839 0.929 . S
H1828 C1842 0.930 . S
H1829 C1844 0.960 . S
H1830 C1844 0.960 . S
H1831 C1844 0.960 . S
C1832 H1824 0.929 . S
C1832 C1833 1.377 . S
C1832 C1834 1.384 . S
C1833 C1832 1.377 . S
C1833 C1839 1.390 . S
C1834 H1825 0.930 . S
C1834 C1832 1.384 . S
C1834 C1835 1.372 . S
C1835 C1834 1.372 . S
C1835 C1836 1.400 . S
C1835 C1840 1.490 . S
C1836 H1826 0.930 . S
C1836 C1835 1.400 . S
C1836 C1839 1.386 . S
H1837 C1853 0.930 . S
H1838 C1854 0.931 . S
C1839 H1827 0.929 . S
C1839 C1833 1.390 . S
C1839 C1836 1.386 . S
C1840 C1835 1.490 . S
C1840 C1842 1.395 . S
C1840 C1843 1.403 . S
H1841 C1847 0.930 . S
C1842 H1828 0.930 . S
C1842 C1840 1.395 . S
C1842 C1845 1.403 . S
C1843 C1840 1.403 . S
C1843 C1844 1.524 . S
C1843 C1847 1.400 . S
C1844 H1829 0.960 . S
C1844 H1830 0.960 . S
C1844 H1831 0.960 . S
C1844 C1843 1.524 . S
C1845 C1842 1.403 . S
C1845 C1846 1.392 . S
C1845 C1849 1.495 . S
C1846 C1845 1.392 . S
C1846 C1847 1.385 . S
C1846 C1848 1.478 . S
C1847 H1841 0.930 . S
C1847 C1843 1.400 . S
C1847 C1846 1.385 . S
C1848 C1846 1.478 . S
C1848 C1850 1.381 . S
C1848 C1854 1.383 . S
C1849 C1845 1.495 . S
C1849 H1855 0.959 . S
C1849 H1856 0.961 . S
C1849 H1857 0.960 . S
C1850 C1848 1.381 . S
C1850 C1851 1.394 . S
C1850 H1858 0.930 . S
C1851 C1850 1.394 . S
C1851 C1852 1.383 . S
C1851 H1859 0.929 . S
C1852 C1851 1.383 . S
C1852 C1853 1.377 . S
C1853 H1837 0.930 . S
C1853 C1852 1.377 . S
C1853 C1854 1.379 . S
C1854 H1838 0.931 . S
C1854 C1848 1.383 . S
C1854 C1853 1.379 . S
H1855 C1849 0.959 . S
H1856 C1849 0.961 . S
H1857 C1849 0.960 . S
H1858 C1850 0.930 . S
H1859 C1851 0.929 . S
H1860 C1868 0.929 . S
H1861 C1870 0.930 . S
H1862 C1872 0.930 . S
H1863 C1875 0.929 . S
H1864 C1878 0.930 . S
H1865 C1880 0.960 . S
H1866 C1880 0.960 . S
H1867 C1880 0.960 . S
C1868 H1860 0.929 . S
C1868 C1869 1.377 . S
C1868 C1870 1.384 . S
C1869 C1868 1.377 . S
C1869 C1875 1.390 . S
C1870 H1861 0.930 . S
C1870 C1868 1.384 . S
C1870 C1871 1.372 . S
C1871 C1870 1.372 . S
C1871 C1872 1.400 . S
C1871 C1876 1.490 . S
C1872 H1862 0.930 . S
C1872 C1871 1.400 . S
C1872 C1875 1.386 . S
H1873 C1889 0.930 . S
H1874 C1890 0.931 . S
C1875 H1863 0.929 . S
C1875 C1869 1.390 . S
C1875 C1872 1.386 . S
C1876 C1871 1.490 . S
C1876 C1878 1.395 . S
C1876 C1879 1.403 . S
H1877 C1883 0.930 . S
C1878 H1864 0.930 . S
C1878 C1876 1.395 . S
C1878 C1881 1.403 . S
C1879 C1876 1.403 . S
C1879 C1880 1.524 . S
C1879 C1883 1.400 . S
C1880 H1865 0.960 . S
C1880 H1866 0.960 . S
C1880 H1867 0.960 . S
C1880 C1879 1.524 . S
C1881 C1878 1.403 . S
C1881 C1882 1.392 . S
C1881 C1885 1.495 . S
C1882 C1881 1.392 . S
C1882 C1883 1.385 . S
C1882 C1884 1.478 . S
C1883 H1877 0.930 . S
C1883 C1879 1.400 . S
C1883 C1882 1.385 . S
C1884 C1882 1.478 . S
C1884 C1886 1.381 . S
C1884 C1890 1.383 . S
C1885 C1881 1.495 . S
C1885 H1891 0.959 . S
C1885 H1892 0.961 . S
C1885 H1893 0.960 . S
C1886 C1884 1.381 . S
C1886 C1887 1.394 . S
C1886 H1894 0.930 . S
C1887 C1886 1.394 . S
C1887 C1888 1.383 . S
C1887 H1895 0.929 . S
C1888 C1887 1.383 . S
C1888 C1889 1.377 . S
C1889 H1873 0.930 . S
C1889 C1888 1.377 . S
C1889 C1890 1.379 . S
C1890 H1874 0.931 . S
C1890 C1884 1.383 . S
C1890 C1889 1.379 . S
H1891 C1885 0.959 . S
H1892 C1885 0.961 . S
H1893 C1885 0.960 . S
H1894 C1886 0.930 . S
H1895 C1887 0.929 . S
H1896 C1904 0.929 . S
H1897 C1906 0.930 . S
H1898 C1908 0.930 . S
H1899 C1911 0.929 . S
H1900 C1914 0.930 . S
H1901 C1916 0.960 . S
H1902 C1916 0.960 . S
H1903 C1916 0.960 . S
C1904 H1896 0.929 . S
C1904 C1905 1.377 . S
C1904 C1906 1.384 . S
C1905 C1904 1.377 . S
C1905 C1911 1.390 . S
C1906 H1897 0.930 . S
C1906 C1904 1.384 . S
C1906 C1907 1.372 . S
C1907 C1906 1.372 . S
C1907 C1908 1.400 . S
C1907 C1912 1.490 . S
C1908 H1898 0.930 . S
C1908 C1907 1.400 . S
C1908 C1911 1.386 . S
H1909 C1925 0.930 . S
H1910 C1926 0.931 . S
C1911 H1899 0.929 . S
C1911 C1905 1.390 . S
C1911 C1908 1.386 . S
C1912 C1907 1.490 . S
C1912 C1914 1.395 . S
C1912 C1915 1.403 . S
H1913 C1919 0.930 . S
C1914 H1900 0.930 . S
C1914 C1912 1.395 . S
C1914 C1917 1.403 . S
C1915 C1912 1.403 . S
C1915 C1916 1.524 . S
C1915 C1919 1.400 . S
C1916 H1901 0.960 . S
C1916 H1902 0.960 . S
C1916 H1903 0.960 . S
C1916 C1915 1.524 . S
C1917 C1914 1.403 . S
C1917 C1918 1.392 . S
C1917 C1921 1.495 . S
C1918 C1917 1.392 . S
C1918 C1919 1.385 . S
C1918 C1920 1.478 . S
C1919 H1913 0.930 . S
C1919 C1915 1.400 . S
C1919 C1918 1.385 . S
C1920 C1918 1.478 . S
C1920 C1922 1.381 . S
C1920 C1926 1.383 . S
C1921 C1917 1.495 . S
C1921 H1927 0.959 . S
C1921 H1928 0.961 . S
C1921 H1929 0.960 . S
C1922 C1920 1.381 . S
C1922 C1923 1.394 . S
C1922 H1930 0.930 . S
C1923 C1922 1.394 . S
C1923 C1924 1.383 . S
C1923 H1931 0.929 . S
C1924 C1923 1.383 . S
C1924 C1925 1.377 . S
C1925 H1909 0.930 . S
C1925 C1924 1.377 . S
C1925 C1926 1.379 . S
C1926 H1910 0.931 . S
C1926 C1920 1.383 . S
C1926 C1925 1.379 . S
H1927 C1921 0.959 . S
H1928 C1921 0.961 . S
H1929 C1921 0.960 . S
H1930 C1922 0.930 . S
H1931 C1923 0.929 . S
H1932 C1940 0.929 . S
H1933 C1942 0.930 . S
H1934 C1944 0.930 . S
H1935 C1947 0.929 . S
H1936 C1950 0.930 . S
H1937 C1952 0.960 . S
H1938 C1952 0.960 . S
H1939 C1952 0.960 . S
C1940 H1932 0.929 . S
C1940 C1941 1.377 . S
C1940 C1942 1.384 . S
C1941 C1940 1.377 . S
C1941 C1947 1.390 . S
C1942 H1933 0.930 . S
C1942 C1940 1.384 . S
C1942 C1943 1.372 . S
C1943 C1942 1.372 . S
C1943 C1944 1.400 . S
C1943 C1948 1.490 . S
C1944 H1934 0.930 . S
C1944 C1943 1.400 . S
C1944 C1947 1.386 . S
H1945 C1961 0.930 . S
H1946 C1962 0.931 . S
C1947 H1935 0.929 . S
C1947 C1941 1.390 . S
C1947 C1944 1.386 . S
C1948 C1943 1.490 . S
C1948 C1950 1.395 . S
C1948 C1951 1.403 . S
H1949 C1955 0.930 . S
C1950 H1936 0.930 . S
C1950 C1948 1.395 . S
C1950 C1953 1.403 . S
C1951 C1948 1.403 . S
C1951 C1952 1.524 . S
C1951 C1955 1.400 . S
C1952 H1937 0.960 . S
C1952 H1938 0.960 . S
C1952 H1939 0.960 . S
C1952 C1951 1.524 . S
C1953 C1950 1.403 . S
C1953 C1954 1.392 . S
C1953 C1957 1.495 . S
C1954 C1953 1.392 . S
C1954 C1955 1.385 . S
C1954 C1956 1.478 . S
C1955 H1949 0.930 . S
C1955 C1951 1.400 . S
C1955 C1954 1.385 . S
C1956 C1954 1.478 . S
C1956 C1958 1.381 . S
C1956 C1962 1.383 . S
C1957 C1953 1.495 . S
C1957 H1963 0.959 . S
C1957 H1964 0.961 . S
C1957 H1965 0.960 . S
C1958 C1956 1.381 . S
C1958 C1959 1.394 . S
C1958 H1966 0.930 . S
C1959 C1958 1.394 . S
C1959 C1960 1.383 . S
C1959 H1967 0.929 . S
C1960 C1959 1.383 . S
C1960 C1961 1.377 . S
C1961 H1945 0.930 . S
C1961 C1960 1.377 . S
C1961 C1962 1.379 . S
C1962 H1946 0.931 . S
C1962 C1956 1.383 . S
C1962 C1961 1.379 . S
H1963 C1957 0.959 . S
H1964 C1957 0.961 . S
H1965 C1957 0.960 . S
H1966 C1958 0.930 . S
H1967 C1959 0.929 . S
H1968 C1976 0.929 . S
H1969 C1978 0.930 . S
H1970 C1980 0.930 . S
H1971 C1983 0.929 . S
H1972 C1986 0.930 . S
H1973 C1988 0.960 . S
H1974 C1988 0.960 . S
H1975 C1988 0.960 . S
C1976 H1968 0.929 . S
C1976 C1977 1.377 . S
C1976 C1978 1.384 . S
C1977 C1976 1.377 . S
C1977 C1983 1.390 . S
C1978 H1969 0.930 . S
C1978 C1976 1.384 . S
C1978 C1979 1.372 . S
C1979 C1978 1.372 . S
C1979 C1980 1.400 . S
C1979 C1984 1.490 . S
C1980 H1970 0.930 . S
C1980 C1979 1.400 . S
C1980 C1983 1.386 . S
H1981 C1997 0.930 . S
H1982 C1998 0.931 . S
C1983 H1971 0.929 . S
C1983 C1977 1.390 . S
C1983 C1980 1.386 . S
C1984 C1979 1.490 . S
C1984 C1986 1.395 . S
C1984 C1987 1.403 . S
H1985 C1991 0.930 . S
C1986 H1972 0.930 . S
C1986 C1984 1.395 . S
C1986 C1989 1.403 . S
C1987 C1984 1.403 . S
C1987 C1988 1.524 . S
C1987 C1991 1.400 . S
C1988 H1973 0.960 . S
C1988 H1974 0.960 . S
C1988 H1975 0.960 . S
C1988 C1987 1.524 . S
C1989 C1986 1.403 . S
C1989 C1990 1.392 . S
C1989 C1993 1.495 . S
C1990 C1989 1.392 . S
C1990 C1991 1.385 . S
C1990 C1992 1.478 . S
C1991 H1985 0.930 . S
C1991 C1987 1.400 . S
C1991 C1990 1.385 . S
C1992 C1990 1.478 . S
C1992 C1994 1.381 . S
C1992 C1998 1.383 . S
C1993 C1989 1.495 . S
C1993 H1999 0.959 . S
C1993 H2000 0.961 . S
C1993 H2001 0.960 . S
C1994 C1992 1.381 . S
C1994 C1995 1.394 . S
C1994 H2002 0.930 . S
C1995 C1994 1.394 . S
C1995 C1996 1.383 . S
C1995 H2003 0.929 . S
C1996 C1995 1.383 . S
C1996 C1997 1.377 . S
C1997 H1981 0.930 . S
C1997 C1996 1.377 . S
C1997 C1998 1.379 . S
C1998 H1982 0.931 . S
C1998 C1992 1.383 . S
C1998 C1997 1.379 . S
H1999 C1993 0.959 . S
H2000 C1993 0.961 . S
H2001 C1993 0.960 . S
H2002 C1994 0.930 . S
H2003 C1995 0.929 . S
H2004 C2012 0.929 . S
H2005 C2014 0.930 . S
H2006 C2016 0.930 . S
H2007 C2019 0.929 . S
H2008 C2022 0.930 . S
H2009 C2024 0.960 . S
H2010 C2024 0.960 . S
H2011 C2024 0.960 . S
C2012 H2004 0.929 . S
C2012 C2013 1.377 . S
C2012 C2014 1.384 . S
C2013 C2012 1.377 . S
C2013 C2019 1.390 . S
C2014 H2005 0.930 . S
C2014 C2012 1.384 . S
C2014 C2015 1.372 . S
C2015 C2014 1.372 . S
C2015 C2016 1.400 . S
C2015 C2020 1.490 . S
C2016 H2006 0.930 . S
C2016 C2015 1.400 . S
C2016 C2019 1.386 . S
H2017 C2033 0.930 . S
H2018 C2034 0.931 . S
C2019 H2007 0.929 . S
C2019 C2013 1.390 . S
C2019 C2016 1.386 . S
C2020 C2015 1.490 . S
C2020 C2022 1.395 . S
C2020 C2023 1.403 . S
H2021 C2027 0.930 . S
C2022 H2008 0.930 . S
C2022 C2020 1.395 . S
C2022 C2025 1.403 . S
C2023 C2020 1.403 . S
C2023 C2024 1.524 . S
C2023 C2027 1.400 . S
C2024 H2009 0.960 . S
C2024 H2010 0.960 . S
C2024 H2011 0.960 . S
C2024 C2023 1.524 . S
C2025 C2022 1.403 . S
C2025 C2026 1.392 . S
C2025 C2029 1.495 . S
C2026 C2025 1.392 . S
C2026 C2027 1.385 . S
C2026 C2028 1.478 . S
C2027 H2021 0.930 . S
C2027 C2023 1.400 . S
C2027 C2026 1.385 . S
C2028 C2026 1.478 . S
C2028 C2030 1.381 . S
C2028 C2034 1.383 . S
C2029 C2025 1.495 . S
C2029 H2035 0.959 . S
C2029 H2036 0.961 . S
C2029 H2037 0.960 . S
C2030 C2028 1.381 . S
C2030 C2031 1.394 . S
C2030 H2038 0.930 . S
C2031 C2030 1.394 . S
C2031 C2032 1.383 . S
C2031 H2039 0.929 . S
C2032 C2031 1.383 . S
C2032 C2033 1.377 . S
C2033 H2017 0.930 . S
C2033 C2032 1.377 . S
C2033 C2034 1.379 . S
C2034 H2018 0.931 . S
C2034 C2028 1.383 . S
C2034 C2033 1.379 . S
H2035 C2029 0.959 . S
H2036 C2029 0.961 . S
H2037 C2029 0.960 . S
H2038 C2030 0.930 . S
H2039 C2031 0.929 . S
H2040 C2048 0.929 . S
H2041 C2050 0.930 . S
H2042 C2052 0.930 . S
H2043 C2055 0.929 . S
H2044 C2058 0.930 . S
H2045 C2060 0.960 . S
H2046 C2060 0.960 . S
H2047 C2060 0.960 . S
C2048 H2040 0.929 . S
C2048 C2049 1.377 . S
C2048 C2050 1.384 . S
C2049 C2048 1.377 . S
C2049 C2055 1.390 . S
C2050 H2041 0.930 . S
C2050 C2048 1.384 . S
C2050 C2051 1.372 . S
C2051 C2050 1.372 . S
C2051 C2052 1.400 . S
C2051 C2056 1.490 . S
C2052 H2042 0.930 . S
C2052 C2051 1.400 . S
C2052 C2055 1.386 . S
H2053 C2069 0.930 . S
H2054 C2070 0.931 . S
C2055 H2043 0.929 . S
C2055 C2049 1.390 . S
C2055 C2052 1.386 . S
C2056 C2051 1.490 . S
C2056 C2058 1.395 . S
C2056 C2059 1.403 . S
H2057 C2063 0.930 . S
C2058 H2044 0.930 . S
C2058 C2056 1.395 . S
C2058 C2061 1.403 . S
C2059 C2056 1.403 . S
C2059 C2060 1.524 . S
C2059 C2063 1.400 . S
C2060 H2045 0.960 . S
C2060 H2046 0.960 . S
C2060 H2047 0.960 . S
C2060 C2059 1.524 . S
C2061 C2058 1.403 . S
C2061 C2062 1.392 . S
C2061 C2065 1.495 . S
C2062 C2061 1.392 . S
C2062 C2063 1.385 . S
C2062 C2064 1.478 . S
C2063 H2057 0.930 . S
C2063 C2059 1.400 . S
C2063 C2062 1.385 . S
C2064 C2062 1.478 . S
C2064 C2066 1.381 . S
C2064 C2070 1.383 . S
C2065 C2061 1.495 . S
C2065 H2071 0.959 . S
C2065 H2072 0.961 . S
C2065 H2073 0.960 . S
C2066 C2064 1.381 . S
C2066 C2067 1.394 . S
C2066 H2074 0.930 . S
C2067 C2066 1.394 . S
C2067 C2068 1.383 . S
C2067 H2075 0.929 . S
C2068 C2067 1.383 . S
C2068 C2069 1.377 . S
C2069 H2053 0.930 . S
C2069 C2068 1.377 . S
C2069 C2070 1.379 . S
C2070 H2054 0.931 . S
C2070 C2064 1.383 . S
C2070 C2069 1.379 . S
H2071 C2065 0.959 . S
H2072 C2065 0.961 . S
H2073 C2065 0.960 . S
H2074 C2066 0.930 . S
H2075 C2067 0.929 . S
H2076 C2084 0.929 . S
H2077 C2086 0.930 . S
H2078 C2088 0.930 . S
H2079 C2091 0.929 . S
H2080 C2094 0.930 . S
H2081 C2096 0.960 . S
H2082 C2096 0.960 . S
H2083 C2096 0.960 . S
C2084 H2076 0.929 . S
C2084 C2085 1.377 . S
C2084 C2086 1.384 . S
C2085 C2084 1.377 . S
C2085 C2091 1.390 . S
C2086 H2077 0.930 . S
C2086 C2084 1.384 . S
C2086 C2087 1.372 . S
C2087 C2086 1.372 . S
C2087 C2088 1.400 . S
C2087 C2092 1.490 . S
C2088 H2078 0.930 . S
C2088 C2087 1.400 . S
C2088 C2091 1.386 . S
H2089 C2105 0.930 . S
H2090 C2106 0.931 . S
C2091 H2079 0.929 . S
C2091 C2085 1.390 . S
C2091 C2088 1.386 . S
C2092 C2087 1.490 . S
C2092 C2094 1.395 . S
C2092 C2095 1.403 . S
H2093 C2099 0.930 . S
C2094 H2080 0.930 . S
C2094 C2092 1.395 . S
C2094 C2097 1.403 . S
C2095 C2092 1.403 . S
C2095 C2096 1.524 . S
C2095 C2099 1.400 . S
C2096 H2081 0.960 . S
C2096 H2082 0.960 . S
C2096 H2083 0.960 . S
C2096 C2095 1.524 . S
C2097 C2094 1.403 . S
C2097 C2098 1.392 . S
C2097 C2101 1.495 . S
C2098 C2097 1.392 . S
C2098 C2099 1.385 . S
C2098 C2100 1.478 . S
C2099 H2093 0.930 . S
C2099 C2095 1.400 . S
C2099 C2098 1.385 . S
C2100 C2098 1.478 . S
C2100 C2102 1.381 . S
C2100 C2106 1.383 . S
C2101 C2097 1.495 . S
C2101 H2107 0.959 . S
C2101 H2108 0.961 . S
C2101 H2109 0.960 . S
C2102 C2100 1.381 . S
C2102 C2103 1.394 . S
C2102 H2110 0.930 . S
C2103 C2102 1.394 . S
C2103 C2104 1.383 . S
C2103 H2111 0.929 . S
C2104 C2103 1.383 . S
C2104 C2105 1.377 . S
C2105 H2089 0.930 . S
C2105 C2104 1.377 . S
C2105 C2106 1.379 . S
C2106 H2090 0.931 . S
C2106 C2100 1.383 . S
C2106 C2105 1.379 . S
H2107 C2101 0.959 . S
H2108 C2101 0.961 . S
H2109 C2101 0.960 . S
H2110 C2102 0.930 . S
H2111 C2103 0.929 . S
H2112 C2120 0.929 . S
H2113 C2122 0.930 . S
H2114 C2124 0.930 . S
H2115 C2127 0.929 . S
H2116 C2130 0.930 . S
H2117 C2132 0.960 . S
H2118 C2132 0.960 . S
H2119 C2132 0.960 . S
C2120 H2112 0.929 . S
C2120 C2121 1.377 . S
C2120 C2122 1.384 . S
C2121 C2120 1.377 . S
C2121 C2127 1.390 . S
C2122 H2113 0.930 . S
C2122 C2120 1.384 . S
C2122 C2123 1.372 . S
C2123 C2122 1.372 . S
C2123 C2124 1.400 . S
C2123 C2128 1.490 . S
C2124 H2114 0.930 . S
C2124 C2123 1.400 . S
C2124 C2127 1.386 . S
H2125 C2141 0.930 . S
H2126 C2142 0.931 . S
C2127 H2115 0.929 . S
C2127 C2121 1.390 . S
C2127 C2124 1.386 . S
C2128 C2123 1.490 . S
C2128 C2130 1.395 . S
C2128 C2131 1.403 . S
H2129 C2135 0.930 . S
C2130 H2116 0.930 . S
C2130 C2128 1.395 . S
C2130 C2133 1.403 . S
C2131 C2128 1.403 . S
C2131 C2132 1.524 . S
C2131 C2135 1.400 . S
C2132 H2117 0.960 . S
C2132 H2118 0.960 . S
C2132 H2119 0.960 . S
C2132 C2131 1.524 . S
C2133 C2130 1.403 . S
C2133 C2134 1.392 . S
C2133 C2137 1.495 . S
C2134 C2133 1.392 . S
C2134 C2135 1.385 . S
C2134 C2136 1.478 . S
C2135 H2129 0.930 . S
C2135 C2131 1.400 . S
C2135 C2134 1.385 . S
C2136 C2134 1.478 . S
C2136 C2138 1.381 . S
C2136 C2142 1.383 . S
C2137 C2133 1.495 . S
C2137 H2143 0.959 . S
C2137 H2144 0.961 . S
C2137 H2145 0.960 . S
C2138 C2136 1.381 . S
C2138 C2139 1.394 . S
C2138 H2146 0.930 . S
C2139 C2138 1.394 . S
C2139 C2140 1.383 . S
C2139 H2147 0.929 . S
C2140 C2139 1.383 . S
C2140 C2141 1.377 . S
C2141 H2125 0.930 . S
C2141 C2140 1.377 . S
C2141 C2142 1.379 . S
C2142 H2126 0.931 . S
C2142 C2136 1.383 . S
C2142 C2141 1.379 . S
H2143 C2137 0.959 . S
H2144 C2137 0.961 . S
H2145 C2137 0.960 . S
H2146 C2138 0.930 . S
H2147 C2139 0.929 . S
H2148 C2156 0.929 . S
H2149 C2158 0.930 . S
H2150 C2160 0.930 . S
H2151 C2163 0.929 . S
H2152 C2166 0.930 . S
H2153 C2168 0.960 . S
H2154 C2168 0.960 . S
H2155 C2168 0.960 . S
C2156 H2148 0.929 . S
C2156 C2157 1.377 . S
C2156 C2158 1.384 . S
C2157 C2156 1.377 . S
C2157 C2163 1.390 . S
C2158 H2149 0.930 . S
C2158 C2156 1.384 . S
C2158 C2159 1.372 . S
C2159 C2158 1.372 . S
C2159 C2160 1.400 . S
C2159 C2164 1.490 . S
C2160 H2150 0.930 . S
C2160 C2159 1.400 . S
C2160 C2163 1.386 . S
H2161 C2177 0.930 . S
H2162 C2178 0.931 . S
C2163 H2151 0.929 . S
C2163 C2157 1.390 . S
C2163 C2160 1.386 . S
C2164 C2159 1.490 . S
C2164 C2166 1.395 . S
C2164 C2167 1.403 . S
H2165 C2171 0.930 . S
C2166 H2152 0.930 . S
C2166 C2164 1.395 . S
C2166 C2169 1.403 . S
C2167 C2164 1.403 . S
C2167 C2168 1.524 . S
C2167 C2171 1.400 . S
C2168 H2153 0.960 . S
C2168 H2154 0.960 . S
C2168 H2155 0.960 . S
C2168 C2167 1.524 . S
C2169 C2166 1.403 . S
C2169 C2170 1.392 . S
C2169 C2173 1.495 . S
C2170 C2169 1.392 . S
C2170 C2171 1.385 . S
C2170 C2172 1.478 . S
C2171 H2165 0.930 . S
C2171 C2167 1.400 . S
C2171 C2170 1.385 . S
C2172 C2170 1.478 . S
C2172 C2174 1.381 . S
C2172 C2178 1.383 . S
C2173 C2169 1.495 . S
C2173 H2179 0.959 . S
C2173 H2180 0.961 . S
C2173 H2181 0.960 . S
C2174 C2172 1.381 . S
C2174 C2175 1.394 . S
C2174 H2182 0.930 . S
C2175 C2174 1.394 . S
C2175 C2176 1.383 . S
C2175 H2183 0.929 . S
C2176 C2175 1.383 . S
C2176 C2177 1.377 . S
C2177 H2161 0.930 . S
C2177 C2176 1.377 . S
C2177 C2178 1.379 . S
C2178 H2162 0.931 . S
C2178 C2172 1.383 . S
C2178 C2177 1.379 . S
H2179 C2173 0.959 . S
H2180 C2173 0.961 . S
H2181 C2173 0.960 . S
H2182 C2174 0.930 . S
H2183 C2175 0.929 . S
H2184 C2192 0.929 . S
H2185 C2194 0.930 . S
H2186 C2196 0.930 . S
H2187 C2199 0.929 . S
H2188 C2202 0.930 . S
H2189 C2204 0.960 . S
H2190 C2204 0.960 . S
H2191 C2204 0.960 . S
C2192 H2184 0.929 . S
C2192 C2193 1.377 . S
C2192 C2194 1.384 . S
C2193 C2192 1.377 . S
C2193 C2199 1.390 . S
C2194 H2185 0.930 . S
C2194 C2192 1.384 . S
C2194 C2195 1.372 . S
C2195 C2194 1.372 . S
C2195 C2196 1.400 . S
C2195 C2200 1.490 . S
C2196 H2186 0.930 . S
C2196 C2195 1.400 . S
C2196 C2199 1.386 . S
H2197 C2213 0.930 . S
H2198 C2214 0.931 . S
C2199 H2187 0.929 . S
C2199 C2193 1.390 . S
C2199 C2196 1.386 . S
C2200 C2195 1.490 . S
C2200 C2202 1.395 . S
C2200 C2203 1.403 . S
H2201 C2207 0.930 . S
C2202 H2188 0.930 . S
C2202 C2200 1.395 . S
C2202 C2205 1.403 . S
C2203 C2200 1.403 . S
C2203 C2204 1.524 . S
C2203 C2207 1.400 . S
C2204 H2189 0.960 . S
C2204 H2190 0.960 . S
C2204 H2191 0.960 . S
C2204 C2203 1.524 . S
C2205 C2202 1.403 . S
C2205 C2206 1.392 . S
C2205 C2209 1.495 . S
C2206 C2205 1.392 . S
C2206 C2207 1.385 . S
C2206 C2208 1.478 . S
C2207 H2201 0.930 . S
C2207 C2203 1.400 . S
C2207 C2206 1.385 . S
C2208 C2206 1.478 . S
C2208 C2210 1.381 . S
C2208 C2214 1.383 . S
C2209 C2205 1.495 . S
C2209 H2215 0.959 . S
C2209 H2216 0.961 . S
C2209 H2217 0.960 . S
C2210 C2208 1.381 . S
C2210 C2211 1.394 . S
C2210 H2218 0.930 . S
C2211 C2210 1.394 . S
C2211 C2212 1.383 . S
C2211 H2219 0.929 . S
C2212 C2211 1.383 . S
C2212 C2213 1.377 . S
C2213 H2197 0.930 . S
C2213 C2212 1.377 . S
C2213 C2214 1.379 . S
C2214 H2198 0.931 . S
C2214 C2208 1.383 . S
C2214 C2213 1.379 . S
H2215 C2209 0.959 . S
H2216 C2209 0.961 . S
H2217 C2209 0.960 . S
H2218 C2210 0.930 . S
H2219 C2211 0.929 . S
H2220 C2228 0.929 . S
H2221 C2230 0.930 . S
H2222 C2232 0.930 . S
H2223 C2235 0.929 . S
H2224 C2238 0.930 . S
H2225 C2240 0.960 . S
H2226 C2240 0.960 . S
H2227 C2240 0.960 . S
C2228 H2220 0.929 . S
C2228 C2229 1.377 . S
C2228 C2230 1.384 . S
C2229 C2228 1.377 . S
C2229 C2235 1.390 . S
C2230 H2221 0.930 . S
C2230 C2228 1.384 . S
C2230 C2231 1.372 . S
C2231 C2230 1.372 . S
C2231 C2232 1.400 . S
C2231 C2236 1.490 . S
C2232 H2222 0.930 . S
C2232 C2231 1.400 . S
C2232 C2235 1.386 . S
H2233 C2249 0.930 . S
H2234 C2250 0.931 . S
C2235 H2223 0.929 . S
C2235 C2229 1.390 . S
C2235 C2232 1.386 . S
C2236 C2231 1.490 . S
C2236 C2238 1.395 . S
C2236 C2239 1.403 . S
H2237 C2243 0.930 . S
C2238 H2224 0.930 . S
C2238 C2236 1.395 . S
C2238 C2241 1.403 . S
C2239 C2236 1.403 . S
C2239 C2240 1.524 . S
C2239 C2243 1.400 . S
C2240 H2225 0.960 . S
C2240 H2226 0.960 . S
C2240 H2227 0.960 . S
C2240 C2239 1.524 . S
C2241 C2238 1.403 . S
C2241 C2242 1.392 . S
C2241 C2245 1.495 . S
C2242 C2241 1.392 . S
C2242 C2243 1.385 . S
C2242 C2244 1.478 . S
C2243 H2237 0.930 . S
C2243 C2239 1.400 . S
C2243 C2242 1.385 . S
C2244 C2242 1.478 . S
C2244 C2246 1.381 . S
C2244 C2250 1.383 . S
C2245 C2241 1.495 . S
C2245 H2251 0.959 . S
C2245 H2252 0.961 . S
C2245 H2253 0.960 . S
C2246 C2244 1.381 . S
C2246 C2247 1.394 . S
C2246 H2254 0.930 . S
C2247 C2246 1.394 . S
C2247 C2248 1.383 . S
C2247 H2255 0.929 . S
C2248 C2247 1.383 . S
C2248 C2249 1.377 . S
C2249 H2233 0.930 . S
C2249 C2248 1.377 . S
C2249 C2250 1.379 . S
C2250 H2234 0.931 . S
C2250 C2244 1.383 . S
C2250 C2249 1.379 . S
H2251 C2245 0.959 . S
H2252 C2245 0.961 . S
H2253 C2245 0.960 . S
H2254 C2246 0.930 . S
H2255 C2247 0.929 . S
H2256 C2264 0.929 . S
H2257 C2266 0.930 . S
H2258 C2268 0.930 . S
H2259 C2271 0.929 . S
H2260 C2274 0.930 . S
H2261 C2276 0.960 . S
H2262 C2276 0.960 . S
H2263 C2276 0.960 . S
C2264 H2256 0.929 . S
C2264 C2265 1.377 . S
C2264 C2266 1.384 . S
C2265 C2264 1.377 . S
C2265 C2271 1.390 . S
C2266 H2257 0.930 . S
C2266 C2264 1.384 . S
C2266 C2267 1.372 . S
C2267 C2266 1.372 . S
C2267 C2268 1.400 . S
C2267 C2272 1.490 . S
C2268 H2258 0.930 . S
C2268 C2267 1.400 . S
C2268 C2271 1.386 . S
H2269 C2285 0.930 . S
H2270 C2286 0.931 . S
C2271 H2259 0.929 . S
C2271 C2265 1.390 . S
C2271 C2268 1.386 . S
C2272 C2267 1.490 . S
C2272 C2274 1.395 . S
C2272 C2275 1.403 . S
H2273 C2279 0.930 . S
C2274 H2260 0.930 . S
C2274 C2272 1.395 . S
C2274 C2277 1.403 . S
C2275 C2272 1.403 . S
C2275 C2276 1.524 . S
C2275 C2279 1.400 . S
C2276 H2261 0.960 . S
C2276 H2262 0.960 . S
C2276 H2263 0.960 . S
C2276 C2275 1.524 . S
C2277 C2274 1.403 . S
C2277 C2278 1.392 . S
C2277 C2281 1.495 . S
C2278 C2277 1.392 . S
C2278 C2279 1.385 . S
C2278 C2280 1.478 1_554 S
C2279 H2273 0.930 . S
C2279 C2275 1.400 . S
C2279 C2278 1.385 . S
C2280 C2278 1.478 1_556 S
C2280 C2282 1.381 . S
C2280 C2286 1.383 . S
C2281 C2277 1.495 . S
C2281 H2287 0.959 . S
C2281 H2288 0.961 . S
C2281 H2289 0.960 . S
C2282 C2280 1.381 . S
C2282 C2283 1.394 . S
C2282 H2290 0.930 . S
C2283 C2282 1.394 . S
C2283 C2284 1.383 . S
C2283 H2291 0.929 . S
C2284 C2283 1.383 . S
C2284 C2285 1.377 . S
C2285 H2269 0.930 . S
C2285 C2284 1.377 . S
C2285 C2286 1.379 . S
C2286 H2270 0.931 . S
C2286 C2280 1.383 . S
C2286 C2285 1.379 . S
H2287 C2281 0.959 . S
H2288 C2281 0.961 . S
H2289 C2281 0.960 . S
H2290 C2282 0.930 . S
H2291 C2283 0.929 . S
H2292 C2300 0.929 . S
H2293 C2302 0.930 . S
H2294 C2304 0.930 . S
H2295 C2307 0.929 . S
H2296 C2310 0.930 . S
H2297 C2312 0.960 . S
H2298 C2312 0.960 . S
H2299 C2312 0.960 . S
C2300 H2292 0.929 . S
C2300 C2301 1.377 . S
C2300 C2302 1.384 . S
C2301 C2300 1.377 . S
C2301 C2307 1.390 . S
C2302 H2293 0.930 . S
C2302 C2300 1.384 . S
C2302 C2303 1.372 . S
C2303 C2302 1.372 . S
C2303 C2304 1.400 . S
C2303 C2308 1.490 . S
C2304 H2294 0.930 . S
C2304 C2303 1.400 . S
C2304 C2307 1.386 . S
H2305 C2321 0.930 . S
H2306 C2322 0.931 . S
C2307 H2295 0.929 . S
C2307 C2301 1.390 . S
C2307 C2304 1.386 . S
C2308 C2303 1.490 . S
C2308 C2310 1.395 . S
C2308 C2311 1.403 . S
H2309 C2315 0.930 . S
C2310 H2296 0.930 . S
C2310 C2308 1.395 . S
C2310 C2313 1.403 . S
C2311 C2308 1.403 . S
C2311 C2312 1.524 . S
C2311 C2315 1.400 . S
C2312 H2297 0.960 . S
C2312 H2298 0.960 . S
C2312 H2299 0.960 . S
C2312 C2311 1.524 . S
C2313 C2310 1.403 . S
C2313 C2314 1.392 . S
C2313 C2317 1.495 . S
C2314 C2313 1.392 . S
C2314 C2315 1.385 . S
C2314 C2316 1.478 1_554 S
C2315 H2309 0.930 . S
C2315 C2311 1.400 . S
C2315 C2314 1.385 . S
C2316 C2314 1.478 1_556 S
C2316 C2318 1.381 . S
C2316 C2322 1.383 . S
C2317 C2313 1.495 . S
C2317 H2323 0.959 . S
C2317 H2324 0.961 . S
C2317 H2325 0.950 1_554 S
C2318 C2316 1.381 . S
C2318 C2319 1.394 . S
C2318 H2326 0.930 . S
C2319 C2318 1.394 . S
C2319 C2320 1.383 . S
C2319 H2327 0.929 . S
C2320 C2319 1.383 . S
C2320 C2321 1.377 . S
C2321 H2305 0.930 . S
C2321 C2320 1.377 . S
C2321 C2322 1.379 . S
C2322 H2306 0.931 . S
C2322 C2316 1.383 . S
C2322 C2321 1.379 . S
H2323 C2317 0.959 . S
H2324 C2317 0.961 . S
H2325 C2317 0.950 1_556 S
H2326 C2318 0.930 . S
H2327 C2319 0.929 . S
H2328 C2336 0.929 . S
H2329 C2338 0.930 . S
H2330 C2340 0.930 . S
H2331 C2343 0.929 . S
H2332 C2346 0.930 . S
H2333 C2348 0.960 . S
H2334 C2348 0.960 1_556 S
H2335 C2348 0.960 1_556 S
C2336 H2328 0.929 . S
C2336 C2337 1.377 . S
C2336 C2338 1.384 . S
C2337 C2336 1.377 . S
C2337 C2343 1.390 . S
C2338 H2329 0.930 . S
C2338 C2336 1.384 . S
C2338 C2339 1.372 . S
C2339 C2338 1.372 . S
C2339 C2340 1.400 . S
C2339 C2344 1.490 1_556 S
C2340 H2330 0.930 . S
C2340 C2339 1.400 . S
C2340 C2343 1.386 . S
H2341 C2357 0.930 . S
H2342 C2358 0.931 . S
C2343 H2331 0.929 . S
C2343 C2337 1.390 . S
C2343 C2340 1.386 . S
C2344 C2339 1.490 1_554 S
C2344 C2346 1.395 . S
C2344 C2347 1.403 . S
H2345 C2351 0.930 . S
C2346 H2332 0.930 . S
C2346 C2344 1.395 . S
C2346 C2349 1.403 . S
C2347 C2344 1.403 . S
C2347 C2348 1.524 . S
C2347 C2351 1.400 . S
C2348 H2333 0.960 . S
C2348 H2334 0.960 1_554 S
C2348 H2335 0.960 1_554 S
C2348 C2347 1.524 . S
C2349 C2346 1.403 . S
C2349 C2350 1.392 . S
C2349 C2353 1.495 . S
C2350 C2349 1.392 . S
C2350 C2351 1.385 . S
C2350 C2352 1.478 . S
C2351 H2345 0.930 . S
C2351 C2347 1.400 . S
C2351 C2350 1.385 . S
C2352 C2350 1.478 . S
C2352 C2354 1.381 . S
C2352 C2358 1.383 . S
C2353 C2349 1.495 . S
C2353 H2359 0.959 . S
C2353 H2360 0.961 . S
C2353 H2361 0.960 . S
C2354 C2352 1.381 . S
C2354 C2355 1.394 . S
C2354 H2362 0.930 . S
C2355 C2354 1.394 . S
C2355 C2356 1.383 . S
C2355 H2363 0.929 . S
C2356 C2355 1.383 . S
C2356 C2357 1.377 . S
C2357 H2341 0.930 . S
C2357 C2356 1.377 . S
C2357 C2358 1.379 . S
C2358 H2342 0.931 . S
C2358 C2352 1.383 . S
C2358 C2357 1.379 . S
H2359 C2353 0.959 . S
H2360 C2353 0.961 . S
H2361 C2353 0.960 . S
H2362 C2354 0.930 . S
H2363 C2355 0.929 . S
H2364 C2372 0.929 . S
H2365 C2374 0.930 . S
H2366 C2376 0.930 . S
H2367 C2379 0.929 . S
H2368 C2382 0.930 . S
H2369 C2384 0.960 . S
H2370 C2384 0.960 . S
H2371 C2384 0.960 . S
C2372 H2364 0.929 . S
C2372 C2373 1.377 . S
C2372 C2374 1.384 . S
C2373 C2372 1.377 . S
C2373 C2379 1.390 . S
C2374 H2365 0.930 . S
C2374 C2372 1.384 . S
C2374 C2375 1.372 . S
C2375 C2374 1.372 . S
C2375 C2376 1.400 . S
C2375 C2380 1.490 . S
C2376 H2366 0.930 . S
C2376 C2375 1.400 . S
C2376 C2379 1.386 . S
H2377 C2393 0.930 . S
H2378 C2394 0.931 . S
C2379 H2367 0.929 . S
C2379 C2373 1.390 . S
C2379 C2376 1.386 . S
C2380 C2375 1.490 . S
C2380 C2382 1.395 . S
C2380 C2383 1.403 . S
H2381 C2387 0.930 . S
C2382 H2368 0.930 . S
C2382 C2380 1.395 . S
C2382 C2385 1.403 . S
C2383 C2380 1.403 . S
C2383 C2384 1.524 . S
C2383 C2387 1.400 . S
C2384 H2369 0.960 . S
C2384 H2370 0.960 . S
C2384 H2371 0.960 . S
C2384 C2383 1.524 . S
C2385 C2382 1.403 . S
C2385 C2386 1.392 . S
C2385 C2389 1.495 . S
C2386 C2385 1.392 . S
C2386 C2387 1.385 . S
C2386 C2388 1.478 1_554 S
C2387 H2381 0.930 . S
C2387 C2383 1.400 . S
C2387 C2386 1.385 . S
C2388 C2386 1.478 1_556 S
C2388 C2390 1.381 . S
C2388 C2394 1.383 . S
C2389 C2385 1.495 . S
C2389 H2395 0.959 . S
C2389 H2396 0.961 . S
C2389 H2397 0.960 . S
C2390 C2388 1.381 . S
C2390 C2391 1.394 . S
C2390 H2398 0.930 . S
C2391 C2390 1.394 . S
C2391 C2392 1.383 . S
C2391 H2399 0.929 . S
C2392 C2391 1.383 . S
C2392 C2393 1.377 . S
C2393 H2377 0.930 . S
C2393 C2392 1.377 . S
C2393 C2394 1.379 . S
C2394 H2378 0.931 . S
C2394 C2388 1.383 . S
C2394 C2393 1.379 . S
H2395 C2389 0.959 . S
H2396 C2389 0.961 . S
H2397 C2389 0.960 . S
H2398 C2390 0.930 . S
H2399 C2391 0.929 . S
H2400 C2408 0.929 . S
H2401 C2410 0.930 . S
H2402 C2412 0.930 . S
H2403 C2415 0.929 . S
H2404 C2418 0.930 . S
H2405 C2420 0.960 . S
H2406 C2420 0.960 . S
H2407 C2420 0.960 . S
C2408 H2400 0.929 . S
C2408 C2409 1.377 . S
C2408 C2410 1.384 . S
C2409 C2408 1.377 . S
C2409 C2415 1.390 . S
C2410 H2401 0.930 . S
C2410 C2408 1.384 . S
C2410 C2411 1.372 . S
C2411 C2410 1.372 . S
C2411 C2412 1.400 . S
C2411 C2416 1.490 . S
C2412 H2402 0.930 . S
C2412 C2411 1.400 . S
C2412 C2415 1.386 . S
H2413 C2429 0.930 . S
H2414 C2430 0.931 . S
C2415 H2403 0.929 . S
C2415 C2409 1.390 . S
C2415 C2412 1.386 . S
C2416 C2411 1.490 . S
C2416 C2418 1.395 . S
C2416 C2419 1.403 . S
H2417 C2423 0.930 . S
C2418 H2404 0.930 . S
C2418 C2416 1.395 . S
C2418 C2421 1.403 . S
C2419 C2416 1.403 . S
C2419 C2420 1.524 . S
C2419 C2423 1.400 . S
C2420 H2405 0.960 . S
C2420 H2406 0.960 . S
C2420 H2407 0.960 . S
C2420 C2419 1.524 . S
C2421 C2418 1.403 . S
C2421 C2422 1.392 . S
C2421 C2425 1.495 . S
C2422 C2421 1.392 . S
C2422 C2423 1.385 . S
C2422 C2424 1.478 . S
C2423 H2417 0.930 . S
C2423 C2419 1.400 . S
C2423 C2422 1.385 . S
C2424 C2422 1.478 . S
C2424 C2426 1.381 . S
C2424 C2430 1.383 . S
C2425 C2421 1.495 . S
C2425 H2431 0.959 . S
C2425 H2432 0.961 . S
C2425 H2433 0.960 . S
C2426 C2424 1.381 . S
C2426 C2427 1.394 . S
C2426 H2434 0.930 . S
C2427 C2426 1.394 . S
C2427 C2428 1.383 . S
C2427 H2435 0.929 . S
C2428 C2427 1.383 . S
C2428 C2429 1.377 . S
C2429 H2413 0.930 . S
C2429 C2428 1.377 . S
C2429 C2430 1.379 . S
C2430 H2414 0.931 . S
C2430 C2424 1.383 . S
C2430 C2429 1.379 . S
H2431 C2425 0.959 . S
H2432 C2425 0.961 . S
H2433 C2425 0.960 . S
H2434 C2426 0.930 . S
H2435 C2427 0.929 . S
H2436 C2444 0.929 . S
H2437 C2446 0.930 . S
H2438 C2448 0.930 . S
H2439 C2451 0.929 . S
H2440 C2454 0.930 . S
H2441 C2456 0.960 . S
H2442 C2456 0.960 . S
H2443 C2456 0.960 . S
C2444 H2436 0.929 . S
C2444 C2445 1.377 . S
C2444 C2446 1.384 . S
C2445 C2444 1.377 . S
C2445 C2451 1.390 . S
C2446 H2437 0.930 . S
C2446 C2444 1.384 . S
C2446 C2447 1.372 . S
C2447 C2446 1.372 . S
C2447 C2448 1.400 . S
C2447 C2452 1.490 . S
C2448 H2438 0.930 . S
C2448 C2447 1.400 . S
C2448 C2451 1.386 . S
H2449 C2465 0.930 . S
H2450 C2466 0.931 . S
C2451 H2439 0.929 . S
C2451 C2445 1.390 . S
C2451 C2448 1.386 . S
C2452 C2447 1.490 . S
C2452 C2454 1.395 . S
C2452 C2455 1.403 . S
H2453 C2459 0.930 . S
C2454 H2440 0.930 . S
C2454 C2452 1.395 . S
C2454 C2457 1.403 . S
C2455 C2452 1.403 . S
C2455 C2456 1.524 . S
C2455 C2459 1.400 . S
C2456 H2441 0.960 . S
C2456 H2442 0.960 . S
C2456 H2443 0.960 . S
C2456 C2455 1.524 . S
C2457 C2454 1.403 . S
C2457 C2458 1.392 . S
C2457 C2461 1.495 . S
C2458 C2457 1.392 . S
C2458 C2459 1.385 . S
C2458 C2460 1.478 . S
C2459 H2453 0.930 . S
C2459 C2455 1.400 . S
C2459 C2458 1.385 . S
C2460 C2458 1.478 . S
C2460 C2462 1.381 . S
C2460 C2466 1.383 . S
C2461 C2457 1.495 . S
C2461 H2467 0.959 . S
C2461 H2468 0.961 . S
C2461 H2469 0.960 . S
C2462 C2460 1.381 . S
C2462 C2463 1.394 . S
C2462 H2470 0.930 . S
C2463 C2462 1.394 . S
C2463 C2464 1.383 . S
C2463 H2471 0.929 . S
C2464 C2463 1.383 . S
C2464 C2465 1.377 . S
C2465 H2449 0.930 . S
C2465 C2464 1.377 . S
C2465 C2466 1.379 . S
C2466 H2450 0.931 . S
C2466 C2460 1.383 . S
C2466 C2465 1.379 . S
H2467 C2461 0.959 . S
H2468 C2461 0.961 . S
H2469 C2461 0.960 . S
H2470 C2462 0.930 . S
H2471 C2463 0.929 . S
H2472 C2480 0.929 . S
H2473 C2482 0.930 . S
H2474 C2484 0.930 . S
H2475 C2487 0.929 . S
H2476 C2490 0.930 . S
H2477 C2492 0.960 . S
H2478 C2492 0.960 . S
H2479 C2492 0.960 . S
C2480 H2472 0.929 . S
C2480 C2481 1.377 . S
C2480 C2482 1.384 . S
C2481 C2480 1.377 . S
C2481 C2487 1.390 . S
C2482 H2473 0.930 . S
C2482 C2480 1.384 . S
C2482 C2483 1.372 . S
C2483 C2482 1.372 . S
C2483 C2484 1.400 . S
C2483 C2488 1.490 . S
C2484 H2474 0.930 . S
C2484 C2483 1.400 . S
C2484 C2487 1.386 . S
H2485 C2501 0.930 . S
H2486 C2502 0.931 . S
C2487 H2475 0.929 . S
C2487 C2481 1.390 . S
C2487 C2484 1.386 . S
C2488 C2483 1.490 . S
C2488 C2490 1.395 . S
C2488 C2491 1.403 . S
H2489 C2495 0.930 . S
C2490 H2476 0.930 . S
C2490 C2488 1.395 . S
C2490 C2493 1.403 . S
C2491 C2488 1.403 . S
C2491 C2492 1.524 . S
C2491 C2495 1.400 . S
C2492 H2477 0.960 . S
C2492 H2478 0.960 . S
C2492 H2479 0.960 . S
C2492 C2491 1.524 . S
C2493 C2490 1.403 . S
C2493 C2494 1.392 . S
C2493 C2497 1.495 . S
C2494 C2493 1.392 . S
C2494 C2495 1.385 . S
C2494 C2496 1.478 . S
C2495 H2489 0.930 . S
C2495 C2491 1.400 . S
C2495 C2494 1.385 . S
C2496 C2494 1.478 . S
C2496 C2498 1.381 . S
C2496 C2502 1.383 . S
C2497 C2493 1.495 . S
C2497 H2503 0.959 . S
C2497 H2504 0.961 . S
C2497 H2505 0.960 . S
C2498 C2496 1.381 . S
C2498 C2499 1.394 . S
C2498 H2506 0.930 . S
C2499 C2498 1.394 . S
C2499 C2500 1.383 . S
C2499 H2507 0.929 . S
C2500 C2499 1.383 . S
C2500 C2501 1.377 . S
C2501 H2485 0.930 . S
C2501 C2500 1.377 . S
C2501 C2502 1.379 . S
C2502 H2486 0.931 . S
C2502 C2496 1.383 . S
C2502 C2501 1.379 . S
H2503 C2497 0.959 . S
H2504 C2497 0.961 . S
H2505 C2497 0.960 . S
H2506 C2498 0.930 . S
H2507 C2499 0.929 . S
H2508 C2516 0.929 . S
H2509 C2518 0.930 . S
H2510 C2520 0.930 . S
H2511 C2523 0.929 . S
H2512 C2526 0.930 . S
H2513 C2528 0.960 . S
H2514 C2528 0.960 . S
H2515 C2528 0.960 . S
C2516 H2508 0.929 . S
C2516 C2517 1.377 . S
C2516 C2518 1.384 . S
C2517 C2516 1.377 . S
C2517 C2523 1.390 . S
C2518 H2509 0.930 . S
C2518 C2516 1.384 . S
C2518 C2519 1.372 . S
C2519 C2518 1.372 . S
C2519 C2520 1.400 . S
C2519 C2524 1.490 . S
C2520 H2510 0.930 . S
C2520 C2519 1.400 . S
C2520 C2523 1.386 . S
H2521 C2537 0.930 . S
H2522 C2538 0.931 . S
C2523 H2511 0.929 . S
C2523 C2517 1.390 . S
C2523 C2520 1.386 . S
C2524 C2519 1.490 . S
C2524 C2526 1.395 . S
C2524 C2527 1.403 . S
H2525 C2531 0.930 . S
C2526 H2512 0.930 . S
C2526 C2524 1.395 . S
C2526 C2529 1.403 . S
C2527 C2524 1.403 . S
C2527 C2528 1.524 . S
C2527 C2531 1.400 . S
C2528 H2513 0.960 . S
C2528 H2514 0.960 . S
C2528 H2515 0.960 . S
C2528 C2527 1.524 . S
C2529 C2526 1.403 . S
C2529 C2530 1.392 . S
C2529 C2533 1.495 . S
C2530 C2529 1.392 . S
C2530 C2531 1.385 . S
C2530 C2532 1.478 . S
C2531 H2525 0.930 . S
C2531 C2527 1.400 . S
C2531 C2530 1.385 . S
C2532 C2530 1.478 . S
C2532 C2534 1.381 . S
C2532 C2538 1.383 . S
C2533 C2529 1.495 . S
C2533 H2539 0.959 . S
C2533 H2540 0.961 . S
C2533 H2541 0.960 . S
C2534 C2532 1.381 . S
C2534 C2535 1.394 . S
C2534 H2542 0.930 . S
C2535 C2534 1.394 . S
C2535 C2536 1.383 . S
C2535 H2543 0.929 . S
C2536 C2535 1.383 . S
C2536 C2537 1.377 . S
C2537 H2521 0.930 . S
C2537 C2536 1.377 . S
C2537 C2538 1.379 . S
C2538 H2522 0.931 . S
C2538 C2532 1.383 . S
C2538 C2537 1.379 . S
H2539 C2533 0.959 . S
H2540 C2533 0.961 . S
H2541 C2533 0.960 . S
H2542 C2534 0.930 . S
H2543 C2535 0.929 . S
H2544 C2552 0.929 . S
H2545 C2554 0.930 . S
H2546 C2556 0.930 . S
H2547 C2559 0.929 . S
H2548 C2562 0.930 . S
H2549 C2564 0.960 . S
H2550 C2564 0.960 1_655 S
H2551 C2564 0.960 1_655 S
C2552 H2544 0.929 . S
C2552 C2553 1.377 . S
C2552 C2554 1.384 . S
C2553 C2552 1.377 . S
C2553 C2559 1.390 . S
C2554 H2545 0.930 . S
C2554 C2552 1.384 . S
C2554 C2555 1.372 . S
C2555 C2554 1.372 . S
C2555 C2556 1.400 . S
C2555 C2560 1.490 1_655 S
C2556 H2546 0.930 . S
C2556 C2555 1.400 . S
C2556 C2559 1.386 . S
H2557 C2573 0.930 . S
H2558 C2574 0.931 . S
C2559 H2547 0.929 . S
C2559 C2553 1.390 . S
C2559 C2556 1.386 . S
C2560 C2555 1.490 1_455 S
C2560 C2562 1.395 . S
C2560 C2563 1.403 . S
H2561 C2567 0.930 . S
C2562 H2548 0.930 . S
C2562 C2560 1.395 . S
C2562 C2565 1.403 . S
C2563 C2560 1.403 . S
C2563 C2564 1.524 . S
C2563 C2567 1.400 . S
C2564 H2549 0.960 . S
C2564 H2550 0.960 1_455 S
C2564 H2551 0.960 1_455 S
C2564 C2563 1.524 . S
C2565 C2562 1.403 . S
C2565 C2566 1.392 . S
C2565 C2569 1.495 . S
C2566 C2565 1.392 . S
C2566 C2567 1.385 . S
C2566 C2568 1.478 . S
C2567 H2561 0.930 . S
C2567 C2563 1.400 . S
C2567 C2566 1.385 . S
C2568 C2566 1.478 . S
C2568 C2570 1.381 . S
C2568 C2574 1.383 . S
C2569 C2565 1.495 . S
C2569 H2575 0.959 . S
C2569 H2576 0.961 . S
C2569 H2577 0.960 . S
C2570 C2568 1.381 . S
C2570 C2571 1.394 . S
C2570 H2578 0.930 . S
C2571 C2570 1.394 . S
C2571 C2572 1.383 . S
C2571 H2579 0.929 . S
C2572 C2571 1.383 . S
C2572 C2573 1.377 . S
C2573 H2557 0.930 . S
C2573 C2572 1.377 . S
C2573 C2574 1.379 . S
C2574 H2558 0.931 . S
C2574 C2568 1.383 . S
C2574 C2573 1.379 . S
H2575 C2569 0.959 . S
H2576 C2569 0.961 . S
H2577 C2569 0.960 . S
H2578 C2570 0.930 . S
H2579 C2571 0.929 . S
H2580 C2588 0.929 . S
H2581 C2590 0.930 . S
H2582 C2592 0.930 . S
H2583 C2595 0.929 . S
H2584 C2598 0.930 . S
H2585 C2600 0.960 . S
H2586 C2600 0.960 . S
H2587 C2600 0.960 1_565 S
C2588 H2580 0.929 . S
C2588 C2589 1.377 . S
C2588 C2590 1.384 . S
C2589 C2588 1.377 . S
C2589 C2595 1.390 . S
C2590 H2581 0.930 . S
C2590 C2588 1.384 . S
C2590 C2591 1.372 . S
C2591 C2590 1.372 . S
C2591 C2592 1.400 . S
C2591 C2596 1.490 1_565 S
C2592 H2582 0.930 . S
C2592 C2591 1.400 . S
C2592 C2595 1.386 . S
H2593 C2609 0.930 . S
H2594 C2610 0.931 . S
C2595 H2583 0.929 . S
C2595 C2589 1.390 . S
C2595 C2592 1.386 . S
C2596 C2591 1.490 1_545 S
C2596 C2598 1.395 . S
C2596 C2599 1.403 . S
H2597 C2603 0.930 . S
C2598 H2584 0.930 . S
C2598 C2596 1.395 . S
C2598 C2601 1.403 . S
C2599 C2596 1.403 . S
C2599 C2600 1.524 . S
C2599 C2603 1.400 . S
C2600 H2585 0.960 . S
C2600 H2586 0.960 . S
C2600 H2587 0.960 1_545 S
C2600 C2599 1.524 . S
C2601 C2598 1.403 . S
C2601 C2602 1.392 . S
C2601 C2605 1.495 . S
C2602 C2601 1.392 . S
C2602 C2603 1.385 . S
C2602 C2604 1.478 . S
C2603 H2597 0.930 . S
C2603 C2599 1.400 . S
C2603 C2602 1.385 . S
C2604 C2602 1.478 . S
C2604 C2606 1.381 . S
C2604 C2610 1.383 . S
C2605 C2601 1.495 . S
C2605 H2611 0.959 . S
C2605 H2612 0.961 . S
C2605 H2613 0.960 . S
C2606 C2604 1.381 . S
C2606 C2607 1.394 . S
C2606 H2614 0.930 . S
C2607 C2606 1.394 . S
C2607 C2608 1.383 . S
C2607 H2615 0.929 . S
C2608 C2607 1.383 . S
C2608 C2609 1.377 . S
C2609 H2593 0.930 . S
C2609 C2608 1.377 . S
C2609 C2610 1.379 . S
C2610 H2594 0.931 . S
C2610 C2604 1.383 . S
C2610 C2609 1.379 . S
H2611 C2605 0.959 . S
H2612 C2605 0.961 . S
H2613 C2605 0.960 . S
H2614 C2606 0.930 . S
H2615 C2607 0.929 . S
H2616 C2624 0.929 . S
H2617 C2626 0.930 . S
H2618 C2628 0.930 . S
H2619 C2631 0.929 . S
H2620 C2634 0.930 . S
H2621 C2636 0.960 . S
H2622 C2636 0.960 . S
H2623 C2636 0.960 . S
C2624 H2616 0.929 . S
C2624 C2625 1.377 . S
C2624 C2626 1.384 . S
C2625 C2624 1.377 . S
C2625 C2631 1.390 . S
C2626 H2617 0.930 . S
C2626 C2624 1.384 . S
C2626 C2627 1.372 . S
C2627 C2626 1.372 . S
C2627 C2628 1.400 . S
C2627 C2632 1.490 . S
C2628 H2618 0.930 . S
C2628 C2627 1.400 . S
C2628 C2631 1.386 . S
H2629 C2645 0.930 . S
H2630 C2646 0.931 . S
C2631 H2619 0.929 . S
C2631 C2625 1.390 . S
C2631 C2628 1.386 . S
C2632 C2627 1.490 . S
C2632 C2634 1.395 . S
C2632 C2635 1.403 . S
H2633 C2639 0.930 . S
C2634 H2620 0.930 . S
C2634 C2632 1.395 . S
C2634 C2637 1.403 . S
C2635 C2632 1.403 . S
C2635 C2636 1.524 . S
C2635 C2639 1.400 . S
C2636 H2621 0.960 . S
C2636 H2622 0.960 . S
C2636 H2623 0.960 . S
C2636 C2635 1.524 . S
C2637 C2634 1.403 . S
C2637 C2638 1.392 . S
C2637 C2641 1.495 . S
C2638 C2637 1.392 . S
C2638 C2639 1.385 . S
C2638 C2640 1.478 . S
C2639 H2633 0.930 . S
C2639 C2635 1.400 . S
C2639 C2638 1.385 . S
C2640 C2638 1.478 . S
C2640 C2642 1.381 . S
C2640 C2646 1.383 . S
C2641 C2637 1.495 . S
C2641 H2647 0.959 . S
C2641 H2648 0.961 . S
C2641 H2649 0.960 . S
C2642 C2640 1.381 . S
C2642 C2643 1.394 . S
C2642 H2650 0.930 . S
C2643 C2642 1.394 . S
C2643 C2644 1.383 . S
C2643 H2651 0.929 . S
C2644 C2643 1.383 . S
C2644 C2645 1.377 . S
C2645 H2629 0.930 . S
C2645 C2644 1.377 . S
C2645 C2646 1.379 . S
C2646 H2630 0.931 . S
C2646 C2640 1.383 . S
C2646 C2645 1.379 . S
H2647 C2641 0.959 . S
H2648 C2641 0.961 . S
H2649 C2641 0.960 . S
H2650 C2642 0.930 . S
H2651 C2643 0.929 . S
H2652 C2660 0.929 . S
H2653 C2662 0.930 . S
H2654 C2664 0.930 . S
H2655 C2667 0.929 . S
H2656 C2670 0.930 . S
H2657 C2672 0.960 . S
H2658 C2672 0.960 . S
H2659 C2672 0.960 . S
C2660 H2652 0.929 . S
C2660 C2661 1.377 . S
C2660 C2662 1.384 . S
C2661 C2660 1.377 . S
C2661 C2667 1.390 . S
C2662 H2653 0.930 . S
C2662 C2660 1.384 . S
C2662 C2663 1.372 . S
C2663 C2662 1.372 . S
C2663 C2664 1.400 . S
C2663 C2668 1.490 . S
C2664 H2654 0.930 . S
C2664 C2663 1.400 . S
C2664 C2667 1.386 . S
H2665 C2681 0.930 . S
H2666 C2682 0.931 . S
C2667 H2655 0.929 . S
C2667 C2661 1.390 . S
C2667 C2664 1.386 . S
C2668 C2663 1.490 . S
C2668 C2670 1.395 . S
C2668 C2671 1.403 . S
H2669 C2675 0.930 . S
C2670 H2656 0.930 . S
C2670 C2668 1.395 . S
C2670 C2673 1.403 . S
C2671 C2668 1.403 . S
C2671 C2672 1.524 . S
C2671 C2675 1.400 . S
C2672 H2657 0.960 . S
C2672 H2658 0.960 . S
C2672 H2659 0.960 . S
C2672 C2671 1.524 . S
C2673 C2670 1.403 . S
C2673 C2674 1.392 . S
C2673 C2677 1.495 . S
C2674 C2673 1.392 . S
C2674 C2675 1.385 . S
C2674 C2676 1.478 . S
C2675 H2669 0.930 . S
C2675 C2671 1.400 . S
C2675 C2674 1.385 . S
C2676 C2674 1.478 . S
C2676 C2678 1.381 . S
C2676 C2682 1.383 . S
C2677 C2673 1.495 . S
C2677 H2683 0.959 . S
C2677 H2684 0.961 . S
C2677 H2685 0.960 . S
C2678 C2676 1.381 . S
C2678 C2679 1.394 . S
C2678 H2686 0.930 . S
C2679 C2678 1.394 . S
C2679 C2680 1.383 . S
C2679 H2687 0.929 . S
C2680 C2679 1.383 . S
C2680 C2681 1.377 . S
C2681 H2665 0.930 . S
C2681 C2680 1.377 . S
C2681 C2682 1.379 . S
C2682 H2666 0.931 . S
C2682 C2676 1.383 . S
C2682 C2681 1.379 . S
H2683 C2677 0.959 . S
H2684 C2677 0.961 . S
H2685 C2677 0.960 . S
H2686 C2678 0.930 . S
H2687 C2679 0.929 . S
H2688 C2696 0.929 . S
H2689 C2698 0.930 . S
H2690 C2700 0.930 . S
H2691 C2703 0.929 . S
H2692 C2706 0.930 . S
H2693 C2708 0.960 . S
H2694 C2708 0.960 . S
H2695 C2708 0.960 . S
C2696 H2688 0.929 . S
C2696 C2697 1.377 . S
C2696 C2698 1.384 . S
C2697 C2696 1.377 . S
C2697 C2703 1.390 . S
C2698 H2689 0.930 . S
C2698 C2696 1.384 . S
C2698 C2699 1.372 . S
C2699 C2698 1.372 . S
C2699 C2700 1.400 . S
C2699 C2704 1.490 . S
C2700 H2690 0.930 . S
C2700 C2699 1.400 . S
C2700 C2703 1.386 . S
H2701 C2717 0.930 . S
H2702 C2718 0.931 . S
C2703 H2691 0.929 . S
C2703 C2697 1.390 . S
C2703 C2700 1.386 . S
C2704 C2699 1.490 . S
C2704 C2706 1.395 . S
C2704 C2707 1.403 . S
H2705 C2711 0.930 . S
C2706 H2692 0.930 . S
C2706 C2704 1.395 . S
C2706 C2709 1.403 . S
C2707 C2704 1.403 . S
C2707 C2708 1.524 . S
C2707 C2711 1.400 . S
C2708 H2693 0.960 . S
C2708 H2694 0.960 . S
C2708 H2695 0.960 . S
C2708 C2707 1.524 . S
C2709 C2706 1.403 . S
C2709 C2710 1.392 . S
C2709 C2713 1.495 . S
C2710 C2709 1.392 . S
C2710 C2711 1.385 . S
C2710 C2712 1.478 1_455 S
C2711 H2705 0.930 . S
C2711 C2707 1.400 . S
C2711 C2710 1.385 . S
C2712 C2710 1.478 1_655 S
C2712 C2714 1.381 . S
C2712 C2718 1.383 . S
C2713 C2709 1.495 . S
C2713 H2719 0.959 . S
C2713 H2720 0.961 1_455 S
C2713 H2721 0.960 1_455 S
C2714 C2712 1.381 . S
C2714 C2715 1.394 . S
C2714 H2722 0.930 . S
C2715 C2714 1.394 . S
C2715 C2716 1.383 . S
C2715 H2723 0.929 . S
C2716 C2715 1.383 . S
C2716 C2717 1.377 . S
C2717 H2701 0.930 . S
C2717 C2716 1.377 . S
C2717 C2718 1.379 . S
C2718 H2702 0.931 . S
C2718 C2712 1.383 . S
C2718 C2717 1.379 . S
H2719 C2713 0.959 . S
H2720 C2713 0.961 1_655 S
H2721 C2713 0.960 1_655 S
H2722 C2714 0.930 . S
H2723 C2715 0.929 . S
H2724 C2732 0.929 . S
H2725 C2734 0.930 . S
H2726 C2736 0.930 . S
H2727 C2739 0.929 . S
H2728 C2742 0.930 . S
H2729 C2744 0.960 . S
H2730 C2744 0.960 . S
H2731 C2744 0.960 . S
C2732 H2724 0.929 . S
C2732 C2733 1.377 . S
C2732 C2734 1.384 . S
C2733 C2732 1.377 . S
C2733 C2739 1.390 . S
C2734 H2725 0.930 . S
C2734 C2732 1.384 . S
C2734 C2735 1.372 . S
C2735 C2734 1.372 . S
C2735 C2736 1.400 . S
C2735 C2740 1.490 1_565 S
C2736 H2726 0.930 . S
C2736 C2735 1.400 . S
C2736 C2739 1.386 . S
H2737 C2753 0.930 . S
H2738 C2754 0.931 . S
C2739 H2727 0.929 . S
C2739 C2733 1.390 . S
C2739 C2736 1.386 . S
C2740 C2735 1.490 1_545 S
C2740 C2742 1.395 . S
C2740 C2743 1.403 . S
H2741 C2747 0.930 . S
C2742 H2728 0.930 . S
C2742 C2740 1.395 . S
C2742 C2745 1.403 . S
C2743 C2740 1.403 . S
C2743 C2744 1.524 . S
C2743 C2747 1.400 . S
C2744 H2729 0.960 . S
C2744 H2730 0.960 . S
C2744 H2731 0.960 . S
C2744 C2743 1.524 . S
C2745 C2742 1.403 . S
C2745 C2746 1.392 . S
C2745 C2749 1.495 . S
C2746 C2745 1.392 . S
C2746 C2747 1.385 . S
C2746 C2748 1.478 . S
C2747 H2741 0.930 . S
C2747 C2743 1.400 . S
C2747 C2746 1.385 . S
C2748 C2746 1.478 . S
C2748 C2750 1.381 . S
C2748 C2754 1.383 . S
C2749 C2745 1.495 . S
C2749 H2755 0.959 . S
C2749 H2756 0.961 . S
C2749 H2757 0.960 . S
C2750 C2748 1.381 . S
C2750 C2751 1.394 . S
C2750 H2758 0.930 . S
C2751 C2750 1.394 . S
C2751 C2752 1.383 . S
C2751 H2759 0.929 . S
C2752 C2751 1.383 . S
C2752 C2753 1.377 . S
C2753 H2737 0.930 . S
C2753 C2752 1.377 . S
C2753 C2754 1.379 . S
C2754 H2738 0.931 . S
C2754 C2748 1.383 . S
C2754 C2753 1.379 . S
H2755 C2749 0.959 . S
H2756 C2749 0.961 . S
H2757 C2749 0.960 . S
H2758 C2750 0.930 . S
H2759 C2751 0.929 . S
H2760 C2768 0.929 . S
H2761 C2770 0.930 . S
H2762 C2772 0.930 . S
H2763 C2775 0.929 . S
H2764 C2778 0.930 . S
H2765 C2780 0.960 . S
H2766 C2780 0.960 . S
H2767 C2780 0.960 . S
C2768 H2760 0.929 . S
C2768 C2769 1.377 . S
C2768 C2770 1.384 . S
C2769 C2768 1.377 . S
C2769 C2775 1.390 . S
C2770 H2761 0.930 . S
C2770 C2768 1.384 . S
C2770 C2771 1.372 . S
C2771 C2770 1.372 . S
C2771 C2772 1.400 . S
C2771 C2776 1.490 . S
C2772 H2762 0.930 . S
C2772 C2771 1.400 . S
C2772 C2775 1.386 . S
H2773 C2789 0.930 . S
H2774 C2790 0.931 . S
C2775 H2763 0.929 . S
C2775 C2769 1.390 . S
C2775 C2772 1.386 . S
C2776 C2771 1.490 . S
C2776 C2778 1.395 . S
C2776 C2779 1.403 . S
H2777 C2783 0.930 . S
C2778 H2764 0.930 . S
C2778 C2776 1.395 . S
C2778 C2781 1.403 . S
C2779 C2776 1.403 . S
C2779 C2780 1.524 . S
C2779 C2783 1.400 . S
C2780 H2765 0.960 . S
C2780 H2766 0.960 . S
C2780 H2767 0.960 . S
C2780 C2779 1.524 . S
C2781 C2778 1.403 . S
C2781 C2782 1.392 . S
C2781 C2785 1.495 . S
C2782 C2781 1.392 . S
C2782 C2783 1.385 . S
C2782 C2784 1.478 . S
C2783 H2777 0.930 . S
C2783 C2779 1.400 . S
C2783 C2782 1.385 . S
C2784 C2782 1.478 . S
C2784 C2786 1.381 . S
C2784 C2790 1.383 . S
C2785 C2781 1.495 . S
C2785 H2791 0.959 . S
C2785 H2792 0.961 . S
C2785 H2793 0.960 . S
C2786 C2784 1.381 . S
C2786 C2787 1.394 . S
C2786 H2794 0.930 . S
C2787 C2786 1.394 . S
C2787 C2788 1.383 . S
C2787 H2795 0.929 . S
C2788 C2787 1.383 . S
C2788 C2789 1.377 . S
C2789 H2773 0.930 . S
C2789 C2788 1.377 . S
C2789 C2790 1.379 . S
C2790 H2774 0.931 . S
C2790 C2784 1.383 . S
C2790 C2789 1.379 . S
H2791 C2785 0.959 . S
H2792 C2785 0.961 . S
H2793 C2785 0.960 . S
H2794 C2786 0.930 . S
H2795 C2787 0.929 . S
H2796 C2804 0.929 . S
H2797 C2806 0.930 . S
H2798 C2808 0.930 . S
H2799 C2811 0.929 . S
H2800 C2814 0.930 . S
H2801 C2816 0.960 . S
H2802 C2816 0.960 . S
H2803 C2816 0.960 . S
C2804 H2796 0.929 . S
C2804 C2805 1.377 . S
C2804 C2806 1.384 . S
C2805 C2804 1.377 . S
C2805 C2811 1.390 . S
C2806 H2797 0.930 . S
C2806 C2804 1.384 . S
C2806 C2807 1.372 . S
C2807 C2806 1.372 . S
C2807 C2808 1.400 . S
C2807 C2812 1.490 . S
C2808 H2798 0.930 . S
C2808 C2807 1.400 . S
C2808 C2811 1.386 . S
H2809 C2825 0.930 . S
H2810 C2826 0.931 . S
C2811 H2799 0.929 . S
C2811 C2805 1.390 . S
C2811 C2808 1.386 . S
C2812 C2807 1.490 . S
C2812 C2814 1.395 . S
C2812 C2815 1.403 . S
H2813 C2819 0.930 . S
C2814 H2800 0.930 . S
C2814 C2812 1.395 . S
C2814 C2817 1.403 . S
C2815 C2812 1.403 . S
C2815 C2816 1.524 . S
C2815 C2819 1.400 . S
C2816 H2801 0.960 . S
C2816 H2802 0.960 . S
C2816 H2803 0.960 . S
C2816 C2815 1.524 . S
C2817 C2814 1.403 . S
C2817 C2818 1.392 . S
C2817 C2821 1.495 . S
C2818 C2817 1.392 . S
C2818 C2819 1.385 . S
C2818 C2820 1.478 . S
C2819 H2813 0.930 . S
C2819 C2815 1.400 . S
C2819 C2818 1.385 . S
C2820 C2818 1.478 . S
C2820 C2822 1.381 . S
C2820 C2826 1.383 . S
C2821 C2817 1.495 . S
C2821 H2827 0.959 . S
C2821 H2828 0.961 . S
C2821 H2829 0.960 . S
C2822 C2820 1.381 . S
C2822 C2823 1.394 . S
C2822 H2830 0.930 . S
C2823 C2822 1.394 . S
C2823 C2824 1.383 . S
C2823 H2831 0.929 . S
C2824 C2823 1.383 . S
C2824 C2825 1.377 . S
C2825 H2809 0.930 . S
C2825 C2824 1.377 . S
C2825 C2826 1.379 . S
C2826 H2810 0.931 . S
C2826 C2820 1.383 . S
C2826 C2825 1.379 . S
H2827 C2821 0.959 . S
H2828 C2821 0.961 . S
H2829 C2821 0.960 . S
H2830 C2822 0.930 . S
H2831 C2823 0.929 . S
H2832 C2840 0.929 . S
H2833 C2842 0.930 . S
H2834 C2844 0.930 . S
H2835 C2847 0.929 . S
H2836 C2850 0.930 . S
H2837 C2852 0.960 . S
H2838 C2852 0.960 . S
H2839 C2852 0.960 1_565 S
C2840 H2832 0.929 . S
C2840 C2841 1.377 . S
C2840 C2842 1.384 . S
C2841 C2840 1.377 . S
C2841 C2847 1.390 . S
C2842 H2833 0.930 . S
C2842 C2840 1.384 . S
C2842 C2843 1.372 . S
C2843 C2842 1.372 . S
C2843 C2844 1.400 . S
C2843 C2848 1.490 1_565 S
C2844 H2834 0.930 . S
C2844 C2843 1.400 . S
C2844 C2847 1.386 . S
H2845 C2861 0.930 . S
H2846 C2862 0.931 . S
C2847 H2835 0.929 . S
C2847 C2841 1.390 . S
C2847 C2844 1.386 . S
C2848 C2843 1.490 1_545 S
C2848 C2850 1.395 . S
C2848 C2851 1.403 . S
H2849 C2855 0.930 . S
C2850 H2836 0.930 . S
C2850 C2848 1.395 . S
C2850 C2853 1.403 . S
C2851 C2848 1.403 . S
C2851 C2852 1.524 . S
C2851 C2855 1.400 . S
C2852 H2837 0.960 . S
C2852 H2838 0.960 . S
C2852 H2839 0.960 1_545 S
C2852 C2851 1.524 . S
C2853 C2850 1.403 . S
C2853 C2854 1.392 . S
C2853 C2857 1.495 . S
C2854 C2853 1.392 . S
C2854 C2855 1.385 . S
C2854 C2856 1.478 . S
C2855 H2849 0.930 . S
C2855 C2851 1.400 . S
C2855 C2854 1.385 . S
C2856 C2854 1.478 . S
C2856 C2858 1.381 . S
C2856 C2862 1.383 . S
C2857 C2853 1.495 . S
C2857 H2863 0.959 . S
C2857 H2864 0.961 . S
C2857 H2865 0.960 . S
C2858 C2856 1.381 . S
C2858 C2859 1.394 . S
C2858 H2866 0.930 . S
C2859 C2858 1.394 . S
C2859 C2860 1.383 . S
C2859 H2867 0.929 . S
C2860 C2859 1.383 . S
C2860 C2861 1.377 . S
C2861 H2845 0.930 . S
C2861 C2860 1.377 . S
C2861 C2862 1.379 . S
C2862 H2846 0.931 . S
C2862 C2856 1.383 . S
C2862 C2861 1.379 . S
H2863 C2857 0.959 . S
H2864 C2857 0.961 . S
H2865 C2857 0.960 . S
H2866 C2858 0.930 . S
H2867 C2859 0.929 . S
H2868 C2876 0.929 . S
H2869 C2878 0.930 . S
H2870 C2880 0.930 . S
H2871 C2883 0.929 . S
H2872 C2886 0.930 . S
H2873 C2888 0.960 . S
H2874 C2888 0.960 . S
H2875 C2888 0.960 . S
C2876 H2868 0.929 . S
C2876 C2877 1.377 . S
C2876 C2878 1.384 . S
C2877 C2876 1.377 . S
C2877 C2883 1.390 . S
C2878 H2869 0.930 . S
C2878 C2876 1.384 . S
C2878 C2879 1.372 . S
C2879 C2878 1.372 . S
C2879 C2880 1.400 . S
C2879 C2884 1.490 . S
C2880 H2870 0.930 . S
C2880 C2879 1.400 . S
C2880 C2883 1.386 . S
H2881 C2897 0.930 . S
H2882 C2898 0.931 . S
C2883 H2871 0.929 . S
C2883 C2877 1.390 . S
C2883 C2880 1.386 . S
C2884 C2879 1.490 . S
C2884 C2886 1.395 . S
C2884 C2887 1.403 . S
H2885 C2891 0.930 . S
C2886 H2872 0.930 . S
C2886 C2884 1.395 . S
C2886 C2889 1.403 . S
C2887 C2884 1.403 . S
C2887 C2888 1.524 . S
C2887 C2891 1.400 . S
C2888 H2873 0.960 . S
C2888 H2874 0.960 . S
C2888 H2875 0.960 . S
C2888 C2887 1.524 . S
C2889 C2886 1.403 . S
C2889 C2890 1.392 . S
C2889 C2893 1.495 . S
C2890 C2889 1.392 . S
C2890 C2891 1.385 . S
C2890 C2892 1.478 . S
C2891 H2885 0.930 . S
C2891 C2887 1.400 . S
C2891 C2890 1.385 . S
C2892 C2890 1.478 . S
C2892 C2894 1.381 . S
C2892 C2898 1.383 . S
C2893 C2889 1.495 . S
C2893 H2899 0.959 . S
C2893 H2900 0.961 . S
C2893 H2901 0.960 . S
C2894 C2892 1.381 . S
C2894 C2895 1.394 . S
C2894 H2902 0.930 . S
C2895 C2894 1.394 . S
C2895 C2896 1.383 . S
C2895 H2903 0.929 . S
C2896 C2895 1.383 . S
C2896 C2897 1.377 . S
C2897 H2881 0.930 . S
C2897 C2896 1.377 . S
C2897 C2898 1.379 . S
C2898 H2882 0.931 . S
C2898 C2892 1.383 . S
C2898 C2897 1.379 . S
H2899 C2893 0.959 . S
H2900 C2893 0.961 . S
H2901 C2893 0.960 . S
H2902 C2894 0.930 . S
H2903 C2895 0.929 . S
H2904 C2912 0.929 . S
H2905 C2914 0.930 . S
H2906 C2916 0.930 . S
H2907 C2919 0.929 . S
H2908 C2922 0.930 . S
H2909 C2924 0.960 . S
H2910 C2924 0.960 . S
H2911 C2924 0.960 . S
C2912 H2904 0.929 . S
C2912 C2913 1.377 . S
C2912 C2914 1.384 . S
C2913 C2912 1.377 . S
C2913 C2919 1.390 . S
C2914 H2905 0.930 . S
C2914 C2912 1.384 . S
C2914 C2915 1.372 . S
C2915 C2914 1.372 . S
C2915 C2916 1.400 . S
C2915 C2920 1.490 . S
C2916 H2906 0.930 . S
C2916 C2915 1.400 . S
C2916 C2919 1.386 . S
H2917 C2933 0.930 . S
H2918 C2934 0.931 . S
C2919 H2907 0.929 . S
C2919 C2913 1.390 . S
C2919 C2916 1.386 . S
C2920 C2915 1.490 . S
C2920 C2922 1.395 . S
C2920 C2923 1.403 . S
H2921 C2927 0.930 . S
C2922 H2908 0.930 . S
C2922 C2920 1.395 . S
C2922 C2925 1.403 . S
C2923 C2920 1.403 . S
C2923 C2924 1.524 . S
C2923 C2927 1.400 . S
C2924 H2909 0.960 . S
C2924 H2910 0.960 . S
C2924 H2911 0.960 . S
C2924 C2923 1.524 . S
C2925 C2922 1.403 . S
C2925 C2926 1.392 . S
C2925 C2929 1.495 . S
C2926 C2925 1.392 . S
C2926 C2927 1.385 . S
C2926 C2928 1.478 1_455 S
C2927 H2921 0.930 . S
C2927 C2923 1.400 . S
C2927 C2926 1.385 . S
C2928 C2926 1.478 1_655 S
C2928 C2930 1.381 . S
C2928 C2934 1.383 . S
C2929 C2925 1.495 . S
C2929 H2935 0.959 . S
C2929 H2936 0.961 . S
C2929 H2937 0.960 . S
C2930 C2928 1.381 . S
C2930 C2931 1.394 . S
C2930 H2938 0.930 . S
C2931 C2930 1.394 . S
C2931 C2932 1.383 . S
C2931 H2939 0.929 . S
C2932 C2931 1.383 . S
C2932 C2933 1.377 . S
C2933 H2917 0.930 . S
C2933 C2932 1.377 . S
C2933 C2934 1.379 . S
C2934 H2918 0.931 . S
C2934 C2928 1.383 . S
C2934 C2933 1.379 . S
H2935 C2929 0.959 . S
H2936 C2929 0.961 . S
H2937 C2929 0.960 . S
H2938 C2930 0.930 . S
H2939 C2931 0.929 . S
H2940 C2948 0.929 . S
H2941 C2950 0.930 . S
H2942 C2952 0.930 . S
H2943 C2955 0.929 . S
H2944 C2958 0.930 . S
H2945 C2960 0.960 . S
H2946 C2960 0.960 . S
H2947 C2960 0.960 . S
C2948 H2940 0.929 . S
C2948 C2949 1.377 . S
C2948 C2950 1.384 . S
C2949 C2948 1.377 . S
C2949 C2955 1.390 . S
C2950 H2941 0.930 . S
C2950 C2948 1.384 . S
C2950 C2951 1.372 . S
C2951 C2950 1.372 . S
C2951 C2952 1.400 . S
C2951 C2956 1.490 . S
C2952 H2942 0.930 . S
C2952 C2951 1.400 . S
C2952 C2955 1.386 . S
H2953 C2969 0.930 . S
H2954 C2970 0.931 . S
C2955 H2943 0.929 . S
C2955 C2949 1.390 . S
C2955 C2952 1.386 . S
C2956 C2951 1.490 . S
C2956 C2958 1.395 . S
C2956 C2959 1.403 . S
H2957 C2963 0.930 . S
C2958 H2944 0.930 . S
C2958 C2956 1.395 . S
C2958 C2961 1.403 . S
C2959 C2956 1.403 . S
C2959 C2960 1.524 . S
C2959 C2963 1.400 . S
C2960 H2945 0.960 . S
C2960 H2946 0.960 . S
C2960 H2947 0.960 . S
C2960 C2959 1.524 . S
C2961 C2958 1.403 . S
C2961 C2962 1.392 . S
C2961 C2965 1.495 . S
C2962 C2961 1.392 . S
C2962 C2963 1.385 . S
C2962 C2964 1.478 1_545 S
C2963 H2957 0.930 . S
C2963 C2959 1.400 . S
C2963 C2962 1.385 . S
C2964 C2962 1.478 1_565 S
C2964 C2966 1.381 . S
C2964 C2970 1.383 . S
C2965 C2961 1.495 . S
C2965 H2971 0.959 . S
C2965 H2972 0.961 . S
C2965 H2973 0.960 . S
C2966 C2964 1.381 . S
C2966 C2967 1.394 . S
C2966 H2974 0.930 . S
C2967 C2966 1.394 . S
C2967 C2968 1.383 . S
C2967 H2975 0.929 . S
C2968 C2967 1.383 . S
C2968 C2969 1.377 . S
C2969 H2953 0.930 . S
C2969 C2968 1.377 . S
C2969 C2970 1.379 . S
C2970 H2954 0.931 . S
C2970 C2964 1.383 . S
C2970 C2969 1.379 . S
H2971 C2965 0.959 . S
H2972 C2965 0.961 . S
H2973 C2965 0.960 . S
H2974 C2966 0.930 . S
H2975 C2967 0.929 . S
H2976 C2984 0.929 . S
H2977 C2986 0.930 . S
H2978 C2988 0.930 . S
H2979 C2991 0.929 . S
H2980 C2994 0.930 . S
H2981 C2996 0.960 . S
H2982 C2996 0.960 . S
H2983 C2996 0.960 . S
C2984 H2976 0.929 . S
C2984 C2985 1.377 . S
C2984 C2986 1.384 . S
C2985 C2984 1.377 . S
C2985 C2991 1.390 . S
C2986 H2977 0.930 . S
C2986 C2984 1.384 . S
C2986 C2987 1.372 . S
C2987 C2986 1.372 . S
C2987 C2988 1.400 . S
C2987 C2992 1.490 . S
C2988 H2978 0.930 . S
C2988 C2987 1.400 . S
C2988 C2991 1.386 . S
H2989 C3005 0.930 . S
H2990 C3006 0.931 . S
C2991 H2979 0.929 . S
C2991 C2985 1.390 . S
C2991 C2988 1.386 . S
C2992 C2987 1.490 . S
C2992 C2994 1.395 . S
C2992 C2995 1.403 . S
H2993 C2999 0.930 . S
C2994 H2980 0.930 . S
C2994 C2992 1.395 . S
C2994 C2997 1.403 . S
C2995 C2992 1.403 . S
C2995 C2996 1.524 . S
C2995 C2999 1.400 . S
C2996 H2981 0.960 . S
C2996 H2982 0.960 . S
C2996 H2983 0.960 . S
C2996 C2995 1.524 . S
C2997 C2994 1.403 . S
C2997 C2998 1.392 . S
C2997 C3001 1.495 . S
C2998 C2997 1.392 . S
C2998 C2999 1.385 . S
C2998 C3000 1.478 . S
C2999 H2993 0.930 . S
C2999 C2995 1.400 . S
C2999 C2998 1.385 . S
C3000 C2998 1.478 . S
C3000 C3002 1.381 . S
C3000 C3006 1.383 . S
C3001 C2997 1.495 . S
C3001 H3007 0.959 . S
C3001 H3008 0.961 . S
C3001 H3009 0.960 . S
C3002 C3000 1.381 . S
C3002 C3003 1.394 . S
C3002 H3010 0.930 . S
C3003 C3002 1.394 . S
C3003 C3004 1.383 . S
C3003 H3011 0.929 . S
C3004 C3003 1.383 . S
C3004 C3005 1.377 . S
C3005 H2989 0.930 . S
C3005 C3004 1.377 . S
C3005 C3006 1.379 . S
C3006 H2990 0.931 . S
C3006 C3000 1.383 . S
C3006 C3005 1.379 . S
H3007 C3001 0.959 . S
H3008 C3001 0.961 . S
H3009 C3001 0.960 . S
H3010 C3002 0.930 . S
H3011 C3003 0.929 . S
H3012 C3020 0.929 . S
H3013 C3022 0.930 . S
H3014 C3024 0.930 . S
H3015 C3027 0.929 . S
H3016 C3030 0.930 . S
H3017 C3032 0.960 . S
H3018 C3032 0.960 . S
H3019 C3032 0.960 . S
C3020 H3012 0.929 . S
C3020 C3021 1.377 . S
C3020 C3022 1.384 . S
C3021 C3020 1.377 . S
C3021 C3027 1.390 . S
C3022 H3013 0.930 . S
C3022 C3020 1.384 . S
C3022 C3023 1.372 . S
C3023 C3022 1.372 . S
C3023 C3024 1.400 . S
C3023 C3028 1.490 . S
C3024 H3014 0.930 . S
C3024 C3023 1.400 . S
C3024 C3027 1.386 . S
H3025 C3041 0.930 . S
H3026 C3042 0.931 . S
C3027 H3015 0.929 . S
C3027 C3021 1.390 . S
C3027 C3024 1.386 . S
C3028 C3023 1.490 . S
C3028 C3030 1.395 . S
C3028 C3031 1.403 . S
H3029 C3035 0.930 . S
C3030 H3016 0.930 . S
C3030 C3028 1.395 . S
C3030 C3033 1.403 . S
C3031 C3028 1.403 . S
C3031 C3032 1.524 . S
C3031 C3035 1.400 . S
C3032 H3017 0.960 . S
C3032 H3018 0.960 . S
C3032 H3019 0.960 . S
C3032 C3031 1.524 . S
C3033 C3030 1.403 . S
C3033 C3034 1.392 . S
C3033 C3037 1.495 . S
C3034 C3033 1.392 . S
C3034 C3035 1.385 . S
C3034 C3036 1.478 . S
C3035 H3029 0.930 . S
C3035 C3031 1.400 . S
C3035 C3034 1.385 . S
C3036 C3034 1.478 . S
C3036 C3038 1.381 . S
C3036 C3042 1.383 . S
C3037 C3033 1.495 . S
C3037 H3043 0.959 . S
C3037 H3044 0.961 . S
C3037 H3045 0.960 . S
C3038 C3036 1.381 . S
C3038 C3039 1.394 . S
C3038 H3046 0.930 . S
C3039 C3038 1.394 . S
C3039 C3040 1.383 . S
C3039 H3047 0.929 . S
C3040 C3039 1.383 . S
C3040 C3041 1.377 . S
C3041 H3025 0.930 . S
C3041 C3040 1.377 . S
C3041 C3042 1.379 . S
C3042 H3026 0.931 . S
C3042 C3036 1.383 . S
C3042 C3041 1.379 . S
H3043 C3037 0.959 . S
H3044 C3037 0.961 . S
H3045 C3037 0.960 . S
H3046 C3038 0.930 . S
H3047 C3039 0.929 . S
H3048 C3056 0.929 . S
H3049 C3058 0.930 . S
H3050 C3060 0.930 . S
H3051 C3063 0.929 . S
H3052 C3066 0.930 . S
H3053 C3068 0.960 . S
H3054 C3068 0.960 . S
H3055 C3068 0.960 . S
C3056 H3048 0.929 . S
C3056 C3057 1.377 . S
C3056 C3058 1.384 . S
C3057 C3056 1.377 . S
C3057 C3063 1.390 . S
C3058 H3049 0.930 . S
C3058 C3056 1.384 . S
C3058 C3059 1.372 . S
C3059 C3058 1.372 . S
C3059 C3060 1.400 . S
C3059 C3064 1.490 . S
C3060 H3050 0.930 . S
C3060 C3059 1.400 . S
C3060 C3063 1.386 . S
H3061 C3077 0.930 . S
H3062 C3078 0.931 . S
C3063 H3051 0.929 . S
C3063 C3057 1.390 . S
C3063 C3060 1.386 . S
C3064 C3059 1.490 . S
C3064 C3066 1.395 . S
C3064 C3067 1.403 . S
H3065 C3071 0.930 . S
C3066 H3052 0.930 . S
C3066 C3064 1.395 . S
C3066 C3069 1.403 . S
C3067 C3064 1.403 . S
C3067 C3068 1.524 . S
C3067 C3071 1.400 . S
C3068 H3053 0.960 . S
C3068 H3054 0.960 . S
C3068 H3055 0.960 . S
C3068 C3067 1.524 . S
C3069 C3066 1.403 . S
C3069 C3070 1.392 . S
C3069 C3073 1.495 . S
C3070 C3069 1.392 . S
C3070 C3071 1.385 . S
C3070 C3072 1.478 1_455 S
C3071 H3065 0.930 . S
C3071 C3067 1.400 . S
C3071 C3070 1.385 . S
C3072 C3070 1.478 1_655 S
C3072 C3074 1.381 . S
C3072 C3078 1.383 . S
C3073 C3069 1.495 . S
C3073 H3079 0.959 . S
C3073 H3080 0.961 . S
C3073 H3081 0.960 . S
C3074 C3072 1.381 . S
C3074 C3075 1.394 . S
C3074 H3082 0.930 . S
C3075 C3074 1.394 . S
C3075 C3076 1.383 . S
C3075 H3083 0.929 . S
C3076 C3075 1.383 . S
C3076 C3077 1.377 . S
C3077 H3061 0.930 . S
C3077 C3076 1.377 . S
C3077 C3078 1.379 . S
C3078 H3062 0.931 . S
C3078 C3072 1.383 . S
C3078 C3077 1.379 . S
H3079 C3073 0.959 . S
H3080 C3073 0.961 . S
H3081 C3073 0.960 . S
H3082 C3074 0.930 . S
H3083 C3075 0.929 . S
H3084 C3092 0.929 . S
H3085 C3094 0.930 . S
H3086 C3096 0.930 . S
H3087 C3099 0.929 . S
H3088 C3102 0.930 . S
H3089 C3104 0.960 . S
H3090 C3104 0.960 . S
H3091 C3104 0.960 . S
C3092 H3084 0.929 . S
C3092 C3093 1.377 . S
C3092 C3094 1.384 . S
C3093 C3092 1.377 . S
C3093 C3099 1.390 . S
C3094 H3085 0.930 . S
C3094 C3092 1.384 . S
C3094 C3095 1.372 . S
C3095 C3094 1.372 . S
C3095 C3096 1.400 . S
C3095 C3100 1.490 . S
C3096 H3086 0.930 . S
C3096 C3095 1.400 . S
C3096 C3099 1.386 . S
H3097 C3113 0.930 . S
H3098 C3114 0.931 . S
C3099 H3087 0.929 . S
C3099 C3093 1.390 . S
C3099 C3096 1.386 . S
C3100 C3095 1.490 . S
C3100 C3102 1.395 . S
C3100 C3103 1.403 . S
H3101 C3107 0.930 . S
C3102 H3088 0.930 . S
C3102 C3100 1.395 . S
C3102 C3105 1.403 . S
C3103 C3100 1.403 . S
C3103 C3104 1.524 . S
C3103 C3107 1.400 . S
C3104 H3089 0.960 . S
C3104 H3090 0.960 . S
C3104 H3091 0.960 . S
C3104 C3103 1.524 . S
C3105 C3102 1.403 . S
C3105 C3106 1.392 . S
C3105 C3109 1.495 . S
C3106 C3105 1.392 . S
C3106 C3107 1.385 . S
C3106 C3108 1.478 . S
C3107 H3101 0.930 . S
C3107 C3103 1.400 . S
C3107 C3106 1.385 . S
C3108 C3106 1.478 . S
C3108 C3110 1.381 . S
C3108 C3114 1.383 . S
C3109 C3105 1.495 . S
C3109 H3115 0.959 . S
C3109 H3116 0.961 . S
C3109 H3117 0.960 . S
C3110 C3108 1.381 . S
C3110 C3111 1.394 . S
C3110 H3118 0.930 . S
C3111 C3110 1.394 . S
C3111 C3112 1.383 . S
C3111 H3119 0.929 . S
C3112 C3111 1.383 . S
C3112 C3113 1.377 . S
C3113 H3097 0.930 . S
C3113 C3112 1.377 . S
C3113 C3114 1.379 . S
C3114 H3098 0.931 . S
C3114 C3108 1.383 . S
C3114 C3113 1.379 . S
H3115 C3109 0.959 . S
H3116 C3109 0.961 . S
H3117 C3109 0.960 . S
H3118 C3110 0.930 . S
H3119 C3111 0.929 . S
H3120 C3128 0.929 . S
H3121 C3130 0.930 . S
H3122 C3132 0.930 . S
H3123 C3135 0.929 . S
H3124 C3138 0.930 . S
H3125 C3140 0.960 . S
H3126 C3140 0.987 . S
H3127 C3140 0.960 1_554 S
C3128 H3120 0.929 . S
C3128 C3129 1.377 . S
C3128 C3130 1.384 . S
C3129 C3128 1.377 . S
C3129 C3135 1.390 . S
C3130 H3121 0.930 . S
C3130 C3128 1.384 . S
C3130 C3131 1.372 . S
C3131 C3130 1.372 . S
C3131 C3132 1.400 . S
C3131 C3136 1.490 1_554 S
C3132 H3122 0.930 . S
C3132 C3131 1.400 . S
C3132 C3135 1.386 . S
H3133 C3149 0.930 . S
H3134 C3150 0.931 . S
C3135 H3123 0.929 . S
C3135 C3129 1.390 . S
C3135 C3132 1.386 . S
C3136 C3131 1.490 1_556 S
C3136 C3138 1.395 . S
C3136 C3139 1.403 . S
H3137 C3143 0.930 . S
C3138 H3124 0.930 . S
C3138 C3136 1.395 . S
C3138 C3141 1.403 . S
C3139 C3136 1.403 . S
C3139 C3140 1.524 . S
C3139 C3143 1.400 . S
C3140 H3125 0.960 . S
C3140 H3126 0.987 . S
C3140 H3127 0.960 1_556 S
C3140 C3139 1.524 . S
C3141 C3138 1.403 . S
C3141 C3142 1.392 . S
C3141 C3145 1.495 . S
C3142 C3141 1.392 . S
C3142 C3143 1.385 . S
C3142 C3144 1.478 . S
C3143 H3137 0.930 . S
C3143 C3139 1.400 . S
C3143 C3142 1.385 . S
C3144 C3142 1.478 . S
C3144 C3146 1.381 . S
C3144 C3150 1.383 . S
C3145 C3141 1.495 . S
C3145 H3151 0.959 . S
C3145 H3152 0.961 . S
C3145 H3153 0.960 . S
C3146 C3144 1.381 . S
C3146 C3147 1.394 . S
C3146 H3154 0.930 . S
C3147 C3146 1.394 . S
C3147 C3148 1.383 . S
C3147 H3155 0.929 . S
C3148 C3147 1.383 . S
C3148 C3149 1.377 . S
C3149 H3133 0.930 . S
C3149 C3148 1.377 . S
C3149 C3150 1.379 . S
C3150 H3134 0.931 . S
C3150 C3144 1.383 . S
C3150 C3149 1.379 . S
H3151 C3145 0.959 . S
H3152 C3145 0.961 . S
H3153 C3145 0.960 . S
H3154 C3146 0.930 . S
H3155 C3147 0.929 . S
H3156 C3164 0.929 . S
H3157 C3166 0.930 . S
H3158 C3168 0.930 . S
H3159 C3171 0.929 . S
H3160 C3174 0.930 . S
H3161 C3176 0.960 . S
H3162 C3176 0.960 1_554 S
H3163 C3176 0.960 . S
C3164 H3156 0.929 . S
C3164 C3165 1.377 . S
C3164 C3166 1.384 . S
C3165 C3164 1.377 . S
C3165 C3171 1.390 . S
C3166 H3157 0.930 . S
C3166 C3164 1.384 . S
C3166 C3167 1.372 . S
C3167 C3166 1.372 . S
C3167 C3168 1.400 . S
C3167 C3172 1.490 1_554 S
C3168 H3158 0.930 . S
C3168 C3167 1.400 . S
C3168 C3171 1.386 . S
H3169 C3185 0.930 . S
H3170 C3186 0.931 . S
C3171 H3159 0.929 . S
C3171 C3165 1.390 . S
C3171 C3168 1.386 . S
C3172 C3167 1.490 1_556 S
C3172 C3174 1.395 . S
C3172 C3175 1.403 . S
H3173 C3179 0.930 . S
C3174 H3160 0.930 . S
C3174 C3172 1.395 . S
C3174 C3177 1.403 . S
C3175 C3172 1.403 . S
C3175 C3176 1.524 . S
C3175 C3179 1.400 . S
C3176 H3161 0.960 . S
C3176 H3162 0.960 1_556 S
C3176 H3163 0.960 . S
C3176 C3175 1.524 . S
C3177 C3174 1.403 . S
C3177 C3178 1.392 . S
C3177 C3181 1.495 . S
C3178 C3177 1.392 . S
C3178 C3179 1.385 . S
C3178 C3180 1.478 . S
C3179 H3173 0.930 . S
C3179 C3175 1.400 . S
C3179 C3178 1.385 . S
C3180 C3178 1.478 . S
C3180 C3182 1.381 . S
C3180 C3186 1.383 . S
C3181 C3177 1.495 . S
C3181 H3187 0.959 . S
C3181 H3188 0.961 . S
C3181 H3189 0.960 . S
C3182 C3180 1.381 . S
C3182 C3183 1.394 . S
C3182 H3190 0.930 . S
C3183 C3182 1.394 . S
C3183 C3184 1.383 . S
C3183 H3191 0.929 . S
C3184 C3183 1.383 . S
C3184 C3185 1.377 . S
C3185 H3169 0.930 . S
C3185 C3184 1.377 . S
C3185 C3186 1.379 . S
C3186 H3170 0.931 . S
C3186 C3180 1.383 . S
C3186 C3185 1.379 . S
H3187 C3181 0.959 . S
H3188 C3181 0.961 . S
H3189 C3181 0.960 . S
H3190 C3182 0.930 . S
H3191 C3183 0.929 . S
H3192 C3200 0.929 . S
H3193 C3202 0.930 . S
H3194 C3204 0.930 . S
H3195 C3207 0.929 . S
H3196 C3210 0.930 . S
H3197 C3212 0.960 . S
H3198 C3212 0.933 1_554 S
H3199 C3212 0.960 1_554 S
C3200 H3192 0.929 . S
C3200 C3201 1.377 . S
C3200 C3202 1.384 . S
C3201 C3200 1.377 . S
C3201 C3207 1.390 . S
C3202 H3193 0.930 . S
C3202 C3200 1.384 . S
C3202 C3203 1.372 . S
C3203 C3202 1.372 . S
C3203 C3204 1.400 . S
C3203 C3208 1.490 1_554 S
C3204 H3194 0.930 . S
C3204 C3203 1.400 . S
C3204 C3207 1.386 . S
H3205 C3221 0.930 . S
H3206 C3222 0.931 . S
C3207 H3195 0.929 . S
C3207 C3201 1.390 . S
C3207 C3204 1.386 . S
C3208 C3203 1.490 1_556 S
C3208 C3210 1.395 . S
C3208 C3211 1.403 . S
H3209 C3215 0.930 . S
C3210 H3196 0.930 . S
C3210 C3208 1.395 . S
C3210 C3213 1.403 . S
C3211 C3208 1.403 . S
C3211 C3212 1.524 . S
C3211 C3215 1.400 . S
C3212 H3197 0.960 . S
C3212 H3198 0.933 1_556 S
C3212 H3199 0.960 1_556 S
C3212 C3211 1.524 . S
C3213 C3210 1.403 . S
C3213 C3214 1.392 . S
C3213 C3217 1.495 . S
C3214 C3213 1.392 . S
C3214 C3215 1.385 . S
C3214 C3216 1.478 . S
C3215 H3209 0.930 . S
C3215 C3211 1.400 . S
C3215 C3214 1.385 . S
C3216 C3214 1.478 . S
C3216 C3218 1.381 . S
C3216 C3222 1.383 . S
C3217 C3213 1.495 . S
C3217 H3223 0.959 . S
C3217 H3224 0.961 . S
C3217 H3225 0.960 . S
C3218 C3216 1.381 . S
C3218 C3219 1.394 . S
C3218 H3226 0.930 . S
C3219 C3218 1.394 . S
C3219 C3220 1.383 . S
C3219 H3227 0.929 . S
C3220 C3219 1.383 . S
C3220 C3221 1.377 . S
C3221 H3205 0.930 . S
C3221 C3220 1.377 . S
C3221 C3222 1.379 . S
C3222 H3206 0.931 . S
C3222 C3216 1.383 . S
C3222 C3221 1.379 . S
H3223 C3217 0.959 . S
H3224 C3217 0.961 . S
H3225 C3217 0.960 . S
H3226 C3218 0.930 . S
H3227 C3219 0.929 . S
H3228 C3236 0.929 . S
H3229 C3238 0.930 . S
H3230 C3240 0.930 . S
H3231 C3243 0.929 . S
H3232 C3246 0.930 . S
H3233 C3248 0.960 . S
H3234 C3248 0.960 . S
H3235 C3248 0.960 . S
C3236 H3228 0.929 . S
C3236 C3237 1.377 . S
C3236 C3238 1.384 . S
C3237 C3236 1.377 . S
C3237 C3243 1.390 . S
C3238 H3229 0.930 . S
C3238 C3236 1.384 . S
C3238 C3239 1.372 . S
C3239 C3238 1.372 . S
C3239 C3240 1.400 . S
C3239 C3244 1.490 . S
C3240 H3230 0.930 . S
C3240 C3239 1.400 . S
C3240 C3243 1.386 . S
H3241 C3257 0.930 . S
H3242 C3258 0.931 . S
C3243 H3231 0.929 . S
C3243 C3237 1.390 . S
C3243 C3240 1.386 . S
C3244 C3239 1.490 . S
C3244 C3246 1.395 . S
C3244 C3247 1.403 . S
H3245 C3251 0.930 . S
C3246 H3232 0.930 . S
C3246 C3244 1.395 . S
C3246 C3249 1.403 . S
C3247 C3244 1.403 . S
C3247 C3248 1.524 . S
C3247 C3251 1.400 . S
C3248 H3233 0.960 . S
C3248 H3234 0.960 . S
C3248 H3235 0.960 . S
C3248 C3247 1.524 . S
C3249 C3246 1.403 . S
C3249 C3250 1.392 . S
C3249 C3253 1.495 . S
C3250 C3249 1.392 . S
C3250 C3251 1.385 . S
C3250 C3252 1.478 1_556 S
C3251 H3245 0.930 . S
C3251 C3247 1.400 . S
C3251 C3250 1.385 . S
C3252 C3250 1.478 1_554 S
C3252 C3254 1.381 . S
C3252 C3258 1.383 . S
C3253 C3249 1.495 . S
C3253 H3259 0.959 . S
C3253 H3260 0.961 . S
C3253 H3261 0.960 . S
C3254 C3252 1.381 . S
C3254 C3255 1.394 . S
C3254 H3262 0.930 . S
C3255 C3254 1.394 . S
C3255 C3256 1.383 . S
C3255 H3263 0.929 . S
C3256 C3255 1.383 . S
C3256 C3257 1.377 . S
C3257 H3241 0.930 . S
C3257 C3256 1.377 . S
C3257 C3258 1.379 . S
C3258 H3242 0.931 . S
C3258 C3252 1.383 . S
C3258 C3257 1.379 . S
H3259 C3253 0.959 . S
H3260 C3253 0.961 . S
H3261 C3253 0.960 . S
H3262 C3254 0.930 . S
H3263 C3255 0.929 . S
H3264 C3272 0.929 . S
H3265 C3274 0.930 . S
H3266 C3276 0.930 . S
H3267 C3279 0.929 . S
H3268 C3282 0.930 . S
H3269 C3284 0.960 . S
H3270 C3284 0.960 . S
H3271 C3284 0.960 . S
C3272 H3264 0.929 . S
C3272 C3273 1.377 . S
C3272 C3274 1.384 . S
C3273 C3272 1.377 . S
C3273 C3279 1.390 . S
C3274 H3265 0.930 . S
C3274 C3272 1.384 . S
C3274 C3275 1.372 . S
C3275 C3274 1.372 . S
C3275 C3276 1.400 . S
C3275 C3280 1.490 . S
C3276 H3266 0.930 . S
C3276 C3275 1.400 . S
C3276 C3279 1.386 . S
H3277 C3293 0.930 . S
H3278 C3294 0.931 . S
C3279 H3267 0.929 . S
C3279 C3273 1.390 . S
C3279 C3276 1.386 . S
C3280 C3275 1.490 . S
C3280 C3282 1.395 . S
C3280 C3283 1.403 . S
H3281 C3287 0.930 . S
C3282 H3268 0.930 . S
C3282 C3280 1.395 . S
C3282 C3285 1.403 . S
C3283 C3280 1.403 . S
C3283 C3284 1.524 . S
C3283 C3287 1.400 . S
C3284 H3269 0.960 . S
C3284 H3270 0.960 . S
C3284 H3271 0.960 . S
C3284 C3283 1.524 . S
C3285 C3282 1.403 . S
C3285 C3286 1.392 . S
C3285 C3289 1.495 . S
C3286 C3285 1.392 . S
C3286 C3287 1.385 . S
C3286 C3288 1.478 . S
C3287 H3281 0.930 . S
C3287 C3283 1.400 . S
C3287 C3286 1.385 . S
C3288 C3286 1.478 . S
C3288 C3290 1.381 . S
C3288 C3294 1.383 . S
C3289 C3285 1.495 . S
C3289 H3295 0.959 . S
C3289 H3296 0.961 . S
C3289 H3297 0.960 . S
C3290 C3288 1.381 . S
C3290 C3291 1.394 . S
C3290 H3298 0.930 . S
C3291 C3290 1.394 . S
C3291 C3292 1.383 . S
C3291 H3299 0.929 . S
C3292 C3291 1.383 . S
C3292 C3293 1.377 . S
C3293 H3277 0.930 . S
C3293 C3292 1.377 . S
C3293 C3294 1.379 . S
C3294 H3278 0.931 . S
C3294 C3288 1.383 . S
C3294 C3293 1.379 . S
H3295 C3289 0.959 . S
H3296 C3289 0.961 . S
H3297 C3289 0.960 . S
H3298 C3290 0.930 . S
H3299 C3291 0.929 . S
H3300 C3308 0.929 . S
H3301 C3310 0.930 . S
H3302 C3312 0.930 . S
H3303 C3315 0.929 . S
H3304 C3318 0.930 . S
H3305 C3320 0.960 . S
H3306 C3320 0.960 . S
H3307 C3320 0.960 . S
C3308 H3300 0.929 . S
C3308 C3309 1.377 . S
C3308 C3310 1.384 . S
C3309 C3308 1.377 . S
C3309 C3315 1.390 . S
C3310 H3301 0.930 . S
C3310 C3308 1.384 . S
C3310 C3311 1.372 . S
C3311 C3310 1.372 . S
C3311 C3312 1.400 . S
C3311 C3316 1.490 . S
C3312 H3302 0.930 . S
C3312 C3311 1.400 . S
C3312 C3315 1.386 . S
H3313 C3329 0.930 . S
H3314 C3330 0.931 . S
C3315 H3303 0.929 . S
C3315 C3309 1.390 . S
C3315 C3312 1.386 . S
C3316 C3311 1.490 . S
C3316 C3318 1.395 . S
C3316 C3319 1.403 . S
H3317 C3323 0.930 . S
C3318 H3304 0.930 . S
C3318 C3316 1.395 . S
C3318 C3321 1.403 . S
C3319 C3316 1.403 . S
C3319 C3320 1.524 . S
C3319 C3323 1.400 . S
C3320 H3305 0.960 . S
C3320 H3306 0.960 . S
C3320 H3307 0.960 . S
C3320 C3319 1.524 . S
C3321 C3318 1.403 . S
C3321 C3322 1.392 . S
C3321 C3325 1.495 . S
C3322 C3321 1.392 . S
C3322 C3323 1.385 . S
C3322 C3324 1.478 . S
C3323 H3317 0.930 . S
C3323 C3319 1.400 . S
C3323 C3322 1.385 . S
C3324 C3322 1.478 . S
C3324 C3326 1.381 . S
C3324 C3330 1.383 . S
C3325 C3321 1.495 . S
C3325 H3331 0.959 . S
C3325 H3332 0.961 . S
C3325 H3333 0.960 . S
C3326 C3324 1.381 . S
C3326 C3327 1.394 . S
C3326 H3334 0.930 . S
C3327 C3326 1.394 . S
C3327 C3328 1.383 . S
C3327 H3335 0.929 . S
C3328 C3327 1.383 . S
C3328 C3329 1.377 . S
C3329 H3313 0.930 . S
C3329 C3328 1.377 . S
C3329 C3330 1.379 . S
C3330 H3314 0.931 . S
C3330 C3324 1.383 . S
C3330 C3329 1.379 . S
H3331 C3325 0.959 . S
H3332 C3325 0.961 . S
H3333 C3325 0.960 . S
H3334 C3326 0.930 . S
H3335 C3327 0.929 . S
H3336 C3344 0.929 . S
H3337 C3346 0.930 . S
H3338 C3348 0.930 . S
H3339 C3351 0.929 . S
H3340 C3354 0.930 . S
H3341 C3356 0.960 . S
H3342 C3356 0.960 . S
H3343 C3356 0.960 . S
C3344 H3336 0.929 . S
C3344 C3345 1.377 . S
C3344 C3346 1.384 . S
C3345 C3344 1.377 . S
C3345 C3351 1.390 . S
C3346 H3337 0.930 . S
C3346 C3344 1.384 . S
C3346 C3347 1.372 . S
C3347 C3346 1.372 . S
C3347 C3348 1.400 . S
C3347 C3352 1.490 . S
C3348 H3338 0.930 . S
C3348 C3347 1.400 . S
C3348 C3351 1.386 . S
H3349 C3365 0.930 . S
H3350 C3366 0.931 . S
C3351 H3339 0.929 . S
C3351 C3345 1.390 . S
C3351 C3348 1.386 . S
C3352 C3347 1.490 . S
C3352 C3354 1.395 . S
C3352 C3355 1.403 . S
H3353 C3359 0.930 . S
C3354 H3340 0.930 . S
C3354 C3352 1.395 . S
C3354 C3357 1.403 . S
C3355 C3352 1.403 . S
C3355 C3356 1.524 . S
C3355 C3359 1.400 . S
C3356 H3341 0.960 . S
C3356 H3342 0.960 . S
C3356 H3343 0.960 . S
C3356 C3355 1.524 . S
C3357 C3354 1.403 . S
C3357 C3358 1.392 . S
C3357 C3361 1.495 . S
C3358 C3357 1.392 . S
C3358 C3359 1.385 . S
C3358 C3360 1.478 . S
C3359 H3353 0.930 . S
C3359 C3355 1.400 . S
C3359 C3358 1.385 . S
C3360 C3358 1.478 . S
C3360 C3362 1.381 . S
C3360 C3366 1.383 . S
C3361 C3357 1.495 . S
C3361 H3367 0.959 . S
C3361 H3368 0.961 . S
C3361 H3369 0.960 . S
C3362 C3360 1.381 . S
C3362 C3363 1.394 . S
C3362 H3370 0.930 . S
C3363 C3362 1.394 . S
C3363 C3364 1.383 . S
C3363 H3371 0.929 . S
C3364 C3363 1.383 . S
C3364 C3365 1.377 . S
C3365 H3349 0.930 . S
C3365 C3364 1.377 . S
C3365 C3366 1.379 . S
C3366 H3350 0.931 . S
C3366 C3360 1.383 . S
C3366 C3365 1.379 . S
H3367 C3361 0.959 . S
H3368 C3361 0.961 . S
H3369 C3361 0.960 . S
H3370 C3362 0.930 . S
H3371 C3363 0.929 . S
H3372 C3380 0.929 . S
H3373 C3382 0.930 . S
H3374 C3384 0.930 . S
H3375 C3387 0.929 . S
H3376 C3390 0.930 . S
H3377 C3392 0.960 . S
H3378 C3392 0.960 . S
H3379 C3392 0.960 . S
C3380 H3372 0.929 . S
C3380 C3381 1.377 . S
C3380 C3382 1.384 . S
C3381 C3380 1.377 . S
C3381 C3387 1.390 . S
C3382 H3373 0.930 . S
C3382 C3380 1.384 . S
C3382 C3383 1.372 . S
C3383 C3382 1.372 . S
C3383 C3384 1.400 . S
C3383 C3388 1.490 . S
C3384 H3374 0.930 . S
C3384 C3383 1.400 . S
C3384 C3387 1.386 . S
H3385 C3401 0.930 . S
H3386 C3402 0.931 . S
C3387 H3375 0.929 . S
C3387 C3381 1.390 . S
C3387 C3384 1.386 . S
C3388 C3383 1.490 . S
C3388 C3390 1.395 . S
C3388 C3391 1.403 . S
H3389 C3395 0.930 . S
C3390 H3376 0.930 . S
C3390 C3388 1.395 . S
C3390 C3393 1.403 . S
C3391 C3388 1.403 . S
C3391 C3392 1.524 . S
C3391 C3395 1.400 . S
C3392 H3377 0.960 . S
C3392 H3378 0.960 . S
C3392 H3379 0.960 . S
C3392 C3391 1.524 . S
C3393 C3390 1.403 . S
C3393 C3394 1.392 . S
C3393 C3397 1.495 . S
C3394 C3393 1.392 . S
C3394 C3395 1.385 . S
C3394 C3396 1.478 . S
C3395 H3389 0.930 . S
C3395 C3391 1.400 . S
C3395 C3394 1.385 . S
C3396 C3394 1.478 . S
C3396 C3398 1.381 . S
C3396 C3402 1.383 . S
C3397 C3393 1.495 . S
C3397 H3403 0.959 . S
C3397 H3404 0.961 . S
C3397 H3405 0.960 . S
C3398 C3396 1.381 . S
C3398 C3399 1.394 . S
C3398 H3406 0.930 . S
C3399 C3398 1.394 . S
C3399 C3400 1.383 . S
C3399 H3407 0.929 . S
C3400 C3399 1.383 . S
C3400 C3401 1.377 . S
C3401 H3385 0.930 . S
C3401 C3400 1.377 . S
C3401 C3402 1.379 . S
C3402 H3386 0.931 . S
C3402 C3396 1.383 . S
C3402 C3401 1.379 . S
H3403 C3397 0.959 . S
H3404 C3397 0.961 . S
H3405 C3397 0.960 . S
H3406 C3398 0.930 . S
H3407 C3399 0.929 . S
H3408 C3416 0.929 . S
H3409 C3418 0.930 . S
H3410 C3420 0.930 . S
H3411 C3423 0.929 . S
H3412 C3426 0.930 . S
H3413 C3428 0.960 . S
H3414 C3428 0.960 . S
H3415 C3428 0.960 . S
C3416 H3408 0.929 . S
C3416 C3417 1.377 . S
C3416 C3418 1.384 . S
C3417 C3416 1.377 . S
C3417 C3423 1.390 . S
C3418 H3409 0.930 . S
C3418 C3416 1.384 . S
C3418 C3419 1.372 . S
C3419 C3418 1.372 . S
C3419 C3420 1.400 . S
C3419 C3424 1.490 . S
C3420 H3410 0.930 . S
C3420 C3419 1.400 . S
C3420 C3423 1.386 . S
H3421 C3437 0.930 . S
H3422 C3438 0.931 . S
C3423 H3411 0.929 . S
C3423 C3417 1.390 . S
C3423 C3420 1.386 . S
C3424 C3419 1.490 . S
C3424 C3426 1.395 . S
C3424 C3427 1.403 . S
H3425 C3431 0.930 . S
C3426 H3412 0.930 . S
C3426 C3424 1.395 . S
C3426 C3429 1.403 . S
C3427 C3424 1.403 . S
C3427 C3428 1.524 . S
C3427 C3431 1.400 . S
C3428 H3413 0.960 . S
C3428 H3414 0.960 . S
C3428 H3415 0.960 . S
C3428 C3427 1.524 . S
C3429 C3426 1.403 . S
C3429 C3430 1.392 . S
C3429 C3433 1.495 . S
C3430 C3429 1.392 . S
C3430 C3431 1.385 . S
C3430 C3432 1.478 1_655 S
C3431 H3425 0.930 . S
C3431 C3427 1.400 . S
C3431 C3430 1.385 . S
C3432 C3430 1.478 1_455 S
C3432 C3434 1.381 . S
C3432 C3438 1.383 . S
C3433 C3429 1.495 . S
C3433 H3439 0.959 . S
C3433 H3440 0.961 . S
C3433 H3441 0.960 1_655 S
C3434 C3432 1.381 . S
C3434 C3435 1.394 . S
C3434 H3442 0.930 . S
C3435 C3434 1.394 . S
C3435 C3436 1.383 . S
C3435 H3443 0.929 . S
C3436 C3435 1.383 . S
C3436 C3437 1.377 . S
C3437 H3421 0.930 . S
C3437 C3436 1.377 . S
C3437 C3438 1.379 . S
C3438 H3422 0.931 . S
C3438 C3432 1.383 . S
C3438 C3437 1.379 . S
H3439 C3433 0.959 . S
H3440 C3433 0.961 . S
H3441 C3433 0.960 1_455 S
H3442 C3434 0.930 . S
H3443 C3435 0.929 . S
H3444 C3452 0.929 . S
H3445 C3454 0.930 . S
H3446 C3456 0.930 . S
H3447 C3459 0.929 . S
H3448 C3462 0.930 . S
H3449 C3464 0.960 . S
H3450 C3464 0.960 1_545 S
H3451 C3464 0.960 1_545 S
C3452 H3444 0.929 . S
C3452 C3453 1.377 . S
C3452 C3454 1.384 . S
C3453 C3452 1.377 . S
C3453 C3459 1.390 . S
C3454 H3445 0.930 . S
C3454 C3452 1.384 . S
C3454 C3455 1.372 . S
C3455 C3454 1.372 . S
C3455 C3456 1.400 . S
C3455 C3460 1.490 1_545 S
C3456 H3446 0.930 . S
C3456 C3455 1.400 . S
C3456 C3459 1.386 . S
H3457 C3473 0.930 . S
H3458 C3474 0.931 . S
C3459 H3447 0.929 . S
C3459 C3453 1.390 . S
C3459 C3456 1.386 . S
C3460 C3455 1.490 1_565 S
C3460 C3462 1.395 . S
C3460 C3463 1.403 . S
H3461 C3467 0.930 . S
C3462 H3448 0.930 . S
C3462 C3460 1.395 . S
C3462 C3465 1.403 . S
C3463 C3460 1.403 . S
C3463 C3464 1.524 . S
C3463 C3467 1.400 . S
C3464 H3449 0.960 . S
C3464 H3450 0.960 1_565 S
C3464 H3451 0.960 1_565 S
C3464 C3463 1.524 . S
C3465 C3462 1.403 . S
C3465 C3466 1.392 . S
C3465 C3469 1.495 . S
C3466 C3465 1.392 . S
C3466 C3467 1.385 . S
C3466 C3468 1.478 . S
C3467 H3461 0.930 . S
C3467 C3463 1.400 . S
C3467 C3466 1.385 . S
C3468 C3466 1.478 . S
C3468 C3470 1.381 . S
C3468 C3474 1.383 . S
C3469 C3465 1.495 . S
C3469 H3475 0.959 . S
C3469 H3476 0.961 . S
C3469 H3477 0.960 . S
C3470 C3468 1.381 . S
C3470 C3471 1.394 . S
C3470 H3478 0.930 . S
C3471 C3470 1.394 . S
C3471 C3472 1.383 . S
C3471 H3479 0.929 . S
C3472 C3471 1.383 . S
C3472 C3473 1.377 . S
C3473 H3457 0.930 . S
C3473 C3472 1.377 . S
C3473 C3474 1.379 . S
C3474 H3458 0.931 . S
C3474 C3468 1.383 . S
C3474 C3473 1.379 . S
H3475 C3469 0.959 . S
H3476 C3469 0.961 . S
H3477 C3469 0.960 . S
H3478 C3470 0.930 . S
H3479 C3471 0.929 . S
H3480 C3488 0.929 . S
H3481 C3490 0.930 . S
H3482 C3492 0.930 . S
H3483 C3495 0.929 . S
H3484 C3498 0.930 . S
H3485 C3500 0.960 . S
H3486 C3500 0.960 . S
H3487 C3500 0.960 . S
C3488 H3480 0.929 . S
C3488 C3489 1.377 . S
C3488 C3490 1.384 . S
C3489 C3488 1.377 . S
C3489 C3495 1.390 . S
C3490 H3481 0.930 . S
C3490 C3488 1.384 . S
C3490 C3491 1.372 . S
C3491 C3490 1.372 . S
C3491 C3492 1.400 . S
C3491 C3496 1.490 . S
C3492 H3482 0.930 . S
C3492 C3491 1.400 . S
C3492 C3495 1.386 . S
H3493 C3509 0.930 . S
H3494 C3510 0.931 . S
C3495 H3483 0.929 . S
C3495 C3489 1.390 . S
C3495 C3492 1.386 . S
C3496 C3491 1.490 . S
C3496 C3498 1.395 . S
C3496 C3499 1.403 . S
H3497 C3503 0.930 . S
C3498 H3484 0.930 . S
C3498 C3496 1.395 . S
C3498 C3501 1.403 . S
C3499 C3496 1.403 . S
C3499 C3500 1.524 . S
C3499 C3503 1.400 . S
C3500 H3485 0.960 . S
C3500 H3486 0.960 . S
C3500 H3487 0.960 . S
C3500 C3499 1.524 . S
C3501 C3498 1.403 . S
C3501 C3502 1.392 . S
C3501 C3505 1.495 . S
C3502 C3501 1.392 . S
C3502 C3503 1.385 . S
C3502 C3504 1.478 . S
C3503 H3497 0.930 . S
C3503 C3499 1.400 . S
C3503 C3502 1.385 . S
C3504 C3502 1.478 . S
C3504 C3506 1.381 . S
C3504 C3510 1.383 . S
C3505 C3501 1.495 . S
C3505 H3511 0.959 . S
C3505 H3512 0.961 . S
C3505 H3513 0.960 . S
C3506 C3504 1.381 . S
C3506 C3507 1.394 . S
C3506 H3514 0.930 . S
C3507 C3506 1.394 . S
C3507 C3508 1.383 . S
C3507 H3515 0.929 . S
C3508 C3507 1.383 . S
C3508 C3509 1.377 . S
C3509 H3493 0.930 . S
C3509 C3508 1.377 . S
C3509 C3510 1.379 . S
C3510 H3494 0.931 . S
C3510 C3504 1.383 . S
C3510 C3509 1.379 . S
H3511 C3505 0.959 . S
H3512 C3505 0.961 . S
H3513 C3505 0.960 . S
H3514 C3506 0.930 . S
H3515 C3507 0.929 . S
H3516 C3524 0.929 . S
H3517 C3526 0.930 . S
H3518 C3528 0.930 . S
H3519 C3531 0.929 . S
H3520 C3534 0.930 . S
H3521 C3536 0.960 . S
H3522 C3536 0.960 . S
H3523 C3536 0.960 . S
C3524 H3516 0.929 . S
C3524 C3525 1.377 . S
C3524 C3526 1.384 . S
C3525 C3524 1.377 . S
C3525 C3531 1.390 . S
C3526 H3517 0.930 . S
C3526 C3524 1.384 . S
C3526 C3527 1.372 . S
C3527 C3526 1.372 . S
C3527 C3528 1.400 . S
C3527 C3532 1.490 . S
C3528 H3518 0.930 . S
C3528 C3527 1.400 . S
C3528 C3531 1.386 . S
H3529 C3545 0.930 . S
H3530 C3546 0.931 . S
C3531 H3519 0.929 . S
C3531 C3525 1.390 . S
C3531 C3528 1.386 . S
C3532 C3527 1.490 . S
C3532 C3534 1.395 . S
C3532 C3535 1.403 . S
H3533 C3539 0.930 . S
C3534 H3520 0.930 . S
C3534 C3532 1.395 . S
C3534 C3537 1.403 . S
C3535 C3532 1.403 . S
C3535 C3536 1.524 . S
C3535 C3539 1.400 . S
C3536 H3521 0.960 . S
C3536 H3522 0.960 . S
C3536 H3523 0.960 . S
C3536 C3535 1.524 . S
C3537 C3534 1.403 . S
C3537 C3538 1.392 . S
C3537 C3541 1.495 . S
C3538 C3537 1.392 . S
C3538 C3539 1.385 . S
C3538 C3540 1.478 . S
C3539 H3533 0.930 . S
C3539 C3535 1.400 . S
C3539 C3538 1.385 . S
C3540 C3538 1.478 . S
C3540 C3542 1.381 . S
C3540 C3546 1.383 . S
C3541 C3537 1.495 . S
C3541 H3547 0.959 . S
C3541 H3548 0.961 . S
C3541 H3549 0.960 . S
C3542 C3540 1.381 . S
C3542 C3543 1.394 . S
C3542 H3550 0.930 . S
C3543 C3542 1.394 . S
C3543 C3544 1.383 . S
C3543 H3551 0.929 . S
C3544 C3543 1.383 . S
C3544 C3545 1.377 . S
C3545 H3529 0.930 . S
C3545 C3544 1.377 . S
C3545 C3546 1.379 . S
C3546 H3530 0.931 . S
C3546 C3540 1.383 . S
C3546 C3545 1.379 . S
H3547 C3541 0.959 . S
H3548 C3541 0.961 . S
H3549 C3541 0.960 . S
H3550 C3542 0.930 . S
H3551 C3543 0.929 . S
H3552 C3560 0.929 . S
H3553 C3562 0.930 . S
H3554 C3564 0.930 . S
H3555 C3567 0.929 . S
H3556 C3570 0.930 . S
H3557 C3572 0.960 . S
H3558 C3572 0.960 . S
H3559 C3572 0.960 . S
C3560 H3552 0.929 . S
C3560 C3561 1.377 . S
C3560 C3562 1.384 . S
C3561 C3560 1.377 . S
C3561 C3567 1.390 . S
C3562 H3553 0.930 . S
C3562 C3560 1.384 . S
C3562 C3563 1.372 . S
C3563 C3562 1.372 . S
C3563 C3564 1.400 . S
C3563 C3568 1.490 1_455 S
C3564 H3554 0.930 . S
C3564 C3563 1.400 . S
C3564 C3567 1.386 . S
H3565 C3581 0.930 . S
H3566 C3582 0.931 . S
C3567 H3555 0.929 . S
C3567 C3561 1.390 . S
C3567 C3564 1.386 . S
C3568 C3563 1.490 1_655 S
C3568 C3570 1.395 . S
C3568 C3571 1.403 . S
H3569 C3575 0.930 . S
C3570 H3556 0.930 . S
C3570 C3568 1.395 . S
C3570 C3573 1.403 . S
C3571 C3568 1.403 . S
C3571 C3572 1.524 . S
C3571 C3575 1.400 . S
C3572 H3557 0.960 . S
C3572 H3558 0.960 . S
C3572 H3559 0.960 . S
C3572 C3571 1.524 . S
C3573 C3570 1.403 . S
C3573 C3574 1.392 . S
C3573 C3577 1.495 . S
C3574 C3573 1.392 . S
C3574 C3575 1.385 . S
C3574 C3576 1.478 . S
C3575 H3569 0.930 . S
C3575 C3571 1.400 . S
C3575 C3574 1.385 . S
C3576 C3574 1.478 . S
C3576 C3578 1.381 . S
C3576 C3582 1.383 . S
C3577 C3573 1.495 . S
C3577 H3583 0.959 . S
C3577 H3584 0.961 . S
C3577 H3585 0.960 . S
C3578 C3576 1.381 . S
C3578 C3579 1.394 . S
C3578 H3586 0.930 . S
C3579 C3578 1.394 . S
C3579 C3580 1.383 . S
C3579 H3587 0.929 . S
C3580 C3579 1.383 . S
C3580 C3581 1.377 . S
C3581 H3565 0.930 . S
C3581 C3580 1.377 . S
C3581 C3582 1.379 . S
C3582 H3566 0.931 . S
C3582 C3576 1.383 . S
C3582 C3581 1.379 . S
H3583 C3577 0.959 . S
H3584 C3577 0.961 . S
H3585 C3577 0.960 . S
H3586 C3578 0.930 . S
H3587 C3579 0.929 . S
H3588 C3596 0.929 . S
H3589 C3598 0.930 . S
H3590 C3600 0.930 . S
H3591 C3603 0.929 . S
H3592 C3606 0.930 . S
H3593 C3608 0.960 . S
H3594 C3608 0.960 . S
H3595 C3608 0.960 . S
C3596 H3588 0.929 . S
C3596 C3597 1.377 . S
C3596 C3598 1.384 . S
C3597 C3596 1.377 . S
C3597 C3603 1.390 . S
C3598 H3589 0.930 . S
C3598 C3596 1.384 . S
C3598 C3599 1.372 . S
C3599 C3598 1.372 . S
C3599 C3600 1.400 . S
C3599 C3604 1.490 . S
C3600 H3590 0.930 . S
C3600 C3599 1.400 . S
C3600 C3603 1.386 . S
H3601 C3617 0.930 . S
H3602 C3618 0.931 . S
C3603 H3591 0.929 . S
C3603 C3597 1.390 . S
C3603 C3600 1.386 . S
C3604 C3599 1.490 . S
C3604 C3606 1.395 . S
C3604 C3607 1.403 . S
H3605 C3611 0.930 . S
C3606 H3592 0.930 . S
C3606 C3604 1.395 . S
C3606 C3609 1.403 . S
C3607 C3604 1.403 . S
C3607 C3608 1.524 . S
C3607 C3611 1.400 . S
C3608 H3593 0.960 . S
C3608 H3594 0.960 . S
C3608 H3595 0.960 . S
C3608 C3607 1.524 . S
C3609 C3606 1.403 . S
C3609 C3610 1.392 . S
C3609 C3613 1.495 . S
C3610 C3609 1.392 . S
C3610 C3611 1.385 . S
C3610 C3612 1.478 1_565 S
C3611 H3605 0.930 . S
C3611 C3607 1.400 . S
C3611 C3610 1.385 . S
C3612 C3610 1.478 1_545 S
C3612 C3614 1.381 . S
C3612 C3618 1.383 . S
C3613 C3609 1.495 . S
C3613 H3619 0.959 . S
C3613 H3620 0.961 1_565 S
C3613 H3621 0.960 1_565 S
C3614 C3612 1.381 . S
C3614 C3615 1.394 . S
C3614 H3622 0.930 . S
C3615 C3614 1.394 . S
C3615 C3616 1.383 . S
C3615 H3623 0.929 . S
C3616 C3615 1.383 . S
C3616 C3617 1.377 . S
C3617 H3601 0.930 . S
C3617 C3616 1.377 . S
C3617 C3618 1.379 . S
C3618 H3602 0.931 . S
C3618 C3612 1.383 . S
C3618 C3617 1.379 . S
H3619 C3613 0.959 . S
H3620 C3613 0.961 1_545 S
H3621 C3613 0.960 1_545 S
H3622 C3614 0.930 . S
H3623 C3615 0.929 . S
H3624 C3632 0.929 . S
H3625 C3634 0.930 . S
H3626 C3636 0.930 . S
H3627 C3639 0.929 . S
H3628 C3642 0.930 . S
H3629 C3644 0.960 . S
H3630 C3644 0.960 . S
H3631 C3644 0.960 . S
C3632 H3624 0.929 . S
C3632 C3633 1.377 . S
C3632 C3634 1.384 . S
C3633 C3632 1.377 . S
C3633 C3639 1.390 . S
C3634 H3625 0.930 . S
C3634 C3632 1.384 . S
C3634 C3635 1.372 . S
C3635 C3634 1.372 . S
C3635 C3636 1.400 . S
C3635 C3640 1.490 . S
C3636 H3626 0.930 . S
C3636 C3635 1.400 . S
C3636 C3639 1.386 . S
H3637 C3653 0.930 . S
H3638 C3654 0.931 . S
C3639 H3627 0.929 . S
C3639 C3633 1.390 . S
C3639 C3636 1.386 . S
C3640 C3635 1.490 . S
C3640 C3642 1.395 . S
C3640 C3643 1.403 . S
H3641 C3647 0.930 . S
C3642 H3628 0.930 . S
C3642 C3640 1.395 . S
C3642 C3645 1.403 . S
C3643 C3640 1.403 . S
C3643 C3644 1.524 . S
C3643 C3647 1.400 . S
C3644 H3629 0.960 . S
C3644 H3630 0.960 . S
C3644 H3631 0.960 . S
C3644 C3643 1.524 . S
C3645 C3642 1.403 . S
C3645 C3646 1.392 . S
C3645 C3649 1.495 . S
C3646 C3645 1.392 . S
C3646 C3647 1.385 . S
C3646 C3648 1.478 . S
C3647 H3641 0.930 . S
C3647 C3643 1.400 . S
C3647 C3646 1.385 . S
C3648 C3646 1.478 . S
C3648 C3650 1.381 . S
C3648 C3654 1.383 . S
C3649 C3645 1.495 . S
C3649 H3655 0.959 . S
C3649 H3656 0.961 . S
C3649 H3657 0.960 . S
C3650 C3648 1.381 . S
C3650 C3651 1.394 . S
C3650 H3658 0.930 . S
C3651 C3650 1.394 . S
C3651 C3652 1.383 . S
C3651 H3659 0.929 . S
C3652 C3651 1.383 . S
C3652 C3653 1.377 . S
C3653 H3637 0.930 . S
C3653 C3652 1.377 . S
C3653 C3654 1.379 . S
C3654 H3638 0.931 . S
C3654 C3648 1.383 . S
C3654 C3653 1.379 . S
H3655 C3649 0.959 . S
H3656 C3649 0.961 . S
H3657 C3649 0.960 . S
H3658 C3650 0.930 . S
H3659 C3651 0.929 . S
H3660 C3668 0.929 . S
H3661 C3670 0.930 . S
H3662 C3672 0.930 . S
H3663 C3675 0.929 . S
H3664 C3678 0.930 . S
H3665 C3680 0.960 . S
H3666 C3680 0.960 . S
H3667 C3680 0.960 . S
C3668 H3660 0.929 . S
C3668 C3669 1.377 . S
C3668 C3670 1.384 . S
C3669 C3668 1.377 . S
C3669 C3675 1.390 . S
C3670 H3661 0.930 . S
C3670 C3668 1.384 . S
C3670 C3671 1.372 . S
C3671 C3670 1.372 . S
C3671 C3672 1.400 . S
C3671 C3676 1.490 . S
C3672 H3662 0.930 . S
C3672 C3671 1.400 . S
C3672 C3675 1.386 . S
H3673 C3689 0.930 . S
H3674 C3690 0.931 . S
C3675 H3663 0.929 . S
C3675 C3669 1.390 . S
C3675 C3672 1.386 . S
C3676 C3671 1.490 . S
C3676 C3678 1.395 . S
C3676 C3679 1.403 . S
H3677 C3683 0.930 . S
C3678 H3664 0.930 . S
C3678 C3676 1.395 . S
C3678 C3681 1.403 . S
C3679 C3676 1.403 . S
C3679 C3680 1.524 . S
C3679 C3683 1.400 . S
C3680 H3665 0.960 . S
C3680 H3666 0.960 . S
C3680 H3667 0.960 . S
C3680 C3679 1.524 . S
C3681 C3678 1.403 . S
C3681 C3682 1.392 . S
C3681 C3685 1.495 . S
C3682 C3681 1.392 . S
C3682 C3683 1.385 . S
C3682 C3684 1.478 . S
C3683 H3677 0.930 . S
C3683 C3679 1.400 . S
C3683 C3682 1.385 . S
C3684 C3682 1.478 . S
C3684 C3686 1.381 . S
C3684 C3690 1.383 . S
C3685 C3681 1.495 . S
C3685 H3691 0.959 . S
C3685 H3692 0.961 . S
C3685 H3693 0.960 . S
C3686 C3684 1.381 . S
C3686 C3687 1.394 . S
C3686 H3694 0.930 . S
C3687 C3686 1.394 . S
C3687 C3688 1.383 . S
C3687 H3695 0.929 . S
C3688 C3687 1.383 . S
C3688 C3689 1.377 . S
C3689 H3673 0.930 . S
C3689 C3688 1.377 . S
C3689 C3690 1.379 . S
C3690 H3674 0.931 . S
C3690 C3684 1.383 . S
C3690 C3689 1.379 . S
H3691 C3685 0.959 . S
H3692 C3685 0.961 . S
H3693 C3685 0.960 . S
H3694 C3686 0.930 . S
H3695 C3687 0.929 . S
H3696 C3704 0.929 . S
H3697 C3706 0.930 . S
H3698 C3708 0.930 . S
H3699 C3711 0.929 . S
H3700 C3714 0.930 . S
H3701 C3716 0.960 . S
H3702 C3716 0.960 . S
H3703 C3716 0.960 . S
C3704 H3696 0.929 . S
C3704 C3705 1.377 . S
C3704 C3706 1.384 . S
C3705 C3704 1.377 . S
C3705 C3711 1.390 . S
C3706 H3697 0.930 . S
C3706 C3704 1.384 . S
C3706 C3707 1.372 . S
C3707 C3706 1.372 . S
C3707 C3708 1.400 . S
C3707 C3712 1.490 . S
C3708 H3698 0.930 . S
C3708 C3707 1.400 . S
C3708 C3711 1.386 . S
H3709 C3725 0.930 . S
H3710 C3726 0.931 . S
C3711 H3699 0.929 . S
C3711 C3705 1.390 . S
C3711 C3708 1.386 . S
C3712 C3707 1.490 . S
C3712 C3714 1.395 . S
C3712 C3715 1.403 . S
H3713 C3719 0.930 . S
C3714 H3700 0.930 . S
C3714 C3712 1.395 . S
C3714 C3717 1.403 . S
C3715 C3712 1.403 . S
C3715 C3716 1.524 . S
C3715 C3719 1.400 . S
C3716 H3701 0.960 . S
C3716 H3702 0.960 . S
C3716 H3703 0.960 . S
C3716 C3715 1.524 . S
C3717 C3714 1.403 . S
C3717 C3718 1.392 . S
C3717 C3721 1.495 . S
C3718 C3717 1.392 . S
C3718 C3719 1.385 . S
C3718 C3720 1.478 1_565 S
C3719 H3713 0.930 . S
C3719 C3715 1.400 . S
C3719 C3718 1.385 . S
C3720 C3718 1.478 1_545 S
C3720 C3722 1.381 . S
C3720 C3726 1.383 . S
C3721 C3717 1.495 . S
C3721 H3727 0.959 . S
C3721 H3728 0.961 . S
C3721 H3729 0.960 . S
C3722 C3720 1.381 . S
C3722 C3723 1.394 . S
C3722 H3730 0.930 . S
C3723 C3722 1.394 . S
C3723 C3724 1.383 . S
C3723 H3731 0.929 . S
C3724 C3723 1.383 . S
C3724 C3725 1.377 . S
C3725 H3709 0.930 . S
C3725 C3724 1.377 . S
C3725 C3726 1.379 . S
C3726 H3710 0.931 . S
C3726 C3720 1.383 . S
C3726 C3725 1.379 . S
H3727 C3721 0.959 . S
H3728 C3721 0.961 . S
H3729 C3721 0.960 . S
H3730 C3722 0.930 . S
H3731 C3723 0.929 . S
H3732 C3740 0.929 . S
H3733 C3742 0.930 . S
H3734 C3744 0.930 . S
H3735 C3747 0.929 . S
H3736 C3750 0.930 . S
H3737 C3752 0.960 . S
H3738 C3752 0.960 . S
H3739 C3752 0.960 . S
C3740 H3732 0.929 . S
C3740 C3741 1.377 . S
C3740 C3742 1.384 . S
C3741 C3740 1.377 . S
C3741 C3747 1.390 . S
C3742 H3733 0.930 . S
C3742 C3740 1.384 . S
C3742 C3743 1.372 . S
C3743 C3742 1.372 . S
C3743 C3744 1.400 . S
C3743 C3748 1.490 . S
C3744 H3734 0.930 . S
C3744 C3743 1.400 . S
C3744 C3747 1.386 . S
H3745 C3761 0.930 . S
H3746 C3762 0.931 . S
C3747 H3735 0.929 . S
C3747 C3741 1.390 . S
C3747 C3744 1.386 . S
C3748 C3743 1.490 . S
C3748 C3750 1.395 . S
C3748 C3751 1.403 . S
H3749 C3755 0.930 . S
C3750 H3736 0.930 . S
C3750 C3748 1.395 . S
C3750 C3753 1.403 . S
C3751 C3748 1.403 . S
C3751 C3752 1.524 . S
C3751 C3755 1.400 . S
C3752 H3737 0.960 . S
C3752 H3738 0.960 . S
C3752 H3739 0.960 . S
C3752 C3751 1.524 . S
C3753 C3750 1.403 . S
C3753 C3754 1.392 . S
C3753 C3757 1.495 . S
C3754 C3753 1.392 . S
C3754 C3755 1.385 . S
C3754 C3756 1.478 . S
C3755 H3749 0.930 . S
C3755 C3751 1.400 . S
C3755 C3754 1.385 . S
C3756 C3754 1.478 . S
C3756 C3758 1.381 . S
C3756 C3762 1.383 . S
C3757 C3753 1.495 . S
C3757 H3763 0.959 . S
C3757 H3764 0.961 . S
C3757 H3765 0.960 . S
C3758 C3756 1.381 . S
C3758 C3759 1.394 . S
C3758 H3766 0.930 . S
C3759 C3758 1.394 . S
C3759 C3760 1.383 . S
C3759 H3767 0.929 . S
C3760 C3759 1.383 . S
C3760 C3761 1.377 . S
C3761 H3745 0.930 . S
C3761 C3760 1.377 . S
C3761 C3762 1.379 . S
C3762 H3746 0.931 . S
C3762 C3756 1.383 . S
C3762 C3761 1.379 . S
H3763 C3757 0.959 . S
H3764 C3757 0.961 . S
H3765 C3757 0.960 . S
H3766 C3758 0.930 . S
H3767 C3759 0.929 . S
H3768 C3776 0.929 . S
H3769 C3778 0.930 . S
H3770 C3780 0.930 . S
H3771 C3783 0.929 . S
H3772 C3786 0.930 . S
H3773 C3788 0.960 . S
H3774 C3788 0.960 . S
H3775 C3788 0.960 . S
C3776 H3768 0.929 . S
C3776 C3777 1.377 . S
C3776 C3778 1.384 . S
C3777 C3776 1.377 . S
C3777 C3783 1.390 . S
C3778 H3769 0.930 . S
C3778 C3776 1.384 . S
C3778 C3779 1.372 . S
C3779 C3778 1.372 . S
C3779 C3780 1.400 . S
C3779 C3784 1.490 . S
C3780 H3770 0.930 . S
C3780 C3779 1.400 . S
C3780 C3783 1.386 . S
H3781 C3797 0.930 . S
H3782 C3798 0.931 . S
C3783 H3771 0.929 . S
C3783 C3777 1.390 . S
C3783 C3780 1.386 . S
C3784 C3779 1.490 . S
C3784 C3786 1.395 . S
C3784 C3787 1.403 . S
H3785 C3791 0.930 . S
C3786 H3772 0.930 . S
C3786 C3784 1.395 . S
C3786 C3789 1.403 . S
C3787 C3784 1.403 . S
C3787 C3788 1.524 . S
C3787 C3791 1.400 . S
C3788 H3773 0.960 . S
C3788 H3774 0.960 . S
C3788 H3775 0.960 . S
C3788 C3787 1.524 . S
C3789 C3786 1.403 . S
C3789 C3790 1.392 . S
C3789 C3793 1.495 . S
C3790 C3789 1.392 . S
C3790 C3791 1.385 . S
C3790 C3792 1.478 1_655 S
C3791 H3785 0.930 . S
C3791 C3787 1.400 . S
C3791 C3790 1.385 . S
C3792 C3790 1.478 1_455 S
C3792 C3794 1.381 . S
C3792 C3798 1.383 . S
C3793 C3789 1.495 . S
C3793 H3799 0.959 . S
C3793 H3800 0.961 1_655 S
C3793 H3801 0.960 1_655 S
C3794 C3792 1.381 . S
C3794 C3795 1.394 . S
C3794 H3802 0.930 . S
C3795 C3794 1.394 . S
C3795 C3796 1.383 . S
C3795 H3803 0.929 . S
C3796 C3795 1.383 . S
C3796 C3797 1.377 . S
C3797 H3781 0.930 . S
C3797 C3796 1.377 . S
C3797 C3798 1.379 . S
C3798 H3782 0.931 . S
C3798 C3792 1.383 . S
C3798 C3797 1.379 . S
H3799 C3793 0.959 . S
H3800 C3793 0.961 1_455 S
H3801 C3793 0.960 1_455 S
H3802 C3794 0.930 . S
H3803 C3795 0.929 . S
H3804 C3812 0.929 . S
H3805 C3814 0.930 . S
H3806 C3816 0.930 . S
H3807 C3819 0.929 . S
H3808 C3822 0.930 . S
H3809 C3824 0.960 . S
H3810 C3824 0.933 1_545 S
H3811 C3824 0.960 1_545 S
C3812 H3804 0.929 . S
C3812 C3813 1.377 . S
C3812 C3814 1.384 . S
C3813 C3812 1.377 . S
C3813 C3819 1.390 . S
C3814 H3805 0.930 . S
C3814 C3812 1.384 . S
C3814 C3815 1.372 . S
C3815 C3814 1.372 . S
C3815 C3816 1.400 . S
C3815 C3820 1.490 1_545 S
C3816 H3806 0.930 . S
C3816 C3815 1.400 . S
C3816 C3819 1.386 . S
H3817 C3833 0.930 . S
H3818 C3834 0.931 . S
C3819 H3807 0.929 . S
C3819 C3813 1.390 . S
C3819 C3816 1.386 . S
C3820 C3815 1.490 1_565 S
C3820 C3822 1.395 . S
C3820 C3823 1.403 . S
H3821 C3827 0.930 . S
C3822 H3808 0.930 . S
C3822 C3820 1.395 . S
C3822 C3825 1.403 . S
C3823 C3820 1.403 . S
C3823 C3824 1.524 . S
C3823 C3827 1.400 . S
C3824 H3809 0.960 . S
C3824 H3810 0.933 1_565 S
C3824 H3811 0.960 1_565 S
C3824 C3823 1.524 . S
C3825 C3822 1.403 . S
C3825 C3826 1.392 . S
C3825 C3829 1.495 . S
C3826 C3825 1.392 . S
C3826 C3827 1.385 . S
C3826 C3828 1.478 . S
C3827 H3821 0.930 . S
C3827 C3823 1.400 . S
C3827 C3826 1.385 . S
C3828 C3826 1.478 . S
C3828 C3830 1.381 . S
C3828 C3834 1.383 . S
C3829 C3825 1.495 . S
C3829 H3835 0.959 . S
C3829 H3836 0.961 . S
C3829 H3837 0.960 . S
C3830 C3828 1.381 . S
C3830 C3831 1.394 . S
C3830 H3838 0.930 . S
C3831 C3830 1.394 . S
C3831 C3832 1.383 . S
C3831 H3839 0.929 . S
C3832 C3831 1.383 . S
C3832 C3833 1.377 . S
C3833 H3817 0.930 . S
C3833 C3832 1.377 . S
C3833 C3834 1.379 . S
C3834 H3818 0.931 . S
C3834 C3828 1.383 . S
C3834 C3833 1.379 . S
H3835 C3829 0.959 . S
H3836 C3829 0.961 . S
H3837 C3829 0.960 . S
H3838 C3830 0.930 . S
H3839 C3831 0.929 . S
H3840 C3848 0.929 . S
H3841 C3850 0.930 . S
H3842 C3852 0.930 . S
H3843 C3855 0.929 . S
H3844 C3858 0.930 . S
H3845 C3860 0.960 . S
H3846 C3860 0.960 . S
H3847 C3860 0.960 . S
C3848 H3840 0.929 . S
C3848 C3849 1.377 . S
C3848 C3850 1.384 . S
C3849 C3848 1.377 . S
C3849 C3855 1.390 . S
C3850 H3841 0.930 . S
C3850 C3848 1.384 . S
C3850 C3851 1.372 . S
C3851 C3850 1.372 . S
C3851 C3852 1.400 . S
C3851 C3856 1.490 . S
C3852 H3842 0.930 . S
C3852 C3851 1.400 . S
C3852 C3855 1.386 . S
H3853 C3869 0.930 . S
H3854 C3870 0.931 . S
C3855 H3843 0.929 . S
C3855 C3849 1.390 . S
C3855 C3852 1.386 . S
C3856 C3851 1.490 . S
C3856 C3858 1.395 . S
C3856 C3859 1.403 . S
H3857 C3863 0.930 . S
C3858 H3844 0.930 . S
C3858 C3856 1.395 . S
C3858 C3861 1.403 . S
C3859 C3856 1.403 . S
C3859 C3860 1.524 . S
C3859 C3863 1.400 . S
C3860 H3845 0.960 . S
C3860 H3846 0.960 . S
C3860 H3847 0.960 . S
C3860 C3859 1.524 . S
C3861 C3858 1.403 . S
C3861 C3862 1.392 . S
C3861 C3865 1.495 . S
C3862 C3861 1.392 . S
C3862 C3863 1.385 . S
C3862 C3864 1.478 . S
C3863 H3857 0.930 . S
C3863 C3859 1.400 . S
C3863 C3862 1.385 . S
C3864 C3862 1.478 . S
C3864 C3866 1.381 . S
C3864 C3870 1.383 . S
C3865 C3861 1.495 . S
C3865 H3871 0.959 . S
C3865 H3872 0.961 . S
C3865 H3873 0.960 . S
C3866 C3864 1.381 . S
C3866 C3867 1.394 . S
C3866 H3874 0.930 . S
C3867 C3866 1.394 . S
C3867 C3868 1.383 . S
C3867 H3875 0.929 . S
C3868 C3867 1.383 . S
C3868 C3869 1.377 . S
C3869 H3853 0.930 . S
C3869 C3868 1.377 . S
C3869 C3870 1.379 . S
C3870 H3854 0.931 . S
C3870 C3864 1.383 . S
C3870 C3869 1.379 . S
H3871 C3865 0.959 . S
H3872 C3865 0.961 . S
H3873 C3865 0.960 . S
H3874 C3866 0.930 . S
H3875 C3867 0.929 . S
H3876 C3884 0.929 . S
H3877 C3886 0.930 . S
H3878 C3888 0.930 . S
H3879 C3891 0.929 . S
H3880 C3894 0.930 . S
H3881 C3896 0.960 . S
H3882 C3896 0.960 . S
H3883 C3896 0.960 . S
C3884 H3876 0.929 . S
C3884 C3885 1.377 . S
C3884 C3886 1.384 . S
C3885 C3884 1.377 . S
C3885 C3891 1.390 . S
C3886 H3877 0.930 . S
C3886 C3884 1.384 . S
C3886 C3887 1.372 . S
C3887 C3886 1.372 . S
C3887 C3888 1.400 . S
C3887 C3892 1.490 . S
C3888 H3878 0.930 . S
C3888 C3887 1.400 . S
C3888 C3891 1.386 . S
H3889 C3905 0.930 . S
H3890 C3906 0.931 . S
C3891 H3879 0.929 . S
C3891 C3885 1.390 . S
C3891 C3888 1.386 . S
C3892 C3887 1.490 . S
C3892 C3894 1.395 . S
C3892 C3895 1.403 . S
H3893 C3899 0.930 . S
C3894 H3880 0.930 . S
C3894 C3892 1.395 . S
C3894 C3897 1.403 . S
C3895 C3892 1.403 . S
C3895 C3896 1.524 . S
C3895 C3899 1.400 . S
C3896 H3881 0.960 . S
C3896 H3882 0.960 . S
C3896 H3883 0.960 . S
C3896 C3895 1.524 . S
C3897 C3894 1.403 . S
C3897 C3898 1.392 . S
C3897 C3901 1.495 . S
C3898 C3897 1.392 . S
C3898 C3899 1.385 . S
C3898 C3900 1.478 . S
C3899 H3893 0.930 . S
C3899 C3895 1.400 . S
C3899 C3898 1.385 . S
C3900 C3898 1.478 . S
C3900 C3902 1.381 . S
C3900 C3906 1.383 . S
C3901 C3897 1.495 . S
C3901 H3907 0.959 . S
C3901 H3908 0.961 . S
C3901 H3909 0.960 . S
C3902 C3900 1.381 . S
C3902 C3903 1.394 . S
C3902 H3910 0.930 . S
C3903 C3902 1.394 . S
C3903 C3904 1.383 . S
C3903 H3911 0.929 . S
C3904 C3903 1.383 . S
C3904 C3905 1.377 . S
C3905 H3889 0.930 . S
C3905 C3904 1.377 . S
C3905 C3906 1.379 . S
C3906 H3890 0.931 . S
C3906 C3900 1.383 . S
C3906 C3905 1.379 . S
H3907 C3901 0.959 . S
H3908 C3901 0.961 . S
H3909 C3901 0.960 . S
H3910 C3902 0.930 . S
H3911 C3903 0.929 . S
H3912 C3920 0.929 . S
H3913 C3922 0.930 . S
H3914 C3924 0.930 . S
H3915 C3927 0.929 . S
H3916 C3930 0.930 . S
H3917 C3932 0.960 . S
H3918 C3932 0.960 1_455 S
H3919 C3932 0.960 1_455 S
C3920 H3912 0.929 . S
C3920 C3921 1.377 . S
C3920 C3922 1.384 . S
C3921 C3920 1.377 . S
C3921 C3927 1.390 . S
C3922 H3913 0.930 . S
C3922 C3920 1.384 . S
C3922 C3923 1.372 . S
C3923 C3922 1.372 . S
C3923 C3924 1.400 . S
C3923 C3928 1.490 1_455 S
C3924 H3914 0.930 . S
C3924 C3923 1.400 . S
C3924 C3927 1.386 . S
H3925 C3941 0.930 . S
H3926 C3942 0.931 . S
C3927 H3915 0.929 . S
C3927 C3921 1.390 . S
C3927 C3924 1.386 . S
C3928 C3923 1.490 1_655 S
C3928 C3930 1.395 . S
C3928 C3931 1.403 . S
H3929 C3935 0.930 . S
C3930 H3916 0.930 . S
C3930 C3928 1.395 . S
C3930 C3933 1.403 . S
C3931 C3928 1.403 . S
C3931 C3932 1.524 . S
C3931 C3935 1.400 . S
C3932 H3917 0.960 . S
C3932 H3918 0.960 1_655 S
C3932 H3919 0.960 1_655 S
C3932 C3931 1.524 . S
C3933 C3930 1.403 . S
C3933 C3934 1.392 . S
C3933 C3937 1.495 . S
C3934 C3933 1.392 . S
C3934 C3935 1.385 . S
C3934 C3936 1.478 . S
C3935 H3929 0.930 . S
C3935 C3931 1.400 . S
C3935 C3934 1.385 . S
C3936 C3934 1.478 . S
C3936 C3938 1.381 . S
C3936 C3942 1.383 . S
C3937 C3933 1.495 . S
C3937 H3943 0.959 . S
C3937 H3944 0.961 . S
C3937 H3945 0.960 . S
C3938 C3936 1.381 . S
C3938 C3939 1.394 . S
C3938 H3946 0.930 . S
C3939 C3938 1.394 . S
C3939 C3940 1.383 . S
C3939 H3947 0.929 . S
C3940 C3939 1.383 . S
C3940 C3941 1.377 . S
C3941 H3925 0.930 . S
C3941 C3940 1.377 . S
C3941 C3942 1.379 . S
C3942 H3926 0.931 . S
C3942 C3936 1.383 . S
C3942 C3941 1.379 . S
H3943 C3937 0.959 . S
H3944 C3937 0.961 . S
H3945 C3937 0.960 . S
H3946 C3938 0.930 . S
H3947 C3939 0.929 . S
H3948 C3956 0.929 . S
H3949 C3958 0.930 . S
H3950 C3960 0.930 . S
H3951 C3963 0.929 . S
H3952 C3966 0.930 . S
H3953 C3968 0.960 . S
H3954 C3968 0.960 . S
H3955 C3968 0.960 . S
C3956 H3948 0.929 . S
C3956 C3957 1.377 . S
C3956 C3958 1.384 . S
C3957 C3956 1.377 . S
C3957 C3963 1.390 . S
C3958 H3949 0.930 . S
C3958 C3956 1.384 . S
C3958 C3959 1.372 . S
C3959 C3958 1.372 . S
C3959 C3960 1.400 . S
C3959 C3964 1.490 . S
C3960 H3950 0.930 . S
C3960 C3959 1.400 . S
C3960 C3963 1.386 . S
H3961 C3977 0.930 . S
H3962 C3978 0.931 . S
C3963 H3951 0.929 . S
C3963 C3957 1.390 . S
C3963 C3960 1.386 . S
C3964 C3959 1.490 . S
C3964 C3966 1.395 . S
C3964 C3967 1.403 . S
H3965 C3971 0.930 . S
C3966 H3952 0.930 . S
C3966 C3964 1.395 . S
C3966 C3969 1.403 . S
C3967 C3964 1.403 . S
C3967 C3968 1.524 . S
C3967 C3971 1.400 . S
C3968 H3953 0.960 . S
C3968 H3954 0.960 . S
C3968 H3955 0.960 . S
C3968 C3967 1.524 . S
C3969 C3966 1.403 . S
C3969 C3970 1.392 . S
C3969 C3973 1.495 . S
C3970 C3969 1.392 . S
C3970 C3971 1.385 . S
C3970 C3972 1.478 . S
C3971 H3965 0.930 . S
C3971 C3967 1.400 . S
C3971 C3970 1.385 . S
C3972 C3970 1.478 . S
C3972 C3974 1.381 . S
C3972 C3978 1.383 . S
C3973 C3969 1.495 . S
C3973 H3979 0.959 . S
C3973 H3980 0.961 . S
C3973 H3981 0.960 . S
C3974 C3972 1.381 . S
C3974 C3975 1.394 . S
C3974 H3982 0.930 . S
C3975 C3974 1.394 . S
C3975 C3976 1.383 . S
C3975 H3983 0.929 . S
C3976 C3975 1.383 . S
C3976 C3977 1.377 . S
C3977 H3961 0.930 . S
C3977 C3976 1.377 . S
C3977 C3978 1.379 . S
C3978 H3962 0.931 . S
C3978 C3972 1.383 . S
C3978 C3977 1.379 . S
H3979 C3973 0.959 . S
H3980 C3973 0.961 . S
H3981 C3973 0.960 . S
H3982 C3974 0.930 . S
H3983 C3975 0.929 . S
H3984 C3992 0.929 . S
H3985 C3994 0.930 . S
H3986 C3996 0.930 . S
H3987 C3999 0.929 . S
H3988 C4002 0.930 . S
H3989 C4004 0.960 . S
H3990 C4004 0.960 . S
H3991 C4004 0.960 . S
C3992 H3984 0.929 . S
C3992 C3993 1.377 . S
C3992 C3994 1.384 . S
C3993 C3992 1.377 . S
C3993 C3999 1.390 . S
C3994 H3985 0.930 . S
C3994 C3992 1.384 . S
C3994 C3995 1.372 . S
C3995 C3994 1.372 . S
C3995 C3996 1.400 . S
C3995 C4000 1.490 . S
C3996 H3986 0.930 . S
C3996 C3995 1.400 . S
C3996 C3999 1.386 . S
H3997 C4013 0.930 . S
H3998 C4014 0.931 . S
C3999 H3987 0.929 . S
C3999 C3993 1.390 . S
C3999 C3996 1.386 . S
C4000 C3995 1.490 . S
C4000 C4002 1.395 . S
C4000 C4003 1.403 . S
H4001 C4007 0.930 . S
C4002 H3988 0.930 . S
C4002 C4000 1.395 . S
C4002 C4005 1.403 . S
C4003 C4000 1.403 . S
C4003 C4004 1.524 . S
C4003 C4007 1.400 . S
C4004 H3989 0.960 . S
C4004 H3990 0.960 . S
C4004 H3991 0.960 . S
C4004 C4003 1.524 . S
C4005 C4002 1.403 . S
C4005 C4006 1.392 . S
C4005 C4009 1.495 . S
C4006 C4005 1.392 . S
C4006 C4007 1.385 . S
C4006 C4008 1.478 . S
C4007 H4001 0.930 . S
C4007 C4003 1.400 . S
C4007 C4006 1.385 . S
C4008 C4006 1.478 . S
C4008 C4010 1.381 . S
C4008 C4014 1.383 . S
C4009 C4005 1.495 . S
C4009 H4015 0.959 . S
C4009 H4016 0.961 . S
C4009 H4017 0.960 . S
C4010 C4008 1.381 . S
C4010 C4011 1.394 . S
C4010 H4018 0.930 . S
C4011 C4010 1.394 . S
C4011 C4012 1.383 . S
C4011 H4019 0.929 . S
C4012 C4011 1.383 . S
C4012 C4013 1.377 . S
C4013 H3997 0.930 . S
C4013 C4012 1.377 . S
C4013 C4014 1.379 . S
C4014 H3998 0.931 . S
C4014 C4008 1.383 . S
C4014 C4013 1.379 . S
H4015 C4009 0.959 . S
H4016 C4009 0.961 . S
H4017 C4009 0.960 . S
H4018 C4010 0.930 . S
H4019 C4011 0.929 . S
H4020 C4028 0.929 . S
H4021 C4030 0.930 . S
H4022 C4032 0.930 . S
H4023 C4035 0.929 . S
H4024 C4038 0.930 . S
H4025 C4040 0.960 . S
H4026 C4040 0.960 . S
H4027 C4040 0.960 . S
C4028 H4020 0.929 . S
C4028 C4029 1.377 . S
C4028 C4030 1.384 . S
C4029 C4028 1.377 . S
C4029 C4035 1.390 . S
C4030 H4021 0.930 . S
C4030 C4028 1.384 . S
C4030 C4031 1.372 . S
C4031 C4030 1.372 . S
C4031 C4032 1.400 . S
C4031 C4036 1.490 . S
C4032 H4022 0.930 . S
C4032 C4031 1.400 . S
C4032 C4035 1.386 . S
H4033 C4049 0.930 . S
H4034 C4050 0.931 . S
C4035 H4023 0.929 . S
C4035 C4029 1.390 . S
C4035 C4032 1.386 . S
C4036 C4031 1.490 . S
C4036 C4038 1.395 . S
C4036 C4039 1.403 . S
H4037 C4043 0.930 . S
C4038 H4024 0.930 . S
C4038 C4036 1.395 . S
C4038 C4041 1.403 . S
C4039 C4036 1.403 . S
C4039 C4040 1.524 . S
C4039 C4043 1.400 . S
C4040 H4025 0.960 . S
C4040 H4026 0.960 . S
C4040 H4027 0.960 . S
C4040 C4039 1.524 . S
C4041 C4038 1.403 . S
C4041 C4042 1.392 . S
C4041 C4045 1.495 . S
C4042 C4041 1.392 . S
C4042 C4043 1.385 . S
C4042 C4044 1.478 . S
C4043 H4037 0.930 . S
C4043 C4039 1.400 . S
C4043 C4042 1.385 . S
C4044 C4042 1.478 . S
C4044 C4046 1.381 . S
C4044 C4050 1.383 . S
C4045 C4041 1.495 . S
C4045 H4051 0.959 . S
C4045 H4052 0.961 . S
C4045 H4053 0.960 . S
C4046 C4044 1.381 . S
C4046 C4047 1.394 . S
C4046 H4054 0.930 . S
C4047 C4046 1.394 . S
C4047 C4048 1.383 . S
C4047 H4055 0.929 . S
C4048 C4047 1.383 . S
C4048 C4049 1.377 . S
C4049 H4033 0.930 . S
C4049 C4048 1.377 . S
C4049 C4050 1.379 . S
C4050 H4034 0.931 . S
C4050 C4044 1.383 . S
C4050 C4049 1.379 . S
H4051 C4045 0.959 . S
H4052 C4045 0.961 . S
H4053 C4045 0.960 . S
H4054 C4046 0.930 . S
H4055 C4047 0.929 . S
H4056 C4064 0.929 . S
H4057 C4066 0.930 . S
H4058 C4068 0.930 . S
H4059 C4071 0.929 . S
H4060 C4074 0.930 . S
H4061 C4076 0.960 . S
H4062 C4076 0.960 . S
H4063 C4076 0.960 . S
C4064 H4056 0.929 . S
C4064 C4065 1.377 . S
C4064 C4066 1.384 . S
C4065 C4064 1.377 . S
C4065 C4071 1.390 . S
C4066 H4057 0.930 . S
C4066 C4064 1.384 . S
C4066 C4067 1.372 . S
C4067 C4066 1.372 . S
C4067 C4068 1.400 . S
C4067 C4072 1.490 . S
C4068 H4058 0.930 . S
C4068 C4067 1.400 . S
C4068 C4071 1.386 . S
H4069 C4085 0.930 . S
H4070 C4086 0.931 . S
C4071 H4059 0.929 . S
C4071 C4065 1.390 . S
C4071 C4068 1.386 . S
C4072 C4067 1.490 . S
C4072 C4074 1.395 . S
C4072 C4075 1.403 . S
H4073 C4079 0.930 . S
C4074 H4060 0.930 . S
C4074 C4072 1.395 . S
C4074 C4077 1.403 . S
C4075 C4072 1.403 . S
C4075 C4076 1.524 . S
C4075 C4079 1.400 . S
C4076 H4061 0.960 . S
C4076 H4062 0.960 . S
C4076 H4063 0.960 . S
C4076 C4075 1.524 . S
C4077 C4074 1.403 . S
C4077 C4078 1.392 . S
C4077 C4081 1.495 . S
C4078 C4077 1.392 . S
C4078 C4079 1.385 . S
C4078 C4080 1.478 . S
C4079 H4073 0.930 . S
C4079 C4075 1.400 . S
C4079 C4078 1.385 . S
C4080 C4078 1.478 . S
C4080 C4082 1.381 . S
C4080 C4086 1.383 . S
C4081 C4077 1.495 . S
C4081 H4087 0.959 . S
C4081 H4088 0.961 . S
C4081 H4089 0.960 . S
C4082 C4080 1.381 . S
C4082 C4083 1.394 . S
C4082 H4090 0.930 . S
C4083 C4082 1.394 . S
C4083 C4084 1.383 . S
C4083 H4091 0.929 . S
C4084 C4083 1.383 . S
C4084 C4085 1.377 . S
C4085 H4069 0.930 . S
C4085 C4084 1.377 . S
C4085 C4086 1.379 . S
C4086 H4070 0.931 . S
C4086 C4080 1.383 . S
C4086 C4085 1.379 . S
H4087 C4081 0.959 . S
H4088 C4081 0.961 . S
H4089 C4081 0.960 . S
H4090 C4082 0.930 . S
H4091 C4083 0.929 . S
H4092 C4100 0.929 . S
H4093 C4102 0.930 . S
H4094 C4104 0.930 . S
H4095 C4107 0.929 . S
H4096 C4110 0.930 . S
H4097 C4112 0.960 . S
H4098 C4112 0.960 . S
H4099 C4112 0.960 . S
C4100 H4092 0.929 . S
C4100 C4101 1.377 . S
C4100 C4102 1.384 . S
C4101 C4100 1.377 . S
C4101 C4107 1.390 . S
C4102 H4093 0.930 . S
C4102 C4100 1.384 . S
C4102 C4103 1.372 . S
C4103 C4102 1.372 . S
C4103 C4104 1.400 . S
C4103 C4108 1.490 . S
C4104 H4094 0.930 . S
C4104 C4103 1.400 . S
C4104 C4107 1.386 . S
H4105 C4121 0.930 . S
H4106 C4122 0.931 . S
C4107 H4095 0.929 . S
C4107 C4101 1.390 . S
C4107 C4104 1.386 . S
C4108 C4103 1.490 . S
C4108 C4110 1.395 . S
C4108 C4111 1.403 . S
H4109 C4115 0.930 . S
C4110 H4096 0.930 . S
C4110 C4108 1.395 . S
C4110 C4113 1.403 . S
C4111 C4108 1.403 . S
C4111 C4112 1.524 . S
C4111 C4115 1.400 . S
C4112 H4097 0.960 . S
C4112 H4098 0.960 . S
C4112 H4099 0.960 . S
C4112 C4111 1.524 . S
C4113 C4110 1.403 . S
C4113 C4114 1.392 . S
C4113 C4117 1.495 . S
C4114 C4113 1.392 . S
C4114 C4115 1.385 . S
C4114 C4116 1.478 . S
C4115 H4109 0.930 . S
C4115 C4111 1.400 . S
C4115 C4114 1.385 . S
C4116 C4114 1.478 . S
C4116 C4118 1.381 . S
C4116 C4122 1.383 . S
C4117 C4113 1.495 . S
C4117 H4123 0.959 . S
C4117 H4124 0.961 . S
C4117 H4125 0.960 . S
C4118 C4116 1.381 . S
C4118 C4119 1.394 . S
C4118 H4126 0.930 . S
C4119 C4118 1.394 . S
C4119 C4120 1.383 . S
C4119 H4127 0.929 . S
C4120 C4119 1.383 . S
C4120 C4121 1.377 . S
C4121 H4105 0.930 . S
C4121 C4120 1.377 . S
C4121 C4122 1.379 . S
C4122 H4106 0.931 . S
C4122 C4116 1.383 . S
C4122 C4121 1.379 . S
H4123 C4117 0.959 . S
H4124 C4117 0.961 . S
H4125 C4117 0.960 . S
H4126 C4118 0.930 . S
H4127 C4119 0.929 . S
H4128 C4136 0.929 . S
H4129 C4138 0.930 . S
H4130 C4140 0.930 . S
H4131 C4143 0.929 . S
H4132 C4146 0.930 . S
H4133 C4148 0.960 . S
H4134 C4148 0.960 . S
H4135 C4148 0.960 . S
C4136 H4128 0.929 . S
C4136 C4137 1.377 . S
C4136 C4138 1.384 . S
C4137 C4136 1.377 . S
C4137 C4143 1.390 . S
C4138 H4129 0.930 . S
C4138 C4136 1.384 . S
C4138 C4139 1.372 . S
C4139 C4138 1.372 . S
C4139 C4140 1.400 . S
C4139 C4144 1.490 . S
C4140 H4130 0.930 . S
C4140 C4139 1.400 . S
C4140 C4143 1.386 . S
H4141 C4157 0.930 . S
H4142 C4158 0.931 . S
C4143 H4131 0.929 . S
C4143 C4137 1.390 . S
C4143 C4140 1.386 . S
C4144 C4139 1.490 . S
C4144 C4146 1.395 . S
C4144 C4147 1.403 . S
H4145 C4151 0.930 . S
C4146 H4132 0.930 . S
C4146 C4144 1.395 . S
C4146 C4149 1.403 . S
C4147 C4144 1.403 . S
C4147 C4148 1.524 . S
C4147 C4151 1.400 . S
C4148 H4133 0.960 . S
C4148 H4134 0.960 . S
C4148 H4135 0.960 . S
C4148 C4147 1.524 . S
C4149 C4146 1.403 . S
C4149 C4150 1.392 . S
C4149 C4153 1.495 . S
C4150 C4149 1.392 . S
C4150 C4151 1.385 . S
C4150 C4152 1.478 . S
C4151 H4145 0.930 . S
C4151 C4147 1.400 . S
C4151 C4150 1.385 . S
C4152 C4150 1.478 . S
C4152 C4154 1.381 . S
C4152 C4158 1.383 . S
C4153 C4149 1.495 . S
C4153 H4159 0.959 . S
C4153 H4160 0.961 . S
C4153 H4161 0.960 . S
C4154 C4152 1.381 . S
C4154 C4155 1.394 . S
C4154 H4162 0.930 . S
C4155 C4154 1.394 . S
C4155 C4156 1.383 . S
C4155 H4163 0.929 . S
C4156 C4155 1.383 . S
C4156 C4157 1.377 . S
C4157 H4141 0.930 . S
C4157 C4156 1.377 . S
C4157 C4158 1.379 . S
C4158 H4142 0.931 . S
C4158 C4152 1.383 . S
C4158 C4157 1.379 . S
H4159 C4153 0.959 . S
H4160 C4153 0.961 . S
H4161 C4153 0.960 . S
H4162 C4154 0.930 . S
H4163 C4155 0.929 . S
H4164 C4172 0.929 . S
H4165 C4174 0.930 . S
H4166 C4176 0.930 . S
H4167 C4179 0.929 . S
H4168 C4182 0.930 . S
H4169 C4184 0.960 . S
H4170 C4184 0.960 . S
H4171 C4184 0.960 . S
C4172 H4164 0.929 . S
C4172 C4173 1.377 . S
C4172 C4174 1.384 . S
C4173 C4172 1.377 . S
C4173 C4179 1.390 . S
C4174 H4165 0.930 . S
C4174 C4172 1.384 . S
C4174 C4175 1.372 . S
C4175 C4174 1.372 . S
C4175 C4176 1.400 . S
C4175 C4180 1.490 . S
C4176 H4166 0.930 . S
C4176 C4175 1.400 . S
C4176 C4179 1.386 . S
H4177 C4193 0.930 . S
H4178 C4194 0.931 . S
C4179 H4167 0.929 . S
C4179 C4173 1.390 . S
C4179 C4176 1.386 . S
C4180 C4175 1.490 . S
C4180 C4182 1.395 . S
C4180 C4183 1.403 . S
H4181 C4187 0.930 . S
C4182 H4168 0.930 . S
C4182 C4180 1.395 . S
C4182 C4185 1.403 . S
C4183 C4180 1.403 . S
C4183 C4184 1.524 . S
C4183 C4187 1.400 . S
C4184 H4169 0.960 . S
C4184 H4170 0.960 . S
C4184 H4171 0.960 . S
C4184 C4183 1.524 . S
C4185 C4182 1.403 . S
C4185 C4186 1.392 . S
C4185 C4189 1.495 . S
C4186 C4185 1.392 . S
C4186 C4187 1.385 . S
C4186 C4188 1.478 . S
C4187 H4181 0.930 . S
C4187 C4183 1.400 . S
C4187 C4186 1.385 . S
C4188 C4186 1.478 . S
C4188 C4190 1.381 . S
C4188 C4194 1.383 . S
C4189 C4185 1.495 . S
C4189 H4195 0.959 . S
C4189 H4196 0.961 . S
C4189 H4197 0.960 . S
C4190 C4188 1.381 . S
C4190 C4191 1.394 . S
C4190 H4198 0.930 . S
C4191 C4190 1.394 . S
C4191 C4192 1.383 . S
C4191 H4199 0.929 . S
C4192 C4191 1.383 . S
C4192 C4193 1.377 . S
C4193 H4177 0.930 . S
C4193 C4192 1.377 . S
C4193 C4194 1.379 . S
C4194 H4178 0.931 . S
C4194 C4188 1.383 . S
C4194 C4193 1.379 . S
H4195 C4189 0.959 . S
H4196 C4189 0.961 . S
H4197 C4189 0.960 . S
H4198 C4190 0.930 . S
H4199 C4191 0.929 . S
H4200 C4208 0.929 . S
H4201 C4210 0.930 . S
H4202 C4212 0.930 . S
H4203 C4215 0.929 . S
H4204 C4218 0.930 . S
H4205 C4220 0.960 . S
H4206 C4220 0.960 . S
H4207 C4220 0.960 . S
C4208 H4200 0.929 . S
C4208 C4209 1.377 . S
C4208 C4210 1.384 . S
C4209 C4208 1.377 . S
C4209 C4215 1.390 . S
C4210 H4201 0.930 . S
C4210 C4208 1.384 . S
C4210 C4211 1.372 . S
C4211 C4210 1.372 . S
C4211 C4212 1.400 . S
C4211 C4216 1.490 . S
C4212 H4202 0.930 . S
C4212 C4211 1.400 . S
C4212 C4215 1.386 . S
H4213 C4229 0.930 . S
H4214 C4230 0.931 . S
C4215 H4203 0.929 . S
C4215 C4209 1.390 . S
C4215 C4212 1.386 . S
C4216 C4211 1.490 . S
C4216 C4218 1.395 . S
C4216 C4219 1.403 . S
H4217 C4223 0.930 . S
C4218 H4204 0.930 . S
C4218 C4216 1.395 . S
C4218 C4221 1.403 . S
C4219 C4216 1.403 . S
C4219 C4220 1.524 . S
C4219 C4223 1.400 . S
C4220 H4205 0.960 . S
C4220 H4206 0.960 . S
C4220 H4207 0.960 . S
C4220 C4219 1.524 . S
C4221 C4218 1.403 . S
C4221 C4222 1.392 . S
C4221 C4225 1.495 . S
C4222 C4221 1.392 . S
C4222 C4223 1.385 . S
C4222 C4224 1.478 . S
C4223 H4217 0.930 . S
C4223 C4219 1.400 . S
C4223 C4222 1.385 . S
C4224 C4222 1.478 . S
C4224 C4226 1.381 . S
C4224 C4230 1.383 . S
C4225 C4221 1.495 . S
C4225 H4231 0.959 . S
C4225 H4232 0.961 . S
C4225 H4233 0.960 . S
C4226 C4224 1.381 . S
C4226 C4227 1.394 . S
C4226 H4234 0.930 . S
C4227 C4226 1.394 . S
C4227 C4228 1.383 . S
C4227 H4235 0.929 . S
C4228 C4227 1.383 . S
C4228 C4229 1.377 . S
C4229 H4213 0.930 . S
C4229 C4228 1.377 . S
C4229 C4230 1.379 . S
C4230 H4214 0.931 . S
C4230 C4224 1.383 . S
C4230 C4229 1.379 . S
H4231 C4225 0.959 . S
H4232 C4225 0.961 . S
H4233 C4225 0.960 . S
H4234 C4226 0.930 . S
H4235 C4227 0.929 . S
H4236 C4244 0.929 . S
H4237 C4246 0.930 . S
H4238 C4248 0.930 . S
H4239 C4251 0.929 . S
H4240 C4254 0.930 . S
H4241 C4256 0.960 . S
H4242 C4256 0.960 . S
H4243 C4256 0.960 . S
C4244 H4236 0.929 . S
C4244 C4245 1.377 . S
C4244 C4246 1.384 . S
C4245 C4244 1.377 . S
C4245 C4251 1.390 . S
C4246 H4237 0.930 . S
C4246 C4244 1.384 . S
C4246 C4247 1.372 . S
C4247 C4246 1.372 . S
C4247 C4248 1.400 . S
C4247 C4252 1.490 . S
C4248 H4238 0.930 . S
C4248 C4247 1.400 . S
C4248 C4251 1.386 . S
H4249 C4265 0.930 . S
H4250 C4266 0.931 . S
C4251 H4239 0.929 . S
C4251 C4245 1.390 . S
C4251 C4248 1.386 . S
C4252 C4247 1.490 . S
C4252 C4254 1.395 . S
C4252 C4255 1.403 . S
H4253 C4259 0.930 . S
C4254 H4240 0.930 . S
C4254 C4252 1.395 . S
C4254 C4257 1.403 . S
C4255 C4252 1.403 . S
C4255 C4256 1.524 . S
C4255 C4259 1.400 . S
C4256 H4241 0.960 . S
C4256 H4242 0.960 . S
C4256 H4243 0.960 . S
C4256 C4255 1.524 . S
C4257 C4254 1.403 . S
C4257 C4258 1.392 . S
C4257 C4261 1.495 . S
C4258 C4257 1.392 . S
C4258 C4259 1.385 . S
C4258 C4260 1.478 . S
C4259 H4253 0.930 . S
C4259 C4255 1.400 . S
C4259 C4258 1.385 . S
C4260 C4258 1.478 . S
C4260 C4262 1.381 . S
C4260 C4266 1.383 . S
C4261 C4257 1.495 . S
C4261 H4267 0.959 . S
C4261 H4268 0.961 . S
C4261 H4269 0.960 . S
C4262 C4260 1.381 . S
C4262 C4263 1.394 . S
C4262 H4270 0.930 . S
C4263 C4262 1.394 . S
C4263 C4264 1.383 . S
C4263 H4271 0.929 . S
C4264 C4263 1.383 . S
C4264 C4265 1.377 . S
C4265 H4249 0.930 . S
C4265 C4264 1.377 . S
C4265 C4266 1.379 . S
C4266 H4250 0.931 . S
C4266 C4260 1.383 . S
C4266 C4265 1.379 . S
H4267 C4261 0.959 . S
H4268 C4261 0.961 . S
H4269 C4261 0.960 . S
H4270 C4262 0.930 . S
H4271 C4263 0.929 . S
H4272 C4280 0.929 . S
H4273 C4282 0.930 . S
H4274 C4284 0.930 . S
H4275 C4287 0.929 . S
H4276 C4290 0.930 . S
H4277 C4292 0.960 . S
H4278 C4292 0.960 . S
H4279 C4292 0.960 . S
C4280 H4272 0.929 . S
C4280 C4281 1.377 . S
C4280 C4282 1.384 . S
C4281 C4280 1.377 . S
C4281 C4287 1.390 . S
C4282 H4273 0.930 . S
C4282 C4280 1.384 . S
C4282 C4283 1.372 . S
C4283 C4282 1.372 . S
C4283 C4284 1.400 . S
C4283 C4288 1.490 . S
C4284 H4274 0.930 . S
C4284 C4283 1.400 . S
C4284 C4287 1.386 . S
H4285 C4301 0.930 . S
H4286 C4302 0.931 . S
C4287 H4275 0.929 . S
C4287 C4281 1.390 . S
C4287 C4284 1.386 . S
C4288 C4283 1.490 . S
C4288 C4290 1.395 . S
C4288 C4291 1.403 . S
H4289 C4295 0.930 . S
C4290 H4276 0.930 . S
C4290 C4288 1.395 . S
C4290 C4293 1.403 . S
C4291 C4288 1.403 . S
C4291 C4292 1.524 . S
C4291 C4295 1.400 . S
C4292 H4277 0.960 . S
C4292 H4278 0.960 . S
C4292 H4279 0.960 . S
C4292 C4291 1.524 . S
C4293 C4290 1.403 . S
C4293 C4294 1.392 . S
C4293 C4297 1.495 . S
C4294 C4293 1.392 . S
C4294 C4295 1.385 . S
C4294 C4296 1.478 . S
C4295 H4289 0.930 . S
C4295 C4291 1.400 . S
C4295 C4294 1.385 . S
C4296 C4294 1.478 . S
C4296 C4298 1.381 . S
C4296 C4302 1.383 . S
C4297 C4293 1.495 . S
C4297 H4303 0.959 . S
C4297 H4304 0.961 . S
C4297 H4305 0.960 . S
C4298 C4296 1.381 . S
C4298 C4299 1.394 . S
C4298 H4306 0.930 . S
C4299 C4298 1.394 . S
C4299 C4300 1.383 . S
C4299 H4307 0.929 . S
C4300 C4299 1.383 . S
C4300 C4301 1.377 . S
C4301 H4285 0.930 . S
C4301 C4300 1.377 . S
C4301 C4302 1.379 . S
C4302 H4286 0.931 . S
C4302 C4296 1.383 . S
C4302 C4301 1.379 . S
H4303 C4297 0.959 . S
H4304 C4297 0.961 . S
H4305 C4297 0.960 . S
H4306 C4298 0.930 . S
H4307 C4299 0.929 . S
H4308 C4316 0.929 . S
H4309 C4318 0.930 . S
H4310 C4320 0.930 . S
H4311 C4323 0.929 . S
H4312 C4326 0.930 . S
H4313 C4328 0.960 . S
H4314 C4328 0.960 . S
H4315 C4328 0.960 . S
C4316 H4308 0.929 . S
C4316 C4317 1.377 . S
C4316 C4318 1.384 . S
C4317 C4316 1.377 . S
C4317 C4323 1.390 . S
C4318 H4309 0.930 . S
C4318 C4316 1.384 . S
C4318 C4319 1.372 . S
C4319 C4318 1.372 . S
C4319 C4320 1.400 . S
C4319 C4324 1.490 . S
C4320 H4310 0.930 . S
C4320 C4319 1.400 . S
C4320 C4323 1.386 . S
H4321 C4337 0.930 . S
H4322 C4338 0.931 . S
C4323 H4311 0.929 . S
C4323 C4317 1.390 . S
C4323 C4320 1.386 . S
C4324 C4319 1.490 . S
C4324 C4326 1.395 . S
C4324 C4327 1.403 . S
H4325 C4331 0.930 . S
C4326 H4312 0.930 . S
C4326 C4324 1.395 . S
C4326 C4329 1.403 . S
C4327 C4324 1.403 . S
C4327 C4328 1.524 . S
C4327 C4331 1.400 . S
C4328 H4313 0.960 . S
C4328 H4314 0.960 . S
C4328 H4315 0.960 . S
C4328 C4327 1.524 . S
C4329 C4326 1.403 . S
C4329 C4330 1.392 . S
C4329 C4333 1.495 . S
C4330 C4329 1.392 . S
C4330 C4331 1.385 . S
C4330 C4332 1.478 . S
C4331 H4325 0.930 . S
C4331 C4327 1.400 . S
C4331 C4330 1.385 . S
C4332 C4330 1.478 . S
C4332 C4334 1.381 . S
C4332 C4338 1.383 . S
C4333 C4329 1.495 . S
C4333 H4339 0.959 . S
C4333 H4340 0.961 . S
C4333 H4341 0.960 . S
C4334 C4332 1.381 . S
C4334 C4335 1.394 . S
C4334 H4342 0.930 . S
C4335 C4334 1.394 . S
C4335 C4336 1.383 . S
C4335 H4343 0.929 . S
C4336 C4335 1.383 . S
C4336 C4337 1.377 . S
C4337 H4321 0.930 . S
C4337 C4336 1.377 . S
C4337 C4338 1.379 . S
C4338 H4322 0.931 . S
C4338 C4332 1.383 . S
C4338 C4337 1.379 . S
H4339 C4333 0.959 . S
H4340 C4333 0.961 . S
H4341 C4333 0.960 . S
H4342 C4334 0.930 . S
H4343 C4335 0.929 . S
H4344 C4352 0.929 . S
H4345 C4354 0.930 . S
H4346 C4356 0.930 . S
H4347 C4359 0.929 . S
H4348 C4362 0.930 . S
H4349 C4364 0.960 . S
H4350 C4364 0.960 . S
H4351 C4364 0.960 . S
C4352 H4344 0.929 . S
C4352 C4353 1.377 . S
C4352 C4354 1.384 . S
C4353 C4352 1.377 . S
C4353 C4359 1.390 . S
C4354 H4345 0.930 . S
C4354 C4352 1.384 . S
C4354 C4355 1.372 . S
C4355 C4354 1.372 . S
C4355 C4356 1.400 . S
C4355 C4360 1.490 . S
C4356 H4346 0.930 . S
C4356 C4355 1.400 . S
C4356 C4359 1.386 . S
H4357 C4373 0.930 . S
H4358 C4374 0.931 . S
C4359 H4347 0.929 . S
C4359 C4353 1.390 . S
C4359 C4356 1.386 . S
C4360 C4355 1.490 . S
C4360 C4362 1.395 . S
C4360 C4363 1.403 . S
H4361 C4367 0.930 . S
C4362 H4348 0.930 . S
C4362 C4360 1.395 . S
C4362 C4365 1.403 . S
C4363 C4360 1.403 . S
C4363 C4364 1.524 . S
C4363 C4367 1.400 . S
C4364 H4349 0.960 . S
C4364 H4350 0.960 . S
C4364 H4351 0.960 . S
C4364 C4363 1.524 . S
C4365 C4362 1.403 . S
C4365 C4366 1.392 . S
C4365 C4369 1.495 . S
C4366 C4365 1.392 . S
C4366 C4367 1.385 . S
C4366 C4368 1.478 . S
C4367 H4361 0.930 . S
C4367 C4363 1.400 . S
C4367 C4366 1.385 . S
C4368 C4366 1.478 . S
C4368 C4370 1.381 . S
C4368 C4374 1.383 . S
C4369 C4365 1.495 . S
C4369 H4375 0.959 . S
C4369 H4376 0.961 . S
C4369 H4377 0.960 . S
C4370 C4368 1.381 . S
C4370 C4371 1.394 . S
C4370 H4378 0.930 . S
C4371 C4370 1.394 . S
C4371 C4372 1.383 . S
C4371 H4379 0.929 . S
C4372 C4371 1.383 . S
C4372 C4373 1.377 . S
C4373 H4357 0.930 . S
C4373 C4372 1.377 . S
C4373 C4374 1.379 . S
C4374 H4358 0.931 . S
C4374 C4368 1.383 . S
C4374 C4373 1.379 . S
H4375 C4369 0.959 . S
H4376 C4369 0.961 . S
H4377 C4369 0.960 . S
H4378 C4370 0.930 . S
H4379 C4371 0.929 . S
H4380 C4388 0.929 . S
H4381 C4390 0.930 . S
H4382 C4392 0.930 . S
H4383 C4395 0.929 . S
H4384 C4398 0.930 . S
H4385 C4400 0.960 . S
H4386 C4400 0.960 . S
H4387 C4400 0.960 . S
C4388 H4380 0.929 . S
C4388 C4389 1.377 . S
C4388 C4390 1.384 . S
C4389 C4388 1.377 . S
C4389 C4395 1.390 . S
C4390 H4381 0.930 . S
C4390 C4388 1.384 . S
C4390 C4391 1.372 . S
C4391 C4390 1.372 . S
C4391 C4392 1.400 . S
C4391 C4396 1.490 . S
C4392 H4382 0.930 . S
C4392 C4391 1.400 . S
C4392 C4395 1.386 . S
H4393 C4409 0.930 . S
H4394 C4410 0.931 . S
C4395 H4383 0.929 . S
C4395 C4389 1.390 . S
C4395 C4392 1.386 . S
C4396 C4391 1.490 . S
C4396 C4398 1.395 . S
C4396 C4399 1.403 . S
H4397 C4403 0.930 . S
C4398 H4384 0.930 . S
C4398 C4396 1.395 . S
C4398 C4401 1.403 . S
C4399 C4396 1.403 . S
C4399 C4400 1.524 . S
C4399 C4403 1.400 . S
C4400 H4385 0.960 . S
C4400 H4386 0.960 . S
C4400 H4387 0.960 . S
C4400 C4399 1.524 . S
C4401 C4398 1.403 . S
C4401 C4402 1.392 . S
C4401 C4405 1.495 . S
C4402 C4401 1.392 . S
C4402 C4403 1.385 . S
C4402 C4404 1.478 . S
C4403 H4397 0.930 . S
C4403 C4399 1.400 . S
C4403 C4402 1.385 . S
C4404 C4402 1.478 . S
C4404 C4406 1.381 . S
C4404 C4410 1.383 . S
C4405 C4401 1.495 . S
C4405 H4411 0.959 . S
C4405 H4412 0.961 . S
C4405 H4413 0.960 . S
C4406 C4404 1.381 . S
C4406 C4407 1.394 . S
C4406 H4414 0.930 . S
C4407 C4406 1.394 . S
C4407 C4408 1.383 . S
C4407 H4415 0.929 . S
C4408 C4407 1.383 . S
C4408 C4409 1.377 . S
C4409 H4393 0.930 . S
C4409 C4408 1.377 . S
C4409 C4410 1.379 . S
C4410 H4394 0.931 . S
C4410 C4404 1.383 . S
C4410 C4409 1.379 . S
H4411 C4405 0.959 . S
H4412 C4405 0.961 . S
H4413 C4405 0.960 . S
H4414 C4406 0.930 . S
H4415 C4407 0.929 . S
H4416 C4424 0.929 . S
H4417 C4426 0.930 . S
H4418 C4428 0.930 . S
H4419 C4431 0.929 . S
H4420 C4434 0.930 . S
H4421 C4436 0.960 . S
H4422 C4436 0.960 . S
H4423 C4436 0.960 . S
C4424 H4416 0.929 . S
C4424 C4425 1.377 . S
C4424 C4426 1.384 . S
C4425 C4424 1.377 . S
C4425 C4431 1.390 . S
C4426 H4417 0.930 . S
C4426 C4424 1.384 . S
C4426 C4427 1.372 . S
C4427 C4426 1.372 . S
C4427 C4428 1.400 . S
C4427 C4432 1.490 . S
C4428 H4418 0.930 . S
C4428 C4427 1.400 . S
C4428 C4431 1.386 . S
H4429 C4445 0.930 . S
H4430 C4446 0.931 . S
C4431 H4419 0.929 . S
C4431 C4425 1.390 . S
C4431 C4428 1.386 . S
C4432 C4427 1.490 . S
C4432 C4434 1.395 . S
C4432 C4435 1.403 . S
H4433 C4439 0.930 . S
C4434 H4420 0.930 . S
C4434 C4432 1.395 . S
C4434 C4437 1.403 . S
C4435 C4432 1.403 . S
C4435 C4436 1.524 . S
C4435 C4439 1.400 . S
C4436 H4421 0.960 . S
C4436 H4422 0.960 . S
C4436 H4423 0.960 . S
C4436 C4435 1.524 . S
C4437 C4434 1.403 . S
C4437 C4438 1.392 . S
C4437 C4441 1.495 . S
C4438 C4437 1.392 . S
C4438 C4439 1.385 . S
C4438 C4440 1.478 . S
C4439 H4433 0.930 . S
C4439 C4435 1.400 . S
C4439 C4438 1.385 . S
C4440 C4438 1.478 . S
C4440 C4442 1.381 . S
C4440 C4446 1.383 . S
C4441 C4437 1.495 . S
C4441 H4447 0.959 . S
C4441 H4448 0.961 . S
C4441 H4449 0.960 . S
C4442 C4440 1.381 . S
C4442 C4443 1.394 . S
C4442 H4450 0.930 . S
C4443 C4442 1.394 . S
C4443 C4444 1.383 . S
C4443 H4451 0.929 . S
C4444 C4443 1.383 . S
C4444 C4445 1.377 . S
C4445 H4429 0.930 . S
C4445 C4444 1.377 . S
C4445 C4446 1.379 . S
C4446 H4430 0.931 . S
C4446 C4440 1.383 . S
C4446 C4445 1.379 . S
H4447 C4441 0.959 . S
H4448 C4441 0.961 . S
H4449 C4441 0.960 . S
H4450 C4442 0.930 . S
H4451 C4443 0.929 . S
H4452 C4460 0.929 . S
H4453 C4462 0.930 . S
H4454 C4464 0.930 . S
H4455 C4467 0.929 . S
H4456 C4470 0.930 . S
H4457 C4472 0.960 . S
H4458 C4472 0.960 . S
H4459 C4472 0.960 . S
C4460 H4452 0.929 . S
C4460 C4461 1.377 . S
C4460 C4462 1.384 . S
C4461 C4460 1.377 . S
C4461 C4467 1.390 . S
C4462 H4453 0.930 . S
C4462 C4460 1.384 . S
C4462 C4463 1.372 . S
C4463 C4462 1.372 . S
C4463 C4464 1.400 . S
C4463 C4468 1.490 . S
C4464 H4454 0.930 . S
C4464 C4463 1.400 . S
C4464 C4467 1.386 . S
H4465 C4481 0.930 . S
H4466 C4482 0.931 . S
C4467 H4455 0.929 . S
C4467 C4461 1.390 . S
C4467 C4464 1.386 . S
C4468 C4463 1.490 . S
C4468 C4470 1.395 . S
C4468 C4471 1.403 . S
H4469 C4475 0.930 . S
C4470 H4456 0.930 . S
C4470 C4468 1.395 . S
C4470 C4473 1.403 . S
C4471 C4468 1.403 . S
C4471 C4472 1.524 . S
C4471 C4475 1.400 . S
C4472 H4457 0.960 . S
C4472 H4458 0.960 . S
C4472 H4459 0.960 . S
C4472 C4471 1.524 . S
C4473 C4470 1.403 . S
C4473 C4474 1.392 . S
C4473 C4477 1.495 . S
C4474 C4473 1.392 . S
C4474 C4475 1.385 . S
C4474 C4476 1.478 . S
C4475 H4469 0.930 . S
C4475 C4471 1.400 . S
C4475 C4474 1.385 . S
C4476 C4474 1.478 . S
C4476 C4478 1.381 . S
C4476 C4482 1.383 . S
C4477 C4473 1.495 . S
C4477 H4483 0.959 . S
C4477 H4484 0.961 . S
C4477 H4485 0.960 . S
C4478 C4476 1.381 . S
C4478 C4479 1.394 . S
C4478 H4486 0.930 . S
C4479 C4478 1.394 . S
C4479 C4480 1.383 . S
C4479 H4487 0.929 . S
C4480 C4479 1.383 . S
C4480 C4481 1.377 . S
C4481 H4465 0.930 . S
C4481 C4480 1.377 . S
C4481 C4482 1.379 . S
C4482 H4466 0.931 . S
C4482 C4476 1.383 . S
C4482 C4481 1.379 . S
H4483 C4477 0.959 . S
H4484 C4477 0.961 . S
H4485 C4477 0.960 . S
H4486 C4478 0.930 . S
H4487 C4479 0.929 . S
H4488 C4496 0.929 . S
H4489 C4498 0.930 . S
H4490 C4500 0.930 . S
H4491 C4503 0.929 . S
H4492 C4506 0.930 . S
H4493 C4508 0.960 . S
H4494 C4508 0.960 . S
H4495 C4508 0.960 . S
C4496 H4488 0.929 . S
C4496 C4497 1.377 . S
C4496 C4498 1.384 . S
C4497 C4496 1.377 . S
C4497 C4503 1.390 . S
C4498 H4489 0.930 . S
C4498 C4496 1.384 . S
C4498 C4499 1.372 . S
C4499 C4498 1.372 . S
C4499 C4500 1.400 . S
C4499 C4504 1.490 . S
C4500 H4490 0.930 . S
C4500 C4499 1.400 . S
C4500 C4503 1.386 . S
H4501 C4517 0.930 . S
H4502 C4518 0.931 . S
C4503 H4491 0.929 . S
C4503 C4497 1.390 . S
C4503 C4500 1.386 . S
C4504 C4499 1.490 . S
C4504 C4506 1.395 . S
C4504 C4507 1.403 . S
H4505 C4511 0.930 . S
C4506 H4492 0.930 . S
C4506 C4504 1.395 . S
C4506 C4509 1.403 . S
C4507 C4504 1.403 . S
C4507 C4508 1.524 . S
C4507 C4511 1.400 . S
C4508 H4493 0.960 . S
C4508 H4494 0.960 . S
C4508 H4495 0.960 . S
C4508 C4507 1.524 . S
C4509 C4506 1.403 . S
C4509 C4510 1.392 . S
C4509 C4513 1.495 . S
C4510 C4509 1.392 . S
C4510 C4511 1.385 . S
C4510 C4512 1.478 . S
C4511 H4505 0.930 . S
C4511 C4507 1.400 . S
C4511 C4510 1.385 . S
C4512 C4510 1.478 . S
C4512 C4514 1.381 . S
C4512 C4518 1.383 . S
C4513 C4509 1.495 . S
C4513 H4519 0.959 . S
C4513 H4520 0.961 . S
C4513 H4521 0.960 . S
C4514 C4512 1.381 . S
C4514 C4515 1.394 . S
C4514 H4522 0.930 . S
C4515 C4514 1.394 . S
C4515 C4516 1.383 . S
C4515 H4523 0.929 . S
C4516 C4515 1.383 . S
C4516 C4517 1.377 . S
C4517 H4501 0.930 . S
C4517 C4516 1.377 . S
C4517 C4518 1.379 . S
C4518 H4502 0.931 . S
C4518 C4512 1.383 . S
C4518 C4517 1.379 . S
H4519 C4513 0.959 . S
H4520 C4513 0.961 . S
H4521 C4513 0.960 . S
H4522 C4514 0.930 . S
H4523 C4515 0.929 . S
H4524 C4532 0.929 . S
H4525 C4534 0.930 . S
H4526 C4536 0.930 . S
H4527 C4539 0.929 . S
H4528 C4542 0.930 . S
H4529 C4544 0.960 . S
H4530 C4544 0.960 . S
H4531 C4544 0.960 . S
C4532 H4524 0.929 . S
C4532 C4533 1.377 . S
C4532 C4534 1.384 . S
C4533 C4532 1.377 . S
C4533 C4539 1.390 . S
C4534 H4525 0.930 . S
C4534 C4532 1.384 . S
C4534 C4535 1.372 . S
C4535 C4534 1.372 . S
C4535 C4536 1.400 . S
C4535 C4540 1.490 . S
C4536 H4526 0.930 . S
C4536 C4535 1.400 . S
C4536 C4539 1.386 . S
H4537 C4553 0.930 . S
H4538 C4554 0.931 . S
C4539 H4527 0.929 . S
C4539 C4533 1.390 . S
C4539 C4536 1.386 . S
C4540 C4535 1.490 . S
C4540 C4542 1.395 . S
C4540 C4543 1.403 . S
H4541 C4547 0.930 . S
C4542 H4528 0.930 . S
C4542 C4540 1.395 . S
C4542 C4545 1.403 . S
C4543 C4540 1.403 . S
C4543 C4544 1.524 . S
C4543 C4547 1.400 . S
C4544 H4529 0.960 . S
C4544 H4530 0.960 . S
C4544 H4531 0.960 . S
C4544 C4543 1.524 . S
C4545 C4542 1.403 . S
C4545 C4546 1.392 . S
C4545 C4549 1.495 . S
C4546 C4545 1.392 . S
C4546 C4547 1.385 . S
C4546 C4548 1.478 . S
C4547 H4541 0.930 . S
C4547 C4543 1.400 . S
C4547 C4546 1.385 . S
C4548 C4546 1.478 . S
C4548 C4550 1.381 . S
C4548 C4554 1.383 . S
C4549 C4545 1.495 . S
C4549 H4555 0.959 . S
C4549 H4556 0.961 . S
C4549 H4557 0.960 . S
C4550 C4548 1.381 . S
C4550 C4551 1.394 . S
C4550 H4558 0.930 . S
C4551 C4550 1.394 . S
C4551 C4552 1.383 . S
C4551 H4559 0.929 . S
C4552 C4551 1.383 . S
C4552 C4553 1.377 . S
C4553 H4537 0.930 . S
C4553 C4552 1.377 . S
C4553 C4554 1.379 . S
C4554 H4538 0.931 . S
C4554 C4548 1.383 . S
C4554 C4553 1.379 . S
H4555 C4549 0.959 . S
H4556 C4549 0.961 . S
H4557 C4549 0.960 . S
H4558 C4550 0.930 . S
H4559 C4551 0.929 . S
H4560 C4568 0.929 . S
H4561 C4570 0.930 . S
H4562 C4572 0.930 . S
H4563 C4575 0.929 . S
H4564 C4578 0.930 . S
H4565 C4580 0.960 . S
H4566 C4580 0.960 . S
H4567 C4580 0.960 . S
C4568 H4560 0.929 . S
C4568 C4569 1.377 . S
C4568 C4570 1.384 . S
C4569 C4568 1.377 . S
C4569 C4575 1.390 . S
C4570 H4561 0.930 . S
C4570 C4568 1.384 . S
C4570 C4571 1.372 . S
C4571 C4570 1.372 . S
C4571 C4572 1.400 . S
C4571 C4576 1.490 . S
C4572 H4562 0.930 . S
C4572 C4571 1.400 . S
C4572 C4575 1.386 . S
H4573 C4589 0.930 . S
H4574 C4590 0.931 . S
C4575 H4563 0.929 . S
C4575 C4569 1.390 . S
C4575 C4572 1.386 . S
C4576 C4571 1.490 . S
C4576 C4578 1.395 . S
C4576 C4579 1.403 . S
H4577 C4583 0.930 . S
C4578 H4564 0.930 . S
C4578 C4576 1.395 . S
C4578 C4581 1.403 . S
C4579 C4576 1.403 . S
C4579 C4580 1.524 . S
C4579 C4583 1.400 . S
C4580 H4565 0.960 . S
C4580 H4566 0.960 . S
C4580 H4567 0.960 . S
C4580 C4579 1.524 . S
C4581 C4578 1.403 . S
C4581 C4582 1.392 . S
C4581 C4585 1.495 . S
C4582 C4581 1.392 . S
C4582 C4583 1.385 . S
C4582 C4584 1.478 . S
C4583 H4577 0.930 . S
C4583 C4579 1.400 . S
C4583 C4582 1.385 . S
C4584 C4582 1.478 . S
C4584 C4586 1.381 . S
C4584 C4590 1.383 . S
C4585 C4581 1.495 . S
C4585 H4591 0.959 . S
C4585 H4592 0.961 . S
C4585 H4593 0.960 . S
C4586 C4584 1.381 . S
C4586 C4587 1.394 . S
C4586 H4594 0.930 . S
C4587 C4586 1.394 . S
C4587 C4588 1.383 . S
C4587 H4595 0.929 . S
C4588 C4587 1.383 . S
C4588 C4589 1.377 . S
C4589 H4573 0.930 . S
C4589 C4588 1.377 . S
C4589 C4590 1.379 . S
C4590 H4574 0.931 . S
C4590 C4584 1.383 . S
C4590 C4589 1.379 . S
H4591 C4585 0.959 . S
H4592 C4585 0.961 . S
H4593 C4585 0.960 . S
H4594 C4586 0.930 . S
H4595 C4587 0.929 . S
H4596 C4604 0.929 . S
H4597 C4606 0.930 . S
H4598 C4608 0.930 . S
H4599 C4611 0.929 . S
H4600 C4614 0.930 . S
H4601 C4616 0.960 . S
H4602 C4616 0.960 . S
H4603 C4616 0.960 . S
C4604 H4596 0.929 . S
C4604 C4605 1.377 . S
C4604 C4606 1.384 . S
C4605 C4604 1.377 . S
C4605 C4611 1.390 . S
C4606 H4597 0.930 . S
C4606 C4604 1.384 . S
C4606 C4607 1.372 . S
C4607 C4606 1.372 . S
C4607 C4608 1.400 . S
C4607 C4612 1.490 . S
C4608 H4598 0.930 . S
C4608 C4607 1.400 . S
C4608 C4611 1.386 . S
H4609 C4625 0.930 . S
H4610 C4626 0.931 . S
C4611 H4599 0.929 . S
C4611 C4605 1.390 . S
C4611 C4608 1.386 . S
C4612 C4607 1.490 . S
C4612 C4614 1.395 . S
C4612 C4615 1.403 . S
H4613 C4619 0.930 . S
C4614 H4600 0.930 . S
C4614 C4612 1.395 . S
C4614 C4617 1.403 . S
C4615 C4612 1.403 . S
C4615 C4616 1.524 . S
C4615 C4619 1.400 . S
C4616 H4601 0.960 . S
C4616 H4602 0.960 . S
C4616 H4603 0.960 . S
C4616 C4615 1.524 . S
C4617 C4614 1.403 . S
C4617 C4618 1.392 . S
C4617 C4621 1.495 . S
C4618 C4617 1.392 . S
C4618 C4619 1.385 . S
C4618 C4620 1.478 . S
C4619 H4613 0.930 . S
C4619 C4615 1.400 . S
C4619 C4618 1.385 . S
C4620 C4618 1.478 . S
C4620 C4622 1.381 . S
C4620 C4626 1.383 . S
C4621 C4617 1.495 . S
C4621 H4627 0.959 . S
C4621 H4628 0.961 . S
C4621 H4629 0.960 . S
C4622 C4620 1.381 . S
C4622 C4623 1.394 . S
C4622 H4630 0.930 . S
C4623 C4622 1.394 . S
C4623 C4624 1.383 . S
C4623 H4631 0.929 . S
C4624 C4623 1.383 . S
C4624 C4625 1.377 . S
C4625 H4609 0.930 . S
C4625 C4624 1.377 . S
C4625 C4626 1.379 . S
C4626 H4610 0.931 . S
C4626 C4620 1.383 . S
C4626 C4625 1.379 . S
H4627 C4621 0.959 . S
H4628 C4621 0.961 . S
H4629 C4621 0.960 . S
H4630 C4622 0.930 . S
H4631 C4623 0.929 . S
H4632 C4640 0.929 . S
H4633 C4642 0.930 . S
H4634 C4644 0.930 . S
H4635 C4647 0.929 . S
H4636 C4650 0.930 . S
H4637 C4652 0.960 . S
H4638 C4652 0.960 . S
H4639 C4652 0.960 . S
C4640 H4632 0.929 . S
C4640 C4641 1.377 . S
C4640 C4642 1.384 . S
C4641 C4640 1.377 . S
C4641 C4647 1.390 . S
C4642 H4633 0.930 . S
C4642 C4640 1.384 . S
C4642 C4643 1.372 . S
C4643 C4642 1.372 . S
C4643 C4644 1.400 . S
C4643 C4648 1.490 . S
C4644 H4634 0.930 . S
C4644 C4643 1.400 . S
C4644 C4647 1.386 . S
H4645 C4661 0.930 . S
H4646 C4662 0.931 . S
C4647 H4635 0.929 . S
C4647 C4641 1.390 . S
C4647 C4644 1.386 . S
C4648 C4643 1.490 . S
C4648 C4650 1.395 . S
C4648 C4651 1.403 . S
H4649 C4655 0.930 . S
C4650 H4636 0.930 . S
C4650 C4648 1.395 . S
C4650 C4653 1.403 . S
C4651 C4648 1.403 . S
C4651 C4652 1.524 . S
C4651 C4655 1.400 . S
C4652 H4637 0.960 . S
C4652 H4638 0.960 . S
C4652 H4639 0.960 . S
C4652 C4651 1.524 . S
C4653 C4650 1.403 . S
C4653 C4654 1.392 . S
C4653 C4657 1.495 . S
C4654 C4653 1.392 . S
C4654 C4655 1.385 . S
C4654 C4656 1.478 . S
C4655 H4649 0.930 . S
C4655 C4651 1.400 . S
C4655 C4654 1.385 . S
C4656 C4654 1.478 . S
C4656 C4658 1.381 . S
C4656 C4662 1.383 . S
C4657 C4653 1.495 . S
C4657 H4663 0.959 . S
C4657 H4664 0.961 . S
C4657 H4665 0.960 . S
C4658 C4656 1.381 . S
C4658 C4659 1.394 . S
C4658 H4666 0.930 . S
C4659 C4658 1.394 . S
C4659 C4660 1.383 . S
C4659 H4667 0.929 . S
C4660 C4659 1.383 . S
C4660 C4661 1.377 . S
C4661 H4645 0.930 . S
C4661 C4660 1.377 . S
C4661 C4662 1.379 . S
C4662 H4646 0.931 . S
C4662 C4656 1.383 . S
C4662 C4661 1.379 . S
H4663 C4657 0.959 . S
H4664 C4657 0.961 . S
H4665 C4657 0.960 . S
H4666 C4658 0.930 . S
H4667 C4659 0.929 . S
H4668 C4676 0.929 . S
H4669 C4678 0.930 . S
H4670 C4680 0.930 . S
H4671 C4683 0.929 . S
H4672 C4686 0.930 . S
H4673 C4688 0.960 . S
H4674 C4688 0.960 . S
H4675 C4688 0.960 . S
C4676 H4668 0.929 . S
C4676 C4677 1.377 . S
C4676 C4678 1.384 . S
C4677 C4676 1.377 . S
C4677 C4683 1.390 . S
C4678 H4669 0.930 . S
C4678 C4676 1.384 . S
C4678 C4679 1.372 . S
C4679 C4678 1.372 . S
C4679 C4680 1.400 . S
C4679 C4684 1.490 . S
C4680 H4670 0.930 . S
C4680 C4679 1.400 . S
C4680 C4683 1.386 . S
H4681 C4697 0.930 . S
H4682 C4698 0.931 . S
C4683 H4671 0.929 . S
C4683 C4677 1.390 . S
C4683 C4680 1.386 . S
C4684 C4679 1.490 . S
C4684 C4686 1.395 . S
C4684 C4687 1.403 . S
H4685 C4691 0.930 . S
C4686 H4672 0.930 . S
C4686 C4684 1.395 . S
C4686 C4689 1.403 . S
C4687 C4684 1.403 . S
C4687 C4688 1.524 . S
C4687 C4691 1.400 . S
C4688 H4673 0.960 . S
C4688 H4674 0.960 . S
C4688 H4675 0.960 . S
C4688 C4687 1.524 . S
C4689 C4686 1.403 . S
C4689 C4690 1.392 . S
C4689 C4693 1.495 . S
C4690 C4689 1.392 . S
C4690 C4691 1.385 . S
C4690 C4692 1.478 . S
C4691 H4685 0.930 . S
C4691 C4687 1.400 . S
C4691 C4690 1.385 . S
C4692 C4690 1.478 . S
C4692 C4694 1.381 . S
C4692 C4698 1.383 . S
C4693 C4689 1.495 . S
C4693 H4699 0.959 . S
C4693 H4700 0.961 . S
C4693 H4701 0.960 . S
C4694 C4692 1.381 . S
C4694 C4695 1.394 . S
C4694 H4702 0.930 . S
C4695 C4694 1.394 . S
C4695 C4696 1.383 . S
C4695 H4703 0.929 . S
C4696 C4695 1.383 . S
C4696 C4697 1.377 . S
C4697 H4681 0.930 . S
C4697 C4696 1.377 . S
C4697 C4698 1.379 . S
C4698 H4682 0.931 . S
C4698 C4692 1.383 . S
C4698 C4697 1.379 . S
H4699 C4693 0.959 . S
H4700 C4693 0.961 . S
H4701 C4693 0.960 . S
H4702 C4694 0.930 . S
H4703 C4695 0.929 . S
H4704 C4712 0.929 . S
H4705 C4714 0.930 . S
H4706 C4716 0.930 . S
H4707 C4719 0.929 . S
H4708 C4722 0.930 . S
H4709 C4724 0.960 . S
H4710 C4724 0.960 . S
H4711 C4724 0.960 . S
C4712 H4704 0.929 . S
C4712 C4713 1.377 . S
C4712 C4714 1.384 . S
C4713 C4712 1.377 . S
C4713 C4719 1.390 . S
C4714 H4705 0.930 . S
C4714 C4712 1.384 . S
C4714 C4715 1.372 . S
C4715 C4714 1.372 . S
C4715 C4716 1.400 . S
C4715 C4720 1.490 . S
C4716 H4706 0.930 . S
C4716 C4715 1.400 . S
C4716 C4719 1.386 . S
H4717 C4733 0.930 . S
H4718 C4734 0.931 . S
C4719 H4707 0.929 . S
C4719 C4713 1.390 . S
C4719 C4716 1.386 . S
C4720 C4715 1.490 . S
C4720 C4722 1.395 . S
C4720 C4723 1.403 . S
H4721 C4727 0.930 . S
C4722 H4708 0.930 . S
C4722 C4720 1.395 . S
C4722 C4725 1.403 . S
C4723 C4720 1.403 . S
C4723 C4724 1.524 . S
C4723 C4727 1.400 . S
C4724 H4709 0.960 . S
C4724 H4710 0.960 . S
C4724 H4711 0.960 . S
C4724 C4723 1.524 . S
C4725 C4722 1.403 . S
C4725 C4726 1.392 . S
C4725 C4729 1.495 . S
C4726 C4725 1.392 . S
C4726 C4727 1.385 . S
C4726 C4728 1.478 . S
C4727 H4721 0.930 . S
C4727 C4723 1.400 . S
C4727 C4726 1.385 . S
C4728 C4726 1.478 . S
C4728 C4730 1.381 . S
C4728 C4734 1.383 . S
C4729 C4725 1.495 . S
C4729 H4735 0.959 . S
C4729 H4736 0.961 . S
C4729 H4737 0.960 . S
C4730 C4728 1.381 . S
C4730 C4731 1.394 . S
C4730 H4738 0.930 . S
C4731 C4730 1.394 . S
C4731 C4732 1.383 . S
C4731 H4739 0.929 . S
C4732 C4731 1.383 . S
C4732 C4733 1.377 . S
C4733 H4717 0.930 . S
C4733 C4732 1.377 . S
C4733 C4734 1.379 . S
C4734 H4718 0.931 . S
C4734 C4728 1.383 . S
C4734 C4733 1.379 . S
H4735 C4729 0.959 . S
H4736 C4729 0.961 . S
H4737 C4729 0.960 . S
H4738 C4730 0.930 . S
H4739 C4731 0.929 . S
H4740 C4748 0.929 . S
H4741 C4750 0.930 . S
H4742 C4752 0.930 . S
H4743 C4755 0.929 . S
H4744 C4758 0.930 . S
H4745 C4760 0.960 . S
H4746 C4760 0.960 . S
H4747 C4760 0.960 . S
C4748 H4740 0.929 . S
C4748 C4749 1.377 . S
C4748 C4750 1.384 . S
C4749 C4748 1.377 . S
C4749 C4755 1.390 . S
C4750 H4741 0.930 . S
C4750 C4748 1.384 . S
C4750 C4751 1.372 . S
C4751 C4750 1.372 . S
C4751 C4752 1.400 . S
C4751 C4756 1.490 . S
C4752 H4742 0.930 . S
C4752 C4751 1.400 . S
C4752 C4755 1.386 . S
H4753 C4769 0.930 . S
H4754 C4770 0.931 . S
C4755 H4743 0.929 . S
C4755 C4749 1.390 . S
C4755 C4752 1.386 . S
C4756 C4751 1.490 . S
C4756 C4758 1.395 . S
C4756 C4759 1.403 . S
H4757 C4763 0.930 . S
C4758 H4744 0.930 . S
C4758 C4756 1.395 . S
C4758 C4761 1.403 . S
C4759 C4756 1.403 . S
C4759 C4760 1.524 . S
C4759 C4763 1.400 . S
C4760 H4745 0.960 . S
C4760 H4746 0.960 . S
C4760 H4747 0.960 . S
C4760 C4759 1.524 . S
C4761 C4758 1.403 . S
C4761 C4762 1.392 . S
C4761 C4765 1.495 . S
C4762 C4761 1.392 . S
C4762 C4763 1.385 . S
C4762 C4764 1.478 . S
C4763 H4757 0.930 . S
C4763 C4759 1.400 . S
C4763 C4762 1.385 . S
C4764 C4762 1.478 . S
C4764 C4766 1.381 . S
C4764 C4770 1.383 . S
C4765 C4761 1.495 . S
C4765 H4771 0.959 . S
C4765 H4772 0.961 . S
C4765 H4773 0.960 . S
C4766 C4764 1.381 . S
C4766 C4767 1.394 . S
C4766 H4774 0.930 . S
C4767 C4766 1.394 . S
C4767 C4768 1.383 . S
C4767 H4775 0.929 . S
C4768 C4767 1.383 . S
C4768 C4769 1.377 . S
C4769 H4753 0.930 . S
C4769 C4768 1.377 . S
C4769 C4770 1.379 . S
C4770 H4754 0.931 . S
C4770 C4764 1.383 . S
C4770 C4769 1.379 . S
H4771 C4765 0.959 . S
H4772 C4765 0.961 . S
H4773 C4765 0.960 . S
H4774 C4766 0.930 . S
H4775 C4767 0.929 . S
H4776 C4784 0.929 . S
H4777 C4786 0.930 . S
H4778 C4788 0.930 . S
H4779 C4791 0.929 . S
H4780 C4794 0.930 . S
H4781 C4796 0.960 . S
H4782 C4796 0.960 . S
H4783 C4796 0.960 . S
C4784 H4776 0.929 . S
C4784 C4785 1.377 . S
C4784 C4786 1.384 . S
C4785 C4784 1.377 . S
C4785 C4791 1.390 . S
C4786 H4777 0.930 . S
C4786 C4784 1.384 . S
C4786 C4787 1.372 . S
C4787 C4786 1.372 . S
C4787 C4788 1.400 . S
C4787 C4792 1.490 . S
C4788 H4778 0.930 . S
C4788 C4787 1.400 . S
C4788 C4791 1.386 . S
H4789 C4805 0.930 . S
H4790 C4806 0.931 . S
C4791 H4779 0.929 . S
C4791 C4785 1.390 . S
C4791 C4788 1.386 . S
C4792 C4787 1.490 . S
C4792 C4794 1.395 . S
C4792 C4795 1.403 . S
H4793 C4799 0.930 . S
C4794 H4780 0.930 . S
C4794 C4792 1.395 . S
C4794 C4797 1.403 . S
C4795 C4792 1.403 . S
C4795 C4796 1.524 . S
C4795 C4799 1.400 . S
C4796 H4781 0.960 . S
C4796 H4782 0.960 . S
C4796 H4783 0.960 . S
C4796 C4795 1.524 . S
C4797 C4794 1.403 . S
C4797 C4798 1.392 . S
C4797 C4801 1.495 . S
C4798 C4797 1.392 . S
C4798 C4799 1.385 . S
C4798 C4800 1.478 . S
C4799 H4793 0.930 . S
C4799 C4795 1.400 . S
C4799 C4798 1.385 . S
C4800 C4798 1.478 . S
C4800 C4802 1.381 . S
C4800 C4806 1.383 . S
C4801 C4797 1.495 . S
C4801 H4807 0.959 . S
C4801 H4808 0.961 . S
C4801 H4809 0.960 . S
C4802 C4800 1.381 . S
C4802 C4803 1.394 . S
C4802 H4810 0.930 . S
C4803 C4802 1.394 . S
C4803 C4804 1.383 . S
C4803 H4811 0.929 . S
C4804 C4803 1.383 . S
C4804 C4805 1.377 . S
C4805 H4789 0.930 . S
C4805 C4804 1.377 . S
C4805 C4806 1.379 . S
C4806 H4790 0.931 . S
C4806 C4800 1.383 . S
C4806 C4805 1.379 . S
H4807 C4801 0.959 . S
H4808 C4801 0.961 . S
H4809 C4801 0.960 . S
H4810 C4802 0.930 . S
H4811 C4803 0.929 . S
H4812 C4820 0.929 . S
H4813 C4822 0.930 . S
H4814 C4824 0.930 . S
H4815 C4827 0.929 . S
H4816 C4830 0.930 . S
H4817 C4832 0.960 . S
H4818 C4832 0.960 . S
H4819 C4832 0.960 . S
C4820 H4812 0.929 . S
C4820 C4821 1.377 . S
C4820 C4822 1.384 . S
C4821 C4820 1.377 . S
C4821 C4827 1.390 . S
C4822 H4813 0.930 . S
C4822 C4820 1.384 . S
C4822 C4823 1.372 . S
C4823 C4822 1.372 . S
C4823 C4824 1.400 . S
C4823 C4828 1.490 . S
C4824 H4814 0.930 . S
C4824 C4823 1.400 . S
C4824 C4827 1.386 . S
H4825 C4841 0.930 . S
H4826 C4842 0.931 . S
C4827 H4815 0.929 . S
C4827 C4821 1.390 . S
C4827 C4824 1.386 . S
C4828 C4823 1.490 . S
C4828 C4830 1.395 . S
C4828 C4831 1.403 . S
H4829 C4835 0.930 . S
C4830 H4816 0.930 . S
C4830 C4828 1.395 . S
C4830 C4833 1.403 . S
C4831 C4828 1.403 . S
C4831 C4832 1.524 . S
C4831 C4835 1.400 . S
C4832 H4817 0.960 . S
C4832 H4818 0.960 . S
C4832 H4819 0.960 . S
C4832 C4831 1.524 . S
C4833 C4830 1.403 . S
C4833 C4834 1.392 . S
C4833 C4837 1.495 . S
C4834 C4833 1.392 . S
C4834 C4835 1.385 . S
C4834 C4836 1.478 . S
C4835 H4829 0.930 . S
C4835 C4831 1.400 . S
C4835 C4834 1.385 . S
C4836 C4834 1.478 . S
C4836 C4838 1.381 . S
C4836 C4842 1.383 . S
C4837 C4833 1.495 . S
C4837 H4843 0.959 . S
C4837 H4844 0.961 . S
C4837 H4845 0.960 . S
C4838 C4836 1.381 . S
C4838 C4839 1.394 . S
C4838 H4846 0.930 . S
C4839 C4838 1.394 . S
C4839 C4840 1.383 . S
C4839 H4847 0.929 . S
C4840 C4839 1.383 . S
C4840 C4841 1.377 . S
C4841 H4825 0.930 . S
C4841 C4840 1.377 . S
C4841 C4842 1.379 . S
C4842 H4826 0.931 . S
C4842 C4836 1.383 . S
C4842 C4841 1.379 . S
H4843 C4837 0.959 . S
H4844 C4837 0.961 . S
H4845 C4837 0.960 . S
H4846 C4838 0.930 . S
H4847 C4839 0.929 . S
H4848 C4856 0.929 . S
H4849 C4858 0.930 . S
H4850 C4860 0.930 . S
H4851 C4863 0.929 . S
H4852 C4866 0.930 . S
H4853 C4868 0.960 . S
H4854 C4868 0.960 . S
H4855 C4868 0.960 . S
C4856 H4848 0.929 . S
C4856 C4857 1.377 . S
C4856 C4858 1.384 . S
C4857 C4856 1.377 . S
C4857 C4863 1.390 . S
C4858 H4849 0.930 . S
C4858 C4856 1.384 . S
C4858 C4859 1.372 . S
C4859 C4858 1.372 . S
C4859 C4860 1.400 . S
C4859 C4864 1.490 . S
C4860 H4850 0.930 . S
C4860 C4859 1.400 . S
C4860 C4863 1.386 . S
H4861 C4877 0.930 . S
H4862 C4878 0.931 . S
C4863 H4851 0.929 . S
C4863 C4857 1.390 . S
C4863 C4860 1.386 . S
C4864 C4859 1.490 . S
C4864 C4866 1.395 . S
C4864 C4867 1.403 . S
H4865 C4871 0.930 . S
C4866 H4852 0.930 . S
C4866 C4864 1.395 . S
C4866 C4869 1.403 . S
C4867 C4864 1.403 . S
C4867 C4868 1.524 . S
C4867 C4871 1.400 . S
C4868 H4853 0.960 . S
C4868 H4854 0.960 . S
C4868 H4855 0.960 . S
C4868 C4867 1.524 . S
C4869 C4866 1.403 . S
C4869 C4870 1.392 . S
C4869 C4873 1.495 . S
C4870 C4869 1.392 . S
C4870 C4871 1.385 . S
C4870 C4872 1.478 . S
C4871 H4865 0.930 . S
C4871 C4867 1.400 . S
C4871 C4870 1.385 . S
C4872 C4870 1.478 . S
C4872 C4874 1.381 . S
C4872 C4878 1.383 . S
C4873 C4869 1.495 . S
C4873 H4879 0.959 . S
C4873 H4880 0.961 . S
C4873 H4881 0.960 . S
C4874 C4872 1.381 . S
C4874 C4875 1.394 . S
C4874 H4882 0.930 . S
C4875 C4874 1.394 . S
C4875 C4876 1.383 . S
C4875 H4883 0.929 . S
C4876 C4875 1.383 . S
C4876 C4877 1.377 . S
C4877 H4861 0.930 . S
C4877 C4876 1.377 . S
C4877 C4878 1.379 . S
C4878 H4862 0.931 . S
C4878 C4872 1.383 . S
C4878 C4877 1.379 . S
H4879 C4873 0.959 . S
H4880 C4873 0.961 . S
H4881 C4873 0.960 . S
H4882 C4874 0.930 . S
H4883 C4875 0.929 . S
H4884 C4892 0.929 . S
H4885 C4894 0.930 . S
H4886 C4896 0.930 . S
H4887 C4899 0.929 . S
H4888 C4902 0.930 . S
H4889 C4904 0.960 . S
H4890 C4904 0.960 . S
H4891 C4904 0.960 . S
C4892 H4884 0.929 . S
C4892 C4893 1.377 . S
C4892 C4894 1.384 . S
C4893 C4892 1.377 . S
C4893 C4899 1.390 . S
C4894 H4885 0.930 . S
C4894 C4892 1.384 . S
C4894 C4895 1.372 . S
C4895 C4894 1.372 . S
C4895 C4896 1.400 . S
C4895 C4900 1.490 . S
C4896 H4886 0.930 . S
C4896 C4895 1.400 . S
C4896 C4899 1.386 . S
H4897 C4913 0.930 . S
H4898 C4914 0.931 . S
C4899 H4887 0.929 . S
C4899 C4893 1.390 . S
C4899 C4896 1.386 . S
C4900 C4895 1.490 . S
C4900 C4902 1.395 . S
C4900 C4903 1.403 . S
H4901 C4907 0.930 . S
C4902 H4888 0.930 . S
C4902 C4900 1.395 . S
C4902 C4905 1.403 . S
C4903 C4900 1.403 . S
C4903 C4904 1.524 . S
C4903 C4907 1.400 . S
C4904 H4889 0.960 . S
C4904 H4890 0.960 . S
C4904 H4891 0.960 . S
C4904 C4903 1.524 . S
C4905 C4902 1.403 . S
C4905 C4906 1.392 . S
C4905 C4909 1.495 . S
C4906 C4905 1.392 . S
C4906 C4907 1.385 . S
C4906 C4908 1.478 . S
C4907 H4901 0.930 . S
C4907 C4903 1.400 . S
C4907 C4906 1.385 . S
C4908 C4906 1.478 . S
C4908 C4910 1.381 . S
C4908 C4914 1.383 . S
C4909 C4905 1.495 . S
C4909 H4915 0.959 . S
C4909 H4916 0.961 . S
C4909 H4917 0.960 . S
C4910 C4908 1.381 . S
C4910 C4911 1.394 . S
C4910 H4918 0.930 . S
C4911 C4910 1.394 . S
C4911 C4912 1.383 . S
C4911 H4919 0.929 . S
C4912 C4911 1.383 . S
C4912 C4913 1.377 . S
C4913 H4897 0.930 . S
C4913 C4912 1.377 . S
C4913 C4914 1.379 . S
C4914 H4898 0.931 . S
C4914 C4908 1.383 . S
C4914 C4913 1.379 . S
H4915 C4909 0.959 . S
H4916 C4909 0.961 . S
H4917 C4909 0.960 . S
H4918 C4910 0.930 . S
H4919 C4911 0.929 . S
H4920 C4928 0.929 . S
H4921 C4930 0.930 . S
H4922 C4932 0.930 . S
H4923 C4935 0.929 . S
H4924 C4938 0.930 . S
H4925 C4940 0.960 . S
H4926 C4940 0.960 . S
H4927 C4940 0.960 . S
C4928 H4920 0.929 . S
C4928 C4929 1.377 . S
C4928 C4930 1.384 . S
C4929 C4928 1.377 . S
C4929 C4935 1.390 . S
C4930 H4921 0.930 . S
C4930 C4928 1.384 . S
C4930 C4931 1.372 . S
C4931 C4930 1.372 . S
C4931 C4932 1.400 . S
C4931 C4936 1.490 . S
C4932 H4922 0.930 . S
C4932 C4931 1.400 . S
C4932 C4935 1.386 . S
H4933 C4949 0.930 . S
H4934 C4950 0.931 . S
C4935 H4923 0.929 . S
C4935 C4929 1.390 . S
C4935 C4932 1.386 . S
C4936 C4931 1.490 . S
C4936 C4938 1.395 . S
C4936 C4939 1.403 . S
H4937 C4943 0.930 . S
C4938 H4924 0.930 . S
C4938 C4936 1.395 . S
C4938 C4941 1.403 . S
C4939 C4936 1.403 . S
C4939 C4940 1.524 . S
C4939 C4943 1.400 . S
C4940 H4925 0.960 . S
C4940 H4926 0.960 . S
C4940 H4927 0.960 . S
C4940 C4939 1.524 . S
C4941 C4938 1.403 . S
C4941 C4942 1.392 . S
C4941 C4945 1.495 . S
C4942 C4941 1.392 . S
C4942 C4943 1.385 . S
C4942 C4944 1.478 . S
C4943 H4937 0.930 . S
C4943 C4939 1.400 . S
C4943 C4942 1.385 . S
C4944 C4942 1.478 . S
C4944 C4946 1.381 . S
C4944 C4950 1.383 . S
C4945 C4941 1.495 . S
C4945 H4951 0.959 . S
C4945 H4952 0.961 . S
C4945 H4953 0.960 . S
C4946 C4944 1.381 . S
C4946 C4947 1.394 . S
C4946 H4954 0.930 . S
C4947 C4946 1.394 . S
C4947 C4948 1.383 . S
C4947 H4955 0.929 . S
C4948 C4947 1.383 . S
C4948 C4949 1.377 . S
C4949 H4933 0.930 . S
C4949 C4948 1.377 . S
C4949 C4950 1.379 . S
C4950 H4934 0.931 . S
C4950 C4944 1.383 . S
C4950 C4949 1.379 . S
H4951 C4945 0.959 . S
H4952 C4945 0.961 . S
H4953 C4945 0.960 . S
H4954 C4946 0.930 . S
H4955 C4947 0.929 . S
H4956 C4964 0.929 . S
H4957 C4966 0.930 . S
H4958 C4968 0.930 . S
H4959 C4971 0.929 . S
H4960 C4974 0.930 . S
H4961 C4976 0.960 . S
H4962 C4976 0.960 . S
H4963 C4976 0.960 . S
C4964 H4956 0.929 . S
C4964 C4965 1.377 . S
C4964 C4966 1.384 . S
C4965 C4964 1.377 . S
C4965 C4971 1.390 . S
C4966 H4957 0.930 . S
C4966 C4964 1.384 . S
C4966 C4967 1.372 . S
C4967 C4966 1.372 . S
C4967 C4968 1.400 . S
C4967 C4972 1.490 . S
C4968 H4958 0.930 . S
C4968 C4967 1.400 . S
C4968 C4971 1.386 . S
H4969 C4985 0.930 . S
H4970 C4986 0.931 . S
C4971 H4959 0.929 . S
C4971 C4965 1.390 . S
C4971 C4968 1.386 . S
C4972 C4967 1.490 . S
C4972 C4974 1.395 . S
C4972 C4975 1.403 . S
H4973 C4979 0.930 . S
C4974 H4960 0.930 . S
C4974 C4972 1.395 . S
C4974 C4977 1.403 . S
C4975 C4972 1.403 . S
C4975 C4976 1.524 . S
C4975 C4979 1.400 . S
C4976 H4961 0.960 . S
C4976 H4962 0.960 . S
C4976 H4963 0.960 . S
C4976 C4975 1.524 . S
C4977 C4974 1.403 . S
C4977 C4978 1.392 . S
C4977 C4981 1.495 . S
C4978 C4977 1.392 . S
C4978 C4979 1.385 . S
C4978 C4980 1.478 . S
C4979 H4973 0.930 . S
C4979 C4975 1.400 . S
C4979 C4978 1.385 . S
C4980 C4978 1.478 . S
C4980 C4982 1.381 . S
C4980 C4986 1.383 . S
C4981 C4977 1.495 . S
C4981 H4987 0.959 . S
C4981 H4988 0.961 . S
C4981 H4989 0.960 . S
C4982 C4980 1.381 . S
C4982 C4983 1.394 . S
C4982 H4990 0.930 . S
C4983 C4982 1.394 . S
C4983 C4984 1.383 . S
C4983 H4991 0.929 . S
C4984 C4983 1.383 . S
C4984 C4985 1.377 . S
C4985 H4969 0.930 . S
C4985 C4984 1.377 . S
C4985 C4986 1.379 . S
C4986 H4970 0.931 . S
C4986 C4980 1.383 . S
C4986 C4985 1.379 . S
H4987 C4981 0.959 . S
H4988 C4981 0.961 . S
H4989 C4981 0.960 . S
H4990 C4982 0.930 . S
H4991 C4983 0.929 . S
H4992 C5000 0.929 . S
H4993 C5002 0.930 . S
H4994 C5004 0.930 . S
H4995 C5007 0.929 . S
H4996 C5010 0.930 . S
H4997 C5012 0.960 . S
H4998 C5012 0.960 . S
H4999 C5012 0.960 . S
C5000 H4992 0.929 . S
C5000 C5001 1.377 . S
C5000 C5002 1.384 . S
C5001 C5000 1.377 . S
C5001 C5007 1.390 . S
C5002 H4993 0.930 . S
C5002 C5000 1.384 . S
C5002 C5003 1.372 . S
C5003 C5002 1.372 . S
C5003 C5004 1.400 . S
C5003 C5008 1.490 . S
C5004 H4994 0.930 . S
C5004 C5003 1.400 . S
C5004 C5007 1.386 . S
H5005 C5021 0.930 . S
H5006 C5022 0.931 . S
C5007 H4995 0.929 . S
C5007 C5001 1.390 . S
C5007 C5004 1.386 . S
C5008 C5003 1.490 . S
C5008 C5010 1.395 . S
C5008 C5011 1.403 . S
H5009 C5015 0.930 . S
C5010 H4996 0.930 . S
C5010 C5008 1.395 . S
C5010 C5013 1.403 . S
C5011 C5008 1.403 . S
C5011 C5012 1.524 . S
C5011 C5015 1.400 . S
C5012 H4997 0.960 . S
C5012 H4998 0.960 . S
C5012 H4999 0.960 . S
C5012 C5011 1.524 . S
C5013 C5010 1.403 . S
C5013 C5014 1.392 . S
C5013 C5017 1.495 . S
C5014 C5013 1.392 . S
C5014 C5015 1.385 . S
C5014 C5016 1.478 . S
C5015 H5009 0.930 . S
C5015 C5011 1.400 . S
C5015 C5014 1.385 . S
C5016 C5014 1.478 . S
C5016 C5018 1.381 . S
C5016 C5022 1.383 . S
C5017 C5013 1.495 . S
C5017 H5023 0.959 . S
C5017 H5024 0.961 . S
C5017 H5025 0.960 . S
C5018 C5016 1.381 . S
C5018 C5019 1.394 . S
C5018 H5026 0.930 . S
C5019 C5018 1.394 . S
C5019 C5020 1.383 . S
C5019 H5027 0.929 . S
C5020 C5019 1.383 . S
C5020 C5021 1.377 . S
C5021 H5005 0.930 . S
C5021 C5020 1.377 . S
C5021 C5022 1.379 . S
C5022 H5006 0.931 . S
C5022 C5016 1.383 . S
C5022 C5021 1.379 . S
H5023 C5017 0.959 . S
H5024 C5017 0.961 . S
H5025 C5017 0.960 . S
H5026 C5018 0.930 . S
H5027 C5019 0.929 . S
H5028 C5036 0.929 . S
H5029 C5038 0.930 . S
H5030 C5040 0.930 . S
H5031 C5043 0.929 . S
H5032 C5046 0.930 . S
H5033 C5048 0.960 . S
H5034 C5048 0.960 . S
H5035 C5048 0.960 . S
C5036 H5028 0.929 . S
C5036 C5037 1.377 . S
C5036 C5038 1.384 . S
C5037 C5036 1.377 . S
C5037 C5043 1.390 . S
C5038 H5029 0.930 . S
C5038 C5036 1.384 . S
C5038 C5039 1.372 . S
C5039 C5038 1.372 . S
C5039 C5040 1.400 . S
C5039 C5044 1.490 . S
C5040 H5030 0.930 . S
C5040 C5039 1.400 . S
C5040 C5043 1.386 . S
H5041 C5057 0.930 . S
H5042 C5058 0.931 . S
C5043 H5031 0.929 . S
C5043 C5037 1.390 . S
C5043 C5040 1.386 . S
C5044 C5039 1.490 . S
C5044 C5046 1.395 . S
C5044 C5047 1.403 . S
H5045 C5051 0.930 . S
C5046 H5032 0.930 . S
C5046 C5044 1.395 . S
C5046 C5049 1.403 . S
C5047 C5044 1.403 . S
C5047 C5048 1.524 . S
C5047 C5051 1.400 . S
C5048 H5033 0.960 . S
C5048 H5034 0.960 . S
C5048 H5035 0.960 . S
C5048 C5047 1.524 . S
C5049 C5046 1.403 . S
C5049 C5050 1.392 . S
C5049 C5053 1.495 . S
C5050 C5049 1.392 . S
C5050 C5051 1.385 . S
C5050 C5052 1.478 . S
C5051 H5045 0.930 . S
C5051 C5047 1.400 . S
C5051 C5050 1.385 . S
C5052 C5050 1.478 . S
C5052 C5054 1.381 . S
C5052 C5058 1.383 . S
C5053 C5049 1.495 . S
C5053 H5059 0.959 . S
C5053 H5060 0.961 . S
C5053 H5061 0.960 . S
C5054 C5052 1.381 . S
C5054 C5055 1.394 . S
C5054 H5062 0.930 . S
C5055 C5054 1.394 . S
C5055 C5056 1.383 . S
C5055 H5063 0.929 . S
C5056 C5055 1.383 . S
C5056 C5057 1.377 . S
C5057 H5041 0.930 . S
C5057 C5056 1.377 . S
C5057 C5058 1.379 . S
C5058 H5042 0.931 . S
C5058 C5052 1.383 . S
C5058 C5057 1.379 . S
H5059 C5053 0.959 . S
H5060 C5053 0.961 . S
H5061 C5053 0.960 . S
H5062 C5054 0.930 . S
H5063 C5055 0.929 . S
H5064 C5072 0.929 . S
H5065 C5074 0.930 . S
H5066 C5076 0.930 . S
H5067 C5079 0.929 . S
H5068 C5082 0.930 . S
H5069 C5084 0.960 . S
H5070 C5084 0.960 . S
H5071 C5084 0.960 . S
C5072 H5064 0.929 . S
C5072 C5073 1.377 . S
C5072 C5074 1.384 . S
C5073 C5072 1.377 . S
C5073 C5079 1.390 . S
C5074 H5065 0.930 . S
C5074 C5072 1.384 . S
C5074 C5075 1.372 . S
C5075 C5074 1.372 . S
C5075 C5076 1.400 . S
C5075 C5080 1.490 . S
C5076 H5066 0.930 . S
C5076 C5075 1.400 . S
C5076 C5079 1.386 . S
H5077 C5093 0.930 . S
H5078 C5094 0.931 . S
C5079 H5067 0.929 . S
C5079 C5073 1.390 . S
C5079 C5076 1.386 . S
C5080 C5075 1.490 . S
C5080 C5082 1.395 . S
C5080 C5083 1.403 . S
H5081 C5087 0.930 . S
C5082 H5068 0.930 . S
C5082 C5080 1.395 . S
C5082 C5085 1.403 . S
C5083 C5080 1.403 . S
C5083 C5084 1.524 . S
C5083 C5087 1.400 . S
C5084 H5069 0.960 . S
C5084 H5070 0.960 . S
C5084 H5071 0.960 . S
C5084 C5083 1.524 . S
C5085 C5082 1.403 . S
C5085 C5086 1.392 . S
C5085 C5089 1.495 . S
C5086 C5085 1.392 . S
C5086 C5087 1.385 . S
C5086 C5088 1.478 . S
C5087 H5081 0.930 . S
C5087 C5083 1.400 . S
C5087 C5086 1.385 . S
C5088 C5086 1.478 . S
C5088 C5090 1.381 . S
C5088 C5094 1.383 . S
C5089 C5085 1.495 . S
C5089 H5095 0.959 . S
C5089 H5096 0.961 . S
C5089 H5097 0.960 . S
C5090 C5088 1.381 . S
C5090 C5091 1.394 . S
C5090 H5098 0.930 . S
C5091 C5090 1.394 . S
C5091 C5092 1.383 . S
C5091 H5099 0.929 . S
C5092 C5091 1.383 . S
C5092 C5093 1.377 . S
C5093 H5077 0.930 . S
C5093 C5092 1.377 . S
C5093 C5094 1.379 . S
C5094 H5078 0.931 . S
C5094 C5088 1.383 . S
C5094 C5093 1.379 . S
H5095 C5089 0.959 . S
H5096 C5089 0.961 . S
H5097 C5089 0.960 . S
H5098 C5090 0.930 . S
H5099 C5091 0.929 . S
H5100 C5108 0.929 . S
H5101 C5110 0.930 . S
H5102 C5112 0.930 . S
H5103 C5115 0.929 . S
H5104 C5118 0.930 . S
H5105 C5120 0.960 . S
H5106 C5120 0.960 . S
H5107 C5120 0.960 . S
C5108 H5100 0.929 . S
C5108 C5109 1.377 . S
C5108 C5110 1.384 . S
C5109 C5108 1.377 . S
C5109 C5115 1.390 . S
C5110 H5101 0.930 . S
C5110 C5108 1.384 . S
C5110 C5111 1.372 . S
C5111 C5110 1.372 . S
C5111 C5112 1.400 . S
C5111 C5116 1.490 . S
C5112 H5102 0.930 . S
C5112 C5111 1.400 . S
C5112 C5115 1.386 . S
H5113 C5129 0.930 . S
H5114 C5130 0.931 . S
C5115 H5103 0.929 . S
C5115 C5109 1.390 . S
C5115 C5112 1.386 . S
C5116 C5111 1.490 . S
C5116 C5118 1.395 . S
C5116 C5119 1.403 . S
H5117 C5123 0.930 . S
C5118 H5104 0.930 . S
C5118 C5116 1.395 . S
C5118 C5121 1.403 . S
C5119 C5116 1.403 . S
C5119 C5120 1.524 . S
C5119 C5123 1.400 . S
C5120 H5105 0.960 . S
C5120 H5106 0.960 . S
C5120 H5107 0.960 . S
C5120 C5119 1.524 . S
C5121 C5118 1.403 . S
C5121 C5122 1.392 . S
C5121 C5125 1.495 . S
C5122 C5121 1.392 . S
C5122 C5123 1.385 . S
C5122 C5124 1.478 . S
C5123 H5117 0.930 . S
C5123 C5119 1.400 . S
C5123 C5122 1.385 . S
C5124 C5122 1.478 . S
C5124 C5126 1.381 . S
C5124 C5130 1.383 . S
C5125 C5121 1.495 . S
C5125 H5131 0.959 . S
C5125 H5132 0.961 . S
C5125 H5133 0.960 . S
C5126 C5124 1.381 . S
C5126 C5127 1.394 . S
C5126 H5134 0.930 . S
C5127 C5126 1.394 . S
C5127 C5128 1.383 . S
C5127 H5135 0.929 . S
C5128 C5127 1.383 . S
C5128 C5129 1.377 . S
C5129 H5113 0.930 . S
C5129 C5128 1.377 . S
C5129 C5130 1.379 . S
C5130 H5114 0.931 . S
C5130 C5124 1.383 . S
C5130 C5129 1.379 . S
H5131 C5125 0.959 . S
H5132 C5125 0.961 . S
H5133 C5125 0.960 . S
H5134 C5126 0.930 . S
H5135 C5127 0.929 . S
H5136 C5144 0.929 . S
H5137 C5146 0.930 . S
H5138 C5148 0.930 . S
H5139 C5151 0.929 . S
H5140 C5154 0.930 . S
H5141 C5156 0.960 . S
H5142 C5156 0.960 . S
H5143 C5156 0.960 . S
C5144 H5136 0.929 . S
C5144 C5145 1.377 . S
C5144 C5146 1.384 . S
C5145 C5144 1.377 . S
C5145 C5151 1.390 . S
C5146 H5137 0.930 . S
C5146 C5144 1.384 . S
C5146 C5147 1.372 . S
C5147 C5146 1.372 . S
C5147 C5148 1.400 . S
C5147 C5152 1.490 . S
C5148 H5138 0.930 . S
C5148 C5147 1.400 . S
C5148 C5151 1.386 . S
H5149 C5165 0.930 . S
H5150 C5166 0.931 . S
C5151 H5139 0.929 . S
C5151 C5145 1.390 . S
C5151 C5148 1.386 . S
C5152 C5147 1.490 . S
C5152 C5154 1.395 . S
C5152 C5155 1.403 . S
H5153 C5159 0.930 . S
C5154 H5140 0.930 . S
C5154 C5152 1.395 . S
C5154 C5157 1.403 . S
C5155 C5152 1.403 . S
C5155 C5156 1.524 . S
C5155 C5159 1.400 . S
C5156 H5141 0.960 . S
C5156 H5142 0.960 . S
C5156 H5143 0.960 . S
C5156 C5155 1.524 . S
C5157 C5154 1.403 . S
C5157 C5158 1.392 . S
C5157 C5161 1.495 . S
C5158 C5157 1.392 . S
C5158 C5159 1.385 . S
C5158 C5160 1.478 . S
C5159 H5153 0.930 . S
C5159 C5155 1.400 . S
C5159 C5158 1.385 . S
C5160 C5158 1.478 . S
C5160 C5162 1.381 . S
C5160 C5166 1.383 . S
C5161 C5157 1.495 . S
C5161 H5167 0.959 . S
C5161 H5168 0.961 . S
C5161 H5169 0.960 . S
C5162 C5160 1.381 . S
C5162 C5163 1.394 . S
C5162 H5170 0.930 . S
C5163 C5162 1.394 . S
C5163 C5164 1.383 . S
C5163 H5171 0.929 . S
C5164 C5163 1.383 . S
C5164 C5165 1.377 . S
C5165 H5149 0.930 . S
C5165 C5164 1.377 . S
C5165 C5166 1.379 . S
C5166 H5150 0.931 . S
C5166 C5160 1.383 . S
C5166 C5165 1.379 . S
H5167 C5161 0.959 . S
H5168 C5161 0.961 . S
H5169 C5161 0.960 . S
H5170 C5162 0.930 . S
H5171 C5163 0.929 . S
H5172 C5180 0.929 . S
H5173 C5182 0.930 . S
H5174 C5184 0.930 . S
H5175 C5187 0.929 . S
H5176 C5190 0.930 . S
H5177 C5192 0.960 . S
H5178 C5192 0.960 . S
H5179 C5192 0.960 . S
C5180 H5172 0.929 . S
C5180 C5181 1.377 . S
C5180 C5182 1.384 . S
C5181 C5180 1.377 . S
C5181 C5187 1.390 . S
C5182 H5173 0.930 . S
C5182 C5180 1.384 . S
C5182 C5183 1.372 . S
C5183 C5182 1.372 . S
C5183 C5184 1.400 . S
C5183 C5188 1.490 . S
C5184 H5174 0.930 . S
C5184 C5183 1.400 . S
C5184 C5187 1.386 . S
H5185 C5201 0.930 . S
H5186 C5202 0.931 . S
C5187 H5175 0.929 . S
C5187 C5181 1.390 . S
C5187 C5184 1.386 . S
C5188 C5183 1.490 . S
C5188 C5190 1.395 . S
C5188 C5191 1.403 . S
H5189 C5195 0.930 . S
C5190 H5176 0.930 . S
C5190 C5188 1.395 . S
C5190 C5193 1.403 . S
C5191 C5188 1.403 . S
C5191 C5192 1.524 . S
C5191 C5195 1.400 . S
C5192 H5177 0.960 . S
C5192 H5178 0.960 . S
C5192 H5179 0.960 . S
C5192 C5191 1.524 . S
C5193 C5190 1.403 . S
C5193 C5194 1.392 . S
C5193 C5197 1.495 . S
C5194 C5193 1.392 . S
C5194 C5195 1.385 . S
C5194 C5196 1.478 . S
C5195 H5189 0.930 . S
C5195 C5191 1.400 . S
C5195 C5194 1.385 . S
C5196 C5194 1.478 . S
C5196 C5198 1.381 . S
C5196 C5202 1.383 . S
C5197 C5193 1.495 . S
C5197 H5203 0.959 . S
C5197 H5204 0.961 . S
C5197 H5205 0.960 . S
C5198 C5196 1.381 . S
C5198 C5199 1.394 . S
C5198 H5206 0.930 . S
C5199 C5198 1.394 . S
C5199 C5200 1.383 . S
C5199 H5207 0.929 . S
C5200 C5199 1.383 . S
C5200 C5201 1.377 . S
C5201 H5185 0.930 . S
C5201 C5200 1.377 . S
C5201 C5202 1.379 . S
C5202 H5186 0.931 . S
C5202 C5196 1.383 . S
C5202 C5201 1.379 . S
H5203 C5197 0.959 . S
H5204 C5197 0.961 . S
H5205 C5197 0.960 . S
H5206 C5198 0.930 . S
H5207 C5199 0.929 . S
H5208 C5216 0.929 . S
H5209 C5218 0.930 . S
H5210 C5220 0.930 . S
H5211 C5223 0.929 . S
H5212 C5226 0.930 . S
H5213 C5228 0.960 . S
H5214 C5228 0.960 . S
H5215 C5228 0.960 . S
C5216 H5208 0.929 . S
C5216 C5217 1.377 . S
C5216 C5218 1.384 . S
C5217 C5216 1.377 . S
C5217 C5223 1.390 . S
C5218 H5209 0.930 . S
C5218 C5216 1.384 . S
C5218 C5219 1.372 . S
C5219 C5218 1.372 . S
C5219 C5220 1.400 . S
C5219 C5224 1.490 . S
C5220 H5210 0.930 . S
C5220 C5219 1.400 . S
C5220 C5223 1.386 . S
H5221 C5237 0.930 . S
H5222 C5238 0.931 . S
C5223 H5211 0.929 . S
C5223 C5217 1.390 . S
C5223 C5220 1.386 . S
C5224 C5219 1.490 . S
C5224 C5226 1.395 . S
C5224 C5227 1.403 . S
H5225 C5231 0.930 . S
C5226 H5212 0.930 . S
C5226 C5224 1.395 . S
C5226 C5229 1.403 . S
C5227 C5224 1.403 . S
C5227 C5228 1.524 . S
C5227 C5231 1.400 . S
C5228 H5213 0.960 . S
C5228 H5214 0.960 . S
C5228 H5215 0.960 . S
C5228 C5227 1.524 . S
C5229 C5226 1.403 . S
C5229 C5230 1.392 . S
C5229 C5233 1.495 . S
C5230 C5229 1.392 . S
C5230 C5231 1.385 . S
C5230 C5232 1.478 . S
C5231 H5225 0.930 . S
C5231 C5227 1.400 . S
C5231 C5230 1.385 . S
C5232 C5230 1.478 . S
C5232 C5234 1.381 . S
C5232 C5238 1.383 . S
C5233 C5229 1.495 . S
C5233 H5239 0.959 . S
C5233 H5240 0.961 . S
C5233 H5241 0.960 . S
C5234 C5232 1.381 . S
C5234 C5235 1.394 . S
C5234 H5242 0.930 . S
C5235 C5234 1.394 . S
C5235 C5236 1.383 . S
C5235 H5243 0.929 . S
C5236 C5235 1.383 . S
C5236 C5237 1.377 . S
C5237 H5221 0.930 . S
C5237 C5236 1.377 . S
C5237 C5238 1.379 . S
C5238 H5222 0.931 . S
C5238 C5232 1.383 . S
C5238 C5237 1.379 . S
H5239 C5233 0.959 . S
H5240 C5233 0.961 . S
H5241 C5233 0.960 . S
H5242 C5234 0.930 . S
H5243 C5235 0.929 . S
H5244 C5252 0.929 . S
H5245 C5254 0.930 . S
H5246 C5256 0.930 . S
H5247 C5259 0.929 . S
H5248 C5262 0.930 . S
H5249 C5264 0.960 . S
H5250 C5264 0.960 . S
H5251 C5264 0.960 . S
C5252 H5244 0.929 . S
C5252 C5253 1.377 . S
C5252 C5254 1.384 . S
C5253 C5252 1.377 . S
C5253 C5259 1.390 . S
C5254 H5245 0.930 . S
C5254 C5252 1.384 . S
C5254 C5255 1.372 . S
C5255 C5254 1.372 . S
C5255 C5256 1.400 . S
C5255 C5260 1.490 . S
C5256 H5246 0.930 . S
C5256 C5255 1.400 . S
C5256 C5259 1.386 . S
H5257 C5273 0.930 . S
H5258 C5274 0.931 . S
C5259 H5247 0.929 . S
C5259 C5253 1.390 . S
C5259 C5256 1.386 . S
C5260 C5255 1.490 . S
C5260 C5262 1.395 . S
C5260 C5263 1.403 . S
H5261 C5267 0.930 . S
C5262 H5248 0.930 . S
C5262 C5260 1.395 . S
C5262 C5265 1.403 . S
C5263 C5260 1.403 . S
C5263 C5264 1.524 . S
C5263 C5267 1.400 . S
C5264 H5249 0.960 . S
C5264 H5250 0.960 . S
C5264 H5251 0.960 . S
C5264 C5263 1.524 . S
C5265 C5262 1.403 . S
C5265 C5266 1.392 . S
C5265 C5269 1.495 . S
C5266 C5265 1.392 . S
C5266 C5267 1.385 . S
C5266 C5268 1.478 . S
C5267 H5261 0.930 . S
C5267 C5263 1.400 . S
C5267 C5266 1.385 . S
C5268 C5266 1.478 . S
C5268 C5270 1.381 . S
C5268 C5274 1.383 . S
C5269 C5265 1.495 . S
C5269 H5275 0.959 . S
C5269 H5276 0.961 . S
C5269 H5277 0.960 . S
C5270 C5268 1.381 . S
C5270 C5271 1.394 . S
C5270 H5278 0.930 . S
C5271 C5270 1.394 . S
C5271 C5272 1.383 . S
C5271 H5279 0.929 . S
C5272 C5271 1.383 . S
C5272 C5273 1.377 . S
C5273 H5257 0.930 . S
C5273 C5272 1.377 . S
C5273 C5274 1.379 . S
C5274 H5258 0.931 . S
C5274 C5268 1.383 . S
C5274 C5273 1.379 . S
H5275 C5269 0.959 . S
H5276 C5269 0.961 . S
H5277 C5269 0.960 . S
H5278 C5270 0.930 . S
H5279 C5271 0.929 . S
H5280 C5288 0.929 . S
H5281 C5290 0.930 . S
H5282 C5292 0.930 . S
H5283 C5295 0.929 . S
H5284 C5298 0.930 . S
H5285 C5300 0.960 . S
H5286 C5300 0.960 . S
H5287 C5300 0.960 . S
C5288 H5280 0.929 . S
C5288 C5289 1.377 . S
C5288 C5290 1.384 . S
C5289 C5288 1.377 . S
C5289 C5295 1.390 . S
C5290 H5281 0.930 . S
C5290 C5288 1.384 . S
C5290 C5291 1.372 . S
C5291 C5290 1.372 . S
C5291 C5292 1.400 . S
C5291 C5296 1.490 . S
C5292 H5282 0.930 . S
C5292 C5291 1.400 . S
C5292 C5295 1.386 . S
H5293 C5309 0.930 . S
H5294 C5310 0.931 . S
C5295 H5283 0.929 . S
C5295 C5289 1.390 . S
C5295 C5292 1.386 . S
C5296 C5291 1.490 . S
C5296 C5298 1.395 . S
C5296 C5299 1.403 . S
H5297 C5303 0.930 . S
C5298 H5284 0.930 . S
C5298 C5296 1.395 . S
C5298 C5301 1.403 . S
C5299 C5296 1.403 . S
C5299 C5300 1.524 . S
C5299 C5303 1.400 . S
C5300 H5285 0.960 . S
C5300 H5286 0.960 . S
C5300 H5287 0.960 . S
C5300 C5299 1.524 . S
C5301 C5298 1.403 . S
C5301 C5302 1.392 . S
C5301 C5305 1.495 . S
C5302 C5301 1.392 . S
C5302 C5303 1.385 . S
C5302 C5304 1.478 . S
C5303 H5297 0.930 . S
C5303 C5299 1.400 . S
C5303 C5302 1.385 . S
C5304 C5302 1.478 . S
C5304 C5306 1.381 . S
C5304 C5310 1.383 . S
C5305 C5301 1.495 . S
C5305 H5311 0.959 . S
C5305 H5312 0.961 . S
C5305 H5313 0.960 . S
C5306 C5304 1.381 . S
C5306 C5307 1.394 . S
C5306 H5314 0.930 . S
C5307 C5306 1.394 . S
C5307 C5308 1.383 . S
C5307 H5315 0.929 . S
C5308 C5307 1.383 . S
C5308 C5309 1.377 . S
C5309 H5293 0.930 . S
C5309 C5308 1.377 . S
C5309 C5310 1.379 . S
C5310 H5294 0.931 . S
C5310 C5304 1.383 . S
C5310 C5309 1.379 . S
H5311 C5305 0.959 . S
H5312 C5305 0.961 . S
H5313 C5305 0.960 . S
H5314 C5306 0.930 . S
H5315 C5307 0.929 . S
H5316 C5324 0.929 . S
H5317 C5326 0.930 . S
H5318 C5328 0.930 . S
H5319 C5331 0.929 . S
H5320 C5334 0.930 . S
H5321 C5336 0.960 . S
H5322 C5336 0.960 . S
H5323 C5336 0.960 . S
C5324 H5316 0.929 . S
C5324 C5325 1.377 . S
C5324 C5326 1.384 . S
C5325 C5324 1.377 . S
C5325 C5331 1.390 . S
C5326 H5317 0.930 . S
C5326 C5324 1.384 . S
C5326 C5327 1.372 . S
C5327 C5326 1.372 . S
C5327 C5328 1.400 . S
C5327 C5332 1.490 . S
C5328 H5318 0.930 . S
C5328 C5327 1.400 . S
C5328 C5331 1.386 . S
H5329 C5345 0.930 . S
H5330 C5346 0.931 . S
C5331 H5319 0.929 . S
C5331 C5325 1.390 . S
C5331 C5328 1.386 . S
C5332 C5327 1.490 . S
C5332 C5334 1.395 . S
C5332 C5335 1.403 . S
H5333 C5339 0.930 . S
C5334 H5320 0.930 . S
C5334 C5332 1.395 . S
C5334 C5337 1.403 . S
C5335 C5332 1.403 . S
C5335 C5336 1.524 . S
C5335 C5339 1.400 . S
C5336 H5321 0.960 . S
C5336 H5322 0.960 . S
C5336 H5323 0.960 . S
C5336 C5335 1.524 . S
C5337 C5334 1.403 . S
C5337 C5338 1.392 . S
C5337 C5341 1.495 . S
C5338 C5337 1.392 . S
C5338 C5339 1.385 . S
C5338 C5340 1.478 . S
C5339 H5333 0.930 . S
C5339 C5335 1.400 . S
C5339 C5338 1.385 . S
C5340 C5338 1.478 . S
C5340 C5342 1.381 . S
C5340 C5346 1.383 . S
C5341 C5337 1.495 . S
C5341 H5347 0.959 . S
C5341 H5348 0.961 . S
C5341 H5349 0.960 . S
C5342 C5340 1.381 . S
C5342 C5343 1.394 . S
C5342 H5350 0.930 . S
C5343 C5342 1.394 . S
C5343 C5344 1.383 . S
C5343 H5351 0.929 . S
C5344 C5343 1.383 . S
C5344 C5345 1.377 . S
C5345 H5329 0.930 . S
C5345 C5344 1.377 . S
C5345 C5346 1.379 . S
C5346 H5330 0.931 . S
C5346 C5340 1.383 . S
C5346 C5345 1.379 . S
H5347 C5341 0.959 . S
H5348 C5341 0.961 . S
H5349 C5341 0.960 . S
H5350 C5342 0.930 . S
H5351 C5343 0.929 . S
H5352 C5360 0.929 . S
H5353 C5362 0.930 . S
H5354 C5364 0.930 . S
H5355 C5367 0.929 . S
H5356 C5370 0.930 . S
H5357 C5372 0.960 . S
H5358 C5372 0.960 . S
H5359 C5372 0.960 . S
C5360 H5352 0.929 . S
C5360 C5361 1.377 . S
C5360 C5362 1.384 . S
C5361 C5360 1.377 . S
C5361 C5367 1.390 . S
C5362 H5353 0.930 . S
C5362 C5360 1.384 . S
C5362 C5363 1.372 . S
C5363 C5362 1.372 . S
C5363 C5364 1.400 . S
C5363 C5368 1.490 . S
C5364 H5354 0.930 . S
C5364 C5363 1.400 . S
C5364 C5367 1.386 . S
H5365 C5381 0.930 . S
H5366 C5382 0.931 . S
C5367 H5355 0.929 . S
C5367 C5361 1.390 . S
C5367 C5364 1.386 . S
C5368 C5363 1.490 . S
C5368 C5370 1.395 . S
C5368 C5371 1.403 . S
H5369 C5375 0.930 . S
C5370 H5356 0.930 . S
C5370 C5368 1.395 . S
C5370 C5373 1.403 . S
C5371 C5368 1.403 . S
C5371 C5372 1.524 . S
C5371 C5375 1.400 . S
C5372 H5357 0.960 . S
C5372 H5358 0.960 . S
C5372 H5359 0.960 . S
C5372 C5371 1.524 . S
C5373 C5370 1.403 . S
C5373 C5374 1.392 . S
C5373 C5377 1.495 . S
C5374 C5373 1.392 . S
C5374 C5375 1.385 . S
C5374 C5376 1.478 . S
C5375 H5369 0.930 . S
C5375 C5371 1.400 . S
C5375 C5374 1.385 . S
C5376 C5374 1.478 . S
C5376 C5378 1.381 . S
C5376 C5382 1.383 . S
C5377 C5373 1.495 . S
C5377 H5383 0.959 . S
C5377 H5384 0.961 . S
C5377 H5385 0.960 . S
C5378 C5376 1.381 . S
C5378 C5379 1.394 . S
C5378 H5386 0.930 . S
C5379 C5378 1.394 . S
C5379 C5380 1.383 . S
C5379 H5387 0.929 . S
C5380 C5379 1.383 . S
C5380 C5381 1.377 . S
C5381 H5365 0.930 . S
C5381 C5380 1.377 . S
C5381 C5382 1.379 . S
C5382 H5366 0.931 . S
C5382 C5376 1.383 . S
C5382 C5381 1.379 . S
H5383 C5377 0.959 . S
H5384 C5377 0.961 . S
H5385 C5377 0.960 . S
H5386 C5378 0.930 . S
H5387 C5379 0.929 . S
H5388 C5396 0.929 . S
H5389 C5398 0.930 . S
H5390 C5400 0.930 . S
H5391 C5403 0.929 . S
H5392 C5406 0.930 . S
H5393 C5408 0.960 . S
H5394 C5408 0.960 . S
H5395 C5408 0.960 . S
C5396 H5388 0.929 . S
C5396 C5397 1.377 . S
C5396 C5398 1.384 . S
C5397 C5396 1.377 . S
C5397 C5403 1.390 . S
C5398 H5389 0.930 . S
C5398 C5396 1.384 . S
C5398 C5399 1.372 . S
C5399 C5398 1.372 . S
C5399 C5400 1.400 . S
C5399 C5404 1.490 . S
C5400 H5390 0.930 . S
C5400 C5399 1.400 . S
C5400 C5403 1.386 . S
H5401 C5417 0.930 . S
H5402 C5418 0.931 . S
C5403 H5391 0.929 . S
C5403 C5397 1.390 . S
C5403 C5400 1.386 . S
C5404 C5399 1.490 . S
C5404 C5406 1.395 . S
C5404 C5407 1.403 . S
H5405 C5411 0.930 . S
C5406 H5392 0.930 . S
C5406 C5404 1.395 . S
C5406 C5409 1.403 . S
C5407 C5404 1.403 . S
C5407 C5408 1.524 . S
C5407 C5411 1.400 . S
C5408 H5393 0.960 . S
C5408 H5394 0.960 . S
C5408 H5395 0.960 . S
C5408 C5407 1.524 . S
C5409 C5406 1.403 . S
C5409 C5410 1.392 . S
C5409 C5413 1.495 . S
C5410 C5409 1.392 . S
C5410 C5411 1.385 . S
C5410 C5412 1.478 . S
C5411 H5405 0.930 . S
C5411 C5407 1.400 . S
C5411 C5410 1.385 . S
C5412 C5410 1.478 . S
C5412 C5414 1.381 . S
C5412 C5418 1.383 . S
C5413 C5409 1.495 . S
C5413 H5419 0.959 . S
C5413 H5420 0.961 . S
C5413 H5421 0.960 . S
C5414 C5412 1.381 . S
C5414 C5415 1.394 . S
C5414 H5422 0.930 . S
C5415 C5414 1.394 . S
C5415 C5416 1.383 . S
C5415 H5423 0.929 . S
C5416 C5415 1.383 . S
C5416 C5417 1.377 . S
C5417 H5401 0.930 . S
C5417 C5416 1.377 . S
C5417 C5418 1.379 . S
C5418 H5402 0.931 . S
C5418 C5412 1.383 . S
C5418 C5417 1.379 . S
H5419 C5413 0.959 . S
H5420 C5413 0.961 . S
H5421 C5413 0.960 . S
H5422 C5414 0.930 . S
H5423 C5415 0.929 . S
H5424 C5432 0.929 . S
H5425 C5434 0.930 . S
H5426 C5436 0.930 . S
H5427 C5439 0.929 . S
H5428 C5442 0.930 . S
H5429 C5444 0.960 . S
H5430 C5444 0.960 . S
H5431 C5444 0.960 . S
C5432 H5424 0.929 . S
C5432 C5433 1.377 . S
C5432 C5434 1.384 . S
C5433 C5432 1.377 . S
C5433 C5439 1.390 . S
C5434 H5425 0.930 . S
C5434 C5432 1.384 . S
C5434 C5435 1.372 . S
C5435 C5434 1.372 . S
C5435 C5436 1.400 . S
C5435 C5440 1.490 . S
C5436 H5426 0.930 . S
C5436 C5435 1.400 . S
C5436 C5439 1.386 . S
H5437 C5453 0.930 . S
H5438 C5454 0.931 . S
C5439 H5427 0.929 . S
C5439 C5433 1.390 . S
C5439 C5436 1.386 . S
C5440 C5435 1.490 . S
C5440 C5442 1.395 . S
C5440 C5443 1.403 . S
H5441 C5447 0.930 . S
C5442 H5428 0.930 . S
C5442 C5440 1.395 . S
C5442 C5445 1.403 . S
C5443 C5440 1.403 . S
C5443 C5444 1.524 . S
C5443 C5447 1.400 . S
C5444 H5429 0.960 . S
C5444 H5430 0.960 . S
C5444 H5431 0.960 . S
C5444 C5443 1.524 . S
C5445 C5442 1.403 . S
C5445 C5446 1.392 . S
C5445 C5449 1.495 . S
C5446 C5445 1.392 . S
C5446 C5447 1.385 . S
C5446 C5448 1.478 . S
C5447 H5441 0.930 . S
C5447 C5443 1.400 . S
C5447 C5446 1.385 . S
C5448 C5446 1.478 . S
C5448 C5450 1.381 . S
C5448 C5454 1.383 . S
C5449 C5445 1.495 . S
C5449 H5455 0.959 . S
C5449 H5456 0.961 . S
C5449 H5457 0.960 . S
C5450 C5448 1.381 . S
C5450 C5451 1.394 . S
C5450 H5458 0.930 . S
C5451 C5450 1.394 . S
C5451 C5452 1.383 . S
C5451 H5459 0.929 . S
C5452 C5451 1.383 . S
C5452 C5453 1.377 . S
C5453 H5437 0.930 . S
C5453 C5452 1.377 . S
C5453 C5454 1.379 . S
C5454 H5438 0.931 . S
C5454 C5448 1.383 . S
C5454 C5453 1.379 . S
H5455 C5449 0.959 . S
H5456 C5449 0.961 . S
H5457 C5449 0.960 . S
H5458 C5450 0.930 . S
H5459 C5451 0.929 . S
H5460 C5468 0.929 . S
H5461 C5470 0.930 . S
H5462 C5472 0.930 . S
H5463 C5475 0.929 . S
H5464 C5478 0.930 . S
H5465 C5480 0.960 . S
H5466 C5480 0.960 . S
H5467 C5480 0.960 . S
C5468 H5460 0.929 . S
C5468 C5469 1.377 . S
C5468 C5470 1.384 . S
C5469 C5468 1.377 . S
C5469 C5475 1.390 . S
C5470 H5461 0.930 . S
C5470 C5468 1.384 . S
C5470 C5471 1.372 . S
C5471 C5470 1.372 . S
C5471 C5472 1.400 . S
C5471 C5476 1.490 . S
C5472 H5462 0.930 . S
C5472 C5471 1.400 . S
C5472 C5475 1.386 . S
H5473 C5489 0.930 . S
H5474 C5490 0.931 . S
C5475 H5463 0.929 . S
C5475 C5469 1.390 . S
C5475 C5472 1.386 . S
C5476 C5471 1.490 . S
C5476 C5478 1.395 . S
C5476 C5479 1.403 . S
H5477 C5483 0.930 . S
C5478 H5464 0.930 . S
C5478 C5476 1.395 . S
C5478 C5481 1.403 . S
C5479 C5476 1.403 . S
C5479 C5480 1.524 . S
C5479 C5483 1.400 . S
C5480 H5465 0.960 . S
C5480 H5466 0.960 . S
C5480 H5467 0.960 . S
C5480 C5479 1.524 . S
C5481 C5478 1.403 . S
C5481 C5482 1.392 . S
C5481 C5485 1.495 . S
C5482 C5481 1.392 . S
C5482 C5483 1.385 . S
C5482 C5484 1.478 . S
C5483 H5477 0.930 . S
C5483 C5479 1.400 . S
C5483 C5482 1.385 . S
C5484 C5482 1.478 . S
C5484 C5486 1.381 . S
C5484 C5490 1.383 . S
C5485 C5481 1.495 . S
C5485 H5491 0.959 . S
C5485 H5492 0.961 . S
C5485 H5493 0.960 . S
C5486 C5484 1.381 . S
C5486 C5487 1.394 . S
C5486 H5494 0.930 . S
C5487 C5486 1.394 . S
C5487 C5488 1.383 . S
C5487 H5495 0.929 . S
C5488 C5487 1.383 . S
C5488 C5489 1.377 . S
C5489 H5473 0.930 . S
C5489 C5488 1.377 . S
C5489 C5490 1.379 . S
C5490 H5474 0.931 . S
C5490 C5484 1.383 . S
C5490 C5489 1.379 . S
H5491 C5485 0.959 . S
H5492 C5485 0.961 . S
H5493 C5485 0.960 . S
H5494 C5486 0.930 . S
H5495 C5487 0.929 . S
H5496 C5504 0.929 . S
H5497 C5506 0.930 . S
H5498 C5508 0.930 . S
H5499 C5511 0.929 . S
H5500 C5514 0.930 . S
H5501 C5516 0.960 . S
H5502 C5516 0.960 . S
H5503 C5516 0.960 . S
C5504 H5496 0.929 . S
C5504 C5505 1.377 . S
C5504 C5506 1.384 . S
C5505 C5504 1.377 . S
C5505 C5511 1.390 . S
C5506 H5497 0.930 . S
C5506 C5504 1.384 . S
C5506 C5507 1.372 . S
C5507 C5506 1.372 . S
C5507 C5508 1.400 . S
C5507 C5512 1.490 . S
C5508 H5498 0.930 . S
C5508 C5507 1.400 . S
C5508 C5511 1.386 . S
H5509 C5525 0.930 . S
H5510 C5526 0.931 . S
C5511 H5499 0.929 . S
C5511 C5505 1.390 . S
C5511 C5508 1.386 . S
C5512 C5507 1.490 . S
C5512 C5514 1.395 . S
C5512 C5515 1.403 . S
H5513 C5519 0.930 . S
C5514 H5500 0.930 . S
C5514 C5512 1.395 . S
C5514 C5517 1.403 . S
C5515 C5512 1.403 . S
C5515 C5516 1.524 . S
C5515 C5519 1.400 . S
C5516 H5501 0.960 . S
C5516 H5502 0.960 . S
C5516 H5503 0.960 . S
C5516 C5515 1.524 . S
C5517 C5514 1.403 . S
C5517 C5518 1.392 . S
C5517 C5521 1.495 . S
C5518 C5517 1.392 . S
C5518 C5519 1.385 . S
C5518 C5520 1.478 . S
C5519 H5513 0.930 . S
C5519 C5515 1.400 . S
C5519 C5518 1.385 . S
C5520 C5518 1.478 . S
C5520 C5522 1.381 . S
C5520 C5526 1.383 . S
C5521 C5517 1.495 . S
C5521 H5527 0.959 . S
C5521 H5528 0.961 . S
C5521 H5529 0.960 . S
C5522 C5520 1.381 . S
C5522 C5523 1.394 . S
C5522 H5530 0.930 . S
C5523 C5522 1.394 . S
C5523 C5524 1.383 . S
C5523 H5531 0.929 . S
C5524 C5523 1.383 . S
C5524 C5525 1.377 . S
C5525 H5509 0.930 . S
C5525 C5524 1.377 . S
C5525 C5526 1.379 . S
C5526 H5510 0.931 . S
C5526 C5520 1.383 . S
C5526 C5525 1.379 . S
H5527 C5521 0.959 . S
H5528 C5521 0.961 . S
H5529 C5521 0.960 . S
H5530 C5522 0.930 . S
H5531 C5523 0.929 . S
H5532 C5540 0.929 . S
H5533 C5542 0.930 . S
H5534 C5544 0.930 . S
H5535 C5547 0.929 . S
H5536 C5550 0.930 . S
H5537 C5552 0.960 . S
H5538 C5552 0.960 . S
H5539 C5552 0.960 . S
C5540 H5532 0.929 . S
C5540 C5541 1.377 . S
C5540 C5542 1.384 . S
C5541 C5540 1.377 . S
C5541 C5547 1.390 . S
C5542 H5533 0.930 . S
C5542 C5540 1.384 . S
C5542 C5543 1.372 . S
C5543 C5542 1.372 . S
C5543 C5544 1.400 . S
C5543 C5548 1.490 . S
C5544 H5534 0.930 . S
C5544 C5543 1.400 . S
C5544 C5547 1.386 . S
H5545 C5561 0.930 . S
H5546 C5562 0.931 . S
C5547 H5535 0.929 . S
C5547 C5541 1.390 . S
C5547 C5544 1.386 . S
C5548 C5543 1.490 . S
C5548 C5550 1.395 . S
C5548 C5551 1.403 . S
H5549 C5555 0.930 . S
C5550 H5536 0.930 . S
C5550 C5548 1.395 . S
C5550 C5553 1.403 . S
C5551 C5548 1.403 . S
C5551 C5552 1.524 . S
C5551 C5555 1.400 . S
C5552 H5537 0.960 . S
C5552 H5538 0.960 . S
C5552 H5539 0.960 . S
C5552 C5551 1.524 . S
C5553 C5550 1.403 . S
C5553 C5554 1.392 . S
C5553 C5557 1.495 . S
C5554 C5553 1.392 . S
C5554 C5555 1.385 . S
C5554 C5556 1.478 . S
C5555 H5549 0.930 . S
C5555 C5551 1.400 . S
C5555 C5554 1.385 . S
C5556 C5554 1.478 . S
C5556 C5558 1.381 . S
C5556 C5562 1.383 . S
C5557 C5553 1.495 . S
C5557 H5563 0.959 . S
C5557 H5564 0.961 . S
C5557 H5565 0.960 . S
C5558 C5556 1.381 . S
C5558 C5559 1.394 . S
C5558 H5566 0.930 . S
C5559 C5558 1.394 . S
C5559 C5560 1.383 . S
C5559 H5567 0.929 . S
C5560 C5559 1.383 . S
C5560 C5561 1.377 . S
C5561 H5545 0.930 . S
C5561 C5560 1.377 . S
C5561 C5562 1.379 . S
C5562 H5546 0.931 . S
C5562 C5556 1.383 . S
C5562 C5561 1.379 . S
H5563 C5557 0.959 . S
H5564 C5557 0.961 . S
H5565 C5557 0.960 . S
H5566 C5558 0.930 . S
H5567 C5559 0.929 . S
H5568 C5576 0.929 . S
H5569 C5578 0.930 . S
H5570 C5580 0.930 . S
H5571 C5583 0.929 . S
H5572 C5586 0.930 . S
H5573 C5588 0.960 . S
H5574 C5588 0.960 . S
H5575 C5588 0.960 . S
C5576 H5568 0.929 . S
C5576 C5577 1.377 . S
C5576 C5578 1.384 . S
C5577 C5576 1.377 . S
C5577 C5583 1.390 . S
C5578 H5569 0.930 . S
C5578 C5576 1.384 . S
C5578 C5579 1.372 . S
C5579 C5578 1.372 . S
C5579 C5580 1.400 . S
C5579 C5584 1.490 . S
C5580 H5570 0.930 . S
C5580 C5579 1.400 . S
C5580 C5583 1.386 . S
H5581 C5597 0.930 . S
H5582 C5598 0.931 . S
C5583 H5571 0.929 . S
C5583 C5577 1.390 . S
C5583 C5580 1.386 . S
C5584 C5579 1.490 . S
C5584 C5586 1.395 . S
C5584 C5587 1.403 . S
H5585 C5591 0.930 . S
C5586 H5572 0.930 . S
C5586 C5584 1.395 . S
C5586 C5589 1.403 . S
C5587 C5584 1.403 . S
C5587 C5588 1.524 . S
C5587 C5591 1.400 . S
C5588 H5573 0.960 . S
C5588 H5574 0.960 . S
C5588 H5575 0.960 . S
C5588 C5587 1.524 . S
C5589 C5586 1.403 . S
C5589 C5590 1.392 . S
C5589 C5593 1.495 . S
C5590 C5589 1.392 . S
C5590 C5591 1.385 . S
C5590 C5592 1.478 . S
C5591 H5585 0.930 . S
C5591 C5587 1.400 . S
C5591 C5590 1.385 . S
C5592 C5590 1.478 . S
C5592 C5594 1.381 . S
C5592 C5598 1.383 . S
C5593 C5589 1.495 . S
C5593 H5599 0.959 . S
C5593 H5600 0.961 . S
C5593 H5601 0.960 . S
C5594 C5592 1.381 . S
C5594 C5595 1.394 . S
C5594 H5602 0.930 . S
C5595 C5594 1.394 . S
C5595 C5596 1.383 . S
C5595 H5603 0.929 . S
C5596 C5595 1.383 . S
C5596 C5597 1.377 . S
C5597 H5581 0.930 . S
C5597 C5596 1.377 . S
C5597 C5598 1.379 . S
C5598 H5582 0.931 . S
C5598 C5592 1.383 . S
C5598 C5597 1.379 . S
H5599 C5593 0.959 . S
H5600 C5593 0.961 . S
H5601 C5593 0.960 . S
H5602 C5594 0.930 . S
H5603 C5595 0.929 . S
H5604 C5612 0.929 . S
H5605 C5614 0.930 . S
H5606 C5616 0.930 . S
H5607 C5619 0.929 . S
H5608 C5622 0.930 . S
H5609 C5624 0.960 . S
H5610 C5624 0.960 . S
H5611 C5624 0.960 . S
C5612 H5604 0.929 . S
C5612 C5613 1.377 . S
C5612 C5614 1.384 . S
C5613 C5612 1.377 . S
C5613 C5619 1.390 . S
C5614 H5605 0.930 . S
C5614 C5612 1.384 . S
C5614 C5615 1.372 . S
C5615 C5614 1.372 . S
C5615 C5616 1.400 . S
C5615 C5620 1.490 . S
C5616 H5606 0.930 . S
C5616 C5615 1.400 . S
C5616 C5619 1.386 . S
H5617 C5633 0.930 . S
H5618 C5634 0.931 . S
C5619 H5607 0.929 . S
C5619 C5613 1.390 . S
C5619 C5616 1.386 . S
C5620 C5615 1.490 . S
C5620 C5622 1.395 . S
C5620 C5623 1.403 . S
H5621 C5627 0.930 . S
C5622 H5608 0.930 . S
C5622 C5620 1.395 . S
C5622 C5625 1.403 . S
C5623 C5620 1.403 . S
C5623 C5624 1.524 . S
C5623 C5627 1.400 . S
C5624 H5609 0.960 . S
C5624 H5610 0.960 . S
C5624 H5611 0.960 . S
C5624 C5623 1.524 . S
C5625 C5622 1.403 . S
C5625 C5626 1.392 . S
C5625 C5629 1.495 . S
C5626 C5625 1.392 . S
C5626 C5627 1.385 . S
C5626 C5628 1.478 . S
C5627 H5621 0.930 . S
C5627 C5623 1.400 . S
C5627 C5626 1.385 . S
C5628 C5626 1.478 . S
C5628 C5630 1.381 . S
C5628 C5634 1.383 . S
C5629 C5625 1.495 . S
C5629 H5635 0.959 . S
C5629 H5636 0.961 . S
C5629 H5637 0.960 . S
C5630 C5628 1.381 . S
C5630 C5631 1.394 . S
C5630 H5638 0.930 . S
C5631 C5630 1.394 . S
C5631 C5632 1.383 . S
C5631 H5639 0.929 . S
C5632 C5631 1.383 . S
C5632 C5633 1.377 . S
C5633 H5617 0.930 . S
C5633 C5632 1.377 . S
C5633 C5634 1.379 . S
C5634 H5618 0.931 . S
C5634 C5628 1.383 . S
C5634 C5633 1.379 . S
H5635 C5629 0.959 . S
H5636 C5629 0.961 . S
H5637 C5629 0.960 . S
H5638 C5630 0.930 . S
H5639 C5631 0.929 . S
H5640 C5648 0.929 . S
H5641 C5650 0.930 . S
H5642 C5652 0.930 . S
H5643 C5655 0.929 . S
H5644 C5658 0.930 . S
H5645 C5660 0.960 . S
H5646 C5660 0.960 . S
H5647 C5660 0.960 . S
C5648 H5640 0.929 . S
C5648 C5649 1.377 . S
C5648 C5650 1.384 . S
C5649 C5648 1.377 . S
C5649 C5655 1.390 . S
C5650 H5641 0.930 . S
C5650 C5648 1.384 . S
C5650 C5651 1.372 . S
C5651 C5650 1.372 . S
C5651 C5652 1.400 . S
C5651 C5656 1.490 . S
C5652 H5642 0.930 . S
C5652 C5651 1.400 . S
C5652 C5655 1.386 . S
H5653 C5669 0.930 . S
H5654 C5670 0.931 . S
C5655 H5643 0.929 . S
C5655 C5649 1.390 . S
C5655 C5652 1.386 . S
C5656 C5651 1.490 . S
C5656 C5658 1.395 . S
C5656 C5659 1.403 . S
H5657 C5663 0.930 . S
C5658 H5644 0.930 . S
C5658 C5656 1.395 . S
C5658 C5661 1.403 . S
C5659 C5656 1.403 . S
C5659 C5660 1.524 . S
C5659 C5663 1.400 . S
C5660 H5645 0.960 . S
C5660 H5646 0.960 . S
C5660 H5647 0.960 . S
C5660 C5659 1.524 . S
C5661 C5658 1.403 . S
C5661 C5662 1.392 . S
C5661 C5665 1.495 . S
C5662 C5661 1.392 . S
C5662 C5663 1.385 . S
C5662 C5664 1.478 . S
C5663 H5657 0.930 . S
C5663 C5659 1.400 . S
C5663 C5662 1.385 . S
C5664 C5662 1.478 . S
C5664 C5666 1.381 . S
C5664 C5670 1.383 . S
C5665 C5661 1.495 . S
C5665 H5671 0.959 . S
C5665 H5672 0.961 . S
C5665 H5673 0.960 . S
C5666 C5664 1.381 . S
C5666 C5667 1.394 . S
C5666 H5674 0.930 . S
C5667 C5666 1.394 . S
C5667 C5668 1.383 . S
C5667 H5675 0.929 . S
C5668 C5667 1.383 . S
C5668 C5669 1.377 . S
C5669 H5653 0.930 . S
C5669 C5668 1.377 . S
C5669 C5670 1.379 . S
C5670 H5654 0.931 . S
C5670 C5664 1.383 . S
C5670 C5669 1.379 . S
H5671 C5665 0.959 . S
H5672 C5665 0.961 . S
H5673 C5665 0.960 . S
H5674 C5666 0.930 . S
H5675 C5667 0.929 . S
H5676 C5684 0.929 . S
H5677 C5686 0.930 . S
H5678 C5688 0.930 . S
H5679 C5691 0.929 . S
H5680 C5694 0.930 . S
H5681 C5696 0.960 . S
H5682 C5696 0.960 . S
H5683 C5696 0.960 . S
C5684 H5676 0.929 . S
C5684 C5685 1.377 . S
C5684 C5686 1.384 . S
C5685 C5684 1.377 . S
C5685 C5691 1.390 . S
C5686 H5677 0.930 . S
C5686 C5684 1.384 . S
C5686 C5687 1.372 . S
C5687 C5686 1.372 . S
C5687 C5688 1.400 . S
C5687 C5692 1.490 . S
C5688 H5678 0.930 . S
C5688 C5687 1.400 . S
C5688 C5691 1.386 . S
H5689 C5705 0.930 . S
H5690 C5706 0.931 . S
C5691 H5679 0.929 . S
C5691 C5685 1.390 . S
C5691 C5688 1.386 . S
C5692 C5687 1.490 . S
C5692 C5694 1.395 . S
C5692 C5695 1.403 . S
H5693 C5699 0.930 . S
C5694 H5680 0.930 . S
C5694 C5692 1.395 . S
C5694 C5697 1.403 . S
C5695 C5692 1.403 . S
C5695 C5696 1.524 . S
C5695 C5699 1.400 . S
C5696 H5681 0.960 . S
C5696 H5682 0.960 . S
C5696 H5683 0.960 . S
C5696 C5695 1.524 . S
C5697 C5694 1.403 . S
C5697 C5698 1.392 . S
C5697 C5701 1.495 . S
C5698 C5697 1.392 . S
C5698 C5699 1.385 . S
C5698 C5700 1.478 . S
C5699 H5693 0.930 . S
C5699 C5695 1.400 . S
C5699 C5698 1.385 . S
C5700 C5698 1.478 . S
C5700 C5702 1.381 . S
C5700 C5706 1.383 . S
C5701 C5697 1.495 . S
C5701 H5707 0.959 . S
C5701 H5708 0.961 . S
C5701 H5709 0.960 . S
C5702 C5700 1.381 . S
C5702 C5703 1.394 . S
C5702 H5710 0.930 . S
C5703 C5702 1.394 . S
C5703 C5704 1.383 . S
C5703 H5711 0.929 . S
C5704 C5703 1.383 . S
C5704 C5705 1.377 . S
C5705 H5689 0.930 . S
C5705 C5704 1.377 . S
C5705 C5706 1.379 . S
C5706 H5690 0.931 . S
C5706 C5700 1.383 . S
C5706 C5705 1.379 . S
H5707 C5701 0.959 . S
H5708 C5701 0.961 . S
H5709 C5701 0.960 . S
H5710 C5702 0.930 . S
H5711 C5703 0.929 . S
H5712 C5720 0.929 . S
H5713 C5722 0.930 . S
H5714 C5724 0.930 1_455 S
H5715 C5727 0.929 . S
H5716 C5730 0.930 . S
H5717 C5732 0.960 . S
H5718 C5732 0.960 . S
H5719 C5732 0.960 . S
C5720 H5712 0.929 . S
C5720 C5721 1.377 . S
C5720 C5722 1.384 . S
C5721 C5720 1.377 . S
C5721 C5727 1.390 . S
C5722 H5713 0.930 . S
C5722 C5720 1.384 . S
C5722 C5723 1.372 . S
C5723 C5722 1.372 . S
C5723 C5724 1.400 . S
C5723 C5728 1.490 1_655 S
C5724 H5714 0.930 1_655 S
C5724 C5723 1.400 . S
C5724 C5727 1.386 . S
H5725 C5741 0.930 . S
H5726 C5742 0.931 . S
C5727 H5715 0.929 . S
C5727 C5721 1.390 . S
C5727 C5724 1.386 . S
C5728 C5723 1.490 1_455 S
C5728 C5730 1.395 1_455 S
C5728 C5731 1.403 . S
H5729 C5735 0.930 . S
C5730 H5716 0.930 . S
C5730 C5728 1.395 1_655 S
C5730 C5733 1.403 1_655 S
C5731 C5728 1.403 . S
C5731 C5732 1.524 . S
C5731 C5735 1.400 . S
C5732 H5717 0.960 . S
C5732 H5718 0.960 . S
C5732 H5719 0.960 . S
C5732 C5731 1.524 . S
C5733 C5730 1.403 1_455 S
C5733 C5734 1.392 . S
C5733 C5737 1.495 1_455 S
C5734 C5733 1.392 . S
C5734 C5735 1.385 . S
C5734 C5736 1.478 . S
C5735 H5729 0.930 . S
C5735 C5731 1.400 . S
C5735 C5734 1.385 . S
C5736 C5734 1.478 . S
C5736 C5738 1.381 . S
C5736 C5742 1.383 . S
C5737 C5733 1.495 1_655 S
C5737 H5743 0.959 . S
C5737 H5744 0.960 1_655 S
C5737 H5745 0.960 1_655 S
C5738 C5736 1.381 . S
C5738 C5739 1.394 . S
C5738 H5746 0.930 . S
C5739 C5738 1.394 . S
C5739 C5740 1.383 . S
C5739 H5747 0.929 . S
C5740 C5739 1.383 . S
C5740 C5741 1.377 . S
C5741 H5725 0.930 . S
C5741 C5740 1.377 . S
C5741 C5742 1.379 . S
C5742 H5726 0.931 . S
C5742 C5736 1.383 . S
C5742 C5741 1.379 . S
H5743 C5737 0.959 . S
H5744 C5737 0.960 1_455 S
H5745 C5737 0.960 1_455 S
H5746 C5738 0.930 . S
H5747 C5739 0.929 . S
H5748 C5756 0.929 . S
H5749 C5758 0.930 . S
H5750 C5760 0.930 . S
H5751 C5763 0.929 . S
H5752 C5766 0.930 . S
H5753 C5768 0.960 . S
H5754 C5768 0.960 . S
H5755 C5768 0.960 . S
C5756 H5748 0.929 . S
C5756 C5757 1.377 . S
C5756 C5758 1.384 . S
C5757 C5756 1.377 . S
C5757 C5763 1.390 . S
C5758 H5749 0.930 . S
C5758 C5756 1.384 . S
C5758 C5759 1.372 . S
C5759 C5758 1.372 . S
C5759 C5760 1.400 . S
C5759 C5764 1.490 1_565 S
C5760 H5750 0.930 . S
C5760 C5759 1.400 . S
C5760 C5763 1.386 . S
H5761 C5777 0.930 . S
H5762 C5778 0.931 . S
C5763 H5751 0.929 . S
C5763 C5757 1.390 . S
C5763 C5760 1.386 . S
C5764 C5759 1.490 1_545 S
C5764 C5766 1.395 . S
C5764 C5767 1.403 . S
H5765 C5771 0.930 . S
C5766 H5752 0.930 . S
C5766 C5764 1.395 . S
C5766 C5769 1.403 . S
C5767 C5764 1.403 . S
C5767 C5768 1.524 1_545 S
C5767 C5771 1.400 . S
C5768 H5753 0.960 . S
C5768 H5754 0.960 . S
C5768 H5755 0.960 . S
C5768 C5767 1.524 1_565 S
C5769 C5766 1.403 . S
C5769 C5770 1.392 . S
C5769 C5773 1.495 . S
C5770 C5769 1.392 . S
C5770 C5771 1.385 . S
C5770 C5772 1.478 . S
C5771 H5765 0.930 . S
C5771 C5767 1.400 . S
C5771 C5770 1.385 . S
C5772 C5770 1.478 . S
C5772 C5774 1.381 . S
C5772 C5778 1.383 . S
C5773 C5769 1.495 . S
C5773 H5779 0.959 . S
C5773 H5780 0.961 . S
C5773 H5781 0.960 . S
C5774 C5772 1.381 . S
C5774 C5775 1.394 . S
C5774 H5782 0.930 . S
C5775 C5774 1.394 . S
C5775 C5776 1.383 . S
C5775 H5783 0.929 . S
C5776 C5775 1.383 . S
C5776 C5777 1.377 . S
C5777 H5761 0.930 . S
C5777 C5776 1.377 . S
C5777 C5778 1.379 . S
C5778 H5762 0.931 . S
C5778 C5772 1.383 . S
C5778 C5777 1.379 . S
H5779 C5773 0.959 . S
H5780 C5773 0.961 . S
H5781 C5773 0.960 . S
H5782 C5774 0.930 . S
H5783 C5775 0.929 . S
H5784 C5792 0.929 . S
H5785 C5794 0.930 . S
H5786 C5796 0.930 . S
H5787 C5799 0.929 . S
H5788 C5802 0.930 . S
H5789 C5804 0.960 . S
H5790 C5804 0.960 . S
H5791 C5804 0.960 . S
C5792 H5784 0.929 . S
C5792 C5793 1.377 . S
C5792 C5794 1.384 . S
C5793 C5792 1.377 . S
C5793 C5799 1.390 . S
C5794 H5785 0.930 . S
C5794 C5792 1.384 . S
C5794 C5795 1.372 . S
C5795 C5794 1.372 . S
C5795 C5796 1.400 . S
C5795 C5800 1.490 . S
C5796 H5786 0.930 . S
C5796 C5795 1.400 . S
C5796 C5799 1.386 . S
H5797 C5813 0.930 . S
H5798 C5814 0.931 . S
C5799 H5787 0.929 . S
C5799 C5793 1.390 . S
C5799 C5796 1.386 . S
C5800 C5795 1.490 . S
C5800 C5802 1.395 . S
C5800 C5803 1.403 . S
H5801 C5807 0.930 . S
C5802 H5788 0.930 . S
C5802 C5800 1.395 . S
C5802 C5805 1.403 . S
C5803 C5800 1.403 . S
C5803 C5804 1.524 . S
C5803 C5807 1.400 . S
C5804 H5789 0.960 . S
C5804 H5790 0.960 . S
C5804 H5791 0.960 . S
C5804 C5803 1.524 . S
C5805 C5802 1.403 . S
C5805 C5806 1.392 . S
C5805 C5809 1.495 . S
C5806 C5805 1.392 . S
C5806 C5807 1.385 . S
C5806 C5808 1.478 . S
C5807 H5801 0.930 . S
C5807 C5803 1.400 . S
C5807 C5806 1.385 . S
C5808 C5806 1.478 . S
C5808 C5810 1.381 . S
C5808 C5814 1.383 . S
C5809 C5805 1.495 . S
C5809 H5815 0.959 . S
C5809 H5816 0.961 . S
C5809 H5817 0.960 . S
C5810 C5808 1.381 . S
C5810 C5811 1.394 . S
C5810 H5818 0.930 . S
C5811 C5810 1.394 . S
C5811 C5812 1.383 . S
C5811 H5819 0.929 . S
C5812 C5811 1.383 . S
C5812 C5813 1.377 . S
C5813 H5797 0.930 . S
C5813 C5812 1.377 . S
C5813 C5814 1.379 . S
C5814 H5798 0.931 . S
C5814 C5808 1.383 . S
C5814 C5813 1.379 . S
H5815 C5809 0.959 . S
H5816 C5809 0.961 . S
H5817 C5809 0.960 . S
H5818 C5810 0.930 . S
H5819 C5811 0.929 . S
H5820 C5828 0.929 . S
H5821 C5830 0.930 . S
H5822 C5832 0.930 . S
H5823 C5835 0.929 . S
H5824 C5838 0.930 . S
H5825 C5840 0.960 . S
H5826 C5840 0.960 . S
H5827 C5840 0.960 . S
C5828 H5820 0.929 . S
C5828 C5829 1.377 . S
C5828 C5830 1.384 . S
C5829 C5828 1.377 . S
C5829 C5835 1.390 . S
C5830 H5821 0.930 . S
C5830 C5828 1.384 . S
C5830 C5831 1.372 . S
C5831 C5830 1.372 . S
C5831 C5832 1.400 . S
C5831 C5836 1.490 . S
C5832 H5822 0.930 . S
C5832 C5831 1.400 . S
C5832 C5835 1.386 . S
H5833 C5849 0.930 . S
H5834 C5850 0.931 . S
C5835 H5823 0.929 . S
C5835 C5829 1.390 . S
C5835 C5832 1.386 . S
C5836 C5831 1.490 . S
C5836 C5838 1.395 . S
C5836 C5839 1.403 . S
H5837 C5843 0.930 . S
C5838 H5824 0.930 . S
C5838 C5836 1.395 . S
C5838 C5841 1.403 . S
C5839 C5836 1.403 . S
C5839 C5840 1.524 . S
C5839 C5843 1.400 . S
C5840 H5825 0.960 . S
C5840 H5826 0.960 . S
C5840 H5827 0.960 . S
C5840 C5839 1.524 . S
C5841 C5838 1.403 . S
C5841 C5842 1.392 . S
C5841 C5845 1.495 . S
C5842 C5841 1.392 . S
C5842 C5843 1.385 . S
C5842 C5844 1.478 . S
C5843 H5837 0.930 . S
C5843 C5839 1.400 . S
C5843 C5842 1.385 . S
C5844 C5842 1.478 . S
C5844 C5846 1.381 . S
C5844 C5850 1.383 . S
C5845 C5841 1.495 . S
C5845 H5851 0.959 . S
C5845 H5852 0.961 . S
C5845 H5853 0.960 . S
C5846 C5844 1.381 . S
C5846 C5847 1.394 . S
C5846 H5854 0.930 . S
C5847 C5846 1.394 . S
C5847 C5848 1.383 . S
C5847 H5855 0.929 . S
C5848 C5847 1.383 . S
C5848 C5849 1.377 . S
C5849 H5833 0.930 . S
C5849 C5848 1.377 . S
C5849 C5850 1.379 . S
C5850 H5834 0.931 . S
C5850 C5844 1.383 . S
C5850 C5849 1.379 . S
H5851 C5845 0.959 . S
H5852 C5845 0.961 . S
H5853 C5845 0.960 . S
H5854 C5846 0.930 . S
H5855 C5847 0.929 . S
H5856 C5864 0.929 . S
H5857 C5866 0.930 . S
H5858 C5868 0.930 . S
H5859 C5871 0.929 . S
H5860 C5874 0.930 . S
H5861 C5876 0.960 . S
H5862 C5876 0.960 . S
H5863 C5876 0.960 . S
C5864 H5856 0.929 . S
C5864 C5865 1.377 . S
C5864 C5866 1.384 . S
C5865 C5864 1.377 . S
C5865 C5871 1.390 . S
C5866 H5857 0.930 . S
C5866 C5864 1.384 . S
C5866 C5867 1.372 . S
C5867 C5866 1.372 . S
C5867 C5868 1.400 . S
C5867 C5872 1.490 . S
C5868 H5858 0.930 . S
C5868 C5867 1.400 . S
C5868 C5871 1.386 . S
H5869 C5885 0.930 . S
H5870 C5886 0.931 . S
C5871 H5859 0.929 . S
C5871 C5865 1.390 . S
C5871 C5868 1.386 . S
C5872 C5867 1.490 . S
C5872 C5874 1.395 . S
C5872 C5875 1.403 . S
H5873 C5879 0.930 . S
C5874 H5860 0.930 . S
C5874 C5872 1.395 . S
C5874 C5877 1.403 . S
C5875 C5872 1.403 . S
C5875 C5876 1.524 . S
C5875 C5879 1.400 . S
C5876 H5861 0.960 . S
C5876 H5862 0.960 . S
C5876 H5863 0.960 . S
C5876 C5875 1.524 . S
C5877 C5874 1.403 . S
C5877 C5878 1.392 . S
C5877 C5881 1.495 . S
C5878 C5877 1.392 . S
C5878 C5879 1.385 . S
C5878 C5880 1.478 1_455 S
C5879 H5873 0.930 . S
C5879 C5875 1.400 . S
C5879 C5878 1.385 . S
C5880 C5878 1.478 1_655 S
C5880 C5882 1.381 . S
C5880 C5886 1.383 1_655 S
C5881 C5877 1.495 . S
C5881 H5887 0.959 . S
C5881 H5888 0.961 . S
C5881 H5889 0.960 1_455 S
C5882 C5880 1.381 . S
C5882 C5883 1.394 . S
C5882 H5890 0.930 . S
C5883 C5882 1.394 . S
C5883 C5884 1.383 . S
C5883 H5891 0.929 . S
C5884 C5883 1.383 . S
C5884 C5885 1.377 . S
C5885 H5869 0.930 . S
C5885 C5884 1.377 . S
C5885 C5886 1.379 1_655 S
C5886 H5870 0.931 . S
C5886 C5880 1.383 1_455 S
C5886 C5885 1.379 1_455 S
H5887 C5881 0.959 . S
H5888 C5881 0.961 . S
H5889 C5881 0.960 1_655 S
H5890 C5882 0.930 . S
H5891 C5883 0.929 . S
H5892 C5900 0.929 . S
H5893 C5902 0.930 . S
H5894 C5904 0.930 . S
H5895 C5907 0.929 . S
H5896 C5910 0.930 . S
H5897 C5912 0.960 1_565 S
H5898 C5912 0.960 . S
H5899 C5912 0.960 . S
C5900 H5892 0.929 . S
C5900 C5901 1.377 . S
C5900 C5902 1.384 . S
C5901 C5900 1.377 . S
C5901 C5907 1.390 . S
C5902 H5893 0.930 . S
C5902 C5900 1.384 . S
C5902 C5903 1.372 . S
C5903 C5902 1.372 . S
C5903 C5904 1.400 . S
C5903 C5908 1.490 . S
C5904 H5894 0.930 . S
C5904 C5903 1.400 . S
C5904 C5907 1.386 . S
H5905 C5921 0.930 . S
H5906 C5922 0.931 . S
C5907 H5895 0.929 . S
C5907 C5901 1.390 . S
C5907 C5904 1.386 . S
C5908 C5903 1.490 . S
C5908 C5910 1.395 . S
C5908 C5911 1.403 . S
H5909 C5915 0.930 1_565 S
C5910 H5896 0.930 . S
C5910 C5908 1.395 . S
C5910 C5913 1.403 . S
C5911 C5908 1.403 . S
C5911 C5912 1.524 . S
C5911 C5915 1.400 . S
C5912 H5897 0.960 1_545 S
C5912 H5898 0.960 . S
C5912 H5899 0.960 . S
C5912 C5911 1.524 . S
C5913 C5910 1.403 . S
C5913 C5914 1.392 . S
C5913 C5917 1.495 . S
C5914 C5913 1.392 . S
C5914 C5915 1.385 . S
C5914 C5916 1.478 1_545 S
C5915 H5909 0.930 1_545 S
C5915 C5911 1.400 . S
C5915 C5914 1.385 . S
C5916 C5914 1.478 1_565 S
C5916 C5918 1.381 1_565 S
C5916 C5922 1.383 . S
C5917 C5913 1.495 . S
C5917 H5923 0.959 . S
C5917 H5924 0.961 . S
C5917 H5925 0.960 . S
C5918 C5916 1.381 1_545 S
C5918 C5919 1.394 1_545 S
C5918 H5926 0.930 . S
C5919 C5918 1.394 1_565 S
C5919 C5920 1.383 . S
C5919 H5927 0.929 . S
C5920 C5919 1.383 . S
C5920 C5921 1.377 . S
C5921 H5905 0.930 . S
C5921 C5920 1.377 . S
C5921 C5922 1.379 . S
C5922 H5906 0.931 . S
C5922 C5916 1.383 . S
C5922 C5921 1.379 . S
H5923 C5917 0.959 . S
H5924 C5917 0.961 . S
H5925 C5917 0.960 . S
H5926 C5918 0.930 . S
H5927 C5919 0.929 . S
H5928 C5936 0.929 . S
H5929 C5938 0.930 . S
H5930 C5940 0.930 . S
H5931 C5943 0.929 . S
H5932 C5946 0.930 . S
H5933 C5948 0.960 . S
H5934 C5948 0.960 . S
H5935 C5948 0.960 . S
C5936 H5928 0.929 . S
C5936 C5937 1.377 . S
C5936 C5938 1.384 . S
C5937 C5936 1.377 . S
C5937 C5943 1.390 . S
C5938 H5929 0.930 . S
C5938 C5936 1.384 . S
C5938 C5939 1.372 . S
C5939 C5938 1.372 . S
C5939 C5940 1.400 . S
C5939 C5944 1.490 . S
C5940 H5930 0.930 . S
C5940 C5939 1.400 . S
C5940 C5943 1.386 . S
H5941 C5957 0.930 . S
H5942 C5958 0.931 . S
C5943 H5931 0.929 . S
C5943 C5937 1.390 . S
C5943 C5940 1.386 . S
C5944 C5939 1.490 . S
C5944 C5946 1.395 . S
C5944 C5947 1.403 . S
H5945 C5951 0.930 . S
C5946 H5932 0.930 . S
C5946 C5944 1.395 . S
C5946 C5949 1.403 . S
C5947 C5944 1.403 . S
C5947 C5948 1.524 . S
C5947 C5951 1.400 . S
C5948 H5933 0.960 . S
C5948 H5934 0.960 . S
C5948 H5935 0.960 . S
C5948 C5947 1.524 . S
C5949 C5946 1.403 . S
C5949 C5950 1.392 . S
C5949 C5953 1.495 . S
C5950 C5949 1.392 . S
C5950 C5951 1.385 . S
C5950 C5952 1.478 . S
C5951 H5945 0.930 . S
C5951 C5947 1.400 . S
C5951 C5950 1.385 . S
C5952 C5950 1.478 . S
C5952 C5954 1.381 . S
C5952 C5958 1.383 . S
C5953 C5949 1.495 . S
C5953 H5959 0.959 . S
C5953 H5960 0.961 . S
C5953 H5961 0.960 . S
C5954 C5952 1.381 . S
C5954 C5955 1.394 . S
C5954 H5962 0.930 . S
C5955 C5954 1.394 . S
C5955 C5956 1.383 . S
C5955 H5963 0.929 . S
C5956 C5955 1.383 . S
C5956 C5957 1.377 . S
C5957 H5941 0.930 . S
C5957 C5956 1.377 . S
C5957 C5958 1.379 . S
C5958 H5942 0.931 . S
C5958 C5952 1.383 . S
C5958 C5957 1.379 . S
H5959 C5953 0.959 . S
H5960 C5953 0.961 . S
H5961 C5953 0.960 . S
H5962 C5954 0.930 . S
H5963 C5955 0.929 . S
H5964 C5972 0.929 . S
H5965 C5974 0.930 . S
H5966 C5976 0.930 . S
H5967 C5979 0.929 . S
H5968 C5982 0.930 . S
H5969 C5984 0.960 . S
H5970 C5984 0.960 . S
H5971 C5984 0.960 . S
C5972 H5964 0.929 . S
C5972 C5973 1.377 . S
C5972 C5974 1.384 . S
C5973 C5972 1.377 . S
C5973 C5979 1.390 . S
C5974 H5965 0.930 . S
C5974 C5972 1.384 . S
C5974 C5975 1.372 . S
C5975 C5974 1.372 . S
C5975 C5976 1.400 . S
C5975 C5980 1.490 . S
C5976 H5966 0.930 . S
C5976 C5975 1.400 . S
C5976 C5979 1.386 . S
H5977 C5993 0.930 . S
H5978 C5994 0.931 . S
C5979 H5967 0.929 . S
C5979 C5973 1.390 . S
C5979 C5976 1.386 . S
C5980 C5975 1.490 . S
C5980 C5982 1.395 . S
C5980 C5983 1.403 . S
H5981 C5987 0.930 . S
C5982 H5968 0.930 . S
C5982 C5980 1.395 . S
C5982 C5985 1.403 . S
C5983 C5980 1.403 . S
C5983 C5984 1.524 . S
C5983 C5987 1.400 . S
C5984 H5969 0.960 . S
C5984 H5970 0.960 . S
C5984 H5971 0.960 . S
C5984 C5983 1.524 . S
C5985 C5982 1.403 . S
C5985 C5986 1.392 . S
C5985 C5989 1.495 . S
C5986 C5985 1.392 . S
C5986 C5987 1.385 . S
C5986 C5988 1.478 . S
C5987 H5981 0.930 . S
C5987 C5983 1.400 . S
C5987 C5986 1.385 . S
C5988 C5986 1.478 . S
C5988 C5990 1.381 . S
C5988 C5994 1.383 . S
C5989 C5985 1.495 . S
C5989 H5995 0.959 . S
C5989 H5996 0.961 . S
C5989 H5997 0.960 . S
C5990 C5988 1.381 . S
C5990 C5991 1.394 . S
C5990 H5998 0.930 . S
C5991 C5990 1.394 . S
C5991 C5992 1.383 . S
C5991 H5999 0.929 . S
C5992 C5991 1.383 . S
C5992 C5993 1.377 . S
C5993 H5977 0.930 . S
C5993 C5992 1.377 . S
C5993 C5994 1.379 . S
C5994 H5978 0.931 . S
C5994 C5988 1.383 . S
C5994 C5993 1.379 . S
H5995 C5989 0.959 . S
H5996 C5989 0.961 . S
H5997 C5989 0.960 . S
H5998 C5990 0.930 . S
H5999 C5991 0.929 . S
H6000 C6008 0.929 . S
H6001 C6010 0.930 . S
H6002 C6012 0.930 . S
H6003 C6015 0.929 . S
H6004 C6018 0.930 . S
H6005 C6020 0.960 . S
H6006 C6020 0.960 . S
H6007 C6020 0.960 1_565 S
C6008 H6000 0.929 . S
C6008 C6009 1.377 . S
C6008 C6010 1.384 1_565 S
C6009 C6008 1.377 . S
C6009 C6015 1.390 . S
C6010 H6001 0.930 . S
C6010 C6008 1.384 1_545 S
C6010 C6011 1.372 1_545 S
C6011 C6010 1.372 1_565 S
C6011 C6012 1.400 . S
C6011 C6016 1.490 1_565 S
C6012 H6002 0.930 . S
C6012 C6011 1.400 . S
C6012 C6015 1.386 . S
H6013 C6029 0.930 . S
H6014 C6030 0.931 . S
C6015 H6003 0.929 . S
C6015 C6009 1.390 . S
C6015 C6012 1.386 . S
C6016 C6011 1.490 1_545 S
C6016 C6018 1.395 . S
C6016 C6019 1.403 . S
H6017 C6023 0.930 . S
C6018 H6004 0.930 . S
C6018 C6016 1.395 . S
C6018 C6021 1.403 . S
C6019 C6016 1.403 . S
C6019 C6020 1.524 . S
C6019 C6023 1.400 . S
C6020 H6005 0.960 . S
C6020 H6006 0.960 . S
C6020 H6007 0.960 1_545 S
C6020 C6019 1.524 . S
C6021 C6018 1.403 . S
C6021 C6022 1.392 . S
C6021 C6025 1.495 . S
C6022 C6021 1.392 . S
C6022 C6023 1.385 . S
C6022 C6024 1.478 . S
C6023 H6017 0.930 . S
C6023 C6019 1.400 . S
C6023 C6022 1.385 . S
C6024 C6022 1.478 . S
C6024 C6026 1.381 . S
C6024 C6030 1.383 . S
C6025 C6021 1.495 . S
C6025 H6031 0.959 . S
C6025 H6032 0.961 . S
C6025 H6033 0.960 . S
C6026 C6024 1.381 . S
C6026 C6027 1.394 . S
C6026 H6034 0.930 . S
C6027 C6026 1.394 . S
C6027 C6028 1.383 . S
C6027 H6035 0.929 . S
C6028 C6027 1.383 . S
C6028 C6029 1.377 . S
C6029 H6013 0.930 . S
C6029 C6028 1.377 . S
C6029 C6030 1.379 . S
C6030 H6014 0.931 . S
C6030 C6024 1.383 . S
C6030 C6029 1.379 . S
H6031 C6025 0.959 . S
H6032 C6025 0.961 . S
H6033 C6025 0.960 . S
H6034 C6026 0.930 . S
H6035 C6027 0.929 . S
H6036 C6044 0.929 . S
H6037 C6046 0.930 . S
H6038 C6048 0.930 . S
H6039 C6051 0.929 . S
H6040 C6054 0.930 . S
H6041 C6056 0.960 . S
H6042 C6056 0.960 . S
H6043 C6056 0.960 . S
C6044 H6036 0.929 . S
C6044 C6045 1.377 . S
C6044 C6046 1.384 . S
C6045 C6044 1.377 . S
C6045 C6051 1.390 . S
C6046 H6037 0.930 . S
C6046 C6044 1.384 . S
C6046 C6047 1.372 . S
C6047 C6046 1.372 . S
C6047 C6048 1.400 . S
C6047 C6052 1.490 . S
C6048 H6038 0.930 . S
C6048 C6047 1.400 . S
C6048 C6051 1.386 . S
H6049 C6065 0.930 . S
H6050 C6066 0.931 . S
C6051 H6039 0.929 . S
C6051 C6045 1.390 . S
C6051 C6048 1.386 . S
C6052 C6047 1.490 . S
C6052 C6054 1.395 . S
C6052 C6055 1.403 . S
H6053 C6059 0.930 . S
C6054 H6040 0.930 . S
C6054 C6052 1.395 . S
C6054 C6057 1.403 . S
C6055 C6052 1.403 . S
C6055 C6056 1.524 . S
C6055 C6059 1.400 . S
C6056 H6041 0.960 . S
C6056 H6042 0.960 . S
C6056 H6043 0.960 . S
C6056 C6055 1.524 . S
C6057 C6054 1.403 . S
C6057 C6058 1.392 . S
C6057 C6061 1.495 . S
C6058 C6057 1.392 . S
C6058 C6059 1.385 . S
C6058 C6060 1.478 . S
C6059 H6053 0.930 . S
C6059 C6055 1.400 . S
C6059 C6058 1.385 . S
C6060 C6058 1.478 . S
C6060 C6062 1.381 . S
C6060 C6066 1.383 . S
C6061 C6057 1.495 . S
C6061 H6067 0.959 . S
C6061 H6068 0.961 . S
C6061 H6069 0.960 . S
C6062 C6060 1.381 . S
C6062 C6063 1.394 . S
C6062 H6070 0.930 . S
C6063 C6062 1.394 . S
C6063 C6064 1.383 . S
C6063 H6071 0.929 . S
C6064 C6063 1.383 . S
C6064 C6065 1.377 . S
C6065 H6049 0.930 . S
C6065 C6064 1.377 . S
C6065 C6066 1.379 . S
C6066 H6050 0.931 . S
C6066 C6060 1.383 . S
C6066 C6065 1.379 . S
H6067 C6061 0.959 . S
H6068 C6061 0.961 . S
H6069 C6061 0.960 . S
H6070 C6062 0.930 . S
H6071 C6063 0.929 . S
H6072 C6080 0.929 . S
H6073 C6082 0.930 . S
H6074 C6084 0.930 . S
H6075 C6087 0.929 . S
H6076 C6090 0.930 . S
H6077 C6092 0.960 . S
H6078 C6092 0.960 . S
H6079 C6092 0.960 . S
C6080 H6072 0.929 . S
C6080 C6081 1.377 . S
C6080 C6082 1.384 . S
C6081 C6080 1.377 . S
C6081 C6087 1.390 . S
C6082 H6073 0.930 . S
C6082 C6080 1.384 . S
C6082 C6083 1.372 . S
C6083 C6082 1.372 . S
C6083 C6084 1.400 . S
C6083 C6088 1.490 . S
C6084 H6074 0.930 . S
C6084 C6083 1.400 . S
C6084 C6087 1.386 . S
H6085 C6101 0.930 . S
H6086 C6102 0.931 . S
C6087 H6075 0.929 . S
C6087 C6081 1.390 . S
C6087 C6084 1.386 . S
C6088 C6083 1.490 . S
C6088 C6090 1.395 . S
C6088 C6091 1.403 . S
H6089 C6095 0.930 . S
C6090 H6076 0.930 . S
C6090 C6088 1.395 . S
C6090 C6093 1.403 . S
C6091 C6088 1.403 . S
C6091 C6092 1.524 . S
C6091 C6095 1.400 . S
C6092 H6077 0.960 . S
C6092 H6078 0.960 . S
C6092 H6079 0.960 . S
C6092 C6091 1.524 . S
C6093 C6090 1.403 . S
C6093 C6094 1.392 . S
C6093 C6097 1.495 . S
C6094 C6093 1.392 . S
C6094 C6095 1.385 . S
C6094 C6096 1.478 . S
C6095 H6089 0.930 . S
C6095 C6091 1.400 . S
C6095 C6094 1.385 . S
C6096 C6094 1.478 . S
C6096 C6098 1.381 . S
C6096 C6102 1.383 . S
C6097 C6093 1.495 . S
C6097 H6103 0.959 . S
C6097 H6104 0.961 . S
C6097 H6105 0.960 . S
C6098 C6096 1.381 . S
C6098 C6099 1.394 . S
C6098 H6106 0.930 . S
C6099 C6098 1.394 . S
C6099 C6100 1.383 . S
C6099 H6107 0.929 . S
C6100 C6099 1.383 . S
C6100 C6101 1.377 . S
C6101 H6085 0.930 . S
C6101 C6100 1.377 . S
C6101 C6102 1.379 . S
C6102 H6086 0.931 . S
C6102 C6096 1.383 . S
C6102 C6101 1.379 . S
H6103 C6097 0.959 . S
H6104 C6097 0.961 . S
H6105 C6097 0.960 . S
H6106 C6098 0.930 . S
H6107 C6099 0.929 . S
H6108 C6116 0.929 . S
H6109 C6118 0.930 . S
H6110 C6120 0.930 . S
H6111 C6123 0.929 . S
H6112 C6126 0.930 . S
H6113 C6128 0.960 1_655 S
H6114 C6128 0.960 . S
H6115 C6128 0.960 . S
C6116 H6108 0.929 . S
C6116 C6117 1.377 . S
C6116 C6118 1.384 . S
C6117 C6116 1.377 . S
C6117 C6123 1.390 . S
C6118 H6109 0.930 . S
C6118 C6116 1.384 . S
C6118 C6119 1.372 . S
C6119 C6118 1.372 . S
C6119 C6120 1.400 . S
C6119 C6124 1.490 . S
C6120 H6110 0.930 . S
C6120 C6119 1.400 . S
C6120 C6123 1.386 . S
H6121 C6137 0.930 . S
H6122 C6138 0.931 . S
C6123 H6111 0.929 . S
C6123 C6117 1.390 . S
C6123 C6120 1.386 . S
C6124 C6119 1.490 . S
C6124 C6126 1.395 . S
C6124 C6127 1.403 . S
H6125 C6131 0.930 1_655 S
C6126 H6112 0.930 . S
C6126 C6124 1.395 . S
C6126 C6129 1.403 . S
C6127 C6124 1.403 . S
C6127 C6128 1.524 . S
C6127 C6131 1.400 . S
C6128 H6113 0.960 1_455 S
C6128 H6114 0.960 . S
C6128 H6115 0.960 . S
C6128 C6127 1.524 . S
C6129 C6126 1.403 . S
C6129 C6130 1.392 . S
C6129 C6133 1.495 . S
C6130 C6129 1.392 . S
C6130 C6131 1.385 . S
C6130 C6132 1.478 1_455 S
C6131 H6125 0.930 1_455 S
C6131 C6127 1.400 . S
C6131 C6130 1.385 . S
C6132 C6130 1.478 1_655 S
C6132 C6134 1.377 1_655 S
C6132 C6138 1.383 . S
C6133 C6129 1.495 . S
C6133 H6139 0.959 . S
C6133 H6140 0.961 . S
C6133 H6141 0.960 . S
C6134 C6132 1.377 1_455 S
C6134 C6135 1.369 1_455 S
C6134 H6142 0.961 . S
C6135 C6134 1.369 1_655 S
C6135 C6136 1.383 . S
C6135 H6143 0.929 . S
C6136 C6135 1.383 . S
C6136 C6137 1.377 . S
C6137 H6121 0.930 . S
C6137 C6136 1.377 . S
C6137 C6138 1.379 . S
C6138 H6122 0.931 . S
C6138 C6132 1.383 . S
C6138 C6137 1.379 . S
H6139 C6133 0.959 . S
H6140 C6133 0.961 . S
H6141 C6133 0.960 . S
H6142 C6134 0.961 . S
H6143 C6135 0.929 . S
H6144 C6152 0.929 . S
H6145 C6154 0.930 . S
H6146 C6156 0.930 . S
H6147 C6159 0.929 . S
H6148 C6162 0.930 . S
H6149 C6164 0.960 . S
H6150 C6164 0.960 . S
H6151 C6164 0.960 . S
C6152 H6144 0.929 . S
C6152 C6153 1.377 . S
C6152 C6154 1.384 . S
C6153 C6152 1.377 . S
C6153 C6159 1.390 . S
C6154 H6145 0.930 . S
C6154 C6152 1.384 . S
C6154 C6155 1.372 . S
C6155 C6154 1.372 . S
C6155 C6156 1.400 . S
C6155 C6160 1.490 . S
C6156 H6146 0.930 . S
C6156 C6155 1.400 . S
C6156 C6159 1.386 . S
H6157 C6173 0.930 . S
H6158 C6174 0.931 . S
C6159 H6147 0.929 . S
C6159 C6153 1.390 . S
C6159 C6156 1.386 . S
C6160 C6155 1.490 . S
C6160 C6162 1.395 . S
C6160 C6163 1.403 . S
H6161 C6167 0.930 . S
C6162 H6148 0.930 . S
C6162 C6160 1.395 . S
C6162 C6165 1.403 . S
C6163 C6160 1.403 . S
C6163 C6164 1.524 . S
C6163 C6167 1.400 . S
C6164 H6149 0.960 . S
C6164 H6150 0.960 . S
C6164 H6151 0.960 . S
C6164 C6163 1.524 . S
C6165 C6162 1.403 . S
C6165 C6166 1.392 . S
C6165 C6169 1.495 . S
C6166 C6165 1.392 . S
C6166 C6167 1.385 . S
C6166 C6168 1.478 . S
C6167 H6161 0.930 . S
C6167 C6163 1.400 . S
C6167 C6166 1.385 . S
C6168 C6166 1.478 . S
C6168 C6170 1.381 . S
C6168 C6174 1.383 . S
C6169 C6165 1.495 . S
C6169 H6175 0.959 . S
C6169 H6176 0.961 . S
C6169 H6177 0.960 . S
C6170 C6168 1.381 . S
C6170 C6171 1.394 . S
C6170 H6178 0.930 . S
C6171 C6170 1.394 . S
C6171 C6172 1.383 . S
C6171 H6179 0.929 . S
C6172 C6171 1.383 . S
C6172 C6173 1.377 . S
C6173 H6157 0.930 . S
C6173 C6172 1.377 . S
C6173 C6174 1.379 . S
C6174 H6158 0.931 . S
C6174 C6168 1.383 . S
C6174 C6173 1.379 . S
H6175 C6169 0.959 . S
H6176 C6169 0.961 . S
H6177 C6169 0.960 . S
H6178 C6170 0.930 . S
H6179 C6171 0.929 . S
H6180 C6188 0.929 . S
H6181 C6190 0.930 . S
H6182 C6192 0.930 . S
H6183 C6195 0.929 . S
H6184 C6198 0.930 . S
H6185 C6200 0.960 . S
H6186 C6200 0.960 . S
H6187 C6200 0.960 . S
C6188 H6180 0.929 . S
C6188 C6189 1.377 . S
C6188 C6190 1.384 . S
C6189 C6188 1.377 . S
C6189 C6195 1.390 . S
C6190 H6181 0.930 . S
C6190 C6188 1.384 . S
C6190 C6191 1.372 . S
C6191 C6190 1.372 . S
C6191 C6192 1.400 . S
C6191 C6196 1.490 . S
C6192 H6182 0.930 . S
C6192 C6191 1.400 . S
C6192 C6195 1.386 . S
H6193 C6209 0.930 . S
H6194 C6210 0.931 1_455 S
C6195 H6183 0.929 . S
C6195 C6189 1.390 . S
C6195 C6192 1.386 . S
C6196 C6191 1.490 . S
C6196 C6198 1.395 . S
C6196 C6199 1.403 . S
H6197 C6203 0.930 . S
C6198 H6184 0.930 . S
C6198 C6196 1.395 . S
C6198 C6201 1.403 1_455 S
C6199 C6196 1.403 . S
C6199 C6200 1.524 . S
C6199 C6203 1.400 . S
C6200 H6185 0.960 . S
C6200 H6186 0.960 . S
C6200 H6187 0.960 . S
C6200 C6199 1.524 . S
C6201 C6198 1.403 1_655 S
C6201 C6202 1.392 1_655 S
C6201 C6205 1.495 . S
C6202 C6201 1.392 1_455 S
C6202 C6203 1.385 . S
C6202 C6204 1.478 1_455 S
C6203 H6197 0.930 . S
C6203 C6199 1.400 . S
C6203 C6202 1.385 . S
C6204 C6202 1.478 1_655 S
C6204 C6206 1.381 . S
C6204 C6210 1.383 . S
C6205 C6201 1.495 . S
C6205 H6211 0.959 . S
C6205 H6212 0.961 . S
C6205 H6213 0.960 . S
C6206 C6204 1.381 . S
C6206 C6207 1.394 . S
C6206 H6214 0.930 . S
C6207 C6206 1.394 . S
C6207 C6208 1.383 . S
C6207 H6215 0.929 . S
C6208 C6207 1.383 . S
C6208 C6209 1.377 . S
C6209 H6193 0.930 . S
C6209 C6208 1.377 . S
C6209 C6210 1.379 . S
C6210 H6194 0.931 1_655 S
C6210 C6204 1.383 . S
C6210 C6209 1.379 . S
H6211 C6205 0.959 . S
H6212 C6205 0.961 . S
H6213 C6205 0.960 . S
H6214 C6206 0.930 . S
H6215 C6207 0.929 . S
H6216 C6224 0.929 . S
H6217 C6226 0.937 . S
H6218 C6228 0.930 . S
H6219 C6231 0.929 . S
H6220 C6234 0.930 . S
H6221 C6236 0.960 . S
H6222 C6236 0.960 . S
H6223 C6236 0.960 . S
C6224 H6216 0.929 . S
C6224 C6225 1.377 . S
C6224 C6226 1.379 1_565 S
C6225 C6224 1.377 . S
C6225 C6231 1.390 . S
C6226 H6217 0.937 . S
C6226 C6224 1.379 1_545 S
C6226 C6227 1.370 1_545 S
C6227 C6226 1.370 1_565 S
C6227 C6228 1.400 . S
C6227 C6232 1.490 1_565 S
C6228 H6218 0.930 . S
C6228 C6227 1.400 . S
C6228 C6231 1.386 . S
H6229 C6245 0.930 . S
H6230 C6246 0.931 . S
C6231 H6219 0.929 . S
C6231 C6225 1.390 . S
C6231 C6228 1.386 . S
C6232 C6227 1.490 1_545 S
C6232 C6234 1.395 . S
C6232 C6235 1.403 . S
H6233 C6239 0.930 . S
C6234 H6220 0.930 . S
C6234 C6232 1.395 . S
C6234 C6237 1.403 . S
C6235 C6232 1.403 . S
C6235 C6236 1.524 1_545 S
C6235 C6239 1.400 . S
C6236 H6221 0.960 . S
C6236 H6222 0.960 . S
C6236 H6223 0.960 . S
C6236 C6235 1.524 1_565 S
C6237 C6234 1.403 . S
C6237 C6238 1.392 . S
C6237 C6241 1.495 . S
C6238 C6237 1.392 . S
C6238 C6239 1.385 . S
C6238 C6240 1.478 . S
C6239 H6233 0.930 . S
C6239 C6235 1.400 . S
C6239 C6238 1.385 . S
C6240 C6238 1.478 . S
C6240 C6242 1.381 . S
C6240 C6246 1.383 . S
C6241 C6237 1.495 . S
C6241 H6247 0.959 . S
C6241 H6248 0.961 . S
C6241 H6249 0.960 . S
C6242 C6240 1.381 . S
C6242 C6243 1.394 . S
C6242 H6250 0.930 . S
C6243 C6242 1.394 . S
C6243 C6244 1.383 . S
C6243 H6251 0.929 . S
C6244 C6243 1.383 . S
C6244 C6245 1.377 . S
C6245 H6229 0.930 . S
C6245 C6244 1.377 . S
C6245 C6246 1.379 . S
C6246 H6230 0.931 . S
C6246 C6240 1.383 . S
C6246 C6245 1.379 . S
H6247 C6241 0.959 . S
H6248 C6241 0.961 . S
H6249 C6241 0.960 . S
H6250 C6242 0.930 . S
H6251 C6243 0.929 . S
H6252 C6260 0.929 . S
H6253 C6262 0.930 . S
H6254 C6264 0.930 . S
H6255 C6267 0.929 . S
H6256 C6270 0.930 . S
H6257 C6272 0.960 . S
H6258 C6272 0.960 . S
H6259 C6272 0.960 . S
C6260 H6252 0.929 . S
C6260 C6261 1.377 . S
C6260 C6262 1.384 . S
C6261 C6260 1.377 . S
C6261 C6267 1.390 . S
C6262 H6253 0.930 . S
C6262 C6260 1.384 . S
C6262 C6263 1.372 . S
C6263 C6262 1.372 . S
C6263 C6264 1.400 . S
C6263 C6268 1.490 . S
C6264 H6254 0.930 . S
C6264 C6263 1.400 . S
C6264 C6267 1.386 . S
H6265 C6281 0.930 . S
H6266 C6282 0.931 . S
C6267 H6255 0.929 . S
C6267 C6261 1.390 . S
C6267 C6264 1.386 . S
C6268 C6263 1.490 . S
C6268 C6270 1.395 . S
C6268 C6271 1.403 . S
H6269 C6275 0.930 . S
C6270 H6256 0.930 . S
C6270 C6268 1.395 . S
C6270 C6273 1.403 . S
C6271 C6268 1.403 . S
C6271 C6272 1.524 . S
C6271 C6275 1.400 . S
C6272 H6257 0.960 . S
C6272 H6258 0.960 . S
C6272 H6259 0.960 . S
C6272 C6271 1.524 . S
C6273 C6270 1.403 . S
C6273 C6274 1.392 . S
C6273 C6277 1.495 . S
C6274 C6273 1.392 . S
C6274 C6275 1.385 . S
C6274 C6276 1.478 . S
C6275 H6269 0.930 . S
C6275 C6271 1.400 . S
C6275 C6274 1.385 . S
C6276 C6274 1.478 . S
C6276 C6278 1.381 . S
C6276 C6282 1.383 . S
C6277 C6273 1.495 . S
C6277 H6283 0.959 . S
C6277 H6284 0.961 . S
C6277 H6285 0.960 . S
C6278 C6276 1.381 . S
C6278 C6279 1.394 . S
C6278 H6286 0.930 . S
C6279 C6278 1.394 . S
C6279 C6280 1.383 . S
C6279 H6287 0.929 . S
C6280 C6279 1.383 . S
C6280 C6281 1.377 . S
C6281 H6265 0.930 . S
C6281 C6280 1.377 . S
C6281 C6282 1.379 . S
C6282 H6266 0.931 . S
C6282 C6276 1.383 . S
C6282 C6281 1.379 . S
H6283 C6277 0.959 . S
H6284 C6277 0.961 . S
H6285 C6277 0.960 . S
H6286 C6278 0.930 . S
H6287 C6279 0.929 . S
H6288 C6296 0.929 . S
H6289 C6298 0.930 . S
H6290 C6300 0.930 . S
H6291 C6303 0.929 . S
H6292 C6306 0.930 . S
H6293 C6308 0.960 . S
H6294 C6308 0.960 . S
H6295 C6308 0.960 . S
C6296 H6288 0.929 . S
C6296 C6297 1.377 . S
C6296 C6298 1.384 . S
C6297 C6296 1.377 . S
C6297 C6303 1.390 . S
C6298 H6289 0.930 . S
C6298 C6296 1.384 . S
C6298 C6299 1.372 . S
C6299 C6298 1.372 . S
C6299 C6300 1.400 . S
C6299 C6304 1.490 . S
C6300 H6290 0.930 . S
C6300 C6299 1.400 . S
C6300 C6303 1.386 . S
H6301 C6317 0.930 . S
H6302 C6318 0.931 . S
C6303 H6291 0.929 . S
C6303 C6297 1.390 . S
C6303 C6300 1.386 . S
C6304 C6299 1.490 . S
C6304 C6306 1.395 . S
C6304 C6307 1.403 . S
H6305 C6311 0.930 1_556 S
C6306 H6292 0.930 . S
C6306 C6304 1.395 . S
C6306 C6309 1.403 . S
C6307 C6304 1.403 . S
C6307 C6308 1.524 . S
C6307 C6311 1.400 . S
C6308 H6293 0.960 . S
C6308 H6294 0.960 . S
C6308 H6295 0.960 . S
C6308 C6307 1.524 . S
C6309 C6306 1.403 . S
C6309 C6310 1.392 . S
C6309 C6313 1.495 . S
C6310 C6309 1.392 . S
C6310 C6311 1.385 . S
C6310 C6312 1.478 1_554 S
C6311 H6305 0.930 1_554 S
C6311 C6307 1.400 . S
C6311 C6310 1.385 . S
C6312 C6310 1.478 1_556 S
C6312 C6314 1.381 1_556 S
C6312 C6318 1.383 . S
C6313 C6309 1.495 . S
C6313 H6319 0.959 . S
C6313 H6320 0.961 . S
C6313 H6321 0.960 . S
C6314 C6312 1.381 1_554 S
C6314 C6315 1.394 1_554 S
C6314 H6322 0.930 . S
C6315 C6314 1.394 1_556 S
C6315 C6316 1.383 . S
C6315 H6323 0.929 . S
C6316 C6315 1.383 . S
C6316 C6317 1.377 . S
C6317 H6301 0.930 . S
C6317 C6316 1.377 . S
C6317 C6318 1.379 . S
C6318 H6302 0.931 . S
C6318 C6312 1.383 . S
C6318 C6317 1.379 . S
H6319 C6313 0.959 . S
H6320 C6313 0.961 . S
H6321 C6313 0.960 . S
H6322 C6314 0.930 . S
H6323 C6315 0.929 . S
H6324 C6332 0.929 . S
H6325 C6334 0.930 . S
H6326 C6336 0.930 . S
H6327 C6339 0.929 . S
H6328 C6342 0.930 . S
H6329 C6344 0.960 . S
H6330 C6344 0.960 . S
H6331 C6344 0.960 . S
C6332 H6324 0.929 . S
C6332 C6333 1.377 . S
C6332 C6334 1.384 . S
C6333 C6332 1.377 . S
C6333 C6339 1.390 . S
C6334 H6325 0.930 . S
C6334 C6332 1.384 . S
C6334 C6335 1.372 . S
C6335 C6334 1.372 . S
C6335 C6336 1.400 . S
C6335 C6340 1.490 . S
C6336 H6326 0.930 . S
C6336 C6335 1.400 . S
C6336 C6339 1.386 . S
H6337 C6353 0.930 . S
H6338 C6354 0.931 . S
C6339 H6327 0.929 . S
C6339 C6333 1.390 . S
C6339 C6336 1.386 . S
C6340 C6335 1.490 . S
C6340 C6342 1.395 . S
C6340 C6343 1.403 . S
H6341 C6347 0.930 . S
C6342 H6328 0.930 . S
C6342 C6340 1.395 . S
C6342 C6345 1.403 . S
C6343 C6340 1.403 . S
C6343 C6344 1.524 . S
C6343 C6347 1.400 . S
C6344 H6329 0.960 . S
C6344 H6330 0.960 . S
C6344 H6331 0.960 . S
C6344 C6343 1.524 . S
C6345 C6342 1.403 . S
C6345 C6346 1.392 . S
C6345 C6349 1.495 . S
C6346 C6345 1.392 . S
C6346 C6347 1.385 . S
C6346 C6348 1.478 . S
C6347 H6341 0.930 . S
C6347 C6343 1.400 . S
C6347 C6346 1.385 . S
C6348 C6346 1.478 . S
C6348 C6350 1.381 . S
C6348 C6354 1.383 . S
C6349 C6345 1.495 . S
C6349 H6355 0.959 . S
C6349 H6356 0.961 . S
C6349 H6357 0.960 . S
C6350 C6348 1.381 . S
C6350 C6351 1.394 . S
C6350 H6358 0.930 . S
C6351 C6350 1.394 . S
C6351 C6352 1.383 . S
C6351 H6359 0.929 . S
C6352 C6351 1.383 . S
C6352 C6353 1.377 . S
C6353 H6337 0.930 . S
C6353 C6352 1.377 . S
C6353 C6354 1.379 . S
C6354 H6338 0.931 . S
C6354 C6348 1.383 . S
C6354 C6353 1.379 . S
H6355 C6349 0.959 . S
H6356 C6349 0.961 . S
H6357 C6349 0.960 . S
H6358 C6350 0.930 . S
H6359 C6351 0.929 . S
H6360 C6368 0.929 . S
H6361 C6370 0.930 . S
H6362 C6372 0.930 . S
H6363 C6375 0.929 . S
H6364 C6378 0.930 . S
H6365 C6380 0.960 . S
H6366 C6380 0.960 . S
H6367 C6380 0.960 . S
C6368 H6360 0.929 . S
C6368 C6369 1.377 . S
C6368 C6370 1.384 . S
C6369 C6368 1.377 . S
C6369 C6375 1.390 . S
C6370 H6361 0.930 . S
C6370 C6368 1.384 . S
C6370 C6371 1.372 . S
C6371 C6370 1.372 . S
C6371 C6372 1.400 . S
C6371 C6376 1.490 . S
C6372 H6362 0.930 . S
C6372 C6371 1.400 . S
C6372 C6375 1.386 . S
H6373 C6389 0.930 . S
H6374 C6390 0.931 . S
C6375 H6363 0.929 . S
C6375 C6369 1.390 . S
C6375 C6372 1.386 . S
C6376 C6371 1.490 . S
C6376 C6378 1.395 . S
C6376 C6379 1.403 . S
H6377 C6383 0.930 . S
C6378 H6364 0.930 . S
C6378 C6376 1.395 . S
C6378 C6381 1.403 . S
C6379 C6376 1.403 . S
C6379 C6380 1.524 . S
C6379 C6383 1.400 . S
C6380 H6365 0.960 . S
C6380 H6366 0.960 . S
C6380 H6367 0.960 . S
C6380 C6379 1.524 . S
C6381 C6378 1.403 . S
C6381 C6382 1.392 . S
C6381 C6385 1.495 . S
C6382 C6381 1.392 . S
C6382 C6383 1.385 . S
C6382 C6384 1.478 . S
C6383 H6377 0.930 . S
C6383 C6379 1.400 . S
C6383 C6382 1.385 . S
C6384 C6382 1.478 . S
C6384 C6386 1.381 . S
C6384 C6390 1.383 . S
C6385 C6381 1.495 . S
C6385 H6391 0.959 . S
C6385 H6392 0.961 . S
C6385 H6393 0.960 . S
C6386 C6384 1.381 . S
C6386 C6387 1.394 . S
C6386 H6394 0.930 . S
C6387 C6386 1.394 . S
C6387 C6388 1.383 . S
C6387 H6395 0.929 . S
C6388 C6387 1.383 . S
C6388 C6389 1.377 . S
C6389 H6373 0.930 . S
C6389 C6388 1.377 . S
C6389 C6390 1.379 . S
C6390 H6374 0.931 . S
C6390 C6384 1.383 . S
C6390 C6389 1.379 . S
H6391 C6385 0.959 . S
H6392 C6385 0.961 . S
H6393 C6385 0.960 . S
H6394 C6386 0.930 . S
H6395 C6387 0.929 . S
H6396 C6404 0.929 . S
H6397 C6406 0.930 . S
H6398 C6408 0.930 . S
H6399 C6411 0.929 . S
H6400 C6414 0.930 . S
H6401 C6416 0.960 . S
H6402 C6416 0.960 . S
H6403 C6416 0.960 . S
C6404 H6396 0.929 . S
C6404 C6405 1.377 . S
C6404 C6406 1.384 . S
C6405 C6404 1.377 . S
C6405 C6411 1.390 . S
C6406 H6397 0.930 . S
C6406 C6404 1.384 . S
C6406 C6407 1.372 . S
C6407 C6406 1.372 . S
C6407 C6408 1.400 . S
C6407 C6412 1.490 . S
C6408 H6398 0.930 . S
C6408 C6407 1.400 . S
C6408 C6411 1.386 . S
H6409 C6425 0.930 . S
H6410 C6426 0.931 . S
C6411 H6399 0.929 . S
C6411 C6405 1.390 . S
C6411 C6408 1.386 . S
C6412 C6407 1.490 . S
C6412 C6414 1.395 . S
C6412 C6415 1.403 . S
H6413 C6419 0.930 . S
C6414 H6400 0.930 . S
C6414 C6412 1.395 . S
C6414 C6417 1.403 . S
C6415 C6412 1.403 . S
C6415 C6416 1.524 . S
C6415 C6419 1.400 . S
C6416 H6401 0.960 . S
C6416 H6402 0.960 . S
C6416 H6403 0.960 . S
C6416 C6415 1.524 . S
C6417 C6414 1.403 . S
C6417 C6418 1.392 . S
C6417 C6421 1.495 . S
C6418 C6417 1.392 . S
C6418 C6419 1.385 . S
C6418 C6420 1.478 . S
C6419 H6413 0.930 . S
C6419 C6415 1.400 . S
C6419 C6418 1.385 . S
C6420 C6418 1.478 . S
C6420 C6422 1.381 . S
C6420 C6426 1.383 . S
C6421 C6417 1.495 . S
C6421 H6427 0.959 . S
C6421 H6428 0.961 . S
C6421 H6429 0.960 . S
C6422 C6420 1.381 . S
C6422 C6423 1.394 . S
C6422 H6430 0.930 . S
C6423 C6422 1.394 . S
C6423 C6424 1.383 . S
C6423 H6431 0.929 . S
C6424 C6423 1.383 . S
C6424 C6425 1.377 . S
C6425 H6409 0.930 . S
C6425 C6424 1.377 . S
C6425 C6426 1.379 . S
C6426 H6410 0.931 . S
C6426 C6420 1.383 . S
C6426 C6425 1.379 . S
H6427 C6421 0.959 . S
H6428 C6421 0.961 . S
H6429 C6421 0.960 . S
H6430 C6422 0.930 . S
H6431 C6423 0.929 . S
H6432 C6440 0.929 . S
H6433 C6442 0.930 . S
H6434 C6444 0.930 . S
H6435 C6447 0.929 . S
H6436 C6450 0.930 . S
H6437 C6452 0.960 . S
H6438 C6452 0.960 . S
H6439 C6452 0.960 . S
C6440 H6432 0.929 . S
C6440 C6441 1.377 . S
C6440 C6442 1.384 . S
C6441 C6440 1.377 . S
C6441 C6447 1.390 . S
C6442 H6433 0.930 . S
C6442 C6440 1.384 . S
C6442 C6443 1.372 . S
C6443 C6442 1.372 . S
C6443 C6444 1.400 . S
C6443 C6448 1.490 . S
C6444 H6434 0.930 . S
C6444 C6443 1.400 . S
C6444 C6447 1.386 . S
H6445 C6461 0.930 . S
H6446 C6462 0.931 . S
C6447 H6435 0.929 . S
C6447 C6441 1.390 . S
C6447 C6444 1.386 . S
C6448 C6443 1.490 . S
C6448 C6450 1.395 . S
C6448 C6451 1.403 . S
H6449 C6455 0.930 . S
C6450 H6436 0.930 . S
C6450 C6448 1.395 . S
C6450 C6453 1.403 . S
C6451 C6448 1.403 . S
C6451 C6452 1.524 . S
C6451 C6455 1.400 . S
C6452 H6437 0.960 . S
C6452 H6438 0.960 . S
C6452 H6439 0.960 . S
C6452 C6451 1.524 . S
C6453 C6450 1.403 . S
C6453 C6454 1.392 . S
C6453 C6457 1.495 . S
C6454 C6453 1.392 . S
C6454 C6455 1.385 . S
C6454 C6456 1.478 . S
C6455 H6449 0.930 . S
C6455 C6451 1.400 . S
C6455 C6454 1.385 . S
C6456 C6454 1.478 . S
C6456 C6458 1.381 . S
C6456 C6462 1.383 . S
C6457 C6453 1.495 . S
C6457 H6463 0.959 . S
C6457 H6464 0.961 . S
C6457 H6465 0.960 . S
C6458 C6456 1.381 . S
C6458 C6459 1.394 . S
C6458 H6466 0.930 . S
C6459 C6458 1.394 . S
C6459 C6460 1.383 . S
C6459 H6467 0.929 . S
C6460 C6459 1.383 . S
C6460 C6461 1.377 . S
C6461 H6445 0.930 . S
C6461 C6460 1.377 . S
C6461 C6462 1.379 . S
C6462 H6446 0.931 . S
C6462 C6456 1.383 . S
C6462 C6461 1.379 . S
H6463 C6457 0.959 . S
H6464 C6457 0.961 . S
H6465 C6457 0.960 . S
H6466 C6458 0.930 . S
H6467 C6459 0.929 . S
H6468 C6476 0.929 . S
H6469 C6478 0.930 . S
H6470 C6480 0.930 . S
H6471 C6483 0.929 . S
H6472 C6486 0.930 . S
H6473 C6488 0.960 . S
H6474 C6488 0.960 . S
H6475 C6488 0.960 . S
C6476 H6468 0.929 . S
C6476 C6477 1.377 . S
C6476 C6478 1.384 . S
C6477 C6476 1.377 . S
C6477 C6483 1.390 . S
C6478 H6469 0.930 . S
C6478 C6476 1.384 . S
C6478 C6479 1.372 . S
C6479 C6478 1.372 . S
C6479 C6480 1.400 . S
C6479 C6484 1.490 . S
C6480 H6470 0.930 . S
C6480 C6479 1.400 . S
C6480 C6483 1.386 . S
H6481 C6497 0.930 . S
H6482 C6498 0.931 . S
C6483 H6471 0.929 . S
C6483 C6477 1.390 . S
C6483 C6480 1.386 . S
C6484 C6479 1.490 . S
C6484 C6486 1.395 . S
C6484 C6487 1.403 . S
H6485 C6491 0.928 . S
C6486 H6472 0.930 . S
C6486 C6484 1.395 . S
C6486 C6489 1.403 . S
C6487 C6484 1.403 . S
C6487 C6488 1.524 . S
C6487 C6491 1.400 . S
C6488 H6473 0.960 . S
C6488 H6474 0.960 . S
C6488 H6475 0.960 . S
C6488 C6487 1.524 . S
C6489 C6486 1.403 . S
C6489 C6490 1.392 . S
C6489 C6493 1.495 . S
C6490 C6489 1.392 . S
C6490 C6491 1.385 . S
C6490 C6492 1.478 1_554 S
C6491 H6485 0.928 . S
C6491 C6487 1.400 . S
C6491 C6490 1.385 . S
C6492 C6490 1.478 1_556 S
C6492 C6494 1.381 1_556 S
C6492 C6498 1.383 . S
C6493 C6489 1.495 . S
C6493 H6499 0.959 . S
C6493 H6500 0.961 . S
C6493 H6501 0.960 . S
C6494 C6492 1.381 1_554 S
C6494 C6495 1.394 1_554 S
C6494 H6502 0.930 . S
C6495 C6494 1.394 1_556 S
C6495 C6496 1.383 . S
C6495 H6503 0.929 . S
C6496 C6495 1.383 . S
C6496 C6497 1.377 . S
C6497 H6481 0.930 . S
C6497 C6496 1.377 . S
C6497 C6498 1.379 . S
C6498 H6482 0.931 . S
C6498 C6492 1.383 . S
C6498 C6497 1.379 . S
H6499 C6493 0.959 . S
H6500 C6493 0.961 . S
H6501 C6493 0.960 . S
H6502 C6494 0.930 . S
H6503 C6495 0.929 . S
H6504 C6512 0.929 . S
H6505 C6514 0.930 . S
H6506 C6516 0.930 . S
H6507 C6519 0.929 . S
H6508 C6522 0.930 . S
H6509 C6524 0.960 . S
H6510 C6524 0.960 . S
H6511 C6524 0.960 1_556 S
C6512 H6504 0.929 . S
C6512 C6513 1.377 . S
C6512 C6514 1.384 1_556 S
C6513 C6512 1.377 . S
C6513 C6519 1.390 . S
C6514 H6505 0.930 . S
C6514 C6512 1.384 1_554 S
C6514 C6515 1.372 1_554 S
C6515 C6514 1.372 1_556 S
C6515 C6516 1.400 . S
C6515 C6520 1.490 1_556 S
C6516 H6506 0.930 . S
C6516 C6515 1.400 . S
C6516 C6519 1.386 . S
H6517 C6533 0.930 . S
H6518 C6534 0.931 . S
C6519 H6507 0.929 . S
C6519 C6513 1.390 . S
C6519 C6516 1.386 . S
C6520 C6515 1.490 1_554 S
C6520 C6522 1.395 . S
C6520 C6523 1.403 . S
H6521 C6527 0.930 . S
C6522 H6508 0.930 . S
C6522 C6520 1.395 . S
C6522 C6525 1.403 . S
C6523 C6520 1.403 . S
C6523 C6524 1.524 . S
C6523 C6527 1.400 . S
C6524 H6509 0.960 . S
C6524 H6510 0.960 . S
C6524 H6511 0.960 1_554 S
C6524 C6523 1.524 . S
C6525 C6522 1.403 . S
C6525 C6526 1.392 . S
C6525 C6529 1.495 . S
C6526 C6525 1.392 . S
C6526 C6527 1.385 . S
C6526 C6528 1.478 . S
C6527 H6521 0.930 . S
C6527 C6523 1.400 . S
C6527 C6526 1.385 . S
C6528 C6526 1.478 . S
C6528 C6530 1.381 . S
C6528 C6534 1.383 . S
C6529 C6525 1.495 . S
C6529 H6535 0.959 . S
C6529 H6536 0.961 . S
C6529 H6537 0.960 . S
C6530 C6528 1.381 . S
C6530 C6531 1.394 . S
C6530 H6538 0.930 . S
C6531 C6530 1.394 . S
C6531 C6532 1.383 . S
C6531 H6539 0.929 . S
C6532 C6531 1.383 . S
C6532 C6533 1.377 . S
C6533 H6517 0.930 . S
C6533 C6532 1.377 . S
C6533 C6534 1.379 . S
C6534 H6518 0.931 . S
C6534 C6528 1.383 . S
C6534 C6533 1.379 . S
H6535 C6529 0.959 . S
H6536 C6529 0.961 . S
H6537 C6529 0.960 . S
H6538 C6530 0.930 . S
H6539 C6531 0.929 . S
H6540 C6548 0.929 . S
H6541 C6550 0.930 . S
H6542 C6552 0.930 . S
H6543 C6555 0.929 . S
H6544 C6558 0.930 . S
H6545 C6560 0.960 . S
H6546 C6560 0.960 . S
H6547 C6560 0.960 . S
C6548 H6540 0.929 . S
C6548 C6549 1.377 . S
C6548 C6550 1.384 . S
C6549 C6548 1.377 . S
C6549 C6555 1.390 . S
C6550 H6541 0.930 . S
C6550 C6548 1.384 . S
C6550 C6551 1.372 . S
C6551 C6550 1.372 . S
C6551 C6552 1.400 . S
C6551 C6556 1.490 . S
C6552 H6542 0.930 . S
C6552 C6551 1.400 . S
C6552 C6555 1.386 . S
H6553 C6569 0.930 . S
H6554 C6570 0.931 . S
C6555 H6543 0.929 . S
C6555 C6549 1.390 . S
C6555 C6552 1.386 . S
C6556 C6551 1.490 . S
C6556 C6558 1.395 . S
C6556 C6559 1.403 . S
H6557 C6563 0.930 . S
C6558 H6544 0.930 . S
C6558 C6556 1.395 . S
C6558 C6561 1.403 . S
C6559 C6556 1.403 . S
C6559 C6560 1.524 . S
C6559 C6563 1.400 . S
C6560 H6545 0.960 . S
C6560 H6546 0.960 . S
C6560 H6547 0.960 . S
C6560 C6559 1.524 . S
C6561 C6558 1.403 . S
C6561 C6562 1.392 . S
C6561 C6565 1.486 1_554 S
C6562 C6561 1.392 . S
C6562 C6563 1.385 . S
C6562 C6564 1.478 1_554 S
C6563 H6557 0.930 . S
C6563 C6559 1.400 . S
C6563 C6562 1.385 . S
C6564 C6562 1.478 1_556 S
C6564 C6566 1.381 . S
C6564 C6570 1.383 1_556 S
C6565 C6561 1.486 1_556 S
C6565 H6571 0.954 1_556 S
C6565 H6572 0.955 1_556 S
C6565 H6573 0.980 . S
C6566 C6564 1.381 . S
C6566 C6567 1.394 . S
C6566 H6574 0.930 . S
C6567 C6566 1.394 . S
C6567 C6568 1.383 . S
C6567 H6575 0.929 . S
C6568 C6567 1.383 . S
C6568 C6569 1.377 . S
C6569 H6553 0.930 . S
C6569 C6568 1.377 . S
C6569 C6570 1.379 1_556 S
C6570 H6554 0.931 . S
C6570 C6564 1.383 1_554 S
C6570 C6569 1.379 1_554 S
H6571 C6565 0.954 1_554 S
H6572 C6565 0.955 1_554 S
H6573 C6565 0.980 . S
H6574 C6566 0.930 . S
H6575 C6567 0.929 . S
H6576 C6584 0.929 . S
H6577 C6586 0.930 . S
H6578 C6588 0.930 . S
H6579 C6591 0.929 . S
H6580 C6594 0.930 . S
H6581 C6596 0.960 . S
H6582 C6596 0.953 . S
H6583 C6596 0.960 . S
C6584 H6576 0.929 . S
C6584 C6585 1.377 . S
C6584 C6586 1.384 . S
C6585 C6584 1.377 . S
C6585 C6591 1.390 . S
C6586 H6577 0.930 . S
C6586 C6584 1.384 . S
C6586 C6587 1.372 . S
C6587 C6586 1.372 . S
C6587 C6588 1.400 1_455 S
C6587 C6592 1.490 1_455 S
C6588 H6578 0.930 . S
C6588 C6587 1.400 1_655 S
C6588 C6591 1.386 1_655 S
H6589 C6605 0.930 . S
H6590 C6606 0.931 . S
C6591 H6579 0.929 . S
C6591 C6585 1.390 . S
C6591 C6588 1.386 1_455 S
C6592 C6587 1.490 1_655 S
C6592 C6594 1.395 . S
C6592 C6595 1.403 . S
H6593 C6599 0.930 . S
C6594 H6580 0.930 . S
C6594 C6592 1.395 . S
C6594 C6597 1.403 . S
C6595 C6592 1.403 . S
C6595 C6596 1.524 . S
C6595 C6599 1.400 . S
C6596 H6581 0.960 . S
C6596 H6582 0.953 . S
C6596 H6583 0.960 . S
C6596 C6595 1.524 . S
C6597 C6594 1.403 . S
C6597 C6598 1.392 . S
C6597 C6601 1.495 . S
C6598 C6597 1.392 . S
C6598 C6599 1.385 . S
C6598 C6600 1.478 . S
C6599 H6593 0.930 . S
C6599 C6595 1.400 . S
C6599 C6598 1.385 . S
C6600 C6598 1.478 . S
C6600 C6602 1.381 . S
C6600 C6606 1.383 . S
C6601 C6597 1.495 . S
C6601 H6607 0.959 . S
C6601 H6608 0.961 . S
C6601 H6609 0.960 . S
C6602 C6600 1.381 . S
C6602 C6603 1.394 . S
C6602 H6610 0.930 . S
C6603 C6602 1.394 . S
C6603 C6604 1.383 . S
C6603 H6611 0.929 . S
C6604 C6603 1.383 . S
C6604 C6605 1.377 . S
C6605 H6589 0.930 . S
C6605 C6604 1.377 . S
C6605 C6606 1.379 . S
C6606 H6590 0.931 . S
C6606 C6600 1.383 . S
C6606 C6605 1.379 . S
H6607 C6601 0.959 . S
H6608 C6601 0.961 . S
H6609 C6601 0.960 . S
H6610 C6602 0.930 . S
H6611 C6603 0.929 . S
H6612 C6620 0.929 . S
H6613 C6622 0.930 . S
H6614 C6624 0.930 . S
H6615 C6627 0.929 . S
H6616 C6630 0.930 . S
H6617 C6632 0.960 . S
H6618 C6632 0.960 . S
H6619 C6632 0.960 . S
C6620 H6612 0.929 . S
C6620 C6621 1.377 . S
C6620 C6622 1.384 . S
C6621 C6620 1.377 . S
C6621 C6627 1.390 . S
C6622 H6613 0.930 . S
C6622 C6620 1.384 . S
C6622 C6623 1.372 . S
C6623 C6622 1.372 . S
C6623 C6624 1.400 . S
C6623 C6628 1.490 . S
C6624 H6614 0.930 . S
C6624 C6623 1.400 . S
C6624 C6627 1.386 . S
H6625 C6641 0.930 . S
H6626 C6642 0.931 . S
C6627 H6615 0.929 . S
C6627 C6621 1.390 . S
C6627 C6624 1.386 . S
C6628 C6623 1.490 . S
C6628 C6630 1.395 . S
C6628 C6631 1.403 . S
H6629 C6635 0.930 1_545 S
C6630 H6616 0.930 . S
C6630 C6628 1.395 . S
C6630 C6633 1.403 . S
C6631 C6628 1.403 . S
C6631 C6632 1.524 . S
C6631 C6635 1.400 . S
C6632 H6617 0.960 . S
C6632 H6618 0.960 . S
C6632 H6619 0.960 . S
C6632 C6631 1.524 . S
C6633 C6630 1.403 . S
C6633 C6634 1.392 . S
C6633 C6637 1.495 . S
C6634 C6633 1.392 . S
C6634 C6635 1.385 . S
C6634 C6636 1.478 1_565 S
C6635 H6629 0.930 1_565 S
C6635 C6631 1.400 . S
C6635 C6634 1.385 . S
C6636 C6634 1.478 1_545 S
C6636 C6638 1.381 1_545 S
C6636 C6642 1.383 . S
C6637 C6633 1.495 . S
C6637 H6643 0.959 . S
C6637 H6644 0.961 . S
C6637 H6645 0.960 . S
C6638 C6636 1.381 1_565 S
C6638 C6639 1.394 1_565 S
C6638 H6646 0.930 . S
C6639 C6638 1.394 1_545 S
C6639 C6640 1.383 . S
C6639 H6647 0.929 . S
C6640 C6639 1.383 . S
C6640 C6641 1.377 . S
C6641 H6625 0.930 . S
C6641 C6640 1.377 . S
C6641 C6642 1.379 . S
C6642 H6626 0.931 . S
C6642 C6636 1.383 . S
C6642 C6641 1.379 . S
H6643 C6637 0.959 . S
H6644 C6637 0.961 . S
H6645 C6637 0.960 . S
H6646 C6638 0.930 . S
H6647 C6639 0.929 . S
H6648 C6656 0.929 . S
H6649 C6658 0.930 . S
H6650 C6660 0.930 . S
H6651 C6663 0.929 . S
H6652 C6666 0.930 . S
H6653 C6668 0.960 . S
H6654 C6668 0.960 . S
H6655 C6668 0.960 . S
C6656 H6648 0.929 . S
C6656 C6657 1.377 . S
C6656 C6658 1.384 . S
C6657 C6656 1.377 . S
C6657 C6663 1.390 . S
C6658 H6649 0.930 . S
C6658 C6656 1.384 . S
C6658 C6659 1.372 . S
C6659 C6658 1.372 . S
C6659 C6660 1.400 . S
C6659 C6664 1.490 . S
C6660 H6650 0.930 . S
C6660 C6659 1.400 . S
C6660 C6663 1.386 . S
H6661 C6677 0.930 . S
H6662 C6678 0.931 . S
C6663 H6651 0.929 . S
C6663 C6657 1.390 . S
C6663 C6660 1.386 . S
C6664 C6659 1.490 . S
C6664 C6666 1.395 . S
C6664 C6667 1.403 . S
H6665 C6671 0.930 . S
C6666 H6652 0.930 . S
C6666 C6664 1.395 . S
C6666 C6669 1.403 . S
C6667 C6664 1.403 . S
C6667 C6668 1.524 . S
C6667 C6671 1.400 . S
C6668 H6653 0.960 . S
C6668 H6654 0.960 . S
C6668 H6655 0.960 . S
C6668 C6667 1.524 . S
C6669 C6666 1.403 . S
C6669 C6670 1.392 . S
C6669 C6673 1.495 . S
C6670 C6669 1.392 . S
C6670 C6671 1.385 . S
C6670 C6672 1.478 . S
C6671 H6665 0.930 . S
C6671 C6667 1.400 . S
C6671 C6670 1.385 . S
C6672 C6670 1.478 . S
C6672 C6674 1.381 . S
C6672 C6678 1.383 . S
C6673 C6669 1.495 . S
C6673 H6679 0.959 . S
C6673 H6680 0.961 . S
C6673 H6681 0.960 . S
C6674 C6672 1.381 . S
C6674 C6675 1.394 . S
C6674 H6682 0.930 . S
C6675 C6674 1.394 . S
C6675 C6676 1.383 . S
C6675 H6683 0.929 . S
C6676 C6675 1.383 . S
C6676 C6677 1.377 . S
C6677 H6661 0.930 . S
C6677 C6676 1.377 . S
C6677 C6678 1.379 . S
C6678 H6662 0.931 . S
C6678 C6672 1.383 . S
C6678 C6677 1.379 . S
H6679 C6673 0.959 . S
H6680 C6673 0.961 . S
H6681 C6673 0.960 . S
H6682 C6674 0.930 . S
H6683 C6675 0.929 . S
H6684 C6692 0.929 . S
H6685 C6694 0.930 . S
H6686 C6696 0.930 . S
H6687 C6699 0.929 . S
H6688 C6702 0.930 . S
H6689 C6704 0.960 . S
H6690 C6704 0.960 . S
H6691 C6704 0.960 . S
C6692 H6684 0.929 . S
C6692 C6693 1.377 . S
C6692 C6694 1.384 . S
C6693 C6692 1.377 . S
C6693 C6699 1.390 . S
C6694 H6685 0.930 . S
C6694 C6692 1.384 . S
C6694 C6695 1.372 . S
C6695 C6694 1.372 . S
C6695 C6696 1.400 . S
C6695 C6700 1.490 . S
C6696 H6686 0.930 . S
C6696 C6695 1.400 . S
C6696 C6699 1.386 . S
H6697 C6713 0.930 . S
H6698 C6714 0.931 . S
C6699 H6687 0.929 . S
C6699 C6693 1.390 . S
C6699 C6696 1.386 . S
C6700 C6695 1.490 . S
C6700 C6702 1.395 . S
C6700 C6703 1.403 . S
H6701 C6707 0.930 . S
C6702 H6688 0.930 . S
C6702 C6700 1.395 . S
C6702 C6705 1.403 . S
C6703 C6700 1.403 . S
C6703 C6704 1.524 . S
C6703 C6707 1.400 . S
C6704 H6689 0.960 . S
C6704 H6690 0.960 . S
C6704 H6691 0.960 . S
C6704 C6703 1.524 . S
C6705 C6702 1.403 . S
C6705 C6706 1.392 . S
C6705 C6709 1.495 . S
C6706 C6705 1.392 . S
C6706 C6707 1.385 . S
C6706 C6708 1.478 . S
C6707 H6701 0.930 . S
C6707 C6703 1.400 . S
C6707 C6706 1.385 . S
C6708 C6706 1.478 . S
C6708 C6710 1.381 . S
C6708 C6714 1.383 . S
C6709 C6705 1.495 . S
C6709 H6715 0.959 . S
C6709 H6716 0.961 . S
C6709 H6717 0.960 . S
C6710 C6708 1.381 . S
C6710 C6711 1.394 . S
C6710 H6718 0.930 . S
C6711 C6710 1.394 . S
C6711 C6712 1.383 . S
C6711 H6719 0.929 . S
C6712 C6711 1.383 . S
C6712 C6713 1.377 . S
C6713 H6697 0.930 . S
C6713 C6712 1.377 . S
C6713 C6714 1.379 . S
C6714 H6698 0.931 . S
C6714 C6708 1.383 . S
C6714 C6713 1.379 . S
H6715 C6709 0.959 . S
H6716 C6709 0.961 . S
H6717 C6709 0.960 . S
H6718 C6710 0.930 . S
H6719 C6711 0.929 . S
H6720 C6728 0.929 . S
H6721 C6730 0.930 . S
H6722 C6732 0.930 . S
H6723 C6735 0.929 . S
H6724 C6738 0.930 . S
H6725 C6740 0.960 . S
H6726 C6740 0.960 . S
H6727 C6740 0.960 . S
C6728 H6720 0.929 . S
C6728 C6729 1.377 . S
C6728 C6730 1.384 . S
C6729 C6728 1.377 . S
C6729 C6735 1.390 . S
C6730 H6721 0.930 . S
C6730 C6728 1.384 . S
C6730 C6731 1.372 . S
C6731 C6730 1.372 . S
C6731 C6732 1.400 . S
C6731 C6736 1.490 . S
C6732 H6722 0.930 . S
C6732 C6731 1.400 . S
C6732 C6735 1.386 . S
H6733 C6749 0.930 . S
H6734 C6750 0.931 . S
C6735 H6723 0.929 . S
C6735 C6729 1.390 . S
C6735 C6732 1.386 . S
C6736 C6731 1.490 . S
C6736 C6738 1.395 . S
C6736 C6739 1.403 . S
H6737 C6743 0.930 . S
C6738 H6724 0.930 . S
C6738 C6736 1.395 . S
C6738 C6741 1.403 1_655 S
C6739 C6736 1.403 . S
C6739 C6740 1.524 . S
C6739 C6743 1.400 . S
C6740 H6725 0.960 . S
C6740 H6726 0.960 . S
C6740 H6727 0.960 . S
C6740 C6739 1.524 . S
C6741 C6738 1.403 1_455 S
C6741 C6742 1.392 1_455 S
C6741 C6745 1.495 . S
C6742 C6741 1.392 1_655 S
C6742 C6743 1.385 . S
C6742 C6744 1.478 1_655 S
C6743 H6737 0.930 . S
C6743 C6739 1.400 . S
C6743 C6742 1.385 . S
C6744 C6742 1.478 1_455 S
C6744 C6746 1.381 . S
C6744 C6750 1.383 . S
C6745 C6741 1.495 . S
C6745 H6751 0.959 . S
C6745 H6752 0.961 . S
C6745 H6753 0.960 . S
C6746 C6744 1.381 . S
C6746 C6747 1.394 . S
C6746 H6754 0.930 . S
C6747 C6746 1.394 . S
C6747 C6748 1.383 . S
C6747 H6755 0.929 . S
C6748 C6747 1.383 . S
C6748 C6749 1.377 . S
C6749 H6733 0.930 . S
C6749 C6748 1.377 . S
C6749 C6750 1.379 . S
C6750 H6734 0.931 . S
C6750 C6744 1.383 . S
C6750 C6749 1.379 . S
H6751 C6745 0.959 . S
H6752 C6745 0.961 . S
H6753 C6745 0.960 . S
H6754 C6746 0.930 . S
H6755 C6747 0.929 . S
H6756 C6764 0.929 . S
H6757 C6766 0.900 1_565 S
H6758 C6768 0.930 . S
H6759 C6771 0.929 . S
H6760 C6774 0.930 1_545 S
H6761 C6776 0.960 . S
H6762 C6776 0.960 . S
H6763 C6776 0.960 . S
C6764 H6756 0.929 . S
C6764 C6765 1.377 . S
C6764 C6766 1.384 . S
C6765 C6764 1.377 . S
C6765 C6771 1.390 . S
C6766 H6757 0.900 1_545 S
C6766 C6764 1.384 . S
C6766 C6767 1.372 . S
C6767 C6766 1.372 . S
C6767 C6768 1.400 . S
C6767 C6772 1.490 1_545 S
C6768 H6758 0.930 . S
C6768 C6767 1.400 . S
C6768 C6771 1.386 . S
H6769 C6785 0.930 . S
H6770 C6786 0.931 . S
C6771 H6759 0.929 . S
C6771 C6765 1.390 . S
C6771 C6768 1.386 . S
C6772 C6767 1.490 1_565 S
C6772 C6774 1.395 . S
C6772 C6775 1.403 . S
H6773 C6779 0.930 . S
C6774 H6760 0.930 1_565 S
C6774 C6772 1.395 . S
C6774 C6777 1.403 . S
C6775 C6772 1.403 . S
C6775 C6776 1.524 . S
C6775 C6779 1.400 . S
C6776 H6761 0.960 . S
C6776 H6762 0.960 . S
C6776 H6763 0.960 . S
C6776 C6775 1.524 . S
C6777 C6774 1.403 . S
C6777 C6778 1.392 . S
C6777 C6781 1.495 . S
C6778 C6777 1.392 . S
C6778 C6779 1.385 . S
C6778 C6780 1.478 . S
C6779 H6773 0.930 . S
C6779 C6775 1.400 . S
C6779 C6778 1.385 . S
C6780 C6778 1.478 . S
C6780 C6782 1.381 . S
C6780 C6786 1.383 . S
C6781 C6777 1.495 . S
C6781 H6787 0.959 1_565 S
C6781 H6788 0.961 . S
C6781 H6789 0.960 . S
C6782 C6780 1.381 . S
C6782 C6783 1.394 . S
C6782 H6790 0.930 . S
C6783 C6782 1.394 . S
C6783 C6784 1.383 . S
C6783 H6791 0.929 . S
C6784 C6783 1.383 . S
C6784 C6785 1.377 . S
C6785 H6769 0.930 . S
C6785 C6784 1.377 . S
C6785 C6786 1.379 . S
C6786 H6770 0.931 . S
C6786 C6780 1.383 . S
C6786 C6785 1.379 . S
H6787 C6781 0.959 1_545 S
H6788 C6781 0.961 . S
H6789 C6781 0.960 . S
H6790 C6782 0.930 . S
H6791 C6783 0.929 . S
H6792 C6800 0.929 . S
H6793 C6802 0.930 . S
H6794 C6804 0.930 . S
H6795 C6807 0.929 . S
H6796 C6810 0.930 . S
H6797 C6812 0.960 . S
H6798 C6812 0.960 . S
H6799 C6812 0.960 . S
C6800 H6792 0.929 . S
C6800 C6801 1.377 . S
C6800 C6802 1.384 . S
C6801 C6800 1.377 . S
C6801 C6807 1.390 . S
C6802 H6793 0.930 . S
C6802 C6800 1.384 . S
C6802 C6803 1.372 . S
C6803 C6802 1.372 . S
C6803 C6804 1.400 . S
C6803 C6808 1.490 . S
C6804 H6794 0.930 . S
C6804 C6803 1.400 . S
C6804 C6807 1.386 . S
H6805 C6821 0.930 . S
H6806 C6822 0.931 . S
C6807 H6795 0.929 . S
C6807 C6801 1.390 . S
C6807 C6804 1.386 . S
C6808 C6803 1.490 . S
C6808 C6810 1.395 . S
C6808 C6811 1.403 . S
H6809 C6815 0.930 . S
C6810 H6796 0.930 . S
C6810 C6808 1.395 . S
C6810 C6813 1.403 . S
C6811 C6808 1.403 . S
C6811 C6812 1.524 . S
C6811 C6815 1.400 . S
C6812 H6797 0.960 . S
C6812 H6798 0.960 . S
C6812 H6799 0.960 . S
C6812 C6811 1.524 . S
C6813 C6810 1.403 . S
C6813 C6814 1.392 . S
C6813 C6817 1.495 . S
C6814 C6813 1.392 . S
C6814 C6815 1.385 . S
C6814 C6816 1.478 . S
C6815 H6809 0.930 . S
C6815 C6811 1.400 . S
C6815 C6814 1.385 . S
C6816 C6814 1.478 . S
C6816 C6818 1.381 . S
C6816 C6822 1.383 . S
C6817 C6813 1.495 . S
C6817 H6823 0.959 . S
C6817 H6824 0.961 . S
C6817 H6825 0.960 . S
C6818 C6816 1.381 . S
C6818 C6819 1.394 . S
C6818 H6826 0.930 . S
C6819 C6818 1.394 . S
C6819 C6820 1.383 . S
C6819 H6827 0.929 . S
C6820 C6819 1.383 . S
C6820 C6821 1.377 . S
C6821 H6805 0.930 . S
C6821 C6820 1.377 . S
C6821 C6822 1.379 . S
C6822 H6806 0.931 . S
C6822 C6816 1.383 . S
C6822 C6821 1.379 . S
H6823 C6817 0.959 . S
H6824 C6817 0.961 . S
H6825 C6817 0.960 . S
H6826 C6818 0.930 . S
H6827 C6819 0.929 . S
H6828 C6836 0.929 . S
H6829 C6838 0.930 . S
H6830 C6840 0.930 . S
H6831 C6843 0.929 . S
H6832 C6846 0.930 . S
H6833 C6848 0.960 . S
H6834 C6848 0.960 . S
H6835 C6848 0.960 . S
C6836 H6828 0.929 . S
C6836 C6837 1.377 . S
C6836 C6838 1.384 . S
C6837 C6836 1.377 . S
C6837 C6843 1.390 . S
C6838 H6829 0.930 . S
C6838 C6836 1.384 . S
C6838 C6839 1.372 . S
C6839 C6838 1.372 . S
C6839 C6840 1.400 . S
C6839 C6844 1.490 . S
C6840 H6830 0.930 . S
C6840 C6839 1.400 . S
C6840 C6843 1.386 . S
H6841 C6857 0.930 . S
H6842 C6858 0.931 . S
C6843 H6831 0.929 . S
C6843 C6837 1.390 . S
C6843 C6840 1.386 . S
C6844 C6839 1.490 . S
C6844 C6846 1.395 . S
C6844 C6847 1.403 . S
H6845 C6851 0.930 . S
C6846 H6832 0.930 . S
C6846 C6844 1.395 . S
C6846 C6849 1.403 . S
C6847 C6844 1.403 . S
C6847 C6848 1.524 . S
C6847 C6851 1.400 . S
C6848 H6833 0.960 . S
C6848 H6834 0.960 . S
C6848 H6835 0.960 . S
C6848 C6847 1.524 . S
C6849 C6846 1.403 . S
C6849 C6850 1.392 . S
C6849 C6853 1.495 . S
C6850 C6849 1.392 . S
C6850 C6851 1.385 . S
C6850 C6852 1.478 . S
C6851 H6845 0.930 . S
C6851 C6847 1.400 . S
C6851 C6850 1.385 . S
C6852 C6850 1.478 . S
C6852 C6854 1.381 . S
C6852 C6858 1.383 . S
C6853 C6849 1.495 . S
C6853 H6859 0.959 . S
C6853 H6860 0.961 . S
C6853 H6861 0.960 . S
C6854 C6852 1.381 . S
C6854 C6855 1.394 . S
C6854 H6862 0.930 . S
C6855 C6854 1.394 . S
C6855 C6856 1.383 . S
C6855 H6863 0.929 . S
C6856 C6855 1.383 . S
C6856 C6857 1.377 . S
C6857 H6841 0.930 . S
C6857 C6856 1.377 . S
C6857 C6858 1.379 . S
C6858 H6842 0.931 . S
C6858 C6852 1.383 . S
C6858 C6857 1.379 . S
H6859 C6853 0.959 . S
H6860 C6853 0.961 . S
H6861 C6853 0.960 . S
H6862 C6854 0.930 . S
H6863 C6855 0.929 . S
H6864 C6872 0.929 . S
H6865 C6874 0.930 . S
H6866 C6876 0.930 . S
H6867 C6879 0.929 . S
H6868 C6882 0.930 . S
H6869 C6884 0.960 . S
H6870 C6884 0.960 . S
H6871 C6884 0.960 . S
C6872 H6864 0.929 . S
C6872 C6873 1.377 . S
C6872 C6874 1.384 . S
C6873 C6872 1.377 . S
C6873 C6879 1.390 . S
C6874 H6865 0.930 . S
C6874 C6872 1.384 . S
C6874 C6875 1.372 . S
C6875 C6874 1.372 . S
C6875 C6876 1.400 . S
C6875 C6880 1.490 . S
C6876 H6866 0.930 . S
C6876 C6875 1.400 . S
C6876 C6879 1.386 . S
H6877 C6893 0.930 . S
H6878 C6894 0.931 . S
C6879 H6867 0.929 . S
C6879 C6873 1.390 . S
C6879 C6876 1.386 . S
C6880 C6875 1.490 . S
C6880 C6882 1.395 . S
C6880 C6883 1.403 . S
H6881 C6887 0.930 . S
C6882 H6868 0.930 . S
C6882 C6880 1.395 . S
C6882 C6885 1.403 . S
C6883 C6880 1.403 . S
C6883 C6884 1.524 . S
C6883 C6887 1.400 . S
C6884 H6869 0.960 . S
C6884 H6870 0.960 . S
C6884 H6871 0.960 . S
C6884 C6883 1.524 . S
C6885 C6882 1.403 . S
C6885 C6886 1.392 . S
C6885 C6889 1.495 . S
C6886 C6885 1.392 . S
C6886 C6887 1.385 . S
C6886 C6888 1.478 1_565 S
C6887 H6881 0.930 . S
C6887 C6883 1.400 . S
C6887 C6886 1.385 . S
C6888 C6886 1.478 1_545 S
C6888 C6890 1.381 . S
C6888 C6894 1.383 1_545 S
C6889 C6885 1.495 . S
C6889 H6895 0.959 . S
C6889 H6896 0.961 . S
C6889 H6897 0.960 1_565 S
C6890 C6888 1.381 . S
C6890 C6891 1.394 . S
C6890 H6898 0.930 . S
C6891 C6890 1.394 . S
C6891 C6892 1.383 . S
C6891 H6899 0.929 . S
C6892 C6891 1.383 . S
C6892 C6893 1.377 . S
C6893 H6877 0.930 . S
C6893 C6892 1.377 . S
C6893 C6894 1.379 1_545 S
C6894 H6878 0.931 . S
C6894 C6888 1.383 1_565 S
C6894 C6893 1.379 1_565 S
H6895 C6889 0.959 . S
H6896 C6889 0.961 . S
H6897 C6889 0.960 1_545 S
H6898 C6890 0.930 . S
H6899 C6891 0.929 . S
H6900 C6908 0.929 . S
H6901 C6910 0.930 . S
H6902 C6912 0.930 . S
H6903 C6915 0.929 . S
H6904 C6918 0.930 . S
H6905 C6920 0.960 . S
H6906 C6920 0.960 . S
H6907 C6920 0.960 . S
C6908 H6900 0.929 . S
C6908 C6909 1.377 . S
C6908 C6910 1.384 . S
C6909 C6908 1.377 . S
C6909 C6915 1.390 . S
C6910 H6901 0.930 . S
C6910 C6908 1.384 . S
C6910 C6911 1.372 . S
C6911 C6910 1.372 . S
C6911 C6912 1.400 . S
C6911 C6916 1.490 . S
C6912 H6902 0.930 . S
C6912 C6911 1.400 . S
C6912 C6915 1.386 . S
H6913 C6929 0.930 . S
H6914 C6930 0.931 . S
C6915 H6903 0.929 . S
C6915 C6909 1.390 . S
C6915 C6912 1.386 . S
C6916 C6911 1.490 . S
C6916 C6918 1.395 . S
C6916 C6919 1.403 . S
H6917 C6923 0.930 . S
C6918 H6904 0.930 . S
C6918 C6916 1.395 . S
C6918 C6921 1.403 . S
C6919 C6916 1.403 . S
C6919 C6920 1.524 . S
C6919 C6923 1.400 . S
C6920 H6905 0.960 . S
C6920 H6906 0.960 . S
C6920 H6907 0.960 . S
C6920 C6919 1.524 . S
C6921 C6918 1.403 . S
C6921 C6922 1.392 . S
C6921 C6925 1.495 . S
C6922 C6921 1.392 . S
C6922 C6923 1.385 . S
C6922 C6924 1.478 . S
C6923 H6917 0.930 . S
C6923 C6919 1.400 . S
C6923 C6922 1.385 . S
C6924 C6922 1.478 . S
C6924 C6926 1.381 . S
C6924 C6930 1.383 . S
C6925 C6921 1.495 . S
C6925 H6931 0.959 . S
C6925 H6932 0.961 . S
C6925 H6933 0.960 . S
C6926 C6924 1.381 . S
C6926 C6927 1.394 . S
C6926 H6934 0.930 . S
C6927 C6926 1.394 . S
C6927 C6928 1.383 . S
C6927 H6935 0.929 . S
C6928 C6927 1.383 . S
C6928 C6929 1.377 . S
C6929 H6913 0.930 . S
C6929 C6928 1.377 . S
C6929 C6930 1.379 . S
C6930 H6914 0.931 . S
C6930 C6924 1.383 . S
C6930 C6929 1.379 . S
H6931 C6925 0.959 . S
H6932 C6925 0.961 . S
H6933 C6925 0.960 . S
H6934 C6926 0.930 . S
H6935 C6927 0.929 . S
H6936 C6944 0.929 . S
H6937 C6946 0.930 . S
H6938 C6948 0.930 . S
H6939 C6951 0.929 . S
H6940 C6954 0.930 . S
H6941 C6956 0.960 . S
H6942 C6956 0.960 . S
H6943 C6956 0.960 . S
C6944 H6936 0.929 . S
C6944 C6945 1.377 . S
C6944 C6946 1.384 . S
C6945 C6944 1.377 . S
C6945 C6951 1.390 . S
C6946 H6937 0.930 . S
C6946 C6944 1.384 . S
C6946 C6947 1.372 . S
C6947 C6946 1.372 . S
C6947 C6948 1.400 . S
C6947 C6952 1.490 . S
C6948 H6938 0.930 . S
C6948 C6947 1.400 . S
C6948 C6951 1.386 . S
H6949 C6965 0.930 . S
H6950 C6966 0.931 . S
C6951 H6939 0.929 . S
C6951 C6945 1.390 . S
C6951 C6948 1.386 . S
C6952 C6947 1.490 . S
C6952 C6954 1.395 . S
C6952 C6955 1.403 . S
H6953 C6959 0.930 . S
C6954 H6940 0.930 . S
C6954 C6952 1.395 . S
C6954 C6957 1.403 . S
C6955 C6952 1.403 . S
C6955 C6956 1.524 . S
C6955 C6959 1.400 . S
C6956 H6941 0.960 . S
C6956 H6942 0.960 . S
C6956 H6943 0.960 . S
C6956 C6955 1.524 . S
C6957 C6954 1.403 . S
C6957 C6958 1.392 . S
C6957 C6961 1.495 . S
C6958 C6957 1.392 . S
C6958 C6959 1.385 . S
C6958 C6960 1.478 . S
C6959 H6953 0.930 . S
C6959 C6955 1.400 . S
C6959 C6958 1.385 . S
C6960 C6958 1.478 . S
C6960 C6962 1.381 . S
C6960 C6966 1.383 . S
C6961 C6957 1.495 . S
C6961 H6967 0.959 . S
C6961 H6968 0.961 . S
C6961 H6969 0.960 . S
C6962 C6960 1.381 . S
C6962 C6963 1.394 . S
C6962 H6970 0.930 . S
C6963 C6962 1.394 . S
C6963 C6964 1.383 . S
C6963 H6971 0.929 . S
C6964 C6963 1.383 . S
C6964 C6965 1.377 . S
C6965 H6949 0.930 . S
C6965 C6964 1.377 . S
C6965 C6966 1.379 . S
C6966 H6950 0.931 . S
C6966 C6960 1.383 . S
C6966 C6965 1.379 . S
H6967 C6961 0.959 . S
H6968 C6961 0.961 . S
H6969 C6961 0.960 . S
H6970 C6962 0.930 . S
H6971 C6963 0.929 . S
H6972 C6980 0.929 . S
H6973 C6982 0.953 . S
H6974 C6984 0.930 . S
H6975 C6987 0.929 . S
H6976 C6990 0.930 1_455 S
H6977 C6992 0.960 . S
H6978 C6992 0.960 . S
H6979 C6992 0.960 . S
C6980 H6972 0.929 . S
C6980 C6981 1.377 . S
C6980 C6982 1.384 . S
C6981 C6980 1.377 . S
C6981 C6987 1.390 . S
C6982 H6973 0.953 . S
C6982 C6980 1.384 . S
C6982 C6983 1.372 . S
C6983 C6982 1.372 . S
C6983 C6984 1.400 . S
C6983 C6988 1.490 1_455 S
C6984 H6974 0.930 . S
C6984 C6983 1.400 . S
C6984 C6987 1.386 . S
H6985 C7001 0.930 . S
H6986 C7002 0.931 . S
C6987 H6975 0.929 . S
C6987 C6981 1.390 . S
C6987 C6984 1.386 . S
C6988 C6983 1.490 1_655 S
C6988 C6990 1.395 . S
C6988 C6991 1.403 . S
H6989 C6995 0.930 . S
C6990 H6976 0.930 1_655 S
C6990 C6988 1.395 . S
C6990 C6993 1.403 . S
C6991 C6988 1.403 . S
C6991 C6992 1.524 . S
C6991 C6995 1.400 . S
C6992 H6977 0.960 . S
C6992 H6978 0.960 . S
C6992 H6979 0.960 . S
C6992 C6991 1.524 . S
C6993 C6990 1.403 . S
C6993 C6994 1.392 . S
C6993 C6997 1.495 . S
C6994 C6993 1.392 . S
C6994 C6995 1.385 . S
C6994 C6996 1.478 . S
C6995 H6989 0.930 . S
C6995 C6991 1.400 . S
C6995 C6994 1.385 . S
C6996 C6994 1.478 . S
C6996 C6998 1.381 . S
C6996 C7002 1.383 . S
C6997 C6993 1.495 . S
C6997 H7003 0.959 1_655 S
C6997 H7004 0.961 . S
C6997 H7005 0.960 . S
C6998 C6996 1.381 . S
C6998 C6999 1.394 . S
C6998 H7006 0.930 . S
C6999 C6998 1.394 . S
C6999 C7000 1.383 . S
C6999 H7007 0.929 . S
C7000 C6999 1.383 . S
C7000 C7001 1.377 . S
C7001 H6985 0.930 . S
C7001 C7000 1.377 . S
C7001 C7002 1.379 . S
C7002 H6986 0.931 . S
C7002 C6996 1.383 . S
C7002 C7001 1.379 . S
H7003 C6997 0.959 1_455 S
H7004 C6997 0.961 . S
H7005 C6997 0.960 . S
H7006 C6998 0.930 . S
H7007 C6999 0.929 . S
H7008 C7016 0.929 . S
H7009 C7018 0.930 . S
H7010 C7020 0.930 . S
H7011 C7023 0.929 . S
H7012 C7026 0.930 . S
H7013 C7028 0.960 . S
H7014 C7028 0.960 . S
H7015 C7028 0.960 . S
C7016 H7008 0.929 . S
C7016 C7017 1.377 . S
C7016 C7018 1.384 . S
C7017 C7016 1.377 . S
C7017 C7023 1.390 . S
C7018 H7009 0.930 . S
C7018 C7016 1.384 . S
C7018 C7019 1.372 . S
C7019 C7018 1.372 . S
C7019 C7020 1.400 . S
C7019 C7024 1.490 . S
C7020 H7010 0.930 . S
C7020 C7019 1.400 . S
C7020 C7023 1.386 . S
H7021 C7037 0.930 . S
H7022 C7038 0.931 . S
C7023 H7011 0.929 . S
C7023 C7017 1.390 . S
C7023 C7020 1.386 . S
C7024 C7019 1.490 . S
C7024 C7026 1.395 . S
C7024 C7027 1.403 . S
H7025 C7031 0.930 . S
C7026 H7012 0.930 . S
C7026 C7024 1.395 . S
C7026 C7029 1.403 . S
C7027 C7024 1.403 . S
C7027 C7028 1.524 . S
C7027 C7031 1.400 . S
C7028 H7013 0.960 . S
C7028 H7014 0.960 . S
C7028 H7015 0.960 . S
C7028 C7027 1.524 . S
C7029 C7026 1.403 . S
C7029 C7030 1.392 . S
C7029 C7033 1.495 . S
C7030 C7029 1.392 . S
C7030 C7031 1.385 . S
C7030 C7032 1.478 . S
C7031 H7025 0.930 . S
C7031 C7027 1.400 . S
C7031 C7030 1.385 . S
C7032 C7030 1.478 . S
C7032 C7034 1.381 . S
C7032 C7038 1.383 . S
C7033 C7029 1.495 . S
C7033 H7039 0.959 . S
C7033 H7040 0.961 . S
C7033 H7041 0.960 . S
C7034 C7032 1.381 . S
C7034 C7035 1.394 . S
C7034 H7042 0.930 . S
C7035 C7034 1.394 . S
C7035 C7036 1.383 . S
C7035 H7043 0.929 . S
C7036 C7035 1.383 . S
C7036 C7037 1.377 . S
C7037 H7021 0.930 . S
C7037 C7036 1.377 . S
C7037 C7038 1.379 . S
C7038 H7022 0.931 . S
C7038 C7032 1.383 . S
C7038 C7037 1.379 . S
H7039 C7033 0.959 . S
H7040 C7033 0.961 . S
H7041 C7033 0.960 . S
H7042 C7034 0.930 . S
H7043 C7035 0.929 . S
H7044 C7052 0.929 . S
H7045 C7054 0.930 1_655 S
H7046 C7056 0.930 . S
H7047 C7059 0.929 . S
H7048 C7062 0.930 . S
H7049 C7064 0.960 . S
H7050 C7064 0.960 . S
H7051 C7064 0.960 . S
C7052 H7044 0.929 . S
C7052 C7053 1.377 . S
C7052 C7054 1.384 . S
C7053 C7052 1.377 . S
C7053 C7059 1.390 . S
C7054 H7045 0.930 1_455 S
C7054 C7052 1.384 . S
C7054 C7055 1.372 . S
C7055 C7054 1.372 . S
C7055 C7056 1.400 . S
C7055 C7060 1.490 1_455 S
C7056 H7046 0.930 . S
C7056 C7055 1.400 . S
C7056 C7059 1.386 . S
H7057 C7073 0.930 . S
H7058 C7074 0.931 . S
C7059 H7047 0.929 . S
C7059 C7053 1.390 . S
C7059 C7056 1.386 . S
C7060 C7055 1.490 1_655 S
C7060 C7062 1.395 . S
C7060 C7063 1.403 . S
H7061 C7067 0.930 . S
C7062 H7048 0.930 . S
C7062 C7060 1.395 . S
C7062 C7065 1.403 . S
C7063 C7060 1.403 . S
C7063 C7064 1.524 1_655 S
C7063 C7067 1.400 . S
C7064 H7049 0.960 . S
C7064 H7050 0.960 . S
C7064 H7051 0.960 . S
C7064 C7063 1.524 1_455 S
C7065 C7062 1.403 . S
C7065 C7066 1.392 . S
C7065 C7069 1.495 . S
C7066 C7065 1.392 . S
C7066 C7067 1.385 . S
C7066 C7068 1.478 . S
C7067 H7061 0.930 . S
C7067 C7063 1.400 . S
C7067 C7066 1.385 . S
C7068 C7066 1.478 . S
C7068 C7070 1.381 . S
C7068 C7074 1.383 . S
C7069 C7065 1.495 . S
C7069 H7075 0.959 . S
C7069 H7076 0.961 . S
C7069 H7077 0.960 . S
C7070 C7068 1.381 . S
C7070 C7071 1.394 . S
C7070 H7078 0.930 . S
C7071 C7070 1.394 . S
C7071 C7072 1.383 . S
C7071 H7079 0.929 . S
C7072 C7071 1.383 . S
C7072 C7073 1.377 . S
C7073 H7057 0.930 . S
C7073 C7072 1.377 . S
C7073 C7074 1.379 . S
C7074 H7058 0.931 . S
C7074 C7068 1.383 . S
C7074 C7073 1.379 . S
H7075 C7069 0.959 . S
H7076 C7069 0.961 . S
H7077 C7069 0.960 . S
H7078 C7070 0.930 . S
H7079 C7071 0.929 . S
H7080 C7088 0.929 . S
H7081 C7090 0.930 . S
H7082 C7092 0.930 . S
H7083 C7095 0.929 . S
H7084 C7098 0.930 . S
H7085 C7100 0.960 . S
H7086 C7100 0.929 1_545 S
H7087 C7100 0.960 . S
C7088 H7080 0.929 . S
C7088 C7089 1.377 . S
C7088 C7090 1.384 . S
C7089 C7088 1.377 . S
C7089 C7095 1.390 . S
C7090 H7081 0.930 . S
C7090 C7088 1.384 . S
C7090 C7091 1.372 . S
C7091 C7090 1.372 . S
C7091 C7092 1.400 1_545 S
C7091 C7096 1.490 1_545 S
C7092 H7082 0.930 . S
C7092 C7091 1.400 1_565 S
C7092 C7095 1.386 1_565 S
H7093 C7109 0.930 . S
H7094 C7110 0.931 . S
C7095 H7083 0.929 . S
C7095 C7089 1.390 . S
C7095 C7092 1.386 1_545 S
C7096 C7091 1.490 1_565 S
C7096 C7098 1.395 . S
C7096 C7099 1.403 . S
H7097 C7103 0.930 . S
C7098 H7084 0.930 . S
C7098 C7096 1.395 . S
C7098 C7101 1.403 . S
C7099 C7096 1.403 . S
C7099 C7100 1.524 . S
C7099 C7103 1.400 . S
C7100 H7085 0.960 . S
C7100 H7086 0.929 1_565 S
C7100 H7087 0.960 . S
C7100 C7099 1.524 . S
C7101 C7098 1.403 . S
C7101 C7102 1.392 . S
C7101 C7105 1.495 . S
C7102 C7101 1.392 . S
C7102 C7103 1.385 . S
C7102 C7104 1.478 . S
C7103 H7097 0.930 . S
C7103 C7099 1.400 . S
C7103 C7102 1.385 . S
C7104 C7102 1.478 . S
C7104 C7106 1.381 . S
C7104 C7110 1.383 . S
C7105 C7101 1.495 . S
C7105 H7111 0.959 . S
C7105 H7112 0.961 . S
C7105 H7113 0.960 . S
C7106 C7104 1.381 . S
C7106 C7107 1.394 . S
C7106 H7114 0.930 . S
C7107 C7106 1.394 . S
C7107 C7108 1.383 . S
C7107 H7115 0.929 . S
C7108 C7107 1.383 . S
C7108 C7109 1.377 . S
C7109 H7093 0.930 . S
C7109 C7108 1.377 . S
C7109 C7110 1.379 . S
C7110 H7094 0.931 . S
C7110 C7104 1.383 . S
C7110 C7109 1.379 . S
H7111 C7105 0.959 . S
H7112 C7105 0.961 . S
H7113 C7105 0.960 . S
H7114 C7106 0.930 . S
H7115 C7107 0.929 . S
H7116 C7124 0.929 . S
H7117 C7126 0.930 . S
H7118 C7128 0.930 . S
H7119 C7131 0.929 . S
H7120 C7134 0.930 . S
H7121 C7136 0.960 . S
H7122 C7136 0.960 . S
H7123 C7136 0.960 . S
C7124 H7116 0.929 . S
C7124 C7125 1.377 . S
C7124 C7126 1.384 . S
C7125 C7124 1.377 . S
C7125 C7131 1.390 . S
C7126 H7117 0.930 . S
C7126 C7124 1.384 . S
C7126 C7127 1.372 . S
C7127 C7126 1.372 . S
C7127 C7128 1.400 . S
C7127 C7132 1.490 . S
C7128 H7118 0.930 . S
C7128 C7127 1.400 . S
C7128 C7131 1.386 . S
H7129 C7145 0.930 . S
H7130 C7146 0.931 . S
C7131 H7119 0.929 . S
C7131 C7125 1.390 . S
C7131 C7128 1.386 . S
C7132 C7127 1.490 . S
C7132 C7134 1.395 . S
C7132 C7135 1.403 . S
H7133 C7139 0.930 . S
C7134 H7120 0.930 . S
C7134 C7132 1.395 . S
C7134 C7137 1.403 . S
C7135 C7132 1.403 . S
C7135 C7136 1.524 . S
C7135 C7139 1.400 . S
C7136 H7121 0.960 . S
C7136 H7122 0.960 . S
C7136 H7123 0.960 . S
C7136 C7135 1.524 . S
C7137 C7134 1.403 . S
C7137 C7138 1.392 . S
C7137 C7141 1.495 . S
C7138 C7137 1.392 . S
C7138 C7139 1.385 . S
C7138 C7140 1.478 . S
C7139 H7133 0.930 . S
C7139 C7135 1.400 . S
C7139 C7138 1.385 . S
C7140 C7138 1.478 . S
C7140 C7142 1.381 . S
C7140 C7146 1.383 . S
C7141 C7137 1.495 . S
C7141 H7147 0.959 . S
C7141 H7148 0.961 . S
C7141 H7149 0.960 . S
C7142 C7140 1.381 . S
C7142 C7143 1.394 . S
C7142 H7150 0.930 . S
C7143 C7142 1.394 . S
C7143 C7144 1.383 . S
C7143 H7151 0.929 . S
C7144 C7143 1.383 . S
C7144 C7145 1.377 . S
C7145 H7129 0.930 . S
C7145 C7144 1.377 . S
C7145 C7146 1.379 . S
C7146 H7130 0.931 . S
C7146 C7140 1.383 . S
C7146 C7145 1.379 . S
H7147 C7141 0.959 . S
H7148 C7141 0.961 . S
H7149 C7141 0.960 . S
H7150 C7142 0.930 . S
H7151 C7143 0.929 . S
H7152 C7160 0.929 . S
H7153 C7162 0.907 1_556 S
H7154 C7164 0.930 . S
H7155 C7167 0.929 . S
H7156 C7170 0.930 . S
H7157 C7172 0.960 . S
H7158 C7172 0.960 . S
H7159 C7172 0.960 . S
C7160 H7152 0.929 . S
C7160 C7161 1.377 . S
C7160 C7162 1.384 . S
C7161 C7160 1.377 . S
C7161 C7167 1.390 . S
C7162 H7153 0.907 1_554 S
C7162 C7160 1.384 . S
C7162 C7163 1.372 . S
C7163 C7162 1.372 . S
C7163 C7164 1.400 . S
C7163 C7168 1.490 1_554 S
C7164 H7154 0.930 . S
C7164 C7163 1.400 . S
C7164 C7167 1.386 . S
H7165 C7181 0.930 . S
H7166 C7182 0.931 . S
C7167 H7155 0.929 . S
C7167 C7161 1.390 . S
C7167 C7164 1.386 . S
C7168 C7163 1.490 1_556 S
C7168 C7170 1.395 . S
C7168 C7171 1.403 . S
H7169 C7175 0.930 . S
C7170 H7156 0.930 . S
C7170 C7168 1.395 . S
C7170 C7173 1.403 . S
C7171 C7168 1.403 . S
C7171 C7172 1.524 1_556 S
C7171 C7175 1.400 . S
C7172 H7157 0.960 . S
C7172 H7158 0.960 . S
C7172 H7159 0.960 . S
C7172 C7171 1.524 1_554 S
C7173 C7170 1.403 . S
C7173 C7174 1.392 . S
C7173 C7177 1.495 . S
C7174 C7173 1.392 . S
C7174 C7175 1.385 . S
C7174 C7176 1.478 . S
C7175 H7169 0.930 . S
C7175 C7171 1.400 . S
C7175 C7174 1.385 . S
C7176 C7174 1.478 . S
C7176 C7178 1.381 . S
C7176 C7182 1.383 . S
C7177 C7173 1.495 . S
C7177 H7183 0.959 . S
C7177 H7184 0.961 . S
C7177 H7185 0.960 . S
C7178 C7176 1.381 . S
C7178 C7179 1.394 . S
C7178 H7186 0.930 . S
C7179 C7178 1.394 . S
C7179 C7180 1.383 . S
C7179 H7187 0.929 . S
C7180 C7179 1.383 . S
C7180 C7181 1.377 . S
C7181 H7165 0.930 . S
C7181 C7180 1.377 . S
C7181 C7182 1.379 . S
C7182 H7166 0.931 . S
C7182 C7176 1.383 . S
C7182 C7181 1.379 . S
H7183 C7177 0.959 . S
H7184 C7177 0.961 . S
H7185 C7177 0.960 . S
H7186 C7178 0.930 . S
H7187 C7179 0.929 . S
H7188 C7196 0.929 . S
H7189 C7198 0.930 . S
H7190 C7200 0.930 . S
H7191 C7203 0.929 . S
H7192 C7206 0.930 . S
H7193 C7208 0.960 . S
H7194 C7208 0.960 . S
H7195 C7208 0.960 . S
C7196 H7188 0.929 . S
C7196 C7197 1.377 . S
C7196 C7198 1.384 . S
C7197 C7196 1.377 . S
C7197 C7203 1.390 . S
C7198 H7189 0.930 . S
C7198 C7196 1.384 . S
C7198 C7199 1.372 . S
C7199 C7198 1.372 . S
C7199 C7200 1.400 . S
C7199 C7204 1.490 . S
C7200 H7190 0.930 . S
C7200 C7199 1.400 . S
C7200 C7203 1.386 . S
H7201 C7217 0.930 . S
H7202 C7218 0.931 . S
C7203 H7191 0.929 . S
C7203 C7197 1.390 . S
C7203 C7200 1.386 . S
C7204 C7199 1.490 . S
C7204 C7206 1.395 . S
C7204 C7207 1.403 . S
H7205 C7211 0.930 . S
C7206 H7192 0.930 . S
C7206 C7204 1.395 . S
C7206 C7209 1.403 . S
C7207 C7204 1.403 . S
C7207 C7208 1.524 . S
C7207 C7211 1.400 . S
C7208 H7193 0.960 . S
C7208 H7194 0.960 . S
C7208 H7195 0.960 . S
C7208 C7207 1.524 . S
C7209 C7206 1.403 . S
C7209 C7210 1.392 . S
C7209 C7213 1.495 . S
C7210 C7209 1.392 . S
C7210 C7211 1.385 . S
C7210 C7212 1.478 . S
C7211 H7205 0.930 . S
C7211 C7207 1.400 . S
C7211 C7210 1.385 . S
C7212 C7210 1.478 . S
C7212 C7214 1.381 . S
C7212 C7218 1.383 . S
C7213 C7209 1.495 . S
C7213 H7219 0.959 . S
C7213 H7220 0.961 . S
C7213 H7221 0.960 . S
C7214 C7212 1.381 . S
C7214 C7215 1.394 . S
C7214 H7222 0.930 . S
C7215 C7214 1.394 . S
C7215 C7216 1.383 . S
C7215 H7223 0.929 . S
C7216 C7215 1.383 . S
C7216 C7217 1.377 . S
C7217 H7201 0.930 . S
C7217 C7216 1.377 . S
C7217 C7218 1.379 . S
C7218 H7202 0.931 . S
C7218 C7212 1.383 . S
C7218 C7217 1.379 . S
H7219 C7213 0.959 . S
H7220 C7213 0.961 . S
H7221 C7213 0.960 . S
H7222 C7214 0.930 . S
H7223 C7215 0.929 . S
H7224 C7232 0.929 . S
H7225 C7234 0.930 . S
H7226 C7236 0.930 . S
H7227 C7239 0.929 . S
H7228 C7242 0.930 . S
H7229 C7244 0.960 . S
H7230 C7244 0.960 . S
H7231 C7244 0.960 . S
C7232 H7224 0.929 . S
C7232 C7233 1.377 . S
C7232 C7234 1.384 . S
C7233 C7232 1.377 . S
C7233 C7239 1.390 . S
C7234 H7225 0.930 . S
C7234 C7232 1.384 . S
C7234 C7235 1.372 . S
C7235 C7234 1.372 . S
C7235 C7236 1.400 . S
C7235 C7240 1.490 . S
C7236 H7226 0.930 . S
C7236 C7235 1.400 . S
C7236 C7239 1.386 . S
H7237 C7253 0.930 . S
H7238 C7254 0.931 . S
C7239 H7227 0.929 . S
C7239 C7233 1.390 . S
C7239 C7236 1.386 . S
C7240 C7235 1.490 . S
C7240 C7242 1.395 . S
C7240 C7243 1.403 . S
H7241 C7247 0.930 . S
C7242 H7228 0.930 . S
C7242 C7240 1.395 . S
C7242 C7245 1.403 . S
C7243 C7240 1.403 . S
C7243 C7244 1.524 . S
C7243 C7247 1.400 . S
C7244 H7229 0.960 . S
C7244 H7230 0.960 . S
C7244 H7231 0.960 . S
C7244 C7243 1.524 . S
C7245 C7242 1.403 . S
C7245 C7246 1.392 . S
C7245 C7249 1.495 . S
C7246 C7245 1.392 . S
C7246 C7247 1.385 . S
C7246 C7248 1.478 . S
C7247 H7241 0.930 . S
C7247 C7243 1.400 . S
C7247 C7246 1.385 . S
C7248 C7246 1.478 . S
C7248 C7250 1.381 . S
C7248 C7254 1.383 . S
C7249 C7245 1.495 . S
C7249 H7255 0.959 . S
C7249 H7256 0.961 . S
C7249 H7257 0.960 . S
C7250 C7248 1.381 . S
C7250 C7251 1.394 . S
C7250 H7258 0.930 . S
C7251 C7250 1.394 . S
C7251 C7252 1.383 . S
C7251 H7259 0.929 . S
C7252 C7251 1.383 . S
C7252 C7253 1.377 . S
C7253 H7237 0.930 . S
C7253 C7252 1.377 . S
C7253 C7254 1.379 . S
C7254 H7238 0.931 . S
C7254 C7248 1.383 . S
C7254 C7253 1.379 . S
H7255 C7249 0.959 . S
H7256 C7249 0.961 . S
H7257 C7249 0.960 . S
H7258 C7250 0.930 . S
H7259 C7251 0.929 . S
H7260 C7268 0.929 . S
H7261 C7270 0.930 . S
H7262 C7272 0.930 . S
H7263 C7275 0.929 . S
H7264 C7278 0.930 . S
H7265 C7280 0.960 . S
H7266 C7280 0.960 . S
H7267 C7280 0.960 . S
C7268 H7260 0.929 . S
C7268 C7269 1.377 . S
C7268 C7270 1.384 . S
C7269 C7268 1.377 . S
C7269 C7275 1.390 . S
C7270 H7261 0.930 . S
C7270 C7268 1.384 . S
C7270 C7271 1.372 . S
C7271 C7270 1.372 . S
C7271 C7272 1.400 . S
C7271 C7276 1.490 . S
C7272 H7262 0.930 . S
C7272 C7271 1.400 . S
C7272 C7275 1.386 . S
H7273 C7289 0.930 . S
H7274 C7290 0.931 . S
C7275 H7263 0.929 . S
C7275 C7269 1.390 . S
C7275 C7272 1.386 . S
C7276 C7271 1.490 . S
C7276 C7278 1.395 . S
C7276 C7279 1.403 . S
H7277 C7283 0.930 . S
C7278 H7264 0.930 . S
C7278 C7276 1.395 . S
C7278 C7281 1.403 . S
C7279 C7276 1.403 . S
C7279 C7280 1.524 . S
C7279 C7283 1.400 . S
C7280 H7265 0.960 . S
C7280 H7266 0.960 . S
C7280 H7267 0.960 . S
C7280 C7279 1.524 . S
C7281 C7278 1.403 . S
C7281 C7282 1.392 . S
C7281 C7285 1.495 . S
C7282 C7281 1.392 . S
C7282 C7283 1.385 . S
C7282 C7284 1.478 . S
C7283 H7277 0.930 . S
C7283 C7279 1.400 . S
C7283 C7282 1.385 . S
C7284 C7282 1.478 . S
C7284 C7286 1.381 . S
C7284 C7290 1.383 . S
C7285 C7281 1.495 . S
C7285 H7291 0.959 . S
C7285 H7292 0.961 . S
C7285 H7293 0.960 . S
C7286 C7284 1.381 . S
C7286 C7287 1.394 . S
C7286 H7294 0.930 . S
C7287 C7286 1.394 . S
C7287 C7288 1.383 . S
C7287 H7295 0.929 . S
C7288 C7287 1.383 . S
C7288 C7289 1.377 . S
C7289 H7273 0.930 . S
C7289 C7288 1.377 . S
C7289 C7290 1.379 . S
C7290 H7274 0.931 . S
C7290 C7284 1.383 . S
C7290 C7289 1.379 . S
H7291 C7285 0.959 . S
H7292 C7285 0.961 . S
H7293 C7285 0.960 . S
H7294 C7286 0.930 . S
H7295 C7287 0.929 . S
H7296 C7304 0.929 . S
H7297 C7306 0.930 . S
H7298 C7308 0.930 . S
H7299 C7311 0.929 . S
H7300 C7314 0.930 . S
H7301 C7316 0.960 . S
H7302 C7316 0.960 . S
H7303 C7316 0.960 . S
C7304 H7296 0.929 . S
C7304 C7305 1.377 . S
C7304 C7306 1.384 . S
C7305 C7304 1.377 . S
C7305 C7311 1.390 . S
C7306 H7297 0.930 . S
C7306 C7304 1.384 . S
C7306 C7307 1.372 . S
C7307 C7306 1.372 . S
C7307 C7308 1.400 . S
C7307 C7312 1.490 . S
C7308 H7298 0.930 . S
C7308 C7307 1.400 . S
C7308 C7311 1.386 . S
H7309 C7325 0.930 . S
H7310 C7326 0.931 . S
C7311 H7299 0.929 . S
C7311 C7305 1.390 . S
C7311 C7308 1.386 . S
C7312 C7307 1.490 . S
C7312 C7314 1.395 . S
C7312 C7315 1.403 . S
H7313 C7319 0.930 . S
C7314 H7300 0.930 . S
C7314 C7312 1.395 . S
C7314 C7317 1.403 . S
C7315 C7312 1.403 . S
C7315 C7316 1.524 . S
C7315 C7319 1.400 . S
C7316 H7301 0.960 . S
C7316 H7302 0.960 . S
C7316 H7303 0.960 . S
C7316 C7315 1.524 . S
C7317 C7314 1.403 . S
C7317 C7318 1.392 . S
C7317 C7321 1.495 . S
C7318 C7317 1.392 . S
C7318 C7319 1.385 . S
C7318 C7320 1.478 . S
C7319 H7313 0.930 . S
C7319 C7315 1.400 . S
C7319 C7318 1.385 . S
C7320 C7318 1.478 . S
C7320 C7322 1.381 . S
C7320 C7326 1.383 . S
C7321 C7317 1.495 . S
C7321 H7327 0.959 . S
C7321 H7328 0.961 . S
C7321 H7329 0.960 . S
C7322 C7320 1.381 . S
C7322 C7323 1.394 . S
C7322 H7330 0.930 . S
C7323 C7322 1.394 . S
C7323 C7324 1.383 . S
C7323 H7331 0.929 . S
C7324 C7323 1.383 . S
C7324 C7325 1.377 . S
C7325 H7309 0.930 . S
C7325 C7324 1.377 . S
C7325 C7326 1.379 . S
C7326 H7310 0.931 . S
C7326 C7320 1.383 . S
C7326 C7325 1.379 . S
H7327 C7321 0.959 . S
H7328 C7321 0.961 . S
H7329 C7321 0.960 . S
H7330 C7322 0.930 . S
H7331 C7323 0.929 . S
H7332 C7340 0.929 . S
H7333 C7342 0.929 . S
H7334 C7344 0.930 . S
H7335 C7347 0.929 . S
H7336 C7350 0.930 . S
H7337 C7352 0.960 . S
H7338 C7352 0.960 . S
H7339 C7352 0.960 . S
C7340 H7332 0.929 . S
C7340 C7341 1.377 . S
C7340 C7342 1.384 1_554 S
C7341 C7340 1.377 . S
C7341 C7347 1.390 . S
C7342 H7333 0.929 . S
C7342 C7340 1.384 1_556 S
C7342 C7343 1.372 1_556 S
C7343 C7342 1.372 1_554 S
C7343 C7344 1.400 . S
C7343 C7348 1.490 1_554 S
C7344 H7334 0.930 . S
C7344 C7343 1.400 . S
C7344 C7347 1.386 . S
H7345 C7361 0.930 . S
H7346 C7362 0.931 . S
C7347 H7335 0.929 . S
C7347 C7341 1.390 . S
C7347 C7344 1.386 . S
C7348 C7343 1.490 1_556 S
C7348 C7350 1.395 . S
C7348 C7351 1.403 . S
H7349 C7355 0.930 . S
C7350 H7336 0.930 . S
C7350 C7348 1.395 . S
C7350 C7353 1.403 . S
C7351 C7348 1.403 . S
C7351 C7352 1.524 1_556 S
C7351 C7355 1.400 . S
C7352 H7337 0.960 . S
C7352 H7338 0.960 . S
C7352 H7339 0.960 . S
C7352 C7351 1.524 1_554 S
C7353 C7350 1.403 . S
C7353 C7354 1.392 . S
C7353 C7357 1.495 . S
C7354 C7353 1.392 . S
C7354 C7355 1.385 . S
C7354 C7356 1.478 . S
C7355 H7349 0.930 . S
C7355 C7351 1.400 . S
C7355 C7354 1.385 . S
C7356 C7354 1.478 . S
C7356 C7358 1.381 . S
C7356 C7362 1.383 . S
C7357 C7353 1.495 . S
C7357 H7363 0.959 . S
C7357 H7364 0.961 . S
C7357 H7365 0.960 . S
C7358 C7356 1.381 . S
C7358 C7359 1.394 . S
C7358 H7366 0.930 . S
C7359 C7358 1.394 . S
C7359 C7360 1.383 . S
C7359 H7367 0.929 . S
C7360 C7359 1.383 . S
C7360 C7361 1.377 . S
C7361 H7345 0.930 . S
C7361 C7360 1.377 . S
C7361 C7362 1.379 . S
C7362 H7346 0.931 . S
C7362 C7356 1.383 . S
C7362 C7361 1.379 . S
H7363 C7357 0.959 . S
H7364 C7357 0.961 . S
H7365 C7357 0.960 . S
H7366 C7358 0.930 . S
H7367 C7359 0.929 . S
H7368 C7376 0.929 . S
H7369 C7378 0.930 . S
H7370 C7380 0.930 . S
H7371 C7383 0.929 . S
H7372 C7386 0.930 . S
H7373 C7388 0.960 . S
H7374 C7388 0.960 . S
H7375 C7388 0.960 . S
C7376 H7368 0.929 . S
C7376 C7377 1.377 . S
C7376 C7378 1.384 . S
C7377 C7376 1.377 . S
C7377 C7383 1.390 . S
C7378 H7369 0.930 . S
C7378 C7376 1.384 . S
C7378 C7379 1.372 . S
C7379 C7378 1.372 . S
C7379 C7380 1.400 . S
C7379 C7384 1.490 . S
C7380 H7370 0.930 . S
C7380 C7379 1.400 . S
C7380 C7383 1.386 . S
H7381 C7397 0.930 . S
H7382 C7398 0.931 . S
C7383 H7371 0.929 . S
C7383 C7377 1.390 . S
C7383 C7380 1.386 . S
C7384 C7379 1.490 . S
C7384 C7386 1.395 . S
C7384 C7387 1.403 . S
H7385 C7391 0.930 1_554 S
C7386 H7372 0.930 . S
C7386 C7384 1.395 . S
C7386 C7389 1.403 . S
C7387 C7384 1.403 . S
C7387 C7388 1.524 . S
C7387 C7391 1.400 . S
C7388 H7373 0.960 . S
C7388 H7374 0.960 . S
C7388 H7375 0.960 . S
C7388 C7387 1.524 . S
C7389 C7386 1.403 . S
C7389 C7390 1.392 . S
C7389 C7393 1.495 . S
C7390 C7389 1.392 . S
C7390 C7391 1.385 . S
C7390 C7392 1.478 1_556 S
C7391 H7385 0.930 1_556 S
C7391 C7387 1.400 . S
C7391 C7390 1.385 . S
C7392 C7390 1.478 1_554 S
C7392 C7394 1.381 1_554 S
C7392 C7398 1.383 . S
C7393 C7389 1.495 . S
C7393 H7399 0.959 . S
C7393 H7400 0.961 . S
C7393 H7401 0.960 . S
C7394 C7392 1.381 1_556 S
C7394 C7395 1.394 1_556 S
C7394 H7402 0.930 . S
C7395 C7394 1.394 1_554 S
C7395 C7396 1.383 . S
C7395 H7403 0.929 . S
C7396 C7395 1.383 . S
C7396 C7397 1.377 . S
C7397 H7381 0.930 . S
C7397 C7396 1.377 . S
C7397 C7398 1.379 . S
C7398 H7382 0.931 . S
C7398 C7392 1.383 . S
C7398 C7397 1.379 . S
H7399 C7393 0.959 . S
H7400 C7393 0.961 . S
H7401 C7393 0.960 . S
H7402 C7394 0.930 . S
H7403 C7395 0.929 . S
H7404 C7412 0.929 . S
H7405 C7414 0.930 . S
H7406 C7416 0.930 . S
H7407 C7419 0.929 . S
H7408 C7422 0.930 . S
H7409 C7424 0.960 . S
H7410 C7424 0.960 . S
H7411 C7424 0.960 . S
C7412 H7404 0.929 . S
C7412 C7413 1.377 . S
C7412 C7414 1.384 . S
C7413 C7412 1.377 . S
C7413 C7419 1.390 . S
C7414 H7405 0.930 . S
C7414 C7412 1.384 . S
C7414 C7415 1.372 . S
C7415 C7414 1.372 . S
C7415 C7416 1.400 . S
C7415 C7420 1.490 . S
C7416 H7406 0.930 . S
C7416 C7415 1.400 . S
C7416 C7419 1.386 . S
H7417 C7433 0.930 . S
H7418 C7434 0.931 . S
C7419 H7407 0.929 . S
C7419 C7413 1.390 . S
C7419 C7416 1.386 . S
C7420 C7415 1.490 . S
C7420 C7422 1.395 . S
C7420 C7423 1.403 . S
H7421 C7427 0.930 . S
C7422 H7408 0.930 . S
C7422 C7420 1.395 . S
C7422 C7425 1.403 1_556 S
C7423 C7420 1.403 . S
C7423 C7424 1.524 . S
C7423 C7427 1.400 . S
C7424 H7409 0.960 . S
C7424 H7410 0.960 . S
C7424 H7411 0.960 . S
C7424 C7423 1.524 . S
C7425 C7422 1.403 1_554 S
C7425 C7426 1.392 1_554 S
C7425 C7429 1.495 . S
C7426 C7425 1.392 1_556 S
C7426 C7427 1.385 . S
C7426 C7428 1.478 1_556 S
C7427 H7421 0.930 . S
C7427 C7423 1.400 . S
C7427 C7426 1.385 . S
C7428 C7426 1.478 1_554 S
C7428 C7430 1.381 . S
C7428 C7434 1.383 . S
C7429 C7425 1.495 . S
C7429 H7435 0.959 . S
C7429 H7436 0.961 . S
C7429 H7437 0.960 . S
C7430 C7428 1.381 . S
C7430 C7431 1.394 . S
C7430 H7438 0.930 . S
C7431 C7430 1.394 . S
C7431 C7432 1.383 . S
C7431 H7439 0.929 . S
C7432 C7431 1.383 . S
C7432 C7433 1.377 . S
C7433 H7417 0.930 . S
C7433 C7432 1.377 . S
C7433 C7434 1.379 . S
C7434 H7418 0.931 . S
C7434 C7428 1.383 . S
C7434 C7433 1.379 . S
H7435 C7429 0.959 . S
H7436 C7429 0.961 . S
H7437 C7429 0.960 . S
H7438 C7430 0.930 . S
H7439 C7431 0.929 . S
C1401 C5 2.653 . S
C1420 C643 2.675 . S
C1437 C469 2.661 . S
C1456 C34 2.635 . S
C1473 C63 2.660 . S
C1492 C672 2.650 . S
C1509 C92 2.657 . S
C1528 C614 2.635 . S
C1545 C121 2.660 . S
C1564 C527 2.629 . S
C1581 C556 2.658 . S
C1600 C150 2.664 . S
C1617 C585 2.661 . S
C1636 C179 2.630 . S
C1653 C498 2.660 . S
C1672 C208 2.629 . S
C1689 C237 2.654 . S
C1708 C382 2.674 . S
C1725 C266 2.660 . S
C1744 C411 2.651 . S
C1761 C295 2.661 . S
C1780 C440 2.635 . S
C1797 C353 2.653 . S
C1816 C324 2.675 . S
C1833 C701 2.652 . S
C1852 C1339 2.630 . S
C1869 C730 2.652 . S
C1888 C1165 2.630 . S
C1905 C759 2.661 . S
C1924 C1368 2.674 . S
C1941 C788 2.661 . S
C1960 C1310 2.674 . S
C1977 C1223 2.658 . S
C1996 C817 2.655 . S
C2013 C1252 2.661 . S
C2032 C846 2.675 . S
C2049 C1281 2.659 . S
C2068 C875 2.670 . S
C2085 C904 2.653 . S
C2104 C1194 2.638 . S
C2121 C1078 2.655 . S
C2140 C933 2.648 . S
C2157 C962 2.656 . S
C2176 C1107 2.656 . S
C2193 C1136 2.661 . S
C2212 C991 2.674 . S
C2229 C1020 2.658 . S
C2248 C1049 2.655 . S
C2265 C21 1.763 . S
C2284 C1315 1.818 . S
C2301 C50 1.763 . S
C2320 C1344 1.819 . S
C2337 C1170 1.807 . S
C2356 C79 1.762 . S
C2373 C108 1.766 . S
C2392 C1373 1.812 . S
C2409 C1257 1.810 . S
C2428 C137 1.773 . S
C2445 C166 1.759 . S
C2464 C1286 1.812 . S
C2481 C195 1.765 . S
C2500 C1199 1.793 . S
C2517 C224 1.759 . S
C2536 C1228 1.812 . S
C2553 C822 1.809 . S
C2572 C253 1.743 . S
C2589 C851 1.807 . S
C2608 C282 1.778 . S
C2625 C311 1.766 . S
C2644 C880 1.811 . S
C2661 C909 1.806 . S
C2680 C340 1.773 . S
C2697 C369 1.759 . S
C2716 C706 1.814 . S
C2733 C735 1.810 . S
C2752 C398 1.775 . S
C2769 C427 1.759 . S
C2788 C764 1.811 . S
C2805 C793 1.811 . S
C2824 C456 1.764 . S
C2841 C1112 1.807 . S
C2860 C485 1.778 . S
C2877 C514 1.764 . S
C2896 C996 1.816 . S
C2913 C543 1.768 . S
C2932 C1025 1.800 . S
C2949 C572 1.769 . S
C2968 C938 1.797 . S
C2985 C601 1.768 . S
C3004 C967 1.803 . S
C3021 C1054 1.812 . S
C3040 C630 1.748 . S
C3057 C659 1.768 . S
C3076 C1083 1.796 . S
C3093 C1141 1.806 . S
C3112 C688 1.775 . S
C3129 C619 1.811 . S
C3148 C717 1.739 . S
C3165 C648 1.810 . S
C3184 C746 1.778 . S
C3201 C474 1.812 . S
C3220 C775 1.743 . S
C3237 C804 1.759 . S
C3256 C677 1.814 . S
C3273 C833 1.759 . S
C3292 C561 1.809 . S
C3309 C590 1.811 . S
C3328 C862 1.769 . S
C3345 C891 1.766 . S
C3364 C503 1.814 . S
C3381 C532 1.812 . S
C3400 C920 1.757 . S
C3417 C949 1.768 . S
C3436 C126 1.793 . S
C3453 C155 1.812 . S
C3472 C978 1.750 . S
C3489 C1007 1.764 . S
C3508 C184 1.793 . S
C3525 C1036 1.765 . S
C3544 C213 1.792 . S
C3561 C10 1.807 . S
C3580 C1065 1.777 . S
C3597 C1094 1.769 . S
C3616 C39 1.801 . S
C3633 C68 1.806 . S
C3652 C1123 1.764 . S
C3669 C1152 1.767 . S
C3688 C97 1.812 . S
C3705 C1181 1.763 . S
C3724 C416 1.794 . S
C3741 C300 1.811 . S
C3760 C1210 1.737 . S
C3777 C1239 1.768 . S
C3796 C329 1.806 . S
C3813 C242 1.812 . S
C3832 C1268 1.743 . S
C3849 C1297 1.764 . S
C3868 C271 1.793 . S
C3885 C358 1.812 . S
C3904 C1326 1.742 . S
C3921 C387 1.812 . S
C3940 C1355 1.743 . S
C3957 C445 1.812 . S
C3976 C1384 1.741 . S
C3993 C3 1.751 . S
C4012 C680 1.466 . S
C4029 C622 1.493 . S
C4048 C32 1.753 . S
C4065 C651 1.501 . S
C4084 C61 1.745 . S
C4101 C477 1.498 . S
C4120 C90 1.748 . S
C4137 C119 1.748 . S
C4156 C593 1.541 . S
C4173 C148 1.750 . S
C4192 C506 1.488 . S
C4209 C177 1.749 . S
C4228 C535 1.531 . S
C4245 C564 1.511 . S
C4264 C206 1.739 . S
C4281 C332 1.505 . S
C4300 C235 1.742 . S
C4317 C245 1.508 . S
C4336 C264 1.742 . S
C4353 C293 1.750 . S
C4372 C274 1.467 . S
C4389 C303 1.501 . S
C4408 C322 1.745 . S
C4425 C351 1.750 . S
C4444 C390 1.467 . S
C4461 C380 1.751 . S
C4480 C419 1.466 . S
C4497 C409 1.748 . S
C4516 C448 1.537 . S
C4533 C438 1.751 . S
C4552 C361 1.457 . S
C4569 C467 1.748 . S
C4588 C158 1.530 . S
C4605 C100 1.509 . S
C4624 C496 1.740 . S
C4641 C13 1.502 . S
C4660 C525 1.745 . S
C4677 C554 1.749 . S
C4696 C42 1.538 . S
C4713 C71 1.492 . S
C4732 C583 1.753 . S
C4749 C216 1.495 . S
C4768 C612 1.752 . S
C4785 C641 1.751 . S
C4804 C129 1.461 . S
C4821 C187 1.502 . S
C4840 C670 1.747 . S
C4857 C699 1.748 . S
C4876 C1376 1.460 . S
C4893 C728 1.748 . S
C4912 C1318 1.469 . S
C4929 C1347 1.511 . S
C4948 C757 1.749 . S
C4965 C1173 1.510 . S
C4984 C786 1.746 . S
C5001 C815 1.751 . S
C5020 C1289 1.526 . S
C5037 C1202 1.495 . S
C5056 C844 1.740 . S
C5073 C873 1.751 . S
C5092 C1231 1.538 . S
C5109 C1260 1.493 . S
C5128 C902 1.745 . S
C5145 C931 1.751 . S
C5164 C1028 1.538 . S
C5181 C941 1.498 . S
C5200 C960 1.739 . S
C5217 C989 1.751 . S
C5236 C970 1.477 . S
C5253 C999 1.495 . S
C5272 C1018 1.748 . S
C5289 C1047 1.748 . S
C5308 C1086 1.493 . S
C5325 C1115 1.493 . S
C5344 C1076 1.745 . S
C5361 C1144 1.511 . S
C5380 C1105 1.746 . S
C5397 C1057 1.499 . S
C5416 C1134 1.739 . S
C5433 C854 1.502 . S
C5452 C1163 1.753 . S
C5469 C796 1.511 . S
C5488 C1192 1.748 . S
C5505 C709 1.504 . S
C5524 C1221 1.753 . S
C5541 C738 1.511 . S
C5560 C1250 1.749 . S
C5577 C767 1.507 . S
C5596 C1279 1.742 . S
C5613 C1308 1.751 . S
C5632 C912 1.533 . S
C5649 C1337 1.751 . S
C5668 C825 1.477 . S
C5685 C883 1.501 . S
C5704 C1366 1.752 . S
C5721 C1023 0.776 . S
C5740 C15 0.815 . S
C5757 C936 0.765 . S
C5776 C44 0.752 . S
C5793 C965 0.778 . S
C5812 C73 0.817 . S
C5829 C102 0.791 . S
C5848 C994 0.849 . S
C5865 C131 0.790 . S
C5884 C1081 0.740 . S
C5901 C160 0.790 . S
C5920 C1110 0.849 . S
C5937 C189 0.784 . S
C5956 C1139 0.818 . S
C5973 C1052 0.791 . S
C5992 C218 0.812 . S
C6009 C849 0.791 . S
C6028 C247 0.805 . S
C6045 C276 0.780 . S
C6064 C878 0.719 . S
C6081 C907 0.791 . S
C6100 C305 0.805 . S
C6117 C334 0.791 . S
C6136 C820 0.849 . S
C6153 C363 0.780 . S
C6172 C791 0.712 . S
C6189 C392 0.781 . S
C6208 C704 0.701 . S
C6225 C733 0.781 . S
C6244 C421 0.768 . S
C6261 C762 0.781 . S
C6280 C450 0.819 . S
C6297 C479 0.787 . S
C6316 C1371 0.839 . S
C6333 C1284 0.767 . S
C6352 C508 0.800 . S
C6369 C537 0.792 . S
C6388 C1197 0.845 . S
C6405 C1226 0.790 . S
C6424 C566 0.814 . S
C6441 C1255 0.776 . S
C6460 C595 0.759 . S
C6477 C624 0.786 . S
C6496 C1342 0.831 . S
C6513 C1168 0.791 . S
C6532 C653 0.803 . S
C6549 C682 0.789 . S
C6568 C1313 0.731 . S
C6585 C327 0.768 . S
C6604 C711 0.808 . S
C6621 C740 0.780 . S
C6640 C240 0.786 . S
C6657 C769 0.790 . S
C6676 C269 0.849 . S
C6693 C298 0.782 . S
C6712 C798 0.763 . S
C6729 C827 0.787 . S
C6748 C385 0.707 . S
C6765 C414 0.791 . S
C6784 C856 0.795 . S
C6801 C443 0.785 . S
C6820 C885 0.819 . S
C6837 C356 0.774 . S
C6856 C914 0.754 . S
C6873 C943 0.794 . S
C6892 C153 0.819 . S
C6909 C182 0.760 . S
C6928 C972 0.781 . S
C6945 C211 0.790 . S
C6964 C1001 0.811 . S
C6981 C124 0.791 . S
C7000 C1030 0.798 . S
C7017 C95 0.790 . S
C7036 C1059 0.812 . S
C7053 C8 0.764 . S
C7072 C1088 0.755 . S
C7089 C37 0.767 . S
C7108 C1117 0.807 . S
C7125 C1146 0.779 . S
C7144 C66 0.754 . S
C7161 C675 0.762 . S
C7180 C1175 0.759 . S
C7197 C1204 0.781 . S
C7216 C588 0.791 . S
C7233 C1233 0.784 . S
C7252 C501 0.828 . S
C7269 C1262 0.780 . S
C7288 C530 0.735 . S
C7305 C1291 0.793 . S
C7324 C559 0.825 . S
C7341 C646 0.767 . S
C7360 C1320 0.752 . S
C7377 C1349 0.780 . S
C7396 C472 0.780 . S
C7413 C1378 0.787 . S
C7432 C617 0.704 . S
