# Generated by pormake.
# Topology umy, (4)-cn, num edge types: 1
# Building blocks:
#     Node 0, Type 0, BuildingBlock: UXUYUI_clean_sbu_0, # of connection points: 4
#     Node 1, Type 0, BuildingBlock: UXUYUI_clean_sbu_0, # of connection points: 4
#     Node 2, Type 0, BuildingBlock: UXUYUI_clean_sbu_0, # of connection points: 4
#     Node 3, Type 0, BuildingBlock: UXUYUI_clean_sbu_0, # of connection points: 4
#     Node 4, Type 0, BuildingBlock: UXUYUI_clean_sbu_0, # of connection points: 4
#     Node 5, Type 0, BuildingBlock: UXUYUI_clean_sbu_0, # of connection points: 4
#     Node 6, Type 0, BuildingBlock: UXUYUI_clean_sbu_0, # of connection points: 4
#     Node 7, Type 0, BuildingBlock: UXUYUI_clean_sbu_0, # of connection points: 4
#     Node 8, Type 0, BuildingBlock: UXUYUI_clean_sbu_0, # of connection points: 4
#     Node 9, Type 0, BuildingBlock: UXUYUI_clean_sbu_0, # of connection points: 4
#     Node 10, Type 0, BuildingBlock: UXUYUI_clean_sbu_0, # of connection points: 4
#     Node 11, Type 0, BuildingBlock: UXUYUI_clean_sbu_0, # of connection points: 4
#     Edge 12, Type (0, 0), BuildingBlock: OJICUG_clean_linker_0, # of connection points: 2
#     Edge 13, Type (0, 0), BuildingBlock: OJICUG_clean_linker_0, # of connection points: 2
#     Edge 14, Type (0, 0), BuildingBlock: OJICUG_clean_linker_0, # of connection points: 2
#     Edge 15, Type (0, 0), BuildingBlock: OJICUG_clean_linker_0, # of connection points: 2
#     Edge 16, Type (0, 0), BuildingBlock: OJICUG_clean_linker_0, # of connection points: 2
#     Edge 17, Type (0, 0), BuildingBlock: OJICUG_clean_linker_0, # of connection points: 2
#     Edge 18, Type (0, 0), BuildingBlock: OJICUG_clean_linker_0, # of connection points: 2
#     Edge 19, Type (0, 0), BuildingBlock: OJICUG_clean_linker_0, # of connection points: 2
#     Edge 20, Type (0, 0), BuildingBlock: OJICUG_clean_linker_0, # of connection points: 2
#     Edge 21, Type (0, 0), BuildingBlock: OJICUG_clean_linker_0, # of connection points: 2
#     Edge 22, Type (0, 0), BuildingBlock: OJICUG_clean_linker_0, # of connection points: 2
#     Edge 23, Type (0, 0), BuildingBlock: OJICUG_clean_linker_0, # of connection points: 2
#     Edge 24, Type (0, 0), BuildingBlock: OJICUG_clean_linker_0, # of connection points: 2
#     Edge 25, Type (0, 0), BuildingBlock: OJICUG_clean_linker_0, # of connection points: 2
#     Edge 26, Type (0, 0), BuildingBlock: OJICUG_clean_linker_0, # of connection points: 2
#     Edge 27, Type (0, 0), BuildingBlock: OJICUG_clean_linker_0, # of connection points: 2
#     Edge 28, Type (0, 0), BuildingBlock: OJICUG_clean_linker_0, # of connection points: 2
#     Edge 29, Type (0, 0), BuildingBlock: OJICUG_clean_linker_0, # of connection points: 2
#     Edge 30, Type (0, 0), BuildingBlock: OJICUG_clean_linker_0, # of connection points: 2
#     Edge 31, Type (0, 0), BuildingBlock: OJICUG_clean_linker_0, # of connection points: 2
#     Edge 32, Type (0, 0), BuildingBlock: OJICUG_clean_linker_0, # of connection points: 2
#     Edge 33, Type (0, 0), BuildingBlock: OJICUG_clean_linker_0, # of connection points: 2
#     Edge 34, Type (0, 0), BuildingBlock: OJICUG_clean_linker_0, # of connection points: 2
#     Edge 35, Type (0, 0), BuildingBlock: OJICUG_clean_linker_0, # of connection points: 2
# Relax obj value: 0.205
# Max RMSD: 0.156
# Mean RMSD: 0.156
data_MOF--net-umy--node1-UXUYUI_clean_sbu_0--edge1-OJICUG_clean_linker_0
_symmetry_space_group_name_H-M    P1
_symmetry_Int_Tables_number       1
_symmetry_cell_setting            triclinic
loop_
_symmetry_equiv_pos_as_xyz
'x, y, z'
_cell_length_a     47.967053
_cell_length_b     47.989498
_cell_length_c     54.310974
_cell_angle_alpha  90.018756
_cell_angle_beta   89.996365
_cell_angle_gamma 119.98056
loop_
_atom_site_label
_atom_site_type_symbol
_atom_site_fract_x
_atom_site_fract_y
_atom_site_fract_z
_atom_type_partial_charge
Li0 Li 0.08414 0.3374 0.08925 0.0
Li1 Li 0.09261 0.35425 0.13322 0.0
Li2 Li 0.03968 0.32344 0.1168 0.0
Li3 Li 0.07084 0.37868 0.10523 0.0
C4 C 0.05342 0.27776 0.11969 0.0
N5 N 0.0118 0.2121 0.12104 0.0
C6 C 0.04847 0.26083 0.14169 0.0
C7 C 0.03735 0.26127 0.09834 0.0
C8 C 0.02727 0.22764 0.142 0.0
C9 C 0.0164 0.22808 0.0994 0.0
C10 C 0.14491 0.38857 0.09987 0.0
C11 C 0.19866 0.42426 0.08507 0.0
N12 N 0.2073 0.4022 0.09144 0.0
C13 C 0.15432 0.36625 0.10629 0.0
C14 C 0.16722 0.4178 0.08917 0.0
C15 C 0.18596 0.37359 0.10187 0.0
C16 C 0.11167 0.34195 0.04145 0.0
N17 N 0.10328 0.32581 0.06323 0.0
C18 C 0.12982 0.29675 0.05201 0.0
C19 C 0.11174 0.30337 0.06861 0.0
C20 C 0.13956 0.31345 0.02955 0.0
C21 C 0.12989 0.33608 0.02421 0.0
H22 H 0.10514 0.36013 0.03783 0.0
H23 H 0.10572 0.2916 0.08634 0.0
C24 C 0.10225 0.3401 0.18076 0.0
N25 N 0.11785 0.36087 0.16204 0.0
C26 C 0.11851 0.3416 0.20243 0.0
C27 C 0.16637 0.38692 0.18566 0.0
C28 C 0.14907 0.38462 0.16432 0.0
C29 C 0.15122 0.36486 0.20494 0.0
H30 H 0.07708 0.32231 0.17879 0.0
H31 H 0.16071 0.40167 0.14957 0.0
C32 C 0.0164 0.32958 0.0721 0.0
N33 N 0.95658 0.30505 0.05047 0.0
C34 C 0.99449 0.33828 0.08104 0.0
C35 C 0.00803 0.30861 0.05208 0.0
C36 C 0.96431 0.32554 0.06989 0.0
C37 C 0.97763 0.29642 0.04141 0.0
C38 C 0.06485 0.38587 0.15504 0.0
C39 C 0.04393 0.38345 0.17389 0.0
C40 C 0.09498 0.41371 0.15299 0.0
C41 C 0.05348 0.40898 0.19039 0.0
C42 C 0.10363 0.4387 0.16985 0.0
N43 N 0.08287 0.43584 0.18804 0.0
C44 C 0.99508 0.28931 0.15244 0.0
C45 C 0.97319 0.26889 0.11308 0.0
C46 C 0.96686 0.26632 0.16383 0.0
N47 N 0.99776 0.29042 0.12752 0.0
C48 C 0.94423 0.24559 0.12374 0.0
C49 C 0.9407 0.24416 0.14951 0.0
H50 H 0.01525 0.30607 0.16355 0.0
H51 H 0.97605 0.26939 0.09335 0.0
C52 C 0.09137 0.43927 0.08223 0.0
N53 N 0.06972 0.41706 0.09806 0.0
C54 C 0.09152 0.46812 0.07804 0.0
C55 C 0.04709 0.45057 0.10648 0.0
C56 C 0.04758 0.422 0.1099 0.0
C57 C 0.06936 0.47416 0.09047 0.0
H58 H 0.10869 0.4347 0.07305 0.0
H59 H 0.03046 0.40387 0.12226 0.0
O60 O 0.07327 0.31043 0.11907 0.0
O61 O 0.11384 0.3816 0.10343 0.0
O62 O 0.04606 0.3418 0.08267 0.0
O63 O 0.05567 0.36094 0.13881 0.0
H64 H 0.06075 0.27311 0.15836 0.0
H65 H 0.04067 0.27407 0.0812 0.0
H66 H 0.0231 0.21424 0.15893 0.0
H67 H 0.00366 0.21506 0.08305 0.0
H68 H 0.21619 0.4468 0.07678 0.0
H69 H 0.13742 0.34353 0.11465 0.0
H70 H 0.16031 0.4353 0.08402 0.0
H71 H 0.19355 0.35653 0.10673 0.0
H72 H 0.13731 0.27973 0.05729 0.0
H73 H 0.13675 0.34946 0.00711 0.0
H74 H 0.10555 0.32472 0.21708 0.0
H75 H 0.19151 0.40529 0.18679 0.0
H76 H 1.00059 0.35435 0.0966 0.0
H77 H 0.02484 0.30178 0.04491 0.0
H78 H 0.94702 0.33189 0.07669 0.0
H79 H 0.97075 0.28009 0.02594 0.0
H80 H 0.02052 0.36208 0.17572 0.0
H81 H 0.11155 0.41614 0.13856 0.0
H82 H 0.0375 0.40744 0.20505 0.0
H83 H 0.12685 0.46038 0.16847 0.0
H84 H 0.96589 0.26566 0.18375 0.0
H85 H 0.92482 0.22906 0.11189 0.0
H86 H 0.10919 0.48577 0.06563 0.0
H87 H 0.02931 0.45406 0.11613 0.0
Li88 Li 0.74991 0.08454 0.25933 0.0
Li89 Li 0.73972 0.09151 0.30303 0.0
Li90 Li 0.71995 0.0391 0.28589 0.0
Li91 Li 0.69418 0.06861 0.27376 0.0
C92 C 0.78038 0.05539 0.28836 0.0
N93 N 0.80762 0.01651 0.28659 0.0
C94 C 0.79222 0.04894 0.30982 0.0
C95 C 0.78243 0.04209 0.26599 0.0
C96 C 0.80589 0.0292 0.30854 0.0
C97 C 0.7963 0.02251 0.26548 0.0
C98 C 0.75559 0.14369 0.26859 0.0
C99 C 0.77105 0.19406 0.24831 0.0
N100 N 0.80136 0.20638 0.25743 0.0
C101 C 0.78689 0.15686 0.27778 0.0
C102 C 0.74757 0.16241 0.25372 0.0
C103 C 0.80968 0.18859 0.27193 0.0
C104 C 0.77397 0.11006 0.21097 0.0
N105 N 0.78156 0.10585 0.2343 0.0
C106 C 0.83748 0.14131 0.22668 0.0
C107 C 0.81262 0.12035 0.24211 0.0
C108 C 0.83038 0.14705 0.20284 0.0
C109 C 0.79832 0.13054 0.19467 0.0
H110 H 0.74901 0.09861 0.20538 0.0
H111 H 0.81797 0.11692 0.26083 0.0
C112 C 0.76564 0.10348 0.3502 0.0
N113 N 0.75655 0.11671 0.33205 0.0
C114 C 0.77906 0.12038 0.37194 0.0
C115 C 0.77236 0.16385 0.35633 0.0
C116 C 0.75903 0.14603 0.33486 0.0
C117 C 0.78286 0.15115 0.37514 0.0
H118 H 0.7625 0.07974 0.34772 0.0
H119 H 0.75072 0.15565 0.32045 0.0
C120 C 0.69106 0.0157 0.24122 0.0
N121 N 0.65552 0.95543 0.22039 0.0
C122 C 0.66078 0.99386 0.2507 0.0
C123 C 0.70324 0.00703 0.22109 0.0
C124 C 0.6432 0.96345 0.23994 0.0
C125 C 0.68489 0.9764 0.21083 0.0
C126 C 0.67954 0.06121 0.32368 0.0
C127 C 0.66187 0.0399 0.34259 0.0
C128 C 0.67981 0.09039 0.32151 0.0
C129 C 0.6447 0.0481 0.35901 0.0
C130 C 0.66234 0.09771 0.3383 0.0
N131 N 0.6453 0.0766 0.35654 0.0
C132 C 0.70843 0.99365 0.32095 0.0
C133 C 0.71121 0.97392 0.28159 0.0
C134 C 0.70236 0.96497 0.33198 0.0
N135 N 0.71221 0.9975 0.29618 0.0
C136 C 0.70498 0.94458 0.2919 0.0
C137 C 0.70004 0.93968 0.31744 0.0
H138 H 0.7104 0.01312 0.33222 0.0
H139 H 0.71529 0.97777 0.26203 0.0
C140 C 0.65295 0.08539 0.24784 0.0
N141 N 0.65413 0.06595 0.26549 0.0
C142 C 0.62406 0.08487 0.24288 0.0
C143 C 0.59818 0.04417 0.27422 0.0
C144 C 0.62734 0.04506 0.27822 0.0
C145 C 0.59614 0.06436 0.25642 0.0
H146 H 0.67449 0.10142 0.2377 0.0
H147 H 0.62867 0.02942 0.29189 0.0
O148 O 0.76589 0.07375 0.28925 0.0
O149 O 0.73314 0.11235 0.27347 0.0
O150 O 0.70871 0.0455 0.25151 0.0
O151 O 0.69653 0.0534 0.30756 0.0
H152 H 0.79081 0.05891 0.3273 0.0
H153 H 0.77295 0.04641 0.24926 0.0
H154 H 0.81508 0.02394 0.32501 0.0
H155 H 0.79788 0.01194 0.24831 0.0
H156 H 0.76518 0.20881 0.2368 0.0
H157 H 0.79361 0.14263 0.28913 0.0
H158 H 0.72351 0.15258 0.24637 0.0
H159 H 0.83402 0.19902 0.27884 0.0
H160 H 0.86198 0.15367 0.23353 0.0
H161 H 0.79209 0.13467 0.1764 0.0
H162 H 0.78696 0.10969 0.38585 0.0
H163 H 0.77425 0.1872 0.35823 0.0
H164 H 0.65117 1.00018 0.26638 0.0
H165 H 0.72666 0.02376 0.21356 0.0
H166 H 0.6198 0.94621 0.24715 0.0
H167 H 0.69402 0.96929 0.19528 0.0
H168 H 0.66134 0.01719 0.34452 0.0
H169 H 0.6932 0.1072 0.307 0.0
H170 H 0.6309 0.03181 0.37371 0.0
H171 H 0.66232 0.12018 0.33681 0.0
H172 H 0.6998 0.96282 0.3518 0.0
H173 H 0.7036 0.92584 0.27998 0.0
H174 H 0.62369 0.10036 0.22856 0.0
H175 H 0.5777 0.02825 0.28545 0.0
Li176 Li 0.66199 0.74437 0.42571 0.0
Li177 Li 0.64886 0.7319 0.46823 0.0
Li178 Li 0.68299 0.71534 0.44953 0.0
Li179 Li 0.62405 0.68758 0.43997 0.0
C180 C 0.72198 0.78074 0.44512 0.0
N181 N 0.78268 0.82287 0.42705 0.0
C182 C 0.74137 0.81022 0.45682 0.0
C183 C 0.73346 0.77278 0.42414 0.0
C184 C 0.77198 0.83117 0.44742 0.0
C185 C 0.76421 0.79437 0.41533 0.0
C186 C 0.59649 0.73314 0.44914 0.0
C187 C 0.54251 0.71689 0.46249 0.0
N188 N 0.55123 0.74831 0.46577 0.0
C189 C 0.60486 0.76527 0.4525 0.0
C190 C 0.56503 0.70872 0.45408 0.0
C191 C 0.58166 0.77245 0.46099 0.0
C192 C 0.66758 0.77179 0.377 0.0
N193 N 0.67053 0.77672 0.40178 0.0
C194 C 0.68341 0.83127 0.3966 0.0
C195 C 0.67884 0.80587 0.41164 0.0
C196 C 0.67972 0.82685 0.37103 0.0
C197 C 0.67237 0.79687 0.36111 0.0
H198 H 0.66096 0.74833 0.36965 0.0
H199 H 0.68143 0.80922 0.43136 0.0
C200 C 0.67178 0.7712 0.50954 0.0
N201 N 0.64377 0.74968 0.49848 0.0
C202 C 0.67147 0.78674 0.53114 0.0
C203 C 0.61336 0.75697 0.5302 0.0
C204 C 0.61482 0.74187 0.50864 0.0
C205 C 0.64198 0.78009 0.54157 0.0
H206 H 0.69447 0.77628 0.50156 0.0
H207 H 0.59279 0.72399 0.50009 0.0
C208 C 0.66245 0.67842 0.40518 0.0
N209 N 0.6628 0.62671 0.38314 0.0
C210 C 0.65428 0.65066 0.41878 0.0
C211 C 0.67076 0.67988 0.38036 0.0
C212 C 0.65459 0.62476 0.40731 0.0
C213 C 0.67084 0.6535 0.36956 0.0
C214 C 0.6349 0.68193 0.49497 0.0
C215 C 0.6566 0.68862 0.51429 0.0
C216 C 0.6021 0.66852 0.50008 0.0
C217 C 0.64512 0.68196 0.53846 0.0
C218 C 0.59156 0.66213 0.52448 0.0
N219 N 0.61312 0.66897 0.54301 0.0
C220 C 0.73571 0.72756 0.47741 0.0
C221 C 0.73031 0.69381 0.44376 0.0
C222 C 0.76209 0.72588 0.48628 0.0
N223 N 0.72004 0.71127 0.45675 0.0
C224 C 0.75648 0.69111 0.45219 0.0
C225 C 0.77254 0.7071 0.47385 0.0
H226 H 0.72728 0.74153 0.48727 0.0
H227 H 0.71825 0.68173 0.42702 0.0
C228 C 0.56625 0.64636 0.41416 0.0
N229 N 0.58629 0.64768 0.4324 0.0
C230 C 0.53739 0.61782 0.40965 0.0
C231 C 0.5508 0.5924 0.44235 0.0
C232 C 0.57931 0.62137 0.44622 0.0
C233 C 0.52919 0.59038 0.42401 0.0
H234 H 0.57243 0.66768 0.40344 0.0
H235 H 0.59565 0.62302 0.4606 0.0
O236 O 0.69185 0.76015 0.45414 0.0
O237 O 0.61875 0.72558 0.44066 0.0
O238 O 0.6616 0.70383 0.4158 0.0
O239 O 0.64573 0.68889 0.47122 0.0
H240 H 0.73282 0.81694 0.47294 0.0
H241 H 0.71894 0.75023 0.41471 0.0
H242 H 0.78721 0.85405 0.45631 0.0
H243 H 0.77339 0.78848 0.39915 0.0
H244 H 0.51813 0.69823 0.46648 0.0
H245 H 0.62907 0.78446 0.44889 0.0
H246 H 0.55811 0.68372 0.45166 0.0
H247 H 0.58787 0.7972 0.46382 0.0
H248 H 0.68957 0.85417 0.40491 0.0
H249 H 0.66934 0.79262 0.34146 0.0
H250 H 0.69415 0.80374 0.5396 0.0
H251 H 0.59006 0.75105 0.53756 0.0
H252 H 0.64824 0.64927 0.43808 0.0
H253 H 0.67702 0.70118 0.36957 0.0
H254 H 0.64842 0.60317 0.41764 0.0
H255 H 0.67724 0.65429 0.35037 0.0
H256 H 0.68203 0.69894 0.51071 0.0
H257 H 0.58502 0.66368 0.48542 0.0
H258 H 0.66166 0.68714 0.55359 0.0
H259 H 0.56628 0.65197 0.5287 0.0
H260 H 0.77356 0.73837 0.50317 0.0
H261 H 0.76405 0.6767 0.44191 0.0
H262 H 0.5217 0.61726 0.3951 0.0
H263 H 0.54538 0.57206 0.45406 0.0
Li264 Li 0.96651 0.6821 0.61579 0.0
Li265 Li 0.93614 0.62655 0.60465 0.0
Li266 Li 0.92196 0.66709 0.58815 0.0
Li267 Li 0.91368 0.65059 0.63241 0.0
C268 C 0.98972 0.67653 0.57066 0.0
N269 N 0.04885 0.70309 0.54763 0.0
C270 C 0.01271 0.66882 0.57869 0.0
C271 C 0.99663 0.69753 0.55083 0.0
C272 C 0.04252 0.68258 0.56684 0.0
C273 C 0.02671 0.71075 0.53944 0.0
C274 C 0.94272 0.62028 0.6544 0.0
C275 C 0.90456 0.56754 0.66972 0.0
N276 N 0.92577 0.57079 0.68765 0.0
C277 C 0.96411 0.62311 0.673 0.0
C278 C 0.91265 0.59228 0.65274 0.0
C279 C 0.95511 0.59782 0.68962 0.0
C280 C 0.01078 0.7187 0.65114 0.0
N281 N 0.00811 0.71623 0.62621 0.0
C282 C 0.06031 0.76292 0.62165 0.0
C283 C 0.03213 0.7378 0.61138 0.0
C284 C 0.06325 0.76623 0.64734 0.0
C285 C 0.03811 0.7437 0.66213 0.0
H286 H 0.99116 0.70161 0.66252 0.0
H287 H 0.02924 0.73626 0.59166 0.0
C288 C 0.91569 0.56514 0.58308 0.0
N289 N 0.93801 0.58848 0.59787 0.0
C290 C 0.91613 0.53651 0.57932 0.0
C291 C 0.96265 0.55669 0.60589 0.0
C292 C 0.96139 0.5849 0.60904 0.0
C293 C 0.93974 0.53188 0.59093 0.0
H294 H 0.89744 0.56868 0.57435 0.0
H295 H 0.97881 0.6038 0.62077 0.0
C296 C 0.95111 0.72666 0.62005 0.0
N297 N 0.9912 0.79233 0.62457 0.0
C298 C 0.9546 0.74167 0.6428 0.0
C299 C 0.96781 0.74506 0.59955 0.0
C300 C 0.97507 0.7749 0.64472 0.0
C301 C 0.98797 0.77823 0.60222 0.0
C302 C 0.86147 0.61514 0.59902 0.0
C303 C 0.85183 0.6377 0.60387 0.0
C304 C 0.83917 0.5849 0.58975 0.0
C305 C 0.81999 0.6296 0.59934 0.0
C306 C 0.80752 0.5777 0.58551 0.0
N307 N 0.79867 0.60002 0.59033 0.0
C308 C 0.89405 0.66123 0.5404 0.0
C309 C 0.89518 0.70135 0.56649 0.0
C310 C 0.87605 0.66693 0.52285 0.0
N311 N 0.90291 0.67821 0.5618 0.0
C312 C 0.87736 0.70784 0.54955 0.0
C313 C 0.86712 0.69027 0.52748 0.0
H314 H 0.90004 0.64256 0.53732 0.0
H315 H 0.90156 0.71381 0.58394 0.0
C316 C 0.90558 0.66257 0.68094 0.0
N317 N 0.88871 0.64404 0.66147 0.0
C318 C 0.88999 0.66119 0.70297 0.0
C319 C 0.83996 0.6208 0.68485 0.0
C320 C 0.85666 0.62263 0.66327 0.0
C321 C 0.85654 0.64062 0.70501 0.0
H322 H 0.93125 0.67856 0.67928 0.0
H323 H 0.84384 0.6071 0.648 0.0
O324 O 0.96035 0.66324 0.58187 0.0
O325 O 0.95136 0.64498 0.63806 0.0
O326 O 0.93204 0.69401 0.61791 0.0
O327 O 0.89276 0.62284 0.6026 0.0
H328 H 0.00771 0.65267 0.59406 0.0
H329 H 0.97896 0.70359 0.54436 0.0
H330 H 0.06065 0.67699 0.57293 0.0
H331 H 0.03247 0.72712 0.52411 0.0
H332 H 0.8814 0.54574 0.66864 0.0
H333 H 0.98746 0.64464 0.67454 0.0
H334 H 0.89571 0.58956 0.63853 0.0
H335 H 0.97145 0.59968 0.70409 0.0
H336 H 0.07912 0.78011 0.60969 0.0
H337 H 0.03959 0.74542 0.68202 0.0
H338 H 0.89827 0.51831 0.56733 0.0
H339 H 0.981 0.55412 0.61552 0.0
H340 H 0.9418 0.72785 0.65883 0.0
H341 H 0.9656 0.73375 0.58186 0.0
H342 H 0.97816 0.78682 0.66225 0.0
H343 H 1.00122 0.79273 0.58655 0.0
H344 H 0.86868 0.66116 0.61119 0.0
H345 H 0.84623 0.56718 0.58583 0.0
H346 H 0.81222 0.64684 0.60301 0.0
H347 H 0.79 0.55438 0.57833 0.0
H348 H 0.86878 0.65287 0.50606 0.0
H349 H 0.87042 0.72546 0.55429 0.0
H350 H 0.90409 0.67616 0.7182 0.0
H351 H 0.81421 0.60454 0.68544 0.0
Li352 Li 0.31298 0.93446 0.7735 0.0
Li353 Li 0.2876 0.96453 0.78575 0.0
Li354 Li 0.26768 0.91053 0.80158 0.0
Li355 Li 0.25667 0.91905 0.75782 0.0
C356 C 0.33942 0.95984 0.81753 0.0
N357 N 0.3997 0.98243 0.83802 0.0
C358 C 0.36148 0.99287 0.81807 0.0
C359 C 0.34799 0.93835 0.82756 0.0
C360 C 0.39183 0.0038 0.8285 0.0
C361 C 0.3786 0.95022 0.83776 0.0
C362 C 0.30832 0.987 0.73937 0.0
C363 C 0.29773 0.0186 0.71034 0.0
N364 N 0.32745 0.04418 0.71487 0.0
C365 C 0.3388 0.01353 0.74367 0.0
C366 C 0.28761 0.98946 0.72254 0.0
C367 C 0.348 0.04227 0.73114 0.0
C368 C 0.35155 0.90825 0.75765 0.0
N369 N 0.35248 0.93572 0.76518 0.0
C370 C 0.41002 0.96404 0.76441 0.0
C371 C 0.38095 0.96353 0.76789 0.0
C372 C 0.41002 0.93587 0.75714 0.0
C373 C 0.38008 0.90783 0.75333 0.0
H374 H 0.32863 0.88655 0.75513 0.0
H375 H 0.38121 0.98526 0.77332 0.0
C376 C 0.29839 0.00909 0.82193 0.0
N377 N 0.29394 0.00546 0.79717 0.0
C378 C 0.30346 0.03714 0.8335 0.0
C379 C 0.29817 0.05727 0.79409 0.0
C380 C 0.2929 0.02852 0.78326 0.0
C381 C 0.304 0.06206 0.81956 0.0
H382 H 0.29786 0.98996 0.8328 0.0
H383 H 0.2878 0.02474 0.76384 0.0
C384 C 0.26202 0.85978 0.77733 0.0
N385 N 0.23765 0.7965 0.79148 0.0
C386 C 0.23229 0.83588 0.76832 0.0
C387 C 0.27953 0.85144 0.79328 0.0
C388 C 0.22034 0.80403 0.77576 0.0
C389 C 0.26675 0.81934 0.8003 0.0
C390 C 0.22672 0.9453 0.79482 0.0
C391 C 0.22103 0.94859 0.81958 0.0
C392 C 0.21765 0.95977 0.77662 0.0
C393 C 0.20652 0.96666 0.82577 0.0
C394 C 0.20319 0.97763 0.78355 0.0
N395 N 0.198 0.98071 0.80778 0.0
C396 C 0.2623 0.88945 0.85109 0.0
C397 C 0.21675 0.8586 0.82581 0.0
C398 C 0.24612 0.87065 0.87154 0.0
N399 N 0.24742 0.88312 0.82884 0.0
C400 C 0.19976 0.83907 0.84569 0.0
C401 C 0.21427 0.84523 0.86904 0.0
H402 H 0.28636 0.90969 0.85315 0.0
H403 H 0.20527 0.85463 0.80801 0.0
C404 C 0.23041 0.89803 0.70894 0.0
N405 N 0.22434 0.89907 0.73328 0.0
C406 C 0.20504 0.87973 0.69266 0.0
C407 C 0.16801 0.86427 0.72687 0.0
C408 C 0.1939 0.88298 0.74234 0.0
C409 C 0.17328 0.86216 0.70163 0.0
H410 H 0.25494 0.91083 0.70229 0.0
H411 H 0.18987 0.88369 0.76186 0.0
O412 O 0.30958 0.94864 0.80736 0.0
O413 O 0.29904 0.95852 0.75111 0.0
O414 O 0.27388 0.89119 0.77061 0.0
O415 O 0.24182 0.92861 0.78845 0.0
H416 H 0.35552 0.00988 0.81011 0.0
H417 H 0.33123 0.91276 0.82743 0.0
H418 H 0.40919 0.02926 0.82889 0.0
H419 H 0.38558 0.93383 0.84549 0.0
H420 H 0.28194 0.0209 0.69731 0.0
H421 H 0.35504 0.01205 0.7567 0.0
H422 H 0.26395 0.96912 0.719 0.0
H423 H 0.37146 0.06306 0.73437 0.0
H424 H 0.43218 0.98624 0.76795 0.0
H425 H 0.37853 0.88571 0.74704 0.0
H426 H 0.30664 0.03909 0.85329 0.0
H427 H 0.29806 0.07564 0.78259 0.0
H428 H 0.21852 0.84183 0.75582 0.0
H429 H 0.3027 0.86959 0.80021 0.0
H430 H 0.19728 0.78531 0.76904 0.0
H431 H 0.27998 0.81259 0.81274 0.0
H432 H 0.22807 0.93759 0.83386 0.0
H433 H 0.22209 0.95753 0.75737 0.0
H434 H 0.20212 0.96961 0.84486 0.0
H435 H 0.19621 0.98915 0.76969 0.0
H436 H 0.25806 0.87672 0.88927 0.0
H437 H 0.17538 0.8196 0.84282 0.0
H438 H 0.2103 0.87909 0.67335 0.0
H439 H 0.14425 0.85064 0.7349 0.0
Li440 Li 0.38123 0.31243 0.93992 0.0
Li441 Li 0.32295 0.28673 0.95115 0.0
Li442 Li 0.35651 0.26847 0.97045 0.0
Li443 Li 0.34293 0.2577 0.92821 0.0
C444 C 0.3728 0.32081 0.99548 0.0
N445 N 0.39628 0.33622 0.04298 0.0
C446 C 0.35239 0.31829 0.01477 0.0
C447 C 0.40518 0.33127 0.00033 0.0
C448 C 0.36471 0.32616 0.03866 0.0
C449 C 0.41659 0.33894 0.02447 0.0
C450 C 0.34285 0.3235 0.90748 0.0
C451 C 0.33445 0.35054 0.87329 0.0
N452 N 0.34317 0.37675 0.88777 0.0
C453 C 0.35172 0.35072 0.92203 0.0
C454 C 0.33418 0.3234 0.8829 0.0
C455 C 0.35174 0.37739 0.91173 0.0
C456 C 0.43835 0.35425 0.913 0.0
N457 N 0.41948 0.35232 0.93235 0.0
C458 C 0.4564 0.40699 0.94333 0.0
C459 C 0.42773 0.37814 0.94719 0.0
C460 C 0.47685 0.40946 0.9239 0.0
C461 C 0.46728 0.38267 0.90844 0.0
H462 H 0.43115 0.33364 0.90125 0.0
H463 H 0.41213 0.37631 0.96222 0.0
C464 C 0.27223 0.27706 0.98047 0.0
N465 N 0.28671 0.29189 0.95907 0.0
C466 C 0.2461 0.27903 0.98959 0.0
C467 C 0.24965 0.31126 0.9543 0.0
C468 C 0.27556 0.30828 0.94565 0.0
C469 C 0.23468 0.2966 0.97662 0.0
H470 H 0.2813 0.26388 0.99065 0.0
H471 H 0.28664 0.31913 0.92832 0.0
C472 C 0.39526 0.25369 0.93348 0.0
N473 N 0.41073 0.21083 0.91211 0.0
C474 C 0.39069 0.22658 0.94649 0.0
C475 C 0.40775 0.25897 0.90959 0.0
C476 C 0.3987 0.20524 0.93539 0.0
C477 C 0.41536 0.23702 0.8991 0.0
C478 C 0.28261 0.22142 0.94886 0.0
C479 C 0.26308 0.19341 0.96221 0.0
C480 C 0.27057 0.22812 0.9276 0.0
C481 C 0.23174 0.17255 0.9541 0.0
C482 C 0.2391 0.20666 0.9201 0.0
N483 N 0.2205 0.17956 0.93339 0.0
C484 C 0.33615 0.23455 0.0147 0.0
C485 C 0.39216 0.25766 0.00756 0.0
C486 C 0.33862 0.22089 0.03666 0.0
N487 N 0.36263 0.25223 0.0006 0.0
C488 C 0.39578 0.24455 0.02947 0.0
C489 C 0.36871 0.22563 0.04426 0.0
H490 H 0.31302 0.23079 0.0087 0.0
H491 H 0.41283 0.27194 0.99597 0.0
C492 C 0.33495 0.22904 0.8797 0.0
N493 N 0.3322 0.22429 0.9045 0.0
C494 C 0.32983 0.20381 0.86388 0.0
C495 C 0.31866 0.16952 0.89943 0.0
C496 C 0.3235 0.19507 0.91443 0.0
C497 C 0.32233 0.17384 0.87387 0.0
H498 H 0.34202 0.25259 0.87231 0.0
H499 H 0.32149 0.19197 0.93419 0.0
O500 O 0.36104 0.31243 0.97205 0.0
O501 O 0.34323 0.29723 0.91685 0.0
O502 O 0.38683 0.27448 0.94383 0.0
O503 O 0.31336 0.24199 0.95668 0.0
H504 H 0.32732 0.31034 0.01138 0.0
H505 H 0.42121 0.33289 0.98567 0.0
H506 H 0.34917 0.32424 0.05378 0.0
H507 H 0.44154 0.34687 0.0285 0.0
H508 H 0.32778 0.35077 0.8543 0.0
H509 H 0.35811 0.35118 0.94114 0.0
H510 H 0.32736 0.30256 0.87137 0.0
H511 H 0.35848 0.39857 0.9228 0.0
H512 H 0.46241 0.42718 0.95539 0.0
H513 H 0.4823 0.38338 0.89329 0.0
H514 H 0.23549 0.26759 0.00697 0.0
H515 H 0.24128 0.32471 0.94362 0.0
H516 H 0.38047 0.22163 0.96477 0.0
H517 H 0.41079 0.27934 0.89899 0.0
H518 H 0.39509 0.18408 0.94521 0.0
H519 H 0.42476 0.24069 0.88054 0.0
H520 H 0.27206 0.18783 0.97866 0.0
H521 H 0.28525 0.2496 0.91697 0.0
H522 H 0.21635 0.15079 0.96426 0.0
H523 H 0.22947 0.21156 0.9037 0.0
H524 H 0.31701 0.20615 0.04724 0.0
H525 H 0.41949 0.24921 0.03475 0.0
H526 H 0.3329 0.20797 0.84421 0.0
H527 H 0.31256 0.14667 0.90779 0.0
Li528 Li 0.68097 0.96304 0.71525 0.0
Li529 Li 0.62565 0.93346 0.72701 0.0
Li530 Li 0.66749 0.91947 0.74346 0.0
Li531 Li 0.64988 0.91044 0.69879 0.0
C532 C 0.67712 0.98841 0.75862 0.0
N533 N 0.70554 0.0502 0.77713 0.0
C534 C 0.66906 0.01044 0.74895 0.0
C535 C 0.69936 0.99762 0.77784 0.0
C536 C 0.6838 0.04163 0.7585 0.0
C537 C 0.71352 0.02903 0.78693 0.0
C538 C 0.61817 0.93923 0.67721 0.0
C539 C 0.56641 0.8999 0.66096 0.0
N540 N 0.56743 0.92235 0.64514 0.0
C541 C 0.61873 0.96189 0.66074 0.0
C542 C 0.59182 0.90797 0.67729 0.0
C543 C 0.59284 0.9529 0.6447 0.0
C544 C 0.71196 0.0115 0.68095 0.0
N545 N 0.71442 0.00511 0.70496 0.0
C546 C 0.76271 0.05612 0.70928 0.0
C547 C 0.7394 0.02656 0.71914 0.0
C548 C 0.76033 0.06351 0.68459 0.0
C549 C 0.73461 0.04052 0.67039 0.0
H550 H 0.69263 0.99368 0.66978 0.0
H551 H 0.74159 0.02066 0.73795 0.0
C552 C 0.56711 0.91572 0.75267 0.0
N553 N 0.58753 0.93489 0.73481 0.0
C554 C 0.53855 0.91596 0.75746 0.0
C555 C 0.55274 0.95573 0.72545 0.0
C556 C 0.58123 0.95523 0.72171 0.0
C557 C 0.53072 0.93589 0.74352 0.0
H558 H 0.57294 0.90012 0.76312 0.0
H559 H 0.5982 0.97094 0.70809 0.0
C560 C 0.72465 0.94761 0.70621 0.0
N561 N 0.78791 0.98691 0.69216 0.0
C562 C 0.7328 0.95238 0.68126 0.0
C563 C 0.74866 0.96266 0.72404 0.0
C564 C 0.76492 0.97241 0.67453 0.0
C565 C 0.78052 0.98245 0.71655 0.0
C566 C 0.60353 0.8587 0.73201 0.0
C567 C 0.61628 0.83902 0.73815 0.0
C568 C 0.57021 0.84514 0.72958 0.0
C569 C 0.59554 0.80607 0.74147 0.0
C570 C 0.55026 0.81208 0.73305 0.0
N571 N 0.56323 0.79339 0.73887 0.0
C572 C 0.66315 0.89263 0.79145 0.0
C573 C 0.70088 0.89153 0.76389 0.0
C574 C 0.66907 0.87449 0.80871 0.0
N575 N 0.67881 0.90041 0.76947 0.0
C576 C 0.70748 0.87345 0.78048 0.0
C577 C 0.69121 0.86424 0.80315 0.0
H578 H 0.64532 0.89959 0.79524 0.0
H579 H 0.71228 0.8972 0.74601 0.0
C580 C 0.64884 0.89832 0.64821 0.0
N581 N 0.64384 0.88408 0.67066 0.0
C582 C 0.64694 0.88127 0.62688 0.0
C583 C 0.63517 0.83519 0.65208 0.0
C584 C 0.63716 0.85314 0.67295 0.0
C585 C 0.64037 0.84934 0.62864 0.0
H586 H 0.65498 0.92322 0.64686 0.0
H587 H 0.63428 0.84261 0.69094 0.0
O588 O 0.66298 0.95781 0.74955 0.0
O589 O 0.64335 0.94788 0.69314 0.0
O590 O 0.69324 0.92879 0.71316 0.0
O591 O 0.6234 0.89118 0.72922 0.0
H592 H 0.65186 0.0036 0.73406 0.0
H593 H 0.70571 0.98072 0.78555 0.0
H594 H 0.67798 0.05903 0.7511 0.0
H595 H 0.73088 0.03658 0.80173 0.0
H596 H 0.5459 0.87578 0.66084 0.0
H597 H 0.63885 0.98626 0.66047 0.0
H598 H 0.59107 0.89005 0.68965 0.0
H599 H 0.59293 0.97023 0.63191 0.0
H600 H 0.78221 0.07303 0.72089 0.0
H601 H 0.73227 0.04462 0.65108 0.0
H602 H 0.52294 0.90078 0.772 0.0
H603 H 0.54793 0.9712 0.71389 0.0
H604 H 0.71446 0.94102 0.66725 0.0
H605 H 0.74268 0.95948 0.74343 0.0
H606 H 0.77156 0.9765 0.65528 0.0
H607 H 0.79933 0.99442 0.73013 0.0
H608 H 0.64196 0.84896 0.73994 0.0
H609 H 0.5598 0.85997 0.72509 0.0
H610 H 0.60514 0.79057 0.74608 0.0
H611 H 0.52445 0.80129 0.73117 0.0
H612 H 0.65608 0.86812 0.82599 0.0
H613 H 0.72412 0.86552 0.77503 0.0
H614 H 0.65085 0.89311 0.60922 0.0
H615 H 0.63067 0.81088 0.65438 0.0
Li616 Li 0.71807 0.68166 0.88245 0.0
Li617 Li 0.6944 0.62404 0.89343 0.0
Li618 Li 0.74846 0.6642 0.90773 0.0
Li619 Li 0.73926 0.64973 0.8653 0.0
C620 C 0.67952 0.66016 0.92554 0.0
N621 N 0.62398 0.65602 0.94418 0.0
C622 C 0.65381 0.65355 0.90987 0.0
C623 C 0.67696 0.66461 0.95068 0.0
C624 C 0.62594 0.65156 0.91965 0.0
C625 C 0.64869 0.66246 0.95976 0.0
C626 C 0.68752 0.62915 0.83853 0.0
C627 C 0.67362 0.58336 0.81244 0.0
N628 N 0.67429 0.60084 0.79251 0.0
C629 C 0.68795 0.64664 0.81782 0.0
C630 C 0.68021 0.59723 0.83587 0.0
C631 C 0.68124 0.6319 0.79471 0.0
C632 C 0.72436 0.72942 0.85151 0.0
N633 N 0.71157 0.7167 0.87384 0.0
C634 C 0.69391 0.75502 0.87906 0.0
C635 C 0.69701 0.72926 0.88789 0.0
C636 C 0.70673 0.76838 0.85593 0.0
C637 C 0.7223 0.75538 0.8422 0.0
H638 H 0.73633 0.71935 0.84094 0.0
H639 H 0.68795 0.71958 0.90595 0.0
C640 C 0.65396 0.56489 0.91826 0.0
N641 N 0.65517 0.58532 0.90041 0.0
C642 C 0.62533 0.53605 0.92269 0.0
C643 C 0.59982 0.55004 0.89042 0.0
C644 C 0.62884 0.57851 0.88664 0.0
C645 C 0.59777 0.52821 0.90855 0.0
H646 H 0.67531 0.57088 0.92888 0.0
H647 H 0.6304 0.59516 0.87257 0.0
C648 C 0.78233 0.72482 0.88582 0.0
N649 N 0.81989 0.78845 0.89961 0.0
C650 C 0.80823 0.74604 0.87114 0.0
C651 C 0.77543 0.73598 0.90747 0.0
C652 C 0.82696 0.77812 0.87844 0.0
C653 C 0.79474 0.76822 0.91413 0.0
C654 C 0.75788 0.61353 0.89566 0.0
C655 C 0.78892 0.63477 0.88712 0.0
C656 C 0.75157 0.58497 0.90725 0.0
C657 C 0.81316 0.62703 0.8903 0.0
C658 C 0.77646 0.57808 0.91007 0.0
N659 N 0.80648 0.59909 0.90162 0.0
C660 C 0.77169 0.66267 0.9563 0.0
C661 C 0.81148 0.69413 0.9268 0.0
C662 C 0.79554 0.66887 0.97388 0.0
N663 N 0.78007 0.67525 0.93324 0.0
C664 C 0.8359 0.70118 0.94374 0.0
C665 C 0.82818 0.68838 0.96761 0.0
H666 H 0.74656 0.64729 0.96087 0.0
H667 H 0.81779 0.70298 0.9082 0.0
C668 C 0.76998 0.66988 0.82002 0.0
N669 N 0.75782 0.64462 0.83585 0.0
C670 C 0.78496 0.66891 0.7983 0.0
C671 C 0.77453 0.61579 0.8095 0.0
C672 C 0.75928 0.61761 0.83086 0.0
C673 C 0.78794 0.64182 0.79294 0.0
H674 H 0.76805 0.69085 0.82435 0.0
H675 H 0.74901 0.59766 0.84363 0.0
O676 O 0.70685 0.66158 0.91658 0.0
O677 O 0.69496 0.64339 0.86123 0.0
O678 O 0.76358 0.69346 0.87863 0.0
O679 O 0.73382 0.62077 0.89317 0.0
H680 H 0.65543 0.65032 0.89034 0.0
H681 H 0.69661 0.66959 0.96306 0.0
H682 H 0.6059 0.64653 0.90772 0.0
H683 H 0.64638 0.66585 0.97918 0.0
H684 H 0.66814 0.55874 0.81008 0.0
H685 H 0.69352 0.67134 0.81955 0.0
H686 H 0.68016 0.58348 0.85168 0.0
H687 H 0.68159 0.64517 0.7785 0.0
H688 H 0.68204 0.76467 0.89029 0.0
H689 H 0.73232 0.76483 0.82421 0.0
H690 H 0.62496 0.51982 0.9367 0.0
H691 H 0.57913 0.54531 0.87936 0.0
H692 H 0.81376 0.73778 0.85427 0.0
H693 H 0.75542 0.71999 0.91903 0.0
H694 H 0.84711 0.79481 0.86727 0.0
H695 H 0.78971 0.77718 0.93084 0.0
H696 H 0.7943 0.65705 0.8782 0.0
H697 H 0.72768 0.56833 0.91404 0.0
H698 H 0.83729 0.64327 0.88381 0.0
H699 H 0.77192 0.55606 0.91901 0.0
H700 H 0.78858 0.65845 0.99209 0.0
H701 H 0.86071 0.71562 0.93787 0.0
H702 H 0.79409 0.68922 0.78587 0.0
H703 H 0.77639 0.59451 0.80633 0.0
Li704 Li 0.08776 0.73257 0.03029 0.0
Li705 Li 0.0866 0.7458 0.0725 0.0
Li706 Li 0.06776 0.68874 0.05903 0.0
Li707 Li 0.03686 0.71647 0.04849 0.0
C708 C 0.14085 0.73391 0.04978 0.0
N709 N 0.20097 0.74849 0.03282 0.0
C710 C 0.16453 0.76591 0.04573 0.0
C711 C 0.14783 0.70933 0.04538 0.0
C712 C 0.19473 0.77278 0.03708 0.0
C713 C 0.17836 0.7172 0.03678 0.0
C714 C 0.06322 0.78186 0.05222 0.0
C715 C 0.03404 0.79566 0.08135 0.0
N716 N 0.04438 0.82414 0.06953 0.0
C717 C 0.07363 0.81134 0.04043 0.0
C718 C 0.04334 0.774 0.07293 0.0
C719 C 0.06383 0.83235 0.04944 0.0
C720 C 0.10635 0.77215 0.98896 0.0
N721 N 0.11114 0.74955 0.0001 0.0
C722 C 0.14744 0.75384 0.96814 0.0
C723 C 0.13094 0.73995 0.98998 0.0
C724 C 0.14339 0.77772 0.9565 0.0
C725 C 0.12237 0.78672 0.96717 0.0
H726 H 0.09002 0.77892 0.99703 0.0
H727 H 0.13387 0.72138 0.99867 0.0
C728 C 0.10766 0.77408 0.12106 0.0
N729 N 0.11015 0.77856 0.09624 0.0
C730 C 0.12773 0.79939 0.13687 0.0
C731 C 0.15192 0.83313 0.1012 0.0
C732 C 0.13129 0.80749 0.08623 0.0
C733 C 0.15065 0.82916 0.12684 0.0
H734 H 0.09058 0.75078 0.12854 0.0
H735 H 0.13246 0.8105 0.06647 0.0
C736 C 0.0515 0.68159 0.00392 0.0
N737 N 0.0595 0.66606 0.95643 0.0
C738 C 0.03637 0.68746 0.98425 0.0
C739 C 0.0706 0.66768 0.99943 0.0
C740 C 0.04077 0.67951 0.96037 0.0
C741 C 0.07434 0.65999 0.9753 0.0
C742 C 0.01973 0.68017 0.09298 0.0
C743 C 1.00029 0.65241 0.07931 0.0
C744 C 0.01235 0.68179 0.11764 0.0
C745 C 0.97372 0.62667 0.09056 0.0
C746 C 0.98553 0.65555 0.12822 0.0
N747 N 0.96694 0.62876 0.11458 0.0
C748 C 0.08369 0.64787 0.08602 0.0
C749 C 0.04676 0.62251 0.05332 0.0
C750 C 0.08431 0.61954 0.09085 0.0
N751 N 0.06546 0.64893 0.06727 0.0
C752 C 0.04687 0.59385 0.05735 0.0
C753 C 0.06613 0.59222 0.07612 0.0
H754 H 0.09838 0.66927 0.09679 0.0
H755 H 0.03217 0.62384 0.03871 0.0
C756 C 0.99649 0.72734 0.01942 0.0
N757 N 0.99582 0.71227 0.04076 0.0
C758 C 0.96851 0.72536 0.01006 0.0
C759 C 0.93941 0.69315 0.04524 0.0
C760 C 0.96817 0.69594 0.05404 0.0
C761 C 0.93931 0.70775 0.02282 0.0
H762 H 0.01887 0.74058 0.00941 0.0
H763 H 0.96817 0.6849 0.07133 0.0
O764 O 0.11116 0.72664 0.05836 0.0
O765 O 0.07293 0.76121 0.0436 0.0
O766 O 0.04787 0.68962 0.02742 0.0
O767 O 0.04626 0.70548 0.08257 0.0
H768 H 0.15954 0.78521 0.04892 0.0
H769 H 0.12983 0.68443 0.04835 0.0
H770 H 0.21321 0.79743 0.03371 0.0
H771 H 0.18405 0.69842 0.03319 0.0
H772 H 0.01861 0.78982 0.09731 0.0
H773 H 0.08929 0.81804 0.02454 0.0
H774 H 0.03506 0.75148 0.08245 0.0
H775 H 0.07172 0.85523 0.04047 0.0
H776 H 0.16292 0.74571 0.96033 0.0
H777 H 0.11868 0.8052 0.959 0.0
H778 H 0.1261 0.79547 0.15658 0.0
H779 H 0.16889 0.85585 0.09279 0.0
H780 H 0.02141 0.69806 0.98732 0.0
H781 H 0.08301 0.6635 0.01434 0.0
H782 H 0.02928 0.68403 0.94497 0.0
H783 H 0.08924 0.64944 0.97157 0.0
H784 H 0.00537 0.65087 0.06013 0.0
H785 H 0.02724 0.70309 0.12848 0.0
H786 H 0.95842 0.60507 0.08018 0.0
H787 H 0.97952 0.65647 0.14729 0.0
H788 H 0.09958 0.61931 0.10545 0.0
H789 H 0.03208 0.57318 0.04586 0.0
H790 H 0.96961 0.73675 0.9926 0.0
H791 H 0.91752 0.67974 0.05584 0.0
Li792 Li 0.3247 0.03857 0.21512 0.0
Li793 Li 0.38046 0.06713 0.22702 0.0
Li794 Li 0.3408 0.08433 0.24292 0.0
Li795 Li 0.35967 0.0922 0.19883 0.0
C796 C 0.3239 0.01532 0.26104 0.0
N797 N 0.28698 0.95721 0.28466 0.0
C798 C 0.32827 0.98926 0.25577 0.0
C799 C 0.30089 0.01193 0.27839 0.0
C800 C 0.30929 0.96003 0.26787 0.0
C801 C 0.28245 0.98233 0.29014 0.0
C802 C 0.37914 0.04128 0.18161 0.0
C803 C 0.42481 0.04914 0.15758 0.0
N804 N 0.41313 0.01683 0.15765 0.0
C805 C 0.36748 0.00812 0.1813 0.0
C806 C 0.40792 0.06195 0.16951 0.0
C807 C 0.38505 0.99624 0.16913 0.0
C808 C 0.28985 0.99475 0.17894 0.0
N809 N 0.28948 0.998 0.20377 0.0
C810 C 0.24213 0.946 0.20686 0.0
C811 C 0.26567 0.97469 0.21775 0.0
C812 C 0.24287 0.94153 0.18132 0.0
C813 C 0.26682 0.96676 0.16733 0.0
H814 H 0.30823 0.01405 0.16806 0.0
H815 H 0.26475 0.97816 0.23727 0.0
C816 C 0.44437 0.09166 0.24431 0.0
N817 N 0.41838 0.06503 0.23504 0.0
C818 C 0.47322 0.09185 0.24855 0.0
C819 C 0.44792 0.03701 0.23406 0.0
C820 C 0.41945 0.03771 0.23058 0.0
C821 C 0.47555 0.06443 0.24299 0.0
H822 H 0.44281 0.1129 0.24829 0.0
H823 H 0.39836 0.0165 0.22393 0.0
C824 C 0.28393 0.05913 0.20708 0.0
N825 N 0.21909 0.02463 0.19618 0.0
C826 C 0.27363 0.0555 0.18263 0.0
C827 C 0.26135 0.04545 0.22601 0.0
C828 C 0.24071 0.0379 0.17749 0.0
C829 C 0.22864 0.02804 0.22011 0.0
C830 C 0.40848 0.14161 0.22348 0.0
C831 C 0.40701 0.16772 0.23341 0.0
C832 C 0.43339 0.14709 0.20732 0.0
C833 C 0.43026 0.19893 0.22668 0.0
C834 C 0.45618 0.17866 0.20104 0.0
N835 N 0.45413 0.20371 0.21074 0.0
C836 C 0.33374 0.10441 0.29198 0.0
C837 C 0.32168 0.12663 0.25736 0.0
C838 C 0.32893 0.12471 0.30786 0.0
N839 N 0.33037 0.10609 0.26723 0.0
C840 C 0.31718 0.14755 0.2724 0.0
C841 C 0.32131 0.14712 0.29792 0.0
H842 H 0.34108 0.0881 0.29931 0.0
H843 H 0.31951 0.12763 0.2376 0.0
C844 C 0.37067 0.11015 0.14863 0.0
N845 N 0.36752 0.1197 0.17151 0.0
C846 C 0.37355 0.12896 0.12813 0.0
C847 C 0.37015 0.16717 0.15519 0.0
C848 C 0.36708 0.1475 0.17511 0.0
C849 C 0.37301 0.1578 0.13122 0.0
H850 H 0.36991 0.08743 0.14622 0.0
H851 H 0.36358 0.15402 0.19343 0.0
O852 O 0.34252 0.04424 0.2497 0.0
O853 O 0.3622 0.05337 0.19335 0.0
O854 O 0.31604 0.07533 0.21243 0.0
O855 O 0.38569 0.11084 0.22957 0.0
H856 H 0.3459 0.99149 0.24234 0.0
H857 H 0.29723 0.03191 0.28266 0.0
H858 H 0.31228 0.93959 0.2639 0.0
H859 H 0.26449 0.97931 0.30357 0.0
H860 H 0.44717 0.06488 0.14822 0.0
H861 H 0.34543 0.99174 0.19075 0.0
H862 H 0.41708 0.08759 0.16924 0.0
H863 H 0.37643 0.97067 0.16891 0.0
H864 H 0.22396 0.92737 0.21838 0.0
H865 H 0.26778 0.96503 0.14751 0.0
H866 H 0.49339 0.11331 0.25615 0.0
H867 H 0.44829 0.01532 0.22924 0.0
H868 H 0.29093 0.06588 0.16779 0.0
H869 H 0.26905 0.04796 0.24502 0.0
H870 H 0.23235 0.03471 0.15865 0.0
H871 H 0.21086 0.01714 0.23455 0.0
H872 H 0.3881 0.16395 0.24612 0.0
H873 H 0.43511 0.12718 0.19976 0.0
H874 H 0.42933 0.21936 0.23412 0.0
H875 H 0.47551 0.18323 0.18847 0.0
H876 H 0.33243 0.12386 0.32749 0.0
H877 H 0.3111 0.16436 0.2641 0.0
H878 H 0.37498 0.12038 0.11 0.0
H879 H 0.36986 0.18927 0.15851 0.0
Li880 Li 0.3099 0.37729 0.39542 0.0
Li881 Li 0.28562 0.32222 0.3832 0.0
Li882 Li 0.26554 0.35429 0.36583 0.0
Li883 Li 0.25423 0.33619 0.40953 0.0
C884 C 0.32643 0.38575 0.34647 0.0
N885 N 0.36173 0.43701 0.31521 0.0
C886 C 0.34701 0.38416 0.32903 0.0
C887 C 0.32383 0.41347 0.34802 0.0
C888 C 0.36465 0.41031 0.31339 0.0
C889 C 0.34187 0.4391 0.33205 0.0
C890 C 0.30989 0.32431 0.42893 0.0
C891 C 0.30819 0.28677 0.45921 0.0
N892 N 0.338 0.29323 0.452 0.0
C893 C 0.34059 0.33078 0.42193 0.0
C894 C 0.29358 0.30229 0.4478 0.0
C895 C 0.35435 0.31472 0.43377 0.0
C896 C 0.34974 0.43938 0.41657 0.0
N897 N 0.34942 0.41513 0.40343 0.0
C898 C 0.40644 0.44585 0.39783 0.0
C899 C 0.377 0.41775 0.39426 0.0
C900 C 0.4076 0.47159 0.41105 0.0
C901 C 0.37872 0.46798 0.42064 0.0
H902 H 0.32745 0.43665 0.42365 0.0
H903 H 0.37604 0.39822 0.38364 0.0
C904 C 0.29988 0.28985 0.34835 0.0
N905 N 0.29414 0.28877 0.37291 0.0
C906 C 0.30549 0.26694 0.33726 0.0
C907 C 0.2988 0.24151 0.37687 0.0
C908 C 0.29304 0.26492 0.38721 0.0
C909 C 0.30534 0.24244 0.35153 0.0
H910 H 0.2995 0.30831 0.3372 0.0
H911 H 0.28728 0.26367 0.40652 0.0
C912 C 0.24578 0.38791 0.39834 0.0
N913 N 0.19658 0.40145 0.40464 0.0
C914 C 0.2148 0.36645 0.38978 0.0
C915 C 0.2517 0.41626 0.41011 0.0
C916 C 0.19026 0.37372 0.39313 0.0
C917 C 0.22652 0.42268 0.41311 0.0
C918 C 0.22564 0.27738 0.3784 0.0
C919 C 0.21588 0.26107 0.35594 0.0
C920 C 0.22179 0.26008 0.40006 0.0
C921 C 0.2026 0.22769 0.35551 0.0
C922 C 0.20835 0.22672 0.39887 0.0
N923 N 0.19916 0.21136 0.3768 0.0
C924 C 0.24471 0.34116 0.31752 0.0
C925 C 0.24164 0.38554 0.33336 0.0
C926 C 0.23073 0.34267 0.29542 0.0
N927 N 0.24896 0.36175 0.33618 0.0
C928 C 0.22737 0.38783 0.31158 0.0
C929 C 0.22112 0.36574 0.29243 0.0
H930 H 0.25205 0.3234 0.31991 0.0
H931 H 0.24639 0.4025 0.34807 0.0
C932 C 0.2293 0.33536 0.45795 0.0
N933 N 0.22211 0.32386 0.43454 0.0
C934 C 0.20458 0.32836 0.47487 0.0
C935 C 0.1658 0.29766 0.44327 0.0
C936 C 0.19112 0.30498 0.42715 0.0
C937 C 0.1722 0.30956 0.46751 0.0
H938 H 0.25418 0.35054 0.4633 0.0
H939 H 0.18598 0.2965 0.40835 0.0
O940 O 0.3092 0.36028 0.36196 0.0
O941 O 0.29606 0.33989 0.41773 0.0
O942 O 0.27007 0.38098 0.39578 0.0
O943 O 0.23962 0.31018 0.3792 0.0
H944 H 0.34942 0.36295 0.32765 0.0
H945 H 0.3082 0.41532 0.36141 0.0
H946 H 0.38068 0.4094 0.29982 0.0
H947 H 0.34009 0.46067 0.33306 0.0
H948 H 0.29583 0.26959 0.47378 0.0
H949 H 0.35347 0.34774 0.40735 0.0
H950 H 0.26989 0.29725 0.45353 0.0
H951 H 0.37801 0.31932 0.42845 0.0
H952 H 0.42793 0.44766 0.38978 0.0
H953 H 0.3785 0.48701 0.43121 0.0
H954 H 0.30931 0.26816 0.31755 0.0
H955 H 0.2983 0.22305 0.38862 0.0
H956 H 0.20976 0.34447 0.38052 0.0
H957 H 0.27548 0.43311 0.41693 0.0
H958 H 0.1662 0.35731 0.38659 0.0
H959 H 0.23078 0.44452 0.4222 0.0
H960 H 0.21857 0.27396 0.339 0.0
H961 H 0.22954 0.27233 0.41757 0.0
H962 H 0.19507 0.21478 0.33825 0.0
H963 H 0.20541 0.21308 0.41548 0.0
H964 H 0.22735 0.32581 0.28089 0.0
H965 H 0.2205 0.40609 0.31009 0.0
H966 H 0.21078 0.33785 0.49339 0.0
H967 H 0.14142 0.28379 0.4364 0.0
Li968 Li 0.96593 0.28614 0.5503 0.0
Li969 Li 0.9385 0.31483 0.5618 0.0
Li970 Li 0.9184 0.25856 0.57694 0.0
Li971 Li 0.91277 0.27 0.53237 0.0
C972 C 0.98834 0.32335 0.59375 0.0
N973 N 0.04476 0.37396 0.61198 0.0
C974 C 0.00929 0.34813 0.57812 0.0
C975 C 0.99607 0.32426 0.61865 0.0
C976 C 0.03769 0.37353 0.58768 0.0
C977 C 0.02472 0.35006 0.62752 0.0
C978 C 0.96162 0.33423 0.51155 0.0
C979 C 0.94701 0.36294 0.48267 0.0
N980 N 0.97863 0.38239 0.47705 0.0
C981 C 0.99394 0.35423 0.50526 0.0
C982 C 0.93792 0.33837 0.49998 0.0
C983 C 1.00206 0.37855 0.48787 0.0
C984 C 0.00793 0.28572 0.51595 0.0
N985 N 0.00577 0.28944 0.54055 0.0
C986 C 0.05866 0.29733 0.54678 0.0
C987 C 0.03028 0.29491 0.55609 0.0
C988 C 0.06124 0.29322 0.52144 0.0
C989 C 0.0354 0.28719 0.50599 0.0
H990 H 0.98811 0.2815 0.50405 0.0
H991 H 0.02788 0.29746 0.57563 0.0
C992 C 0.92066 0.35586 0.58588 0.0
N993 N 0.94221 0.35553 0.56978 0.0
C994 C 0.92037 0.38438 0.5905 0.0
C995 C 0.9652 0.41199 0.56259 0.0
C996 C 0.96465 0.38298 0.55855 0.0
C997 C 0.94259 0.41294 0.57851 0.0
H998 H 0.90321 0.33377 0.59474 0.0
H999 H 0.98187 0.38244 0.54611 0.0
C1000 C 0.94121 0.22325 0.54278 0.0
N1001 N 0.97094 0.18751 0.53453 0.0
C1002 C 0.94223 0.21257 0.51904 0.0
C1003 C 0.95507 0.21561 0.56236 0.0
C1004 C 0.95745 0.19457 0.51524 0.0
C1005 C 0.97005 0.19754 0.5578 0.0
C1006 C 0.86553 0.27766 0.5593 0.0
C1007 C 0.8371 0.25257 0.56915 0.0
C1008 C 0.86467 0.30242 0.54642 0.0
C1009 C 0.80817 0.25239 0.56555 0.0
C1010 C 0.83528 0.30141 0.54325 0.0
N1011 N 0.80786 0.2766 0.55277 0.0
C1012 C 0.90075 0.22887 0.62545 0.0
C1013 C 0.87011 0.19946 0.59077 0.0
C1014 C 0.88029 0.2037 0.6412 0.0
N1015 N 0.89501 0.22629 0.60078 0.0
C1016 C 0.849 0.1741 0.60574 0.0
C1017 C 0.85368 0.17614 0.63132 0.0
H1018 H 0.92079 0.25054 0.63289 0.0
H1019 H 0.86629 0.19814 0.57107 0.0
C1020 C 0.9013 0.25887 0.48169 0.0
N1021 N 0.88664 0.25235 0.50404 0.0
C1022 C 0.88346 0.24429 0.4605 0.0
C1023 C 0.83574 0.2166 0.48573 0.0
C1024 C 0.85454 0.23166 0.50644 0.0
C1025 C 0.85024 0.22257 0.46237 0.0
H1026 H 0.92705 0.27472 0.48042 0.0
H1027 H 0.84363 0.22616 0.52448 0.0
O1028 O 0.96048 0.29812 0.58482 0.0
O1029 O 0.95331 0.31034 0.52859 0.0
O1030 O 0.9274 0.24178 0.54675 0.0
O1031 O 0.89405 0.27812 0.56263 0.0
H1032 H 0.00383 0.34761 0.5588 0.0
H1033 H 0.98011 0.30519 0.63098 0.0
H1034 H 0.05414 0.39284 0.57576 0.0
H1035 H 0.03103 0.35108 0.64675 0.0
H1036 H 0.92891 0.36645 0.47362 0.0
H1037 H 0.0126 0.35114 0.5138 0.0
H1038 H 0.91276 0.32254 0.50404 0.0
H1039 H 0.02699 0.39434 0.48296 0.0
H1040 H 0.07817 0.30193 0.5592 0.0
H1041 H 0.03667 0.2842 0.48633 0.0
H1042 H 0.90286 0.38402 0.60328 0.0
H1043 H 0.98264 0.43324 0.55277 0.0
H1044 H 0.93169 0.21844 0.5037 0.0
H1045 H 0.95456 0.22387 0.58082 0.0
H1046 H 0.95861 0.18629 0.49695 0.0
H1047 H 0.98105 0.19158 0.57275 0.0
H1048 H 0.83732 0.23337 0.57939 0.0
H1049 H 0.88648 0.32243 0.53922 0.0
H1050 H 0.78598 0.23303 0.57295 0.0
H1051 H 0.83429 0.32042 0.5333 0.0
H1052 H 0.88463 0.2061 0.66086 0.0
H1053 H 0.82908 0.15307 0.59737 0.0
H1054 H 0.89579 0.2491 0.44297 0.0
H1055 H 0.81021 0.20016 0.48804 0.0
C1056 C 0.0706 0.54574 0.05966 0.0
C1057 C 0.0676 0.56233 0.07991 0.0
H1058 H 0.07363 0.50499 0.04712 0.0
C1059 C 0.06584 0.55006 0.1037 0.0
H1060 H 0.07236 0.55481 0.04113 0.0
C1061 C 0.06652 0.52151 0.10712 0.0
C1062 C 0.06934 0.50483 0.08685 0.0
H1063 H 0.06338 0.56223 0.11964 0.0
H1064 H 0.06501 0.51256 0.12566 0.0
C1065 C 0.07163 0.51739 0.0631 0.0
C1066 C 0.56524 0.09266 0.24591 0.0
C1067 C 0.56527 0.06428 0.25241 0.0
H1068 H 0.53744 0.1149 0.23722 0.0
C1069 C 0.53545 0.03595 0.25561 0.0
H1070 H 0.58758 0.11513 0.24361 0.0
C1071 C 0.50656 0.0361 0.25288 0.0
C1072 C 0.5065 0.06443 0.24632 0.0
H1073 H 0.53424 0.01342 0.26017 0.0
H1074 H 0.48428 0.01391 0.25621 0.0
C1075 C 0.5363 0.09267 0.24272 0.0
C1076 C 0.4696 0.56067 0.41559 0.0
C1077 C 0.4981 0.55999 0.4203 0.0
H1078 H 0.41887 0.53349 0.40885 0.0
C1079 C 0.49652 0.52999 0.42198 0.0
H1080 H 0.46985 0.58332 0.41446 0.0
C1081 C 0.46721 0.50142 0.41913 0.0
C1082 C 0.4387 0.50207 0.41447 0.0
H1083 H 0.51801 0.52854 0.42535 0.0
H1084 H 0.46688 0.47877 0.42083 0.0
C1085 C 0.44027 0.53207 0.41272 0.0
C1086 C 0.91167 0.47156 0.58676 0.0
C1087 C 0.94041 0.50137 0.58772 0.0
H1088 H 0.88975 0.42049 0.5829 0.0
C1089 C 0.96987 0.50177 0.58588 0.0
H1090 H 0.88855 0.47025 0.58842 0.0
C1091 C 0.97057 0.47315 0.58318 0.0
C1092 C 0.94184 0.44335 0.58212 0.0
H1093 H 0.99249 0.52426 0.58628 0.0
H1094 H 0.99372 0.47442 0.58208 0.0
C1095 C 0.91237 0.44293 0.58396 0.0
C1096 C 0.4718 0.90791 0.7551 0.0
C1097 C 0.49988 0.93593 0.74752 0.0
H1098 H 0.42212 0.88605 0.76481 0.0
C1099 C 0.49804 0.96391 0.74329 0.0
H1100 H 0.47188 0.88569 0.75822 0.0
C1101 C 0.46899 0.96372 0.746 0.0
C1102 C 0.44093 0.93579 0.75372 0.0
H1103 H 0.51909 0.98624 0.73794 0.0
H1104 H 0.46866 0.98559 0.74177 0.0
C1105 C 0.44287 0.90794 0.75839 0.0
C1106 C 0.51877 0.45133 0.89603 0.0
C1107 C 0.50802 0.43969 0.91994 0.0
H1108 H 0.55552 0.48799 0.87369 0.0
C1109 C 0.5273 0.4572 0.94008 0.0
H1110 H 0.50444 0.43863 0.88011 0.0
C1111 C 0.55648 0.48572 0.93641 0.0
C1112 C 0.56708 0.49749 0.91251 0.0
H1113 H 0.51998 0.44872 0.95874 0.0
H1114 H 0.57048 0.4988 0.95235 0.0
C1115 C 0.54791 0.47986 0.89237 0.0
C1116 C 0.15795 0.27782 0.01011 0.0
C1117 C 0.16144 0.30856 0.01287 0.0
H1118 H 0.17812 0.24993 0.99628 0.0
C1119 C 0.18763 0.33488 0.00132 0.0
H1120 H 0.13772 0.25689 0.01827 0.0
C1121 C 0.21066 0.33077 0.98847 0.0
C1122 C 0.20808 0.30032 0.98704 0.0
H1123 H 0.19128 0.35894 0.00324 0.0
H1124 H 0.23134 0.35171 0.98075 0.0
C1125 C 0.18105 0.27378 0.99746 0.0
C1126 C 0.86547 0.16453 0.16518 0.0
C1127 C 0.85634 0.17211 0.18762 0.0
H1128 H 0.89978 0.1811 0.13572 0.0
C1129 C 0.87349 0.20374 0.1965 0.0
H1130 H 0.85257 0.14019 0.15808 0.0
C1131 C 0.89996 0.22726 0.18359 0.0
C1132 C 0.91039 0.21959 0.1617 0.0
H1133 H 0.86658 0.21017 0.21365 0.0
H1134 H 0.91249 0.25144 0.19101 0.0
C1135 C 0.89241 0.18802 0.15239 0.0
C1136 C 0.70311 0.86425 0.33478 0.0
C1137 C 0.68256 0.85341 0.35532 0.0
H1138 H 0.72527 0.90044 0.30683 0.0
C1139 C 0.66595 0.86946 0.36192 0.0
H1140 H 0.71624 0.8523 0.32936 0.0
C1141 C 0.67075 0.89659 0.34898 0.0
C1142 C 0.69261 0.90868 0.32924 0.0
H1143 H 0.64951 0.86124 0.37741 0.0
H1144 H 0.6576 0.90839 0.35472 0.0
C1145 C 0.7082 0.89175 0.32189 0.0
C1146 C 0.82662 0.72995 0.49402 0.0
C1147 C 0.79905 0.70326 0.48432 0.0
H1148 H 0.87023 0.74694 0.5145 0.0
C1149 C 0.79578 0.67259 0.48663 0.0
H1150 H 0.83008 0.75395 0.49216 0.0
C1151 C 0.81868 0.66849 0.49966 0.0
C1152 C 0.84541 0.69501 0.51053 0.0
H1153 H 0.77467 0.65154 0.4795 0.0
H1154 H 0.81451 0.64433 0.50228 0.0
C1155 C 0.84958 0.72589 0.50687 0.0
C1156 C 0.12302 0.79885 0.65362 0.0
C1157 C 0.092 0.79322 0.65898 0.0
H1158 H 0.17301 0.82456 0.66316 0.0
C1159 C 0.08827 0.81235 0.67674 0.0
H1160 H 0.12645 0.7843 0.64003 0.0
C1161 C 0.11486 0.83582 0.68961 0.0
C1162 C 0.14582 0.84034 0.6854 0.0
H1163 H 0.06461 0.80881 0.68091 0.0
H1164 H 0.11099 0.85 0.70325 0.0
C1165 C 0.14967 0.82204 0.66681 0.0
C1166 C 0.29404 0.10877 0.82489 0.0
C1167 C 0.3105 0.09255 0.83183 0.0
H1168 H 0.28503 0.14751 0.83273 0.0
C1169 C 0.33261 0.10502 0.85142 0.0
H1170 H 0.27673 0.09978 0.81 0.0
C1171 C 0.33692 0.13188 0.86453 0.0
C1172 C 0.31961 0.1473 0.85821 0.0
H1173 H 0.34644 0.09383 0.85686 0.0
H1174 H 0.35363 0.14047 0.87986 0.0
C1175 C 0.2987 0.13603 0.83791 0.0
C1176 C 0.73009 0.8216 0.83458 0.0
C1177 C 0.7035 0.79525 0.84559 0.0
H1178 H 0.74736 0.86464 0.8134 0.0
C1179 C 0.67342 0.79356 0.84483 0.0
H1180 H 0.75368 0.82378 0.83524 0.0
C1181 C 0.66963 0.81676 0.83199 0.0
C1182 C 0.69594 0.84228 0.81983 0.0
H1183 H 0.65248 0.7734 0.85306 0.0
H1184 H 0.64576 0.81374 0.83055 0.0
C1185 C 0.72641 0.84493 0.822 0.0
C1186 C 0.8537 0.66878 0.9984 0.0
C1187 C 0.85447 0.69425 0.98504 0.0
H1188 H 0.88004 0.65301 0.02074 0.0
C1189 C 0.88204 0.72491 0.98657 0.0
H1190 H 0.83289 0.64484 0.99746 0.0
C1191 C 0.90895 0.7296 -0.00012 0.0
C1192 C 0.90902 0.70373 0.01197 0.0
H1193 H 0.88314 0.74515 0.97685 0.0
H1194 H 0.93009 0.75337 0.00015 0.0
C1195 C 0.88073 0.67348 0.01174 0.0
C1196 C 0.18653 0.89426 0.17595 0.0
C1197 C 0.2192 0.91095 0.16901 0.0
H1198 H 0.13906 0.85504 0.16805 0.0
C1199 C 0.22916 0.89883 0.1494 0.0
H1200 H 0.17797 0.90296 0.19089 0.0
C1201 C 0.20694 0.87183 0.13627 0.0
C1202 C 0.17418 0.85591 0.14255 0.0
H1203 H 0.25422 0.91042 0.14397 0.0
H1204 H 0.21536 0.86352 0.12097 0.0
C1205 C 0.16422 0.86687 0.16288 0.0
C1206 C 0.29829 0.16226 0.33374 0.0
C1207 C 0.31932 0.17138 0.31354 0.0
H1208 H 0.27676 0.17744 0.36137 0.0
C1209 C 0.33744 0.20404 0.30724 0.0
H1210 H 0.28402 0.13717 0.33889 0.0
C1211 C 0.33379 0.22707 0.32024 0.0
C1212 C 0.3115 0.218 0.33966 0.0
H1213 H 0.35423 0.21173 0.29198 0.0
H1214 H 0.34819 0.25203 0.31478 0.0
C1215 C 0.29426 0.18536 0.34662 0.0
C1216 C 0.11542 0.27477 0.48268 0.0
C1217 C 0.14506 0.30371 0.48421 0.0
H1218 H 0.06573 0.24891 0.49325 0.0
C1219 C 0.14756 0.32786 0.50035 0.0
H1220 H 0.1127 0.25524 0.47103 0.0
C1221 C 0.12068 0.32377 0.51357 0.0
C1222 C 0.09074 0.29568 0.51067 0.0
H1223 H 0.16981 0.35058 0.50189 0.0
H1224 H 0.12289 0.34324 0.52505 0.0
C1225 C 0.08852 0.27096 0.49554 0.0
C1226 C 0.79708 0.13702 0.64336 0.0
C1227 C 0.83018 0.14966 0.64724 0.0
H1228 H 0.74923 0.10072 0.65258 0.0
C1229 C 0.84029 0.1355 0.66517 0.0
H1230 H 0.78859 0.14784 0.62999 0.0
C1231 C 0.81765 0.10809 0.67801 0.0
C1232 C 0.78451 0.09454 0.67322 0.0
H1233 H 0.8657 0.14475 0.66848 0.0
H1234 H 0.82616 0.09677 0.69088 0.0
C1235 C 0.77455 0.10994 0.65625 0.0
C1236 C 0.20946 0.39493 0.259 0.0
C1237 C 0.2037 0.3659 0.26982 0.0
H1238 H 0.19724 0.41746 0.23023 0.0
C1239 C 0.18064 0.33671 0.2591 0.0
H1240 H 0.22725 0.41785 0.26666 0.0
C1241 C 0.16382 0.33649 0.23809 0.0
C1242 C 0.16942 0.36546 0.22729 0.0
H1243 H 0.1752 0.31388 0.26712 0.0
H1244 H 0.14657 0.31351 0.23018 0.0
C1245 C 0.19251 0.39471 0.23795 0.0
C1246 C 0.83703 0.22037 0.41735 0.0
C1247 C 0.8313 0.20492 0.44031 0.0
H1248 H 0.82641 0.21554 0.37879 0.0
C1249 C 0.80829 0.17201 0.44184 0.0
H1250 H 0.85433 0.24577 0.41558 0.0
C1251 C 0.79201 0.15479 0.42083 0.0
C1252 C 0.79838 0.17002 0.39775 0.0
H1253 H 0.80349 0.15925 0.45917 0.0
H1254 H 0.7746 0.12943 0.42265 0.0
C1255 C 0.82075 0.20312 0.39631 0.0
C1256 C 0.6631 0.84727 0.58753 0.0
C1257 C 0.64032 0.83147 0.60626 0.0
H1258 H 0.68113 0.8437 0.55242 0.0
C1259 C 0.61793 0.79852 0.60354 0.0
H1260 H 0.68101 0.87251 0.58915 0.0
C1261 C 0.61838 0.78179 0.58258 0.0
C1262 C 0.64123 0.79764 0.56389 0.0
H1263 H 0.59989 0.78567 0.61752 0.0
H1264 H 0.60107 0.75634 0.58118 0.0
C1265 C 0.66349 0.83061 0.5666 0.0
C1266 C 0.84892 0.66922 0.7409 0.0
C1267 C 0.83909 0.64053 0.72775 0.0
H1268 H 0.84135 0.69199 0.77186 0.0
C1269 C 0.81226 0.61209 0.73634 0.0
H1270 H 0.86909 0.69174 0.73472 0.0
C1271 C 0.79558 0.61245 0.75737 0.0
C1272 C 0.8055 0.64118 0.7705 0.0
H1273 H 0.80418 0.58944 0.72693 0.0
H1274 H 0.77468 0.59022 0.76312 0.0
C1275 C 0.83255 0.66948 0.76205 0.0
C1276 C 0.21065 0.81808 0.90952 0.0
C1277 C 0.19577 0.8264 0.89089 0.0
H1278 H 0.20596 0.79649 0.94488 0.0
C1279 C 0.16321 0.81752 0.89366 0.0
H1280 H 0.23558 0.82423 0.90785 0.0
C1281 C 0.14611 0.8012 0.91468 0.0
C1282 C 0.16116 0.79349 0.93355 0.0
H1283 H 0.15105 0.82385 0.87985 0.0
H1284 H 0.12108 0.79474 0.91617 0.0
C1285 C 0.19355 0.80183 0.93061 0.0
C1286 C 0.39264 0.18022 0.08882 0.0
C1287 C 0.3736 0.17696 0.1095 0.0
H1288 H 0.40583 0.19776 0.052 0.0
C1289 C 0.35407 0.19115 0.10891 0.0
H1290 H 0.40826 0.16995 0.08875 0.0
C1291 C 0.35312 0.20759 0.08801 0.0
C1292 C 0.37149 0.2101 0.06709 0.0
H1293 H 0.33878 0.18884 0.12435 0.0
H1294 H 0.33776 0.21814 0.08821 0.0
C1295 C 0.39156 0.19654 0.06785 0.0
loop_
_geom_bond_atom_site_label_1
_geom_bond_atom_site_label_2
_geom_bond_distance
_geom_bond_site_symmetry_2
_ccdc_geom_bond_type
Li0 N17 1.990 . S
Li0 O60 1.956 . S
Li0 O61 1.970 . S
Li0 O62 1.961 . S
Li1 N25 1.990 . S
Li1 O60 1.970 . S
Li1 O61 1.956 . S
Li1 O63 1.961 . S
Li2 N47 1.990 1_455 S
Li2 O60 1.961 . S
Li2 O62 1.956 . S
Li2 O63 1.970 . S
Li3 N53 1.990 . S
Li3 O61 1.961 . S
Li3 O62 1.970 . S
Li3 O63 1.956 . S
C4 C6 1.348 . S
C4 C7 1.356 . S
C4 O60 1.325 . S
N5 C8 1.314 . S
N5 C9 1.279 . S
C6 C4 1.348 . S
C6 C8 1.353 . S
C6 H64 0.929 . S
C7 C4 1.356 . S
C7 C9 1.358 . S
C7 H65 0.930 . S
C8 N5 1.314 . S
C8 C6 1.353 . S
C8 H66 0.930 . S
C9 N5 1.279 . S
C9 C7 1.358 . S
C9 H67 0.930 . S
C10 C13 1.348 . S
C10 C14 1.356 . S
C10 O61 1.325 . S
C11 N12 1.279 . S
C11 C14 1.358 . S
C11 H68 0.930 . S
N12 C11 1.279 . S
N12 C15 1.314 . S
C13 C10 1.348 . S
C13 C15 1.353 . S
C13 H69 0.929 . S
C14 C10 1.356 . S
C14 C11 1.358 . S
C14 H70 0.930 . S
C15 N12 1.314 . S
C15 C13 1.353 . S
C15 H71 0.930 . S
C16 N17 1.314 . S
C16 C21 1.353 . S
C16 H22 0.930 . S
N17 Li0 1.990 . S
N17 C16 1.314 . S
N17 C19 1.279 . S
C18 C19 1.358 . S
C18 C20 1.356 . S
C18 H72 0.930 . S
C19 N17 1.279 . S
C19 C18 1.358 . S
C19 H23 0.930 . S
C20 C18 1.356 . S
C20 C21 1.348 . S
C21 C16 1.353 . S
C21 C20 1.348 . S
C21 H73 0.929 . S
H22 C16 0.930 . S
H23 C19 0.930 . S
C24 N25 1.314 . S
C24 C26 1.353 . S
C24 H30 0.930 . S
N25 Li1 1.990 . S
N25 C24 1.314 . S
N25 C28 1.279 . S
C26 C24 1.353 . S
C26 C29 1.348 . S
C26 H74 0.929 . S
C27 C28 1.358 . S
C27 C29 1.356 . S
C27 H75 0.930 . S
C28 N25 1.279 . S
C28 C27 1.358 . S
C28 H31 0.930 . S
C29 C26 1.348 . S
C29 C27 1.356 . S
H30 C24 0.930 . S
H31 C28 0.930 . S
C32 C34 1.348 . S
C32 C35 1.356 . S
C32 O62 1.325 . S
N33 C36 1.314 . S
N33 C37 1.279 . S
C34 C32 1.348 . S
C34 C36 1.353 . S
C34 H76 0.929 . S
C35 C32 1.356 . S
C35 C37 1.358 . S
C35 H77 0.930 . S
C36 N33 1.314 . S
C36 C34 1.353 . S
C36 H78 0.930 . S
C37 N33 1.279 . S
C37 C35 1.358 . S
C37 H79 0.930 . S
C38 C39 1.348 . S
C38 C40 1.356 . S
C38 O63 1.325 . S
C39 C38 1.348 . S
C39 C41 1.353 . S
C39 H80 0.929 . S
C40 C38 1.356 . S
C40 C42 1.358 . S
C40 H81 0.930 . S
C41 C39 1.353 . S
C41 N43 1.314 . S
C41 H82 0.930 1_455 S
C42 C40 1.358 . S
C42 N43 1.279 . S
C42 H83 0.930 . S
N43 C41 1.314 . S
N43 C42 1.279 . S
C44 C46 1.353 . S
C44 N47 1.314 . S
C44 H50 0.930 1_655 S
C45 N47 1.279 . S
C45 C48 1.358 . S
C45 H51 0.930 . S
C46 C44 1.353 . S
C46 C49 1.348 . S
C46 H84 0.929 . S
N47 Li2 1.990 1_655 S
N47 C44 1.314 . S
N47 C45 1.279 . S
C48 C45 1.358 . S
C48 C49 1.356 . S
C48 H85 0.930 . S
C49 C46 1.348 . S
C49 C48 1.356 . S
H50 C44 0.930 1_455 S
H51 C45 0.930 . S
C52 N53 1.314 . S
C52 C54 1.353 . S
C52 H58 0.930 . S
N53 Li3 1.990 . S
N53 C52 1.314 . S
N53 C56 1.279 . S
C54 C52 1.353 . S
C54 C57 1.348 . S
C54 H86 0.929 . S
C55 C56 1.358 . S
C55 C57 1.356 . S
C55 H87 0.930 . S
C56 N53 1.279 . S
C56 C55 1.358 . S
C56 H59 0.930 . S
C57 C54 1.348 . S
C57 C55 1.356 . S
H58 C52 0.930 . S
H59 C56 0.930 . S
O60 Li0 1.956 . S
O60 Li1 1.970 . S
O60 Li2 1.961 . S
O60 C4 1.325 . S
O61 Li0 1.970 . S
O61 Li1 1.956 . S
O61 Li3 1.961 . S
O61 C10 1.325 . S
O62 Li0 1.961 . S
O62 Li2 1.956 . S
O62 Li3 1.970 . S
O62 C32 1.325 . S
O63 Li1 1.961 . S
O63 Li2 1.970 . S
O63 Li3 1.956 . S
O63 C38 1.325 . S
H64 C6 0.929 . S
H65 C7 0.930 . S
H66 C8 0.930 . S
H67 C9 0.930 . S
H68 C11 0.930 . S
H69 C13 0.929 . S
H70 C14 0.930 . S
H71 C15 0.930 . S
H72 C18 0.930 . S
H73 C21 0.929 . S
H74 C26 0.929 . S
H75 C27 0.930 . S
H76 C34 0.929 . S
H77 C35 0.930 . S
H78 C36 0.930 . S
H79 C37 0.930 . S
H80 C39 0.929 . S
H81 C40 0.930 . S
H82 C41 0.930 1_655 S
H83 C42 0.930 . S
H84 C46 0.929 . S
H85 C48 0.930 . S
H86 C54 0.929 . S
H87 C55 0.930 . S
Li88 N105 1.990 . S
Li88 O148 1.956 . S
Li88 O149 1.970 . S
Li88 O150 1.961 . S
Li89 N113 1.990 . S
Li89 O148 1.970 . S
Li89 O149 1.956 . S
Li89 O151 1.961 . S
Li90 N135 1.990 1_545 S
Li90 O148 1.961 . S
Li90 O150 1.956 . S
Li90 O151 1.970 . S
Li91 N141 1.990 . S
Li91 O149 1.961 . S
Li91 O150 1.970 . S
Li91 O151 1.956 . S
C92 C94 1.348 . S
C92 C95 1.356 . S
C92 O148 1.325 . S
N93 C96 1.314 . S
N93 C97 1.279 . S
C94 C92 1.348 . S
C94 C96 1.353 . S
C94 H152 0.929 . S
C95 C92 1.356 . S
C95 C97 1.358 . S
C95 H153 0.930 . S
C96 N93 1.314 . S
C96 C94 1.353 . S
C96 H154 0.930 . S
C97 N93 1.279 . S
C97 C95 1.358 . S
C97 H155 0.930 . S
C98 C101 1.348 . S
C98 C102 1.356 . S
C98 O149 1.325 . S
C99 N100 1.279 . S
C99 C102 1.358 . S
C99 H156 0.930 . S
N100 C99 1.279 . S
N100 C103 1.314 . S
C101 C98 1.348 . S
C101 C103 1.353 . S
C101 H157 0.929 . S
C102 C98 1.356 . S
C102 C99 1.358 . S
C102 H158 0.930 . S
C103 N100 1.314 . S
C103 C101 1.353 . S
C103 H159 0.930 . S
C104 N105 1.314 . S
C104 C109 1.353 . S
C104 H110 0.930 . S
N105 Li88 1.990 . S
N105 C104 1.314 . S
N105 C107 1.279 . S
C106 C107 1.358 . S
C106 C108 1.356 . S
C106 H160 0.930 . S
C107 N105 1.279 . S
C107 C106 1.358 . S
C107 H111 0.930 . S
C108 C106 1.356 . S
C108 C109 1.348 . S
C109 C104 1.353 . S
C109 C108 1.348 . S
C109 H161 0.929 . S
H110 C104 0.930 . S
H111 C107 0.930 . S
C112 N113 1.314 . S
C112 C114 1.353 . S
C112 H118 0.930 . S
N113 Li89 1.990 . S
N113 C112 1.314 . S
N113 C116 1.279 . S
C114 C112 1.353 . S
C114 C117 1.348 . S
C114 H162 0.929 . S
C115 C116 1.358 . S
C115 C117 1.356 . S
C115 H163 0.930 . S
C116 N113 1.279 . S
C116 C115 1.358 . S
C116 H119 0.930 . S
C117 C114 1.348 . S
C117 C115 1.356 . S
H118 C112 0.930 . S
H119 C116 0.930 . S
C120 C122 1.348 . S
C120 C123 1.356 . S
C120 O150 1.325 . S
N121 C124 1.314 . S
N121 C125 1.279 . S
C122 C120 1.348 . S
C122 C124 1.353 . S
C122 H164 0.929 . S
C123 C120 1.356 . S
C123 C125 1.358 . S
C123 H165 0.930 . S
C124 N121 1.314 . S
C124 C122 1.353 . S
C124 H166 0.930 . S
C125 N121 1.279 . S
C125 C123 1.358 . S
C125 H167 0.930 . S
C126 C127 1.348 . S
C126 C128 1.356 . S
C126 O151 1.325 . S
C127 C126 1.348 . S
C127 C129 1.353 . S
C127 H168 0.929 . S
C128 C126 1.356 . S
C128 C130 1.358 . S
C128 H169 0.930 . S
C129 C127 1.353 . S
C129 N131 1.314 . S
C129 H170 0.930 1_545 S
C130 C128 1.358 . S
C130 N131 1.279 . S
C130 H171 0.930 . S
N131 C129 1.314 . S
N131 C130 1.279 . S
C132 C134 1.353 . S
C132 N135 1.314 . S
C132 H138 0.930 1_565 S
C133 N135 1.279 . S
C133 C136 1.358 . S
C133 H139 0.930 . S
C134 C132 1.353 . S
C134 C137 1.348 . S
C134 H172 0.929 . S
N135 Li90 1.990 1_565 S
N135 C132 1.314 . S
N135 C133 1.279 . S
C136 C133 1.358 . S
C136 C137 1.356 . S
C136 H173 0.930 . S
C137 C134 1.348 . S
C137 C136 1.356 . S
H138 C132 0.930 1_545 S
H139 C133 0.930 . S
C140 N141 1.314 . S
C140 C142 1.353 . S
C140 H146 0.930 . S
N141 Li91 1.990 . S
N141 C140 1.314 . S
N141 C144 1.279 . S
C142 C140 1.353 . S
C142 C145 1.348 . S
C142 H174 0.929 . S
C143 C144 1.358 . S
C143 C145 1.356 . S
C143 H175 0.930 . S
C144 N141 1.279 . S
C144 C143 1.358 . S
C144 H147 0.930 . S
C145 C142 1.348 . S
C145 C143 1.356 . S
H146 C140 0.930 . S
H147 C144 0.930 . S
O148 Li88 1.956 . S
O148 Li89 1.970 . S
O148 Li90 1.961 . S
O148 C92 1.325 . S
O149 Li88 1.970 . S
O149 Li89 1.956 . S
O149 Li91 1.961 . S
O149 C98 1.325 . S
O150 Li88 1.961 . S
O150 Li90 1.956 . S
O150 Li91 1.970 . S
O150 C120 1.325 . S
O151 Li89 1.961 . S
O151 Li90 1.970 . S
O151 Li91 1.956 . S
O151 C126 1.325 . S
H152 C94 0.929 . S
H153 C95 0.930 . S
H154 C96 0.930 . S
H155 C97 0.930 . S
H156 C99 0.930 . S
H157 C101 0.929 . S
H158 C102 0.930 . S
H159 C103 0.930 . S
H160 C106 0.930 . S
H161 C109 0.929 . S
H162 C114 0.929 . S
H163 C115 0.930 . S
H164 C122 0.929 . S
H165 C123 0.930 . S
H166 C124 0.930 . S
H167 C125 0.930 . S
H168 C127 0.929 . S
H169 C128 0.930 . S
H170 C129 0.930 1_565 S
H171 C130 0.930 . S
H172 C134 0.929 . S
H173 C136 0.930 . S
H174 C142 0.929 . S
H175 C143 0.930 . S
Li176 N193 1.990 . S
Li176 O236 1.956 . S
Li176 O237 1.970 . S
Li176 O238 1.961 . S
Li177 N201 1.990 . S
Li177 O236 1.970 . S
Li177 O237 1.956 . S
Li177 O239 1.961 . S
Li178 N223 1.990 . S
Li178 O236 1.961 . S
Li178 O238 1.956 . S
Li178 O239 1.970 . S
Li179 N229 1.990 . S
Li179 O237 1.961 . S
Li179 O238 1.970 . S
Li179 O239 1.956 . S
C180 C182 1.348 . S
C180 C183 1.356 . S
C180 O236 1.325 . S
N181 C184 1.314 . S
N181 C185 1.279 . S
C182 C180 1.348 . S
C182 C184 1.353 . S
C182 H240 0.929 . S
C183 C180 1.356 . S
C183 C185 1.358 . S
C183 H241 0.930 . S
C184 N181 1.314 . S
C184 C182 1.353 . S
C184 H242 0.930 . S
C185 N181 1.279 . S
C185 C183 1.358 . S
C185 H243 0.930 . S
C186 C189 1.348 . S
C186 C190 1.356 . S
C186 O237 1.325 . S
C187 N188 1.279 . S
C187 C190 1.358 . S
C187 H244 0.930 . S
N188 C187 1.279 . S
N188 C191 1.314 . S
C189 C186 1.348 . S
C189 C191 1.353 . S
C189 H245 0.929 . S
C190 C186 1.356 . S
C190 C187 1.358 . S
C190 H246 0.930 . S
C191 N188 1.314 . S
C191 C189 1.353 . S
C191 H247 0.930 . S
C192 N193 1.314 . S
C192 C197 1.353 . S
C192 H198 0.930 . S
N193 Li176 1.990 . S
N193 C192 1.314 . S
N193 C195 1.279 . S
C194 C195 1.358 . S
C194 C196 1.356 . S
C194 H248 0.930 . S
C195 N193 1.279 . S
C195 C194 1.358 . S
C195 H199 0.930 . S
C196 C194 1.356 . S
C196 C197 1.348 . S
C197 C192 1.353 . S
C197 C196 1.348 . S
C197 H249 0.929 . S
H198 C192 0.930 . S
H199 C195 0.930 . S
C200 N201 1.314 . S
C200 C202 1.353 . S
C200 H206 0.930 . S
N201 Li177 1.990 . S
N201 C200 1.314 . S
N201 C204 1.279 . S
C202 C200 1.353 . S
C202 C205 1.348 . S
C202 H250 0.929 . S
C203 C204 1.358 . S
C203 C205 1.356 . S
C203 H251 0.930 . S
C204 N201 1.279 . S
C204 C203 1.358 . S
C204 H207 0.930 . S
C205 C202 1.348 . S
C205 C203 1.356 . S
H206 C200 0.930 . S
H207 C204 0.930 . S
C208 C210 1.348 . S
C208 C211 1.356 . S
C208 O238 1.325 . S
N209 C212 1.314 . S
N209 C213 1.279 . S
C210 C208 1.348 . S
C210 C212 1.353 . S
C210 H252 0.929 . S
C211 C208 1.356 . S
C211 C213 1.358 . S
C211 H253 0.930 . S
C212 N209 1.314 . S
C212 C210 1.353 . S
C212 H254 0.930 . S
C213 N209 1.279 . S
C213 C211 1.358 . S
C213 H255 0.930 . S
C214 C215 1.348 . S
C214 C216 1.356 . S
C214 O239 1.325 . S
C215 C214 1.348 . S
C215 C217 1.353 . S
C215 H256 0.929 . S
C216 C214 1.356 . S
C216 C218 1.358 . S
C216 H257 0.930 . S
C217 C215 1.353 . S
C217 N219 1.314 . S
C217 H258 0.930 . S
C218 C216 1.358 . S
C218 N219 1.279 . S
C218 H259 0.930 . S
N219 C217 1.314 . S
N219 C218 1.279 . S
C220 C222 1.353 . S
C220 N223 1.314 . S
C220 H226 0.930 . S
C221 N223 1.279 . S
C221 C224 1.358 . S
C221 H227 0.930 . S
C222 C220 1.353 . S
C222 C225 1.348 . S
C222 H260 0.929 . S
N223 Li178 1.990 . S
N223 C220 1.314 . S
N223 C221 1.279 . S
C224 C221 1.358 . S
C224 C225 1.356 . S
C224 H261 0.930 . S
C225 C222 1.348 . S
C225 C224 1.356 . S
H226 C220 0.930 . S
H227 C221 0.930 . S
C228 N229 1.314 . S
C228 C230 1.353 . S
C228 H234 0.930 . S
N229 Li179 1.990 . S
N229 C228 1.314 . S
N229 C232 1.279 . S
C230 C228 1.353 . S
C230 C233 1.348 . S
C230 H262 0.929 . S
C231 C232 1.358 . S
C231 C233 1.356 . S
C231 H263 0.930 . S
C232 N229 1.279 . S
C232 C231 1.358 . S
C232 H235 0.930 . S
C233 C230 1.348 . S
C233 C231 1.356 . S
H234 C228 0.930 . S
H235 C232 0.930 . S
O236 Li176 1.956 . S
O236 Li177 1.970 . S
O236 Li178 1.961 . S
O236 C180 1.325 . S
O237 Li176 1.970 . S
O237 Li177 1.956 . S
O237 Li179 1.961 . S
O237 C186 1.325 . S
O238 Li176 1.961 . S
O238 Li178 1.956 . S
O238 Li179 1.970 . S
O238 C208 1.325 . S
O239 Li177 1.961 . S
O239 Li178 1.970 . S
O239 Li179 1.956 . S
O239 C214 1.325 . S
H240 C182 0.929 . S
H241 C183 0.930 . S
H242 C184 0.930 . S
H243 C185 0.930 . S
H244 C187 0.930 . S
H245 C189 0.929 . S
H246 C190 0.930 . S
H247 C191 0.930 . S
H248 C194 0.930 . S
H249 C197 0.929 . S
H250 C202 0.929 . S
H251 C203 0.930 . S
H252 C210 0.929 . S
H253 C211 0.930 . S
H254 C212 0.930 . S
H255 C213 0.930 . S
H256 C215 0.929 . S
H257 C216 0.930 . S
H258 C217 0.930 . S
H259 C218 0.930 . S
H260 C222 0.929 . S
H261 C224 0.930 . S
H262 C230 0.929 . S
H263 C231 0.930 . S
Li264 N281 1.990 1_655 S
Li264 O324 1.956 . S
Li264 O325 1.970 . S
Li264 O326 1.961 . S
Li265 N289 1.990 . S
Li265 O324 1.970 . S
Li265 O325 1.956 . S
Li265 O327 1.961 . S
Li266 N311 1.990 . S
Li266 O324 1.961 . S
Li266 O326 1.956 . S
Li266 O327 1.970 . S
Li267 N317 1.990 . S
Li267 O325 1.961 . S
Li267 O326 1.970 . S
Li267 O327 1.956 . S
C268 C270 1.348 . S
C268 C271 1.356 . S
C268 O324 1.325 . S
N269 C272 1.314 . S
N269 C273 1.279 . S
C270 C268 1.348 . S
C270 C272 1.353 . S
C270 H328 0.929 . S
C271 C268 1.356 . S
C271 C273 1.358 . S
C271 H329 0.930 . S
C272 N269 1.314 . S
C272 C270 1.353 . S
C272 H330 0.930 . S
C273 N269 1.279 . S
C273 C271 1.358 . S
C273 H331 0.930 . S
C274 C277 1.348 . S
C274 C278 1.356 . S
C274 O325 1.325 . S
C275 N276 1.279 . S
C275 C278 1.358 . S
C275 H332 0.930 . S
N276 C275 1.279 . S
N276 C279 1.314 . S
C277 C274 1.348 . S
C277 C279 1.353 . S
C277 H333 0.929 . S
C278 C274 1.356 . S
C278 C275 1.358 . S
C278 H334 0.930 . S
C279 N276 1.314 . S
C279 C277 1.353 . S
C279 H335 0.930 1_655 S
C280 N281 1.314 . S
C280 C285 1.353 . S
C280 H286 0.930 1_455 S
N281 Li264 1.990 1_455 S
N281 C280 1.314 . S
N281 C283 1.279 . S
C282 C283 1.358 . S
C282 C284 1.356 . S
C282 H336 0.930 . S
C283 N281 1.279 . S
C283 C282 1.358 . S
C283 H287 0.930 . S
C284 C282 1.356 . S
C284 C285 1.348 . S
C285 C280 1.353 . S
C285 C284 1.348 . S
C285 H337 0.929 . S
H286 C280 0.930 1_655 S
H287 C283 0.930 . S
C288 N289 1.314 . S
C288 C290 1.353 . S
C288 H294 0.930 . S
N289 Li265 1.990 . S
N289 C288 1.314 . S
N289 C292 1.279 . S
C290 C288 1.353 . S
C290 C293 1.348 . S
C290 H338 0.929 . S
C291 C292 1.358 . S
C291 C293 1.356 . S
C291 H339 0.930 . S
C292 N289 1.279 . S
C292 C291 1.358 . S
C292 H295 0.930 . S
C293 C290 1.348 . S
C293 C291 1.356 . S
H294 C288 0.930 . S
H295 C292 0.930 . S
C296 C298 1.348 . S
C296 C299 1.356 . S
C296 O326 1.325 . S
N297 C300 1.314 . S
N297 C301 1.279 . S
C298 C296 1.348 . S
C298 C300 1.353 . S
C298 H340 0.929 . S
C299 C296 1.356 . S
C299 C301 1.358 . S
C299 H341 0.930 . S
C300 N297 1.314 . S
C300 C298 1.353 . S
C300 H342 0.930 . S
C301 N297 1.279 . S
C301 C299 1.358 . S
C301 H343 0.930 . S
C302 C303 1.348 . S
C302 C304 1.356 . S
C302 O327 1.325 . S
C303 C302 1.348 . S
C303 C305 1.353 . S
C303 H344 0.929 . S
C304 C302 1.356 . S
C304 C306 1.358 . S
C304 H345 0.930 . S
C305 C303 1.353 . S
C305 N307 1.314 . S
C305 H346 0.930 . S
C306 C304 1.358 . S
C306 N307 1.279 . S
C306 H347 0.930 . S
N307 C305 1.314 . S
N307 C306 1.279 . S
C308 C310 1.353 . S
C308 N311 1.314 . S
C308 H314 0.930 . S
C309 N311 1.279 . S
C309 C312 1.358 . S
C309 H315 0.930 . S
C310 C308 1.353 . S
C310 C313 1.348 . S
C310 H348 0.929 . S
N311 Li266 1.990 . S
N311 C308 1.314 . S
N311 C309 1.279 . S
C312 C309 1.358 . S
C312 C313 1.356 . S
C312 H349 0.930 . S
C313 C310 1.348 . S
C313 C312 1.356 . S
H314 C308 0.930 . S
H315 C309 0.930 . S
C316 N317 1.314 . S
C316 C318 1.353 . S
C316 H322 0.930 . S
N317 Li267 1.990 . S
N317 C316 1.314 . S
N317 C320 1.279 . S
C318 C316 1.353 . S
C318 C321 1.348 . S
C318 H350 0.929 . S
C319 C320 1.358 . S
C319 C321 1.356 . S
C319 H351 0.930 . S
C320 N317 1.279 . S
C320 C319 1.358 . S
C320 H323 0.930 . S
C321 C318 1.348 . S
C321 C319 1.356 . S
H322 C316 0.930 . S
H323 C320 0.930 . S
O324 Li264 1.956 . S
O324 Li265 1.970 . S
O324 Li266 1.961 . S
O324 C268 1.325 . S
O325 Li264 1.970 . S
O325 Li265 1.956 . S
O325 Li267 1.961 . S
O325 C274 1.325 . S
O326 Li264 1.961 . S
O326 Li266 1.956 . S
O326 Li267 1.970 . S
O326 C296 1.325 . S
O327 Li265 1.961 . S
O327 Li266 1.970 . S
O327 Li267 1.956 . S
O327 C302 1.325 . S
H328 C270 0.929 . S
H329 C271 0.930 . S
H330 C272 0.930 . S
H331 C273 0.930 . S
H332 C275 0.930 . S
H333 C277 0.929 . S
H334 C278 0.930 . S
H335 C279 0.930 1_455 S
H336 C282 0.930 . S
H337 C285 0.929 . S
H338 C290 0.929 . S
H339 C291 0.930 . S
H340 C298 0.929 . S
H341 C299 0.930 . S
H342 C300 0.930 . S
H343 C301 0.930 . S
H344 C303 0.929 . S
H345 C304 0.930 . S
H346 C305 0.930 . S
H347 C306 0.930 . S
H348 C310 0.929 . S
H349 C312 0.930 . S
H350 C318 0.929 . S
H351 C319 0.930 . S
Li352 N369 1.990 . S
Li352 O412 1.956 . S
Li352 O413 1.970 . S
Li352 O414 1.961 . S
Li353 N377 1.990 1_565 S
Li353 O412 1.970 . S
Li353 O413 1.956 . S
Li353 O415 1.961 . S
Li354 N399 1.990 . S
Li354 O412 1.961 . S
Li354 O414 1.956 . S
Li354 O415 1.970 . S
Li355 N405 1.990 . S
Li355 O413 1.961 . S
Li355 O414 1.970 . S
Li355 O415 1.956 . S
C356 C358 1.348 . S
C356 C359 1.356 . S
C356 O412 1.325 . S
N357 C360 1.314 . S
N357 C361 1.279 . S
C358 C356 1.348 . S
C358 C360 1.353 . S
C358 H416 0.929 . S
C359 C356 1.356 . S
C359 C361 1.358 . S
C359 H417 0.930 . S
C360 N357 1.314 . S
C360 C358 1.353 . S
C360 H418 0.930 1_565 S
C361 N357 1.279 . S
C361 C359 1.358 . S
C361 H419 0.930 . S
C362 C365 1.348 . S
C362 C366 1.356 . S
C362 O413 1.325 . S
C363 N364 1.279 . S
C363 C366 1.358 . S
C363 H420 0.930 . S
N364 C363 1.279 . S
N364 C367 1.314 . S
C365 C362 1.348 . S
C365 C367 1.353 . S
C365 H421 0.929 . S
C366 C362 1.356 . S
C366 C363 1.358 . S
C366 H422 0.930 . S
C367 N364 1.314 . S
C367 C365 1.353 . S
C367 H423 0.930 . S
C368 N369 1.314 . S
C368 C373 1.353 . S
C368 H374 0.930 . S
N369 Li352 1.990 . S
N369 C368 1.314 . S
N369 C371 1.279 . S
C370 C371 1.358 . S
C370 C372 1.356 . S
C370 H424 0.930 . S
C371 N369 1.279 . S
C371 C370 1.358 . S
C371 H375 0.930 . S
C372 C370 1.356 . S
C372 C373 1.348 . S
C373 C368 1.353 . S
C373 C372 1.348 . S
C373 H425 0.929 . S
H374 C368 0.930 . S
H375 C371 0.930 . S
C376 N377 1.314 . S
C376 C378 1.353 . S
C376 H382 0.930 1_545 S
N377 Li353 1.990 1_545 S
N377 C376 1.314 . S
N377 C380 1.279 . S
C378 C376 1.353 . S
C378 C381 1.348 . S
C378 H426 0.929 . S
C379 C380 1.358 . S
C379 C381 1.356 . S
C379 H427 0.930 . S
C380 N377 1.279 . S
C380 C379 1.358 . S
C380 H383 0.930 . S
C381 C378 1.348 . S
C381 C379 1.356 . S
H382 C376 0.930 1_565 S
H383 C380 0.930 . S
C384 C386 1.348 . S
C384 C387 1.356 . S
C384 O414 1.325 . S
N385 C388 1.314 . S
N385 C389 1.279 . S
C386 C384 1.348 . S
C386 C388 1.353 . S
C386 H428 0.929 . S
C387 C384 1.356 . S
C387 C389 1.358 . S
C387 H429 0.930 . S
C388 N385 1.314 . S
C388 C386 1.353 . S
C388 H430 0.930 . S
C389 N385 1.279 . S
C389 C387 1.358 . S
C389 H431 0.930 . S
C390 C391 1.348 . S
C390 C392 1.356 . S
C390 O415 1.325 . S
C391 C390 1.348 . S
C391 C393 1.353 . S
C391 H432 0.929 . S
C392 C390 1.356 . S
C392 C394 1.358 . S
C392 H433 0.930 . S
C393 C391 1.353 . S
C393 N395 1.314 . S
C393 H434 0.930 . S
C394 C392 1.358 . S
C394 N395 1.279 . S
C394 H435 0.930 . S
N395 C393 1.314 . S
N395 C394 1.279 . S
C396 C398 1.353 . S
C396 N399 1.314 . S
C396 H402 0.930 . S
C397 N399 1.279 . S
C397 C400 1.358 . S
C397 H403 0.930 . S
C398 C396 1.353 . S
C398 C401 1.348 . S
C398 H436 0.929 . S
N399 Li354 1.990 . S
N399 C396 1.314 . S
N399 C397 1.279 . S
C400 C397 1.358 . S
C400 C401 1.356 . S
C400 H437 0.930 . S
C401 C398 1.348 . S
C401 C400 1.356 . S
H402 C396 0.930 . S
H403 C397 0.930 . S
C404 N405 1.314 . S
C404 C406 1.353 . S
C404 H410 0.930 . S
N405 Li355 1.990 . S
N405 C404 1.314 . S
N405 C408 1.279 . S
C406 C404 1.353 . S
C406 C409 1.348 . S
C406 H438 0.929 . S
C407 C408 1.358 . S
C407 C409 1.356 . S
C407 H439 0.930 . S
C408 N405 1.279 . S
C408 C407 1.358 . S
C408 H411 0.930 . S
C409 C406 1.348 . S
C409 C407 1.356 . S
H410 C404 0.930 . S
H411 C408 0.930 . S
O412 Li352 1.956 . S
O412 Li353 1.970 . S
O412 Li354 1.961 . S
O412 C356 1.325 . S
O413 Li352 1.970 . S
O413 Li353 1.956 . S
O413 Li355 1.961 . S
O413 C362 1.325 . S
O414 Li352 1.961 . S
O414 Li354 1.956 . S
O414 Li355 1.970 . S
O414 C384 1.325 . S
O415 Li353 1.961 . S
O415 Li354 1.970 . S
O415 Li355 1.956 . S
O415 C390 1.325 . S
H416 C358 0.929 . S
H417 C359 0.930 . S
H418 C360 0.930 1_545 S
H419 C361 0.930 . S
H420 C363 0.930 . S
H421 C365 0.929 . S
H422 C366 0.930 . S
H423 C367 0.930 . S
H424 C370 0.930 . S
H425 C373 0.929 . S
H426 C378 0.929 . S
H427 C379 0.930 . S
H428 C386 0.929 . S
H429 C387 0.930 . S
H430 C388 0.930 . S
H431 C389 0.930 . S
H432 C391 0.929 . S
H433 C392 0.930 . S
H434 C393 0.930 . S
H435 C394 0.930 . S
H436 C398 0.929 . S
H437 C400 0.930 . S
H438 C406 0.929 . S
H439 C407 0.930 . S
Li440 N457 1.990 . S
Li440 O500 1.956 . S
Li440 O501 1.970 . S
Li440 O502 1.961 . S
Li441 N465 1.990 . S
Li441 O500 1.970 . S
Li441 O501 1.956 . S
Li441 O503 1.961 . S
Li442 N487 1.990 . S
Li442 O500 1.961 . S
Li442 O502 1.956 . S
Li442 O503 1.970 . S
Li443 N493 1.990 . S
Li443 O501 1.961 . S
Li443 O502 1.970 . S
Li443 O503 1.956 . S
C444 C446 1.348 . S
C444 C447 1.356 . S
C444 O500 1.325 . S
N445 C448 1.314 . S
N445 C449 1.279 . S
C446 C444 1.348 . S
C446 C448 1.353 1_556 S
C446 H504 0.929 . S
C447 C444 1.356 . S
C447 C449 1.358 1_556 S
C447 H505 0.930 . S
C448 N445 1.314 . S
C448 C446 1.353 1_554 S
C448 H506 0.930 . S
C449 N445 1.279 . S
C449 C447 1.358 1_554 S
C449 H507 0.930 . S
C450 C453 1.348 . S
C450 C454 1.356 . S
C450 O501 1.325 . S
C451 N452 1.279 . S
C451 C454 1.358 . S
C451 H508 0.930 . S
N452 C451 1.279 . S
N452 C455 1.314 . S
C453 C450 1.348 . S
C453 C455 1.353 . S
C453 H509 0.929 . S
C454 C450 1.356 . S
C454 C451 1.358 . S
C454 H510 0.930 . S
C455 N452 1.314 . S
C455 C453 1.353 . S
C455 H511 0.930 . S
C456 N457 1.314 . S
C456 C461 1.353 . S
C456 H462 0.930 . S
N457 Li440 1.990 . S
N457 C456 1.314 . S
N457 C459 1.279 . S
C458 C459 1.358 . S
C458 C460 1.356 . S
C458 H512 0.930 . S
C459 N457 1.279 . S
C459 C458 1.358 . S
C459 H463 0.930 . S
C460 C458 1.356 . S
C460 C461 1.348 . S
C461 C456 1.353 . S
C461 C460 1.348 . S
C461 H513 0.929 . S
H462 C456 0.930 . S
H463 C459 0.930 . S
C464 N465 1.314 . S
C464 C466 1.353 . S
C464 H470 0.930 . S
N465 Li441 1.990 . S
N465 C464 1.314 . S
N465 C468 1.279 . S
C466 C464 1.353 . S
C466 C469 1.348 . S
C466 H514 0.929 . S
C467 C468 1.358 . S
C467 C469 1.356 . S
C467 H515 0.930 . S
C468 N465 1.279 . S
C468 C467 1.358 . S
C468 H471 0.930 . S
C469 C466 1.348 . S
C469 C467 1.356 . S
H470 C464 0.930 . S
H471 C468 0.930 . S
C472 C474 1.348 . S
C472 C475 1.356 . S
C472 O502 1.325 . S
N473 C476 1.314 . S
N473 C477 1.279 . S
C474 C472 1.348 . S
C474 C476 1.353 . S
C474 H516 0.929 . S
C475 C472 1.356 . S
C475 C477 1.358 . S
C475 H517 0.930 . S
C476 N473 1.314 . S
C476 C474 1.353 . S
C476 H518 0.930 . S
C477 N473 1.279 . S
C477 C475 1.358 . S
C477 H519 0.930 . S
C478 C479 1.348 . S
C478 C480 1.356 . S
C478 O503 1.325 . S
C479 C478 1.348 . S
C479 C481 1.353 . S
C479 H520 0.929 . S
C480 C478 1.356 . S
C480 C482 1.358 . S
C480 H521 0.930 . S
C481 C479 1.353 . S
C481 N483 1.314 . S
C481 H522 0.930 . S
C482 C480 1.358 . S
C482 N483 1.279 . S
C482 H523 0.930 . S
N483 C481 1.314 . S
N483 C482 1.279 . S
C484 C486 1.353 . S
C484 N487 1.314 1_554 S
C484 H490 0.930 . S
C485 N487 1.279 . S
C485 C488 1.358 1_556 S
C485 H491 0.930 . S
C486 C484 1.353 . S
C486 C489 1.348 . S
C486 H524 0.929 . S
N487 Li442 1.990 . S
N487 C484 1.314 1_556 S
N487 C485 1.279 . S
C488 C485 1.358 1_554 S
C488 C489 1.356 . S
C488 H525 0.930 . S
C489 C486 1.348 . S
C489 C488 1.356 . S
H490 C484 0.930 . S
H491 C485 0.930 . S
C492 N493 1.314 . S
C492 C494 1.353 . S
C492 H498 0.930 . S
N493 Li443 1.990 . S
N493 C492 1.314 . S
N493 C496 1.279 . S
C494 C492 1.353 . S
C494 C497 1.348 . S
C494 H526 0.929 . S
C495 C496 1.358 . S
C495 C497 1.356 . S
C495 H527 0.930 . S
C496 N493 1.279 . S
C496 C495 1.358 . S
C496 H499 0.930 . S
C497 C494 1.348 . S
C497 C495 1.356 . S
H498 C492 0.930 . S
H499 C496 0.930 . S
O500 Li440 1.956 . S
O500 Li441 1.970 . S
O500 Li442 1.961 . S
O500 C444 1.325 . S
O501 Li440 1.970 . S
O501 Li441 1.956 . S
O501 Li443 1.961 . S
O501 C450 1.325 . S
O502 Li440 1.961 . S
O502 Li442 1.956 . S
O502 Li443 1.970 . S
O502 C472 1.325 . S
O503 Li441 1.961 . S
O503 Li442 1.970 . S
O503 Li443 1.956 . S
O503 C478 1.325 . S
H504 C446 0.929 . S
H505 C447 0.930 . S
H506 C448 0.930 . S
H507 C449 0.930 . S
H508 C451 0.930 . S
H509 C453 0.929 . S
H510 C454 0.930 . S
H511 C455 0.930 . S
H512 C458 0.930 . S
H513 C461 0.929 . S
H514 C466 0.929 . S
H515 C467 0.930 . S
H516 C474 0.929 . S
H517 C475 0.930 . S
H518 C476 0.930 . S
H519 C477 0.930 . S
H520 C479 0.929 . S
H521 C480 0.930 . S
H522 C481 0.930 . S
H523 C482 0.930 . S
H524 C486 0.929 . S
H525 C488 0.930 . S
H526 C494 0.929 . S
H527 C495 0.930 . S
Li528 N545 1.990 1_565 S
Li528 O588 1.956 . S
Li528 O589 1.970 . S
Li528 O590 1.961 . S
Li529 N553 1.990 . S
Li529 O588 1.970 . S
Li529 O589 1.956 . S
Li529 O591 1.961 . S
Li530 N575 1.990 . S
Li530 O588 1.961 . S
Li530 O590 1.956 . S
Li530 O591 1.970 . S
Li531 N581 1.990 . S
Li531 O589 1.961 . S
Li531 O590 1.970 . S
Li531 O591 1.956 . S
C532 C534 1.348 . S
C532 C535 1.356 . S
C532 O588 1.325 . S
N533 C536 1.314 . S
N533 C537 1.279 . S
C534 C532 1.348 . S
C534 C536 1.353 . S
C534 H592 0.929 . S
C535 C532 1.356 . S
C535 C537 1.358 . S
C535 H593 0.930 . S
C536 N533 1.314 . S
C536 C534 1.353 . S
C536 H594 0.930 . S
C537 N533 1.279 . S
C537 C535 1.358 . S
C537 H595 0.930 . S
C538 C541 1.348 . S
C538 C542 1.356 . S
C538 O589 1.325 . S
C539 N540 1.279 . S
C539 C542 1.358 . S
C539 H596 0.930 . S
N540 C539 1.279 . S
N540 C543 1.314 . S
C541 C538 1.348 . S
C541 C543 1.353 . S
C541 H597 0.929 . S
C542 C538 1.356 . S
C542 C539 1.358 . S
C542 H598 0.930 . S
C543 N540 1.314 . S
C543 C541 1.353 . S
C543 H599 0.930 1_565 S
C544 N545 1.314 . S
C544 C549 1.353 . S
C544 H550 0.930 1_545 S
N545 Li528 1.990 1_545 S
N545 C544 1.314 . S
N545 C547 1.279 . S
C546 C547 1.358 . S
C546 C548 1.356 . S
C546 H600 0.930 . S
C547 N545 1.279 . S
C547 C546 1.358 . S
C547 H551 0.930 . S
C548 C546 1.356 . S
C548 C549 1.348 . S
C549 C544 1.353 . S
C549 C548 1.348 . S
C549 H601 0.929 . S
H550 C544 0.930 1_565 S
H551 C547 0.930 . S
C552 N553 1.314 . S
C552 C554 1.353 . S
C552 H558 0.930 . S
N553 Li529 1.990 . S
N553 C552 1.314 . S
N553 C556 1.279 . S
C554 C552 1.353 . S
C554 C557 1.348 . S
C554 H602 0.929 . S
C555 C556 1.358 . S
C555 C557 1.356 . S
C555 H603 0.930 . S
C556 N553 1.279 . S
C556 C555 1.358 . S
C556 H559 0.930 . S
C557 C554 1.348 . S
C557 C555 1.356 . S
H558 C552 0.930 . S
H559 C556 0.930 . S
C560 C562 1.348 . S
C560 C563 1.356 . S
C560 O590 1.325 . S
N561 C564 1.314 . S
N561 C565 1.279 . S
C562 C560 1.348 . S
C562 C564 1.353 . S
C562 H604 0.929 . S
C563 C560 1.356 . S
C563 C565 1.358 . S
C563 H605 0.930 . S
C564 N561 1.314 . S
C564 C562 1.353 . S
C564 H606 0.930 . S
C565 N561 1.279 . S
C565 C563 1.358 . S
C565 H607 0.930 . S
C566 C567 1.348 . S
C566 C568 1.356 . S
C566 O591 1.325 . S
C567 C566 1.348 . S
C567 C569 1.353 . S
C567 H608 0.929 . S
C568 C566 1.356 . S
C568 C570 1.358 . S
C568 H609 0.930 . S
C569 C567 1.353 . S
C569 N571 1.314 . S
C569 H610 0.930 . S
C570 C568 1.358 . S
C570 N571 1.279 . S
C570 H611 0.930 . S
N571 C569 1.314 . S
N571 C570 1.279 . S
C572 C574 1.353 . S
C572 N575 1.314 . S
C572 H578 0.930 . S
C573 N575 1.279 . S
C573 C576 1.358 . S
C573 H579 0.930 . S
C574 C572 1.353 . S
C574 C577 1.348 . S
C574 H612 0.929 . S
N575 Li530 1.990 . S
N575 C572 1.314 . S
N575 C573 1.279 . S
C576 C573 1.358 . S
C576 C577 1.356 . S
C576 H613 0.930 . S
C577 C574 1.348 . S
C577 C576 1.356 . S
H578 C572 0.930 . S
H579 C573 0.930 . S
C580 N581 1.314 . S
C580 C582 1.353 . S
C580 H586 0.930 . S
N581 Li531 1.990 . S
N581 C580 1.314 . S
N581 C584 1.279 . S
C582 C580 1.353 . S
C582 C585 1.348 . S
C582 H614 0.929 . S
C583 C584 1.358 . S
C583 C585 1.356 . S
C583 H615 0.930 . S
C584 N581 1.279 . S
C584 C583 1.358 . S
C584 H587 0.930 . S
C585 C582 1.348 . S
C585 C583 1.356 . S
H586 C580 0.930 . S
H587 C584 0.930 . S
O588 Li528 1.956 . S
O588 Li529 1.970 . S
O588 Li530 1.961 . S
O588 C532 1.325 . S
O589 Li528 1.970 . S
O589 Li529 1.956 . S
O589 Li531 1.961 . S
O589 C538 1.325 . S
O590 Li528 1.961 . S
O590 Li530 1.956 . S
O590 Li531 1.970 . S
O590 C560 1.325 . S
O591 Li529 1.961 . S
O591 Li530 1.970 . S
O591 Li531 1.956 . S
O591 C566 1.325 . S
H592 C534 0.929 . S
H593 C535 0.930 . S
H594 C536 0.930 . S
H595 C537 0.930 . S
H596 C539 0.930 . S
H597 C541 0.929 . S
H598 C542 0.930 . S
H599 C543 0.930 1_545 S
H600 C546 0.930 . S
H601 C549 0.929 . S
H602 C554 0.929 . S
H603 C555 0.930 . S
H604 C562 0.929 . S
H605 C563 0.930 . S
H606 C564 0.930 . S
H607 C565 0.930 . S
H608 C567 0.929 . S
H609 C568 0.930 . S
H610 C569 0.930 . S
H611 C570 0.930 . S
H612 C574 0.929 . S
H613 C576 0.930 . S
H614 C582 0.929 . S
H615 C583 0.930 . S
Li616 N633 1.990 . S
Li616 O676 1.956 . S
Li616 O677 1.970 . S
Li616 O678 1.961 . S
Li617 N641 1.990 . S
Li617 O676 1.970 . S
Li617 O677 1.956 . S
Li617 O679 1.961 . S
Li618 N663 1.990 . S
Li618 O676 1.961 . S
Li618 O678 1.956 . S
Li618 O679 1.970 . S
Li619 N669 1.990 . S
Li619 O677 1.961 . S
Li619 O678 1.970 . S
Li619 O679 1.956 . S
C620 C622 1.348 . S
C620 C623 1.356 . S
C620 O676 1.325 . S
N621 C624 1.314 . S
N621 C625 1.279 . S
C622 C620 1.348 . S
C622 C624 1.353 . S
C622 H680 0.929 . S
C623 C620 1.356 . S
C623 C625 1.358 . S
C623 H681 0.930 . S
C624 N621 1.314 . S
C624 C622 1.353 . S
C624 H682 0.930 . S
C625 N621 1.279 . S
C625 C623 1.358 . S
C625 H683 0.930 . S
C626 C629 1.348 . S
C626 C630 1.356 . S
C626 O677 1.325 . S
C627 N628 1.279 . S
C627 C630 1.358 . S
C627 H684 0.930 . S
N628 C627 1.279 . S
N628 C631 1.314 . S
C629 C626 1.348 . S
C629 C631 1.353 . S
C629 H685 0.929 . S
C630 C626 1.356 . S
C630 C627 1.358 . S
C630 H686 0.930 . S
C631 N628 1.314 . S
C631 C629 1.353 . S
C631 H687 0.930 . S
C632 N633 1.314 . S
C632 C637 1.353 . S
C632 H638 0.930 . S
N633 Li616 1.990 . S
N633 C632 1.314 . S
N633 C635 1.279 . S
C634 C635 1.358 . S
C634 C636 1.356 . S
C634 H688 0.930 . S
C635 N633 1.279 . S
C635 C634 1.358 . S
C635 H639 0.930 . S
C636 C634 1.356 . S
C636 C637 1.348 . S
C637 C632 1.353 . S
C637 C636 1.348 . S
C637 H689 0.929 . S
H638 C632 0.930 . S
H639 C635 0.930 . S
C640 N641 1.314 . S
C640 C642 1.353 . S
C640 H646 0.930 . S
N641 Li617 1.990 . S
N641 C640 1.314 . S
N641 C644 1.279 . S
C642 C640 1.353 . S
C642 C645 1.348 . S
C642 H690 0.929 . S
C643 C644 1.358 . S
C643 C645 1.356 . S
C643 H691 0.930 . S
C644 N641 1.279 . S
C644 C643 1.358 . S
C644 H647 0.930 . S
C645 C642 1.348 . S
C645 C643 1.356 . S
H646 C640 0.930 . S
H647 C644 0.930 . S
C648 C650 1.348 . S
C648 C651 1.356 . S
C648 O678 1.325 . S
N649 C652 1.314 . S
N649 C653 1.279 . S
C650 C648 1.348 . S
C650 C652 1.353 . S
C650 H692 0.929 . S
C651 C648 1.356 . S
C651 C653 1.358 . S
C651 H693 0.930 . S
C652 N649 1.314 . S
C652 C650 1.353 . S
C652 H694 0.930 . S
C653 N649 1.279 . S
C653 C651 1.358 . S
C653 H695 0.930 . S
C654 C655 1.348 . S
C654 C656 1.356 . S
C654 O679 1.325 . S
C655 C654 1.348 . S
C655 C657 1.353 . S
C655 H696 0.929 . S
C656 C654 1.356 . S
C656 C658 1.358 . S
C656 H697 0.930 . S
C657 C655 1.353 . S
C657 N659 1.314 . S
C657 H698 0.930 . S
C658 C656 1.358 . S
C658 N659 1.279 . S
C658 H699 0.930 . S
N659 C657 1.314 . S
N659 C658 1.279 . S
C660 C662 1.353 . S
C660 N663 1.314 . S
C660 H666 0.930 . S
C661 N663 1.279 . S
C661 C664 1.358 . S
C661 H667 0.930 . S
C662 C660 1.353 . S
C662 C665 1.348 . S
C662 H700 0.929 . S
N663 Li618 1.990 . S
N663 C660 1.314 . S
N663 C661 1.279 . S
C664 C661 1.358 . S
C664 C665 1.356 . S
C664 H701 0.930 . S
C665 C662 1.348 . S
C665 C664 1.356 . S
H666 C660 0.930 . S
H667 C661 0.930 . S
C668 N669 1.314 . S
C668 C670 1.353 . S
C668 H674 0.930 . S
N669 Li619 1.990 . S
N669 C668 1.314 . S
N669 C672 1.279 . S
C670 C668 1.353 . S
C670 C673 1.348 . S
C670 H702 0.929 . S
C671 C672 1.358 . S
C671 C673 1.356 . S
C671 H703 0.930 . S
C672 N669 1.279 . S
C672 C671 1.358 . S
C672 H675 0.930 . S
C673 C670 1.348 . S
C673 C671 1.356 . S
H674 C668 0.930 . S
H675 C672 0.930 . S
O676 Li616 1.956 . S
O676 Li617 1.970 . S
O676 Li618 1.961 . S
O676 C620 1.325 . S
O677 Li616 1.970 . S
O677 Li617 1.956 . S
O677 Li619 1.961 . S
O677 C626 1.325 . S
O678 Li616 1.961 . S
O678 Li618 1.956 . S
O678 Li619 1.970 . S
O678 C648 1.325 . S
O679 Li617 1.961 . S
O679 Li618 1.970 . S
O679 Li619 1.956 . S
O679 C654 1.325 . S
H680 C622 0.929 . S
H681 C623 0.930 . S
H682 C624 0.930 . S
H683 C625 0.930 . S
H684 C627 0.930 . S
H685 C629 0.929 . S
H686 C630 0.930 . S
H687 C631 0.930 . S
H688 C634 0.930 . S
H689 C637 0.929 . S
H690 C642 0.929 . S
H691 C643 0.930 . S
H692 C650 0.929 . S
H693 C651 0.930 . S
H694 C652 0.930 . S
H695 C653 0.930 . S
H696 C655 0.929 . S
H697 C656 0.930 . S
H698 C657 0.930 . S
H699 C658 0.930 . S
H700 C662 0.929 . S
H701 C664 0.930 . S
H702 C670 0.929 . S
H703 C671 0.930 . S
Li704 N721 1.990 . S
Li704 O764 1.956 . S
Li704 O765 1.970 . S
Li704 O766 1.961 . S
Li705 N729 1.990 . S
Li705 O764 1.970 . S
Li705 O765 1.956 . S
Li705 O767 1.961 . S
Li706 N751 1.990 . S
Li706 O764 1.961 . S
Li706 O766 1.956 . S
Li706 O767 1.970 . S
Li707 N757 1.990 1_455 S
Li707 O765 1.961 . S
Li707 O766 1.970 . S
Li707 O767 1.956 . S
C708 C710 1.348 . S
C708 C711 1.356 . S
C708 O764 1.325 . S
N709 C712 1.314 . S
N709 C713 1.279 . S
C710 C708 1.348 . S
C710 C712 1.353 . S
C710 H768 0.929 . S
C711 C708 1.356 . S
C711 C713 1.358 . S
C711 H769 0.930 . S
C712 N709 1.314 . S
C712 C710 1.353 . S
C712 H770 0.930 . S
C713 N709 1.279 . S
C713 C711 1.358 . S
C713 H771 0.930 . S
C714 C717 1.348 . S
C714 C718 1.356 . S
C714 O765 1.325 . S
C715 N716 1.279 . S
C715 C718 1.358 . S
C715 H772 0.930 . S
N716 C715 1.279 . S
N716 C719 1.314 . S
C717 C714 1.348 . S
C717 C719 1.353 . S
C717 H773 0.929 . S
C718 C714 1.356 . S
C718 C715 1.358 . S
C718 H774 0.930 . S
C719 N716 1.314 . S
C719 C717 1.353 . S
C719 H775 0.930 . S
C720 N721 1.314 1_556 S
C720 C725 1.353 . S
C720 H726 0.930 . S
N721 Li704 1.990 . S
N721 C720 1.314 1_554 S
N721 C723 1.279 . S
C722 C723 1.358 1_556 S
C722 C724 1.356 . S
C722 H776 0.930 . S
C723 N721 1.279 . S
C723 C722 1.358 1_554 S
C723 H727 0.930 . S
C724 C722 1.356 . S
C724 C725 1.348 . S
C725 C720 1.353 . S
C725 C724 1.348 . S
C725 H777 0.929 . S
H726 C720 0.930 . S
H727 C723 0.930 . S
C728 N729 1.314 . S
C728 C730 1.353 . S
C728 H734 0.930 . S
N729 Li705 1.990 . S
N729 C728 1.314 . S
N729 C732 1.279 . S
C730 C728 1.353 . S
C730 C733 1.348 . S
C730 H778 0.929 . S
C731 C732 1.358 . S
C731 C733 1.356 . S
C731 H779 0.930 . S
C732 N729 1.279 . S
C732 C731 1.358 . S
C732 H735 0.930 . S
C733 C730 1.348 . S
C733 C731 1.356 . S
H734 C728 0.930 . S
H735 C732 0.930 . S
C736 C738 1.348 . S
C736 C739 1.356 . S
C736 O766 1.325 . S
N737 C740 1.314 . S
N737 C741 1.279 . S
C738 C736 1.348 . S
C738 C740 1.353 1_554 S
C738 H780 0.929 . S
C739 C736 1.356 . S
C739 C741 1.358 1_554 S
C739 H781 0.930 . S
C740 N737 1.314 . S
C740 C738 1.353 1_556 S
C740 H782 0.930 1_455 S
C741 N737 1.279 . S
C741 C739 1.358 1_556 S
C741 H783 0.930 . S
C742 C743 1.348 . S
C742 C744 1.356 . S
C742 O767 1.325 . S
C743 C742 1.348 . S
C743 C745 1.353 . S
C743 H784 0.929 . S
C744 C742 1.356 . S
C744 C746 1.358 . S
C744 H785 0.930 . S
C745 C743 1.353 . S
C745 N747 1.314 . S
C745 H786 0.930 . S
C746 C744 1.358 . S
C746 N747 1.279 . S
C746 H787 0.930 . S
N747 C745 1.314 . S
N747 C746 1.279 . S
C748 C750 1.353 . S
C748 N751 1.314 . S
C748 H754 0.930 . S
C749 N751 1.279 . S
C749 C752 1.358 . S
C749 H755 0.930 . S
C750 C748 1.353 . S
C750 C753 1.348 . S
C750 H788 0.929 . S
N751 Li706 1.990 . S
N751 C748 1.314 . S
N751 C749 1.279 . S
C752 C749 1.358 . S
C752 C753 1.356 . S
C752 H789 0.930 . S
C753 C750 1.348 . S
C753 C752 1.356 . S
H754 C748 0.930 . S
H755 C749 0.930 . S
C756 N757 1.314 . S
C756 C758 1.353 . S
C756 H762 0.930 1_655 S
N757 Li707 1.990 1_655 S
N757 C756 1.314 . S
N757 C760 1.279 . S
C758 C756 1.353 . S
C758 C761 1.348 . S
C758 H790 0.929 . S
C759 C760 1.358 . S
C759 C761 1.356 . S
C759 H791 0.930 . S
C760 N757 1.279 . S
C760 C759 1.358 . S
C760 H763 0.930 . S
C761 C758 1.348 . S
C761 C759 1.356 . S
H762 C756 0.930 1_455 S
H763 C760 0.930 . S
O764 Li704 1.956 . S
O764 Li705 1.970 . S
O764 Li706 1.961 . S
O764 C708 1.325 . S
O765 Li704 1.970 . S
O765 Li705 1.956 . S
O765 Li707 1.961 . S
O765 C714 1.325 . S
O766 Li704 1.961 . S
O766 Li706 1.956 . S
O766 Li707 1.970 . S
O766 C736 1.325 . S
O767 Li705 1.961 . S
O767 Li706 1.970 . S
O767 Li707 1.956 . S
O767 C742 1.325 . S
H768 C710 0.929 . S
H769 C711 0.930 . S
H770 C712 0.930 . S
H771 C713 0.930 . S
H772 C715 0.930 . S
H773 C717 0.929 . S
H774 C718 0.930 . S
H775 C719 0.930 . S
H776 C722 0.930 . S
H777 C725 0.929 . S
H778 C730 0.929 . S
H779 C731 0.930 . S
H780 C738 0.929 . S
H781 C739 0.930 . S
H782 C740 0.930 1_655 S
H783 C741 0.930 . S
H784 C743 0.929 . S
H785 C744 0.930 . S
H786 C745 0.930 . S
H787 C746 0.930 . S
H788 C750 0.929 . S
H789 C752 0.930 . S
H790 C758 0.929 . S
H791 C759 0.930 . S
Li792 N809 1.990 1_545 S
Li792 O852 1.956 . S
Li792 O853 1.970 . S
Li792 O854 1.961 . S
Li793 N817 1.990 . S
Li793 O852 1.970 . S
Li793 O853 1.956 . S
Li793 O855 1.961 . S
Li794 N839 1.990 . S
Li794 O852 1.961 . S
Li794 O854 1.956 . S
Li794 O855 1.970 . S
Li795 N845 1.990 . S
Li795 O853 1.961 . S
Li795 O854 1.970 . S
Li795 O855 1.956 . S
C796 C798 1.348 . S
C796 C799 1.356 . S
C796 O852 1.325 . S
N797 C800 1.314 . S
N797 C801 1.279 . S
C798 C796 1.348 . S
C798 C800 1.353 . S
C798 H856 0.929 . S
C799 C796 1.356 . S
C799 C801 1.358 . S
C799 H857 0.930 . S
C800 N797 1.314 . S
C800 C798 1.353 . S
C800 H858 0.930 . S
C801 N797 1.279 . S
C801 C799 1.358 . S
C801 H859 0.930 . S
C802 C805 1.348 . S
C802 C806 1.356 . S
C802 O853 1.325 . S
C803 N804 1.279 . S
C803 C806 1.358 . S
C803 H860 0.930 . S
N804 C803 1.279 . S
N804 C807 1.314 . S
C805 C802 1.348 . S
C805 C807 1.353 . S
C805 H861 0.929 . S
C806 C802 1.356 . S
C806 C803 1.358 . S
C806 H862 0.930 . S
C807 N804 1.314 . S
C807 C805 1.353 . S
C807 H863 0.930 1_545 S
C808 N809 1.314 . S
C808 C813 1.353 . S
C808 H814 0.930 1_565 S
N809 Li792 1.990 1_565 S
N809 C808 1.314 . S
N809 C811 1.279 . S
C810 C811 1.358 . S
C810 C812 1.356 . S
C810 H864 0.930 . S
C811 N809 1.279 . S
C811 C810 1.358 . S
C811 H815 0.930 . S
C812 C810 1.356 . S
C812 C813 1.348 . S
C813 C808 1.353 . S
C813 C812 1.348 . S
C813 H865 0.929 . S
H814 C808 0.930 1_545 S
H815 C811 0.930 . S
C816 N817 1.314 . S
C816 C818 1.353 . S
C816 H822 0.930 . S
N817 Li793 1.990 . S
N817 C816 1.314 . S
N817 C820 1.279 . S
C818 C816 1.353 . S
C818 C821 1.348 . S
C818 H866 0.929 . S
C819 C820 1.358 . S
C819 C821 1.356 . S
C819 H867 0.930 . S
C820 N817 1.279 . S
C820 C819 1.358 . S
C820 H823 0.930 . S
C821 C818 1.348 . S
C821 C819 1.356 . S
H822 C816 0.930 . S
H823 C820 0.930 . S
C824 C826 1.348 . S
C824 C827 1.356 . S
C824 O854 1.325 . S
N825 C828 1.314 . S
N825 C829 1.279 . S
C826 C824 1.348 . S
C826 C828 1.353 . S
C826 H868 0.929 . S
C827 C824 1.356 . S
C827 C829 1.358 . S
C827 H869 0.930 . S
C828 N825 1.314 . S
C828 C826 1.353 . S
C828 H870 0.930 . S
C829 N825 1.279 . S
C829 C827 1.358 . S
C829 H871 0.930 . S
C830 C831 1.348 . S
C830 C832 1.356 . S
C830 O855 1.325 . S
C831 C830 1.348 . S
C831 C833 1.353 . S
C831 H872 0.929 . S
C832 C830 1.356 . S
C832 C834 1.358 . S
C832 H873 0.930 . S
C833 C831 1.353 . S
C833 N835 1.314 . S
C833 H874 0.930 . S
C834 C832 1.358 . S
C834 N835 1.279 . S
C834 H875 0.930 . S
N835 C833 1.314 . S
N835 C834 1.279 . S
C836 C838 1.353 . S
C836 N839 1.314 . S
C836 H842 0.930 . S
C837 N839 1.279 . S
C837 C840 1.358 . S
C837 H843 0.930 . S
C838 C836 1.353 . S
C838 C841 1.348 . S
C838 H876 0.929 . S
N839 Li794 1.990 . S
N839 C836 1.314 . S
N839 C837 1.279 . S
C840 C837 1.358 . S
C840 C841 1.356 . S
C840 H877 0.930 . S
C841 C838 1.348 . S
C841 C840 1.356 . S
H842 C836 0.930 . S
H843 C837 0.930 . S
C844 N845 1.314 . S
C844 C846 1.353 . S
C844 H850 0.930 . S
N845 Li795 1.990 . S
N845 C844 1.314 . S
N845 C848 1.279 . S
C846 C844 1.353 . S
C846 C849 1.348 . S
C846 H878 0.929 . S
C847 C848 1.358 . S
C847 C849 1.356 . S
C847 H879 0.930 . S
C848 N845 1.279 . S
C848 C847 1.358 . S
C848 H851 0.930 . S
C849 C846 1.348 . S
C849 C847 1.356 . S
H850 C844 0.930 . S
H851 C848 0.930 . S
O852 Li792 1.956 . S
O852 Li793 1.970 . S
O852 Li794 1.961 . S
O852 C796 1.325 . S
O853 Li792 1.970 . S
O853 Li793 1.956 . S
O853 Li795 1.961 . S
O853 C802 1.325 . S
O854 Li792 1.961 . S
O854 Li794 1.956 . S
O854 Li795 1.970 . S
O854 C824 1.325 . S
O855 Li793 1.961 . S
O855 Li794 1.970 . S
O855 Li795 1.956 . S
O855 C830 1.325 . S
H856 C798 0.929 . S
H857 C799 0.930 . S
H858 C800 0.930 . S
H859 C801 0.930 . S
H860 C803 0.930 . S
H861 C805 0.929 . S
H862 C806 0.930 . S
H863 C807 0.930 1_565 S
H864 C810 0.930 . S
H865 C813 0.929 . S
H866 C818 0.929 . S
H867 C819 0.930 . S
H868 C826 0.929 . S
H869 C827 0.930 . S
H870 C828 0.930 . S
H871 C829 0.930 . S
H872 C831 0.929 . S
H873 C832 0.930 . S
H874 C833 0.930 . S
H875 C834 0.930 . S
H876 C838 0.929 . S
H877 C840 0.930 . S
H878 C846 0.929 . S
H879 C847 0.930 . S
Li880 N897 1.990 . S
Li880 O940 1.956 . S
Li880 O941 1.970 . S
Li880 O942 1.961 . S
Li881 N905 1.990 . S
Li881 O940 1.970 . S
Li881 O941 1.956 . S
Li881 O943 1.961 . S
Li882 N927 1.990 . S
Li882 O940 1.961 . S
Li882 O942 1.956 . S
Li882 O943 1.970 . S
Li883 N933 1.990 . S
Li883 O941 1.961 . S
Li883 O942 1.970 . S
Li883 O943 1.956 . S
C884 C886 1.348 . S
C884 C887 1.356 . S
C884 O940 1.325 . S
N885 C888 1.314 . S
N885 C889 1.279 . S
C886 C884 1.348 . S
C886 C888 1.353 . S
C886 H944 0.929 . S
C887 C884 1.356 . S
C887 C889 1.358 . S
C887 H945 0.930 . S
C888 N885 1.314 . S
C888 C886 1.353 . S
C888 H946 0.930 . S
C889 N885 1.279 . S
C889 C887 1.358 . S
C889 H947 0.930 . S
C890 C893 1.348 . S
C890 C894 1.356 . S
C890 O941 1.325 . S
C891 N892 1.279 . S
C891 C894 1.358 . S
C891 H948 0.930 . S
N892 C891 1.279 . S
N892 C895 1.314 . S
C893 C890 1.348 . S
C893 C895 1.353 . S
C893 H949 0.929 . S
C894 C890 1.356 . S
C894 C891 1.358 . S
C894 H950 0.930 . S
C895 N892 1.314 . S
C895 C893 1.353 . S
C895 H951 0.930 . S
C896 N897 1.314 . S
C896 C901 1.353 . S
C896 H902 0.930 . S
N897 Li880 1.990 . S
N897 C896 1.314 . S
N897 C899 1.279 . S
C898 C899 1.358 . S
C898 C900 1.356 . S
C898 H952 0.930 . S
C899 N897 1.279 . S
C899 C898 1.358 . S
C899 H903 0.930 . S
C900 C898 1.356 . S
C900 C901 1.348 . S
C901 C896 1.353 . S
C901 C900 1.348 . S
C901 H953 0.929 . S
H902 C896 0.930 . S
H903 C899 0.930 . S
C904 N905 1.314 . S
C904 C906 1.353 . S
C904 H910 0.930 . S
N905 Li881 1.990 . S
N905 C904 1.314 . S
N905 C908 1.279 . S
C906 C904 1.353 . S
C906 C909 1.348 . S
C906 H954 0.929 . S
C907 C908 1.358 . S
C907 C909 1.356 . S
C907 H955 0.930 . S
C908 N905 1.279 . S
C908 C907 1.358 . S
C908 H911 0.930 . S
C909 C906 1.348 . S
C909 C907 1.356 . S
H910 C904 0.930 . S
H911 C908 0.930 . S
C912 C914 1.348 . S
C912 C915 1.356 . S
C912 O942 1.325 . S
N913 C916 1.314 . S
N913 C917 1.279 . S
C914 C912 1.348 . S
C914 C916 1.353 . S
C914 H956 0.929 . S
C915 C912 1.356 . S
C915 C917 1.358 . S
C915 H957 0.930 . S
C916 N913 1.314 . S
C916 C914 1.353 . S
C916 H958 0.930 . S
C917 N913 1.279 . S
C917 C915 1.358 . S
C917 H959 0.930 . S
C918 C919 1.348 . S
C918 C920 1.356 . S
C918 O943 1.325 . S
C919 C918 1.348 . S
C919 C921 1.353 . S
C919 H960 0.929 . S
C920 C918 1.356 . S
C920 C922 1.358 . S
C920 H961 0.930 . S
C921 C919 1.353 . S
C921 N923 1.314 . S
C921 H962 0.930 . S
C922 C920 1.358 . S
C922 N923 1.279 . S
C922 H963 0.930 . S
N923 C921 1.314 . S
N923 C922 1.279 . S
C924 C926 1.353 . S
C924 N927 1.314 . S
C924 H930 0.930 . S
C925 N927 1.279 . S
C925 C928 1.358 . S
C925 H931 0.930 . S
C926 C924 1.353 . S
C926 C929 1.348 . S
C926 H964 0.929 . S
N927 Li882 1.990 . S
N927 C924 1.314 . S
N927 C925 1.279 . S
C928 C925 1.358 . S
C928 C929 1.356 . S
C928 H965 0.930 . S
C929 C926 1.348 . S
C929 C928 1.356 . S
H930 C924 0.930 . S
H931 C925 0.930 . S
C932 N933 1.314 . S
C932 C934 1.353 . S
C932 H938 0.930 . S
N933 Li883 1.990 . S
N933 C932 1.314 . S
N933 C936 1.279 . S
C934 C932 1.353 . S
C934 C937 1.348 . S
C934 H966 0.929 . S
C935 C936 1.358 . S
C935 C937 1.356 . S
C935 H967 0.930 . S
C936 N933 1.279 . S
C936 C935 1.358 . S
C936 H939 0.930 . S
C937 C934 1.348 . S
C937 C935 1.356 . S
H938 C932 0.930 . S
H939 C936 0.930 . S
O940 Li880 1.956 . S
O940 Li881 1.970 . S
O940 Li882 1.961 . S
O940 C884 1.325 . S
O941 Li880 1.970 . S
O941 Li881 1.956 . S
O941 Li883 1.961 . S
O941 C890 1.325 . S
O942 Li880 1.961 . S
O942 Li882 1.956 . S
O942 Li883 1.970 . S
O942 C912 1.325 . S
O943 Li881 1.961 . S
O943 Li882 1.970 . S
O943 Li883 1.956 . S
O943 C918 1.325 . S
H944 C886 0.929 . S
H945 C887 0.930 . S
H946 C888 0.930 . S
H947 C889 0.930 . S
H948 C891 0.930 . S
H949 C893 0.929 . S
H950 C894 0.930 . S
H951 C895 0.930 . S
H952 C898 0.930 . S
H953 C901 0.929 . S
H954 C906 0.929 . S
H955 C907 0.930 . S
H956 C914 0.929 . S
H957 C915 0.930 . S
H958 C916 0.930 . S
H959 C917 0.930 . S
H960 C919 0.929 . S
H961 C920 0.930 . S
H962 C921 0.930 . S
H963 C922 0.930 . S
H964 C926 0.929 . S
H965 C928 0.930 . S
H966 C934 0.929 . S
H967 C935 0.930 . S
Li968 N985 1.990 1_655 S
Li968 O1028 1.956 . S
Li968 O1029 1.970 . S
Li968 O1030 1.961 . S
Li969 N993 1.990 . S
Li969 O1028 1.970 . S
Li969 O1029 1.956 . S
Li969 O1031 1.961 . S
Li970 N1015 1.990 . S
Li970 O1028 1.961 . S
Li970 O1030 1.956 . S
Li970 O1031 1.970 . S
Li971 N1021 1.990 . S
Li971 O1029 1.961 . S
Li971 O1030 1.970 . S
Li971 O1031 1.956 . S
C972 C974 1.348 . S
C972 C975 1.356 . S
C972 O1028 1.325 . S
N973 C976 1.314 . S
N973 C977 1.279 . S
C974 C972 1.348 . S
C974 C976 1.353 . S
C974 H1032 0.929 . S
C975 C972 1.356 . S
C975 C977 1.358 . S
C975 H1033 0.930 . S
C976 N973 1.314 . S
C976 C974 1.353 . S
C976 H1034 0.930 . S
C977 N973 1.279 . S
C977 C975 1.358 . S
C977 H1035 0.930 . S
C978 C981 1.348 . S
C978 C982 1.356 . S
C978 O1029 1.325 . S
C979 N980 1.279 . S
C979 C982 1.358 . S
C979 H1036 0.930 . S
N980 C979 1.279 . S
N980 C983 1.314 . S
C981 C978 1.348 . S
C981 C983 1.353 . S
C981 H1037 0.929 . S
C982 C978 1.356 . S
C982 C979 1.358 . S
C982 H1038 0.930 . S
C983 N980 1.314 . S
C983 C981 1.353 . S
C983 H1039 0.930 1_655 S
C984 N985 1.314 . S
C984 C989 1.353 . S
C984 H990 0.930 1_455 S
N985 Li968 1.990 1_455 S
N985 C984 1.314 . S
N985 C987 1.279 . S
C986 C987 1.358 . S
C986 C988 1.356 . S
C986 H1040 0.930 . S
C987 N985 1.279 . S
C987 C986 1.358 . S
C987 H991 0.930 . S
C988 C986 1.356 . S
C988 C989 1.348 . S
C989 C984 1.353 . S
C989 C988 1.348 . S
C989 H1041 0.929 . S
H990 C984 0.930 1_655 S
H991 C987 0.930 . S
C992 N993 1.314 . S
C992 C994 1.353 . S
C992 H998 0.930 . S
N993 Li969 1.990 . S
N993 C992 1.314 . S
N993 C996 1.279 . S
C994 C992 1.353 . S
C994 C997 1.348 . S
C994 H1042 0.929 . S
C995 C996 1.358 . S
C995 C997 1.356 . S
C995 H1043 0.930 . S
C996 N993 1.279 . S
C996 C995 1.358 . S
C996 H999 0.930 . S
C997 C994 1.348 . S
C997 C995 1.356 . S
H998 C992 0.930 . S
H999 C996 0.930 . S
C1000 C1002 1.348 . S
C1000 C1003 1.356 . S
C1000 O1030 1.325 . S
N1001 C1004 1.314 . S
N1001 C1005 1.279 . S
C1002 C1000 1.348 . S
C1002 C1004 1.353 . S
C1002 H1044 0.929 . S
C1003 C1000 1.356 . S
C1003 C1005 1.358 . S
C1003 H1045 0.930 . S
C1004 N1001 1.314 . S
C1004 C1002 1.353 . S
C1004 H1046 0.930 . S
C1005 N1001 1.279 . S
C1005 C1003 1.358 . S
C1005 H1047 0.930 . S
C1006 C1007 1.348 . S
C1006 C1008 1.356 . S
C1006 O1031 1.325 . S
C1007 C1006 1.348 . S
C1007 C1009 1.353 . S
C1007 H1048 0.929 . S
C1008 C1006 1.356 . S
C1008 C1010 1.358 . S
C1008 H1049 0.930 . S
C1009 C1007 1.353 . S
C1009 N1011 1.314 . S
C1009 H1050 0.930 . S
C1010 C1008 1.358 . S
C1010 N1011 1.279 . S
C1010 H1051 0.930 . S
N1011 C1009 1.314 . S
N1011 C1010 1.279 . S
C1012 C1014 1.353 . S
C1012 N1015 1.314 . S
C1012 H1018 0.930 . S
C1013 N1015 1.279 . S
C1013 C1016 1.358 . S
C1013 H1019 0.930 . S
C1014 C1012 1.353 . S
C1014 C1017 1.348 . S
C1014 H1052 0.929 . S
N1015 Li970 1.990 . S
N1015 C1012 1.314 . S
N1015 C1013 1.279 . S
C1016 C1013 1.358 . S
C1016 C1017 1.356 . S
C1016 H1053 0.930 . S
C1017 C1014 1.348 . S
C1017 C1016 1.356 . S
H1018 C1012 0.930 . S
H1019 C1013 0.930 . S
C1020 N1021 1.314 . S
C1020 C1022 1.353 . S
C1020 H1026 0.930 . S
N1021 Li971 1.990 . S
N1021 C1020 1.314 . S
N1021 C1024 1.279 . S
C1022 C1020 1.353 . S
C1022 C1025 1.348 . S
C1022 H1054 0.929 . S
C1023 C1024 1.358 . S
C1023 C1025 1.356 . S
C1023 H1055 0.930 . S
C1024 N1021 1.279 . S
C1024 C1023 1.358 . S
C1024 H1027 0.930 . S
C1025 C1022 1.348 . S
C1025 C1023 1.356 . S
H1026 C1020 0.930 . S
H1027 C1024 0.930 . S
O1028 Li968 1.956 . S
O1028 Li969 1.970 . S
O1028 Li970 1.961 . S
O1028 C972 1.325 . S
O1029 Li968 1.970 . S
O1029 Li969 1.956 . S
O1029 Li971 1.961 . S
O1029 C978 1.325 . S
O1030 Li968 1.961 . S
O1030 Li970 1.956 . S
O1030 Li971 1.970 . S
O1030 C1000 1.325 . S
O1031 Li969 1.961 . S
O1031 Li970 1.970 . S
O1031 Li971 1.956 . S
O1031 C1006 1.325 . S
H1032 C974 0.929 . S
H1033 C975 0.930 . S
H1034 C976 0.930 . S
H1035 C977 0.930 . S
H1036 C979 0.930 . S
H1037 C981 0.929 . S
H1038 C982 0.930 . S
H1039 C983 0.930 1_455 S
H1040 C986 0.930 . S
H1041 C989 0.929 . S
H1042 C994 0.929 . S
H1043 C995 0.930 . S
H1044 C1002 0.929 . S
H1045 C1003 0.930 . S
H1046 C1004 0.930 . S
H1047 C1005 0.930 . S
H1048 C1007 0.929 . S
H1049 C1008 0.930 . S
H1050 C1009 0.930 . S
H1051 C1010 0.930 . S
H1052 C1014 0.929 . S
H1053 C1016 0.930 . S
H1054 C1022 0.929 . S
H1055 C1023 0.930 . S
C1056 C1057 1.387 . S
C1056 H1060 0.950 . S
C1056 C1065 1.390 . S
C1057 C1056 1.387 . S
C1057 C1059 1.387 . S
H1058 C1065 0.950 . S
C1059 C1057 1.387 . S
C1059 C1061 1.390 . S
C1059 H1063 0.950 . S
H1060 C1056 0.950 . S
C1061 C1059 1.390 . S
C1061 C1062 1.387 . S
C1061 H1064 0.950 . S
C1062 C1061 1.387 . S
C1062 C1065 1.387 . S
H1063 C1059 0.950 . S
H1064 C1061 0.950 . S
C1065 C1056 1.390 . S
C1065 H1058 0.950 . S
C1065 C1062 1.387 . S
C1066 C1067 1.387 . S
C1066 H1070 0.950 . S
C1066 C1075 1.390 . S
C1067 C1066 1.387 . S
C1067 C1069 1.387 . S
H1068 C1075 0.950 . S
C1069 C1067 1.387 . S
C1069 C1071 1.390 . S
C1069 H1073 0.950 . S
H1070 C1066 0.950 . S
C1071 C1069 1.390 . S
C1071 C1072 1.387 . S
C1071 H1074 0.950 . S
C1072 C1071 1.387 . S
C1072 C1075 1.387 . S
H1073 C1069 0.950 . S
H1074 C1071 0.950 . S
C1075 C1066 1.390 . S
C1075 H1068 0.950 . S
C1075 C1072 1.387 . S
C1076 C1077 1.387 . S
C1076 H1080 0.950 . S
C1076 C1085 1.390 . S
C1077 C1076 1.387 . S
C1077 C1079 1.387 . S
H1078 C1085 0.950 . S
C1079 C1077 1.387 . S
C1079 C1081 1.390 . S
C1079 H1083 0.950 . S
H1080 C1076 0.950 . S
C1081 C1079 1.390 . S
C1081 C1082 1.387 . S
C1081 H1084 0.950 . S
C1082 C1081 1.387 . S
C1082 C1085 1.387 . S
H1083 C1079 0.950 . S
H1084 C1081 0.950 . S
C1085 C1076 1.390 . S
C1085 H1078 0.950 . S
C1085 C1082 1.387 . S
C1086 C1087 1.387 . S
C1086 H1090 0.950 . S
C1086 C1095 1.390 . S
C1087 C1086 1.387 . S
C1087 C1089 1.387 . S
H1088 C1095 0.950 . S
C1089 C1087 1.387 . S
C1089 C1091 1.390 . S
C1089 H1093 0.950 . S
H1090 C1086 0.950 . S
C1091 C1089 1.390 . S
C1091 C1092 1.387 . S
C1091 H1094 0.950 . S
C1092 C1091 1.387 . S
C1092 C1095 1.387 . S
H1093 C1089 0.950 . S
H1094 C1091 0.950 . S
C1095 C1086 1.390 . S
C1095 H1088 0.950 . S
C1095 C1092 1.387 . S
C1096 C1097 1.387 . S
C1096 H1100 0.950 . S
C1096 C1105 1.390 . S
C1097 C1096 1.387 . S
C1097 C1099 1.387 . S
H1098 C1105 0.950 . S
C1099 C1097 1.387 . S
C1099 C1101 1.390 . S
C1099 H1103 0.950 . S
H1100 C1096 0.950 . S
C1101 C1099 1.390 . S
C1101 C1102 1.387 . S
C1101 H1104 0.950 . S
C1102 C1101 1.387 . S
C1102 C1105 1.387 . S
H1103 C1099 0.950 . S
H1104 C1101 0.950 . S
C1105 C1096 1.390 . S
C1105 H1098 0.950 . S
C1105 C1102 1.387 . S
C1106 C1107 1.387 . S
C1106 H1110 0.950 . S
C1106 C1115 1.390 . S
C1107 C1106 1.387 . S
C1107 C1109 1.387 . S
H1108 C1115 0.950 . S
C1109 C1107 1.387 . S
C1109 C1111 1.390 . S
C1109 H1113 0.950 . S
H1110 C1106 0.950 . S
C1111 C1109 1.390 . S
C1111 C1112 1.387 . S
C1111 H1114 0.950 . S
C1112 C1111 1.387 . S
C1112 C1115 1.387 . S
H1113 C1109 0.950 . S
H1114 C1111 0.950 . S
C1115 C1106 1.390 . S
C1115 H1108 0.950 . S
C1115 C1112 1.387 . S
C1116 C1117 1.387 1_556 S
C1116 H1120 0.959 . S
C1116 C1125 1.390 . S
C1117 C1116 1.387 1_554 S
C1117 C1119 1.387 1_554 S
H1118 C1125 0.950 . S
C1119 C1117 1.387 1_556 S
C1119 C1121 1.390 . S
C1119 H1123 0.950 1_556 S
H1120 C1116 0.959 . S
C1121 C1119 1.390 . S
C1121 C1122 1.387 . S
C1121 H1124 0.950 . S
C1122 C1121 1.387 . S
C1122 C1125 1.387 . S
H1123 C1119 0.950 1_554 S
H1124 C1121 0.950 . S
C1125 C1116 1.390 . S
C1125 H1118 0.950 . S
C1125 C1122 1.387 . S
C1126 C1127 1.387 . S
C1126 H1130 0.950 . S
C1126 C1135 1.390 . S
C1127 C1126 1.387 . S
C1127 C1129 1.387 . S
H1128 C1135 0.950 . S
C1129 C1127 1.387 . S
C1129 C1131 1.390 . S
C1129 H1133 0.950 . S
H1130 C1126 0.950 . S
C1131 C1129 1.390 . S
C1131 C1132 1.387 . S
C1131 H1134 0.950 . S
C1132 C1131 1.387 . S
C1132 C1135 1.387 . S
H1133 C1129 0.950 . S
H1134 C1131 0.950 . S
C1135 C1126 1.390 . S
C1135 H1128 0.950 . S
C1135 C1132 1.387 . S
C1136 C1137 1.387 . S
C1136 H1140 0.950 . S
C1136 C1145 1.390 . S
C1137 C1136 1.387 . S
C1137 C1139 1.387 . S
H1138 C1145 0.950 . S
C1139 C1137 1.387 . S
C1139 C1141 1.390 . S
C1139 H1143 0.950 . S
H1140 C1136 0.950 . S
C1141 C1139 1.390 . S
C1141 C1142 1.387 . S
C1141 H1144 0.950 . S
C1142 C1141 1.387 . S
C1142 C1145 1.387 . S
H1143 C1139 0.950 . S
H1144 C1141 0.950 . S
C1145 C1136 1.390 . S
C1145 H1138 0.950 . S
C1145 C1142 1.387 . S
C1146 C1147 1.387 . S
C1146 H1150 0.950 . S
C1146 C1155 1.390 . S
C1147 C1146 1.387 . S
C1147 C1149 1.387 . S
H1148 C1155 0.950 . S
C1149 C1147 1.387 . S
C1149 C1151 1.390 . S
C1149 H1153 0.950 . S
H1150 C1146 0.950 . S
C1151 C1149 1.390 . S
C1151 C1152 1.387 . S
C1151 H1154 0.950 . S
C1152 C1151 1.387 . S
C1152 C1155 1.387 . S
H1153 C1149 0.950 . S
H1154 C1151 0.950 . S
C1155 C1146 1.390 . S
C1155 H1148 0.950 . S
C1155 C1152 1.387 . S
C1156 C1157 1.387 . S
C1156 H1160 0.950 . S
C1156 C1165 1.390 . S
C1157 C1156 1.387 . S
C1157 C1159 1.387 . S
H1158 C1165 0.950 . S
C1159 C1157 1.387 . S
C1159 C1161 1.390 . S
C1159 H1163 0.950 . S
H1160 C1156 0.950 . S
C1161 C1159 1.390 . S
C1161 C1162 1.387 . S
C1161 H1164 0.950 . S
C1162 C1161 1.387 . S
C1162 C1165 1.387 . S
H1163 C1159 0.950 . S
H1164 C1161 0.950 . S
C1165 C1156 1.390 . S
C1165 H1158 0.950 . S
C1165 C1162 1.387 . S
C1166 C1167 1.387 . S
C1166 H1170 0.950 . S
C1166 C1175 1.390 . S
C1167 C1166 1.387 . S
C1167 C1169 1.387 . S
H1168 C1175 0.950 . S
C1169 C1167 1.387 . S
C1169 C1171 1.390 . S
C1169 H1173 0.950 . S
H1170 C1166 0.950 . S
C1171 C1169 1.390 . S
C1171 C1172 1.387 . S
C1171 H1174 0.950 . S
C1172 C1171 1.387 . S
C1172 C1175 1.387 . S
H1173 C1169 0.950 . S
H1174 C1171 0.950 . S
C1175 C1166 1.390 . S
C1175 H1168 0.950 . S
C1175 C1172 1.387 . S
C1176 C1177 1.387 . S
C1176 H1180 0.950 . S
C1176 C1185 1.390 . S
C1177 C1176 1.387 . S
C1177 C1179 1.387 . S
H1178 C1185 0.950 . S
C1179 C1177 1.387 . S
C1179 C1181 1.390 . S
C1179 H1183 0.950 . S
H1180 C1176 0.950 . S
C1181 C1179 1.390 . S
C1181 C1182 1.387 . S
C1181 H1184 0.950 . S
C1182 C1181 1.387 . S
C1182 C1185 1.387 . S
H1183 C1179 0.950 . S
H1184 C1181 0.950 . S
C1185 C1176 1.390 . S
C1185 H1178 0.950 . S
C1185 C1182 1.387 . S
C1186 C1187 1.386 1_554 S
C1186 H1190 0.944 1_554 S
C1186 C1195 1.397 . S
C1187 C1186 1.386 1_556 S
C1187 C1189 1.387 1_556 S
H1188 C1195 0.950 . S
C1189 C1187 1.387 1_554 S
C1189 C1191 1.390 . S
C1189 H1193 0.950 . S
H1190 C1186 0.944 1_556 S
C1191 C1189 1.390 . S
C1191 C1192 1.387 . S
C1191 H1194 0.950 . S
C1192 C1191 1.387 . S
C1192 C1195 1.387 . S
H1193 C1189 0.950 . S
H1194 C1191 0.950 . S
C1195 C1186 1.397 . S
C1195 H1188 0.950 . S
C1195 C1192 1.387 . S
C1196 C1197 1.387 . S
C1196 H1200 0.950 . S
C1196 C1205 1.390 . S
C1197 C1196 1.387 . S
C1197 C1199 1.387 . S
H1198 C1205 0.950 . S
C1199 C1197 1.387 . S
C1199 C1201 1.390 . S
C1199 H1203 0.950 . S
H1200 C1196 0.950 . S
C1201 C1199 1.390 . S
C1201 C1202 1.387 . S
C1201 H1204 0.950 . S
C1202 C1201 1.387 . S
C1202 C1205 1.387 . S
H1203 C1199 0.950 . S
H1204 C1201 0.950 . S
C1205 C1196 1.390 . S
C1205 H1198 0.950 . S
C1205 C1202 1.387 . S
C1206 C1207 1.387 . S
C1206 H1210 0.950 . S
C1206 C1215 1.390 . S
C1207 C1206 1.387 . S
C1207 C1209 1.387 . S
H1208 C1215 0.950 . S
C1209 C1207 1.387 . S
C1209 C1211 1.390 . S
C1209 H1213 0.950 . S
H1210 C1206 0.950 . S
C1211 C1209 1.390 . S
C1211 C1212 1.387 . S
C1211 H1214 0.950 . S
C1212 C1211 1.387 . S
C1212 C1215 1.387 . S
H1213 C1209 0.950 . S
H1214 C1211 0.950 . S
C1215 C1206 1.390 . S
C1215 H1208 0.950 . S
C1215 C1212 1.387 . S
C1216 C1217 1.387 . S
C1216 H1220 0.950 . S
C1216 C1225 1.390 . S
C1217 C1216 1.387 . S
C1217 C1219 1.387 . S
H1218 C1225 0.950 . S
C1219 C1217 1.387 . S
C1219 C1221 1.390 . S
C1219 H1223 0.950 . S
H1220 C1216 0.950 . S
C1221 C1219 1.390 . S
C1221 C1222 1.387 . S
C1221 H1224 0.950 . S
C1222 C1221 1.387 . S
C1222 C1225 1.387 . S
H1223 C1219 0.950 . S
H1224 C1221 0.950 . S
C1225 C1216 1.390 . S
C1225 H1218 0.950 . S
C1225 C1222 1.387 . S
C1226 C1227 1.387 . S
C1226 H1230 0.950 . S
C1226 C1235 1.390 . S
C1227 C1226 1.387 . S
C1227 C1229 1.387 . S
H1228 C1235 0.950 . S
C1229 C1227 1.387 . S
C1229 C1231 1.390 . S
C1229 H1233 0.950 . S
H1230 C1226 0.950 . S
C1231 C1229 1.390 . S
C1231 C1232 1.387 . S
C1231 H1234 0.950 . S
C1232 C1231 1.387 . S
C1232 C1235 1.387 . S
H1233 C1229 0.950 . S
H1234 C1231 0.950 . S
C1235 C1226 1.390 . S
C1235 H1228 0.950 . S
C1235 C1232 1.387 . S
C1236 C1237 1.387 . S
C1236 H1240 0.950 . S
C1236 C1245 1.390 . S
C1237 C1236 1.387 . S
C1237 C1239 1.387 . S
H1238 C1245 0.950 . S
C1239 C1237 1.387 . S
C1239 C1241 1.390 . S
C1239 H1243 0.950 . S
H1240 C1236 0.950 . S
C1241 C1239 1.390 . S
C1241 C1242 1.387 . S
C1241 H1244 0.950 . S
C1242 C1241 1.387 . S
C1242 C1245 1.387 . S
H1243 C1239 0.950 . S
H1244 C1241 0.950 . S
C1245 C1236 1.390 . S
C1245 H1238 0.950 . S
C1245 C1242 1.387 . S
C1246 C1247 1.387 . S
C1246 H1250 0.950 . S
C1246 C1255 1.390 . S
C1247 C1246 1.387 . S
C1247 C1249 1.387 . S
H1248 C1255 0.950 . S
C1249 C1247 1.387 . S
C1249 C1251 1.390 . S
C1249 H1253 0.950 . S
H1250 C1246 0.950 . S
C1251 C1249 1.390 . S
C1251 C1252 1.387 . S
C1251 H1254 0.950 . S
C1252 C1251 1.387 . S
C1252 C1255 1.387 . S
H1253 C1249 0.950 . S
H1254 C1251 0.950 . S
C1255 C1246 1.390 . S
C1255 H1248 0.950 . S
C1255 C1252 1.387 . S
C1256 C1257 1.387 . S
C1256 H1260 0.950 . S
C1256 C1265 1.390 . S
C1257 C1256 1.387 . S
C1257 C1259 1.387 . S
H1258 C1265 0.950 . S
C1259 C1257 1.387 . S
C1259 C1261 1.390 . S
C1259 H1263 0.950 . S
H1260 C1256 0.950 . S
C1261 C1259 1.390 . S
C1261 C1262 1.387 . S
C1261 H1264 0.950 . S
C1262 C1261 1.387 . S
C1262 C1265 1.387 . S
H1263 C1259 0.950 . S
H1264 C1261 0.950 . S
C1265 C1256 1.390 . S
C1265 H1258 0.950 . S
C1265 C1262 1.387 . S
C1266 C1267 1.387 . S
C1266 H1270 0.950 . S
C1266 C1275 1.390 . S
C1267 C1266 1.387 . S
C1267 C1269 1.387 . S
H1268 C1275 0.950 . S
C1269 C1267 1.387 . S
C1269 C1271 1.390 . S
C1269 H1273 0.950 . S
H1270 C1266 0.950 . S
C1271 C1269 1.390 . S
C1271 C1272 1.387 . S
C1271 H1274 0.950 . S
C1272 C1271 1.387 . S
C1272 C1275 1.387 . S
H1273 C1269 0.950 . S
H1274 C1271 0.950 . S
C1275 C1266 1.390 . S
C1275 H1268 0.950 . S
C1275 C1272 1.387 . S
C1276 C1277 1.387 . S
C1276 H1280 0.950 . S
C1276 C1285 1.390 . S
C1277 C1276 1.387 . S
C1277 C1279 1.387 . S
H1278 C1285 0.950 . S
C1279 C1277 1.387 . S
C1279 C1281 1.390 . S
C1279 H1283 0.950 . S
H1280 C1276 0.950 . S
C1281 C1279 1.390 . S
C1281 C1282 1.387 . S
C1281 H1284 0.950 . S
C1282 C1281 1.387 . S
C1282 C1285 1.387 . S
H1283 C1279 0.950 . S
H1284 C1281 0.950 . S
C1285 C1276 1.390 . S
C1285 H1278 0.950 . S
C1285 C1282 1.387 . S
C1286 C1287 1.387 . S
C1286 H1290 0.950 . S
C1286 C1295 1.390 . S
C1287 C1286 1.387 . S
C1287 C1289 1.387 . S
H1288 C1295 0.950 . S
C1289 C1287 1.387 . S
C1289 C1291 1.390 . S
C1289 H1293 0.950 . S
H1290 C1286 0.950 . S
C1291 C1289 1.390 . S
C1291 C1292 1.387 . S
C1291 H1294 0.950 . S
C1292 C1291 1.387 . S
C1292 C1295 1.387 . S
H1293 C1289 0.950 . S
H1294 C1291 0.950 . S
C1295 C1286 1.390 . S
C1295 H1288 0.950 . S
C1295 C1292 1.387 . S
C1057 C753 1.465 . S
C1062 C57 1.465 . S
C1067 C145 1.464 . S
C1072 C821 1.464 . S
C1077 C233 1.465 . S
C1082 C900 1.465 . S
C1087 C293 1.464 . S
C1092 C997 1.464 . S
C1097 C557 1.464 . S
C1102 C372 1.464 . S
C1107 C460 1.466 . S
C1112 C645 1.467 . S
C1117 C20 1.576 . S
C1122 C469 1.557 . S
C1127 C108 1.577 . S
C1132 C49 1.557 . S
C1137 C196 1.577 . S
C1142 C137 1.557 . S
C1147 C225 1.557 . S
C1152 C313 1.576 . S
C1157 C284 1.555 . S
C1162 C409 1.577 . S
C1167 C381 1.556 . S
C1172 C497 1.578 . S
C1177 C636 1.558 . S
C1182 C577 1.576 . S
C1187 C665 1.577 . S
C1192 C761 1.555 . S
C1197 C812 1.557 . S
C1202 C733 1.577 . S
C1207 C841 1.577 . S
C1212 C909 1.557 . S
C1217 C937 1.576 . S
C1222 C988 1.557 . S
C1227 C1017 1.576 . S
C1232 C548 1.556 . S
C1237 C929 1.224 . S
C1242 C29 1.224 . S
C1247 C1025 1.224 . S
C1252 C117 1.223 . S
C1257 C585 1.224 . S
C1262 C205 1.223 . S
C1267 C321 1.223 . S
C1272 C673 1.223 . S
C1277 C401 1.224 . S
C1282 C724 1.223 . S
C1287 C849 1.224 . S
C1292 C489 1.223 . S
