# Generated by pormake.
# Topology fny, (5)-cn, num edge types: 1
# Building blocks:
#     Node 0, Type 0, BuildingBlock: XOMCOT_clean_sbu_0, # of connection points: 5
#     Node 1, Type 0, BuildingBlock: XOMCOT_clean_sbu_0, # of connection points: 5
#     Node 2, Type 0, BuildingBlock: XOMCOT_clean_sbu_0, # of connection points: 5
#     Node 3, Type 0, BuildingBlock: XOMCOT_clean_sbu_0, # of connection points: 5
#     Node 4, Type 0, BuildingBlock: XOMCOT_clean_sbu_0, # of connection points: 5
#     Node 5, Type 0, BuildingBlock: XOMCOT_clean_sbu_0, # of connection points: 5
#     Node 6, Type 0, BuildingBlock: XOMCOT_clean_sbu_0, # of connection points: 5
#     Node 7, Type 0, BuildingBlock: XOMCOT_clean_sbu_0, # of connection points: 5
#     Node 8, Type 0, BuildingBlock: XOMCOT_clean_sbu_0, # of connection points: 5
#     Node 9, Type 0, BuildingBlock: XOMCOT_clean_sbu_0, # of connection points: 5
#     Node 10, Type 0, BuildingBlock: XOMCOT_clean_sbu_0, # of connection points: 5
#     Node 11, Type 0, BuildingBlock: XOMCOT_clean_sbu_0, # of connection points: 5
#     Edge 12, Type (0, 0), BuildingBlock: UVAHIK_clean_linker_0, # of connection points: 2
#     Edge 13, Type (0, 0), BuildingBlock: UVAHIK_clean_linker_0, # of connection points: 2
#     Edge 14, Type (0, 0), BuildingBlock: UVAHIK_clean_linker_0, # of connection points: 2
#     Edge 15, Type (0, 0), BuildingBlock: UVAHIK_clean_linker_0, # of connection points: 2
#     Edge 16, Type (0, 0), BuildingBlock: UVAHIK_clean_linker_0, # of connection points: 2
#     Edge 17, Type (0, 0), BuildingBlock: UVAHIK_clean_linker_0, # of connection points: 2
#     Edge 18, Type (0, 0), BuildingBlock: UVAHIK_clean_linker_0, # of connection points: 2
#     Edge 19, Type (0, 0), BuildingBlock: UVAHIK_clean_linker_0, # of connection points: 2
#     Edge 20, Type (0, 0), BuildingBlock: UVAHIK_clean_linker_0, # of connection points: 2
#     Edge 21, Type (0, 0), BuildingBlock: UVAHIK_clean_linker_0, # of connection points: 2
#     Edge 22, Type (0, 0), BuildingBlock: UVAHIK_clean_linker_0, # of connection points: 2
#     Edge 23, Type (0, 0), BuildingBlock: UVAHIK_clean_linker_0, # of connection points: 2
#     Edge 24, Type (0, 0), BuildingBlock: UVAHIK_clean_linker_0, # of connection points: 2
#     Edge 25, Type (0, 0), BuildingBlock: UVAHIK_clean_linker_0, # of connection points: 2
#     Edge 26, Type (0, 0), BuildingBlock: UVAHIK_clean_linker_0, # of connection points: 2
#     Edge 27, Type (0, 0), BuildingBlock: UVAHIK_clean_linker_0, # of connection points: 2
#     Edge 28, Type (0, 0), BuildingBlock: UVAHIK_clean_linker_0, # of connection points: 2
#     Edge 29, Type (0, 0), BuildingBlock: UVAHIK_clean_linker_0, # of connection points: 2
#     Edge 30, Type (0, 0), BuildingBlock: UVAHIK_clean_linker_0, # of connection points: 2
#     Edge 31, Type (0, 0), BuildingBlock: UVAHIK_clean_linker_0, # of connection points: 2
#     Edge 32, Type (0, 0), BuildingBlock: UVAHIK_clean_linker_0, # of connection points: 2
#     Edge 33, Type (0, 0), BuildingBlock: UVAHIK_clean_linker_0, # of connection points: 2
#     Edge 34, Type (0, 0), BuildingBlock: UVAHIK_clean_linker_0, # of connection points: 2
#     Edge 35, Type (0, 0), BuildingBlock: UVAHIK_clean_linker_0, # of connection points: 2
#     Edge 36, Type (0, 0), BuildingBlock: UVAHIK_clean_linker_0, # of connection points: 2
#     Edge 37, Type (0, 0), BuildingBlock: UVAHIK_clean_linker_0, # of connection points: 2
#     Edge 38, Type (0, 0), BuildingBlock: UVAHIK_clean_linker_0, # of connection points: 2
#     Edge 39, Type (0, 0), BuildingBlock: UVAHIK_clean_linker_0, # of connection points: 2
#     Edge 40, Type (0, 0), BuildingBlock: UVAHIK_clean_linker_0, # of connection points: 2
#     Edge 41, Type (0, 0), BuildingBlock: UVAHIK_clean_linker_0, # of connection points: 2
# Relax obj value: 0.256
# Max RMSD: 0.234
# Mean RMSD: 0.234
data_MOF--net-fny--node1-XOMCOT_clean_sbu_0--edge1-UVAHIK_clean_linker_0
_symmetry_space_group_name_H-M    P1
_symmetry_Int_Tables_number       1
_symmetry_cell_setting            triclinic
loop_
_symmetry_equiv_pos_as_xyz
'x, y, z'
_cell_length_a     77.524865
_cell_length_b     77.563602
_cell_length_c     31.209285
_cell_angle_alpha  90.055874
_cell_angle_beta   90.045699
_cell_angle_gamma 120.01839
loop_
_atom_site_label
_atom_site_type_symbol
_atom_site_fract_x
_atom_site_fract_y
_atom_site_fract_z
_atom_type_partial_charge
Co0 Co 0.35085 0.52358 0.27877 0.0
C1 C 0.38453 0.53533 0.33556 0.0
C2 C 0.38952 0.55972 0.295 0.0
C3 C 0.40682 0.56495 0.31742 0.0
N4 N 0.37571 0.54109 0.30635 0.0
N5 N 0.40356 0.54948 0.3426 0.0
H6 H 0.37749 0.52058 0.34942 0.0
H7 H 0.38748 0.56857 0.27097 0.0
C8 C 0.35999 0.53254 0.1843 0.0
O9 O 0.3494 0.51334 0.17645 0.0
N10 N 0.32563 0.50585 0.25145 0.0
C11 C 0.3133 0.48623 0.25844 0.0
C12 C 0.29693 0.47962 0.23233 0.0
C13 C 0.31606 0.51106 0.22273 0.0
N14 N 0.29877 0.49524 0.20978 0.0
C15 C 0.35455 0.48873 0.29047 0.0
C16 C 0.38684 0.50001 0.2371 0.0
C17 C 0.37961 0.48232 0.26043 0.0
C18 C 0.36326 0.47676 0.28745 0.0
C19 C 0.37784 0.5117 0.24149 0.0
N20 N 0.36132 0.50567 0.2666 0.0
H21 H 0.34309 0.48486 0.31413 0.0
H22 H 0.38509 0.52615 0.22659 0.0
H23 H 0.31557 0.47714 0.28116 0.0
H24 H 0.32202 0.526 0.21037 0.0
O25 O 0.33862 0.51312 0.33414 0.0
O26 O 0.33925 0.53884 0.3024 0.0
O27 O 0.36198 0.53893 0.22294 0.0
C28 C 0.33367 0.52684 0.33514 0.0
H29 H 0.42072 0.5789 0.31501 0.0
H30 H 0.28461 0.4645 0.23008 0.0
H31 H 0.40001 0.50534 0.21733 0.0
H32 H 0.35748 0.46347 0.30695 0.0
Co33 Co 0.83244 0.34236 0.77147 0.0
C34 C 0.85508 0.37901 0.8235 0.0
C35 C 0.82955 0.37768 0.79383 0.0
C36 C 0.84071 0.39614 0.81268 0.0
N37 N 0.83897 0.3672 0.79955 0.0
N38 N 0.85695 0.39699 0.83071 0.0
H39 H 0.86517 0.37467 0.83618 0.0
H40 H 0.81615 0.37269 0.77502 0.0
C41 C 0.84157 0.37224 0.70123 0.0
O42 O 0.85715 0.38455 0.72416 0.0
N43 N 0.82569 0.31769 0.74372 0.0
C44 C 0.83123 0.30452 0.75599 0.0
C45 C 0.82471 0.28964 0.72568 0.0
C46 C 0.81592 0.31077 0.70643 0.0
N47 N 0.8152 0.2937 0.69449 0.0
C48 C 0.87149 0.35057 0.7969 0.0
C49 C 0.89 0.36296 0.71847 0.0
C50 C 0.90173 0.36591 0.75501 0.0
C51 C 0.89207 0.35871 0.79424 0.0
C52 C 0.86935 0.35486 0.72282 0.0
N53 N 0.86066 0.35072 0.76249 0.0
H54 H 0.8645 0.34524 0.82766 0.0
H55 H 0.86054 0.3523 0.69427 0.0
H56 H 0.83988 0.30594 0.78434 0.0
H57 H 0.8096 0.31815 0.68829 0.0
O58 O 0.8288 0.32973 0.82694 0.0
O59 O 0.80488 0.331 0.79145 0.0
O60 O 0.83035 0.35426 0.71424 0.0
C61 C 0.81029 0.32524 0.82565 0.0
H62 H 0.8374 0.40812 0.81187 0.0
H63 H 0.82739 0.27722 0.72584 0.0
H64 H 0.89676 0.36745 0.6871 0.0
H65 H 0.9004 0.35968 0.8229 0.0
Co66 Co 0.49048 0.82898 0.28079 0.0
C67 C 0.4733 0.84968 0.3307 0.0
C68 C 0.45097 0.82157 0.30566 0.0
C69 C 0.44164 0.83091 0.32399 0.0
N70 N 0.47087 0.83352 0.30925 0.0
N71 N 0.45581 0.84872 0.33911 0.0
H72 H 0.48737 0.86201 0.3402 0.0
H73 H 0.44376 0.80747 0.28885 0.0
C74 C 0.46847 0.83686 0.21165 0.0
O75 O 0.4708 0.85185 0.23547 0.0
N76 N 0.50938 0.8239 0.25232 0.0
C77 C 0.52916 0.83271 0.25917 0.0
C78 C 0.53717 0.82574 0.22897 0.0
C79 C 0.50551 0.81158 0.21893 0.0
N80 N 0.52221 0.81245 0.20393 0.0
C81 C 0.51919 0.86866 0.30756 0.0
C82 C 0.52602 0.88687 0.22856 0.0
C83 C 0.53453 0.89875 0.26506 0.0
C84 C 0.53153 0.88924 0.30471 0.0
C85 C 0.51359 0.86623 0.23302 0.0
N86 N 0.50892 0.85758 0.27271 0.0
H87 H 0.51714 0.86176 0.33858 0.0
H88 H 0.50772 0.85732 0.20444 0.0
H89 H 0.53723 0.84377 0.28359 0.0
H90 H 0.49087 0.80278 0.20479 0.0
O91 O 0.50013 0.82573 0.33583 0.0
O92 O 0.47579 0.80118 0.29961 0.0
O93 O 0.47623 0.82639 0.22371 0.0
C94 C 0.48698 0.80691 0.3338 0.0
H95 H 0.42576 0.8253 0.32486 0.0
H96 H 0.55276 0.83027 0.22532 0.0
H97 H 0.52855 0.89348 0.19699 0.0
H98 H 0.53857 0.89768 0.3335 0.0
Co99 Co 0.66657 0.48769 0.78275 0.0
C100 C 0.6305 0.47487 0.83615 0.0
C101 C 0.63249 0.45012 0.81181 0.0
C102 C 0.61429 0.44301 0.83153 0.0
N103 N 0.64241 0.47017 0.81373 0.0
N104 N 0.61297 0.45869 0.84632 0.0
H105 H 0.63444 0.48971 0.84521 0.0
H106 H 0.63765 0.44136 0.79494 0.0
C107 C 0.63551 0.46428 0.71566 0.0
O108 O 0.62306 0.46725 0.73872 0.0
N109 N 0.69055 0.50482 0.7522 0.0
C110 C 0.70299 0.52437 0.75909 0.0
C111 C 0.71738 0.5314 0.72773 0.0
C112 C 0.69748 0.50011 0.71738 0.0
N113 N 0.71381 0.51612 0.70143 0.0
C114 C 0.65893 0.5193 0.80421 0.0
C115 C 0.64372 0.52201 0.7262 0.0
C116 C 0.64215 0.53247 0.76133 0.0
C117 C 0.65087 0.53175 0.80012 0.0
C118 C 0.65213 0.50982 0.73175 0.0
N119 N 0.65773 0.507 0.77154 0.0
H120 H 0.6651 0.51875 0.83482 0.0
H121 H 0.65382 0.50253 0.70398 0.0
H122 H 0.70137 0.533 0.78437 0.0
H123 H 0.69055 0.48528 0.70391 0.0
O124 O 0.68054 0.49855 0.83636 0.0
O125 O 0.67844 0.47223 0.80424 0.0
O126 O 0.65378 0.47204 0.72753 0.0
C127 C 0.68514 0.4846 0.83645 0.0
H128 H 0.60277 0.42754 0.83342 0.0
H129 H 0.72908 0.54671 0.72381 0.0
H130 H 0.638 0.52271 0.69499 0.0
H131 H 0.65115 0.54045 0.82755 0.0
Co132 Co 0.188 0.6671 0.27313 0.0
C133 C 0.16605 0.63317 0.32831 0.0
C134 C 0.18429 0.62769 0.28513 0.0
C135 C 0.17115 0.61004 0.30502 0.0
N136 N 0.1808 0.64204 0.29953 0.0
N137 N 0.15945 0.61353 0.33146 0.0
H138 H 0.1594 0.6408 0.34426 0.0
H139 H 0.19453 0.62952 0.25969 0.0
C140 C 0.18351 0.65644 0.17907 0.0
O141 O 0.17308 0.6655 0.17546 0.0
N142 N 0.19549 0.69258 0.24694 0.0
C143 C 0.19184 0.70697 0.26062 0.0
C144 C 0.19988 0.72248 0.23184 0.0
C145 C 0.20685 0.7002 0.21176 0.0
N146 N 0.20905 0.71798 0.20083 0.0
C147 C 0.15022 0.6656 0.28398 0.0
C148 C 0.12737 0.63011 0.24097 0.0
C149 C 0.11773 0.63909 0.26122 0.0
C150 C 0.1295 0.65715 0.28281 0.0
C151 C 0.14811 0.63909 0.24285 0.0
N152 N 0.15948 0.65697 0.26317 0.0
H153 H 0.15858 0.67843 0.30399 0.0
H154 H 0.15485 0.63096 0.22987 0.0
H155 H 0.18432 0.70671 0.28984 0.0
H156 H 0.2135 0.69294 0.19438 0.0
O157 O 0.19053 0.67883 0.32942 0.0
O158 O 0.21519 0.6785 0.29482 0.0
O159 O 0.19092 0.65602 0.21561 0.0
C160 C 0.20921 0.68376 0.3289 0.0
H161 H 0.16954 0.5956 0.2985 0.0
H162 H 0.19866 0.73578 0.23315 0.0
H163 H 0.11894 0.61576 0.22543 0.0
H164 H 0.12277 0.66453 0.29959 0.0
Co165 Co 0.53095 0.18303 0.78028 0.0
C166 C 0.54291 0.1607 0.83457 0.0
C167 C 0.56733 0.18067 0.79473 0.0
C168 C 0.57245 0.16813 0.81543 0.0
N169 N 0.54875 0.1758 0.80677 0.0
N170 N 0.55685 0.15538 0.83974 0.0
H171 H 0.52831 0.15317 0.8492 0.0
H172 H 0.57608 0.19174 0.77091 0.0
C173 C 0.53835 0.18104 0.68595 0.0
O174 O 0.5189 0.17095 0.68096 0.0
N175 N 0.51301 0.19051 0.75392 0.0
C176 C 0.49397 0.18484 0.76409 0.0
C177 C 0.48698 0.19357 0.7359 0.0
C178 C 0.51762 0.20353 0.72153 0.0
N179 N 0.50184 0.20507 0.7088 0.0
C180 C 0.49552 0.14462 0.79044 0.0
C181 C 0.50793 0.12326 0.74117 0.0
C182 C 0.4897 0.11296 0.76266 0.0
C183 C 0.48357 0.12391 0.78769 0.0
C184 C 0.51956 0.14394 0.7453 0.0
N185 N 0.51301 0.15462 0.7683 0.0
H186 H 0.49122 0.15236 0.81277 0.0
H187 H 0.53434 0.15111 0.73183 0.0
H188 H 0.48557 0.17524 0.79016 0.0
H189 H 0.5322 0.2115 0.70693 0.0
O190 O 0.52092 0.18463 0.83627 0.0
O191 O 0.54617 0.20993 0.80385 0.0
O192 O 0.54573 0.18713 0.72346 0.0
C193 C 0.53444 0.20338 0.83709 0.0
H194 H 0.58616 0.16784 0.81144 0.0
H195 H 0.47195 0.19106 0.73449 0.0
H196 H 0.51366 0.11529 0.72304 0.0
H197 H 0.46984 0.1165 0.80583 0.0
Co198 Co 0.48951 0.66536 0.73838 0.0
C199 C 0.47814 0.63126 0.68324 0.0
C200 C 0.45362 0.62653 0.72308 0.0
C201 C 0.44886 0.60885 0.70297 0.0
N202 N 0.47208 0.64042 0.7109 0.0
N203 N 0.46448 0.61184 0.6785 0.0
H204 H 0.49275 0.63854 0.66874 0.0
H205 H 0.44477 0.62872 0.74687 0.0
C206 C 0.48129 0.65557 0.83269 0.0
O207 O 0.50059 0.66591 0.83962 0.0
N208 N 0.50696 0.69063 0.76597 0.0
C209 C 0.52643 0.70365 0.75895 0.0
C210 C 0.53263 0.71935 0.78697 0.0
C211 C 0.50143 0.69917 0.79647 0.0
N212 N 0.51692 0.71637 0.81092 0.0
C213 C 0.52506 0.66284 0.72714 0.0
C214 C 0.51311 0.62896 0.77551 0.0
C215 C 0.53122 0.63697 0.75332 0.0
C216 C 0.53717 0.65426 0.72911 0.0
C217 C 0.5015 0.63809 0.77287 0.0
N218 N 0.50774 0.65525 0.74993 0.0
H219 H 0.5291 0.67483 0.70483 0.0
H220 H 0.48686 0.63043 0.78697 0.0
H221 H 0.53572 0.70226 0.73527 0.0
H222 H 0.48635 0.69264 0.80838 0.0
O223 O 0.4996 0.67749 0.68282 0.0
O224 O 0.47398 0.67677 0.71538 0.0
O225 O 0.47449 0.654 0.79452 0.0
C226 C 0.48575 0.68227 0.68219 0.0
H227 H 0.43537 0.59473 0.70781 0.0
H228 H 0.54771 0.73163 0.7903 0.0
H229 H 0.50737 0.61512 0.79305 0.0
H230 H 0.55084 0.66088 0.71074 0.0
Co231 Co 0.83273 0.48889 0.23647 0.0
C232 C 0.8539 0.47659 0.17597 0.0
C233 C 0.82999 0.45143 0.20728 0.0
C234 C 0.8402 0.44482 0.1822 0.0
N235 N 0.83909 0.47147 0.20435 0.0
N236 N 0.85516 0.46079 0.16281 0.0
H237 H 0.86376 0.49145 0.1648 0.0
H238 H 0.81727 0.44235 0.2274 0.0
C239 C 0.84105 0.46567 0.30259 0.0
O240 O 0.85639 0.46883 0.27899 0.0
N241 N 0.82621 0.50611 0.26773 0.0
C242 C 0.83361 0.52571 0.26088 0.0
C243 C 0.82608 0.53288 0.29155 0.0
C244 C 0.81415 0.50147 0.30184 0.0
N245 N 0.81387 0.5176 0.3171 0.0
C246 C 0.872 0.52032 0.21407 0.0
C247 C 0.89023 0.52342 0.29188 0.0
C248 C 0.90214 0.53378 0.25658 0.0
C249 C 0.89254 0.53283 0.21786 0.0
C250 C 0.8696 0.51114 0.28659 0.0
N251 N 0.86101 0.50815 0.24692 0.0
H252 H 0.86507 0.51998 0.18386 0.0
H253 H 0.86072 0.50397 0.31452 0.0
H254 H 0.84398 0.53424 0.23574 0.0
H255 H 0.80623 0.48677 0.31593 0.0
O256 O 0.82914 0.49973 0.18332 0.0
O257 O 0.80523 0.47337 0.21596 0.0
O258 O 0.83031 0.47325 0.29129 0.0
C259 C 0.81061 0.48568 0.18376 0.0
H260 H 0.83685 0.42959 0.17824 0.0
H261 H 0.82934 0.54812 0.2949 0.0
H262 H 0.89678 0.52431 0.32304 0.0
H263 H 0.90085 0.54152 0.19036 0.0
Co264 Co 0.35144 0.82738 0.73484 0.0
C265 C 0.3862 0.84889 0.68144 0.0
C266 C 0.38977 0.82863 0.72219 0.0
C267 C 0.40772 0.84093 0.70223 0.0
N268 N 0.37644 0.83386 0.70916 0.0
N269 N 0.40541 0.85387 0.67738 0.0
H270 H 0.37955 0.8567 0.66625 0.0
H271 H 0.38703 0.81756 0.74633 0.0
C272 C 0.36061 0.82994 0.8295 0.0
O273 O 0.35156 0.84035 0.83375 0.0
N274 N 0.32607 0.82067 0.76043 0.0
C275 C 0.31313 0.82677 0.74941 0.0
C276 C 0.2974 0.81873 0.77762 0.0
C277 C 0.31737 0.80806 0.79336 0.0
N278 N 0.3003 0.80721 0.80561 0.0
C279 C 0.35539 0.86609 0.72244 0.0
C280 C 0.38894 0.88726 0.77265 0.0
C281 C 0.38137 0.89768 0.75032 0.0
C282 C 0.36443 0.88684 0.72475 0.0
C283 C 0.37962 0.86655 0.76893 0.0
N284 N 0.36247 0.85597 0.74555 0.0
H285 H 0.34347 0.8584 0.6998 0.0
H286 H 0.38694 0.85924 0.78313 0.0
H287 H 0.31466 0.83625 0.72281 0.0
H288 H 0.32362 0.79992 0.8087 0.0
O289 O 0.34013 0.82552 0.67828 0.0
O290 O 0.33931 0.80025 0.71256 0.0
O291 O 0.36174 0.82346 0.79235 0.0
C292 C 0.33454 0.80668 0.67851 0.0
H293 H 0.42157 0.841 0.70721 0.0
H294 H 0.28519 0.82174 0.7784 0.0
H295 H 0.40253 0.89512 0.79121 0.0
H296 H 0.35842 0.89435 0.70594 0.0
Co297 Co 0.52788 0.34509 0.23908 0.0
C298 C 0.53928 0.37725 0.1793 0.0
C299 C 0.56301 0.38482 0.22414 0.0
C300 C 0.56732 0.40156 0.2005 0.0
N301 N 0.54532 0.36972 0.2108 0.0
N302 N 0.55224 0.39665 0.17262 0.0
H303 H 0.52481 0.36907 0.16416 0.0
H304 H 0.57156 0.38412 0.25078 0.0
C305 C 0.53513 0.3558 0.33281 0.0
O306 O 0.51566 0.34635 0.33728 0.0
N307 N 0.51021 0.32005 0.26701 0.0
C308 C 0.49117 0.30643 0.25738 0.0
C309 C 0.48443 0.2911 0.28648 0.0
C310 C 0.51507 0.31218 0.3001 0.0
N311 N 0.49944 0.29495 0.31365 0.0
C312 C 0.4922 0.34755 0.22717 0.0
C313 C 0.50454 0.38204 0.27394 0.0
C314 C 0.48619 0.37361 0.2527 0.0
C315 C 0.4801 0.35618 0.22888 0.0
C316 C 0.51629 0.3731 0.27087 0.0
N317 N 0.50978 0.35552 0.24925 0.0
H318 H 0.48792 0.33519 0.20575 0.0
H319 H 0.53111 0.381 0.2842 0.0
H320 H 0.48261 0.30718 0.23104 0.0
H321 H 0.52972 0.3191 0.31454 0.0
O322 O 0.51781 0.33247 0.18381 0.0
O323 O 0.54334 0.33336 0.21717 0.0
O324 O 0.54267 0.35673 0.29567 0.0
C325 C 0.53158 0.32758 0.18387 0.0
H326 H 0.58018 0.41627 0.20437 0.0
H327 H 0.46947 0.27848 0.28837 0.0
H328 H 0.51026 0.396 0.29108 0.0
H329 H 0.46629 0.34948 0.21091 0.0
Co330 Co 0.18616 0.524 0.73316 0.0
C331 C 0.16395 0.53616 0.67411 0.0
C332 C 0.18931 0.56116 0.70248 0.0
C333 C 0.17887 0.56807 0.67928 0.0
N334 N 0.17962 0.54108 0.70014 0.0
N335 N 0.16297 0.55223 0.66173 0.0
H336 H 0.15308 0.52131 0.6647 0.0
H337 H 0.20256 0.57007 0.72142 0.0
C338 C 0.17662 0.54682 0.79797 0.0
O339 O 0.16128 0.54317 0.77376 0.0
N340 N 0.19305 0.50746 0.76603 0.0
C341 C 0.18624 0.48788 0.76064 0.0
C342 C 0.19289 0.48131 0.79436 0.0
C343 C 0.20385 0.51264 0.80224 0.0
N344 N 0.20385 0.4969 0.82062 0.0
C345 C 0.14725 0.49223 0.7097 0.0
C346 C 0.12901 0.48744 0.78807 0.0
C347 C 0.11724 0.47673 0.75276 0.0
C348 C 0.12686 0.47888 0.71346 0.0
C349 C 0.14943 0.5008 0.78267 0.0
N350 N 0.15798 0.50433 0.74295 0.0
H351 H 0.15421 0.49338 0.6791 0.0
H352 H 0.15825 0.50816 0.81064 0.0
H353 H 0.17647 0.47888 0.73501 0.0
H354 H 0.21122 0.52758 0.81518 0.0
O355 O 0.19024 0.51297 0.68085 0.0
O356 O 0.21373 0.53976 0.7133 0.0
O357 O 0.18789 0.53978 0.7873 0.0
C358 C 0.20868 0.52721 0.68152 0.0
H359 H 0.18258 0.58343 0.67568 0.0
H360 H 0.18915 0.46607 0.79998 0.0
H361 H 0.12256 0.48547 0.8197 0.0
H362 H 0.11871 0.47079 0.68522 0.0
Co363 Co 0.66847 0.1836 0.23247 0.0
C364 C 0.62982 0.16258 0.18517 0.0
C365 C 0.63628 0.19111 0.20888 0.0
C366 C 0.61736 0.18172 0.19167 0.0
N367 N 0.64398 0.17895 0.20535 0.0
N368 N 0.6133 0.16367 0.1774 0.0
H369 H 0.63119 0.14997 0.17629 0.0
H370 H 0.64355 0.20541 0.22484 0.0
C371 C 0.63931 0.17598 0.30296 0.0
O372 O 0.62651 0.16078 0.27977 0.0
N373 N 0.69281 0.18869 0.25955 0.0
C374 C 0.70506 0.18203 0.24703 0.0
C375 C 0.71995 0.18773 0.27716 0.0
C376 C 0.70027 0.19832 0.29675 0.0
N377 N 0.71678 0.19784 0.30846 0.0
C378 C 0.65713 0.14372 0.20661 0.0
C379 C 0.64762 0.12638 0.28665 0.0
C380 C 0.644 0.11411 0.25069 0.0
C381 C 0.64944 0.12322 0.21036 0.0
C382 C 0.6553 0.14688 0.2813 0.0
N383 N 0.65842 0.15508 0.24127 0.0
H384 H 0.66118 0.15028 0.17513 0.0
H385 H 0.65878 0.15608 0.30953 0.0
H386 H 0.703 0.17318 0.21865 0.0
H387 H 0.69367 0.2054 0.31503 0.0
O388 O 0.68058 0.1864 0.17665 0.0
O389 O 0.68148 0.21129 0.21269 0.0
O390 O 0.65741 0.18653 0.29009 0.0
C391 C 0.6864 0.20525 0.17819 0.0
H392 H 0.60722 0.18749 0.19098 0.0
H393 H 0.73173 0.1841 0.27684 0.0
H394 H 0.64471 0.12025 0.31871 0.0
H395 H 0.64727 0.11459 0.18155 0.0
C396 C 0.38747 0.56558 0.15701 0.0
C397 C 0.37123 0.54648 0.14867 0.0
C398 C 0.3988 0.5781 0.12329 0.0
C399 C 0.39759 0.58738 0.0071 0.0
H400 H 0.45511 0.61352 0.01516 0.0
C401 C 0.44867 0.62791 0.86125 0.0
C402 C 0.46769 0.64439 0.8688 0.0
C403 C 0.43653 0.6166 0.89548 0.0
C404 C 0.4391 0.60669 0.01245 0.0
H405 H 0.3539 0.52587 0.09802 0.0
H406 H 0.37341 0.54781 0.03937 0.0
H407 H 0.43471 0.59324 0.07448 0.0
H408 H 0.48852 0.66231 0.91853 0.0
H409 H 0.46723 0.64323 0.97797 0.0
H410 H 0.40186 0.60103 0.94547 0.0
C411 C 0.37746 0.55308 0.072 0.0
C412 C 0.42737 0.59494 0.04661 0.0
C413 C 0.36632 0.54045 0.1057 0.0
C414 C 0.47403 0.64959 0.91147 0.0
C415 C 0.46182 0.63848 0.94568 0.0
C416 C 0.40932 0.59933 0.97311 0.0
C417 C 0.394 0.57199 0.08031 0.0
C418 C 0.40645 0.58503 0.04434 0.0
C419 C 0.44295 0.6216 0.93833 0.0
C420 C 0.4303 0.60913 0.97507 0.0
H421 H 0.39175 0.57071 0.18964 0.0
H422 H 0.41132 0.59263 0.13087 0.0
H423 H 0.38153 0.58014 1.00443 0.0
H424 H 0.44336 0.62335 0.8288 0.0
H425 H 0.4223 0.60361 0.88812 0.0
C426 C 0.82407 0.36678 0.62945 0.0
C427 C 0.8376 0.37966 0.6604 0.0
C428 C 0.82118 0.37436 0.59077 0.0
C429 C 0.82891 0.42142 0.54024 0.0
H430 H 0.8287 0.39606 0.43311 0.0
C431 C 0.8238 0.45341 0.37434 0.0
C432 C 0.83709 0.45397 0.34296 0.0
C433 C 0.821 0.44284 0.41278 0.0
C434 C 0.82872 0.40335 0.46273 0.0
H435 H 0.85837 0.41071 0.67498 0.0
H436 H 0.85337 0.42371 0.60843 0.0
H437 H 0.82905 0.38051 0.50088 0.0
H438 H 0.8575 0.4434 0.32734 0.0
H439 H 0.85267 0.4252 0.39361 0.0
H440 H 0.82921 0.44457 0.50214 0.0
C441 C 0.84485 0.40779 0.61379 0.0
C442 C 0.82871 0.3943 0.50167 0.0
C443 C 0.84786 0.40025 0.65198 0.0
C444 C 0.84717 0.4434 0.35068 0.0
C445 C 0.84426 0.43276 0.38871 0.0
C446 C 0.8288 0.43041 0.50132 0.0
C447 C 0.83155 0.39502 0.58247 0.0
C448 C 0.82925 0.40343 0.54101 0.0
C449 C 0.83124 0.43238 0.42051 0.0
C450 C 0.82914 0.42173 0.46196 0.0
H451 H 0.81592 0.35085 0.63482 0.0
H452 H 0.81074 0.36407 0.56748 0.0
H453 H 0.82904 0.42877 0.56986 0.0
H454 H 0.81578 0.46137 0.36951 0.0
H455 H 0.81075 0.4428 0.4364 0.0
C456 C 0.44424 0.84069 0.16556 0.0
C457 C 0.45677 0.83259 0.1712 0.0
C458 C 0.43325 0.83736 0.12792 0.0
C459 C 0.43155 0.82585 0.01351 0.0
H460 H 0.37704 0.81466 0.02328 0.0
C461 C 0.38251 0.81815 0.8639 0.0
C462 C 0.37055 0.82701 0.86752 0.0
C463 C 0.39243 0.81633 0.8999 0.0
C464 C 0.39229 0.81797 0.01979 0.0
H465 H 0.46757 0.8146 0.14113 0.0
H466 H 0.44842 0.809 0.07441 0.0
H467 H 0.39547 0.81591 0.08746 0.0
H468 H 0.35961 0.84075 0.91226 0.0
H469 H 0.3769 0.83785 0.97418 0.0
H470 H 0.42853 0.82852 0.9458 0.0
C471 C 0.44714 0.81789 0.09964 0.0
C472 C 0.40285 0.81859 0.05671 0.0
C473 C 0.45801 0.821 0.13789 0.0
C474 C 0.36862 0.83379 0.90807 0.0
C475 C 0.37847 0.83198 0.94387 0.0
C476 C 0.42098 0.82535 0.97641 0.0
C477 C 0.43452 0.82597 0.09436 0.0
C478 C 0.42275 0.82297 0.05425 0.0
C479 C 0.39056 0.82326 0.94046 0.0
C480 C 0.40133 0.82185 0.97914 0.0
H481 H 0.44282 0.84964 0.19044 0.0
H482 H 0.42394 0.84405 0.12485 0.0
H483 H 0.44688 0.82936 0.01046 0.0
H484 H 0.38438 0.81278 0.8332 0.0
H485 H 0.40145 0.80938 0.89598 0.0
C486 C 0.53915 0.36429 0.41111 0.0
C487 C 0.54796 0.3661 0.37075 0.0
C488 C 0.55071 0.37425 0.44697 0.0
C489 C 0.59981 0.41671 0.48027 0.0
H490 H 0.58316 0.39123 0.59123 0.0
C491 C 0.64084 0.45356 0.64223 0.0
C492 C 0.62801 0.45241 0.67542 0.0
C493 C 0.63308 0.4427 0.60396 0.0
C494 C 0.58802 0.39861 0.56052 0.0
H495 H 0.57612 0.37988 0.33684 0.0
H496 H 0.59643 0.39717 0.3998 0.0
H497 H 0.56621 0.37285 0.5268 0.0
H498 H 0.597 0.43862 0.69444 0.0
H499 H 0.58369 0.41973 0.62875 0.0
H500 H 0.62165 0.44254 0.51462 0.0
C501 C 0.58044 0.38814 0.40349 0.0
C502 C 0.57822 0.38807 0.52344 0.0
C503 C 0.5688 0.37811 0.36739 0.0
C504 C 0.60737 0.43995 0.66965 0.0
C505 C 0.5997 0.42897 0.63196 0.0
C506 C 0.60975 0.42724 0.51754 0.0
C507 C 0.57154 0.38634 0.44389 0.0
C508 C 0.58358 0.39709 0.48278 0.0
C509 C 0.61237 0.43019 0.59849 0.0
C510 C 0.60363 0.41847 0.55825 0.0
H511 H 0.52317 0.35526 0.41514 0.0
H512 H 0.54316 0.37274 0.47709 0.0
H513 H 0.60436 0.42424 0.44968 0.0
H514 H 0.65681 0.46307 0.64553 0.0
H515 H 0.64327 0.44394 0.57884 0.0
C516 C 0.19577 0.63518 0.14326 0.0
C517 C 0.18579 0.64612 0.14088 0.0
C518 C 0.19717 0.62509 0.10708 0.0
C519 C 0.1917 0.6231 0.98751 0.0
H520 H 0.18532 0.57043 0.99836 0.0
C521 C 0.17059 0.56987 0.84359 0.0
C522 C 0.18021 0.55873 0.83794 0.0
C523 C 0.17342 0.581 0.88087 0.0
C524 C 0.18738 0.58523 0.99482 0.0
H525 H 0.16946 0.65493 0.09818 0.0
H526 H 0.17159 0.63731 0.0361 0.0
H527 H 0.18627 0.58895 0.06276 0.0
H528 H 0.20035 0.55052 0.86772 0.0
H529 H 0.20512 0.5699 0.93353 0.0
H530 H 0.19228 0.6192 0.91968 0.0
C531 C 0.17872 0.63672 0.06546 0.0
C532 C 0.18796 0.5959 0.0318 0.0
C533 C 0.17736 0.64677 0.1014 0.0
C534 C 0.19276 0.55899 0.8709 0.0
C535 C 0.1954 0.56999 0.9087 0.0
C536 C 0.19098 0.61241 0.95071 0.0
C537 C 0.18866 0.62572 0.06756 0.0
C538 C 0.18974 0.61487 0.02865 0.0
C539 C 0.18583 0.58124 0.91402 0.0
C540 C 0.18846 0.59319 0.95374 0.0
H541 H 0.20243 0.63432 0.17311 0.0
H542 H 0.20509 0.61695 0.11001 0.0
H543 H 0.19366 0.63784 0.98357 0.0
H544 H 0.16082 0.57008 0.819 0.0
H545 H 0.16558 0.58922 0.88399 0.0
C546 C 0.61156 0.17273 0.34909 0.0
C547 C 0.63213 0.18038 0.34356 0.0
C548 C 0.60404 0.17598 0.38699 0.0
C549 C 0.6137 0.186 0.50185 0.0
H550 H 0.57132 0.19862 0.49342 0.0
C551 C 0.57218 0.19262 0.65236 0.0
C552 C 0.55141 0.18418 0.64819 0.0
C553 C 0.58406 0.1947 0.61646 0.0
C554 C 0.58301 0.19492 0.49652 0.0
H555 H 0.66098 0.19748 0.37406 0.0
H556 H 0.64768 0.20294 0.44129 0.0
H557 H 0.58855 0.19782 0.42898 0.0
H558 H 0.52699 0.1715 0.60258 0.0
H559 H 0.5474 0.17487 0.54086 0.0
H560 H 0.60767 0.18248 0.56941 0.0
C561 C 0.63744 0.19448 0.41575 0.0
C562 C 0.59297 0.19455 0.45946 0.0
C563 C 0.64507 0.19146 0.37721 0.0
C564 C 0.54291 0.1781 0.60722 0.0
C565 C 0.55471 0.18019 0.57154 0.0
C566 C 0.6036 0.18625 0.5391 0.0
C567 C 0.6168 0.18682 0.42095 0.0
C568 C 0.60814 0.18965 0.4614 0.0
C569 C 0.57547 0.18851 0.57547 0.0
C570 C 0.58777 0.19024 0.53681 0.0
H571 H 0.60111 0.16418 0.32392 0.0
H572 H 0.58808 0.16963 0.38996 0.0
H573 H 0.62524 0.18207 0.50448 0.0
H574 H 0.57926 0.19745 0.6834 0.0
H575 H 0.59999 0.20131 0.62081 0.0
C576 C 0.55675 0.42956 0.15288 0.0
C577 C 0.54932 0.40932 0.14364 0.0
C578 C 0.55433 0.44178 0.12341 0.0
C579 C 0.53275 0.44001 0.01391 0.0
H580 H 0.58677 0.48223 0.99307 0.0
C581 C 0.58119 0.44088 0.88614 0.0
C582 C 0.59659 0.45858 0.86859 0.0
C583 C 0.56718 0.44134 0.9133 0.0
C584 C 0.57135 0.47102 0.99847 0.0
H585 H 0.53285 0.38583 0.09752 0.0
H586 H 0.5293 0.40685 0.04592 0.0
H587 H 0.57654 0.47063 0.06522 0.0
H588 H 0.60725 0.49031 0.86109 0.0
H589 H 0.58374 0.49113 0.91122 0.0
H590 H 0.52888 0.4384 0.94577 0.0
C591 C 0.53637 0.41348 0.07616 0.0
C592 C 0.5654 0.46429 0.04018 0.0
C593 C 0.53865 0.40135 0.10559 0.0
C594 C 0.59632 0.47644 0.87549 0.0
C595 C 0.58254 0.47695 0.90346 0.0
C596 C 0.5389 0.44636 0.972 0.0
C597 C 0.54466 0.434 0.08398 0.0
C598 C 0.54677 0.44724 0.04754 0.0
C599 C 0.56841 0.45953 0.92397 0.0
C600 C 0.55885 0.46056 0.96392 0.0
H601 H 0.5646 0.43595 0.18258 0.0
H602 H 0.56072 0.45746 0.13073 0.0
H603 H 0.51791 0.42751 0.01895 0.0
H604 H 0.58062 0.4268 0.88134 0.0
H605 H 0.55656 0.42768 0.92919 0.0
C606 C 0.12783 0.60371 0.36924 0.0
C607 C 0.14265 0.59937 0.35624 0.0
C608 C 0.11394 0.59214 0.40037 0.0
C609 C 0.09733 0.54838 0.47144 0.0
H610 H 0.12233 0.58869 0.5595 0.0
C611 C 0.14047 0.53918 0.60013 0.0
C612 C 0.14774 0.55204 0.63539 0.0
C613 C 0.12663 0.53971 0.57262 0.0
C614 C 0.11439 0.57698 0.53622 0.0
H615 H 0.15266 0.5779 0.36106 0.0
H616 H 0.12843 0.55767 0.41507 0.0
H617 H 0.11937 0.59842 0.4881 0.0
H618 H 0.14499 0.5741 0.67244 0.0
H619 H 0.12017 0.57474 0.625 0.0
H620 H 0.09321 0.52701 0.51932 0.0
C621 C 0.12757 0.57006 0.40142 0.0
C622 C 0.11269 0.58265 0.49485 0.0
C623 C 0.14164 0.58178 0.37074 0.0
C624 C 0.13992 0.56446 0.6446 0.0
C625 C 0.12566 0.5647 0.61753 0.0
C626 C 0.09848 0.5426 0.51322 0.0
C627 C 0.11443 0.57585 0.41838 0.0
C628 C 0.1061 0.56866 0.46142 0.0
C629 C 0.11945 0.55293 0.58009 0.0
C630 C 0.10916 0.55713 0.54475 0.0
H631 H 0.12757 0.61665 0.35717 0.0
H632 H 0.10388 0.59683 0.41279 0.0
H633 H 0.09174 0.53727 0.44623 0.0
H634 H 0.1463 0.52945 0.59256 0.0
H635 H 0.12274 0.53067 0.54394 0.0
C636 C 0.59071 0.12855 0.15709 0.0
C637 C 0.59544 0.14861 0.15687 0.0
C638 C 0.57593 0.11467 0.13005 0.0
C639 C 0.56552 0.10239 0.03735 0.0
H640 H 0.52327 0.10993 0.99202 0.0
C641 C 0.57172 0.14084 0.88671 0.0
C642 C 0.55498 0.13934 0.86604 0.0
C643 C 0.56934 0.12767 0.91957 0.0
C644 C 0.53455 0.10686 1.00419 0.0
H645 H 0.58667 0.16921 0.13229 0.0
H646 H 0.56099 0.14519 0.08527 0.0
H647 H 0.5299 0.11328 0.06841 0.0
H648 H 0.52294 0.12099 0.85836 0.0
H649 H 0.51875 0.09834 0.91677 0.0
H650 H 0.57147 0.09799 0.97257 0.0
C651 C 0.56864 0.14006 0.10623 0.0
C652 C 0.5384 0.10892 0.04809 0.0
C653 C 0.58352 0.15395 0.13298 0.0
C654 C 0.53605 0.12298 0.87508 0.0
C655 C 0.53365 0.10983 0.90807 0.0
C656 C 0.56165 0.10031 0.99343 0.0
C657 C 0.56546 0.12057 0.10274 0.0
C658 C 0.55519 0.10871 0.06424 0.0
C659 C 0.55016 0.11281 0.93233 0.0
C660 C 0.54747 0.10457 0.97616 0.0
H661 H 0.59911 0.12376 0.17651 0.0
H662 H 0.57362 0.09971 0.12836 0.0
H663 H 0.5784 0.10182 0.04891 0.0
H664 H 0.58647 0.15319 0.88015 0.0
H665 H 0.58242 0.13052 0.93776 0.0
C666 C 0.48568 0.60112 0.6409 0.0
C667 C 0.46666 0.5974 0.65356 0.0
C668 C 0.48763 0.58902 0.61045 0.0
C669 C 0.45936 0.54405 0.54254 0.0
H670 H 0.4781 0.58248 0.45016 0.0
C671 C 0.41038 0.53643 0.4081 0.0
C672 C 0.41736 0.54791 0.37078 0.0
C673 C 0.42368 0.5362 0.43769 0.0
C674 C 0.47336 0.57126 0.47491 0.0
H675 H 0.43497 0.57658 0.64817 0.0
H676 H 0.43835 0.55549 0.59553 0.0
H677 H 0.48988 0.59342 0.52194 0.0
H678 H 0.44358 0.56656 0.33286 0.0
H679 H 0.46705 0.56613 0.38465 0.0
H680 H 0.44183 0.52208 0.49567 0.0
C681 C 0.45177 0.56778 0.60899 0.0
C682 C 0.48019 0.57762 0.51644 0.0
C683 C 0.4498 0.58002 0.63894 0.0
C684 C 0.43788 0.55803 0.36204 0.0
C685 C 0.45126 0.55763 0.39154 0.0
C686 C 0.45286 0.53758 0.50077 0.0
C687 C 0.47063 0.57279 0.59276 0.0
C688 C 0.47167 0.56443 0.55096 0.0
C689 C 0.44437 0.54738 0.43062 0.0
C690 C 0.45811 0.55156 0.46744 0.0
H691 H 0.49908 0.61389 0.65291 0.0
H692 H 0.50232 0.59311 0.5986 0.0
H693 H 0.45296 0.53352 0.56866 0.0
H694 H 0.39466 0.52852 0.41574 0.0
H695 H 0.41764 0.52844 0.46758 0.0
C696 C 0.87467 0.47364 0.09728 0.0
C697 C 0.86965 0.46145 0.13347 0.0
C698 C 0.88836 0.47419 0.06784 0.0
C699 C 0.90502 0.44057 0.02915 0.0
H700 H 0.92115 0.47934 0.93762 0.0
C701 C 0.87051 0.42845 0.87154 0.0
C702 C 0.87303 0.41325 0.8536 0.0
C703 C 0.88455 0.44194 0.90032 0.0
C704 C 0.91751 0.46863 0.96318 0.0
H705 H 0.87598 0.44153 0.16968 0.0
H706 H 0.90055 0.44276 0.11861 0.0
H707 H 0.92064 0.48958 0.01127 0.0
H708 H 0.89402 0.4025 0.84652 0.0
H709 H 0.91751 0.425 0.89959 0.0
H710 H 0.90118 0.4195 0.98081 0.0
C711 C 0.89347 0.45147 0.11209 0.0
C712 C 0.91686 0.47433 1.0053 0.0
C713 C 0.87935 0.45062 0.14121 0.0
C714 C 0.891 0.41332 0.86135 0.0
C715 C 0.90479 0.42651 0.89093 0.0
C716 C 0.90641 0.43508 0.98738 0.0
C717 C 0.89766 0.46276 0.07419 0.0
C718 C 0.90824 0.45978 0.03766 0.0
C719 C 0.90116 0.44028 0.91209 0.0
C720 C 0.91058 0.44856 0.95371 0.0
H721 H 0.86733 0.48213 0.09083 0.0
H722 H 0.89056 0.48268 0.03884 0.0
H723 H 0.89876 0.42893 0.05303 0.0
H724 H 0.85707 0.42907 0.86601 0.0
H725 H 0.88131 0.45232 0.91672 0.0
C726 C 0.43595 0.85828 0.38452 0.0
C727 C 0.45327 0.86367 0.36084 0.0
C728 C 0.43512 0.87195 0.4122 0.0
C729 C 0.43632 0.90273 0.47189 0.0
H730 H 0.47929 0.91143 0.5487 0.0
C731 C 0.41816 0.88679 0.64376 0.0
C732 C 0.4201 0.87 0.65214 0.0
C733 C 0.42947 0.9002 0.61164 0.0
C734 C 0.46745 0.90974 0.52752 0.0
H735 H 0.48212 0.88848 0.34265 0.0
H736 H 0.48095 0.91209 0.39251 0.0
H737 H 0.48292 0.90852 0.4722 0.0
H738 H 0.43716 0.85559 0.63793 0.0
H739 H 0.45674 0.87871 0.58169 0.0
H740 H 0.41989 0.90143 0.52761 0.0
C741 C 0.46812 0.89726 0.38988 0.0
C742 C 0.46955 0.90819 0.48353 0.0
C743 C 0.46887 0.88362 0.36187 0.0
C744 C 0.43525 0.86827 0.6318 0.0
C745 C 0.44659 0.88169 0.59977 0.0
C746 C 0.43422 0.90428 0.51585 0.0
C747 C 0.45164 0.89125 0.41684 0.0
C748 C 0.45322 0.90268 0.45604 0.0
C749 C 0.44292 0.89705 0.58756 0.0
C750 C 0.44902 0.90576 0.54424 0.0
H751 H 0.42365 0.84312 0.38427 0.0
H752 H 0.42226 0.86675 0.43288 0.0
H753 H 0.42371 0.89897 0.45112 0.0
H754 H 0.4071 0.88892 0.66028 0.0
H755 H 0.42655 0.91207 0.60338 0.0
C756 C 0.21649 0.51147 0.8922 0.0
C757 C 0.21228 0.49655 0.86154 0.0
C758 C 0.22455 0.51113 0.93188 0.0
C759 C 0.22896 0.47816 0.00849 0.0
H760 H 0.27595 0.52605 0.04816 0.0
C761 C 0.27697 0.47787 0.14845 0.0
C762 C 0.28631 0.49467 0.17516 0.0
C763 C 0.26632 0.47789 0.1125 0.0
C764 C 0.26261 0.51266 0.03802 0.0
H765 H 0.21331 0.46956 0.84888 0.0
H766 H 0.22706 0.4688 0.91872 0.0
H767 H 0.26058 0.52645 0.98037 0.0
H768 H 0.29112 0.52429 0.18652 0.0
H769 H 0.27206 0.52423 0.12411 0.0
H770 H 0.23081 0.46436 0.06622 0.0
C771 C 0.22402 0.4807 0.91175 0.0
C772 C 0.2539 0.51288 0.99909 0.0
C773 C 0.21614 0.48115 0.87181 0.0
C774 C 0.28425 0.51126 0.16608 0.0
C775 C 0.27341 0.51122 0.13032 0.0
C776 C 0.23754 0.47798 0.04769 0.0
C777 C 0.22836 0.49575 0.94199 0.0
C778 C 0.23714 0.49559 0.98383 0.0
C779 C 0.26461 0.49465 0.10271 0.0
C780 C 0.2546 0.49517 0.06266 0.0
H781 H 0.21331 0.52332 0.88603 0.0
H782 H 0.22755 0.52276 0.95494 0.0
H783 H 0.21587 0.46471 0.99757 0.0
H784 H 0.27859 0.465 0.15431 0.0
H785 H 0.26006 0.46502 0.09155 0.0
C786 C 0.79989 0.26217 0.65365 0.0
C787 C 0.80702 0.28275 0.65541 0.0
C788 C 0.79174 0.25155 0.61578 0.0
C789 C 0.7895 0.25789 0.49896 0.0
H790 H 0.73913 0.20841 0.50626 0.0
C791 C 0.74833 0.21181 0.34906 0.0
C792 C 0.7279 0.20551 0.34752 0.0
C793 C 0.75915 0.21965 0.38687 0.0
C794 C 0.75321 0.22219 0.50375 0.0
H795 H 0.81173 0.30843 0.61847 0.0
H796 H 0.79716 0.28988 0.55279 0.0
H797 H 0.75627 0.2256 0.57181 0.0
H798 H 0.70266 0.20181 0.38476 0.0
H799 H 0.72154 0.2158 0.45031 0.0
H800 H 0.78605 0.25488 0.43088 0.0
C801 C 0.79801 0.28196 0.58054 0.0
C802 C 0.76312 0.23192 0.54126 0.0
C803 C 0.80609 0.29255 0.61837 0.0
C804 C 0.71844 0.20684 0.38471 0.0
C805 C 0.7292 0.21459 0.42246 0.0
C806 C 0.77961 0.24814 0.46145 0.0
C807 C 0.79066 0.26134 0.5789 0.0
C808 C 0.78117 0.25007 0.53923 0.0
C809 C 0.74969 0.22119 0.42388 0.0
C810 C 0.76117 0.2304 0.46349 0.0
H811 H 0.80031 0.25421 0.68172 0.0
H812 H 0.7863 0.23569 0.61535 0.0
H813 H 0.80353 0.27172 0.49646 0.0
H814 H 0.75602 0.21103 0.32084 0.0
H815 H 0.7749 0.22452 0.38716 0.0
C816 C 0.50792 0.78372 0.15518 0.0
C817 C 0.52363 0.80264 0.16623 0.0
C818 C 0.50812 0.77498 0.11634 0.0
C819 C 0.54033 0.77764 0.02638 0.0
H820 H 0.48993 0.75065 0.96548 0.0
C821 C 0.53251 0.74747 0.85355 0.0
C822 C 0.51723 0.72761 0.84797 0.0
C823 C 0.53371 0.75777 0.89119 0.0
C824 C 0.50407 0.75809 0.98221 0.0
H825 H 0.55218 0.82707 0.14614 0.0
H826 H 0.55249 0.81191 0.07767 0.0
H827 H 0.4918 0.76609 0.03458 0.0
H828 H 0.4912 0.7031 0.87786 0.0
H829 H 0.49306 0.72121 0.94271 0.0
H830 H 0.55255 0.76964 0.97353 0.0
C831 C 0.54011 0.8037 0.09931 0.0
C832 C 0.50515 0.76683 0.02186 0.0
C833 C 0.53997 0.81238 0.13847 0.0
C834 C 0.50292 0.71848 0.88046 0.0
C835 C 0.50402 0.72882 0.91782 0.0
C836 C 0.53927 0.76898 0.98648 0.0
C837 C 0.52398 0.78508 0.08749 0.0
C838 C 0.52321 0.77645 0.04468 0.0
C839 C 0.51953 0.74847 0.92372 0.0
C840 C 0.52107 0.75891 0.96436 0.0
H841 H 0.49533 0.77578 0.17645 0.0
H842 H 0.49572 0.76038 0.10868 0.0
H843 H 0.55442 0.78482 0.04332 0.0
H844 H 0.54363 0.75503 0.829 0.0
H845 H 0.54569 0.773 0.89486 0.0
C846 C 0.715 0.50231 0.6309 0.0
C847 C 0.72434 0.51693 0.66284 0.0
C848 C 0.72513 0.50302 0.59355 0.0
C849 C 0.76529 0.53647 0.52327 0.0
H850 H 0.76474 0.48847 0.48602 0.0
C851 C 0.81216 0.53538 0.38086 0.0
C852 C 0.80358 0.51845 0.35446 0.0
C853 C 0.80263 0.53577 0.41844 0.0
C854 C 0.76479 0.50192 0.49561 0.0
H855 H 0.75173 0.54379 0.68026 0.0
H856 H 0.76928 0.5452 0.61431 0.0
H857 H 0.74792 0.48813 0.55213 0.0
H858 H 0.77807 0.48902 0.34538 0.0
H859 H 0.7611 0.48979 0.41044 0.0
H860 H 0.78178 0.55018 0.46631 0.0
C861 C 0.75408 0.53323 0.61854 0.0
C862 C 0.75526 0.50173 0.53354 0.0
C863 C 0.74401 0.53242 0.65621 0.0
C864 C 0.7851 0.50211 0.36564 0.0
C865 C 0.77546 0.50256 0.40292 0.0
C866 C 0.77467 0.53662 0.48502 0.0
C867 C 0.74474 0.51846 0.58709 0.0
C868 C 0.75537 0.51896 0.54758 0.0
C869 C 0.78425 0.51929 0.43004 0.0
C870 C 0.77444 0.51931 0.47071 0.0
H871 H 0.69974 0.49043 0.63426 0.0
H872 H 0.71753 0.49162 0.56939 0.0
H873 H 0.76539 0.54989 0.53336 0.0
H874 H 0.82653 0.54808 0.37314 0.0
H875 H 0.80993 0.54877 0.43892 0.0
C876 C 0.22523 0.74923 0.15912 0.0
C877 C 0.21724 0.72853 0.16147 0.0
C878 C 0.23264 0.75923 0.12034 0.0
C879 C 0.23061 0.75073 1.00343 0.0
H880 H 0.28251 0.7986 1.00298 0.0
C881 C 0.26922 0.79294 0.84782 0.0
C882 C 0.28946 0.79865 0.8445 0.0
C883 C 0.25911 0.7857 0.88654 0.0
C884 C 0.26799 0.78525 1.00265 0.0
H885 H 0.21026 0.70201 0.12481 0.0
H886 H 0.22361 0.71944 0.0578 0.0
H887 H 0.26697 0.78338 0.07104 0.0
H888 H 0.31502 0.80151 0.87937 0.0
H889 H 0.29731 0.78843 0.9462 0.0
H890 H 0.23203 0.75212 0.93498 0.0
C891 C 0.224 0.72796 0.08568 0.0
C892 C 0.25901 0.77668 0.04159 0.0
C893 C 0.21667 0.71802 0.1243 0.0
C894 C 0.29935 0.7969 0.88055 0.0
C895 C 0.28929 0.78974 0.91913 0.0
C896 C 0.2396 0.75931 0.96448 0.0
C897 C 0.23205 0.74865 0.08325 0.0
C898 C 0.24044 0.75907 0.04232 0.0
C899 C 0.26911 0.78418 0.92263 0.0
C900 C 0.25859 0.77637 0.96372 0.0
H901 H 0.22589 0.7577 0.18727 0.0
H902 H 0.2387 0.7752 0.1193 0.0
H903 H 0.21614 0.73731 1.0031 0.0
H904 H 0.26123 0.79407 0.82052 0.0
H905 H 0.24355 0.78156 0.8884 0.0
C906 C 0.48656 0.22095 0.66677 0.0
C907 C 0.50031 0.21423 0.67011 0.0
C908 C 0.48435 0.22874 0.62817 0.0
C909 C 0.49304 0.22846 0.51234 0.0
H910 H 0.49252 0.27818 0.5114 0.0
C911 C 0.48476 0.26419 0.35681 0.0
C912 C 0.49823 0.28468 0.35277 0.0
C913 C 0.48298 0.25453 0.39568 0.0
C914 C 0.49263 0.26427 0.51123 0.0
H915 H 0.52231 0.21017 0.6355 0.0
H916 H 0.51874 0.2241 0.56871 0.0
H917 H 0.49332 0.26329 0.5797 0.0
H918 H 0.52011 0.31119 0.38645 0.0
H919 H 0.51731 0.2943 0.45375 0.0
H920 H 0.49301 0.22977 0.44388 0.0
C921 C 0.50957 0.22322 0.59574 0.0
C922 C 0.4929 0.25567 0.55027 0.0
C923 C 0.51184 0.21554 0.63424 0.0
C924 C 0.50987 0.29532 0.38827 0.0
C925 C 0.50803 0.28571 0.42706 0.0
C926 C 0.49271 0.23702 0.47332 0.0
C927 C 0.49572 0.22977 0.59222 0.0
C928 C 0.49351 0.2379 0.55114 0.0
C929 C 0.49451 0.26526 0.43122 0.0
C930 C 0.49291 0.25521 0.47242 0.0
H931 H 0.47754 0.22015 0.69397 0.0
H932 H 0.47353 0.23366 0.62622 0.0
H933 H 0.49323 0.21459 0.51217 0.0
H934 H 0.47566 0.25565 0.32991 0.0
H935 H 0.4724 0.23874 0.39812 0.0
C936 C 0.71007 0.50046 0.89564 0.0
C937 C 0.69764 0.48341 0.87136 0.0
C938 C 0.72167 0.4997 0.92924 0.0
C939 C 0.74006 0.46741 0.97891 0.0
H940 H 0.75349 0.50496 0.07245 0.0
C941 C 0.77919 0.46607 0.13988 0.0
C942 C 0.79656 0.48418 0.14936 0.0
C943 C 0.76648 0.46487 0.10632 0.0
C944 C 0.74988 0.49438 0.04654 0.0
H945 H 0.68763 0.45208 0.86355 0.0
H946 H 0.70706 0.45038 0.92352 0.0
H947 H 0.7323 0.50455 0.01454 0.0
H948 H 0.81397 0.51527 0.13145 0.0
H949 H 0.79147 0.51333 0.0743 0.0
H950 H 0.7572 0.45685 0.01267 0.0
C951 C 0.70844 0.46462 0.91591 0.0
C952 C 0.73784 0.49424 0.01283 0.0
C953 C 0.69714 0.46551 0.88151 0.0
C954 C 0.80075 0.50108 0.12498 0.0
C955 C 0.78783 0.5 0.09228 0.0
C956 C 0.75177 0.46728 0.01326 0.0
C957 C 0.72089 0.48172 0.94059 0.0
C958 C 0.73297 0.481 0.97788 0.0
C959 C 0.7706 0.48188 0.08232 0.0
C960 C 0.75706 0.48097 0.04714 0.0
H961 H 0.71104 0.51457 0.88836 0.0
H962 H 0.7314 0.51342 0.946 0.0
H963 H 0.73703 0.45712 0.95273 0.0
H964 H 0.77559 0.45277 0.15792 0.0
H965 H 0.75328 0.45072 0.09949 0.0
C966 C 0.21516 0.69871 0.40279 0.0
C967 C 0.22285 0.69522 0.36499 0.0
C968 C 0.22781 0.7099 0.43655 0.0
C969 C 0.28013 0.7481 0.46088 0.0
H970 H 0.26416 0.7326 0.57875 0.0
C971 C 0.31977 0.80134 0.60447 0.0
C972 C 0.32287 0.79333 0.64221 0.0
C973 C 0.30836 0.78894 0.5706 0.0
C974 C 0.26896 0.73711 0.54607 0.0
H975 H 0.25004 0.70084 0.33336 0.0
H976 H 0.27216 0.72047 0.3922 0.0
H977 H 0.24303 0.71166 0.5204 0.0
H978 H 0.31633 0.76582 0.6736 0.0
H979 H 0.29634 0.74414 0.6146 0.0
H980 H 0.30604 0.77358 0.48656 0.0
C981 C 0.25628 0.71457 0.39566 0.0
C982 C 0.25671 0.72517 0.51249 0.0
C983 C 0.24358 0.7032 0.36197 0.0
C984 C 0.31428 0.77253 0.64505 0.0
C985 C 0.30271 0.76008 0.61126 0.0
C986 C 0.29229 0.76014 0.49446 0.0
C987 C 0.24858 0.7181 0.43349 0.0
C988 C 0.26205 0.73052 0.46935 0.0
C989 C 0.29954 0.7681 0.5735 0.0
C990 C 0.28687 0.75488 0.5376 0.0
H991 H 0.19929 0.69286 0.40632 0.0
H992 H 0.22128 0.71246 0.46478 0.0
H993 H 0.28471 0.75284 0.42819 0.0
H994 H 0.32609 0.81728 0.6011 0.0
H995 H 0.30611 0.79571 0.54241 0.0
C996 C 0.54796 0.3101 0.14801 0.0
C997 C 0.53324 0.31566 0.1481 0.0
C998 C 0.54897 0.29847 0.11449 0.0
C999 C 0.51797 0.26353 0.02755 0.0
H1000 H 0.56851 0.27285 0.98257 0.0
C1001 C 0.52217 0.20867 0.90775 0.0
C1002 C 0.53569 0.21653 0.87344 0.0
C1003 C 0.52258 0.2209 0.94132 0.0
C1004 C 0.55425 0.2701 0.99451 0.0
H1005 H 0.50821 0.31347 0.11241 0.0
H1006 H 0.51003 0.29349 0.05434 0.0
H1007 H 0.56796 0.29401 0.04011 0.0
H1008 H 0.56048 0.24358 0.84812 0.0
H1009 H 0.5612 0.265 0.90667 0.0
H1010 H 0.50421 0.23987 0.98173 0.0
C1011 C 0.52067 0.29781 0.08033 0.0
C1012 C 0.55393 0.28212 0.02796 0.0
C1013 C 0.5197 0.30944 0.11365 0.0
C1014 C 0.54987 0.23699 0.87401 0.0
C1015 C 0.55032 0.24927 0.90777 0.0
C1016 C 0.51828 0.25148 0.99435 0.0
C1017 C 0.53523 0.29201 0.08026 0.0
C1018 C 0.53577 0.27907 0.04493 0.0
C1019 C 0.53655 0.24144 0.94179 0.0
C1020 C 0.53641 0.25454 0.97724 0.0
H1021 H 0.55861 0.31459 0.17401 0.0
H1022 H 0.56029 0.2942 0.1159 0.0
H1023 H 0.50367 0.26047 0.03992 0.0
H1024 H 0.51107 0.19299 0.9086 0.0
H1025 H 0.51195 0.21418 0.96714 0.0
C1026 C 0.3104 0.51147 0.39733 0.0
C1027 C 0.32179 0.52814 0.37127 0.0
C1028 C 0.29899 0.51234 0.43122 0.0
C1029 C 0.279 0.54396 0.47777 0.0
H1030 H 0.2675 0.50847 0.57438 0.0
C1031 C 0.24002 0.54678 0.63753 0.0
C1032 C 0.22295 0.52858 0.64787 0.0
C1033 C 0.25284 0.54781 0.60443 0.0
C1034 C 0.27059 0.51848 0.54761 0.0
H1035 H 0.33027 0.55896 0.36084 0.0
H1036 H 0.3113 0.56093 0.42119 0.0
H1037 H 0.2887 0.50863 0.5168 0.0
H1038 H 0.20626 0.49716 0.6321 0.0
H1039 H 0.22898 0.49885 0.57584 0.0
H1040 H 0.26133 0.55424 0.51025 0.0
C1041 C 0.3105 0.54684 0.41479 0.0
C1042 C 0.28263 0.51847 0.5141 0.0
C1043 C 0.32158 0.5458 0.38017 0.0
C1044 C 0.21923 0.51143 0.62493 0.0
C1045 C 0.23228 0.51236 0.59275 0.0
C1046 C 0.26732 0.54428 0.51189 0.0
C1047 C 0.29893 0.53009 0.441 0.0
C1048 C 0.28682 0.53095 0.47807 0.0
C1049 C 0.24916 0.53057 0.58183 0.0
C1050 C 0.26273 0.53133 0.54691 0.0
H1051 H 0.31 0.49754 0.39107 0.0
H1052 H 0.28998 0.49886 0.44928 0.0
H1053 H 0.28144 0.55363 0.45073 0.0
H1054 H 0.24325 0.56027 0.65445 0.0
H1055 H 0.26577 0.56204 0.59683 0.0
C1056 C 0.70069 0.21078 0.10393 0.0
C1057 C 0.69799 0.21879 0.14217 0.0
C1058 C 0.71173 0.22315 0.06985 0.0
C1059 C 0.75097 0.27474 0.04432 0.0
H1060 H 0.73392 0.25842 0.92708 0.0
C1061 C 0.80399 0.31061 0.89964 0.0
C1062 C 0.79645 0.31416 0.86167 0.0
C1063 C 0.79134 0.30003 0.93372 0.0
C1064 C 0.73886 0.26333 0.95957 0.0
H1065 H 0.70491 0.24628 0.17426 0.0
H1066 H 0.72437 0.26798 0.11477 0.0
H1067 H 0.71296 0.2383 0.98632 0.0
H1068 H 0.76948 0.30927 0.83008 0.0
H1069 H 0.74727 0.29061 0.8896 0.0
H1070 H 0.77692 0.29971 0.01756 0.0
C1071 C 0.71791 0.25203 0.11125 0.0
C1072 C 0.7269 0.25166 0.99366 0.0
C1073 C 0.70667 0.23959 0.14533 0.0
C1074 C 0.77582 0.30682 0.85879 0.0
C1075 C 0.76307 0.29603 0.89289 0.0
C1076 C 0.76301 0.28632 0.01022 0.0
C1077 C 0.72059 0.24398 0.07294 0.0
C1078 C 0.73285 0.25707 0.03659 0.0
C1079 C 0.77067 0.2925 0.93092 0.0
C1080 C 0.75723 0.28071 0.96729 0.0
H1081 H 0.69427 0.19484 0.10023 0.0
H1082 H 0.71364 0.21634 0.04129 0.0
H1083 H 0.75616 0.27937 0.0768 0.0
H1084 H 0.81978 0.31599 0.90312 0.0
H1085 H 0.79777 0.29741 0.96205 0.0
C1086 C 0.47281 0.77227 0.36495 0.0
C1087 C 0.48509 0.79303 0.36899 0.0
C1088 C 0.47153 0.75947 0.39829 0.0
C1089 C 0.48043 0.75864 0.51553 0.0
H1090 H 0.48177 0.71043 0.48976 0.0
C1091 C 0.47095 0.70146 0.64775 0.0
C1092 C 0.48393 0.69373 0.64576 0.0
C1093 C 0.46987 0.71279 0.61377 0.0
C1094 C 0.48142 0.72386 0.4976 0.0
H1095 H 0.50554 0.81651 0.41162 0.0
H1096 H 0.50324 0.79436 0.46936 0.0
H1097 H 0.4822 0.73162 0.43132 0.0
H1098 H 0.50578 0.69174 0.60599 0.0
H1099 H 0.50384 0.7113 0.54697 0.0
H1100 H 0.47993 0.75107 0.58178 0.0
C1101 C 0.49448 0.78789 0.44065 0.0
C1102 C 0.48147 0.73593 0.46398 0.0
C1103 C 0.4959 0.80062 0.40729 0.0
C1104 C 0.49559 0.69741 0.60869 0.0
C1105 C 0.49439 0.70856 0.57463 0.0
C1106 C 0.48019 0.74649 0.54911 0.0
C1107 C 0.48232 0.76711 0.43671 0.0
C1108 C 0.4812 0.75362 0.47244 0.0
C1109 C 0.48161 0.71654 0.5767 0.0
C1110 C 0.48089 0.72901 0.5407 0.0
H1111 H 0.46428 0.7659 0.33593 0.0
H1112 H 0.4619 0.74357 0.39416 0.0
H1113 H 0.47999 0.77202 0.52339 0.0
H1114 H 0.46175 0.69894 0.67577 0.0
H1115 H 0.45972 0.71851 0.61643 0.0
C1116 C 0.39431 0.46377 0.29688 0.0
C1117 C 0.38989 0.47048 0.25887 0.0
C1118 C 0.40431 0.45296 0.29567 0.0
C1119 C 0.43554 0.44097 0.22442 0.0
H1120 H 0.42277 0.39938 0.30816 0.0
C1121 C 0.46633 0.3866 0.21499 0.0
C1122 C 0.47416 0.38371 0.25322 0.0
C1123 C 0.45572 0.39684 0.21523 0.0
C1124 C 0.42658 0.41104 0.28474 0.0
H1125 H 0.39231 0.47092 0.18972 0.0
H1126 H 0.40924 0.45154 0.18734 0.0
H1127 H 0.40468 0.41758 0.30884 0.0
H1128 H 0.47673 0.38901 0.32171 0.0
H1129 H 0.45797 0.40668 0.32221 0.0
H1130 H 0.45719 0.43403 0.1999 0.0
C1131 C 0.40545 0.45503 0.21829 0.0
C1132 C 0.41627 0.42157 0.28518 0.0
C1133 C 0.39565 0.46607 0.21957 0.0
C1134 C 0.47093 0.39106 0.29175 0.0
C1135 C 0.46009 0.40106 0.29207 0.0
C1136 C 0.44568 0.43026 0.22368 0.0
C1137 C 0.40998 0.44836 0.25636 0.0
C1138 C 0.42068 0.43679 0.2552 0.0
C1139 C 0.45248 0.40418 0.25376 0.0
C1140 C 0.4414 0.41526 0.25398 0.0
H1141 H 0.39039 0.46724 0.32773 0.0
H1142 H 0.40789 0.44852 0.32574 0.0
H1143 H 0.43966 0.45278 0.20128 0.0
H1144 H 0.46876 0.38131 0.18473 0.0
H1145 H 0.44994 0.3989 0.18525 0.0
C1146 C 0.08401 0.4695 0.78241 0.0
C1147 C 0.09511 0.46384 0.75622 0.0
C1148 C 0.06317 0.45838 0.78287 0.0
C1149 C 0.01976 0.40931 0.75023 0.0
H1150 H 0.99109 0.4382 0.75956 0.0
C1151 C 0.93426 0.37285 0.72174 0.0
C1152 C 0.92387 0.377 0.75319 0.0
C1153 C 0.95517 0.38318 0.72139 0.0
C1154 C 0.99888 0.42991 0.75713 0.0
H1155 H 0.09269 0.44128 0.71144 0.0
H1156 H 0.05655 0.42249 0.71084 0.0
H1157 H 0.02735 0.45636 0.76145 0.0
H1158 H 0.9272 0.3956 0.80805 0.0
H1159 H 0.96353 0.41368 0.80715 0.0
H1160 H 0.99109 0.38289 0.74498 0.0
C1161 C 0.0639 0.4354 0.73156 0.0
C1162 C 0.01972 0.4403 0.7585 0.0
C1163 C 0.08474 0.4464 0.73143 0.0
C1164 C 0.93479 0.39191 0.78369 0.0
C1165 C 0.9556 0.40239 0.78297 0.0
C1166 C 0.9989 0.39894 0.74836 0.0
C1167 C 0.05278 0.44135 0.75687 0.0
C1168 C 0.03049 0.43016 0.75537 0.0
C1169 C 0.96605 0.39809 0.752 0.0
C1170 C 0.98823 0.40912 0.75209 0.0
H1171 H 0.09137 0.48289 0.80171 0.0
H1172 H 0.05521 0.46325 0.8035 0.0
H1173 H 0.02742 0.40088 0.74835 0.0
H1174 H 0.92624 0.36141 0.69791 0.0
H1175 H 0.96283 0.37964 0.69695 0.0
C1176 C 0.63962 0.08093 0.22766 0.0
C1177 C 0.63425 0.09199 0.25477 0.0
C1178 C 0.62937 0.0601 0.22914 0.0
C1179 C 0.58122 0.01721 0.26471 0.0
H1180 H 0.6083 0.98721 0.24631 0.0
C1181 C 0.54295 0.93241 0.2929 0.0
C1182 C 0.54612 0.92088 0.26248 0.0
C1183 C 0.5538 0.95319 0.29124 0.0
C1184 C 0.6005 0.99538 0.25106 0.0
H1185 H 0.61403 0.08957 0.30547 0.0
H1186 H 0.59669 0.05339 0.30913 0.0
H1187 H 0.62741 0.02354 0.24666 0.0
H1188 H 0.56321 0.92222 0.20641 0.0
H1189 H 0.58226 0.95868 0.20351 0.0
H1190 H 0.55436 0.98902 0.26969 0.0
C1191 C 0.60855 0.0608 0.28595 0.0
C1192 C 0.61145 0.01624 0.25125 0.0
C1193 C 0.61873 0.08163 0.28432 0.0
C1194 C 0.56036 0.93068 0.23018 0.0
C1195 C 0.57138 0.95154 0.22876 0.0
C1196 C 0.57032 0.99639 0.26482 0.0
C1197 C 0.61353 0.04971 0.25796 0.0
C1198 C 0.60197 0.02746 0.25814 0.0
C1199 C 0.5682 0.96304 0.25927 0.0
C1200 C 0.57982 0.98521 0.25808 0.0
H1201 H 0.65169 0.08833 0.20495 0.0
H1202 H 0.63359 0.05215 0.20685 0.0
H1203 H 0.57329 0.02526 0.26917 0.0
H1204 H 0.53192 0.92533 0.3179 0.0
H1205 H 0.55109 0.96157 0.31544 0.0
C1206 C 0.55273 0.62577 0.71574 0.0
C1207 C 0.54313 0.62667 0.75327 0.0
C1208 C 0.56356 0.61577 0.71543 0.0
C1209 C 0.56812 0.57652 0.77162 0.0
H1210 H 0.62006 0.60016 0.71769 0.0
C1211 C 0.61929 0.5432 0.79327 0.0
C1212 C 0.63098 0.54349 0.7585 0.0
C1213 C 0.60862 0.55329 0.79124 0.0
C1214 C 0.60545 0.59319 0.73234 0.0
H1215 H 0.5377 0.61786 0.82006 0.0
H1216 H 0.55634 0.60018 0.81928 0.0
H1217 H 0.60146 0.6179 0.71695 0.0
H1218 H 0.64047 0.55472 0.6941 0.0
H1219 H 0.62136 0.57191 0.69008 0.0
H1220 H 0.57189 0.55172 0.78663 0.0
C1221 C 0.55536 0.60714 0.79002 0.0
C1222 C 0.59482 0.6034 0.73202 0.0
C1223 C 0.54465 0.61726 0.79044 0.0
C1224 C 0.63155 0.55405 0.7214 0.0
C1225 C 0.62075 0.56412 0.7193 0.0
C1226 C 0.57866 0.56624 0.77168 0.0
C1227 C 0.56492 0.60625 0.7525 0.0
C1228 C 0.5761 0.59526 0.75198 0.0
C1229 C 0.60912 0.56385 0.75422 0.0
C1230 C 0.59757 0.57451 0.75242 0.0
H1231 H 0.55156 0.63244 0.68622 0.0
H1232 H 0.57051 0.61512 0.68585 0.0
H1233 H 0.55358 0.56966 0.78659 0.0
H1234 H 0.61815 0.53494 0.82211 0.0
H1235 H 0.60009 0.55294 0.81902 0.0
C1236 C 0.08432 0.61876 0.22546 0.0
C1237 C 0.09553 0.62908 0.26175 0.0
C1238 C 0.06349 0.60869 0.22642 0.0
C1239 C 0.02049 0.60592 0.28394 0.0
H1240 H 0.99173 0.5534 0.2326 0.0
C1241 C 0.93437 0.55593 0.29612 0.0
C1242 C 0.92435 0.54505 0.25926 0.0
C1243 C 0.95525 0.56621 0.29809 0.0
C1244 C 0.99948 0.56815 0.24666 0.0
H1245 H 0.09339 0.63672 0.3277 0.0
H1246 H 0.05707 0.61939 0.32911 0.0
H1247 H 0.02799 0.57149 0.23222 0.0
H1248 H 0.92861 0.53621 0.19591 0.0
H1249 H 0.96471 0.55448 0.19885 0.0
H1250 H 0.99195 0.60265 0.29795 0.0
C1251 C 0.06446 0.61926 0.29976 0.0
C1252 C 0.02031 0.57852 0.24646 0.0
C1253 C 0.08531 0.62926 0.29888 0.0
C1254 C 0.93575 0.54468 0.22458 0.0
C1255 C 0.95653 0.55494 0.22651 0.0
C1256 C 0.99962 0.59557 0.28397 0.0
C1257 C 0.05329 0.60873 0.26364 0.0
C1258 C 0.03109 0.59759 0.26481 0.0
C1259 C 0.9666 0.5658 0.26331 0.0
C1260 C 0.98883 0.57659 0.26501 0.0
H1261 H 0.09165 0.61854 0.19611 0.0
H1262 H 0.05535 0.601 0.1978 0.0
H1263 H 0.02834 0.62066 0.29803 0.0
H1264 H 0.92611 0.55667 0.32334 0.0
H1265 H 0.96248 0.57428 0.3271 0.0
C1266 C 0.39583 0.93091 0.71381 0.0
C1267 C 0.39181 0.91981 0.75175 0.0
C1268 C 0.40615 0.95174 0.71501 0.0
C1269 C 0.43898 0.99471 0.7857 0.0
H1270 H 0.42582 0.02431 0.70479 0.0
C1271 C 0.47041 0.07979 0.79913 0.0
C1272 C 0.47784 0.09084 0.76121 0.0
C1273 C 0.45977 0.05895 0.79799 0.0
C1274 C 0.42975 0.01624 0.72739 0.0
H1275 H 0.39518 0.92183 0.82075 0.0
H1276 H 0.41263 0.95813 0.82315 0.0
H1277 H 0.40729 0.98801 0.70327 0.0
H1278 H 0.47977 0.08874 0.69234 0.0
H1279 H 0.46096 0.05229 0.69026 0.0
H1280 H 0.46118 0.02306 0.8103 0.0
C1281 C 0.40832 0.95084 0.79224 0.0
C1282 C 0.41918 0.9954 0.72646 0.0
C1283 C 0.39821 0.93 0.79096 0.0
C1284 C 0.47426 0.08061 0.72207 0.0
C1285 C 0.46339 0.05977 0.72086 0.0
C1286 C 0.44938 0.01554 0.78692 0.0
C1287 C 0.41255 0.96204 0.75425 0.0
C1288 C 0.42367 0.98431 0.75552 0.0
C1289 C 0.45613 0.04871 0.75884 0.0
C1290 C 0.44493 0.02655 0.75771 0.0
H1291 H 0.39138 0.92347 0.68303 0.0
H1292 H 0.40943 0.95975 0.68499 0.0
H1293 H 0.4432 0.98679 0.80805 0.0
H1294 H 0.47312 0.08725 0.82982 0.0
H1295 H 0.45426 0.05085 0.82775 0.0
loop_
_geom_bond_atom_site_label_1
_geom_bond_atom_site_label_2
_geom_bond_distance
_geom_bond_site_symmetry_2
_ccdc_geom_bond_type
Co0 N4 2.148 . S
Co0 N10 2.128 . S
Co0 N20 2.194 . S
Co0 O25 2.351 . S
Co0 O26 2.155 . S
Co0 O27 2.096 . S
C1 N4 1.301 . S
C1 N5 1.328 . S
C1 H6 0.930 . S
C2 C3 1.333 . S
C2 N4 1.317 . S
C2 H7 0.930 . S
C3 C2 1.333 . S
C3 N5 1.350 . S
C3 H29 0.931 . S
N4 Co0 2.148 . S
N4 C1 1.301 . S
N4 C2 1.317 . S
N5 C1 1.328 . S
N5 C3 1.350 . S
H6 C1 0.930 . S
H7 C2 0.930 . S
C8 O9 1.224 . S
C8 O27 1.247 . S
O9 C8 1.224 . S
N10 Co0 2.128 . S
N10 C11 1.355 . S
N10 C13 1.311 . S
C11 N10 1.355 . S
C11 C12 1.363 . S
C11 H23 0.929 . S
C12 C11 1.363 . S
C12 N14 1.375 . S
C12 H30 0.931 . S
C13 N10 1.311 . S
C13 N14 1.347 . S
C13 H24 0.929 . S
N14 C12 1.375 . S
N14 C13 1.347 . S
C15 C18 1.365 . S
C15 N20 1.328 . S
C15 H21 0.929 . S
C16 C17 1.362 . S
C16 C19 1.378 . S
C16 H31 0.929 . S
C17 C16 1.362 . S
C17 C18 1.366 . S
C18 C15 1.365 . S
C18 C17 1.366 . S
C18 H32 0.930 . S
C19 C16 1.378 . S
C19 N20 1.315 . S
C19 H22 0.930 . S
N20 Co0 2.194 . S
N20 C15 1.328 . S
N20 C19 1.315 . S
H21 C15 0.929 . S
H22 C19 0.930 . S
H23 C11 0.929 . S
H24 C13 0.929 . S
O25 Co0 2.351 . S
O25 C28 1.244 . S
O26 Co0 2.155 . S
O26 C28 1.240 . S
O27 Co0 2.096 . S
O27 C8 1.247 . S
C28 O25 1.244 . S
C28 O26 1.240 . S
H29 C3 0.931 . S
H30 C12 0.931 . S
H31 C16 0.929 . S
H32 C18 0.930 . S
Co33 N37 2.148 . S
Co33 N43 2.128 . S
Co33 N53 2.194 . S
Co33 O58 2.351 . S
Co33 O59 2.155 . S
Co33 O60 2.096 . S
C34 N37 1.301 . S
C34 N38 1.328 . S
C34 H39 0.930 . S
C35 C36 1.333 . S
C35 N37 1.317 . S
C35 H40 0.930 . S
C36 C35 1.333 . S
C36 N38 1.350 . S
C36 H62 0.931 . S
N37 Co33 2.148 . S
N37 C34 1.301 . S
N37 C35 1.317 . S
N38 C34 1.328 . S
N38 C36 1.350 . S
H39 C34 0.930 . S
H40 C35 0.930 . S
C41 O42 1.224 . S
C41 O60 1.247 . S
O42 C41 1.224 . S
N43 Co33 2.128 . S
N43 C44 1.355 . S
N43 C46 1.311 . S
C44 N43 1.355 . S
C44 C45 1.363 . S
C44 H56 0.929 . S
C45 C44 1.363 . S
C45 N47 1.375 . S
C45 H63 0.931 . S
C46 N43 1.311 . S
C46 N47 1.347 . S
C46 H57 0.929 . S
N47 C45 1.375 . S
N47 C46 1.347 . S
C48 C51 1.365 . S
C48 N53 1.328 . S
C48 H54 0.929 . S
C49 C50 1.362 . S
C49 C52 1.378 . S
C49 H64 0.929 . S
C50 C49 1.362 . S
C50 C51 1.366 . S
C51 C48 1.365 . S
C51 C50 1.366 . S
C51 H65 0.930 . S
C52 C49 1.378 . S
C52 N53 1.315 . S
C52 H55 0.930 . S
N53 Co33 2.194 . S
N53 C48 1.328 . S
N53 C52 1.315 . S
H54 C48 0.929 . S
H55 C52 0.930 . S
H56 C44 0.929 . S
H57 C46 0.929 . S
O58 Co33 2.351 . S
O58 C61 1.244 . S
O59 Co33 2.155 . S
O59 C61 1.240 . S
O60 Co33 2.096 . S
O60 C41 1.247 . S
C61 O58 1.244 . S
C61 O59 1.240 . S
H62 C36 0.931 . S
H63 C45 0.931 . S
H64 C49 0.929 . S
H65 C51 0.930 . S
Co66 N70 2.148 . S
Co66 N76 2.128 . S
Co66 N86 2.194 . S
Co66 O91 2.351 . S
Co66 O92 2.155 . S
Co66 O93 2.096 . S
C67 N70 1.301 . S
C67 N71 1.328 . S
C67 H72 0.930 . S
C68 C69 1.333 . S
C68 N70 1.317 . S
C68 H73 0.930 . S
C69 C68 1.333 . S
C69 N71 1.350 . S
C69 H95 0.931 . S
N70 Co66 2.148 . S
N70 C67 1.301 . S
N70 C68 1.317 . S
N71 C67 1.328 . S
N71 C69 1.350 . S
H72 C67 0.930 . S
H73 C68 0.930 . S
C74 O75 1.224 . S
C74 O93 1.247 . S
O75 C74 1.224 . S
N76 Co66 2.128 . S
N76 C77 1.355 . S
N76 C79 1.311 . S
C77 N76 1.355 . S
C77 C78 1.363 . S
C77 H89 0.929 . S
C78 C77 1.363 . S
C78 N80 1.375 . S
C78 H96 0.931 . S
C79 N76 1.311 . S
C79 N80 1.347 . S
C79 H90 0.929 . S
N80 C78 1.375 . S
N80 C79 1.347 . S
C81 C84 1.365 . S
C81 N86 1.328 . S
C81 H87 0.929 . S
C82 C83 1.362 . S
C82 C85 1.378 . S
C82 H97 0.929 . S
C83 C82 1.362 . S
C83 C84 1.366 . S
C84 C81 1.365 . S
C84 C83 1.366 . S
C84 H98 0.930 . S
C85 C82 1.378 . S
C85 N86 1.315 . S
C85 H88 0.930 . S
N86 Co66 2.194 . S
N86 C81 1.328 . S
N86 C85 1.315 . S
H87 C81 0.929 . S
H88 C85 0.930 . S
H89 C77 0.929 . S
H90 C79 0.929 . S
O91 Co66 2.351 . S
O91 C94 1.244 . S
O92 Co66 2.155 . S
O92 C94 1.240 . S
O93 Co66 2.096 . S
O93 C74 1.247 . S
C94 O91 1.244 . S
C94 O92 1.240 . S
H95 C69 0.931 . S
H96 C78 0.931 . S
H97 C82 0.929 . S
H98 C84 0.930 . S
Co99 N103 2.148 . S
Co99 N109 2.128 . S
Co99 N119 2.194 . S
Co99 O124 2.351 . S
Co99 O125 2.155 . S
Co99 O126 2.096 . S
C100 N103 1.301 . S
C100 N104 1.328 . S
C100 H105 0.930 . S
C101 C102 1.333 . S
C101 N103 1.317 . S
C101 H106 0.930 . S
C102 C101 1.333 . S
C102 N104 1.350 . S
C102 H128 0.931 . S
N103 Co99 2.148 . S
N103 C100 1.301 . S
N103 C101 1.317 . S
N104 C100 1.328 . S
N104 C102 1.350 . S
H105 C100 0.930 . S
H106 C101 0.930 . S
C107 O108 1.224 . S
C107 O126 1.247 . S
O108 C107 1.224 . S
N109 Co99 2.128 . S
N109 C110 1.355 . S
N109 C112 1.311 . S
C110 N109 1.355 . S
C110 C111 1.363 . S
C110 H122 0.929 . S
C111 C110 1.363 . S
C111 N113 1.375 . S
C111 H129 0.931 . S
C112 N109 1.311 . S
C112 N113 1.347 . S
C112 H123 0.929 . S
N113 C111 1.375 . S
N113 C112 1.347 . S
C114 C117 1.365 . S
C114 N119 1.328 . S
C114 H120 0.929 . S
C115 C116 1.362 . S
C115 C118 1.378 . S
C115 H130 0.929 . S
C116 C115 1.362 . S
C116 C117 1.366 . S
C117 C114 1.365 . S
C117 C116 1.366 . S
C117 H131 0.930 . S
C118 C115 1.378 . S
C118 N119 1.315 . S
C118 H121 0.930 . S
N119 Co99 2.194 . S
N119 C114 1.328 . S
N119 C118 1.315 . S
H120 C114 0.929 . S
H121 C118 0.930 . S
H122 C110 0.929 . S
H123 C112 0.929 . S
O124 Co99 2.351 . S
O124 C127 1.244 . S
O125 Co99 2.155 . S
O125 C127 1.240 . S
O126 Co99 2.096 . S
O126 C107 1.247 . S
C127 O124 1.244 . S
C127 O125 1.240 . S
H128 C102 0.931 . S
H129 C111 0.931 . S
H130 C115 0.929 . S
H131 C117 0.930 . S
Co132 N136 2.148 . S
Co132 N142 2.128 . S
Co132 N152 2.194 . S
Co132 O157 2.351 . S
Co132 O158 2.155 . S
Co132 O159 2.096 . S
C133 N136 1.301 . S
C133 N137 1.328 . S
C133 H138 0.930 . S
C134 C135 1.333 . S
C134 N136 1.317 . S
C134 H139 0.930 . S
C135 C134 1.333 . S
C135 N137 1.350 . S
C135 H161 0.931 . S
N136 Co132 2.148 . S
N136 C133 1.301 . S
N136 C134 1.317 . S
N137 C133 1.328 . S
N137 C135 1.350 . S
H138 C133 0.930 . S
H139 C134 0.930 . S
C140 O141 1.224 . S
C140 O159 1.247 . S
O141 C140 1.224 . S
N142 Co132 2.128 . S
N142 C143 1.355 . S
N142 C145 1.311 . S
C143 N142 1.355 . S
C143 C144 1.363 . S
C143 H155 0.929 . S
C144 C143 1.363 . S
C144 N146 1.375 . S
C144 H162 0.931 . S
C145 N142 1.311 . S
C145 N146 1.347 . S
C145 H156 0.929 . S
N146 C144 1.375 . S
N146 C145 1.347 . S
C147 C150 1.365 . S
C147 N152 1.328 . S
C147 H153 0.929 . S
C148 C149 1.362 . S
C148 C151 1.378 . S
C148 H163 0.929 . S
C149 C148 1.362 . S
C149 C150 1.366 . S
C150 C147 1.365 . S
C150 C149 1.366 . S
C150 H164 0.930 . S
C151 C148 1.378 . S
C151 N152 1.315 . S
C151 H154 0.930 . S
N152 Co132 2.194 . S
N152 C147 1.328 . S
N152 C151 1.315 . S
H153 C147 0.929 . S
H154 C151 0.930 . S
H155 C143 0.929 . S
H156 C145 0.929 . S
O157 Co132 2.351 . S
O157 C160 1.244 . S
O158 Co132 2.155 . S
O158 C160 1.240 . S
O159 Co132 2.096 . S
O159 C140 1.247 . S
C160 O157 1.244 . S
C160 O158 1.240 . S
H161 C135 0.931 . S
H162 C144 0.931 . S
H163 C148 0.929 . S
H164 C150 0.930 . S
Co165 N169 2.148 . S
Co165 N175 2.128 . S
Co165 N185 2.194 . S
Co165 O190 2.351 . S
Co165 O191 2.155 . S
Co165 O192 2.096 . S
C166 N169 1.301 . S
C166 N170 1.328 . S
C166 H171 0.930 . S
C167 C168 1.333 . S
C167 N169 1.317 . S
C167 H172 0.930 . S
C168 C167 1.333 . S
C168 N170 1.350 . S
C168 H194 0.931 . S
N169 Co165 2.148 . S
N169 C166 1.301 . S
N169 C167 1.317 . S
N170 C166 1.328 . S
N170 C168 1.350 . S
H171 C166 0.930 . S
H172 C167 0.930 . S
C173 O174 1.224 . S
C173 O192 1.247 . S
O174 C173 1.224 . S
N175 Co165 2.128 . S
N175 C176 1.355 . S
N175 C178 1.311 . S
C176 N175 1.355 . S
C176 C177 1.363 . S
C176 H188 0.929 . S
C177 C176 1.363 . S
C177 N179 1.375 . S
C177 H195 0.931 . S
C178 N175 1.311 . S
C178 N179 1.347 . S
C178 H189 0.929 . S
N179 C177 1.375 . S
N179 C178 1.347 . S
C180 C183 1.365 . S
C180 N185 1.328 . S
C180 H186 0.929 . S
C181 C182 1.362 . S
C181 C184 1.378 . S
C181 H196 0.929 . S
C182 C181 1.362 . S
C182 C183 1.366 . S
C183 C180 1.365 . S
C183 C182 1.366 . S
C183 H197 0.930 . S
C184 C181 1.378 . S
C184 N185 1.315 . S
C184 H187 0.930 . S
N185 Co165 2.194 . S
N185 C180 1.328 . S
N185 C184 1.315 . S
H186 C180 0.929 . S
H187 C184 0.930 . S
H188 C176 0.929 . S
H189 C178 0.929 . S
O190 Co165 2.351 . S
O190 C193 1.244 . S
O191 Co165 2.155 . S
O191 C193 1.240 . S
O192 Co165 2.096 . S
O192 C173 1.247 . S
C193 O190 1.244 . S
C193 O191 1.240 . S
H194 C168 0.931 . S
H195 C177 0.931 . S
H196 C181 0.929 . S
H197 C183 0.930 . S
Co198 N202 2.148 . S
Co198 N208 2.128 . S
Co198 N218 2.194 . S
Co198 O223 2.351 . S
Co198 O224 2.155 . S
Co198 O225 2.096 . S
C199 N202 1.301 . S
C199 N203 1.328 . S
C199 H204 0.930 . S
C200 C201 1.333 . S
C200 N202 1.317 . S
C200 H205 0.930 . S
C201 C200 1.333 . S
C201 N203 1.350 . S
C201 H227 0.931 . S
N202 Co198 2.148 . S
N202 C199 1.301 . S
N202 C200 1.317 . S
N203 C199 1.328 . S
N203 C201 1.350 . S
H204 C199 0.930 . S
H205 C200 0.930 . S
C206 O207 1.224 . S
C206 O225 1.247 . S
O207 C206 1.224 . S
N208 Co198 2.128 . S
N208 C209 1.355 . S
N208 C211 1.311 . S
C209 N208 1.355 . S
C209 C210 1.363 . S
C209 H221 0.929 . S
C210 C209 1.363 . S
C210 N212 1.375 . S
C210 H228 0.931 . S
C211 N208 1.311 . S
C211 N212 1.347 . S
C211 H222 0.929 . S
N212 C210 1.375 . S
N212 C211 1.347 . S
C213 C216 1.365 . S
C213 N218 1.328 . S
C213 H219 0.929 . S
C214 C215 1.362 . S
C214 C217 1.378 . S
C214 H229 0.929 . S
C215 C214 1.362 . S
C215 C216 1.366 . S
C216 C213 1.365 . S
C216 C215 1.366 . S
C216 H230 0.930 . S
C217 C214 1.378 . S
C217 N218 1.315 . S
C217 H220 0.930 . S
N218 Co198 2.194 . S
N218 C213 1.328 . S
N218 C217 1.315 . S
H219 C213 0.929 . S
H220 C217 0.930 . S
H221 C209 0.929 . S
H222 C211 0.929 . S
O223 Co198 2.351 . S
O223 C226 1.244 . S
O224 Co198 2.155 . S
O224 C226 1.240 . S
O225 Co198 2.096 . S
O225 C206 1.247 . S
C226 O223 1.244 . S
C226 O224 1.240 . S
H227 C201 0.931 . S
H228 C210 0.931 . S
H229 C214 0.929 . S
H230 C216 0.930 . S
Co231 N235 2.148 . S
Co231 N241 2.128 . S
Co231 N251 2.194 . S
Co231 O256 2.351 . S
Co231 O257 2.155 . S
Co231 O258 2.096 . S
C232 N235 1.301 . S
C232 N236 1.328 . S
C232 H237 0.930 . S
C233 C234 1.333 . S
C233 N235 1.317 . S
C233 H238 0.930 . S
C234 C233 1.333 . S
C234 N236 1.350 . S
C234 H260 0.931 . S
N235 Co231 2.148 . S
N235 C232 1.301 . S
N235 C233 1.317 . S
N236 C232 1.328 . S
N236 C234 1.350 . S
H237 C232 0.930 . S
H238 C233 0.930 . S
C239 O240 1.224 . S
C239 O258 1.247 . S
O240 C239 1.224 . S
N241 Co231 2.128 . S
N241 C242 1.355 . S
N241 C244 1.311 . S
C242 N241 1.355 . S
C242 C243 1.363 . S
C242 H254 0.929 . S
C243 C242 1.363 . S
C243 N245 1.375 . S
C243 H261 0.931 . S
C244 N241 1.311 . S
C244 N245 1.347 . S
C244 H255 0.929 . S
N245 C243 1.375 . S
N245 C244 1.347 . S
C246 C249 1.365 . S
C246 N251 1.328 . S
C246 H252 0.929 . S
C247 C248 1.362 . S
C247 C250 1.378 . S
C247 H262 0.929 . S
C248 C247 1.362 . S
C248 C249 1.366 . S
C249 C246 1.365 . S
C249 C248 1.366 . S
C249 H263 0.930 . S
C250 C247 1.378 . S
C250 N251 1.315 . S
C250 H253 0.930 . S
N251 Co231 2.194 . S
N251 C246 1.328 . S
N251 C250 1.315 . S
H252 C246 0.929 . S
H253 C250 0.930 . S
H254 C242 0.929 . S
H255 C244 0.929 . S
O256 Co231 2.351 . S
O256 C259 1.244 . S
O257 Co231 2.155 . S
O257 C259 1.240 . S
O258 Co231 2.096 . S
O258 C239 1.247 . S
C259 O256 1.244 . S
C259 O257 1.240 . S
H260 C234 0.931 . S
H261 C243 0.931 . S
H262 C247 0.929 . S
H263 C249 0.930 . S
Co264 N268 2.148 . S
Co264 N274 2.128 . S
Co264 N284 2.194 . S
Co264 O289 2.351 . S
Co264 O290 2.155 . S
Co264 O291 2.096 . S
C265 N268 1.301 . S
C265 N269 1.328 . S
C265 H270 0.930 . S
C266 C267 1.333 . S
C266 N268 1.317 . S
C266 H271 0.930 . S
C267 C266 1.333 . S
C267 N269 1.350 . S
C267 H293 0.931 . S
N268 Co264 2.148 . S
N268 C265 1.301 . S
N268 C266 1.317 . S
N269 C265 1.328 . S
N269 C267 1.350 . S
H270 C265 0.930 . S
H271 C266 0.930 . S
C272 O273 1.224 . S
C272 O291 1.247 . S
O273 C272 1.224 . S
N274 Co264 2.128 . S
N274 C275 1.355 . S
N274 C277 1.311 . S
C275 N274 1.355 . S
C275 C276 1.363 . S
C275 H287 0.929 . S
C276 C275 1.363 . S
C276 N278 1.375 . S
C276 H294 0.931 . S
C277 N274 1.311 . S
C277 N278 1.347 . S
C277 H288 0.929 . S
N278 C276 1.375 . S
N278 C277 1.347 . S
C279 C282 1.365 . S
C279 N284 1.328 . S
C279 H285 0.929 . S
C280 C281 1.362 . S
C280 C283 1.378 . S
C280 H295 0.929 . S
C281 C280 1.362 . S
C281 C282 1.366 . S
C282 C279 1.365 . S
C282 C281 1.366 . S
C282 H296 0.930 . S
C283 C280 1.378 . S
C283 N284 1.315 . S
C283 H286 0.930 . S
N284 Co264 2.194 . S
N284 C279 1.328 . S
N284 C283 1.315 . S
H285 C279 0.929 . S
H286 C283 0.930 . S
H287 C275 0.929 . S
H288 C277 0.929 . S
O289 Co264 2.351 . S
O289 C292 1.244 . S
O290 Co264 2.155 . S
O290 C292 1.240 . S
O291 Co264 2.096 . S
O291 C272 1.247 . S
C292 O289 1.244 . S
C292 O290 1.240 . S
H293 C267 0.931 . S
H294 C276 0.931 . S
H295 C280 0.929 . S
H296 C282 0.930 . S
Co297 N301 2.148 . S
Co297 N307 2.128 . S
Co297 N317 2.194 . S
Co297 O322 2.351 . S
Co297 O323 2.155 . S
Co297 O324 2.096 . S
C298 N301 1.301 . S
C298 N302 1.328 . S
C298 H303 0.930 . S
C299 C300 1.333 . S
C299 N301 1.317 . S
C299 H304 0.930 . S
C300 C299 1.333 . S
C300 N302 1.350 . S
C300 H326 0.931 . S
N301 Co297 2.148 . S
N301 C298 1.301 . S
N301 C299 1.317 . S
N302 C298 1.328 . S
N302 C300 1.350 . S
H303 C298 0.930 . S
H304 C299 0.930 . S
C305 O306 1.224 . S
C305 O324 1.247 . S
O306 C305 1.224 . S
N307 Co297 2.128 . S
N307 C308 1.355 . S
N307 C310 1.311 . S
C308 N307 1.355 . S
C308 C309 1.363 . S
C308 H320 0.929 . S
C309 C308 1.363 . S
C309 N311 1.375 . S
C309 H327 0.931 . S
C310 N307 1.311 . S
C310 N311 1.347 . S
C310 H321 0.929 . S
N311 C309 1.375 . S
N311 C310 1.347 . S
C312 C315 1.365 . S
C312 N317 1.328 . S
C312 H318 0.929 . S
C313 C314 1.362 . S
C313 C316 1.378 . S
C313 H328 0.929 . S
C314 C313 1.362 . S
C314 C315 1.366 . S
C315 C312 1.365 . S
C315 C314 1.366 . S
C315 H329 0.930 . S
C316 C313 1.378 . S
C316 N317 1.315 . S
C316 H319 0.930 . S
N317 Co297 2.194 . S
N317 C312 1.328 . S
N317 C316 1.315 . S
H318 C312 0.929 . S
H319 C316 0.930 . S
H320 C308 0.929 . S
H321 C310 0.929 . S
O322 Co297 2.351 . S
O322 C325 1.244 . S
O323 Co297 2.155 . S
O323 C325 1.240 . S
O324 Co297 2.096 . S
O324 C305 1.247 . S
C325 O322 1.244 . S
C325 O323 1.240 . S
H326 C300 0.931 . S
H327 C309 0.931 . S
H328 C313 0.929 . S
H329 C315 0.930 . S
Co330 N334 2.148 . S
Co330 N340 2.128 . S
Co330 N350 2.194 . S
Co330 O355 2.351 . S
Co330 O356 2.155 . S
Co330 O357 2.096 . S
C331 N334 1.301 . S
C331 N335 1.328 . S
C331 H336 0.930 . S
C332 C333 1.333 . S
C332 N334 1.317 . S
C332 H337 0.930 . S
C333 C332 1.333 . S
C333 N335 1.350 . S
C333 H359 0.931 . S
N334 Co330 2.148 . S
N334 C331 1.301 . S
N334 C332 1.317 . S
N335 C331 1.328 . S
N335 C333 1.350 . S
H336 C331 0.930 . S
H337 C332 0.930 . S
C338 O339 1.224 . S
C338 O357 1.247 . S
O339 C338 1.224 . S
N340 Co330 2.128 . S
N340 C341 1.355 . S
N340 C343 1.311 . S
C341 N340 1.355 . S
C341 C342 1.363 . S
C341 H353 0.929 . S
C342 C341 1.363 . S
C342 N344 1.375 . S
C342 H360 0.931 . S
C343 N340 1.311 . S
C343 N344 1.347 . S
C343 H354 0.929 . S
N344 C342 1.375 . S
N344 C343 1.347 . S
C345 C348 1.365 . S
C345 N350 1.328 . S
C345 H351 0.929 . S
C346 C347 1.362 . S
C346 C349 1.378 . S
C346 H361 0.929 . S
C347 C346 1.362 . S
C347 C348 1.366 . S
C348 C345 1.365 . S
C348 C347 1.366 . S
C348 H362 0.930 . S
C349 C346 1.378 . S
C349 N350 1.315 . S
C349 H352 0.930 . S
N350 Co330 2.194 . S
N350 C345 1.328 . S
N350 C349 1.315 . S
H351 C345 0.929 . S
H352 C349 0.930 . S
H353 C341 0.929 . S
H354 C343 0.929 . S
O355 Co330 2.351 . S
O355 C358 1.244 . S
O356 Co330 2.155 . S
O356 C358 1.240 . S
O357 Co330 2.096 . S
O357 C338 1.247 . S
C358 O355 1.244 . S
C358 O356 1.240 . S
H359 C333 0.931 . S
H360 C342 0.931 . S
H361 C346 0.929 . S
H362 C348 0.930 . S
Co363 N367 2.148 . S
Co363 N373 2.128 . S
Co363 N383 2.194 . S
Co363 O388 2.351 . S
Co363 O389 2.155 . S
Co363 O390 2.096 . S
C364 N367 1.301 . S
C364 N368 1.328 . S
C364 H369 0.930 . S
C365 C366 1.333 . S
C365 N367 1.317 . S
C365 H370 0.930 . S
C366 C365 1.333 . S
C366 N368 1.350 . S
C366 H392 0.931 . S
N367 Co363 2.148 . S
N367 C364 1.301 . S
N367 C365 1.317 . S
N368 C364 1.328 . S
N368 C366 1.350 . S
H369 C364 0.930 . S
H370 C365 0.930 . S
C371 O372 1.224 . S
C371 O390 1.247 . S
O372 C371 1.224 . S
N373 Co363 2.128 . S
N373 C374 1.355 . S
N373 C376 1.311 . S
C374 N373 1.355 . S
C374 C375 1.363 . S
C374 H386 0.929 . S
C375 C374 1.363 . S
C375 N377 1.375 . S
C375 H393 0.931 . S
C376 N373 1.311 . S
C376 N377 1.347 . S
C376 H387 0.929 . S
N377 C375 1.375 . S
N377 C376 1.347 . S
C378 C381 1.365 . S
C378 N383 1.328 . S
C378 H384 0.929 . S
C379 C380 1.362 . S
C379 C382 1.378 . S
C379 H394 0.929 . S
C380 C379 1.362 . S
C380 C381 1.366 . S
C381 C378 1.365 . S
C381 C380 1.366 . S
C381 H395 0.930 . S
C382 C379 1.378 . S
C382 N383 1.315 . S
C382 H385 0.930 . S
N383 Co363 2.194 . S
N383 C378 1.328 . S
N383 C382 1.315 . S
H384 C378 0.929 . S
H385 C382 0.930 . S
H386 C374 0.929 . S
H387 C376 0.929 . S
O388 Co363 2.351 . S
O388 C391 1.244 . S
O389 Co363 2.155 . S
O389 C391 1.240 . S
O390 Co363 2.096 . S
O390 C371 1.247 . S
C391 O388 1.244 . S
C391 O389 1.240 . S
H392 C366 0.931 . S
H393 C375 0.931 . S
H394 C379 0.929 . S
H395 C381 0.930 . S
C396 C397 1.349 . S
C396 C398 1.327 . S
C396 H421 0.950 . S
C397 C396 1.349 . S
C397 C413 1.349 . S
C398 C396 1.327 . S
C398 C417 1.429 . S
C398 H422 0.950 . S
C399 C416 1.574 1_554 S
C399 C418 1.368 . S
C399 H423 0.949 . S
H400 C404 0.949 . S
C401 C402 1.349 . S
C401 C403 1.327 . S
C401 H424 0.950 . S
C402 C401 1.349 . S
C402 C414 1.349 . S
C403 C401 1.327 . S
C403 C419 1.429 . S
C403 H425 0.950 . S
C404 H400 0.949 . S
C404 C412 1.574 1_556 S
C404 C420 1.368 . S
H405 C413 0.950 . S
H406 C411 0.950 . S
H407 C412 0.949 . S
H408 C414 0.950 . S
H409 C415 0.950 . S
H410 C416 0.949 . S
C411 H406 0.950 . S
C411 C413 1.327 . S
C411 C417 1.429 . S
C412 C404 1.574 1_554 S
C412 H407 0.949 . S
C412 C418 1.368 . S
C413 C397 1.349 . S
C413 H405 0.950 . S
C413 C411 1.327 . S
C414 C402 1.349 . S
C414 H408 0.950 . S
C414 C415 1.327 . S
C415 H409 0.950 . S
C415 C414 1.327 . S
C415 C419 1.429 . S
C416 C399 1.574 1_556 S
C416 H410 0.949 . S
C416 C420 1.368 . S
C417 C398 1.429 . S
C417 C411 1.429 . S
C417 C418 1.523 . S
C418 C399 1.368 . S
C418 C412 1.368 . S
C418 C417 1.523 . S
C419 C403 1.429 . S
C419 C415 1.429 . S
C419 C420 1.523 . S
C420 C404 1.368 . S
C420 C416 1.368 . S
C420 C419 1.523 . S
H421 C396 0.950 . S
H422 C398 0.950 . S
H423 C399 0.949 . S
H424 C401 0.950 . S
H425 C403 0.950 . S
C426 C427 1.349 . S
C426 C428 1.327 . S
C426 H451 0.950 . S
C427 C426 1.349 . S
C427 C443 1.349 . S
C428 C426 1.327 . S
C428 C447 1.429 . S
C428 H452 0.950 . S
C429 C446 1.574 . S
C429 C448 1.368 . S
C429 H453 0.949 . S
H430 C434 0.949 . S
C431 C432 1.349 . S
C431 C433 1.327 . S
C431 H454 0.950 . S
C432 C431 1.349 . S
C432 C444 1.349 . S
C433 C431 1.327 . S
C433 C449 1.429 . S
C433 H455 0.950 . S
C434 H430 0.949 . S
C434 C442 1.574 . S
C434 C450 1.368 . S
H435 C443 0.950 . S
H436 C441 0.950 . S
H437 C442 0.949 . S
H438 C444 0.950 . S
H439 C445 0.950 . S
H440 C446 0.949 . S
C441 H436 0.950 . S
C441 C443 1.327 . S
C441 C447 1.429 . S
C442 C434 1.574 . S
C442 H437 0.949 . S
C442 C448 1.368 . S
C443 C427 1.349 . S
C443 H435 0.950 . S
C443 C441 1.327 . S
C444 C432 1.349 . S
C444 H438 0.950 . S
C444 C445 1.327 . S
C445 H439 0.950 . S
C445 C444 1.327 . S
C445 C449 1.429 . S
C446 C429 1.574 . S
C446 H440 0.949 . S
C446 C450 1.368 . S
C447 C428 1.429 . S
C447 C441 1.429 . S
C447 C448 1.523 . S
C448 C429 1.368 . S
C448 C442 1.368 . S
C448 C447 1.523 . S
C449 C433 1.429 . S
C449 C445 1.429 . S
C449 C450 1.523 . S
C450 C434 1.368 . S
C450 C446 1.368 . S
C450 C449 1.523 . S
H451 C426 0.950 . S
H452 C428 0.950 . S
H453 C429 0.949 . S
H454 C431 0.950 . S
H455 C433 0.950 . S
C456 C457 1.349 . S
C456 C458 1.327 . S
C456 H481 0.950 . S
C457 C456 1.349 . S
C457 C473 1.349 . S
C458 C456 1.327 . S
C458 C477 1.429 . S
C458 H482 0.950 . S
C459 C476 1.574 1_554 S
C459 C478 1.368 . S
C459 H483 0.949 . S
H460 C464 0.949 . S
C461 C462 1.349 . S
C461 C463 1.327 . S
C461 H484 0.950 . S
C462 C461 1.349 . S
C462 C474 1.349 . S
C463 C461 1.327 . S
C463 C479 1.429 . S
C463 H485 0.950 . S
C464 H460 0.949 . S
C464 C472 1.574 1_556 S
C464 C480 1.368 . S
H465 C473 0.950 . S
H466 C471 0.950 . S
H467 C472 0.949 . S
H468 C474 0.950 . S
H469 C475 0.950 . S
H470 C476 0.949 . S
C471 H466 0.950 . S
C471 C473 1.327 . S
C471 C477 1.429 . S
C472 C464 1.574 1_554 S
C472 H467 0.949 . S
C472 C478 1.368 . S
C473 C457 1.349 . S
C473 H465 0.950 . S
C473 C471 1.327 . S
C474 C462 1.349 . S
C474 H468 0.950 . S
C474 C475 1.327 . S
C475 H469 0.950 . S
C475 C474 1.327 . S
C475 C479 1.429 . S
C476 C459 1.574 1_556 S
C476 H470 0.949 . S
C476 C480 1.368 . S
C477 C458 1.429 . S
C477 C471 1.429 . S
C477 C478 1.523 . S
C478 C459 1.368 . S
C478 C472 1.368 . S
C478 C477 1.523 . S
C479 C463 1.429 . S
C479 C475 1.429 . S
C479 C480 1.523 . S
C480 C464 1.368 . S
C480 C476 1.368 . S
C480 C479 1.523 . S
H481 C456 0.950 . S
H482 C458 0.950 . S
H483 C459 0.949 . S
H484 C461 0.950 . S
H485 C463 0.950 . S
C486 C487 1.349 . S
C486 C488 1.327 . S
C486 H511 0.950 . S
C487 C486 1.349 . S
C487 C503 1.349 . S
C488 C486 1.327 . S
C488 C507 1.429 . S
C488 H512 0.950 . S
C489 C506 1.574 . S
C489 C508 1.368 . S
C489 H513 0.949 . S
H490 C494 0.949 . S
C491 C492 1.349 . S
C491 C493 1.327 . S
C491 H514 0.950 . S
C492 C491 1.349 . S
C492 C504 1.349 . S
C493 C491 1.327 . S
C493 C509 1.429 . S
C493 H515 0.950 . S
C494 H490 0.949 . S
C494 C502 1.574 . S
C494 C510 1.368 . S
H495 C503 0.950 . S
H496 C501 0.950 . S
H497 C502 0.949 . S
H498 C504 0.950 . S
H499 C505 0.950 . S
H500 C506 0.949 . S
C501 H496 0.950 . S
C501 C503 1.327 . S
C501 C507 1.429 . S
C502 C494 1.574 . S
C502 H497 0.949 . S
C502 C508 1.368 . S
C503 C487 1.349 . S
C503 H495 0.950 . S
C503 C501 1.327 . S
C504 C492 1.349 . S
C504 H498 0.950 . S
C504 C505 1.327 . S
C505 H499 0.950 . S
C505 C504 1.327 . S
C505 C509 1.429 . S
C506 C489 1.574 . S
C506 H500 0.949 . S
C506 C510 1.368 . S
C507 C488 1.429 . S
C507 C501 1.429 . S
C507 C508 1.523 . S
C508 C489 1.368 . S
C508 C502 1.368 . S
C508 C507 1.523 . S
C509 C493 1.429 . S
C509 C505 1.429 . S
C509 C510 1.523 . S
C510 C494 1.368 . S
C510 C506 1.368 . S
C510 C509 1.523 . S
H511 C486 0.950 . S
H512 C488 0.950 . S
H513 C489 0.949 . S
H514 C491 0.950 . S
H515 C493 0.950 . S
C516 C517 1.349 . S
C516 C518 1.327 . S
C516 H541 0.950 . S
C517 C516 1.349 . S
C517 C533 1.349 . S
C518 C516 1.327 . S
C518 C537 1.429 . S
C518 H542 0.950 . S
C519 C536 1.574 . S
C519 C538 1.368 1_556 S
C519 H543 0.949 . S
H520 C524 0.949 . S
C521 C522 1.349 . S
C521 C523 1.327 . S
C521 H544 0.950 . S
C522 C521 1.349 . S
C522 C534 1.349 . S
C523 C521 1.327 . S
C523 C539 1.429 . S
C523 H545 0.950 . S
C524 H520 0.949 . S
C524 C532 1.574 . S
C524 C540 1.368 1_554 S
H525 C533 0.950 . S
H526 C531 0.950 . S
H527 C532 0.949 . S
H528 C534 0.950 . S
H529 C535 0.950 . S
H530 C536 0.949 . S
C531 H526 0.950 . S
C531 C533 1.327 . S
C531 C537 1.429 . S
C532 C524 1.574 . S
C532 H527 0.949 . S
C532 C538 1.368 . S
C533 C517 1.349 . S
C533 H525 0.950 . S
C533 C531 1.327 . S
C534 C522 1.349 . S
C534 H528 0.950 . S
C534 C535 1.327 . S
C535 H529 0.950 . S
C535 C534 1.327 . S
C535 C539 1.429 . S
C536 C519 1.574 . S
C536 H530 0.949 . S
C536 C540 1.368 . S
C537 C518 1.429 . S
C537 C531 1.429 . S
C537 C538 1.523 . S
C538 C519 1.368 1_554 S
C538 C532 1.368 . S
C538 C537 1.523 . S
C539 C523 1.429 . S
C539 C535 1.429 . S
C539 C540 1.523 . S
C540 C524 1.368 1_556 S
C540 C536 1.368 . S
C540 C539 1.523 . S
H541 C516 0.950 . S
H542 C518 0.950 . S
H543 C519 0.949 . S
H544 C521 0.950 . S
H545 C523 0.950 . S
C546 C547 1.349 . S
C546 C548 1.327 . S
C546 H571 0.950 . S
C547 C546 1.349 . S
C547 C563 1.349 . S
C548 C546 1.327 . S
C548 C567 1.429 . S
C548 H572 0.950 . S
C549 C566 1.574 . S
C549 C568 1.368 . S
C549 H573 0.949 . S
H550 C554 0.949 . S
C551 C552 1.349 . S
C551 C553 1.327 . S
C551 H574 0.950 . S
C552 C551 1.349 . S
C552 C564 1.349 . S
C553 C551 1.327 . S
C553 C569 1.429 . S
C553 H575 0.950 . S
C554 H550 0.949 . S
C554 C562 1.574 . S
C554 C570 1.368 . S
H555 C563 0.950 . S
H556 C561 0.950 . S
H557 C562 0.949 . S
H558 C564 0.950 . S
H559 C565 0.950 . S
H560 C566 0.949 . S
C561 H556 0.950 . S
C561 C563 1.327 . S
C561 C567 1.429 . S
C562 C554 1.574 . S
C562 H557 0.949 . S
C562 C568 1.368 . S
C563 C547 1.349 . S
C563 H555 0.950 . S
C563 C561 1.327 . S
C564 C552 1.349 . S
C564 H558 0.950 . S
C564 C565 1.327 . S
C565 H559 0.950 . S
C565 C564 1.327 . S
C565 C569 1.429 . S
C566 C549 1.574 . S
C566 H560 0.949 . S
C566 C570 1.368 . S
C567 C548 1.429 . S
C567 C561 1.429 . S
C567 C568 1.523 . S
C568 C549 1.368 . S
C568 C562 1.368 . S
C568 C567 1.523 . S
C569 C553 1.429 . S
C569 C565 1.429 . S
C569 C570 1.523 . S
C570 C554 1.368 . S
C570 C566 1.368 . S
C570 C569 1.523 . S
H571 C546 0.950 . S
H572 C548 0.950 . S
H573 C549 0.949 . S
H574 C551 0.950 . S
H575 C553 0.950 . S
C576 C577 1.349 . S
C576 C578 1.327 . S
C576 H601 0.950 . S
C577 C576 1.349 . S
C577 C593 1.349 . S
C578 C576 1.327 . S
C578 C597 1.429 . S
C578 H602 0.950 . S
C579 C596 1.574 . S
C579 C598 1.368 1_556 S
C579 H603 0.949 . S
H580 C584 0.949 . S
C581 C582 1.349 . S
C581 C583 1.327 . S
C581 H604 0.950 . S
C582 C581 1.349 . S
C582 C594 1.349 . S
C583 C581 1.327 . S
C583 C599 1.429 . S
C583 H605 0.950 . S
C584 H580 0.949 . S
C584 C592 1.574 . S
C584 C600 1.368 1_554 S
H585 C593 0.950 . S
H586 C591 0.950 . S
H587 C592 0.949 . S
H588 C594 0.950 . S
H589 C595 0.950 . S
H590 C596 0.949 . S
C591 H586 0.950 . S
C591 C593 1.327 . S
C591 C597 1.429 . S
C592 C584 1.574 . S
C592 H587 0.949 . S
C592 C598 1.368 . S
C593 C577 1.349 . S
C593 H585 0.950 . S
C593 C591 1.327 . S
C594 C582 1.349 . S
C594 H588 0.950 . S
C594 C595 1.327 . S
C595 H589 0.950 . S
C595 C594 1.327 . S
C595 C599 1.429 . S
C596 C579 1.574 . S
C596 H590 0.949 . S
C596 C600 1.368 . S
C597 C578 1.429 . S
C597 C591 1.429 . S
C597 C598 1.523 . S
C598 C579 1.368 1_554 S
C598 C592 1.368 . S
C598 C597 1.523 . S
C599 C583 1.429 . S
C599 C595 1.429 . S
C599 C600 1.523 . S
C600 C584 1.368 1_556 S
C600 C596 1.368 . S
C600 C599 1.523 . S
H601 C576 0.950 . S
H602 C578 0.950 . S
H603 C579 0.949 . S
H604 C581 0.950 . S
H605 C583 0.950 . S
C606 C607 1.349 . S
C606 C608 1.327 . S
C606 H631 0.950 . S
C607 C606 1.349 . S
C607 C623 1.349 . S
C608 C606 1.327 . S
C608 C627 1.429 . S
C608 H632 0.950 . S
C609 C626 1.574 . S
C609 C628 1.368 . S
C609 H633 0.949 . S
H610 C614 0.949 . S
C611 C612 1.349 . S
C611 C613 1.327 . S
C611 H634 0.950 . S
C612 C611 1.349 . S
C612 C624 1.349 . S
C613 C611 1.327 . S
C613 C629 1.429 . S
C613 H635 0.950 . S
C614 H610 0.949 . S
C614 C622 1.574 . S
C614 C630 1.368 . S
H615 C623 0.950 . S
H616 C621 0.950 . S
H617 C622 0.949 . S
H618 C624 0.950 . S
H619 C625 0.950 . S
H620 C626 0.949 . S
C621 H616 0.950 . S
C621 C623 1.327 . S
C621 C627 1.429 . S
C622 C614 1.574 . S
C622 H617 0.949 . S
C622 C628 1.368 . S
C623 C607 1.349 . S
C623 H615 0.950 . S
C623 C621 1.327 . S
C624 C612 1.349 . S
C624 H618 0.950 . S
C624 C625 1.327 . S
C625 H619 0.950 . S
C625 C624 1.327 . S
C625 C629 1.429 . S
C626 C609 1.574 . S
C626 H620 0.949 . S
C626 C630 1.368 . S
C627 C608 1.429 . S
C627 C621 1.429 . S
C627 C628 1.523 . S
C628 C609 1.368 . S
C628 C622 1.368 . S
C628 C627 1.523 . S
C629 C613 1.429 . S
C629 C625 1.429 . S
C629 C630 1.523 . S
C630 C614 1.368 . S
C630 C626 1.368 . S
C630 C629 1.523 . S
H631 C606 0.950 . S
H632 C608 0.950 . S
H633 C609 0.949 . S
H634 C611 0.950 . S
H635 C613 0.950 . S
C636 C637 1.349 . S
C636 C638 1.327 . S
C636 H661 0.950 . S
C637 C636 1.349 . S
C637 C653 1.349 . S
C638 C636 1.327 . S
C638 C657 1.429 . S
C638 H662 0.950 . S
C639 C656 1.555 1_554 S
C639 C658 1.386 . S
C639 H663 0.951 . S
H640 C644 0.951 . S
C641 C642 1.349 . S
C641 C643 1.327 . S
C641 H664 0.950 . S
C642 C641 1.349 . S
C642 C654 1.349 . S
C643 C641 1.327 . S
C643 C659 1.429 . S
C643 H665 0.950 . S
C644 H640 0.951 . S
C644 C652 1.555 1_556 S
C644 C660 1.386 . S
H645 C653 0.950 . S
H646 C651 0.950 . S
H647 C652 0.949 . S
H648 C654 0.950 . S
H649 C655 0.950 . S
H650 C656 0.949 . S
C651 H646 0.950 . S
C651 C653 1.327 . S
C651 C657 1.429 . S
C652 C644 1.555 1_554 S
C652 H647 0.949 . S
C652 C658 1.368 . S
C653 C637 1.349 . S
C653 H645 0.950 . S
C653 C651 1.327 . S
C654 C642 1.349 . S
C654 H648 0.950 . S
C654 C655 1.327 . S
C655 H649 0.950 . S
C655 C654 1.327 . S
C655 C659 1.429 . S
C656 C639 1.555 1_556 S
C656 H650 0.949 . S
C656 C660 1.368 . S
C657 C638 1.429 . S
C657 C651 1.429 . S
C657 C658 1.523 . S
C658 C639 1.386 . S
C658 C652 1.368 . S
C658 C657 1.523 . S
C659 C643 1.429 . S
C659 C655 1.429 . S
C659 C660 1.523 . S
C660 C644 1.386 . S
C660 C656 1.368 . S
C660 C659 1.523 . S
H661 C636 0.950 . S
H662 C638 0.950 . S
H663 C639 0.951 . S
H664 C641 0.950 . S
H665 C643 0.950 . S
C666 C667 1.349 . S
C666 C668 1.327 . S
C666 H691 0.950 . S
C667 C666 1.349 . S
C667 C683 1.349 . S
C668 C666 1.327 . S
C668 C687 1.429 . S
C668 H692 0.950 . S
C669 C686 1.574 . S
C669 C688 1.368 . S
C669 H693 0.949 . S
H670 C674 0.949 . S
C671 C672 1.349 . S
C671 C673 1.327 . S
C671 H694 0.950 . S
C672 C671 1.349 . S
C672 C684 1.349 . S
C673 C671 1.327 . S
C673 C689 1.429 . S
C673 H695 0.950 . S
C674 H670 0.949 . S
C674 C682 1.574 . S
C674 C690 1.368 . S
H675 C683 0.950 . S
H676 C681 0.950 . S
H677 C682 0.949 . S
H678 C684 0.950 . S
H679 C685 0.950 . S
H680 C686 0.949 . S
C681 H676 0.950 . S
C681 C683 1.327 . S
C681 C687 1.429 . S
C682 C674 1.574 . S
C682 H677 0.949 . S
C682 C688 1.368 . S
C683 C667 1.349 . S
C683 H675 0.950 . S
C683 C681 1.327 . S
C684 C672 1.349 . S
C684 H678 0.950 . S
C684 C685 1.327 . S
C685 H679 0.950 . S
C685 C684 1.327 . S
C685 C689 1.429 . S
C686 C669 1.574 . S
C686 H680 0.949 . S
C686 C690 1.368 . S
C687 C668 1.429 . S
C687 C681 1.429 . S
C687 C688 1.523 . S
C688 C669 1.368 . S
C688 C682 1.368 . S
C688 C687 1.523 . S
C689 C673 1.429 . S
C689 C685 1.429 . S
C689 C690 1.523 . S
C690 C674 1.368 . S
C690 C686 1.368 . S
C690 C689 1.523 . S
H691 C666 0.950 . S
H692 C668 0.950 . S
H693 C669 0.949 . S
H694 C671 0.950 . S
H695 C673 0.950 . S
C696 C697 1.349 . S
C696 C698 1.327 . S
C696 H721 0.950 . S
C697 C696 1.349 . S
C697 C713 1.349 . S
C698 C696 1.327 . S
C698 C717 1.429 . S
C698 H722 0.950 . S
C699 C716 1.574 . S
C699 C718 1.368 . S
C699 H723 0.949 . S
H700 C704 0.949 . S
C701 C702 1.349 . S
C701 C703 1.327 . S
C701 H724 0.950 . S
C702 C701 1.349 . S
C702 C714 1.349 . S
C703 C701 1.327 . S
C703 C719 1.429 . S
C703 H725 0.950 . S
C704 H700 0.949 . S
C704 C712 1.574 . S
C704 C720 1.368 . S
H705 C713 0.950 . S
H706 C711 0.950 . S
H707 C712 0.949 . S
H708 C714 0.950 . S
H709 C715 0.950 . S
H710 C716 0.949 . S
C711 H706 0.950 . S
C711 C713 1.327 . S
C711 C717 1.429 . S
C712 C704 1.574 . S
C712 H707 0.949 . S
C712 C718 1.368 1_556 S
C713 C697 1.349 . S
C713 H705 0.950 . S
C713 C711 1.327 . S
C714 C702 1.349 . S
C714 H708 0.950 . S
C714 C715 1.327 . S
C715 H709 0.950 . S
C715 C714 1.327 . S
C715 C719 1.429 . S
C716 C699 1.574 . S
C716 H710 0.949 . S
C716 C720 1.368 1_554 S
C717 C698 1.429 . S
C717 C711 1.429 . S
C717 C718 1.523 . S
C718 C699 1.368 . S
C718 C712 1.368 1_554 S
C718 C717 1.523 . S
C719 C703 1.429 . S
C719 C715 1.429 . S
C719 C720 1.523 . S
C720 C704 1.368 . S
C720 C716 1.368 1_556 S
C720 C719 1.523 . S
H721 C696 0.950 . S
H722 C698 0.950 . S
H723 C699 0.949 . S
H724 C701 0.950 . S
H725 C703 0.950 . S
C726 C727 1.349 . S
C726 C728 1.327 . S
C726 H751 0.950 . S
C727 C726 1.349 . S
C727 C743 1.349 . S
C728 C726 1.327 . S
C728 C747 1.429 . S
C728 H752 0.950 . S
C729 C746 1.574 . S
C729 C748 1.368 . S
C729 H753 0.949 . S
H730 C734 0.949 . S
C731 C732 1.349 . S
C731 C733 1.327 . S
C731 H754 0.950 . S
C732 C731 1.349 . S
C732 C744 1.349 . S
C733 C731 1.327 . S
C733 C749 1.429 . S
C733 H755 0.950 . S
C734 H730 0.949 . S
C734 C742 1.574 . S
C734 C750 1.368 . S
H735 C743 0.950 . S
H736 C741 0.950 . S
H737 C742 0.949 . S
H738 C744 0.950 . S
H739 C745 0.950 . S
H740 C746 0.949 . S
C741 H736 0.950 . S
C741 C743 1.327 . S
C741 C747 1.429 . S
C742 C734 1.574 . S
C742 H737 0.949 . S
C742 C748 1.368 . S
C743 C727 1.349 . S
C743 H735 0.950 . S
C743 C741 1.327 . S
C744 C732 1.349 . S
C744 H738 0.950 . S
C744 C745 1.327 . S
C745 H739 0.950 . S
C745 C744 1.327 . S
C745 C749 1.429 . S
C746 C729 1.574 . S
C746 H740 0.949 . S
C746 C750 1.368 . S
C747 C728 1.429 . S
C747 C741 1.429 . S
C747 C748 1.523 . S
C748 C729 1.368 . S
C748 C742 1.368 . S
C748 C747 1.523 . S
C749 C733 1.429 . S
C749 C745 1.429 . S
C749 C750 1.523 . S
C750 C734 1.368 . S
C750 C746 1.368 . S
C750 C749 1.523 . S
H751 C726 0.950 . S
H752 C728 0.950 . S
H753 C729 0.949 . S
H754 C731 0.950 . S
H755 C733 0.950 . S
C756 C757 1.349 . S
C756 C758 1.327 . S
C756 H781 0.950 . S
C757 C756 1.349 . S
C757 C773 1.349 . S
C758 C756 1.327 . S
C758 C777 1.429 . S
C758 H782 0.950 . S
C759 C776 1.574 1_556 S
C759 C778 1.368 . S
C759 H783 0.949 . S
H760 C764 0.949 . S
C761 C762 1.349 . S
C761 C763 1.327 . S
C761 H784 0.950 . S
C762 C761 1.349 . S
C762 C774 1.349 . S
C763 C761 1.327 . S
C763 C779 1.429 . S
C763 H785 0.950 . S
C764 H760 0.949 . S
C764 C772 1.574 1_554 S
C764 C780 1.368 . S
H765 C773 0.950 . S
H766 C771 0.950 . S
H767 C772 0.949 . S
H768 C774 0.950 . S
H769 C775 0.950 . S
H770 C776 0.949 . S
C771 H766 0.950 . S
C771 C773 1.327 . S
C771 C777 1.429 . S
C772 C764 1.574 1_556 S
C772 H767 0.949 . S
C772 C778 1.368 . S
C773 C757 1.349 . S
C773 H765 0.950 . S
C773 C771 1.327 . S
C774 C762 1.349 . S
C774 H768 0.950 . S
C774 C775 1.327 . S
C775 H769 0.950 . S
C775 C774 1.327 . S
C775 C779 1.429 . S
C776 C759 1.574 1_554 S
C776 H770 0.949 . S
C776 C780 1.368 . S
C777 C758 1.429 . S
C777 C771 1.429 . S
C777 C778 1.523 . S
C778 C759 1.368 . S
C778 C772 1.368 . S
C778 C777 1.523 . S
C779 C763 1.429 . S
C779 C775 1.429 . S
C779 C780 1.523 . S
C780 C764 1.368 . S
C780 C776 1.368 . S
C780 C779 1.523 . S
H781 C756 0.950 . S
H782 C758 0.950 . S
H783 C759 0.949 . S
H784 C761 0.950 . S
H785 C763 0.950 . S
C786 C787 1.349 . S
C786 C788 1.327 . S
C786 H811 0.950 . S
C787 C786 1.349 . S
C787 C803 1.349 . S
C788 C786 1.327 . S
C788 C807 1.429 . S
C788 H812 0.950 . S
C789 C806 1.574 . S
C789 C808 1.368 . S
C789 H813 0.949 . S
H790 C794 0.949 . S
C791 C792 1.349 . S
C791 C793 1.327 . S
C791 H814 0.950 . S
C792 C791 1.349 . S
C792 C804 1.349 . S
C793 C791 1.327 . S
C793 C809 1.429 . S
C793 H815 0.950 . S
C794 H790 0.949 . S
C794 C802 1.574 . S
C794 C810 1.368 . S
H795 C803 0.950 . S
H796 C801 0.950 . S
H797 C802 0.949 . S
H798 C804 0.950 . S
H799 C805 0.950 . S
H800 C806 0.949 . S
C801 H796 0.950 . S
C801 C803 1.327 . S
C801 C807 1.429 . S
C802 C794 1.574 . S
C802 H797 0.949 . S
C802 C808 1.368 . S
C803 C787 1.349 . S
C803 H795 0.950 . S
C803 C801 1.327 . S
C804 C792 1.349 . S
C804 H798 0.950 . S
C804 C805 1.327 . S
C805 H799 0.950 . S
C805 C804 1.327 . S
C805 C809 1.429 . S
C806 C789 1.574 . S
C806 H800 0.949 . S
C806 C810 1.368 . S
C807 C788 1.429 . S
C807 C801 1.429 . S
C807 C808 1.523 . S
C808 C789 1.368 . S
C808 C802 1.368 . S
C808 C807 1.523 . S
C809 C793 1.429 . S
C809 C805 1.429 . S
C809 C810 1.523 . S
C810 C794 1.368 . S
C810 C806 1.368 . S
C810 C809 1.523 . S
H811 C786 0.950 . S
H812 C788 0.950 . S
H813 C789 0.949 . S
H814 C791 0.950 . S
H815 C793 0.950 . S
C816 C817 1.349 . S
C816 C818 1.327 . S
C816 H841 0.950 . S
C817 C816 1.349 . S
C817 C833 1.349 . S
C818 C816 1.327 . S
C818 C837 1.429 . S
C818 H842 0.950 . S
C819 C836 1.564 1_554 S
C819 C838 1.378 . S
C819 H843 0.950 . S
H820 C824 0.950 . S
C821 C822 1.349 . S
C821 C823 1.327 . S
C821 H844 0.950 . S
C822 C821 1.349 . S
C822 C834 1.349 . S
C823 C821 1.327 . S
C823 C839 1.429 . S
C823 H845 0.950 . S
C824 H820 0.950 . S
C824 C832 1.564 1_556 S
C824 C840 1.378 . S
H825 C833 0.950 . S
H826 C831 0.950 . S
H827 C832 0.949 . S
H828 C834 0.950 . S
H829 C835 0.950 . S
H830 C836 0.949 . S
C831 H826 0.950 . S
C831 C833 1.327 . S
C831 C837 1.429 . S
C832 C824 1.564 1_554 S
C832 H827 0.949 . S
C832 C838 1.368 . S
C833 C817 1.349 . S
C833 H825 0.950 . S
C833 C831 1.327 . S
C834 C822 1.349 . S
C834 H828 0.950 . S
C834 C835 1.327 . S
C835 H829 0.950 . S
C835 C834 1.327 . S
C835 C839 1.429 . S
C836 C819 1.564 1_556 S
C836 H830 0.949 . S
C836 C840 1.368 . S
C837 C818 1.429 . S
C837 C831 1.429 . S
C837 C838 1.523 . S
C838 C819 1.378 . S
C838 C832 1.368 . S
C838 C837 1.523 . S
C839 C823 1.429 . S
C839 C835 1.429 . S
C839 C840 1.523 . S
C840 C824 1.378 . S
C840 C836 1.368 . S
C840 C839 1.523 . S
H841 C816 0.950 . S
H842 C818 0.950 . S
H843 C819 0.950 . S
H844 C821 0.950 . S
H845 C823 0.950 . S
C846 C847 1.349 . S
C846 C848 1.327 . S
C846 H871 0.950 . S
C847 C846 1.349 . S
C847 C863 1.349 . S
C848 C846 1.327 . S
C848 C867 1.429 . S
C848 H872 0.950 . S
C849 C866 1.574 . S
C849 C868 1.368 . S
C849 H873 0.949 . S
H850 C854 0.949 . S
C851 C852 1.349 . S
C851 C853 1.327 . S
C851 H874 0.950 . S
C852 C851 1.349 . S
C852 C864 1.349 . S
C853 C851 1.327 . S
C853 C869 1.429 . S
C853 H875 0.950 . S
C854 H850 0.949 . S
C854 C862 1.574 . S
C854 C870 1.368 . S
H855 C863 0.950 . S
H856 C861 0.950 . S
H857 C862 0.949 . S
H858 C864 0.950 . S
H859 C865 0.950 . S
H860 C866 0.949 . S
C861 H856 0.950 . S
C861 C863 1.327 . S
C861 C867 1.429 . S
C862 C854 1.574 . S
C862 H857 0.949 . S
C862 C868 1.368 . S
C863 C847 1.349 . S
C863 H855 0.950 . S
C863 C861 1.327 . S
C864 C852 1.349 . S
C864 H858 0.950 . S
C864 C865 1.327 . S
C865 H859 0.950 . S
C865 C864 1.327 . S
C865 C869 1.429 . S
C866 C849 1.574 . S
C866 H860 0.949 . S
C866 C870 1.368 . S
C867 C848 1.429 . S
C867 C861 1.429 . S
C867 C868 1.523 . S
C868 C849 1.368 . S
C868 C862 1.368 . S
C868 C867 1.523 . S
C869 C853 1.429 . S
C869 C865 1.429 . S
C869 C870 1.523 . S
C870 C854 1.368 . S
C870 C866 1.368 . S
C870 C869 1.523 . S
H871 C846 0.950 . S
H872 C848 0.950 . S
H873 C849 0.949 . S
H874 C851 0.950 . S
H875 C853 0.950 . S
C876 C877 1.349 . S
C876 C878 1.327 . S
C876 H901 0.950 . S
C877 C876 1.349 . S
C877 C893 1.349 . S
C878 C876 1.327 . S
C878 C897 1.429 . S
C878 H902 0.950 . S
C879 C896 1.574 . S
C879 C898 1.368 1_556 S
C879 H903 0.949 . S
H880 C884 0.949 . S
C881 C882 1.349 . S
C881 C883 1.327 . S
C881 H904 0.950 . S
C882 C881 1.349 . S
C882 C894 1.349 . S
C883 C881 1.327 . S
C883 C899 1.429 . S
C883 H905 0.950 . S
C884 H880 0.949 . S
C884 C892 1.574 . S
C884 C900 1.368 1_554 S
H885 C893 0.950 . S
H886 C891 0.950 . S
H887 C892 0.949 . S
H888 C894 0.950 . S
H889 C895 0.950 . S
H890 C896 0.949 . S
C891 H886 0.950 . S
C891 C893 1.327 . S
C891 C897 1.429 . S
C892 C884 1.574 . S
C892 H887 0.949 . S
C892 C898 1.368 . S
C893 C877 1.349 . S
C893 H885 0.950 . S
C893 C891 1.327 . S
C894 C882 1.349 . S
C894 H888 0.950 . S
C894 C895 1.327 . S
C895 H889 0.950 . S
C895 C894 1.327 . S
C895 C899 1.429 . S
C896 C879 1.574 . S
C896 H890 0.949 . S
C896 C900 1.368 . S
C897 C878 1.429 . S
C897 C891 1.429 . S
C897 C898 1.523 . S
C898 C879 1.368 1_554 S
C898 C892 1.368 . S
C898 C897 1.523 . S
C899 C883 1.429 . S
C899 C895 1.429 . S
C899 C900 1.523 . S
C900 C884 1.368 1_556 S
C900 C896 1.368 . S
C900 C899 1.523 . S
H901 C876 0.950 . S
H902 C878 0.950 . S
H903 C879 0.949 . S
H904 C881 0.950 . S
H905 C883 0.950 . S
C906 C907 1.349 . S
C906 C908 1.327 . S
C906 H931 0.950 . S
C907 C906 1.349 . S
C907 C923 1.349 . S
C908 C906 1.327 . S
C908 C927 1.429 . S
C908 H932 0.950 . S
C909 C926 1.574 . S
C909 C928 1.368 . S
C909 H933 0.949 . S
H910 C914 0.949 . S
C911 C912 1.349 . S
C911 C913 1.327 . S
C911 H934 0.950 . S
C912 C911 1.349 . S
C912 C924 1.349 . S
C913 C911 1.327 . S
C913 C929 1.429 . S
C913 H935 0.950 . S
C914 H910 0.949 . S
C914 C922 1.574 . S
C914 C930 1.368 . S
H915 C923 0.950 . S
H916 C921 0.950 . S
H917 C922 0.949 . S
H918 C924 0.950 . S
H919 C925 0.950 . S
H920 C926 0.949 . S
C921 H916 0.950 . S
C921 C923 1.327 . S
C921 C927 1.429 . S
C922 C914 1.574 . S
C922 H917 0.949 . S
C922 C928 1.368 . S
C923 C907 1.349 . S
C923 H915 0.950 . S
C923 C921 1.327 . S
C924 C912 1.349 . S
C924 H918 0.950 . S
C924 C925 1.327 . S
C925 H919 0.950 . S
C925 C924 1.327 . S
C925 C929 1.429 . S
C926 C909 1.574 . S
C926 H920 0.949 . S
C926 C930 1.368 . S
C927 C908 1.429 . S
C927 C921 1.429 . S
C927 C928 1.523 . S
C928 C909 1.368 . S
C928 C922 1.368 . S
C928 C927 1.523 . S
C929 C913 1.429 . S
C929 C925 1.429 . S
C929 C930 1.523 . S
C930 C914 1.368 . S
C930 C926 1.368 . S
C930 C929 1.523 . S
H931 C906 0.950 . S
H932 C908 0.950 . S
H933 C909 0.949 . S
H934 C911 0.950 . S
H935 C913 0.950 . S
C936 C937 1.349 . S
C936 C938 1.327 . S
C936 H961 0.950 . S
C937 C936 1.349 . S
C937 C953 1.349 . S
C938 C936 1.327 . S
C938 C957 1.429 . S
C938 H962 0.950 . S
C939 C956 1.574 1_556 S
C939 C958 1.368 . S
C939 H963 0.949 . S
H940 C944 0.949 . S
C941 C942 1.349 . S
C941 C943 1.327 . S
C941 H964 0.950 . S
C942 C941 1.349 . S
C942 C954 1.349 . S
C943 C941 1.327 . S
C943 C959 1.429 . S
C943 H965 0.950 . S
C944 H940 0.949 . S
C944 C952 1.574 1_554 S
C944 C960 1.368 . S
H945 C953 0.950 . S
H946 C951 0.950 . S
H947 C952 0.949 . S
H948 C954 0.950 . S
H949 C955 0.950 . S
H950 C956 0.949 . S
C951 H946 0.950 . S
C951 C953 1.327 . S
C951 C957 1.429 . S
C952 C944 1.574 1_556 S
C952 H947 0.949 . S
C952 C958 1.368 . S
C953 C937 1.349 . S
C953 H945 0.950 . S
C953 C951 1.327 . S
C954 C942 1.349 . S
C954 H948 0.950 . S
C954 C955 1.327 . S
C955 H949 0.950 . S
C955 C954 1.327 . S
C955 C959 1.429 . S
C956 C939 1.574 1_554 S
C956 H950 0.949 . S
C956 C960 1.368 . S
C957 C938 1.429 . S
C957 C951 1.429 . S
C957 C958 1.523 . S
C958 C939 1.368 . S
C958 C952 1.368 . S
C958 C957 1.523 . S
C959 C943 1.429 . S
C959 C955 1.429 . S
C959 C960 1.523 . S
C960 C944 1.368 . S
C960 C956 1.368 . S
C960 C959 1.523 . S
H961 C936 0.950 . S
H962 C938 0.950 . S
H963 C939 0.949 . S
H964 C941 0.950 . S
H965 C943 0.950 . S
C966 C967 1.349 . S
C966 C968 1.327 . S
C966 H991 0.950 . S
C967 C966 1.349 . S
C967 C983 1.349 . S
C968 C966 1.327 . S
C968 C987 1.429 . S
C968 H992 0.950 . S
C969 C986 1.574 . S
C969 C988 1.368 . S
C969 H993 0.949 . S
H970 C974 0.949 . S
C971 C972 1.349 . S
C971 C973 1.327 . S
C971 H994 0.950 . S
C972 C971 1.349 . S
C972 C984 1.349 . S
C973 C971 1.327 . S
C973 C989 1.429 . S
C973 H995 0.950 . S
C974 H970 0.949 . S
C974 C982 1.574 . S
C974 C990 1.368 . S
H975 C983 0.950 . S
H976 C981 0.950 . S
H977 C982 0.949 . S
H978 C984 0.950 . S
H979 C985 0.950 . S
H980 C986 0.949 . S
C981 H976 0.950 . S
C981 C983 1.327 . S
C981 C987 1.429 . S
C982 C974 1.574 . S
C982 H977 0.949 . S
C982 C988 1.368 . S
C983 C967 1.349 . S
C983 H975 0.950 . S
C983 C981 1.327 . S
C984 C972 1.349 . S
C984 H978 0.950 . S
C984 C985 1.327 . S
C985 H979 0.950 . S
C985 C984 1.327 . S
C985 C989 1.429 . S
C986 C969 1.574 . S
C986 H980 0.949 . S
C986 C990 1.368 . S
C987 C968 1.429 . S
C987 C981 1.429 . S
C987 C988 1.523 . S
C988 C969 1.368 . S
C988 C982 1.368 . S
C988 C987 1.523 . S
C989 C973 1.429 . S
C989 C985 1.429 . S
C989 C990 1.523 . S
C990 C974 1.368 . S
C990 C986 1.368 . S
C990 C989 1.523 . S
H991 C966 0.950 . S
H992 C968 0.950 . S
H993 C969 0.949 . S
H994 C971 0.950 . S
H995 C973 0.950 . S
C996 C997 1.349 . S
C996 C998 1.327 . S
C996 H1021 0.950 . S
C997 C996 1.349 . S
C997 C1013 1.349 . S
C998 C996 1.327 . S
C998 C1017 1.429 . S
C998 H1022 0.950 . S
C999 C1016 1.574 1_554 S
C999 C1018 1.368 . S
C999 H1023 0.949 . S
H1000 C1004 0.949 . S
C1001 C1002 1.349 . S
C1001 C1003 1.327 . S
C1001 H1024 0.950 . S
C1002 C1001 1.349 . S
C1002 C1014 1.349 . S
C1003 C1001 1.327 . S
C1003 C1019 1.429 . S
C1003 H1025 0.950 . S
C1004 H1000 0.949 . S
C1004 C1012 1.574 1_556 S
C1004 C1020 1.368 . S
H1005 C1013 0.950 . S
H1006 C1011 0.950 . S
H1007 C1012 0.949 . S
H1008 C1014 0.950 . S
H1009 C1015 0.950 . S
H1010 C1016 0.949 . S
C1011 H1006 0.950 . S
C1011 C1013 1.327 . S
C1011 C1017 1.429 . S
C1012 C1004 1.574 1_554 S
C1012 H1007 0.949 . S
C1012 C1018 1.368 . S
C1013 C997 1.349 . S
C1013 H1005 0.950 . S
C1013 C1011 1.327 . S
C1014 C1002 1.349 . S
C1014 H1008 0.950 . S
C1014 C1015 1.327 . S
C1015 H1009 0.950 . S
C1015 C1014 1.327 . S
C1015 C1019 1.429 . S
C1016 C999 1.574 1_556 S
C1016 H1010 0.949 . S
C1016 C1020 1.368 . S
C1017 C998 1.429 . S
C1017 C1011 1.429 . S
C1017 C1018 1.523 . S
C1018 C999 1.368 . S
C1018 C1012 1.368 . S
C1018 C1017 1.523 . S
C1019 C1003 1.429 . S
C1019 C1015 1.429 . S
C1019 C1020 1.523 . S
C1020 C1004 1.368 . S
C1020 C1016 1.368 . S
C1020 C1019 1.523 . S
H1021 C996 0.950 . S
H1022 C998 0.950 . S
H1023 C999 0.949 . S
H1024 C1001 0.950 . S
H1025 C1003 0.950 . S
C1026 C1027 1.349 . S
C1026 C1028 1.327 . S
C1026 H1051 0.950 . S
C1027 C1026 1.349 . S
C1027 C1043 1.349 . S
C1028 C1026 1.327 . S
C1028 C1047 1.429 . S
C1028 H1052 0.950 . S
C1029 C1046 1.574 . S
C1029 C1048 1.368 . S
C1029 H1053 0.949 . S
H1030 C1034 0.949 . S
C1031 C1032 1.349 . S
C1031 C1033 1.327 . S
C1031 H1054 0.950 . S
C1032 C1031 1.349 . S
C1032 C1044 1.349 . S
C1033 C1031 1.327 . S
C1033 C1049 1.429 . S
C1033 H1055 0.950 . S
C1034 H1030 0.949 . S
C1034 C1042 1.574 . S
C1034 C1050 1.368 . S
H1035 C1043 0.950 . S
H1036 C1041 0.950 . S
H1037 C1042 0.949 . S
H1038 C1044 0.950 . S
H1039 C1045 0.950 . S
H1040 C1046 0.949 . S
C1041 H1036 0.950 . S
C1041 C1043 1.327 . S
C1041 C1047 1.429 . S
C1042 C1034 1.574 . S
C1042 H1037 0.949 . S
C1042 C1048 1.368 . S
C1043 C1027 1.349 . S
C1043 H1035 0.950 . S
C1043 C1041 1.327 . S
C1044 C1032 1.349 . S
C1044 H1038 0.950 . S
C1044 C1045 1.327 . S
C1045 H1039 0.950 . S
C1045 C1044 1.327 . S
C1045 C1049 1.429 . S
C1046 C1029 1.574 . S
C1046 H1040 0.949 . S
C1046 C1050 1.368 . S
C1047 C1028 1.429 . S
C1047 C1041 1.429 . S
C1047 C1048 1.523 . S
C1048 C1029 1.368 . S
C1048 C1042 1.368 . S
C1048 C1047 1.523 . S
C1049 C1033 1.429 . S
C1049 C1045 1.429 . S
C1049 C1050 1.523 . S
C1050 C1034 1.368 . S
C1050 C1046 1.368 . S
C1050 C1049 1.523 . S
H1051 C1026 0.950 . S
H1052 C1028 0.950 . S
H1053 C1029 0.949 . S
H1054 C1031 0.950 . S
H1055 C1033 0.950 . S
C1056 C1057 1.349 . S
C1056 C1058 1.327 . S
C1056 H1081 0.950 . S
C1057 C1056 1.349 . S
C1057 C1073 1.349 . S
C1058 C1056 1.327 . S
C1058 C1077 1.429 . S
C1058 H1082 0.950 . S
C1059 C1076 1.574 . S
C1059 C1078 1.368 . S
C1059 H1083 0.949 . S
H1060 C1064 0.949 . S
C1061 C1062 1.349 . S
C1061 C1063 1.327 . S
C1061 H1084 0.950 . S
C1062 C1061 1.349 . S
C1062 C1074 1.349 . S
C1063 C1061 1.327 . S
C1063 C1079 1.429 . S
C1063 H1085 0.950 . S
C1064 H1060 0.949 . S
C1064 C1072 1.574 . S
C1064 C1080 1.368 . S
H1065 C1073 0.950 . S
H1066 C1071 0.950 . S
H1067 C1072 0.949 . S
H1068 C1074 0.950 . S
H1069 C1075 0.950 . S
H1070 C1076 0.949 . S
C1071 H1066 0.950 . S
C1071 C1073 1.327 . S
C1071 C1077 1.429 . S
C1072 C1064 1.574 . S
C1072 H1067 0.949 . S
C1072 C1078 1.368 1_556 S
C1073 C1057 1.349 . S
C1073 H1065 0.950 . S
C1073 C1071 1.327 . S
C1074 C1062 1.349 . S
C1074 H1068 0.950 . S
C1074 C1075 1.327 . S
C1075 H1069 0.950 . S
C1075 C1074 1.327 . S
C1075 C1079 1.429 . S
C1076 C1059 1.574 . S
C1076 H1070 0.949 . S
C1076 C1080 1.368 1_554 S
C1077 C1058 1.429 . S
C1077 C1071 1.429 . S
C1077 C1078 1.523 . S
C1078 C1059 1.368 . S
C1078 C1072 1.368 1_554 S
C1078 C1077 1.523 . S
C1079 C1063 1.429 . S
C1079 C1075 1.429 . S
C1079 C1080 1.523 . S
C1080 C1064 1.368 . S
C1080 C1076 1.368 1_556 S
C1080 C1079 1.523 . S
H1081 C1056 0.950 . S
H1082 C1058 0.950 . S
H1083 C1059 0.949 . S
H1084 C1061 0.950 . S
H1085 C1063 0.950 . S
C1086 C1087 1.349 . S
C1086 C1088 1.327 . S
C1086 H1111 0.950 . S
C1087 C1086 1.349 . S
C1087 C1103 1.349 . S
C1088 C1086 1.327 . S
C1088 C1107 1.429 . S
C1088 H1112 0.950 . S
C1089 C1106 1.574 . S
C1089 C1108 1.368 . S
C1089 H1113 0.949 . S
H1090 C1094 0.949 . S
C1091 C1092 1.349 . S
C1091 C1093 1.327 . S
C1091 H1114 0.950 . S
C1092 C1091 1.349 . S
C1092 C1104 1.349 . S
C1093 C1091 1.327 . S
C1093 C1109 1.429 . S
C1093 H1115 0.950 . S
C1094 H1090 0.949 . S
C1094 C1102 1.574 . S
C1094 C1110 1.368 . S
H1095 C1103 0.950 . S
H1096 C1101 0.950 . S
H1097 C1102 0.949 . S
H1098 C1104 0.950 . S
H1099 C1105 0.950 . S
H1100 C1106 0.949 . S
C1101 H1096 0.950 . S
C1101 C1103 1.327 . S
C1101 C1107 1.429 . S
C1102 C1094 1.574 . S
C1102 H1097 0.949 . S
C1102 C1108 1.368 . S
C1103 C1087 1.349 . S
C1103 H1095 0.950 . S
C1103 C1101 1.327 . S
C1104 C1092 1.349 . S
C1104 H1098 0.950 . S
C1104 C1105 1.327 . S
C1105 H1099 0.950 . S
C1105 C1104 1.327 . S
C1105 C1109 1.429 . S
C1106 C1089 1.574 . S
C1106 H1100 0.949 . S
C1106 C1110 1.368 . S
C1107 C1088 1.429 . S
C1107 C1101 1.429 . S
C1107 C1108 1.523 . S
C1108 C1089 1.368 . S
C1108 C1102 1.368 . S
C1108 C1107 1.523 . S
C1109 C1093 1.429 . S
C1109 C1105 1.429 . S
C1109 C1110 1.523 . S
C1110 C1094 1.368 . S
C1110 C1106 1.368 . S
C1110 C1109 1.523 . S
H1111 C1086 0.950 . S
H1112 C1088 0.950 . S
H1113 C1089 0.949 . S
H1114 C1091 0.950 . S
H1115 C1093 0.950 . S
C1116 C1117 1.349 . S
C1116 C1118 1.327 . S
C1116 H1141 0.950 . S
C1117 C1116 1.349 . S
C1117 C1133 1.349 . S
C1118 C1116 1.327 . S
C1118 C1137 1.429 . S
C1118 H1142 0.950 . S
C1119 C1136 1.574 . S
C1119 C1138 1.368 . S
C1119 H1143 0.949 . S
H1120 C1124 0.949 . S
C1121 C1122 1.349 . S
C1121 C1123 1.327 . S
C1121 H1144 0.950 . S
C1122 C1121 1.349 . S
C1122 C1134 1.349 . S
C1123 C1121 1.327 . S
C1123 C1139 1.429 . S
C1123 H1145 0.950 . S
C1124 H1120 0.949 . S
C1124 C1132 1.574 . S
C1124 C1140 1.368 . S
H1125 C1133 0.950 . S
H1126 C1131 0.950 . S
H1127 C1132 0.949 . S
H1128 C1134 0.950 . S
H1129 C1135 0.950 . S
H1130 C1136 0.949 . S
C1131 H1126 0.950 . S
C1131 C1133 1.327 . S
C1131 C1137 1.429 . S
C1132 C1124 1.574 . S
C1132 H1127 0.949 . S
C1132 C1138 1.368 . S
C1133 C1117 1.349 . S
C1133 H1125 0.950 . S
C1133 C1131 1.327 . S
C1134 C1122 1.349 . S
C1134 H1128 0.950 . S
C1134 C1135 1.327 . S
C1135 H1129 0.950 . S
C1135 C1134 1.327 . S
C1135 C1139 1.429 . S
C1136 C1119 1.574 . S
C1136 H1130 0.949 . S
C1136 C1140 1.368 . S
C1137 C1118 1.429 . S
C1137 C1131 1.429 . S
C1137 C1138 1.523 . S
C1138 C1119 1.368 . S
C1138 C1132 1.368 . S
C1138 C1137 1.523 . S
C1139 C1123 1.429 . S
C1139 C1135 1.429 . S
C1139 C1140 1.523 . S
C1140 C1124 1.368 . S
C1140 C1136 1.368 . S
C1140 C1139 1.523 . S
H1141 C1116 0.950 . S
H1142 C1118 0.950 . S
H1143 C1119 0.949 . S
H1144 C1121 0.950 . S
H1145 C1123 0.950 . S
C1146 C1147 1.349 . S
C1146 C1148 1.327 . S
C1146 H1171 0.950 . S
C1147 C1146 1.349 . S
C1147 C1163 1.349 . S
C1148 C1146 1.327 . S
C1148 C1167 1.429 . S
C1148 H1172 0.950 . S
C1149 C1166 1.574 1_455 S
C1149 C1168 1.368 . S
C1149 H1173 0.949 . S
H1150 C1154 0.949 . S
C1151 C1152 1.349 . S
C1151 C1153 1.327 . S
C1151 H1174 0.950 . S
C1152 C1151 1.349 . S
C1152 C1164 1.349 . S
C1153 C1151 1.327 . S
C1153 C1169 1.429 . S
C1153 H1175 0.950 . S
C1154 H1150 0.949 . S
C1154 C1162 1.574 1_655 S
C1154 C1170 1.368 . S
H1155 C1163 0.950 . S
H1156 C1161 0.950 . S
H1157 C1162 0.949 . S
H1158 C1164 0.950 . S
H1159 C1165 0.950 . S
H1160 C1166 0.949 . S
C1161 H1156 0.950 . S
C1161 C1163 1.327 . S
C1161 C1167 1.429 . S
C1162 C1154 1.574 1_455 S
C1162 H1157 0.949 . S
C1162 C1168 1.368 . S
C1163 C1147 1.349 . S
C1163 H1155 0.950 . S
C1163 C1161 1.327 . S
C1164 C1152 1.349 . S
C1164 H1158 0.950 . S
C1164 C1165 1.327 . S
C1165 H1159 0.950 . S
C1165 C1164 1.327 . S
C1165 C1169 1.429 . S
C1166 C1149 1.574 1_655 S
C1166 H1160 0.949 . S
C1166 C1170 1.368 . S
C1167 C1148 1.429 . S
C1167 C1161 1.429 . S
C1167 C1168 1.523 . S
C1168 C1149 1.368 . S
C1168 C1162 1.368 . S
C1168 C1167 1.523 . S
C1169 C1153 1.429 . S
C1169 C1165 1.429 . S
C1169 C1170 1.523 . S
C1170 C1154 1.368 . S
C1170 C1166 1.368 . S
C1170 C1169 1.523 . S
H1171 C1146 0.950 . S
H1172 C1148 0.950 . S
H1173 C1149 0.949 . S
H1174 C1151 0.950 . S
H1175 C1153 0.950 . S
C1176 C1177 1.349 . S
C1176 C1178 1.327 . S
C1176 H1201 0.950 . S
C1177 C1176 1.349 . S
C1177 C1193 1.349 . S
C1178 C1176 1.327 . S
C1178 C1197 1.429 . S
C1178 H1202 0.950 . S
C1179 C1196 1.574 1_545 S
C1179 C1198 1.368 . S
C1179 H1203 0.949 . S
H1180 C1184 0.949 . S
C1181 C1182 1.349 . S
C1181 C1183 1.327 . S
C1181 H1204 0.950 . S
C1182 C1181 1.349 . S
C1182 C1194 1.349 . S
C1183 C1181 1.327 . S
C1183 C1199 1.429 . S
C1183 H1205 0.950 . S
C1184 H1180 0.949 . S
C1184 C1192 1.574 1_565 S
C1184 C1200 1.368 . S
H1185 C1193 0.950 . S
H1186 C1191 0.950 . S
H1187 C1192 0.949 . S
H1188 C1194 0.950 . S
H1189 C1195 0.950 . S
H1190 C1196 0.949 . S
C1191 H1186 0.950 . S
C1191 C1193 1.327 . S
C1191 C1197 1.429 . S
C1192 C1184 1.574 1_545 S
C1192 H1187 0.949 . S
C1192 C1198 1.368 . S
C1193 C1177 1.349 . S
C1193 H1185 0.950 . S
C1193 C1191 1.327 . S
C1194 C1182 1.349 . S
C1194 H1188 0.950 . S
C1194 C1195 1.327 . S
C1195 H1189 0.950 . S
C1195 C1194 1.327 . S
C1195 C1199 1.429 . S
C1196 C1179 1.574 1_565 S
C1196 H1190 0.949 . S
C1196 C1200 1.368 . S
C1197 C1178 1.429 . S
C1197 C1191 1.429 . S
C1197 C1198 1.523 . S
C1198 C1179 1.368 . S
C1198 C1192 1.368 . S
C1198 C1197 1.523 . S
C1199 C1183 1.429 . S
C1199 C1195 1.429 . S
C1199 C1200 1.523 . S
C1200 C1184 1.368 . S
C1200 C1196 1.368 . S
C1200 C1199 1.523 . S
H1201 C1176 0.950 . S
H1202 C1178 0.950 . S
H1203 C1179 0.949 . S
H1204 C1181 0.950 . S
H1205 C1183 0.950 . S
C1206 C1207 1.349 . S
C1206 C1208 1.327 . S
C1206 H1231 0.950 . S
C1207 C1206 1.349 . S
C1207 C1223 1.349 . S
C1208 C1206 1.327 . S
C1208 C1227 1.429 . S
C1208 H1232 0.950 . S
C1209 C1226 1.574 . S
C1209 C1228 1.368 . S
C1209 H1233 0.949 . S
H1210 C1214 0.949 . S
C1211 C1212 1.349 . S
C1211 C1213 1.327 . S
C1211 H1234 0.950 . S
C1212 C1211 1.349 . S
C1212 C1224 1.349 . S
C1213 C1211 1.327 . S
C1213 C1229 1.429 . S
C1213 H1235 0.950 . S
C1214 H1210 0.949 . S
C1214 C1222 1.574 . S
C1214 C1230 1.368 . S
H1215 C1223 0.950 . S
H1216 C1221 0.950 . S
H1217 C1222 0.949 . S
H1218 C1224 0.950 . S
H1219 C1225 0.950 . S
H1220 C1226 0.949 . S
C1221 H1216 0.950 . S
C1221 C1223 1.327 . S
C1221 C1227 1.429 . S
C1222 C1214 1.574 . S
C1222 H1217 0.949 . S
C1222 C1228 1.368 . S
C1223 C1207 1.349 . S
C1223 H1215 0.950 . S
C1223 C1221 1.327 . S
C1224 C1212 1.349 . S
C1224 H1218 0.950 . S
C1224 C1225 1.327 . S
C1225 H1219 0.950 . S
C1225 C1224 1.327 . S
C1225 C1229 1.429 . S
C1226 C1209 1.574 . S
C1226 H1220 0.949 . S
C1226 C1230 1.368 . S
C1227 C1208 1.429 . S
C1227 C1221 1.429 . S
C1227 C1228 1.523 . S
C1228 C1209 1.368 . S
C1228 C1222 1.368 . S
C1228 C1227 1.523 . S
C1229 C1213 1.429 . S
C1229 C1225 1.429 . S
C1229 C1230 1.523 . S
C1230 C1214 1.368 . S
C1230 C1226 1.368 . S
C1230 C1229 1.523 . S
H1231 C1206 0.950 . S
H1232 C1208 0.950 . S
H1233 C1209 0.949 . S
H1234 C1211 0.950 . S
H1235 C1213 0.950 . S
C1236 C1237 1.349 . S
C1236 C1238 1.327 . S
C1236 H1261 0.950 . S
C1237 C1236 1.349 . S
C1237 C1253 1.349 . S
C1238 C1236 1.327 . S
C1238 C1257 1.429 . S
C1238 H1262 0.950 . S
C1239 C1256 1.574 1_455 S
C1239 C1258 1.368 . S
C1239 H1263 0.949 . S
H1240 C1244 0.949 . S
C1241 C1242 1.349 . S
C1241 C1243 1.327 . S
C1241 H1264 0.950 . S
C1242 C1241 1.349 . S
C1242 C1254 1.349 . S
C1243 C1241 1.327 . S
C1243 C1259 1.429 . S
C1243 H1265 0.950 . S
C1244 H1240 0.949 . S
C1244 C1252 1.574 1_655 S
C1244 C1260 1.368 . S
H1245 C1253 0.950 . S
H1246 C1251 0.950 . S
H1247 C1252 0.949 . S
H1248 C1254 0.950 . S
H1249 C1255 0.950 . S
H1250 C1256 0.949 . S
C1251 H1246 0.950 . S
C1251 C1253 1.327 . S
C1251 C1257 1.429 . S
C1252 C1244 1.574 1_455 S
C1252 H1247 0.949 . S
C1252 C1258 1.368 . S
C1253 C1237 1.349 . S
C1253 H1245 0.950 . S
C1253 C1251 1.327 . S
C1254 C1242 1.349 . S
C1254 H1248 0.950 . S
C1254 C1255 1.327 . S
C1255 H1249 0.950 . S
C1255 C1254 1.327 . S
C1255 C1259 1.429 . S
C1256 C1239 1.574 1_655 S
C1256 H1250 0.949 . S
C1256 C1260 1.368 . S
C1257 C1238 1.429 . S
C1257 C1251 1.429 . S
C1257 C1258 1.523 . S
C1258 C1239 1.368 . S
C1258 C1252 1.368 . S
C1258 C1257 1.523 . S
C1259 C1243 1.429 . S
C1259 C1255 1.429 . S
C1259 C1260 1.523 . S
C1260 C1244 1.368 . S
C1260 C1256 1.368 . S
C1260 C1259 1.523 . S
H1261 C1236 0.950 . S
H1262 C1238 0.950 . S
H1263 C1239 0.949 . S
H1264 C1241 0.950 . S
H1265 C1243 0.950 . S
C1266 C1267 1.349 . S
C1266 C1268 1.327 . S
C1266 H1291 0.950 . S
C1267 C1266 1.349 . S
C1267 C1283 1.349 . S
C1268 C1266 1.327 . S
C1268 C1287 1.429 . S
C1268 H1292 0.950 . S
C1269 C1286 1.574 1_565 S
C1269 C1288 1.368 . S
C1269 H1293 0.949 . S
H1270 C1274 0.949 . S
C1271 C1272 1.349 . S
C1271 C1273 1.327 . S
C1271 H1294 0.950 . S
C1272 C1271 1.349 . S
C1272 C1284 1.349 . S
C1273 C1271 1.327 . S
C1273 C1289 1.429 . S
C1273 H1295 0.950 . S
C1274 H1270 0.949 . S
C1274 C1282 1.574 1_545 S
C1274 C1290 1.368 . S
H1275 C1283 0.950 . S
H1276 C1281 0.950 . S
H1277 C1282 0.949 . S
H1278 C1284 0.950 . S
H1279 C1285 0.950 . S
H1280 C1286 0.949 . S
C1281 H1276 0.950 . S
C1281 C1283 1.327 . S
C1281 C1287 1.429 . S
C1282 C1274 1.574 1_565 S
C1282 H1277 0.949 . S
C1282 C1288 1.368 . S
C1283 C1267 1.349 . S
C1283 H1275 0.950 . S
C1283 C1281 1.327 . S
C1284 C1272 1.349 . S
C1284 H1278 0.950 . S
C1284 C1285 1.327 . S
C1285 H1279 0.950 . S
C1285 C1284 1.327 . S
C1285 C1289 1.429 . S
C1286 C1269 1.574 1_545 S
C1286 H1280 0.949 . S
C1286 C1290 1.368 . S
C1287 C1268 1.429 . S
C1287 C1281 1.429 . S
C1287 C1288 1.523 . S
C1288 C1269 1.368 . S
C1288 C1282 1.368 . S
C1288 C1287 1.523 . S
C1289 C1273 1.429 . S
C1289 C1285 1.429 . S
C1289 C1290 1.523 . S
C1290 C1274 1.368 . S
C1290 C1286 1.368 . S
C1290 C1289 1.523 . S
H1291 C1266 0.950 . S
H1292 C1268 0.950 . S
H1293 C1269 0.949 . S
H1294 C1271 0.950 . S
H1295 C1273 0.950 . S
C397 C8 2.302 . S
C402 C206 2.302 . S
C427 C41 2.302 . S
C432 C239 2.302 . S
C457 C74 2.302 . S
C462 C272 2.302 . S
C487 C305 2.302 . S
C492 C107 2.302 . S
C517 C140 2.302 . S
C522 C338 2.302 . S
C547 C371 2.302 . S
C552 C173 2.302 . S
C577 N302 0.825 . S
C582 N104 0.825 . S
C607 N137 0.825 . S
C612 N335 0.825 . S
C637 N368 0.825 . S
C642 N170 0.825 . S
C667 N203 0.825 . S
C672 N5 0.825 . S
C697 N236 0.825 . S
C702 N38 0.825 . S
C727 N71 0.825 . S
C732 N269 0.825 . S
C757 N344 0.755 . S
C762 N14 0.755 . S
C787 N47 0.755 . S
C792 N377 0.755 . S
C817 N80 0.755 . S
C822 N212 0.755 . S
C847 N113 0.755 . S
C852 N245 0.755 . S
C877 N146 0.755 . S
C882 N278 0.755 . S
C907 N179 0.755 . S
C912 N311 0.755 . S
C937 C127 1.734 . S
C942 C259 1.734 . S
C967 C160 1.734 . S
C972 C292 1.734 . S
C997 C325 1.734 . S
C1002 C193 1.734 . S
C1027 C28 1.734 . S
C1032 C358 1.734 . S
C1057 C391 1.734 . S
C1062 C61 1.734 . S
C1087 C94 1.734 . S
C1092 C226 1.734 . S
C1117 C17 1.196 . S
C1122 C314 1.196 . S
C1147 C347 1.196 . S
C1152 C50 1.196 . S
C1177 C380 1.196 . S
C1182 C83 1.196 . S
C1207 C215 1.196 . S
C1212 C116 1.196 . S
C1237 C149 1.196 . S
C1242 C248 1.196 . S
C1267 C281 1.196 . S
C1272 C182 1.196 . S
