# Generated by pormake.
# Topology ato, (4)-cn, num edge types: 1
# Building blocks:
#     Node 0, Type 0, BuildingBlock: GALJAG_clean_sbu_0, # of connection points: 4
#     Node 1, Type 0, BuildingBlock: GALJAG_clean_sbu_0, # of connection points: 4
#     Node 2, Type 0, BuildingBlock: GALJAG_clean_sbu_0, # of connection points: 4
#     Node 3, Type 0, BuildingBlock: GALJAG_clean_sbu_0, # of connection points: 4
#     Node 4, Type 0, BuildingBlock: GALJAG_clean_sbu_0, # of connection points: 4
#     Node 5, Type 0, BuildingBlock: GALJAG_clean_sbu_0, # of connection points: 4
#     Node 6, Type 0, BuildingBlock: GALJAG_clean_sbu_0, # of connection points: 4
#     Node 7, Type 0, BuildingBlock: GALJAG_clean_sbu_0, # of connection points: 4
#     Node 8, Type 0, BuildingBlock: GALJAG_clean_sbu_0, # of connection points: 4
#     Node 9, Type 0, BuildingBlock: GALJAG_clean_sbu_0, # of connection points: 4
#     Node 10, Type 0, BuildingBlock: GALJAG_clean_sbu_0, # of connection points: 4
#     Node 11, Type 0, BuildingBlock: GALJAG_clean_sbu_0, # of connection points: 4
#     Node 12, Type 0, BuildingBlock: GALJAG_clean_sbu_0, # of connection points: 4
#     Node 13, Type 0, BuildingBlock: GALJAG_clean_sbu_0, # of connection points: 4
#     Node 14, Type 0, BuildingBlock: GALJAG_clean_sbu_0, # of connection points: 4
#     Node 15, Type 0, BuildingBlock: GALJAG_clean_sbu_0, # of connection points: 4
#     Node 16, Type 0, BuildingBlock: GALJAG_clean_sbu_0, # of connection points: 4
#     Node 17, Type 0, BuildingBlock: GALJAG_clean_sbu_0, # of connection points: 4
#     Node 18, Type 0, BuildingBlock: GALJAG_clean_sbu_0, # of connection points: 4
#     Node 19, Type 0, BuildingBlock: GALJAG_clean_sbu_0, # of connection points: 4
#     Node 20, Type 0, BuildingBlock: GALJAG_clean_sbu_0, # of connection points: 4
#     Node 21, Type 0, BuildingBlock: GALJAG_clean_sbu_0, # of connection points: 4
#     Node 22, Type 0, BuildingBlock: GALJAG_clean_sbu_0, # of connection points: 4
#     Node 23, Type 0, BuildingBlock: GALJAG_clean_sbu_0, # of connection points: 4
#     Node 24, Type 0, BuildingBlock: GALJAG_clean_sbu_0, # of connection points: 4
#     Node 25, Type 0, BuildingBlock: GALJAG_clean_sbu_0, # of connection points: 4
#     Node 26, Type 0, BuildingBlock: GALJAG_clean_sbu_0, # of connection points: 4
#     Node 27, Type 0, BuildingBlock: GALJAG_clean_sbu_0, # of connection points: 4
#     Node 28, Type 0, BuildingBlock: GALJAG_clean_sbu_0, # of connection points: 4
#     Node 29, Type 0, BuildingBlock: GALJAG_clean_sbu_0, # of connection points: 4
#     Node 30, Type 0, BuildingBlock: GALJAG_clean_sbu_0, # of connection points: 4
#     Node 31, Type 0, BuildingBlock: GALJAG_clean_sbu_0, # of connection points: 4
#     Node 32, Type 0, BuildingBlock: GALJAG_clean_sbu_0, # of connection points: 4
#     Node 33, Type 0, BuildingBlock: GALJAG_clean_sbu_0, # of connection points: 4
#     Node 34, Type 0, BuildingBlock: GALJAG_clean_sbu_0, # of connection points: 4
#     Node 35, Type 0, BuildingBlock: GALJAG_clean_sbu_0, # of connection points: 4
#     Edge 36, Type (0, 0), BuildingBlock: OJICUG_clean_linker_0, # of connection points: 2
#     Edge 37, Type (0, 0), BuildingBlock: OJICUG_clean_linker_0, # of connection points: 2
#     Edge 38, Type (0, 0), BuildingBlock: OJICUG_clean_linker_0, # of connection points: 2
#     Edge 39, Type (0, 0), BuildingBlock: OJICUG_clean_linker_0, # of connection points: 2
#     Edge 40, Type (0, 0), BuildingBlock: OJICUG_clean_linker_0, # of connection points: 2
#     Edge 41, Type (0, 0), BuildingBlock: OJICUG_clean_linker_0, # of connection points: 2
#     Edge 42, Type (0, 0), BuildingBlock: OJICUG_clean_linker_0, # of connection points: 2
#     Edge 43, Type (0, 0), BuildingBlock: OJICUG_clean_linker_0, # of connection points: 2
#     Edge 44, Type (0, 0), BuildingBlock: OJICUG_clean_linker_0, # of connection points: 2
#     Edge 45, Type (0, 0), BuildingBlock: OJICUG_clean_linker_0, # of connection points: 2
#     Edge 46, Type (0, 0), BuildingBlock: OJICUG_clean_linker_0, # of connection points: 2
#     Edge 47, Type (0, 0), BuildingBlock: OJICUG_clean_linker_0, # of connection points: 2
#     Edge 48, Type (0, 0), BuildingBlock: OJICUG_clean_linker_0, # of connection points: 2
#     Edge 49, Type (0, 0), BuildingBlock: OJICUG_clean_linker_0, # of connection points: 2
#     Edge 50, Type (0, 0), BuildingBlock: OJICUG_clean_linker_0, # of connection points: 2
#     Edge 51, Type (0, 0), BuildingBlock: OJICUG_clean_linker_0, # of connection points: 2
#     Edge 52, Type (0, 0), BuildingBlock: OJICUG_clean_linker_0, # of connection points: 2
#     Edge 53, Type (0, 0), BuildingBlock: OJICUG_clean_linker_0, # of connection points: 2
#     Edge 54, Type (0, 0), BuildingBlock: OJICUG_clean_linker_0, # of connection points: 2
#     Edge 55, Type (0, 0), BuildingBlock: OJICUG_clean_linker_0, # of connection points: 2
#     Edge 56, Type (0, 0), BuildingBlock: OJICUG_clean_linker_0, # of connection points: 2
#     Edge 57, Type (0, 0), BuildingBlock: OJICUG_clean_linker_0, # of connection points: 2
#     Edge 58, Type (0, 0), BuildingBlock: OJICUG_clean_linker_0, # of connection points: 2
#     Edge 59, Type (0, 0), BuildingBlock: OJICUG_clean_linker_0, # of connection points: 2
#     Edge 60, Type (0, 0), BuildingBlock: OJICUG_clean_linker_0, # of connection points: 2
#     Edge 61, Type (0, 0), BuildingBlock: OJICUG_clean_linker_0, # of connection points: 2
#     Edge 62, Type (0, 0), BuildingBlock: OJICUG_clean_linker_0, # of connection points: 2
#     Edge 63, Type (0, 0), BuildingBlock: OJICUG_clean_linker_0, # of connection points: 2
#     Edge 64, Type (0, 0), BuildingBlock: OJICUG_clean_linker_0, # of connection points: 2
#     Edge 65, Type (0, 0), BuildingBlock: OJICUG_clean_linker_0, # of connection points: 2
#     Edge 66, Type (0, 0), BuildingBlock: OJICUG_clean_linker_0, # of connection points: 2
#     Edge 67, Type (0, 0), BuildingBlock: OJICUG_clean_linker_0, # of connection points: 2
#     Edge 68, Type (0, 0), BuildingBlock: OJICUG_clean_linker_0, # of connection points: 2
#     Edge 69, Type (0, 0), BuildingBlock: OJICUG_clean_linker_0, # of connection points: 2
#     Edge 70, Type (0, 0), BuildingBlock: OJICUG_clean_linker_0, # of connection points: 2
#     Edge 71, Type (0, 0), BuildingBlock: OJICUG_clean_linker_0, # of connection points: 2
#     Edge 72, Type (0, 0), BuildingBlock: OJICUG_clean_linker_0, # of connection points: 2
#     Edge 73, Type (0, 0), BuildingBlock: OJICUG_clean_linker_0, # of connection points: 2
#     Edge 74, Type (0, 0), BuildingBlock: OJICUG_clean_linker_0, # of connection points: 2
#     Edge 75, Type (0, 0), BuildingBlock: OJICUG_clean_linker_0, # of connection points: 2
#     Edge 76, Type (0, 0), BuildingBlock: OJICUG_clean_linker_0, # of connection points: 2
#     Edge 77, Type (0, 0), BuildingBlock: OJICUG_clean_linker_0, # of connection points: 2
#     Edge 78, Type (0, 0), BuildingBlock: OJICUG_clean_linker_0, # of connection points: 2
#     Edge 79, Type (0, 0), BuildingBlock: OJICUG_clean_linker_0, # of connection points: 2
#     Edge 80, Type (0, 0), BuildingBlock: OJICUG_clean_linker_0, # of connection points: 2
#     Edge 81, Type (0, 0), BuildingBlock: OJICUG_clean_linker_0, # of connection points: 2
#     Edge 82, Type (0, 0), BuildingBlock: OJICUG_clean_linker_0, # of connection points: 2
#     Edge 83, Type (0, 0), BuildingBlock: OJICUG_clean_linker_0, # of connection points: 2
#     Edge 84, Type (0, 0), BuildingBlock: OJICUG_clean_linker_0, # of connection points: 2
#     Edge 85, Type (0, 0), BuildingBlock: OJICUG_clean_linker_0, # of connection points: 2
#     Edge 86, Type (0, 0), BuildingBlock: OJICUG_clean_linker_0, # of connection points: 2
#     Edge 87, Type (0, 0), BuildingBlock: OJICUG_clean_linker_0, # of connection points: 2
#     Edge 88, Type (0, 0), BuildingBlock: OJICUG_clean_linker_0, # of connection points: 2
#     Edge 89, Type (0, 0), BuildingBlock: OJICUG_clean_linker_0, # of connection points: 2
#     Edge 90, Type (0, 0), BuildingBlock: OJICUG_clean_linker_0, # of connection points: 2
#     Edge 91, Type (0, 0), BuildingBlock: OJICUG_clean_linker_0, # of connection points: 2
#     Edge 92, Type (0, 0), BuildingBlock: OJICUG_clean_linker_0, # of connection points: 2
#     Edge 93, Type (0, 0), BuildingBlock: OJICUG_clean_linker_0, # of connection points: 2
#     Edge 94, Type (0, 0), BuildingBlock: OJICUG_clean_linker_0, # of connection points: 2
#     Edge 95, Type (0, 0), BuildingBlock: OJICUG_clean_linker_0, # of connection points: 2
#     Edge 96, Type (0, 0), BuildingBlock: OJICUG_clean_linker_0, # of connection points: 2
#     Edge 97, Type (0, 0), BuildingBlock: OJICUG_clean_linker_0, # of connection points: 2
#     Edge 98, Type (0, 0), BuildingBlock: OJICUG_clean_linker_0, # of connection points: 2
#     Edge 99, Type (0, 0), BuildingBlock: OJICUG_clean_linker_0, # of connection points: 2
#     Edge 100, Type (0, 0), BuildingBlock: OJICUG_clean_linker_0, # of connection points: 2
#     Edge 101, Type (0, 0), BuildingBlock: OJICUG_clean_linker_0, # of connection points: 2
#     Edge 102, Type (0, 0), BuildingBlock: OJICUG_clean_linker_0, # of connection points: 2
#     Edge 103, Type (0, 0), BuildingBlock: OJICUG_clean_linker_0, # of connection points: 2
#     Edge 104, Type (0, 0), BuildingBlock: OJICUG_clean_linker_0, # of connection points: 2
#     Edge 105, Type (0, 0), BuildingBlock: OJICUG_clean_linker_0, # of connection points: 2
#     Edge 106, Type (0, 0), BuildingBlock: OJICUG_clean_linker_0, # of connection points: 2
#     Edge 107, Type (0, 0), BuildingBlock: OJICUG_clean_linker_0, # of connection points: 2
# Relax obj value: 0.074
# Max RMSD: 0.099
# Mean RMSD: 0.099
data_MOF--net-ato--node1-GALJAG_clean_sbu_0--edge1-OJICUG_clean_linker_0
_symmetry_space_group_name_H-M    P1
_symmetry_Int_Tables_number       1
_symmetry_cell_setting            triclinic
loop_
_symmetry_equiv_pos_as_xyz
'x, y, z'
_cell_length_a     79.143317
_cell_length_b     79.185333
_cell_length_c     15.674964
_cell_angle_alpha  90.067034
_cell_angle_beta   89.970953
_cell_angle_gamma 119.99809
loop_
_atom_site_label
_atom_site_type_symbol
_atom_site_fract_x
_atom_site_fract_y
_atom_site_fract_z
_atom_type_partial_charge
In0 In 0.255 0.0575 0.2399 0.0
O1 O 0.25915 0.03973 0.34388 0.0
O2 O 0.23118 0.03702 0.33176 0.0
C3 C 0.29299 0.07977 0.1984 0.0
C4 C 0.24011 0.03063 0.11528 0.0
C5 C 0.24657 0.08625 0.26348 0.0
O6 O 0.28746 0.07382 0.27362 0.0
O7 O 0.27939 0.07466 0.14493 0.0
O8 O 0.24195 0.07603 0.19651 0.0
O9 O 0.25499 0.08163 0.31942 0.0
C10 C 0.24167 0.03146 0.36895 0.0
O11 O 0.23134 0.03927 0.14176 0.0
O12 O 0.25627 0.03582 0.15066 0.0
In13 In 0.94124 0.19577 0.26801 0.0
O14 O 0.95768 0.21645 0.37787 0.0
O15 O 0.96085 0.19155 0.36192 0.0
C16 C 0.9201 0.21251 0.22221 0.0
C17 C 0.96954 0.20811 0.14991 0.0
C18 C 0.9119 0.15858 0.28308 0.0
O19 O 0.92452 0.21169 0.29894 0.0
O20 O 0.92618 0.20477 0.16925 0.0
O21 O 0.92293 0.16467 0.2187 0.0
O22 O 0.91602 0.17112 0.34103 0.0
C23 C 0.96589 0.20714 0.4023 0.0
O24 O 0.95942 0.19032 0.16993 0.0
O25 O 0.96511 0.21934 0.18846 0.0
In26 In 0.80377 0.74544 0.23594 0.0
O27 O 0.80911 0.76947 0.14044 0.0
O28 O 0.78116 0.74384 0.14351 0.0
C29 C 0.84121 0.75389 0.24906 0.0
C30 C 0.79134 0.75916 0.36508 0.0
C31 C 0.78738 0.70692 0.20407 0.0
O32 O 0.83441 0.75723 0.1825 0.0
O33 O 0.82925 0.74676 0.30999 0.0
O34 O 0.78877 0.71358 0.27865 0.0
O35 O 0.79441 0.71968 0.14628 0.0
C36 C 0.79197 0.76037 0.11094 0.0
O37 O 0.78161 0.74192 0.33769 0.0
O38 O 0.80779 0.76921 0.33027 0.0
In39 In 0.05653 0.25268 0.76934 0.0
O40 O 0.03734 0.22829 0.86272 0.0
O41 O 0.03726 0.25508 0.86909 0.0
C42 C 0.08551 0.24426 0.75374 0.0
C43 C 0.02972 0.23904 0.64281 0.0
C44 C 0.07882 0.29131 0.79775 0.0
O45 O 0.07542 0.24074 0.82063 0.0
O46 O 0.08064 0.25157 0.69375 0.0
O47 O 0.07382 0.27876 0.85617 0.0
O48 O 0.07276 0.28438 0.72413 0.0
C49 C 0.03063 0.23807 0.89784 0.0
O50 O 0.03689 0.25606 0.67257 0.0
O51 O 0.03674 0.2292 0.67399 0.0
In52 In 0.74657 0.80363 0.73759 0.0
O53 O 0.74238 0.78222 0.63104 0.0
O54 O 0.7703 0.80749 0.64345 0.0
C55 C 0.70843 0.78739 0.77766 0.0
C56 C 0.7617 0.79115 0.85889 0.0
C57 C 0.75497 0.84103 0.72416 0.0
O58 O 0.71423 0.78839 0.70171 0.0
O59 O 0.72184 0.79473 0.83263 0.0
O60 O 0.75927 0.83455 0.78911 0.0
O61 O 0.74694 0.82878 0.6648 0.0
C62 C 0.7598 0.79155 0.60541 0.0
O63 O 0.77037 0.80867 0.83402 0.0
O64 O 0.7455 0.78029 0.8235 0.0
In65 In 0.19783 0.94218 0.74031 0.0
O66 O 0.21954 0.9598 0.63536 0.0
O67 O 0.19398 0.962 0.64644 0.0
C68 C 0.21395 0.92026 0.78192 0.0
C69 C 0.20985 0.96955 0.8628 0.0
C70 C 0.16055 0.91325 0.72109 0.0
O71 O 0.21378 0.92567 0.70623 0.0
O72 O 0.20581 0.92571 0.83581 0.0
O73 O 0.16652 0.92375 0.78718 0.0
O74 O 0.17329 0.91766 0.6638 0.0
C75 C 0.21007 0.96771 0.60929 0.0
O76 O 0.19238 0.96063 0.83714 0.0
O77 O 0.22088 0.96439 0.82767 0.0
In78 In 0.7455 0.94189 0.756 0.0
O79 O 0.7692 0.96046 0.8534 0.0
O80 O 0.74397 0.96342 0.84532 0.0
C81 C 0.75419 0.91325 0.73433 0.0
C82 C 0.7586 0.96783 0.62649 0.0
C83 C 0.70748 0.91958 0.79708 0.0
O84 O 0.75861 0.92354 0.80105 0.0
O85 O 0.74582 0.91775 0.67762 0.0
O86 O 0.71306 0.92542 0.7218 0.0
O87 O 0.72105 0.92477 0.8508 0.0
C88 C 0.76024 0.96888 0.8802 0.0
O89 O 0.74112 0.95941 0.65156 0.0
O90 O 0.76922 0.96244 0.66386 0.0
In91 In 0.05838 0.80372 0.7307 0.0
O92 O 0.04156 0.78258 0.62274 0.0
O93 O 0.03857 0.80763 0.6367 0.0
C94 C 0.0801 0.78746 0.7736 0.0
C95 C 0.03044 0.79119 0.85067 0.0
C96 C 0.08748 0.84102 0.7154 0.0
O97 O 0.07525 0.78811 0.69738 0.0
O98 O 0.07414 0.79514 0.82747 0.0
O99 O 0.07667 0.8348 0.7804 0.0
O100 O 0.08324 0.82855 0.65697 0.0
C101 C 0.03337 0.79185 0.59761 0.0
O102 O 0.03974 0.80884 0.82763 0.0
O103 O 0.03551 0.78023 0.81418 0.0
In104 In 0.1956 0.25265 0.76884 0.0
O105 O 0.2188 0.25595 0.67308 0.0
O106 O 0.19193 0.22923 0.67313 0.0
C107 C 0.21196 0.2913 0.79687 0.0
C108 C 0.2067 0.23808 0.89804 0.0
C109 C 0.1582 0.24424 0.75335 0.0
O110 O 0.20435 0.27876 0.85533 0.0
O111 O 0.21113 0.28434 0.72332 0.0
O112 O 0.16473 0.24064 0.82008 0.0
O113 O 0.1704 0.25162 0.69343 0.0
C114 C 0.2089 0.23899 0.64277 0.0
O115 O 0.19038 0.22818 0.8617 0.0
O116 O 0.217 0.25517 0.87009 0.0
In117 In 0.943 0.74575 0.22956 0.0
O118 O 0.96337 0.74387 0.13419 0.0
O119 O 0.96163 0.76982 0.13394 0.0
C120 C 0.91401 0.75411 0.24553 0.0
C121 C 0.96957 0.75956 0.35694 0.0
C122 C 0.9207 0.70716 0.19979 0.0
O123 O 0.92387 0.7574 0.17808 0.0
O124 O 0.91912 0.74708 0.3058 0.0
O125 O 0.92641 0.714 0.2738 0.0
O126 O 0.9261 0.71978 0.14147 0.0
C127 C 0.96928 0.76052 0.10256 0.0
O128 O 0.96214 0.74236 0.32904 0.0
O129 O 0.96294 0.76953 0.32341 0.0
In130 In 0.25401 0.19584 0.26682 0.0
O131 O 0.25831 0.2164 0.37734 0.0
O132 O 0.23025 0.19147 0.36166 0.0
C133 C 0.29196 0.2127 0.22156 0.0
C134 C 0.23787 0.20825 0.15007 0.0
C135 C 0.24594 0.15852 0.27829 0.0
O136 O 0.2866 0.21123 0.29846 0.0
O137 O 0.27821 0.20556 0.16815 0.0
O138 O 0.24133 0.16502 0.21437 0.0
O139 O 0.25416 0.17073 0.33767 0.0
C140 C 0.24082 0.20705 0.40213 0.0
O141 O 0.23033 0.19043 0.16927 0.0
O142 O 0.2535 0.21949 0.18875 0.0
In143 In 0.80175 0.0572 0.25555 0.0
O144 O 0.80746 0.03905 0.15812 0.0
O145 O 0.77878 0.03481 0.16849 0.0
C146 C 0.8389 0.08626 0.276 0.0
C147 C 0.78966 0.03163 0.38641 0.0
C148 C 0.78561 0.07903 0.21259 0.0
O149 O 0.83317 0.07565 0.2102 0.0
O150 O 0.82599 0.0819 0.33245 0.0
O151 O 0.78556 0.07355 0.28837 0.0
O152 O 0.79394 0.07366 0.15933 0.0
C153 C 0.78996 0.02991 0.13285 0.0
O154 O 0.78005 0.03939 0.36032 0.0
O155 O 0.8058 0.03751 0.3494 0.0
In156 In 0.92189 0.39074 0.57396 0.0
O157 O 0.89817 0.37256 0.47601 0.0
O158 O 0.92326 0.36934 0.48325 0.0
C159 C 0.91353 0.41955 0.59703 0.0
C160 C 0.90842 0.36451 0.70235 0.0
C161 C 0.95999 0.41306 0.53432 0.0
O162 O 0.90905 0.40939 0.52991 0.0
O163 O 0.92178 0.41483 0.65342 0.0
O164 O 0.95426 0.40706 0.60931 0.0
O165 O 0.94651 0.40796 0.48013 0.0
C166 C 0.90702 0.36408 0.44848 0.0
O167 O 0.92585 0.37261 0.67678 0.0
O168 O 0.89805 0.37034 0.66601 0.0
In169 In 0.60829 0.52936 0.59764 0.0
O170 O 0.62667 0.52394 0.50057 0.0
O171 O 0.63182 0.55284 0.5164 0.0
C172 C 0.57898 0.49209 0.61039 0.0
C173 C 0.63303 0.54075 0.73175 0.0
C174 C 0.58701 0.54606 0.55365 0.0
O175 O 0.59003 0.49845 0.5462 0.0
O176 O 0.58306 0.5044 0.6694 0.0
O177 O 0.59136 0.54498 0.63025 0.0
O178 O 0.59326 0.53862 0.49998 0.0
C179 C 0.63649 0.54165 0.47905 0.0
O180 O 0.62506 0.55023 0.70657 0.0
O181 O 0.62771 0.52499 0.6923 0.0
In182 In 0.47012 0.07998 0.55619 0.0
O183 O 0.44761 0.07645 0.65615 0.0
O184 O 0.47376 0.10379 0.64939 0.0
C185 C 0.45409 0.04144 0.52558 0.0
C186 C 0.45847 0.09457 0.42911 0.0
C187 C 0.50754 0.0886 0.57332 0.0
O188 O 0.45489 0.04817 0.59958 0.0
O189 O 0.46152 0.05415 0.46771 0.0
O190 O 0.50104 0.09191 0.50573 0.0
O191 O 0.49528 0.0814 0.63314 0.0
C192 C 0.45723 0.09371 0.68344 0.0
O193 O 0.47547 0.10389 0.45992 0.0
O194 O 0.44774 0.07798 0.46133 0.0
In195 In 0.72364 0.5859 0.09902 0.0
O196 O 0.70456 0.56174 0.19349 0.0
O197 O 0.70391 0.58826 0.19638 0.0
C198 C 0.75248 0.57729 0.0836 0.0
C199 C 0.69698 0.57238 0.97182 0.0
C200 C 0.74609 0.62444 0.12953 0.0
O201 O 0.74232 0.57372 0.15027 0.0
O202 O 0.74774 0.58472 0.02365 0.0
O203 O 0.74086 0.61172 0.18731 0.0
O204 O 0.74017 0.61772 0.05549 0.0
C205 C 0.69751 0.57142 0.22667 0.0
O206 O 0.7045 0.58953 0.00033 0.0
O207 O 0.70361 0.56232 0.00451 0.0
In208 In 0.41222 0.13744 0.05776 0.0
O209 O 0.40798 0.1163 0.94989 0.0
O210 O 0.4359 0.14156 0.96287 0.0
C211 C 0.3742 0.12095 0.10046 0.0
C212 C 0.42776 0.12498 0.17733 0.0
C213 C 0.42028 0.17472 0.04437 0.0
O214 O 0.37975 0.12189 0.02411 0.0
O215 O 0.3878 0.12846 0.15452 0.0
O216 O 0.42492 0.1684 0.1088 0.0
O217 O 0.41207 0.16238 0.98549 0.0
C218 C 0.4254 0.12571 0.92417 0.0
O219 O 0.43611 0.1426 0.15393 0.0
O220 O 0.41167 0.114 0.14137 0.0
In221 In 0.86434 0.27543 0.07437 0.0
O222 O 0.85902 0.29396 0.17123 0.0
O223 O 0.88757 0.29791 0.16023 0.0
C224 C 0.82707 0.24651 0.05498 0.0
C225 C 0.87652 0.30073 0.94251 0.0
C226 C 0.88029 0.25351 0.11852 0.0
O227 O 0.83294 0.25724 0.1204 0.0
O228 O 0.8399 0.2507 -0.00169 0.0
O229 O 0.88039 0.2589 0.04255 0.0
O230 O 0.87198 0.25899 0.17138 0.0
C231 C 0.87657 0.30303 0.19589 0.0
O232 O 0.88589 0.29269 0.96832 0.0
O233 O 0.86054 0.29525 0.9803 0.0
In234 In 0.41091 0.2757 0.07687 0.0
O235 O 0.40675 0.29323 0.97178 0.0
O236 O 0.43466 0.29581 0.98386 0.0
C237 C 0.37296 0.25367 0.11978 0.0
C238 C 0.42611 0.30295 0.19994 0.0
C239 C 0.41928 0.24685 0.05505 0.0
O240 O 0.37837 0.2595 0.04434 0.0
O241 O 0.38666 0.25875 0.17272 0.0
O242 O 0.424 0.25729 0.12134 0.0
O243 O 0.41074 0.25127 -0.00115 0.0
C244 C 0.42419 0.30136 0.94633 0.0
O245 O 0.43473 0.2941 0.17415 0.0
O246 O 0.40994 0.29778 0.16467 0.0
In247 In 0.72467 0.13707 0.0674 0.0
O248 O 0.70787 0.11624 0.95851 0.0
O249 O 0.7049 0.14126 0.97425 0.0
C250 C 0.74585 0.12028 0.1117 0.0
C251 C 0.6967 0.12488 0.18698 0.0
C252 C 0.75402 0.17423 0.05118 0.0
O253 O 0.7412 0.12103 0.03526 0.0
O254 O 0.73999 0.12814 0.1651 0.0
O255 O 0.74316 0.16821 0.11608 0.0
O256 O 0.74975 0.16162 0.99336 0.0
C257 C 0.69969 0.12558 0.93427 0.0
O258 O 0.7066 0.14261 0.16576 0.0
O259 O 0.70118 0.11364 0.14888 0.0
In260 In 0.86263 0.58588 0.10121 0.0
O261 O 0.88447 0.58837 0.20012 0.0
O262 O 0.85744 0.5617 0.19577 0.0
C263 C 0.8252 0.57733 0.08504 0.0
C264 C 0.87587 0.57221 0.97501 0.0
C265 C 0.87889 0.62449 0.12973 0.0
O266 O 0.83174 0.57389 0.15216 0.0
O267 O 0.83742 0.58462 0.02512 0.0
O268 O 0.87138 0.61194 0.18816 0.0
O269 O 0.878 0.61757 0.05606 0.0
C270 C 0.87405 0.57147 0.22993 0.0
O271 O 0.88556 0.58934 0.00368 0.0
O272 O 0.85911 0.56224 0.00711 0.0
In273 In 0.60932 0.08036 0.56614 0.0
O274 O 0.62852 0.07681 0.66464 0.0
O275 O 0.62905 0.10385 0.66169 0.0
C276 C 0.58711 0.04172 0.53759 0.0
C277 C 0.63562 0.09501 0.43916 0.0
C278 C 0.58035 0.08885 0.57875 0.0
O279 O 0.59252 0.05425 0.47888 0.0
O280 O 0.5927 0.04869 0.61154 0.0
O281 O 0.59051 0.09214 0.51226 0.0
O282 O 0.58515 0.08177 0.63988 0.0
C283 C 0.63581 0.09387 0.69394 0.0
O284 O 0.62903 0.07806 0.46851 0.0
O285 O 0.62867 0.10472 0.47293 0.0
In286 In 0.92135 0.52933 0.5994 0.0
O287 O 0.89752 0.52396 0.5027 0.0
O288 O 0.92116 0.5529 0.51935 0.0
C289 C 0.91326 0.49201 0.61082 0.0
C290 C 0.90809 0.54058 0.73433 0.0
C291 C 0.95936 0.54614 0.55545 0.0
O292 O 0.90874 0.49854 0.54672 0.0
O293 O 0.92142 0.50419 0.67035 0.0
O294 O 0.95389 0.54479 0.63212 0.0
O295 O 0.9457 0.5389 0.50164 0.0
C296 C 0.90533 0.54171 0.48188 0.0
O297 O 0.92553 0.55007 0.70898 0.0
O298 O 0.89761 0.52488 0.69458 0.0
In299 In 0.46871 0.39105 0.5765 0.0
O300 O 0.44678 0.3732 0.68041 0.0
O301 O 0.47224 0.37082 0.66911 0.0
C302 C 0.45287 0.41325 0.53579 0.0
C303 C 0.45674 0.36407 0.4523 0.0
C304 C 0.50593 0.41986 0.59851 0.0
O305 O 0.45272 0.40747 0.61108 0.0
O306 O 0.46117 0.40801 0.48182 0.0
O307 O 0.50019 0.40958 0.53176 0.0
O308 O 0.49301 0.41528 0.65504 0.0
C309 C 0.45612 0.36511 0.706 0.0
O310 O 0.47416 0.37277 0.47867 0.0
O311 O 0.44575 0.36926 0.48756 0.0
In312 In 0.58875 0.72425 0.90963 0.0
O313 O 0.56501 0.70611 0.81163 0.0
O314 O 0.59003 0.70277 0.81904 0.0
C315 C 0.58041 0.75308 0.93275 0.0
C316 C 0.5752 0.69803 0.03806 0.0
C317 C 0.6269 0.74644 0.87038 0.0
O318 O 0.57603 0.743 0.86539 0.0
O319 O 0.58858 0.74828 0.98925 0.0
O320 O 0.6211 0.74045 0.94532 0.0
O321 O 0.61347 0.74142 0.81603 0.0
C322 C 0.57381 0.69756 0.78422 0.0
O323 O 0.59264 0.7061 0.01258 0.0
O324 O 0.56487 0.70387 0.00157 0.0
In325 In 0.27605 0.8631 0.92172 0.0
O326 O 0.29317 0.88422 0.0293 0.0
O327 O 0.29594 0.85906 0.01485 0.0
C328 C 0.25447 0.87956 0.87936 0.0
C329 C 0.30375 0.87535 0.8008 0.0
C330 C 0.24686 0.82585 0.93769 0.0
O331 O 0.25934 0.87886 0.9555 0.0
O332 O 0.26033 0.87183 0.82533 0.0
O333 O 0.25764 0.83199 0.87258 0.0
O334 O 0.25116 0.83838 0.99591 0.0
C335 C 0.30132 0.87488 0.05393 0.0
O336 O 0.29428 0.8577 0.82365 0.0
O337 O 0.29897 0.88647 0.83797 0.0
In338 In 0.13652 0.4126 0.89782 0.0
O339 O 0.1142 0.40927 -0.00167 0.0
O340 O 0.14059 0.4364 0.99209 0.0
C341 C 0.12 0.37399 0.86782 0.0
C342 C 0.12495 0.42753 0.77189 0.0
C343 C 0.17388 0.42086 0.91179 0.0
O344 O 0.12139 0.38085 0.94201 0.0
O345 O 0.12707 0.3866 0.80944 0.0
O346 O 0.16715 0.4241 0.84475 0.0
O347 O 0.16189 0.41391 0.97267 0.0
C348 C 0.12404 0.42647 0.02614 0.0
O349 O 0.14198 0.4367 0.80245 0.0
O350 O 0.11414 0.41093 0.8038 0.0
In351 In 0.39146 0.92029 0.42294 0.0
O352 O 0.37219 0.89601 0.51653 0.0
O353 O 0.37115 0.92233 0.51809 0.0
C354 C 0.42045 0.91178 0.41166 0.0
C355 C 0.36527 0.90678 0.29396 0.0
C356 C 0.41361 0.95887 0.45311 0.0
O357 O 0.41016 0.90847 0.47773 0.0
O358 O 0.41577 0.9189 0.35022 0.0
O359 O 0.40797 0.94623 0.5114 0.0
O360 O 0.40828 0.95205 0.37878 0.0
C361 C 0.36482 0.9055 0.54851 0.0
O362 O 0.37265 0.92391 0.32261 0.0
O363 O 0.37183 0.89674 0.3274 0.0
In364 In 0.07953 0.47098 0.39937 0.0
O365 O 0.1033 0.47603 0.49607 0.0
O366 O 0.07861 0.44756 0.48421 0.0
C367 C 0.08776 0.50832 0.38518 0.0
C368 C 0.09273 0.459 0.26679 0.0
C369 C 0.04142 0.45458 0.44034 0.0
O370 O 0.09218 0.50196 0.45021 0.0
O371 O 0.0797 0.49598 0.32616 0.0
O372 O 0.04715 0.45551 0.3643 0.0
O373 O 0.0549 0.46208 0.49499 0.0
C374 C 0.09473 0.45845 0.52011 0.0
O375 O 0.07526 0.44976 0.29194 0.0
O376 O 0.1033 0.47482 0.30558 0.0
In377 In 0.53088 0.6089 0.41007 0.0
O378 O 0.52562 0.62747 0.50703 0.0
O379 O 0.55411 0.63125 0.49638 0.0
C380 C 0.49355 0.58012 0.39034 0.0
C381 C 0.54317 0.6343 0.27857 0.0
C382 C 0.54682 0.5869 0.45303 0.0
O383 O 0.49949 0.59063 0.45636 0.0
O384 O 0.50634 0.58442 0.33338 0.0
O385 O 0.54688 0.59238 0.37727 0.0
O386 O 0.53853 0.59231 0.50632 0.0
C387 C 0.54315 0.63644 0.53193 0.0
O388 O 0.55247 0.62618 0.30418 0.0
O389 O 0.52721 0.62887 0.31642 0.0
In390 In 0.07853 0.60939 0.41407 0.0
O391 O 0.07448 0.62712 0.30952 0.0
O392 O 0.1023 0.62947 0.32103 0.0
C393 C 0.04051 0.58731 0.456 0.0
C394 C 0.09368 0.63652 0.53758 0.0
C395 C 0.08694 0.58054 0.39329 0.0
O396 O 0.04603 0.59303 0.38052 0.0
O397 O 0.05414 0.59254 0.50946 0.0
O398 O 0.09154 0.59099 0.45953 0.0
O399 O 0.0785 0.58495 0.33657 0.0
C400 C 0.09191 0.63516 0.28392 0.0
O401 O 0.10233 0.62772 0.51141 0.0
O402 O 0.0775 0.63135 0.50242 0.0
In403 In 0.39107 0.47081 0.39851 0.0
O404 O 0.3741 0.4496 0.29107 0.0
O405 O 0.37114 0.47467 0.30489 0.0
C406 C 0.41275 0.45443 0.44007 0.0
C407 C 0.36333 0.45833 0.51933 0.0
C408 C 0.42025 0.5081 0.38361 0.0
O409 O 0.40789 0.45521 0.36401 0.0
O410 O 0.40684 0.46206 0.49443 0.0
O411 O 0.40947 0.50185 0.44869 0.0
O412 O 0.41593 0.49569 0.32488 0.0
C413 C 0.36588 0.45885 0.26605 0.0
O414 O 0.37242 0.47592 0.49545 0.0
O415 O 0.3685 0.44741 0.48323 0.0
In416 In 0.53056 0.92045 0.43888 0.0
O417 O 0.5532 0.92383 0.33989 0.0
O418 O 0.52699 0.89653 0.34649 0.0
C419 C 0.54662 0.95903 0.46816 0.0
C420 C 0.542 0.90598 0.56721 0.0
C421 C 0.49318 0.9119 0.42043 0.0
O422 O 0.54585 0.95218 0.39446 0.0
O423 O 0.53916 0.94642 0.52642 0.0
O424 O 0.49958 0.90864 0.48847 0.0
O425 O 0.50551 0.919 0.36086 0.0
C426 C 0.54357 0.90655 0.3128 0.0
O427 O 0.55276 0.92256 0.53504 0.0
O428 O 0.52507 0.8966 0.53572 0.0
In429 In 0.27567 0.41257 0.89735 0.0
O430 O 0.29463 0.4092 -0.00221 0.0
O431 O 0.29543 0.43635 0.99162 0.0
C432 C 0.25355 0.37397 0.86712 0.0
C433 C 0.30218 0.4275 0.77135 0.0
C434 C 0.24658 0.42085 0.91155 0.0
O435 O 0.259 0.3808 0.94134 0.0
O436 O 0.25911 0.3866 0.80881 0.0
O437 O 0.25656 0.42411 0.84449 0.0
O438 O 0.25161 0.41387 0.97235 0.0
C439 C 0.30201 0.42639 0.02562 0.0
O440 O 0.29435 0.43668 0.80203 0.0
O441 O 0.29635 0.41088 0.80318 0.0
In442 In 0.58822 0.8628 0.93724 0.0
O443 O 0.56426 0.85783 0.84194 0.0
O444 O 0.58878 0.88639 0.85464 0.0
C445 C 0.57985 0.82538 0.9482 0.0
C446 C 0.57527 0.87445 0.07189 0.0
C447 C 0.62624 0.87907 0.89459 0.0
O448 O 0.57543 0.83201 0.88414 0.0
O449 O 0.58799 0.83749 0.00797 0.0
O450 O 0.62068 0.87792 0.97105 0.0
O451 O 0.61265 0.87191 0.84039 0.0
C452 C 0.57263 0.87548 0.81892 0.0
O453 O 0.59263 0.8839 0.04555 0.0
O454 O 0.56472 0.8586 0.03327 0.0
In455 In 0.13651 0.72473 0.91357 0.0
O456 O 0.11472 0.70712 0.01832 0.0
O457 O 0.14011 0.70464 0.00688 0.0
C458 C 0.1206 0.74681 0.87191 0.0
C459 C 0.12437 0.69753 0.79033 0.0
C460 C 0.17382 0.75356 0.93311 0.0
O461 O 0.12065 0.74132 0.94756 0.0
O462 O 0.12876 0.74137 0.81813 0.0
O463 O 0.16788 0.74301 0.8672 0.0
O464 O 0.16105 0.74924 0.99018 0.0
C465 C 0.12404 0.69903 0.04403 0.0
O466 O 0.14182 0.70624 0.81639 0.0
O467 O 0.11343 0.7028 0.8255 0.0
C468 C 0.23728 0.99175 0.51708 0.0
C469 C 0.21793 0.98358 0.54568 0.0
H470 H 0.26006 0.01352 0.43976 0.0
C471 C 0.20654 0.99148 0.51676 0.0
H472 H 0.24645 0.98606 0.53879 0.0
C473 C 0.21434 0.00721 0.46014 0.0
C474 C 0.23372 0.01545 0.43191 0.0
H475 H 0.19161 0.98555 0.53809 0.0
H476 H 0.20517 0.01291 0.43844 0.0
C477 C 0.24512 0.00757 0.46096 0.0
C478 C 0.00627 0.21201 0.54776 0.0
C479 C 0.01348 0.23088 0.58084 0.0
H480 H 0.98543 0.18962 0.46574 0.0
C481 C 0.00447 0.2416 0.55702 0.0
H482 H 0.01285 0.20336 0.56541 0.0
C483 C 0.98864 0.23365 0.50085 0.0
C484 C 0.98156 0.21486 0.46701 0.0
H485 H 0.0096 0.25612 0.58204 0.0
H486 H 0.98213 0.24235 0.48299 0.0
C487 C 0.9905 0.2041 0.49116 0.0
C488 C 0.76399 0.75638 0.45513 0.0
C489 C 0.78346 0.76736 0.42791 0.0
H490 H 0.74115 0.75556 0.5315 0.0
C491 C 0.79498 0.78655 0.45786 0.0
H492 H 0.75471 0.7416 0.43262 0.0
C493 C 0.7872 0.79456 0.51442 0.0
C494 C 0.76771 0.78358 0.54159 0.0
H495 H 0.81 0.7954 0.43757 0.0
H496 H 0.79647 0.80932 0.53718 0.0
C497 C 0.75617 0.76443 0.5112 0.0
C498 C 0.75483 0.99149 0.53426 0.0
C499 C 0.76641 0.98383 0.56348 0.0
H500 H 0.75323 0.01285 0.45641 0.0
C501 C 0.78583 0.99229 0.53547 0.0
H502 H 0.73986 0.98536 0.55529 0.0
C503 C 0.79349 0.00804 0.47894 0.0
C504 C 0.78192 0.01573 0.44989 0.0
H505 H 0.79513 0.98676 0.5573 0.0
H506 H 0.80845 0.01415 0.4578 0.0
C507 C 0.76254 0.00733 0.47824 0.0
C508 C 0.01024 0.76495 0.50161 0.0
C509 C 0.01762 0.78396 0.53326 0.0
H510 H 0.98907 0.74223 0.42201 0.0
C511 C 0.00896 0.79485 0.50703 0.0
H512 H 0.01653 0.75615 0.52115 0.0
C513 C 0.99321 0.78687 0.45033 0.0
C514 C 0.98573 0.76778 0.41931 0.0
H515 H 0.01427 0.80951 0.53073 0.0
H516 H 0.98688 0.79563 0.43092 0.0
C517 C 0.99442 0.75692 0.44539 0.0
C518 C 0.24465 0.23347 0.5015 0.0
C519 C 0.23288 0.21475 0.46713 0.0
H520 H 0.24621 0.25591 0.58308 0.0
C521 C 0.21314 0.20405 0.49087 0.0
H522 H 0.25989 0.24212 0.48399 0.0
C523 C 0.20528 0.21198 0.54746 0.0
C524 C 0.217 0.2308 0.58098 0.0
H525 H 0.20368 0.18962 0.46505 0.0
H526 H 0.19002 0.20339 0.56471 0.0
C527 C 0.23677 0.24143 0.5577 0.0
C528 C 0.88105 0.34041 0.79381 0.0
C529 C 0.90037 0.34844 0.76501 0.0
H530 H 0.85831 0.31891 0.87221 0.0
C531 C 0.91162 0.34033 0.79331 0.0
H532 H 0.872 0.34629 0.77267 0.0
C533 C 0.9037 0.3245 0.84937 0.0
C534 C 0.88442 0.31655 0.87866 0.0
H535 H 0.92651 0.34612 0.77165 0.0
H536 H 0.91276 0.31864 0.87058 0.0
C537 C 0.87318 0.32466 0.85036 0.0
C538 C 0.65625 0.56741 0.82857 0.0
C539 C 0.64876 0.54844 0.79622 0.0
H540 H 0.67755 0.58995 0.90847 0.0
C541 C 0.65735 0.53742 0.82166 0.0
H542 H 0.65003 0.57631 0.80969 0.0
C543 C 0.67315 0.54526 0.87813 0.0
C544 C 0.68075 0.56431 0.90976 0.0
H545 H 0.65196 0.52279 0.7974 0.0
H546 H 0.67943 0.53641 0.89684 0.0
C547 C 0.67211 0.57528 0.88458 0.0
C548 C 0.4297 0.09084 0.77249 0.0
C549 C 0.44921 0.10186 0.74576 0.0
H550 H 0.40678 0.08987 0.84877 0.0
C551 C 0.46066 0.12103 0.77611 0.0
H552 H 0.42046 0.07608 0.74964 0.0
C553 C 0.45282 0.12894 0.8328 0.0
C554 C 0.43332 0.11789 0.85971 0.0
H555 H 0.47571 0.12991 0.75619 0.0
H556 H 0.46206 0.14367 0.856 0.0
C557 C 0.42182 0.0988 0.8287 0.0
C558 C 0.45941 0.34111 0.79788 0.0
C559 C 0.44813 0.34913 0.7691 0.0
H560 H 0.46063 0.3196 0.87623 0.0
C561 C 0.42878 0.34106 0.79764 0.0
H562 H 0.47433 0.34696 0.77659 0.0
C563 C 0.42086 0.32523 0.85375 0.0
C564 C 0.43217 0.31726 0.88286 0.0
H565 H 0.41969 0.34684 0.776 0.0
H566 H 0.40594 0.31938 0.87503 0.0
C567 C 0.45153 0.32537 0.85451 0.0
C568 C 0.67661 0.09897 0.83699 0.0
C569 C 0.68391 0.11786 0.87002 0.0
H570 H 0.65547 0.07648 0.75642 0.0
C571 C 0.67516 0.12877 0.84527 0.0
H572 H 0.68296 0.09016 0.85535 0.0
C573 C 0.65938 0.12091 0.7887 0.0
C574 C 0.65198 0.10195 0.75629 0.0
H575 H 0.68042 0.14333 0.87007 0.0
H576 H 0.65298 0.12968 0.77044 0.0
C577 C 0.66076 0.09108 0.78089 0.0
C578 C 0.88047 0.53725 0.82454 0.0
C579 C 0.90009 0.54823 0.79925 0.0
H580 H 0.85737 0.53628 0.8997 0.0
C581 C 0.91165 0.56714 0.83207 0.0
H582 H 0.87118 0.52266 0.79995 0.0
C583 C 0.90369 0.57502 0.88827 0.0
C584 C 0.88404 0.56409 0.91315 0.0
H585 H 0.92678 0.57601 0.81333 0.0
H586 H 0.91296 0.58965 0.91243 0.0
C587 C 0.87253 0.54509 0.88119 0.0
C588 C 0.53991 0.65829 0.1864 0.0
C589 C 0.55111 0.65013 0.21473 0.0
H590 H 0.5388 0.67993 0.10855 0.0
C591 C 0.57037 0.65802 0.18539 0.0
H592 H 0.52505 0.65259 0.20829 0.0
C593 C 0.57833 0.67383 0.12923 0.0
C594 C 0.56712 0.68198 0.10085 0.0
H595 H 0.5794 0.65212 0.20663 0.0
H596 H 0.5932 0.67957 0.10752 0.0
C597 C 0.54782 0.67402 0.12972 0.0
C598 C 0.3416 0.87963 0.19994 0.0
C599 C 0.34917 0.89869 0.23129 0.0
H600 H 0.3204 0.85707 0.11958 0.0
C601 C 0.34054 0.90965 0.20558 0.0
H602 H 0.34787 0.8708 0.21906 0.0
C603 C 0.32468 0.90172 0.14959 0.0
C604 C 0.31719 0.8827 0.11776 0.0
H605 H 0.34596 0.92434 0.2292 0.0
H606 H 0.31844 0.91058 0.13045 0.0
C607 C 0.3258 0.87173 0.14346 0.0
C608 C 0.12012 0.46189 0.17621 0.0
C609 C 0.10058 0.45103 0.2027 0.0
H610 H 0.14292 0.46257 0.09983 0.0
C611 C 0.08891 0.43199 0.17143 0.0
H612 H 0.1295 0.47657 0.19964 0.0
C613 C 0.09665 0.4239 0.11525 0.0
C614 C 0.11619 0.43473 0.08879 0.0
H615 H 0.07383 0.42321 0.19118 0.0
H616 H 0.08728 0.40919 0.09212 0.0
C617 C 0.12784 0.45384 0.11953 0.0
C618 C 0.1193 0.65918 0.19226 0.0
C619 C 0.09996 0.65114 0.22074 0.0
H620 H 0.14214 0.68073 0.11434 0.0
C621 C 0.08873 0.65923 0.192 0.0
H622 H 0.12834 0.65331 0.21372 0.0
C623 C 0.0967 0.67508 0.13604 0.0
C624 C 0.11602 0.68308 0.10729 0.0
H625 H 0.07382 0.65343 0.21339 0.0
H626 H 0.08766 0.68095 0.11463 0.0
C627 C 0.12724 0.67494 0.1358 0.0
C628 C 0.34264 0.43185 0.17075 0.0
C629 C 0.35005 0.45089 0.20203 0.0
H630 H 0.32145 0.40907 0.09148 0.0
C631 C 0.34139 0.46177 0.17563 0.0
H632 H 0.34892 0.42305 0.19044 0.0
C633 C 0.32562 0.45374 0.119 0.0
C634 C 0.31813 0.43464 0.08823 0.0
H635 H 0.34672 0.47645 0.19907 0.0
H636 H 0.3193 0.4625 0.09936 0.0
C637 C 0.32681 0.42378 0.11463 0.0
C638 C 0.57111 0.90932 0.22405 0.0
C639 C 0.55161 0.89833 0.25084 0.0
H640 H 0.59398 0.91026 0.14755 0.0
C641 C 0.54013 0.87915 0.22066 0.0
H642 H 0.58036 0.92409 0.24679 0.0
C643 C 0.54795 0.87121 0.16392 0.0
C644 C 0.56743 0.88226 0.13677 0.0
H645 H 0.52508 0.87029 0.24064 0.0
H646 H 0.53868 0.85649 0.14076 0.0
C647 C 0.57896 0.90135 0.16777 0.0
C648 C 0.20551 0.99247 0.95881 0.0
C649 C 0.2172 0.98509 0.92768 0.0
H650 H 0.20371 0.01298 0.04263 0.0
C651 C 0.23637 0.99295 0.95785 0.0
H652 H 0.1907 0.9867 0.93626 0.0
C653 C 0.24374 0.00782 0.01829 0.0
C654 C 0.23214 0.01526 0.04959 0.0
H655 H 0.24573 0.98757 0.93496 0.0
H656 H 0.25857 0.01349 0.04051 0.0
C657 C 0.21297 0.00753 0.01923 0.0
C658 C 0.9954 0.23541 0.06604 0.0
C659 C 0.98542 0.2155 0.08672 0.0
H660 H 0.01755 0.25809 0.99055 0.0
C661 C 0.99083 0.20301 0.0468 0.0
H662 H 0.99162 0.24541 0.09601 0.0
C663 C 0.00587 0.21035 0.98637 0.0
C664 C 0.01559 0.23023 0.96489 0.0
H665 H 0.98341 0.18761 0.0619 0.0
H666 H 0.00965 0.20043 0.95558 0.0
C667 C 0.01029 0.24268 0.00568 0.0
C668 C 0.78863 0.79533 0.95645 0.0
C669 C 0.76976 0.78361 0.92339 0.0
H670 H 0.81063 0.79706 0.04181 0.0
C671 C 0.7585 0.76428 0.95152 0.0
H672 H 0.79762 0.81027 0.93553 0.0
C673 C 0.76588 0.75678 0.0119 0.0
C674 C 0.78471 0.76843 0.04522 0.0
H675 H 0.74392 0.75489 0.92711 0.0
H676 H 0.75677 0.74183 0.03258 0.0
C677 C 0.79608 0.78776 0.01686 0.0
C678 C 0.78732 0.99225 0.97581 0.0
C679 C 0.76809 0.98427 0.9458 0.0
H680 H 0.80949 0.01324 0.05859 0.0
C681 C 0.75631 0.99145 0.97745 0.0
H682 H 0.79672 0.98699 0.95213 0.0
C683 C 0.76354 0.00631 0.03796 0.0
C684 C 0.78276 0.01441 0.06783 0.0
H685 H 0.74143 0.98559 0.95551 0.0
H686 H 0.75403 0.01149 0.06116 0.0
C687 C 0.79463 0.00729 0.03628 0.0
C688 C 0.00803 0.79559 0.94971 0.0
C689 C 0.01469 0.78364 0.91457 0.0
H690 H 0.98814 0.79754 0.03682 0.0
C691 C 0.00603 0.76409 0.94027 0.0
H692 H 0.01443 0.8107 0.93066 0.0
C693 C 0.99112 0.75662 0.00056 0.0
C694 C 0.98449 0.76852 0.03623 0.0
H695 H 0.01082 0.75451 0.91417 0.0
H696 H 0.98486 0.74151 0.01949 0.0
C697 C 0.99297 0.78805 0.01004 0.0
C698 C 0.21166 0.20301 0.04579 0.0
C699 C 0.22929 0.21563 0.08735 0.0
H700 H 0.19049 0.20029 0.95309 0.0
C701 C 0.23889 0.23563 0.0685 0.0
H702 H 0.20393 0.18753 0.05945 0.0
C703 C 0.23126 0.24286 0.00811 0.0
C704 C 0.21382 0.23028 0.96547 0.0
H705 H 0.25245 0.24572 0.09984 0.0
H706 H 0.23916 0.25834 0.99431 0.0
C707 C 0.20394 0.21031 0.98532 0.0
C708 C 0.87977 0.34092 0.35308 0.0
C709 C 0.89903 0.34879 0.38248 0.0
H710 H 0.85738 0.31997 0.27091 0.0
C711 C 0.91068 0.34152 0.35007 0.0
H712 H 0.87047 0.34623 0.37734 0.0
C713 C 0.90327 0.32666 0.28958 0.0
C714 C 0.884 0.31863 0.26049 0.0
H715 H 0.92559 0.3473 0.37151 0.0
H716 H 0.91267 0.3214 0.2659 0.0
C717 C 0.87227 0.32587 0.29263 0.0
C718 C 0.67314 0.54391 0.3173 0.0
C719 C 0.68242 0.56365 0.29351 0.0
H720 H 0.65107 0.52133 0.39481 0.0
C721 C 0.67668 0.576 0.33198 0.0
H722 H 0.67728 0.53408 0.28834 0.0
C723 C 0.66182 0.56877 0.39246 0.0
C724 C 0.65231 0.54901 0.41555 0.0
H725 H 0.6836 0.59129 0.31502 0.0
H726 H 0.6577 0.57869 0.42067 0.0
C727 C 0.65813 0.53662 0.37782 0.0
C728 C 0.4547 0.12944 0.27557 0.0
C729 C 0.43601 0.11749 0.24114 0.0
H730 H 0.47665 0.13147 0.36211 0.0
C731 C 0.4251 0.09798 0.26753 0.0
H732 H 0.46343 0.14452 0.25599 0.0
C733 C 0.43259 0.09058 0.32781 0.0
C734 C 0.4512 0.10249 0.36277 0.0
H735 H 0.41067 0.0884 0.24199 0.0
H736 H 0.42372 0.0755 0.34729 0.0
C737 C 0.46227 0.12197 0.33588 0.0
C738 C 0.45335 0.32598 0.29581 0.0
C739 C 0.43424 0.31845 0.26502 0.0
H740 H 0.47565 0.34661 0.37924 0.0
C741 C 0.42282 0.32617 0.29559 0.0
H742 H 0.46247 0.32032 0.27295 0.0
C743 C 0.43028 0.34105 0.35599 0.0
C744 C 0.44937 0.34865 0.38684 0.0
H745 H 0.40804 0.32067 0.27299 0.0
H746 H 0.42104 0.34661 0.37847 0.0
C747 C 0.4609 0.34104 0.35618 0.0
C748 C 0.67517 0.12993 0.28888 0.0
C749 C 0.68094 0.11754 0.25077 0.0
H750 H 0.65603 0.13244 0.37852 0.0
C751 C 0.67138 0.09776 0.27353 0.0
H752 H 0.68227 0.14524 0.27216 0.0
C753 C 0.6565 0.0905 0.33391 0.0
C754 C 0.65078 0.10285 0.37265 0.0
H755 H 0.67546 0.08783 0.24505 0.0
H756 H 0.64954 0.07519 0.35054 0.0
C757 C 0.66014 0.12261 0.34933 0.0
C758 C 0.8787 0.53664 0.38038 0.0
C759 C 0.8968 0.54909 0.41885 0.0
H760 H 0.85711 0.53404 0.2903 0.0
C761 C 0.90689 0.56891 0.39681 0.0
H762 H 0.87059 0.5213 0.39656 0.0
C763 C 0.89925 0.57614 0.33645 0.0
C764 C 0.8813 0.56372 0.29706 0.0
H765 H 0.92084 0.57888 0.42565 0.0
H766 H 0.90752 0.59148 0.3202 0.0
C767 C 0.87097 0.54393 0.31997 0.0
C768 C 0.53897 0.65938 0.62847 0.0
C769 C 0.55063 0.65205 0.59654 0.0
H770 H 0.53727 0.67985 0.71292 0.0
C771 C 0.56988 0.65999 0.62576 0.0
H772 H 0.52409 0.65355 0.60666 0.0
C773 C 0.57735 0.67488 0.68614 0.0
C774 C 0.56576 0.68224 0.71833 0.0
H775 H 0.57923 0.65465 0.60222 0.0
H776 H 0.59223 0.68059 0.70767 0.0
C777 C 0.54652 0.67445 0.68883 0.0
C778 C 0.32837 0.90236 0.71145 0.0
C779 C 0.3194 0.88274 0.73648 0.0
H780 H 0.34977 0.92487 0.63274 0.0
C781 C 0.3257 0.87058 0.70039 0.0
H782 H 0.32386 0.9121 0.73829 0.0
C783 C 0.34072 0.87798 0.6399 0.0
C784 C 0.34954 0.89759 0.61453 0.0
H785 H 0.31905 0.8554 0.71887 0.0
H786 H 0.34528 0.86833 0.61247 0.0
C787 C 0.34325 0.90969 0.65102 0.0
C788 C 0.09905 0.42389 0.6715 0.0
C789 C 0.11775 0.43562 0.70595 0.0
H790 H 0.07719 0.42197 0.586 0.0
C791 C 0.12902 0.45505 0.67872 0.0
H792 H 0.09003 0.40886 0.69127 0.0
C793 C 0.12157 0.46265 0.61841 0.0
C794 C 0.10281 0.45086 0.58433 0.0
H795 H 0.14346 0.46441 0.70457 0.0
H796 H 0.13047 0.47768 0.59844 0.0
C797 C 0.09169 0.43141 0.61123 0.0
C798 C 0.09784 0.67448 0.69438 0.0
C799 C 0.11695 0.68208 0.72504 0.0
H800 H 0.07559 0.65414 0.61133 0.0
C801 C 0.12847 0.67449 0.69412 0.0
H802 H 0.08861 0.68002 0.71706 0.0
C803 C 0.12091 0.65946 0.6336 0.0
C804 C 0.1018 0.65195 0.60292 0.0
H805 H 0.14323 0.68007 0.71702 0.0
H806 H 0.13004 0.65383 0.61049 0.0
C807 C 0.09037 0.65963 0.63383 0.0
C808 C 0.32436 0.4238 0.67063 0.0
C809 C 0.31746 0.43556 0.70534 0.0
H810 H 0.34424 0.42182 0.58487 0.0
C811 C 0.32571 0.45502 0.6783 0.0
H812 H 0.3183 0.40875 0.69024 0.0
C813 C 0.34075 0.46259 0.61793 0.0
C814 C 0.34765 0.45077 0.58359 0.0
H815 H 0.32068 0.46441 0.70435 0.0
H816 H 0.34695 0.47764 0.59811 0.0
C817 C 0.33926 0.4313 0.6103 0.0
C818 C 0.54572 0.87107 0.72065 0.0
C819 C 0.56435 0.88305 0.7556 0.0
H820 H 0.52386 0.86903 0.63358 0.0
C821 C 0.57519 0.90261 0.72995 0.0
H822 H 0.53704 0.85595 0.73966 0.0
C823 C 0.56771 0.91003 0.66968 0.0
C824 C 0.54919 0.89808 0.634 0.0
H825 H 0.58956 0.91222 0.75596 0.0
H826 H 0.57654 0.92515 0.65065 0.0
C827 C 0.53816 0.87856 0.66036 0.0
C828 C 0.34813 0.10801 0.21205 0.0
C829 C 0.35343 0.1112 0.12544 0.0
H830 H 0.32483 0.09548 0.30309 0.0
C831 C 0.33871 0.10454 0.06326 0.0
H832 H 0.35917 0.11297 0.26144 0.0
C833 C 0.31906 0.09466 0.08719 0.0
C834 C 0.31376 0.09111 0.17372 0.0
H835 H 0.34237 0.10683 0.99607 0.0
H836 H 0.30803 0.08952 0.03776 0.0
C837 C 0.32848 0.09798 0.23594 0.0
C838 C 0.8915 0.23908 0.23157 0.0
C839 C 0.88976 0.2423 0.14464 0.0
H840 H 0.90254 0.22719 0.32433 0.0
C841 C 0.89759 0.23518 0.08343 0.0
H842 H 0.88561 0.24441 0.28024 0.0
C843 C 0.90717 0.22521 0.10872 0.0
C844 C 0.90923 0.2223 0.19571 0.0
H845 H 0.89645 0.23743 0.01601 0.0
H846 H 0.91321 0.22003 0.0601 0.0
C847 C 0.90121 0.22925 0.25687 0.0
C848 C 0.76137 0.65214 0.23311 0.0
C849 C 0.7575 0.64553 0.14822 0.0
H850 H 0.77381 0.67676 0.31741 0.0
C851 C 0.76411 0.65926 0.08187 0.0
H852 H 0.75645 0.64189 0.28564 0.0
C853 C 0.77416 0.67922 0.10011 0.0
C854 C 0.77765 0.68583 0.18506 0.0
H855 H 0.76136 0.6546 0.01586 0.0
H856 H 0.77889 0.68948 0.04763 0.0
C857 C 0.77129 0.6721 0.25137 0.0
C858 C 0.09665 0.326 0.74819 0.0
C859 C 0.09016 0.31246 0.81529 0.0
H860 H 0.11133 0.35612 0.71231 0.0
C861 C 0.09409 0.31931 0.89983 0.0
H862 H 0.09385 0.32115 0.68244 0.0
C863 C 0.10396 0.33932 0.91699 0.0
C864 C 0.11024 0.35286 0.84994 0.0
H865 H 0.08925 0.30921 0.9529 0.0
H866 H 0.10655 0.34417 0.98278 0.0
C867 C 0.10667 0.34601 0.76535 0.0
C868 C 0.68198 0.77446 0.88754 0.0
C869 C 0.68758 0.77773 0.80128 0.0
H870 H 0.65838 0.76193 0.97708 0.0
C871 C 0.67308 0.7712 0.73814 0.0
H872 H 0.69285 0.77932 0.93765 0.0
C873 C 0.65335 0.76138 0.76081 0.0
C874 C 0.64775 0.75774 0.847 0.0
H875 H 0.67696 0.77355 0.67119 0.0
H876 H 0.64248 0.75633 0.71067 0.0
C877 C 0.66226 0.76449 0.91017 0.0
C878 C 0.23111 0.90194 0.74418 0.0
C879 C 0.22356 0.90909 0.80655 0.0
H880 H 0.24667 0.88682 0.71843 0.0
C881 C 0.22575 0.90597 0.89313 0.0
H882 H 0.22961 0.9041 0.67699 0.0
C883 C 0.23564 0.89621 0.91692 0.0
C884 C 0.24338 0.88924 0.85457 0.0
H885 H 0.2201 0.91134 0.94267 0.0
H886 H 0.23734 0.89424 0.98413 0.0
C887 C 0.24085 0.89203 0.76795 0.0
C888 C 0.68135 0.90475 0.90811 0.0
C889 C 0.68669 0.90835 0.82163 0.0
H890 H 0.65802 0.89274 -0.00089 0.0
C891 C 0.67199 0.90168 0.75934 0.0
H892 H 0.69237 0.90974 0.95759 0.0
C893 C 0.65234 0.89184 0.78314 0.0
C894 C 0.64701 0.88862 0.86971 0.0
H895 H 0.67567 0.90422 0.69223 0.0
H896 H 0.64133 0.88705 0.7337 0.0
C897 C 0.6617 0.89505 0.93195 0.0
C898 C 0.09905 0.77092 0.73647 0.0
C899 C 0.09124 0.77785 0.79866 0.0
H900 H 0.11464 0.75582 0.71106 0.0
C901 C 0.09372 0.77506 0.88533 0.0
H902 H 0.09741 0.7729 0.66923 0.0
C903 C 0.10346 0.76517 0.90933 0.0
C904 C 0.11106 0.75803 0.84711 0.0
H905 H 0.08784 0.78024 0.93472 0.0
H906 H 0.1049 0.76298 0.97655 0.0
C907 C 0.10894 0.76118 0.76048 0.0
C908 C 0.22469 0.31929 0.89893 0.0
C909 C 0.2218 0.31245 0.81439 0.0
H910 H 0.23708 0.34413 0.98195 0.0
C911 C 0.2289 0.326 0.74732 0.0
H912 H 0.2194 0.30919 0.952 0.0
C913 C 0.23891 0.34601 0.76453 0.0
C914 C 0.24215 0.35284 0.84914 0.0
H915 H 0.22686 0.32115 0.68156 0.0
H916 H 0.24439 0.35612 0.71153 0.0
C917 C 0.23484 0.33929 0.91615 0.0
C918 C 0.90201 0.6725 0.24903 0.0
C919 C 0.9092 0.68603 0.18195 0.0
H920 H 0.88662 0.64239 0.28496 0.0
C921 C 0.90576 0.67919 0.09736 0.0
H922 H 0.90441 0.67735 0.31483 0.0
C923 C 0.89569 0.65918 0.08021 0.0
C924 C 0.88873 0.64564 0.14732 0.0
H925 H 0.91113 0.6893 0.04431 0.0
H926 H 0.89351 0.65433 0.01444 0.0
C927 C 0.8918 0.65249 0.23187 0.0
C928 C 0.34712 0.23859 0.23194 0.0
C929 C 0.35222 0.24246 0.14532 0.0
H930 H 0.32404 0.22621 0.32406 0.0
C931 C 0.33736 0.236 0.08391 0.0
H932 H 0.35827 0.24341 0.28076 0.0
C933 C 0.31776 0.22604 0.10872 0.0
C934 C 0.31267 0.2225 0.19546 0.0
H935 H 0.34085 0.23875 0.01671 0.0
H936 H 0.30661 0.22138 0.05997 0.0
C937 C 0.32753 0.22877 0.2568 0.0
C938 C 0.75891 0.1075 0.22429 0.0
C939 C 0.7567 0.11041 0.13746 0.0
H940 H 0.76973 0.09521 0.31621 0.0
C941 C 0.76452 0.10338 0.07576 0.0
H942 H 0.75301 0.11274 0.27331 0.0
C943 C 0.77421 0.09348 0.10039 0.0
C944 C 0.77612 0.09026 0.18716 0.0
H945 H 0.76307 0.10544 0.00841 0.0
H946 H 0.77996 0.08809 0.05132 0.0
C947 C 0.76845 0.09744 0.2489 0.0
C948 C 0.00604 0.4381 0.40143 0.0
C949 C 0.0206 0.44478 0.46435 0.0
H950 H 0.97542 0.42297 0.37442 0.0
C951 C 0.01508 0.44151 0.5507 0.0
H952 H 0.00986 0.44044 0.33442 0.0
C953 C 0.99537 0.43138 0.57363 0.0
C954 C 0.98081 0.42449 0.51067 0.0
H955 H 0.02599 0.44649 0.60063 0.0
H956 H 0.99155 0.42883 0.6406 0.0
C957 C 0.98633 0.42813 0.4244 0.0
C958 C 0.57394 0.55886 0.44122 0.0
C959 C 0.57603 0.55581 0.52801 0.0
H960 H 0.5631 0.57114 0.3494 0.0
C961 C 0.56794 0.56254 0.58972 0.0
H962 H 0.58004 0.55383 0.39217 0.0
C963 C 0.55812 0.57233 0.56515 0.0
C964 C 0.55635 0.5757 0.47843 0.0
H965 H 0.56929 0.56037 0.65704 0.0
H966 H 0.55218 0.57752 0.61423 0.0
C967 C 0.56426 0.56878 0.41668 0.0
C968 C 0.44176 0.01363 0.42248 0.0
C969 C 0.44458 0.02034 0.50723 0.0
H970 H 0.42969 0.98889 0.33881 0.0
C971 C 0.43774 0.00669 0.57392 0.0
H972 H 0.44687 0.02382 0.36971 0.0
C973 C 0.42803 0.98672 0.5562 0.0
C974 C 0.42483 0.98 0.47143 0.0
H975 H 0.43974 0.01144 0.63984 0.0
H976 H 0.42273 0.97653 0.60898 0.0
C977 C 0.43191 0.99364 0.40473 0.0
C978 C 0.57255 0.01369 0.43556 0.0
C979 C 0.57588 0.02057 0.52009 0.0
H980 H 0.56074 0.98881 0.35283 0.0
C981 C 0.56894 0.00705 0.58729 0.0
H982 H 0.57775 0.02377 0.38241 0.0
C983 C 0.55908 0.98703 0.57028 0.0
C984 C 0.55614 0.98016 0.48577 0.0
H985 H 0.57127 0.01193 0.65303 0.0
H986 H 0.55408 0.97695 0.62342 0.0
C987 C 0.56284 0.99368 0.41857 0.0
C988 C 0.99489 0.56248 0.59184 0.0
C989 C 0.98011 0.55597 0.52999 0.0
H990 H 0.0256 0.57736 0.61675 0.0
C991 C 0.98534 0.55934 0.44333 0.0
H992 H 0.99131 0.56006 0.65906 0.0
C993 C 0.00496 0.56935 0.41907 0.0
C994 C 0.01975 0.57605 0.48098 0.0
H995 H 0.97425 0.5545 0.39419 0.0
H996 H 0.00855 0.57196 0.3519 0.0
C997 C 0.01452 0.57235 0.56754 0.0
C998 C 0.43161 0.43786 0.40181 0.0
C999 C 0.42381 0.44469 0.46445 0.0
H1000 H 0.4471 0.4227 0.37543 0.0
C1001 C 0.42618 0.44166 0.55094 0.0
H1002 H 0.43003 0.44002 0.33469 0.0
C1003 C 0.43582 0.43162 0.57429 0.0
C1004 C 0.44341 0.42458 0.51162 0.0
H1005 H 0.42031 0.44676 0.60067 0.0
H1006 H 0.43718 0.42926 0.64138 0.0
C1007 C 0.4414 0.42798 0.42519 0.0
C1008 C 0.23598 0.10887 0.20516 0.0
C1009 C 0.244 0.10341 0.27229 0.0
H1010 H 0.23016 0.13056 0.15478 0.0
C1011 C 0.25097 0.11536 0.34498 0.0
H1012 H 0.23045 0.09992 0.14842 0.0
C1013 C 0.25081 0.13292 0.34864 0.0
C1014 C 0.24368 0.13884 0.27967 0.0
H1015 H 0.25719 0.1115 0.39784 0.0
H1016 H 0.25691 0.14218 0.4042 0.0
C1017 C 0.23582 0.12642 0.20882 0.0
C1018 C 0.86378 0.1159 0.35414 0.0
C1019 C 0.85863 0.1035 0.28293 0.0
H1020 H 0.8848 0.14306 0.41033 0.0
C1021 C 0.87197 0.10854 0.21539 0.0
H1022 H 0.85381 0.11238 0.40726 0.0
C1023 C 0.88971 0.12609 0.21716 0.0
C1024 C 0.89444 0.13894 0.2865 0.0
H1025 H 0.86844 0.09923 0.15977 0.0
H1026 H 0.89941 0.12989 0.16284 0.0
C1027 C 0.88152 0.13347 0.35591 0.0
C1028 C 0.88498 0.75078 0.32422 0.0
C1029 C 0.89669 0.75651 0.25064 0.0
H1030 H 0.85823 0.74558 0.38163 0.0
C1031 C 0.89084 0.76309 0.17946 0.0
H1032 H 0.88914 0.74568 0.38013 0.0
C1033 C 0.87316 0.76303 0.18033 0.0
C1034 C 0.86099 0.7564 0.2524 0.0
H1035 H 0.89959 0.76765 0.12193 0.0
H1036 H 0.86872 0.76756 0.12345 0.0
C1037 C 0.86728 0.75072 0.32508 0.0
C1038 C 0.11483 0.24789 0.67652 0.0
C1039 C 0.10281 0.24181 0.74912 0.0
H1040 H 0.1418 0.2533 0.62069 0.0
C1041 C 0.10831 0.23482 0.82 0.0
H1042 H 0.11094 0.25331 0.62086 0.0
C1043 C 0.12596 0.23481 0.81989 0.0
C1044 C 0.13845 0.2418 0.74891 0.0
H1045 H 0.09931 0.22998 0.87677 0.0
H1046 H 0.13013 0.22997 0.87659 0.0
C1047 C 0.1325 0.24788 0.67642 0.0
C1048 C 0.75034 0.86656 0.65162 0.0
C1049 C 0.75729 0.86073 0.72158 0.0
H1050 H 0.74403 0.88788 0.60057 0.0
C1051 C 0.76495 0.87325 0.79226 0.0
H1052 H 0.74439 0.85724 0.59617 0.0
C1053 C 0.76474 0.89078 0.79478 0.0
C1054 C 0.75687 0.89614 0.72668 0.0
H1055 H 0.77047 0.86917 0.84703 0.0
H1056 H 0.77011 0.8998 0.85141 0.0
C1057 C 0.75012 0.8841 0.65416 0.0
C1058 C 0.13537 0.88381 0.64292 0.0
C1059 C 0.14077 0.89607 0.71467 0.0
H1060 H 0.11414 0.85677 0.58658 0.0
C1061 C 0.12764 0.89095 0.78311 0.0
H1062 H 0.14517 0.88741 0.58909 0.0
C1063 C 0.10987 0.87341 0.78166 0.0
C1064 C 0.10491 0.86068 0.71175 0.0
H1065 H 0.13137 0.90015 0.83916 0.0
H1066 H 0.10036 0.86953 0.83666 0.0
C1067 C 0.1176 0.86627 0.64147 0.0
C1068 C 0.91797 0.44871 0.67828 0.0
C1069 C 0.91106 0.43677 0.60552 0.0
H1070 H 0.92396 0.47556 0.7373 0.0
C1071 C 0.90319 0.4423 0.53803 0.0
H1072 H 0.92408 0.44479 0.73141 0.0
C1073 C 0.90313 0.4599 0.54142 0.0
C1074 C 0.91093 0.4723 0.61236 0.0
H1075 H 0.8977 0.43336 0.48123 0.0
H1076 H 0.89758 0.46409 0.48714 0.0
C1077 C 0.91791 0.46632 0.68167 0.0
C1078 C 0.53906 0.44238 0.53896 0.0
C1079 C 0.52569 0.43704 0.60651 0.0
H1080 H 0.56653 0.46396 0.48758 0.0
C1081 C 0.53081 0.4491 0.67889 0.0
H1082 H 0.53555 0.43334 0.48245 0.0
C1083 C 0.54856 0.46664 0.68184 0.0
C1084 C 0.56152 0.47243 0.61247 0.0
H1085 H 0.52081 0.44533 0.73206 0.0
H1086 H 0.55182 0.47598 0.73718 0.0
C1087 C 0.55681 0.45991 0.54191 0.0
C1088 C 0.55095 0.08552 0.65411 0.0
C1089 C 0.56303 0.09129 0.58171 0.0
H1090 H 0.5239 0.08027 0.70844 0.0
C1091 C 0.55754 0.09791 0.5095 0.0
H1092 H 0.55482 0.08039 0.71077 0.0
C1093 C 0.53986 0.09785 0.50816 0.0
C1094 C 0.52732 0.09116 0.57901 0.0
H1095 H 0.56659 0.10251 0.45283 0.0
H1096 H 0.53571 0.10239 0.4505 0.0
C1097 C 0.53325 0.08545 0.65277 0.0
C1098 C 0.78184 0.58084 0.00692 0.0
C1099 C 0.76976 0.57479 0.07935 0.0
H1100 H 0.80886 0.58626 0.95168 0.0
C1101 C 0.77522 0.56784 0.1505 0.0
H1102 H 0.77798 0.58623 0.95106 0.0
C1103 C 0.79289 0.56786 0.15088 0.0
C1104 C 0.80543 0.57483 0.08009 0.0
H1105 H 0.76618 0.56302 0.20716 0.0
H1106 H 0.79702 0.56305 0.2078 0.0
C1107 C 0.79951 0.58085 0.00728 0.0
C1108 C 0.43033 0.20699 0.1121 0.0
C1109 C 0.42245 0.19436 0.0419 0.0
H1110 H 0.43563 0.23361 0.171 0.0
C1111 C 0.41518 0.20003 0.97255 0.0
H1112 H 0.43609 0.20304 0.16639 0.0
C1113 C 0.4149 0.21754 0.97522 0.0
C1114 C 0.4219 0.2297 0.04727 0.0
H1115 H 0.40905 0.19062 0.91748 0.0
H1116 H 0.40858 0.22121 0.92211 0.0
C1117 C 0.43006 0.2245 0.11475 0.0
C1118 C 0.78425 0.19923 0.977 0.0
C1119 C 0.77148 0.19386 0.04694 0.0
H1120 H 0.81186 0.22023 0.92444 0.0
C1121 C 0.77636 0.20682 0.11596 0.0
H1122 H 0.78085 0.18955 0.9228 0.0
C1123 C 0.79411 0.22437 0.11689 0.0
C1124 C 0.80731 0.2293 0.04884 0.0
H1125 H 0.76678 0.2031 0.17066 0.0
H1126 H 0.79777 0.23375 0.17229 0.0
C1127 C 0.802 0.21679 0.97795 0.0
C1128 C 0.58461 0.78206 0.01474 0.0
C1129 C 0.57786 0.77025 0.94155 0.0
H1130 H 0.59039 0.80876 0.07454 0.0
C1131 C 0.57005 0.77584 0.87407 0.0
H1132 H 0.59066 0.77809 0.06788 0.0
C1133 C 0.56988 0.79339 0.87792 0.0
C1134 C 0.57753 0.80568 0.94931 0.0
H1135 H 0.56468 0.767 0.81696 0.0
H1136 H 0.5644 0.79765 0.82364 0.0
C1137 C 0.58445 0.79961 0.01858 0.0
C1138 C 0.19897 0.78314 0.01077 0.0
C1139 C 0.19361 0.77076 0.9394 0.0
H1140 H 0.22017 0.81028 0.0665 0.0
C1141 C 0.20675 0.7758 0.87106 0.0
H1142 H 0.18916 0.7796 0.0645 0.0
C1143 C 0.2245 0.79336 0.87221 0.0
C1144 C 0.22943 0.80619 0.94172 0.0
H1145 H 0.20305 0.76652 0.81529 0.0
H1146 H 0.23403 0.79717 0.81728 0.0
C1147 C 0.21673 0.8007 0.01193 0.0
C1148 C 0.20587 0.42978 0.84403 0.0
C1149 C 0.19361 0.42326 0.91582 0.0
H1150 H 0.23236 0.43428 0.78667 0.0
C1151 C 0.19978 0.41761 0.98901 0.0
H1152 H 0.20154 0.43428 0.78677 0.0
C1153 C 0.21744 0.41761 0.98895 0.0
C1154 C 0.22925 0.42325 0.91571 0.0
H1155 H 0.19065 0.41255 0.04536 0.0
H1156 H 0.22151 0.41254 0.04526 0.0
C1157 C 0.22352 0.42978 0.84397 0.0
C1158 C 0.44997 0.91506 0.33757 0.0
C1159 C 0.43776 0.90932 0.40955 0.0
H1160 H 0.47709 0.92025 0.28436 0.0
C1161 C 0.4431 0.90269 0.48218 0.0
H1162 H 0.44621 0.9202 0.2806 0.0
C1163 C 0.46077 0.90273 0.48435 0.0
C1164 C 0.47343 0.90939 0.41391 0.0
H1165 H 0.43396 0.89811 0.53854 0.0
H1166 H 0.4648 0.89817 0.54231 0.0
C1167 C 0.46765 0.91509 0.33973 0.0
C1168 C 0.08268 0.55119 0.31417 0.0
C1169 C 0.08955 0.56338 0.38619 0.0
H1170 H 0.07688 0.52423 0.25705 0.0
C1171 C 0.09754 0.55816 0.45431 0.0
H1172 H 0.07649 0.55486 0.26058 0.0
C1173 C 0.09777 0.54063 0.4523 0.0
C1174 C 0.09001 0.52799 0.3821 0.0
H1175 H 0.10301 0.56729 0.51056 0.0
H1176 H 0.10339 0.53668 0.50707 0.0
C1177 C 0.08291 0.53366 0.31213 0.0
C1178 C 0.4683 0.55078 0.31177 0.0
C1179 C 0.47372 0.56301 0.38366 0.0
H1180 H 0.44698 0.52383 0.25506 0.0
C1181 C 0.46056 0.5579 0.45198 0.0
H1182 H 0.47811 0.55436 0.25802 0.0
C1183 C 0.44274 0.54043 0.45028 0.0
C1184 C 0.43774 0.52773 0.38021 0.0
H1185 H 0.4643 0.56707 0.50813 0.0
H1186 H 0.4332 0.53655 0.50519 0.0
C1187 C 0.45047 0.5333 0.31005 0.0
loop_
_geom_bond_atom_site_label_1
_geom_bond_atom_site_label_2
_geom_bond_distance
_geom_bond_site_symmetry_2
_ccdc_geom_bond_type
In0 O1 2.294 . S
In0 O2 2.326 . S
In0 O6 2.266 . S
In0 O7 2.326 . S
In0 O8 2.266 . S
In0 O9 2.326 . S
In0 O11 2.294 . S
In0 O12 2.326 . S
O1 In0 2.294 . S
O1 C10 1.240 . S
O2 In0 2.326 . S
O2 C10 1.252 . S
C3 O6 1.252 . S
C3 O7 1.260 . S
C4 O11 1.240 . S
C4 O12 1.252 . S
C5 O8 1.252 . S
C5 O9 1.260 . S
O6 In0 2.266 . S
O6 C3 1.252 . S
O7 In0 2.326 . S
O7 C3 1.260 . S
O8 In0 2.266 . S
O8 C5 1.252 . S
O9 In0 2.326 . S
O9 C5 1.260 . S
C10 O1 1.240 . S
C10 O2 1.252 . S
O11 In0 2.294 . S
O11 C4 1.240 . S
O12 In0 2.326 . S
O12 C4 1.252 . S
In13 O14 2.294 . S
In13 O15 2.326 . S
In13 O19 2.266 . S
In13 O20 2.326 . S
In13 O21 2.266 . S
In13 O22 2.326 . S
In13 O24 2.294 . S
In13 O25 2.326 . S
O14 In13 2.294 . S
O14 C23 1.240 . S
O15 In13 2.326 . S
O15 C23 1.252 . S
C16 O19 1.252 . S
C16 O20 1.260 . S
C17 O24 1.240 . S
C17 O25 1.252 . S
C18 O21 1.252 . S
C18 O22 1.260 . S
O19 In13 2.266 . S
O19 C16 1.252 . S
O20 In13 2.326 . S
O20 C16 1.260 . S
O21 In13 2.266 . S
O21 C18 1.252 . S
O22 In13 2.326 . S
O22 C18 1.260 . S
C23 O14 1.240 . S
C23 O15 1.252 . S
O24 In13 2.294 . S
O24 C17 1.240 . S
O25 In13 2.326 . S
O25 C17 1.252 . S
In26 O27 2.294 . S
In26 O28 2.326 . S
In26 O32 2.266 . S
In26 O33 2.326 . S
In26 O34 2.266 . S
In26 O35 2.326 . S
In26 O37 2.294 . S
In26 O38 2.326 . S
O27 In26 2.294 . S
O27 C36 1.240 . S
O28 In26 2.326 . S
O28 C36 1.252 . S
C29 O32 1.252 . S
C29 O33 1.260 . S
C30 O37 1.240 . S
C30 O38 1.252 . S
C31 O34 1.252 . S
C31 O35 1.260 . S
O32 In26 2.266 . S
O32 C29 1.252 . S
O33 In26 2.326 . S
O33 C29 1.260 . S
O34 In26 2.266 . S
O34 C31 1.252 . S
O35 In26 2.326 . S
O35 C31 1.260 . S
C36 O27 1.240 . S
C36 O28 1.252 . S
O37 In26 2.294 . S
O37 C30 1.240 . S
O38 In26 2.326 . S
O38 C30 1.252 . S
In39 O40 2.294 . S
In39 O41 2.326 . S
In39 O45 2.266 . S
In39 O46 2.326 . S
In39 O47 2.266 . S
In39 O48 2.326 . S
In39 O50 2.294 . S
In39 O51 2.326 . S
O40 In39 2.294 . S
O40 C49 1.240 . S
O41 In39 2.326 . S
O41 C49 1.252 . S
C42 O45 1.252 . S
C42 O46 1.260 . S
C43 O50 1.240 . S
C43 O51 1.252 . S
C44 O47 1.252 . S
C44 O48 1.260 . S
O45 In39 2.266 . S
O45 C42 1.252 . S
O46 In39 2.326 . S
O46 C42 1.260 . S
O47 In39 2.266 . S
O47 C44 1.252 . S
O48 In39 2.326 . S
O48 C44 1.260 . S
C49 O40 1.240 . S
C49 O41 1.252 . S
O50 In39 2.294 . S
O50 C43 1.240 . S
O51 In39 2.326 . S
O51 C43 1.252 . S
In52 O53 2.294 . S
In52 O54 2.326 . S
In52 O58 2.266 . S
In52 O59 2.326 . S
In52 O60 2.266 . S
In52 O61 2.326 . S
In52 O63 2.294 . S
In52 O64 2.326 . S
O53 In52 2.294 . S
O53 C62 1.240 . S
O54 In52 2.326 . S
O54 C62 1.252 . S
C55 O58 1.252 . S
C55 O59 1.260 . S
C56 O63 1.240 . S
C56 O64 1.252 . S
C57 O60 1.252 . S
C57 O61 1.260 . S
O58 In52 2.266 . S
O58 C55 1.252 . S
O59 In52 2.326 . S
O59 C55 1.260 . S
O60 In52 2.266 . S
O60 C57 1.252 . S
O61 In52 2.326 . S
O61 C57 1.260 . S
C62 O53 1.240 . S
C62 O54 1.252 . S
O63 In52 2.294 . S
O63 C56 1.240 . S
O64 In52 2.326 . S
O64 C56 1.252 . S
In65 O66 2.294 . S
In65 O67 2.326 . S
In65 O71 2.266 . S
In65 O72 2.326 . S
In65 O73 2.266 . S
In65 O74 2.326 . S
In65 O76 2.294 . S
In65 O77 2.326 . S
O66 In65 2.294 . S
O66 C75 1.240 . S
O67 In65 2.326 . S
O67 C75 1.252 . S
C68 O71 1.252 . S
C68 O72 1.260 . S
C69 O76 1.240 . S
C69 O77 1.252 . S
C70 O73 1.252 . S
C70 O74 1.260 . S
O71 In65 2.266 . S
O71 C68 1.252 . S
O72 In65 2.326 . S
O72 C68 1.260 . S
O73 In65 2.266 . S
O73 C70 1.252 . S
O74 In65 2.326 . S
O74 C70 1.260 . S
C75 O66 1.240 . S
C75 O67 1.252 . S
O76 In65 2.294 . S
O76 C69 1.240 . S
O77 In65 2.326 . S
O77 C69 1.252 . S
In78 O79 2.294 . S
In78 O80 2.326 . S
In78 O84 2.266 . S
In78 O85 2.326 . S
In78 O86 2.266 . S
In78 O87 2.326 . S
In78 O89 2.294 . S
In78 O90 2.326 . S
O79 In78 2.294 . S
O79 C88 1.240 . S
O80 In78 2.326 . S
O80 C88 1.252 . S
C81 O84 1.252 . S
C81 O85 1.260 . S
C82 O89 1.240 . S
C82 O90 1.252 . S
C83 O86 1.252 . S
C83 O87 1.260 . S
O84 In78 2.266 . S
O84 C81 1.252 . S
O85 In78 2.326 . S
O85 C81 1.260 . S
O86 In78 2.266 . S
O86 C83 1.252 . S
O87 In78 2.326 . S
O87 C83 1.260 . S
C88 O79 1.240 . S
C88 O80 1.252 . S
O89 In78 2.294 . S
O89 C82 1.240 . S
O90 In78 2.326 . S
O90 C82 1.252 . S
In91 O92 2.294 . S
In91 O93 2.326 . S
In91 O97 2.266 . S
In91 O98 2.326 . S
In91 O99 2.266 . S
In91 O100 2.326 . S
In91 O102 2.294 . S
In91 O103 2.326 . S
O92 In91 2.294 . S
O92 C101 1.240 . S
O93 In91 2.326 . S
O93 C101 1.252 . S
C94 O97 1.252 . S
C94 O98 1.260 . S
C95 O102 1.240 . S
C95 O103 1.252 . S
C96 O99 1.252 . S
C96 O100 1.260 . S
O97 In91 2.266 . S
O97 C94 1.252 . S
O98 In91 2.326 . S
O98 C94 1.260 . S
O99 In91 2.266 . S
O99 C96 1.252 . S
O100 In91 2.326 . S
O100 C96 1.260 . S
C101 O92 1.240 . S
C101 O93 1.252 . S
O102 In91 2.294 . S
O102 C95 1.240 . S
O103 In91 2.326 . S
O103 C95 1.252 . S
In104 O105 2.294 . S
In104 O106 2.326 . S
In104 O110 2.266 . S
In104 O111 2.326 . S
In104 O112 2.266 . S
In104 O113 2.326 . S
In104 O115 2.294 . S
In104 O116 2.326 . S
O105 In104 2.294 . S
O105 C114 1.240 . S
O106 In104 2.326 . S
O106 C114 1.252 . S
C107 O110 1.252 . S
C107 O111 1.260 . S
C108 O115 1.240 . S
C108 O116 1.252 . S
C109 O112 1.252 . S
C109 O113 1.260 . S
O110 In104 2.266 . S
O110 C107 1.252 . S
O111 In104 2.326 . S
O111 C107 1.260 . S
O112 In104 2.266 . S
O112 C109 1.252 . S
O113 In104 2.326 . S
O113 C109 1.260 . S
C114 O105 1.240 . S
C114 O106 1.252 . S
O115 In104 2.294 . S
O115 C108 1.240 . S
O116 In104 2.326 . S
O116 C108 1.252 . S
In117 O118 2.294 . S
In117 O119 2.326 . S
In117 O123 2.266 . S
In117 O124 2.326 . S
In117 O125 2.266 . S
In117 O126 2.326 . S
In117 O128 2.294 . S
In117 O129 2.326 . S
O118 In117 2.294 . S
O118 C127 1.240 . S
O119 In117 2.326 . S
O119 C127 1.252 . S
C120 O123 1.252 . S
C120 O124 1.260 . S
C121 O128 1.240 . S
C121 O129 1.252 . S
C122 O125 1.252 . S
C122 O126 1.260 . S
O123 In117 2.266 . S
O123 C120 1.252 . S
O124 In117 2.326 . S
O124 C120 1.260 . S
O125 In117 2.266 . S
O125 C122 1.252 . S
O126 In117 2.326 . S
O126 C122 1.260 . S
C127 O118 1.240 . S
C127 O119 1.252 . S
O128 In117 2.294 . S
O128 C121 1.240 . S
O129 In117 2.326 . S
O129 C121 1.252 . S
In130 O131 2.294 . S
In130 O132 2.326 . S
In130 O136 2.266 . S
In130 O137 2.326 . S
In130 O138 2.266 . S
In130 O139 2.326 . S
In130 O141 2.294 . S
In130 O142 2.326 . S
O131 In130 2.294 . S
O131 C140 1.240 . S
O132 In130 2.326 . S
O132 C140 1.252 . S
C133 O136 1.252 . S
C133 O137 1.260 . S
C134 O141 1.240 . S
C134 O142 1.252 . S
C135 O138 1.252 . S
C135 O139 1.260 . S
O136 In130 2.266 . S
O136 C133 1.252 . S
O137 In130 2.326 . S
O137 C133 1.260 . S
O138 In130 2.266 . S
O138 C135 1.252 . S
O139 In130 2.326 . S
O139 C135 1.260 . S
C140 O131 1.240 . S
C140 O132 1.252 . S
O141 In130 2.294 . S
O141 C134 1.240 . S
O142 In130 2.326 . S
O142 C134 1.252 . S
In143 O144 2.294 . S
In143 O145 2.326 . S
In143 O149 2.266 . S
In143 O150 2.326 . S
In143 O151 2.266 . S
In143 O152 2.326 . S
In143 O154 2.294 . S
In143 O155 2.326 . S
O144 In143 2.294 . S
O144 C153 1.240 . S
O145 In143 2.326 . S
O145 C153 1.252 . S
C146 O149 1.252 . S
C146 O150 1.260 . S
C147 O154 1.240 . S
C147 O155 1.252 . S
C148 O151 1.252 . S
C148 O152 1.260 . S
O149 In143 2.266 . S
O149 C146 1.252 . S
O150 In143 2.326 . S
O150 C146 1.260 . S
O151 In143 2.266 . S
O151 C148 1.252 . S
O152 In143 2.326 . S
O152 C148 1.260 . S
C153 O144 1.240 . S
C153 O145 1.252 . S
O154 In143 2.294 . S
O154 C147 1.240 . S
O155 In143 2.326 . S
O155 C147 1.252 . S
In156 O157 2.294 . S
In156 O158 2.326 . S
In156 O162 2.266 . S
In156 O163 2.326 . S
In156 O164 2.266 . S
In156 O165 2.326 . S
In156 O167 2.294 . S
In156 O168 2.326 . S
O157 In156 2.294 . S
O157 C166 1.240 . S
O158 In156 2.326 . S
O158 C166 1.252 . S
C159 O162 1.252 . S
C159 O163 1.260 . S
C160 O167 1.240 . S
C160 O168 1.252 . S
C161 O164 1.252 . S
C161 O165 1.260 . S
O162 In156 2.266 . S
O162 C159 1.252 . S
O163 In156 2.326 . S
O163 C159 1.260 . S
O164 In156 2.266 . S
O164 C161 1.252 . S
O165 In156 2.326 . S
O165 C161 1.260 . S
C166 O157 1.240 . S
C166 O158 1.252 . S
O167 In156 2.294 . S
O167 C160 1.240 . S
O168 In156 2.326 . S
O168 C160 1.252 . S
In169 O170 2.294 . S
In169 O171 2.326 . S
In169 O175 2.266 . S
In169 O176 2.326 . S
In169 O177 2.266 . S
In169 O178 2.326 . S
In169 O180 2.294 . S
In169 O181 2.326 . S
O170 In169 2.294 . S
O170 C179 1.240 . S
O171 In169 2.326 . S
O171 C179 1.252 . S
C172 O175 1.252 . S
C172 O176 1.260 . S
C173 O180 1.240 . S
C173 O181 1.252 . S
C174 O177 1.252 . S
C174 O178 1.260 . S
O175 In169 2.266 . S
O175 C172 1.252 . S
O176 In169 2.326 . S
O176 C172 1.260 . S
O177 In169 2.266 . S
O177 C174 1.252 . S
O178 In169 2.326 . S
O178 C174 1.260 . S
C179 O170 1.240 . S
C179 O171 1.252 . S
O180 In169 2.294 . S
O180 C173 1.240 . S
O181 In169 2.326 . S
O181 C173 1.252 . S
In182 O183 2.294 . S
In182 O184 2.326 . S
In182 O188 2.266 . S
In182 O189 2.326 . S
In182 O190 2.266 . S
In182 O191 2.326 . S
In182 O193 2.294 . S
In182 O194 2.326 . S
O183 In182 2.294 . S
O183 C192 1.240 . S
O184 In182 2.326 . S
O184 C192 1.252 . S
C185 O188 1.252 . S
C185 O189 1.260 . S
C186 O193 1.240 . S
C186 O194 1.252 . S
C187 O190 1.252 . S
C187 O191 1.260 . S
O188 In182 2.266 . S
O188 C185 1.252 . S
O189 In182 2.326 . S
O189 C185 1.260 . S
O190 In182 2.266 . S
O190 C187 1.252 . S
O191 In182 2.326 . S
O191 C187 1.260 . S
C192 O183 1.240 . S
C192 O184 1.252 . S
O193 In182 2.294 . S
O193 C186 1.240 . S
O194 In182 2.326 . S
O194 C186 1.252 . S
In195 O196 2.294 . S
In195 O197 2.326 . S
In195 O201 2.266 . S
In195 O202 2.326 . S
In195 O203 2.266 . S
In195 O204 2.326 . S
In195 O206 2.294 1_554 S
In195 O207 2.326 . S
O196 In195 2.294 . S
O196 C205 1.240 . S
O197 In195 2.326 . S
O197 C205 1.252 . S
C198 O201 1.252 . S
C198 O202 1.260 . S
C199 O206 1.240 . S
C199 O207 1.252 1_556 S
C200 O203 1.252 . S
C200 O204 1.260 . S
O201 In195 2.266 . S
O201 C198 1.252 . S
O202 In195 2.326 . S
O202 C198 1.260 . S
O203 In195 2.266 . S
O203 C200 1.252 . S
O204 In195 2.326 . S
O204 C200 1.260 . S
C205 O196 1.240 . S
C205 O197 1.252 . S
O206 In195 2.294 1_556 S
O206 C199 1.240 . S
O207 In195 2.326 . S
O207 C199 1.252 1_554 S
In208 O209 2.294 1_554 S
In208 O210 2.326 . S
In208 O214 2.266 . S
In208 O215 2.326 . S
In208 O216 2.266 . S
In208 O217 2.326 . S
In208 O219 2.294 . S
In208 O220 2.326 . S
O209 In208 2.294 1_556 S
O209 C218 1.240 . S
O210 In208 2.326 . S
O210 C218 1.252 1_554 S
C211 O214 1.252 . S
C211 O215 1.260 . S
C212 O219 1.240 . S
C212 O220 1.252 . S
C213 O216 1.252 . S
C213 O217 1.260 . S
O214 In208 2.266 . S
O214 C211 1.252 . S
O215 In208 2.326 . S
O215 C211 1.260 . S
O216 In208 2.266 . S
O216 C213 1.252 . S
O217 In208 2.326 . S
O217 C213 1.260 . S
C218 O209 1.240 . S
C218 O210 1.252 1_556 S
O219 In208 2.294 . S
O219 C212 1.240 . S
O220 In208 2.326 . S
O220 C212 1.252 . S
In221 O222 2.294 . S
In221 O223 2.326 . S
In221 O227 2.266 . S
In221 O228 2.326 . S
In221 O229 2.266 . S
In221 O230 2.326 . S
In221 O232 2.294 1_554 S
In221 O233 2.326 . S
O222 In221 2.294 . S
O222 C231 1.240 . S
O223 In221 2.326 . S
O223 C231 1.252 . S
C224 O227 1.252 . S
C224 O228 1.260 . S
C225 O232 1.240 . S
C225 O233 1.252 1_556 S
C226 O229 1.252 . S
C226 O230 1.260 . S
O227 In221 2.266 . S
O227 C224 1.252 . S
O228 In221 2.326 . S
O228 C224 1.260 . S
O229 In221 2.266 . S
O229 C226 1.252 . S
O230 In221 2.326 . S
O230 C226 1.260 . S
C231 O222 1.240 . S
C231 O223 1.252 . S
O232 In221 2.294 1_556 S
O232 C225 1.240 . S
O233 In221 2.326 . S
O233 C225 1.252 1_554 S
In234 O235 2.294 1_554 S
In234 O236 2.326 . S
In234 O240 2.266 . S
In234 O241 2.326 . S
In234 O242 2.266 . S
In234 O243 2.326 . S
In234 O245 2.294 . S
In234 O246 2.326 . S
O235 In234 2.294 1_556 S
O235 C244 1.240 . S
O236 In234 2.326 . S
O236 C244 1.252 1_554 S
C237 O240 1.252 . S
C237 O241 1.260 . S
C238 O245 1.240 . S
C238 O246 1.252 . S
C239 O242 1.252 . S
C239 O243 1.260 . S
O240 In234 2.266 . S
O240 C237 1.252 . S
O241 In234 2.326 . S
O241 C237 1.260 . S
O242 In234 2.266 . S
O242 C239 1.252 . S
O243 In234 2.326 . S
O243 C239 1.260 . S
C244 O235 1.240 . S
C244 O236 1.252 1_556 S
O245 In234 2.294 . S
O245 C238 1.240 . S
O246 In234 2.326 . S
O246 C238 1.252 . S
In247 O248 2.294 1_554 S
In247 O249 2.326 . S
In247 O253 2.266 . S
In247 O254 2.326 . S
In247 O255 2.266 . S
In247 O256 2.326 . S
In247 O258 2.294 . S
In247 O259 2.326 . S
O248 In247 2.294 1_556 S
O248 C257 1.240 . S
O249 In247 2.326 . S
O249 C257 1.252 1_554 S
C250 O253 1.252 . S
C250 O254 1.260 . S
C251 O258 1.240 . S
C251 O259 1.252 . S
C252 O255 1.252 . S
C252 O256 1.260 . S
O253 In247 2.266 . S
O253 C250 1.252 . S
O254 In247 2.326 . S
O254 C250 1.260 . S
O255 In247 2.266 . S
O255 C252 1.252 . S
O256 In247 2.326 . S
O256 C252 1.260 . S
C257 O248 1.240 . S
C257 O249 1.252 1_556 S
O258 In247 2.294 . S
O258 C251 1.240 . S
O259 In247 2.326 . S
O259 C251 1.252 . S
In260 O261 2.294 . S
In260 O262 2.326 . S
In260 O266 2.266 . S
In260 O267 2.326 . S
In260 O268 2.266 . S
In260 O269 2.326 . S
In260 O271 2.294 1_554 S
In260 O272 2.326 . S
O261 In260 2.294 . S
O261 C270 1.240 . S
O262 In260 2.326 . S
O262 C270 1.252 . S
C263 O266 1.252 . S
C263 O267 1.260 . S
C264 O271 1.240 . S
C264 O272 1.252 1_556 S
C265 O268 1.252 . S
C265 O269 1.260 . S
O266 In260 2.266 . S
O266 C263 1.252 . S
O267 In260 2.326 . S
O267 C263 1.260 . S
O268 In260 2.266 . S
O268 C265 1.252 . S
O269 In260 2.326 . S
O269 C265 1.260 . S
C270 O261 1.240 . S
C270 O262 1.252 . S
O271 In260 2.294 1_556 S
O271 C264 1.240 . S
O272 In260 2.326 . S
O272 C264 1.252 1_554 S
In273 O274 2.294 . S
In273 O275 2.326 . S
In273 O279 2.266 . S
In273 O280 2.326 . S
In273 O281 2.266 . S
In273 O282 2.326 . S
In273 O284 2.294 . S
In273 O285 2.326 . S
O274 In273 2.294 . S
O274 C283 1.240 . S
O275 In273 2.326 . S
O275 C283 1.252 . S
C276 O279 1.252 . S
C276 O280 1.260 . S
C277 O284 1.240 . S
C277 O285 1.252 . S
C278 O281 1.252 . S
C278 O282 1.260 . S
O279 In273 2.266 . S
O279 C276 1.252 . S
O280 In273 2.326 . S
O280 C276 1.260 . S
O281 In273 2.266 . S
O281 C278 1.252 . S
O282 In273 2.326 . S
O282 C278 1.260 . S
C283 O274 1.240 . S
C283 O275 1.252 . S
O284 In273 2.294 . S
O284 C277 1.240 . S
O285 In273 2.326 . S
O285 C277 1.252 . S
In286 O287 2.294 . S
In286 O288 2.326 . S
In286 O292 2.266 . S
In286 O293 2.326 . S
In286 O294 2.266 . S
In286 O295 2.326 . S
In286 O297 2.294 . S
In286 O298 2.326 . S
O287 In286 2.294 . S
O287 C296 1.240 . S
O288 In286 2.326 . S
O288 C296 1.252 . S
C289 O292 1.252 . S
C289 O293 1.260 . S
C290 O297 1.240 . S
C290 O298 1.252 . S
C291 O294 1.252 . S
C291 O295 1.260 . S
O292 In286 2.266 . S
O292 C289 1.252 . S
O293 In286 2.326 . S
O293 C289 1.260 . S
O294 In286 2.266 . S
O294 C291 1.252 . S
O295 In286 2.326 . S
O295 C291 1.260 . S
C296 O287 1.240 . S
C296 O288 1.252 . S
O297 In286 2.294 . S
O297 C290 1.240 . S
O298 In286 2.326 . S
O298 C290 1.252 . S
In299 O300 2.294 . S
In299 O301 2.326 . S
In299 O305 2.266 . S
In299 O306 2.326 . S
In299 O307 2.266 . S
In299 O308 2.326 . S
In299 O310 2.294 . S
In299 O311 2.326 . S
O300 In299 2.294 . S
O300 C309 1.240 . S
O301 In299 2.326 . S
O301 C309 1.252 . S
C302 O305 1.252 . S
C302 O306 1.260 . S
C303 O310 1.240 . S
C303 O311 1.252 . S
C304 O307 1.252 . S
C304 O308 1.260 . S
O305 In299 2.266 . S
O305 C302 1.252 . S
O306 In299 2.326 . S
O306 C302 1.260 . S
O307 In299 2.266 . S
O307 C304 1.252 . S
O308 In299 2.326 . S
O308 C304 1.260 . S
C309 O300 1.240 . S
C309 O301 1.252 . S
O310 In299 2.294 . S
O310 C303 1.240 . S
O311 In299 2.326 . S
O311 C303 1.252 . S
In312 O313 2.294 . S
In312 O314 2.326 . S
In312 O318 2.266 . S
In312 O319 2.326 . S
In312 O320 2.266 . S
In312 O321 2.326 . S
In312 O323 2.294 1_556 S
In312 O324 2.326 . S
O313 In312 2.294 . S
O313 C322 1.240 . S
O314 In312 2.326 . S
O314 C322 1.252 . S
C315 O318 1.252 . S
C315 O319 1.260 . S
C316 O323 1.240 . S
C316 O324 1.252 1_554 S
C317 O320 1.252 . S
C317 O321 1.260 . S
O318 In312 2.266 . S
O318 C315 1.252 . S
O319 In312 2.326 . S
O319 C315 1.260 . S
O320 In312 2.266 . S
O320 C317 1.252 . S
O321 In312 2.326 . S
O321 C317 1.260 . S
C322 O313 1.240 . S
C322 O314 1.252 . S
O323 In312 2.294 1_554 S
O323 C316 1.240 . S
O324 In312 2.326 . S
O324 C316 1.252 1_556 S
In325 O326 2.294 1_556 S
In325 O327 2.326 . S
In325 O331 2.266 . S
In325 O332 2.326 . S
In325 O333 2.266 . S
In325 O334 2.326 . S
In325 O336 2.294 . S
In325 O337 2.326 . S
O326 In325 2.294 1_554 S
O326 C335 1.240 . S
O327 In325 2.326 . S
O327 C335 1.252 1_556 S
C328 O331 1.252 . S
C328 O332 1.260 . S
C329 O336 1.240 . S
C329 O337 1.252 . S
C330 O333 1.252 . S
C330 O334 1.260 . S
O331 In325 2.266 . S
O331 C328 1.252 . S
O332 In325 2.326 . S
O332 C328 1.260 . S
O333 In325 2.266 . S
O333 C330 1.252 . S
O334 In325 2.326 . S
O334 C330 1.260 . S
C335 O326 1.240 . S
C335 O327 1.252 1_554 S
O336 In325 2.294 . S
O336 C329 1.240 . S
O337 In325 2.326 . S
O337 C329 1.252 . S
In338 O339 2.294 1_556 S
In338 O340 2.326 . S
In338 O344 2.266 . S
In338 O345 2.326 . S
In338 O346 2.266 . S
In338 O347 2.326 . S
In338 O349 2.294 . S
In338 O350 2.326 . S
O339 In338 2.294 1_554 S
O339 C348 1.240 . S
O340 In338 2.326 . S
O340 C348 1.252 1_556 S
C341 O344 1.252 . S
C341 O345 1.260 . S
C342 O349 1.240 . S
C342 O350 1.252 . S
C343 O346 1.252 . S
C343 O347 1.260 . S
O344 In338 2.266 . S
O344 C341 1.252 . S
O345 In338 2.326 . S
O345 C341 1.260 . S
O346 In338 2.266 . S
O346 C343 1.252 . S
O347 In338 2.326 . S
O347 C343 1.260 . S
C348 O339 1.240 . S
C348 O340 1.252 1_554 S
O349 In338 2.294 . S
O349 C342 1.240 . S
O350 In338 2.326 . S
O350 C342 1.252 . S
In351 O352 2.294 . S
In351 O353 2.326 . S
In351 O357 2.266 . S
In351 O358 2.326 . S
In351 O359 2.266 . S
In351 O360 2.326 . S
In351 O362 2.294 . S
In351 O363 2.326 . S
O352 In351 2.294 . S
O352 C361 1.240 . S
O353 In351 2.326 . S
O353 C361 1.252 . S
C354 O357 1.252 . S
C354 O358 1.260 . S
C355 O362 1.240 . S
C355 O363 1.252 . S
C356 O359 1.252 . S
C356 O360 1.260 . S
O357 In351 2.266 . S
O357 C354 1.252 . S
O358 In351 2.326 . S
O358 C354 1.260 . S
O359 In351 2.266 . S
O359 C356 1.252 . S
O360 In351 2.326 . S
O360 C356 1.260 . S
C361 O352 1.240 . S
C361 O353 1.252 . S
O362 In351 2.294 . S
O362 C355 1.240 . S
O363 In351 2.326 . S
O363 C355 1.252 . S
In364 O365 2.294 . S
In364 O366 2.326 . S
In364 O370 2.266 . S
In364 O371 2.326 . S
In364 O372 2.266 . S
In364 O373 2.326 . S
In364 O375 2.294 . S
In364 O376 2.326 . S
O365 In364 2.294 . S
O365 C374 1.240 . S
O366 In364 2.326 . S
O366 C374 1.252 . S
C367 O370 1.252 . S
C367 O371 1.260 . S
C368 O375 1.240 . S
C368 O376 1.252 . S
C369 O372 1.252 . S
C369 O373 1.260 . S
O370 In364 2.266 . S
O370 C367 1.252 . S
O371 In364 2.326 . S
O371 C367 1.260 . S
O372 In364 2.266 . S
O372 C369 1.252 . S
O373 In364 2.326 . S
O373 C369 1.260 . S
C374 O365 1.240 . S
C374 O366 1.252 . S
O375 In364 2.294 . S
O375 C368 1.240 . S
O376 In364 2.326 . S
O376 C368 1.252 . S
In377 O378 2.294 . S
In377 O379 2.326 . S
In377 O383 2.266 . S
In377 O384 2.326 . S
In377 O385 2.266 . S
In377 O386 2.326 . S
In377 O388 2.294 . S
In377 O389 2.326 . S
O378 In377 2.294 . S
O378 C387 1.240 . S
O379 In377 2.326 . S
O379 C387 1.252 . S
C380 O383 1.252 . S
C380 O384 1.260 . S
C381 O388 1.240 . S
C381 O389 1.252 . S
C382 O385 1.252 . S
C382 O386 1.260 . S
O383 In377 2.266 . S
O383 C380 1.252 . S
O384 In377 2.326 . S
O384 C380 1.260 . S
O385 In377 2.266 . S
O385 C382 1.252 . S
O386 In377 2.326 . S
O386 C382 1.260 . S
C387 O378 1.240 . S
C387 O379 1.252 . S
O388 In377 2.294 . S
O388 C381 1.240 . S
O389 In377 2.326 . S
O389 C381 1.252 . S
In390 O391 2.294 . S
In390 O392 2.326 . S
In390 O396 2.266 . S
In390 O397 2.326 . S
In390 O398 2.266 . S
In390 O399 2.326 . S
In390 O401 2.294 . S
In390 O402 2.326 . S
O391 In390 2.294 . S
O391 C400 1.240 . S
O392 In390 2.326 . S
O392 C400 1.252 . S
C393 O396 1.252 . S
C393 O397 1.260 . S
C394 O401 1.240 . S
C394 O402 1.252 . S
C395 O398 1.252 . S
C395 O399 1.260 . S
O396 In390 2.266 . S
O396 C393 1.252 . S
O397 In390 2.326 . S
O397 C393 1.260 . S
O398 In390 2.266 . S
O398 C395 1.252 . S
O399 In390 2.326 . S
O399 C395 1.260 . S
C400 O391 1.240 . S
C400 O392 1.252 . S
O401 In390 2.294 . S
O401 C394 1.240 . S
O402 In390 2.326 . S
O402 C394 1.252 . S
In403 O404 2.294 . S
In403 O405 2.326 . S
In403 O409 2.266 . S
In403 O410 2.326 . S
In403 O411 2.266 . S
In403 O412 2.326 . S
In403 O414 2.294 . S
In403 O415 2.326 . S
O404 In403 2.294 . S
O404 C413 1.240 . S
O405 In403 2.326 . S
O405 C413 1.252 . S
C406 O409 1.252 . S
C406 O410 1.260 . S
C407 O414 1.240 . S
C407 O415 1.252 . S
C408 O411 1.252 . S
C408 O412 1.260 . S
O409 In403 2.266 . S
O409 C406 1.252 . S
O410 In403 2.326 . S
O410 C406 1.260 . S
O411 In403 2.266 . S
O411 C408 1.252 . S
O412 In403 2.326 . S
O412 C408 1.260 . S
C413 O404 1.240 . S
C413 O405 1.252 . S
O414 In403 2.294 . S
O414 C407 1.240 . S
O415 In403 2.326 . S
O415 C407 1.252 . S
In416 O417 2.294 . S
In416 O418 2.326 . S
In416 O422 2.266 . S
In416 O423 2.326 . S
In416 O424 2.266 . S
In416 O425 2.326 . S
In416 O427 2.294 . S
In416 O428 2.326 . S
O417 In416 2.294 . S
O417 C426 1.240 . S
O418 In416 2.326 . S
O418 C426 1.252 . S
C419 O422 1.252 . S
C419 O423 1.260 . S
C420 O427 1.240 . S
C420 O428 1.252 . S
C421 O424 1.252 . S
C421 O425 1.260 . S
O422 In416 2.266 . S
O422 C419 1.252 . S
O423 In416 2.326 . S
O423 C419 1.260 . S
O424 In416 2.266 . S
O424 C421 1.252 . S
O425 In416 2.326 . S
O425 C421 1.260 . S
C426 O417 1.240 . S
C426 O418 1.252 . S
O427 In416 2.294 . S
O427 C420 1.240 . S
O428 In416 2.326 . S
O428 C420 1.252 . S
In429 O430 2.294 1_556 S
In429 O431 2.326 . S
In429 O435 2.266 . S
In429 O436 2.326 . S
In429 O437 2.266 . S
In429 O438 2.326 . S
In429 O440 2.294 . S
In429 O441 2.326 . S
O430 In429 2.294 1_554 S
O430 C439 1.240 . S
O431 In429 2.326 . S
O431 C439 1.252 1_556 S
C432 O435 1.252 . S
C432 O436 1.260 . S
C433 O440 1.240 . S
C433 O441 1.252 . S
C434 O437 1.252 . S
C434 O438 1.260 . S
O435 In429 2.266 . S
O435 C432 1.252 . S
O436 In429 2.326 . S
O436 C432 1.260 . S
O437 In429 2.266 . S
O437 C434 1.252 . S
O438 In429 2.326 . S
O438 C434 1.260 . S
C439 O430 1.240 . S
C439 O431 1.252 1_554 S
O440 In429 2.294 . S
O440 C433 1.240 . S
O441 In429 2.326 . S
O441 C433 1.252 . S
In442 O443 2.294 . S
In442 O444 2.326 . S
In442 O448 2.266 . S
In442 O449 2.326 . S
In442 O450 2.266 . S
In442 O451 2.326 . S
In442 O453 2.294 1_556 S
In442 O454 2.326 . S
O443 In442 2.294 . S
O443 C452 1.240 . S
O444 In442 2.326 . S
O444 C452 1.252 . S
C445 O448 1.252 . S
C445 O449 1.260 . S
C446 O453 1.240 . S
C446 O454 1.252 1_554 S
C447 O450 1.252 . S
C447 O451 1.260 . S
O448 In442 2.266 . S
O448 C445 1.252 . S
O449 In442 2.326 . S
O449 C445 1.260 . S
O450 In442 2.266 . S
O450 C447 1.252 . S
O451 In442 2.326 . S
O451 C447 1.260 . S
C452 O443 1.240 . S
C452 O444 1.252 . S
O453 In442 2.294 1_554 S
O453 C446 1.240 . S
O454 In442 2.326 . S
O454 C446 1.252 1_556 S
In455 O456 2.294 1_556 S
In455 O457 2.326 . S
In455 O461 2.266 . S
In455 O462 2.326 . S
In455 O463 2.266 . S
In455 O464 2.326 . S
In455 O466 2.294 . S
In455 O467 2.326 . S
O456 In455 2.294 1_554 S
O456 C465 1.240 . S
O457 In455 2.326 . S
O457 C465 1.252 1_556 S
C458 O461 1.252 . S
C458 O462 1.260 . S
C459 O466 1.240 . S
C459 O467 1.252 . S
C460 O463 1.252 . S
C460 O464 1.260 . S
O461 In455 2.266 . S
O461 C458 1.252 . S
O462 In455 2.326 . S
O462 C458 1.260 . S
O463 In455 2.266 . S
O463 C460 1.252 . S
O464 In455 2.326 . S
O464 C460 1.260 . S
C465 O456 1.240 . S
C465 O457 1.252 1_554 S
O466 In455 2.294 . S
O466 C459 1.240 . S
O467 In455 2.326 . S
O467 C459 1.252 . S
C468 C469 1.387 . S
C468 H472 0.950 . S
C468 C477 1.390 1_565 S
C469 C468 1.387 . S
C469 C471 1.387 . S
H470 C477 0.950 . S
C471 C469 1.387 . S
C471 C473 1.390 1_565 S
C471 H475 0.950 . S
H472 C468 0.950 . S
C473 C471 1.390 1_545 S
C473 C474 1.387 . S
C473 H476 0.950 . S
C474 C473 1.387 . S
C474 C477 1.387 . S
H475 C471 0.950 . S
H476 C473 0.950 . S
C477 C468 1.390 1_545 S
C477 H470 0.950 . S
C477 C474 1.387 . S
C478 C479 1.387 . S
C478 H482 0.950 . S
C478 C487 1.375 1_455 S
C479 C478 1.387 . S
C479 C481 1.410 . S
H480 C487 0.957 . S
C481 C479 1.410 . S
C481 C483 1.375 1_455 S
C481 H485 0.957 . S
H482 C478 0.950 . S
C483 C481 1.375 1_655 S
C483 C484 1.387 . S
C483 H486 0.950 . S
C484 C483 1.387 . S
C484 C487 1.409 . S
H485 C481 0.957 . S
H486 C483 0.950 . S
C487 C478 1.375 1_655 S
C487 H480 0.957 . S
C487 C484 1.409 . S
C488 C489 1.387 . S
C488 H492 0.950 . S
C488 C497 1.390 . S
C489 C488 1.387 . S
C489 C491 1.387 . S
H490 C497 0.950 . S
C491 C489 1.387 . S
C491 C493 1.390 . S
C491 H495 0.950 . S
H492 C488 0.950 . S
C493 C491 1.390 . S
C493 C494 1.387 . S
C493 H496 0.950 . S
C494 C493 1.387 . S
C494 C497 1.387 . S
H495 C491 0.950 . S
H496 C493 0.950 . S
C497 C488 1.390 . S
C497 H490 0.950 . S
C497 C494 1.387 . S
C498 C499 1.387 . S
C498 H502 0.950 . S
C498 C507 1.390 1_565 S
C499 C498 1.387 . S
C499 C501 1.387 . S
H500 C507 0.950 . S
C501 C499 1.387 . S
C501 C503 1.390 1_565 S
C501 H505 0.950 . S
H502 C498 0.950 . S
C503 C501 1.390 1_545 S
C503 C504 1.387 . S
C503 H506 0.950 . S
C504 C503 1.387 . S
C504 C507 1.387 . S
H505 C501 0.950 . S
H506 C503 0.950 . S
C507 C498 1.390 1_545 S
C507 H500 0.950 . S
C507 C504 1.387 . S
C508 C509 1.387 . S
C508 H512 0.950 . S
C508 C517 1.390 1_455 S
C509 C508 1.387 . S
C509 C511 1.387 . S
H510 C517 0.950 . S
C511 C509 1.387 . S
C511 C513 1.390 1_455 S
C511 H515 0.950 . S
H512 C508 0.950 . S
C513 C511 1.390 1_655 S
C513 C514 1.387 . S
C513 H516 0.950 . S
C514 C513 1.387 . S
C514 C517 1.387 . S
H515 C511 0.950 . S
H516 C513 0.950 . S
C517 C508 1.390 1_655 S
C517 H510 0.950 . S
C517 C514 1.387 . S
C518 C519 1.387 . S
C518 H522 0.950 . S
C518 C527 1.390 . S
C519 C518 1.387 . S
C519 C521 1.387 . S
H520 C527 0.950 . S
C521 C519 1.387 . S
C521 C523 1.390 . S
C521 H525 0.950 . S
H522 C518 0.950 . S
C523 C521 1.390 . S
C523 C524 1.387 . S
C523 H526 0.950 . S
C524 C523 1.387 . S
C524 C527 1.387 . S
H525 C521 0.950 . S
H526 C523 0.950 . S
C527 C518 1.390 . S
C527 H520 0.950 . S
C527 C524 1.387 . S
C528 C529 1.387 . S
C528 H532 0.950 . S
C528 C537 1.390 . S
C529 C528 1.387 . S
C529 C531 1.387 . S
H530 C537 0.950 . S
C531 C529 1.387 . S
C531 C533 1.390 . S
C531 H535 0.950 . S
H532 C528 0.950 . S
C533 C531 1.390 . S
C533 C534 1.387 . S
C533 H536 0.950 . S
C534 C533 1.387 . S
C534 C537 1.387 . S
H535 C531 0.950 . S
H536 C533 0.950 . S
C537 C528 1.390 . S
C537 H530 0.950 . S
C537 C534 1.387 . S
C538 C539 1.387 . S
C538 H542 0.950 . S
C538 C547 1.390 . S
C539 C538 1.387 . S
C539 C541 1.387 . S
H540 C547 0.950 . S
C541 C539 1.387 . S
C541 C543 1.390 . S
C541 H545 0.950 . S
H542 C538 0.950 . S
C543 C541 1.390 . S
C543 C544 1.387 . S
C543 H546 0.950 . S
C544 C543 1.387 . S
C544 C547 1.387 . S
H545 C541 0.950 . S
H546 C543 0.950 . S
C547 C538 1.390 . S
C547 H540 0.950 . S
C547 C544 1.387 . S
C548 C549 1.387 . S
C548 H552 0.950 . S
C548 C557 1.390 . S
C549 C548 1.387 . S
C549 C551 1.387 . S
H550 C557 0.950 . S
C551 C549 1.387 . S
C551 C553 1.390 . S
C551 H555 0.950 . S
H552 C548 0.950 . S
C553 C551 1.390 . S
C553 C554 1.387 . S
C553 H556 0.950 . S
C554 C553 1.387 . S
C554 C557 1.387 . S
H555 C551 0.950 . S
H556 C553 0.950 . S
C557 C548 1.390 . S
C557 H550 0.950 . S
C557 C554 1.387 . S
C558 C559 1.387 . S
C558 H562 0.950 . S
C558 C567 1.390 . S
C559 C558 1.387 . S
C559 C561 1.387 . S
H560 C567 0.950 . S
C561 C559 1.387 . S
C561 C563 1.390 . S
C561 H565 0.950 . S
H562 C558 0.950 . S
C563 C561 1.390 . S
C563 C564 1.387 . S
C563 H566 0.950 . S
C564 C563 1.387 . S
C564 C567 1.387 . S
H565 C561 0.950 . S
H566 C563 0.950 . S
C567 C558 1.390 . S
C567 H560 0.950 . S
C567 C564 1.387 . S
C568 C569 1.387 . S
C568 H572 0.950 . S
C568 C577 1.390 . S
C569 C568 1.387 . S
C569 C571 1.387 . S
H570 C577 0.950 . S
C571 C569 1.387 . S
C571 C573 1.390 . S
C571 H575 0.950 . S
H572 C568 0.950 . S
C573 C571 1.390 . S
C573 C574 1.387 . S
C573 H576 0.950 . S
C574 C573 1.387 . S
C574 C577 1.387 . S
H575 C571 0.950 . S
H576 C573 0.950 . S
C577 C568 1.390 . S
C577 H570 0.950 . S
C577 C574 1.387 . S
C578 C579 1.387 . S
C578 H582 0.950 . S
C578 C587 1.390 . S
C579 C578 1.387 . S
C579 C581 1.387 . S
H580 C587 0.950 . S
C581 C579 1.387 . S
C581 C583 1.390 . S
C581 H585 0.950 . S
H582 C578 0.950 . S
C583 C581 1.390 . S
C583 C584 1.387 . S
C583 H586 0.950 . S
C584 C583 1.387 . S
C584 C587 1.387 . S
H585 C581 0.950 . S
H586 C583 0.950 . S
C587 C578 1.390 . S
C587 H580 0.950 . S
C587 C584 1.387 . S
C588 C589 1.387 . S
C588 H592 0.950 . S
C588 C597 1.390 . S
C589 C588 1.387 . S
C589 C591 1.387 . S
H590 C597 0.950 . S
C591 C589 1.387 . S
C591 C593 1.390 . S
C591 H595 0.950 . S
H592 C588 0.950 . S
C593 C591 1.390 . S
C593 C594 1.387 . S
C593 H596 0.950 . S
C594 C593 1.387 . S
C594 C597 1.387 . S
H595 C591 0.950 . S
H596 C593 0.950 . S
C597 C588 1.390 . S
C597 H590 0.950 . S
C597 C594 1.387 . S
C598 C599 1.387 . S
C598 H602 0.950 . S
C598 C607 1.390 . S
C599 C598 1.387 . S
C599 C601 1.387 . S
H600 C607 0.950 . S
C601 C599 1.387 . S
C601 C603 1.390 . S
C601 H605 0.950 . S
H602 C598 0.950 . S
C603 C601 1.390 . S
C603 C604 1.387 . S
C603 H606 0.950 . S
C604 C603 1.387 . S
C604 C607 1.387 . S
H605 C601 0.950 . S
H606 C603 0.950 . S
C607 C598 1.390 . S
C607 H600 0.950 . S
C607 C604 1.387 . S
C608 C609 1.387 . S
C608 H612 0.950 . S
C608 C617 1.390 . S
C609 C608 1.387 . S
C609 C611 1.387 . S
H610 C617 0.950 . S
C611 C609 1.387 . S
C611 C613 1.390 . S
C611 H615 0.950 . S
H612 C608 0.950 . S
C613 C611 1.390 . S
C613 C614 1.387 . S
C613 H616 0.950 . S
C614 C613 1.387 . S
C614 C617 1.387 . S
H615 C611 0.950 . S
H616 C613 0.950 . S
C617 C608 1.390 . S
C617 H610 0.950 . S
C617 C614 1.387 . S
C618 C619 1.387 . S
C618 H622 0.950 . S
C618 C627 1.390 . S
C619 C618 1.387 . S
C619 C621 1.387 . S
H620 C627 0.950 . S
C621 C619 1.387 . S
C621 C623 1.390 . S
C621 H625 0.950 . S
H622 C618 0.950 . S
C623 C621 1.390 . S
C623 C624 1.387 . S
C623 H626 0.950 . S
C624 C623 1.387 . S
C624 C627 1.387 . S
H625 C621 0.950 . S
H626 C623 0.950 . S
C627 C618 1.390 . S
C627 H620 0.950 . S
C627 C624 1.387 . S
C628 C629 1.387 . S
C628 H632 0.950 . S
C628 C637 1.390 . S
C629 C628 1.387 . S
C629 C631 1.387 . S
H630 C637 0.950 . S
C631 C629 1.387 . S
C631 C633 1.390 . S
C631 H635 0.950 . S
H632 C628 0.950 . S
C633 C631 1.390 . S
C633 C634 1.387 . S
C633 H636 0.950 . S
C634 C633 1.387 . S
C634 C637 1.387 . S
H635 C631 0.950 . S
H636 C633 0.950 . S
C637 C628 1.390 . S
C637 H630 0.950 . S
C637 C634 1.387 . S
C638 C639 1.387 . S
C638 H642 0.950 . S
C638 C647 1.390 . S
C639 C638 1.387 . S
C639 C641 1.387 . S
H640 C647 0.950 . S
C641 C639 1.387 . S
C641 C643 1.390 . S
C641 H645 0.950 . S
H642 C638 0.950 . S
C643 C641 1.390 . S
C643 C644 1.387 . S
C643 H646 0.950 . S
C644 C643 1.387 . S
C644 C647 1.387 . S
H645 C641 0.950 . S
H646 C643 0.950 . S
C647 C638 1.390 . S
C647 H640 0.950 . S
C647 C644 1.387 . S
C648 C649 1.387 . S
C648 H652 0.950 . S
C648 C657 1.390 1_566 S
C649 C648 1.387 . S
C649 C651 1.387 . S
H650 C657 0.950 . S
C651 C649 1.387 . S
C651 C653 1.390 1_566 S
C651 H655 0.950 . S
H652 C648 0.950 . S
C653 C651 1.390 1_544 S
C653 C654 1.387 . S
C653 H656 0.950 . S
C654 C653 1.387 . S
C654 C657 1.387 . S
H655 C651 0.950 . S
H656 C653 0.950 . S
C657 C648 1.390 1_544 S
C657 H650 0.950 . S
C657 C654 1.387 . S
C658 C659 1.387 1_455 S
C658 H662 0.950 . S
C658 C667 1.390 . S
C659 C658 1.387 1_655 S
C659 C661 1.387 1_554 S
H660 C667 0.950 . S
C661 C659 1.387 1_556 S
C661 C663 1.390 . S
C661 H665 0.950 . S
H662 C658 0.950 . S
C663 C661 1.390 . S
C663 C664 1.387 1_655 S
C663 H666 0.950 . S
C664 C663 1.387 1_455 S
C664 C667 1.387 1_556 S
H665 C661 0.950 . S
H666 C663 0.950 . S
C667 C658 1.390 . S
C667 H660 0.950 . S
C667 C664 1.387 1_554 S
C668 C669 1.387 . S
C668 H672 0.950 . S
C668 C677 1.390 . S
C669 C668 1.387 . S
C669 C671 1.387 1_556 S
H670 C677 0.950 . S
C671 C669 1.387 1_554 S
C671 C673 1.390 . S
C671 H675 0.950 . S
H672 C668 0.950 . S
C673 C671 1.390 . S
C673 C674 1.387 . S
C673 H676 0.950 . S
C674 C673 1.387 . S
C674 C677 1.387 1_554 S
H675 C671 0.950 . S
H676 C673 0.950 . S
C677 C668 1.390 . S
C677 H670 0.950 . S
C677 C674 1.387 1_556 S
C678 C679 1.387 . S
C678 H682 0.950 . S
C678 C687 1.390 1_566 S
C679 C678 1.387 . S
C679 C681 1.387 . S
H680 C687 0.950 . S
C681 C679 1.387 . S
C681 C683 1.390 1_566 S
C681 H685 0.950 . S
H682 C678 0.950 . S
C683 C681 1.390 1_544 S
C683 C684 1.387 . S
C683 H686 0.950 . S
C684 C683 1.387 . S
C684 C687 1.387 . S
H685 C681 0.950 . S
H686 C683 0.950 . S
C687 C678 1.390 1_544 S
C687 H680 0.950 . S
C687 C684 1.387 . S
C688 C689 1.387 1_554 S
C688 H692 0.950 . S
C688 C697 1.390 . S
C689 C688 1.387 1_556 S
C689 C691 1.387 1_455 S
H690 C697 0.950 . S
C691 C689 1.387 1_655 S
C691 C693 1.390 . S
C691 H695 0.950 . S
H692 C688 0.950 . S
C693 C691 1.390 . S
C693 C694 1.387 1_556 S
C693 H696 0.950 . S
C694 C693 1.387 1_554 S
C694 C697 1.387 1_655 S
H695 C691 0.950 . S
H696 C693 0.950 . S
C697 C688 1.390 . S
C697 H690 0.950 . S
C697 C694 1.387 1_455 S
C698 C699 1.387 . S
C698 H702 0.950 . S
C698 C707 1.390 1_554 S
C699 C698 1.387 . S
C699 C701 1.387 . S
H700 C707 0.950 . S
C701 C699 1.387 . S
C701 C703 1.390 1_554 S
C701 H705 0.950 . S
H702 C698 0.950 . S
C703 C701 1.390 1_556 S
C703 C704 1.387 . S
C703 H706 0.950 . S
C704 C703 1.387 . S
C704 C707 1.387 . S
H705 C701 0.950 . S
H706 C703 0.950 . S
C707 C698 1.390 1_556 S
C707 H700 0.950 . S
C707 C704 1.387 . S
C708 C709 1.387 . S
C708 H712 0.950 . S
C708 C717 1.390 . S
C709 C708 1.387 . S
C709 C711 1.387 . S
H710 C717 0.950 . S
C711 C709 1.387 . S
C711 C713 1.390 . S
C711 H715 0.950 . S
H712 C708 0.950 . S
C713 C711 1.390 . S
C713 C714 1.387 . S
C713 H716 0.950 . S
C714 C713 1.387 . S
C714 C717 1.387 . S
H715 C711 0.950 . S
H716 C713 0.950 . S
C717 C708 1.390 . S
C717 H710 0.950 . S
C717 C714 1.387 . S
C718 C719 1.387 . S
C718 H722 0.950 . S
C718 C727 1.390 . S
C719 C718 1.387 . S
C719 C721 1.387 . S
H720 C727 0.950 . S
C721 C719 1.387 . S
C721 C723 1.390 . S
C721 H725 0.950 . S
H722 C718 0.950 . S
C723 C721 1.390 . S
C723 C724 1.387 . S
C723 H726 0.950 . S
C724 C723 1.387 . S
C724 C727 1.387 . S
H725 C721 0.950 . S
H726 C723 0.950 . S
C727 C718 1.390 . S
C727 H720 0.950 . S
C727 C724 1.387 . S
C728 C729 1.387 . S
C728 H732 0.950 . S
C728 C737 1.390 . S
C729 C728 1.387 . S
C729 C731 1.387 . S
H730 C737 0.950 . S
C731 C729 1.387 . S
C731 C733 1.390 . S
C731 H735 0.950 . S
H732 C728 0.950 . S
C733 C731 1.390 . S
C733 C734 1.387 . S
C733 H736 0.950 . S
C734 C733 1.387 . S
C734 C737 1.387 . S
H735 C731 0.950 . S
H736 C733 0.950 . S
C737 C728 1.390 . S
C737 H730 0.950 . S
C737 C734 1.387 . S
C738 C739 1.387 . S
C738 H742 0.950 . S
C738 C747 1.390 . S
C739 C738 1.387 . S
C739 C741 1.387 . S
H740 C747 0.950 . S
C741 C739 1.387 . S
C741 C743 1.390 . S
C741 H745 0.950 . S
H742 C738 0.950 . S
C743 C741 1.390 . S
C743 C744 1.387 . S
C743 H746 0.950 . S
C744 C743 1.387 . S
C744 C747 1.387 . S
H745 C741 0.950 . S
H746 C743 0.950 . S
C747 C738 1.390 . S
C747 H740 0.950 . S
C747 C744 1.387 . S
C748 C749 1.387 . S
C748 H752 0.950 . S
C748 C757 1.390 . S
C749 C748 1.387 . S
C749 C751 1.387 . S
H750 C757 0.950 . S
C751 C749 1.387 . S
C751 C753 1.390 . S
C751 H755 0.950 . S
H752 C748 0.950 . S
C753 C751 1.390 . S
C753 C754 1.387 . S
C753 H756 0.950 . S
C754 C753 1.387 . S
C754 C757 1.387 . S
H755 C751 0.950 . S
H756 C753 0.950 . S
C757 C748 1.390 . S
C757 H750 0.950 . S
C757 C754 1.387 . S
C758 C759 1.387 . S
C758 H762 0.950 . S
C758 C767 1.390 . S
C759 C758 1.387 . S
C759 C761 1.387 . S
H760 C767 0.950 . S
C761 C759 1.387 . S
C761 C763 1.390 . S
C761 H765 0.950 . S
H762 C758 0.950 . S
C763 C761 1.390 . S
C763 C764 1.387 . S
C763 H766 0.950 . S
C764 C763 1.387 . S
C764 C767 1.387 . S
H765 C761 0.950 . S
H766 C763 0.950 . S
C767 C758 1.390 . S
C767 H760 0.950 . S
C767 C764 1.387 . S
C768 C769 1.387 . S
C768 H772 0.950 . S
C768 C777 1.390 . S
C769 C768 1.387 . S
C769 C771 1.387 . S
H770 C777 0.950 . S
C771 C769 1.387 . S
C771 C773 1.390 . S
C771 H775 0.950 . S
H772 C768 0.950 . S
C773 C771 1.390 . S
C773 C774 1.387 . S
C773 H776 0.950 . S
C774 C773 1.387 . S
C774 C777 1.387 . S
H775 C771 0.950 . S
H776 C773 0.950 . S
C777 C768 1.390 . S
C777 H770 0.950 . S
C777 C774 1.387 . S
C778 C779 1.387 . S
C778 H782 0.950 . S
C778 C787 1.390 . S
C779 C778 1.387 . S
C779 C781 1.387 . S
H780 C787 0.950 . S
C781 C779 1.387 . S
C781 C783 1.390 . S
C781 H785 0.950 . S
H782 C778 0.950 . S
C783 C781 1.390 . S
C783 C784 1.387 . S
C783 H786 0.950 . S
C784 C783 1.387 . S
C784 C787 1.387 . S
H785 C781 0.950 . S
H786 C783 0.950 . S
C787 C778 1.390 . S
C787 H780 0.950 . S
C787 C784 1.387 . S
C788 C789 1.387 . S
C788 H792 0.950 . S
C788 C797 1.390 . S
C789 C788 1.387 . S
C789 C791 1.387 . S
H790 C797 0.950 . S
C791 C789 1.387 . S
C791 C793 1.390 . S
C791 H795 0.950 . S
H792 C788 0.950 . S
C793 C791 1.390 . S
C793 C794 1.387 . S
C793 H796 0.950 . S
C794 C793 1.387 . S
C794 C797 1.387 . S
H795 C791 0.950 . S
H796 C793 0.950 . S
C797 C788 1.390 . S
C797 H790 0.950 . S
C797 C794 1.387 . S
C798 C799 1.387 . S
C798 H802 0.950 . S
C798 C807 1.390 . S
C799 C798 1.387 . S
C799 C801 1.387 . S
H800 C807 0.950 . S
C801 C799 1.387 . S
C801 C803 1.390 . S
C801 H805 0.950 . S
H802 C798 0.950 . S
C803 C801 1.390 . S
C803 C804 1.387 . S
C803 H806 0.950 . S
C804 C803 1.387 . S
C804 C807 1.387 . S
H805 C801 0.950 . S
H806 C803 0.950 . S
C807 C798 1.390 . S
C807 H800 0.950 . S
C807 C804 1.387 . S
C808 C809 1.387 . S
C808 H812 0.950 . S
C808 C817 1.390 . S
C809 C808 1.387 . S
C809 C811 1.387 . S
H810 C817 0.950 . S
C811 C809 1.387 . S
C811 C813 1.390 . S
C811 H815 0.950 . S
H812 C808 0.950 . S
C813 C811 1.390 . S
C813 C814 1.387 . S
C813 H816 0.950 . S
C814 C813 1.387 . S
C814 C817 1.387 . S
H815 C811 0.950 . S
H816 C813 0.950 . S
C817 C808 1.390 . S
C817 H810 0.950 . S
C817 C814 1.387 . S
C818 C819 1.387 . S
C818 H822 0.950 . S
C818 C827 1.390 . S
C819 C818 1.387 . S
C819 C821 1.387 . S
H820 C827 0.950 . S
C821 C819 1.387 . S
C821 C823 1.390 . S
C821 H825 0.950 . S
H822 C818 0.950 . S
C823 C821 1.390 . S
C823 C824 1.387 . S
C823 H826 0.950 . S
C824 C823 1.387 . S
C824 C827 1.387 . S
H825 C821 0.950 . S
H826 C823 0.950 . S
C827 C818 1.390 . S
C827 H820 0.950 . S
C827 C824 1.387 . S
C828 C829 1.387 . S
C828 H832 0.950 . S
C828 C837 1.390 . S
C829 C828 1.387 . S
C829 C831 1.387 . S
H830 C837 0.950 . S
C831 C829 1.387 . S
C831 C833 1.390 . S
C831 H835 0.950 . S
H832 C828 0.950 . S
C833 C831 1.390 . S
C833 C834 1.387 . S
C833 H836 0.950 . S
C834 C833 1.387 . S
C834 C837 1.387 . S
H835 C831 0.950 . S
H836 C833 0.950 . S
C837 C828 1.390 . S
C837 H830 0.950 . S
C837 C834 1.387 . S
C838 C839 1.387 . S
C838 H842 0.950 . S
C838 C847 1.390 . S
C839 C838 1.387 . S
C839 C841 1.387 . S
H840 C847 0.950 . S
C841 C839 1.387 . S
C841 C843 1.390 . S
C841 H845 0.950 . S
H842 C838 0.950 . S
C843 C841 1.390 . S
C843 C844 1.387 . S
C843 H846 0.950 . S
C844 C843 1.387 . S
C844 C847 1.387 . S
H845 C841 0.950 . S
H846 C843 0.950 . S
C847 C838 1.390 . S
C847 H840 0.950 . S
C847 C844 1.387 . S
C848 C849 1.387 . S
C848 H852 0.950 . S
C848 C857 1.390 . S
C849 C848 1.387 . S
C849 C851 1.387 . S
H850 C857 0.950 . S
C851 C849 1.387 . S
C851 C853 1.390 . S
C851 H855 0.950 . S
H852 C848 0.950 . S
C853 C851 1.390 . S
C853 C854 1.387 . S
C853 H856 0.950 . S
C854 C853 1.387 . S
C854 C857 1.387 . S
H855 C851 0.950 . S
H856 C853 0.950 . S
C857 C848 1.390 . S
C857 H850 0.950 . S
C857 C854 1.387 . S
C858 C859 1.387 . S
C858 H862 0.950 . S
C858 C867 1.390 . S
C859 C858 1.387 . S
C859 C861 1.387 . S
H860 C867 0.950 . S
C861 C859 1.387 . S
C861 C863 1.390 . S
C861 H865 0.950 . S
H862 C858 0.950 . S
C863 C861 1.390 . S
C863 C864 1.387 . S
C863 H866 0.950 . S
C864 C863 1.387 . S
C864 C867 1.387 . S
H865 C861 0.950 . S
H866 C863 0.950 . S
C867 C858 1.390 . S
C867 H860 0.950 . S
C867 C864 1.387 . S
C868 C869 1.387 . S
C868 H872 0.950 . S
C868 C877 1.390 . S
C869 C868 1.387 . S
C869 C871 1.387 . S
H870 C877 0.950 . S
C871 C869 1.387 . S
C871 C873 1.390 . S
C871 H875 0.950 . S
H872 C868 0.950 . S
C873 C871 1.390 . S
C873 C874 1.387 . S
C873 H876 0.950 . S
C874 C873 1.387 . S
C874 C877 1.387 . S
H875 C871 0.950 . S
H876 C873 0.950 . S
C877 C868 1.390 . S
C877 H870 0.950 . S
C877 C874 1.387 . S
C878 C879 1.387 . S
C878 H882 0.950 . S
C878 C887 1.390 . S
C879 C878 1.387 . S
C879 C881 1.387 . S
H880 C887 0.950 . S
C881 C879 1.387 . S
C881 C883 1.390 . S
C881 H885 0.950 . S
H882 C878 0.950 . S
C883 C881 1.390 . S
C883 C884 1.387 . S
C883 H886 0.950 . S
C884 C883 1.387 . S
C884 C887 1.387 . S
H885 C881 0.950 . S
H886 C883 0.950 . S
C887 C878 1.390 . S
C887 H880 0.950 . S
C887 C884 1.387 . S
C888 C889 1.387 . S
C888 H892 0.950 . S
C888 C897 1.390 . S
C889 C888 1.387 . S
C889 C891 1.387 . S
H890 C897 0.950 . S
C891 C889 1.387 . S
C891 C893 1.390 . S
C891 H895 0.950 . S
H892 C888 0.950 . S
C893 C891 1.390 . S
C893 C894 1.387 . S
C893 H896 0.950 . S
C894 C893 1.387 . S
C894 C897 1.387 . S
H895 C891 0.950 . S
H896 C893 0.950 . S
C897 C888 1.390 . S
C897 H890 0.950 . S
C897 C894 1.387 . S
C898 C899 1.387 . S
C898 H902 0.950 . S
C898 C907 1.390 . S
C899 C898 1.387 . S
C899 C901 1.387 . S
H900 C907 0.950 . S
C901 C899 1.387 . S
C901 C903 1.390 . S
C901 H905 0.950 . S
H902 C898 0.950 . S
C903 C901 1.390 . S
C903 C904 1.387 . S
C903 H906 0.950 . S
C904 C903 1.387 . S
C904 C907 1.387 . S
H905 C901 0.950 . S
H906 C903 0.950 . S
C907 C898 1.390 . S
C907 H900 0.950 . S
C907 C904 1.387 . S
C908 C909 1.387 . S
C908 H912 0.950 . S
C908 C917 1.390 . S
C909 C908 1.387 . S
C909 C911 1.387 . S
H910 C917 0.950 . S
C911 C909 1.387 . S
C911 C913 1.390 . S
C911 H915 0.950 . S
H912 C908 0.950 . S
C913 C911 1.390 . S
C913 C914 1.387 . S
C913 H916 0.950 . S
C914 C913 1.387 . S
C914 C917 1.387 . S
H915 C911 0.950 . S
H916 C913 0.950 . S
C917 C908 1.390 . S
C917 H910 0.950 . S
C917 C914 1.387 . S
C918 C919 1.387 . S
C918 H922 0.950 . S
C918 C927 1.390 . S
C919 C918 1.387 . S
C919 C921 1.387 . S
H920 C927 0.950 . S
C921 C919 1.387 . S
C921 C923 1.390 . S
C921 H925 0.950 . S
H922 C918 0.950 . S
C923 C921 1.390 . S
C923 C924 1.387 . S
C923 H926 0.950 . S
C924 C923 1.387 . S
C924 C927 1.387 . S
H925 C921 0.950 . S
H926 C923 0.950 . S
C927 C918 1.390 . S
C927 H920 0.950 . S
C927 C924 1.387 . S
C928 C929 1.387 . S
C928 H932 0.950 . S
C928 C937 1.390 . S
C929 C928 1.387 . S
C929 C931 1.387 . S
H930 C937 0.950 . S
C931 C929 1.387 . S
C931 C933 1.390 . S
C931 H935 0.950 . S
H932 C928 0.950 . S
C933 C931 1.390 . S
C933 C934 1.387 . S
C933 H936 0.950 . S
C934 C933 1.387 . S
C934 C937 1.387 . S
H935 C931 0.950 . S
H936 C933 0.950 . S
C937 C928 1.390 . S
C937 H930 0.950 . S
C937 C934 1.387 . S
C938 C939 1.387 . S
C938 H942 0.950 . S
C938 C947 1.390 . S
C939 C938 1.387 . S
C939 C941 1.387 . S
H940 C947 0.950 . S
C941 C939 1.387 . S
C941 C943 1.390 . S
C941 H945 0.950 . S
H942 C938 0.950 . S
C943 C941 1.390 . S
C943 C944 1.387 . S
C943 H946 0.950 . S
C944 C943 1.387 . S
C944 C947 1.387 . S
H945 C941 0.950 . S
H946 C943 0.950 . S
C947 C938 1.390 . S
C947 H940 0.950 . S
C947 C944 1.387 . S
C948 C949 1.387 . S
C948 H952 0.950 . S
C948 C957 1.390 1_455 S
C949 C948 1.387 . S
C949 C951 1.387 . S
H950 C957 0.950 . S
C951 C949 1.387 . S
C951 C953 1.390 1_455 S
C951 H955 0.950 . S
H952 C948 0.950 . S
C953 C951 1.390 1_655 S
C953 C954 1.387 . S
C953 H956 0.950 . S
C954 C953 1.387 . S
C954 C957 1.387 . S
H955 C951 0.950 . S
H956 C953 0.950 . S
C957 C948 1.390 1_655 S
C957 H950 0.950 . S
C957 C954 1.387 . S
C958 C959 1.387 . S
C958 H962 0.950 . S
C958 C967 1.390 . S
C959 C958 1.387 . S
C959 C961 1.387 . S
H960 C967 0.950 . S
C961 C959 1.387 . S
C961 C963 1.390 . S
C961 H965 0.950 . S
H962 C958 0.950 . S
C963 C961 1.390 . S
C963 C964 1.387 . S
C963 H966 0.950 . S
C964 C963 1.387 . S
C964 C967 1.387 . S
H965 C961 0.950 . S
H966 C963 0.950 . S
C967 C958 1.390 . S
C967 H960 0.950 . S
C967 C964 1.387 . S
C968 C969 1.387 . S
C968 H972 0.950 . S
C968 C977 1.390 1_545 S
C969 C968 1.387 . S
C969 C971 1.387 . S
H970 C977 0.950 . S
C971 C969 1.387 . S
C971 C973 1.390 1_545 S
C971 H975 0.950 . S
H972 C968 0.950 . S
C973 C971 1.390 1_565 S
C973 C974 1.387 . S
C973 H976 0.950 . S
C974 C973 1.387 . S
C974 C977 1.387 . S
H975 C971 0.950 . S
H976 C973 0.950 . S
C977 C968 1.390 1_565 S
C977 H970 0.950 . S
C977 C974 1.387 . S
C978 C979 1.387 . S
C978 H982 0.950 . S
C978 C987 1.390 1_545 S
C979 C978 1.387 . S
C979 C981 1.387 . S
H980 C987 0.950 . S
C981 C979 1.387 . S
C981 C983 1.390 1_545 S
C981 H985 0.950 . S
H982 C978 0.950 . S
C983 C981 1.390 1_565 S
C983 C984 1.387 . S
C983 H986 0.950 . S
C984 C983 1.387 . S
C984 C987 1.387 . S
H985 C981 0.950 . S
H986 C983 0.950 . S
C987 C978 1.390 1_565 S
C987 H980 0.950 . S
C987 C984 1.387 . S
C988 C989 1.387 . S
C988 H992 0.950 . S
C988 C997 1.390 1_655 S
C989 C988 1.387 . S
C989 C991 1.387 . S
H990 C997 0.950 . S
C991 C989 1.387 . S
C991 C993 1.390 1_655 S
C991 H995 0.950 . S
H992 C988 0.950 . S
C993 C991 1.390 1_455 S
C993 C994 1.387 . S
C993 H996 0.950 . S
C994 C993 1.387 . S
C994 C997 1.387 . S
H995 C991 0.950 . S
H996 C993 0.950 . S
C997 C988 1.390 1_455 S
C997 H990 0.950 . S
C997 C994 1.387 . S
C998 C999 1.387 . S
C998 H1002 0.950 . S
C998 C1007 1.390 . S
C999 C998 1.387 . S
C999 C1001 1.387 . S
H1000 C1007 0.950 . S
C1001 C999 1.387 . S
C1001 C1003 1.390 . S
C1001 H1005 0.950 . S
H1002 C998 0.950 . S
C1003 C1001 1.390 . S
C1003 C1004 1.387 . S
C1003 H1006 0.950 . S
C1004 C1003 1.387 . S
C1004 C1007 1.387 . S
H1005 C1001 0.950 . S
H1006 C1003 0.950 . S
C1007 C998 1.390 . S
C1007 H1000 0.950 . S
C1007 C1004 1.387 . S
C1008 C1009 1.387 . S
C1008 H1012 0.950 . S
C1008 C1017 1.390 . S
C1009 C1008 1.387 . S
C1009 C1011 1.387 . S
H1010 C1017 0.950 . S
C1011 C1009 1.387 . S
C1011 C1013 1.390 . S
C1011 H1015 0.950 . S
H1012 C1008 0.950 . S
C1013 C1011 1.390 . S
C1013 C1014 1.387 . S
C1013 H1016 0.950 . S
C1014 C1013 1.387 . S
C1014 C1017 1.387 . S
H1015 C1011 0.950 . S
H1016 C1013 0.950 . S
C1017 C1008 1.390 . S
C1017 H1010 0.950 . S
C1017 C1014 1.387 . S
C1018 C1019 1.387 . S
C1018 H1022 0.950 . S
C1018 C1027 1.390 . S
C1019 C1018 1.387 . S
C1019 C1021 1.387 . S
H1020 C1027 0.950 . S
C1021 C1019 1.387 . S
C1021 C1023 1.390 . S
C1021 H1025 0.950 . S
H1022 C1018 0.950 . S
C1023 C1021 1.390 . S
C1023 C1024 1.387 . S
C1023 H1026 0.950 . S
C1024 C1023 1.387 . S
C1024 C1027 1.387 . S
H1025 C1021 0.950 . S
H1026 C1023 0.950 . S
C1027 C1018 1.390 . S
C1027 H1020 0.950 . S
C1027 C1024 1.387 . S
C1028 C1029 1.387 . S
C1028 H1032 0.950 . S
C1028 C1037 1.390 . S
C1029 C1028 1.387 . S
C1029 C1031 1.387 . S
H1030 C1037 0.950 . S
C1031 C1029 1.387 . S
C1031 C1033 1.390 . S
C1031 H1035 0.950 . S
H1032 C1028 0.950 . S
C1033 C1031 1.390 . S
C1033 C1034 1.387 . S
C1033 H1036 0.950 . S
C1034 C1033 1.387 . S
C1034 C1037 1.387 . S
H1035 C1031 0.950 . S
H1036 C1033 0.950 . S
C1037 C1028 1.390 . S
C1037 H1030 0.950 . S
C1037 C1034 1.387 . S
C1038 C1039 1.387 . S
C1038 H1042 0.950 . S
C1038 C1047 1.390 . S
C1039 C1038 1.387 . S
C1039 C1041 1.387 . S
H1040 C1047 0.950 . S
C1041 C1039 1.387 . S
C1041 C1043 1.390 . S
C1041 H1045 0.950 . S
H1042 C1038 0.950 . S
C1043 C1041 1.390 . S
C1043 C1044 1.387 . S
C1043 H1046 0.950 . S
C1044 C1043 1.387 . S
C1044 C1047 1.387 . S
H1045 C1041 0.950 . S
H1046 C1043 0.950 . S
C1047 C1038 1.390 . S
C1047 H1040 0.950 . S
C1047 C1044 1.387 . S
C1048 C1049 1.387 . S
C1048 H1052 0.950 . S
C1048 C1057 1.390 . S
C1049 C1048 1.387 . S
C1049 C1051 1.387 . S
H1050 C1057 0.950 . S
C1051 C1049 1.387 . S
C1051 C1053 1.390 . S
C1051 H1055 0.950 . S
H1052 C1048 0.950 . S
C1053 C1051 1.390 . S
C1053 C1054 1.387 . S
C1053 H1056 0.950 . S
C1054 C1053 1.387 . S
C1054 C1057 1.387 . S
H1055 C1051 0.950 . S
H1056 C1053 0.950 . S
C1057 C1048 1.390 . S
C1057 H1050 0.950 . S
C1057 C1054 1.387 . S
C1058 C1059 1.387 . S
C1058 H1062 0.950 . S
C1058 C1067 1.390 . S
C1059 C1058 1.387 . S
C1059 C1061 1.387 . S
H1060 C1067 0.950 . S
C1061 C1059 1.387 . S
C1061 C1063 1.390 . S
C1061 H1065 0.950 . S
H1062 C1058 0.950 . S
C1063 C1061 1.390 . S
C1063 C1064 1.387 . S
C1063 H1066 0.950 . S
C1064 C1063 1.387 . S
C1064 C1067 1.387 . S
H1065 C1061 0.950 . S
H1066 C1063 0.950 . S
C1067 C1058 1.390 . S
C1067 H1060 0.950 . S
C1067 C1064 1.387 . S
C1068 C1069 1.387 . S
C1068 H1072 0.950 . S
C1068 C1077 1.390 . S
C1069 C1068 1.387 . S
C1069 C1071 1.387 . S
H1070 C1077 0.950 . S
C1071 C1069 1.387 . S
C1071 C1073 1.390 . S
C1071 H1075 0.950 . S
H1072 C1068 0.950 . S
C1073 C1071 1.390 . S
C1073 C1074 1.387 . S
C1073 H1076 0.950 . S
C1074 C1073 1.387 . S
C1074 C1077 1.387 . S
H1075 C1071 0.950 . S
H1076 C1073 0.950 . S
C1077 C1068 1.390 . S
C1077 H1070 0.950 . S
C1077 C1074 1.387 . S
C1078 C1079 1.387 . S
C1078 H1082 0.950 . S
C1078 C1087 1.390 . S
C1079 C1078 1.387 . S
C1079 C1081 1.387 . S
H1080 C1087 0.950 . S
C1081 C1079 1.387 . S
C1081 C1083 1.390 . S
C1081 H1085 0.950 . S
H1082 C1078 0.950 . S
C1083 C1081 1.390 . S
C1083 C1084 1.387 . S
C1083 H1086 0.950 . S
C1084 C1083 1.387 . S
C1084 C1087 1.387 . S
H1085 C1081 0.950 . S
H1086 C1083 0.950 . S
C1087 C1078 1.390 . S
C1087 H1080 0.950 . S
C1087 C1084 1.387 . S
C1088 C1089 1.387 . S
C1088 H1092 0.950 . S
C1088 C1097 1.390 . S
C1089 C1088 1.387 . S
C1089 C1091 1.387 . S
H1090 C1097 0.950 . S
C1091 C1089 1.387 . S
C1091 C1093 1.390 . S
C1091 H1095 0.950 . S
H1092 C1088 0.950 . S
C1093 C1091 1.390 . S
C1093 C1094 1.387 . S
C1093 H1096 0.950 . S
C1094 C1093 1.387 . S
C1094 C1097 1.387 . S
H1095 C1091 0.950 . S
H1096 C1093 0.950 . S
C1097 C1088 1.390 . S
C1097 H1090 0.950 . S
C1097 C1094 1.387 . S
C1098 C1099 1.387 . S
C1098 H1102 0.950 . S
C1098 C1107 1.390 . S
C1099 C1098 1.387 . S
C1099 C1101 1.387 . S
H1100 C1107 0.950 . S
C1101 C1099 1.387 . S
C1101 C1103 1.390 . S
C1101 H1105 0.950 . S
H1102 C1098 0.950 . S
C1103 C1101 1.390 . S
C1103 C1104 1.387 . S
C1103 H1106 0.950 . S
C1104 C1103 1.387 . S
C1104 C1107 1.387 . S
H1105 C1101 0.950 . S
H1106 C1103 0.950 . S
C1107 C1098 1.390 . S
C1107 H1100 0.950 . S
C1107 C1104 1.387 . S
C1108 C1109 1.387 . S
C1108 H1112 0.950 . S
C1108 C1117 1.390 . S
C1109 C1108 1.387 . S
C1109 C1111 1.387 1_554 S
H1110 C1117 0.950 . S
C1111 C1109 1.387 1_556 S
C1111 C1113 1.390 . S
C1111 H1115 0.950 . S
H1112 C1108 0.950 . S
C1113 C1111 1.390 . S
C1113 C1114 1.387 1_556 S
C1113 H1116 0.950 . S
C1114 C1113 1.387 1_554 S
C1114 C1117 1.387 . S
H1115 C1111 0.950 . S
H1116 C1113 0.950 . S
C1117 C1108 1.390 . S
C1117 H1110 0.950 . S
C1117 C1114 1.387 . S
C1118 C1119 1.387 1_556 S
C1118 H1122 0.950 . S
C1118 C1127 1.390 . S
C1119 C1118 1.387 1_554 S
C1119 C1121 1.387 . S
H1120 C1127 0.950 . S
C1121 C1119 1.387 . S
C1121 C1123 1.390 . S
C1121 H1125 0.950 . S
H1122 C1118 0.950 . S
C1123 C1121 1.390 . S
C1123 C1124 1.387 . S
C1123 H1126 0.950 . S
C1124 C1123 1.387 . S
C1124 C1127 1.387 1_554 S
H1125 C1121 0.950 . S
H1126 C1123 0.950 . S
C1127 C1118 1.390 . S
C1127 H1120 0.950 . S
C1127 C1124 1.387 1_556 S
C1128 C1129 1.387 1_554 S
C1128 H1132 0.950 . S
C1128 C1137 1.390 . S
C1129 C1128 1.387 1_556 S
C1129 C1131 1.387 . S
H1130 C1137 0.950 . S
C1131 C1129 1.387 . S
C1131 C1133 1.390 . S
C1131 H1135 0.950 . S
H1132 C1128 0.950 . S
C1133 C1131 1.390 . S
C1133 C1134 1.387 . S
C1133 H1136 0.950 . S
C1134 C1133 1.387 . S
C1134 C1137 1.387 1_556 S
H1135 C1131 0.950 . S
H1136 C1133 0.950 . S
C1137 C1128 1.390 . S
C1137 H1130 0.950 . S
C1137 C1134 1.387 1_554 S
C1138 C1139 1.387 1_554 S
C1138 H1142 0.950 . S
C1138 C1147 1.390 . S
C1139 C1138 1.387 1_556 S
C1139 C1141 1.387 . S
H1140 C1147 0.950 . S
C1141 C1139 1.387 . S
C1141 C1143 1.390 . S
C1141 H1145 0.950 . S
H1142 C1138 0.950 . S
C1143 C1141 1.390 . S
C1143 C1144 1.387 . S
C1143 H1146 0.950 . S
C1144 C1143 1.387 . S
C1144 C1147 1.387 1_556 S
H1145 C1141 0.950 . S
H1146 C1143 0.950 . S
C1147 C1138 1.390 . S
C1147 H1140 0.950 . S
C1147 C1144 1.387 1_554 S
C1148 C1149 1.387 . S
C1148 H1152 0.950 . S
C1148 C1157 1.390 . S
C1149 C1148 1.387 . S
C1149 C1151 1.387 . S
H1150 C1157 0.950 . S
C1151 C1149 1.387 . S
C1151 C1153 1.390 . S
C1151 H1155 0.950 . S
H1152 C1148 0.950 . S
C1153 C1151 1.390 . S
C1153 C1154 1.387 . S
C1153 H1156 0.950 . S
C1154 C1153 1.387 . S
C1154 C1157 1.387 . S
H1155 C1151 0.950 . S
H1156 C1153 0.950 . S
C1157 C1148 1.390 . S
C1157 H1150 0.950 . S
C1157 C1154 1.387 . S
C1158 C1159 1.387 . S
C1158 H1162 0.950 . S
C1158 C1167 1.390 . S
C1159 C1158 1.387 . S
C1159 C1161 1.387 . S
H1160 C1167 0.950 . S
C1161 C1159 1.387 . S
C1161 C1163 1.390 . S
C1161 H1165 0.950 . S
H1162 C1158 0.950 . S
C1163 C1161 1.390 . S
C1163 C1164 1.387 . S
C1163 H1166 0.950 . S
C1164 C1163 1.387 . S
C1164 C1167 1.387 . S
H1165 C1161 0.950 . S
H1166 C1163 0.950 . S
C1167 C1158 1.390 . S
C1167 H1160 0.950 . S
C1167 C1164 1.387 . S
C1168 C1169 1.387 . S
C1168 H1172 0.950 . S
C1168 C1177 1.390 . S
C1169 C1168 1.387 . S
C1169 C1171 1.387 . S
H1170 C1177 0.950 . S
C1171 C1169 1.387 . S
C1171 C1173 1.390 . S
C1171 H1175 0.950 . S
H1172 C1168 0.950 . S
C1173 C1171 1.390 . S
C1173 C1174 1.387 . S
C1173 H1176 0.950 . S
C1174 C1173 1.387 . S
C1174 C1177 1.387 . S
H1175 C1171 0.950 . S
H1176 C1173 0.950 . S
C1177 C1168 1.390 . S
C1177 H1170 0.950 . S
C1177 C1174 1.387 . S
C1178 C1179 1.387 . S
C1178 H1182 0.950 . S
C1178 C1187 1.390 . S
C1179 C1178 1.387 . S
C1179 C1181 1.387 . S
H1180 C1187 0.950 . S
C1181 C1179 1.387 . S
C1181 C1183 1.390 . S
C1181 H1185 0.950 . S
H1182 C1178 0.950 . S
C1183 C1181 1.390 . S
C1183 C1184 1.387 . S
C1183 H1186 0.950 . S
C1184 C1183 1.387 . S
C1184 C1187 1.387 . S
H1185 C1181 0.950 . S
H1186 C1183 0.950 . S
C1187 C1178 1.390 . S
C1187 H1180 0.950 . S
C1187 C1184 1.387 . S
C469 C75 1.624 . S
C474 C10 1.624 . S
C479 C43 1.625 . S
C484 C23 1.625 . S
C489 C30 1.624 . S
C494 C62 1.624 . S
C499 C82 1.625 . S
C504 C147 1.625 . S
C509 C101 1.625 . S
C514 C121 1.625 . S
C519 C140 1.625 . S
C524 C114 1.625 . S
C529 C160 1.625 . S
C534 C225 1.625 . S
C539 C173 1.624 . S
C544 C199 1.624 . S
C549 C192 1.623 . S
C554 C218 1.624 . S
C559 C309 1.624 . S
C564 C244 1.624 . S
C569 C257 1.625 . S
C574 C283 1.625 . S
C579 C290 1.625 . S
C584 C264 1.624 . S
C589 C381 1.625 . S
C594 C316 1.625 . S
C599 C355 1.625 . S
C604 C335 1.625 . S
C609 C368 1.624 . S
C614 C348 1.625 . S
C619 C400 1.624 . S
C624 C465 1.624 . S
C629 C413 1.624 . S
C634 C439 1.625 . S
C639 C426 1.625 . S
C644 C446 1.624 . S
C649 C69 1.510 . S
C654 C4 1.510 . S
C659 C17 1.509 . S
C664 C49 1.509 . S
C669 C56 1.510 . S
C674 C36 1.510 . S
C679 C88 1.509 . S
C684 C153 1.509 . S
C689 C95 1.509 . S
C694 C127 1.509 . S
C699 C134 1.509 . S
C704 C108 1.509 . S
C709 C166 1.510 . S
C714 C231 1.510 . S
C719 C205 1.510 . S
C724 C179 1.510 . S
C729 C212 1.510 . S
C734 C186 1.510 . S
C739 C238 1.509 . S
C744 C303 1.509 . S
C749 C251 1.509 . S
C754 C277 1.509 . S
C759 C296 1.510 . S
C764 C270 1.510 . S
C769 C387 1.510 . S
C774 C322 1.510 . S
C779 C329 1.509 . S
C784 C361 1.509 . S
C789 C342 1.509 . S
C794 C374 1.509 . S
C799 C459 1.510 . S
C804 C394 1.510 . S
C809 C433 1.510 . S
C814 C407 1.510 . S
C819 C452 1.510 . S
C824 C420 1.510 . S
C829 C211 1.682 . S
C834 C3 1.682 . S
C839 C226 1.682 . S
C844 C16 1.682 . S
C849 C200 1.682 . S
C854 C31 1.682 . S
C859 C44 1.682 . S
C864 C341 1.682 . S
C869 C55 1.682 . S
C874 C317 1.682 . S
C879 C68 1.682 . S
C884 C328 1.682 . S
C889 C83 1.682 . S
C894 C447 1.682 . S
C899 C94 1.682 . S
C904 C458 1.682 . S
C909 C107 1.682 . S
C914 C432 1.682 . S
C919 C122 1.682 . S
C924 C265 1.682 . S
C929 C237 1.682 . S
C934 C133 1.682 . S
C939 C250 1.682 . S
C944 C148 1.682 . S
C949 C369 1.682 . S
C954 C161 1.682 . S
C959 C174 1.682 . S
C964 C382 1.682 . S
C969 C185 1.682 . S
C974 C356 1.682 . S
C979 C276 1.682 . S
C984 C419 1.682 . S
C989 C291 1.682 . S
C994 C393 1.682 . S
C999 C406 1.682 . S
C1004 C302 1.682 . S
C1009 C5 1.386 . S
C1014 C135 1.386 . S
C1019 C146 1.386 . S
C1024 C18 1.387 . S
C1029 C120 1.386 . S
C1034 C29 1.387 . S
C1039 C42 1.387 . S
C1044 C109 1.386 . S
C1049 C57 1.386 . S
C1054 C81 1.386 . S
C1059 C70 1.387 . S
C1064 C96 1.386 . S
C1069 C159 1.386 . S
C1074 C289 1.386 . S
C1079 C304 1.386 . S
C1084 C172 1.386 . S
C1089 C278 1.386 . S
C1094 C187 1.387 . S
C1099 C198 1.387 . S
C1104 C263 1.386 . S
C1109 C213 1.386 . S
C1114 C239 1.386 . S
C1119 C252 1.386 . S
C1124 C224 1.386 . S
C1129 C315 1.386 . S
C1134 C445 1.386 . S
C1139 C460 1.386 . S
C1144 C330 1.386 . S
C1149 C343 1.386 . S
C1154 C434 1.387 . S
C1159 C354 1.387 . S
C1164 C421 1.386 . S
C1169 C395 1.386 . S
C1174 C367 1.386 . S
C1179 C380 1.386 . S
C1184 C408 1.386 . S
