# Generated by pormake.
# Topology vbw, (6)-cn, num edge types: 1
# Building blocks:
#     Node 0, Type 0, BuildingBlock: IZENUY_clean_sbu_0, # of connection points: 6
#     Node 1, Type 0, BuildingBlock: IZENUY_clean_sbu_0, # of connection points: 6
#     Node 2, Type 0, BuildingBlock: IZENUY_clean_sbu_0, # of connection points: 6
#     Node 3, Type 0, BuildingBlock: IZENUY_clean_sbu_0, # of connection points: 6
#     Node 4, Type 0, BuildingBlock: IZENUY_clean_sbu_0, # of connection points: 6
#     Node 5, Type 0, BuildingBlock: IZENUY_clean_sbu_0, # of connection points: 6
#     Node 6, Type 0, BuildingBlock: IZENUY_clean_sbu_0, # of connection points: 6
#     Node 7, Type 0, BuildingBlock: IZENUY_clean_sbu_0, # of connection points: 6
#     Node 8, Type 0, BuildingBlock: IZENUY_clean_sbu_0, # of connection points: 6
#     Node 9, Type 0, BuildingBlock: IZENUY_clean_sbu_0, # of connection points: 6
#     Node 10, Type 0, BuildingBlock: IZENUY_clean_sbu_0, # of connection points: 6
#     Node 11, Type 0, BuildingBlock: IZENUY_clean_sbu_0, # of connection points: 6
#     Node 12, Type 0, BuildingBlock: IZENUY_clean_sbu_0, # of connection points: 6
#     Node 13, Type 0, BuildingBlock: IZENUY_clean_sbu_0, # of connection points: 6
#     Node 14, Type 0, BuildingBlock: IZENUY_clean_sbu_0, # of connection points: 6
#     Node 15, Type 0, BuildingBlock: IZENUY_clean_sbu_0, # of connection points: 6
#     Edge 16, Type (0, 0), BuildingBlock: EZIPEK_clean_linker_0, # of connection points: 2
#     Edge 17, Type (0, 0), BuildingBlock: EZIPEK_clean_linker_0, # of connection points: 2
#     Edge 18, Type (0, 0), BuildingBlock: EZIPEK_clean_linker_0, # of connection points: 2
#     Edge 19, Type (0, 0), BuildingBlock: EZIPEK_clean_linker_0, # of connection points: 2
#     Edge 20, Type (0, 0), BuildingBlock: EZIPEK_clean_linker_0, # of connection points: 2
#     Edge 21, Type (0, 0), BuildingBlock: EZIPEK_clean_linker_0, # of connection points: 2
#     Edge 22, Type (0, 0), BuildingBlock: EZIPEK_clean_linker_0, # of connection points: 2
#     Edge 23, Type (0, 0), BuildingBlock: EZIPEK_clean_linker_0, # of connection points: 2
#     Edge 24, Type (0, 0), BuildingBlock: EZIPEK_clean_linker_0, # of connection points: 2
#     Edge 25, Type (0, 0), BuildingBlock: EZIPEK_clean_linker_0, # of connection points: 2
#     Edge 26, Type (0, 0), BuildingBlock: EZIPEK_clean_linker_0, # of connection points: 2
#     Edge 27, Type (0, 0), BuildingBlock: EZIPEK_clean_linker_0, # of connection points: 2
#     Edge 28, Type (0, 0), BuildingBlock: EZIPEK_clean_linker_0, # of connection points: 2
#     Edge 29, Type (0, 0), BuildingBlock: EZIPEK_clean_linker_0, # of connection points: 2
#     Edge 30, Type (0, 0), BuildingBlock: EZIPEK_clean_linker_0, # of connection points: 2
#     Edge 31, Type (0, 0), BuildingBlock: EZIPEK_clean_linker_0, # of connection points: 2
#     Edge 32, Type (0, 0), BuildingBlock: EZIPEK_clean_linker_0, # of connection points: 2
#     Edge 33, Type (0, 0), BuildingBlock: EZIPEK_clean_linker_0, # of connection points: 2
#     Edge 34, Type (0, 0), BuildingBlock: EZIPEK_clean_linker_0, # of connection points: 2
#     Edge 35, Type (0, 0), BuildingBlock: EZIPEK_clean_linker_0, # of connection points: 2
#     Edge 36, Type (0, 0), BuildingBlock: EZIPEK_clean_linker_0, # of connection points: 2
#     Edge 37, Type (0, 0), BuildingBlock: EZIPEK_clean_linker_0, # of connection points: 2
#     Edge 38, Type (0, 0), BuildingBlock: EZIPEK_clean_linker_0, # of connection points: 2
#     Edge 39, Type (0, 0), BuildingBlock: EZIPEK_clean_linker_0, # of connection points: 2
#     Edge 40, Type (0, 0), BuildingBlock: EZIPEK_clean_linker_0, # of connection points: 2
#     Edge 41, Type (0, 0), BuildingBlock: EZIPEK_clean_linker_0, # of connection points: 2
#     Edge 42, Type (0, 0), BuildingBlock: EZIPEK_clean_linker_0, # of connection points: 2
#     Edge 43, Type (0, 0), BuildingBlock: EZIPEK_clean_linker_0, # of connection points: 2
#     Edge 44, Type (0, 0), BuildingBlock: EZIPEK_clean_linker_0, # of connection points: 2
#     Edge 45, Type (0, 0), BuildingBlock: EZIPEK_clean_linker_0, # of connection points: 2
#     Edge 46, Type (0, 0), BuildingBlock: EZIPEK_clean_linker_0, # of connection points: 2
#     Edge 47, Type (0, 0), BuildingBlock: EZIPEK_clean_linker_0, # of connection points: 2
#     Edge 48, Type (0, 0), BuildingBlock: EZIPEK_clean_linker_0, # of connection points: 2
#     Edge 49, Type (0, 0), BuildingBlock: EZIPEK_clean_linker_0, # of connection points: 2
#     Edge 50, Type (0, 0), BuildingBlock: EZIPEK_clean_linker_0, # of connection points: 2
#     Edge 51, Type (0, 0), BuildingBlock: EZIPEK_clean_linker_0, # of connection points: 2
#     Edge 52, Type (0, 0), BuildingBlock: EZIPEK_clean_linker_0, # of connection points: 2
#     Edge 53, Type (0, 0), BuildingBlock: EZIPEK_clean_linker_0, # of connection points: 2
#     Edge 54, Type (0, 0), BuildingBlock: EZIPEK_clean_linker_0, # of connection points: 2
#     Edge 55, Type (0, 0), BuildingBlock: EZIPEK_clean_linker_0, # of connection points: 2
#     Edge 56, Type (0, 0), BuildingBlock: EZIPEK_clean_linker_0, # of connection points: 2
#     Edge 57, Type (0, 0), BuildingBlock: EZIPEK_clean_linker_0, # of connection points: 2
#     Edge 58, Type (0, 0), BuildingBlock: EZIPEK_clean_linker_0, # of connection points: 2
#     Edge 59, Type (0, 0), BuildingBlock: EZIPEK_clean_linker_0, # of connection points: 2
#     Edge 60, Type (0, 0), BuildingBlock: EZIPEK_clean_linker_0, # of connection points: 2
#     Edge 61, Type (0, 0), BuildingBlock: EZIPEK_clean_linker_0, # of connection points: 2
#     Edge 62, Type (0, 0), BuildingBlock: EZIPEK_clean_linker_0, # of connection points: 2
#     Edge 63, Type (0, 0), BuildingBlock: EZIPEK_clean_linker_0, # of connection points: 2
# Relax obj value: 0.218
# Max RMSD: 0.233
# Mean RMSD: 0.232
data_MOF--net-vbw--node1-IZENUY_clean_sbu_0--edge1-EZIPEK_clean_linker_0
_symmetry_space_group_name_H-M    P1
_symmetry_Int_Tables_number       1
_symmetry_cell_setting            triclinic
loop_
_symmetry_equiv_pos_as_xyz
'x, y, z'
_cell_length_a     41.256498
_cell_length_b     33.877228
_cell_length_c     20.369123
_cell_angle_alpha  89.820849
_cell_angle_beta   90.001698
_cell_angle_gamma 90.091077
loop_
_atom_site_label
_atom_site_type_symbol
_atom_site_fract_x
_atom_site_fract_y
_atom_site_fract_z
_atom_type_partial_charge
Fe0 Fe 0.13386 0.23616 0.10324 0.0
Fe1 Fe 0.13304 0.15898 0.18316 0.0
O2 O 0.14753 0.18697 0.11583 0.0
Fe3 Fe 0.17641 0.16622 0.06204 0.0
O4 O 0.20486 0.20434 0.08113 0.0
O5 O 0.17207 0.25455 0.06777 0.0
O6 O 0.14909 0.25159 0.18279 0.0
C7 C 0.13985 0.23708 0.23664 0.0
C8 C 0.13487 0.21108 0.97588 0.0
O9 O 0.12789 0.20234 0.2384 0.0
C10 C 0.13748 0.10189 0.0788 0.0
O11 O 0.09276 0.22667 0.13548 0.0
O12 O 0.09162 0.16254 0.15384 0.0
O13 O 0.16131 0.19327 0.98879 0.0
O14 O 0.11812 0.22447 0.02254 0.0
C15 C 0.19851 0.14112 0.18712 0.0
O16 O 0.13506 0.11068 0.13945 0.0
O17 O 0.14995 0.1263 0.03949 0.0
C18 C 0.07719 0.19455 0.14181 0.0
O19 O 0.17391 0.15405 0.21703 0.0
O20 O 0.19712 0.13592 0.12551 0.0
C21 C 0.20031 0.24024 0.06994 0.0
Fe22 Fe 0.38266 0.88638 0.69002 0.0
Fe23 Fe 0.33463 0.87601 0.57592 0.0
O24 O 0.36585 0.85682 0.627 0.0
Fe25 Fe 0.37955 0.80791 0.6147 0.0
O26 O 0.36952 0.79284 0.69715 0.0
O27 O 0.38983 0.84444 0.74828 0.0
O28 O 0.34327 0.8921 0.72889 0.0
C29 C 0.31789 0.90472 0.70151 0.0
C30 C 0.43736 0.8508 0.64318 0.0
O31 O 0.31705 0.9088 0.63954 0.0
C32 C 0.3698 0.82428 0.48783 0.0
O33 O 0.37886 0.93303 0.64209 0.0
O34 O 0.36063 0.91507 0.545 0.0
O35 O 0.42201 0.81853 0.63705 0.0
O36 O 0.42297 0.88257 0.65612 0.0
C37 C 0.31056 0.80295 0.59659 0.0
O38 O 0.34499 0.84495 0.50238 0.0
O39 O 0.39097 0.81886 0.53093 0.0
C40 C 0.37397 0.94063 0.58143 0.0
O41 O 0.30683 0.83932 0.60499 0.0
O42 O 0.33904 0.78925 0.59001 0.0
C43 C 0.37999 0.80872 0.7486 0.0
Fe44 Fe 0.13417 0.81209 0.93619 0.0
Fe45 Fe 0.13126 0.88879 0.8549 0.0
O46 O 0.14695 0.86119 0.92159 0.0
Fe47 Fe 0.17613 0.88276 0.97499 0.0
O48 O 0.20567 0.84767 0.95128 0.0
O49 O 0.17495 0.79616 0.96574 0.0
O50 O 0.14608 0.79532 0.85622 0.0
C51 C 0.13856 0.81027 0.80179 0.0
C52 C 0.13981 0.83157 0.06219 0.0
O53 O 0.12809 0.84566 0.79859 0.0
C54 C 0.13514 0.94486 0.96202 0.0
O55 O 0.09219 0.81983 0.9093 0.0
O56 O 0.08988 0.88295 0.88309 0.0
O57 O 0.1648 0.85241 0.04931 0.0
O58 O 0.12006 0.82481 1.01724 0.0
C59 C 0.19592 0.90898 0.84988 0.0
O60 O 0.13201 0.93647 0.9011 0.0
O61 O 0.14813 0.9203 1.00063 0.0
C62 C 0.07606 0.85079 0.8973 0.0
O63 O 0.17141 0.8958 0.82046 0.0
O64 O 0.19453 0.91523 0.9113 0.0
C65 C 0.20308 0.81141 0.96035 0.0
Fe66 Fe 0.3804 0.15499 0.36348 0.0
Fe67 Fe 0.33412 0.16474 0.48385 0.0
O68 O 0.3644 0.18418 0.42912 0.0
Fe69 Fe 0.37786 0.23413 0.43998 0.0
O70 O 0.38712 0.24523 0.35494 0.0
O71 O 0.37288 0.19263 0.30051 0.0
O72 O 0.34058 0.13415 0.33955 0.0
C73 C 0.31184 0.13951 0.36038 0.0
C74 C 0.43575 0.19493 0.41876 0.0
O75 O 0.30653 0.15317 0.41688 0.0
C76 C 0.36798 0.21017 0.57227 0.0
O77 O 0.39034 0.11293 0.41728 0.0
O78 O 0.34958 0.11461 0.48664 0.0
O79 O 0.4195 0.21822 0.45472 0.0
O80 O 0.42231 0.17255 0.37659 0.0
C81 C 0.31185 0.24076 0.45358 0.0
O82 O 0.35812 0.17578 0.55805 0.0
O83 O 0.37136 0.23577 0.52807 0.0
C84 C 0.3737 0.09719 0.46252 0.0
O85 O 0.31263 0.21078 0.49013 0.0
O86 O 0.33713 0.25287 0.42494 0.0
C87 C 0.37966 0.22893 0.30203 0.0
Fe88 Fe 0.87932 0.89224 0.85895 0.0
Fe89 Fe 0.87962 0.81372 0.93286 0.0
O90 O 0.86651 0.86319 0.92651 0.0
Fe91 Fe 0.84074 0.88379 0.9866 0.0
O92 O 0.81735 0.91356 0.92546 0.0
O93 O 0.83771 0.89595 0.82986 0.0
O94 O 0.88464 0.84982 0.80194 0.0
C95 C 0.87158 0.81575 0.80139 0.0
C96 C 0.87686 0.94899 0.96333 0.0
O97 O 0.86144 0.80115 0.85441 0.0
C98 C 0.88302 0.83234 0.06087 0.0
O99 O 0.92128 0.88878 0.88576 0.0
O100 O 0.91973 0.82386 0.89643 0.0
O101 O 0.86911 0.92312 1.00477 0.0
O102 O 0.87652 0.94054 0.90248 0.0
C103 C 0.81449 0.81079 0.98004 0.0
O104 O 0.89877 0.8231 1.01078 0.0
O105 O 0.8585 0.85504 0.05601 0.0
C106 C 0.93558 0.85603 0.89355 0.0
O107 O 0.84197 0.79496 0.97204 0.0
O108 O 0.81056 0.84708 0.97424 0.0
C109 C 0.81388 0.90756 0.86385 0.0
Fe110 Fe 0.67874 0.16542 0.47547 0.0
Fe111 Fe 0.63025 0.15584 0.36316 0.0
O112 O 0.64836 0.1857 0.42462 0.0
Fe113 Fe 0.63673 0.23549 0.43397 0.0
O114 O 0.67789 0.25285 0.4571 0.0
O115 O 0.70811 0.20033 0.44771 0.0
O116 O 0.69533 0.13304 0.41023 0.0
C117 C 0.69468 0.13884 0.34866 0.0
C118 C 0.64488 0.21747 0.56294 0.0
O119 O 0.66895 0.15052 0.32163 0.0
C120 C 0.57716 0.19371 0.41227 0.0
O121 O 0.65093 0.1286 0.50669 0.0
O122 O 0.63581 0.10829 0.40952 0.0
O123 O 0.62538 0.22839 0.51903 0.0
O124 O 0.66883 0.19564 0.54855 0.0
C125 C 0.63513 0.23138 0.30019 0.0
O126 O 0.59062 0.16079 0.40121 0.0
O127 O 0.5936 0.22568 0.41313 0.0
C128 C 0.64033 0.10155 0.47057 0.0
O129 O 0.62183 0.1975 0.30519 0.0
O130 O 0.64753 0.24717 0.35 0.0
C131 C 0.70574 0.23706 0.45084 0.0
Fe132 Fe 0.88155 0.15974 0.19022 0.0
Fe133 Fe 0.87823 0.23757 0.11359 0.0
O134 O 0.86445 0.18918 0.12744 0.0
Fe135 Fe 0.83279 0.17055 0.07823 0.0
O136 O 0.81589 0.13817 0.14314 0.0
O137 O 0.84269 0.15522 0.23133 0.0
O138 O 0.88991 0.20245 0.24595 0.0
C139 C 0.88071 0.23849 0.24604 0.0
C140 C 0.87107 0.10584 0.08251 0.0
O141 O 0.86756 0.25241 0.19552 0.0
C142 C 0.86853 0.21937 0.98779 0.0
O143 O 0.92174 0.16307 0.15432 0.0
O144 O 0.92067 0.22729 0.13654 0.0
O145 O 0.85886 0.13233 0.04657 0.0
O146 O 0.87587 0.11229 0.14377 0.0
C147 C 0.8094 0.24348 0.09739 0.0
O148 O 0.88984 0.22527 0.03053 0.0
O149 O 0.84282 0.20099 1.00418 0.0
C150 C 0.93624 0.19517 0.14235 0.0
O151 O 0.83797 0.25644 0.08787 0.0
O152 O 0.80546 0.20736 0.10838 0.0
C153 C 0.81693 0.14332 0.20472 0.0
Fe154 Fe 0.63541 0.80721 0.60618 0.0
Fe155 Fe 0.68232 0.87376 0.571 0.0
O156 O 0.64993 0.85576 0.61887 0.0
Fe157 Fe 0.63263 0.88567 0.68048 0.0
O158 O 0.62272 0.84349 0.73606 0.0
O159 O 0.64633 0.79282 0.68928 0.0
O160 O 0.67433 0.78706 0.57873 0.0
C161 C 0.70305 0.79917 0.58559 0.0
C162 C 0.5781 0.85086 0.63277 0.0
O163 O 0.70805 0.83471 0.59923 0.0
C164 C 0.6456 0.94034 0.57557 0.0
O165 O 0.6242 0.81849 0.52157 0.0
O166 O 0.67049 0.84625 0.49614 0.0
O167 O 0.59306 0.88306 0.64115 0.0
O168 O 0.59344 0.81849 0.631 0.0
C169 C 0.69802 0.89941 0.69939 0.0
O170 O 0.65831 0.91439 0.53985 0.0
O171 O 0.63967 0.93313 0.63585 0.0
C172 C 0.6443 0.82972 0.4782 0.0
O173 O 0.70073 0.90341 0.63764 0.0
O174 O 0.6711 0.88939 0.72387 0.0
C175 C 0.63422 0.80864 0.7396 0.0
Fe176 Fe 0.62955 0.73563 0.1073 0.0
Fe177 Fe 0.62993 0.65749 0.1845 0.0
O178 O 0.64448 0.68685 0.11823 0.0
Fe179 Fe 0.67345 0.66781 0.06221 0.0
O180 O 0.7014 0.70717 0.07724 0.0
O181 O 0.66702 0.75591 0.06884 0.0
O182 O 0.64502 0.751 0.18667 0.0
C183 C 0.63706 0.73487 0.24051 0.0
C184 C 0.62993 0.71412 0.98067 0.0
O185 O 0.62567 0.6999 0.24135 0.0
C186 C 0.63732 0.60073 0.08104 0.0
O187 O 0.5893 0.72588 0.14141 0.0
O188 O 0.588 0.66173 0.15606 0.0
O189 O 0.65575 0.69396 0.98949 0.0
O190 O 0.61242 0.72248 0.02878 0.0
C191 C 0.69653 0.64336 0.18905 0.0
O192 O 0.63258 0.60976 0.1407 0.0
O193 O 0.64857 0.62564 0.04125 0.0
C194 C 0.57343 0.69419 0.14733 0.0
O195 O 0.6703 0.65135 0.2178 0.0
O196 O 0.69678 0.64094 0.12649 0.0
C197 C 0.69559 0.74258 0.0652 0.0
Fe198 Fe 0.88161 0.39235 0.68944 0.0
Fe199 Fe 0.83624 0.38553 0.57067 0.0
O200 O 0.8654 0.36428 0.62416 0.0
Fe201 Fe 0.87805 0.31502 0.61176 0.0
O202 O 0.86563 0.2993 0.69202 0.0
O203 O 0.88599 0.34929 0.74619 0.0
O204 O 0.84201 0.39863 0.72551 0.0
C205 C 0.81736 0.41176 0.69654 0.0
C206 C 0.93633 0.35536 0.64592 0.0
O207 O 0.81783 0.4174 0.63476 0.0
C208 C 0.87278 0.33405 0.48493 0.0
O209 O 0.87966 0.44011 0.64398 0.0
O210 O 0.86399 0.42362 0.54482 0.0
O211 O 0.9203 0.32356 0.63901 0.0
O212 O 0.92233 0.38755 0.6577 0.0
C213 C 0.80933 0.31387 0.58524 0.0
O214 O 0.84803 0.35549 0.49665 0.0
O215 O 0.89204 0.32644 0.53049 0.0
C216 C 0.87634 0.44863 0.58333 0.0
O217 O 0.8067 0.35008 0.5941 0.0
O218 O 0.83746 0.29863 0.58206 0.0
C219 C 0.87416 0.31439 0.74543 0.0
Fe220 Fe 0.63564 0.31026 0.92708 0.0
Fe221 Fe 0.6333 0.39129 0.85884 0.0
O222 O 0.64957 0.35934 0.91951 0.0
Fe223 Fe 0.67998 0.37663 0.97322 0.0
O224 O 0.70825 0.34091 0.9434 0.0
O225 O 0.67572 0.29054 0.95348 0.0
O226 O 0.64711 0.29848 0.84413 0.0
C227 C 0.63611 0.31592 0.79434 0.0
C228 C 0.6424 0.32432 0.0561 0.0
O229 O 0.62544 0.35115 0.79819 0.0
C230 C 0.64236 0.4419 0.97038 0.0
O231 O 0.59374 0.32201 0.90243 0.0
O232 O 0.59315 0.38697 0.89339 0.0
O233 O 0.66807 0.34416 0.04431 0.0
O234 O 0.62251 0.31836 1.01069 0.0
C235 C 0.69781 0.40776 0.84913 0.0
O236 O 0.63875 0.43703 0.9087 0.0
O237 O 0.65316 0.41415 1.00543 0.0
C238 C 0.57862 0.35458 0.90132 0.0
O239 O 0.67233 0.39702 0.82039 0.0
O240 O 0.69852 0.41046 0.91145 0.0
C241 C 0.70433 0.30438 0.94905 0.0
Fe242 Fe 0.88059 0.73842 0.43211 0.0
Fe243 Fe 0.88136 0.6598 0.35744 0.0
O244 O 0.86589 0.68986 0.4207 0.0
Fe245 Fe 0.83459 0.67177 0.47209 0.0
O246 O 0.80764 0.70922 0.44242 0.0
O247 O 0.84106 0.75839 0.45823 0.0
O248 O 0.86952 0.75322 0.35003 0.0
C249 C 0.87963 0.73694 0.29869 0.0
C250 C 0.87182 0.72137 0.55935 0.0
O251 O 0.88911 0.70121 0.2996 0.0
C252 C 0.87276 0.60647 0.46667 0.0
O253 O 0.92254 0.72685 0.40783 0.0
O254 O 0.92228 0.66268 0.3899 0.0
O255 O 0.84606 0.70246 0.54501 0.0
O256 O 0.89263 0.72724 0.51554 0.0
C257 C 0.8163 0.64122 0.3476 0.0
O258 O 0.87702 0.61341 0.40563 0.0
O259 O 0.8599 0.63234 0.503 0.0
C260 C 0.93736 0.69429 0.40187 0.0
O261 O 0.84117 0.65515 0.31967 0.0
O262 O 0.81625 0.63892 0.40973 0.0
C263 C 0.81252 0.74557 0.44961 0.0
Fe264 Fe 0.38197 0.38432 0.85991 0.0
Fe265 Fe 0.38481 0.30679 0.93824 0.0
O266 O 0.36832 0.35452 0.92578 0.0
Fe267 Fe 0.33817 0.37227 0.98037 0.0
O268 O 0.31659 0.40239 0.91793 0.0
O269 O 0.34137 0.38758 0.82599 0.0
O270 O 0.38858 0.34181 0.80291 0.0
C271 C 0.37946 0.30574 0.80516 0.0
C272 C 0.3748 0.43929 0.96725 0.0
O273 O 0.37166 0.28979 0.85877 0.0
C274 C 0.38023 0.32645 0.06465 0.0
O275 O 0.42334 0.3831 0.88894 0.0
O276 O 0.42522 0.31915 0.90721 0.0
O277 O 0.36296 0.41367 1.00565 0.0
O278 O 0.37806 0.43144 0.90629 0.0
C279 C 0.31775 0.297 0.96769 0.0
O280 O 0.39962 0.32112 1.01835 0.0
O281 O 0.35342 0.34382 0.05296 0.0
C282 C 0.4391 0.35219 0.90092 0.0
O283 O 0.34686 0.28525 0.97163 0.0
O284 O 0.31139 0.33276 0.95805 0.0
C285 C 0.31618 0.39834 0.85597 0.0
Fe286 Fe 0.17964 0.66352 0.47245 0.0
Fe287 Fe 0.13106 0.65548 0.35989 0.0
O288 O 0.14951 0.68451 0.42193 0.0
Fe289 Fe 0.13823 0.73445 0.43249 0.0
O290 O 0.17882 0.75089 0.45829 0.0
O291 O 0.20933 0.69897 0.4461 0.0
O292 O 0.19632 0.63157 0.40696 0.0
C293 C 0.19494 0.63617 0.34521 0.0
C294 C 0.14583 0.71536 0.56109 0.0
O295 O 0.16942 0.64874 0.31858 0.0
C296 C 0.07835 0.69463 0.40616 0.0
O297 O 0.1518 0.62651 0.50242 0.0
O298 O 0.13528 0.60734 0.40552 0.0
O299 O 0.12635 0.72663 0.51708 0.0
O300 O 0.16915 0.69267 0.5462 0.0
C301 C 0.13744 0.73214 0.29938 0.0
O302 O 0.09158 0.6614 0.3977 0.0
O303 O 0.09533 0.72604 0.40844 0.0
C304 C 0.14 0.60014 0.4664 0.0
O305 O 0.12409 0.69812 0.30248 0.0
O306 O 0.15006 0.74687 0.34974 0.0
C307 C 0.20671 0.73566 0.45206 0.0
Fe308 Fe 0.3741 0.73201 0.11171 0.0
Fe309 Fe 0.33431 0.66115 0.06138 0.0
O310 O 0.3623 0.6813 0.11959 0.0
Fe311 Fe 0.37758 0.65177 0.18609 0.0
O312 O 0.36585 0.68796 0.24937 0.0
O313 O 0.3801 0.74225 0.19876 0.0
O314 O 0.33221 0.74876 0.12061 0.0
C315 C 0.30861 0.7363 0.08685 0.0
C316 C 0.43238 0.695 0.13876 0.0
O317 O 0.3115 0.70595 0.05216 0.0
C318 C 0.3756 0.5954 0.08504 0.0
O319 O 0.37062 0.73415 0.02283 0.0
O320 O 0.35974 0.67403 0.98974 0.0
O321 O 0.41866 0.67215 0.17967 0.0
O322 O 0.41652 0.71833 0.10209 0.0
C323 C 0.31056 0.63322 0.18192 0.0
O324 O 0.35115 0.61177 0.06026 0.0
O325 O 0.39114 0.61162 0.13143 0.0
C326 C 0.36894 0.7091 0.97752 0.0
O327 O 0.30597 0.64846 0.12615 0.0
O328 O 0.33881 0.62707 0.20382 0.0
C329 C 0.37138 0.72474 0.25026 0.0
Fe330 Fe 0.13515 0.30897 0.60281 0.0
Fe331 Fe 0.17888 0.37911 0.57095 0.0
O332 O 0.14859 0.35727 0.62048 0.0
Fe333 Fe 0.13171 0.38389 0.68641 0.0
O334 O 0.12484 0.33893 0.73872 0.0
O335 O 0.14665 0.29052 0.68237 0.0
O336 O 0.17571 0.29235 0.572 0.0
C337 C 0.2041 0.30663 0.57884 0.0
C338 C 0.07722 0.34936 0.63786 0.0
O339 O 0.20691 0.34205 0.5941 0.0
C340 C 0.13926 0.44241 0.58462 0.0
O341 O 0.12197 0.32425 0.52207 0.0
O342 O 0.16759 0.35168 0.49375 0.0
O343 O 0.09181 0.38123 0.64984 0.0
O344 O 0.09293 0.31743 0.6306 0.0
C345 C 0.19614 0.40105 0.70138 0.0
O346 O 0.15213 0.4185 0.54534 0.0
O347 O 0.13605 0.43321 0.64526 0.0
C348 C 0.14226 0.33209 0.4783 0.0
O349 O 0.19712 0.40815 0.63973 0.0
O350 O 0.1706 0.38771 0.72696 0.0
C351 C 0.13625 0.30382 0.73602 0.0
C352 C 0.25864 0.15259 0.20783 0.0
C353 C 0.22938 0.13292 0.22531 0.0
C354 C 0.25692 0.10995 0.32704 0.0
C355 C 0.28354 0.13546 0.31376 0.0
N356 N 0.30222 0.19154 0.25192 0.0
N357 N 0.201 0.09166 0.30315 0.0
C358 C 0.28248 0.15943 0.25675 0.0
C359 C 0.22863 0.11127 0.28565 0.0
N360 N 0.26418 0.16498 0.14505 0.0
N361 N 0.25894 0.08398 0.37827 0.0
H362 H 0.18133 0.08853 0.27141 0.0
H363 H 0.19724 0.07954 0.34956 0.0
H364 H 0.27922 0.08246 0.40879 0.0
H365 H 0.24184 0.06202 0.38738 0.0
H366 H 0.28614 0.17752 0.13043 0.0
H367 H 0.24937 0.15745 0.10585 0.0
H368 H 0.30116 0.21128 0.21287 0.0
H369 H 0.31539 0.2018 0.29193 0.0
C370 C 0.24179 0.87282 0.7945 0.0
C371 C 0.22788 0.90932 0.81407 0.0
C372 C 0.27179 0.94403 0.75452 0.0
C373 C 0.28711 0.90729 0.74086 0.0
N374 N 0.28882 0.83671 0.75818 0.0
N375 N 0.23144 0.98011 0.81821 0.0
C376 C 0.27286 0.87187 0.76452 0.0
C377 C 0.24357 0.94513 0.79598 0.0
N378 N 0.22494 0.8385 0.80237 0.0
N379 N 0.28381 0.97774 0.72681 0.0
H380 H 0.2104 0.98177 0.84649 0.0
H381 H 0.24326 1.00707 0.81246 0.0
H382 H 0.30429 0.97776 0.69692 0.0
H383 H 0.27227 1.00499 0.72929 0.0
H384 H 0.23181 0.81241 0.77961 0.0
H385 H 0.20288 0.83653 0.82668 0.0
H386 H 0.28187 0.811 0.78264 0.0
H387 H 0.31026 0.8333 0.73202 0.0
C388 C 0.74982 0.93629 0.73399 0.0
C389 C 0.72697 0.90521 0.74391 0.0
C390 C 0.75511 0.8889 0.84659 0.0
C391 C 0.78169 0.91351 0.82976 0.0
N392 N 0.80463 0.9601 0.75279 0.0
N393 N 0.71606 0.84385 0.80116 0.0
C394 C 0.7792 0.93693 0.77172 0.0
C395 C 0.73186 0.87921 0.79792 0.0
N396 N 0.74294 0.96621 0.69123 0.0
N397 N 0.75122 0.87544 0.90913 0.0
H398 H 0.70166 0.83322 0.76304 0.0
H399 H 0.7206 0.82317 0.83806 0.0
H400 H 0.76446 0.88709 0.94796 0.0
H401 H 0.73134 0.8584 0.92346 0.0
H402 H 0.75754 0.99115 0.68597 0.0
H403 H 0.72079 0.96837 0.66696 0.0
H404 H 0.80561 0.97421 0.70729 0.0
H405 H 0.8254 0.96359 0.78139 0.0
C406 C 0.74037 0.17515 0.29353 0.0
C407 C 0.72559 0.13858 0.3102 0.0
C408 C 0.7703 0.10395 0.25433 0.0
C409 C 0.78647 0.14061 0.24426 0.0
N410 N 0.78992 0.21024 0.27007 0.0
N411 N 0.72813 0.06764 0.31291 0.0
C412 C 0.77256 0.17581 0.26915 0.0
C413 C 0.74113 0.10273 0.29265 0.0
N414 N 0.72361 0.20968 0.29986 0.0
N415 N 0.78278 0.0704 0.2273 0.0
H416 H 0.70634 0.06588 0.33877 0.0
H417 H 0.73983 0.04063 0.30769 0.0
H418 H 0.80478 0.07003 0.20202 0.0
H419 H 0.77056 0.04349 0.22676 0.0
H420 H 0.73196 0.23663 0.28169 0.0
H421 H 0.70019 0.2111 0.31823 0.0
H422 H 0.78242 0.23508 0.29603 0.0
H423 H 0.81258 0.21368 0.2485 0.0
C424 C 0.75486 0.63239 0.33814 0.0
C425 C 0.78588 0.63075 0.30815 0.0
C426 C 0.7566 0.62113 0.20279 0.0
C427 C 0.72722 0.63637 0.23052 0.0
N428 N 0.70339 0.66432 0.33049 0.0
N429 N 0.81528 0.61709 0.20805 0.0
C430 C 0.72765 0.6441 0.2999 0.0
C431 C 0.7865 0.62374 0.23904 0.0
N432 N 0.75066 0.62171 0.40224 0.0
N433 N 0.75597 0.60093 0.14486 0.0
H434 H 0.83662 0.61061 0.23319 0.0
H435 H 0.81767 0.61801 0.15711 0.0
H436 H 0.73464 0.59233 0.12177 0.0
H437 H 0.77626 0.58705 0.12515 0.0
H438 H 0.72785 0.62049 0.42425 0.0
H439 H 0.76847 0.60723 0.4293 0.0
H440 H 0.7032 0.66896 0.38101 0.0
H441 H 0.68729 0.68288 0.30636 0.0
C442 C 0.7445 0.4468 0.79886 0.0
C443 C 0.72829 0.41027 0.80979 0.0
C444 C 0.77118 0.37575 0.74978 0.0
C445 C 0.78609 0.4123 0.73356 0.0
N446 N 0.78546 0.48324 0.73681 0.0
N447 N 0.72312 0.34091 0.78349 0.0
C448 C 0.77222 0.44812 0.75625 0.0
C449 C 0.74053 0.37525 0.7809 0.0
N450 N 0.73345 0.48003 0.82932 0.0
N451 N 0.78694 0.34099 0.73861 0.0
H452 H 0.70247 0.33706 0.812 0.0
H453 H 0.72862 0.31629 0.75504 0.0
H454 H 0.80953 0.33923 0.7164 0.0
H455 H 0.77899 0.31402 0.75729 0.0
H456 H 0.74573 0.50688 0.8288 0.0
H457 H 0.7127 0.4801 0.85861 0.0
H458 H 0.77505 0.51057 0.74643 0.0
H459 H 0.80599 0.48484 0.707 0.0
C460 C 0.26774 0.43613 0.80951 0.0
C461 C 0.28463 0.39999 0.81909 0.0
C462 C 0.24211 0.36509 0.75691 0.0
C463 C 0.22649 0.40148 0.74261 0.0
N464 N 0.2183 0.46904 0.774 0.0
N465 N 0.28891 0.3302 0.79816 0.0
C466 C 0.23773 0.43647 0.77375 0.0
C467 C 0.272 0.36462 0.7918 0.0
N468 N 0.28093 0.47031 0.83292 0.0
N469 N 0.22721 0.33036 0.74107 0.0
H470 H 0.3092 0.32706 0.82806 0.0
H471 H 0.2843 0.30522 0.77002 0.0
H472 H 0.20526 0.3289 0.71622 0.0
H473 H 0.23506 0.3029 0.75744 0.0
H474 H 0.27223 0.4983 0.8214 0.0
H475 H 0.30203 0.47077 0.86104 0.0
H476 H 0.22344 0.49475 0.79981 0.0
H477 H 0.19498 0.46863 0.75449 0.0
C478 C 0.26943 0.66849 0.24962 0.0
C479 C 0.28254 0.63207 0.22827 0.0
C480 C 0.24053 0.59708 0.29204 0.0
C481 C 0.22515 0.6338 0.30527 0.0
N482 N 0.2228 0.70441 0.28691 0.0
N483 N 0.28018 0.56118 0.22639 0.0
C484 C 0.23888 0.66935 0.28086 0.0
C485 C 0.26811 0.59607 0.24912 0.0
N486 N 0.28668 0.70262 0.24182 0.0
N487 N 0.22869 0.56337 0.32018 0.0
H488 H 0.30061 0.55981 0.19624 0.0
H489 H 0.26905 0.53398 0.23415 0.0
H490 H 0.20793 0.56309 0.34944 0.0
H491 H 0.2404 0.53622 0.31783 0.0
H492 H 0.28033 0.72913 0.26419 0.0
H493 H 0.30865 0.70377 0.21706 0.0
H494 H 0.22945 0.72985 0.26129 0.0
H495 H 0.20188 0.70786 0.31462 0.0
C496 C 0.15124 0.21737 0.8565 0.0
C497 C 0.12839 0.22554 0.90643 0.0
C498 C 0.10396 0.2749 0.83179 0.0
C499 C 0.13281 0.27534 0.79313 0.0
N500 N 0.1848 0.244 0.77069 0.0
N501 N 0.07654 0.25493 0.93181 0.0
C502 C 0.15654 0.24544 0.80549 0.0
C503 C 0.10281 0.25236 0.89135 0.0
N504 N 0.16668 0.18176 0.85562 0.0
N505 N 0.07659 0.29273 0.80842 0.0
H506 H 0.07053 0.23281 0.96538 0.0
H507 H 0.06027 0.2784 0.93051 0.0
H508 H 0.07518 0.30457 0.76134 0.0
H509 H 0.05409 0.29116 0.83142 0.0
H510 H 0.18177 0.17293 0.81736 0.0
H511 H 0.16041 0.15894 0.88778 0.0
H512 H 0.20395 0.22553 0.78373 0.0
H513 H 0.19067 0.26309 0.73264 0.0
C514 C 0.38161 0.75829 0.42983 0.0
C515 C 0.3702 0.79835 0.42718 0.0
C516 C 0.35323 0.78585 0.31325 0.0
C517 C 0.36932 0.74858 0.31283 0.0
N518 N 0.40609 0.70472 0.3692 0.0
N519 N 0.35183 0.8519 0.3582 0.0
C520 C 0.38563 0.73638 0.37063 0.0
C521 C 0.35796 0.81259 0.36646 0.0
N522 N 0.38695 0.73968 0.48844 0.0
N523 N 0.33202 0.79519 0.26438 0.0
H524 H 0.35654 0.87285 0.39437 0.0
H525 H 0.34567 0.86416 0.31288 0.0
H526 H 0.3257 0.77511 0.22823 0.0
H527 H 0.31759 0.82041 0.26508 0.0
H528 H 0.392 0.70959 0.49172 0.0
H529 H 0.38246 0.75211 0.53398 0.0
H530 H 0.42118 0.69741 0.40846 0.0
H531 H 0.41067 0.68843 0.32691 0.0
C532 C 0.12897 0.7982 0.24166 0.0
C533 C 0.13637 0.75706 0.23797 0.0
C534 C 0.14004 0.76382 0.11821 0.0
C535 C 0.13816 0.80599 0.12288 0.0
N536 N 0.13443 0.86326 0.19231 0.0
N537 N 0.15718 0.70377 0.17195 0.0
C538 C 0.13409 0.82315 0.18577 0.0
C539 C 0.14424 0.74076 0.17608 0.0
N540 N 0.11509 0.8132 0.29712 0.0
N541 N 0.1369 0.74491 0.05938 0.0
H542 H 0.16191 0.68622 0.21277 0.0
H543 H 0.16657 0.69231 0.12852 0.0
H544 H 0.13199 0.75881 1.01516 0.0
H545 H 0.13505 0.7143 0.05569 0.0
H546 H 0.10656 0.84206 0.30036 0.0
H547 H 0.10839 0.7957 0.33706 0.0
H548 H 0.13507 0.87727 0.23777 0.0
H549 H 0.13647 0.88246 0.1524 0.0
C550 C 0.39933 0.24704 0.73791 0.0
C551 C 0.37861 0.28055 0.74482 0.0
C552 C 0.34507 0.25492 0.65608 0.0
C553 C 0.36832 0.22569 0.64093 0.0
N554 N 0.41989 0.19606 0.66466 0.0
N555 N 0.33747 0.32113 0.69526 0.0
C556 C 0.39614 0.22214 0.68138 0.0
C557 C 0.35326 0.28598 0.69926 0.0
N558 N 0.42213 0.23916 0.78467 0.0
N559 N 0.31464 0.2524 0.63058 0.0
H560 H 0.34386 0.34552 0.72331 0.0
H561 H 0.32041 0.32697 0.65902 0.0
H562 H 0.30718 0.22773 0.60423 0.0
H563 H 0.29601 0.27136 0.64458 0.0
H564 H 0.43567 0.21324 0.78552 0.0
H565 H 0.42615 0.25757 0.82475 0.0
H566 H 0.44239 0.19505 0.68783 0.0
H567 H 0.41748 0.17683 0.62502 0.0
C568 C 0.89356 0.82487 0.1827 0.0
C569 C 0.88716 0.80736 0.12097 0.0
C570 C 0.87302 0.74531 0.17658 0.0
C571 C 0.88267 0.76122 0.23761 0.0
N572 N 0.91097 0.81364 0.29468 0.0
N573 N 0.88202 0.74546 0.06037 0.0
C574 C 0.89542 0.8004 0.23975 0.0
C575 C 0.88072 0.76589 0.11805 0.0
N576 N 0.89835 0.86467 0.18695 0.0
N577 N 0.8548 0.71164 0.174 0.0
H578 H 0.88939 0.75734 1.01582 0.0
H579 H 0.87987 0.7148 0.05852 0.0
H580 H 0.84658 0.69698 0.21578 0.0
H581 H 0.8444 0.70129 0.13066 0.0
H582 H 0.89947 0.87958 0.23157 0.0
H583 H 0.89936 0.88303 0.14575 0.0
H584 H 0.92307 0.84063 0.29658 0.0
H585 H 0.91516 0.79594 0.33571 0.0
C586 C 0.6668 0.26828 0.64102 0.0
C587 C 0.64348 0.23861 0.6273 0.0
C588 C 0.61331 0.26004 0.72519 0.0
C589 C 0.63448 0.29309 0.73187 0.0
N590 N 0.67437 0.33462 0.68037 0.0
N591 N 0.59211 0.20865 0.65376 0.0
C592 C 0.65889 0.29916 0.68468 0.0
C593 C 0.61581 0.23538 0.66847 0.0
N594 N 0.69729 0.26626 0.61585 0.0
N595 N 0.59121 0.25184 0.77318 0.0
H596 H 0.5944 0.18841 0.61555 0.0
H597 H 0.56972 0.2079 0.6774 0.0
H598 H 0.58788 0.26999 0.81376 0.0
H599 H 0.57756 0.22596 0.77453 0.0
H600 H 0.71568 0.28495 0.63215 0.0
H601 H 0.70543 0.24263 0.58805 0.0
H602 H 0.69085 0.34102 0.6431 0.0
H603 H 0.66809 0.35862 0.70954 0.0
C604 C 0.89338 0.29704 0.86073 0.0
C605 C 0.8726 0.28911 0.80685 0.0
C606 C 0.85426 0.22969 0.86712 0.0
C607 C 0.8699 0.24296 0.92508 0.0
N608 N 0.89436 0.30032 0.97804 0.0
N609 N 0.82616 0.25024 0.76937 0.0
C610 C 0.88646 0.27995 0.92255 0.0
C611 C 0.85088 0.25612 0.81285 0.0
N612 N 0.92106 0.3185 0.85294 0.0
N613 N 0.84347 0.19169 0.86229 0.0
H614 H 0.82046 0.26944 0.73133 0.0
H615 H 0.80858 0.22848 0.77634 0.0
H616 H 0.84736 0.17056 0.89875 0.0
H617 H 0.83432 0.18008 0.81867 0.0
H618 H 0.93736 0.32318 0.89134 0.0
H619 H 0.93022 0.32518 0.8067 0.0
H620 H 0.90506 0.32824 0.97599 0.0
H621 H 0.88598 0.29276 0.02459 0.0
C622 C 0.66758 0.78177 0.31477 0.0
C623 C 0.63911 0.75904 0.30244 0.0
C624 C 0.61157 0.79517 0.39071 0.0
C625 C 0.64086 0.81373 0.409 0.0
N626 N 0.69139 0.83929 0.3669 0.0
N627 N 0.58604 0.73859 0.34238 0.0
C628 C 0.66756 0.81127 0.36496 0.0
C629 C 0.6117 0.76404 0.34422 0.0
N630 N 0.69537 0.77338 0.28111 0.0
N631 N 0.58299 0.81023 0.41282 0.0
H632 H 0.58457 0.71427 0.31167 0.0
H633 H 0.56733 0.73946 0.37678 0.0
H634 H 0.58224 0.8363 0.43999 0.0
H635 H 0.56046 0.80052 0.3961 0.0
H636 H 0.71765 0.78657 0.29067 0.0
H637 H 0.6971 0.74987 0.24834 0.0
H638 H 0.71041 0.84086 0.33347 0.0
H639 H 0.68936 0.86483 0.39491 0.0
C640 C 0.62437 0.71982 0.85671 0.0
C641 C 0.62593 0.73828 0.91905 0.0
C642 C 0.6347 0.80229 0.86397 0.0
C643 C 0.63039 0.78458 0.80149 0.0
N644 N 0.61035 0.7277 0.74204 0.0
N645 N 0.62172 0.80073 0.97866 0.0
C646 C 0.62225 0.74359 0.79872 0.0
C647 C 0.62739 0.7805 0.92177 0.0
N648 N 0.62429 0.6796 0.85261 0.0
N649 N 0.64741 0.83942 0.86942 0.0
H650 H 0.61582 0.78815 0.0235 0.0
H651 H 0.6191 0.83133 0.97967 0.0
H652 H 0.65374 0.85696 0.82961 0.0
H653 H 0.65514 0.85117 0.91403 0.0
H654 H 0.627 0.66461 0.80834 0.0
H655 H 0.62333 0.66128 0.89384 0.0
H656 H 0.60155 0.69892 0.73905 0.0
H657 H 0.60524 0.74451 0.7004 0.0
C658 C 0.87561 0.32992 0.36016 0.0
C659 C 0.87639 0.31082 0.4223 0.0
C660 C 0.89333 0.24934 0.36725 0.0
C661 C 0.88521 0.26533 0.30523 0.0
N662 N 0.87838 0.32533 0.24155 0.0
N663 N 0.88175 0.24857 0.48218 0.0
C664 C 0.87898 0.307 0.30134 0.0
C665 C 0.88403 0.26957 0.42502 0.0
N666 N 0.87386 0.37023 0.35747 0.0
N667 N 0.91252 0.21662 0.37204 0.0
H668 H 0.87596 0.26053 0.52729 0.0
H669 H 0.8829 0.21781 0.48346 0.0
H670 H 0.92478 0.20466 0.33216 0.0
H671 H 0.92105 0.2058 0.41678 0.0
H672 H 0.87622 0.38678 0.31467 0.0
H673 H 0.87227 0.38787 0.39916 0.0
H674 H 0.86775 0.35273 0.23323 0.0
H675 H 0.8901 0.3138 0.20055 0.0
C676 C 0.63874 0.25827 0.11631 0.0
C677 C 0.63894 0.30048 0.11834 0.0
C678 C 0.62884 0.29616 0.23737 0.0
C679 C 0.63462 0.25459 0.2367 0.0
N680 N 0.65223 0.19815 0.17375 0.0
N681 N 0.63693 0.35957 0.18378 0.0
C682 C 0.64139 0.23619 0.17569 0.0
C683 C 0.63517 0.31938 0.17994 0.0
N684 N 0.63561 0.23853 0.05827 0.0
N685 N 0.61519 0.31326 0.29137 0.0
H686 H 0.63957 0.37769 0.14262 0.0
H687 H 0.63798 0.37462 0.22827 0.0
H688 H 0.60736 0.29705 0.33198 0.0
H689 H 0.60784 0.34266 0.29252 0.0
H690 H 0.63132 0.20822 0.05603 0.0
H691 H 0.63423 0.25197 1.01257 0.0
H692 H 0.66073 0.18485 0.13103 0.0
H693 H 0.65629 0.18117 0.2154 0.0
C694 C 0.87586 0.78736 0.61947 0.0
C695 C 0.87368 0.74518 0.62164 0.0
C696 C 0.87648 0.74921 0.74219 0.0
C697 C 0.87202 0.79104 0.73976 0.0
N698 N 0.85975 0.84796 0.67248 0.0
N699 N 0.86848 0.68633 0.68791 0.0
C700 C 0.86962 0.80955 0.67736 0.0
C701 C 0.87244 0.7263 0.68392 0.0
N702 N 0.88381 0.80695 0.56296 0.0
N703 N 0.88734 0.73139 0.7983 0.0
H704 H 0.86768 0.66812 0.64678 0.0
H705 H 0.86387 0.67176 0.73209 0.0
H706 H 0.89476 0.74696 0.83964 0.0
H707 H 0.89343 0.70158 0.80063 0.0
H708 H 0.88967 0.83689 0.56233 0.0
H709 H 0.88721 0.79377 0.51762 0.0
H710 H 0.8567 0.86266 0.62795 0.0
H711 H 0.85068 0.86386 0.71208 0.0
C712 C 0.36387 0.29002 0.2379 0.0
C713 C 0.38068 0.25344 0.24077 0.0
C714 C 0.398 0.26368 0.12704 0.0
C715 C 0.38436 0.30279 0.12694 0.0
N716 N 0.36299 0.35602 0.19241 0.0
N717 N 0.42197 0.21204 0.19348 0.0
C718 C 0.37025 0.31693 0.1858 0.0
C719 C 0.40047 0.24244 0.18724 0.0
N720 N 0.34001 0.29808 0.28209 0.0
N721 N 0.40582 0.2446 0.07013 0.0
H722 H 0.42489 0.19603 0.23688 0.0
H723 H 0.43922 0.20566 0.15763 0.0
H724 H 0.40127 0.25523 0.02325 0.0
H725 H 0.41286 0.21506 0.06933 0.0
H726 H 0.32533 0.32303 0.27895 0.0
H727 H 0.33191 0.27705 0.3155 0.0
H728 H 0.35481 0.36805 0.23644 0.0
H729 H 0.36884 0.37695 0.15661 0.0
C730 C 0.11333 0.77954 0.69903 0.0
C731 C 0.14047 0.78437 0.74168 0.0
C732 C 0.17237 0.74333 0.66588 0.0
C733 C 0.14423 0.73488 0.62761 0.0
N734 N 0.08588 0.73233 0.62988 0.0
N735 N 0.19217 0.75509 0.77473 0.0
C736 C 0.11405 0.74926 0.65073 0.0
C737 C 0.16868 0.76113 0.72855 0.0
N738 N 0.08652 0.80286 0.70405 0.0
N739 N 0.20299 0.73698 0.64263 0.0
H740 H 0.19237 0.76734 0.82129 0.0
H741 H 0.21078 0.73467 0.76796 0.0
H742 H 0.20844 0.7271 0.59585 0.0
H743 H 0.22358 0.74641 0.66788 0.0
H744 H 0.06771 0.80176 0.66985 0.0
H745 H 0.08393 0.82531 0.73824 0.0
H746 H 0.06333 0.73979 0.64935 0.0
H747 H 0.08572 0.70722 0.60032 0.0
C748 C 0.34616 0.7545 0.89399 0.0
C749 C 0.37007 0.72601 0.90948 0.0
C750 C 0.40246 0.75179 0.81699 0.0
C751 C 0.38043 0.78395 0.80965 0.0
N752 N 0.33735 0.82139 0.85816 0.0
N753 N 0.42301 0.69952 0.88841 0.0
C754 C 0.35417 0.78702 0.85344 0.0
C755 C 0.39887 0.72506 0.87145 0.0
N756 N 0.31529 0.74976 0.91623 0.0
N757 N 0.42683 0.74701 0.77248 0.0
H758 H 0.42016 0.67879 0.92599 0.0
H759 H 0.446 0.70013 0.86733 0.0
H760 H 0.43125 0.76737 0.73503 0.0
H761 H 0.44161 0.72212 0.77117 0.0
H762 H 0.29644 0.76857 0.90265 0.0
H763 H 0.30801 0.72363 0.93888 0.0
H764 H 0.31932 0.82558 0.89312 0.0
H765 H 0.34401 0.84673 0.83235 0.0
C766 C 0.1383 0.32697 0.35376 0.0
C767 C 0.141 0.30822 0.41593 0.0
C768 C 0.14804 0.2446 0.35935 0.0
C769 C 0.14081 0.26218 0.29786 0.0
N770 N 0.11987 0.31994 0.24154 0.0
N771 N 0.13738 0.24543 0.47503 0.0
C772 C 0.1336 0.30346 0.29614 0.0
C773 C 0.14236 0.26599 0.41809 0.0
N774 N 0.1392 0.36718 0.34953 0.0
N775 N 0.16165 0.20793 0.36238 0.0
H776 H 0.13136 0.25802 0.51965 0.0
H777 H 0.13516 0.21477 0.47614 0.0
H778 H 0.16924 0.19268 0.32095 0.0
H779 H 0.16921 0.19497 0.40622 0.0
H780 H 0.14071 0.38219 0.30488 0.0
H781 H 0.14077 0.38535 0.39067 0.0
H782 H 0.11164 0.34899 0.24003 0.0
H783 H 0.11276 0.30356 0.20082 0.0
C784 C 0.02397 0.17596 0.09025 0.0
C785 C 0.04117 0.19514 0.14146 0.0
C786 C 0.98982 0.21748 0.18967 0.0
C787 C 0.9724 0.19582 0.14124 0.0
N788 N 0.97254 0.15203 0.04799 0.0
N789 N 0.04094 0.22893 0.24538 0.0
C790 C 0.98942 0.17419 0.09246 0.0
C791 C 0.02423 0.21472 0.19241 0.0
N792 N 0.04068 0.16095 0.03796 0.0
N793 N 0.97358 0.24078 0.23335 0.0
H794 H 0.06608 0.22751 0.24942 0.0
H795 H 0.02991 0.23913 0.28802 0.0
H796 H 0.94849 0.24156 0.23712 0.0
H797 H 0.98492 0.26136 0.26351 0.0
H798 H 0.02971 0.15048 0.99543 0.0
H799 H 0.06591 0.16171 0.03468 0.0
H800 H 0.9833 0.13156 1.01688 0.0
H801 H 0.94734 0.15252 0.04416 0.0
C802 C 0.4914 0.8623 0.69715 0.0
C803 C 0.47331 0.85077 0.64111 0.0
C804 C 0.52355 0.83305 0.58486 0.0
C805 C 0.542 0.84995 0.63666 0.0
N806 N 0.54298 0.88228 0.74267 0.0
N807 N 0.47272 0.83387 0.52628 0.0
C808 C 0.52576 0.86542 0.69272 0.0
C809 C 0.48952 0.83847 0.58352 0.0
N810 N 0.47599 0.86809 0.75577 0.0
N811 N 0.53812 0.81101 0.53738 0.0
H812 H 0.44807 0.83986 0.52241 0.0
H813 H 0.4839 0.82877 0.48122 0.0
H814 H 0.56285 0.80557 0.5362 0.0
H815 H 0.52511 0.79458 0.50312 0.0
H816 H 0.48813 0.872 0.8001 0.0
H817 H 0.45101 0.86526 0.7616 0.0
H818 H 0.53227 0.89902 0.77957 0.0
H819 H 0.56811 0.88118 0.74625 0.0
C820 C 0.98872 0.87343 0.94639 0.0
C821 C 0.97151 0.85447 0.89506 0.0
C822 C 0.02224 0.82547 0.85554 0.0
C823 C 0.04001 0.84955 0.89995 0.0
N824 N 0.04013 0.89772 0.98725 0.0
N825 N 0.97244 0.81732 0.79421 0.0
C826 C 0.0232 0.87417 0.94493 0.0
C827 C 0.98841 0.83173 0.84789 0.0
N828 N 0.97217 0.88845 0.99876 0.0
N829 N 0.03726 0.796 0.82158 0.0
H830 H 0.9478 0.82197 0.78592 0.0
H831 H 0.98424 0.80423 0.75467 0.0
H832 H 0.06177 0.78954 0.82621 0.0
H833 H 0.0247 0.77522 0.7938 0.0
H834 H 0.98341 0.89914 0.0409 0.0
H835 H 0.94703 0.88651 1.00303 0.0
H836 H 0.02934 0.91989 1.01499 0.0
H837 H 0.06524 0.89637 0.99257 0.0
C838 C 0.4895 0.17288 0.46592 0.0
C839 C 0.47195 0.19657 0.42066 0.0
C840 C 0.52312 0.21694 0.36824 0.0
C841 C 0.54093 0.19534 0.41609 0.0
N842 N 0.5414 0.15735 0.51638 0.0
N843 N 0.47214 0.24675 0.33647 0.0
C844 C 0.52417 0.17451 0.46658 0.0
C845 C 0.48883 0.2203 0.37425 0.0
N846 N 0.47301 0.1481 0.50725 0.0
N847 N 0.5387 0.23252 0.31483 0.0
H848 H 0.44709 0.24984 0.33881 0.0
H849 H 0.48326 0.26807 0.30721 0.0
H850 H 0.56361 0.23042 0.30766 0.0
H851 H 0.52667 0.24436 0.2744 0.0
H852 H 0.48417 0.12674 0.53627 0.0
H853 H 0.44775 0.14715 0.50947 0.0
H854 H 0.53079 0.14535 0.55829 0.0
H855 H 0.56665 0.15782 0.51839 0.0
C856 C 0.52061 0.67413 0.09369 0.0
C857 C 0.53716 0.69577 0.1434 0.0
C858 C 0.48477 0.71741 0.18854 0.0
C859 C 0.46835 0.69646 0.13842 0.0
N860 N 0.46957 0.65788 0.03956 0.0
N861 N 0.53464 0.7466 0.22681 0.0
C862 C 0.48601 0.67566 0.08983 0.0
C863 C 0.51917 0.71996 0.18745 0.0
N864 N 0.53815 0.65292 0.04917 0.0
N865 N 0.46749 0.73433 0.23837 0.0
H866 H 0.5596 0.75012 0.22831 0.0
H867 H 0.52261 0.76816 0.25375 0.0
H868 H 0.44226 0.7352 0.23933 0.0
H869 H 0.47805 0.74501 0.28124 0.0
H870 H 0.52823 0.6327 1.01653 0.0
H871 H 0.56324 0.65531 0.0452 0.0
H872 H 0.48052 0.64508 0.99893 0.0
H873 H 0.44432 0.65748 0.03667 0.0
C874 C 0.98851 0.34229 0.5861 0.0
C875 C 0.97243 0.35453 0.64407 0.0
C876 C 0.02519 0.36468 0.69778 0.0
C877 C 0.0411 0.34889 0.64148 0.0
N878 N 0.03716 0.31726 0.53536 0.0
N879 N 0.97512 0.37588 0.75692 0.0
C880 C 0.02251 0.33565 0.58702 0.0
C881 C 0.9907 0.36558 0.70025 0.0
N882 N 0.97169 0.34026 0.52844 0.0
N883 N 0.04296 0.37909 0.74915 0.0
H884 H 0.95022 0.38024 0.75995 0.0
H885 H 0.98653 0.37813 0.80233 0.0
H886 H 0.06779 0.3748 0.75441 0.0
H887 H 0.03334 0.39674 0.78604 0.0
H888 H 0.98247 0.33533 0.48298 0.0
H889 H 0.94757 0.34877 0.52474 0.0
H890 H 0.02434 0.3025 0.49882 0.0
H891 H 0.06209 0.31403 0.53104 0.0
C892 C 0.52585 0.36773 0.95723 0.0
C893 C 0.5429 0.35443 0.90105 0.0
C894 C 0.49183 0.33868 0.84573 0.0
C895 C 0.47473 0.35379 0.90047 0.0
N896 N 0.47434 0.38698 1.00502 0.0
N897 N 0.54264 0.33456 0.78733 0.0
C898 C 0.49143 0.36975 0.95524 0.0
C899 C 0.52606 0.3417 0.84414 0.0
N900 N 0.54257 0.37711 1.01308 0.0
N901 N 0.47534 0.3214 0.7951 0.0
H902 H 0.56766 0.33705 0.78373 0.0
H903 H 0.53158 0.32956 0.74219 0.0
H904 H 0.45019 0.32174 0.79131 0.0
H905 H 0.48646 0.30478 0.75859 0.0
H906 H 0.53159 0.38295 0.05799 0.0
H907 H 0.56782 0.37648 1.01592 0.0
H908 H 0.48499 0.40305 0.04279 0.0
H909 H 0.44908 0.38737 1.00656 0.0
C910 C 0.02539 0.68234 0.34693 0.0
C911 C 0.04222 0.6972 0.4028 0.0
C912 C 0.9903 0.70631 0.45946 0.0
C913 C 0.97342 0.69419 0.40237 0.0
N914 N 0.9747 0.67832 0.28703 0.0
N915 N 0.03955 0.73336 0.50478 0.0
C916 C 0.9909 0.68414 0.3448 0.0
C917 C 0.02434 0.71246 0.45661 0.0
N918 N 0.04222 0.66696 0.29522 0.0
N919 N 0.97411 0.70995 0.51762 0.0
H920 H 0.06429 0.73906 0.50454 0.0
H921 H 0.02708 0.74862 0.54121 0.0
H922 H 0.94956 0.70344 0.52239 0.0
H923 H 0.98569 0.71485 0.56232 0.0
H924 H 0.03139 0.65052 0.25805 0.0
H925 H 0.06726 0.66909 0.29046 0.0
H926 H 0.9862 0.67564 0.24176 0.0
H927 H 0.94957 0.67965 0.28304 0.0
C928 C 0.12967 0.02593 0.08986 0.0
C929 C 0.12899 0.06143 0.05192 0.0
C930 C 0.12894 1.02097 0.9515 0.0
C931 C 0.12769 0.98547 0.98941 0.0
N932 N 0.11075 0.95842 0.09412 0.0
N933 N 0.11131 0.08889 0.94798 0.0
C934 C 0.1227 0.98934 0.05839 0.0
C935 C 0.12308 0.0577 0.98321 0.0
N936 N 0.13862 0.02569 0.15439 0.0
N937 N 0.13751 1.02109 0.88675 0.0
H938 H 0.10393 0.1151 0.97015 0.0
H939 H 0.10479 0.08651 0.89865 0.0
H940 H 0.14453 0.99634 0.86054 0.0
H941 H 0.1412 0.04727 0.86066 0.0
H942 H 0.14194 0.99948 0.18055 0.0
H943 H 0.14619 0.05035 0.18028 0.0
H944 H 0.10479 0.96091 0.1437 0.0
H945 H 0.10277 0.93234 0.07225 0.0
C946 C 0.38842 0.98553 0.48517 0.0
C947 C 0.38055 0.98142 0.5532 0.0
C948 C 0.38289 0.05403 0.56098 0.0
C949 C 0.38223 0.05767 0.49168 0.0
N950 N 0.38183 0.02496 0.38654 0.0
N951 N 0.36562 1.01574 0.65409 0.0
C952 C 0.38463 0.02292 0.45323 0.0
C953 C 0.37692 1.01669 0.59105 0.0
N954 N 0.40061 0.95415 0.4513 0.0
N955 N 0.38948 0.08643 0.5984 0.0
H956 H 0.35889 0.99034 0.67909 0.0
H957 H 0.35947 0.04124 0.67973 0.0
H958 H 0.39542 0.11364 0.57748 0.0
H959 H 0.39304 0.08495 0.64903 0.0
H960 H 0.40897 0.95644 0.40314 0.0
H961 H 0.40627 0.92734 0.47384 0.0
H962 H 0.37982 0.99994 0.35713 0.0
H963 H 0.37892 0.05144 0.36112 0.0
C964 C 0.84735 0.05019 1.01553 0.0
C965 C 0.87359 0.06503 0.05368 0.0
C966 C 0.90342 1.00348 0.03056 0.0
C967 C 0.87851 0.99105 0.98674 0.0
N968 N 0.8305 1.00899 0.92547 0.0
N969 N 0.92923 0.05796 0.08803 0.0
C970 C 0.85184 1.01654 0.97512 0.0
C971 C 0.9024 0.04221 0.05877 0.0
N972 N 0.81723 0.06665 1.02071 0.0
N973 N 0.92809 0.97822 0.04545 0.0
H974 H 0.92951 0.08607 0.10861 0.0
H975 H 0.95191 0.04453 0.08705 0.0
H976 H 0.93062 0.95098 0.02252 0.0
H977 H 0.94485 0.98341 0.08269 0.0
H978 H 0.79662 0.05435 0.99936 0.0
H979 H 0.8119 0.08948 0.05291 0.0
H980 H 0.8126 0.0289 0.91108 0.0
H981 H 0.83291 0.98537 0.89357 0.0
C982 C 0.67121 0.04304 0.5167 0.0
C983 C 0.6411 0.0601 0.49715 0.0
C984 C 0.61314 0.99976 0.53605 0.0
C985 C 0.64359 0.98164 0.54902 0.0
N986 N 0.70194 0.98378 0.53608 0.0
N987 N 0.5834 0.05335 0.48331 0.0
C988 C 0.67262 1.00253 0.53445 0.0
C989 C 0.61204 0.03792 0.50517 0.0
N990 N 0.69873 0.06545 0.52088 0.0
N991 N 0.58527 0.98052 0.55338 0.0
H992 H 0.58156 0.08165 0.46336 0.0
H993 H 0.56183 0.03743 0.48123 0.0
H994 H 0.58521 0.95211 0.5732 0.0
H995 H 0.56241 0.99342 0.5519 0.0
H996 H 0.7199 0.0555 0.54337 0.0
H997 H 0.70007 0.0951 0.50876 0.0
H998 H 0.72305 0.99612 0.51671 0.0
H999 H 0.70512 0.95476 0.55116 0.0
C1000 C 0.65983 0.53171 0.07888 0.0
C1001 C 0.63539 0.55864 0.05889 0.0
C1002 C 0.6125 0.50693 0.9874 0.0
C1003 C 0.63966 0.48229 1.0003 0.0
N1004 N 0.69397 0.47781 0.04519 0.0
N1005 N 0.59111 0.57357 0.9857 0.0
C1006 C 0.66457 0.49634 0.04278 0.0
C1007 C 0.61253 0.54675 1.0105 0.0
N1008 N 0.67907 0.53986 0.13172 0.0
N1009 N 0.58611 0.49205 0.95539 0.0
H1010 H 0.59005 0.60256 1.00229 0.0
H1011 H 0.57626 0.56784 0.94545 0.0
H1012 H 0.58465 0.46281 0.93987 0.0
H1013 H 0.56445 0.50751 0.95026 0.0
H1014 H 0.69495 0.51927 0.15202 0.0
H1015 H 0.67697 0.56544 0.15944 0.0
H1016 H 0.71388 0.48932 0.0702 0.0
H1017 H 0.70003 0.45393 1.01568 0.0
C1018 C 0.88577 0.56218 0.56393 0.0
C1019 C 0.87945 0.56612 0.49548 0.0
C1020 C 0.88652 0.49442 0.48756 0.0
C1021 C 0.88261 0.48975 0.55661 0.0
N1022 N 0.87334 0.52415 0.66048 0.0
N1023 N 0.86666 0.53073 0.39456 0.0
C1024 C 0.88103 0.52491 0.59527 0.0
C1025 C 0.87808 0.53087 0.45748 0.0
N1026 N 0.89714 0.59351 0.59913 0.0
N1027 N 0.89861 0.46441 0.45037 0.0
H1028 H 0.85593 0.55494 0.37192 0.0
H1029 H 0.86367 0.50464 0.36814 0.0
H1030 H 0.90788 0.43859 0.47119 0.0
H1031 H 0.90338 0.46768 0.40033 0.0
H1032 H 0.90407 0.591 0.64823 0.0
H1033 H 0.90385 0.62015 0.57713 0.0
H1034 H 0.86924 0.54994 0.68706 0.0
H1035 H 0.86755 0.49895 0.68701 0.0
C1036 C 0.37792 0.51544 0.95702 0.0
C1037 C 0.38213 0.48008 0.99461 0.0
C1038 C 0.38812 0.52135 0.09418 0.0
C1039 C 0.38509 0.55623 0.05589 0.0
N1040 N 0.39075 0.58512 0.94857 0.0
N1041 N 0.40437 0.45272 0.09502 0.0
C1042 C 0.3847 0.55266 0.98652 0.0
C1043 C 0.39139 0.48408 0.06199 0.0
N1044 N 0.36524 0.51468 0.89509 0.0
N1045 N 0.38631 0.52308 0.161 0.0
H1046 H 0.40968 0.42599 0.07225 0.0
H1047 H 0.41367 0.455 0.14244 0.0
H1048 H 0.38393 0.54943 0.18672 0.0
H1049 H 0.3847 0.49791 0.19041 0.0
H1050 H 0.35892 0.54031 0.86968 0.0
H1051 H 0.35743 0.48937 0.87134 0.0
H1052 H 0.39336 0.58373 0.89771 0.0
H1053 H 0.39718 0.61221 0.96906 0.0
C1054 C 0.16526 0.54512 0.53293 0.0
C1055 C 0.13864 0.55887 0.49453 0.0
C1056 C 0.11081 0.49549 0.51702 0.0
C1057 C 0.13599 0.48431 0.56108 0.0
N1058 N 0.18351 0.50367 0.62166 0.0
N1059 N 0.08356 0.54877 0.45853 0.0
C1060 C 0.16183 0.51093 0.57263 0.0
C1061 C 0.11067 0.53442 0.48869 0.0
N1062 N 0.19487 0.56309 0.52861 0.0
N1063 N 0.08716 0.4688 0.50179 0.0
H1064 H 0.08248 0.57696 0.43802 0.0
H1065 H 0.06141 0.534 0.4585 0.0
H1066 H 0.0857 0.44107 0.52412 0.0
H1067 H 0.07021 0.47331 0.46463 0.0
H1068 H 0.21581 0.55152 0.5498 0.0
H1069 H 0.19969 0.58662 0.49744 0.0
H1070 H 0.20068 0.52423 0.63721 0.0
H1071 H 0.18196 0.47894 0.65144 0.0
C1072 C 0.25547 0.26511 0.08847 0.0
C1073 C 0.22856 0.26219 0.04591 0.0
C1074 C 0.26384 0.26823 0.9504 0.0
C1075 C 0.29058 0.27288 0.99239 0.0
N1076 N 0.31392 0.26526 0.09915 0.0
N1077 N 0.20581 0.27164 0.93796 0.0
C1078 C 0.28697 0.26848 0.06111 0.0
C1079 C 0.23229 0.2669 0.97722 0.0
N1080 N 0.25045 0.26479 0.15485 0.0
N1081 N 0.26913 0.26283 0.88501 0.0
H1082 H 0.18235 0.27307 0.95655 0.0
H1083 H 0.20749 0.2793 0.88854 0.0
H1084 H 0.29263 0.26088 0.86618 0.0
H1085 H 0.25088 0.2557 0.85176 0.0
H1086 H 0.26847 0.26947 0.18965 0.0
H1087 H 0.22725 0.26292 0.17514 0.0
H1088 H 0.31389 0.2639 0.14999 0.0
H1089 H 0.33635 0.25961 0.07815 0.0
C1090 C 0.25209 0.80133 0.56335 0.0
C1091 C 0.28207 0.781 0.56971 0.0
C1092 C 0.26592 0.73716 0.48062 0.0
C1093 C 0.236 0.75759 0.47491 0.0
N1094 N 0.20913 0.81997 0.48941 0.0
N1095 N 0.31046 0.71983 0.55195 0.0
C1096 C 0.23164 0.79309 0.50969 0.0
C1097 C 0.28711 0.74606 0.53321 0.0
N1098 N 0.24205 0.82654 0.61119 0.0
N1099 N 0.27485 0.71088 0.43343 0.0
H1100 H 0.32327 0.72292 0.59579 0.0
H1101 H 0.31365 0.69249 0.52959 0.0
H1102 H 0.26096 0.70678 0.39139 0.0
H1103 H 0.29764 0.69771 0.43169 0.0
H1104 H 0.21916 0.83955 0.61149 0.0
H1105 H 0.25477 0.82947 0.6549 0.0
H1106 H 0.20663 0.84767 0.51095 0.0
H1107 H 0.19653 0.81673 0.44532 0.0
C1108 C 0.22932 0.75143 1.00882 0.0
C1109 C 0.23234 0.79072 0.98654 0.0
C1110 C 0.28166 0.79909 0.05328 0.0
C1111 C 0.27878 0.75962 0.07438 0.0
N1112 N 0.24412 0.70336 0.09072 0.0
N1113 N 0.26941 0.8452 0.96679 0.0
C1114 C 0.25052 0.73765 0.05818 0.0
C1115 C 0.2607 0.81294 1.00314 0.0
N1116 N 0.2083 0.72619 0.97844 0.0
N1117 N 0.30387 0.82354 0.08174 0.0
H1118 H 0.25889 0.85149 0.92153 0.0
H1119 H 0.29032 0.86167 0.9752 0.0
H1120 H 0.31775 0.81503 0.12202 0.0
H1121 H 0.30517 0.85369 0.07194 0.0
H1122 H 0.20683 0.69618 0.98925 0.0
H1123 H 0.19571 0.73404 0.93596 0.0
H1124 H 0.22267 0.68742 0.0856 0.0
H1125 H 0.25902 0.69361 0.12832 0.0
C1126 C 0.28445 0.30173 0.48833 0.0
C1127 C 0.28207 0.2647 0.45842 0.0
C1128 C 0.23013 0.25206 0.51248 0.0
C1129 C 0.23325 0.28817 0.54709 0.0
N1130 N 0.27004 0.3402 0.58264 0.0
N1131 N 0.24801 0.21286 0.41964 0.0
C1132 C 0.26216 0.3114 0.53864 0.0
C1133 C 0.25295 0.24296 0.46276 0.0
N1134 N 0.30819 0.32733 0.46891 0.0
N1135 N 0.20769 0.22468 0.53163 0.0
H1136 H 0.26444 0.20761 0.3817 0.0
H1137 H 0.22673 0.19641 0.41718 0.0
H1138 H 0.19422 0.2276 0.57464 0.0
H1139 H 0.2058 0.19676 0.51078 0.0
H1140 H 0.3098 0.35638 0.48509 0.0
H1141 H 0.3236 0.32104 0.42976 0.0
H1142 H 0.29038 0.35822 0.57864 0.0
H1143 H 0.25926 0.34187 0.6287 0.0
C1144 C 0.77576 0.79253 0.06811 0.0
C1145 C 0.78604 0.7882 1.00194 0.0
C1146 C 0.73332 0.76074 0.97325 0.0
C1147 C 0.72276 0.76646 0.03914 0.0
N1148 N 0.73049 0.79732 0.14346 0.0
N1149 N 0.77434 0.77195 0.88963 0.0
C1150 C 0.743 0.78537 0.08477 0.0
C1151 C 0.76479 0.77303 0.95396 0.0
N1152 N 0.79766 0.80232 0.11541 0.0
N1153 N 0.71294 0.74391 0.92897 0.0
H1154 H 0.79783 0.77901 0.87467 0.0
H1155 H 0.759 0.76544 0.8506 0.0
H1156 H 0.68842 0.74201 0.93829 0.0
H1157 H 0.71996 0.73304 0.88342 0.0
H1158 H 0.79246 0.80245 0.16543 0.0
H1159 H 0.82205 0.8058 0.10478 0.0
H1160 H 0.74325 0.81433 0.17726 0.0
H1161 H 0.70595 0.79398 0.15453 0.0
C1162 C 0.78365 0.253 0.53872 0.0
C1163 C 0.78057 0.29298 0.55714 0.0
C1164 C 0.73353 0.29969 0.48362 0.0
C1165 C 0.73588 0.25935 0.46816 0.0
N1166 N 0.77332 0.2051 0.45453 0.0
N1167 N 0.74397 0.34897 0.56551 0.0
C1168 C 0.76404 0.23813 0.48762 0.0
C1169 C 0.75332 0.31525 0.53418 0.0
N1170 N 0.80359 0.22835 0.57318 0.0
N1171 N 0.713 0.32326 0.4486 0.0
H1172 H 0.75271 0.35667 0.61173 0.0
H1173 H 0.72367 0.36532 0.55203 0.0
H1174 H 0.70013 0.31262 0.40819 0.0
H1175 H 0.71218 0.35383 0.4538 0.0
H1176 H 0.80465 0.19804 0.56483 0.0
H1177 H 0.81537 0.23721 0.616 0.0
H1178 H 0.79515 0.19057 0.46347 0.0
H1179 H 0.7617 0.19594 0.41197 0.0
C1180 C 0.72809 0.25078 1.0192 0.0
C1181 C 0.73297 0.28217 0.97471 0.0
C1182 C 0.78588 0.29596 0.02471 0.0
C1183 C 0.7808 0.26483 0.06979 0.0
N1184 N 0.74126 0.22473 0.12593 0.0
N1185 N 0.77247 0.32189 0.91807 0.0
C1186 C 0.75006 0.24583 0.0718 0.0
C1187 C 0.76379 0.30093 0.97237 0.0
N1188 N 0.70412 0.22382 1.00839 0.0
N1189 N 0.81033 0.3225 0.03439 0.0
H1190 H 0.75762 0.32228 0.87701 0.0
H1191 H 0.7956 0.33352 0.91068 0.0
H1192 H 0.824 0.32289 0.07747 0.0
H1193 H 0.81371 0.34736 1.00489 0.0
H1194 H 0.70122 0.19849 0.03697 0.0
H1195 H 0.69045 0.22384 0.9653 0.0
H1196 H 0.71823 0.21268 0.13243 0.0
H1197 H 0.7558 0.22436 0.16756 0.0
C1198 C 0.78694 0.79181 0.52766 0.0
C1199 C 0.78405 0.76872 0.47084 0.0
C1200 C 0.72641 0.75828 0.49389 0.0
C1201 C 0.73066 0.77805 0.55508 0.0
N1202 N 0.7675 0.8023 0.6376 0.0
N1203 N 0.75022 0.74075 0.3882 0.0
C1204 C 0.76191 0.79081 0.5744 0.0
C1205 C 0.75319 0.75572 0.45004 0.0
N1206 N 0.81202 0.8176 0.53403 0.0
N1207 N 0.69763 0.74031 0.47941 0.0
H1208 H 0.76969 0.74053 0.35538 0.0
H1209 H 0.72858 0.7316 0.3675 0.0
H1210 H 0.68056 0.73321 0.51516 0.0
H1211 H 0.69175 0.72841 0.43405 0.0
H1212 H 0.81293 0.83816 0.57188 0.0
H1213 H 0.82839 0.82272 0.4959 0.0
H1214 H 0.79059 0.80942 0.65486 0.0
H1215 H 0.74958 0.80047 0.67372 0.0
loop_
_geom_bond_atom_site_label_1
_geom_bond_atom_site_label_2
_geom_bond_distance
_geom_bond_site_symmetry_2
_ccdc_geom_bond_type
Fe0 O2 1.918 . S
Fe0 O5 1.997 . S
Fe0 O6 2.002 . S
Fe0 O11 1.976 . S
Fe0 O14 1.996 1_554 S
Fe1 O2 1.918 . S
Fe1 O9 1.997 . S
Fe1 O12 1.996 . S
Fe1 O16 1.976 . S
Fe1 O19 2.002 . S
O2 Fe0 1.918 . S
O2 Fe1 1.918 . S
O2 Fe3 1.918 . S
Fe3 O2 1.918 . S
Fe3 O4 2.002 . S
Fe3 O13 1.976 1_554 S
Fe3 O17 1.996 . S
Fe3 O20 1.997 . S
O4 Fe3 2.002 . S
O4 C21 1.295 . S
O5 Fe0 1.997 . S
O5 C21 1.235 . S
O6 Fe0 2.002 . S
O6 C7 1.295 . S
C7 O6 1.295 . S
C7 O9 1.235 . S
C8 O13 1.287 . S
C8 O14 1.255 . S
O9 Fe1 1.997 . S
O9 C7 1.235 . S
C10 O16 1.287 . S
C10 O17 1.255 . S
O11 Fe0 1.976 . S
O11 C18 1.287 . S
O12 Fe1 1.996 . S
O12 C18 1.255 . S
O13 Fe3 1.976 1_556 S
O13 C8 1.287 . S
O14 Fe0 1.996 1_556 S
O14 C8 1.255 . S
C15 O19 1.295 . S
C15 O20 1.235 . S
O16 Fe1 1.976 . S
O16 C10 1.287 . S
O17 Fe3 1.996 . S
O17 C10 1.255 . S
C18 O11 1.287 . S
C18 O12 1.255 . S
O19 Fe1 2.002 . S
O19 C15 1.295 . S
O20 Fe3 1.997 . S
O20 C15 1.235 . S
C21 O4 1.295 . S
C21 O5 1.235 . S
Fe22 O24 1.918 . S
Fe22 O27 1.997 . S
Fe22 O28 2.002 . S
Fe22 O33 1.976 . S
Fe22 O36 1.996 . S
Fe23 O24 1.918 . S
Fe23 O31 1.997 . S
Fe23 O34 1.996 . S
Fe23 O38 1.976 . S
Fe23 O41 2.002 . S
O24 Fe22 1.918 . S
O24 Fe23 1.918 . S
O24 Fe25 1.918 . S
Fe25 O24 1.918 . S
Fe25 O26 2.002 . S
Fe25 O35 1.976 . S
Fe25 O39 1.996 . S
Fe25 O42 1.997 . S
O26 Fe25 2.002 . S
O26 C43 1.295 . S
O27 Fe22 1.997 . S
O27 C43 1.235 . S
O28 Fe22 2.002 . S
O28 C29 1.295 . S
C29 O28 1.295 . S
C29 O31 1.235 . S
C30 O35 1.287 . S
C30 O36 1.255 . S
O31 Fe23 1.997 . S
O31 C29 1.235 . S
C32 O38 1.287 . S
C32 O39 1.255 . S
O33 Fe22 1.976 . S
O33 C40 1.287 . S
O34 Fe23 1.996 . S
O34 C40 1.255 . S
O35 Fe25 1.976 . S
O35 C30 1.287 . S
O36 Fe22 1.996 . S
O36 C30 1.255 . S
C37 O41 1.295 . S
C37 O42 1.235 . S
O38 Fe23 1.976 . S
O38 C32 1.287 . S
O39 Fe25 1.996 . S
O39 C32 1.255 . S
C40 O33 1.287 . S
C40 O34 1.255 . S
O41 Fe23 2.002 . S
O41 C37 1.295 . S
O42 Fe25 1.997 . S
O42 C37 1.235 . S
C43 O26 1.295 . S
C43 O27 1.235 . S
Fe44 O46 1.918 . S
Fe44 O49 1.997 . S
Fe44 O50 2.002 . S
Fe44 O55 1.976 . S
Fe44 O58 1.996 1_556 S
Fe45 O46 1.918 . S
Fe45 O53 1.997 . S
Fe45 O56 1.996 . S
Fe45 O60 1.976 . S
Fe45 O63 2.002 . S
O46 Fe44 1.918 . S
O46 Fe45 1.918 . S
O46 Fe47 1.918 . S
Fe47 O46 1.918 . S
Fe47 O48 2.002 . S
Fe47 O57 1.976 1_556 S
Fe47 O61 1.996 . S
Fe47 O64 1.997 . S
O48 Fe47 2.002 . S
O48 C65 1.295 . S
O49 Fe44 1.997 . S
O49 C65 1.235 . S
O50 Fe44 2.002 . S
O50 C51 1.295 . S
C51 O50 1.295 . S
C51 O53 1.235 . S
C52 O57 1.287 . S
C52 O58 1.255 . S
O53 Fe45 1.997 . S
O53 C51 1.235 . S
C54 O60 1.287 . S
C54 O61 1.255 . S
O55 Fe44 1.976 . S
O55 C62 1.287 . S
O56 Fe45 1.996 . S
O56 C62 1.255 . S
O57 Fe47 1.976 1_554 S
O57 C52 1.287 . S
O58 Fe44 1.996 1_554 S
O58 C52 1.255 . S
C59 O63 1.295 . S
C59 O64 1.235 . S
O60 Fe45 1.976 . S
O60 C54 1.287 . S
O61 Fe47 1.996 . S
O61 C54 1.255 . S
C62 O55 1.287 . S
C62 O56 1.255 . S
O63 Fe45 2.002 . S
O63 C59 1.295 . S
O64 Fe47 1.997 . S
O64 C59 1.235 . S
C65 O48 1.295 . S
C65 O49 1.235 . S
Fe66 O68 1.918 . S
Fe66 O71 1.997 . S
Fe66 O72 2.002 . S
Fe66 O77 1.976 . S
Fe66 O80 1.996 . S
Fe67 O68 1.918 . S
Fe67 O75 1.997 . S
Fe67 O78 1.996 . S
Fe67 O82 1.976 . S
Fe67 O85 2.002 . S
O68 Fe66 1.918 . S
O68 Fe67 1.918 . S
O68 Fe69 1.918 . S
Fe69 O68 1.918 . S
Fe69 O70 2.002 . S
Fe69 O79 1.976 . S
Fe69 O83 1.996 . S
Fe69 O86 1.997 . S
O70 Fe69 2.002 . S
O70 C87 1.295 . S
O71 Fe66 1.997 . S
O71 C87 1.235 . S
O72 Fe66 2.002 . S
O72 C73 1.295 . S
C73 O72 1.295 . S
C73 O75 1.235 . S
C74 O79 1.287 . S
C74 O80 1.255 . S
O75 Fe67 1.997 . S
O75 C73 1.235 . S
C76 O82 1.287 . S
C76 O83 1.255 . S
O77 Fe66 1.976 . S
O77 C84 1.287 . S
O78 Fe67 1.996 . S
O78 C84 1.255 . S
O79 Fe69 1.976 . S
O79 C74 1.287 . S
O80 Fe66 1.996 . S
O80 C74 1.255 . S
C81 O85 1.295 . S
C81 O86 1.235 . S
O82 Fe67 1.976 . S
O82 C76 1.287 . S
O83 Fe69 1.996 . S
O83 C76 1.255 . S
C84 O77 1.287 . S
C84 O78 1.255 . S
O85 Fe67 2.002 . S
O85 C81 1.295 . S
O86 Fe69 1.997 . S
O86 C81 1.235 . S
C87 O70 1.295 . S
C87 O71 1.235 . S
Fe88 O90 1.918 . S
Fe88 O93 1.997 . S
Fe88 O94 2.002 . S
Fe88 O99 1.976 . S
Fe88 O102 1.996 . S
Fe89 O90 1.918 . S
Fe89 O97 1.997 . S
Fe89 O100 1.996 . S
Fe89 O104 1.976 1_556 S
Fe89 O107 2.002 . S
O90 Fe88 1.918 . S
O90 Fe89 1.918 . S
O90 Fe91 1.918 . S
Fe91 O90 1.918 . S
Fe91 O92 2.002 . S
Fe91 O101 1.976 . S
Fe91 O105 1.996 1_556 S
Fe91 O108 1.997 . S
O92 Fe91 2.002 . S
O92 C109 1.295 . S
O93 Fe88 1.997 . S
O93 C109 1.235 . S
O94 Fe88 2.002 . S
O94 C95 1.295 . S
C95 O94 1.295 . S
C95 O97 1.235 . S
C96 O101 1.287 . S
C96 O102 1.255 . S
O97 Fe89 1.997 . S
O97 C95 1.235 . S
C98 O104 1.287 . S
C98 O105 1.255 . S
O99 Fe88 1.976 . S
O99 C106 1.287 . S
O100 Fe89 1.996 . S
O100 C106 1.255 . S
O101 Fe91 1.976 . S
O101 C96 1.287 . S
O102 Fe88 1.996 . S
O102 C96 1.255 . S
C103 O107 1.295 . S
C103 O108 1.235 . S
O104 Fe89 1.976 1_554 S
O104 C98 1.287 . S
O105 Fe91 1.996 1_554 S
O105 C98 1.255 . S
C106 O99 1.287 . S
C106 O100 1.255 . S
O107 Fe89 2.002 . S
O107 C103 1.295 . S
O108 Fe91 1.997 . S
O108 C103 1.235 . S
C109 O92 1.295 . S
C109 O93 1.235 . S
Fe110 O112 1.918 . S
Fe110 O115 1.997 . S
Fe110 O116 2.002 . S
Fe110 O121 1.976 . S
Fe110 O124 1.996 . S
Fe111 O112 1.918 . S
Fe111 O119 1.997 . S
Fe111 O122 1.996 . S
Fe111 O126 1.976 . S
Fe111 O129 2.002 . S
O112 Fe110 1.918 . S
O112 Fe111 1.918 . S
O112 Fe113 1.918 . S
Fe113 O112 1.918 . S
Fe113 O114 2.002 . S
Fe113 O123 1.976 . S
Fe113 O127 1.996 . S
Fe113 O130 1.997 . S
O114 Fe113 2.002 . S
O114 C131 1.295 . S
O115 Fe110 1.997 . S
O115 C131 1.235 . S
O116 Fe110 2.002 . S
O116 C117 1.295 . S
C117 O116 1.295 . S
C117 O119 1.235 . S
C118 O123 1.287 . S
C118 O124 1.255 . S
O119 Fe111 1.997 . S
O119 C117 1.235 . S
C120 O126 1.287 . S
C120 O127 1.255 . S
O121 Fe110 1.976 . S
O121 C128 1.287 . S
O122 Fe111 1.996 . S
O122 C128 1.255 . S
O123 Fe113 1.976 . S
O123 C118 1.287 . S
O124 Fe110 1.996 . S
O124 C118 1.255 . S
C125 O129 1.295 . S
C125 O130 1.235 . S
O126 Fe111 1.976 . S
O126 C120 1.287 . S
O127 Fe113 1.996 . S
O127 C120 1.255 . S
C128 O121 1.287 . S
C128 O122 1.255 . S
O129 Fe111 2.002 . S
O129 C125 1.295 . S
O130 Fe113 1.997 . S
O130 C125 1.235 . S
C131 O114 1.295 . S
C131 O115 1.235 . S
Fe132 O134 1.918 . S
Fe132 O137 1.997 . S
Fe132 O138 2.002 . S
Fe132 O143 1.976 . S
Fe132 O146 1.996 . S
Fe133 O134 1.918 . S
Fe133 O141 1.997 . S
Fe133 O144 1.996 . S
Fe133 O148 1.976 1_554 S
Fe133 O151 2.002 . S
O134 Fe132 1.918 . S
O134 Fe133 1.918 . S
O134 Fe135 1.918 . S
Fe135 O134 1.918 . S
Fe135 O136 2.002 . S
Fe135 O145 1.976 . S
Fe135 O149 1.996 1_554 S
Fe135 O152 1.997 . S
O136 Fe135 2.002 . S
O136 C153 1.295 . S
O137 Fe132 1.997 . S
O137 C153 1.235 . S
O138 Fe132 2.002 . S
O138 C139 1.295 . S
C139 O138 1.295 . S
C139 O141 1.235 . S
C140 O145 1.287 . S
C140 O146 1.255 . S
O141 Fe133 1.997 . S
O141 C139 1.235 . S
C142 O148 1.287 . S
C142 O149 1.255 . S
O143 Fe132 1.976 . S
O143 C150 1.287 . S
O144 Fe133 1.996 . S
O144 C150 1.255 . S
O145 Fe135 1.976 . S
O145 C140 1.287 . S
O146 Fe132 1.996 . S
O146 C140 1.255 . S
C147 O151 1.295 . S
C147 O152 1.235 . S
O148 Fe133 1.976 1_556 S
O148 C142 1.287 . S
O149 Fe135 1.996 1_556 S
O149 C142 1.255 . S
C150 O143 1.287 . S
C150 O144 1.255 . S
O151 Fe133 2.002 . S
O151 C147 1.295 . S
O152 Fe135 1.997 . S
O152 C147 1.235 . S
C153 O136 1.295 . S
C153 O137 1.235 . S
Fe154 O156 1.918 . S
Fe154 O159 1.997 . S
Fe154 O160 2.002 . S
Fe154 O165 1.976 . S
Fe154 O168 1.996 . S
Fe155 O156 1.918 . S
Fe155 O163 1.997 . S
Fe155 O166 1.996 . S
Fe155 O170 1.976 . S
Fe155 O173 2.002 . S
O156 Fe154 1.918 . S
O156 Fe155 1.918 . S
O156 Fe157 1.918 . S
Fe157 O156 1.918 . S
Fe157 O158 2.002 . S
Fe157 O167 1.976 . S
Fe157 O171 1.996 . S
Fe157 O174 1.997 . S
O158 Fe157 2.002 . S
O158 C175 1.295 . S
O159 Fe154 1.997 . S
O159 C175 1.235 . S
O160 Fe154 2.002 . S
O160 C161 1.295 . S
C161 O160 1.295 . S
C161 O163 1.235 . S
C162 O167 1.287 . S
C162 O168 1.255 . S
O163 Fe155 1.997 . S
O163 C161 1.235 . S
C164 O170 1.287 . S
C164 O171 1.255 . S
O165 Fe154 1.976 . S
O165 C172 1.287 . S
O166 Fe155 1.996 . S
O166 C172 1.255 . S
O167 Fe157 1.976 . S
O167 C162 1.287 . S
O168 Fe154 1.996 . S
O168 C162 1.255 . S
C169 O173 1.295 . S
C169 O174 1.235 . S
O170 Fe155 1.976 . S
O170 C164 1.287 . S
O171 Fe157 1.996 . S
O171 C164 1.255 . S
C172 O165 1.287 . S
C172 O166 1.255 . S
O173 Fe155 2.002 . S
O173 C169 1.295 . S
O174 Fe157 1.997 . S
O174 C169 1.235 . S
C175 O158 1.295 . S
C175 O159 1.235 . S
Fe176 O178 1.918 . S
Fe176 O181 1.997 . S
Fe176 O182 2.002 . S
Fe176 O187 1.976 . S
Fe176 O190 1.996 1_554 S
Fe177 O178 1.918 . S
Fe177 O185 1.997 . S
Fe177 O188 1.996 . S
Fe177 O192 1.976 . S
Fe177 O195 2.002 . S
O178 Fe176 1.918 . S
O178 Fe177 1.918 . S
O178 Fe179 1.918 . S
Fe179 O178 1.918 . S
Fe179 O180 2.002 . S
Fe179 O189 1.976 1_554 S
Fe179 O193 1.996 . S
Fe179 O196 1.997 . S
O180 Fe179 2.002 . S
O180 C197 1.295 . S
O181 Fe176 1.997 . S
O181 C197 1.235 . S
O182 Fe176 2.002 . S
O182 C183 1.295 . S
C183 O182 1.295 . S
C183 O185 1.235 . S
C184 O189 1.287 . S
C184 O190 1.255 . S
O185 Fe177 1.997 . S
O185 C183 1.235 . S
C186 O192 1.287 . S
C186 O193 1.255 . S
O187 Fe176 1.976 . S
O187 C194 1.287 . S
O188 Fe177 1.996 . S
O188 C194 1.255 . S
O189 Fe179 1.976 1_556 S
O189 C184 1.287 . S
O190 Fe176 1.996 1_556 S
O190 C184 1.255 . S
C191 O195 1.295 . S
C191 O196 1.235 . S
O192 Fe177 1.976 . S
O192 C186 1.287 . S
O193 Fe179 1.996 . S
O193 C186 1.255 . S
C194 O187 1.287 . S
C194 O188 1.255 . S
O195 Fe177 2.002 . S
O195 C191 1.295 . S
O196 Fe179 1.997 . S
O196 C191 1.235 . S
C197 O180 1.295 . S
C197 O181 1.235 . S
Fe198 O200 1.918 . S
Fe198 O203 1.997 . S
Fe198 O204 2.002 . S
Fe198 O209 1.976 . S
Fe198 O212 1.996 . S
Fe199 O200 1.918 . S
Fe199 O207 1.997 . S
Fe199 O210 1.996 . S
Fe199 O214 1.976 . S
Fe199 O217 2.002 . S
O200 Fe198 1.918 . S
O200 Fe199 1.918 . S
O200 Fe201 1.918 . S
Fe201 O200 1.918 . S
Fe201 O202 2.002 . S
Fe201 O211 1.976 . S
Fe201 O215 1.996 . S
Fe201 O218 1.997 . S
O202 Fe201 2.002 . S
O202 C219 1.295 . S
O203 Fe198 1.997 . S
O203 C219 1.235 . S
O204 Fe198 2.002 . S
O204 C205 1.295 . S
C205 O204 1.295 . S
C205 O207 1.235 . S
C206 O211 1.287 . S
C206 O212 1.255 . S
O207 Fe199 1.997 . S
O207 C205 1.235 . S
C208 O214 1.287 . S
C208 O215 1.255 . S
O209 Fe198 1.976 . S
O209 C216 1.287 . S
O210 Fe199 1.996 . S
O210 C216 1.255 . S
O211 Fe201 1.976 . S
O211 C206 1.287 . S
O212 Fe198 1.996 . S
O212 C206 1.255 . S
C213 O217 1.295 . S
C213 O218 1.235 . S
O214 Fe199 1.976 . S
O214 C208 1.287 . S
O215 Fe201 1.996 . S
O215 C208 1.255 . S
C216 O209 1.287 . S
C216 O210 1.255 . S
O217 Fe199 2.002 . S
O217 C213 1.295 . S
O218 Fe201 1.997 . S
O218 C213 1.235 . S
C219 O202 1.295 . S
C219 O203 1.235 . S
Fe220 O222 1.918 . S
Fe220 O225 1.997 . S
Fe220 O226 2.002 . S
Fe220 O231 1.976 . S
Fe220 O234 1.996 1_556 S
Fe221 O222 1.918 . S
Fe221 O229 1.997 . S
Fe221 O232 1.996 . S
Fe221 O236 1.976 . S
Fe221 O239 2.002 . S
O222 Fe220 1.918 . S
O222 Fe221 1.918 . S
O222 Fe223 1.918 . S
Fe223 O222 1.918 . S
Fe223 O224 2.002 . S
Fe223 O233 1.976 1_556 S
Fe223 O237 1.996 . S
Fe223 O240 1.997 . S
O224 Fe223 2.002 . S
O224 C241 1.295 . S
O225 Fe220 1.997 . S
O225 C241 1.235 . S
O226 Fe220 2.002 . S
O226 C227 1.295 . S
C227 O226 1.295 . S
C227 O229 1.235 . S
C228 O233 1.287 . S
C228 O234 1.255 . S
O229 Fe221 1.997 . S
O229 C227 1.235 . S
C230 O236 1.287 . S
C230 O237 1.255 . S
O231 Fe220 1.976 . S
O231 C238 1.287 . S
O232 Fe221 1.996 . S
O232 C238 1.255 . S
O233 Fe223 1.976 1_554 S
O233 C228 1.287 . S
O234 Fe220 1.996 1_554 S
O234 C228 1.255 . S
C235 O239 1.295 . S
C235 O240 1.235 . S
O236 Fe221 1.976 . S
O236 C230 1.287 . S
O237 Fe223 1.996 . S
O237 C230 1.255 . S
C238 O231 1.287 . S
C238 O232 1.255 . S
O239 Fe221 2.002 . S
O239 C235 1.295 . S
O240 Fe223 1.997 . S
O240 C235 1.235 . S
C241 O224 1.295 . S
C241 O225 1.235 . S
Fe242 O244 1.918 . S
Fe242 O247 1.997 . S
Fe242 O248 2.002 . S
Fe242 O253 1.976 . S
Fe242 O256 1.996 . S
Fe243 O244 1.918 . S
Fe243 O251 1.997 . S
Fe243 O254 1.996 . S
Fe243 O258 1.976 . S
Fe243 O261 2.002 . S
O244 Fe242 1.918 . S
O244 Fe243 1.918 . S
O244 Fe245 1.918 . S
Fe245 O244 1.918 . S
Fe245 O246 2.002 . S
Fe245 O255 1.976 . S
Fe245 O259 1.996 . S
Fe245 O262 1.997 . S
O246 Fe245 2.002 . S
O246 C263 1.295 . S
O247 Fe242 1.997 . S
O247 C263 1.235 . S
O248 Fe242 2.002 . S
O248 C249 1.295 . S
C249 O248 1.295 . S
C249 O251 1.235 . S
C250 O255 1.287 . S
C250 O256 1.255 . S
O251 Fe243 1.997 . S
O251 C249 1.235 . S
C252 O258 1.287 . S
C252 O259 1.255 . S
O253 Fe242 1.976 . S
O253 C260 1.287 . S
O254 Fe243 1.996 . S
O254 C260 1.255 . S
O255 Fe245 1.976 . S
O255 C250 1.287 . S
O256 Fe242 1.996 . S
O256 C250 1.255 . S
C257 O261 1.295 . S
C257 O262 1.235 . S
O258 Fe243 1.976 . S
O258 C252 1.287 . S
O259 Fe245 1.996 . S
O259 C252 1.255 . S
C260 O253 1.287 . S
C260 O254 1.255 . S
O261 Fe243 2.002 . S
O261 C257 1.295 . S
O262 Fe245 1.997 . S
O262 C257 1.235 . S
C263 O246 1.295 . S
C263 O247 1.235 . S
Fe264 O266 1.918 . S
Fe264 O269 1.997 . S
Fe264 O270 2.002 . S
Fe264 O275 1.976 . S
Fe264 O278 1.996 . S
Fe265 O266 1.918 . S
Fe265 O273 1.997 . S
Fe265 O276 1.996 . S
Fe265 O280 1.976 1_556 S
Fe265 O283 2.002 . S
O266 Fe264 1.918 . S
O266 Fe265 1.918 . S
O266 Fe267 1.918 . S
Fe267 O266 1.918 . S
Fe267 O268 2.002 . S
Fe267 O277 1.976 . S
Fe267 O281 1.996 1_556 S
Fe267 O284 1.997 . S
O268 Fe267 2.002 . S
O268 C285 1.295 . S
O269 Fe264 1.997 . S
O269 C285 1.235 . S
O270 Fe264 2.002 . S
O270 C271 1.295 . S
C271 O270 1.295 . S
C271 O273 1.235 . S
C272 O277 1.287 . S
C272 O278 1.255 . S
O273 Fe265 1.997 . S
O273 C271 1.235 . S
C274 O280 1.287 . S
C274 O281 1.255 . S
O275 Fe264 1.976 . S
O275 C282 1.287 . S
O276 Fe265 1.996 . S
O276 C282 1.255 . S
O277 Fe267 1.976 . S
O277 C272 1.287 . S
O278 Fe264 1.996 . S
O278 C272 1.255 . S
C279 O283 1.295 . S
C279 O284 1.235 . S
O280 Fe265 1.976 1_554 S
O280 C274 1.287 . S
O281 Fe267 1.996 1_554 S
O281 C274 1.255 . S
C282 O275 1.287 . S
C282 O276 1.255 . S
O283 Fe265 2.002 . S
O283 C279 1.295 . S
O284 Fe267 1.997 . S
O284 C279 1.235 . S
C285 O268 1.295 . S
C285 O269 1.235 . S
Fe286 O288 1.918 . S
Fe286 O291 1.997 . S
Fe286 O292 2.002 . S
Fe286 O297 1.976 . S
Fe286 O300 1.996 . S
Fe287 O288 1.918 . S
Fe287 O295 1.997 . S
Fe287 O298 1.996 . S
Fe287 O302 1.976 . S
Fe287 O305 2.002 . S
O288 Fe286 1.918 . S
O288 Fe287 1.918 . S
O288 Fe289 1.918 . S
Fe289 O288 1.918 . S
Fe289 O290 2.002 . S
Fe289 O299 1.976 . S
Fe289 O303 1.996 . S
Fe289 O306 1.997 . S
O290 Fe289 2.002 . S
O290 C307 1.295 . S
O291 Fe286 1.997 . S
O291 C307 1.235 . S
O292 Fe286 2.002 . S
O292 C293 1.295 . S
C293 O292 1.295 . S
C293 O295 1.235 . S
C294 O299 1.287 . S
C294 O300 1.255 . S
O295 Fe287 1.997 . S
O295 C293 1.235 . S
C296 O302 1.287 . S
C296 O303 1.255 . S
O297 Fe286 1.976 . S
O297 C304 1.287 . S
O298 Fe287 1.996 . S
O298 C304 1.255 . S
O299 Fe289 1.976 . S
O299 C294 1.287 . S
O300 Fe286 1.996 . S
O300 C294 1.255 . S
C301 O305 1.295 . S
C301 O306 1.235 . S
O302 Fe287 1.976 . S
O302 C296 1.287 . S
O303 Fe289 1.996 . S
O303 C296 1.255 . S
C304 O297 1.287 . S
C304 O298 1.255 . S
O305 Fe287 2.002 . S
O305 C301 1.295 . S
O306 Fe289 1.997 . S
O306 C301 1.235 . S
C307 O290 1.295 . S
C307 O291 1.235 . S
Fe308 O310 1.918 . S
Fe308 O313 1.997 . S
Fe308 O314 2.002 . S
Fe308 O319 1.976 1_554 S
Fe308 O322 1.996 . S
Fe309 O310 1.918 . S
Fe309 O317 1.997 . S
Fe309 O320 1.996 1_554 S
Fe309 O324 1.976 . S
Fe309 O327 2.002 . S
O310 Fe308 1.918 . S
O310 Fe309 1.918 . S
O310 Fe311 1.918 . S
Fe311 O310 1.918 . S
Fe311 O312 2.002 . S
Fe311 O321 1.976 . S
Fe311 O325 1.996 . S
Fe311 O328 1.997 . S
O312 Fe311 2.002 . S
O312 C329 1.295 . S
O313 Fe308 1.997 . S
O313 C329 1.235 . S
O314 Fe308 2.002 . S
O314 C315 1.295 . S
C315 O314 1.295 . S
C315 O317 1.235 . S
C316 O321 1.287 . S
C316 O322 1.255 . S
O317 Fe309 1.997 . S
O317 C315 1.235 . S
C318 O324 1.287 . S
C318 O325 1.255 . S
O319 Fe308 1.976 1_556 S
O319 C326 1.287 . S
O320 Fe309 1.996 1_556 S
O320 C326 1.255 . S
O321 Fe311 1.976 . S
O321 C316 1.287 . S
O322 Fe308 1.996 . S
O322 C316 1.255 . S
C323 O327 1.295 . S
C323 O328 1.235 . S
O324 Fe309 1.976 . S
O324 C318 1.287 . S
O325 Fe311 1.996 . S
O325 C318 1.255 . S
C326 O319 1.287 . S
C326 O320 1.255 . S
O327 Fe309 2.002 . S
O327 C323 1.295 . S
O328 Fe311 1.997 . S
O328 C323 1.235 . S
C329 O312 1.295 . S
C329 O313 1.235 . S
Fe330 O332 1.918 . S
Fe330 O335 1.997 . S
Fe330 O336 2.002 . S
Fe330 O341 1.976 . S
Fe330 O344 1.996 . S
Fe331 O332 1.918 . S
Fe331 O339 1.997 . S
Fe331 O342 1.996 . S
Fe331 O346 1.976 . S
Fe331 O349 2.002 . S
O332 Fe330 1.918 . S
O332 Fe331 1.918 . S
O332 Fe333 1.918 . S
Fe333 O332 1.918 . S
Fe333 O334 2.002 . S
Fe333 O343 1.976 . S
Fe333 O347 1.996 . S
Fe333 O350 1.997 . S
O334 Fe333 2.002 . S
O334 C351 1.295 . S
O335 Fe330 1.997 . S
O335 C351 1.235 . S
O336 Fe330 2.002 . S
O336 C337 1.295 . S
C337 O336 1.295 . S
C337 O339 1.235 . S
C338 O343 1.287 . S
C338 O344 1.255 . S
O339 Fe331 1.997 . S
O339 C337 1.235 . S
C340 O346 1.287 . S
C340 O347 1.255 . S
O341 Fe330 1.976 . S
O341 C348 1.287 . S
O342 Fe331 1.996 . S
O342 C348 1.255 . S
O343 Fe333 1.976 . S
O343 C338 1.287 . S
O344 Fe330 1.996 . S
O344 C338 1.255 . S
C345 O349 1.295 . S
C345 O350 1.235 . S
O346 Fe331 1.976 . S
O346 C340 1.287 . S
O347 Fe333 1.996 . S
O347 C340 1.255 . S
C348 O341 1.287 . S
C348 O342 1.255 . S
O349 Fe331 2.002 . S
O349 C345 1.295 . S
O350 Fe333 1.997 . S
O350 C345 1.235 . S
C351 O334 1.295 . S
C351 O335 1.235 . S
C352 C353 1.363 . S
C352 C358 1.379 . S
C352 N360 1.356 . S
C353 C352 1.363 . S
C353 C359 1.363 . S
C354 C355 1.363 . S
C354 C359 1.379 . S
C354 N361 1.356 . S
C355 C354 1.363 . S
C355 C358 1.363 . S
N356 C358 1.356 . S
N356 H368 0.984 . S
N356 H369 0.985 . S
N357 C359 1.356 . S
N357 H362 0.984 . S
N357 H363 0.985 . S
C358 C352 1.379 . S
C358 C355 1.363 . S
C358 N356 1.356 . S
C359 C353 1.363 . S
C359 C354 1.379 . S
C359 N357 1.356 . S
N360 C352 1.356 . S
N360 H366 0.984 . S
N360 H367 0.984 . S
N361 C354 1.356 . S
N361 H364 0.984 . S
N361 H365 0.985 . S
H362 N357 0.984 . S
H363 N357 0.985 . S
H364 N361 0.984 . S
H365 N361 0.985 . S
H366 N360 0.984 . S
H367 N360 0.984 . S
H368 N356 0.984 . S
H369 N356 0.985 . S
C370 C371 1.363 . S
C370 C376 1.379 . S
C370 N378 1.356 . S
C371 C370 1.363 . S
C371 C377 1.363 . S
C372 C373 1.363 . S
C372 C377 1.379 . S
C372 N379 1.356 . S
C373 C372 1.363 . S
C373 C376 1.363 . S
N374 C376 1.356 . S
N374 H386 0.984 . S
N374 H387 0.985 . S
N375 C377 1.356 . S
N375 H380 0.984 . S
N375 H381 0.985 . S
C376 C370 1.379 . S
C376 C373 1.363 . S
C376 N374 1.356 . S
C377 C371 1.363 . S
C377 C372 1.379 . S
C377 N375 1.356 . S
N378 C370 1.356 . S
N378 H384 0.984 . S
N378 H385 0.984 . S
N379 C372 1.356 . S
N379 H382 0.984 . S
N379 H383 0.985 . S
H380 N375 0.984 . S
H381 N375 0.985 . S
H382 N379 0.984 . S
H383 N379 0.985 . S
H384 N378 0.984 . S
H385 N378 0.984 . S
H386 N374 0.984 . S
H387 N374 0.985 . S
C388 C389 1.363 . S
C388 C394 1.379 . S
C388 N396 1.356 . S
C389 C388 1.363 . S
C389 C395 1.363 . S
C390 C391 1.363 . S
C390 C395 1.379 . S
C390 N397 1.356 . S
C391 C390 1.363 . S
C391 C394 1.363 . S
N392 C394 1.356 . S
N392 H404 0.984 . S
N392 H405 0.985 . S
N393 C395 1.356 . S
N393 H398 0.984 . S
N393 H399 0.985 . S
C394 C388 1.379 . S
C394 C391 1.363 . S
C394 N392 1.356 . S
C395 C389 1.363 . S
C395 C390 1.379 . S
C395 N393 1.356 . S
N396 C388 1.356 . S
N396 H402 0.984 . S
N396 H403 0.984 . S
N397 C390 1.356 . S
N397 H400 0.984 . S
N397 H401 0.985 . S
H398 N393 0.984 . S
H399 N393 0.985 . S
H400 N397 0.984 . S
H401 N397 0.985 . S
H402 N396 0.984 . S
H403 N396 0.984 . S
H404 N392 0.984 . S
H405 N392 0.985 . S
C406 C407 1.363 . S
C406 C412 1.379 . S
C406 N414 1.356 . S
C407 C406 1.363 . S
C407 C413 1.363 . S
C408 C409 1.363 . S
C408 C413 1.379 . S
C408 N415 1.356 . S
C409 C408 1.363 . S
C409 C412 1.363 . S
N410 C412 1.356 . S
N410 H422 0.984 . S
N410 H423 0.985 . S
N411 C413 1.356 . S
N411 H416 0.984 . S
N411 H417 0.985 . S
C412 C406 1.379 . S
C412 C409 1.363 . S
C412 N410 1.356 . S
C413 C407 1.363 . S
C413 C408 1.379 . S
C413 N411 1.356 . S
N414 C406 1.356 . S
N414 H420 0.984 . S
N414 H421 0.984 . S
N415 C408 1.356 . S
N415 H418 0.984 . S
N415 H419 0.985 . S
H416 N411 0.984 . S
H417 N411 0.985 . S
H418 N415 0.984 . S
H419 N415 0.985 . S
H420 N414 0.984 . S
H421 N414 0.984 . S
H422 N410 0.984 . S
H423 N410 0.985 . S
C424 C425 1.363 . S
C424 C430 1.379 . S
C424 N432 1.356 . S
C425 C424 1.363 . S
C425 C431 1.363 . S
C426 C427 1.363 . S
C426 C431 1.379 . S
C426 N433 1.356 . S
C427 C426 1.363 . S
C427 C430 1.363 . S
N428 C430 1.356 . S
N428 H440 0.984 . S
N428 H441 0.985 . S
N429 C431 1.356 . S
N429 H434 0.984 . S
N429 H435 0.985 . S
C430 C424 1.379 . S
C430 C427 1.363 . S
C430 N428 1.356 . S
C431 C425 1.363 . S
C431 C426 1.379 . S
C431 N429 1.356 . S
N432 C424 1.356 . S
N432 H438 0.984 . S
N432 H439 0.984 . S
N433 C426 1.356 . S
N433 H436 0.984 . S
N433 H437 0.985 . S
H434 N429 0.984 . S
H435 N429 0.985 . S
H436 N433 0.984 . S
H437 N433 0.985 . S
H438 N432 0.984 . S
H439 N432 0.984 . S
H440 N428 0.984 . S
H441 N428 0.985 . S
C442 C443 1.363 . S
C442 C448 1.379 . S
C442 N450 1.356 . S
C443 C442 1.363 . S
C443 C449 1.363 . S
C444 C445 1.363 . S
C444 C449 1.379 . S
C444 N451 1.356 . S
C445 C444 1.363 . S
C445 C448 1.363 . S
N446 C448 1.356 . S
N446 H458 0.984 . S
N446 H459 0.985 . S
N447 C449 1.356 . S
N447 H452 0.984 . S
N447 H453 0.985 . S
C448 C442 1.379 . S
C448 C445 1.363 . S
C448 N446 1.356 . S
C449 C443 1.363 . S
C449 C444 1.379 . S
C449 N447 1.356 . S
N450 C442 1.356 . S
N450 H456 0.984 . S
N450 H457 0.984 . S
N451 C444 1.356 . S
N451 H454 0.984 . S
N451 H455 0.985 . S
H452 N447 0.984 . S
H453 N447 0.985 . S
H454 N451 0.984 . S
H455 N451 0.985 . S
H456 N450 0.984 . S
H457 N450 0.984 . S
H458 N446 0.984 . S
H459 N446 0.985 . S
C460 C461 1.363 . S
C460 C466 1.379 . S
C460 N468 1.356 . S
C461 C460 1.363 . S
C461 C467 1.363 . S
C462 C463 1.363 . S
C462 C467 1.379 . S
C462 N469 1.356 . S
C463 C462 1.363 . S
C463 C466 1.363 . S
N464 C466 1.356 . S
N464 H476 0.984 . S
N464 H477 0.985 . S
N465 C467 1.356 . S
N465 H470 0.984 . S
N465 H471 0.985 . S
C466 C460 1.379 . S
C466 C463 1.363 . S
C466 N464 1.356 . S
C467 C461 1.363 . S
C467 C462 1.379 . S
C467 N465 1.356 . S
N468 C460 1.356 . S
N468 H474 0.984 . S
N468 H475 0.984 . S
N469 C462 1.356 . S
N469 H472 0.984 . S
N469 H473 0.985 . S
H470 N465 0.984 . S
H471 N465 0.985 . S
H472 N469 0.984 . S
H473 N469 0.985 . S
H474 N468 0.984 . S
H475 N468 0.984 . S
H476 N464 0.984 . S
H477 N464 0.985 . S
C478 C479 1.363 . S
C478 C484 1.379 . S
C478 N486 1.356 . S
C479 C478 1.363 . S
C479 C485 1.363 . S
C480 C481 1.363 . S
C480 C485 1.379 . S
C480 N487 1.356 . S
C481 C480 1.363 . S
C481 C484 1.363 . S
N482 C484 1.356 . S
N482 H494 0.984 . S
N482 H495 0.985 . S
N483 C485 1.356 . S
N483 H488 0.984 . S
N483 H489 0.985 . S
C484 C478 1.379 . S
C484 C481 1.363 . S
C484 N482 1.356 . S
C485 C479 1.363 . S
C485 C480 1.379 . S
C485 N483 1.356 . S
N486 C478 1.356 . S
N486 H492 0.984 . S
N486 H493 0.984 . S
N487 C480 1.356 . S
N487 H490 0.984 . S
N487 H491 0.985 . S
H488 N483 0.984 . S
H489 N483 0.985 . S
H490 N487 0.984 . S
H491 N487 0.985 . S
H492 N486 0.984 . S
H493 N486 0.984 . S
H494 N482 0.984 . S
H495 N482 0.985 . S
C496 C497 1.363 . S
C496 C502 1.379 . S
C496 N504 1.356 . S
C497 C496 1.363 . S
C497 C503 1.363 . S
C498 C499 1.363 . S
C498 C503 1.379 . S
C498 N505 1.356 . S
C499 C498 1.363 . S
C499 C502 1.363 . S
N500 C502 1.356 . S
N500 H512 0.984 . S
N500 H513 0.985 . S
N501 C503 1.356 . S
N501 H506 0.984 . S
N501 H507 0.985 . S
C502 C496 1.379 . S
C502 C499 1.363 . S
C502 N500 1.356 . S
C503 C497 1.363 . S
C503 C498 1.379 . S
C503 N501 1.356 . S
N504 C496 1.356 . S
N504 H510 0.984 . S
N504 H511 0.984 . S
N505 C498 1.356 . S
N505 H508 0.984 . S
N505 H509 0.985 . S
H506 N501 0.984 . S
H507 N501 0.985 . S
H508 N505 0.984 . S
H509 N505 0.985 . S
H510 N504 0.984 . S
H511 N504 0.984 . S
H512 N500 0.984 . S
H513 N500 0.985 . S
C514 C515 1.363 . S
C514 C520 1.379 . S
C514 N522 1.356 . S
C515 C514 1.363 . S
C515 C521 1.363 . S
C516 C517 1.363 . S
C516 C521 1.379 . S
C516 N523 1.356 . S
C517 C516 1.363 . S
C517 C520 1.363 . S
N518 C520 1.356 . S
N518 H530 0.984 . S
N518 H531 0.985 . S
N519 C521 1.356 . S
N519 H524 0.984 . S
N519 H525 0.985 . S
C520 C514 1.379 . S
C520 C517 1.363 . S
C520 N518 1.356 . S
C521 C515 1.363 . S
C521 C516 1.379 . S
C521 N519 1.356 . S
N522 C514 1.356 . S
N522 H528 0.984 . S
N522 H529 0.984 . S
N523 C516 1.356 . S
N523 H526 0.984 . S
N523 H527 0.985 . S
H524 N519 0.984 . S
H525 N519 0.985 . S
H526 N523 0.984 . S
H527 N523 0.985 . S
H528 N522 0.984 . S
H529 N522 0.984 . S
H530 N518 0.984 . S
H531 N518 0.985 . S
C532 C533 1.363 . S
C532 C538 1.379 . S
C532 N540 1.356 . S
C533 C532 1.363 . S
C533 C539 1.363 . S
C534 C535 1.363 . S
C534 C539 1.379 . S
C534 N541 1.356 . S
C535 C534 1.363 . S
C535 C538 1.363 . S
N536 C538 1.356 . S
N536 H548 0.984 . S
N536 H549 0.985 . S
N537 C539 1.356 . S
N537 H542 0.984 . S
N537 H543 0.985 . S
C538 C532 1.379 . S
C538 C535 1.363 . S
C538 N536 1.356 . S
C539 C533 1.363 . S
C539 C534 1.379 . S
C539 N537 1.356 . S
N540 C532 1.356 . S
N540 H546 0.984 . S
N540 H547 0.984 . S
N541 C534 1.356 . S
N541 H544 0.984 . S
N541 H545 0.985 . S
H542 N537 0.984 . S
H543 N537 0.985 . S
H544 N541 0.984 . S
H545 N541 0.985 . S
H546 N540 0.984 . S
H547 N540 0.984 . S
H548 N536 0.984 . S
H549 N536 0.985 . S
C550 C551 1.363 . S
C550 C556 1.379 . S
C550 N558 1.356 . S
C551 C550 1.363 . S
C551 C557 1.363 . S
C552 C553 1.363 . S
C552 C557 1.379 . S
C552 N559 1.356 . S
C553 C552 1.363 . S
C553 C556 1.363 . S
N554 C556 1.356 . S
N554 H566 0.984 . S
N554 H567 0.985 . S
N555 C557 1.356 . S
N555 H560 0.984 . S
N555 H561 0.985 . S
C556 C550 1.379 . S
C556 C553 1.363 . S
C556 N554 1.356 . S
C557 C551 1.363 . S
C557 C552 1.379 . S
C557 N555 1.356 . S
N558 C550 1.356 . S
N558 H564 0.984 . S
N558 H565 0.984 . S
N559 C552 1.356 . S
N559 H562 0.984 . S
N559 H563 0.985 . S
H560 N555 0.984 . S
H561 N555 0.985 . S
H562 N559 0.984 . S
H563 N559 0.985 . S
H564 N558 0.984 . S
H565 N558 0.984 . S
H566 N554 0.984 . S
H567 N554 0.985 . S
C568 C569 1.363 . S
C568 C574 1.379 . S
C568 N576 1.356 . S
C569 C568 1.363 . S
C569 C575 1.363 . S
C570 C571 1.363 . S
C570 C575 1.379 . S
C570 N577 1.356 . S
C571 C570 1.363 . S
C571 C574 1.363 . S
N572 C574 1.356 . S
N572 H584 0.984 . S
N572 H585 0.985 . S
N573 C575 1.356 . S
N573 H578 0.984 . S
N573 H579 0.985 . S
C574 C568 1.379 . S
C574 C571 1.363 . S
C574 N572 1.356 . S
C575 C569 1.363 . S
C575 C570 1.379 . S
C575 N573 1.356 . S
N576 C568 1.356 . S
N576 H582 0.984 . S
N576 H583 0.984 . S
N577 C570 1.356 . S
N577 H580 0.984 . S
N577 H581 0.985 . S
H578 N573 0.984 . S
H579 N573 0.985 . S
H580 N577 0.984 . S
H581 N577 0.985 . S
H582 N576 0.984 . S
H583 N576 0.984 . S
H584 N572 0.984 . S
H585 N572 0.985 . S
C586 C587 1.363 . S
C586 C592 1.379 . S
C586 N594 1.356 . S
C587 C586 1.363 . S
C587 C593 1.363 . S
C588 C589 1.363 . S
C588 C593 1.379 . S
C588 N595 1.356 . S
C589 C588 1.363 . S
C589 C592 1.363 . S
N590 C592 1.356 . S
N590 H602 0.984 . S
N590 H603 0.985 . S
N591 C593 1.356 . S
N591 H596 0.984 . S
N591 H597 0.985 . S
C592 C586 1.379 . S
C592 C589 1.363 . S
C592 N590 1.356 . S
C593 C587 1.363 . S
C593 C588 1.379 . S
C593 N591 1.356 . S
N594 C586 1.356 . S
N594 H600 0.984 . S
N594 H601 0.984 . S
N595 C588 1.356 . S
N595 H598 0.984 . S
N595 H599 0.985 . S
H596 N591 0.984 . S
H597 N591 0.985 . S
H598 N595 0.984 . S
H599 N595 0.985 . S
H600 N594 0.984 . S
H601 N594 0.984 . S
H602 N590 0.984 . S
H603 N590 0.985 . S
C604 C605 1.363 . S
C604 C610 1.379 . S
C604 N612 1.356 . S
C605 C604 1.363 . S
C605 C611 1.363 . S
C606 C607 1.363 . S
C606 C611 1.379 . S
C606 N613 1.356 . S
C607 C606 1.363 . S
C607 C610 1.363 . S
N608 C610 1.356 . S
N608 H620 0.984 . S
N608 H621 0.985 . S
N609 C611 1.356 . S
N609 H614 0.984 . S
N609 H615 0.985 . S
C610 C604 1.379 . S
C610 C607 1.363 . S
C610 N608 1.356 . S
C611 C605 1.363 . S
C611 C606 1.379 . S
C611 N609 1.356 . S
N612 C604 1.356 . S
N612 H618 0.984 . S
N612 H619 0.984 . S
N613 C606 1.356 . S
N613 H616 0.984 . S
N613 H617 0.985 . S
H614 N609 0.984 . S
H615 N609 0.985 . S
H616 N613 0.984 . S
H617 N613 0.985 . S
H618 N612 0.984 . S
H619 N612 0.984 . S
H620 N608 0.984 . S
H621 N608 0.985 . S
C622 C623 1.363 . S
C622 C628 1.379 . S
C622 N630 1.356 . S
C623 C622 1.363 . S
C623 C629 1.363 . S
C624 C625 1.363 . S
C624 C629 1.379 . S
C624 N631 1.356 . S
C625 C624 1.363 . S
C625 C628 1.363 . S
N626 C628 1.356 . S
N626 H638 0.984 . S
N626 H639 0.985 . S
N627 C629 1.356 . S
N627 H632 0.984 . S
N627 H633 0.985 . S
C628 C622 1.379 . S
C628 C625 1.363 . S
C628 N626 1.356 . S
C629 C623 1.363 . S
C629 C624 1.379 . S
C629 N627 1.356 . S
N630 C622 1.356 . S
N630 H636 0.984 . S
N630 H637 0.984 . S
N631 C624 1.356 . S
N631 H634 0.984 . S
N631 H635 0.985 . S
H632 N627 0.984 . S
H633 N627 0.985 . S
H634 N631 0.984 . S
H635 N631 0.985 . S
H636 N630 0.984 . S
H637 N630 0.984 . S
H638 N626 0.984 . S
H639 N626 0.985 . S
C640 C641 1.363 . S
C640 C646 1.379 . S
C640 N648 1.356 . S
C641 C640 1.363 . S
C641 C647 1.363 . S
C642 C643 1.363 . S
C642 C647 1.379 . S
C642 N649 1.356 . S
C643 C642 1.363 . S
C643 C646 1.363 . S
N644 C646 1.356 . S
N644 H656 0.984 . S
N644 H657 0.985 . S
N645 C647 1.356 . S
N645 H650 0.984 . S
N645 H651 0.985 . S
C646 C640 1.379 . S
C646 C643 1.363 . S
C646 N644 1.356 . S
C647 C641 1.363 . S
C647 C642 1.379 . S
C647 N645 1.356 . S
N648 C640 1.356 . S
N648 H654 0.984 . S
N648 H655 0.984 . S
N649 C642 1.356 . S
N649 H652 0.984 . S
N649 H653 0.985 . S
H650 N645 0.984 . S
H651 N645 0.985 . S
H652 N649 0.984 . S
H653 N649 0.985 . S
H654 N648 0.984 . S
H655 N648 0.984 . S
H656 N644 0.984 . S
H657 N644 0.985 . S
C658 C659 1.363 . S
C658 C664 1.379 . S
C658 N666 1.356 . S
C659 C658 1.363 . S
C659 C665 1.363 . S
C660 C661 1.363 . S
C660 C665 1.379 . S
C660 N667 1.356 . S
C661 C660 1.363 . S
C661 C664 1.363 . S
N662 C664 1.356 . S
N662 H674 0.984 . S
N662 H675 0.985 . S
N663 C665 1.356 . S
N663 H668 0.984 . S
N663 H669 0.985 . S
C664 C658 1.379 . S
C664 C661 1.363 . S
C664 N662 1.356 . S
C665 C659 1.363 . S
C665 C660 1.379 . S
C665 N663 1.356 . S
N666 C658 1.356 . S
N666 H672 0.984 . S
N666 H673 0.984 . S
N667 C660 1.356 . S
N667 H670 0.984 . S
N667 H671 0.985 . S
H668 N663 0.984 . S
H669 N663 0.985 . S
H670 N667 0.984 . S
H671 N667 0.985 . S
H672 N666 0.984 . S
H673 N666 0.984 . S
H674 N662 0.984 . S
H675 N662 0.985 . S
C676 C677 1.363 . S
C676 C682 1.379 . S
C676 N684 1.356 . S
C677 C676 1.363 . S
C677 C683 1.363 . S
C678 C679 1.363 . S
C678 C683 1.379 . S
C678 N685 1.356 . S
C679 C678 1.363 . S
C679 C682 1.363 . S
N680 C682 1.356 . S
N680 H692 0.984 . S
N680 H693 0.985 . S
N681 C683 1.356 . S
N681 H686 0.984 . S
N681 H687 0.985 . S
C682 C676 1.379 . S
C682 C679 1.363 . S
C682 N680 1.356 . S
C683 C677 1.363 . S
C683 C678 1.379 . S
C683 N681 1.356 . S
N684 C676 1.356 . S
N684 H690 0.984 . S
N684 H691 0.984 . S
N685 C678 1.356 . S
N685 H688 0.984 . S
N685 H689 0.985 . S
H686 N681 0.984 . S
H687 N681 0.985 . S
H688 N685 0.984 . S
H689 N685 0.985 . S
H690 N684 0.984 . S
H691 N684 0.984 . S
H692 N680 0.984 . S
H693 N680 0.985 . S
C694 C695 1.363 . S
C694 C700 1.379 . S
C694 N702 1.356 . S
C695 C694 1.363 . S
C695 C701 1.363 . S
C696 C697 1.363 . S
C696 C701 1.379 . S
C696 N703 1.356 . S
C697 C696 1.363 . S
C697 C700 1.363 . S
N698 C700 1.356 . S
N698 H710 0.984 . S
N698 H711 0.985 . S
N699 C701 1.356 . S
N699 H704 0.984 . S
N699 H705 0.985 . S
C700 C694 1.379 . S
C700 C697 1.363 . S
C700 N698 1.356 . S
C701 C695 1.363 . S
C701 C696 1.379 . S
C701 N699 1.356 . S
N702 C694 1.356 . S
N702 H708 0.984 . S
N702 H709 0.984 . S
N703 C696 1.356 . S
N703 H706 0.984 . S
N703 H707 0.985 . S
H704 N699 0.984 . S
H705 N699 0.985 . S
H706 N703 0.984 . S
H707 N703 0.985 . S
H708 N702 0.984 . S
H709 N702 0.984 . S
H710 N698 0.984 . S
H711 N698 0.985 . S
C712 C713 1.363 . S
C712 C718 1.379 . S
C712 N720 1.356 . S
C713 C712 1.363 . S
C713 C719 1.363 . S
C714 C715 1.363 . S
C714 C719 1.379 . S
C714 N721 1.356 . S
C715 C714 1.363 . S
C715 C718 1.363 . S
N716 C718 1.356 . S
N716 H728 0.984 . S
N716 H729 0.985 . S
N717 C719 1.356 . S
N717 H722 0.984 . S
N717 H723 0.985 . S
C718 C712 1.379 . S
C718 C715 1.363 . S
C718 N716 1.356 . S
C719 C713 1.363 . S
C719 C714 1.379 . S
C719 N717 1.356 . S
N720 C712 1.356 . S
N720 H726 0.984 . S
N720 H727 0.984 . S
N721 C714 1.356 . S
N721 H724 0.984 . S
N721 H725 0.985 . S
H722 N717 0.984 . S
H723 N717 0.985 . S
H724 N721 0.984 . S
H725 N721 0.985 . S
H726 N720 0.984 . S
H727 N720 0.984 . S
H728 N716 0.984 . S
H729 N716 0.985 . S
C730 C731 1.363 . S
C730 C736 1.379 . S
C730 N738 1.356 . S
C731 C730 1.363 . S
C731 C737 1.363 . S
C732 C733 1.363 . S
C732 C737 1.379 . S
C732 N739 1.356 . S
C733 C732 1.363 . S
C733 C736 1.363 . S
N734 C736 1.356 . S
N734 H746 0.984 . S
N734 H747 0.985 . S
N735 C737 1.356 . S
N735 H740 0.984 . S
N735 H741 0.985 . S
C736 C730 1.379 . S
C736 C733 1.363 . S
C736 N734 1.356 . S
C737 C731 1.363 . S
C737 C732 1.379 . S
C737 N735 1.356 . S
N738 C730 1.356 . S
N738 H744 0.984 . S
N738 H745 0.984 . S
N739 C732 1.356 . S
N739 H742 0.984 . S
N739 H743 0.985 . S
H740 N735 0.984 . S
H741 N735 0.985 . S
H742 N739 0.984 . S
H743 N739 0.985 . S
H744 N738 0.984 . S
H745 N738 0.984 . S
H746 N734 0.984 . S
H747 N734 0.985 . S
C748 C749 1.363 . S
C748 C754 1.379 . S
C748 N756 1.356 . S
C749 C748 1.363 . S
C749 C755 1.363 . S
C750 C751 1.363 . S
C750 C755 1.379 . S
C750 N757 1.356 . S
C751 C750 1.363 . S
C751 C754 1.363 . S
N752 C754 1.356 . S
N752 H764 0.984 . S
N752 H765 0.985 . S
N753 C755 1.356 . S
N753 H758 0.984 . S
N753 H759 0.985 . S
C754 C748 1.379 . S
C754 C751 1.363 . S
C754 N752 1.356 . S
C755 C749 1.363 . S
C755 C750 1.379 . S
C755 N753 1.356 . S
N756 C748 1.356 . S
N756 H762 0.984 . S
N756 H763 0.984 . S
N757 C750 1.356 . S
N757 H760 0.984 . S
N757 H761 0.985 . S
H758 N753 0.984 . S
H759 N753 0.985 . S
H760 N757 0.984 . S
H761 N757 0.985 . S
H762 N756 0.984 . S
H763 N756 0.984 . S
H764 N752 0.984 . S
H765 N752 0.985 . S
C766 C767 1.363 . S
C766 C772 1.379 . S
C766 N774 1.356 . S
C767 C766 1.363 . S
C767 C773 1.363 . S
C768 C769 1.363 . S
C768 C773 1.379 . S
C768 N775 1.356 . S
C769 C768 1.363 . S
C769 C772 1.363 . S
N770 C772 1.356 . S
N770 H782 0.984 . S
N770 H783 0.985 . S
N771 C773 1.356 . S
N771 H776 0.984 . S
N771 H777 0.985 . S
C772 C766 1.379 . S
C772 C769 1.363 . S
C772 N770 1.356 . S
C773 C767 1.363 . S
C773 C768 1.379 . S
C773 N771 1.356 . S
N774 C766 1.356 . S
N774 H780 0.984 . S
N774 H781 0.984 . S
N775 C768 1.356 . S
N775 H778 0.984 . S
N775 H779 0.985 . S
H776 N771 0.984 . S
H777 N771 0.985 . S
H778 N775 0.984 . S
H779 N775 0.985 . S
H780 N774 0.984 . S
H781 N774 0.984 . S
H782 N770 0.984 . S
H783 N770 0.985 . S
C784 C785 1.363 . S
C784 C790 1.379 1_455 S
C784 N792 1.356 . S
C785 C784 1.363 . S
C785 C791 1.363 . S
C786 C787 1.363 . S
C786 C791 1.379 1_655 S
C786 N793 1.356 . S
C787 C786 1.363 . S
C787 C790 1.363 . S
N788 C790 1.356 . S
N788 H800 0.984 . S
N788 H801 0.985 . S
N789 C791 1.356 . S
N789 H794 0.984 . S
N789 H795 0.985 . S
C790 C784 1.379 1_655 S
C790 C787 1.363 . S
C790 N788 1.356 . S
C791 C785 1.363 . S
C791 C786 1.379 1_455 S
C791 N789 1.356 . S
N792 C784 1.356 . S
N792 H798 0.984 . S
N792 H799 0.984 . S
N793 C786 1.356 . S
N793 H796 0.984 . S
N793 H797 0.985 . S
H794 N789 0.984 . S
H795 N789 0.985 . S
H796 N793 0.984 . S
H797 N793 0.985 . S
H798 N792 0.984 . S
H799 N792 0.984 . S
H800 N788 0.984 . S
H801 N788 0.985 . S
C802 C803 1.363 . S
C802 C808 1.379 . S
C802 N810 1.356 . S
C803 C802 1.363 . S
C803 C809 1.363 . S
C804 C805 1.363 . S
C804 C809 1.379 . S
C804 N811 1.356 . S
C805 C804 1.363 . S
C805 C808 1.363 . S
N806 C808 1.356 . S
N806 H818 0.984 . S
N806 H819 0.985 . S
N807 C809 1.356 . S
N807 H812 0.984 . S
N807 H813 0.985 . S
C808 C802 1.379 . S
C808 C805 1.363 . S
C808 N806 1.356 . S
C809 C803 1.363 . S
C809 C804 1.379 . S
C809 N807 1.356 . S
N810 C802 1.356 . S
N810 H816 0.984 . S
N810 H817 0.984 . S
N811 C804 1.356 . S
N811 H814 0.984 . S
N811 H815 0.985 . S
H812 N807 0.984 . S
H813 N807 0.985 . S
H814 N811 0.984 . S
H815 N811 0.985 . S
H816 N810 0.984 . S
H817 N810 0.984 . S
H818 N806 0.984 . S
H819 N806 0.985 . S
C820 C821 1.363 . S
C820 C826 1.379 1_655 S
C820 N828 1.356 . S
C821 C820 1.363 . S
C821 C827 1.363 . S
C822 C823 1.363 . S
C822 C827 1.379 1_455 S
C822 N829 1.356 . S
C823 C822 1.363 . S
C823 C826 1.363 . S
N824 C826 1.356 . S
N824 H836 0.984 . S
N824 H837 0.985 . S
N825 C827 1.356 . S
N825 H830 0.984 . S
N825 H831 0.985 . S
C826 C820 1.379 1_455 S
C826 C823 1.363 . S
C826 N824 1.356 . S
C827 C821 1.363 . S
C827 C822 1.379 1_655 S
C827 N825 1.356 . S
N828 C820 1.356 . S
N828 H834 0.984 . S
N828 H835 0.984 . S
N829 C822 1.356 . S
N829 H832 0.984 . S
N829 H833 0.985 . S
H830 N825 0.984 . S
H831 N825 0.985 . S
H832 N829 0.984 . S
H833 N829 0.985 . S
H834 N828 0.984 . S
H835 N828 0.984 . S
H836 N824 0.984 . S
H837 N824 0.985 . S
C838 C839 1.363 . S
C838 C844 1.379 . S
C838 N846 1.356 . S
C839 C838 1.363 . S
C839 C845 1.363 . S
C840 C841 1.363 . S
C840 C845 1.379 . S
C840 N847 1.356 . S
C841 C840 1.363 . S
C841 C844 1.363 . S
N842 C844 1.356 . S
N842 H854 0.984 . S
N842 H855 0.985 . S
N843 C845 1.356 . S
N843 H848 0.984 . S
N843 H849 0.985 . S
C844 C838 1.379 . S
C844 C841 1.363 . S
C844 N842 1.356 . S
C845 C839 1.363 . S
C845 C840 1.379 . S
C845 N843 1.356 . S
N846 C838 1.356 . S
N846 H852 0.984 . S
N846 H853 0.984 . S
N847 C840 1.356 . S
N847 H850 0.984 . S
N847 H851 0.985 . S
H848 N843 0.984 . S
H849 N843 0.985 . S
H850 N847 0.984 . S
H851 N847 0.985 . S
H852 N846 0.984 . S
H853 N846 0.984 . S
H854 N842 0.984 . S
H855 N842 0.985 . S
C856 C857 1.363 . S
C856 C862 1.379 . S
C856 N864 1.356 1_554 S
C857 C856 1.363 . S
C857 C863 1.363 . S
C858 C859 1.363 . S
C858 C863 1.379 . S
C858 N865 1.356 . S
C859 C858 1.363 . S
C859 C862 1.363 . S
N860 C862 1.356 1_556 S
N860 H872 0.984 . S
N860 H873 0.985 1_556 S
N861 C863 1.356 . S
N861 H866 0.984 . S
N861 H867 0.985 . S
C862 C856 1.379 . S
C862 C859 1.363 . S
C862 N860 1.356 1_554 S
C863 C857 1.363 . S
C863 C858 1.379 . S
C863 N861 1.356 . S
N864 C856 1.356 1_556 S
N864 H870 0.984 . S
N864 H871 0.984 1_556 S
N865 C858 1.356 . S
N865 H868 0.984 . S
N865 H869 0.985 . S
H866 N861 0.984 . S
H867 N861 0.985 . S
H868 N865 0.984 . S
H869 N865 0.985 . S
H870 N864 0.984 . S
H871 N864 0.984 1_554 S
H872 N860 0.984 . S
H873 N860 0.985 1_554 S
C874 C875 1.363 . S
C874 C880 1.379 1_655 S
C874 N882 1.356 . S
C875 C874 1.363 . S
C875 C881 1.363 . S
C876 C877 1.363 . S
C876 C881 1.379 1_455 S
C876 N883 1.356 . S
C877 C876 1.363 . S
C877 C880 1.363 . S
N878 C880 1.356 . S
N878 H890 0.984 . S
N878 H891 0.985 . S
N879 C881 1.356 . S
N879 H884 0.984 . S
N879 H885 0.985 . S
C880 C874 1.379 1_455 S
C880 C877 1.363 . S
C880 N878 1.356 . S
C881 C875 1.363 . S
C881 C876 1.379 1_655 S
C881 N879 1.356 . S
N882 C874 1.356 . S
N882 H888 0.984 . S
N882 H889 0.984 . S
N883 C876 1.356 . S
N883 H886 0.984 . S
N883 H887 0.985 . S
H884 N879 0.984 . S
H885 N879 0.985 . S
H886 N883 0.984 . S
H887 N883 0.985 . S
H888 N882 0.984 . S
H889 N882 0.984 . S
H890 N878 0.984 . S
H891 N878 0.985 . S
C892 C893 1.363 . S
C892 C898 1.379 . S
C892 N900 1.356 . S
C893 C892 1.363 . S
C893 C899 1.363 . S
C894 C895 1.363 . S
C894 C899 1.379 . S
C894 N901 1.356 . S
C895 C894 1.363 . S
C895 C898 1.363 . S
N896 C898 1.356 . S
N896 H908 0.984 . S
N896 H909 0.985 . S
N897 C899 1.356 . S
N897 H902 0.984 . S
N897 H903 0.985 . S
C898 C892 1.379 . S
C898 C895 1.363 . S
C898 N896 1.356 . S
C899 C893 1.363 . S
C899 C894 1.379 . S
C899 N897 1.356 . S
N900 C892 1.356 . S
N900 H906 0.984 . S
N900 H907 0.984 . S
N901 C894 1.356 . S
N901 H904 0.984 . S
N901 H905 0.985 . S
H902 N897 0.984 . S
H903 N897 0.985 . S
H904 N901 0.984 . S
H905 N901 0.985 . S
H906 N900 0.984 . S
H907 N900 0.984 . S
H908 N896 0.984 . S
H909 N896 0.985 . S
C910 C911 1.363 . S
C910 C916 1.379 1_455 S
C910 N918 1.356 . S
C911 C910 1.363 . S
C911 C917 1.363 . S
C912 C913 1.363 . S
C912 C917 1.379 1_655 S
C912 N919 1.356 . S
C913 C912 1.363 . S
C913 C916 1.363 . S
N914 C916 1.356 . S
N914 H926 0.984 . S
N914 H927 0.985 . S
N915 C917 1.356 . S
N915 H920 0.984 . S
N915 H921 0.985 . S
C916 C910 1.379 1_655 S
C916 C913 1.363 . S
C916 N914 1.356 . S
C917 C911 1.363 . S
C917 C912 1.379 1_455 S
C917 N915 1.356 . S
N918 C910 1.356 . S
N918 H924 0.984 . S
N918 H925 0.984 . S
N919 C912 1.356 . S
N919 H922 0.984 . S
N919 H923 0.985 . S
H920 N915 0.984 . S
H921 N915 0.985 . S
H922 N919 0.984 . S
H923 N919 0.985 . S
H924 N918 0.984 . S
H925 N918 0.984 . S
H926 N914 0.984 . S
H927 N914 0.985 . S
C928 C929 1.363 . S
C928 C934 1.379 1_545 S
C928 N936 1.356 . S
C929 C928 1.363 . S
C929 C935 1.363 1_554 S
C930 C931 1.363 . S
C930 C935 1.379 1_565 S
C930 N937 1.356 . S
C931 C930 1.363 . S
C931 C934 1.363 1_556 S
N932 C934 1.356 . S
N932 H944 0.984 . S
N932 H945 0.985 . S
N933 C935 1.356 . S
N933 H938 0.984 . S
N933 H939 0.985 . S
C934 C928 1.379 1_565 S
C934 C931 1.363 1_554 S
C934 N932 1.356 . S
C935 C929 1.363 1_556 S
C935 C930 1.379 1_545 S
C935 N933 1.356 . S
N936 C928 1.356 . S
N936 H942 0.984 . S
N936 H943 0.984 . S
N937 C930 1.356 . S
N937 H940 0.984 . S
N937 H941 0.985 . S
H938 N933 0.984 . S
H939 N933 0.985 . S
H940 N937 0.984 . S
H941 N937 0.985 . S
H942 N936 0.984 . S
H943 N936 0.984 . S
H944 N932 0.984 . S
H945 N932 0.985 . S
C946 C947 1.363 . S
C946 C952 1.379 1_565 S
C946 N954 1.356 . S
C947 C946 1.363 . S
C947 C953 1.363 . S
C948 C949 1.363 . S
C948 C953 1.379 1_545 S
C948 N955 1.356 . S
C949 C948 1.363 . S
C949 C952 1.363 . S
N950 C952 1.356 . S
N950 H962 0.984 . S
N950 H963 0.985 . S
N951 C953 1.356 . S
N951 H956 0.984 . S
N951 H957 0.985 . S
C952 C946 1.379 1_545 S
C952 C949 1.363 . S
C952 N950 1.356 . S
C953 C947 1.363 . S
C953 C948 1.379 1_565 S
C953 N951 1.356 . S
N954 C946 1.356 . S
N954 H960 0.984 . S
N954 H961 0.984 . S
N955 C948 1.356 . S
N955 H958 0.984 . S
N955 H959 0.985 . S
H956 N951 0.984 . S
H957 N951 0.985 . S
H958 N955 0.984 . S
H959 N955 0.985 . S
H960 N954 0.984 . S
H961 N954 0.984 . S
H962 N950 0.984 . S
H963 N950 0.985 . S
C964 C965 1.363 1_556 S
C964 C970 1.379 1_545 S
C964 N972 1.356 . S
C965 C964 1.363 1_554 S
C965 C971 1.363 . S
C966 C967 1.363 1_554 S
C966 C971 1.379 1_565 S
C966 N973 1.356 . S
C967 C966 1.363 1_556 S
C967 C970 1.363 . S
N968 C970 1.356 . S
N968 H980 0.984 . S
N968 H981 0.985 . S
N969 C971 1.356 . S
N969 H974 0.984 . S
N969 H975 0.985 . S
C970 C964 1.379 1_565 S
C970 C967 1.363 . S
C970 N968 1.356 . S
C971 C965 1.363 . S
C971 C966 1.379 1_545 S
C971 N969 1.356 . S
N972 C964 1.356 . S
N972 H978 0.984 . S
N972 H979 0.984 1_556 S
N973 C966 1.356 . S
N973 H976 0.984 1_554 S
N973 H977 0.985 . S
H974 N969 0.984 . S
H975 N969 0.985 . S
H976 N973 0.984 1_556 S
H977 N973 0.985 . S
H978 N972 0.984 . S
H979 N972 0.984 1_554 S
H980 N968 0.984 . S
H981 N968 0.985 . S
C982 C983 1.363 . S
C982 C988 1.379 1_545 S
C982 N990 1.356 . S
C983 C982 1.363 . S
C983 C989 1.363 . S
C984 C985 1.363 . S
C984 C989 1.379 1_565 S
C984 N991 1.356 . S
C985 C984 1.363 . S
C985 C988 1.363 . S
N986 C988 1.356 . S
N986 H998 0.984 . S
N986 H999 0.985 . S
N987 C989 1.356 . S
N987 H992 0.984 . S
N987 H993 0.985 . S
C988 C982 1.379 1_565 S
C988 C985 1.363 . S
C988 N986 1.356 . S
C989 C983 1.363 . S
C989 C984 1.379 1_545 S
C989 N987 1.356 . S
N990 C982 1.356 . S
N990 H996 0.984 . S
N990 H997 0.984 . S
N991 C984 1.356 . S
N991 H994 0.984 . S
N991 H995 0.985 . S
H992 N987 0.984 . S
H993 N987 0.985 . S
H994 N991 0.984 . S
H995 N991 0.985 . S
H996 N990 0.984 . S
H997 N990 0.984 . S
H998 N986 0.984 . S
H999 N986 0.985 . S
C1000 C1001 1.363 . S
C1000 C1006 1.379 . S
C1000 N1008 1.356 . S
C1001 C1000 1.363 . S
C1001 C1007 1.363 1_554 S
C1002 C1003 1.363 . S
C1002 C1007 1.379 . S
C1002 N1009 1.356 . S
C1003 C1002 1.363 . S
C1003 C1006 1.363 1_556 S
N1004 C1006 1.356 . S
N1004 H1016 0.984 . S
N1004 H1017 0.985 . S
N1005 C1007 1.356 . S
N1005 H1010 0.984 . S
N1005 H1011 0.985 . S
C1006 C1000 1.379 . S
C1006 C1003 1.363 1_554 S
C1006 N1004 1.356 . S
C1007 C1001 1.363 1_556 S
C1007 C1002 1.379 . S
C1007 N1005 1.356 . S
N1008 C1000 1.356 . S
N1008 H1014 0.984 . S
N1008 H1015 0.984 . S
N1009 C1002 1.356 . S
N1009 H1012 0.984 . S
N1009 H1013 0.985 . S
H1010 N1005 0.984 . S
H1011 N1005 0.985 . S
H1012 N1009 0.984 . S
H1013 N1009 0.985 . S
H1014 N1008 0.984 . S
H1015 N1008 0.984 . S
H1016 N1004 0.984 . S
H1017 N1004 0.985 . S
C1018 C1019 1.363 . S
C1018 C1024 1.379 . S
C1018 N1026 1.356 . S
C1019 C1018 1.363 . S
C1019 C1025 1.363 . S
C1020 C1021 1.363 . S
C1020 C1025 1.379 . S
C1020 N1027 1.356 . S
C1021 C1020 1.363 . S
C1021 C1024 1.363 . S
N1022 C1024 1.356 . S
N1022 H1034 0.984 . S
N1022 H1035 0.985 . S
N1023 C1025 1.356 . S
N1023 H1028 0.984 . S
N1023 H1029 0.985 . S
C1024 C1018 1.379 . S
C1024 C1021 1.363 . S
C1024 N1022 1.356 . S
C1025 C1019 1.363 . S
C1025 C1020 1.379 . S
C1025 N1023 1.356 . S
N1026 C1018 1.356 . S
N1026 H1032 0.984 . S
N1026 H1033 0.984 . S
N1027 C1020 1.356 . S
N1027 H1030 0.984 . S
N1027 H1031 0.985 . S
H1028 N1023 0.984 . S
H1029 N1023 0.985 . S
H1030 N1027 0.984 . S
H1031 N1027 0.985 . S
H1032 N1026 0.984 . S
H1033 N1026 0.984 . S
H1034 N1022 0.984 . S
H1035 N1022 0.985 . S
C1036 C1037 1.363 . S
C1036 C1042 1.379 . S
C1036 N1044 1.356 . S
C1037 C1036 1.363 . S
C1037 C1043 1.363 1_556 S
C1038 C1039 1.363 . S
C1038 C1043 1.379 . S
C1038 N1045 1.356 . S
C1039 C1038 1.363 . S
C1039 C1042 1.363 1_554 S
N1040 C1042 1.356 . S
N1040 H1052 0.984 . S
N1040 H1053 0.985 . S
N1041 C1043 1.356 . S
N1041 H1046 0.984 . S
N1041 H1047 0.985 . S
C1042 C1036 1.379 . S
C1042 C1039 1.363 1_556 S
C1042 N1040 1.356 . S
C1043 C1037 1.363 1_554 S
C1043 C1038 1.379 . S
C1043 N1041 1.356 . S
N1044 C1036 1.356 . S
N1044 H1050 0.984 . S
N1044 H1051 0.984 . S
N1045 C1038 1.356 . S
N1045 H1048 0.984 . S
N1045 H1049 0.985 . S
H1046 N1041 0.984 . S
H1047 N1041 0.985 . S
H1048 N1045 0.984 . S
H1049 N1045 0.985 . S
H1050 N1044 0.984 . S
H1051 N1044 0.984 . S
H1052 N1040 0.984 . S
H1053 N1040 0.985 . S
C1054 C1055 1.363 . S
C1054 C1060 1.379 . S
C1054 N1062 1.356 . S
C1055 C1054 1.363 . S
C1055 C1061 1.363 . S
C1056 C1057 1.363 . S
C1056 C1061 1.379 . S
C1056 N1063 1.356 . S
C1057 C1056 1.363 . S
C1057 C1060 1.363 . S
N1058 C1060 1.356 . S
N1058 H1070 0.984 . S
N1058 H1071 0.985 . S
N1059 C1061 1.356 . S
N1059 H1064 0.984 . S
N1059 H1065 0.985 . S
C1060 C1054 1.379 . S
C1060 C1057 1.363 . S
C1060 N1058 1.356 . S
C1061 C1055 1.363 . S
C1061 C1056 1.379 . S
C1061 N1059 1.356 . S
N1062 C1054 1.356 . S
N1062 H1068 0.984 . S
N1062 H1069 0.984 . S
N1063 C1056 1.356 . S
N1063 H1066 0.984 . S
N1063 H1067 0.985 . S
H1064 N1059 0.984 . S
H1065 N1059 0.985 . S
H1066 N1063 0.984 . S
H1067 N1063 0.985 . S
H1068 N1062 0.984 . S
H1069 N1062 0.984 . S
H1070 N1058 0.984 . S
H1071 N1058 0.985 . S
C1072 C1073 1.363 . S
C1072 C1078 1.379 . S
C1072 N1080 1.356 . S
C1073 C1072 1.363 . S
C1073 C1079 1.363 1_554 S
C1074 C1075 1.363 . S
C1074 C1079 1.379 . S
C1074 N1081 1.356 . S
C1075 C1074 1.363 . S
C1075 C1078 1.363 1_556 S
N1076 C1078 1.356 . S
N1076 H1088 0.984 . S
N1076 H1089 0.985 . S
N1077 C1079 1.356 . S
N1077 H1082 0.984 . S
N1077 H1083 0.985 . S
C1078 C1072 1.379 . S
C1078 C1075 1.363 1_554 S
C1078 N1076 1.356 . S
C1079 C1073 1.363 1_556 S
C1079 C1074 1.379 . S
C1079 N1077 1.356 . S
N1080 C1072 1.356 . S
N1080 H1086 0.984 . S
N1080 H1087 0.984 . S
N1081 C1074 1.356 . S
N1081 H1084 0.984 . S
N1081 H1085 0.985 . S
H1082 N1077 0.984 . S
H1083 N1077 0.985 . S
H1084 N1081 0.984 . S
H1085 N1081 0.985 . S
H1086 N1080 0.984 . S
H1087 N1080 0.984 . S
H1088 N1076 0.984 . S
H1089 N1076 0.985 . S
C1090 C1091 1.363 . S
C1090 C1096 1.379 . S
C1090 N1098 1.356 . S
C1091 C1090 1.363 . S
C1091 C1097 1.363 . S
C1092 C1093 1.363 . S
C1092 C1097 1.379 . S
C1092 N1099 1.356 . S
C1093 C1092 1.363 . S
C1093 C1096 1.363 . S
N1094 C1096 1.356 . S
N1094 H1106 0.984 . S
N1094 H1107 0.985 . S
N1095 C1097 1.356 . S
N1095 H1100 0.984 . S
N1095 H1101 0.985 . S
C1096 C1090 1.379 . S
C1096 C1093 1.363 . S
C1096 N1094 1.356 . S
C1097 C1091 1.363 . S
C1097 C1092 1.379 . S
C1097 N1095 1.356 . S
N1098 C1090 1.356 . S
N1098 H1104 0.984 . S
N1098 H1105 0.984 . S
N1099 C1092 1.356 . S
N1099 H1102 0.984 . S
N1099 H1103 0.985 . S
H1100 N1095 0.984 . S
H1101 N1095 0.985 . S
H1102 N1099 0.984 . S
H1103 N1099 0.985 . S
H1104 N1098 0.984 . S
H1105 N1098 0.984 . S
H1106 N1094 0.984 . S
H1107 N1094 0.985 . S
C1108 C1109 1.363 1_554 S
C1108 C1114 1.379 . S
C1108 N1116 1.356 . S
C1109 C1108 1.363 1_556 S
C1109 C1115 1.363 . S
C1110 C1111 1.363 1_556 S
C1110 C1115 1.379 . S
C1110 N1117 1.356 . S
C1111 C1110 1.363 1_554 S
C1111 C1114 1.363 . S
N1112 C1114 1.356 . S
N1112 H1124 0.984 . S
N1112 H1125 0.985 . S
N1113 C1115 1.356 . S
N1113 H1118 0.984 . S
N1113 H1119 0.985 . S
C1114 C1108 1.379 . S
C1114 C1111 1.363 . S
C1114 N1112 1.356 . S
C1115 C1109 1.363 . S
C1115 C1110 1.379 . S
C1115 N1113 1.356 . S
N1116 C1108 1.356 . S
N1116 H1122 0.984 . S
N1116 H1123 0.984 1_554 S
N1117 C1110 1.356 . S
N1117 H1120 0.984 1_556 S
N1117 H1121 0.985 . S
H1118 N1113 0.984 . S
H1119 N1113 0.985 . S
H1120 N1117 0.984 1_554 S
H1121 N1117 0.985 . S
H1122 N1116 0.984 . S
H1123 N1116 0.984 1_556 S
H1124 N1112 0.984 . S
H1125 N1112 0.985 . S
C1126 C1127 1.363 . S
C1126 C1132 1.379 . S
C1126 N1134 1.356 . S
C1127 C1126 1.363 . S
C1127 C1133 1.363 . S
C1128 C1129 1.363 . S
C1128 C1133 1.379 . S
C1128 N1135 1.356 . S
C1129 C1128 1.363 . S
C1129 C1132 1.363 . S
N1130 C1132 1.356 . S
N1130 H1142 0.984 . S
N1130 H1143 0.985 . S
N1131 C1133 1.356 . S
N1131 H1136 0.984 . S
N1131 H1137 0.985 . S
C1132 C1126 1.379 . S
C1132 C1129 1.363 . S
C1132 N1130 1.356 . S
C1133 C1127 1.363 . S
C1133 C1128 1.379 . S
C1133 N1131 1.356 . S
N1134 C1126 1.356 . S
N1134 H1140 0.984 . S
N1134 H1141 0.984 . S
N1135 C1128 1.356 . S
N1135 H1138 0.984 . S
N1135 H1139 0.985 . S
H1136 N1131 0.984 . S
H1137 N1131 0.985 . S
H1138 N1135 0.984 . S
H1139 N1135 0.985 . S
H1140 N1134 0.984 . S
H1141 N1134 0.984 . S
H1142 N1130 0.984 . S
H1143 N1130 0.985 . S
C1144 C1145 1.363 1_554 S
C1144 C1150 1.379 . S
C1144 N1152 1.356 . S
C1145 C1144 1.363 1_556 S
C1145 C1151 1.363 . S
C1146 C1147 1.363 1_556 S
C1146 C1151 1.379 . S
C1146 N1153 1.356 . S
C1147 C1146 1.363 1_554 S
C1147 C1150 1.363 . S
N1148 C1150 1.356 . S
N1148 H1160 0.984 . S
N1148 H1161 0.985 . S
N1149 C1151 1.356 . S
N1149 H1154 0.984 . S
N1149 H1155 0.985 . S
C1150 C1144 1.379 . S
C1150 C1147 1.363 . S
C1150 N1148 1.356 . S
C1151 C1145 1.363 . S
C1151 C1146 1.379 . S
C1151 N1149 1.356 . S
N1152 C1144 1.356 . S
N1152 H1158 0.984 . S
N1152 H1159 0.984 1_554 S
N1153 C1146 1.356 . S
N1153 H1156 0.984 1_556 S
N1153 H1157 0.985 . S
H1154 N1149 0.984 . S
H1155 N1149 0.985 . S
H1156 N1153 0.984 1_554 S
H1157 N1153 0.985 . S
H1158 N1152 0.984 . S
H1159 N1152 0.984 1_556 S
H1160 N1148 0.984 . S
H1161 N1148 0.985 . S
C1162 C1163 1.363 . S
C1162 C1168 1.379 . S
C1162 N1170 1.356 . S
C1163 C1162 1.363 . S
C1163 C1169 1.363 . S
C1164 C1165 1.363 . S
C1164 C1169 1.379 . S
C1164 N1171 1.356 . S
C1165 C1164 1.363 . S
C1165 C1168 1.363 . S
N1166 C1168 1.356 . S
N1166 H1178 0.984 . S
N1166 H1179 0.985 . S
N1167 C1169 1.356 . S
N1167 H1172 0.984 . S
N1167 H1173 0.985 . S
C1168 C1162 1.379 . S
C1168 C1165 1.363 . S
C1168 N1166 1.356 . S
C1169 C1163 1.363 . S
C1169 C1164 1.379 . S
C1169 N1167 1.356 . S
N1170 C1162 1.356 . S
N1170 H1176 0.984 . S
N1170 H1177 0.984 . S
N1171 C1164 1.356 . S
N1171 H1174 0.984 . S
N1171 H1175 0.985 . S
H1172 N1167 0.984 . S
H1173 N1167 0.985 . S
H1174 N1171 0.984 . S
H1175 N1171 0.985 . S
H1176 N1170 0.984 . S
H1177 N1170 0.984 . S
H1178 N1166 0.984 . S
H1179 N1166 0.985 . S
C1180 C1181 1.363 1_554 S
C1180 C1186 1.379 . S
C1180 N1188 1.356 . S
C1181 C1180 1.363 1_556 S
C1181 C1187 1.363 . S
C1182 C1183 1.363 1_556 S
C1182 C1187 1.379 . S
C1182 N1189 1.356 . S
C1183 C1182 1.363 1_554 S
C1183 C1186 1.363 . S
N1184 C1186 1.356 . S
N1184 H1196 0.984 . S
N1184 H1197 0.985 . S
N1185 C1187 1.356 . S
N1185 H1190 0.984 . S
N1185 H1191 0.985 . S
C1186 C1180 1.379 . S
C1186 C1183 1.363 . S
C1186 N1184 1.356 . S
C1187 C1181 1.363 . S
C1187 C1182 1.379 . S
C1187 N1185 1.356 . S
N1188 C1180 1.356 . S
N1188 H1194 0.984 . S
N1188 H1195 0.984 1_554 S
N1189 C1182 1.356 . S
N1189 H1192 0.984 1_556 S
N1189 H1193 0.985 . S
H1190 N1185 0.984 . S
H1191 N1185 0.985 . S
H1192 N1189 0.984 1_554 S
H1193 N1189 0.985 . S
H1194 N1188 0.984 . S
H1195 N1188 0.984 1_556 S
H1196 N1184 0.984 . S
H1197 N1184 0.985 . S
C1198 C1199 1.363 . S
C1198 C1204 1.379 . S
C1198 N1206 1.356 . S
C1199 C1198 1.363 . S
C1199 C1205 1.363 . S
C1200 C1201 1.363 . S
C1200 C1205 1.379 . S
C1200 N1207 1.356 . S
C1201 C1200 1.363 . S
C1201 C1204 1.363 . S
N1202 C1204 1.356 . S
N1202 H1214 0.984 . S
N1202 H1215 0.985 . S
N1203 C1205 1.356 . S
N1203 H1208 0.984 . S
N1203 H1209 0.985 . S
C1204 C1198 1.379 . S
C1204 C1201 1.363 . S
C1204 N1202 1.356 . S
C1205 C1199 1.363 . S
C1205 C1200 1.379 . S
C1205 N1203 1.356 . S
N1206 C1198 1.356 . S
N1206 H1212 0.984 . S
N1206 H1213 0.984 . S
N1207 C1200 1.356 . S
N1207 H1210 0.984 . S
N1207 H1211 0.985 . S
H1208 N1203 0.984 . S
H1209 N1203 0.985 . S
H1210 N1207 0.984 . S
H1211 N1207 0.985 . S
H1212 N1206 0.984 . S
H1213 N1206 0.984 . S
H1214 N1202 0.984 . S
H1215 N1202 0.985 . S
C353 C15 1.517 . S
C355 C73 1.517 . S
C371 C59 1.517 . S
C373 C29 1.517 . S
C389 C169 1.528 . S
C391 C109 1.528 . S
C407 C117 1.528 . S
C409 C153 1.528 . S
C425 C257 1.517 . S
C427 C191 1.517 . S
C443 C235 1.517 . S
C445 C205 1.517 . S
C461 C285 1.528 . S
C463 C345 1.528 . S
C479 C323 1.528 . S
C481 C293 1.528 . S
C497 C8 1.555 . S
C499 C351 1.628 . S
C515 C32 1.555 . S
C517 C329 1.628 . S
C533 C301 1.628 . S
C535 C52 1.555 . S
C551 C271 1.628 . S
C553 C76 1.555 . S
C569 C98 1.569 . S
C571 C249 1.629 . S
C587 C118 1.569 . S
C589 C227 1.629 . S
C605 C219 1.629 . S
C607 C142 1.569 . S
C623 C183 1.629 . S
C625 C172 1.569 . S
C641 C184 1.555 . S
C643 C175 1.628 . S
C659 C208 1.555 . S
C661 C139 1.628 . S
C677 C228 1.555 . S
C679 C125 1.628 . S
C695 C250 1.555 . S
C697 C95 1.628 . S
C713 C87 1.629 . S
C715 C274 1.569 . S
C731 C51 1.629 . S
C733 C294 1.569 . S
C749 C326 1.569 . S
C751 C43 1.629 . S
C767 C348 1.569 . S
C769 C7 1.629 . S
C785 C18 1.457 . S
C787 C150 1.457 . S
C803 C30 1.457 . S
C805 C162 1.457 . S
C821 C106 1.457 . S
C823 C62 1.457 . S
C839 C74 1.457 . S
C841 C120 1.457 . S
C857 C194 1.457 . S
C859 C316 1.457 . S
C875 C206 1.457 . S
C877 C338 1.457 . S
C893 C238 1.457 . S
C895 C282 1.457 . S
C911 C296 1.457 . S
C913 C260 1.457 . S
C929 C10 1.531 . S
C931 C54 1.531 . S
C947 C40 1.531 . S
C949 C84 1.531 . S
C965 C140 1.532 . S
C967 C96 1.532 . S
C983 C128 1.532 . S
C985 C164 1.532 . S
C1001 C186 1.531 . S
C1003 C230 1.531 . S
C1019 C252 1.531 . S
C1021 C216 1.531 . S
C1037 C272 1.532 . S
C1039 C318 1.532 . S
C1055 C304 1.532 . S
C1057 C340 1.532 . S
C1073 C21 1.142 . S
C1075 C279 1.155 . S
C1091 C37 1.142 . S
C1093 C307 1.155 . S
C1109 C65 1.142 . S
C1111 C315 1.155 . S
C1127 C81 1.142 . S
C1129 C337 1.155 . S
C1145 C103 1.155 . S
C1147 C197 1.142 . S
C1163 C213 1.142 . S
C1165 C131 1.155 . S
C1181 C241 1.142 . S
C1183 C147 1.155 . S
C1199 C263 1.142 . S
C1201 C161 1.155 . S
