# Generated by pormake.
# Topology wjq, (5)-cn, num edge types: 1
# Building blocks:
#     Node 0, Type 0, BuildingBlock: XOMCOT_clean_sbu_1, # of connection points: 5
#     Node 1, Type 0, BuildingBlock: XOMCOT_clean_sbu_1, # of connection points: 5
#     Node 2, Type 0, BuildingBlock: XOMCOT_clean_sbu_1, # of connection points: 5
#     Node 3, Type 0, BuildingBlock: XOMCOT_clean_sbu_1, # of connection points: 5
#     Node 4, Type 0, BuildingBlock: XOMCOT_clean_sbu_1, # of connection points: 5
#     Node 5, Type 0, BuildingBlock: XOMCOT_clean_sbu_1, # of connection points: 5
#     Node 6, Type 0, BuildingBlock: XOMCOT_clean_sbu_1, # of connection points: 5
#     Node 7, Type 0, BuildingBlock: XOMCOT_clean_sbu_1, # of connection points: 5
#     Node 8, Type 0, BuildingBlock: XOMCOT_clean_sbu_1, # of connection points: 5
#     Node 9, Type 0, BuildingBlock: XOMCOT_clean_sbu_1, # of connection points: 5
#     Node 10, Type 0, BuildingBlock: XOMCOT_clean_sbu_1, # of connection points: 5
#     Node 11, Type 0, BuildingBlock: XOMCOT_clean_sbu_1, # of connection points: 5
#     Edge 12, Type (0, 0), BuildingBlock: KIFKEQ_clean_linker_1, # of connection points: 2
#     Edge 13, Type (0, 0), BuildingBlock: KIFKEQ_clean_linker_1, # of connection points: 2
#     Edge 14, Type (0, 0), BuildingBlock: KIFKEQ_clean_linker_1, # of connection points: 2
#     Edge 15, Type (0, 0), BuildingBlock: KIFKEQ_clean_linker_1, # of connection points: 2
#     Edge 16, Type (0, 0), BuildingBlock: KIFKEQ_clean_linker_1, # of connection points: 2
#     Edge 17, Type (0, 0), BuildingBlock: KIFKEQ_clean_linker_1, # of connection points: 2
#     Edge 18, Type (0, 0), BuildingBlock: KIFKEQ_clean_linker_1, # of connection points: 2
#     Edge 19, Type (0, 0), BuildingBlock: KIFKEQ_clean_linker_1, # of connection points: 2
#     Edge 20, Type (0, 0), BuildingBlock: KIFKEQ_clean_linker_1, # of connection points: 2
#     Edge 21, Type (0, 0), BuildingBlock: KIFKEQ_clean_linker_1, # of connection points: 2
#     Edge 22, Type (0, 0), BuildingBlock: KIFKEQ_clean_linker_1, # of connection points: 2
#     Edge 23, Type (0, 0), BuildingBlock: KIFKEQ_clean_linker_1, # of connection points: 2
#     Edge 24, Type (0, 0), BuildingBlock: KIFKEQ_clean_linker_1, # of connection points: 2
#     Edge 25, Type (0, 0), BuildingBlock: KIFKEQ_clean_linker_1, # of connection points: 2
#     Edge 26, Type (0, 0), BuildingBlock: KIFKEQ_clean_linker_1, # of connection points: 2
#     Edge 27, Type (0, 0), BuildingBlock: KIFKEQ_clean_linker_1, # of connection points: 2
#     Edge 28, Type (0, 0), BuildingBlock: KIFKEQ_clean_linker_1, # of connection points: 2
#     Edge 29, Type (0, 0), BuildingBlock: KIFKEQ_clean_linker_1, # of connection points: 2
#     Edge 30, Type (0, 0), BuildingBlock: KIFKEQ_clean_linker_1, # of connection points: 2
#     Edge 31, Type (0, 0), BuildingBlock: KIFKEQ_clean_linker_1, # of connection points: 2
#     Edge 32, Type (0, 0), BuildingBlock: KIFKEQ_clean_linker_1, # of connection points: 2
#     Edge 33, Type (0, 0), BuildingBlock: KIFKEQ_clean_linker_1, # of connection points: 2
#     Edge 34, Type (0, 0), BuildingBlock: KIFKEQ_clean_linker_1, # of connection points: 2
#     Edge 35, Type (0, 0), BuildingBlock: KIFKEQ_clean_linker_1, # of connection points: 2
#     Edge 36, Type (0, 0), BuildingBlock: KIFKEQ_clean_linker_1, # of connection points: 2
#     Edge 37, Type (0, 0), BuildingBlock: KIFKEQ_clean_linker_1, # of connection points: 2
#     Edge 38, Type (0, 0), BuildingBlock: KIFKEQ_clean_linker_1, # of connection points: 2
#     Edge 39, Type (0, 0), BuildingBlock: KIFKEQ_clean_linker_1, # of connection points: 2
#     Edge 40, Type (0, 0), BuildingBlock: KIFKEQ_clean_linker_1, # of connection points: 2
#     Edge 41, Type (0, 0), BuildingBlock: KIFKEQ_clean_linker_1, # of connection points: 2
# Relax obj value: 0.553
# Max RMSD: 0.290
# Mean RMSD: 0.290
data_MOF--net-wjq--node1-XOMCOT_clean_sbu_1--edge1-KIFKEQ_clean_linker_1
_symmetry_space_group_name_H-M    P1
_symmetry_Int_Tables_number       1
_symmetry_cell_setting            triclinic
loop_
_symmetry_equiv_pos_as_xyz
'x, y, z'
_cell_length_a     27.818919
_cell_length_b     27.872176
_cell_length_c     92.103132
_cell_angle_alpha  90.063656
_cell_angle_beta   89.936624
_cell_angle_gamma 120.02654
loop_
_atom_site_label
_atom_site_type_symbol
_atom_site_fract_x
_atom_site_fract_y
_atom_site_fract_z
_atom_type_partial_charge
C0 C 0.36015 0.25232 0.02655 0.0
C1 C 0.33227 0.25692 0.01485 0.0
N2 N 0.28166 0.24649 0.01925 0.0
N3 N 0.32769 0.23874 0.03844 0.0
C4 C 0.28 0.2355 0.03367 0.0
H5 H 0.40135 0.25752 0.02634 0.0
Co6 Co 0.34997 0.22552 0.05659 0.0
C7 C 0.24691 0.13844 0.07029 0.0
O8 O 0.27555 0.11575 0.07499 0.0
N9 N 0.37368 0.21373 0.07491 0.0
C10 C 0.41598 0.19727 0.09312 0.0
C11 C 0.41213 0.19945 0.07835 0.0
C12 C 0.35615 0.22159 0.08798 0.0
N13 N 0.38072 0.21117 0.09924 0.0
O14 O 0.36042 0.29426 0.06384 0.0
H15 H 0.43689 0.19117 0.07092 0.0
H16 H 0.32572 0.23468 0.08913 0.0
O17 O 0.27152 0.18357 0.06295 0.0
C18 C 0.41076 0.32748 0.06021 0.0
O19 O 0.43705 0.30804 0.05251 0.0
N20 N 0.34752 0.16286 0.04866 0.0
C21 C 0.36259 0.08536 0.03332 0.0
C22 C 0.30891 0.07624 0.03611 0.0
C23 C 0.30226 0.1161 0.04359 0.0
C24 C 0.3996 0.17342 0.04532 0.0
C25 C 0.40823 0.13443 0.03826 0.0
H26 H 0.26117 0.11071 0.04442 0.0
H27 H 0.43501 0.21339 0.04784 0.0
H28 H 0.24484 0.22523 0.04064 0.0
H29 H 0.34796 0.26586 0.00386 0.0
H30 H 0.44229 0.18529 0.09884 0.0
H31 H 0.27246 0.04055 0.03171 0.0
H32 H 0.45038 0.14403 0.03608 0.0
C33 C 0.1577 0.32224 0.36036 0.0
C34 C 0.12554 0.29378 0.34862 0.0
N35 N 0.07482 0.2559 0.35346 0.0
N36 N 0.12787 0.30185 0.37265 0.0
C37 C 0.07716 0.26187 0.36808 0.0
H38 H 0.20022 0.35592 0.35999 0.0
Co39 Co 0.15396 0.32863 0.39145 0.0
C40 C 0.13161 0.22602 0.40658 0.0
O41 O 0.18185 0.25384 0.4121 0.0
N42 N 0.1788 0.35804 0.41013 0.0
C43 C 0.21482 0.42307 0.42726 0.0
C44 C 0.2117 0.41282 0.41264 0.0
C45 C 0.1593 0.33658 0.42346 0.0
N46 N 0.18174 0.37493 0.4341 0.0
O47 O 0.0932 0.34057 0.39465 0.0
H48 H 0.22956 0.44424 0.40431 0.0
H49 H 0.12612 0.2947 0.4253 0.0
O50 O 0.11304 0.25157 0.39886 0.0
C51 C 0.10675 0.38725 0.38888 0.0
O52 O 0.15105 0.41066 0.38055 0.0
N53 N 0.21785 0.32249 0.38778 0.0
C54 C 0.31233 0.32532 0.37645 0.0
C55 C 0.26053 0.2764 0.37599 0.0
C56 C 0.2138 0.27603 0.38156 0.0
C57 C 0.26851 0.36943 0.38891 0.0
C58 C 0.31637 0.37127 0.3837 0.0
H59 H 0.17369 0.23969 0.37975 0.0
H60 H 0.27221 0.40754 0.39262 0.0
H61 H 0.04271 0.23766 0.37533 0.0
H62 H 0.13807 0.30133 0.33733 0.0
H63 H 0.23841 0.46329 0.43235 0.0
H64 H 0.25481 0.2403 0.37008 0.0
H65 H 0.35537 0.41005 0.38416 0.0
C66 C 0.71073 0.05991 0.70443 0.0
C67 C 0.69814 0.0248 0.69279 0.0
N68 N 0.73382 1.00526 0.69254 0.0
N69 N 0.75417 0.06292 0.71164 0.0
C70 C 0.76762 0.02935 0.70413 0.0
H71 H 0.69031 0.08295 0.70729 0.0
Co72 Co 0.78636 0.11034 0.72748 0.0
C73 C 0.88351 0.10107 0.73648 0.0
O74 O 0.90955 0.1548 0.73878 0.0
N75 N 0.81806 0.15872 0.74369 0.0
C76 C 0.85855 0.23001 0.75899 0.0
C77 C 0.84409 0.21461 0.7448 0.0
C78 C 0.81694 0.14149 0.75748 0.0
N79 N 0.84135 0.18392 0.767 0.0
O80 O 0.72641 0.05903 0.73968 0.0
H81 H 0.85265 0.24337 0.73605 0.0
H82 H 0.79792 0.09826 0.76045 0.0
O83 O 0.8332 0.07656 0.73181 0.0
C84 C 0.69676 0.08189 0.74142 0.0
O85 O 0.71252 0.12964 0.73504 0.0
N86 N 0.83818 0.16243 0.71497 0.0
C87 C 0.90317 0.24953 0.69645 0.0
C88 C 0.91621 0.20763 0.6991 0.0
C89 C 0.88232 0.16353 0.70821 0.0
C90 C 0.82205 0.19962 0.71134 0.0
C91 C 0.85476 0.2445 0.70247 0.0
H92 H 0.89112 0.13025 0.70952 0.0
H93 H 0.78445 0.1956 0.71593 0.0
H94 H 0.80176 0.02312 0.70704 0.0
H95 H 0.66596 0.0158 0.68489 0.0
H96 H 0.8804 0.27213 0.76301 0.0
H97 H 0.95131 0.20806 0.69387 0.0
H98 H 0.84233 0.27501 0.70045 0.0
C99 C 0.69025 0.74849 0.04044 0.0
C100 C 0.71235 0.73911 0.02812 0.0
N101 N 0.76795 0.76624 0.02948 0.0
N102 N 0.7317 0.78203 0.04948 0.0
C103 C 0.77879 0.79179 0.04254 0.0
H104 H 0.64673 0.73354 0.04248 0.0
Co105 Co 0.7191 0.81189 0.0663 0.0
C106 C 0.82718 0.90914 0.07425 0.0
O107 O 0.80026 0.9349 0.07784 0.0
N108 N 0.70499 0.84196 0.08348 0.0
C109 C 0.67559 0.88332 0.099 0.0
C110 C 0.6831 0.87572 0.08469 0.0
C111 C 0.71144 0.83092 0.09746 0.0
N112 N 0.69294 0.85475 0.10702 0.0
O113 O 0.71493 0.75146 0.07722 0.0
H114 H 0.67329 0.89483 0.07591 0.0
H115 H 0.72739 0.80415 0.1006 0.0
O116 O 0.80013 0.85927 0.06944 0.0
C117 C 0.66301 0.71952 0.07953 0.0
O118 O 0.6286 0.7365 0.07559 0.0
N119 N 0.71416 0.86328 0.05476 0.0
C120 C 0.68288 0.91899 0.03548 0.0
C121 C 0.73934 0.93626 0.03762 0.0
C122 C 0.75421 0.90704 0.04718 0.0
C123 C 0.65935 0.84466 0.05224 0.0
C124 C 0.64275 0.87278 0.04301 0.0
H125 H 0.79723 0.91803 0.0479 0.0
H126 H 0.62816 0.80785 0.05769 0.0
H127 H 0.82024 0.81906 0.0466 0.0
H128 H 0.68948 0.7149 0.01877 0.0
H129 H 0.65835 0.90781 0.1032 0.0
H130 H 0.77149 0.9701 0.03141 0.0
H131 H 0.59883 0.85765 0.04155 0.0
C132 C 0.97989 0.67401 0.37138 0.0
C133 C 0.01304 0.69596 0.35935 0.0
N134 N 0.03074 0.75073 0.35872 0.0
N135 N 0.97633 0.71438 0.37843 0.0
C136 C 1.00761 0.76073 0.37049 0.0
H137 H 0.9586 0.63096 0.37463 0.0
Co138 Co 0.93142 0.70016 0.39474 0.0
C139 C 0.94351 0.80733 0.40411 0.0
O140 O 0.89013 0.78017 0.40701 0.0
N141 N 0.88522 0.68443 0.41144 0.0
C142 C 0.8145 0.65926 0.42679 0.0
C143 C 0.82919 0.65982 0.41255 0.0
C144 C 0.9032 0.69742 0.42532 0.0
N145 N 0.86108 0.68281 0.43476 0.0
O146 O 0.98476 0.69187 0.406 0.0
H147 H 0.79992 0.64393 0.40374 0.0
H148 H 0.94651 0.71844 0.42844 0.0
O149 O 0.96676 0.78098 0.399 0.0
C150 C 0.96344 0.63985 0.40824 0.0
O151 O 0.91169 0.60671 0.4043 0.0
N152 N 0.8778 0.6997 0.38284 0.0
C153 C 0.78965 0.67688 0.36466 0.0
C154 C 0.83092 0.73193 0.36747 0.0
C155 C 0.87563 0.74253 0.37638 0.0
C156 C 0.84091 0.64629 0.37914 0.0
C157 C 0.79563 0.63375 0.37036 0.0
H158 H 0.90861 0.78477 0.37772 0.0
H159 H 0.84573 0.61302 0.38357 0.0
H160 H 1.01284 0.80081 0.37322 0.0
H161 H 0.02192 0.67262 0.35148 0.0
H162 H 0.77277 0.64234 0.43101 0.0
H163 H 0.82955 0.7664 0.36249 0.0
H164 H 0.76553 0.59079 0.36814 0.0
C165 C 0.30756 0.98499 0.70927 0.0
C166 C 0.31957 0.02166 0.69803 0.0
N167 N 0.27518 0.02793 0.69568 0.0
N168 N 0.25592 0.96818 0.71417 0.0
C169 C 0.23698 0.9948 0.70562 0.0
H170 H 0.33447 0.97065 0.71345 0.0
Co171 Co 0.22156 0.91536 0.72884 0.0
C172 C 0.12152 0.92033 0.73789 0.0
O173 O 0.096 0.86652 0.74001 0.0
N174 N 0.18752 0.86154 0.7438 0.0
C175 C 0.14869 0.78446 0.7571 0.0
C176 C 0.16378 0.80569 0.74334 0.0
C177 C 0.18611 0.87289 0.75805 0.0
N178 N 0.1629 0.82683 0.76635 0.0
O179 O 0.27789 0.96391 0.74232 0.0
H180 H 0.15822 0.7811 0.73379 0.0
H181 H 0.20339 0.91449 0.7623 0.0
O182 O 0.17207 0.94571 0.73341 0.0
C183 C 0.30836 0.94197 0.74411 0.0
O184 O 0.29494 0.89555 0.73726 0.0
N185 N 0.1739 0.86645 0.71509 0.0
C186 C 0.11727 0.78347 0.6948 0.0
C187 C 0.09752 0.8192 0.69883 0.0
C188 C 0.12712 0.86133 0.70887 0.0
C189 C 0.19603 0.83541 0.71029 0.0
C190 C 0.16781 0.79274 0.70042 0.0
H191 H 0.1128 0.88989 0.71131 0.0
H192 H 0.23499 0.84241 0.71471 0.0
H193 H 0.19599 0.98984 0.70664 0.0
H194 H 0.35769 0.04103 0.6918 0.0
H195 H 0.12928 0.74116 0.76007 0.0
H196 H 0.06025 0.81543 0.69404 0.0
H197 H 0.18512 0.76693 0.6974 0.0
C198 C 0.70424 0.66277 0.60462 0.0
C199 C 0.69228 0.68573 0.61629 0.0
N200 N 0.7293 0.74057 0.6167 0.0
N201 N 0.7486 0.70256 0.59754 0.0
C202 C 0.76319 0.74961 0.60515 0.0
H203 H 0.68285 0.61937 0.60169 0.0
Co204 Co 0.78132 0.68699 0.58185 0.0
C205 C 0.87751 0.79376 0.57251 0.0
O206 O 0.90412 0.76663 0.5702 0.0
N207 N 0.81377 0.67009 0.56582 0.0
C208 C 0.85974 0.64351 0.55104 0.0
C209 C 0.84367 0.64386 0.56513 0.0
C210 C 0.81152 0.68413 0.55187 0.0
N211 N 0.83933 0.66877 0.54277 0.0
O212 O 0.72098 0.67675 0.56956 0.0
H213 H 0.85448 0.62648 0.57412 0.0
H214 H 0.7912 0.70675 0.54848 0.0
O215 O 0.82728 0.76753 0.57725 0.0
C216 C 0.69187 0.62412 0.56802 0.0
O217 O 0.70846 0.593 0.57453 0.0
N218 N 0.83346 0.68822 0.59451 0.0
C219 C 0.89959 0.66851 0.61321 0.0
C220 C 0.91198 0.723 0.61023 0.0
C221 C 0.87754 0.73202 0.60103 0.0
C222 C 0.81794 0.63534 0.59845 0.0
C223 C 0.85118 0.62435 0.60746 0.0
H224 H 0.88592 0.77384 0.59947 0.0
H225 H 0.78051 0.60119 0.59398 0.0
H226 H 0.79837 0.78947 0.60238 0.0
H227 H 0.65964 0.663 0.62412 0.0
H228 H 0.88408 0.62564 0.54714 0.0
H229 H 0.94709 0.75827 0.61525 0.0
H230 H 0.83929 0.58172 0.60976 0.0
C231 C 0.06151 0.71497 0.94056 0.0
C232 C 0.03119 0.70942 0.9529 0.0
N233 N 1.00878 0.74222 0.95158 0.0
N234 N 0.0588 0.75157 0.93153 0.0
C235 C 0.0259 0.76724 0.93851 0.0
H236 H 0.08635 0.6957 0.9386 0.0
Co237 Co 0.10391 0.77968 0.91506 0.0
C238 C 0.09635 0.8773 0.90573 0.0
O239 O 0.14964 0.90217 0.90271 0.0
N240 N 0.15003 0.80752 0.89831 0.0
C241 C 0.2198 0.8396 0.88244 0.0
C242 C 0.20561 0.82978 0.89684 0.0
C243 C 0.13173 0.80461 0.88454 0.0
N244 N 0.17327 0.82357 0.87471 0.0
O245 O 0.04924 0.71906 0.90369 0.0
H246 H 0.23485 0.83795 0.90545 0.0
H247 H 0.08839 0.78726 0.88173 0.0
O248 O 0.07197 0.82766 0.91074 0.0
C249 C 0.07028 0.68763 0.90237 0.0
O250 O 0.1183 0.70285 0.90857 0.0
N251 N 0.15905 0.83186 0.9269 0.0
C252 C 0.24182 0.88733 0.94738 0.0
C253 C 0.20438 0.90571 0.94402 0.0
C254 C 0.16227 0.87654 0.93389 0.0
C255 C 0.19358 0.81241 0.93059 0.0
C256 C 0.23614 0.84022 0.94048 0.0
H257 H 0.13115 0.88829 0.93233 0.0
H258 H 0.18798 0.77466 0.92576 0.0
H259 H 0.01737 0.79879 0.93458 0.0
H260 H 0.02698 0.68426 0.96229 0.0
H261 H 0.26124 0.85684 0.87801 0.0
H262 H 0.20584 0.94046 0.9497 0.0
H263 H 0.26358 0.82421 0.94291 0.0
C264 C 0.34641 0.06086 0.26553 0.0
C265 C 0.32752 0.02568 0.27726 0.0
N266 N 0.27291 1.00758 0.27912 0.0
N267 N 0.30421 0.06526 0.2599 0.0
C268 C 0.25989 0.03232 0.26837 0.0
H269 H 0.38868 0.08318 0.26158 0.0
Co270 Co 0.31332 0.11368 0.24478 0.0
C271 C 0.20427 0.10467 0.24053 0.0
O272 O 0.23083 0.15901 0.23977 0.0
N273 N 0.32299 0.16307 0.22924 0.0
C274 C 0.34606 0.23598 0.21493 0.0
C275 C 0.34609 0.21893 0.22892 0.0
C276 C 0.30888 0.14754 0.21525 0.0
N277 N 0.32306 0.19096 0.20634 0.0
O278 O 0.31809 0.06312 0.2314 0.0
H279 H 0.36264 0.24642 0.23811 0.0
H280 H 0.28935 0.10502 0.21156 0.0
O281 O 0.23161 0.07935 0.24258 0.0
C282 C 0.36957 0.08552 0.22804 0.0
O283 O 0.40359 0.13615 0.23259 0.0
N284 N 0.31869 0.16445 0.25859 0.0
C285 C 0.35342 0.23327 0.28271 0.0
C286 C 0.29666 0.19655 0.28032 0.0
C287 C 0.28007 0.1612 0.2683 0.0
C288 C 0.37382 0.19991 0.26089 0.0
C289 C 0.39211 0.23529 0.27274 0.0
H290 H 0.23712 0.12913 0.26747 0.0
H291 H 0.40408 0.19919 0.25366 0.0
H292 H 0.21916 0.02739 0.2668 0.0
H293 H 0.35291 0.01587 0.28414 0.0
H294 H 0.36399 0.27841 0.21125 0.0
H295 H 0.26588 0.19254 0.28819 0.0
H296 H 0.43626 0.26248 0.27438 0.0
C297 C 0.30171 0.33843 0.59962 0.0
C298 C 0.31391 0.31687 0.61154 0.0
N299 N 0.26936 0.26724 0.61471 0.0
N300 N 0.24977 0.30267 0.59512 0.0
C301 C 0.23105 0.25944 0.60449 0.0
H302 H 0.32864 0.3784 0.59475 0.0
Co303 Co 0.21445 0.31877 0.5802 0.0
C304 C 0.11443 0.21253 0.57196 0.0
O305 O 0.08874 0.24051 0.56962 0.0
N306 N 0.17924 0.33615 0.56497 0.0
C307 C 0.13422 0.36752 0.5516 0.0
C308 C 0.15047 0.36342 0.56537 0.0
C309 C 0.17974 0.32434 0.55073 0.0
N310 N 0.15293 0.3432 0.5423 0.0
O311 O 0.27067 0.32527 0.56681 0.0
H312 H 0.14112 0.3795 0.57494 0.0
H313 H 0.20033 0.30291 0.54667 0.0
O314 O 0.16513 0.23817 0.57632 0.0
C315 C 0.30085 0.37739 0.56449 0.0
O316 O 0.28671 0.41106 0.57067 0.0
N317 N 0.16727 0.32162 0.59384 0.0
C318 C 0.1122 0.35079 0.61394 0.0
C319 C 0.09194 0.29484 0.61035 0.0
C320 C 0.12075 0.28091 0.60039 0.0
C321 C 0.18966 0.37544 0.5981 0.0
C322 C 0.16225 0.39122 0.60789 0.0
H323 H 0.10612 0.23775 0.5983 0.0
H324 H 0.22827 0.40673 0.59336 0.0
H325 H 0.18947 0.22401 0.60418 0.0
H326 H 0.35273 0.33659 0.61745 0.0
H327 H 0.11052 0.38727 0.54879 0.0
H328 H 0.05498 0.26207 0.61546 0.0
H329 H 0.17986 0.43467 0.61057 0.0
C330 C 0.9391 0.26878 0.94147 0.0
C331 C 0.97272 0.27722 0.95329 0.0
N332 N 0.99676 0.24587 0.95167 0.0
N333 N 0.94166 0.23223 0.93239 0.0
C334 C 0.97731 0.21911 0.93887 0.0
H335 H 0.91341 0.28725 0.93974 0.0
Co336 Co 0.89776 0.20441 0.9157 0.0
C337 C 0.90881 0.10915 0.90603 0.0
O338 O 0.85552 0.08338 0.90301 0.0
N339 N 0.85327 0.1768 0.89866 0.0
C340 C 0.78577 0.13863 0.88216 0.0
C341 C 0.79751 0.14901 0.89667 0.0
C342 C 0.87409 0.18291 0.88507 0.0
N343 N 0.83403 0.16016 0.8749 0.0
O344 O 0.95201 0.26696 0.90479 0.0
H345 H 0.76635 0.13645 0.905 0.0
H346 H 0.91804 0.20319 0.88267 0.0
O347 O 0.93219 0.15859 0.91118 0.0
C348 C 0.92943 0.29709 0.90373 0.0
O349 O 0.8811 0.27996 0.91 0.0
N350 N 0.8426 0.15008 0.92708 0.0
C351 C 0.75664 0.08786 0.94629 0.0
C352 C 0.79812 0.07412 0.9436 0.0
C353 C 0.84156 0.10652 0.93409 0.0
C354 C 0.80437 0.16546 0.93023 0.0
C355 C 0.76003 0.13397 0.93937 0.0
H356 H 0.87523 0.09808 0.93298 0.0
H357 H 0.80799 0.2024 0.9254 0.0
H358 H 0.98742 0.1891 0.93457 0.0
H359 H 0.97903 0.30448 0.96236 0.0
H360 H 0.74487 0.11804 0.87729 0.0
H361 H 0.79873 0.04059 0.94936 0.0
H362 H 0.72953 0.1466 0.94126 0.0
C363 C 0.67258 0.97724 0.2764 0.0
C364 C 0.70294 0.01165 0.28766 0.0
N365 N 0.75643 0.02536 0.28597 0.0
N366 N 0.70663 0.96908 0.26763 0.0
C367 C 0.75759 0.99924 0.2737 0.0
H368 H 0.62809 0.95745 0.27504 0.0
Co369 Co 0.68235 0.91711 0.25257 0.0
C370 C 0.78403 0.91916 0.2417 0.0
O371 O 0.75468 0.86495 0.24046 0.0
N372 N 0.65712 0.86449 0.23726 0.0
C373 C 0.61245 0.79046 0.22298 0.0
C374 C 0.61763 0.81023 0.2369 0.0
C375 C 0.67419 0.87669 0.22332 0.0
N376 N 0.64835 0.83234 0.21449 0.0
O377 O 0.672 0.96667 0.24012 0.0
H378 H 0.59277 0.78595 0.24593 0.0
H379 H 0.70469 0.91781 0.21969 0.0
O380 O 0.76044 0.94604 0.24616 0.0
C381 C 0.61929 0.94614 0.24026 0.0
O382 O 0.58929 0.90305 0.2486 0.0
N383 N 0.68417 0.86676 0.26543 0.0
C384 C 0.66593 0.78353 0.28492 0.0
C385 C 0.72021 0.82332 0.28083 0.0
C386 C 0.72858 0.86559 0.27128 0.0
C387 C 0.63199 0.83189 0.27045 0.0
C388 C 0.62157 0.78892 0.27986 0.0
H389 H 0.77053 0.89754 0.26895 0.0
H390 H 0.59775 0.83668 0.26679 0.0
H391 H 0.79435 0.99952 0.26973 0.0
H392 H 0.68668 0.02464 0.29657 0.0
H393 H 0.58437 0.74851 0.21941 0.0
H394 H 0.75593 0.82274 0.28529 0.0
H395 H 0.57921 0.76023 0.28308 0.0
H396 H 0.69744 0.64658 0.07199 0.0
H397 H 0.57041 0.66005 0.09545 0.0
H398 H 0.63577 0.54632 0.0702 0.0
H399 H 0.50817 0.56072 0.09324 0.0
H400 H 0.40793 0.37083 0.08687 0.0
H401 H 0.4773 0.46266 0.09615 0.0
H402 H 0.55688 0.50367 0.05406 0.0
H403 H 0.48902 0.41289 0.04509 0.0
C404 C 0.65738 0.62781 0.07734 0.0
C405 C 0.63827 0.6609 0.08366 0.0
C406 C 0.62158 0.57057 0.0761 0.0
C407 C 0.56628 0.5459 0.08111 0.0
C408 C 0.55016 0.57824 0.08916 0.0
C409 C 0.58593 0.63525 0.09044 0.0
C410 C 0.43966 0.40022 0.07961 0.0
C411 C 0.4431 0.38517 0.06526 0.0
C412 C 0.47978 0.45236 0.08494 0.0
C413 C 0.52372 0.48989 0.07597 0.0
C414 C 0.52508 0.47519 0.06145 0.0
C415 C 0.48549 0.42353 0.05621 0.0
H416 H 0.10491 0.46873 0.37359 0.0
H417 H 0.05711 0.38464 0.4149 0.0
H418 H 0.08009 0.5359 0.3821 0.0
H419 H 0.03313 0.45315 0.42369 0.0
H420 H 0.92884 0.54433 0.42284 0.0
H421 H 0.96649 0.48279 0.42016 0.0
H422 H 0.11018 0.61313 0.39833 0.0
H423 H 0.07098 0.67419 0.40059 0.0
C424 C 0.08859 0.46443 0.38449 0.0
C425 C 0.08238 0.42116 0.39353 0.0
C426 C 0.07533 0.50358 0.38949 0.0
C427 C 0.05591 0.5009 0.40372 0.0
C428 C 0.04812 0.45655 0.41267 0.0
C429 C 0.06118 0.41694 0.40761 0.0
C430 C 0.96951 0.56049 0.41795 0.0
C431 C 0.99671 0.6137 0.41174 0.0
C432 C 0.99111 0.52511 0.4164 0.0
C433 C 0.04053 0.54238 0.40863 0.0
C434 C 0.07111 0.59804 0.404 0.0
C435 C 0.0493 0.63348 0.40553 0.0
H436 H 0.61341 0.97333 0.74186 0.0
H437 H 0.66107 0.13568 0.75863 0.0
H438 H 0.51691 0.94146 0.74859 0.0
H439 H 0.56516 0.10409 0.76548 0.0
H440 H 0.39019 0.05075 0.74359 0.0
H441 H 0.48802 0.08372 0.74878 0.0
H442 H 0.44428 0.92378 0.76672 0.0
H443 H 0.34684 0.89109 0.76142 0.0
C444 C 0.60362 1.00134 0.74759 0.0
C445 C 0.6443 0.05692 0.74961 0.0
C446 C 0.54836 0.98333 0.75141 0.0
C447 C 0.53327 0.02071 0.75733 0.0
C448 C 0.57524 0.07468 0.7607 0.0
C449 C 0.63016 0.09258 0.75687 0.0
C450 C 0.40132 0.02374 0.74931 0.0
C451 C 0.3613 0.96847 0.75205 0.0
C452 C 0.45739 0.04234 0.75221 0.0
C453 C 0.47397 1.00584 0.75789 0.0
C454 C 0.43296 0.95246 0.76209 0.0
C455 C 0.37717 0.934 0.75919 0.0
H456 H 0.6088 0.64988 0.56693 0.0
H457 H 0.65501 0.53194 0.55183 0.0
H458 H 0.51218 0.58532 0.56029 0.0
H459 H 0.55903 0.4677 0.5451 0.0
H460 H 0.34222 0.46604 0.54683 0.0
H461 H 0.44038 0.52962 0.54207 0.0
H462 H 0.48047 0.41315 0.56163 0.0
H463 H 0.38193 0.34947 0.56629 0.0
C464 C 0.59868 0.61126 0.56161 0.0
C465 C 0.63901 0.59559 0.56001 0.0
C466 C 0.54335 0.57406 0.55785 0.0
C467 C 0.52782 0.52085 0.55241 0.0
C468 C 0.56943 0.5078 0.54951 0.0
C469 C 0.62441 0.54477 0.55328 0.0
C470 C 0.37195 0.45313 0.54956 0.0
C471 C 0.35475 0.40304 0.55698 0.0
C472 C 0.42815 0.48981 0.54697 0.0
C473 C 0.46829 0.47704 0.55174 0.0
C474 C 0.45054 0.4242 0.55776 0.0
C475 C 0.39406 0.38738 0.56035 0.0
H476 H 0.03815 0.38076 0.90376 0.0
H477 H 0.87549 0.33466 0.88732 0.0
H478 H 0.06992 0.47778 0.89782 0.0
H479 H 0.90691 0.43104 0.88134 0.0
H480 H 0.1199 0.64816 0.88494 0.0
H481 H 0.08694 0.55079 0.87974 0.0
H482 H 0.92816 0.50731 0.89871 0.0
H483 H 0.96147 0.6052 0.90385 0.0
C484 C 1.01004 0.39109 0.8983 0.0
C485 C 0.95443 0.35061 0.89611 0.0
C486 C 0.02796 0.4466 0.89495 0.0
C487 C 0.99045 0.46211 0.88935 0.0
C488 C 0.93639 0.42055 0.88588 0.0
C489 C 0.91862 0.36539 0.88921 0.0
C490 C 0.07719 0.61786 0.88748 0.0
C491 C 0.04316 0.63386 0.89486 0.0
C492 C 0.05859 0.56215 0.88462 0.0
C493 C 1.00548 0.52131 0.88907 0.0
C494 C 0.96935 0.53789 0.8951 0.0
C495 C 0.98811 0.59393 0.89797 0.0
H496 H 0.64466 0.05362 0.23547 0.0
H497 H 0.52456 0.88357 0.22563 0.0
H498 H 0.5791 0.08203 0.22701 0.0
H499 H 0.45946 0.91156 0.21703 0.0
H500 H 0.45766 0.12505 0.21001 0.0
H501 H 0.52155 0.08945 0.20775 0.0
H502 H 0.40615 0.9427 0.23145 0.0
H503 H 0.34224 0.97847 0.23361 0.0
C504 C 0.60525 0.02276 0.23093 0.0
C505 C 0.5894 0.96652 0.2313 0.0
C506 C 0.56749 0.03881 0.22612 0.0
C507 C 0.51354 0.99878 0.22158 0.0
C508 C 0.5001 0.94321 0.22071 0.0
C509 C 0.53757 0.9273 0.22554 0.0
C510 C 0.44502 0.0841 0.21421 0.0
C511 C 0.39513 0.05451 0.22203 0.0
C512 C 0.48193 0.06408 0.21306 0.0
C513 C 0.4696 0.0139 0.21969 0.0
C514 C 0.41693 0.9815 0.22617 0.0
C515 C 0.37992 1.00166 0.22732 0.0
H516 H 0.26716 0.83607 0.96879 0.0
H517 H 0.30884 0.9976 0.95239 0.0
H518 H 0.32306 0.87884 -0.00967 0.0
H519 H 0.36273 0.04016 0.97413 0.0
H520 H 0.44191 0.11617 0.01219 0.0
H521 H 0.43736 0.06177 -0.00879 0.0
H522 H 0.29485 0.91891 0.00971 0.0
H523 H 0.30153 0.97234 0.0312 0.0
C524 C 0.28956 0.88084 0.9696 0.0
C525 C 0.28293 0.91366 0.95908 0.0
C526 C 0.32142 0.90521 0.98195 0.0
C527 C 0.34677 0.96264 0.984 0.0
C528 C 0.34419 0.99575 0.97284 0.0
C529 C 0.31247 0.97142 0.96049 0.0
C530 C 0.41137 0.07243 0.01221 0.0
C531 C 0.37067 0.04893 0.02315 0.0
C532 C 0.40866 0.04138 9e-05 0.0
C533 C 0.36464 0.98687 -0.0014 0.0
C534 C 0.32908 0.96108 0.01047 0.0
C535 C 0.33225 0.99194 0.0227 0.0
H536 H 0.34715 0.25112 0.37029 0.0
H537 H 0.37631 0.41426 0.35915 0.0
H538 H 0.38493 0.24572 0.34689 0.0
H539 H 0.41553 0.40933 0.33612 0.0
H540 H 0.3187 0.29963 0.29475 0.0
H541 H 0.34106 0.34114 0.31886 0.0
H542 H 0.45322 0.27821 0.32559 0.0
H543 H 0.43074 0.23666 0.30134 0.0
C544 C 0.36412 0.28686 0.36319 0.0
C545 C 0.35662 0.33202 0.36632 0.0
C546 C 0.38625 0.28401 0.34983 0.0
C547 C 0.40126 0.32646 0.33957 0.0
C548 C 0.40312 0.37568 0.34379 0.0
C549 C 0.38084 0.37848 0.35708 0.0
C550 C 0.349 0.29582 0.30128 0.0
C551 C 0.37265 0.26478 0.29634 0.0
C552 C 0.36249 0.32015 0.31498 0.0
C553 C 0.39928 0.31315 0.32402 0.0
C554 C 0.42514 0.28448 0.31877 0.0
C555 C 0.41219 0.26076 0.30496 0.0
H556 H 0.15795 0.42685 0.63587 0.0
H557 H 1.00102 0.31017 0.61631 0.0
H558 H 0.10922 0.43604 0.65667 0.0
H559 H 0.95256 0.31675 0.63734 0.0
H560 H 0.86793 0.29585 0.67586 0.0
H561 H 0.92269 0.35522 0.65595 0.0
H562 H 0.06996 0.36402 0.67432 0.0
H563 H 0.01595 0.30788 0.69462 0.0
C564 C 0.11299 0.40441 0.6358 0.0
C565 C 0.08313 0.36615 0.62475 0.0
C566 C 0.08513 0.40964 0.64774 0.0
C567 C 0.02725 0.37595 0.64888 0.0
C568 C 0.99722 0.3433 0.63691 0.0
C569 C 0.02499 0.33851 0.62494 0.0
C570 C 0.91241 0.3125 0.67598 0.0
C571 C 0.93751 0.29554 0.68647 0.0
C572 C 0.94374 0.34644 0.66454 0.0
C573 C 1.00019 0.36274 0.66328 0.0
C574 C 0.02647 0.35202 0.67485 0.0
C575 C 0.99533 0.31874 0.68637 0.0
H576 H 0.72891 0.02895 0.02934 0.0
H577 H 0.59827 0.8669 0.01598 0.0
H578 H 0.7171 0.06818 0.00708 0.0
H579 H 0.58452 0.90665 -0.00598 0.0
H580 H 0.69913 0.97694 0.95202 0.0
H581 H 0.652 0.93443 0.97456 0.0
H582 H 0.66941 0.09042 -0.01139 0.0
H583 H 0.71933 0.13371 0.96644 0.0
C584 C 0.69647 1.00211 0.02186 0.0
C585 C 0.66585 0.94478 0.02415 0.0
C586 C 0.68887 0.02467 0.0092 0.0
C587 C 0.65048 0.99012 -0.00134 0.0
C588 C 0.61494 0.93397 0.00187 0.0
C589 C 0.6228 0.91133 0.01449 0.0
C590 C 0.69179 1.0018 0.95979 0.0
C591 C 0.71462 0.05892 0.9577 0.0
C592 C 0.66381 0.97726 0.97261 0.0
C593 C 0.65823 0.0096 0.9835 0.0
C594 C 0.6741 0.06488 0.9805 0.0
C595 C 0.70257 0.08956 0.96774 0.0
H596 H 0.59351 0.74587 0.30781 0.0
H597 H 0.71627 0.72138 0.28546 0.0
H598 H 0.59314 0.68871 0.32779 0.0
H599 H 0.71829 0.66706 0.3057 0.0
H600 H 0.72761 0.72728 0.36427 0.0
H601 H 0.66896 0.72519 0.34461 0.0
H602 H 0.68516 0.59505 0.32362 0.0
H603 H 0.74645 0.59931 0.34305 0.0
C604 C 0.61921 0.72694 0.30696 0.0
C605 C 0.6564 0.7395 0.29533 0.0
C606 C 0.61904 0.6943 0.31843 0.0
C607 C 0.65668 0.67464 0.31851 0.0
C608 C 0.68874 0.68155 0.30604 0.0
C609 C 0.68851 0.71369 0.29454 0.0
C610 C 0.71772 0.6975 0.35559 0.0
C611 C 0.74313 0.66503 0.35487 0.0
C612 C 0.68315 0.69542 0.34443 0.0
C613 C 0.67344 0.66072 0.33237 0.0
C614 C 0.69287 0.62293 0.33265 0.0
C615 C 0.72786 0.62532 0.34379 0.0
H616 H 0.16047 0.75214 0.67243 0.0
H617 H 1.00573 0.71394 0.69307 0.0
H618 H 0.10952 0.6931 0.65203 0.0
H619 H 0.95505 0.65794 0.6724 0.0
H620 H 0.86641 0.58968 0.63448 0.0
H621 H 0.92313 0.58774 0.65427 0.0
H622 H 0.0684 0.72397 0.63447 0.0
H623 H 1.01241 0.72344 0.61434 0.0
C624 C 0.11554 0.72994 0.67281 0.0
C625 C 0.08692 0.7391 0.68407 0.0
C626 C 0.0864 0.6962 0.6611 0.0
C627 C 0.02844 0.67214 0.66038 0.0
C628 C 0.99971 0.67586 0.67252 0.0
C629 C 0.02877 0.709 0.68427 0.0
C630 C 0.91085 0.61757 0.63404 0.0
C631 C 0.93488 0.65824 0.62318 0.0
C632 C 0.94329 0.61651 0.64541 0.0
C633 C 0.99982 0.65681 0.6462 0.0
C634 C 0.02492 0.69241 0.63431 0.0
C635 C 0.99265 0.69299 0.62287 0.0
H636 H 0.1832 0.03601 0.08225 0.0
H637 H 0.17099 0.16737 0.06081 0.0
H638 H 0.08247 0.98002 0.08301 0.0
H639 H 0.06966 0.11084 0.06157 0.0
H640 H 0.89358 0.0183 0.08087 0.0
H641 H 0.99411 0.07354 0.07988 0.0
H642 H 1.00235 0.92971 0.06611 0.0
H643 H 0.9008 0.87371 0.06712 0.0
C644 C 0.1591 0.05317 0.07774 0.0
C645 C 0.18539 0.10643 0.07149 0.0
C646 C 0.10122 0.0207 0.07807 0.0
C647 C 0.06799 0.04074 0.07229 0.0
C648 C 0.09413 0.09431 0.06621 0.0
C649 C 0.1522 0.12673 0.06577 0.0
C650 C 0.91656 0.9981 0.07765 0.0
C651 C 0.88888 0.94133 0.07408 0.0
C652 C 0.97435 0.03009 0.07698 0.0
C653 C 1.0063 1.00622 0.07284 0.0
C654 C 0.97888 0.94928 0.06943 0.0
C655 C 0.92072 0.9172 0.06998 0.0
H656 H 0.02896 0.15187 0.39544 0.0
H657 H 0.16823 0.16066 0.41858 0.0
H658 H 0.98512 0.05077 0.3947 0.0
H659 H 0.12459 0.06016 0.41776 0.0
H660 H 0.05385 0.88263 0.39843 0.0
H661 H 0.09908 0.98419 0.39916 0.0
H662 H 0.94428 0.97186 0.41227 0.0
H663 H 0.89949 0.87168 0.41164 0.0
C664 C 0.04996 0.13234 0.40049 0.0
C665 C 0.10197 0.16451 0.40713 0.0
C666 C 0.02494 0.07444 0.40004 0.0
C667 C 0.05164 0.04751 0.40609 0.0
C668 C 0.10336 0.07966 0.41282 0.0
C669 C 0.12804 0.13734 0.41341 0.0
C670 C 0.02968 0.90169 0.40154 0.0
C671 C 0.97307 0.86883 0.40498 0.0
C672 C 0.05551 0.95978 0.40197 0.0
C673 C 0.02505 0.98602 0.40568 0.0
C674 C 0.96868 0.95304 0.40917 0.0
C675 C 0.94316 0.89539 0.40889 0.0
H676 H 0.98884 0.1436 0.74664 0.0
H677 H 0.85295 0.99385 0.7286 0.0
H678 H 0.04623 0.10079 0.74711 0.0
H679 H 0.91118 0.95079 0.72903 0.0
H680 H 0.01392 0.87569 0.7466 0.0
H681 H 0.95578 0.91784 0.74636 0.0
H682 H 0.09357 0.07006 0.73015 0.0
H683 H 0.15238 0.02777 0.73045 0.0
C684 C 0.97102 0.10138 0.74277 0.0
C685 C 0.9161 0.07221 0.73754 0.0
C686 C 1.00429 0.077 0.74296 0.0
C687 C 0.98363 0.02258 0.73799 0.0
C688 C 0.92831 0.99277 0.73301 0.0
C689 C 0.89489 0.01738 0.73276 0.0
C690 C 0.03214 0.91827 0.74302 0.0
C691 C 0.08805 0.94837 0.73855 0.0
C692 C 0.99847 0.94225 0.74278 0.0
C693 C 0.01976 0.99716 0.73815 0.0
C694 C 0.07594 0.02771 0.73389 0.0
C695 C 0.1097 1.00355 0.73406 0.0
H696 H 0.8466 0.86968 0.58097 0.0
H697 H 0.98254 0.8574 0.56222 0.0
H698 H 0.90464 0.97096 0.58098 0.0
H699 H 0.03977 0.95758 0.56222 0.0
H700 H 0.14577 0.13604 0.57931 0.0
H701 H 0.08719 0.03487 0.5795 0.0
H702 H 0.94869 0.04923 0.56384 0.0
H703 H 1.00649 0.14939 0.56367 0.0
C704 C 0.88849 0.88844 0.57674 0.0
C705 C 0.90977 0.85525 0.57162 0.0
C706 C 0.92182 0.94645 0.57676 0.0
C707 C 0.97713 0.97239 0.57173 0.0
C708 C 0.99785 0.93907 0.56643 0.0
C709 C 0.96466 0.88145 0.56634 0.0
C710 C 0.10296 0.11753 0.57582 0.0
C711 C 0.08105 0.15101 0.57146 0.0
C712 C 0.06934 0.05958 0.57593 0.0
C713 C 0.01305 0.03392 0.57176 0.0
C714 C 0.99147 0.06751 0.56734 0.0
C715 C 0.02497 0.12513 0.56714 0.0
H716 H 0.98839 0.84516 0.91316 0.0
H717 H 0.13995 0.98475 0.89713 0.0
H718 H 0.9444 0.90233 0.91325 0.0
H719 H 0.096 0.04128 0.89711 0.0
H720 H 0.01633 0.14157 0.91415 0.0
H721 H 0.0611 0.08501 0.9141 0.0
H722 H 0.91244 0.94773 0.89613 0.0
H723 H 0.8678 1.00351 0.89627 0.0
C724 C 1.0122 0.88779 0.90956 0.0
C725 C 0.0677 0.91019 0.90513 0.0
C726 C 0.987 0.92059 0.90959 0.0
C727 C 0.0168 0.97657 0.90524 0.0
C728 C 0.07211 0.99869 0.90074 0.0
C729 C 0.09714 0.96595 0.90064 0.0
C730 C 0.99339 0.09946 0.91011 0.0
C731 C 0.93843 0.07721 0.90525 0.0
C732 C 0.01902 0.06702 0.91006 0.0
C733 C 0.99017 0.0116 0.90521 0.0
C734 C 0.93555 0.98982 0.90018 0.0
C735 C 0.91012 0.02215 0.90017 0.0
H736 H 0.13924 0.14408 0.25054 0.0
H737 H 0.13053 0.99911 0.23108 0.0
H738 H 0.03892 0.09951 0.2505 0.0
H739 H 0.02929 0.95499 0.2301 0.0
H740 H 0.84712 0.86987 0.24298 0.0
H741 H 0.94728 0.91298 0.24279 0.0
H742 H 0.96084 0.0733 0.23689 0.0
H743 H 0.85992 0.02985 0.23806 0.0
C744 C 0.11566 0.10264 0.24608 0.0
C745 C 0.14278 0.0751 0.24077 0.0
C746 C 0.05783 0.07714 0.24591 0.0
C747 C 0.02515 0.02362 0.24011 0.0
C748 C 0.05253 0.99588 0.23485 0.0
C749 C 0.11067 0.02112 0.23534 0.0
C750 C 0.87142 0.91437 0.24157 0.0
C751 C 0.8454 0.94645 0.24053 0.0
C752 C 0.92925 0.93922 0.24136 0.0
C753 C 0.96303 0.99694 0.23983 0.0
C754 C 0.93674 0.02891 0.23843 0.0
C755 C 0.8787 1.00404 0.23895 0.0
H756 H 1.00074 0.25854 0.98096 0.0
H757 H 0.07887 0.22366 0.94518 0.0
H758 H 0.06789 0.2568 -0.00228 0.0
H759 H 0.14566 0.22125 0.96196 0.0
H760 H 0.29534 0.29556 -0.00714 0.0
H761 H 0.22423 0.29099 0.97682 0.0
H762 H 0.09859 0.19361 0.00853 0.0
H763 H 0.17006 0.19686 0.02465 0.0
C764 C 0.03221 0.25045 0.97666 0.0
C765 C 0.03465 0.24173 0.96167 0.0
C766 C 0.07037 0.24889 0.98631 0.0
C767 C 0.1124 0.23918 0.9812 0.0
C768 C 0.1142 0.22944 0.96625 0.0
C769 C 0.07564 0.23037 0.95663 0.0
C770 C 0.25267 0.27239 -0.00355 0.0
C771 C 0.23888 0.24595 0.0101 0.0
C772 C 0.21172 0.26987 0.98718 0.0
C773 C 0.15557 0.24142 -0.00872 0.0
C774 C 0.14153 0.21603 0.00504 0.0
C775 C 0.18263 0.21806 0.01432 0.0
H776 H 0.96654 0.22445 0.35768 0.0
H777 H 0.07743 0.20403 0.32898 0.0
H778 H 0.88901 0.16852 0.3414 0.0
H779 H 1.00016 0.14601 0.313 0.0
H780 H 0.86454 0.09323 0.27914 0.0
H781 H 0.94086 0.14798 0.29577 0.0
H782 H 0.82737 0.08168 0.33207 0.0
H783 H 0.7511 0.0292 0.31528 0.0
C784 C 0.97404 0.20706 0.34801 0.0
C785 C 0.02806 0.21888 0.34456 0.0
C786 C 0.92958 0.17479 0.33864 0.0
C787 C 0.93788 0.1527 0.3257 0.0
C788 C 0.99192 0.16329 0.32258 0.0
C789 C 0.03635 0.19627 0.33181 0.0
C790 C 0.85611 0.09044 0.29068 0.0
C791 C 0.80176 0.05715 0.29587 0.0
C792 C 0.89995 0.1216 0.30029 0.0
C793 C 0.89084 0.11953 0.31541 0.0
C794 C 0.83628 0.08558 0.32055 0.0
C795 C 0.79237 0.05518 0.31091 0.0
H796 H 0.81752 0.84276 0.62335 0.0
H797 H 0.64691 0.7284 0.63491 0.0
H798 H 0.82062 0.9077 0.6417 0.0
H799 H 0.65107 0.79123 0.65356 0.0
H800 H 0.65005 0.93541 0.67469 0.0
H801 H 0.65206 0.87523 0.65613 0.0
H802 H 0.82126 0.92517 0.66757 0.0
H803 H 0.8203 0.9885 0.68584 0.0
C804 C 0.78069 0.83122 0.62974 0.0
C805 C 0.73195 0.77985 0.62751 0.0
C806 C 0.78271 0.86831 0.64043 0.0
C807 C 0.73604 0.85509 0.64916 0.0
C808 C 0.68765 0.80362 0.64695 0.0
C809 C 0.68552 0.76691 0.63629 0.0
C810 C 0.68813 0.93447 0.67323 0.0
C811 C 0.73512 0.96755 0.68185 0.0
C812 C 0.689 0.89902 0.66263 0.0
C813 C 0.73667 0.89467 0.66032 0.0
C814 C 0.78388 0.92763 0.66891 0.0
C815 C 0.7831 0.96355 0.67955 0.0
H816 H 0.85068 0.74344 0.03296 0.0
H817 H 0.77207 0.79562 0.00151 0.0
H818 H 0.91007 0.7395 0.01404 0.0
H819 H 0.83404 0.79668 0.98265 0.0
H820 H 0.91083 0.73877 0.94817 0.0
H821 H 0.85388 0.7467 0.96712 0.0
H822 H 0.98236 0.77965 -0.00137 0.0
H823 H 0.03617 0.76683 0.97971 0.0
C824 C 0.84725 0.75533 0.02199 0.0
C825 C 0.80689 0.76961 0.01864 0.0
C826 C 0.88153 0.75352 0.01106 0.0
C827 C 0.8774 0.76753 -0.00346 0.0
C828 C 0.838 0.78391 -0.00655 0.0
C829 C 0.80272 0.78404 0.0043 0.0
C830 C 0.92653 0.74785 0.95918 0.0
C831 C 0.97752 0.75185 0.96253 0.0
C832 C 0.89417 0.75289 0.97012 0.0
C833 C 0.91279 0.76375 0.98468 0.0
C834 C 0.96517 0.7697 0.98779 0.0
C835 C 0.99658 0.76297 0.97692 0.0
H836 H 0.29188 0.93957 0.29641 0.0
H837 H 0.17236 0.99229 0.28818 0.0
H838 H 0.23489 0.8814 0.31602 0.0
H839 H 0.11334 0.93098 0.3074 0.0
H840 H 0.04429 0.85257 0.35213 0.0
H841 H 0.10283 0.91593 0.33313 0.0
H842 H 0.15284 0.7982 0.32029 0.0
H843 H 0.09758 0.73695 0.33962 0.0
C844 C 0.25347 0.93896 0.2987 0.0
C845 C 0.23732 0.9713 0.29057 0.0
C846 C 0.22012 0.90468 0.30993 0.0
C847 C 0.16899 0.90084 0.31333 0.0
C848 C 0.15262 0.9331 0.30523 0.0
C849 C 0.18631 0.96788 0.29402 0.0
C850 C 0.06826 0.84042 0.34539 0.0
C851 C 0.0657 0.78914 0.34754 0.0
C852 C 0.10143 0.87661 0.33433 0.0
C853 C 0.13291 0.86252 0.32509 0.0
C854 C 0.13012 0.81124 0.32726 0.0
C855 C 0.09746 0.77542 0.33832 0.0
H856 H 0.35869 0.12143 0.68385 0.0
H857 H 0.1811 0.01267 0.68224 0.0
H858 H 0.35281 0.17714 0.66447 0.0
H859 H 0.17489 0.06992 0.66292 0.0
H860 H 0.20336 0.15498 0.61688 0.0
H861 H 0.20056 0.096 0.637 0.0
H862 H 0.32016 0.24136 0.66041 0.0
H863 H 0.32296 0.29964 0.64051 0.0
C864 C 0.31825 0.10933 0.67937 0.0
C865 C 0.27043 0.06227 0.68462 0.0
C866 C 0.31477 0.14177 0.66831 0.0
C867 C 0.26333 0.12835 0.66212 0.0
C868 C 0.21525 0.08133 0.66737 0.0
C869 C 0.21873 0.04884 0.67855 0.0
C870 C 0.22857 0.17428 0.62639 0.0
C871 C 0.26416 0.2321 0.62691 0.0
C872 C 0.22692 0.14048 0.63795 0.0
C873 C 0.26079 0.16377 0.65027 0.0
C874 C 0.29458 0.22172 0.65097 0.0
C875 C 0.29625 0.25528 0.63949 0.0
H876 H 0.44836 0.21898 0.12143 0.0
H877 H 0.28952 0.20527 0.11215 0.0
H878 H 0.42761 0.21109 0.14718 0.0
H879 H 0.27013 0.19976 0.13821 0.0
H880 H 0.3072 0.25889 0.18851 0.0
H881 H 0.31722 0.26448 0.16196 0.0
H882 H 0.34984 0.12855 0.16255 0.0
H883 H 0.33974 0.12285 0.18891 0.0
C884 C 0.40895 0.21417 0.1248 0.0
C885 C 0.37027 0.21182 0.11458 0.0
C886 C 0.39726 0.20989 0.1396 0.0
C887 C 0.34705 0.20411 0.14461 0.0
C888 C 0.30916 0.20413 0.13456 0.0
C889 C 0.32048 0.20757 0.11965 0.0
C890 C 0.31585 0.22989 0.18289 0.0
C891 C 0.32276 0.1905 0.19073 0.0
C892 C 0.32125 0.23289 0.16777 0.0
C893 C 0.33462 0.19717 0.16031 0.0
C894 C 0.33981 0.15672 0.1681 0.0
C895 C 0.33357 0.15317 0.18315 0.0
H896 H 0.19596 0.45251 0.45415 0.0
H897 H 0.1428 0.27873 0.44916 0.0
H898 H 0.1841 0.44037 0.48016 0.0
H899 H 0.1276 0.26585 0.47526 0.0
H900 H 0.17827 0.28315 0.52345 0.0
H901 H 0.18043 0.28818 0.4972 0.0
H902 H 0.11688 0.40126 0.49883 0.0
H903 H 0.11783 0.39921 0.52501 0.0
C904 C 0.18146 0.41158 0.45855 0.0
C905 C 0.17085 0.36673 0.44949 0.0
C906 C 0.17379 0.40441 0.47352 0.0
C907 C 0.15475 0.35207 0.47984 0.0
C908 C 0.14292 0.30687 0.47077 0.0
C909 C 0.151 0.31414 0.45577 0.0
C910 C 0.16507 0.30948 0.51833 0.0
C911 C 0.14891 0.34158 0.52662 0.0
C912 C 0.16557 0.3117 0.50317 0.0
C913 C 0.14939 0.3456 0.49588 0.0
C914 C 0.1308 0.37564 0.50409 0.0
C915 C 0.13081 0.3739 0.51923 0.0
H916 H 0.76792 0.0813 0.85576 0.0
H917 H 0.91556 0.24212 0.8591 0.0
H918 H 0.7751 0.08667 0.8293 0.0
H919 H 0.92317 0.24735 0.83262 0.0
H920 H 0.85864 0.26263 0.78703 0.0
H921 H 0.86324 0.25582 0.81321 0.0
H922 H 0.8381 0.09064 0.80875 0.0
H923 H 0.835 0.09768 0.78244 0.0
C924 C 0.80209 0.11757 0.85081 0.0
C925 C 0.84101 0.1614 0.85943 0.0
C926 C 0.8065 0.12043 0.83571 0.0
C927 C 0.84961 0.16749 0.82895 0.0
C928 C 0.88935 0.21076 0.83758 0.0
C929 C 0.88527 0.20759 0.8527 0.0
C930 C 0.8551 0.22516 0.79151 0.0
C931 C 0.84614 0.1806 0.78252 0.0
C932 C 0.85772 0.22133 0.80656 0.0
C933 C 0.85099 0.17271 0.81297 0.0
C934 C 0.84286 0.12841 0.80405 0.0
C935 C 0.84079 0.13241 0.78898 0.0
H936 H 0.57131 0.76709 0.19478 0.0
H937 H 0.7434 0.89371 0.19941 0.0
H938 H 0.58351 0.76718 0.16855 0.0
H939 H 0.75537 0.89458 0.17308 0.0
H940 H 0.76252 0.84367 0.12548 0.0
H941 H 0.75292 0.8334 0.15199 0.0
H942 H 0.60049 0.83856 0.14967 0.0
H943 H 0.6098 0.84811 0.12342 0.0
C944 C 0.61186 0.7945 0.1902 0.0
C945 C 0.65628 0.8307 0.19911 0.0
C946 C 0.61875 0.79481 0.1752 0.0
C947 C 0.67031 0.83107 0.16881 0.0
C948 C 0.71528 0.86599 0.17774 0.0
C949 C 0.70826 0.86598 0.19276 0.0
C950 C 0.72688 0.84212 0.1307 0.0
C951 C 0.68715 0.84712 0.12247 0.0
C952 C 0.72154 0.83661 0.14581 0.0
C953 C 0.6759 0.83508 0.15283 0.0
C954 C 0.63579 0.83906 0.14453 0.0
C955 C 0.64145 0.84517 0.12953 0.0
H956 H 0.80547 0.71846 0.45121 0.0
H957 H 0.92311 0.66101 0.45302 0.0
H958 H 0.80466 0.72274 0.47765 0.0
H959 H 0.92021 0.6616 0.4795 0.0
H960 H 0.9323 0.70001 0.52722 0.0
H961 H 0.94279 0.71173 0.50094 0.0
H962 H 0.76936 0.66429 0.49741 0.0
H963 H 0.76063 0.65608 0.52374 0.0
C964 C 0.83105 0.70665 0.45737 0.0
C965 C 0.86422 0.68929 0.45022 0.0
C966 C 0.83035 0.70859 0.4725 0.0
C967 C 0.86178 0.69181 0.48082 0.0
C968 C 0.89606 0.67568 0.47354 0.0
C969 C 0.89768 0.67504 0.45838 0.0
C970 C 0.89676 0.69253 0.52073 0.0
C971 C 0.8457 0.67715 0.52738 0.0
C972 C 0.90253 0.69888 0.50568 0.0
C973 C 0.8569 0.68874 0.49694 0.0
C974 C 0.80584 0.67368 0.50373 0.0
C975 C 0.80053 0.66858 0.5188 0.0
H976 H 0.16667 0.7505 0.78364 0.0
H977 H 0.15064 0.8968 0.78441 0.0
H978 H 0.1647 0.74787 0.81005 0.0
H979 H 0.14985 0.89483 0.81099 0.0
H980 H 0.09885 0.83694 0.85883 0.0
H981 H 0.0919 0.83589 0.83227 0.0
H982 H 0.23124 0.80852 0.82902 0.0
H983 H 0.2375 0.80867 0.85537 0.0
C984 C 0.16211 0.78177 0.78944 0.0
C985 C 0.15898 0.82398 0.78194 0.0
C986 C 0.16152 0.78055 0.80458 0.0
C987 C 0.1575 0.82135 0.81256 0.0
C988 C 0.15275 0.86272 0.8051 0.0
C989 C 0.15375 0.86417 0.78991 0.0
C990 C 0.12764 0.83036 0.8524 0.0
C991 C 0.16879 0.82304 0.85915 0.0
C992 C 0.12397 0.8302 0.83724 0.0
C993 C 0.16093 0.82195 0.82861 0.0
C994 C 0.20183 0.8144 0.8354 0.0
C995 C 0.2058 0.81509 0.85048 0.0
loop_
_geom_bond_atom_site_label_1
_geom_bond_atom_site_label_2
_geom_bond_distance
_geom_bond_site_symmetry_2
_ccdc_geom_bond_type
C0 C1 1.351 . S
C0 N3 1.368 . S
C0 H5 0.931 . S
C1 C0 1.351 . S
C1 N2 1.373 . S
C1 H29 0.930 . S
N2 C1 1.373 . S
N2 C4 1.340 . S
N3 C0 1.368 . S
N3 C4 1.321 . S
N3 Co6 2.135 . S
C4 N2 1.340 . S
C4 N3 1.321 . S
C4 H28 0.930 . S
H5 C0 0.931 . S
Co6 N3 2.135 . S
Co6 N9 2.121 . S
Co6 O14 2.055 . S
Co6 O17 2.039 . S
Co6 N20 2.140 . S
C7 O8 1.227 . S
C7 O17 1.265 . S
O8 C7 1.227 . S
N9 Co6 2.121 . S
N9 C11 1.375 . S
N9 C12 1.313 . S
C10 C11 1.338 . S
C10 N13 1.377 . S
C10 H30 0.930 . S
C11 N9 1.375 . S
C11 C10 1.338 . S
C11 H15 0.931 . S
C12 N9 1.313 . S
C12 N13 1.344 . S
C12 H16 0.930 . S
N13 C10 1.377 . S
N13 C12 1.344 . S
O14 Co6 2.055 . S
O14 C18 1.253 . S
H15 C11 0.931 . S
H16 C12 0.930 . S
O17 Co6 2.039 . S
O17 C7 1.265 . S
C18 O14 1.253 . S
C18 O19 1.227 . S
O19 C18 1.227 . S
N20 Co6 2.140 . S
N20 C23 1.346 . S
N20 C24 1.345 . S
C21 C22 1.387 . S
C21 C25 1.391 . S
C22 C21 1.387 . S
C22 C23 1.369 . S
C22 H31 0.929 . S
C23 N20 1.346 . S
C23 C22 1.369 . S
C23 H26 0.928 . S
C24 N20 1.345 . S
C24 C25 1.371 . S
C24 H27 0.931 . S
C25 C21 1.391 . S
C25 C24 1.371 . S
C25 H32 0.930 . S
H26 C23 0.928 . S
H27 C24 0.931 . S
H28 C4 0.930 . S
H29 C1 0.930 . S
H30 C10 0.930 . S
H31 C22 0.929 . S
H32 C25 0.930 . S
C33 C34 1.351 . S
C33 N36 1.368 . S
C33 H38 0.931 . S
C34 C33 1.351 . S
C34 N35 1.373 . S
C34 H62 0.930 . S
N35 C34 1.373 . S
N35 C37 1.340 . S
N36 C33 1.368 . S
N36 C37 1.321 . S
N36 Co39 2.135 . S
C37 N35 1.340 . S
C37 N36 1.321 . S
C37 H61 0.930 . S
H38 C33 0.931 . S
Co39 N36 2.135 . S
Co39 N42 2.121 . S
Co39 O47 2.055 . S
Co39 O50 2.039 . S
Co39 N53 2.140 . S
C40 O41 1.227 . S
C40 O50 1.265 . S
O41 C40 1.227 . S
N42 Co39 2.121 . S
N42 C44 1.375 . S
N42 C45 1.313 . S
C43 C44 1.338 . S
C43 N46 1.377 . S
C43 H63 0.930 . S
C44 N42 1.375 . S
C44 C43 1.338 . S
C44 H48 0.931 . S
C45 N42 1.313 . S
C45 N46 1.344 . S
C45 H49 0.930 . S
N46 C43 1.377 . S
N46 C45 1.344 . S
O47 Co39 2.055 . S
O47 C51 1.253 . S
H48 C44 0.931 . S
H49 C45 0.930 . S
O50 Co39 2.039 . S
O50 C40 1.265 . S
C51 O47 1.253 . S
C51 O52 1.227 . S
O52 C51 1.227 . S
N53 Co39 2.140 . S
N53 C56 1.346 . S
N53 C57 1.345 . S
C54 C55 1.387 . S
C54 C58 1.391 . S
C55 C54 1.387 . S
C55 C56 1.369 . S
C55 H64 0.929 . S
C56 N53 1.346 . S
C56 C55 1.369 . S
C56 H59 0.928 . S
C57 N53 1.345 . S
C57 C58 1.371 . S
C57 H60 0.931 . S
C58 C54 1.391 . S
C58 C57 1.371 . S
C58 H65 0.930 . S
H59 C56 0.928 . S
H60 C57 0.931 . S
H61 C37 0.930 . S
H62 C34 0.930 . S
H63 C43 0.930 . S
H64 C55 0.929 . S
H65 C58 0.930 . S
C66 C67 1.351 . S
C66 N69 1.368 . S
C66 H71 0.931 . S
C67 C66 1.351 . S
C67 N68 1.373 . S
C67 H95 0.930 . S
N68 C67 1.373 . S
N68 C70 1.340 . S
N69 C66 1.368 . S
N69 C70 1.321 . S
N69 Co72 2.135 . S
C70 N68 1.340 . S
C70 N69 1.321 . S
C70 H94 0.930 . S
H71 C66 0.931 . S
Co72 N69 2.135 . S
Co72 N75 2.121 . S
Co72 O80 2.055 . S
Co72 O83 2.039 . S
Co72 N86 2.140 . S
C73 O74 1.227 . S
C73 O83 1.265 . S
O74 C73 1.227 . S
N75 Co72 2.121 . S
N75 C77 1.375 . S
N75 C78 1.313 . S
C76 C77 1.338 . S
C76 N79 1.377 . S
C76 H96 0.930 . S
C77 N75 1.375 . S
C77 C76 1.338 . S
C77 H81 0.931 . S
C78 N75 1.313 . S
C78 N79 1.344 . S
C78 H82 0.930 . S
N79 C76 1.377 . S
N79 C78 1.344 . S
O80 Co72 2.055 . S
O80 C84 1.253 . S
H81 C77 0.931 . S
H82 C78 0.930 . S
O83 Co72 2.039 . S
O83 C73 1.265 . S
C84 O80 1.253 . S
C84 O85 1.227 . S
O85 C84 1.227 . S
N86 Co72 2.140 . S
N86 C89 1.346 . S
N86 C90 1.345 . S
C87 C88 1.387 . S
C87 C91 1.391 . S
C88 C87 1.387 . S
C88 C89 1.369 . S
C88 H97 0.929 . S
C89 N86 1.346 . S
C89 C88 1.369 . S
C89 H92 0.928 . S
C90 N86 1.345 . S
C90 C91 1.371 . S
C90 H93 0.931 . S
C91 C87 1.391 . S
C91 C90 1.371 . S
C91 H98 0.930 . S
H92 C89 0.928 . S
H93 C90 0.931 . S
H94 C70 0.930 . S
H95 C67 0.930 . S
H96 C76 0.930 . S
H97 C88 0.929 . S
H98 C91 0.930 . S
C99 C100 1.351 . S
C99 N102 1.368 . S
C99 H104 0.931 . S
C100 C99 1.351 . S
C100 N101 1.373 . S
C100 H128 0.930 . S
N101 C100 1.373 . S
N101 C103 1.340 . S
N102 C99 1.368 . S
N102 C103 1.321 . S
N102 Co105 2.135 . S
C103 N101 1.340 . S
C103 N102 1.321 . S
C103 H127 0.930 . S
H104 C99 0.931 . S
Co105 N102 2.135 . S
Co105 N108 2.121 . S
Co105 O113 2.055 . S
Co105 O116 2.039 . S
Co105 N119 2.140 . S
C106 O107 1.227 . S
C106 O116 1.265 . S
O107 C106 1.227 . S
N108 Co105 2.121 . S
N108 C110 1.375 . S
N108 C111 1.313 . S
C109 C110 1.338 . S
C109 N112 1.377 . S
C109 H129 0.930 . S
C110 N108 1.375 . S
C110 C109 1.338 . S
C110 H114 0.931 . S
C111 N108 1.313 . S
C111 N112 1.344 . S
C111 H115 0.930 . S
N112 C109 1.377 . S
N112 C111 1.344 . S
O113 Co105 2.055 . S
O113 C117 1.253 . S
H114 C110 0.931 . S
H115 C111 0.930 . S
O116 Co105 2.039 . S
O116 C106 1.265 . S
C117 O113 1.253 . S
C117 O118 1.227 . S
O118 C117 1.227 . S
N119 Co105 2.140 . S
N119 C122 1.346 . S
N119 C123 1.345 . S
C120 C121 1.387 . S
C120 C124 1.391 . S
C121 C120 1.387 . S
C121 C122 1.369 . S
C121 H130 0.929 . S
C122 N119 1.346 . S
C122 C121 1.369 . S
C122 H125 0.928 . S
C123 N119 1.345 . S
C123 C124 1.371 . S
C123 H126 0.931 . S
C124 C120 1.391 . S
C124 C123 1.371 . S
C124 H131 0.930 . S
H125 C122 0.928 . S
H126 C123 0.931 . S
H127 C103 0.930 . S
H128 C100 0.930 . S
H129 C109 0.930 . S
H130 C121 0.929 . S
H131 C124 0.930 . S
C132 C133 1.351 . S
C132 N135 1.368 . S
C132 H137 0.931 . S
C133 C132 1.351 . S
C133 N134 1.373 . S
C133 H161 0.930 . S
N134 C133 1.373 . S
N134 C136 1.340 . S
N135 C132 1.368 . S
N135 C136 1.321 . S
N135 Co138 2.135 . S
C136 N134 1.340 . S
C136 N135 1.321 . S
C136 H160 0.930 . S
H137 C132 0.931 . S
Co138 N135 2.135 . S
Co138 N141 2.121 . S
Co138 O146 2.055 . S
Co138 O149 2.039 . S
Co138 N152 2.140 . S
C139 O140 1.227 . S
C139 O149 1.265 . S
O140 C139 1.227 . S
N141 Co138 2.121 . S
N141 C143 1.375 . S
N141 C144 1.313 . S
C142 C143 1.338 . S
C142 N145 1.377 . S
C142 H162 0.930 . S
C143 N141 1.375 . S
C143 C142 1.338 . S
C143 H147 0.931 . S
C144 N141 1.313 . S
C144 N145 1.344 . S
C144 H148 0.930 . S
N145 C142 1.377 . S
N145 C144 1.344 . S
O146 Co138 2.055 . S
O146 C150 1.253 . S
H147 C143 0.931 . S
H148 C144 0.930 . S
O149 Co138 2.039 . S
O149 C139 1.265 . S
C150 O146 1.253 . S
C150 O151 1.227 . S
O151 C150 1.227 . S
N152 Co138 2.140 . S
N152 C155 1.346 . S
N152 C156 1.345 . S
C153 C154 1.387 . S
C153 C157 1.391 . S
C154 C153 1.387 . S
C154 C155 1.369 . S
C154 H163 0.929 . S
C155 N152 1.346 . S
C155 C154 1.369 . S
C155 H158 0.928 . S
C156 N152 1.345 . S
C156 C157 1.371 . S
C156 H159 0.931 . S
C157 C153 1.391 . S
C157 C156 1.371 . S
C157 H164 0.930 . S
H158 C155 0.928 . S
H159 C156 0.931 . S
H160 C136 0.930 . S
H161 C133 0.930 . S
H162 C142 0.930 . S
H163 C154 0.929 . S
H164 C157 0.930 . S
C165 C166 1.351 . S
C165 N168 1.368 . S
C165 H170 0.931 . S
C166 C165 1.351 . S
C166 N167 1.373 . S
C166 H194 0.930 . S
N167 C166 1.373 . S
N167 C169 1.340 . S
N168 C165 1.368 . S
N168 C169 1.321 . S
N168 Co171 2.135 . S
C169 N167 1.340 . S
C169 N168 1.321 . S
C169 H193 0.930 . S
H170 C165 0.931 . S
Co171 N168 2.135 . S
Co171 N174 2.121 . S
Co171 O179 2.055 . S
Co171 O182 2.039 . S
Co171 N185 2.140 . S
C172 O173 1.227 . S
C172 O182 1.265 . S
O173 C172 1.227 . S
N174 Co171 2.121 . S
N174 C176 1.375 . S
N174 C177 1.313 . S
C175 C176 1.338 . S
C175 N178 1.377 . S
C175 H195 0.930 . S
C176 N174 1.375 . S
C176 C175 1.338 . S
C176 H180 0.931 . S
C177 N174 1.313 . S
C177 N178 1.344 . S
C177 H181 0.930 . S
N178 C175 1.377 . S
N178 C177 1.344 . S
O179 Co171 2.055 . S
O179 C183 1.253 . S
H180 C176 0.931 . S
H181 C177 0.930 . S
O182 Co171 2.039 . S
O182 C172 1.265 . S
C183 O179 1.253 . S
C183 O184 1.227 . S
O184 C183 1.227 . S
N185 Co171 2.140 . S
N185 C188 1.346 . S
N185 C189 1.345 . S
C186 C187 1.387 . S
C186 C190 1.391 . S
C187 C186 1.387 . S
C187 C188 1.369 . S
C187 H196 0.929 . S
C188 N185 1.346 . S
C188 C187 1.369 . S
C188 H191 0.928 . S
C189 N185 1.345 . S
C189 C190 1.371 . S
C189 H192 0.931 . S
C190 C186 1.391 . S
C190 C189 1.371 . S
C190 H197 0.930 . S
H191 C188 0.928 . S
H192 C189 0.931 . S
H193 C169 0.930 . S
H194 C166 0.930 . S
H195 C175 0.930 . S
H196 C187 0.929 . S
H197 C190 0.930 . S
C198 C199 1.351 . S
C198 N201 1.368 . S
C198 H203 0.931 . S
C199 C198 1.351 . S
C199 N200 1.373 . S
C199 H227 0.930 . S
N200 C199 1.373 . S
N200 C202 1.340 . S
N201 C198 1.368 . S
N201 C202 1.321 . S
N201 Co204 2.135 . S
C202 N200 1.340 . S
C202 N201 1.321 . S
C202 H226 0.930 . S
H203 C198 0.931 . S
Co204 N201 2.135 . S
Co204 N207 2.121 . S
Co204 O212 2.055 . S
Co204 O215 2.039 . S
Co204 N218 2.140 . S
C205 O206 1.227 . S
C205 O215 1.265 . S
O206 C205 1.227 . S
N207 Co204 2.121 . S
N207 C209 1.375 . S
N207 C210 1.313 . S
C208 C209 1.338 . S
C208 N211 1.377 . S
C208 H228 0.930 . S
C209 N207 1.375 . S
C209 C208 1.338 . S
C209 H213 0.931 . S
C210 N207 1.313 . S
C210 N211 1.344 . S
C210 H214 0.930 . S
N211 C208 1.377 . S
N211 C210 1.344 . S
O212 Co204 2.055 . S
O212 C216 1.253 . S
H213 C209 0.931 . S
H214 C210 0.930 . S
O215 Co204 2.039 . S
O215 C205 1.265 . S
C216 O212 1.253 . S
C216 O217 1.227 . S
O217 C216 1.227 . S
N218 Co204 2.140 . S
N218 C221 1.346 . S
N218 C222 1.345 . S
C219 C220 1.387 . S
C219 C223 1.391 . S
C220 C219 1.387 . S
C220 C221 1.369 . S
C220 H229 0.929 . S
C221 N218 1.346 . S
C221 C220 1.369 . S
C221 H224 0.928 . S
C222 N218 1.345 . S
C222 C223 1.371 . S
C222 H225 0.931 . S
C223 C219 1.391 . S
C223 C222 1.371 . S
C223 H230 0.930 . S
H224 C221 0.928 . S
H225 C222 0.931 . S
H226 C202 0.930 . S
H227 C199 0.930 . S
H228 C208 0.930 . S
H229 C220 0.929 . S
H230 C223 0.930 . S
C231 C232 1.351 . S
C231 N234 1.368 . S
C231 H236 0.931 . S
C232 C231 1.351 . S
C232 N233 1.373 . S
C232 H260 0.930 . S
N233 C232 1.373 . S
N233 C235 1.340 . S
N234 C231 1.368 . S
N234 C235 1.321 . S
N234 Co237 2.135 . S
C235 N233 1.340 . S
C235 N234 1.321 . S
C235 H259 0.930 . S
H236 C231 0.931 . S
Co237 N234 2.135 . S
Co237 N240 2.121 . S
Co237 O245 2.055 . S
Co237 O248 2.039 . S
Co237 N251 2.140 . S
C238 O239 1.227 . S
C238 O248 1.265 . S
O239 C238 1.227 . S
N240 Co237 2.121 . S
N240 C242 1.375 . S
N240 C243 1.313 . S
C241 C242 1.338 . S
C241 N244 1.377 . S
C241 H261 0.930 . S
C242 N240 1.375 . S
C242 C241 1.338 . S
C242 H246 0.931 . S
C243 N240 1.313 . S
C243 N244 1.344 . S
C243 H247 0.930 . S
N244 C241 1.377 . S
N244 C243 1.344 . S
O245 Co237 2.055 . S
O245 C249 1.253 . S
H246 C242 0.931 . S
H247 C243 0.930 . S
O248 Co237 2.039 . S
O248 C238 1.265 . S
C249 O245 1.253 . S
C249 O250 1.227 . S
O250 C249 1.227 . S
N251 Co237 2.140 . S
N251 C254 1.346 . S
N251 C255 1.345 . S
C252 C253 1.387 . S
C252 C256 1.391 . S
C253 C252 1.387 . S
C253 C254 1.369 . S
C253 H262 0.929 . S
C254 N251 1.346 . S
C254 C253 1.369 . S
C254 H257 0.928 . S
C255 N251 1.345 . S
C255 C256 1.371 . S
C255 H258 0.931 . S
C256 C252 1.391 . S
C256 C255 1.371 . S
C256 H263 0.930 . S
H257 C254 0.928 . S
H258 C255 0.931 . S
H259 C235 0.930 . S
H260 C232 0.930 . S
H261 C241 0.930 . S
H262 C253 0.929 . S
H263 C256 0.930 . S
C264 C265 1.351 . S
C264 N267 1.368 . S
C264 H269 0.931 . S
C265 C264 1.351 . S
C265 N266 1.373 . S
C265 H293 0.930 . S
N266 C265 1.373 . S
N266 C268 1.340 . S
N267 C264 1.368 . S
N267 C268 1.321 . S
N267 Co270 2.135 . S
C268 N266 1.340 . S
C268 N267 1.321 . S
C268 H292 0.930 . S
H269 C264 0.931 . S
Co270 N267 2.135 . S
Co270 N273 2.121 . S
Co270 O278 2.055 . S
Co270 O281 2.039 . S
Co270 N284 2.140 . S
C271 O272 1.227 . S
C271 O281 1.265 . S
O272 C271 1.227 . S
N273 Co270 2.121 . S
N273 C275 1.375 . S
N273 C276 1.313 . S
C274 C275 1.338 . S
C274 N277 1.377 . S
C274 H294 0.930 . S
C275 N273 1.375 . S
C275 C274 1.338 . S
C275 H279 0.931 . S
C276 N273 1.313 . S
C276 N277 1.344 . S
C276 H280 0.930 . S
N277 C274 1.377 . S
N277 C276 1.344 . S
O278 Co270 2.055 . S
O278 C282 1.253 . S
H279 C275 0.931 . S
H280 C276 0.930 . S
O281 Co270 2.039 . S
O281 C271 1.265 . S
C282 O278 1.253 . S
C282 O283 1.227 . S
O283 C282 1.227 . S
N284 Co270 2.140 . S
N284 C287 1.346 . S
N284 C288 1.345 . S
C285 C286 1.387 . S
C285 C289 1.391 . S
C286 C285 1.387 . S
C286 C287 1.369 . S
C286 H295 0.929 . S
C287 N284 1.346 . S
C287 C286 1.369 . S
C287 H290 0.928 . S
C288 N284 1.345 . S
C288 C289 1.371 . S
C288 H291 0.931 . S
C289 C285 1.391 . S
C289 C288 1.371 . S
C289 H296 0.930 . S
H290 C287 0.928 . S
H291 C288 0.931 . S
H292 C268 0.930 . S
H293 C265 0.930 . S
H294 C274 0.930 . S
H295 C286 0.929 . S
H296 C289 0.930 . S
C297 C298 1.351 . S
C297 N300 1.368 . S
C297 H302 0.931 . S
C298 C297 1.351 . S
C298 N299 1.373 . S
C298 H326 0.930 . S
N299 C298 1.373 . S
N299 C301 1.340 . S
N300 C297 1.368 . S
N300 C301 1.321 . S
N300 Co303 2.135 . S
C301 N299 1.340 . S
C301 N300 1.321 . S
C301 H325 0.930 . S
H302 C297 0.931 . S
Co303 N300 2.135 . S
Co303 N306 2.121 . S
Co303 O311 2.055 . S
Co303 O314 2.039 . S
Co303 N317 2.140 . S
C304 O305 1.227 . S
C304 O314 1.265 . S
O305 C304 1.227 . S
N306 Co303 2.121 . S
N306 C308 1.375 . S
N306 C309 1.313 . S
C307 C308 1.338 . S
C307 N310 1.377 . S
C307 H327 0.930 . S
C308 N306 1.375 . S
C308 C307 1.338 . S
C308 H312 0.931 . S
C309 N306 1.313 . S
C309 N310 1.344 . S
C309 H313 0.930 . S
N310 C307 1.377 . S
N310 C309 1.344 . S
O311 Co303 2.055 . S
O311 C315 1.253 . S
H312 C308 0.931 . S
H313 C309 0.930 . S
O314 Co303 2.039 . S
O314 C304 1.265 . S
C315 O311 1.253 . S
C315 O316 1.227 . S
O316 C315 1.227 . S
N317 Co303 2.140 . S
N317 C320 1.346 . S
N317 C321 1.345 . S
C318 C319 1.387 . S
C318 C322 1.391 . S
C319 C318 1.387 . S
C319 C320 1.369 . S
C319 H328 0.929 . S
C320 N317 1.346 . S
C320 C319 1.369 . S
C320 H323 0.928 . S
C321 N317 1.345 . S
C321 C322 1.371 . S
C321 H324 0.931 . S
C322 C318 1.391 . S
C322 C321 1.371 . S
C322 H329 0.930 . S
H323 C320 0.928 . S
H324 C321 0.931 . S
H325 C301 0.930 . S
H326 C298 0.930 . S
H327 C307 0.930 . S
H328 C319 0.929 . S
H329 C322 0.930 . S
C330 C331 1.351 . S
C330 N333 1.368 . S
C330 H335 0.931 . S
C331 C330 1.351 . S
C331 N332 1.373 . S
C331 H359 0.930 . S
N332 C331 1.373 . S
N332 C334 1.340 . S
N333 C330 1.368 . S
N333 C334 1.321 . S
N333 Co336 2.135 . S
C334 N332 1.340 . S
C334 N333 1.321 . S
C334 H358 0.930 . S
H335 C330 0.931 . S
Co336 N333 2.135 . S
Co336 N339 2.121 . S
Co336 O344 2.055 . S
Co336 O347 2.039 . S
Co336 N350 2.140 . S
C337 O338 1.227 . S
C337 O347 1.265 . S
O338 C337 1.227 . S
N339 Co336 2.121 . S
N339 C341 1.375 . S
N339 C342 1.313 . S
C340 C341 1.338 . S
C340 N343 1.377 . S
C340 H360 0.930 . S
C341 N339 1.375 . S
C341 C340 1.338 . S
C341 H345 0.931 . S
C342 N339 1.313 . S
C342 N343 1.344 . S
C342 H346 0.930 . S
N343 C340 1.377 . S
N343 C342 1.344 . S
O344 Co336 2.055 . S
O344 C348 1.253 . S
H345 C341 0.931 . S
H346 C342 0.930 . S
O347 Co336 2.039 . S
O347 C337 1.265 . S
C348 O344 1.253 . S
C348 O349 1.227 . S
O349 C348 1.227 . S
N350 Co336 2.140 . S
N350 C353 1.346 . S
N350 C354 1.345 . S
C351 C352 1.387 . S
C351 C355 1.391 . S
C352 C351 1.387 . S
C352 C353 1.369 . S
C352 H361 0.929 . S
C353 N350 1.346 . S
C353 C352 1.369 . S
C353 H356 0.928 . S
C354 N350 1.345 . S
C354 C355 1.371 . S
C354 H357 0.931 . S
C355 C351 1.391 . S
C355 C354 1.371 . S
C355 H362 0.930 . S
H356 C353 0.928 . S
H357 C354 0.931 . S
H358 C334 0.930 . S
H359 C331 0.930 . S
H360 C340 0.930 . S
H361 C352 0.929 . S
H362 C355 0.930 . S
C363 C364 1.351 . S
C363 N366 1.368 . S
C363 H368 0.931 . S
C364 C363 1.351 . S
C364 N365 1.373 . S
C364 H392 0.930 . S
N365 C364 1.373 . S
N365 C367 1.340 . S
N366 C363 1.368 . S
N366 C367 1.321 . S
N366 Co369 2.135 . S
C367 N365 1.340 . S
C367 N366 1.321 . S
C367 H391 0.930 . S
H368 C363 0.931 . S
Co369 N366 2.135 . S
Co369 N372 2.121 . S
Co369 O377 2.055 . S
Co369 O380 2.039 . S
Co369 N383 2.140 . S
C370 O371 1.227 . S
C370 O380 1.265 . S
O371 C370 1.227 . S
N372 Co369 2.121 . S
N372 C374 1.375 . S
N372 C375 1.313 . S
C373 C374 1.338 . S
C373 N376 1.377 . S
C373 H393 0.930 . S
C374 N372 1.375 . S
C374 C373 1.338 . S
C374 H378 0.931 . S
C375 N372 1.313 . S
C375 N376 1.344 . S
C375 H379 0.930 . S
N376 C373 1.377 . S
N376 C375 1.344 . S
O377 Co369 2.055 . S
O377 C381 1.253 . S
H378 C374 0.931 . S
H379 C375 0.930 . S
O380 Co369 2.039 . S
O380 C370 1.265 . S
C381 O377 1.253 . S
C381 O382 1.227 . S
O382 C381 1.227 . S
N383 Co369 2.140 . S
N383 C386 1.346 . S
N383 C387 1.345 . S
C384 C385 1.387 . S
C384 C388 1.391 . S
C385 C384 1.387 . S
C385 C386 1.369 . S
C385 H394 0.929 . S
C386 N383 1.346 . S
C386 C385 1.369 . S
C386 H389 0.928 . S
C387 N383 1.345 . S
C387 C388 1.371 . S
C387 H390 0.931 . S
C388 C384 1.391 . S
C388 C387 1.371 . S
C388 H395 0.930 . S
H389 C386 0.928 . S
H390 C387 0.931 . S
H391 C367 0.930 . S
H392 C364 0.930 . S
H393 C373 0.930 . S
H394 C385 0.929 . S
H395 C388 0.930 . S
H396 C404 0.950 . S
H397 C409 0.950 . S
H398 C406 0.950 . S
H399 C408 0.950 . S
H400 C410 0.950 . S
H401 C412 0.950 . S
H402 C414 0.950 . S
H403 C415 0.950 . S
C404 H396 0.950 . S
C404 C405 1.386 . S
C404 C406 1.391 . S
C405 C404 1.386 . S
C405 C409 1.393 . S
C406 H398 0.950 . S
C406 C404 1.391 . S
C406 C407 1.400 . S
C407 C406 1.400 . S
C407 C408 1.398 . S
C407 C413 1.491 . S
C408 H399 0.950 . S
C408 C407 1.398 . S
C408 C409 1.391 . S
C409 H397 0.950 . S
C409 C405 1.393 . S
C409 C408 1.391 . S
C410 H400 0.950 . S
C410 C411 1.386 . S
C410 C412 1.391 . S
C411 C410 1.386 . S
C411 C415 1.393 . S
C412 H401 0.950 . S
C412 C410 1.391 . S
C412 C413 1.400 . S
C413 C407 1.491 . S
C413 C412 1.400 . S
C413 C414 1.398 . S
C414 H402 0.950 . S
C414 C413 1.398 . S
C414 C415 1.391 . S
C415 H403 0.950 . S
C415 C411 1.393 . S
C415 C414 1.391 . S
H416 C424 0.950 . S
H417 C429 0.950 1_655 S
H418 C426 0.950 . S
H419 C428 0.950 . S
H420 C430 0.950 . S
H421 C432 0.950 . S
H422 C434 0.950 . S
H423 C435 0.950 1_455 S
C424 H416 0.950 . S
C424 C425 1.386 . S
C424 C426 1.391 . S
C425 C424 1.386 . S
C425 C429 1.393 . S
C426 H418 0.950 . S
C426 C424 1.391 . S
C426 C427 1.400 . S
C427 C426 1.400 . S
C427 C428 1.398 1_455 S
C427 C433 1.491 1_455 S
C428 H419 0.950 . S
C428 C427 1.398 1_655 S
C428 C429 1.391 1_655 S
C429 H417 0.950 1_455 S
C429 C425 1.393 . S
C429 C428 1.391 1_455 S
C430 H420 0.950 . S
C430 C431 1.386 . S
C430 C432 1.391 . S
C431 C430 1.386 . S
C431 C435 1.393 . S
C432 H421 0.950 . S
C432 C430 1.391 . S
C432 C433 1.400 . S
C433 C427 1.491 1_655 S
C433 C432 1.400 . S
C433 C434 1.398 1_655 S
C434 H422 0.950 . S
C434 C433 1.398 1_455 S
C434 C435 1.391 1_455 S
C435 H423 0.950 1_655 S
C435 C431 1.393 . S
C435 C434 1.391 1_655 S
H436 C444 0.950 . S
H437 C449 0.950 . S
H438 C446 0.950 1_565 S
H439 C448 0.950 . S
H440 C450 0.950 . S
H441 C452 0.950 1_545 S
H442 C454 0.950 . S
H443 C455 0.950 . S
C444 H436 0.950 . S
C444 C445 1.386 . S
C444 C446 1.391 . S
C445 C444 1.386 . S
C445 C449 1.393 . S
C446 H438 0.950 1_545 S
C446 C444 1.391 . S
C446 C447 1.400 . S
C447 C446 1.400 . S
C447 C448 1.398 . S
C447 C453 1.491 1_545 S
C448 H439 0.950 . S
C448 C447 1.398 . S
C448 C449 1.391 . S
C449 H437 0.950 . S
C449 C445 1.393 . S
C449 C448 1.391 . S
C450 H440 0.950 . S
C450 C451 1.386 . S
C450 C452 1.391 . S
C451 C450 1.386 . S
C451 C455 1.393 . S
C452 H441 0.950 1_565 S
C452 C450 1.391 . S
C452 C453 1.400 . S
C453 C447 1.491 1_565 S
C453 C452 1.400 . S
C453 C454 1.398 . S
C454 H442 0.950 . S
C454 C453 1.398 . S
C454 C455 1.391 . S
C455 H443 0.950 . S
C455 C451 1.393 . S
C455 C454 1.391 . S
H456 C464 0.950 . S
H457 C469 0.950 . S
H458 C466 0.950 . S
H459 C468 0.950 . S
H460 C470 0.950 . S
H461 C472 0.950 . S
H462 C474 0.950 . S
H463 C475 0.950 . S
C464 H456 0.950 . S
C464 C465 1.386 . S
C464 C466 1.391 . S
C465 C464 1.386 . S
C465 C469 1.393 . S
C466 H458 0.950 . S
C466 C464 1.391 . S
C466 C467 1.400 . S
C467 C466 1.400 . S
C467 C468 1.398 . S
C467 C473 1.491 . S
C468 H459 0.950 . S
C468 C467 1.398 . S
C468 C469 1.391 . S
C469 H457 0.950 . S
C469 C465 1.393 . S
C469 C468 1.391 . S
C470 H460 0.950 . S
C470 C471 1.386 . S
C470 C472 1.391 . S
C471 C470 1.386 . S
C471 C475 1.393 . S
C472 H461 0.950 . S
C472 C470 1.391 . S
C472 C473 1.400 . S
C473 C467 1.491 . S
C473 C472 1.400 . S
C473 C474 1.398 . S
C474 H462 0.950 . S
C474 C473 1.398 . S
C474 C475 1.391 . S
C475 H463 0.950 . S
C475 C471 1.393 . S
C475 C474 1.391 . S
H476 C484 0.950 . S
H477 C489 0.950 1_455 S
H478 C486 0.950 . S
H479 C488 0.950 . S
H480 C490 0.950 . S
H481 C492 0.950 . S
H482 C494 0.950 . S
H483 C495 0.950 1_655 S
C484 H476 0.950 . S
C484 C485 1.386 . S
C484 C486 1.391 . S
C485 C484 1.386 . S
C485 C489 1.393 . S
C486 H478 0.950 . S
C486 C484 1.391 . S
C486 C487 1.400 . S
C487 C486 1.400 . S
C487 C488 1.398 1_655 S
C487 C493 1.491 1_655 S
C488 H479 0.950 . S
C488 C487 1.398 1_455 S
C488 C489 1.391 1_455 S
C489 H477 0.950 1_655 S
C489 C485 1.393 . S
C489 C488 1.391 1_655 S
C490 H480 0.950 . S
C490 C491 1.386 . S
C490 C492 1.391 . S
C491 C490 1.386 . S
C491 C495 1.393 . S
C492 H481 0.950 . S
C492 C490 1.391 . S
C492 C493 1.400 . S
C493 C487 1.491 1_455 S
C493 C492 1.400 . S
C493 C494 1.398 1_455 S
C494 H482 0.950 . S
C494 C493 1.398 1_655 S
C494 C495 1.391 1_655 S
C495 H483 0.950 1_455 S
C495 C491 1.393 . S
C495 C494 1.391 1_455 S
H496 C504 0.950 . S
H497 C509 0.950 . S
H498 C506 0.950 . S
H499 C508 0.950 . S
H500 C510 0.950 . S
H501 C512 0.950 . S
H502 C514 0.950 . S
H503 C515 0.950 . S
C504 H496 0.950 . S
C504 C505 1.386 . S
C504 C506 1.391 1_565 S
C505 C504 1.386 . S
C505 C509 1.393 . S
C506 H498 0.950 . S
C506 C504 1.391 1_545 S
C506 C507 1.400 1_545 S
C507 C506 1.400 1_565 S
C507 C508 1.398 . S
C507 C513 1.491 1_565 S
C508 H499 0.950 . S
C508 C507 1.398 . S
C508 C509 1.391 . S
C509 H497 0.950 . S
C509 C505 1.393 . S
C509 C508 1.391 . S
C510 H500 0.950 . S
C510 C511 1.386 . S
C510 C512 1.391 1_545 S
C511 C510 1.386 . S
C511 C515 1.393 . S
C512 H501 0.950 . S
C512 C510 1.391 1_565 S
C512 C513 1.400 1_565 S
C513 C507 1.491 1_545 S
C513 C512 1.400 1_545 S
C513 C514 1.398 . S
C514 H502 0.950 . S
C514 C513 1.398 . S
C514 C515 1.391 . S
C515 H503 0.950 . S
C515 C511 1.393 . S
C515 C514 1.391 . S
H516 C524 0.950 . S
H517 C529 0.950 . S
H518 C526 0.950 . S
H519 C528 0.950 . S
H520 C530 0.950 . S
H521 C532 0.950 . S
H522 C534 0.950 . S
H523 C535 0.950 . S
C524 H516 0.950 . S
C524 C525 1.386 . S
C524 C526 1.391 . S
C525 C524 1.386 . S
C525 C529 1.393 . S
C526 H518 0.950 . S
C526 C524 1.391 . S
C526 C527 1.400 . S
C527 C526 1.400 . S
C527 C528 1.398 1_565 S
C527 C533 1.491 1_566 S
C528 H519 0.950 . S
C528 C527 1.398 1_545 S
C528 C529 1.391 1_545 S
C529 H517 0.950 . S
C529 C525 1.393 . S
C529 C528 1.391 1_565 S
C530 H520 0.950 . S
C530 C531 1.386 . S
C530 C532 1.391 . S
C531 C530 1.386 . S
C531 C535 1.393 . S
C532 H521 0.950 . S
C532 C530 1.391 . S
C532 C533 1.400 . S
C533 C527 1.491 1_544 S
C533 C532 1.400 . S
C533 C534 1.398 1_545 S
C534 H522 0.950 . S
C534 C533 1.398 1_565 S
C534 C535 1.391 1_565 S
C535 H523 0.950 . S
C535 C531 1.393 . S
C535 C534 1.391 1_545 S
H536 C544 0.950 . S
H537 C549 0.950 . S
H538 C546 0.950 . S
H539 C548 0.950 . S
H540 C550 0.950 . S
H541 C552 0.950 . S
H542 C554 0.950 . S
H543 C555 0.950 . S
C544 H536 0.950 . S
C544 C545 1.386 . S
C544 C546 1.391 . S
C545 C544 1.386 . S
C545 C549 1.393 . S
C546 H538 0.950 . S
C546 C544 1.391 . S
C546 C547 1.400 . S
C547 C546 1.400 . S
C547 C548 1.398 . S
C547 C553 1.491 . S
C548 H539 0.950 . S
C548 C547 1.398 . S
C548 C549 1.391 . S
C549 H537 0.950 . S
C549 C545 1.393 . S
C549 C548 1.391 . S
C550 H540 0.950 . S
C550 C551 1.386 . S
C550 C552 1.391 . S
C551 C550 1.386 . S
C551 C555 1.393 . S
C552 H541 0.950 . S
C552 C550 1.391 . S
C552 C553 1.400 . S
C553 C547 1.491 . S
C553 C552 1.400 . S
C553 C554 1.398 . S
C554 H542 0.950 . S
C554 C553 1.398 . S
C554 C555 1.391 . S
C555 H543 0.950 . S
C555 C551 1.393 . S
C555 C554 1.391 . S
H556 C564 0.950 . S
H557 C569 0.950 1_655 S
H558 C566 0.950 . S
H559 C568 0.950 . S
H560 C570 0.950 . S
H561 C572 0.950 . S
H562 C574 0.950 . S
H563 C575 0.950 1_455 S
C564 H556 0.950 . S
C564 C565 1.386 . S
C564 C566 1.391 . S
C565 C564 1.386 . S
C565 C569 1.393 . S
C566 H558 0.950 . S
C566 C564 1.391 . S
C566 C567 1.400 . S
C567 C566 1.400 . S
C567 C568 1.398 1_455 S
C567 C573 1.491 1_455 S
C568 H559 0.950 . S
C568 C567 1.398 1_655 S
C568 C569 1.391 1_655 S
C569 H557 0.950 1_455 S
C569 C565 1.393 . S
C569 C568 1.391 1_455 S
C570 H560 0.950 . S
C570 C571 1.386 . S
C570 C572 1.391 . S
C571 C570 1.386 . S
C571 C575 1.393 . S
C572 H561 0.950 . S
C572 C570 1.391 . S
C572 C573 1.400 . S
C573 C567 1.491 1_655 S
C573 C572 1.400 . S
C573 C574 1.398 1_655 S
C574 H562 0.950 . S
C574 C573 1.398 1_455 S
C574 C575 1.391 1_455 S
C575 H563 0.950 1_655 S
C575 C571 1.393 . S
C575 C574 1.391 1_655 S
H576 C584 0.950 . S
H577 C589 0.950 . S
H578 C586 0.950 . S
H579 C588 0.950 . S
H580 C590 0.950 . S
H581 C592 0.950 . S
H582 C594 0.950 . S
H583 C595 0.950 . S
C584 H576 0.950 . S
C584 C585 1.386 . S
C584 C586 1.391 1_565 S
C585 C584 1.386 . S
C585 C589 1.393 . S
C586 H578 0.950 . S
C586 C584 1.391 1_545 S
C586 C587 1.400 1_545 S
C587 C586 1.400 1_565 S
C587 C588 1.398 . S
C587 C593 1.491 1_564 S
C588 H579 0.950 . S
C588 C587 1.398 . S
C588 C589 1.391 . S
C589 H577 0.950 . S
C589 C585 1.393 . S
C589 C588 1.391 . S
C590 H580 0.950 . S
C590 C591 1.386 . S
C590 C592 1.391 1_545 S
C591 C590 1.386 . S
C591 C595 1.393 . S
C592 H581 0.950 . S
C592 C590 1.391 1_565 S
C592 C593 1.400 1_565 S
C593 C587 1.491 1_546 S
C593 C592 1.400 1_545 S
C593 C594 1.398 . S
C594 H582 0.950 . S
C594 C593 1.398 . S
C594 C595 1.391 . S
C595 H583 0.950 . S
C595 C591 1.393 . S
C595 C594 1.391 . S
H596 C604 0.950 . S
H597 C609 0.950 . S
H598 C606 0.950 . S
H599 C608 0.950 . S
H600 C610 0.950 . S
H601 C612 0.950 . S
H602 C614 0.950 . S
H603 C615 0.950 . S
C604 H596 0.950 . S
C604 C605 1.386 . S
C604 C606 1.391 . S
C605 C604 1.386 . S
C605 C609 1.393 . S
C606 H598 0.950 . S
C606 C604 1.391 . S
C606 C607 1.400 . S
C607 C606 1.400 . S
C607 C608 1.398 . S
C607 C613 1.491 . S
C608 H599 0.950 . S
C608 C607 1.398 . S
C608 C609 1.391 . S
C609 H597 0.950 . S
C609 C605 1.393 . S
C609 C608 1.391 . S
C610 H600 0.950 . S
C610 C611 1.386 . S
C610 C612 1.391 . S
C611 C610 1.386 . S
C611 C615 1.393 . S
C612 H601 0.950 . S
C612 C610 1.391 . S
C612 C613 1.400 . S
C613 C607 1.491 . S
C613 C612 1.400 . S
C613 C614 1.398 . S
C614 H602 0.950 . S
C614 C613 1.398 . S
C614 C615 1.391 . S
C615 H603 0.950 . S
C615 C611 1.393 . S
C615 C614 1.391 . S
H616 C624 0.950 . S
H617 C629 0.950 . S
H618 C626 0.950 . S
H619 C628 0.950 . S
H620 C630 0.950 . S
H621 C632 0.950 . S
H622 C634 0.950 . S
H623 C635 0.950 . S
C624 H616 0.950 . S
C624 C625 1.386 . S
C624 C626 1.391 . S
C625 C624 1.386 . S
C625 C629 1.393 . S
C626 H618 0.950 . S
C626 C624 1.391 . S
C626 C627 1.400 . S
C627 C626 1.400 . S
C627 C628 1.398 1_455 S
C627 C633 1.491 1_455 S
C628 H619 0.950 . S
C628 C627 1.398 1_655 S
C628 C629 1.391 1_655 S
C629 H617 0.950 . S
C629 C625 1.393 . S
C629 C628 1.391 1_455 S
C630 H620 0.950 . S
C630 C631 1.386 . S
C630 C632 1.391 . S
C631 C630 1.386 . S
C631 C635 1.393 . S
C632 H621 0.950 . S
C632 C630 1.391 . S
C632 C633 1.400 . S
C633 C627 1.491 1_655 S
C633 C632 1.400 . S
C633 C634 1.398 1_655 S
C634 H622 0.950 . S
C634 C633 1.398 1_455 S
C634 C635 1.391 1_455 S
C635 H623 0.950 . S
C635 C631 1.393 . S
C635 C634 1.391 1_655 S
H636 C644 0.950 . S
H637 C649 0.950 . S
H638 C646 0.950 1_565 S
H639 C648 0.950 . S
H640 C650 0.950 . S
H641 C652 0.950 1_545 S
H642 C654 0.950 . S
H643 C655 0.950 . S
C644 H636 0.950 . S
C644 C645 1.386 . S
C644 C646 1.391 . S
C645 C644 1.386 . S
C645 C649 1.393 . S
C646 H638 0.950 1_545 S
C646 C644 1.391 . S
C646 C647 1.400 . S
C647 C646 1.400 . S
C647 C648 1.398 . S
C647 C653 1.491 1_445 S
C648 H639 0.950 . S
C648 C647 1.398 . S
C648 C649 1.391 . S
C649 H637 0.950 . S
C649 C645 1.393 . S
C649 C648 1.391 . S
C650 H640 0.950 . S
C650 C651 1.386 . S
C650 C652 1.391 . S
C651 C650 1.386 . S
C651 C655 1.393 . S
C652 H641 0.950 1_565 S
C652 C650 1.391 . S
C652 C653 1.400 . S
C653 C647 1.491 1_665 S
C653 C652 1.400 . S
C653 C654 1.398 . S
C654 H642 0.950 . S
C654 C653 1.398 . S
C654 C655 1.391 . S
C655 H643 0.950 . S
C655 C651 1.393 . S
C655 C654 1.391 . S
H656 C664 0.950 . S
H657 C669 0.950 . S
H658 C666 0.950 . S
H659 C668 0.950 . S
H660 C670 0.950 . S
H661 C672 0.950 . S
H662 C674 0.950 . S
H663 C675 0.950 . S
C664 H656 0.950 . S
C664 C665 1.386 1_655 S
C664 C666 1.391 . S
C665 C664 1.386 1_455 S
C665 C669 1.393 . S
C666 H658 0.950 . S
C666 C664 1.391 . S
C666 C667 1.400 1_655 S
C667 C666 1.400 1_455 S
C667 C668 1.398 . S
C667 C673 1.491 1_445 S
C668 H659 0.950 . S
C668 C667 1.398 . S
C668 C669 1.391 . S
C669 H657 0.950 . S
C669 C665 1.393 . S
C669 C668 1.391 . S
C670 H660 0.950 . S
C670 C671 1.386 1_455 S
C670 C672 1.391 . S
C671 C670 1.386 1_655 S
C671 C675 1.393 . S
C672 H661 0.950 . S
C672 C670 1.391 . S
C672 C673 1.400 1_455 S
C673 C667 1.491 1_665 S
C673 C672 1.400 1_655 S
C673 C674 1.398 . S
C674 H662 0.950 . S
C674 C673 1.398 . S
C674 C675 1.391 . S
C675 H663 0.950 . S
C675 C671 1.393 . S
C675 C674 1.391 . S
H676 C684 0.950 . S
H677 C689 0.950 . S
H678 C686 0.950 1_455 S
H679 C688 0.950 . S
H680 C690 0.950 . S
H681 C692 0.950 1_655 S
H682 C694 0.950 . S
H683 C695 0.950 . S
C684 H676 0.950 . S
C684 C685 1.386 . S
C684 C686 1.391 . S
C685 C684 1.386 . S
C685 C689 1.393 1_545 S
C686 H678 0.950 1_655 S
C686 C684 1.391 . S
C686 C687 1.400 . S
C687 C686 1.400 . S
C687 C688 1.398 1_545 S
C687 C693 1.491 1_645 S
C688 H679 0.950 . S
C688 C687 1.398 1_565 S
C688 C689 1.391 . S
C689 H677 0.950 . S
C689 C685 1.393 1_565 S
C689 C688 1.391 . S
C690 H680 0.950 . S
C690 C691 1.386 . S
C690 C692 1.391 . S
C691 C690 1.386 . S
C691 C695 1.393 1_565 S
C692 H681 0.950 1_455 S
C692 C690 1.391 . S
C692 C693 1.400 . S
C693 C687 1.491 1_465 S
C693 C692 1.400 . S
C693 C694 1.398 1_565 S
C694 H682 0.950 . S
C694 C693 1.398 1_545 S
C694 C695 1.391 . S
C695 H683 0.950 . S
C695 C691 1.393 1_545 S
C695 C694 1.391 . S
H696 C704 0.950 . S
H697 C709 0.950 . S
H698 C706 0.950 . S
H699 C708 0.950 1_455 S
H700 C710 0.950 . S
H701 C712 0.950 . S
H702 C714 0.950 1_655 S
H703 C715 0.950 . S
C704 H696 0.950 . S
C704 C705 1.386 . S
C704 C706 1.391 . S
C705 C704 1.386 . S
C705 C709 1.393 . S
C706 H698 0.950 . S
C706 C704 1.391 . S
C706 C707 1.400 . S
C707 C706 1.400 . S
C707 C708 1.398 . S
C707 C713 1.491 1_665 S
C708 H699 0.950 1_655 S
C708 C707 1.398 . S
C708 C709 1.391 . S
C709 H697 0.950 . S
C709 C705 1.393 . S
C709 C708 1.391 . S
C710 H700 0.950 . S
C710 C711 1.386 . S
C710 C712 1.391 . S
C711 C710 1.386 . S
C711 C715 1.393 . S
C712 H701 0.950 . S
C712 C710 1.391 . S
C712 C713 1.400 . S
C713 C707 1.491 1_445 S
C713 C712 1.400 . S
C713 C714 1.398 . S
C714 H702 0.950 1_455 S
C714 C713 1.398 . S
C714 C715 1.391 . S
C715 H703 0.950 . S
C715 C711 1.393 . S
C715 C714 1.391 . S
H716 C724 0.950 1_655 S
H717 C729 0.950 . S
H718 C726 0.950 . S
H719 C728 0.950 1_545 S
H720 C730 0.950 1_455 S
H721 C732 0.950 . S
H722 C734 0.950 1_565 S
H723 C735 0.950 . S
C724 H716 0.950 1_455 S
C724 C725 1.386 . S
C724 C726 1.391 1_455 S
C725 C724 1.386 . S
C725 C729 1.393 . S
C726 H718 0.950 . S
C726 C724 1.391 1_655 S
C726 C727 1.400 1_655 S
C727 C726 1.400 1_455 S
C727 C728 1.398 . S
C727 C733 1.491 1_465 S
C728 H719 0.950 1_565 S
C728 C727 1.398 . S
C728 C729 1.391 . S
C729 H717 0.950 . S
C729 C725 1.393 . S
C729 C728 1.391 . S
C730 H720 0.950 1_655 S
C730 C731 1.386 . S
C730 C732 1.391 1_655 S
C731 C730 1.386 . S
C731 C735 1.393 . S
C732 H721 0.950 . S
C732 C730 1.391 1_455 S
C732 C733 1.400 1_455 S
C733 C727 1.491 1_645 S
C733 C732 1.400 1_655 S
C733 C734 1.398 . S
C734 H722 0.950 1_545 S
C734 C733 1.398 . S
C734 C735 1.391 . S
C735 H723 0.950 . S
C735 C731 1.393 . S
C735 C734 1.391 . S
H736 C744 0.950 . S
H737 C749 0.950 . S
H738 C746 0.950 . S
H739 C748 0.950 . S
H740 C750 0.950 . S
H741 C752 0.950 . S
H742 C754 0.950 . S
H743 C755 0.950 . S
C744 H736 0.950 . S
C744 C745 1.386 . S
C744 C746 1.391 . S
C745 C744 1.386 . S
C745 C749 1.393 . S
C746 H738 0.950 . S
C746 C744 1.391 . S
C746 C747 1.400 . S
C747 C746 1.400 . S
C747 C748 1.398 1_545 S
C747 C753 1.491 1_445 S
C748 H739 0.950 . S
C748 C747 1.398 1_565 S
C748 C749 1.391 1_565 S
C749 H737 0.950 . S
C749 C745 1.393 . S
C749 C748 1.391 1_545 S
C750 H740 0.950 . S
C750 C751 1.386 . S
C750 C752 1.391 . S
C751 C750 1.386 . S
C751 C755 1.393 . S
C752 H741 0.950 . S
C752 C750 1.391 . S
C752 C753 1.400 . S
C753 C747 1.491 1_665 S
C753 C752 1.400 . S
C753 C754 1.398 1_565 S
C754 H742 0.950 . S
C754 C753 1.398 1_545 S
C754 C755 1.391 1_545 S
C755 H743 0.950 . S
C755 C751 1.393 . S
C755 C754 1.391 1_565 S
H756 C764 0.950 . S
H757 C769 0.950 . S
H758 C766 0.950 1_554 S
H759 C768 0.950 . S
H760 C770 0.950 . S
H761 C772 0.950 1_556 S
H762 C774 0.950 . S
H763 C775 0.950 . S
C764 H756 0.950 . S
C764 C765 1.386 1_655 S
C764 C766 1.391 1_655 S
C765 C764 1.386 1_455 S
C765 C769 1.393 . S
C766 H758 0.950 1_556 S
C766 C764 1.391 1_455 S
C766 C767 1.400 . S
C767 C766 1.400 . S
C767 C768 1.398 . S
C767 C773 1.491 1_556 S
C768 H759 0.950 . S
C768 C767 1.398 . S
C768 C769 1.391 . S
C769 H757 0.950 . S
C769 C765 1.393 . S
C769 C768 1.391 . S
C770 H760 0.950 . S
C770 C771 1.386 . S
C770 C772 1.391 . S
C771 C770 1.386 . S
C771 C775 1.393 . S
C772 H761 0.950 1_554 S
C772 C770 1.391 . S
C772 C773 1.400 . S
C773 C767 1.491 1_554 S
C773 C772 1.400 . S
C773 C774 1.398 . S
C774 H762 0.950 . S
C774 C773 1.398 . S
C774 C775 1.391 . S
C775 H763 0.950 . S
C775 C771 1.393 . S
C775 C774 1.391 . S
H776 C784 0.950 . S
H777 C789 0.950 . S
H778 C786 0.950 . S
H779 C788 0.950 . S
H780 C790 0.950 . S
H781 C792 0.950 . S
H782 C794 0.950 . S
H783 C795 0.950 1_565 S
C784 H776 0.950 . S
C784 C785 1.386 . S
C784 C786 1.391 . S
C785 C784 1.386 . S
C785 C789 1.393 1_655 S
C786 H778 0.950 . S
C786 C784 1.391 . S
C786 C787 1.400 . S
C787 C786 1.400 . S
C787 C788 1.398 . S
C787 C793 1.491 . S
C788 H779 0.950 . S
C788 C787 1.398 . S
C788 C789 1.391 1_655 S
C789 H777 0.950 . S
C789 C785 1.393 1_455 S
C789 C788 1.391 1_455 S
C790 H780 0.950 . S
C790 C791 1.386 . S
C790 C792 1.391 . S
C791 C790 1.386 . S
C791 C795 1.393 . S
C792 H781 0.950 . S
C792 C790 1.391 . S
C792 C793 1.400 . S
C793 C787 1.491 . S
C793 C792 1.400 . S
C793 C794 1.398 . S
C794 H782 0.950 . S
C794 C793 1.398 . S
C794 C795 1.391 . S
C795 H783 0.950 1_545 S
C795 C791 1.393 . S
C795 C794 1.391 . S
H796 C804 0.950 . S
H797 C809 0.950 . S
H798 C806 0.950 . S
H799 C808 0.950 . S
H800 C810 0.950 . S
H801 C812 0.950 . S
H802 C814 0.950 . S
H803 C815 0.950 . S
C804 H796 0.950 . S
C804 C805 1.386 . S
C804 C806 1.391 . S
C805 C804 1.386 . S
C805 C809 1.393 . S
C806 H798 0.950 . S
C806 C804 1.391 . S
C806 C807 1.400 . S
C807 C806 1.400 . S
C807 C808 1.398 . S
C807 C813 1.491 . S
C808 H799 0.950 . S
C808 C807 1.398 . S
C808 C809 1.391 . S
C809 H797 0.950 . S
C809 C805 1.393 . S
C809 C808 1.391 . S
C810 H800 0.950 . S
C810 C811 1.386 . S
C810 C812 1.391 . S
C811 C810 1.386 . S
C811 C815 1.393 1_565 S
C812 H801 0.950 . S
C812 C810 1.391 . S
C812 C813 1.400 . S
C813 C807 1.491 . S
C813 C812 1.400 . S
C813 C814 1.398 . S
C814 H802 0.950 . S
C814 C813 1.398 . S
C814 C815 1.391 1_565 S
C815 H803 0.950 . S
C815 C811 1.393 1_545 S
C815 C814 1.391 1_545 S
H816 C824 0.950 . S
H817 C829 0.950 . S
H818 C826 0.950 . S
H819 C828 0.982 . S
H820 C830 0.950 . S
H821 C832 0.950 . S
H822 C834 0.982 . S
H823 C835 0.938 1_455 S
C824 H816 0.950 . S
C824 C825 1.386 . S
C824 C826 1.391 . S
C825 C824 1.386 . S
C825 C829 1.393 . S
C826 H818 0.950 . S
C826 C824 1.391 . S
C826 C827 1.400 . S
C827 C826 1.400 . S
C827 C828 1.388 1_554 S
C827 C833 1.491 1_554 S
C828 H819 0.982 . S
C828 C827 1.388 1_556 S
C828 C829 1.371 1_556 S
C829 H817 0.950 . S
C829 C825 1.393 . S
C829 C828 1.371 1_554 S
C830 H820 0.950 . S
C830 C831 1.386 . S
C830 C832 1.391 . S
C831 C830 1.386 . S
C831 C835 1.393 . S
C832 H821 0.950 . S
C832 C830 1.391 . S
C832 C833 1.400 . S
C833 C827 1.491 1_556 S
C833 C832 1.400 . S
C833 C834 1.387 1_556 S
C834 H822 0.982 . S
C834 C833 1.387 1_554 S
C834 C835 1.371 1_554 S
C835 H823 0.938 1_655 S
C835 C831 1.393 . S
C835 C834 1.371 1_556 S
H836 C844 0.950 . S
H837 C849 0.950 . S
H838 C846 0.950 . S
H839 C848 0.950 . S
H840 C850 0.950 . S
H841 C852 0.950 . S
H842 C854 0.950 . S
H843 C855 0.950 . S
C844 H836 0.950 . S
C844 C845 1.386 . S
C844 C846 1.391 . S
C845 C844 1.386 . S
C845 C849 1.393 1_565 S
C846 H838 0.950 . S
C846 C844 1.391 . S
C846 C847 1.400 . S
C847 C846 1.400 . S
C847 C848 1.398 . S
C847 C853 1.491 . S
C848 H839 0.950 . S
C848 C847 1.398 . S
C848 C849 1.391 1_565 S
C849 H837 0.950 . S
C849 C845 1.393 1_545 S
C849 C848 1.391 1_545 S
C850 H840 0.950 . S
C850 C851 1.386 . S
C850 C852 1.391 . S
C851 C850 1.386 . S
C851 C855 1.393 . S
C852 H841 0.950 . S
C852 C850 1.391 . S
C852 C853 1.400 . S
C853 C847 1.491 . S
C853 C852 1.400 . S
C853 C854 1.398 . S
C854 H842 0.950 . S
C854 C853 1.398 . S
C854 C855 1.391 . S
C855 H843 0.950 . S
C855 C851 1.393 . S
C855 C854 1.391 . S
H856 C864 0.950 . S
H857 C869 0.950 . S
H858 C866 0.950 . S
H859 C868 0.950 . S
H860 C870 0.950 . S
H861 C872 0.950 . S
H862 C874 0.950 . S
H863 C875 0.950 . S
C864 H856 0.950 . S
C864 C865 1.386 . S
C864 C866 1.391 . S
C865 C864 1.386 . S
C865 C869 1.393 1_545 S
C866 H858 0.950 . S
C866 C864 1.391 . S
C866 C867 1.400 . S
C867 C866 1.400 . S
C867 C868 1.398 . S
C867 C873 1.491 . S
C868 H859 0.950 . S
C868 C867 1.398 . S
C868 C869 1.391 1_545 S
C869 H857 0.950 . S
C869 C865 1.393 1_565 S
C869 C868 1.391 1_565 S
C870 H860 0.950 . S
C870 C871 1.386 . S
C870 C872 1.391 . S
C871 C870 1.386 . S
C871 C875 1.393 . S
C872 H861 0.950 . S
C872 C870 1.391 . S
C872 C873 1.400 . S
C873 C867 1.491 . S
C873 C872 1.400 . S
C873 C874 1.398 . S
C874 H862 0.950 . S
C874 C873 1.398 . S
C874 C875 1.391 . S
C875 H863 0.950 . S
C875 C871 1.393 . S
C875 C874 1.391 . S
H876 C884 0.950 . S
H877 C889 0.950 . S
H878 C886 0.950 . S
H879 C888 0.950 . S
H880 C890 0.950 . S
H881 C892 0.950 . S
H882 C894 0.950 . S
H883 C895 0.950 . S
C884 H876 0.950 . S
C884 C885 1.386 . S
C884 C886 1.391 . S
C885 C884 1.386 . S
C885 C889 1.393 . S
C886 H878 0.950 . S
C886 C884 1.391 . S
C886 C887 1.400 . S
C887 C886 1.400 . S
C887 C888 1.398 . S
C887 C893 1.491 . S
C888 H879 0.950 . S
C888 C887 1.398 . S
C888 C889 1.391 . S
C889 H877 0.950 . S
C889 C885 1.393 . S
C889 C888 1.391 . S
C890 H880 0.950 . S
C890 C891 1.386 . S
C890 C892 1.391 . S
C891 C890 1.386 . S
C891 C895 1.393 . S
C892 H881 0.950 . S
C892 C890 1.391 . S
C892 C893 1.400 . S
C893 C887 1.491 . S
C893 C892 1.400 . S
C893 C894 1.398 . S
C894 H882 0.950 . S
C894 C893 1.398 . S
C894 C895 1.391 . S
C895 H883 0.950 . S
C895 C891 1.393 . S
C895 C894 1.391 . S
H896 C904 0.950 . S
H897 C909 0.950 . S
H898 C906 0.950 . S
H899 C908 0.950 . S
H900 C910 0.950 . S
H901 C912 0.950 . S
H902 C914 0.950 . S
H903 C915 0.950 . S
C904 H896 0.950 . S
C904 C905 1.386 . S
C904 C906 1.391 . S
C905 C904 1.386 . S
C905 C909 1.393 . S
C906 H898 0.950 . S
C906 C904 1.391 . S
C906 C907 1.400 . S
C907 C906 1.400 . S
C907 C908 1.398 . S
C907 C913 1.491 . S
C908 H899 0.950 . S
C908 C907 1.398 . S
C908 C909 1.391 . S
C909 H897 0.950 . S
C909 C905 1.393 . S
C909 C908 1.391 . S
C910 H900 0.950 . S
C910 C911 1.386 . S
C910 C912 1.391 . S
C911 C910 1.386 . S
C911 C915 1.393 . S
C912 H901 0.950 . S
C912 C910 1.391 . S
C912 C913 1.400 . S
C913 C907 1.491 . S
C913 C912 1.400 . S
C913 C914 1.398 . S
C914 H902 0.950 . S
C914 C913 1.398 . S
C914 C915 1.391 . S
C915 H903 0.950 . S
C915 C911 1.393 . S
C915 C914 1.391 . S
H916 C924 0.950 . S
H917 C929 0.950 . S
H918 C926 0.950 . S
H919 C928 0.950 . S
H920 C930 0.950 . S
H921 C932 0.950 . S
H922 C934 0.950 . S
H923 C935 0.950 . S
C924 H916 0.950 . S
C924 C925 1.386 . S
C924 C926 1.391 . S
C925 C924 1.386 . S
C925 C929 1.393 . S
C926 H918 0.950 . S
C926 C924 1.391 . S
C926 C927 1.400 . S
C927 C926 1.400 . S
C927 C928 1.398 . S
C927 C933 1.491 . S
C928 H919 0.950 . S
C928 C927 1.398 . S
C928 C929 1.391 . S
C929 H917 0.950 . S
C929 C925 1.393 . S
C929 C928 1.391 . S
C930 H920 0.950 . S
C930 C931 1.386 . S
C930 C932 1.391 . S
C931 C930 1.386 . S
C931 C935 1.393 . S
C932 H921 0.950 . S
C932 C930 1.391 . S
C932 C933 1.400 . S
C933 C927 1.491 . S
C933 C932 1.400 . S
C933 C934 1.398 . S
C934 H922 0.950 . S
C934 C933 1.398 . S
C934 C935 1.391 . S
C935 H923 0.950 . S
C935 C931 1.393 . S
C935 C934 1.391 . S
H936 C944 0.950 . S
H937 C949 0.950 . S
H938 C946 0.950 . S
H939 C948 0.950 . S
H940 C950 0.950 . S
H941 C952 0.950 . S
H942 C954 0.950 . S
H943 C955 0.950 . S
C944 H936 0.950 . S
C944 C945 1.386 . S
C944 C946 1.391 . S
C945 C944 1.386 . S
C945 C949 1.393 . S
C946 H938 0.950 . S
C946 C944 1.391 . S
C946 C947 1.400 . S
C947 C946 1.400 . S
C947 C948 1.398 . S
C947 C953 1.491 . S
C948 H939 0.950 . S
C948 C947 1.398 . S
C948 C949 1.391 . S
C949 H937 0.950 . S
C949 C945 1.393 . S
C949 C948 1.391 . S
C950 H940 0.950 . S
C950 C951 1.386 . S
C950 C952 1.391 . S
C951 C950 1.386 . S
C951 C955 1.393 . S
C952 H941 0.950 . S
C952 C950 1.391 . S
C952 C953 1.400 . S
C953 C947 1.491 . S
C953 C952 1.400 . S
C953 C954 1.398 . S
C954 H942 0.950 . S
C954 C953 1.398 . S
C954 C955 1.391 . S
C955 H943 0.950 . S
C955 C951 1.393 . S
C955 C954 1.391 . S
H956 C964 0.950 . S
H957 C969 0.950 . S
H958 C966 0.950 . S
H959 C968 0.950 . S
H960 C970 0.950 . S
H961 C972 0.950 . S
H962 C974 0.950 . S
H963 C975 0.950 . S
C964 H956 0.950 . S
C964 C965 1.386 . S
C964 C966 1.391 . S
C965 C964 1.386 . S
C965 C969 1.393 . S
C966 H958 0.950 . S
C966 C964 1.391 . S
C966 C967 1.400 . S
C967 C966 1.400 . S
C967 C968 1.398 . S
C967 C973 1.491 . S
C968 H959 0.950 . S
C968 C967 1.398 . S
C968 C969 1.391 . S
C969 H957 0.950 . S
C969 C965 1.393 . S
C969 C968 1.391 . S
C970 H960 0.950 . S
C970 C971 1.386 . S
C970 C972 1.391 . S
C971 C970 1.386 . S
C971 C975 1.393 . S
C972 H961 0.950 . S
C972 C970 1.391 . S
C972 C973 1.400 . S
C973 C967 1.491 . S
C973 C972 1.400 . S
C973 C974 1.398 . S
C974 H962 0.950 . S
C974 C973 1.398 . S
C974 C975 1.391 . S
C975 H963 0.950 . S
C975 C971 1.393 . S
C975 C974 1.391 . S
H976 C984 0.950 . S
H977 C989 0.950 . S
H978 C986 0.950 . S
H979 C988 0.950 . S
H980 C990 0.950 . S
H981 C992 0.950 . S
H982 C994 0.950 . S
H983 C995 0.950 . S
C984 H976 0.950 . S
C984 C985 1.386 . S
C984 C986 1.391 . S
C985 C984 1.386 . S
C985 C989 1.393 . S
C986 H978 0.950 . S
C986 C984 1.391 . S
C986 C987 1.400 . S
C987 C986 1.400 . S
C987 C988 1.398 . S
C987 C993 1.491 . S
C988 H979 0.950 . S
C988 C987 1.398 . S
C988 C989 1.391 . S
C989 H977 0.950 . S
C989 C985 1.393 . S
C989 C988 1.391 . S
C990 H980 0.950 . S
C990 C991 1.386 . S
C990 C992 1.391 . S
C991 C990 1.386 . S
C991 C995 1.393 . S
C992 H981 0.950 . S
C992 C990 1.391 . S
C992 C993 1.400 . S
C993 C987 1.491 . S
C993 C992 1.400 . S
C993 C994 1.398 . S
C994 H982 0.950 . S
C994 C993 1.398 . S
C994 C995 1.391 . S
C995 H983 0.950 . S
C995 C991 1.393 . S
C995 C994 1.391 . S
C405 C117 1.519 . S
C411 C18 1.512 . S
C425 C51 1.511 . S
C431 C150 1.520 . S
C445 C84 1.520 . S
C451 C183 1.518 . S
C465 C216 1.521 . S
C471 C315 1.512 . S
C485 C348 1.511 . S
C491 C249 1.519 . S
C505 C381 1.519 . S
C511 C282 1.511 . S
C525 C252 0.763 . S
C531 C21 0.711 . S
C545 C54 0.726 . S
C551 C285 0.739 . S
C565 C318 0.778 . S
C571 C87 0.716 . S
C585 C120 0.716 . S
C591 C351 0.753 . S
C605 C384 0.749 . S
C611 C153 0.767 . S
C625 C186 0.765 . S
C631 C219 0.710 . S
C645 C7 1.110 . S
C651 C106 1.083 . S
C665 C40 1.087 . S
C671 C139 1.116 . S
C685 C73 1.116 . S
C691 C172 1.090 . S
C705 C205 1.087 . S
C711 C304 1.116 . S
C725 C238 1.085 . S
C731 C337 1.106 . S
C745 C271 1.105 . S
C751 C370 1.085 . S
C765 N332 0.818 1_455 S
C771 N2 0.804 . S
C785 N35 0.817 1_655 S
C791 N365 0.835 1_545 S
C805 N200 0.806 . S
C811 N68 0.813 1_565 S
C825 N101 0.817 . S
C831 N233 0.835 1_655 S
C845 N266 0.821 1_565 S
C851 N134 0.834 1_455 S
C865 N167 0.821 1_545 S
C871 N299 0.835 . S
C885 N13 1.781 . S
C891 N277 1.754 . S
C905 N46 1.770 . S
C911 N310 1.758 . S
C925 N343 1.775 . S
C931 N79 1.769 . S
C945 N376 1.760 . S
C951 N112 1.768 . S
C965 N145 1.773 . S
C971 N211 1.758 . S
C985 N178 1.768 . S
C991 N244 1.761 . S
