# Generated by pormake.
# Topology utk, (3)-cn, num edge types: 1
# Building blocks:
#     Node 0, Type 0, BuildingBlock: WUSLED_clean_sbu_0, # of connection points: 3
#     Node 1, Type 0, BuildingBlock: WUSLED_clean_sbu_0, # of connection points: 3
#     Node 2, Type 0, BuildingBlock: WUSLED_clean_sbu_0, # of connection points: 3
#     Node 3, Type 0, BuildingBlock: WUSLED_clean_sbu_0, # of connection points: 3
#     Node 4, Type 0, BuildingBlock: WUSLED_clean_sbu_0, # of connection points: 3
#     Node 5, Type 0, BuildingBlock: WUSLED_clean_sbu_0, # of connection points: 3
#     Node 6, Type 0, BuildingBlock: WUSLED_clean_sbu_0, # of connection points: 3
#     Node 7, Type 0, BuildingBlock: WUSLED_clean_sbu_0, # of connection points: 3
#     Edge 8, Type (0, 0), BuildingBlock: FUNLAD_clean_linker_1, # of connection points: 2
#     Edge 9, Type (0, 0), BuildingBlock: FUNLAD_clean_linker_1, # of connection points: 2
#     Edge 10, Type (0, 0), BuildingBlock: FUNLAD_clean_linker_1, # of connection points: 2
#     Edge 11, Type (0, 0), BuildingBlock: FUNLAD_clean_linker_1, # of connection points: 2
#     Edge 12, Type (0, 0), BuildingBlock: FUNLAD_clean_linker_1, # of connection points: 2
#     Edge 13, Type (0, 0), BuildingBlock: FUNLAD_clean_linker_1, # of connection points: 2
#     Edge 14, Type (0, 0), BuildingBlock: FUNLAD_clean_linker_1, # of connection points: 2
#     Edge 15, Type (0, 0), BuildingBlock: FUNLAD_clean_linker_1, # of connection points: 2
#     Edge 16, Type (0, 0), BuildingBlock: FUNLAD_clean_linker_1, # of connection points: 2
#     Edge 17, Type (0, 0), BuildingBlock: FUNLAD_clean_linker_1, # of connection points: 2
#     Edge 18, Type (0, 0), BuildingBlock: FUNLAD_clean_linker_1, # of connection points: 2
#     Edge 19, Type (0, 0), BuildingBlock: FUNLAD_clean_linker_1, # of connection points: 2
# Relax obj value: 0.069
# Max RMSD: 0.071
# Mean RMSD: 0.071
data_MOF--net-utk--node1-WUSLED_clean_sbu_0--edge1-FUNLAD_clean_linker_1
_symmetry_space_group_name_H-M    P1
_symmetry_Int_Tables_number       1
_symmetry_cell_setting            triclinic
loop_
_symmetry_equiv_pos_as_xyz
'x, y, z'
_cell_length_a     48.091914
_cell_length_b     47.808988
_cell_length_c     52.096523
_cell_angle_alpha  89.91205
_cell_angle_beta   89.850218
_cell_angle_gamma 90.497721
loop_
_atom_site_label
_atom_site_type_symbol
_atom_site_fract_x
_atom_site_fract_y
_atom_site_fract_z
_atom_type_partial_charge
C0 C 0.03511 0.29312 0.16773 0.0
C1 C 1.01372 0.30132 0.15122 0.0
C2 C 0.03356 0.27358 0.11664 0.0
C3 C 1.01292 0.29172 0.12592 0.0
C4 C 0.0547 0.265 0.13341 0.0
C5 C 0.05539 0.27452 0.15881 0.0
U6 U 0.05244 0.29227 0.23999 0.0
O7 O 0.04466 0.24842 0.25099 0.0
O8 O 0.08691 0.2624 0.24105 0.0
C9 C 0.07123 0.24218 0.25046 0.0
C10 C 0.03674 0.30579 0.19343 0.0
C11 C 0.08198 0.22895 0.27385 0.0
C12 C 0.10076 0.18824 0.29544 0.0
C13 C 0.08969 0.20078 0.27348 0.0
C14 C 0.09604 0.23192 0.31851 0.0
C15 C 0.1045 0.20386 0.31814 0.0
C16 C 0.08497 0.2444 0.29654 0.0
C17 C 0.04157 0.35955 0.27705 0.0
C18 C 0.04104 0.40423 0.29907 0.0
C19 C 1.02071 0.40001 0.25673 0.0
C20 C 0.02779 0.3717 0.25616 0.0
C21 C 0.02764 0.41669 0.27798 0.0
C22 C 0.048 0.3759 0.29853 0.0
C23 C 0.04998 0.33011 0.27632 0.0
O24 O 0.06188 0.31064 0.20232 0.0
O25 O 1.01949 0.29574 0.21083 0.0
O26 O 0.0299 0.31192 0.27193 0.0
O27 O 0.07261 0.32521 0.26295 0.0
H28 H 0.99804 0.31586 0.1577 0.0
H29 H 0.99676 0.29957 0.11352 0.0
H30 H 0.07096 0.25124 0.12673 0.0
H31 H 0.07213 0.26791 0.17124 0.0
H32 H 0.10612 0.16636 0.29449 0.0
H33 H 0.08725 0.18849 0.25616 0.0
H34 H 0.09842 0.24439 0.33572 0.0
H35 H 0.07897 0.26619 0.29718 0.0
H36 H 0.04591 0.41611 0.31616 0.0
H37 H 1.01019 0.409 0.24034 0.0
H38 H 1.02271 0.35933 0.23937 0.0
H39 H 0.0585 0.36678 0.31486 0.0
C40 C 0.75816 0.03031 0.42037 0.0
C41 C 0.74338 1.01679 0.40082 0.0
C42 C 0.78138 1.02573 0.3708 0.0
C43 C 0.75488 1.01438 0.37627 0.0
C44 C 0.79645 0.03857 0.39072 0.0
C45 C 0.78489 0.04097 0.41531 0.0
U46 U 0.75986 0.05218 0.49105 0.0
O47 O 0.80322 0.04386 0.50201 0.0
O48 O 0.79122 0.08581 0.48931 0.0
C49 C 0.81062 0.07028 0.49967 0.0
C50 C 0.74505 0.03365 0.44565 0.0
C51 C 0.82425 0.08263 0.52224 0.0
C52 C 0.86588 0.10041 0.54311 0.0
C53 C 0.85302 0.08743 0.52215 0.0
C54 C 0.82125 0.10363 0.56456 0.0
C55 C 0.85006 0.10875 0.56456 0.0
C56 C 0.80846 0.09054 0.54366 0.0
C57 C 0.69348 0.04663 0.53107 0.0
C58 C 0.65286 0.04123 0.55836 0.0
C59 C 0.64868 0.03462 0.51242 0.0
C60 C 0.67715 0.04018 0.50957 0.0
C61 C 0.63613 0.03552 0.53689 0.0
C62 C 0.68125 0.04686 0.55547 0.0
C63 C 0.72312 0.05368 0.52834 0.0
O64 O 0.74153 0.05962 0.45311 0.0
O65 O 0.75435 1.01727 0.46396 0.0
O66 O 0.73977 0.03241 0.52458 0.0
O67 O 0.7287 0.07514 0.51336 0.0
H68 H 0.72282 1.0082 0.4045 0.0
H69 H 0.74298 1.00341 0.36179 0.0
H70 H 0.817 0.0472 0.38714 0.0
H71 H 0.79665 0.05137 0.43029 0.0
H72 H 0.88798 0.10464 0.54199 0.0
H73 H 0.86546 0.0816 0.50566 0.0
H74 H 0.80854 0.10998 0.5807 0.0
H75 H 0.78618 0.087 0.54404 0.0
H76 H 0.64384 0.04187 0.57743 0.0
H77 H 0.63679 0.02951 0.49545 0.0
H78 H 0.6864 0.03965 0.49058 0.0
H79 H 0.69361 0.05167 0.57228 0.0
C80 C 1.0036 0.80813 0.67263 0.0
C81 C 1.02348 0.79057 0.66146 0.0
C82 C 1.01587 0.81218 0.61976 0.0
C83 C 0.02972 0.79278 0.63531 0.0
C84 C 0.99607 0.82992 0.63107 0.0
C85 C 0.99 0.82785 0.6573 0.0
U86 U 0.99977 0.76406 0.73291 0.0
O87 O 1.00886 0.77418 0.77326 0.0
O88 O 0.96714 0.75968 0.76227 0.0
C89 C 0.98302 0.76975 0.78062 0.0
C90 C 0.99638 0.80543 0.69999 0.0
C91 C 0.97051 0.79193 0.79621 0.0
C92 C 0.94946 0.83772 0.80012 0.0
C93 C 0.96268 0.81744 0.78519 0.0
C94 C 0.9522 0.80732 0.83726 0.0
C95 C 0.94402 0.83294 0.82631 0.0
C96 C 0.96538 0.78708 0.82231 0.0
C97 C 1.02372 0.68806 0.72845 0.0
C98 C 0.03296 0.6578 0.76492 0.0
C99 C 1.02526 0.63768 0.72284 0.0
C100 C 1.02184 0.66446 0.71262 0.0
C101 C 0.03056 0.63405 0.7492 0.0
C102 C 0.02932 0.68461 0.75469 0.0
C103 C 1.01926 0.7159 0.71722 0.0
O104 O 0.97551 0.78834 0.705 0.0
O105 O 1.01751 0.80227 0.71568 0.0
O106 O 0.03519 0.73628 0.72589 0.0
O107 O 0.99312 0.72309 0.71466 0.0
H108 H 0.03408 0.77506 0.67293 0.0
H109 H 0.04512 0.77896 0.62713 0.0
H110 H 0.98551 0.84565 0.61988 0.0
H111 H 0.97463 0.84159 0.66562 0.0
H112 H 0.9432 0.8571 0.7911 0.0
H113 H 0.96641 0.82147 0.76499 0.0
H114 H 0.94776 0.8023 0.85709 0.0
H115 H 0.97109 0.76737 0.83104 0.0
H116 H 0.03723 0.65558 0.78523 0.0
H117 H 1.02412 0.61997 0.70997 0.0
H118 H 1.01766 0.66676 0.6923 0.0
H119 H 0.03076 0.70258 0.76728 0.0
C120 C 0.25052 1.00219 0.91775 0.0
C121 C 0.27355 1.01459 0.90555 0.0
C122 C 0.25006 1.01167 0.86427 0.0
C123 C 0.27332 1.01923 0.87908 0.0
C124 C 0.22693 0.99925 0.87666 0.0
C125 C 0.2272 0.99461 0.90321 0.0
U126 U 0.29119 1.00176 0.97938 0.0
O127 O 0.27942 1.01192 1.0192 0.0
O128 O 0.29507 0.97016 1.00975 0.0
C129 C 0.28409 0.98636 0.02737 0.0
C130 C 0.25139 0.99621 0.94541 0.0
C131 C 0.26194 0.97342 0.043 0.0
C132 C 0.22044 0.94438 0.04695 0.0
C133 C 0.24007 0.95836 0.03162 0.0
C134 C 0.24385 0.96113 0.08515 0.0
C135 C 0.22214 0.94547 0.07388 0.0
C136 C 0.2635 0.97498 0.0698 0.0
C137 C 0.3667 1.02719 0.97592 0.0
C138 C 0.39897 1.02191 1.01132 0.0
C139 C 0.41435 0.04368 0.97166 0.0
C140 C 0.38772 0.04014 0.96143 0.0
C141 C 0.42044 0.03404 0.99658 0.0
C142 C 0.37232 1.01839 1.00105 0.0
C143 C 0.33942 1.02201 0.9642 0.0
O144 O 0.26799 0.97571 0.95191 0.0
O145 O 0.25399 1.01827 0.96029 0.0
O146 O 0.31903 0.03782 0.97239 0.0
O147 O 0.33233 0.99552 0.96208 0.0
H148 H 0.29184 1.0204 0.91649 0.0
H149 H 0.29149 0.02863 0.87011 0.0
H150 H 0.20884 0.99244 0.866 0.0
H151 H 0.20937 0.98475 0.91233 0.0
H152 H 0.2041 0.93234 0.03775 0.0
H153 H 0.23853 0.95691 1.01092 0.0
H154 H 0.24645 0.96194 0.10575 0.0
H155 H 0.28038 0.98637 0.0789 0.0
H156 H 0.40297 1.01457 0.03063 0.0
H157 H 0.42997 0.05402 0.95996 0.0
H158 H 0.38361 0.04726 0.94206 0.0
H159 H 0.35623 1.00842 1.01254 0.0
C160 C 0.04212 0.81178 0.36726 0.0
C161 C 1.02431 0.79166 0.37827 0.0
C162 C 0.02861 0.81422 0.41994 0.0
C163 C 1.01744 0.79303 0.40431 0.0
C164 C 0.04619 0.8346 0.40874 0.0
C165 C 0.0529 0.83332 0.3826 0.0
U166 U 0.05073 0.76752 0.30797 0.0
O167 O 0.04283 0.77615 0.26707 0.0
O168 O 0.08472 0.76479 0.27988 0.0
C169 C 0.06915 0.77342 0.26078 0.0
C170 C 0.05043 0.80962 0.34015 0.0
C171 C 0.08109 0.79593 0.24479 0.0
C172 C 0.10818 0.83877 0.23994 0.0
C173 C 0.09574 0.81845 0.25569 0.0
C174 C 0.09058 0.81484 0.20231 0.0
C175 C 0.10625 0.83694 0.21306 0.0
C176 C 0.07828 0.7945 0.21807 0.0
C177 C 0.03076 0.68985 0.3141 0.0
C178 C 0.04892 0.6516 0.28858 0.0
C179 C 1.00944 0.64368 0.31674 0.0
C180 C 1.01039 0.67176 0.32415 0.0
C181 C 0.02895 0.63321 0.29905 0.0
C182 C 0.04971 0.67974 0.29587 0.0
C183 C 0.03305 0.71849 0.3242 0.0
O184 O 0.07247 0.79422 0.33598 0.0
O185 O 0.03012 0.80457 0.32389 0.0
O186 O 1.0165 0.73714 0.31391 0.0
O187 O 0.05851 0.72788 0.32779 0.0
H188 H 1.01593 0.77472 0.36677 0.0
H189 H 1.00377 0.77716 0.41239 0.0
H190 H 0.0546 0.8517 0.41997 0.0
H191 H 0.06667 0.84903 0.3744 0.0
H192 H 0.1198 0.85568 0.2488 0.0
H193 H 0.0979 0.82011 0.27633 0.0
H194 H 0.08762 0.81305 0.18182 0.0
H195 H 0.06673 0.77744 0.20934 0.0
H196 H 0.06427 0.64406 0.27505 0.0
H197 H 0.99422 0.6301 0.3258 0.0
H198 H 0.99572 0.67917 0.33837 0.0
H199 H 0.0656 0.69339 0.28784 0.0
C200 C 0.23982 0.05094 0.61285 0.0
C201 C 0.2622 0.04221 0.62801 0.0
C202 C 0.23233 0.04124 0.66588 0.0
C203 C 0.25851 0.03729 0.65426 0.0
C204 C 0.20991 0.04954 0.65044 0.0
C205 C 0.21365 0.05447 0.62416 0.0
U206 U 0.28804 0.05517 0.55573 0.0
O207 O 0.28265 0.04247 0.5154 0.0
O208 O 0.29211 0.08629 0.52486 0.0
C209 C 0.28555 0.0682 0.50683 0.0
C210 C 0.2439 0.0566 0.58537 0.0
C211 C 0.26477 0.0774 0.48801 0.0
C212 C 0.22268 0.10241 0.47674 0.0
C213 C 0.24123 0.09264 0.49535 0.0
C214 C 0.2506 0.08101 0.44348 0.0
C215 C 0.22746 0.09706 0.45049 0.0
C216 C 0.26912 0.0714 0.46203 0.0
C217 C 0.36454 0.0384 0.56616 0.0
C218 C 0.39999 0.0486 0.53413 0.0
C219 C 0.4123 1.02445 0.57337 0.0
C220 C 0.38461 1.0256 0.58152 0.0
C221 C 0.42033 0.03605 0.54956 0.0
C222 C 0.37228 0.04965 0.54228 0.0
C223 C 0.3359 0.04084 0.5757 0.0
O224 O 0.25925 0.07879 0.58018 0.0
O225 O 0.25049 0.03473 0.57141 0.0
O226 O 0.31797 1.02259 0.56646 0.0
O227 O 0.3262 0.06643 0.57648 0.0
H228 H 0.28253 0.03917 0.6195 0.0
H229 H 0.27614 0.03002 0.66516 0.0
H230 H 0.18949 0.0525 0.65879 0.0
H231 H 0.19613 0.06113 0.6127 0.0
H232 H 0.20472 0.11399 0.48307 0.0
H233 H 0.23735 0.09719 0.5154 0.0
H234 H 0.25472 0.07638 0.42348 0.0
H235 H 0.28711 0.05956 0.45602 0.0
H236 H 0.4056 0.0579 0.51584 0.0
H237 H 0.42736 1.01531 0.58619 0.0
H238 H 0.37898 1.01699 0.60009 0.0
H239 H 0.357 0.05965 0.53017 0.0
C240 C 0.99929 0.24378 0.86631 0.0
C241 C 1.01272 0.26557 0.8795 0.0
C242 C 1.00555 0.24116 0.9201 0.0
C243 C 1.01584 0.26432 0.90613 0.0
C244 C 0.99222 0.21935 0.90673 0.0
C245 C 0.9892 0.22059 0.88003 0.0
U246 U 0.99697 0.289 0.80716 0.0
O247 O 1.00947 0.28159 0.76712 0.0
O248 O 0.96613 0.29184 0.77619 0.0
C249 C 0.98399 0.28427 0.75843 0.0
C250 C 0.99417 0.24619 0.83861 0.0
C251 C 0.97426 0.26226 0.74092 0.0
C252 C 0.96339 0.21363 0.73148 0.0
C253 C 0.97293 0.23413 0.74858 0.0
C254 C 0.95651 0.24923 0.69901 0.0
C255 C 0.95473 0.22098 0.70662 0.0
C256 C 0.9661 0.26963 0.71606 0.0
C257 C 1.01521 0.36628 0.81467 0.0
C258 C 1.00938 0.39934 0.77973 0.0
C259 C 0.02728 0.41524 0.82068 0.0
C260 C 1.02525 0.38794 0.83024 0.0
C261 C 1.01937 0.42125 0.79524 0.0
C262 C 1.00742 0.37205 0.78931 0.0
C263 C 1.01208 0.33799 0.82534 0.0
O264 O 0.97251 0.2614 0.83257 0.0
O265 O 1.01619 0.25189 0.82445 0.0
O266 O 0.02989 0.31945 0.81686 0.0
O267 O 0.98641 0.32841 0.82634 0.0
H268 H 1.0202 0.2839 0.86924 0.0
H269 H 1.02535 0.28205 0.91566 0.0
H270 H 0.98382 0.20145 0.91701 0.0
H271 H 0.97851 0.20372 0.87017 0.0
H272 H 0.96252 0.19202 0.73774 0.0
H273 H 0.97924 0.22808 0.76774 0.0
H274 H 0.95103 0.25569 0.67978 0.0
H275 H 0.96724 0.29124 0.70978 0.0
H276 H 1.00296 0.40336 0.76016 0.0
H277 H 0.0343 0.43152 0.83357 0.0
H278 H 0.03111 0.38383 0.84994 0.0
H279 H 0.99951 0.35552 0.77705 0.0
C280 C 0.80103 1.00279 0.11879 0.0
C281 C 0.77702 1.01396 0.12995 0.0
C282 C 0.79831 1.01191 0.17223 0.0
C283 C 0.77567 1.0184 0.15638 0.0
C284 C 0.82254 1.00088 0.16091 0.0
C285 C 0.82383 0.99639 0.13435 0.0
U286 U 0.76239 1.00148 0.0565 0.0
O287 O 0.77453 1.01226 1.01687 0.0
O288 O 0.75926 0.96998 0.02599 0.0
C289 C 0.77012 0.98667 1.00851 0.0
C290 C 0.80152 0.9968 0.09114 0.0
C291 C 0.79243 0.97449 0.99292 0.0
C292 C 0.83681 0.95097 0.98914 0.0
C293 C 0.81669 0.96414 1.00424 0.0
C294 C 0.80883 0.95889 0.95126 0.0
C295 C 0.83313 0.94811 0.96249 0.0
C296 C 0.78876 0.972 0.96637 0.0
C297 C 0.68663 1.02523 0.05955 0.0
C298 C 0.65499 1.02139 0.02347 0.0
C299 C 0.63863 0.03973 0.06408 0.0
C300 C 0.66516 0.03637 0.07446 0.0
C301 C 0.63311 0.03175 0.03856 0.0
C302 C 0.68154 1.01801 0.0339 0.0
C303 C 0.71385 1.02041 0.07132 0.0
O304 O 0.78541 0.97582 0.08416 0.0
O305 O 0.79916 1.0188 0.07615 0.0
O306 O 0.73424 0.03678 0.0634 0.0
O307 O 0.72102 0.99404 0.07323 0.0
H308 H 0.75913 1.01888 0.11822 0.0
H309 H 0.75672 1.02677 0.16451 0.0
H310 H 0.84024 0.995 0.1724 0.0
H311 H 0.84244 0.98751 0.12603 0.0
H312 H 0.85517 0.94268 0.99835 0.0
H313 H 0.8198 0.9658 0.02478 0.0
H314 H 0.8046 0.95646 0.93101 0.0
H315 H 0.77 0.97966 0.95738 0.0
H316 H 0.6514 1.01533 1.00371 0.0
H317 H 0.62267 0.0487 0.0761 0.0
H318 H 0.66886 0.04225 0.09425 0.0
H319 H 0.69797 1.00944 0.0221 0.0
H320 H 1.00311 0.45334 0.26554 0.0
C321 C 1.02022 0.4468 0.27772 0.0
H322 H 0.052 0.46071 0.30282 0.0
H323 H 1.01907 0.57993 0.24621 0.0
H324 H 0.03714 0.5592 0.20715 0.0
H325 H 0.05129 0.50973 0.20622 0.0
H326 H 0.04697 0.48058 0.24414 0.0
C327 C 0.03447 0.46638 0.29087 0.0
C328 C 0.02603 0.49626 0.29095 0.0
C329 C 0.02958 0.5132 0.26877 0.0
C330 C 1.02263 0.54206 0.26961 0.0
C331 C 1.02511 0.5582 0.2469 0.0
C332 C 0.03527 0.54651 0.2243 0.0
C333 C 0.04314 0.51864 0.22376 0.0
C334 C 0.04041 0.50208 0.24567 0.0
H335 H 0.05085 0.59487 0.28718 0.0
C336 C 0.0307 0.60291 0.29299 0.0
H337 H 0.98862 0.59226 0.30041 0.0
H338 H 1.01505 0.46924 0.33627 0.0
H339 H 0.9976 0.49014 0.37545 0.0
H340 H 0.9874 0.54057 0.37746 0.0
H341 H 0.9944 0.57035 0.34031 0.0
C342 C 1.00911 0.58494 0.29501 0.0
C343 C 1.01333 0.55418 0.29292 0.0
C344 C 1.00914 0.53707 0.31489 0.0
C345 C 1.01543 0.50809 0.31387 0.0
C346 C 1.01095 0.49146 0.33606 0.0
C347 C 1.00089 0.50317 0.35868 0.0
C348 C 0.99511 0.53155 0.3598 0.0
C349 C 0.9992 0.54841 0.33827 0.0
H350 H 0.59886 1.02643 0.56051 0.0
C351 C 0.60584 0.03083 0.54102 0.0
H352 H 0.59207 0.03866 0.50299 0.0
H353 H 0.4756 0.97784 0.52101 0.0
H354 H 0.49837 0.94427 0.49323 0.0
H355 H 0.54787 0.94999 0.48161 0.0
H356 H 0.57491 0.98936 0.49759 0.0
C357 C 0.58643 0.03389 0.52269 0.0
C358 C 0.5563 0.03108 0.52896 0.0
C359 C 0.54082 1.00798 0.51946 0.0
C360 C 0.51234 1.00455 0.52634 0.0
C361 C 0.49735 0.98132 0.51653 0.0
C362 C 0.51015 0.96192 0.50055 0.0
C363 C 0.53802 0.96515 0.49399 0.0
C364 C 0.55329 0.98785 0.50329 0.0
H365 H 0.45572 0.05317 0.52706 0.0
C366 C 0.44987 0.0373 0.54111 0.0
H367 H 0.46465 1.00299 0.56285 0.0
H368 H 0.57884 0.07985 0.5476 0.0
H369 H 0.55645 0.11279 0.57611 0.0
H370 H 0.50804 0.10514 0.59044 0.0
H371 H 0.48162 0.0648 0.57597 0.0
C372 C 0.46975 1.02035 0.55021 0.0
C373 C 0.4994 1.02426 0.54266 0.0
C374 C 0.51485 0.04748 0.55207 0.0
C375 C 0.54314 0.05123 0.54474 0.0
C376 C 0.55765 0.07535 0.55336 0.0
C377 C 0.54498 0.09455 0.56961 0.0
C378 C 0.51771 0.0903 0.5776 0.0
C379 C 0.50272 0.0671 0.56902 0.0
H380 H 0.0469 0.60413 0.77786 0.0
C381 C 0.03419 0.60587 0.7607 0.0
H382 H 1.00806 0.58402 0.73483 0.0
H383 H 0.06085 0.46544 0.7509 0.0
H384 H 0.07673 0.4767 0.70787 0.0
H385 H 0.06961 0.52372 0.6896 0.0
H386 H 0.04668 0.5598 0.7143 0.0
C387 C 1.02134 0.58284 0.7516 0.0
C388 C 0.02579 0.55468 0.76307 0.0
C389 C 0.03895 0.53371 0.74825 0.0
C390 C 0.04275 0.50648 0.75865 0.0
C391 C 0.05673 0.48623 0.7437 0.0
C392 C 0.06615 0.49247 0.71903 0.0
C393 C 0.06216 0.51895 0.70876 0.0
C394 C 0.04887 0.53944 0.72313 0.0
H395 H 1.00701 0.45427 0.76785 0.0
C396 C 1.01982 0.45014 0.7846 0.0
H397 H 0.04861 0.46819 0.81071 0.0
H398 H 0.9976 0.58919 0.79604 0.0
H399 H 0.98247 0.57804 0.83923 0.0
H400 H 0.99044 0.53127 0.8577 0.0
H401 H 1.01338 0.49528 0.83292 0.0
C402 C 0.03524 0.47126 0.79423 0.0
C403 C 0.03299 0.50014 0.78372 0.0
C404 C 1.02034 0.52123 0.79874 0.0
C405 C 1.01633 0.54842 0.78829 0.0
C406 C 1.00217 0.56854 0.80325 0.0
C407 C 0.99312 0.56234 0.82805 0.0
C408 C 0.99756 0.53599 0.83843 0.0
C409 C 1.01083 0.51554 0.824 0.0
H410 H 0.60337 0.03431 1.00625 0.0
C411 C 0.60494 0.0339 0.02708 0.0
H412 H 0.58184 0.03243 0.06181 0.0
H413 H 0.47424 0.08716 1.01439 0.0
H414 H 0.49188 0.1257 0.03999 0.0
H415 H 0.53785 0.12306 0.06071 0.0
H416 H 0.56652 0.08189 0.05586 0.0
C417 C 0.58134 0.03343 0.04102 0.0
C418 C 0.55353 0.03467 0.02863 0.0
C419 C 0.53683 0.05869 0.032 0.0
C420 C 0.51018 0.06008 1.02031 0.0
C421 C 0.49435 0.0847 0.02332 0.0
C422 C 0.5043 0.10707 0.03785 0.0
C423 C 0.53019 0.10559 0.0495 0.0
C424 C 0.54641 0.0818 0.0466 0.0
H425 H 0.45082 0.03427 0.02849 0.0
C426 C 0.44881 0.03613 1.00776 0.0
H427 H 0.47122 0.03788 0.97272 0.0
H428 H 0.57902 0.98434 1.02034 0.0
H429 H 0.56137 0.94585 0.99478 0.0
H430 H 0.5156 0.94869 0.97373 0.0
H431 H 0.48713 0.98999 0.97829 0.0
C432 C 0.47212 0.03822 0.99352 0.0
C433 C 0.50012 0.03724 1.00556 0.0
C434 C 0.51681 1.01321 1.00219 0.0
C435 C 0.54341 1.01177 1.01397 0.0
C436 C 0.55906 0.98697 1.01121 0.0
C437 C 0.54908 0.96459 0.99673 0.0
C438 C 0.5233 0.96617 0.9849 0.0
C439 C 0.5072 0.99007 0.98763 0.0
H440 H 0.11426 0.20301 0.3597 0.0
C441 C 0.1171 0.1918 0.34174 0.0
H442 H 0.1385 0.15841 0.32402 0.0
H443 H 0.2326 0.15411 0.40782 0.0
H444 H 0.25723 0.1766 0.37268 0.0
H445 H 0.23229 0.19162 0.33378 0.0
H446 H 0.18252 0.18442 0.32989 0.0
C447 C 0.13331 0.169 0.34177 0.0
C448 C 0.14802 0.15984 0.36541 0.0
C449 C 0.17721 0.16373 0.36718 0.0
C450 C 0.19167 0.15465 0.38943 0.0
C451 C 0.22067 0.1598 0.39107 0.0
C452 C 0.23506 0.1729 0.3711 0.0
C453 C 0.22102 0.18139 0.34922 0.0
C454 C 0.19243 0.17703 0.34721 0.0
H455 H 0.21141 0.09855 0.41078 0.0
C456 C 0.2093 0.10789 0.42972 0.0
H457 H 0.18958 0.14039 0.45051 0.0
H458 H 0.09215 0.14848 0.36794 0.0
H459 H 0.06744 0.12652 0.40337 0.0
H460 H 0.09249 0.11113 0.4421 0.0
H461 H 0.14248 0.1175 0.44558 0.0
C462 C 0.19229 0.12993 0.43224 0.0
C463 C 0.17698 0.1411 0.40965 0.0
C464 C 0.14772 0.13777 0.40814 0.0
C465 C 0.13322 0.14697 0.38592 0.0
C466 C 0.10413 0.14245 0.38456 0.0
C467 C 0.0897 0.12973 0.40472 0.0
C468 C 0.1038 0.12104 0.42652 0.0
C469 C 0.13249 0.12485 0.42828 0.0
H470 H 0.84854 0.13734 0.59784 0.0
C471 C 0.8624 0.12446 0.58641 0.0
H472 H 0.90401 0.11096 0.58212 0.0
H473 H 0.95495 0.22105 0.63087 0.0
H474 H 0.97009 0.22514 0.58658 0.0
H475 H 0.95366 0.19164 0.55387 0.0
H476 H 0.92212 0.15379 0.56527 0.0
C477 C 0.88949 0.12375 0.59278 0.0
C478 C 0.90085 0.14254 0.61308 0.0
C479 C 0.91936 0.16452 0.60608 0.0
C480 C 0.92852 0.18407 0.62487 0.0
C481 C 0.94703 0.20582 0.61733 0.0
C482 C 0.95596 0.20838 0.59198 0.0
C483 C 0.94673 0.1895 0.57357 0.0
C484 C 0.92863 0.16783 0.58041 0.0
H485 H 0.9519 0.17747 0.69202 0.0
C486 C 0.94484 0.19874 0.68883 0.0
H487 H 0.91924 0.22457 0.66601 0.0
H488 H 0.86916 0.10029 0.63373 0.0
H489 H 0.85349 0.09648 0.67793 0.0
H490 H 0.8669 0.13206 0.70993 0.0
H491 H 0.89643 0.17138 0.69807 0.0
C492 C 0.92711 0.2037 0.66943 0.0
C493 C 0.91913 0.18167 0.6506 0.0
C494 C 0.90121 0.15925 0.65778 0.0
C495 C 0.8925 0.13935 0.63908 0.0
C496 C 0.87554 0.11654 0.64694 0.0
C497 C 0.86654 0.114 0.67228 0.0
C498 C 0.87417 0.13399 0.69032 0.0
C499 C 0.89125 0.15641 0.68326 0.0
H500 H 0.91651 0.86963 0.83019 0.0
C501 C 0.92817 0.85423 0.84104 0.0
H502 H 0.9397 0.84155 0.87853 0.0
H503 H 0.90503 0.95417 0.93261 0.0
H504 H 0.95534 0.95804 0.93436 0.0
H505 H 0.98496 0.9243 0.91151 0.0
H506 H 0.96447 0.88651 0.88668 0.0
C507 C 0.92696 0.85514 0.86685 0.0
C508 C 0.90896 0.87558 0.88047 0.0
C509 C 0.92126 0.89733 0.89517 0.0
C510 C 0.90418 0.91666 0.90855 0.0
C511 C 0.91702 0.9386 0.92251 0.0
C512 C 0.94587 0.94115 0.92356 0.0
C513 C 0.96255 0.92216 0.91068 0.0
C514 C 0.95052 0.90052 0.89656 0.0
H515 H 0.86747 0.91792 0.95787 0.0
C516 C 0.85396 0.93207 0.94743 0.0
H517 H 0.84386 0.94767 0.9105 0.0
H518 H 0.87845 0.83473 0.85614 0.0
H519 H 0.82827 0.83116 0.85419 0.0
H520 H 0.79872 0.86551 0.87631 0.0
H521 H 0.81924 0.9035 0.90072 0.0
C522 C 0.8566 0.93364 0.92173 0.0
C523 C 0.87482 0.91402 0.90741 0.0
C524 C 0.86251 0.89238 0.89259 0.0
C525 C 0.87956 0.87291 0.87939 0.0
C526 C 0.86661 0.85068 0.86584 0.0
C527 C 0.83776 0.84823 0.86472 0.0
C528 C 0.82113 0.86754 0.8772 0.0
C529 C 0.83322 0.88931 0.8911 0.0
H530 H 0.19196 0.91085 0.07999 0.0
C531 C 0.2024 0.92828 0.08944 0.0
H532 H 0.2057 0.95072 0.12442 0.0
H533 H 0.09358 0.89654 0.168 0.0
H534 H 0.07732 0.94288 0.15695 0.0
H535 H 0.10758 0.97608 0.13341 0.0
H536 H 0.15429 0.96304 0.12062 0.0
C537 C 0.19727 0.9326 0.11453 0.0
C538 C 0.17939 0.9129 0.12953 0.0
C539 C 0.15241 0.92103 0.13737 0.0
C540 C 0.1351 0.90201 0.15129 0.0
C541 C 0.10785 0.91034 0.15798 0.0
C542 C 0.09819 0.93685 0.15162 0.0
C543 C 0.11522 0.95554 0.13834 0.0
C544 C 0.142 0.9478 0.13116 0.0
H545 H 0.12876 0.87703 0.20653 0.0
C546 C 0.12108 0.85825 0.19705 0.0
H547 H 0.12176 0.83544 0.1622 0.0
H548 H 0.23104 0.89158 0.11954 0.0
H549 H 0.24753 0.84548 0.13095 0.0
H550 H 0.21744 0.81235 0.15474 0.0
H551 H 0.17073 0.82519 0.16736 0.0
C552 C 0.12716 0.85471 0.17202 0.0
C553 C 0.14506 0.87505 0.15775 0.0
C554 C 0.1722 0.86706 0.15016 0.0
C555 C 0.18945 0.88605 0.13621 0.0
C556 C 0.21678 0.87779 0.12962 0.0
C557 C 0.2266 0.85142 0.13619 0.0
C558 C 0.20967 0.83278 0.14959 0.0
C559 C 0.18283 0.84041 0.15664 0.0
H560 H 0.05523 0.2601 0.08125 0.0
C561 C 0.03497 0.26531 0.08916 0.0
H562 H 0.99216 0.26959 0.08081 0.0
H563 H 1.00961 0.30542 0.96578 0.0
H564 H 0.99573 0.34925 0.98505 0.0
H565 H 0.99117 0.35373 0.03203 0.0
H566 H 1.00033 0.31437 0.06001 0.0
C567 C 1.01275 0.26488 0.07353 0.0
C568 C 1.01593 0.26175 0.04525 0.0
C569 C 1.01065 0.28505 0.02916 0.0
C570 C 1.01366 0.28259 1.0021 0.0
C571 C 1.00798 0.30616 0.98649 0.0
C572 C 0.99994 0.33147 0.99728 0.0
C573 C 0.99734 0.33398 0.02372 0.0
C574 C 1.00261 0.31115 0.03956 0.0
H575 H 0.99089 0.22738 0.95847 0.0
C576 C 1.00642 0.24018 0.94862 0.0
H577 H 0.04092 0.26744 0.95369 0.0
H578 H 0.02555 0.21244 0.07037 0.0
H579 H 0.04074 0.16892 0.05118 0.0
H580 H 0.04826 0.16536 1.00444 0.0
H581 H 0.04027 0.20518 0.97655 0.0
C582 C 1.02488 0.25473 0.96277 0.0
C583 C 1.02196 0.25684 0.99115 0.0
C584 C 0.02746 0.23358 1.00723 0.0
C585 C 1.02404 0.23591 0.0343 0.0
C586 C 0.02863 0.21206 0.0498 0.0
C587 C 0.03722 0.18692 0.03902 0.0
C588 C 0.04138 0.18489 1.01269 0.0
C589 C 0.0366 0.20787 0.99688 0.0
H590 H 0.8164 1.02623 0.34293 0.0
C591 C 0.79393 1.02424 0.3447 0.0
H592 H 0.75611 1.02214 0.32408 0.0
H593 H 0.80254 0.06871 0.21984 0.0
H594 H 0.78041 0.11037 0.23651 0.0
H595 H 0.76314 0.11189 0.28112 0.0
H596 H 0.7681 0.07184 0.30939 0.0
C597 C 0.77865 1.02182 0.32321 0.0
C598 C 0.79153 1.02162 0.29721 0.0
C599 C 0.78823 0.04509 0.28088 0.0
C600 C 0.79775 0.04405 0.25504 0.0
C601 C 0.7949 0.06808 0.23938 0.0
C602 C 0.78244 0.09221 0.24877 0.0
C603 C 0.77275 0.09307 0.2739 0.0
C604 C 0.77563 0.0699 0.28988 0.0
H605 H 0.77396 1.01875 0.20761 0.0
C606 C 0.79499 1.01581 0.2004 0.0
H607 H 0.83739 1.01366 0.21147 0.0
H608 H 0.80202 0.97323 0.32365 0.0
H609 H 0.82535 0.93219 0.30727 0.0
H610 H 0.84211 0.93055 0.26251 0.0
H611 H 0.83553 0.96994 0.23382 0.0
C612 C 0.81598 1.0164 0.21744 0.0
C613 C 0.80996 1.01927 0.2454 0.0
C614 C 0.81472 0.99641 0.26213 0.0
C615 C 0.80531 0.99748 0.28804 0.0
C616 C 0.80919 0.97381 0.30397 0.0
C617 C 0.82246 0.95004 0.29478 0.0
C618 C 0.83188 0.9491 0.26957 0.0
C619 C 0.82798 0.97188 0.25331 0.0
H620 H 0.04323 0.80589 0.58607 0.0
C621 C 1.02297 0.81354 0.592 0.0
H622 H 0.98453 0.82937 0.57886 0.0
H623 H 0.03036 0.8776 0.47414 0.0
H624 H 1.01992 0.92026 0.49724 0.0
H625 H 1.0066 0.91881 0.54299 0.0
H626 H 1.00347 0.87469 0.56588 0.0
C627 C 1.00511 0.82204 0.57379 0.0
C628 C 1.01318 0.82262 0.54614 0.0
C629 C 1.01514 0.84861 0.53308 0.0
C630 C 1.0232 0.84949 0.50679 0.0
C631 C 1.02464 0.87573 0.49417 0.0
C632 C 1.01866 0.90039 0.50719 0.0
C633 C 1.01114 0.89957 0.53294 0.0
C634 C 1.00938 0.87407 0.54584 0.0
H635 H 1.00227 0.8035 0.4535 0.0
C636 C 1.02122 0.81439 0.44766 0.0
H637 H 0.05686 0.8362 0.46107 0.0
H638 H 1.00782 0.76889 0.56423 0.0
H639 H 1.02021 0.72646 0.54172 0.0
H640 H 0.03829 0.72837 0.49739 0.0
H641 H 0.04345 0.77265 0.47514 0.0
C642 C 0.03755 0.82556 0.46598 0.0
C643 C 0.02944 0.82439 0.4936 0.0
C644 C 0.02789 0.79839 0.50676 0.0
C645 C 1.01897 0.79743 0.53282 0.0
C646 C 1.01577 0.77102 0.54489 0.0
C647 C 1.0226 0.74644 0.53211 0.0
C648 C 0.03267 0.7475 0.50713 0.0
C649 C 0.03534 0.77309 0.49451 0.0
H650 H 0.27181 1.02043 0.82762 0.0
C651 C 0.25147 1.01604 0.83599 0.0
H652 H 0.2084 1.01287 0.82763 0.0
H653 H 0.22191 0.08213 0.72419 0.0
H654 H 0.19738 0.1153 0.75092 0.0
H655 H 0.18865 0.10534 0.79673 0.0
H656 H 0.20453 0.06218 0.81611 0.0
C657 C 0.22936 1.01532 0.82021 0.0
C658 C 0.23285 1.02022 0.79212 0.0
C659 C 0.22284 0.04523 0.78093 0.0
C660 C 0.22757 0.05081 0.75442 0.0
C661 C 0.21833 0.07649 0.74404 0.0
C662 C 0.20435 0.09581 0.75922 0.0
C663 C 0.19946 0.09022 0.78501 0.0
C664 C 0.20864 0.06532 0.79588 0.0
H665 H 0.20615 0.03277 0.70015 0.0
C666 C 0.22745 0.0363 0.69375 0.0
H667 H 0.26922 0.04092 0.70612 0.0
H668 H 0.25192 0.96875 0.80676 0.0
H669 H 0.27626 0.93548 0.77999 0.0
H670 H 0.28527 0.94556 0.73425 0.0
H671 H 0.26979 0.98891 0.71497 0.0
C672 C 0.24774 0.03701 0.71149 0.0
C673 C 0.24191 0.03111 0.73906 0.0
C674 C 0.2515 1.0059 0.75016 0.0
C675 C 0.24672 1.00029 0.77663 0.0
C676 C 0.25568 0.97447 0.78695 0.0
C677 C 0.26952 0.95507 0.77175 0.0
C678 C 0.27455 0.96073 0.74599 0.0
C679 C 0.26562 0.98575 0.73519 0.0
loop_
_geom_bond_atom_site_label_1
_geom_bond_atom_site_label_2
_geom_bond_distance
_geom_bond_site_symmetry_2
_ccdc_geom_bond_type
C0 C1 1.264 . S
C0 C5 1.479 . S
C0 C10 1.465 . S
C1 C0 1.264 . S
C1 C3 1.339 . S
C1 H28 0.931 . S
C2 C3 1.395 . S
C2 C4 1.320 . S
C3 C1 1.339 . S
C3 C2 1.395 . S
C3 H29 0.929 . S
C4 C2 1.320 . S
C4 C5 1.405 . S
C4 H30 0.930 . S
C5 C0 1.479 . S
C5 C4 1.405 . S
C5 H31 0.931 . S
U6 O7 2.454 1_655 S
U6 O8 2.458 1_655 S
U6 C9 2.984 1_655 S
U6 C10 2.847 . S
U6 C23 2.882 . S
U6 O24 2.441 . S
U6 O25 2.420 . S
U6 O26 2.455 . S
U6 O27 2.449 . S
O7 U6 2.454 1_455 S
O7 C9 1.353 . S
O8 U6 2.458 1_455 S
O8 C9 1.286 . S
C9 U6 2.984 1_455 S
C9 O7 1.353 . S
C9 O8 1.286 . S
C9 C11 1.363 . S
C10 C0 1.465 . S
C10 U6 2.847 . S
C10 O24 1.249 . S
C10 O25 1.202 . S
C11 C9 1.363 . S
C11 C13 1.408 . S
C11 C16 1.342 . S
C12 C13 1.310 . S
C12 C15 1.461 . S
C12 H32 0.932 . S
C13 C11 1.408 . S
C13 C12 1.310 . S
C13 H33 0.930 . S
C14 C15 1.474 . S
C14 C16 1.285 . S
C14 H34 0.929 . S
C15 C12 1.461 . S
C15 C14 1.474 . S
C16 C11 1.342 . S
C16 C14 1.285 . S
C16 H35 0.930 . S
C17 C20 1.424 . S
C17 C22 1.245 . S
C17 C23 1.428 . S
C18 C21 1.260 . S
C18 C22 1.477 . S
C18 H36 0.932 . S
C19 C20 1.384 . S
C19 C21 1.479 . S
C19 H37 0.929 . S
C20 C17 1.424 . S
C20 C19 1.384 . S
C20 H38 0.928 . S
C21 C18 1.260 . S
C21 C19 1.479 . S
C22 C17 1.245 . S
C22 C18 1.477 . S
C22 H39 0.932 . S
C23 U6 2.882 . S
C23 C17 1.428 . S
C23 O26 1.301 . S
C23 O27 1.282 . S
O24 U6 2.441 . S
O24 C10 1.249 . S
O25 U6 2.420 . S
O25 C10 1.202 . S
O26 U6 2.455 . S
O26 C23 1.301 . S
O27 U6 2.449 . S
O27 C23 1.282 . S
H28 C1 0.931 . S
H29 C3 0.929 . S
H30 C4 0.930 . S
H31 C5 0.931 . S
H32 C12 0.932 . S
H33 C13 0.930 . S
H34 C14 0.929 . S
H35 C16 0.930 . S
H36 C18 0.932 . S
H37 C19 0.929 . S
H38 C20 0.928 . S
H39 C22 0.932 . S
C40 C41 1.264 . S
C40 C45 1.479 . S
C40 C50 1.465 . S
C41 C40 1.264 . S
C41 C43 1.339 . S
C41 H68 0.931 . S
C42 C43 1.395 . S
C42 C44 1.320 . S
C43 C41 1.339 . S
C43 C42 1.395 . S
C43 H69 0.929 . S
C44 C42 1.320 . S
C44 C45 1.405 . S
C44 H70 0.930 . S
C45 C40 1.479 . S
C45 C44 1.405 . S
C45 H71 0.931 . S
U46 O47 2.454 1_565 S
U46 O48 2.458 1_565 S
U46 C49 2.984 1_565 S
U46 C50 2.847 . S
U46 C63 2.882 . S
U46 O64 2.441 . S
U46 O65 2.420 . S
U46 O66 2.455 . S
U46 O67 2.449 . S
O47 U46 2.454 1_545 S
O47 C49 1.353 . S
O48 U46 2.458 1_545 S
O48 C49 1.286 . S
C49 U46 2.984 1_545 S
C49 O47 1.353 . S
C49 O48 1.286 . S
C49 C51 1.363 . S
C50 C40 1.465 . S
C50 U46 2.847 . S
C50 O64 1.249 . S
C50 O65 1.202 . S
C51 C49 1.363 . S
C51 C53 1.408 . S
C51 C56 1.342 . S
C52 C53 1.310 . S
C52 C55 1.461 . S
C52 H72 0.932 . S
C53 C51 1.408 . S
C53 C52 1.310 . S
C53 H73 0.930 . S
C54 C55 1.474 . S
C54 C56 1.285 . S
C54 H74 0.929 . S
C55 C52 1.461 . S
C55 C54 1.474 . S
C56 C51 1.342 . S
C56 C54 1.285 . S
C56 H75 0.930 . S
C57 C60 1.424 . S
C57 C62 1.245 . S
C57 C63 1.428 . S
C58 C61 1.260 . S
C58 C62 1.477 . S
C58 H76 0.932 . S
C59 C60 1.384 . S
C59 C61 1.479 . S
C59 H77 0.929 . S
C60 C57 1.424 . S
C60 C59 1.384 . S
C60 H78 0.928 . S
C61 C58 1.260 . S
C61 C59 1.479 . S
C62 C57 1.245 . S
C62 C58 1.477 . S
C62 H79 0.932 . S
C63 U46 2.882 . S
C63 C57 1.428 . S
C63 O66 1.301 . S
C63 O67 1.282 . S
O64 U46 2.441 . S
O64 C50 1.249 . S
O65 U46 2.420 . S
O65 C50 1.202 . S
O66 U46 2.455 . S
O66 C63 1.301 . S
O67 U46 2.449 . S
O67 C63 1.282 . S
H68 C41 0.931 . S
H69 C43 0.929 . S
H70 C44 0.930 . S
H71 C45 0.931 . S
H72 C52 0.932 . S
H73 C53 0.930 . S
H74 C54 0.929 . S
H75 C56 0.930 . S
H76 C58 0.932 . S
H77 C59 0.929 . S
H78 C60 0.928 . S
H79 C62 0.932 . S
C80 C81 1.264 . S
C80 C85 1.479 . S
C80 C90 1.465 . S
C81 C80 1.264 . S
C81 C83 1.339 . S
C81 H108 0.931 . S
C82 C83 1.395 . S
C82 C84 1.320 . S
C83 C81 1.339 . S
C83 C82 1.395 . S
C83 H109 0.929 . S
C84 C82 1.320 . S
C84 C85 1.405 . S
C84 H110 0.930 . S
C85 C80 1.479 . S
C85 C84 1.405 . S
C85 H111 0.931 . S
U86 O87 2.454 1_455 S
U86 O88 2.458 1_455 S
U86 C89 2.984 1_455 S
U86 C90 2.847 . S
U86 C103 2.882 . S
U86 O104 2.441 . S
U86 O105 2.420 . S
U86 O106 2.455 . S
U86 O107 2.449 . S
O87 U86 2.454 1_655 S
O87 C89 1.353 . S
O88 U86 2.458 1_655 S
O88 C89 1.286 . S
C89 U86 2.984 1_655 S
C89 O87 1.353 . S
C89 O88 1.286 . S
C89 C91 1.363 . S
C90 C80 1.465 . S
C90 U86 2.847 . S
C90 O104 1.249 . S
C90 O105 1.202 . S
C91 C89 1.363 . S
C91 C93 1.408 . S
C91 C96 1.342 . S
C92 C93 1.310 . S
C92 C95 1.461 . S
C92 H112 0.932 . S
C93 C91 1.408 . S
C93 C92 1.310 . S
C93 H113 0.930 . S
C94 C95 1.474 . S
C94 C96 1.285 . S
C94 H114 0.929 . S
C95 C92 1.461 . S
C95 C94 1.474 . S
C96 C91 1.342 . S
C96 C94 1.285 . S
C96 H115 0.930 . S
C97 C100 1.424 . S
C97 C102 1.245 . S
C97 C103 1.428 . S
C98 C101 1.260 . S
C98 C102 1.477 . S
C98 H116 0.932 . S
C99 C100 1.384 . S
C99 C101 1.479 . S
C99 H117 0.929 . S
C100 C97 1.424 . S
C100 C99 1.384 . S
C100 H118 0.928 . S
C101 C98 1.260 . S
C101 C99 1.479 . S
C102 C97 1.245 . S
C102 C98 1.477 . S
C102 H119 0.932 . S
C103 U86 2.882 . S
C103 C97 1.428 . S
C103 O106 1.301 . S
C103 O107 1.282 . S
O104 U86 2.441 . S
O104 C90 1.249 . S
O105 U86 2.420 . S
O105 C90 1.202 . S
O106 U86 2.455 . S
O106 C103 1.301 . S
O107 U86 2.449 . S
O107 C103 1.282 . S
H108 C81 0.931 . S
H109 C83 0.929 . S
H110 C84 0.930 . S
H111 C85 0.931 . S
H112 C92 0.932 . S
H113 C93 0.930 . S
H114 C94 0.929 . S
H115 C96 0.930 . S
H116 C98 0.932 . S
H117 C99 0.929 . S
H118 C100 0.928 . S
H119 C102 0.932 . S
C120 C121 1.264 . S
C120 C125 1.479 . S
C120 C130 1.465 . S
C121 C120 1.264 . S
C121 C123 1.339 . S
C121 H148 0.931 . S
C122 C123 1.395 . S
C122 C124 1.320 . S
C123 C121 1.339 . S
C123 C122 1.395 . S
C123 H149 0.929 . S
C124 C122 1.320 . S
C124 C125 1.405 . S
C124 H150 0.930 . S
C125 C120 1.479 . S
C125 C124 1.405 . S
C125 H151 0.931 . S
U126 O127 2.454 1_545 S
U126 O128 2.458 1_546 S
U126 C129 2.984 1_546 S
U126 C130 2.847 . S
U126 C143 2.882 . S
U126 O144 2.441 . S
U126 O145 2.420 . S
U126 O146 2.455 1_556 S
U126 O147 2.449 . S
O127 U126 2.454 1_565 S
O127 C129 1.353 1_556 S
O128 U126 2.458 1_564 S
O128 C129 1.286 . S
C129 U126 2.984 1_564 S
C129 O127 1.353 1_554 S
C129 O128 1.286 . S
C129 C131 1.363 . S
C130 C120 1.465 . S
C130 U126 2.847 . S
C130 O144 1.249 . S
C130 O145 1.202 . S
C131 C129 1.363 . S
C131 C133 1.408 . S
C131 C136 1.342 . S
C132 C133 1.310 . S
C132 C135 1.461 . S
C132 H152 0.932 . S
C133 C131 1.408 . S
C133 C132 1.310 . S
C133 H153 0.933 . S
C134 C135 1.474 . S
C134 C136 1.285 . S
C134 H154 0.929 . S
C135 C132 1.461 . S
C135 C134 1.474 . S
C136 C131 1.342 . S
C136 C134 1.285 . S
C136 H155 0.930 . S
C137 C140 1.424 . S
C137 C142 1.245 1_556 S
C137 C143 1.428 . S
C138 C141 1.260 . S
C138 C142 1.477 . S
C138 H156 0.932 . S
C139 C140 1.384 . S
C139 C141 1.479 1_556 S
C139 H157 0.929 . S
C140 C137 1.424 . S
C140 C139 1.384 . S
C140 H158 0.928 . S
C141 C138 1.260 . S
C141 C139 1.479 1_554 S
C142 C137 1.245 1_554 S
C142 C138 1.477 . S
C142 H159 0.932 . S
C143 U126 2.882 . S
C143 C137 1.428 . S
C143 O146 1.301 1_556 S
C143 O147 1.282 . S
O144 U126 2.441 . S
O144 C130 1.249 . S
O145 U126 2.420 . S
O145 C130 1.202 . S
O146 U126 2.455 1_554 S
O146 C143 1.301 1_554 S
O147 U126 2.449 . S
O147 C143 1.282 . S
H148 C121 0.931 . S
H149 C123 0.929 . S
H150 C124 0.930 . S
H151 C125 0.931 . S
H152 C132 0.932 . S
H153 C133 0.933 . S
H154 C134 0.929 . S
H155 C136 0.930 . S
H156 C138 0.932 . S
H157 C139 0.929 . S
H158 C140 0.928 . S
H159 C142 0.932 . S
C160 C161 1.264 . S
C160 C165 1.479 . S
C160 C170 1.465 . S
C161 C160 1.264 . S
C161 C163 1.339 . S
C161 H188 0.931 . S
C162 C163 1.395 . S
C162 C164 1.320 . S
C163 C161 1.339 . S
C163 C162 1.395 . S
C163 H189 0.929 . S
C164 C162 1.320 . S
C164 C165 1.405 . S
C164 H190 0.930 . S
C165 C160 1.479 . S
C165 C164 1.405 . S
C165 H191 0.931 . S
U166 O167 2.454 1_655 S
U166 O168 2.458 1_655 S
U166 C169 2.984 1_655 S
U166 C170 2.847 . S
U166 C183 2.882 . S
U166 O184 2.441 . S
U166 O185 2.420 . S
U166 O186 2.455 . S
U166 O187 2.449 . S
O167 U166 2.454 1_455 S
O167 C169 1.353 . S
O168 U166 2.458 1_455 S
O168 C169 1.286 . S
C169 U166 2.984 1_455 S
C169 O167 1.353 . S
C169 O168 1.286 . S
C169 C171 1.363 . S
C170 C160 1.465 . S
C170 U166 2.847 . S
C170 O184 1.249 . S
C170 O185 1.202 . S
C171 C169 1.363 . S
C171 C173 1.408 . S
C171 C176 1.342 . S
C172 C173 1.310 . S
C172 C175 1.461 . S
C172 H192 0.932 . S
C173 C171 1.408 . S
C173 C172 1.310 . S
C173 H193 0.930 . S
C174 C175 1.474 . S
C174 C176 1.285 . S
C174 H194 0.929 . S
C175 C172 1.461 . S
C175 C174 1.474 . S
C176 C171 1.342 . S
C176 C174 1.285 . S
C176 H195 0.930 . S
C177 C180 1.424 . S
C177 C182 1.245 . S
C177 C183 1.428 . S
C178 C181 1.260 . S
C178 C182 1.477 . S
C178 H196 0.932 . S
C179 C180 1.384 . S
C179 C181 1.479 . S
C179 H197 0.929 . S
C180 C177 1.424 . S
C180 C179 1.384 . S
C180 H198 0.928 . S
C181 C178 1.260 . S
C181 C179 1.479 . S
C182 C177 1.245 . S
C182 C178 1.477 . S
C182 H199 0.932 . S
C183 U166 2.882 . S
C183 C177 1.428 . S
C183 O186 1.301 . S
C183 O187 1.282 . S
O184 U166 2.441 . S
O184 C170 1.249 . S
O185 U166 2.420 . S
O185 C170 1.202 . S
O186 U166 2.455 . S
O186 C183 1.301 . S
O187 U166 2.449 . S
O187 C183 1.282 . S
H188 C161 0.931 . S
H189 C163 0.929 . S
H190 C164 0.930 . S
H191 C165 0.931 . S
H192 C172 0.932 . S
H193 C173 0.930 . S
H194 C174 0.929 . S
H195 C176 0.930 . S
H196 C178 0.932 . S
H197 C179 0.929 . S
H198 C180 0.928 . S
H199 C182 0.932 . S
C200 C201 1.264 . S
C200 C205 1.479 . S
C200 C210 1.465 . S
C201 C200 1.264 . S
C201 C203 1.339 . S
C201 H228 0.931 . S
C202 C203 1.395 . S
C202 C204 1.320 . S
C203 C201 1.339 . S
C203 C202 1.395 . S
C203 H229 0.929 . S
C204 C202 1.320 . S
C204 C205 1.405 . S
C204 H230 0.930 . S
C205 C200 1.479 . S
C205 C204 1.405 . S
C205 H231 0.931 . S
U206 O207 2.454 1_565 S
U206 O208 2.458 1_565 S
U206 C209 2.984 1_565 S
U206 C210 2.847 . S
U206 C223 2.882 . S
U206 O224 2.441 . S
U206 O225 2.420 . S
U206 O226 2.455 . S
U206 O227 2.449 . S
O207 U206 2.454 1_545 S
O207 C209 1.353 . S
O208 U206 2.458 1_545 S
O208 C209 1.286 . S
C209 U206 2.984 1_545 S
C209 O207 1.353 . S
C209 O208 1.286 . S
C209 C211 1.363 . S
C210 C200 1.465 . S
C210 U206 2.847 . S
C210 O224 1.249 . S
C210 O225 1.202 . S
C211 C209 1.363 . S
C211 C213 1.408 . S
C211 C216 1.342 . S
C212 C213 1.310 . S
C212 C215 1.461 . S
C212 H232 0.932 . S
C213 C211 1.408 . S
C213 C212 1.310 . S
C213 H233 0.930 . S
C214 C215 1.474 . S
C214 C216 1.285 . S
C214 H234 0.929 . S
C215 C212 1.461 . S
C215 C214 1.474 . S
C216 C211 1.342 . S
C216 C214 1.285 . S
C216 H235 0.930 . S
C217 C220 1.424 . S
C217 C222 1.245 . S
C217 C223 1.428 . S
C218 C221 1.260 . S
C218 C222 1.477 . S
C218 H236 0.932 . S
C219 C220 1.384 . S
C219 C221 1.479 . S
C219 H237 0.929 . S
C220 C217 1.424 . S
C220 C219 1.384 . S
C220 H238 0.928 . S
C221 C218 1.260 . S
C221 C219 1.479 . S
C222 C217 1.245 . S
C222 C218 1.477 . S
C222 H239 0.932 . S
C223 U206 2.882 . S
C223 C217 1.428 . S
C223 O226 1.301 . S
C223 O227 1.282 . S
O224 U206 2.441 . S
O224 C210 1.249 . S
O225 U206 2.420 . S
O225 C210 1.202 . S
O226 U206 2.455 . S
O226 C223 1.301 . S
O227 U206 2.449 . S
O227 C223 1.282 . S
H228 C201 0.931 . S
H229 C203 0.929 . S
H230 C204 0.930 . S
H231 C205 0.931 . S
H232 C212 0.932 . S
H233 C213 0.930 . S
H234 C214 0.929 . S
H235 C216 0.930 . S
H236 C218 0.932 . S
H237 C219 0.929 . S
H238 C220 0.928 . S
H239 C222 0.932 . S
C240 C241 1.264 . S
C240 C245 1.479 . S
C240 C250 1.465 . S
C241 C240 1.264 . S
C241 C243 1.339 . S
C241 H268 0.931 . S
C242 C243 1.395 . S
C242 C244 1.320 . S
C243 C241 1.339 . S
C243 C242 1.395 . S
C243 H269 0.929 . S
C244 C242 1.320 . S
C244 C245 1.405 . S
C244 H270 0.930 . S
C245 C240 1.479 . S
C245 C244 1.405 . S
C245 H271 0.931 . S
U246 O247 2.454 1_455 S
U246 O248 2.458 1_455 S
U246 C249 2.984 1_455 S
U246 C250 2.847 . S
U246 C263 2.882 . S
U246 O264 2.441 . S
U246 O265 2.420 . S
U246 O266 2.455 . S
U246 O267 2.449 . S
O247 U246 2.454 1_655 S
O247 C249 1.353 . S
O248 U246 2.458 1_655 S
O248 C249 1.286 . S
C249 U246 2.984 1_655 S
C249 O247 1.353 . S
C249 O248 1.286 . S
C249 C251 1.363 . S
C250 C240 1.465 . S
C250 U246 2.847 . S
C250 O264 1.249 . S
C250 O265 1.202 . S
C251 C249 1.363 . S
C251 C253 1.408 . S
C251 C256 1.342 . S
C252 C253 1.310 . S
C252 C255 1.461 . S
C252 H272 0.932 . S
C253 C251 1.408 . S
C253 C252 1.310 . S
C253 H273 0.930 . S
C254 C255 1.474 . S
C254 C256 1.285 . S
C254 H274 0.929 . S
C255 C252 1.461 . S
C255 C254 1.474 . S
C256 C251 1.342 . S
C256 C254 1.285 . S
C256 H275 0.930 . S
C257 C260 1.424 . S
C257 C262 1.245 . S
C257 C263 1.428 . S
C258 C261 1.260 . S
C258 C262 1.477 . S
C258 H276 0.932 . S
C259 C260 1.384 . S
C259 C261 1.479 . S
C259 H277 0.929 . S
C260 C257 1.424 . S
C260 C259 1.384 . S
C260 H278 0.928 . S
C261 C258 1.260 . S
C261 C259 1.479 . S
C262 C257 1.245 . S
C262 C258 1.477 . S
C262 H279 0.932 . S
C263 U246 2.882 . S
C263 C257 1.428 . S
C263 O266 1.301 . S
C263 O267 1.282 . S
O264 U246 2.441 . S
O264 C250 1.249 . S
O265 U246 2.420 . S
O265 C250 1.202 . S
O266 U246 2.455 . S
O266 C263 1.301 . S
O267 U246 2.449 . S
O267 C263 1.282 . S
H268 C241 0.931 . S
H269 C243 0.929 . S
H270 C244 0.930 . S
H271 C245 0.931 . S
H272 C252 0.932 . S
H273 C253 0.930 . S
H274 C254 0.929 . S
H275 C256 0.930 . S
H276 C258 0.932 . S
H277 C259 0.929 . S
H278 C260 0.928 . S
H279 C262 0.932 . S
C280 C281 1.264 . S
C280 C285 1.479 . S
C280 C290 1.465 . S
C281 C280 1.264 . S
C281 C283 1.339 . S
C281 H308 0.931 . S
C282 C283 1.395 . S
C282 C284 1.320 . S
C283 C281 1.339 . S
C283 C282 1.395 . S
C283 H309 0.929 . S
C284 C282 1.320 . S
C284 C285 1.405 . S
C284 H310 0.930 . S
C285 C280 1.479 . S
C285 C284 1.405 . S
C285 H311 0.931 . S
U286 O287 2.454 1_545 S
U286 O288 2.458 1_544 S
U286 C289 2.984 1_544 S
U286 C290 2.847 . S
U286 C303 2.882 . S
U286 O304 2.441 . S
U286 O305 2.420 . S
U286 O306 2.455 1_554 S
U286 O307 2.449 . S
O287 U286 2.454 1_565 S
O287 C289 1.353 1_554 S
O288 U286 2.458 1_566 S
O288 C289 1.286 . S
C289 U286 2.984 1_566 S
C289 O287 1.353 1_556 S
C289 O288 1.286 . S
C289 C291 1.363 . S
C290 C280 1.465 . S
C290 U286 2.847 . S
C290 O304 1.249 . S
C290 O305 1.202 . S
C291 C289 1.363 . S
C291 C293 1.408 . S
C291 C296 1.342 . S
C292 C293 1.310 . S
C292 C295 1.461 . S
C292 H312 0.932 . S
C293 C291 1.408 . S
C293 C292 1.310 . S
C293 H313 0.933 . S
C294 C295 1.474 . S
C294 C296 1.285 . S
C294 H314 0.929 . S
C295 C292 1.461 . S
C295 C294 1.474 . S
C296 C291 1.342 . S
C296 C294 1.285 . S
C296 H315 0.930 . S
C297 C300 1.424 . S
C297 C302 1.245 1_554 S
C297 C303 1.428 . S
C298 C301 1.260 . S
C298 C302 1.477 . S
C298 H316 0.932 . S
C299 C300 1.384 . S
C299 C301 1.479 1_554 S
C299 H317 0.929 . S
C300 C297 1.424 . S
C300 C299 1.384 . S
C300 H318 0.928 . S
C301 C298 1.260 . S
C301 C299 1.479 1_556 S
C302 C297 1.245 1_556 S
C302 C298 1.477 . S
C302 H319 0.932 . S
C303 U286 2.882 . S
C303 C297 1.428 . S
C303 O306 1.301 1_554 S
C303 O307 1.282 . S
O304 U286 2.441 . S
O304 C290 1.249 . S
O305 U286 2.420 . S
O305 C290 1.202 . S
O306 U286 2.455 1_556 S
O306 C303 1.301 1_556 S
O307 U286 2.449 . S
O307 C303 1.282 . S
H308 C281 0.931 . S
H309 C283 0.929 . S
H310 C284 0.930 . S
H311 C285 0.931 . S
H312 C292 0.932 . S
H313 C293 0.933 . S
H314 C294 0.929 . S
H315 C296 0.930 . S
H316 C298 0.932 . S
H317 C299 0.929 . S
H318 C300 0.928 . S
H319 C302 0.932 . S
H320 C321 0.951 . S
C321 H320 0.951 . S
C321 C327 1.265 . S
H322 C327 0.950 1_455 S
H323 C331 0.949 . S
H324 C332 0.950 . S
H325 C333 0.951 . S
H326 C334 0.948 1_455 S
C327 C321 1.265 . S
C327 H322 0.950 1_655 S
C327 C328 1.478 . S
C328 C327 1.478 . S
C328 C329 1.397 . S
C328 C345 1.394 . S
C329 C328 1.397 . S
C329 C330 1.438 . S
C329 C334 1.438 . S
C330 C329 1.438 . S
C330 C331 1.428 . S
C330 C343 1.394 . S
C331 H323 0.949 . S
C331 C330 1.428 . S
C331 C332 1.345 1_655 S
C332 H324 0.950 . S
C332 C331 1.345 1_455 S
C332 C333 1.424 . S
C333 H325 0.951 . S
C333 C332 1.424 . S
C333 C334 1.341 1_455 S
C334 H326 0.948 1_655 S
C334 C329 1.438 . S
C334 C333 1.341 1_655 S
H335 C336 0.951 . S
C336 H335 0.951 . S
C336 C342 1.265 . S
H337 C342 0.950 . S
H338 C346 0.949 . S
H339 C347 0.950 . S
H340 C348 0.951 . S
H341 C349 0.951 . S
C342 C336 1.265 . S
C342 H337 0.950 . S
C342 C343 1.478 . S
C343 C330 1.394 . S
C343 C342 1.478 . S
C343 C344 1.397 . S
C344 C343 1.397 . S
C344 C345 1.438 . S
C344 C349 1.429 . S
C345 C328 1.394 . S
C345 C344 1.438 . S
C345 C346 1.428 . S
C346 H338 0.949 . S
C346 C345 1.428 . S
C346 C347 1.345 . S
C347 H339 0.950 . S
C347 C346 1.345 . S
C347 C348 1.424 . S
C348 H340 0.951 . S
C348 C347 1.424 . S
C348 C349 1.347 . S
C349 H341 0.951 . S
C349 C344 1.429 . S
C349 C348 1.347 . S
H350 C351 0.951 . S
C351 H350 0.951 . S
C351 C357 1.265 . S
H352 C357 0.950 . S
H353 C361 0.949 . S
H354 C362 0.950 . S
H355 C363 0.951 . S
H356 C364 0.951 . S
C357 C351 1.265 . S
C357 H352 0.950 . S
C357 C358 1.478 . S
C358 C357 1.478 . S
C358 C359 1.397 . S
C358 C375 1.394 . S
C359 C358 1.397 . S
C359 C360 1.438 . S
C359 C364 1.429 . S
C360 C359 1.438 . S
C360 C361 1.428 . S
C360 C373 1.394 . S
C361 H353 0.949 . S
C361 C360 1.428 . S
C361 C362 1.345 . S
C362 H354 0.950 . S
C362 C361 1.345 . S
C362 C363 1.424 . S
C363 H355 0.951 . S
C363 C362 1.424 . S
C363 C364 1.347 . S
C364 H356 0.951 . S
C364 C359 1.429 . S
C364 C363 1.347 . S
H365 C366 0.951 . S
C366 H365 0.951 . S
C366 C372 1.265 . S
H367 C372 0.950 . S
H368 C376 0.949 . S
H369 C377 0.950 . S
H370 C378 0.951 . S
H371 C379 0.951 . S
C372 C366 1.265 . S
C372 H367 0.950 . S
C372 C373 1.478 . S
C373 C360 1.394 . S
C373 C372 1.478 . S
C373 C374 1.397 . S
C374 C373 1.397 . S
C374 C375 1.438 . S
C374 C379 1.429 1_565 S
C375 C358 1.394 . S
C375 C374 1.438 . S
C375 C376 1.428 1_565 S
C376 H368 0.949 . S
C376 C375 1.428 1_545 S
C376 C377 1.345 . S
C377 H369 0.950 . S
C377 C376 1.345 . S
C377 C378 1.424 . S
C378 H370 0.951 . S
C378 C377 1.424 . S
C378 C379 1.347 . S
C379 H371 0.951 . S
C379 C374 1.429 1_545 S
C379 C378 1.347 . S
H380 C381 0.951 . S
C381 H380 0.951 . S
C381 C387 1.265 . S
H382 C387 0.950 1_655 S
H383 C391 0.949 . S
H384 C392 0.950 . S
H385 C393 0.951 1_655 S
H386 C394 0.951 . S
C387 C381 1.265 . S
C387 H382 0.950 1_455 S
C387 C388 1.478 . S
C388 C387 1.478 . S
C388 C389 1.397 . S
C388 C405 1.394 . S
C389 C388 1.397 . S
C389 C390 1.438 . S
C389 C394 1.429 . S
C390 C389 1.438 . S
C390 C391 1.428 . S
C390 C403 1.394 . S
C391 H383 0.949 . S
C391 C390 1.428 . S
C391 C392 1.345 . S
C392 H384 0.950 . S
C392 C391 1.345 . S
C392 C393 1.424 . S
C393 H385 0.951 1_455 S
C393 C392 1.424 . S
C393 C394 1.347 . S
C394 H386 0.951 . S
C394 C389 1.429 . S
C394 C393 1.347 . S
H395 C396 0.951 . S
C396 H395 0.951 . S
C396 C402 1.265 . S
H397 C402 0.950 . S
H398 C406 0.949 . S
H399 C407 0.950 . S
H400 C408 0.951 . S
H401 C409 0.951 . S
C402 C396 1.265 . S
C402 H397 0.950 . S
C402 C403 1.478 . S
C403 C390 1.394 . S
C403 C402 1.478 . S
C403 C404 1.397 . S
C404 C403 1.397 . S
C404 C405 1.438 . S
C404 C409 1.429 . S
C405 C388 1.394 . S
C405 C404 1.438 . S
C405 C406 1.428 . S
C406 H398 0.949 . S
C406 C405 1.428 . S
C406 C407 1.345 . S
C407 H399 0.950 . S
C407 C406 1.345 . S
C407 C408 1.424 . S
C408 H400 0.951 . S
C408 C407 1.424 . S
C408 C409 1.347 . S
C409 H401 0.951 . S
C409 C404 1.429 . S
C409 C408 1.347 . S
H410 C411 0.951 . S
C411 H410 0.951 . S
C411 C417 1.265 1_556 S
H412 C417 0.950 . S
H413 C421 0.949 . S
H414 C422 0.950 . S
H415 C423 0.951 . S
H416 C424 0.951 . S
C417 C411 1.265 1_554 S
C417 H412 0.950 . S
C417 C418 1.478 . S
C418 C417 1.478 . S
C418 C419 1.397 . S
C418 C435 1.394 1_554 S
C419 C418 1.397 . S
C419 C420 1.438 . S
C419 C424 1.429 . S
C420 C419 1.438 . S
C420 C421 1.428 . S
C420 C433 1.394 1_554 S
C421 H413 0.949 . S
C421 C420 1.428 . S
C421 C422 1.345 . S
C422 H414 0.950 . S
C422 C421 1.345 . S
C422 C423 1.424 . S
C423 H415 0.951 . S
C423 C422 1.424 . S
C423 C424 1.347 . S
C424 H416 0.951 . S
C424 C419 1.429 . S
C424 C423 1.347 . S
H425 C426 0.951 . S
C426 H425 0.951 . S
C426 C432 1.265 1_554 S
H427 C432 0.950 . S
H428 C436 0.949 . S
H429 C437 0.950 . S
H430 C438 0.951 . S
H431 C439 0.951 . S
C432 C426 1.265 1_556 S
C432 H427 0.950 . S
C432 C433 1.478 . S
C433 C420 1.394 1_556 S
C433 C432 1.478 . S
C433 C434 1.397 . S
C434 C433 1.397 . S
C434 C435 1.438 . S
C434 C439 1.429 1_545 S
C435 C418 1.394 1_556 S
C435 C434 1.438 . S
C435 C436 1.428 1_545 S
C436 H428 0.949 . S
C436 C435 1.428 1_565 S
C436 C437 1.345 . S
C437 H429 0.950 . S
C437 C436 1.345 . S
C437 C438 1.424 . S
C438 H430 0.951 . S
C438 C437 1.424 . S
C438 C439 1.347 . S
C439 H431 0.951 . S
C439 C434 1.429 1_565 S
C439 C438 1.347 . S
H440 C441 0.951 . S
C441 H440 0.951 . S
C441 C447 1.265 . S
H442 C447 0.950 . S
H443 C451 0.949 . S
H444 C452 0.950 . S
H445 C453 0.951 . S
H446 C454 0.951 . S
C447 C441 1.265 . S
C447 H442 0.950 . S
C447 C448 1.478 . S
C448 C447 1.478 . S
C448 C449 1.397 . S
C448 C465 1.394 . S
C449 C448 1.397 . S
C449 C450 1.438 . S
C449 C454 1.429 . S
C450 C449 1.438 . S
C450 C451 1.428 . S
C450 C463 1.394 . S
C451 H443 0.949 . S
C451 C450 1.428 . S
C451 C452 1.345 . S
C452 H444 0.950 . S
C452 C451 1.345 . S
C452 C453 1.424 . S
C453 H445 0.951 . S
C453 C452 1.424 . S
C453 C454 1.347 . S
C454 H446 0.951 . S
C454 C449 1.429 . S
C454 C453 1.347 . S
H455 C456 0.951 . S
C456 H455 0.951 . S
C456 C462 1.265 . S
H457 C462 0.950 . S
H458 C466 0.949 . S
H459 C467 0.950 . S
H460 C468 0.951 . S
H461 C469 0.951 . S
C462 C456 1.265 . S
C462 H457 0.950 . S
C462 C463 1.478 . S
C463 C450 1.394 . S
C463 C462 1.478 . S
C463 C464 1.397 . S
C464 C463 1.397 . S
C464 C465 1.438 . S
C464 C469 1.429 . S
C465 C448 1.394 . S
C465 C464 1.438 . S
C465 C466 1.428 . S
C466 H458 0.949 . S
C466 C465 1.428 . S
C466 C467 1.345 . S
C467 H459 0.950 . S
C467 C466 1.345 . S
C467 C468 1.424 . S
C468 H460 0.951 . S
C468 C467 1.424 . S
C468 C469 1.347 . S
C469 H461 0.951 . S
C469 C464 1.429 . S
C469 C468 1.347 . S
H470 C471 0.951 . S
C471 H470 0.951 . S
C471 C477 1.265 . S
H472 C477 0.950 . S
H473 C481 0.949 . S
H474 C482 0.950 . S
H475 C483 0.951 . S
H476 C484 0.951 . S
C477 C471 1.265 . S
C477 H472 0.950 . S
C477 C478 1.478 . S
C478 C477 1.478 . S
C478 C479 1.397 . S
C478 C495 1.394 . S
C479 C478 1.397 . S
C479 C480 1.438 . S
C479 C484 1.429 . S
C480 C479 1.438 . S
C480 C481 1.428 . S
C480 C493 1.394 . S
C481 H473 0.949 . S
C481 C480 1.428 . S
C481 C482 1.345 . S
C482 H474 0.950 . S
C482 C481 1.345 . S
C482 C483 1.424 . S
C483 H475 0.951 . S
C483 C482 1.424 . S
C483 C484 1.347 . S
C484 H476 0.951 . S
C484 C479 1.429 . S
C484 C483 1.347 . S
H485 C486 0.951 . S
C486 H485 0.951 . S
C486 C492 1.265 . S
H487 C492 0.950 . S
H488 C496 0.949 . S
H489 C497 0.950 . S
H490 C498 0.951 . S
H491 C499 0.951 . S
C492 C486 1.265 . S
C492 H487 0.950 . S
C492 C493 1.478 . S
C493 C480 1.394 . S
C493 C492 1.478 . S
C493 C494 1.397 . S
C494 C493 1.397 . S
C494 C495 1.438 . S
C494 C499 1.429 . S
C495 C478 1.394 . S
C495 C494 1.438 . S
C495 C496 1.428 . S
C496 H488 0.949 . S
C496 C495 1.428 . S
C496 C497 1.345 . S
C497 H489 0.950 . S
C497 C496 1.345 . S
C497 C498 1.424 . S
C498 H490 0.951 . S
C498 C497 1.424 . S
C498 C499 1.347 . S
C499 H491 0.951 . S
C499 C494 1.429 . S
C499 C498 1.347 . S
H500 C501 0.951 . S
C501 H500 0.951 . S
C501 C507 1.265 . S
H502 C507 0.950 . S
H503 C511 0.949 . S
H504 C512 0.950 . S
H505 C513 0.951 . S
H506 C514 0.951 . S
C507 C501 1.265 . S
C507 H502 0.950 . S
C507 C508 1.478 . S
C508 C507 1.478 . S
C508 C509 1.397 . S
C508 C525 1.394 . S
C509 C508 1.397 . S
C509 C510 1.438 . S
C509 C514 1.429 . S
C510 C509 1.438 . S
C510 C511 1.428 . S
C510 C523 1.394 . S
C511 H503 0.949 . S
C511 C510 1.428 . S
C511 C512 1.345 . S
C512 H504 0.950 . S
C512 C511 1.345 . S
C512 C513 1.424 . S
C513 H505 0.951 . S
C513 C512 1.424 . S
C513 C514 1.347 . S
C514 H506 0.951 . S
C514 C509 1.429 . S
C514 C513 1.347 . S
H515 C516 0.951 . S
C516 H515 0.951 . S
C516 C522 1.265 . S
H517 C522 0.950 . S
H518 C526 0.949 . S
H519 C527 0.950 . S
H520 C528 0.951 . S
H521 C529 0.951 . S
C522 C516 1.265 . S
C522 H517 0.950 . S
C522 C523 1.478 . S
C523 C510 1.394 . S
C523 C522 1.478 . S
C523 C524 1.397 . S
C524 C523 1.397 . S
C524 C525 1.438 . S
C524 C529 1.429 . S
C525 C508 1.394 . S
C525 C524 1.438 . S
C525 C526 1.428 . S
C526 H518 0.949 . S
C526 C525 1.428 . S
C526 C527 1.345 . S
C527 H519 0.950 . S
C527 C526 1.345 . S
C527 C528 1.424 . S
C528 H520 0.951 . S
C528 C527 1.424 . S
C528 C529 1.347 . S
C529 H521 0.951 . S
C529 C524 1.429 . S
C529 C528 1.347 . S
H530 C531 0.951 . S
C531 H530 0.951 . S
C531 C537 1.265 . S
H532 C537 0.950 . S
H533 C541 0.949 . S
H534 C542 0.950 . S
H535 C543 0.951 . S
H536 C544 0.951 . S
C537 C531 1.265 . S
C537 H532 0.950 . S
C537 C538 1.478 . S
C538 C537 1.478 . S
C538 C539 1.397 . S
C538 C555 1.394 . S
C539 C538 1.397 . S
C539 C540 1.438 . S
C539 C544 1.429 . S
C540 C539 1.438 . S
C540 C541 1.428 . S
C540 C553 1.394 . S
C541 H533 0.949 . S
C541 C540 1.428 . S
C541 C542 1.345 . S
C542 H534 0.950 . S
C542 C541 1.345 . S
C542 C543 1.424 . S
C543 H535 0.951 . S
C543 C542 1.424 . S
C543 C544 1.347 . S
C544 H536 0.951 . S
C544 C539 1.429 . S
C544 C543 1.347 . S
H545 C546 0.951 . S
C546 H545 0.951 . S
C546 C552 1.265 . S
H547 C552 0.950 . S
H548 C556 0.949 . S
H549 C557 0.950 . S
H550 C558 0.951 . S
H551 C559 0.951 . S
C552 C546 1.265 . S
C552 H547 0.950 . S
C552 C553 1.478 . S
C553 C540 1.394 . S
C553 C552 1.478 . S
C553 C554 1.397 . S
C554 C553 1.397 . S
C554 C555 1.438 . S
C554 C559 1.429 . S
C555 C538 1.394 . S
C555 C554 1.438 . S
C555 C556 1.428 . S
C556 H548 0.949 . S
C556 C555 1.428 . S
C556 C557 1.345 . S
C557 H549 0.950 . S
C557 C556 1.345 . S
C557 C558 1.424 . S
C558 H550 0.951 . S
C558 C557 1.424 . S
C558 C559 1.347 . S
C559 H551 0.951 . S
C559 C554 1.429 . S
C559 C558 1.347 . S
H560 C561 0.951 1_455 S
C561 H560 0.951 1_655 S
C561 C567 1.265 . S
H562 C567 0.950 . S
H563 C571 0.949 1_455 S
H564 C572 0.950 . S
H565 C573 0.951 1_554 S
H566 C574 0.951 . S
C567 C561 1.265 . S
C567 H562 0.950 . S
C567 C568 1.478 . S
C568 C567 1.478 . S
C568 C569 1.397 . S
C568 C585 1.394 1_655 S
C569 C568 1.397 . S
C569 C570 1.438 1_554 S
C569 C574 1.429 . S
C570 C569 1.438 1_556 S
C570 C571 1.428 . S
C570 C583 1.394 1_655 S
C571 H563 0.949 1_655 S
C571 C570 1.428 . S
C571 C572 1.345 . S
C572 H564 0.950 . S
C572 C571 1.345 . S
C572 C573 1.424 . S
C573 H565 0.951 1_556 S
C573 C572 1.424 . S
C573 C574 1.347 1_556 S
C574 H566 0.951 . S
C574 C569 1.429 . S
C574 C573 1.347 1_554 S
H575 C576 0.951 1_655 S
C576 H575 0.951 1_455 S
C576 C582 1.265 . S
H577 C582 0.950 . S
H578 C586 0.949 1_655 S
H579 C587 0.950 . S
H580 C588 0.951 1_556 S
H581 C589 0.951 . S
C582 C576 1.265 . S
C582 H577 0.950 . S
C582 C583 1.478 . S
C583 C570 1.394 1_455 S
C583 C582 1.478 . S
C583 C584 1.397 . S
C584 C583 1.397 . S
C584 C585 1.438 1_556 S
C584 C589 1.429 . S
C585 C568 1.394 1_455 S
C585 C584 1.438 1_554 S
C585 C586 1.428 . S
C586 H578 0.949 1_455 S
C586 C585 1.428 . S
C586 C587 1.345 . S
C587 H579 0.950 . S
C587 C586 1.345 . S
C587 C588 1.424 . S
C588 H580 0.951 1_554 S
C588 C587 1.424 . S
C588 C589 1.347 1_554 S
C589 H581 0.951 . S
C589 C584 1.429 . S
C589 C588 1.347 1_556 S
H590 C591 0.951 . S
C591 H590 0.951 . S
C591 C597 1.265 . S
H592 C597 0.950 . S
H593 C601 0.949 . S
H594 C602 0.950 . S
H595 C603 0.951 . S
H596 C604 0.951 . S
C597 C591 1.265 . S
C597 H592 0.950 . S
C597 C598 1.478 . S
C598 C597 1.478 . S
C598 C599 1.397 1_565 S
C598 C615 1.394 . S
C599 C598 1.397 1_545 S
C599 C600 1.438 . S
C599 C604 1.429 . S
C600 C599 1.438 . S
C600 C601 1.428 . S
C600 C613 1.394 . S
C601 H593 0.949 . S
C601 C600 1.428 . S
C601 C602 1.345 . S
C602 H594 0.950 . S
C602 C601 1.345 . S
C602 C603 1.424 . S
C603 H595 0.951 . S
C603 C602 1.424 . S
C603 C604 1.347 . S
C604 H596 0.951 . S
C604 C599 1.429 . S
C604 C603 1.347 . S
H605 C606 0.951 . S
C606 H605 0.951 . S
C606 C612 1.265 . S
H607 C612 0.950 . S
H608 C616 0.949 . S
H609 C617 0.950 . S
H610 C618 0.951 . S
H611 C619 0.951 . S
C612 C606 1.265 . S
C612 H607 0.950 . S
C612 C613 1.478 . S
C613 C600 1.394 . S
C613 C612 1.478 . S
C613 C614 1.397 1_545 S
C614 C613 1.397 1_565 S
C614 C615 1.438 . S
C614 C619 1.429 . S
C615 C598 1.394 . S
C615 C614 1.438 . S
C615 C616 1.428 . S
C616 H608 0.949 . S
C616 C615 1.428 . S
C616 C617 1.345 . S
C617 H609 0.950 . S
C617 C616 1.345 . S
C617 C618 1.424 . S
C618 H610 0.951 . S
C618 C617 1.424 . S
C618 C619 1.347 . S
C619 H611 0.951 . S
C619 C614 1.429 . S
C619 C618 1.347 . S
H620 C621 0.951 . S
C621 H620 0.951 . S
C621 C627 1.265 . S
H622 C627 0.950 1_655 S
H623 C631 0.949 . S
H624 C632 0.950 . S
H625 C633 0.951 . S
H626 C634 0.951 . S
C627 C621 1.265 . S
C627 H622 0.950 1_455 S
C627 C628 1.478 . S
C628 C627 1.478 . S
C628 C629 1.397 1_455 S
C628 C645 1.394 . S
C629 C628 1.397 1_655 S
C629 C630 1.438 . S
C629 C634 1.429 . S
C630 C629 1.438 . S
C630 C631 1.428 . S
C630 C643 1.394 . S
C631 H623 0.949 . S
C631 C630 1.428 . S
C631 C632 1.345 . S
C632 H624 0.950 . S
C632 C631 1.345 . S
C632 C633 1.424 . S
C633 H625 0.951 . S
C633 C632 1.424 . S
C633 C634 1.347 . S
C634 H626 0.951 . S
C634 C629 1.429 . S
C634 C633 1.347 . S
H635 C636 0.951 . S
C636 H635 0.951 . S
C636 C642 1.265 . S
H637 C642 0.950 1_455 S
H638 C646 0.949 . S
H639 C647 0.950 . S
H640 C648 0.951 . S
H641 C649 0.951 . S
C642 C636 1.265 . S
C642 H637 0.950 1_655 S
C642 C643 1.478 . S
C643 C630 1.394 . S
C643 C642 1.478 . S
C643 C644 1.397 1_655 S
C644 C643 1.397 1_455 S
C644 C645 1.438 . S
C644 C649 1.429 . S
C645 C628 1.394 . S
C645 C644 1.438 . S
C645 C646 1.428 . S
C646 H638 0.949 . S
C646 C645 1.428 . S
C646 C647 1.345 . S
C647 H639 0.950 . S
C647 C646 1.345 . S
C647 C648 1.424 . S
C648 H640 0.951 . S
C648 C647 1.424 . S
C648 C649 1.347 . S
C649 H641 0.951 . S
C649 C644 1.429 . S
C649 C648 1.347 . S
H650 C651 0.951 . S
C651 H650 0.951 . S
C651 C657 1.265 . S
H652 C657 0.950 . S
H653 C661 0.949 . S
H654 C662 0.950 . S
H655 C663 0.951 . S
H656 C664 0.951 . S
C657 C651 1.265 . S
C657 H652 0.950 . S
C657 C658 1.478 . S
C658 C657 1.478 . S
C658 C659 1.397 . S
C658 C675 1.394 1_545 S
C659 C658 1.397 . S
C659 C660 1.438 . S
C659 C664 1.429 . S
C660 C659 1.438 . S
C660 C661 1.428 . S
C660 C673 1.394 1_545 S
C661 H653 0.949 . S
C661 C660 1.428 . S
C661 C662 1.345 . S
C662 H654 0.950 . S
C662 C661 1.345 . S
C662 C663 1.424 . S
C663 H655 0.951 . S
C663 C662 1.424 . S
C663 C664 1.347 . S
C664 H656 0.951 . S
C664 C659 1.429 . S
C664 C663 1.347 . S
H665 C666 0.951 . S
C666 H665 0.951 . S
C666 C672 1.265 . S
H667 C672 0.950 . S
H668 C676 0.949 . S
H669 C677 0.950 . S
H670 C678 0.951 . S
H671 C679 0.951 . S
C672 C666 1.265 . S
C672 H667 0.950 . S
C672 C673 1.478 . S
C673 C660 1.394 1_565 S
C673 C672 1.478 . S
C673 C674 1.397 . S
C674 C673 1.397 . S
C674 C675 1.438 . S
C674 C679 1.429 . S
C675 C658 1.394 1_565 S
C675 C674 1.438 . S
C675 C676 1.428 . S
C676 H668 0.949 . S
C676 C675 1.428 . S
C676 C677 1.345 . S
C677 H669 0.950 . S
C677 C676 1.345 . S
C677 C678 1.424 . S
C678 H670 0.951 . S
C678 C677 1.424 . S
C678 C679 1.347 . S
C679 H671 0.951 . S
C679 C674 1.429 . S
C679 C678 1.347 . S
C321 C21 1.898 . S
C336 C181 1.906 . S
C351 C61 1.922 . S
C366 C221 1.925 . S
C381 C101 1.901 . S
C396 C261 1.910 . S
C411 C301 1.925 . S
C426 C141 1.926 . S
C441 C15 1.879 . S
C456 C215 1.876 . S
C471 C55 1.865 . S
C486 C255 1.886 . S
C501 C95 1.872 . S
C516 C295 1.870 . S
C531 C135 1.865 . S
C546 C175 1.877 . S
C561 C2 1.540 . S
C576 C242 1.537 . S
C591 C42 1.564 . S
C606 C282 1.551 . S
C621 C82 1.582 . S
C636 C162 1.583 . S
C651 C122 1.555 . S
C666 C202 1.564 . S
