# Generated by pormake.
# Topology wkw, (8)-cn, num edge types: 1
# Building blocks:
#     Node 0, Type 0, BuildingBlock: TAGTUT_clean_sbu_1, # of connection points: 8
#     Node 1, Type 0, BuildingBlock: TAGTUT_clean_sbu_1, # of connection points: 8
#     Node 2, Type 0, BuildingBlock: TAGTUT_clean_sbu_1, # of connection points: 8
#     Node 3, Type 0, BuildingBlock: TAGTUT_clean_sbu_1, # of connection points: 8
#     Node 4, Type 0, BuildingBlock: TAGTUT_clean_sbu_1, # of connection points: 8
#     Node 5, Type 0, BuildingBlock: TAGTUT_clean_sbu_1, # of connection points: 8
#     Edge 6, Type (0, 0), BuildingBlock: OJICUG_clean_linker_0, # of connection points: 2
#     Edge 7, Type (0, 0), BuildingBlock: OJICUG_clean_linker_0, # of connection points: 2
#     Edge 8, Type (0, 0), BuildingBlock: OJICUG_clean_linker_0, # of connection points: 2
#     Edge 9, Type (0, 0), BuildingBlock: OJICUG_clean_linker_0, # of connection points: 2
#     Edge 10, Type (0, 0), BuildingBlock: OJICUG_clean_linker_0, # of connection points: 2
#     Edge 11, Type (0, 0), BuildingBlock: OJICUG_clean_linker_0, # of connection points: 2
#     Edge 12, Type (0, 0), BuildingBlock: OJICUG_clean_linker_0, # of connection points: 2
#     Edge 13, Type (0, 0), BuildingBlock: OJICUG_clean_linker_0, # of connection points: 2
#     Edge 14, Type (0, 0), BuildingBlock: OJICUG_clean_linker_0, # of connection points: 2
#     Edge 15, Type (0, 0), BuildingBlock: OJICUG_clean_linker_0, # of connection points: 2
#     Edge 16, Type (0, 0), BuildingBlock: OJICUG_clean_linker_0, # of connection points: 2
#     Edge 17, Type (0, 0), BuildingBlock: OJICUG_clean_linker_0, # of connection points: 2
#     Edge 18, Type (0, 0), BuildingBlock: OJICUG_clean_linker_0, # of connection points: 2
#     Edge 19, Type (0, 0), BuildingBlock: OJICUG_clean_linker_0, # of connection points: 2
#     Edge 20, Type (0, 0), BuildingBlock: OJICUG_clean_linker_0, # of connection points: 2
#     Edge 21, Type (0, 0), BuildingBlock: OJICUG_clean_linker_0, # of connection points: 2
#     Edge 22, Type (0, 0), BuildingBlock: OJICUG_clean_linker_0, # of connection points: 2
#     Edge 23, Type (0, 0), BuildingBlock: OJICUG_clean_linker_0, # of connection points: 2
#     Edge 24, Type (0, 0), BuildingBlock: OJICUG_clean_linker_0, # of connection points: 2
#     Edge 25, Type (0, 0), BuildingBlock: OJICUG_clean_linker_0, # of connection points: 2
#     Edge 26, Type (0, 0), BuildingBlock: OJICUG_clean_linker_0, # of connection points: 2
#     Edge 27, Type (0, 0), BuildingBlock: OJICUG_clean_linker_0, # of connection points: 2
#     Edge 28, Type (0, 0), BuildingBlock: OJICUG_clean_linker_0, # of connection points: 2
#     Edge 29, Type (0, 0), BuildingBlock: OJICUG_clean_linker_0, # of connection points: 2
# Relax obj value: 0.242
# Max RMSD: 0.275
# Mean RMSD: 0.275
data_MOF--net-wkw--node1-TAGTUT_clean_sbu_1--edge1-OJICUG_clean_linker_0
_symmetry_space_group_name_H-M    P1
_symmetry_Int_Tables_number       1
_symmetry_cell_setting            triclinic
loop_
_symmetry_equiv_pos_as_xyz
'x, y, z'
_cell_length_a     29.33213
_cell_length_b     28.667142
_cell_length_c     15.290874
_cell_angle_alpha  89.995809
_cell_angle_beta   90.003545
_cell_angle_gamma 118.13204
loop_
_atom_site_label
_atom_site_type_symbol
_atom_site_fract_x
_atom_site_fract_y
_atom_site_fract_z
_atom_type_partial_charge
C0 C 0.74962 0.18895 0.78349 0.0
C1 C 0.88554 0.30333 0.65437 0.0
C2 C 0.98779 0.27185 0.95032 0.0
Mg3 Mg 0.82243 0.30519 0.81576 0.0
O4 O 0.85084 0.27247 0.88518 0.0
Mg5 Mg 0.8749 0.2255 0.82926 0.0
Mg6 Mg 0.90661 0.31331 -0.03358 0.0
O7 O 0.96413 0.3548 0.05094 0.0
Mg8 Mg 0.99223 0.32241 0.12738 0.0
Mg9 Mg 0.9353 0.39882 0.10382 0.0
C10 C 0.84282 0.37866 -0.01747 0.0
C11 C 0.95584 0.43504 0.90203 0.0
O12 O 0.7879 0.1785 0.77886 0.0
O13 O 0.75481 0.2347 0.80138 0.0
O14 O 0.89617 0.27135 0.69739 0.0
O15 O 0.85939 0.32375 0.68874 0.0
O16 O 0.8259 0.36573 0.90413 0.0
O17 O 0.85986 0.3518 0.02704 0.0
C18 C 0.84859 0.18921 0.0298 0.0
O19 O 0.86714 0.23725 0.05657 0.0
O20 O 0.85063 0.17818 0.95011 0.0
O21 O 1.01331 0.44294 0.16114 0.0
O22 O 0.05875 0.39777 0.16392 0.0
O23 O 0.90958 0.35113 0.23391 0.0
C24 C 0.0548 0.44021 0.17544 0.0
O25 O 0.9471 0.29956 0.24604 0.0
O26 O 0.97454 0.25906 0.02997 0.0
C27 C 0.91926 0.31876 0.27774 0.0
O28 O 0.95739 0.28042 0.89896 0.0
O29 O 0.93869 0.38696 0.87711 0.0
O30 O 0.9615 0.44754 -0.01731 0.0
C31 C 0.54009 0.74647 0.93615 0.0
C32 C 0.58345 0.89645 0.81634 0.0
C33 C 0.71865 0.97494 0.10863 0.0
Mg34 Mg 0.51836 0.83733 -0.02329 0.0
O35 O 0.57628 0.85434 0.04554 0.0
Mg36 Mg 0.6403 0.86649 -0.01547 0.0
Mg37 Mg 0.6001 0.91389 0.12728 0.0
O38 O 0.62222 0.97467 0.21476 0.0
Mg39 Mg 0.68359 0.98544 0.2871 0.0
Mg40 Mg 0.54804 0.96011 0.26707 0.0
C41 C 0.47787 0.86612 0.15018 0.0
C42 C 0.53778 0.97848 0.05864 0.0
O43 O 0.5892 0.77839 0.93241 0.0
O44 O 0.50654 0.76115 0.95554 0.0
O45 O 0.62173 0.89715 0.85729 0.0
O46 O 0.53881 0.87734 0.85154 0.0
O47 O 0.47069 0.84894 0.0713 0.0
O48 O 0.52122 0.88146 0.19065 0.0
C49 C 0.65054 0.83501 0.18242 0.0
O50 O 0.6301 0.86267 0.21453 0.0
O51 O 0.65781 0.83383 0.10103 0.0
O52 O 0.63231 0.02186 0.24385 0.0
O53 O 0.7017 0.06669 0.31993 0.0
O54 O 0.56952 0.93447 0.39872 0.0
C55 C 0.65613 0.05838 0.30091 0.0
O56 O 0.64894 0.9414 0.4059 0.0
O57 O 0.71529 0.95521 0.18458 0.0
C58 C 0.60498 0.92961 0.44043 0.0
O59 O 0.68006 0.95215 0.05562 0.0
O60 O 0.56639 0.95705 0.03907 0.0
O61 O 0.52868 0.98534 0.13806 0.0
C62 C 0.84308 0.55827 0.09195 0.0
C63 C 0.73216 0.59249 -0.02225 0.0
C64 C 0.76122 0.72344 0.27365 0.0
Mg65 Mg 0.73301 0.52814 0.13699 0.0
O66 O 0.76958 0.58686 0.2075 0.0
Mg67 Mg 0.81172 0.65485 0.14809 0.0
Mg68 Mg 0.72894 0.60361 0.28972 0.0
O69 O 0.68579 0.6196 0.37511 0.0
Mg70 Mg 0.71389 0.6795 0.45083 0.0
Mg71 Mg 0.64638 0.54748 0.42852 0.0
C72 C 0.67181 0.47655 0.30962 0.0
C73 C 0.60992 0.53076 0.22733 0.0
O74 O 0.85638 0.60835 0.0927 0.0
O75 O 0.79788 0.52207 0.11046 0.0
O76 O 0.76522 0.63295 0.0194 0.0
O77 O 0.71101 0.54678 0.01288 0.0
O78 O 0.68076 0.4726 0.22874 0.0
O79 O 0.69664 0.52023 0.35236 0.0
C80 C 0.85172 0.66692 0.34691 0.0
O81 O 0.80541 0.64121 0.37733 0.0
O82 O 0.86035 0.67641 0.26593 0.0
O83 O 0.59874 0.58078 0.48555 0.0
O84 O 0.63742 0.66998 0.48705 0.0
O85 O 0.6931 0.57002 0.55732 0.0
C86 C 0.598 0.62428 0.49937 0.0
O87 O 0.73848 0.65768 0.56959 0.0
O88 O 0.77501 0.72227 0.35251 0.0
C89 C 0.72247 0.61139 0.60119 0.0
O90 O 0.75611 0.68593 0.22048 0.0
O91 O 0.65618 0.56215 0.20235 0.0
O92 O 0.5979 0.52349 0.30801 0.0
C93 C 0.30107 0.84905 0.28345 0.0
C94 C 0.16514 0.73468 0.15434 0.0
C95 C 0.06291 0.76618 0.45027 0.0
Mg96 Mg 0.22825 0.73282 0.31575 0.0
O97 O 0.19985 0.76555 0.38515 0.0
Mg98 Mg 0.1758 0.81252 0.32922 0.0
Mg99 Mg 0.14407 0.72471 0.46639 0.0
O100 O 0.08655 0.68322 0.55089 0.0
Mg101 Mg 0.05846 0.71561 0.62733 0.0
Mg102 Mg 0.11538 0.63919 0.60379 0.0
C103 C 0.20786 0.65935 0.48253 0.0
C104 C 0.09485 0.60299 0.402 0.0
O105 O 0.26279 0.8595 0.27881 0.0
O106 O 0.29587 0.8033 0.30136 0.0
O107 O 0.15451 0.76667 0.19735 0.0
O108 O 0.19129 0.71426 0.18872 0.0
O109 O 0.22478 0.67228 0.40414 0.0
O110 O 0.19082 0.68622 0.52703 0.0
C111 C 0.2021 0.8488 0.52976 0.0
O112 O 0.18354 0.80076 0.55653 0.0
O113 O 0.20007 0.85984 0.45006 0.0
O114 O 0.03738 0.59508 0.66111 0.0
O115 O 0.99194 0.64026 0.66389 0.0
O116 O 0.1411 0.68688 0.73389 0.0
C117 C 0.99589 0.59781 0.67541 0.0
O118 O 0.10359 0.73846 0.74599 0.0
O119 O 0.07617 0.77897 0.52992 0.0
C120 C 0.13143 0.71925 0.77771 0.0
O121 O 0.09331 0.75761 0.3989 0.0
O122 O 0.11199 0.65107 0.37708 0.0
O123 O 0.08918 0.59048 0.48266 0.0
C124 C 0.5106 0.29152 0.43614 0.0
C125 C 0.46722 0.14154 0.31635 0.0
C126 C 0.33203 0.06306 0.60862 0.0
Mg127 Mg 0.53232 0.20065 0.47672 0.0
O128 O 0.47441 0.18366 0.54554 0.0
Mg129 Mg 0.41039 0.17152 0.48452 0.0
Mg130 Mg 0.45058 0.12411 0.62729 0.0
O131 O 0.42844 0.06332 0.71478 0.0
Mg132 Mg 0.36707 0.05255 0.78709 0.0
Mg133 Mg 0.50262 0.07786 0.76709 0.0
C134 C 0.57281 0.17185 0.65021 0.0
C135 C 0.51288 0.05951 0.55867 0.0
O136 O 0.4615 0.25961 0.43239 0.0
O137 O 0.54415 0.27683 0.45553 0.0
O138 O 0.42895 0.14085 0.35729 0.0
O139 O 0.51187 0.16064 0.35156 0.0
O140 O 0.57998 0.18904 0.57132 0.0
O141 O 0.52945 0.15652 0.69067 0.0
C142 C 0.40015 0.203 0.6824 0.0
O143 O 0.42058 0.17533 0.71452 0.0
O144 O 0.39288 0.20418 0.601 0.0
O145 O 0.41834 1.01613 0.74384 0.0
O146 O 0.34894 0.97129 0.8199 0.0
O147 O 0.48114 0.1035 0.89874 0.0
C148 C 0.39452 0.9796 0.80088 0.0
O149 O 0.40172 0.09657 0.90591 0.0
O150 O 0.33539 0.08279 0.68456 0.0
C151 C 0.44568 0.10836 0.94045 0.0
O152 O 0.37062 0.08586 0.55561 0.0
O153 O 0.48428 0.08094 0.5391 0.0
O154 O 0.52198 0.05264 0.63809 0.0
C155 C 0.20762 0.47974 0.59193 0.0
C156 C 0.31853 0.44551 0.47775 0.0
C157 C 0.28947 0.31456 0.77366 0.0
Mg158 Mg 0.31769 0.50987 0.63698 0.0
O159 O 0.28112 0.45115 0.70749 0.0
Mg160 Mg 0.23897 0.38316 0.64809 0.0
Mg161 Mg 0.32175 0.43439 0.78973 0.0
O162 O 0.3649 0.41839 0.87512 0.0
Mg163 Mg 0.33681 0.3585 0.95085 0.0
Mg164 Mg 0.40432 0.49051 0.92852 0.0
C165 C 0.37889 0.56146 0.80962 0.0
C166 C 0.44077 0.50723 0.72733 0.0
O167 O 0.19431 0.42966 0.5927 0.0
O168 O 0.25282 0.51594 0.61042 0.0
O169 O 0.28546 0.40506 0.5194 0.0
O170 O 0.33969 0.49123 0.51288 0.0
O171 O 0.36995 0.56541 0.72873 0.0
O172 O 0.35406 0.51777 0.85236 0.0
C173 C 0.19897 0.37108 0.84691 0.0
O174 O 0.24529 0.3968 0.87733 0.0
O175 O 0.19034 0.3616 0.76593 0.0
O176 O 0.45195 0.45721 -0.01445 0.0
O177 O 0.41327 0.36801 -0.01293 0.0
O178 O 0.3576 0.46797 0.05732 0.0
C179 C 0.45269 0.4137 -0.00062 0.0
O180 O 0.31222 0.38031 0.0696 0.0
O181 O 0.27568 0.31573 0.85252 0.0
C182 C 0.32823 0.42661 0.1012 0.0
O183 O 0.29458 0.35207 0.72049 0.0
O184 O 0.39451 0.47584 0.70235 0.0
O185 O 0.4528 0.5145 0.80801 0.0
C186 C 0.92278 0.28162 0.4253 0.0
C187 C 0.90667 0.31157 0.37304 0.0
H188 H 0.93025 0.2567 0.55397 0.0
C189 C 0.88509 0.34038 0.41492 0.0
H190 H 0.94021 0.25944 0.39597 0.0
C191 C 0.88 0.33938 0.50628 0.0
C192 C 0.89636 0.30958 0.55846 0.0
H193 H 0.87295 0.3646 0.37732 0.0
H194 H 0.86278 0.36168 0.53588 0.0
C195 C 0.91778 0.28069 0.51648 0.0
C196 C 0.6401 0.92406 0.58754 0.0
C197 C 0.59823 0.91894 0.5362 0.0
H198 H 0.66894 0.92293 0.7152 0.0
C199 C 0.55209 0.90965 0.57884 0.0
H200 H 0.67658 0.93221 0.55765 0.0
C201 C 0.54774 0.90466 0.67018 0.0
C202 C 0.58956 0.9092 0.72123 0.0
H203 H 0.51929 0.9065 0.54177 0.0
H204 H 0.51135 0.89641 0.70056 0.0
C205 C 0.63591 0.91951 0.67853 0.0
C206 C 0.69985 0.55231 0.82953 0.0
C207 C 0.72666 0.59751 0.88197 0.0
H208 H 0.67895 0.52082 0.7002 0.0
C209 C 0.75434 0.6469 0.84047 0.0
H210 H 0.67871 0.5135 0.85889 0.0
C211 C 0.75525 0.65102 0.74925 0.0
C212 C 0.72845 0.60588 0.69672 0.0
H213 H 0.77602 0.68256 0.8784 0.0
H214 H 0.77632 0.68988 0.72005 0.0
C215 C 0.70082 0.55642 0.73818 0.0
C216 C 0.17068 0.69863 0.00627 0.0
C217 C 0.15432 0.72844 0.05843 0.0
H218 H 0.17772 0.67339 0.87732 0.0
C219 C 0.13292 0.75734 0.01644 0.0
H220 H 0.18788 0.67632 0.03588 0.0
C221 C 0.12792 0.75641 0.92525 0.0
C222 C 0.14402 0.72644 0.873 0.0
H223 H 0.12046 0.78134 0.0539 0.0
H224 H 0.11051 0.7786 0.89591 0.0
C225 C 0.16558 0.69763 0.91491 0.0
C226 C 0.41057 0.11393 0.08755 0.0
C227 C 0.45243 0.11904 0.03621 0.0
H228 H 0.38173 0.11506 0.2152 0.0
C229 C 0.49858 0.12832 0.07887 0.0
H230 H 0.37409 0.10578 0.05765 0.0
C231 C 0.50292 0.13332 0.1702 0.0
C232 C 0.46111 0.12878 0.22124 0.0
H233 H 0.53137 0.13146 0.0418 0.0
H234 H 0.53931 0.14156 0.20059 0.0
C235 C 0.41476 0.11848 0.17854 0.0
C236 C 0.34988 0.48157 0.23817 0.0
C237 C 0.32225 0.43212 0.19672 0.0
H238 H 0.372 0.5245 0.35888 0.0
C239 C 0.29544 0.38698 0.24927 0.0
H240 H 0.37176 0.51718 0.20019 0.0
C241 C 0.29635 0.3911 0.34048 0.0
C242 C 0.32404 0.4405 0.38197 0.0
H243 H 0.27436 0.34812 0.22007 0.0
H244 H 0.27466 0.35544 0.37842 0.0
C245 C 0.35085 0.48569 0.32952 0.0
C246 C 0.61483 0.14985 0.77574 0.0
C247 C 0.61235 0.15897 0.68621 0.0
H248 H 0.66187 0.1459 0.87925 0.0
C249 C 0.64925 0.15676 0.62966 0.0
H250 H 0.58679 0.15063 0.82093 0.0
C251 C 0.69096 0.1518 0.66285 0.0
C252 C 0.69793 0.15212 0.75324 0.0
H253 H 0.64775 0.16196 0.55975 0.0
H254 H 0.72185 0.1569 0.61859 0.0
C255 C 0.65708 0.14551 0.80891 0.0
C256 C 0.50901 0.68406 0.81658 0.0
C257 C 0.51756 0.6919 0.90639 0.0
H258 H 0.45714 0.63853 0.71611 0.0
C259 C 0.4843 0.65247 -0.03538 0.0
H260 H 0.53339 0.71446 0.77067 0.0
C261 C 0.43973 0.60874 0.93381 0.0
C262 C 0.42791 0.60422 0.84438 0.0
H263 H 0.48961 0.65863 0.03461 0.0
H264 H 0.41302 0.5807 -0.01966 0.0
C265 C 0.46414 0.64128 0.78593 0.0
C266 C 0.8549 0.46928 0.94763 0.0
C267 C 0.85574 0.43339 0.00998 0.0
H268 H 0.85957 0.54486 0.92394 0.0
C269 C 0.87203 0.45181 0.09531 0.0
H270 H 0.84422 0.4575 0.88029 0.0
C271 C 0.88354 0.50346 0.1188 0.0
C272 C 0.8756 0.53637 0.05908 0.0
H273 H 0.87292 0.42558 0.14535 0.0
H274 H 0.88995 0.51424 0.18736 0.0
C275 C 0.86623 0.52064 -0.02857 0.0
C276 C 0.40144 0.88124 0.12958 0.0
C277 C 0.43833 0.879 0.18615 0.0
H278 H 0.32886 0.88112 0.11847 0.0
C279 C 0.43583 0.88811 0.27569 0.0
H280 H 0.40295 0.87605 0.05967 0.0
C281 C 0.39358 0.89245 0.30884 0.0
C282 C 0.35275 0.88587 0.25313 0.0
H283 H 0.46387 0.88731 0.32089 0.0
H284 H 0.38878 0.89206 0.37917 0.0
C285 C 0.35975 0.88621 0.16276 0.0
C286 C 0.56641 0.3855 0.4646 0.0
C287 C 0.53315 0.34609 0.40634 0.0
H288 H 0.6377 0.45726 0.48035 0.0
C289 C 0.54168 0.35396 0.31654 0.0
H290 H 0.56111 0.37931 0.53459 0.0
C291 C 0.58656 0.39675 0.28591 0.0
C292 C 0.62279 0.43378 0.34437 0.0
H293 H 0.5173 0.32358 0.27061 0.0
H294 H 0.59355 0.39951 0.21608 0.0
C295 C 0.61098 0.42923 0.43381 0.0
C296 C 0.17864 0.5862 0.59533 0.0
C297 C 0.19494 0.60462 0.51 0.0
H298 H 0.16072 0.52378 0.6874 0.0
C299 C 0.19578 0.56873 0.44768 0.0
H300 H 0.17775 0.61244 0.64536 0.0
C301 C 0.18446 0.51737 0.4715 0.0
C302 C 0.17508 0.50164 0.55914 0.0
H303 H 0.20647 0.5805 0.38033 0.0
H304 H 0.19112 0.49314 0.42402 0.0
C305 C 0.16711 0.53455 0.61882 0.0
C306 C 0.83428 0.11167 0.11968 0.0
C307 C 0.81447 0.14327 0.08317 0.0
H308 H 0.81883 0.03328 0.15647 0.0
C309 C 0.76123 0.12002 0.0643 0.0
H310 H 0.87538 0.12806 0.13174 0.0
C311 C 0.72947 0.06547 0.07378 0.0
C312 C 0.75018 0.03326 0.10429 0.0
H313 H 0.7453 0.14318 0.03337 0.0
H314 H 0.68928 0.04833 0.0543 0.0
C315 C 0.80216 0.05725 0.13152 0.0
C316 C 0.65053 0.74972 0.2039 0.0
C317 C 0.66734 0.80192 0.2339 0.0
H318 H 0.66715 0.68469 0.18953 0.0
C319 C 0.71258 0.82568 0.28442 0.0
H320 H 0.61645 0.73071 0.16291 0.0
C321 C 0.74187 0.79913 0.29941 0.0
C322 C 0.72733 0.74889 0.26239 0.0
H323 H 0.72765 0.86631 0.30581 0.0
H324 H 0.77765 0.81926 0.33585 0.0
C325 C 0.6803 0.72377 0.21703 0.0
C326 C 0.97297 0.75427 0.46899 0.0
C327 C 1.0062 0.73554 0.43563 0.0
H328 H 0.89606 0.74602 0.46895 0.0
C329 C 0.98449 0.68752 0.38975 0.0
H330 H 0.98867 0.79095 0.50555 0.0
C331 C 0.93138 0.6608 0.37262 0.0
C332 C 0.89876 0.68174 0.39947 0.0
H333 H 1.00867 0.67131 0.36493 0.0
H334 H 0.9164 0.62585 0.33156 0.0
C335 C 0.91978 0.72799 0.45006 0.0
C336 C 0.28944 0.918 0.56419 0.0
C337 C 0.23621 0.89474 0.58315 0.0
H338 H 0.36138 0.98969 0.55415 0.0
C339 C 0.21642 0.92633 0.61974 0.0
H340 H 0.30536 0.89485 0.53321 0.0
C341 C 0.24854 0.98074 0.63158 0.0
C342 C 0.3005 1.00474 0.60429 0.0
H343 H 0.17532 0.90993 0.63185 0.0
H344 H 0.23187 1.00471 0.6566 0.0
C345 C 0.3212 0.97254 0.57368 0.0
C346 C 0.33812 0.21232 0.78436 0.0
C347 C 0.38335 0.2361 0.73386 0.0
H348 H 0.27304 0.21872 0.8358 0.0
C349 C 0.40017 0.28831 0.7039 0.0
H350 H 0.32305 0.17168 0.80573 0.0
C351 C 0.37041 0.31425 0.71706 0.0
C352 C 0.32337 0.28911 0.76239 0.0
H353 H 0.43426 0.30733 0.66294 0.0
H354 H 0.38356 0.35335 0.68959 0.0
C355 C 0.30882 0.23886 0.79938 0.0
C356 C 0.06621 0.35051 0.8898 0.0
C357 C 0.0445 0.30248 0.93566 0.0
H358 H 0.13429 0.41218 0.83159 0.0
C359 C 0.07773 0.28375 -0.031 0.0
H360 H 0.04203 0.36672 0.865 0.0
C361 C 0.13092 0.31002 0.95004 0.0
C362 C 0.15193 0.35627 0.89946 0.0
H363 H 0.06203 0.24707 0.00556 0.0
H364 H 0.15464 0.29199 -0.03108 0.0
C365 C 0.11931 0.37723 0.87264 0.0
C366 C 0.0835 0.47414 0.31864 0.0
C367 C 0.09111 0.48365 0.22889 0.0
H368 H 0.07231 0.5019 0.44129 0.0
C369 C 0.10645 0.53501 0.19708 0.0
H370 H 0.07074 0.43469 0.34454 0.0
C371 C 0.1072 0.57414 0.25258 0.0
C372 C 0.09264 0.56228 0.34051 0.0
H373 H 0.11144 0.54287 0.12745 0.0
H374 H 0.11693 0.61267 0.22586 0.0
C375 C 0.08215 0.51222 0.37322 0.0
C376 C 0.59048 0.0498 0.5164 0.0
C377 C 0.54684 0.05494 0.4907 0.0
H378 H 0.6613 0.0511 0.47807 0.0
C379 C 0.54128 0.0638 0.40195 0.0
H380 H 0.59625 0.0427 0.58408 0.0
C381 C 0.57876 0.06822 0.34096 0.0
C382 C 0.62303 0.06477 0.36754 0.0
H383 H 0.50803 0.06732 0.37964 0.0
H384 H 0.57268 0.0733 0.27247 0.0
C385 C 0.62865 0.05589 0.45603 0.0
C386 C 0.50482 0.5795 0.51852 0.0
C387 C 0.55336 0.61737 0.5501 0.0
H388 H 0.43264 0.51197 0.54895 0.0
C389 C 0.56152 0.62342 0.64033 0.0
H390 H 0.49813 0.57349 0.44872 0.0
C391 C 0.52537 0.5866 0.69711 0.0
C392 C 0.479 0.54476 0.66509 0.0
H393 H 0.59888 0.65163 0.66623 0.0
H394 H 0.53464 0.59036 0.76618 0.0
C395 C 0.4681 0.54305 0.57555 0.0
C396 C 0.94427 0.50304 0.6971 0.0
C397 C 0.9596 0.55439 0.72892 0.0
H398 H 0.93379 0.42538 0.72586 0.0
C399 C 0.96718 0.56389 0.81868 0.0
H400 H 0.9393 0.4952 0.62746 0.0
C401 C 0.96853 0.5258 0.87325 0.0
C402 C 0.95806 0.47575 0.84053 0.0
H403 H 0.97994 0.60333 0.84459 0.0
H404 H 0.97835 0.53611 0.94133 0.0
C405 C 0.94351 0.46391 0.75259 0.0
C406 C 0.46019 0.98819 0.01637 0.0
C407 C 0.50382 0.98304 -0.00933 0.0
H408 H 0.38937 0.9869 -0.02196 0.0
C409 C 0.50936 0.97416 0.90193 0.0
H410 H 0.45443 0.99531 0.08404 0.0
C411 C 0.47187 0.96974 0.84094 0.0
C412 C 0.42761 0.9732 0.86751 0.0
H413 H 0.54261 0.97063 0.87962 0.0
H414 H 0.47794 0.96464 0.77245 0.0
C415 C 0.42201 0.98209 0.956 0.0
C416 C 0.54587 0.45847 0.01854 0.0
C417 C 0.49732 0.42061 0.05012 0.0
H418 H 0.61805 0.526 0.04896 0.0
C419 C 0.48916 0.41458 0.14036 0.0
H420 H 0.55256 0.46447 0.94874 0.0
C421 C 0.52531 0.45141 0.19713 0.0
C422 C 0.57169 0.49323 0.1651 0.0
H423 H 0.4518 0.38637 0.16626 0.0
H424 H 0.51604 0.44766 0.2662 0.0
C425 C 0.58259 0.49493 0.07556 0.0
loop_
_geom_bond_atom_site_label_1
_geom_bond_atom_site_label_2
_geom_bond_distance
_geom_bond_site_symmetry_2
_ccdc_geom_bond_type
C0 O12 1.241 . S
C0 O13 1.280 . S
C1 O14 1.277 . S
C1 O15 1.245 . S
C2 O26 1.247 1_556 S
C2 O28 1.289 . S
Mg3 O4 1.926 . S
Mg3 O13 1.984 . S
Mg3 O15 1.988 . S
Mg3 O16 2.061 . S
O4 Mg3 1.926 . S
O4 Mg5 1.986 . S
O4 Mg6 1.913 1_556 S
Mg5 O4 1.986 . S
Mg5 O12 2.042 . S
Mg5 O14 2.041 . S
Mg5 O20 2.038 . S
Mg5 O28 2.238 . S
Mg6 O4 1.913 1_554 S
Mg6 O7 1.920 . S
Mg6 O17 2.109 . S
Mg6 O19 2.082 . S
Mg6 O28 2.104 1_554 S
Mg6 O29 2.076 1_554 S
O7 Mg6 1.920 . S
O7 Mg8 1.926 . S
O7 Mg9 1.986 . S
Mg8 O7 1.926 . S
Mg8 O22 1.984 1_655 S
Mg8 O25 1.988 . S
Mg8 O26 2.061 . S
Mg9 O7 1.986 . S
Mg9 O17 2.238 . S
Mg9 O21 2.042 . S
Mg9 O23 2.041 . S
Mg9 O30 2.038 . S
C10 O16 1.247 1_554 S
C10 O17 1.289 . S
C11 O29 1.245 . S
C11 O30 1.274 1_556 S
O12 C0 1.241 . S
O12 Mg5 2.042 . S
O13 C0 1.280 . S
O13 Mg3 1.984 . S
O14 C1 1.277 . S
O14 Mg5 2.041 . S
O15 C1 1.245 . S
O15 Mg3 1.988 . S
O16 Mg3 2.061 . S
O16 C10 1.247 1_556 S
O17 Mg6 2.109 . S
O17 Mg9 2.238 . S
O17 C10 1.289 . S
C18 O19 1.245 . S
C18 O20 1.274 1_554 S
O19 Mg6 2.082 . S
O19 C18 1.245 . S
O20 Mg5 2.038 . S
O20 C18 1.274 1_556 S
O21 Mg9 2.042 . S
O21 C24 1.241 1_655 S
O22 Mg8 1.984 1_455 S
O22 C24 1.280 . S
O23 Mg9 2.041 . S
O23 C27 1.277 . S
C24 O21 1.241 1_455 S
C24 O22 1.280 . S
O25 Mg8 1.988 . S
O25 C27 1.245 . S
O26 C2 1.247 1_554 S
O26 Mg8 2.061 . S
C27 O23 1.277 . S
C27 O25 1.245 . S
O28 C2 1.289 . S
O28 Mg5 2.238 . S
O28 Mg6 2.104 1_556 S
O29 Mg6 2.076 1_556 S
O29 C11 1.245 . S
O30 Mg9 2.038 . S
O30 C11 1.274 1_554 S
C31 O43 1.241 . S
C31 O44 1.280 . S
C32 O45 1.277 . S
C32 O46 1.245 . S
C33 O57 1.247 . S
C33 O59 1.289 . S
Mg34 O35 1.926 1_556 S
Mg34 O44 1.984 . S
Mg34 O46 1.988 . S
Mg34 O47 2.061 1_556 S
O35 Mg34 1.926 1_554 S
O35 Mg36 1.986 . S
O35 Mg37 1.917 . S
Mg36 O35 1.986 . S
Mg36 O43 2.042 1_554 S
Mg36 O45 2.041 1_554 S
Mg36 O51 2.038 . S
Mg36 O59 2.238 . S
Mg37 O35 1.917 . S
Mg37 O38 1.917 . S
Mg37 O48 2.106 . S
Mg37 O50 2.079 . S
Mg37 O59 2.106 . S
Mg37 O60 2.079 . S
O38 Mg37 1.917 . S
O38 Mg39 1.926 . S
O38 Mg40 1.986 . S
Mg39 O38 1.926 . S
Mg39 O53 1.984 1_565 S
Mg39 O56 1.988 . S
Mg39 O57 2.061 . S
Mg40 O38 1.986 . S
Mg40 O48 2.238 . S
Mg40 O52 2.042 . S
Mg40 O54 2.041 . S
Mg40 O61 2.038 . S
C41 O47 1.247 . S
C41 O48 1.289 . S
C42 O60 1.245 . S
C42 O61 1.274 . S
O43 C31 1.241 . S
O43 Mg36 2.042 1_556 S
O44 C31 1.280 . S
O44 Mg34 1.984 . S
O45 C32 1.277 . S
O45 Mg36 2.041 1_556 S
O46 C32 1.245 . S
O46 Mg34 1.988 . S
O47 Mg34 2.061 1_554 S
O47 C41 1.247 . S
O48 Mg37 2.106 . S
O48 Mg40 2.238 . S
O48 C41 1.289 . S
C49 O50 1.245 . S
C49 O51 1.274 . S
O50 Mg37 2.079 . S
O50 C49 1.245 . S
O51 Mg36 2.038 . S
O51 C49 1.274 . S
O52 Mg40 2.042 . S
O52 C55 1.241 1_565 S
O53 Mg39 1.984 1_545 S
O53 C55 1.280 . S
O54 Mg40 2.041 . S
O54 C58 1.277 . S
C55 O52 1.241 1_545 S
C55 O53 1.280 . S
O56 Mg39 1.988 . S
O56 C58 1.245 . S
O57 C33 1.247 . S
O57 Mg39 2.061 . S
C58 O54 1.277 . S
C58 O56 1.245 . S
O59 C33 1.289 . S
O59 Mg36 2.238 . S
O59 Mg37 2.106 . S
O60 Mg37 2.079 . S
O60 C42 1.245 . S
O61 Mg40 2.038 . S
O61 C42 1.274 . S
C62 O74 1.241 . S
C62 O75 1.280 . S
C63 O76 1.277 . S
C63 O77 1.245 . S
C64 O88 1.247 . S
C64 O90 1.289 . S
Mg65 O66 1.926 . S
Mg65 O75 1.984 . S
Mg65 O77 1.988 . S
Mg65 O78 2.061 . S
O66 Mg65 1.926 . S
O66 Mg67 1.986 . S
O66 Mg68 1.917 . S
Mg67 O66 1.986 . S
Mg67 O74 2.042 . S
Mg67 O76 2.041 . S
Mg67 O82 2.038 . S
Mg67 O90 2.238 . S
Mg68 O66 1.917 . S
Mg68 O69 1.917 . S
Mg68 O79 2.106 . S
Mg68 O81 2.079 . S
Mg68 O90 2.106 . S
Mg68 O91 2.079 . S
O69 Mg68 1.917 . S
O69 Mg70 1.926 . S
O69 Mg71 1.986 . S
Mg70 O69 1.926 . S
Mg70 O84 1.984 . S
Mg70 O87 1.988 . S
Mg70 O88 2.061 . S
Mg71 O69 1.986 . S
Mg71 O79 2.238 . S
Mg71 O83 2.042 . S
Mg71 O85 2.041 . S
Mg71 O92 2.038 . S
C72 O78 1.247 . S
C72 O79 1.289 . S
C73 O91 1.245 . S
C73 O92 1.274 . S
O74 C62 1.241 . S
O74 Mg67 2.042 . S
O75 C62 1.280 . S
O75 Mg65 1.984 . S
O76 C63 1.277 . S
O76 Mg67 2.041 . S
O77 C63 1.245 . S
O77 Mg65 1.988 . S
O78 Mg65 2.061 . S
O78 C72 1.247 . S
O79 Mg68 2.106 . S
O79 Mg71 2.238 . S
O79 C72 1.289 . S
C80 O81 1.245 . S
C80 O82 1.274 . S
O81 Mg68 2.079 . S
O81 C80 1.245 . S
O82 Mg67 2.038 . S
O82 C80 1.274 . S
O83 Mg71 2.042 . S
O83 C86 1.241 . S
O84 Mg70 1.984 . S
O84 C86 1.280 . S
O85 Mg71 2.041 . S
O85 C89 1.277 . S
C86 O83 1.241 . S
C86 O84 1.280 . S
O87 Mg70 1.988 . S
O87 C89 1.245 . S
O88 C64 1.247 . S
O88 Mg70 2.061 . S
C89 O85 1.277 . S
C89 O87 1.245 . S
O90 C64 1.289 . S
O90 Mg67 2.238 . S
O90 Mg68 2.106 . S
O91 Mg68 2.079 . S
O91 C73 1.245 . S
O92 Mg71 2.038 . S
O92 C73 1.274 . S
C93 O105 1.241 . S
C93 O106 1.280 . S
C94 O107 1.277 . S
C94 O108 1.245 . S
C95 O119 1.247 . S
C95 O121 1.289 . S
Mg96 O97 1.926 . S
Mg96 O106 1.984 . S
Mg96 O108 1.988 . S
Mg96 O109 2.061 . S
O97 Mg96 1.926 . S
O97 Mg98 1.986 . S
O97 Mg99 1.917 . S
Mg98 O97 1.986 . S
Mg98 O105 2.042 . S
Mg98 O107 2.041 . S
Mg98 O113 2.038 . S
Mg98 O121 2.238 . S
Mg99 O97 1.917 . S
Mg99 O100 1.917 . S
Mg99 O110 2.106 . S
Mg99 O112 2.079 . S
Mg99 O121 2.106 . S
Mg99 O122 2.079 . S
O100 Mg99 1.917 . S
O100 Mg101 1.926 . S
O100 Mg102 1.986 . S
Mg101 O100 1.926 . S
Mg101 O115 1.984 1_455 S
Mg101 O118 1.988 . S
Mg101 O119 2.061 . S
Mg102 O100 1.986 . S
Mg102 O110 2.238 . S
Mg102 O114 2.042 . S
Mg102 O116 2.041 . S
Mg102 O123 2.038 . S
C103 O109 1.247 . S
C103 O110 1.289 . S
C104 O122 1.245 . S
C104 O123 1.274 . S
O105 C93 1.241 . S
O105 Mg98 2.042 . S
O106 C93 1.280 . S
O106 Mg96 1.984 . S
O107 C94 1.277 . S
O107 Mg98 2.041 . S
O108 C94 1.245 . S
O108 Mg96 1.988 . S
O109 Mg96 2.061 . S
O109 C103 1.247 . S
O110 Mg99 2.106 . S
O110 Mg102 2.238 . S
O110 C103 1.289 . S
C111 O112 1.245 . S
C111 O113 1.274 . S
O112 Mg99 2.079 . S
O112 C111 1.245 . S
O113 Mg98 2.038 . S
O113 C111 1.274 . S
O114 Mg102 2.042 . S
O114 C117 1.241 1_455 S
O115 Mg101 1.984 1_655 S
O115 C117 1.280 . S
O116 Mg102 2.041 . S
O116 C120 1.277 . S
C117 O114 1.241 1_655 S
C117 O115 1.280 . S
O118 Mg101 1.988 . S
O118 C120 1.245 . S
O119 C95 1.247 . S
O119 Mg101 2.061 . S
C120 O116 1.277 . S
C120 O118 1.245 . S
O121 C95 1.289 . S
O121 Mg98 2.238 . S
O121 Mg99 2.106 . S
O122 Mg99 2.079 . S
O122 C104 1.245 . S
O123 Mg102 2.038 . S
O123 C104 1.274 . S
C124 O136 1.241 . S
C124 O137 1.280 . S
C125 O138 1.277 . S
C125 O139 1.245 . S
C126 O150 1.247 . S
C126 O152 1.289 . S
Mg127 O128 1.926 . S
Mg127 O137 1.984 . S
Mg127 O139 1.988 . S
Mg127 O140 2.061 . S
O128 Mg127 1.926 . S
O128 Mg129 1.986 . S
O128 Mg130 1.917 . S
Mg129 O128 1.986 . S
Mg129 O136 2.042 . S
Mg129 O138 2.041 . S
Mg129 O144 2.038 . S
Mg129 O152 2.238 . S
Mg130 O128 1.917 . S
Mg130 O131 1.917 . S
Mg130 O141 2.106 . S
Mg130 O143 2.079 . S
Mg130 O152 2.106 . S
Mg130 O153 2.079 . S
O131 Mg130 1.917 . S
O131 Mg132 1.926 . S
O131 Mg133 1.986 . S
Mg132 O131 1.926 . S
Mg132 O146 1.984 1_545 S
Mg132 O149 1.988 . S
Mg132 O150 2.061 . S
Mg133 O131 1.986 . S
Mg133 O141 2.238 . S
Mg133 O145 2.042 . S
Mg133 O147 2.041 . S
Mg133 O154 2.038 . S
C134 O140 1.247 . S
C134 O141 1.289 . S
C135 O153 1.245 . S
C135 O154 1.274 . S
O136 C124 1.241 . S
O136 Mg129 2.042 . S
O137 C124 1.280 . S
O137 Mg127 1.984 . S
O138 C125 1.277 . S
O138 Mg129 2.041 . S
O139 C125 1.245 . S
O139 Mg127 1.988 . S
O140 Mg127 2.061 . S
O140 C134 1.247 . S
O141 Mg130 2.106 . S
O141 Mg133 2.238 . S
O141 C134 1.289 . S
C142 O143 1.245 . S
C142 O144 1.274 . S
O143 Mg130 2.079 . S
O143 C142 1.245 . S
O144 Mg129 2.038 . S
O144 C142 1.274 . S
O145 Mg133 2.042 . S
O145 C148 1.241 1_545 S
O146 Mg132 1.984 1_565 S
O146 C148 1.280 . S
O147 Mg133 2.041 . S
O147 C151 1.277 . S
C148 O145 1.241 1_565 S
C148 O146 1.280 . S
O149 Mg132 1.988 . S
O149 C151 1.245 . S
O150 C126 1.247 . S
O150 Mg132 2.061 . S
C151 O147 1.277 . S
C151 O149 1.245 . S
O152 C126 1.289 . S
O152 Mg129 2.238 . S
O152 Mg130 2.106 . S
O153 Mg130 2.079 . S
O153 C135 1.245 . S
O154 Mg133 2.038 . S
O154 C135 1.274 . S
C155 O167 1.241 . S
C155 O168 1.280 . S
C156 O169 1.277 . S
C156 O170 1.245 . S
C157 O181 1.247 . S
C157 O183 1.289 . S
Mg158 O159 1.926 . S
Mg158 O168 1.984 . S
Mg158 O170 1.988 . S
Mg158 O171 2.061 . S
O159 Mg158 1.926 . S
O159 Mg160 1.986 . S
O159 Mg161 1.917 . S
Mg160 O159 1.986 . S
Mg160 O167 2.042 . S
Mg160 O169 2.041 . S
Mg160 O175 2.038 . S
Mg160 O183 2.238 . S
Mg161 O159 1.917 . S
Mg161 O162 1.917 . S
Mg161 O172 2.106 . S
Mg161 O174 2.079 . S
Mg161 O183 2.106 . S
Mg161 O184 2.079 . S
O162 Mg161 1.917 . S
O162 Mg163 1.926 1_556 S
O162 Mg164 1.986 . S
Mg163 O162 1.926 1_554 S
Mg163 O177 1.984 . S
Mg163 O180 1.988 . S
Mg163 O181 2.061 1_554 S
Mg164 O162 1.986 . S
Mg164 O172 2.238 . S
Mg164 O176 2.042 1_556 S
Mg164 O178 2.041 1_556 S
Mg164 O185 2.038 . S
C165 O171 1.247 . S
C165 O172 1.289 . S
C166 O184 1.245 . S
C166 O185 1.274 . S
O167 C155 1.241 . S
O167 Mg160 2.042 . S
O168 C155 1.280 . S
O168 Mg158 1.984 . S
O169 C156 1.277 . S
O169 Mg160 2.041 . S
O170 C156 1.245 . S
O170 Mg158 1.988 . S
O171 Mg158 2.061 . S
O171 C165 1.247 . S
O172 Mg161 2.106 . S
O172 Mg164 2.238 . S
O172 C165 1.289 . S
C173 O174 1.245 . S
C173 O175 1.274 . S
O174 Mg161 2.079 . S
O174 C173 1.245 . S
O175 Mg160 2.038 . S
O175 C173 1.274 . S
O176 Mg164 2.042 1_554 S
O176 C179 1.241 . S
O177 Mg163 1.984 . S
O177 C179 1.280 . S
O178 Mg164 2.041 1_554 S
O178 C182 1.277 . S
C179 O176 1.241 . S
C179 O177 1.280 . S
O180 Mg163 1.988 . S
O180 C182 1.245 . S
O181 C157 1.247 . S
O181 Mg163 2.061 1_556 S
C182 O178 1.277 . S
C182 O180 1.245 . S
O183 C157 1.289 . S
O183 Mg160 2.238 . S
O183 Mg161 2.106 . S
O184 Mg161 2.079 . S
O184 C166 1.245 . S
O185 Mg164 2.038 . S
O185 C166 1.274 . S
C186 C187 1.387 . S
C186 H190 0.950 . S
C186 C195 1.390 . S
C187 C186 1.387 . S
C187 C189 1.387 . S
H188 C195 0.950 . S
C189 C187 1.387 . S
C189 C191 1.390 . S
C189 H193 0.950 . S
H190 C186 0.950 . S
C191 C189 1.390 . S
C191 C192 1.387 . S
C191 H194 0.950 . S
C192 C191 1.387 . S
C192 C195 1.387 . S
H193 C189 0.950 . S
H194 C191 0.950 . S
C195 C186 1.390 . S
C195 H188 0.950 . S
C195 C192 1.387 . S
C196 C197 1.387 . S
C196 H200 0.950 . S
C196 C205 1.390 . S
C197 C196 1.387 . S
C197 C199 1.387 . S
H198 C205 0.950 . S
C199 C197 1.387 . S
C199 C201 1.390 . S
C199 H203 0.950 . S
H200 C196 0.950 . S
C201 C199 1.390 . S
C201 C202 1.387 . S
C201 H204 0.950 . S
C202 C201 1.387 . S
C202 C205 1.387 . S
H203 C199 0.950 . S
H204 C201 0.950 . S
C205 C196 1.390 . S
C205 H198 0.950 . S
C205 C202 1.387 . S
C206 C207 1.387 . S
C206 H210 0.950 . S
C206 C215 1.390 . S
C207 C206 1.387 . S
C207 C209 1.387 . S
H208 C215 0.950 . S
C209 C207 1.387 . S
C209 C211 1.390 . S
C209 H213 0.950 . S
H210 C206 0.950 . S
C211 C209 1.390 . S
C211 C212 1.387 . S
C211 H214 0.950 . S
C212 C211 1.387 . S
C212 C215 1.387 . S
H213 C209 0.950 . S
H214 C211 0.950 . S
C215 C206 1.390 . S
C215 H208 0.950 . S
C215 C212 1.387 . S
C216 C217 1.387 . S
C216 H220 0.950 . S
C216 C225 1.390 1_554 S
C217 C216 1.387 . S
C217 C219 1.387 . S
H218 C225 0.950 . S
C219 C217 1.387 . S
C219 C221 1.390 1_554 S
C219 H223 0.950 . S
H220 C216 0.950 . S
C221 C219 1.390 1_556 S
C221 C222 1.387 . S
C221 H224 0.950 . S
C222 C221 1.387 . S
C222 C225 1.387 . S
H223 C219 0.950 . S
H224 C221 0.950 . S
C225 C216 1.390 1_556 S
C225 H218 0.950 . S
C225 C222 1.387 . S
C226 C227 1.387 . S
C226 H230 0.950 . S
C226 C235 1.390 . S
C227 C226 1.387 . S
C227 C229 1.387 . S
H228 C235 0.950 . S
C229 C227 1.387 . S
C229 C231 1.390 . S
C229 H233 0.950 . S
H230 C226 0.950 . S
C231 C229 1.390 . S
C231 C232 1.387 . S
C231 H234 0.950 . S
C232 C231 1.387 . S
C232 C235 1.387 . S
H233 C229 0.950 . S
H234 C231 0.950 . S
C235 C226 1.390 . S
C235 H228 0.950 . S
C235 C232 1.387 . S
C236 C237 1.387 . S
C236 H240 0.950 . S
C236 C245 1.390 . S
C237 C236 1.387 . S
C237 C239 1.387 . S
H238 C245 0.950 . S
C239 C237 1.387 . S
C239 C241 1.390 . S
C239 H243 0.950 . S
H240 C236 0.950 . S
C241 C239 1.390 . S
C241 C242 1.387 . S
C241 H244 0.950 . S
C242 C241 1.387 . S
C242 C245 1.387 . S
H243 C239 0.950 . S
H244 C241 0.950 . S
C245 C236 1.390 . S
C245 H238 0.950 . S
C245 C242 1.387 . S
C246 C247 1.387 . S
C246 H250 0.950 . S
C246 C255 1.390 . S
C247 C246 1.387 . S
C247 C249 1.387 . S
H248 C255 0.950 . S
C249 C247 1.387 . S
C249 C251 1.390 . S
C249 H253 0.950 . S
H250 C246 0.950 . S
C251 C249 1.390 . S
C251 C252 1.387 . S
C251 H254 0.950 . S
C252 C251 1.387 . S
C252 C255 1.387 . S
H253 C249 0.950 . S
H254 C251 0.950 . S
C255 C246 1.390 . S
C255 H248 0.950 . S
C255 C252 1.387 . S
C256 C257 1.387 . S
C256 H260 0.950 . S
C256 C265 1.390 . S
C257 C256 1.387 . S
C257 C259 1.387 1_556 S
H258 C265 0.950 . S
C259 C257 1.387 1_554 S
C259 C261 1.390 . S
C259 H263 0.950 . S
H260 C256 0.950 . S
C261 C259 1.390 . S
C261 C262 1.387 1_554 S
C261 H264 0.950 . S
C262 C261 1.387 1_556 S
C262 C265 1.387 . S
H263 C259 0.950 . S
H264 C261 0.950 . S
C265 C256 1.390 . S
C265 H258 0.950 . S
C265 C262 1.387 . S
C266 C267 1.387 . S
C266 H270 0.950 1_554 S
C266 C275 1.390 . S
C267 C266 1.387 . S
C267 C269 1.387 . S
H268 C275 0.950 1_556 S
C269 C267 1.387 . S
C269 C271 1.390 . S
C269 H273 0.950 . S
H270 C266 0.950 1_556 S
C271 C269 1.390 . S
C271 C272 1.387 . S
C271 H274 0.950 . S
C272 C271 1.387 . S
C272 C275 1.387 . S
H273 C269 0.950 . S
H274 C271 0.950 . S
C275 C266 1.390 . S
C275 H268 0.950 1_554 S
C275 C272 1.387 . S
C276 C277 1.387 . S
C276 H280 0.950 . S
C276 C285 1.390 . S
C277 C276 1.387 . S
C277 C279 1.387 . S
H278 C285 0.950 . S
C279 C277 1.387 . S
C279 C281 1.390 . S
C279 H283 0.950 . S
H280 C276 0.950 . S
C281 C279 1.390 . S
C281 C282 1.387 . S
C281 H284 0.950 . S
C282 C281 1.387 . S
C282 C285 1.387 . S
H283 C279 0.950 . S
H284 C281 0.950 . S
C285 C276 1.390 . S
C285 H278 0.950 . S
C285 C282 1.387 . S
C286 C287 1.387 . S
C286 H290 0.950 . S
C286 C295 1.390 . S
C287 C286 1.387 . S
C287 C289 1.387 . S
H288 C295 0.950 . S
C289 C287 1.387 . S
C289 C291 1.390 . S
C289 H293 0.950 . S
H290 C286 0.950 . S
C291 C289 1.390 . S
C291 C292 1.387 . S
C291 H294 0.950 . S
C292 C291 1.387 . S
C292 C295 1.387 . S
H293 C289 0.950 . S
H294 C291 0.950 . S
C295 C286 1.390 . S
C295 H288 0.950 . S
C295 C292 1.387 . S
C296 C297 1.387 . S
C296 H300 0.950 . S
C296 C305 1.390 . S
C297 C296 1.387 . S
C297 C299 1.387 . S
H298 C305 0.950 . S
C299 C297 1.387 . S
C299 C301 1.390 . S
C299 H303 0.950 . S
H300 C296 0.950 . S
C301 C299 1.390 . S
C301 C302 1.387 . S
C301 H304 0.950 . S
C302 C301 1.387 . S
C302 C305 1.387 . S
H303 C299 0.950 . S
H304 C301 0.950 . S
C305 C296 1.390 . S
C305 H298 0.950 . S
C305 C302 1.387 . S
C306 C307 1.387 . S
C306 H310 0.950 . S
C306 C315 1.390 . S
C307 C306 1.387 . S
C307 C309 1.387 . S
H308 C315 0.950 . S
C309 C307 1.387 . S
C309 C311 1.390 . S
C309 H313 0.950 1_554 S
H310 C306 0.950 . S
C311 C309 1.390 . S
C311 C312 1.387 . S
C311 H314 0.950 1_554 S
C312 C311 1.387 . S
C312 C315 1.387 . S
H313 C309 0.950 1_556 S
H314 C311 0.950 1_556 S
C315 C306 1.390 . S
C315 H308 0.950 . S
C315 C312 1.387 . S
C316 C317 1.387 . S
C316 H320 0.950 . S
C316 C325 1.390 . S
C317 C316 1.387 . S
C317 C319 1.387 . S
H318 C325 0.950 . S
C319 C317 1.387 . S
C319 C321 1.390 . S
C319 H323 0.950 . S
H320 C316 0.950 . S
C321 C319 1.390 . S
C321 C322 1.387 . S
C321 H324 0.950 . S
C322 C321 1.387 . S
C322 C325 1.387 . S
H323 C319 0.950 . S
H324 C321 0.950 . S
C325 C316 1.390 . S
C325 H318 0.950 . S
C325 C322 1.387 . S
C326 C327 1.387 . S
C326 H330 0.950 . S
C326 C335 1.390 . S
C327 C326 1.387 . S
C327 C329 1.387 . S
H328 C335 0.950 . S
C329 C327 1.387 . S
C329 C331 1.390 . S
C329 H333 0.950 . S
H330 C326 0.950 . S
C331 C329 1.390 . S
C331 C332 1.387 . S
C331 H334 0.950 . S
C332 C331 1.387 . S
C332 C335 1.387 . S
H333 C329 0.950 . S
H334 C331 0.950 . S
C335 C326 1.390 . S
C335 H328 0.950 . S
C335 C332 1.387 . S
C336 C337 1.387 . S
C336 H340 0.950 . S
C336 C345 1.390 . S
C337 C336 1.387 . S
C337 C339 1.387 . S
H338 C345 0.950 . S
C339 C337 1.387 . S
C339 C341 1.390 . S
C339 H343 0.950 . S
H340 C336 0.950 . S
C341 C339 1.390 . S
C341 C342 1.387 . S
C341 H344 0.950 . S
C342 C341 1.387 . S
C342 C345 1.387 . S
H343 C339 0.950 . S
H344 C341 0.950 . S
C345 C336 1.390 . S
C345 H338 0.950 . S
C345 C342 1.387 . S
C346 C347 1.387 . S
C346 H350 0.950 . S
C346 C355 1.390 . S
C347 C346 1.387 . S
C347 C349 1.387 . S
H348 C355 0.950 . S
C349 C347 1.387 . S
C349 C351 1.390 . S
C349 H353 0.950 . S
H350 C346 0.950 . S
C351 C349 1.390 . S
C351 C352 1.387 . S
C351 H354 0.950 . S
C352 C351 1.387 . S
C352 C355 1.387 . S
H353 C349 0.950 . S
H354 C351 0.950 . S
C355 C346 1.390 . S
C355 H348 0.950 . S
C355 C352 1.387 . S
C356 C357 1.387 . S
C356 H360 0.950 . S
C356 C365 1.390 . S
C357 C356 1.387 . S
C357 C359 1.387 1_556 S
H358 C365 0.950 . S
C359 C357 1.387 1_554 S
C359 C361 1.390 . S
C359 H363 0.950 . S
H360 C356 0.950 . S
C361 C359 1.390 . S
C361 C362 1.387 1_554 S
C361 H364 0.950 . S
C362 C361 1.387 1_556 S
C362 C365 1.387 . S
H363 C359 0.950 . S
H364 C361 0.950 . S
C365 C356 1.390 . S
C365 H358 0.950 . S
C365 C362 1.387 . S
C366 C367 1.387 . S
C366 H370 0.950 . S
C366 C375 1.390 . S
C367 C366 1.387 . S
C367 C369 1.387 . S
H368 C375 0.950 . S
C369 C367 1.387 . S
C369 C371 1.390 . S
C369 H373 0.950 . S
H370 C366 0.950 . S
C371 C369 1.390 . S
C371 C372 1.387 . S
C371 H374 0.950 . S
C372 C371 1.387 . S
C372 C375 1.387 . S
H373 C369 0.950 . S
H374 C371 0.950 . S
C375 C366 1.390 . S
C375 H368 0.950 . S
C375 C372 1.387 . S
C376 C377 1.387 1_565 S
C376 H380 0.950 . S
C376 C385 1.390 1_565 S
C377 C376 1.387 1_545 S
C377 C379 1.387 . S
H378 C385 0.950 1_565 S
C379 C377 1.387 . S
C379 C381 1.390 . S
C379 H383 0.950 . S
H380 C376 0.950 . S
C381 C379 1.390 . S
C381 C382 1.387 . S
C381 H384 0.950 . S
C382 C381 1.387 . S
C382 C385 1.387 . S
H383 C379 0.950 . S
H384 C381 0.950 . S
C385 C376 1.390 1_545 S
C385 H378 0.950 1_545 S
C385 C382 1.387 . S
C386 C387 1.387 . S
C386 H390 0.950 . S
C386 C395 1.390 . S
C387 C386 1.387 . S
C387 C389 1.387 . S
H388 C395 0.950 . S
C389 C387 1.387 . S
C389 C391 1.390 . S
C389 H393 0.950 . S
H390 C386 0.950 . S
C391 C389 1.390 . S
C391 C392 1.387 . S
C391 H394 0.950 . S
C392 C391 1.387 . S
C392 C395 1.387 . S
H393 C389 0.950 . S
H394 C391 0.950 . S
C395 C386 1.390 . S
C395 H388 0.950 . S
C395 C392 1.387 . S
C396 C397 1.387 . S
C396 H400 0.950 . S
C396 C405 1.390 . S
C397 C396 1.387 . S
C397 C399 1.387 . S
H398 C405 0.950 . S
C399 C397 1.387 . S
C399 C401 1.388 1_655 S
C399 H403 0.950 1_655 S
H400 C396 0.950 . S
C401 C399 1.388 1_455 S
C401 C402 1.386 1_455 S
C401 H404 0.954 . S
C402 C401 1.386 1_655 S
C402 C405 1.387 . S
H403 C399 0.950 1_455 S
H404 C401 0.954 . S
C405 C396 1.390 . S
C405 H398 0.950 . S
C405 C402 1.387 . S
C406 C407 1.387 1_546 S
C406 H410 0.950 1_556 S
C406 C415 1.390 1_545 S
C407 C406 1.387 1_564 S
C407 C409 1.387 . S
H408 C415 0.950 1_545 S
C409 C407 1.387 . S
C409 C411 1.390 1_554 S
C409 H413 0.950 . S
H410 C406 0.950 1_554 S
C411 C409 1.390 1_556 S
C411 C412 1.387 . S
C411 H414 0.950 . S
C412 C411 1.387 . S
C412 C415 1.387 . S
H413 C409 0.950 . S
H414 C411 0.950 . S
C415 C406 1.390 1_565 S
C415 H408 0.950 1_565 S
C415 C412 1.387 . S
C416 C417 1.387 . S
C416 H420 0.950 1_554 S
C416 C425 1.390 . S
C417 C416 1.387 . S
C417 C419 1.387 . S
H418 C425 0.950 . S
C419 C417 1.387 . S
C419 C421 1.390 . S
C419 H423 0.950 . S
H420 C416 0.950 1_556 S
C421 C419 1.390 . S
C421 C422 1.387 . S
C421 H424 0.950 . S
C422 C421 1.387 . S
C422 C425 1.387 . S
H423 C419 0.950 . S
H424 C421 0.950 . S
C425 C416 1.390 . S
C425 H418 0.950 . S
C425 C422 1.387 . S
C187 C27 1.440 . S
C192 C1 1.440 . S
C197 C58 1.438 . S
C202 C32 1.438 . S
C207 C63 1.437 1_556 S
C212 C89 1.437 . S
C217 C94 1.437 . S
C222 C120 1.437 . S
C227 C151 1.441 1_554 S
C232 C125 1.441 . S
C237 C182 1.437 . S
C242 C156 1.437 . S
C247 C134 1.510 . S
C252 C0 1.548 . S
C257 C31 1.543 . S
C262 C165 1.507 . S
C267 C10 1.507 . S
C272 C62 1.543 . S
C277 C41 1.509 . S
C282 C93 1.544 . S
C287 C124 1.548 . S
C292 C72 1.511 . S
C297 C103 1.511 . S
C302 C155 1.548 . S
C307 C18 2.069 . S
C312 C33 2.055 1_545 S
C317 C49 2.070 . S
C322 C64 2.056 . S
C327 C95 2.055 1_655 S
C332 C80 2.069 . S
C337 C111 2.070 . S
C342 C126 2.057 1_565 S
C347 C142 2.069 . S
C352 C157 2.054 . S
C357 C2 2.056 1_455 S
C362 C173 2.070 . S
C367 C24 1.059 . S
C372 C104 1.304 . S
C377 C135 1.306 . S
C382 C55 1.064 . S
C387 C86 1.062 . S
C392 C166 1.307 . S
C397 C117 1.062 . S
C402 C11 1.307 . S
C407 C42 1.306 . S
C412 C148 1.064 . S
C417 C179 1.065 . S
C422 C73 1.308 . S
