# Generated by pormake.
# Topology lcy-e, (6)-cn, num edge types: 1
# Building blocks:
#     Node 0, Type 0, BuildingBlock: BETDAH_clean_sbu_0, # of connection points: 6
#     Node 1, Type 0, BuildingBlock: BETDAH_clean_sbu_0, # of connection points: 6
#     Node 2, Type 0, BuildingBlock: BETDAH_clean_sbu_0, # of connection points: 6
#     Node 3, Type 0, BuildingBlock: BETDAH_clean_sbu_0, # of connection points: 6
#     Node 4, Type 0, BuildingBlock: BETDAH_clean_sbu_0, # of connection points: 6
#     Node 5, Type 0, BuildingBlock: BETDAH_clean_sbu_0, # of connection points: 6
#     Node 6, Type 0, BuildingBlock: BETDAH_clean_sbu_0, # of connection points: 6
#     Node 7, Type 0, BuildingBlock: BETDAH_clean_sbu_0, # of connection points: 6
#     Node 8, Type 0, BuildingBlock: BETDAH_clean_sbu_0, # of connection points: 6
#     Node 9, Type 0, BuildingBlock: BETDAH_clean_sbu_0, # of connection points: 6
#     Node 10, Type 0, BuildingBlock: BETDAH_clean_sbu_0, # of connection points: 6
#     Node 11, Type 0, BuildingBlock: BETDAH_clean_sbu_0, # of connection points: 6
#     Edge 12, Type (0, 0), BuildingBlock: AJUNOK_clean_linker_0, # of connection points: 2
#     Edge 13, Type (0, 0), BuildingBlock: AJUNOK_clean_linker_0, # of connection points: 2
#     Edge 14, Type (0, 0), BuildingBlock: AJUNOK_clean_linker_0, # of connection points: 2
#     Edge 15, Type (0, 0), BuildingBlock: AJUNOK_clean_linker_0, # of connection points: 2
#     Edge 16, Type (0, 0), BuildingBlock: AJUNOK_clean_linker_0, # of connection points: 2
#     Edge 17, Type (0, 0), BuildingBlock: AJUNOK_clean_linker_0, # of connection points: 2
#     Edge 18, Type (0, 0), BuildingBlock: AJUNOK_clean_linker_0, # of connection points: 2
#     Edge 19, Type (0, 0), BuildingBlock: AJUNOK_clean_linker_0, # of connection points: 2
#     Edge 20, Type (0, 0), BuildingBlock: AJUNOK_clean_linker_0, # of connection points: 2
#     Edge 21, Type (0, 0), BuildingBlock: AJUNOK_clean_linker_0, # of connection points: 2
#     Edge 22, Type (0, 0), BuildingBlock: AJUNOK_clean_linker_0, # of connection points: 2
#     Edge 23, Type (0, 0), BuildingBlock: AJUNOK_clean_linker_0, # of connection points: 2
#     Edge 24, Type (0, 0), BuildingBlock: AJUNOK_clean_linker_0, # of connection points: 2
#     Edge 25, Type (0, 0), BuildingBlock: AJUNOK_clean_linker_0, # of connection points: 2
#     Edge 26, Type (0, 0), BuildingBlock: AJUNOK_clean_linker_0, # of connection points: 2
#     Edge 27, Type (0, 0), BuildingBlock: AJUNOK_clean_linker_0, # of connection points: 2
#     Edge 28, Type (0, 0), BuildingBlock: AJUNOK_clean_linker_0, # of connection points: 2
#     Edge 29, Type (0, 0), BuildingBlock: AJUNOK_clean_linker_0, # of connection points: 2
#     Edge 30, Type (0, 0), BuildingBlock: AJUNOK_clean_linker_0, # of connection points: 2
#     Edge 31, Type (0, 0), BuildingBlock: AJUNOK_clean_linker_0, # of connection points: 2
#     Edge 32, Type (0, 0), BuildingBlock: AJUNOK_clean_linker_0, # of connection points: 2
#     Edge 33, Type (0, 0), BuildingBlock: AJUNOK_clean_linker_0, # of connection points: 2
#     Edge 34, Type (0, 0), BuildingBlock: AJUNOK_clean_linker_0, # of connection points: 2
#     Edge 35, Type (0, 0), BuildingBlock: AJUNOK_clean_linker_0, # of connection points: 2
#     Edge 36, Type (0, 0), BuildingBlock: AJUNOK_clean_linker_0, # of connection points: 2
#     Edge 37, Type (0, 0), BuildingBlock: AJUNOK_clean_linker_0, # of connection points: 2
#     Edge 38, Type (0, 0), BuildingBlock: AJUNOK_clean_linker_0, # of connection points: 2
#     Edge 39, Type (0, 0), BuildingBlock: AJUNOK_clean_linker_0, # of connection points: 2
#     Edge 40, Type (0, 0), BuildingBlock: AJUNOK_clean_linker_0, # of connection points: 2
#     Edge 41, Type (0, 0), BuildingBlock: AJUNOK_clean_linker_0, # of connection points: 2
#     Edge 42, Type (0, 0), BuildingBlock: AJUNOK_clean_linker_0, # of connection points: 2
#     Edge 43, Type (0, 0), BuildingBlock: AJUNOK_clean_linker_0, # of connection points: 2
#     Edge 44, Type (0, 0), BuildingBlock: AJUNOK_clean_linker_0, # of connection points: 2
#     Edge 45, Type (0, 0), BuildingBlock: AJUNOK_clean_linker_0, # of connection points: 2
#     Edge 46, Type (0, 0), BuildingBlock: AJUNOK_clean_linker_0, # of connection points: 2
#     Edge 47, Type (0, 0), BuildingBlock: AJUNOK_clean_linker_0, # of connection points: 2
# Relax obj value: 0.196
# Max RMSD: 0.322
# Mean RMSD: 0.298
data_MOF--net-lcy-e--node1-BETDAH_clean_sbu_0--edge1-AJUNOK_clean_linker_0
_symmetry_space_group_name_H-M    P1
_symmetry_Int_Tables_number       1
_symmetry_cell_setting            triclinic
loop_
_symmetry_equiv_pos_as_xyz
'x, y, z'
_cell_length_a     35.121876
_cell_length_b     32.54601
_cell_length_c     35.118056
_cell_angle_alpha  89.132825
_cell_angle_beta   91.115327
_cell_angle_gamma 87.822528
loop_
_atom_site_label
_atom_site_type_symbol
_atom_site_fract_x
_atom_site_fract_y
_atom_site_fract_z
_atom_type_partial_charge
Ho0 Ho 0.15009 0.30103 0.48778 0.0
Ho1 Ho 0.17014 0.23368 0.5522 0.0
C2 C 0.21968 0.23171 0.47821 0.0
C3 C 0.15861 0.36394 0.44398 0.0
C4 C 0.16691 0.37104 0.40345 0.0
C5 C 0.19842 0.39433 0.39445 0.0
C6 C 0.2087 0.40025 0.35664 0.0
C7 C 0.18755 0.38316 0.32691 0.0
C8 C 0.15609 0.35953 0.33585 0.0
C9 C 0.14603 0.35317 0.37388 0.0
C10 C 0.11349 0.23115 0.47194 0.0
C11 C 0.09994 0.29214 0.56323 0.0
C12 C 0.17235 0.17702 0.60438 0.0
C13 C 0.1482 0.14704 0.62245 0.0
C14 C 0.10885 0.14629 0.61466 0.0
C15 C 0.08684 0.11707 0.63284 0.0
C16 C 0.10407 0.08882 0.65913 0.0
C17 C 0.14355 0.08937 0.6661 0.0
C18 C 0.16539 0.11827 0.64794 0.0
C19 C 0.20626 0.30704 0.55589 0.0
O20 O 0.20493 0.26874 0.46896 0.0
O21 O 0.20698 0.20971 0.5067 0.0
O22 O 0.12479 0.35105 0.45307 0.0
O23 O 0.18663 0.34508 0.46317 0.0
O24 O 0.11041 0.26459 0.45138 0.0
O25 O 0.13616 0.23733 0.49934 0.0
O26 O 0.10925 0.25285 0.56009 0.0
O27 O 0.1147 0.31937 0.5393 0.0
O28 O 0.16455 0.21585 0.61123 0.0
O29 O 0.18087 0.1702 0.56885 0.0
O30 O 0.22125 0.27213 0.56809 0.0
O31 O 0.17285 0.30085 0.54566 0.0
H32 H 0.21513 0.4081 0.41681 0.0
H33 H 0.23239 0.41954 0.35062 0.0
H34 H 0.13907 0.34641 0.31338 0.0
H35 H 0.12197 0.3345 0.38009 0.0
H36 H 0.09526 0.16835 0.59486 0.0
H37 H 0.05644 0.11703 0.62703 0.0
H38 H 0.15752 0.06742 0.68579 0.0
H39 H 0.19578 0.11827 0.65396 0.0
Ho40 Ho 0.98776 0.87763 0.75759 0.0
Ho41 Ho 0.05568 0.89158 0.81285 0.0
C42 C 0.0394 0.95477 0.74115 0.0
C43 C 0.92492 0.87187 0.71847 0.0
C44 C 0.91227 0.88545 0.67963 0.0
C45 C 0.93689 0.90537 0.6548 0.0
C46 C 0.92401 0.91896 0.61837 0.0
C47 C 0.88624 0.9129 0.60614 0.0
C48 C 0.86178 0.89322 0.63139 0.0
C49 C 0.87463 0.87972 0.66762 0.0
C50 C 0.05571 0.84392 0.73721 0.0
C51 C 1.00339 0.82375 0.83666 0.0
C52 C 0.12378 0.89673 0.8419 0.0
C53 C 0.15617 0.87201 0.85983 0.0
C54 C 0.18604 0.85561 0.83768 0.0
C55 C 0.21969 0.83887 0.85504 0.0
C56 C 0.22426 0.83856 0.89486 0.0
C57 C 0.19367 0.85297 0.91693 0.0
C58 C 0.16013 0.86949 0.8997 0.0
C59 C 0.98707 0.92542 0.83286 0.0
O60 O 1.00725 0.93698 0.73236 0.0
O61 O 0.06268 0.94108 0.76887 0.0
O62 O 0.95129 0.84233 0.72094 0.0
O63 O 0.93103 0.90136 0.74245 0.0
O64 O 0.03077 0.861 0.71374 0.0
O65 O 0.0428 0.84445 0.77045 0.0
O66 O 0.03966 0.8302 0.83216 0.0
O67 O 0.97716 0.84018 0.81234 0.0
O68 O 0.09266 0.90241 0.86149 0.0
O69 O 0.11671 0.89186 0.80552 0.0
O70 O 1.01363 0.91396 0.85747 0.0
O71 O 1.00016 0.92303 0.79995 0.0
H72 H 0.96608 0.91032 0.66357 0.0
H73 H 0.94377 0.93345 0.59959 0.0
H74 H 0.83243 0.88837 0.62314 0.0
H75 H 0.85504 0.86485 0.68636 0.0
H76 H 0.1842 0.85741 0.80688 0.0
H77 H 0.24289 0.8284 0.83731 0.0
H78 H 0.19635 0.85303 0.94772 0.0
H79 H 0.13801 0.88206 0.91771 0.0
Ho80 Ho 0.39253 0.77306 0.05673 0.0
Ho81 Ho 0.41615 0.71331 0.98942 0.0
C82 C 0.46172 0.79426 0.9994 0.0
C83 C 0.39908 0.80762 0.12216 0.0
C84 C 0.41639 0.84548 0.13685 0.0
C85 C 0.45596 0.85102 0.13492 0.0
C86 C 0.47253 0.88492 0.15187 0.0
C87 C 0.45004 0.91393 0.17142 0.0
C88 C 0.41033 0.90927 0.17204 0.0
C89 C 0.39374 0.87535 0.15512 0.0
C90 C 0.35643 0.79964 0.99138 0.0
C91 C 0.34161 0.69462 0.03551 0.0
C92 C 0.42246 0.66903 0.92889 0.0
C93 C 0.40209 0.66199 0.89214 0.0
C94 C 0.40846 0.68672 0.85977 0.0
C95 C 0.39257 0.67722 0.8242 0.0
C96 C 0.36968 0.64304 0.82025 0.0
C97 C 0.36261 0.61887 0.85268 0.0
C98 C 0.37889 0.62803 0.88809 0.0
C99 C 0.44738 0.69902 0.061 0.0
O100 O 0.44804 0.79739 0.03428 0.0
O101 O 0.44785 0.7686 0.97459 0.0
O102 O 0.36802 0.81183 0.10076 0.0
O103 O 0.42299 0.77923 0.10988 0.0
O104 O 0.35335 0.81743 1.02411 0.0
O105 O 0.37996 0.76932 0.99534 0.0
O106 O 0.3561 0.6968 1.00109 0.0
O107 O 0.35264 0.71972 0.06317 0.0
O108 O 0.40716 0.65595 0.96034 0.0
O109 O 0.438 0.70462 0.93297 0.0
O110 O 0.46634 0.69199 0.03021 0.0
O111 O 0.41466 0.71075 0.05114 0.0
H112 H 0.47444 0.82861 0.1212 0.0
H113 H 0.50315 0.88756 0.15093 0.0
H114 H 0.3921 0.93156 0.18626 0.0
H115 H 0.36327 0.87201 0.15706 0.0
H116 H 0.42662 0.7128 0.8616 0.0
H117 H 0.39868 0.69618 0.79962 0.0
H118 H 0.34579 0.59177 0.85033 0.0
H119 H 0.37435 0.6077 0.91204 0.0
Ho120 Ho 0.56721 0.12689 0.268 0.0
Ho121 Ho 0.51357 0.10796 0.32855 0.0
C122 C 0.51701 0.04863 0.25533 0.0
C123 C 0.62309 0.13976 0.22295 0.0
C124 C 0.63327 0.12299 0.18517 0.0
C125 C 0.64694 0.08203 0.18147 0.0
C126 C 0.65655 0.06655 0.1458 0.0
C127 C 0.65248 0.09151 0.11284 0.0
C128 C 0.63847 0.13234 0.1165 0.0
C129 C 0.62908 0.14791 0.15223 0.0
C130 C 0.49535 0.15882 0.25368 0.0
C131 C 0.5575 0.18397 0.34261 0.0
C132 C 0.45468 0.09384 0.36913 0.0
C133 C 0.42027 0.11688 0.38126 0.0
C134 C 0.42086 0.15864 0.39082 0.0
C135 C 0.38758 0.17931 0.40284 0.0
C136 C 0.35325 0.15858 0.40516 0.0
C137 C 0.35271 0.11717 0.39439 0.0
C138 C 0.38588 0.09656 0.38262 0.0
C139 C 0.58704 0.07936 0.34259 0.0
O140 O 0.54823 0.06659 0.24448 0.0
O141 O 0.49767 0.06224 0.28458 0.0
O142 O 0.59263 0.164 0.22404 0.0
O143 O 0.62553 0.11412 0.25195 0.0
O144 O 0.5169 0.14092 0.22888 0.0
O145 O 0.51294 0.15836 0.28541 0.0
O146 O 0.52203 0.1733 0.3399 0.0
O147 O 0.58272 0.16661 0.3194 0.0
O148 O 0.48742 0.10422 0.38375 0.0
O149 O 0.45629 0.08663 0.33272 0.0
O150 O 0.56434 0.09345 0.3683 0.0
O151 O 0.56852 0.07834 0.31154 0.0
H152 H 0.65062 0.06189 0.20616 0.0
H153 H 0.66824 0.03537 0.14425 0.0
H154 H 0.63502 0.15242 0.09169 0.0
H155 H 0.61865 0.17955 0.15409 0.0
H156 H 0.44706 0.17507 0.38952 0.0
H157 H 0.38901 0.21103 0.41146 0.0
H158 H 0.32663 0.1005 0.39562 0.0
H159 H 0.38476 0.06451 0.37488 0.0
Ho160 Ho 0.64733 0.22302 0.57327 0.0
Ho161 Ho 0.66314 0.30134 0.51893 0.0
C162 C 0.71376 0.28798 0.59408 0.0
C163 C 0.65631 0.15302 0.60809 0.0
C164 C 0.66525 0.14015 0.64797 0.0
C165 C 0.69145 0.16143 0.67039 0.0
C166 C 0.70113 0.14777 0.70745 0.0
C167 C 0.6844 0.11296 0.72305 0.0
C168 C 0.65787 0.09204 0.70074 0.0
C169 C 0.64843 0.1055 0.66355 0.0
C170 C 0.6068 0.29079 0.59621 0.0
C171 C 0.59977 0.24014 0.49338 0.0
C172 C 0.66163 0.36882 0.47904 0.0
C173 C 0.63638 0.40033 0.45945 0.0
C174 C 0.63396 0.44026 0.47413 0.0
C175 C 0.61629 0.47259 0.45298 0.0
C176 C 0.60085 0.46576 0.41655 0.0
C177 C 0.60102 0.42541 0.40282 0.0
C178 C 0.61879 0.39296 0.42399 0.0
C179 C 0.7047 0.22946 0.50974 0.0
O180 O 0.70129 0.25005 0.59761 0.0
O181 O 0.69904 0.31522 0.56925 0.0
O182 O 0.62253 0.17066 0.60114 0.0
O183 O 0.68374 0.17106 0.59023 0.0
O184 O 0.606 0.25492 0.61268 0.0
O185 O 0.62954 0.28794 0.56901 0.0
O186 O 0.60751 0.2794 0.49628 0.0
O187 O 0.61423 0.21175 0.51804 0.0
O188 O 0.66531 0.33223 0.46406 0.0
O189 O 0.66144 0.36772 0.51636 0.0
O190 O 0.71827 0.26541 0.50269 0.0
O191 O 0.67074 0.23476 0.51812 0.0
H192 H 0.70479 0.18839 0.65916 0.0
H193 H 0.7216 0.16449 0.72399 0.0
H194 H 0.64501 0.06469 0.71178 0.0
H195 H 0.62834 0.08852 0.64678 0.0
H196 H 0.64735 0.44695 0.50128 0.0
H197 H 0.6161 0.50333 0.46442 0.0
H198 H 0.58936 0.41935 0.37476 0.0
H199 H 0.62023 0.3626 0.41178 0.0
Ho200 Ho 1.00977 0.39104 0.73351 0.0
Ho201 Ho 0.06991 0.35528 0.79479 0.0
C202 C 0.98751 0.31941 0.79454 0.0
C203 C 0.96981 0.38975 0.67145 0.0
C204 C 0.93065 0.37732 0.66266 0.0
C205 C 0.92495 0.34877 0.63375 0.0
C206 C 0.88911 0.33258 0.62754 0.0
C207 C 0.85817 0.34473 0.65006 0.0
C208 C 0.86364 0.37395 0.67854 0.0
C209 C 0.89968 0.38983 0.68508 0.0
C210 C 0.99523 0.42643 0.80088 0.0
C211 C 0.08838 0.43655 0.74972 0.0
C212 C 0.12023 0.34211 0.84862 0.0
C213 C 0.1325 0.36405 0.88261 0.0
C214 C 0.11074 0.39751 0.89649 0.0
C215 C 0.12174 0.41636 0.93035 0.0
C216 C 0.15447 0.40178 0.95071 0.0
C217 C 0.17681 0.36926 0.93584 0.0
C218 C 0.16582 0.35048 0.90214 0.0
C219 C 0.07101 0.3243 0.72274 0.0
O220 O 0.98186 0.33541 0.75977 0.0
O221 O 1.01776 0.32712 0.81556 0.0
O222 O 0.97416 0.42358 0.69092 0.0
O223 O 0.99287 0.3593 0.68301 0.0
O224 O 0.97598 0.43487 0.7696 0.0
O225 O 1.02134 0.39974 0.79438 0.0
O226 O 0.08782 0.41952 0.78407 0.0
O227 O 0.06207 0.42825 0.72329 0.0
O228 O 0.12799 0.35906 0.81582 0.0
O229 O 0.08579 0.3282 0.8495 0.0
O230 O 0.0797 0.30208 0.75286 0.0
O231 O 0.06527 0.36021 0.73311 0.0
H232 H 0.94849 0.33836 0.61639 0.0
H233 H 0.88549 0.31081 0.60483 0.0
H234 H 0.84015 0.38399 0.69612 0.0
H235 H 0.90342 0.41127 0.70802 0.0
H236 H 0.08498 0.40851 0.8815 0.0
H237 H 0.10422 0.44155 0.94111 0.0
H238 H 0.20271 0.35815 0.95048 0.0
H239 H 0.18307 0.32494 0.8916 0.0
Ho240 Ho 0.89882 0.78447 0.05824 0.0
Ho241 Ho 0.88232 0.71506 0.99608 0.0
C242 C 0.82604 0.72395 0.06533 0.0
C243 C 0.89342 0.85222 0.09531 0.0
C244 C 0.88381 0.86413 0.13447 0.0
C245 C 0.89108 0.90389 0.14669 0.0
C246 C 0.88072 0.91639 0.18313 0.0
C247 C 0.86294 0.88929 0.20821 0.0
C248 C 0.85547 0.84945 0.1958 0.0
C249 C 0.86598 0.8369 0.15929 0.0
C250 C 0.93412 0.71176 0.07958 0.0
C251 C 0.95354 0.76859 0.98543 0.0
C252 C 0.88243 0.65287 0.95098 0.0
C253 C 0.9066 0.62055 0.93324 0.0
C254 C 0.93722 0.59987 0.95284 0.0
C255 C 0.956 0.56562 0.93659 0.0
C256 C 0.94406 0.55143 0.90084 0.0
C257 C 0.91459 0.57335 0.88081 0.0
C258 C 0.89612 0.60747 0.89682 0.0
C259 C 0.84896 0.79243 0.98646 0.0
O260 O 0.84127 0.75941 0.07467 0.0
O261 O 0.84119 0.69915 0.04002 0.0
O262 O 0.92589 0.83157 0.09101 0.0
O263 O 0.86533 0.83775 0.075 0.0
O264 O 0.93547 0.74524 0.09907 0.0
O265 O 0.91251 0.71924 0.05099 0.0
O266 O 0.94263 0.73034 0.98662 0.0
O267 O 0.93858 0.79685 1.00867 0.0
O268 O 0.88525 0.69088 0.93883 0.0
O269 O 0.87751 0.64993 0.9878 0.0
O270 O 0.83288 0.7594 0.97476 0.0
O271 O 0.8811 0.78196 0.9992 0.0
H272 H 0.9044 0.9255 0.12785 0.0
H273 H 0.8861 0.94757 0.19151 0.0
H274 H 0.84177 0.82795 0.21444 0.0
H275 H 0.85991 0.80608 0.15029 0.0
H276 H 0.94585 0.60942 0.98103 0.0
H277 H 0.9788 0.54937 0.95246 0.0
H278 H 0.90523 0.56342 0.85295 0.0
H279 H 0.87264 0.62286 0.8812 0.0
Ho280 Ho 0.54487 0.62956 0.23583 0.0
Ho281 Ho 0.48984 0.65547 0.29626 0.0
C282 C 0.56876 0.70266 0.28928 0.0
C283 C 0.58451 0.615 0.17602 0.0
C284 C 0.61908 0.63396 0.16142 0.0
C285 C 0.61908 0.649 0.12381 0.0
C286 C 0.65126 0.66737 0.10944 0.0
C287 C 0.68438 0.67063 0.13224 0.0
C288 C 0.68388 0.65711 0.1704 0.0
C289 C 0.65149 0.639 0.18491 0.0
C290 C 0.55882 0.59404 0.30518 0.0
C291 C 0.46373 0.58502 0.24649 0.0
C292 C 0.45577 0.6726 0.35908 0.0
C293 C 0.43754 0.65039 0.39009 0.0
C294 C 0.43532 0.60736 0.39026 0.0
C295 C 0.41756 0.58714 0.42027 0.0
C296 C 0.40168 0.60981 0.45022 0.0
C297 C 0.40494 0.65273 0.45024 0.0
C298 C 0.42263 0.67281 0.42041 0.0
C299 C 0.47669 0.69066 0.22559 0.0
O300 O 0.57373 0.68649 0.25534 0.0
O301 O 0.5406 0.69177 0.311 0.0
O302 O 0.58826 0.59296 0.20739 0.0
O303 O 0.55379 0.63881 0.17554 0.0
O304 O 0.58481 0.60701 0.28282 0.0
O305 O 0.52646 0.59965 0.28936 0.0
O306 O 0.46663 0.59543 0.28237 0.0
O307 O 0.48923 0.59753 0.22164 0.0
O308 O 0.43834 0.67298 0.32582 0.0
O309 O 0.49262 0.66641 0.35671 0.0
O310 O 0.45045 0.68179 0.24948 0.0
O311 O 0.50834 0.68405 0.24233 0.0
H312 H 0.59417 0.64638 0.10544 0.0
H313 H 0.65049 0.67842 0.08017 0.0
H314 H 0.70893 0.65934 0.18863 0.0
H315 H 0.65201 0.62859 0.21436 0.0
H316 H 0.44705 0.58956 0.36713 0.0
H317 H 0.41543 0.55404 0.41967 0.0
H318 H 0.39352 0.67084 0.47332 0.0
H319 H 0.42451 0.70596 0.42093 0.0
Ho320 Ho 0.23659 0.53994 0.15005 0.0
Ho321 Ho 0.29639 0.46388 0.13558 0.0
C322 C 0.21893 0.4696 0.08758 0.0
C323 C 0.19641 0.6069 0.13866 0.0
C324 C 0.15551 0.61552 0.1302 0.0
C325 C 0.14443 0.64844 0.10572 0.0
C326 C 0.10603 0.65569 0.09545 0.0
C327 C 0.0779 0.63023 0.10958 0.0
C328 C 0.0891 0.5969 0.13375 0.0
C329 C 0.1276 0.58947 0.14381 0.0
C330 C 0.21813 0.4726 0.19135 0.0
C331 C 0.31543 0.52801 0.1992 0.0
C332 C 0.34098 0.39843 0.13817 0.0
C333 C 0.35658 0.36376 0.1626 0.0
C334 C 0.38356 0.36935 0.19206 0.0
C335 C 0.40182 0.33522 0.21065 0.0
C336 C 0.39364 0.29487 0.20001 0.0
C337 C 0.3656 0.28952 0.17161 0.0
C338 C 0.34735 0.32346 0.15321 0.0
C339 C 0.30075 0.53465 0.09272 0.0
O340 O 0.214 0.50861 0.09745 0.0
O341 O 0.24558 0.44467 0.10303 0.0
O342 O 0.20575 0.59252 0.17296 0.0
O343 O 0.21479 0.58783 0.11155 0.0
O344 O 0.19936 0.50767 0.19175 0.0
O345 O 0.2452 0.47589 0.16869 0.0
O346 O 0.31421 0.48831 0.19217 0.0
O347 O 0.29028 0.55528 0.18345 0.0
O348 O 0.35303 0.43557 0.1437 0.0
O349 O 0.30469 0.39826 0.12894 0.0
O350 O 0.3111 0.49859 0.08015 0.0
O351 O 0.2925 0.53029 0.12667 0.0
H352 H 0.16554 0.6685 0.09442 0.0
H353 H 0.0982 0.68182 0.07708 0.0
H354 H 0.06807 0.57661 0.14482 0.0
H355 H 0.13557 0.56329 0.16205 0.0
H356 H 0.39157 0.39996 0.19985 0.0
H357 H 0.42367 0.34044 0.23203 0.0
H358 H 0.35854 0.25892 0.16284 0.0
H359 H 0.32695 0.3181 0.13045 0.0
Ho360 Ho 0.74839 0.96664 0.91033 0.0
Ho361 Ho 0.7978 0.03913 0.92397 0.0
C362 C 0.7216 0.03145 0.97343 0.0
C363 C 0.71136 0.89967 0.90472 0.0
C364 C 0.67388 0.88778 0.91968 0.0
C365 C 0.67175 0.86701 0.95501 0.0
C366 C 0.63648 0.85646 0.96955 0.0
C367 C 0.60246 0.86635 0.94911 0.0
C368 C 0.6046 0.88715 0.91384 0.0
C369 C 0.63982 0.8977 0.89929 0.0
C370 C 0.72877 0.03501 0.86812 0.0
C371 C 0.83047 0.97548 0.86923 0.0
C372 C 0.8281 0.11032 0.92684 0.0
C373 C 0.85056 0.13758 0.90234 0.0
C374 C 0.83307 0.16227 0.87314 0.0
C375 C 0.854 0.1911 0.85311 0.0
C376 C 0.89267 0.19603 0.86214 0.0
C377 C 0.91046 0.17012 0.8901 0.0
C378 C 0.88963 0.14143 0.91009 0.0
C379 C 0.8167 0.96896 0.96545 0.0
O380 O 0.71883 0.9932 0.96157 0.0
O381 O 0.74728 0.0558 0.95944 0.0
O382 O 0.71103 0.92798 0.87788 0.0
O383 O 0.73838 0.90475 0.93 0.0
O384 O 0.70493 1.01182 0.88498 0.0
O385 O 0.76226 0.02095 0.87489 0.0
O386 O 0.82319 1.01517 0.87147 0.0
O387 O 0.80659 0.94912 0.88436 0.0
O388 O 0.8452 0.07637 0.93983 0.0
O389 O 0.79247 0.10522 0.91694 0.0
O390 O 0.8411 0.99456 0.95278 0.0
O391 O 0.78399 0.98417 0.95792 0.0
H392 H 0.6974 0.85862 0.97139 0.0
H393 H 0.63597 0.83952 0.9963 0.0
H394 H 0.57893 0.89511 0.89734 0.0
H395 H 0.64028 0.91361 0.872 0.0
H396 H 0.80298 0.16021 0.86643 0.0
H397 H 0.83962 0.21067 0.83169 0.0
H398 H 0.94042 0.17282 0.89719 0.0
H399 H 0.90395 0.12301 0.9324 0.0
Ho400 Ho 0.75028 0.98481 0.41379 0.0
Ho401 Ho 0.82012 0.04232 0.40406 0.0
C402 C 0.81336 0.96122 0.35074 0.0
C403 C 0.68533 0.95158 0.4029 0.0
C404 C 0.67355 0.91315 0.38474 0.0
C405 C 0.6567 0.91462 0.34805 0.0
C406 C 0.64521 0.87866 0.3306 0.0
C407 C 0.65004 0.84053 0.34966 0.0
C408 C 0.66725 0.83897 0.38615 0.0
C409 C 0.67895 0.87485 0.4035 0.0
C410 C 0.8062 0.96113 0.46516 0.0
C411 C 0.76212 0.06744 0.46414 0.0
C412 C 0.88679 0.07321 0.3996 0.0
C413 C 0.91713 0.09437 0.4208 0.0
C414 C 0.94429 0.07225 0.44397 0.0
C415 C 0.97727 0.09102 0.45716 0.0
C416 C 0.98376 0.132 0.44706 0.0
C417 C 0.95549 0.15476 0.42611 0.0
C418 C 0.92262 0.13616 0.41306 0.0
C419 C 0.75294 0.06415 0.36666 0.0
O420 O 0.78209 0.95002 0.36823 0.0
O421 O 0.8311 0.99522 0.35914 0.0
O422 O 0.70475 0.94818 0.43503 0.0
O423 O 0.69872 0.97927 0.38009 0.0
O424 O 0.77452 0.94261 0.46026 0.0
O425 O 0.80688 0.99021 0.44089 0.0
O426 O 0.79893 0.06075 0.46011 0.0
O427 O 0.73696 0.04414 0.44636 0.0
O428 O 0.855 0.09402 0.39113 0.0
O429 O 0.88143 0.03457 0.40809 0.0
O430 O 0.7753 0.0905 0.38209 0.0
O431 O 0.76842 0.02901 0.37142 0.0
H432 H 0.65182 0.94371 0.33306 0.0
H433 H 0.63119 0.88089 0.30286 0.0
H434 H 0.67106 0.80995 0.40154 0.0
H435 H 0.69182 0.87253 0.43176 0.0
H436 H 0.94108 0.03991 0.45033 0.0
H437 H 0.99868 0.0729 0.47329 0.0
H438 H 0.95975 0.18656 0.41825 0.0
H439 H 0.9025 0.15399 0.39513 0.0
Ho440 Ho 0.31383 0.48751 0.65462 0.0
Ho441 Ho 0.25076 0.54941 0.63012 0.0
C442 C 0.32326 0.54315 0.58021 0.0
C443 C 0.36178 0.42612 0.66588 0.0
C444 C 0.40194 0.41654 0.65516 0.0
C445 C 0.40931 0.39708 0.62034 0.0
C446 C 0.44648 0.38632 0.60994 0.0
C447 C 0.47749 0.39434 0.63411 0.0
C448 C 0.47038 0.41417 0.66881 0.0
C449 C 0.43299 0.42528 0.67919 0.0
C450 C 0.32425 0.56544 0.68001 0.0
C451 C 0.23457 0.49608 0.70191 0.0
C452 C 0.20158 0.60977 0.61966 0.0
C453 C 0.18206 0.64221 0.64132 0.0
C454 C 0.19801 0.65745 0.67503 0.0
C455 C 0.18047 0.6911 0.69302 0.0
C456 C 0.14708 0.71004 0.67719 0.0
C457 C 0.13053 0.69358 0.6443 0.0
C458 C 0.14793 0.66 0.6265 0.0
C459 C 0.24861 0.47304 0.59726 0.0
O460 O 0.32941 0.50569 0.59454 0.0
O461 O 0.29964 0.56928 0.59647 0.0
O462 O 0.3548 0.4537 0.69207 0.0
O463 O 0.33773 0.42957 0.63705 0.0
O464 O 0.35072 0.5411 0.66686 0.0
O465 O 0.29334 0.54718 0.67773 0.0
O466 O 0.23147 0.53382 0.68806 0.0
O467 O 0.26328 0.47061 0.69188 0.0
O468 O 0.19193 0.57198 0.62637 0.0
O469 O 0.23834 0.61313 0.61586 0.0
O470 O 0.23777 0.50702 0.57985 0.0
O471 O 0.25731 0.48207 0.63043 0.0
H472 H 0.38621 0.38921 0.60124 0.0
H473 H 0.45072 0.36987 0.58368 0.0
H474 H 0.49372 0.42027 0.68827 0.0
H475 H 0.42838 0.43997 0.70627 0.0
H476 H 0.22443 0.64406 0.68681 0.0
H477 H 0.19357 0.70309 0.71851 0.0
H478 H 0.1043 0.70706 0.63207 0.0
H479 H 0.13518 0.6485 0.60061 0.0
C480 C 0.20595 0.38361 0.54445 0.0
C481 C 0.21954 0.34861 0.5655 0.0
C482 C 0.21677 0.42349 0.55366 0.0
C483 C 0.23939 0.4304 0.58612 0.0
H484 H 0.18581 0.38058 0.52133 0.0
H485 H 0.20598 0.44918 0.53613 0.0
S486 S 0.27353 0.35025 0.65693 0.0
N487 N 0.25324 0.32408 0.62272 0.0
N488 N 0.26884 0.39896 0.64339 0.0
C489 C 0.25053 0.39587 0.60926 0.0
C490 C 0.2417 0.35508 0.59828 0.0
C491 C 0.87833 0.92598 0.83959 0.0
C492 C 0.87013 0.96253 0.85905 0.0
C493 C 0.91616 0.9143 0.83058 0.0
C494 C 0.94721 0.93795 0.8419 0.0
H495 H 0.85543 0.90661 0.83088 0.0
H496 H 0.92085 0.88623 0.81517 0.0
S497 S 0.94158 0.03481 0.89551 0.0
N498 N 0.89685 0.02187 0.89008 0.0
N499 N 0.96732 0.99854 0.87455 0.0
C500 C 0.93947 0.97386 0.86207 0.0
C501 C 0.90114 0.9865 0.87025 0.0
C502 C 0.30916 0.65044 0.08317 0.0
C503 C 0.32182 0.65612 0.04583 0.0
C504 C 0.301 0.61124 0.09723 0.0
C505 C 0.30485 0.57588 0.07466 0.0
H506 H 0.30774 0.67598 0.10246 0.0
H507 H 0.2932 0.60861 0.12687 0.0
S508 S 0.3274 0.57479 0.97231 0.0
N509 N 0.33068 0.62345 0.98423 0.0
N510 N 0.31574 0.54997 1.01144 0.0
C511 C 0.31377 0.58146 0.03632 0.0
C512 C 0.32189 0.62154 1.02171 0.0
C513 C 0.648 0.09715 0.37674 0.0
C514 C 0.6296 0.07621 0.3471 0.0
C515 C 0.68803 0.09524 0.38156 0.0
C516 C 0.71135 0.07121 0.35773 0.0
H517 H 0.63132 0.1153 0.39644 0.0
H518 H 0.70066 0.11151 0.40501 0.0
S519 S 0.6779 1.01021 0.27607 0.0
N520 N 0.63833 0.03116 0.29322 0.0
N521 N 0.71312 0.0265 0.30306 0.0
C522 C 0.69342 0.05048 0.32781 0.0
C523 C 0.65274 0.05307 0.32241 0.0
C524 C 0.69771 0.15414 0.50031 0.0
C525 C 0.72163 0.18806 0.50148 0.0
C526 C 0.71124 0.11492 0.48984 0.0
C527 C 0.74954 0.10757 0.48071 0.0
H528 H 0.66774 0.15795 0.50644 0.0
H529 H 0.69126 0.09045 0.48802 0.0
S530 S 0.82481 0.18546 0.48194 0.0
N531 N 0.78577 0.21138 0.49428 0.0
N532 N 0.812 0.13776 0.47533 0.0
C533 C 0.7743 0.14096 0.48335 0.0
C534 C 0.76017 0.18113 0.49348 0.0
C535 C 0.15664 0.45377 0.76359 0.0
C536 C 0.1244 0.45598 0.73854 0.0
C537 C 0.19286 0.46542 0.75178 0.0
C538 C 0.19814 0.47957 0.71449 0.0
H539 H 0.15423 0.44208 0.79244 0.0
H540 H 0.21662 0.46367 0.77193 0.0
S541 S 0.12388 0.49269 0.63798 0.0
N542 N 0.10075 0.47535 0.67502 0.0
N543 N 0.16863 0.49537 0.65259 0.0
C544 C 0.16631 0.48231 0.68938 0.0
C545 C 0.12951 0.47116 0.70145 0.0
C546 C 0.79802 0.89824 0.98759 0.0
C547 C 0.82523 0.92399 0.97162 0.0
C548 C 0.80436 0.85509 0.9903 0.0
C549 C 0.83836 0.83628 0.97748 0.0
H550 H 0.77159 0.91158 0.99807 0.0
H551 H 0.78318 0.83662 1.00363 0.0
S552 S 0.91928 0.88957 0.93472 0.0
N553 N 0.88803 0.92697 0.94415 0.0
N554 N 0.89944 0.84683 0.94844 0.0
C555 C 0.86573 0.86179 0.9618 0.0
C556 C 0.85944 0.90537 0.95927 0.0
C557 C 0.3982 0.56148 0.26072 0.0
C558 C 0.42754 0.56632 0.23404 0.0
C559 C 0.36164 0.5497 0.24952 0.0
C560 C 0.35304 0.54229 0.21126 0.0
H561 H 0.40305 0.56778 0.29058 0.0
H562 H 0.34003 0.54652 0.27084 0.0
S563 S 0.41927 0.54722 0.13039 0.0
N564 N 0.44517 0.56051 0.16766 0.0
N565 N 0.37669 0.53789 0.14687 0.0
C566 C 0.38212 0.54551 0.18448 0.0
C567 C 0.41931 0.55761 0.19577 0.0
C568 C 0.54099 0.21488 0.40551 0.0
C569 C 0.56913 0.2042 0.3786 0.0
C570 C 0.55072 0.22609 0.44285 0.0
C571 C 0.58892 0.22693 0.45474 0.0
H572 H 0.51099 0.21338 0.39818 0.0
H573 H 0.52828 0.23364 0.46259 0.0
S574 S 0.67357 0.20786 0.39487 0.0
N575 N 0.63697 0.19951 0.36616 0.0
N576 N 0.65508 0.22074 0.43606 0.0
C577 C 0.61729 0.21861 0.42781 0.0
C578 C 0.60747 0.2073 0.3898 0.0
C579 C 0.06431 0.27936 0.62335 0.0
C580 C 0.08831 0.30456 0.60208 0.0
C581 C 0.05963 0.28455 0.66283 0.0
C582 C 0.0793 0.31469 0.68255 0.0
H583 H 0.04968 0.2548 0.60946 0.0
H584 H 0.04028 0.26521 0.67787 0.0
S585 S 0.14902 0.38499 0.64176 0.0
N586 N 0.13374 0.35894 0.60493 0.0
N587 N 0.12538 0.36818 0.67866 0.0
C588 C 0.10364 0.33963 0.66184 0.0
C589 C 0.10803 0.33475 0.62177 0.0
C590 C 0.95934 0.78541 0.87862 0.0
C591 C 0.99226 0.8079 0.87459 0.0
C592 C 0.94793 0.77218 0.91472 0.0
C593 C 0.96825 0.78202 0.94828 0.0
H594 H 0.94233 0.77796 0.85378 0.0
H595 H 0.92214 0.75516 0.91647 0.0
S596 S 0.05506 0.8424 0.95376 0.0
N597 N 0.04482 0.84028 0.90775 0.0
N598 N 1.02186 0.81665 0.97538 0.0
C599 C 1.00067 0.80513 0.94486 0.0
C600 C 1.01306 0.8177 0.90807 0.0
C601 C 0.49823 0.70578 0.15814 0.0
C602 C 0.47045 0.69164 0.18329 0.0
C603 C 0.49236 0.70563 0.11807 0.0
C604 C 0.45833 0.69158 0.10188 0.0
H605 H 0.52446 0.71757 0.16953 0.0
H606 H 0.51372 0.71823 0.09989 0.0
S607 S 0.3771 0.65076 0.15496 0.0
N608 N 0.40798 0.66285 0.18847 0.0
N609 N 0.39725 0.66201 0.11427 0.0
C610 C 0.43086 0.67676 0.12682 0.0
C611 C 0.43671 0.67711 0.16716 0.0
C612 C 0.16558 0.41469 0.26509 0.0
C613 C 0.19516 0.39534 0.28695 0.0
C614 C 0.17324 0.43633 0.23159 0.0
C615 C 0.21064 0.439 0.21843 0.0
H616 H 0.13673 0.41612 0.27552 0.0
H617 H 0.14996 0.45359 0.21733 0.0
S618 S 0.29708 0.38664 0.26101 0.0
N619 N 0.26257 0.375 0.29019 0.0
N620 N 0.27677 0.41541 0.22654 0.0
C621 C 0.23994 0.41615 0.23764 0.0
C622 C 0.23224 0.39446 0.27222 0.0
C623 C 0.85062 0.89725 0.546 0.0
C624 C 0.87195 0.92517 0.5669 0.0
C625 C 0.83203 0.90885 0.51166 0.0
C626 C 0.83397 0.94888 0.49624 0.0
H627 H 0.84715 0.86633 0.55692 0.0
H628 H 0.81456 0.88649 0.49785 0.0
S629 S 0.88947 0.0328 0.53714 0.0
N630 N 0.89648 0.99416 0.56791 0.0
N631 N 0.86181 1.01563 0.50274 0.0
C632 C 0.85737 0.97646 0.5152 0.0
C633 C 0.87629 0.96468 0.55065 0.0
C634 C 0.37096 0.60459 0.71862 0.0
C635 C 0.33314 0.59309 0.71214 0.0
C636 C 0.38211 0.62293 0.75284 0.0
C637 C 0.35593 0.63022 0.78203 0.0
H638 H 0.39259 0.59752 0.69788 0.0
H639 H 0.4119 0.62935 0.7573 0.0
S640 S 0.25247 0.61174 0.7774 0.0
N641 N 0.26863 0.59491 0.73642 0.0
N642 N 0.2898 0.62895 0.80064 0.0
C643 C 0.3176 0.62148 0.77498 0.0
C644 C 0.30613 0.60317 0.74003 0.0
C645 C 0.68921 0.10116 0.05328 0.0
C646 C 0.666 0.07632 0.07535 0.0
C647 C 0.7054 0.08684 1.01966 0.0
C648 C 0.69938 0.04683 1.00645 0.0
H649 H 0.69617 0.13154 0.06276 0.0
H650 H 0.72385 0.10719 1.00463 0.0
S651 S 0.63698 0.97107 0.05137 0.0
N652 N 0.63473 1.01103 0.07981 0.0
N653 N 0.66575 0.9837 1.01679 0.0
C654 C 0.67478 0.02219 0.02731 0.0
C655 C 0.65809 0.03695 0.06171 0.0
C656 C 0.73413 0.0901 0.77218 0.0
C657 C 0.69545 0.09757 0.76202 0.0
C658 C 0.74495 0.07174 0.80745 0.0
C659 C 0.71747 0.06031 0.83389 0.0
H660 H 0.75613 0.09698 0.75211 0.0
H661 H 0.77495 0.06504 0.81337 0.0
S662 S 0.61283 0.07904 0.82327 0.0
N663 N 0.62999 0.09625 0.78285 0.0
N664 N 0.65013 0.06192 0.849 0.0
C665 C 0.67888 0.06993 0.82494 0.0
C666 C 0.66791 0.08841 0.78903 0.0
C667 C 0.18499 0.47899 1.02443 0.0
C668 C 0.19628 0.4534 0.05562 0.0
C669 C 0.16985 0.4624 0.99092 0.0
C670 C 0.16549 0.41977 0.98768 0.0
H671 H 0.18982 0.51165 1.02509 0.0
H672 H 0.16324 0.48277 0.96682 0.0
S673 S 0.18417 0.34083 0.06367 0.0
N674 N 0.19746 0.38416 0.08281 0.0
N675 N 0.16878 0.35324 1.02014 0.0
C676 C 0.1741 0.39441 1.01964 0.0
C677 C 0.18953 0.41117 0.05355 0.0
C678 C 0.80252 0.91555 0.29448 0.0
C679 C 0.82762 0.93757 0.31757 0.0
C680 C 0.81443 0.89864 0.25978 0.0
C681 C 0.85184 0.90316 0.2469 0.0
H682 H 0.77302 0.91299 0.30233 0.0
H683 H 0.79377 0.88345 0.24215 0.0
S684 S 0.93017 0.9522 0.29953 0.0
N685 N 0.89283 0.95876 0.32691 0.0
N686 N 0.91493 0.92701 0.26211 0.0
C687 C 0.8777 0.92294 0.2708 0.0
C688 C 0.86568 0.94009 0.30598 0.0
C689 C 0.37808 0.541 0.5348 0.0
C690 C 0.34185 0.55682 0.54488 0.0
C691 C 0.39705 0.5572 0.50326 0.0
C692 C 0.38028 0.58958 0.48087 0.0
H693 H 0.3924 0.51709 0.55214 0.0
H694 H 0.42549 0.54537 0.49718 0.0
S695 S 0.28347 0.63694 0.49145 0.0
N696 N 0.28831 0.60341 0.52709 0.0
N697 N 0.32384 0.63338 0.46825 0.0
C698 C 0.34328 0.60388 0.48941 0.0
C699 C 0.3241 0.58762 0.5213 0.0
C700 C 0.26759 0.17458 0.46778 0.0
C701 C 0.25288 0.21415 0.45735 0.0
C702 C 0.29973 0.15719 0.45054 0.0
C703 C 0.31877 0.17839 0.42195 0.0
H704 H 0.25452 0.15667 0.48987 0.0
H705 H 0.31014 0.12698 0.46024 0.0
S706 S 0.29141 0.28194 0.38242 0.0
N707 N 0.25957 0.27369 0.41542 0.0
N708 N 0.32008 0.24049 0.38273 0.0
C709 C 0.30437 0.21775 0.41068 0.0
C710 C 0.27138 0.23565 0.42832 0.0
C711 C 0.06056 0.02942 0.66104 0.0
C712 C 0.08156 0.05896 0.68034 0.0
C713 C 0.0448 0.9966 0.68105 0.0
C714 C 0.04991 0.99247 0.72077 0.0
H715 H 0.05806 0.0305 0.63024 0.0
H716 H 0.03045 0.97322 0.6652 0.0
S717 S 0.09664 0.06591 0.78473 0.0
N718 N 0.10213 0.08506 0.74147 0.0
N719 N 0.07295 0.02353 0.779 0.0
C720 C 0.06847 0.02349 0.74044 0.0
C721 C 0.0842 0.05675 0.72022 0.0
C722 C 0.27741 0.85792 0.938 0.0
C723 C 0.26197 0.82862 0.9138 0.0
C724 C 0.31013 0.84881 0.96026 0.0
C725 C 0.329 0.8099 0.95962 0.0
H726 H 0.26328 0.88788 0.94074 0.0
H727 H 0.31962 0.87203 0.97973 0.0
S728 S 0.30316 0.72376 0.89745 0.0
N729 N 0.2702 0.7602 0.88745 0.0
N730 N 0.33207 0.74298 0.92976 0.0
C731 C 0.31568 0.78112 0.9335 0.0
C732 C 0.28205 0.79051 0.91051 0.0
C733 C 0.51175 1.00472 0.19664 0.0
C734 C 0.50201 1.01267 0.23464 0.0
C735 C 0.49515 0.97264 0.1763 0.0
C736 C 0.46812 0.94743 0.19316 0.0
H737 H 0.53162 0.02395 0.18221 0.0
H738 H 0.50294 0.96807 0.14693 0.0
S739 S 0.43664 0.95172 0.29329 0.0
N740 N 0.466 0.98984 0.28918 0.0
N741 N 0.4353 0.93017 0.2511 0.0
C742 C 0.45931 0.95411 0.23147 0.0
C743 C 0.47611 0.9865 0.25213 0.0
C744 C 0.78893 0.35634 0.63433 0.0
C745 C 0.81984 0.32867 0.64209 0.0
C746 C 0.75385 0.34247 0.62117 0.0
C747 C 0.74814 0.30032 0.61561 0.0
H748 H 0.79245 0.38916 0.63652 0.0
H749 H 0.73147 0.3652 0.61384 0.0
S750 S 0.81873 0.21495 0.63678 0.0
N751 N 0.84159 0.25695 0.64703 0.0
N752 N 0.7755 0.23075 0.62236 0.0
C753 C 0.77803 0.27208 0.62582 0.0
C754 C 0.81396 0.2863 0.6389 0.0
C755 C 1.01217 0.47814 0.84969 0.0
C756 C 0.98732 0.44832 0.83647 0.0
C757 C 0.99896 0.51005 0.87343 0.0
C758 C 0.96054 0.51302 0.88428 0.0
H759 H 0.04085 0.47896 0.83895 0.0
H760 H 1.01805 0.53419 0.88082 0.0
S761 S 0.88622 0.43867 0.86196 0.0
N762 N 0.9242 0.42101 0.83953 0.0
N763 N 0.89953 0.48032 0.88413 0.0
C764 C 0.93664 0.48121 0.87394 0.0
C765 C 0.95002 0.44902 0.85 0.0
C766 C 0.77572 0.7286 0.11606 0.0
C767 C 0.78962 0.71106 0.08236 0.0
C768 C 0.74174 0.71549 0.13234 0.0
C769 C 0.72019 0.68484 0.11518 0.0
H770 H 0.79137 0.75223 0.13021 0.0
H771 H 0.73209 0.72963 0.15835 0.0
S772 S 0.74364 0.62893 0.02693 0.0
N773 N 0.77819 0.66136 0.03233 0.0
N774 N 0.71553 0.63675 0.06336 0.0
C775 C 0.7337 0.6672 0.0816 0.0
C776 C 0.76803 0.68031 0.06509 0.0
C777 C 0.5525 0.50245 0.37295 0.0
C778 C 0.58855 0.50105 0.39127 0.0
C779 C 0.54202 0.53402 0.34654 0.0
C780 C 0.56761 0.56465 0.337 0.0
H781 H 0.53254 0.47866 0.37867 0.0
H782 H 0.51436 0.53341 0.33239 0.0
S783 S 0.66476 0.57554 0.37791 0.0
N784 N 0.64921 0.53384 0.39891 0.0
N785 N 0.62971 0.59265 0.34918 0.0
C786 C 0.60322 0.56417 0.35591 0.0
C787 C 0.61367 0.53248 0.38305 0.0
C788 C 0.433 0.23015 0.18994 0.0
C789 C 0.41675 0.25855 0.21538 0.0
C790 C 0.45692 0.19711 0.20287 0.0
C791 C 0.46575 0.19087 0.24187 0.0
H792 H 0.42817 0.2342 0.15953 0.0
H793 H 0.4695 0.177 0.18185 0.0
S794 S 0.4267 0.25337 0.32075 0.0
N795 N 0.40853 0.27618 0.28178 0.0
N796 N 0.45336 0.21398 0.30617 0.0
C797 C 0.44829 0.21792 0.26784 0.0
C798 C 0.42399 0.25181 0.25459 0.0
C799 C 0.93869 0.26481 0.78829 0.0
C800 C 0.9598 0.29121 0.81124 0.0
C801 C 0.91613 0.23458 0.80472 0.0
C802 C 0.91404 0.22983 0.84458 0.0
H803 H 0.94074 0.26645 0.75757 0.0
H804 H 0.90127 0.21395 0.7862 0.0
S805 S 0.95853 0.29572 0.91688 0.0
N806 N 0.97329 0.31368 0.87576 0.0
N807 N 0.93122 0.2572 0.90624 0.0
C808 C 0.93326 0.25757 0.8676 0.0
C809 C 0.95603 0.28816 0.85104 0.0
C810 C 1.02403 0.64892 0.06341 0.0
C811 C 0.03694 0.64073 0.10114 0.0
C812 C 0.98762 0.66703 0.05559 0.0
C813 C 0.96333 0.67827 0.08535 0.0
H814 H 0.043 0.64334 0.03992 0.0
H815 H 0.98009 0.67555 1.02648 0.0
S816 S 0.98153 0.65884 0.18849 0.0
N817 N 1.02068 0.64118 0.16806 0.0
N818 N 0.95286 0.67584 0.15341 0.0
C819 C 0.97465 0.66704 0.12279 0.0
C820 C 1.01135 0.64819 0.13072 0.0
C821 C 0.60801 0.78134 0.35633 0.0
C822 C 0.63295 0.80333 0.33375 0.0
C823 C 0.58862 0.74822 0.34178 0.0
C824 C 0.59319 0.73547 0.30387 0.0
H825 H 0.60244 0.7906 0.38527 0.0
H826 H 0.56922 0.73307 0.36051 0.0
S827 S 0.65847 0.78047 0.23406 0.0
N828 N 0.66362 0.80858 0.27249 0.0
N829 N 0.62694 0.74593 0.24481 0.0
C830 C 0.61931 0.75617 0.28131 0.0
C831 C 0.6391 0.79027 0.29626 0.0
C832 C 0.56653 0.32588 0.64359 0.0
C833 C 0.58066 0.32539 0.60638 0.0
C834 C 0.535 0.351 0.65303 0.0
C835 C 0.51598 0.37637 0.62547 0.0
H836 H 0.57863 0.30488 0.66522 0.0
H837 H 0.52381 0.34817 0.68144 0.0
S838 S 0.54527 0.39109 0.52523 0.0
N839 N 0.5762 0.35593 0.54288 0.0
N840 N 0.51656 0.40332 0.5604 0.0
C841 C 0.53166 0.37861 0.5888 0.0
C842 C 0.56418 0.35316 0.57932 0.0
C843 C 0.11872 0.74711 0.73264 0.0
C844 C 0.12936 0.74728 0.69423 0.0
C845 C 0.09686 0.77999 0.74744 0.0
C846 C 0.08501 0.8139 0.72419 0.0
H847 H 0.12563 0.72054 0.75077 0.0
H848 H 0.08748 0.77773 0.77657 0.0
S849 S 0.11153 0.83224 0.62385 0.0
N850 N 0.131 0.78653 0.63491 0.0
N851 N 0.08978 0.84805 0.66254 0.0
C852 C 0.098 0.81572 0.68666 0.0
C853 C 0.12018 0.78242 0.67169 0.0
C854 C 0.50731 0.81476 0.94932 0.0
C855 C 0.49558 0.81735 0.98745 0.0
C856 C 0.54122 0.83155 0.93728 0.0
C857 C 0.56517 0.85189 0.96268 0.0
H858 H 0.49068 0.79866 0.92841 0.0
H859 H 0.54932 0.82732 0.90794 0.0
S860 S 0.54625 0.87134 0.06462 0.0
N861 N 0.50977 0.84467 0.05005 0.0
N862 N 0.57347 0.87672 0.02716 0.0
C863 C 0.55328 0.85632 1.00056 0.0
C864 C 0.5185 0.83912 1.01294 0.0
C865 C 0.03529 0.15688 0.49137 0.0
C866 C 1.02133 0.15021 0.45417 0.0
C867 C 0.06791 0.18012 0.49761 0.0
C868 C 0.0873 0.19713 0.46675 0.0
H869 H 1.01971 0.14617 0.51568 0.0
H870 H 0.07624 0.1872 0.52652 0.0
S871 S 0.06591 0.18223 0.36421 0.0
N872 N 0.03235 0.15769 0.38644 0.0
N873 N 0.09299 0.20131 0.39804 0.0
C874 C 0.07526 0.18771 0.42965 0.0
C875 C 0.04241 0.16427 0.42337 0.0
loop_
_geom_bond_atom_site_label_1
_geom_bond_atom_site_label_2
_geom_bond_distance
_geom_bond_site_symmetry_2
_ccdc_geom_bond_type
Ho0 C3 2.811 . S
Ho0 O20 2.322 . S
Ho0 O22 2.378 . S
Ho0 O23 2.524 . S
Ho0 O24 2.381 . S
Ho0 O25 2.669 . S
Ho0 O27 2.346 . S
Ho0 O31 2.305 . S
Ho1 C12 2.811 . S
Ho1 O21 2.346 . S
Ho1 O25 2.305 . S
Ho1 O26 2.322 . S
Ho1 O28 2.378 . S
Ho1 O29 2.524 . S
Ho1 O30 2.381 . S
Ho1 O31 2.669 . S
C2 O20 1.259 . S
C2 O21 1.268 . S
C3 Ho0 2.811 . S
C3 C4 1.488 . S
C3 O22 1.215 . S
C3 O23 1.289 . S
C4 C3 1.488 . S
C4 C5 1.348 . S
C4 C9 1.413 . S
C5 C4 1.348 . S
C5 C6 1.442 . S
C5 H32 0.930 . S
C6 C5 1.442 . S
C6 C7 1.381 . S
C6 H33 0.931 . S
C7 C6 1.381 . S
C7 C8 1.321 . S
C8 C7 1.321 . S
C8 C9 1.403 . S
C8 H34 0.934 . S
C9 C4 1.413 . S
C9 C8 1.403 . S
C9 H35 0.930 . S
C10 O24 1.275 . S
C10 O25 1.256 . S
C11 O26 1.259 . S
C11 O27 1.268 . S
C12 Ho1 2.811 . S
C12 C13 1.488 . S
C12 O28 1.215 . S
C12 O29 1.289 . S
C13 C12 1.488 . S
C13 C14 1.348 . S
C13 C18 1.413 . S
C14 C13 1.348 . S
C14 C15 1.442 . S
C14 H36 0.930 . S
C15 C14 1.442 . S
C15 C16 1.381 . S
C15 H37 0.931 . S
C16 C15 1.381 . S
C16 C17 1.321 . S
C17 C16 1.321 . S
C17 C18 1.403 . S
C17 H38 0.934 . S
C18 C13 1.413 . S
C18 C17 1.403 . S
C18 H39 0.930 . S
C19 O30 1.275 . S
C19 O31 1.256 . S
O20 Ho0 2.322 . S
O20 C2 1.259 . S
O21 Ho1 2.346 . S
O21 C2 1.268 . S
O22 Ho0 2.378 . S
O22 C3 1.215 . S
O23 Ho0 2.524 . S
O23 C3 1.289 . S
O24 Ho0 2.381 . S
O24 C10 1.275 . S
O25 Ho0 2.669 . S
O25 Ho1 2.305 . S
O25 C10 1.256 . S
O26 Ho1 2.322 . S
O26 C11 1.259 . S
O27 Ho0 2.346 . S
O27 C11 1.268 . S
O28 Ho1 2.378 . S
O28 C12 1.215 . S
O29 Ho1 2.524 . S
O29 C12 1.289 . S
O30 Ho1 2.381 . S
O30 C19 1.275 . S
O31 Ho0 2.305 . S
O31 Ho1 2.669 . S
O31 C19 1.256 . S
H32 C5 0.930 . S
H33 C6 0.931 . S
H34 C8 0.934 . S
H35 C9 0.930 . S
H36 C14 0.930 . S
H37 C15 0.931 . S
H38 C17 0.934 . S
H39 C18 0.930 . S
Ho40 C43 2.811 . S
Ho40 O60 2.315 1_655 S
Ho40 O62 2.378 . S
Ho40 O63 2.524 . S
Ho40 O64 2.381 1_655 S
Ho40 O65 2.669 1_655 S
Ho40 O67 2.346 . S
Ho40 O71 2.305 . S
Ho41 C52 2.811 . S
Ho41 O61 2.346 . S
Ho41 O65 2.305 . S
Ho41 O66 2.320 1_455 S
Ho41 O68 2.378 . S
Ho41 O69 2.524 . S
Ho41 O70 2.381 1_455 S
Ho41 O71 2.669 1_455 S
C42 O60 1.264 . S
C42 O61 1.268 . S
C43 Ho40 2.811 . S
C43 C44 1.488 . S
C43 O62 1.215 . S
C43 O63 1.289 . S
C44 C43 1.488 . S
C44 C45 1.348 . S
C44 C49 1.413 . S
C45 C44 1.348 . S
C45 C46 1.442 . S
C45 H72 0.930 . S
C46 C45 1.442 . S
C46 C47 1.381 . S
C46 H73 0.931 . S
C47 C46 1.381 . S
C47 C48 1.321 . S
C48 C47 1.321 . S
C48 C49 1.403 . S
C48 H74 0.934 . S
C49 C44 1.413 . S
C49 C48 1.403 . S
C49 H75 0.930 . S
C50 O64 1.275 . S
C50 O65 1.256 . S
C51 O66 1.260 . S
C51 O67 1.268 . S
C52 Ho41 2.811 . S
C52 C53 1.488 . S
C52 O68 1.215 . S
C52 O69 1.289 . S
C53 C52 1.488 . S
C53 C54 1.348 . S
C53 C58 1.413 . S
C54 C53 1.348 . S
C54 C55 1.442 . S
C54 H76 0.930 . S
C55 C54 1.442 . S
C55 C56 1.381 . S
C55 H77 0.931 . S
C56 C55 1.381 . S
C56 C57 1.321 . S
C57 C56 1.321 . S
C57 C58 1.403 . S
C57 H78 0.934 . S
C58 C53 1.413 . S
C58 C57 1.403 . S
C58 H79 0.930 . S
C59 O70 1.275 . S
C59 O71 1.256 . S
O60 Ho40 2.315 1_455 S
O60 C42 1.264 . S
O61 Ho41 2.346 . S
O61 C42 1.268 . S
O62 Ho40 2.378 . S
O62 C43 1.215 . S
O63 Ho40 2.524 . S
O63 C43 1.289 . S
O64 Ho40 2.381 1_455 S
O64 C50 1.275 . S
O65 Ho40 2.669 1_455 S
O65 Ho41 2.305 . S
O65 C50 1.256 . S
O66 Ho41 2.320 1_655 S
O66 C51 1.260 . S
O67 Ho40 2.346 . S
O67 C51 1.268 . S
O68 Ho41 2.378 . S
O68 C52 1.215 . S
O69 Ho41 2.524 . S
O69 C52 1.289 . S
O70 Ho41 2.381 1_655 S
O70 C59 1.275 . S
O71 Ho40 2.305 . S
O71 Ho41 2.669 1_655 S
O71 C59 1.256 . S
H72 C45 0.930 . S
H73 C46 0.931 . S
H74 C48 0.934 . S
H75 C49 0.930 . S
H76 C54 0.930 . S
H77 C55 0.931 . S
H78 C57 0.934 . S
H79 C58 0.930 . S
Ho80 C83 2.811 . S
Ho80 O100 2.303 1_554 S
Ho80 O102 2.378 . S
Ho80 O103 2.524 . S
Ho80 O104 2.381 1_554 S
Ho80 O105 2.669 1_554 S
Ho80 O107 2.346 . S
Ho80 O111 2.305 . S
Ho81 C92 2.811 . S
Ho81 O101 2.346 . S
Ho81 O105 2.305 . S
Ho81 O106 2.322 . S
Ho81 O108 2.378 . S
Ho81 O109 2.524 . S
Ho81 O110 2.381 1_556 S
Ho81 O111 2.669 1_556 S
C82 O100 1.275 . S
C82 O101 1.268 . S
C83 Ho80 2.811 . S
C83 C84 1.488 . S
C83 O102 1.215 . S
C83 O103 1.289 . S
C84 C83 1.488 . S
C84 C85 1.348 . S
C84 C89 1.413 . S
C85 C84 1.348 . S
C85 C86 1.442 . S
C85 H112 0.930 . S
C86 C85 1.442 . S
C86 C87 1.381 . S
C86 H113 0.931 . S
C87 C86 1.381 . S
C87 C88 1.321 . S
C88 C87 1.321 . S
C88 C89 1.403 . S
C88 H114 0.934 . S
C89 C84 1.413 . S
C89 C88 1.403 . S
C89 H115 0.930 . S
C90 O104 1.275 . S
C90 O105 1.256 . S
C91 O106 1.259 1_554 S
C91 O107 1.268 . S
C92 Ho81 2.811 . S
C92 C93 1.488 . S
C92 O108 1.215 . S
C92 O109 1.289 . S
C93 C92 1.488 . S
C93 C94 1.348 . S
C93 C98 1.413 . S
C94 C93 1.348 . S
C94 C95 1.442 . S
C94 H116 0.930 . S
C95 C94 1.442 . S
C95 C96 1.381 . S
C95 H117 0.931 . S
C96 C95 1.381 . S
C96 C97 1.321 . S
C97 C96 1.321 . S
C97 C98 1.403 . S
C97 H118 0.934 . S
C98 C93 1.413 . S
C98 C97 1.403 . S
C98 H119 0.930 . S
C99 O110 1.275 . S
C99 O111 1.256 . S
O100 Ho80 2.303 1_556 S
O100 C82 1.275 . S
O101 Ho81 2.346 . S
O101 C82 1.268 . S
O102 Ho80 2.378 . S
O102 C83 1.215 . S
O103 Ho80 2.524 . S
O103 C83 1.289 . S
O104 Ho80 2.381 1_556 S
O104 C90 1.275 . S
O105 Ho80 2.669 1_556 S
O105 Ho81 2.305 . S
O105 C90 1.256 . S
O106 Ho81 2.322 . S
O106 C91 1.259 1_556 S
O107 Ho80 2.346 . S
O107 C91 1.268 . S
O108 Ho81 2.378 . S
O108 C92 1.215 . S
O109 Ho81 2.524 . S
O109 C92 1.289 . S
O110 Ho81 2.381 1_554 S
O110 C99 1.275 . S
O111 Ho80 2.305 . S
O111 Ho81 2.669 1_554 S
O111 C99 1.256 . S
H112 C85 0.930 . S
H113 C86 0.931 . S
H114 C88 0.934 . S
H115 C89 0.930 . S
H116 C94 0.930 . S
H117 C95 0.931 . S
H118 C97 0.934 . S
H119 C98 0.930 . S
Ho120 C123 2.811 . S
Ho120 O140 2.322 . S
Ho120 O142 2.378 . S
Ho120 O143 2.524 . S
Ho120 O144 2.381 . S
Ho120 O145 2.669 . S
Ho120 O147 2.346 . S
Ho120 O151 2.305 . S
Ho121 C132 2.811 . S
Ho121 O141 2.346 . S
Ho121 O145 2.305 . S
Ho121 O146 2.322 . S
Ho121 O148 2.378 . S
Ho121 O149 2.524 . S
Ho121 O150 2.381 . S
Ho121 O151 2.669 . S
C122 O140 1.259 . S
C122 O141 1.268 . S
C123 Ho120 2.811 . S
C123 C124 1.488 . S
C123 O142 1.215 . S
C123 O143 1.289 . S
C124 C123 1.488 . S
C124 C125 1.348 . S
C124 C129 1.413 . S
C125 C124 1.348 . S
C125 C126 1.442 . S
C125 H152 0.930 . S
C126 C125 1.442 . S
C126 C127 1.381 . S
C126 H153 0.931 . S
C127 C126 1.381 . S
C127 C128 1.321 . S
C128 C127 1.321 . S
C128 C129 1.403 . S
C128 H154 0.934 . S
C129 C124 1.413 . S
C129 C128 1.403 . S
C129 H155 0.930 . S
C130 O144 1.275 . S
C130 O145 1.256 . S
C131 O146 1.259 . S
C131 O147 1.268 . S
C132 Ho121 2.811 . S
C132 C133 1.488 . S
C132 O148 1.215 . S
C132 O149 1.289 . S
C133 C132 1.488 . S
C133 C134 1.348 . S
C133 C138 1.413 . S
C134 C133 1.348 . S
C134 C135 1.442 . S
C134 H156 0.930 . S
C135 C134 1.442 . S
C135 C136 1.381 . S
C135 H157 0.931 . S
C136 C135 1.381 . S
C136 C137 1.321 . S
C137 C136 1.321 . S
C137 C138 1.403 . S
C137 H158 0.934 . S
C138 C133 1.413 . S
C138 C137 1.403 . S
C138 H159 0.930 . S
C139 O150 1.275 . S
C139 O151 1.256 . S
O140 Ho120 2.322 . S
O140 C122 1.259 . S
O141 Ho121 2.346 . S
O141 C122 1.268 . S
O142 Ho120 2.378 . S
O142 C123 1.215 . S
O143 Ho120 2.524 . S
O143 C123 1.289 . S
O144 Ho120 2.381 . S
O144 C130 1.275 . S
O145 Ho120 2.669 . S
O145 Ho121 2.305 . S
O145 C130 1.256 . S
O146 Ho121 2.322 . S
O146 C131 1.259 . S
O147 Ho120 2.346 . S
O147 C131 1.268 . S
O148 Ho121 2.378 . S
O148 C132 1.215 . S
O149 Ho121 2.524 . S
O149 C132 1.289 . S
O150 Ho121 2.381 . S
O150 C139 1.275 . S
O151 Ho120 2.305 . S
O151 Ho121 2.669 . S
O151 C139 1.256 . S
H152 C125 0.930 . S
H153 C126 0.931 . S
H154 C128 0.934 . S
H155 C129 0.930 . S
H156 C134 0.930 . S
H157 C135 0.931 . S
H158 C137 0.934 . S
H159 C138 0.930 . S
Ho160 C163 2.811 . S
Ho160 O180 2.322 . S
Ho160 O182 2.378 . S
Ho160 O183 2.524 . S
Ho160 O184 2.381 . S
Ho160 O185 2.669 . S
Ho160 O187 2.346 . S
Ho160 O191 2.305 . S
Ho161 C172 2.811 . S
Ho161 O181 2.346 . S
Ho161 O185 2.305 . S
Ho161 O186 2.322 . S
Ho161 O188 2.378 . S
Ho161 O189 2.524 . S
Ho161 O190 2.381 . S
Ho161 O191 2.669 . S
C162 O180 1.259 . S
C162 O181 1.268 . S
C163 Ho160 2.811 . S
C163 C164 1.488 . S
C163 O182 1.215 . S
C163 O183 1.289 . S
C164 C163 1.488 . S
C164 C165 1.348 . S
C164 C169 1.413 . S
C165 C164 1.348 . S
C165 C166 1.442 . S
C165 H192 0.930 . S
C166 C165 1.442 . S
C166 C167 1.381 . S
C166 H193 0.931 . S
C167 C166 1.381 . S
C167 C168 1.321 . S
C168 C167 1.321 . S
C168 C169 1.403 . S
C168 H194 0.934 . S
C169 C164 1.413 . S
C169 C168 1.403 . S
C169 H195 0.930 . S
C170 O184 1.275 . S
C170 O185 1.256 . S
C171 O186 1.259 . S
C171 O187 1.268 . S
C172 Ho161 2.811 . S
C172 C173 1.488 . S
C172 O188 1.215 . S
C172 O189 1.289 . S
C173 C172 1.488 . S
C173 C174 1.348 . S
C173 C178 1.413 . S
C174 C173 1.348 . S
C174 C175 1.442 . S
C174 H196 0.930 . S
C175 C174 1.442 . S
C175 C176 1.381 . S
C175 H197 0.931 . S
C176 C175 1.381 . S
C176 C177 1.321 . S
C177 C176 1.321 . S
C177 C178 1.403 . S
C177 H198 0.934 . S
C178 C173 1.413 . S
C178 C177 1.403 . S
C178 H199 0.930 . S
C179 O190 1.275 . S
C179 O191 1.256 . S
O180 Ho160 2.322 . S
O180 C162 1.259 . S
O181 Ho161 2.346 . S
O181 C162 1.268 . S
O182 Ho160 2.378 . S
O182 C163 1.215 . S
O183 Ho160 2.524 . S
O183 C163 1.289 . S
O184 Ho160 2.381 . S
O184 C170 1.275 . S
O185 Ho160 2.669 . S
O185 Ho161 2.305 . S
O185 C170 1.256 . S
O186 Ho161 2.322 . S
O186 C171 1.259 . S
O187 Ho160 2.346 . S
O187 C171 1.268 . S
O188 Ho161 2.378 . S
O188 C172 1.215 . S
O189 Ho161 2.524 . S
O189 C172 1.289 . S
O190 Ho161 2.381 . S
O190 C179 1.275 . S
O191 Ho160 2.305 . S
O191 Ho161 2.669 . S
O191 C179 1.256 . S
H192 C165 0.930 . S
H193 C166 0.931 . S
H194 C168 0.934 . S
H195 C169 0.930 . S
H196 C174 0.930 . S
H197 C175 0.931 . S
H198 C177 0.934 . S
H199 C178 0.930 . S
Ho200 C203 2.811 . S
Ho200 O220 2.322 . S
Ho200 O222 2.378 . S
Ho200 O223 2.524 . S
Ho200 O224 2.381 . S
Ho200 O225 2.669 . S
Ho200 O227 2.346 1_655 S
Ho200 O231 2.305 1_655 S
Ho201 C212 2.811 . S
Ho201 O221 2.346 1_455 S
Ho201 O225 2.305 1_455 S
Ho201 O226 2.322 . S
Ho201 O228 2.378 . S
Ho201 O229 2.524 . S
Ho201 O230 2.381 . S
Ho201 O231 2.669 . S
C202 O220 1.259 . S
C202 O221 1.268 . S
C203 Ho200 2.811 . S
C203 C204 1.488 . S
C203 O222 1.215 . S
C203 O223 1.289 . S
C204 C203 1.488 . S
C204 C205 1.348 . S
C204 C209 1.413 . S
C205 C204 1.348 . S
C205 C206 1.442 . S
C205 H232 0.930 . S
C206 C205 1.442 . S
C206 C207 1.381 . S
C206 H233 0.931 . S
C207 C206 1.381 . S
C207 C208 1.321 . S
C208 C207 1.321 . S
C208 C209 1.403 . S
C208 H234 0.934 . S
C209 C204 1.413 . S
C209 C208 1.403 . S
C209 H235 0.930 . S
C210 O224 1.275 . S
C210 O225 1.256 . S
C211 O226 1.259 . S
C211 O227 1.268 . S
C212 Ho201 2.811 . S
C212 C213 1.488 . S
C212 O228 1.215 . S
C212 O229 1.289 . S
C213 C212 1.488 . S
C213 C214 1.348 . S
C213 C218 1.413 . S
C214 C213 1.348 . S
C214 C215 1.442 . S
C214 H236 0.930 . S
C215 C214 1.442 . S
C215 C216 1.381 . S
C215 H237 0.931 . S
C216 C215 1.381 . S
C216 C217 1.321 . S
C217 C216 1.321 . S
C217 C218 1.403 . S
C217 H238 0.934 . S
C218 C213 1.413 . S
C218 C217 1.403 . S
C218 H239 0.930 . S
C219 O230 1.275 . S
C219 O231 1.256 . S
O220 Ho200 2.322 . S
O220 C202 1.259 . S
O221 Ho201 2.346 1_655 S
O221 C202 1.268 . S
O222 Ho200 2.378 . S
O222 C203 1.215 . S
O223 Ho200 2.524 . S
O223 C203 1.289 . S
O224 Ho200 2.381 . S
O224 C210 1.275 . S
O225 Ho200 2.669 . S
O225 Ho201 2.305 1_655 S
O225 C210 1.256 . S
O226 Ho201 2.322 . S
O226 C211 1.259 . S
O227 Ho200 2.346 1_455 S
O227 C211 1.268 . S
O228 Ho201 2.378 . S
O228 C212 1.215 . S
O229 Ho201 2.524 . S
O229 C212 1.289 . S
O230 Ho201 2.381 . S
O230 C219 1.275 . S
O231 Ho200 2.305 1_455 S
O231 Ho201 2.669 . S
O231 C219 1.256 . S
H232 C205 0.930 . S
H233 C206 0.931 . S
H234 C208 0.934 . S
H235 C209 0.930 . S
H236 C214 0.930 . S
H237 C215 0.931 . S
H238 C217 0.934 . S
H239 C218 0.930 . S
Ho240 C243 2.811 . S
Ho240 O260 2.322 . S
Ho240 O262 2.378 . S
Ho240 O263 2.524 . S
Ho240 O264 2.381 . S
Ho240 O265 2.669 . S
Ho240 O267 2.346 1_554 S
Ho240 O271 2.305 1_554 S
Ho241 C252 2.811 . S
Ho241 O261 2.346 1_556 S
Ho241 O265 2.305 1_556 S
Ho241 O266 2.322 . S
Ho241 O268 2.378 . S
Ho241 O269 2.524 . S
Ho241 O270 2.381 . S
Ho241 O271 2.669 . S
C242 O260 1.259 . S
C242 O261 1.268 . S
C243 Ho240 2.811 . S
C243 C244 1.488 . S
C243 O262 1.215 . S
C243 O263 1.289 . S
C244 C243 1.488 . S
C244 C245 1.348 . S
C244 C249 1.413 . S
C245 C244 1.348 . S
C245 C246 1.442 . S
C245 H272 0.930 . S
C246 C245 1.442 . S
C246 C247 1.381 . S
C246 H273 0.931 . S
C247 C246 1.381 . S
C247 C248 1.321 . S
C248 C247 1.321 . S
C248 C249 1.403 . S
C248 H274 0.934 . S
C249 C244 1.413 . S
C249 C248 1.403 . S
C249 H275 0.930 . S
C250 O264 1.275 . S
C250 O265 1.256 . S
C251 O266 1.259 . S
C251 O267 1.268 . S
C252 Ho241 2.811 . S
C252 C253 1.488 . S
C252 O268 1.215 . S
C252 O269 1.289 . S
C253 C252 1.488 . S
C253 C254 1.348 . S
C253 C258 1.413 . S
C254 C253 1.348 . S
C254 C255 1.442 . S
C254 H276 0.930 . S
C255 C254 1.442 . S
C255 C256 1.381 . S
C255 H277 0.931 . S
C256 C255 1.381 . S
C256 C257 1.321 . S
C257 C256 1.321 . S
C257 C258 1.403 . S
C257 H278 0.934 . S
C258 C253 1.413 . S
C258 C257 1.403 . S
C258 H279 0.930 . S
C259 O270 1.275 . S
C259 O271 1.256 . S
O260 Ho240 2.322 . S
O260 C242 1.259 . S
O261 Ho241 2.346 1_554 S
O261 C242 1.268 . S
O262 Ho240 2.378 . S
O262 C243 1.215 . S
O263 Ho240 2.524 . S
O263 C243 1.289 . S
O264 Ho240 2.381 . S
O264 C250 1.275 . S
O265 Ho240 2.669 . S
O265 Ho241 2.305 1_554 S
O265 C250 1.256 . S
O266 Ho241 2.322 . S
O266 C251 1.259 . S
O267 Ho240 2.346 1_556 S
O267 C251 1.268 . S
O268 Ho241 2.378 . S
O268 C252 1.215 . S
O269 Ho241 2.524 . S
O269 C252 1.289 . S
O270 Ho241 2.381 . S
O270 C259 1.275 . S
O271 Ho240 2.305 1_556 S
O271 Ho241 2.669 . S
O271 C259 1.256 . S
H272 C245 0.930 . S
H273 C246 0.931 . S
H274 C248 0.934 . S
H275 C249 0.930 . S
H276 C254 0.930 . S
H277 C255 0.931 . S
H278 C257 0.934 . S
H279 C258 0.930 . S
Ho280 C283 2.811 . S
Ho280 O300 2.322 . S
Ho280 O302 2.378 . S
Ho280 O303 2.524 . S
Ho280 O304 2.381 . S
Ho280 O305 2.669 . S
Ho280 O307 2.346 . S
Ho280 O311 2.305 . S
Ho281 C292 2.811 . S
Ho281 O301 2.346 . S
Ho281 O305 2.305 . S
Ho281 O306 2.322 . S
Ho281 O308 2.378 . S
Ho281 O309 2.524 . S
Ho281 O310 2.381 . S
Ho281 O311 2.669 . S
C282 O300 1.259 . S
C282 O301 1.268 . S
C283 Ho280 2.811 . S
C283 C284 1.488 . S
C283 O302 1.215 . S
C283 O303 1.289 . S
C284 C283 1.488 . S
C284 C285 1.348 . S
C284 C289 1.413 . S
C285 C284 1.348 . S
C285 C286 1.442 . S
C285 H312 0.930 . S
C286 C285 1.442 . S
C286 C287 1.381 . S
C286 H313 0.931 . S
C287 C286 1.381 . S
C287 C288 1.321 . S
C288 C287 1.321 . S
C288 C289 1.403 . S
C288 H314 0.934 . S
C289 C284 1.413 . S
C289 C288 1.403 . S
C289 H315 0.930 . S
C290 O304 1.275 . S
C290 O305 1.256 . S
C291 O306 1.259 . S
C291 O307 1.268 . S
C292 Ho281 2.811 . S
C292 C293 1.488 . S
C292 O308 1.215 . S
C292 O309 1.289 . S
C293 C292 1.488 . S
C293 C294 1.348 . S
C293 C298 1.413 . S
C294 C293 1.348 . S
C294 C295 1.442 . S
C294 H316 0.930 . S
C295 C294 1.442 . S
C295 C296 1.381 . S
C295 H317 0.931 . S
C296 C295 1.381 . S
C296 C297 1.321 . S
C297 C296 1.321 . S
C297 C298 1.403 . S
C297 H318 0.934 . S
C298 C293 1.413 . S
C298 C297 1.403 . S
C298 H319 0.930 . S
C299 O310 1.275 . S
C299 O311 1.256 . S
O300 Ho280 2.322 . S
O300 C282 1.259 . S
O301 Ho281 2.346 . S
O301 C282 1.268 . S
O302 Ho280 2.378 . S
O302 C283 1.215 . S
O303 Ho280 2.524 . S
O303 C283 1.289 . S
O304 Ho280 2.381 . S
O304 C290 1.275 . S
O305 Ho280 2.669 . S
O305 Ho281 2.305 . S
O305 C290 1.256 . S
O306 Ho281 2.322 . S
O306 C291 1.259 . S
O307 Ho280 2.346 . S
O307 C291 1.268 . S
O308 Ho281 2.378 . S
O308 C292 1.215 . S
O309 Ho281 2.524 . S
O309 C292 1.289 . S
O310 Ho281 2.381 . S
O310 C299 1.275 . S
O311 Ho280 2.305 . S
O311 Ho281 2.669 . S
O311 C299 1.256 . S
H312 C285 0.930 . S
H313 C286 0.931 . S
H314 C288 0.934 . S
H315 C289 0.930 . S
H316 C294 0.930 . S
H317 C295 0.931 . S
H318 C297 0.934 . S
H319 C298 0.930 . S
Ho320 C323 2.811 . S
Ho320 O340 2.322 . S
Ho320 O342 2.378 . S
Ho320 O343 2.524 . S
Ho320 O344 2.381 . S
Ho320 O345 2.669 . S
Ho320 O347 2.346 . S
Ho320 O351 2.305 . S
Ho321 C332 2.811 . S
Ho321 O341 2.346 . S
Ho321 O345 2.305 . S
Ho321 O346 2.322 . S
Ho321 O348 2.378 . S
Ho321 O349 2.524 . S
Ho321 O350 2.381 . S
Ho321 O351 2.669 . S
C322 O340 1.259 . S
C322 O341 1.268 . S
C323 Ho320 2.811 . S
C323 C324 1.488 . S
C323 O342 1.215 . S
C323 O343 1.289 . S
C324 C323 1.488 . S
C324 C325 1.348 . S
C324 C329 1.413 . S
C325 C324 1.348 . S
C325 C326 1.442 . S
C325 H352 0.930 . S
C326 C325 1.442 . S
C326 C327 1.381 . S
C326 H353 0.931 . S
C327 C326 1.381 . S
C327 C328 1.321 . S
C328 C327 1.321 . S
C328 C329 1.403 . S
C328 H354 0.934 . S
C329 C324 1.413 . S
C329 C328 1.403 . S
C329 H355 0.930 . S
C330 O344 1.275 . S
C330 O345 1.256 . S
C331 O346 1.259 . S
C331 O347 1.268 . S
C332 Ho321 2.811 . S
C332 C333 1.488 . S
C332 O348 1.215 . S
C332 O349 1.289 . S
C333 C332 1.488 . S
C333 C334 1.348 . S
C333 C338 1.413 . S
C334 C333 1.348 . S
C334 C335 1.442 . S
C334 H356 0.930 . S
C335 C334 1.442 . S
C335 C336 1.381 . S
C335 H357 0.931 . S
C336 C335 1.381 . S
C336 C337 1.321 . S
C337 C336 1.321 . S
C337 C338 1.403 . S
C337 H358 0.934 . S
C338 C333 1.413 . S
C338 C337 1.403 . S
C338 H359 0.930 . S
C339 O350 1.275 . S
C339 O351 1.256 . S
O340 Ho320 2.322 . S
O340 C322 1.259 . S
O341 Ho321 2.346 . S
O341 C322 1.268 . S
O342 Ho320 2.378 . S
O342 C323 1.215 . S
O343 Ho320 2.524 . S
O343 C323 1.289 . S
O344 Ho320 2.381 . S
O344 C330 1.275 . S
O345 Ho320 2.669 . S
O345 Ho321 2.305 . S
O345 C330 1.256 . S
O346 Ho321 2.322 . S
O346 C331 1.259 . S
O347 Ho320 2.346 . S
O347 C331 1.268 . S
O348 Ho321 2.378 . S
O348 C332 1.215 . S
O349 Ho321 2.524 . S
O349 C332 1.289 . S
O350 Ho321 2.381 . S
O350 C339 1.275 . S
O351 Ho320 2.305 . S
O351 Ho321 2.669 . S
O351 C339 1.256 . S
H352 C325 0.930 . S
H353 C326 0.931 . S
H354 C328 0.934 . S
H355 C329 0.930 . S
H356 C334 0.930 . S
H357 C335 0.931 . S
H358 C337 0.934 . S
H359 C338 0.930 . S
Ho360 C363 2.811 . S
Ho360 O380 2.322 1_565 S
Ho360 O382 2.378 . S
Ho360 O383 2.524 . S
Ho360 O384 2.381 1_565 S
Ho360 O385 2.669 1_565 S
Ho360 O387 2.346 . S
Ho360 O391 2.305 . S
Ho361 C372 2.811 . S
Ho361 O381 2.346 . S
Ho361 O385 2.305 . S
Ho361 O386 2.322 1_545 S
Ho361 O388 2.378 . S
Ho361 O389 2.524 . S
Ho361 O390 2.381 1_545 S
Ho361 O391 2.669 1_545 S
C362 O380 1.259 . S
C362 O381 1.268 . S
C363 Ho360 2.811 . S
C363 C364 1.488 . S
C363 O382 1.215 . S
C363 O383 1.289 . S
C364 C363 1.488 . S
C364 C365 1.348 . S
C364 C369 1.413 . S
C365 C364 1.348 . S
C365 C366 1.442 . S
C365 H392 0.930 . S
C366 C365 1.442 . S
C366 C367 1.381 . S
C366 H393 0.931 . S
C367 C366 1.381 . S
C367 C368 1.321 . S
C368 C367 1.321 . S
C368 C369 1.403 . S
C368 H394 0.934 . S
C369 C364 1.413 . S
C369 C368 1.403 . S
C369 H395 0.930 . S
C370 O384 1.275 . S
C370 O385 1.256 . S
C371 O386 1.259 . S
C371 O387 1.268 . S
C372 Ho361 2.811 . S
C372 C373 1.488 . S
C372 O388 1.215 . S
C372 O389 1.289 . S
C373 C372 1.488 . S
C373 C374 1.348 . S
C373 C378 1.413 . S
C374 C373 1.348 . S
C374 C375 1.442 . S
C374 H396 0.930 . S
C375 C374 1.442 . S
C375 C376 1.381 . S
C375 H397 0.931 . S
C376 C375 1.381 . S
C376 C377 1.321 . S
C377 C376 1.321 . S
C377 C378 1.403 . S
C377 H398 0.934 . S
C378 C373 1.413 . S
C378 C377 1.403 . S
C378 H399 0.930 . S
C379 O390 1.275 . S
C379 O391 1.256 . S
O380 Ho360 2.322 1_545 S
O380 C362 1.259 . S
O381 Ho361 2.346 . S
O381 C362 1.268 . S
O382 Ho360 2.378 . S
O382 C363 1.215 . S
O383 Ho360 2.524 . S
O383 C363 1.289 . S
O384 Ho360 2.381 1_545 S
O384 C370 1.275 . S
O385 Ho360 2.669 1_545 S
O385 Ho361 2.305 . S
O385 C370 1.256 . S
O386 Ho361 2.322 1_565 S
O386 C371 1.259 . S
O387 Ho360 2.346 . S
O387 C371 1.268 . S
O388 Ho361 2.378 . S
O388 C372 1.215 . S
O389 Ho361 2.524 . S
O389 C372 1.289 . S
O390 Ho361 2.381 1_565 S
O390 C379 1.275 . S
O391 Ho360 2.305 . S
O391 Ho361 2.669 1_565 S
O391 C379 1.256 . S
H392 C365 0.930 . S
H393 C366 0.931 . S
H394 C368 0.934 . S
H395 C369 0.930 . S
H396 C374 0.930 . S
H397 C375 0.931 . S
H398 C377 0.934 . S
H399 C378 0.930 . S
Ho400 C403 2.811 . S
Ho400 O420 2.322 . S
Ho400 O422 2.378 . S
Ho400 O423 2.524 . S
Ho400 O424 2.381 . S
Ho400 O425 2.669 . S
Ho400 O427 2.346 1_565 S
Ho400 O431 2.305 1_565 S
Ho401 C412 2.811 . S
Ho401 O421 2.346 1_545 S
Ho401 O425 2.305 1_545 S
Ho401 O426 2.322 . S
Ho401 O428 2.378 . S
Ho401 O429 2.524 . S
Ho401 O430 2.381 . S
Ho401 O431 2.669 . S
C402 O420 1.259 . S
C402 O421 1.268 . S
C403 Ho400 2.811 . S
C403 C404 1.488 . S
C403 O422 1.215 . S
C403 O423 1.289 . S
C404 C403 1.488 . S
C404 C405 1.348 . S
C404 C409 1.413 . S
C405 C404 1.348 . S
C405 C406 1.442 . S
C405 H432 0.930 . S
C406 C405 1.442 . S
C406 C407 1.381 . S
C406 H433 0.931 . S
C407 C406 1.381 . S
C407 C408 1.321 . S
C408 C407 1.321 . S
C408 C409 1.403 . S
C408 H434 0.934 . S
C409 C404 1.413 . S
C409 C408 1.403 . S
C409 H435 0.930 . S
C410 O424 1.275 . S
C410 O425 1.256 . S
C411 O426 1.259 . S
C411 O427 1.268 . S
C412 Ho401 2.811 . S
C412 C413 1.488 . S
C412 O428 1.215 . S
C412 O429 1.289 . S
C413 C412 1.488 . S
C413 C414 1.348 . S
C413 C418 1.413 . S
C414 C413 1.348 . S
C414 C415 1.442 . S
C414 H436 0.930 . S
C415 C414 1.442 . S
C415 C416 1.381 . S
C415 H437 0.931 . S
C416 C415 1.381 . S
C416 C417 1.321 . S
C417 C416 1.321 . S
C417 C418 1.403 . S
C417 H438 0.934 . S
C418 C413 1.413 . S
C418 C417 1.403 . S
C418 H439 0.930 . S
C419 O430 1.275 . S
C419 O431 1.256 . S
O420 Ho400 2.322 . S
O420 C402 1.259 . S
O421 Ho401 2.346 1_565 S
O421 C402 1.268 . S
O422 Ho400 2.378 . S
O422 C403 1.215 . S
O423 Ho400 2.524 . S
O423 C403 1.289 . S
O424 Ho400 2.381 . S
O424 C410 1.275 . S
O425 Ho400 2.669 . S
O425 Ho401 2.305 1_565 S
O425 C410 1.256 . S
O426 Ho401 2.322 . S
O426 C411 1.259 . S
O427 Ho400 2.346 1_545 S
O427 C411 1.268 . S
O428 Ho401 2.378 . S
O428 C412 1.215 . S
O429 Ho401 2.524 . S
O429 C412 1.289 . S
O430 Ho401 2.381 . S
O430 C419 1.275 . S
O431 Ho400 2.305 1_545 S
O431 Ho401 2.669 . S
O431 C419 1.256 . S
H432 C405 0.930 . S
H433 C406 0.931 . S
H434 C408 0.934 . S
H435 C409 0.930 . S
H436 C414 0.930 . S
H437 C415 0.931 . S
H438 C417 0.934 . S
H439 C418 0.930 . S
Ho440 C443 2.811 . S
Ho440 O460 2.322 . S
Ho440 O462 2.378 . S
Ho440 O463 2.524 . S
Ho440 O464 2.381 . S
Ho440 O465 2.669 . S
Ho440 O467 2.346 . S
Ho440 O471 2.305 . S
Ho441 C452 2.811 . S
Ho441 O461 2.346 . S
Ho441 O465 2.305 . S
Ho441 O466 2.322 . S
Ho441 O468 2.378 . S
Ho441 O469 2.524 . S
Ho441 O470 2.381 . S
Ho441 O471 2.669 . S
C442 O460 1.259 . S
C442 O461 1.268 . S
C443 Ho440 2.811 . S
C443 C444 1.488 . S
C443 O462 1.215 . S
C443 O463 1.289 . S
C444 C443 1.488 . S
C444 C445 1.348 . S
C444 C449 1.413 . S
C445 C444 1.348 . S
C445 C446 1.442 . S
C445 H472 0.930 . S
C446 C445 1.442 . S
C446 C447 1.381 . S
C446 H473 0.931 . S
C447 C446 1.381 . S
C447 C448 1.321 . S
C448 C447 1.321 . S
C448 C449 1.403 . S
C448 H474 0.934 . S
C449 C444 1.413 . S
C449 C448 1.403 . S
C449 H475 0.930 . S
C450 O464 1.275 . S
C450 O465 1.256 . S
C451 O466 1.259 . S
C451 O467 1.268 . S
C452 Ho441 2.811 . S
C452 C453 1.488 . S
C452 O468 1.215 . S
C452 O469 1.289 . S
C453 C452 1.488 . S
C453 C454 1.348 . S
C453 C458 1.413 . S
C454 C453 1.348 . S
C454 C455 1.442 . S
C454 H476 0.930 . S
C455 C454 1.442 . S
C455 C456 1.381 . S
C455 H477 0.931 . S
C456 C455 1.381 . S
C456 C457 1.321 . S
C457 C456 1.321 . S
C457 C458 1.403 . S
C457 H478 0.934 . S
C458 C453 1.413 . S
C458 C457 1.403 . S
C458 H479 0.930 . S
C459 O470 1.275 . S
C459 O471 1.256 . S
O460 Ho440 2.322 . S
O460 C442 1.259 . S
O461 Ho441 2.346 . S
O461 C442 1.268 . S
O462 Ho440 2.378 . S
O462 C443 1.215 . S
O463 Ho440 2.524 . S
O463 C443 1.289 . S
O464 Ho440 2.381 . S
O464 C450 1.275 . S
O465 Ho440 2.669 . S
O465 Ho441 2.305 . S
O465 C450 1.256 . S
O466 Ho441 2.322 . S
O466 C451 1.259 . S
O467 Ho440 2.346 . S
O467 C451 1.268 . S
O468 Ho441 2.378 . S
O468 C452 1.215 . S
O469 Ho441 2.524 . S
O469 C452 1.289 . S
O470 Ho441 2.381 . S
O470 C459 1.275 . S
O471 Ho440 2.305 . S
O471 Ho441 2.669 . S
O471 C459 1.256 . S
H472 C445 0.930 . S
H473 C446 0.931 . S
H474 C448 0.934 . S
H475 C449 0.930 . S
H476 C454 0.930 . S
H477 C455 0.931 . S
H478 C457 0.934 . S
H479 C458 0.930 . S
C480 C481 1.369 . S
C480 C482 1.419 . S
C480 H484 0.930 . S
C481 C480 1.369 . S
C481 C490 1.429 . S
C482 C480 1.419 . S
C482 C483 1.363 . S
C482 H485 0.929 . S
C483 C482 1.363 . S
C483 C489 1.428 . S
H484 C480 0.930 . S
H485 C482 0.929 . S
S486 N487 1.613 . S
S486 N488 1.610 . S
N487 S486 1.613 . S
N487 C490 1.350 . S
N488 S486 1.610 . S
N488 C489 1.351 . S
C489 C483 1.428 . S
C489 N488 1.351 . S
C489 C490 1.434 . S
C490 C481 1.429 . S
C490 N487 1.350 . S
C490 C489 1.434 . S
C491 C492 1.369 . S
C491 C493 1.419 . S
C491 H495 0.930 . S
C492 C491 1.369 . S
C492 C501 1.429 . S
C493 C491 1.419 . S
C493 C494 1.363 . S
C493 H496 0.929 . S
C494 C493 1.363 . S
C494 C500 1.428 . S
H495 C491 0.930 . S
H496 C493 0.929 . S
S497 N498 1.613 . S
S497 N499 1.610 . S
N498 S497 1.613 . S
N498 C501 1.350 . S
N499 S497 1.610 . S
N499 C500 1.351 . S
C500 C494 1.428 . S
C500 N499 1.351 . S
C500 C501 1.434 . S
C501 C492 1.429 . S
C501 N498 1.350 . S
C501 C500 1.434 . S
C502 C503 1.369 . S
C502 C504 1.419 . S
C502 H506 0.930 . S
C503 C502 1.369 . S
C503 C512 1.429 . S
C504 C502 1.419 . S
C504 C505 1.363 . S
C504 H507 0.929 . S
C505 C504 1.363 . S
C505 C511 1.428 . S
H506 C502 0.930 . S
H507 C504 0.929 . S
S508 N509 1.613 . S
S508 N510 1.610 . S
N509 S508 1.613 . S
N509 C512 1.350 . S
N510 S508 1.610 . S
N510 C511 1.351 . S
C511 C505 1.428 . S
C511 N510 1.351 . S
C511 C512 1.434 . S
C512 C503 1.429 . S
C512 N509 1.350 . S
C512 C511 1.434 . S
C513 C514 1.369 . S
C513 C515 1.419 . S
C513 H517 0.930 . S
C514 C513 1.369 . S
C514 C523 1.429 . S
C515 C513 1.419 . S
C515 C516 1.363 . S
C515 H518 0.929 . S
C516 C515 1.363 . S
C516 C522 1.428 . S
H517 C513 0.930 . S
H518 C515 0.929 . S
S519 N520 1.611 . S
S519 N521 1.610 . S
N520 S519 1.611 . S
N520 C523 1.352 1_565 S
N521 S519 1.610 . S
N521 C522 1.351 1_565 S
C522 C516 1.428 . S
C522 N521 1.351 1_545 S
C522 C523 1.434 . S
C523 C514 1.429 . S
C523 N520 1.352 1_545 S
C523 C522 1.434 . S
C524 C525 1.369 . S
C524 C526 1.419 . S
C524 H528 0.930 . S
C525 C524 1.369 . S
C525 C534 1.429 . S
C526 C524 1.419 . S
C526 C527 1.363 . S
C526 H529 0.929 . S
C527 C526 1.363 . S
C527 C533 1.428 . S
H528 C524 0.930 . S
H529 C526 0.929 . S
S530 N531 1.613 . S
S530 N532 1.610 . S
N531 S530 1.613 . S
N531 C534 1.350 . S
N532 S530 1.610 . S
N532 C533 1.351 . S
C533 C527 1.428 . S
C533 N532 1.351 . S
C533 C534 1.434 . S
C534 C525 1.429 . S
C534 N531 1.350 . S
C534 C533 1.434 . S
C535 C536 1.369 . S
C535 C537 1.419 . S
C535 H539 0.930 . S
C536 C535 1.369 . S
C536 C545 1.429 . S
C537 C535 1.419 . S
C537 C538 1.363 . S
C537 H540 0.929 . S
C538 C537 1.363 . S
C538 C544 1.428 . S
H539 C535 0.930 . S
H540 C537 0.929 . S
S541 N542 1.613 . S
S541 N543 1.610 . S
N542 S541 1.613 . S
N542 C545 1.350 . S
N543 S541 1.610 . S
N543 C544 1.351 . S
C544 C538 1.428 . S
C544 N543 1.351 . S
C544 C545 1.434 . S
C545 C536 1.429 . S
C545 N542 1.350 . S
C545 C544 1.434 . S
C546 C547 1.369 . S
C546 C548 1.419 . S
C546 H550 0.930 . S
C547 C546 1.369 . S
C547 C556 1.429 . S
C548 C546 1.419 . S
C548 C549 1.363 . S
C548 H551 0.929 . S
C549 C548 1.363 . S
C549 C555 1.428 . S
H550 C546 0.930 . S
H551 C548 0.929 . S
S552 N553 1.613 . S
S552 N554 1.610 . S
N553 S552 1.613 . S
N553 C556 1.350 . S
N554 S552 1.610 . S
N554 C555 1.351 . S
C555 C549 1.428 . S
C555 N554 1.351 . S
C555 C556 1.434 . S
C556 C547 1.429 . S
C556 N553 1.350 . S
C556 C555 1.434 . S
C557 C558 1.369 . S
C557 C559 1.419 . S
C557 H561 0.930 . S
C558 C557 1.369 . S
C558 C567 1.429 . S
C559 C557 1.419 . S
C559 C560 1.363 . S
C559 H562 0.929 . S
C560 C559 1.363 . S
C560 C566 1.428 . S
H561 C557 0.930 . S
H562 C559 0.929 . S
S563 N564 1.613 . S
S563 N565 1.610 . S
N564 S563 1.613 . S
N564 C567 1.350 . S
N565 S563 1.610 . S
N565 C566 1.351 . S
C566 C560 1.428 . S
C566 N565 1.351 . S
C566 C567 1.434 . S
C567 C558 1.429 . S
C567 N564 1.350 . S
C567 C566 1.434 . S
C568 C569 1.369 . S
C568 C570 1.419 . S
C568 H572 0.930 . S
C569 C568 1.369 . S
C569 C578 1.429 . S
C570 C568 1.419 . S
C570 C571 1.363 . S
C570 H573 0.929 . S
C571 C570 1.363 . S
C571 C577 1.428 . S
H572 C568 0.930 . S
H573 C570 0.929 . S
S574 N575 1.613 . S
S574 N576 1.610 . S
N575 S574 1.613 . S
N575 C578 1.350 . S
N576 S574 1.610 . S
N576 C577 1.351 . S
C577 C571 1.428 . S
C577 N576 1.351 . S
C577 C578 1.434 . S
C578 C569 1.429 . S
C578 N575 1.350 . S
C578 C577 1.434 . S
C579 C580 1.369 . S
C579 C581 1.419 . S
C579 H583 0.930 . S
C580 C579 1.369 . S
C580 C589 1.429 . S
C581 C579 1.419 . S
C581 C582 1.363 . S
C581 H584 0.929 . S
C582 C581 1.363 . S
C582 C588 1.428 . S
H583 C579 0.930 . S
H584 C581 0.929 . S
S585 N586 1.613 . S
S585 N587 1.610 . S
N586 S585 1.613 . S
N586 C589 1.350 . S
N587 S585 1.610 . S
N587 C588 1.351 . S
C588 C582 1.428 . S
C588 N587 1.351 . S
C588 C589 1.434 . S
C589 C580 1.429 . S
C589 N586 1.350 . S
C589 C588 1.434 . S
C590 C591 1.369 . S
C590 C592 1.419 . S
C590 H594 0.930 . S
C591 C590 1.369 . S
C591 C600 1.429 . S
C592 C590 1.419 . S
C592 C593 1.363 . S
C592 H595 0.929 . S
C593 C592 1.363 . S
C593 C599 1.428 . S
H594 C590 0.930 . S
H595 C592 0.929 . S
S596 N597 1.613 . S
S596 N598 1.610 1_455 S
N597 S596 1.613 . S
N597 C600 1.350 1_455 S
N598 S596 1.610 1_655 S
N598 C599 1.351 . S
C599 C593 1.428 . S
C599 N598 1.351 . S
C599 C600 1.434 . S
C600 C591 1.429 . S
C600 N597 1.350 1_655 S
C600 C599 1.434 . S
C601 C602 1.369 . S
C601 C603 1.419 . S
C601 H605 0.930 . S
C602 C601 1.369 . S
C602 C611 1.429 . S
C603 C601 1.419 . S
C603 C604 1.363 . S
C603 H606 0.929 . S
C604 C603 1.363 . S
C604 C610 1.428 . S
H605 C601 0.930 . S
H606 C603 0.929 . S
S607 N608 1.613 . S
S607 N609 1.610 . S
N608 S607 1.613 . S
N608 C611 1.350 . S
N609 S607 1.610 . S
N609 C610 1.351 . S
C610 C604 1.428 . S
C610 N609 1.351 . S
C610 C611 1.434 . S
C611 C602 1.429 . S
C611 N608 1.350 . S
C611 C610 1.434 . S
C612 C613 1.369 . S
C612 C614 1.419 . S
C612 H616 0.930 . S
C613 C612 1.369 . S
C613 C622 1.429 . S
C614 C612 1.419 . S
C614 C615 1.363 . S
C614 H617 0.929 . S
C615 C614 1.363 . S
C615 C621 1.428 . S
H616 C612 0.930 . S
H617 C614 0.929 . S
S618 N619 1.613 . S
S618 N620 1.610 . S
N619 S618 1.613 . S
N619 C622 1.350 . S
N620 S618 1.610 . S
N620 C621 1.351 . S
C621 C615 1.428 . S
C621 N620 1.351 . S
C621 C622 1.434 . S
C622 C613 1.429 . S
C622 N619 1.350 . S
C622 C621 1.434 . S
C623 C624 1.369 . S
C623 C625 1.419 . S
C623 H627 0.930 . S
C624 C623 1.369 . S
C624 C633 1.429 . S
C625 C623 1.419 . S
C625 C626 1.363 . S
C625 H628 0.929 . S
C626 C625 1.363 . S
C626 C632 1.428 . S
H627 C623 0.930 . S
H628 C625 0.929 . S
S629 N630 1.613 1_545 S
S629 N631 1.610 . S
N630 S629 1.613 1_565 S
N630 C633 1.350 . S
N631 S629 1.610 . S
N631 C632 1.351 1_545 S
C632 C626 1.428 . S
C632 N631 1.351 1_565 S
C632 C633 1.434 . S
C633 C624 1.429 . S
C633 N630 1.350 . S
C633 C632 1.434 . S
C634 C635 1.369 . S
C634 C636 1.419 . S
C634 H638 0.930 . S
C635 C634 1.369 . S
C635 C644 1.429 . S
C636 C634 1.419 . S
C636 C637 1.363 . S
C636 H639 0.929 . S
C637 C636 1.363 . S
C637 C643 1.428 . S
H638 C634 0.930 . S
H639 C636 0.929 . S
S640 N641 1.613 . S
S640 N642 1.610 . S
N641 S640 1.613 . S
N641 C644 1.350 . S
N642 S640 1.610 . S
N642 C643 1.351 . S
C643 C637 1.428 . S
C643 N642 1.351 . S
C643 C644 1.434 . S
C644 C635 1.429 . S
C644 N641 1.350 . S
C644 C643 1.434 . S
C645 C646 1.369 . S
C645 C647 1.419 1_554 S
C645 H649 0.930 . S
C646 C645 1.369 . S
C646 C655 1.429 . S
C647 C645 1.419 1_556 S
C647 C648 1.363 . S
C647 H650 0.929 . S
C648 C647 1.363 . S
C648 C654 1.428 . S
H649 C645 0.930 . S
H650 C647 0.929 . S
S651 N652 1.613 1_565 S
S651 N653 1.610 1_554 S
N652 S651 1.613 1_545 S
N652 C655 1.350 . S
N653 S651 1.610 1_556 S
N653 C654 1.351 1_565 S
C654 C648 1.428 . S
C654 N653 1.351 1_545 S
C654 C655 1.434 1_556 S
C655 C646 1.429 . S
C655 N652 1.350 . S
C655 C654 1.434 1_554 S
C656 C657 1.369 . S
C656 C658 1.419 . S
C656 H660 0.930 . S
C657 C656 1.369 . S
C657 C666 1.429 . S
C658 C656 1.419 . S
C658 C659 1.363 . S
C658 H661 0.929 . S
C659 C658 1.363 . S
C659 C665 1.428 . S
H660 C656 0.930 . S
H661 C658 0.929 . S
S662 N663 1.613 . S
S662 N664 1.610 . S
N663 S662 1.613 . S
N663 C666 1.350 . S
N664 S662 1.610 . S
N664 C665 1.351 . S
C665 C659 1.428 . S
C665 N664 1.351 . S
C665 C666 1.434 . S
C666 C657 1.429 . S
C666 N663 1.350 . S
C666 C665 1.434 . S
C667 C668 1.369 1_556 S
C667 C669 1.419 . S
C667 H671 0.930 . S
C668 C667 1.369 1_554 S
C668 C677 1.429 1_554 S
C669 C667 1.419 . S
C669 C670 1.363 . S
C669 H672 0.929 . S
C670 C669 1.363 . S
C670 C676 1.428 . S
H671 C667 0.930 . S
H672 C669 0.929 . S
S673 N674 1.613 1_556 S
S673 N675 1.610 . S
N674 S673 1.613 1_554 S
N674 C677 1.350 1_554 S
N675 S673 1.610 . S
N675 C676 1.351 . S
C676 C670 1.428 . S
C676 N675 1.351 . S
C676 C677 1.434 . S
C677 C668 1.429 1_556 S
C677 N674 1.350 1_556 S
C677 C676 1.434 . S
C678 C679 1.369 . S
C678 C680 1.419 . S
C678 H682 0.930 . S
C679 C678 1.369 . S
C679 C688 1.429 . S
C680 C678 1.419 . S
C680 C681 1.363 . S
C680 H683 0.929 . S
C681 C680 1.363 . S
C681 C687 1.428 . S
H682 C678 0.930 . S
H683 C680 0.929 . S
S684 N685 1.613 . S
S684 N686 1.610 . S
N685 S684 1.613 . S
N685 C688 1.350 . S
N686 S684 1.610 . S
N686 C687 1.351 . S
C687 C681 1.428 . S
C687 N686 1.351 . S
C687 C688 1.434 . S
C688 C679 1.429 . S
C688 N685 1.350 . S
C688 C687 1.434 . S
C689 C690 1.369 . S
C689 C691 1.419 . S
C689 H693 0.930 . S
C690 C689 1.369 . S
C690 C699 1.429 . S
C691 C689 1.419 . S
C691 C692 1.363 . S
C691 H694 0.929 . S
C692 C691 1.363 . S
C692 C698 1.428 . S
H693 C689 0.930 . S
H694 C691 0.929 . S
S695 N696 1.613 . S
S695 N697 1.610 . S
N696 S695 1.613 . S
N696 C699 1.350 . S
N697 S695 1.610 . S
N697 C698 1.351 . S
C698 C692 1.428 . S
C698 N697 1.351 . S
C698 C699 1.434 . S
C699 C690 1.429 . S
C699 N696 1.350 . S
C699 C698 1.434 . S
C700 C701 1.369 . S
C700 C702 1.419 . S
C700 H704 0.930 . S
C701 C700 1.369 . S
C701 C710 1.429 . S
C702 C700 1.419 . S
C702 C703 1.363 . S
C702 H705 0.929 . S
C703 C702 1.363 . S
C703 C709 1.428 . S
H704 C700 0.930 . S
H705 C702 0.929 . S
S706 N707 1.613 . S
S706 N708 1.610 . S
N707 S706 1.613 . S
N707 C710 1.350 . S
N708 S706 1.610 . S
N708 C709 1.351 . S
C709 C703 1.428 . S
C709 N708 1.351 . S
C709 C710 1.434 . S
C710 C701 1.429 . S
C710 N707 1.350 . S
C710 C709 1.434 . S
C711 C712 1.369 . S
C711 C713 1.419 . S
C711 H715 0.930 . S
C712 C711 1.369 . S
C712 C721 1.429 . S
C713 C711 1.419 . S
C713 C714 1.363 1_545 S
C713 H716 0.929 1_455 S
C714 C713 1.363 1_565 S
C714 C720 1.420 1_565 S
H715 C711 0.930 . S
H716 C713 0.929 1_655 S
S717 N718 1.613 . S
S717 N719 1.610 1_545 S
N718 S717 1.613 . S
N718 C721 1.350 . S
N719 S717 1.610 1_565 S
N719 C720 1.335 1_565 S
C720 C714 1.420 1_545 S
C720 N719 1.335 1_545 S
C720 C721 1.461 . S
C721 C712 1.429 . S
C721 N718 1.350 . S
C721 C720 1.461 . S
C722 C723 1.369 . S
C722 C724 1.419 . S
C722 H726 0.930 . S
C723 C722 1.369 . S
C723 C732 1.429 . S
C724 C722 1.419 . S
C724 C725 1.363 . S
C724 H727 0.929 . S
C725 C724 1.363 . S
C725 C731 1.428 . S
H726 C722 0.930 . S
H727 C724 0.929 . S
S728 N729 1.613 . S
S728 N730 1.610 . S
N729 S728 1.613 . S
N729 C732 1.350 . S
N730 S728 1.610 . S
N730 C731 1.351 . S
C731 C725 1.428 . S
C731 N730 1.351 . S
C731 C732 1.434 . S
C732 C723 1.429 . S
C732 N729 1.350 . S
C732 C731 1.434 . S
C733 C734 1.369 . S
C733 C735 1.419 1_545 S
C733 H737 0.930 . S
C734 C733 1.369 . S
C734 C743 1.429 . S
C735 C733 1.419 1_565 S
C735 C736 1.363 . S
C735 H738 0.929 . S
C736 C735 1.363 . S
C736 C742 1.428 . S
H737 C733 0.930 . S
H738 C735 0.929 . S
S739 N740 1.613 1_565 S
S739 N741 1.610 . S
N740 S739 1.613 1_545 S
N740 C743 1.350 . S
N741 S739 1.610 . S
N741 C742 1.351 . S
C742 C736 1.428 . S
C742 N741 1.351 . S
C742 C743 1.434 1_565 S
C743 C734 1.429 . S
C743 N740 1.350 . S
C743 C742 1.434 1_545 S
C744 C745 1.369 . S
C744 C746 1.419 . S
C744 H748 0.930 . S
C745 C744 1.369 . S
C745 C754 1.429 . S
C746 C744 1.419 . S
C746 C747 1.363 . S
C746 H749 0.929 . S
C747 C746 1.363 . S
C747 C753 1.428 . S
H748 C744 0.930 . S
H749 C746 0.929 . S
S750 N751 1.613 . S
S750 N752 1.610 . S
N751 S750 1.613 . S
N751 C754 1.350 . S
N752 S750 1.610 . S
N752 C753 1.351 . S
C753 C747 1.428 . S
C753 N752 1.351 . S
C753 C754 1.434 . S
C754 C745 1.429 . S
C754 N751 1.350 . S
C754 C753 1.434 . S
C755 C756 1.369 . S
C755 C757 1.419 . S
C755 H759 0.930 1_655 S
C756 C755 1.369 . S
C756 C765 1.429 . S
C757 C755 1.419 . S
C757 C758 1.363 . S
C757 H760 0.929 . S
C758 C757 1.363 . S
C758 C764 1.428 . S
H759 C755 0.930 1_455 S
H760 C757 0.929 . S
S761 N762 1.613 . S
S761 N763 1.610 . S
N762 S761 1.613 . S
N762 C765 1.350 . S
N763 S761 1.610 . S
N763 C764 1.351 . S
C764 C758 1.428 . S
C764 N763 1.351 . S
C764 C765 1.434 . S
C765 C756 1.429 . S
C765 N762 1.350 . S
C765 C764 1.434 . S
C766 C767 1.369 . S
C766 C768 1.419 . S
C766 H770 0.930 . S
C767 C766 1.369 . S
C767 C776 1.429 . S
C768 C766 1.419 . S
C768 C769 1.363 . S
C768 H771 0.929 . S
C769 C768 1.363 . S
C769 C775 1.428 . S
H770 C766 0.930 . S
H771 C768 0.929 . S
S772 N773 1.613 . S
S772 N774 1.610 . S
N773 S772 1.613 . S
N773 C776 1.350 . S
N774 S772 1.610 . S
N774 C775 1.351 . S
C775 C769 1.428 . S
C775 N774 1.351 . S
C775 C776 1.434 . S
C776 C767 1.429 . S
C776 N773 1.350 . S
C776 C775 1.434 . S
C777 C778 1.369 . S
C777 C779 1.419 . S
C777 H781 0.930 . S
C778 C777 1.369 . S
C778 C787 1.429 . S
C779 C777 1.419 . S
C779 C780 1.363 . S
C779 H782 0.929 . S
C780 C779 1.363 . S
C780 C786 1.428 . S
H781 C777 0.930 . S
H782 C779 0.929 . S
S783 N784 1.613 . S
S783 N785 1.610 . S
N784 S783 1.613 . S
N784 C787 1.350 . S
N785 S783 1.610 . S
N785 C786 1.351 . S
C786 C780 1.428 . S
C786 N785 1.351 . S
C786 C787 1.434 . S
C787 C778 1.429 . S
C787 N784 1.350 . S
C787 C786 1.434 . S
C788 C789 1.369 . S
C788 C790 1.419 . S
C788 H792 0.930 . S
C789 C788 1.369 . S
C789 C798 1.429 . S
C790 C788 1.419 . S
C790 C791 1.363 . S
C790 H793 0.929 . S
C791 C790 1.363 . S
C791 C797 1.428 . S
H792 C788 0.930 . S
H793 C790 0.929 . S
S794 N795 1.613 . S
S794 N796 1.610 . S
N795 S794 1.613 . S
N795 C798 1.350 . S
N796 S794 1.610 . S
N796 C797 1.351 . S
C797 C791 1.428 . S
C797 N796 1.351 . S
C797 C798 1.434 . S
C798 C789 1.429 . S
C798 N795 1.350 . S
C798 C797 1.434 . S
C799 C800 1.369 . S
C799 C801 1.419 . S
C799 H803 0.930 . S
C800 C799 1.369 . S
C800 C809 1.429 . S
C801 C799 1.419 . S
C801 C802 1.363 . S
C801 H804 0.929 . S
C802 C801 1.363 . S
C802 C808 1.428 . S
H803 C799 0.930 . S
H804 C801 0.929 . S
S805 N806 1.613 . S
S805 N807 1.610 . S
N806 S805 1.613 . S
N806 C809 1.350 . S
N807 S805 1.610 . S
N807 C808 1.351 . S
C808 C802 1.428 . S
C808 N807 1.351 . S
C808 C809 1.434 . S
C809 C800 1.429 . S
C809 N806 1.350 . S
C809 C808 1.434 . S
C810 C811 1.369 . S
C810 C812 1.419 1_455 S
C810 H814 0.930 1_554 S
C811 C810 1.369 . S
C811 C820 1.429 . S
C812 C810 1.419 1_655 S
C812 C813 1.363 . S
C812 H815 0.929 1_554 S
C813 C812 1.363 . S
C813 C819 1.428 . S
H814 C810 0.930 1_556 S
H815 C812 0.929 1_556 S
S816 N817 1.613 1_655 S
S816 N818 1.610 . S
N817 S816 1.613 1_455 S
N817 C820 1.350 . S
N818 S816 1.610 . S
N818 C819 1.351 . S
C819 C813 1.428 . S
C819 N818 1.351 . S
C819 C820 1.434 1_655 S
C820 C811 1.429 . S
C820 N817 1.350 . S
C820 C819 1.434 1_455 S
C821 C822 1.369 . S
C821 C823 1.419 . S
C821 H825 0.930 . S
C822 C821 1.369 . S
C822 C831 1.429 . S
C823 C821 1.419 . S
C823 C824 1.363 . S
C823 H826 0.929 . S
C824 C823 1.363 . S
C824 C830 1.428 . S
H825 C821 0.930 . S
H826 C823 0.929 . S
S827 N828 1.613 . S
S827 N829 1.610 . S
N828 S827 1.613 . S
N828 C831 1.350 . S
N829 S827 1.610 . S
N829 C830 1.351 . S
C830 C824 1.428 . S
C830 N829 1.351 . S
C830 C831 1.434 . S
C831 C822 1.429 . S
C831 N828 1.350 . S
C831 C830 1.434 . S
C832 C833 1.369 . S
C832 C834 1.419 . S
C832 H836 0.930 . S
C833 C832 1.369 . S
C833 C842 1.429 . S
C834 C832 1.419 . S
C834 C835 1.363 . S
C834 H837 0.929 . S
C835 C834 1.363 . S
C835 C841 1.428 . S
H836 C832 0.930 . S
H837 C834 0.929 . S
S838 N839 1.613 . S
S838 N840 1.610 . S
N839 S838 1.613 . S
N839 C842 1.350 . S
N840 S838 1.610 . S
N840 C841 1.351 . S
C841 C835 1.428 . S
C841 N840 1.351 . S
C841 C842 1.434 . S
C842 C833 1.429 . S
C842 N839 1.350 . S
C842 C841 1.434 . S
C843 C844 1.369 . S
C843 C845 1.419 . S
C843 H847 0.930 . S
C844 C843 1.369 . S
C844 C853 1.429 . S
C845 C843 1.419 . S
C845 C846 1.363 . S
C845 H848 0.929 . S
C846 C845 1.363 . S
C846 C852 1.428 . S
H847 C843 0.930 . S
H848 C845 0.929 . S
S849 N850 1.613 1_655 S
S849 N851 1.610 1_655 S
N850 S849 1.613 1_455 S
N850 C853 1.350 . S
N851 S849 1.610 1_455 S
N851 C852 1.351 . S
C852 C846 1.428 . S
C852 N851 1.351 . S
C852 C853 1.434 . S
C853 C844 1.429 . S
C853 N850 1.350 . S
C853 C852 1.434 . S
C854 C855 1.369 . S
C854 C856 1.419 . S
C854 H858 0.930 . S
C855 C854 1.369 . S
C855 C864 1.429 . S
C856 C854 1.419 . S
C856 C857 1.363 . S
C856 H859 0.929 . S
C857 C856 1.363 . S
C857 C863 1.428 . S
H858 C854 0.930 . S
H859 C856 0.929 . S
S860 N861 1.613 . S
S860 N862 1.610 . S
N861 S860 1.613 . S
N861 C864 1.350 1_554 S
N862 S860 1.610 . S
N862 C863 1.351 1_554 S
C863 C857 1.428 . S
C863 N862 1.351 1_556 S
C863 C864 1.434 . S
C864 C855 1.429 . S
C864 N861 1.350 1_556 S
C864 C863 1.434 . S
C865 C866 1.369 . S
C865 C867 1.419 . S
C865 H869 0.930 . S
C866 C865 1.369 . S
C866 C875 1.429 . S
C867 C865 1.419 . S
C867 C868 1.363 1_655 S
C867 H870 0.929 . S
C868 C867 1.363 1_455 S
C868 C874 1.428 . S
H869 C865 0.930 . S
H870 C867 0.929 . S
S871 N872 1.613 . S
S871 N873 1.610 1_655 S
N872 S871 1.613 . S
N872 C875 1.350 . S
N873 S871 1.610 1_455 S
N873 C874 1.351 . S
C874 C868 1.428 . S
C874 N873 1.351 . S
C874 C875 1.434 1_455 S
C875 C866 1.429 . S
C875 N872 1.350 . S
C875 C874 1.434 1_655 S
C481 C19 1.318 . S
C483 C459 1.313 . S
C492 C371 1.833 . S
C494 C59 1.967 . S
C503 C91 1.453 . S
C505 C339 1.547 . S
C514 C139 2.228 . S
C516 C419 2.209 . S
C525 C179 1.846 . S
C527 C411 1.762 . S
C536 C211 1.534 . S
C538 C451 1.578 . S
C547 C379 2.098 . S
C549 C259 2.100 . S
C558 C291 1.693 . S
C560 C331 1.774 . S
C569 C131 1.755 . S
C571 C171 1.808 . S
C580 C11 1.722 . S
C582 C219 1.844 . S
C591 C51 1.660 . S
C593 C251 1.676 . S
C602 C299 2.032 . S
C604 C99 2.032 . S
C613 C7 1.710 . S
C615 C330 1.576 . S
C624 C47 1.782 . S
C626 C410 1.686 . S
C635 C450 2.168 . S
C637 C96 2.188 . S
C646 C127 1.547 . S
C648 C362 1.513 . S
C657 C167 1.309 . S
C659 C370 1.247 . S
C668 C322 2.234 . S
C670 C216 2.096 . S
C679 C402 1.380 . S
C681 C247 1.387 . S
C690 C442 2.718 . S
C692 C296 2.586 . S
C701 C2 2.821 . S
C703 C136 2.677 . S
C712 C16 2.137 . S
C714 C42 2.249 . S
C723 C56 2.418 . S
C725 C90 2.402 . S
C734 C122 1.681 . S
C736 C87 1.729 . S
C745 C207 1.530 . S
C747 C162 1.499 . S
C756 C210 1.568 . S
C758 C256 1.618 . S
C767 C242 1.547 . S
C769 C287 1.575 . S
C778 C176 1.211 . S
C780 C290 1.197 . S
C789 C336 1.227 . S
C791 C130 1.187 . S
C800 C202 1.857 . S
C802 C376 1.780 . S
C811 C327 1.481 . S
C813 C250 1.402 . S
C822 C407 1.719 . S
C824 C282 1.692 . S
C833 C170 1.384 . S
C835 C447 1.470 . S
C844 C456 1.911 . S
C846 C50 1.865 . S
C855 C82 1.588 . S
C857 C367 1.614 . S
C866 C416 1.962 . S
C868 C10 1.954 . S
