# Generated by pormake.
# Topology sne, (6)-cn, num edge types: 1
# Building blocks:
#     Node 0, Type 0, BuildingBlock: IZENUY_clean_sbu_0, # of connection points: 6
#     Node 1, Type 0, BuildingBlock: IZENUY_clean_sbu_0, # of connection points: 6
#     Node 2, Type 0, BuildingBlock: IZENUY_clean_sbu_0, # of connection points: 6
#     Node 3, Type 0, BuildingBlock: IZENUY_clean_sbu_0, # of connection points: 6
#     Node 4, Type 0, BuildingBlock: IZENUY_clean_sbu_0, # of connection points: 6
#     Node 5, Type 0, BuildingBlock: IZENUY_clean_sbu_0, # of connection points: 6
#     Node 6, Type 0, BuildingBlock: IZENUY_clean_sbu_0, # of connection points: 6
#     Node 7, Type 0, BuildingBlock: IZENUY_clean_sbu_0, # of connection points: 6
#     Edge 8, Type (0, 0), BuildingBlock: EYOCIG_clean_linker_4, # of connection points: 2
#     Edge 9, Type (0, 0), BuildingBlock: EYOCIG_clean_linker_4, # of connection points: 2
#     Edge 10, Type (0, 0), BuildingBlock: EYOCIG_clean_linker_4, # of connection points: 2
#     Edge 11, Type (0, 0), BuildingBlock: EYOCIG_clean_linker_4, # of connection points: 2
#     Edge 12, Type (0, 0), BuildingBlock: EYOCIG_clean_linker_4, # of connection points: 2
#     Edge 13, Type (0, 0), BuildingBlock: EYOCIG_clean_linker_4, # of connection points: 2
#     Edge 14, Type (0, 0), BuildingBlock: EYOCIG_clean_linker_4, # of connection points: 2
#     Edge 15, Type (0, 0), BuildingBlock: EYOCIG_clean_linker_4, # of connection points: 2
#     Edge 16, Type (0, 0), BuildingBlock: EYOCIG_clean_linker_4, # of connection points: 2
#     Edge 17, Type (0, 0), BuildingBlock: EYOCIG_clean_linker_4, # of connection points: 2
#     Edge 18, Type (0, 0), BuildingBlock: EYOCIG_clean_linker_4, # of connection points: 2
#     Edge 19, Type (0, 0), BuildingBlock: EYOCIG_clean_linker_4, # of connection points: 2
#     Edge 20, Type (0, 0), BuildingBlock: EYOCIG_clean_linker_4, # of connection points: 2
#     Edge 21, Type (0, 0), BuildingBlock: EYOCIG_clean_linker_4, # of connection points: 2
#     Edge 22, Type (0, 0), BuildingBlock: EYOCIG_clean_linker_4, # of connection points: 2
#     Edge 23, Type (0, 0), BuildingBlock: EYOCIG_clean_linker_4, # of connection points: 2
#     Edge 24, Type (0, 0), BuildingBlock: EYOCIG_clean_linker_4, # of connection points: 2
#     Edge 25, Type (0, 0), BuildingBlock: EYOCIG_clean_linker_4, # of connection points: 2
#     Edge 26, Type (0, 0), BuildingBlock: EYOCIG_clean_linker_4, # of connection points: 2
#     Edge 27, Type (0, 0), BuildingBlock: EYOCIG_clean_linker_4, # of connection points: 2
#     Edge 28, Type (0, 0), BuildingBlock: EYOCIG_clean_linker_4, # of connection points: 2
#     Edge 29, Type (0, 0), BuildingBlock: EYOCIG_clean_linker_4, # of connection points: 2
#     Edge 30, Type (0, 0), BuildingBlock: EYOCIG_clean_linker_4, # of connection points: 2
#     Edge 31, Type (0, 0), BuildingBlock: EYOCIG_clean_linker_4, # of connection points: 2
# Relax obj value: 0.265
# Max RMSD: 0.254
# Mean RMSD: 0.252
data_MOF--net-sne--node1-IZENUY_clean_sbu_0--edge1-EYOCIG_clean_linker_4
_symmetry_space_group_name_H-M    P1
_symmetry_Int_Tables_number       1
_symmetry_cell_setting            triclinic
loop_
_symmetry_equiv_pos_as_xyz
'x, y, z'
_cell_length_a     28.121832
_cell_length_b     28.111349
_cell_length_c     20.870998
_cell_angle_alpha  90.059533
_cell_angle_beta   89.993851
_cell_angle_gamma 89.988695
loop_
_atom_site_label
_atom_site_type_symbol
_atom_site_fract_x
_atom_site_fract_y
_atom_site_fract_z
_atom_type_partial_charge
Fe0 Fe 0.2583 0.20799 0.36984 0.0
Fe1 Fe 0.21265 0.11259 0.3319 0.0
O2 O 0.25876 0.14495 0.3706 0.0
Fe3 Fe 0.30528 0.11373 0.40996 0.0
O4 O 0.31583 0.15933 0.47256 0.0
O5 O 0.25932 0.21172 0.45587 0.0
O6 O 0.19292 0.21258 0.37646 0.0
C7 C 0.16214 0.18185 0.39277 0.0
C8 C 0.35499 0.1831 0.34807 0.0
O9 O 0.16835 0.13809 0.3837 0.0
C10 C 0.28802 0.05866 0.29777 0.0
O11 O 0.25726 0.21026 0.28372 0.0
O12 O 0.201 0.1574 0.26882 0.0
O13 O 0.34942 0.13941 0.35815 0.0
O14 O 0.32359 0.21356 0.36316 0.0
C15 C 0.23085 0.05872 0.44456 0.0
O16 O 0.25464 0.08466 0.27806 0.0
O17 O 0.30397 0.06255 0.35438 0.0
C18 C 0.22577 0.19204 0.24918 0.0
O19 O 0.21493 0.06185 0.38791 0.0
O20 O 0.26366 0.08553 0.46402 0.0
C21 C 0.29068 0.19409 0.49116 0.0
Fe22 Fe 0.20574 0.76071 0.6203 0.0
Fe23 Fe 0.11132 0.80745 0.65973 0.0
O24 O 0.14279 0.76087 0.62094 0.0
Fe25 Fe 0.1108 0.71435 0.58271 0.0
O26 O 0.13621 0.67072 0.63535 0.0
O27 O 0.21057 0.6953 0.62704 0.0
O28 O 0.2092 0.76186 0.70637 0.0
C29 C 0.19139 0.79331 0.74147 0.0
C30 C 0.19019 0.72764 0.49992 0.0
O31 O 0.15682 0.81854 0.72237 0.0
C32 C 0.0568 0.78916 0.54738 0.0
O33 O 0.21101 0.82607 0.6136 0.0
O34 O 0.13678 0.85131 0.60742 0.0
O35 O 0.15597 0.70244 0.52 0.0
O36 O 0.20801 0.75958 0.53416 0.0
C37 C 0.05672 0.73302 0.69508 0.0
O38 O 0.06029 0.80543 0.60392 0.0
O39 O 0.08301 0.75577 0.52817 0.0
C40 C 0.18045 0.85714 0.59775 0.0
O41 O 0.08337 0.76605 0.71421 0.0
O42 O 0.05985 0.71689 0.63849 0.0
C43 C 0.17995 0.6647 0.64434 0.0
Fe44 Fe 0.75881 0.81411 0.37284 0.0
Fe45 Fe 0.71261 0.90939 0.41024 0.0
O46 O 0.7589 0.87716 0.37166 0.0
Fe47 Fe 0.80515 0.9086 0.33201 0.0
O48 O 0.8159 0.86302 0.26951 0.0
O49 O 0.76011 0.80998 0.28685 0.0
O50 O 0.69348 0.80926 0.36589 0.0
C51 C 0.66267 0.83986 0.34923 0.0
C52 C 0.85538 0.83968 0.39416 0.0
O53 O 0.66857 0.88365 0.35835 0.0
C54 C 0.78778 0.96353 0.44426 0.0
O55 O 0.75755 0.81209 0.45903 0.0
O56 O 0.70096 0.86465 0.4734 0.0
O57 O 0.84957 0.88328 0.38362 0.0
O58 O 0.82408 0.80895 0.37981 0.0
C59 C 0.73044 0.96324 0.29752 0.0
O60 O 0.75445 0.9375 0.46404 0.0
O61 O 0.80363 0.95978 0.38757 0.0
C62 C 0.72584 0.83019 0.49335 0.0
O63 O 0.7147 0.96014 0.35424 0.0
O64 O 0.76326 0.93647 0.278 0.0
C65 C 0.79122 0.82783 0.25135 0.0
Fe66 Fe 0.90681 0.30739 0.5829 0.0
Fe67 Fe 0.90735 0.21464 0.66037 0.0
O68 O 0.87533 0.26094 0.62184 0.0
Fe69 Fe 0.81237 0.26075 0.62224 0.0
O70 O 0.80908 0.26176 0.53613 0.0
O71 O 0.86124 0.31859 0.52046 0.0
O72 O 0.93462 0.26577 0.52844 0.0
C73 C 0.96131 0.23282 0.54769 0.0
C74 C 0.83774 0.35721 0.6448 0.0
O75 O 0.95824 0.21692 0.60439 0.0
C76 C 0.8276 0.228 0.74288 0.0
O77 O 0.95799 0.30544 0.63843 0.0
O78 O 0.93515 0.25638 0.7146 0.0
O79 O 0.80717 0.32613 0.62893 0.0
O80 O 0.88143 0.35135 0.63525 0.0
C81 C 0.83831 0.16461 0.59885 0.0
O82 O 0.86217 0.20302 0.72321 0.0
O83 O 0.80978 0.25975 0.7084 0.0
C84 C 0.96155 0.28946 0.69504 0.0
O85 O 0.882 0.17067 0.60811 0.0
O86 O 0.80759 0.19533 0.61554 0.0
C87 C 0.82664 0.29345 0.50129 0.0
Fe88 Fe 0.30503 0.40938 0.8329 0.0
Fe89 Fe 0.25919 0.31424 0.87209 0.0
O90 O 0.25896 0.37731 0.87207 0.0
Fe91 Fe 0.21253 0.40895 0.91132 0.0
O92 O 0.2143 0.46026 0.85625 0.0
O93 O 0.26293 0.43757 0.77955 0.0
O94 O 0.31593 0.36457 0.76945 0.0
C95 C 0.2914 0.32944 0.75071 0.0
C96 C 0.28755 0.46306 0.94622 0.0
O97 O 0.2606 0.31093 0.78606 0.0
C98 C 0.22602 0.32889 0.99281 0.0
O99 O 0.34965 0.38378 0.88393 0.0
O100 O 0.32447 0.30937 0.87922 0.0
O101 O 0.2543 0.43674 0.96556 0.0
O102 O 0.30333 0.45996 0.88943 0.0
C103 C 0.16286 0.33978 0.84901 0.0
O104 O 0.25781 0.31128 0.95819 0.0
O105 O 0.20111 0.36356 0.97365 0.0
C106 C 0.3556 0.34015 0.89406 0.0
O107 O 0.1939 0.30914 0.86484 0.0
O108 O 0.16853 0.38349 0.8591 0.0
C109 C 0.22997 0.46395 0.79957 0.0
Fe110 Fe 0.31249 0.76035 0.12267 0.0
Fe111 Fe 0.40692 0.80661 0.08281 0.0
O112 O 0.3754 0.76049 0.12231 0.0
Fe113 Fe 0.40735 0.7145 0.16155 0.0
O114 O 0.38218 0.67019 0.10968 0.0
O115 O 0.30774 0.69484 0.11694 0.0
O116 O 0.30922 0.76059 0.03658 0.0
C117 C 0.32676 0.79201 0.00131 0.0
C118 C 0.32747 0.72837 0.24351 0.0
O119 O 0.36134 0.81732 0.02015 0.0
C120 C 0.46138 0.78957 0.19545 0.0
O121 O 0.30731 0.82582 0.12846 0.0
O122 O 0.38161 0.85094 0.13455 0.0
O123 O 0.36198 0.7032 0.22419 0.0
O124 O 0.30993 0.76011 0.20879 0.0
C125 C 0.46159 0.73196 0.04898 0.0
O126 O 0.45802 0.80505 0.13854 0.0
O127 O 0.43489 0.75668 0.21538 0.0
C128 C 0.33795 0.85687 0.14425 0.0
O129 O 0.43472 0.76453 0.02904 0.0
O130 O 0.45841 0.71651 0.10589 0.0
C131 C 0.33847 0.664 0.10063 0.0
Fe132 Fe 0.80519 0.61288 0.90933 0.0
Fe133 Fe 0.7593 0.70813 0.87156 0.0
O134 O 0.75896 0.64513 0.87097 0.0
Fe135 Fe 0.71227 0.61385 0.83205 0.0
O136 O 0.71424 0.56234 0.88687 0.0
O137 O 0.76341 0.58472 0.96313 0.0
O138 O 0.81658 0.65762 0.97279 0.0
C139 C 0.79176 0.69233 0.99236 0.0
C140 C 0.78673 0.55947 0.79606 0.0
O141 O 0.76051 0.71073 0.95762 0.0
C142 C 0.72602 0.69415 0.75093 0.0
O143 O 0.84942 0.63852 0.85772 0.0
O144 O 0.82464 0.71293 0.8648 0.0
O145 O 0.75361 0.58612 0.77713 0.0
O146 O 0.80289 0.56242 0.85266 0.0
C147 C 0.66307 0.6829 0.89496 0.0
O148 O 0.75808 0.7114 0.78546 0.0
O149 O 0.70082 0.65969 0.77017 0.0
C150 C 0.85557 0.68226 0.84878 0.0
O151 O 0.694 0.71344 0.87857 0.0
O152 O 0.6687 0.63919 0.88501 0.0
C153 C 0.73026 0.55848 0.94338 0.0
Fe154 Fe 0.70592 0.26099 0.12097 0.0
Fe155 Fe 0.61143 0.3078 0.15983 0.0
O156 O 0.64298 0.26118 0.12119 0.0
Fe157 Fe 0.61104 0.21478 0.0827 0.0
O158 O 0.63631 0.17093 0.13517 0.0
O159 O 0.71072 0.19557 0.12778 0.0
O160 O 0.70901 0.2622 0.20708 0.0
C161 C 0.6914 0.29399 0.24178 0.0
C162 C 0.69094 0.22791 0.00041 0.0
O163 O 0.65692 0.31919 0.22237 0.0
C164 C 0.55702 0.28962 0.04751 0.0
O165 O 0.71113 0.32636 0.11411 0.0
O166 O 0.63687 0.35148 0.1073 0.0
O167 O 0.65637 0.20296 0.02003 0.0
O168 O 0.70865 0.25978 0.03485 0.0
C169 C 0.55677 0.23348 0.1951 0.0
O170 O 0.56038 0.3057 0.10414 0.0
O171 O 0.58336 0.25637 0.02821 0.0
C172 C 0.68055 0.35725 0.09765 0.0
O173 O 0.5835 0.26643 0.21437 0.0
O174 O 0.56003 0.21732 0.1385 0.0
C175 C 0.68002 0.16483 0.14436 0.0
C176 C 0.30821 0.98184 0.23058 0.0
C177 C 0.29921 0.01683 0.26159 0.0
C178 C 0.31578 0.9386 0.19794 0.0
C179 C 0.3234 0.90064 0.17326 0.0
C180 C 0.98047 0.71338 0.76351 0.0
C181 C 0.01527 0.7223 0.73217 0.0
C182 C 0.93738 0.70526 0.79611 0.0
C183 C 0.89944 0.697 0.82034 0.0
C184 C 0.71059 0.03988 0.22995 0.0
C185 C 0.71964 0.00489 0.26084 0.0
C186 C 0.70264 0.08311 0.19758 0.0
C187 C 0.69466 0.12102 0.17308 0.0
C188 C 0.08159 0.31678 0.79487 0.0
C189 C 0.11931 0.32497 0.81974 0.0
C190 C 0.03845 0.30888 0.76227 0.0
C191 C 1.00339 0.30015 0.73136 0.0
C192 C 0.31611 0.58215 0.04753 0.0
C193 C 0.32393 0.62013 0.07198 0.0
C194 C 0.30819 0.53907 0.01475 0.0
C195 C 0.29887 0.5044 0.98329 0.0
C196 C 0.5819 0.70576 0.94933 0.0
C197 C 0.61961 0.69777 0.92433 0.0
C198 C 0.53872 0.71326 0.98195 0.0
C199 C 0.50356 0.72167 0.01278 0.0
C200 C 0.70303 0.43849 0.0432 0.0
C201 C 0.69525 0.40076 0.06825 0.0
C202 C 0.7106 0.48159 0.0104 0.0
C203 C 0.71935 0.5166 0.97945 0.0
C204 C 0.48051 0.30951 0.97976 0.0
C205 C 0.51542 0.3005 0.01082 0.0
C206 C 0.43733 0.31756 0.94732 0.0
C207 C 0.39942 0.32566 0.92289 0.0
C208 C 0.80644 0.48283 0.72832 0.0
C209 C 0.7973 0.51791 0.75905 0.0
C210 C 0.81468 0.43934 0.69668 0.0
C211 C 0.82291 0.40123 0.67283 0.0
C212 C 0.47995 0.21443 0.26281 0.0
C213 C 0.51502 0.2231 0.23184 0.0
C214 C 0.43668 0.20642 0.29513 0.0
C215 C 0.39876 0.19806 0.31943 0.0
C216 C 0.2024 0.58363 0.69923 0.0
C217 C 0.19465 0.62127 0.67393 0.0
C218 C 0.20998 0.54067 0.73235 0.0
C219 C 0.21886 0.50575 0.76343 0.0
C220 C 0.58136 0.81684 0.29531 0.0
C221 C 0.6191 0.82498 0.32014 0.0
C222 C 0.53824 0.80904 0.26266 0.0
C223 C 0.50322 0.80032 0.2317 0.0
C224 C 0.81598 0.08318 0.54458 0.0
C225 C 0.82375 0.12097 0.56956 0.0
C226 C 0.80823 0.04011 0.5117 0.0
C227 C 0.7991 0.00523 0.48058 0.0
C228 C 0.08057 0.2049 0.44629 0.0
C229 C 0.11838 0.19658 0.42167 0.0
C230 C 0.03757 0.21307 0.47919 0.0
C231 C 1.00278 0.22201 0.5106 0.0
C232 C 0.20329 0.93884 0.54462 0.0
C233 C 0.19521 0.90092 0.56904 0.0
C234 C 0.21123 0.98207 0.51223 0.0
C235 C 0.22016 0.01706 0.48128 0.0
C236 C 0.98041 0.80898 0.47938 0.0
C237 C 0.01524 0.80005 0.51062 0.0
C238 C 0.93724 0.817 0.44694 0.0
C239 C 0.89926 0.82514 0.42275 0.0
C240 C 0.20979 0.27691 0.09544 0.0
C241 C 0.21391 0.30344 0.05028 0.0
C242 C 0.2097 0.24324 0.14586 0.0
C243 C 0.21367 0.21694 0.19128 0.0
C244 C 0.2751 0.80702 0.89762 0.0
C245 C 0.30128 0.80323 0.94334 0.0
C246 C 0.24212 0.80745 0.84615 0.0
C247 C 0.21621 0.80423 0.80007 0.0
C248 C 0.80636 0.77616 0.14783 0.0
C249 C 0.80254 0.80247 0.19338 0.0
C250 C 0.80667 0.74287 0.0968 0.0
C251 C 0.80322 0.71685 0.05089 0.0
C252 C 0.77612 0.21194 0.8463 0.0
C253 C 0.80241 0.21599 0.80075 0.0
C254 C 0.74267 0.21185 0.89719 0.0
C255 C 0.71624 0.21584 0.94261 0.0
C256 C 0.70977 0.7796 0.59736 0.0
C257 C 0.7138 0.80554 0.55153 0.0
C258 C 0.70984 0.7463 0.6483 0.0
C259 C 0.714 0.71982 0.69355 0.0
C260 C 0.77536 0.30894 0.39744 0.0
C261 C 0.8014 0.30498 0.44327 0.0
C262 C 0.74244 0.30916 0.34592 0.0
C263 C 0.71644 0.30546 0.30001 0.0
C264 C 0.30568 0.279 0.64592 0.0
C265 C 0.3024 0.30495 0.69195 0.0
C266 C 0.30545 0.24575 0.59481 0.0
C267 C 0.30186 0.21946 0.54918 0.0
C268 C 0.27504 0.71206 0.34584 0.0
C269 C 0.30171 0.71627 0.30079 0.0
C270 C 0.24142 0.71176 0.3964 0.0
C271 C 0.21517 0.71559 0.44196 0.0
loop_
_geom_bond_atom_site_label_1
_geom_bond_atom_site_label_2
_geom_bond_distance
_geom_bond_site_symmetry_2
_ccdc_geom_bond_type
Fe0 O2 1.918 . S
Fe0 O5 1.997 . S
Fe0 O6 2.002 . S
Fe0 O11 1.976 . S
Fe0 O14 1.996 . S
Fe1 O2 1.918 . S
Fe1 O9 1.997 . S
Fe1 O12 1.996 . S
Fe1 O16 1.976 . S
Fe1 O19 2.002 . S
O2 Fe0 1.918 . S
O2 Fe1 1.918 . S
O2 Fe3 1.918 . S
Fe3 O2 1.918 . S
Fe3 O4 2.002 . S
Fe3 O13 1.976 . S
Fe3 O17 1.996 . S
Fe3 O20 1.997 . S
O4 Fe3 2.002 . S
O4 C21 1.295 . S
O5 Fe0 1.997 . S
O5 C21 1.235 . S
O6 Fe0 2.002 . S
O6 C7 1.295 . S
C7 O6 1.295 . S
C7 O9 1.235 . S
C8 O13 1.287 . S
C8 O14 1.255 . S
O9 Fe1 1.997 . S
O9 C7 1.235 . S
C10 O16 1.287 . S
C10 O17 1.255 . S
O11 Fe0 1.976 . S
O11 C18 1.287 . S
O12 Fe1 1.996 . S
O12 C18 1.255 . S
O13 Fe3 1.976 . S
O13 C8 1.287 . S
O14 Fe0 1.996 . S
O14 C8 1.255 . S
C15 O19 1.295 . S
C15 O20 1.235 . S
O16 Fe1 1.976 . S
O16 C10 1.287 . S
O17 Fe3 1.996 . S
O17 C10 1.255 . S
C18 O11 1.287 . S
C18 O12 1.255 . S
O19 Fe1 2.002 . S
O19 C15 1.295 . S
O20 Fe3 1.997 . S
O20 C15 1.235 . S
C21 O4 1.295 . S
C21 O5 1.235 . S
Fe22 O24 1.918 . S
Fe22 O27 1.997 . S
Fe22 O28 2.002 . S
Fe22 O33 1.976 . S
Fe22 O36 1.996 . S
Fe23 O24 1.918 . S
Fe23 O31 1.997 . S
Fe23 O34 1.996 . S
Fe23 O38 1.976 . S
Fe23 O41 2.002 . S
O24 Fe22 1.918 . S
O24 Fe23 1.918 . S
O24 Fe25 1.918 . S
Fe25 O24 1.918 . S
Fe25 O26 2.002 . S
Fe25 O35 1.976 . S
Fe25 O39 1.996 . S
Fe25 O42 1.997 . S
O26 Fe25 2.002 . S
O26 C43 1.295 . S
O27 Fe22 1.997 . S
O27 C43 1.235 . S
O28 Fe22 2.002 . S
O28 C29 1.295 . S
C29 O28 1.295 . S
C29 O31 1.235 . S
C30 O35 1.287 . S
C30 O36 1.255 . S
O31 Fe23 1.997 . S
O31 C29 1.235 . S
C32 O38 1.287 . S
C32 O39 1.255 . S
O33 Fe22 1.976 . S
O33 C40 1.287 . S
O34 Fe23 1.996 . S
O34 C40 1.255 . S
O35 Fe25 1.976 . S
O35 C30 1.287 . S
O36 Fe22 1.996 . S
O36 C30 1.255 . S
C37 O41 1.295 . S
C37 O42 1.235 . S
O38 Fe23 1.976 . S
O38 C32 1.287 . S
O39 Fe25 1.996 . S
O39 C32 1.255 . S
C40 O33 1.287 . S
C40 O34 1.255 . S
O41 Fe23 2.002 . S
O41 C37 1.295 . S
O42 Fe25 1.997 . S
O42 C37 1.235 . S
C43 O26 1.295 . S
C43 O27 1.235 . S
Fe44 O46 1.918 . S
Fe44 O49 1.997 . S
Fe44 O50 2.002 . S
Fe44 O55 1.976 . S
Fe44 O58 1.996 . S
Fe45 O46 1.918 . S
Fe45 O53 1.997 . S
Fe45 O56 1.996 . S
Fe45 O60 1.976 . S
Fe45 O63 2.002 . S
O46 Fe44 1.918 . S
O46 Fe45 1.918 . S
O46 Fe47 1.918 . S
Fe47 O46 1.918 . S
Fe47 O48 2.002 . S
Fe47 O57 1.976 . S
Fe47 O61 1.996 . S
Fe47 O64 1.997 . S
O48 Fe47 2.002 . S
O48 C65 1.295 . S
O49 Fe44 1.997 . S
O49 C65 1.235 . S
O50 Fe44 2.002 . S
O50 C51 1.295 . S
C51 O50 1.295 . S
C51 O53 1.235 . S
C52 O57 1.287 . S
C52 O58 1.255 . S
O53 Fe45 1.997 . S
O53 C51 1.235 . S
C54 O60 1.287 . S
C54 O61 1.255 . S
O55 Fe44 1.976 . S
O55 C62 1.287 . S
O56 Fe45 1.996 . S
O56 C62 1.255 . S
O57 Fe47 1.976 . S
O57 C52 1.287 . S
O58 Fe44 1.996 . S
O58 C52 1.255 . S
C59 O63 1.295 . S
C59 O64 1.235 . S
O60 Fe45 1.976 . S
O60 C54 1.287 . S
O61 Fe47 1.996 . S
O61 C54 1.255 . S
C62 O55 1.287 . S
C62 O56 1.255 . S
O63 Fe45 2.002 . S
O63 C59 1.295 . S
O64 Fe47 1.997 . S
O64 C59 1.235 . S
C65 O48 1.295 . S
C65 O49 1.235 . S
Fe66 O68 1.918 . S
Fe66 O71 1.997 . S
Fe66 O72 2.002 . S
Fe66 O77 1.976 . S
Fe66 O80 1.996 . S
Fe67 O68 1.918 . S
Fe67 O75 1.997 . S
Fe67 O78 1.996 . S
Fe67 O82 1.976 . S
Fe67 O85 2.002 . S
O68 Fe66 1.918 . S
O68 Fe67 1.918 . S
O68 Fe69 1.918 . S
Fe69 O68 1.918 . S
Fe69 O70 2.002 . S
Fe69 O79 1.976 . S
Fe69 O83 1.996 . S
Fe69 O86 1.997 . S
O70 Fe69 2.002 . S
O70 C87 1.295 . S
O71 Fe66 1.997 . S
O71 C87 1.235 . S
O72 Fe66 2.002 . S
O72 C73 1.295 . S
C73 O72 1.295 . S
C73 O75 1.235 . S
C74 O79 1.287 . S
C74 O80 1.255 . S
O75 Fe67 1.997 . S
O75 C73 1.235 . S
C76 O82 1.287 . S
C76 O83 1.255 . S
O77 Fe66 1.976 . S
O77 C84 1.287 . S
O78 Fe67 1.996 . S
O78 C84 1.255 . S
O79 Fe69 1.976 . S
O79 C74 1.287 . S
O80 Fe66 1.996 . S
O80 C74 1.255 . S
C81 O85 1.295 . S
C81 O86 1.235 . S
O82 Fe67 1.976 . S
O82 C76 1.287 . S
O83 Fe69 1.996 . S
O83 C76 1.255 . S
C84 O77 1.287 . S
C84 O78 1.255 . S
O85 Fe67 2.002 . S
O85 C81 1.295 . S
O86 Fe69 1.997 . S
O86 C81 1.235 . S
C87 O70 1.295 . S
C87 O71 1.235 . S
Fe88 O90 1.918 . S
Fe88 O93 1.997 . S
Fe88 O94 2.002 . S
Fe88 O99 1.976 . S
Fe88 O102 1.996 . S
Fe89 O90 1.918 . S
Fe89 O97 1.997 . S
Fe89 O100 1.996 . S
Fe89 O104 1.976 . S
Fe89 O107 2.002 . S
O90 Fe88 1.918 . S
O90 Fe89 1.918 . S
O90 Fe91 1.918 . S
Fe91 O90 1.918 . S
Fe91 O92 2.002 . S
Fe91 O101 1.976 . S
Fe91 O105 1.997 . S
Fe91 O108 1.997 . S
O92 Fe91 2.002 . S
O92 C109 1.295 . S
O93 Fe88 1.997 . S
O93 C109 1.235 . S
O94 Fe88 2.002 . S
O94 C95 1.295 . S
C95 O94 1.295 . S
C95 O97 1.235 . S
C96 O101 1.287 . S
C96 O102 1.255 . S
O97 Fe89 1.997 . S
O97 C95 1.235 . S
C98 O104 1.287 1_554 S
C98 O105 1.254 1_554 S
O99 Fe88 1.976 . S
O99 C106 1.287 . S
O100 Fe89 1.996 . S
O100 C106 1.255 . S
O101 Fe91 1.976 . S
O101 C96 1.287 . S
O102 Fe88 1.996 . S
O102 C96 1.255 . S
C103 O107 1.295 . S
C103 O108 1.235 . S
O104 Fe89 1.976 . S
O104 C98 1.287 1_556 S
O105 Fe91 1.997 . S
O105 C98 1.254 1_556 S
C106 O99 1.287 . S
C106 O100 1.255 . S
O107 Fe89 2.002 . S
O107 C103 1.295 . S
O108 Fe91 1.997 . S
O108 C103 1.235 . S
C109 O92 1.295 . S
C109 O93 1.235 . S
Fe110 O112 1.918 . S
Fe110 O115 1.997 . S
Fe110 O116 2.002 . S
Fe110 O121 1.976 . S
Fe110 O124 1.996 . S
Fe111 O112 1.918 . S
Fe111 O119 1.997 . S
Fe111 O122 1.996 . S
Fe111 O126 1.976 . S
Fe111 O129 2.002 . S
O112 Fe110 1.918 . S
O112 Fe111 1.918 . S
O112 Fe113 1.918 . S
Fe113 O112 1.918 . S
Fe113 O114 2.002 . S
Fe113 O123 1.976 . S
Fe113 O127 1.996 . S
Fe113 O130 1.997 . S
O114 Fe113 2.002 . S
O114 C131 1.295 . S
O115 Fe110 1.997 . S
O115 C131 1.235 . S
O116 Fe110 2.002 . S
O116 C117 1.295 1_554 S
C117 O116 1.295 1_556 S
C117 O119 1.235 1_556 S
C118 O123 1.287 . S
C118 O124 1.255 . S
O119 Fe111 1.997 . S
O119 C117 1.235 1_554 S
C120 O126 1.287 . S
C120 O127 1.255 . S
O121 Fe110 1.976 . S
O121 C128 1.287 . S
O122 Fe111 1.996 . S
O122 C128 1.255 . S
O123 Fe113 1.976 . S
O123 C118 1.287 . S
O124 Fe110 1.996 . S
O124 C118 1.255 . S
C125 O129 1.295 . S
C125 O130 1.235 . S
O126 Fe111 1.976 . S
O126 C120 1.287 . S
O127 Fe113 1.996 . S
O127 C120 1.255 . S
C128 O121 1.287 . S
C128 O122 1.255 . S
O129 Fe111 2.002 . S
O129 C125 1.295 . S
O130 Fe113 1.997 . S
O130 C125 1.235 . S
C131 O114 1.295 . S
C131 O115 1.235 . S
Fe132 O134 1.918 . S
Fe132 O137 1.997 . S
Fe132 O138 2.002 . S
Fe132 O143 1.976 . S
Fe132 O146 1.996 . S
Fe133 O134 1.918 . S
Fe133 O141 1.997 . S
Fe133 O144 1.996 . S
Fe133 O148 1.976 . S
Fe133 O151 2.002 . S
O134 Fe132 1.918 . S
O134 Fe133 1.918 . S
O134 Fe135 1.918 . S
Fe135 O134 1.918 . S
Fe135 O136 2.002 . S
Fe135 O145 1.976 . S
Fe135 O149 1.996 . S
Fe135 O152 1.997 . S
O136 Fe135 2.002 . S
O136 C153 1.295 . S
O137 Fe132 1.997 . S
O137 C153 1.235 . S
O138 Fe132 2.002 . S
O138 C139 1.295 1_556 S
C139 O138 1.295 1_554 S
C139 O141 1.235 1_554 S
C140 O145 1.287 . S
C140 O146 1.255 . S
O141 Fe133 1.997 . S
O141 C139 1.235 1_556 S
C142 O148 1.287 . S
C142 O149 1.255 . S
O143 Fe132 1.976 . S
O143 C150 1.287 . S
O144 Fe133 1.996 . S
O144 C150 1.255 . S
O145 Fe135 1.976 . S
O145 C140 1.287 . S
O146 Fe132 1.996 . S
O146 C140 1.255 . S
C147 O151 1.295 . S
C147 O152 1.235 . S
O148 Fe133 1.976 . S
O148 C142 1.287 . S
O149 Fe135 1.996 . S
O149 C142 1.255 . S
C150 O143 1.287 . S
C150 O144 1.255 . S
O151 Fe133 2.002 . S
O151 C147 1.295 . S
O152 Fe135 1.997 . S
O152 C147 1.235 . S
C153 O136 1.295 . S
C153 O137 1.235 . S
Fe154 O156 1.918 . S
Fe154 O159 1.997 . S
Fe154 O160 2.002 . S
Fe154 O165 1.976 . S
Fe154 O168 1.996 . S
Fe155 O156 1.918 . S
Fe155 O163 1.997 . S
Fe155 O166 1.996 . S
Fe155 O170 1.976 . S
Fe155 O173 2.002 . S
O156 Fe154 1.918 . S
O156 Fe155 1.918 . S
O156 Fe157 1.918 . S
Fe157 O156 1.918 . S
Fe157 O158 2.002 . S
Fe157 O167 1.976 . S
Fe157 O171 1.996 . S
Fe157 O174 1.997 . S
O158 Fe157 2.002 . S
O158 C175 1.295 . S
O159 Fe154 1.997 . S
O159 C175 1.235 . S
O160 Fe154 2.002 . S
O160 C161 1.295 . S
C161 O160 1.295 . S
C161 O163 1.235 . S
C162 O167 1.287 1_556 S
C162 O168 1.255 1_556 S
O163 Fe155 1.997 . S
O163 C161 1.235 . S
C164 O170 1.287 . S
C164 O171 1.255 . S
O165 Fe154 1.976 . S
O165 C172 1.287 . S
O166 Fe155 1.996 . S
O166 C172 1.255 . S
O167 Fe157 1.976 . S
O167 C162 1.287 1_554 S
O168 Fe154 1.996 . S
O168 C162 1.255 1_554 S
C169 O173 1.295 . S
C169 O174 1.235 . S
O170 Fe155 1.976 . S
O170 C164 1.287 . S
O171 Fe157 1.996 . S
O171 C164 1.255 . S
C172 O165 1.287 . S
C172 O166 1.255 . S
O173 Fe155 2.002 . S
O173 C169 1.295 . S
O174 Fe157 1.997 . S
O174 C169 1.235 . S
C175 O158 1.295 . S
C175 O159 1.235 . S
C176 C177 1.170 1_565 S
C176 C178 1.380 . S
C177 C176 1.170 1_545 S
C178 C176 1.380 . S
C178 C179 1.170 . S
C179 C178 1.170 . S
C180 C181 1.170 1_655 S
C180 C182 1.380 . S
C181 C180 1.170 1_455 S
C182 C180 1.380 . S
C182 C183 1.170 . S
C183 C182 1.170 . S
C184 C185 1.170 1_545 S
C184 C186 1.380 . S
C185 C184 1.170 1_565 S
C186 C184 1.380 . S
C186 C187 1.170 . S
C187 C186 1.170 . S
C188 C189 1.170 . S
C188 C190 1.380 . S
C189 C188 1.170 . S
C190 C188 1.380 . S
C190 C191 1.170 . S
C191 C190 1.170 . S
C192 C193 1.170 . S
C192 C194 1.380 . S
C193 C192 1.170 . S
C194 C192 1.380 . S
C194 C195 1.170 1_554 S
C195 C194 1.170 1_556 S
C196 C197 1.170 . S
C196 C198 1.380 . S
C197 C196 1.170 . S
C198 C196 1.380 . S
C198 C199 1.170 1_556 S
C199 C198 1.170 1_554 S
C200 C201 1.170 . S
C200 C202 1.380 . S
C201 C200 1.170 . S
C202 C200 1.380 . S
C202 C203 1.170 1_554 S
C203 C202 1.170 1_556 S
C204 C205 1.170 1_556 S
C204 C206 1.380 . S
C205 C204 1.170 1_554 S
C206 C204 1.380 . S
C206 C207 1.170 . S
C207 C206 1.170 . S
C208 C209 1.170 . S
C208 C210 1.380 . S
C209 C208 1.170 . S
C210 C208 1.380 . S
C210 C211 1.170 . S
C211 C210 1.170 . S
C212 C213 1.170 . S
C212 C214 1.380 . S
C213 C212 1.170 . S
C214 C212 1.380 . S
C214 C215 1.170 . S
C215 C214 1.170 . S
C216 C217 1.170 . S
C216 C218 1.380 . S
C217 C216 1.170 . S
C218 C216 1.380 . S
C218 C219 1.170 . S
C219 C218 1.170 . S
C220 C221 1.170 . S
C220 C222 1.380 . S
C221 C220 1.170 . S
C222 C220 1.380 . S
C222 C223 1.170 . S
C223 C222 1.170 . S
C224 C225 1.170 . S
C224 C226 1.380 . S
C225 C224 1.170 . S
C226 C224 1.380 . S
C226 C227 1.170 . S
C227 C226 1.170 . S
C228 C229 1.170 . S
C228 C230 1.380 . S
C229 C228 1.170 . S
C230 C228 1.380 . S
C230 C231 1.170 1_455 S
C231 C230 1.170 1_655 S
C232 C233 1.170 . S
C232 C234 1.380 . S
C233 C232 1.170 . S
C234 C232 1.380 . S
C234 C235 1.170 1_565 S
C235 C234 1.170 1_545 S
C236 C237 1.170 1_655 S
C236 C238 1.380 . S
C237 C236 1.170 1_455 S
C238 C236 1.380 . S
C238 C239 1.170 . S
C239 C238 1.170 . S
C240 C241 1.170 . S
C240 C242 1.380 . S
C241 C240 1.170 . S
C242 C240 1.380 . S
C242 C243 1.170 . S
C243 C242 1.170 . S
C244 C245 1.170 . S
C244 C246 1.380 . S
C245 C244 1.170 . S
C246 C244 1.380 . S
C246 C247 1.170 . S
C247 C246 1.170 . S
C248 C249 1.170 . S
C248 C250 1.380 . S
C249 C248 1.170 . S
C250 C248 1.380 . S
C250 C251 1.170 . S
C251 C250 1.170 . S
C252 C253 1.170 . S
C252 C254 1.380 . S
C253 C252 1.170 . S
C254 C252 1.380 . S
C254 C255 1.170 . S
C255 C254 1.170 . S
C256 C257 1.170 . S
C256 C258 1.380 . S
C257 C256 1.170 . S
C258 C256 1.380 . S
C258 C259 1.170 . S
C259 C258 1.170 . S
C260 C261 1.170 . S
C260 C262 1.380 . S
C261 C260 1.170 . S
C262 C260 1.380 . S
C262 C263 1.170 . S
C263 C262 1.170 . S
C264 C265 1.170 . S
C264 C266 1.380 . S
C265 C264 1.170 . S
C266 C264 1.380 . S
C266 C267 1.170 . S
C267 C266 1.170 . S
C268 C269 1.170 . S
C268 C270 1.380 . S
C269 C268 1.170 . S
C270 C268 1.380 . S
C270 C271 1.170 . S
C271 C270 1.170 . S
C177 C10 1.284 . S
C179 C128 1.259 . S
C181 C37 1.332 . S
C183 C150 1.350 . S
C185 C59 1.333 . S
C187 C175 1.370 . S
C189 C103 1.297 . S
C191 C84 1.270 1_455 S
C193 C131 1.295 . S
C195 C96 1.302 . S
C197 C147 1.357 . S
C199 C125 1.326 . S
C201 C172 1.332 . S
C203 C153 1.320 . S
C205 C164 1.288 . S
C207 C106 1.258 . S
C209 C140 1.282 . S
C211 C74 1.288 . S
C213 C169 1.317 . S
C215 C8 1.356 . S
C217 C43 1.362 . S
C219 C109 1.322 . S
C221 C51 1.296 . S
C223 C120 1.272 . S
C225 C81 1.284 . S
C227 C54 1.285 1_545 S
C229 C7 1.357 . S
C231 C73 1.345 . S
C233 C40 1.348 . S
C235 C15 1.326 . S
C237 C32 1.268 . S
C239 C52 1.290 . S
C241 C98 1.250 . S
C243 C18 1.281 . S
C245 C117 1.298 . S
C247 C29 1.324 . S
C249 C65 1.305 . S
C251 C139 1.342 . S
C253 C76 1.277 . S
C255 C162 1.247 . S
C257 C62 1.284 . S
C259 C142 1.248 . S
C261 C87 1.324 . S
C263 C161 1.329 . S
C265 C95 1.338 . S
C267 C21 1.316 . S
C269 C118 1.241 . S
C271 C30 1.270 . S
