# Generated by pormake.
# Topology uny, (4)-cn, num edge types: 1
# Building blocks:
#     Node 0, Type 0, BuildingBlock: QUQFOY_clean_sbu_1, # of connection points: 4
#     Node 1, Type 0, BuildingBlock: QUQFOY_clean_sbu_1, # of connection points: 4
#     Node 2, Type 0, BuildingBlock: QUQFOY_clean_sbu_1, # of connection points: 4
#     Node 3, Type 0, BuildingBlock: QUQFOY_clean_sbu_1, # of connection points: 4
#     Node 4, Type 0, BuildingBlock: QUQFOY_clean_sbu_1, # of connection points: 4
#     Node 5, Type 0, BuildingBlock: QUQFOY_clean_sbu_1, # of connection points: 4
#     Node 6, Type 0, BuildingBlock: QUQFOY_clean_sbu_1, # of connection points: 4
#     Node 7, Type 0, BuildingBlock: QUQFOY_clean_sbu_1, # of connection points: 4
#     Node 8, Type 0, BuildingBlock: QUQFOY_clean_sbu_1, # of connection points: 4
#     Node 9, Type 0, BuildingBlock: QUQFOY_clean_sbu_1, # of connection points: 4
#     Node 10, Type 0, BuildingBlock: QUQFOY_clean_sbu_1, # of connection points: 4
#     Node 11, Type 0, BuildingBlock: QUQFOY_clean_sbu_1, # of connection points: 4
#     Node 12, Type 0, BuildingBlock: QUQFOY_clean_sbu_1, # of connection points: 4
#     Node 13, Type 0, BuildingBlock: QUQFOY_clean_sbu_1, # of connection points: 4
#     Node 14, Type 0, BuildingBlock: QUQFOY_clean_sbu_1, # of connection points: 4
#     Node 15, Type 0, BuildingBlock: QUQFOY_clean_sbu_1, # of connection points: 4
#     Node 16, Type 0, BuildingBlock: QUQFOY_clean_sbu_1, # of connection points: 4
#     Node 17, Type 0, BuildingBlock: QUQFOY_clean_sbu_1, # of connection points: 4
#     Edge 18, Type (0, 0), None
#     Edge 19, Type (0, 0), None
#     Edge 20, Type (0, 0), None
#     Edge 21, Type (0, 0), None
#     Edge 22, Type (0, 0), None
#     Edge 23, Type (0, 0), None
#     Edge 24, Type (0, 0), None
#     Edge 25, Type (0, 0), None
#     Edge 26, Type (0, 0), None
#     Edge 27, Type (0, 0), None
#     Edge 28, Type (0, 0), None
#     Edge 29, Type (0, 0), None
#     Edge 30, Type (0, 0), None
#     Edge 31, Type (0, 0), None
#     Edge 32, Type (0, 0), None
#     Edge 33, Type (0, 0), None
#     Edge 34, Type (0, 0), None
#     Edge 35, Type (0, 0), None
#     Edge 36, Type (0, 0), None
#     Edge 37, Type (0, 0), None
#     Edge 38, Type (0, 0), None
#     Edge 39, Type (0, 0), None
#     Edge 40, Type (0, 0), None
#     Edge 41, Type (0, 0), None
#     Edge 42, Type (0, 0), None
#     Edge 43, Type (0, 0), None
#     Edge 44, Type (0, 0), None
#     Edge 45, Type (0, 0), None
#     Edge 46, Type (0, 0), None
#     Edge 47, Type (0, 0), None
#     Edge 48, Type (0, 0), None
#     Edge 49, Type (0, 0), None
#     Edge 50, Type (0, 0), None
#     Edge 51, Type (0, 0), None
#     Edge 52, Type (0, 0), None
#     Edge 53, Type (0, 0), None
# Relax obj value: 0.050
# Max RMSD: 0.264
# Mean RMSD: 0.250
data_MOF--net-uny--node1-QUQFOY_clean_sbu_1--edge1-none
_symmetry_space_group_name_H-M    P1
_symmetry_Int_Tables_number       1
_symmetry_cell_setting            triclinic
loop_
_symmetry_equiv_pos_as_xyz
'x, y, z'
_cell_length_a     20.513653
_cell_length_b     20.566657
_cell_length_c     16.287854
_cell_angle_alpha  90.297312
_cell_angle_beta   90.007002
_cell_angle_gamma 119.91212
loop_
_atom_site_label
_atom_site_type_symbol
_atom_site_fract_x
_atom_site_fract_y
_atom_site_fract_z
_atom_type_partial_charge
O0 O 1.02111 0.13282 0.63416 0.0
Cd1 Cd 0.07616 0.2414 0.62886 0.0
Cd2 Cd 0.10695 0.2574 0.783 0.0
O3 O 1.00496 0.15132 0.76488 0.0
O4 O 0.99792 0.24099 0.55528 0.0
O5 O 1.00323 0.26181 0.69064 0.0
C6 C 0.965 0.24399 0.62245 0.0
C7 C 0.21812 0.37077 0.78875 0.0
C8 C 0.98805 0.10812 0.70129 0.0
C9 C 0.19516 0.21127 0.71062 0.0
O10 O 0.1621 0.20359 0.77777 0.0
O11 O 0.1782 0.23709 0.64703 0.0
O12 O 0.18551 0.33574 0.8561 0.0
O13 O 0.17958 0.34976 0.72078 0.0
O14 O 0.95622 1.00294 0.77688 0.0
Cd15 Cd 0.90272 0.89435 0.78219 0.0
Cd16 Cd 0.91748 0.87839 0.62802 0.0
O17 O 0.9215 0.98444 0.64616 0.0
O18 O 0.8249 0.89474 0.85578 0.0
O19 O 0.80936 0.87392 0.72042 0.0
C20 C 0.78896 0.89173 0.78862 0.0
C21 C 0.91525 0.76501 0.62224 0.0
C22 C 0.94779 1.02762 0.70977 0.0
C23 C 1.05182 0.92448 0.70042 0.0
O24 O 1.02644 0.93219 0.63328 0.0
O25 O 1.00905 0.89863 0.764 0.0
O26 O 0.91766 0.80005 0.55489 0.0
O27 O 0.89773 0.78601 0.69022 0.0
O28 O 0.22731 0.13752 0.63481 0.0
Cd29 Cd 0.28167 0.08299 0.62847 0.0
Cd30 Cd 0.26659 0.05283 0.78263 0.0
O31 O 0.26209 0.15451 0.76551 0.0
O32 O 0.35867 0.1612 0.55507 0.0
O33 O 0.37476 0.15644 0.69025 0.0
C34 C 0.39459 0.1944 0.62229 0.0
C35 C 0.26814 0.94144 0.78886 0.0
C36 C 0.23557 0.17093 0.70204 0.0
C37 C 0.13257 0.96484 0.70902 0.0
O38 O 0.15771 0.99826 0.77625 0.0
O39 O 0.17552 0.98128 0.64556 0.0
O40 O 0.26541 0.97464 0.85607 0.0
O41 O 0.28626 0.97938 0.72089 0.0
O42 O 0.162 1.00295 0.27683 0.0
Cd43 Cd 0.10693 0.89436 0.28216 0.0
Cd44 Cd 0.07615 0.87837 0.12803 0.0
O45 O 0.17816 0.98442 0.14612 0.0
O46 O 0.18516 0.89477 0.35577 0.0
O47 O 0.17986 0.87394 0.22041 0.0
C48 C 0.21808 0.89176 0.28861 0.0
C49 C 0.96498 0.765 0.12223 0.0
C50 C 0.19507 1.02764 0.20971 0.0
C51 C 0.98793 0.92449 0.20043 0.0
O52 O 1.021 0.93219 0.13328 0.0
O53 O 1.00488 0.89866 0.26401 0.0
O54 O 0.9976 0.80005 0.05489 0.0
O55 O 1.00351 0.786 0.19022 0.0
O56 O 0.22688 0.13281 0.1341 0.0
Cd57 Cd 0.28036 0.24139 0.12879 0.0
Cd58 Cd 0.26561 0.25735 0.28295 0.0
O59 O 0.26162 0.15132 0.26482 0.0
O60 O 0.35818 0.24101 0.05519 0.0
O61 O 0.37373 0.26185 0.19055 0.0
C62 C 0.39413 0.24403 0.12236 0.0
C63 C 0.26784 0.37073 0.28874 0.0
C64 C 0.23532 0.10813 0.20122 0.0
C65 C 0.13125 0.21124 0.21056 0.0
O66 O 0.15665 0.20354 0.2777 0.0
O67 O 0.17402 0.23709 0.14698 0.0
O68 O 0.26543 0.33569 0.35608 0.0
O69 O 0.28534 0.34973 0.22076 0.0
O70 O 0.95576 0.99823 0.27625 0.0
Cd71 Cd 0.9014 0.05276 0.28256 0.0
Cd72 Cd 0.91646 0.08292 0.12841 0.0
O73 O 0.921 0.98126 0.14554 0.0
O74 O 0.82441 0.97454 0.35597 0.0
O75 O 0.80832 0.97928 0.22079 0.0
C76 C 0.78849 0.94133 0.28875 0.0
C77 C 0.91495 0.19433 0.12218 0.0
C78 C 0.94752 0.96483 0.20901 0.0
C79 C 1.0505 0.17088 0.20198 0.0
O80 O 1.02535 0.13748 0.13474 0.0
O81 O 1.00757 0.15445 0.26544 0.0
O82 O 0.91766 0.16111 0.05497 0.0
O83 O 0.89684 0.15639 0.19015 0.0
O84 O 0.82875 0.53684 0.11096 0.0
Cd85 Cd 0.77361 0.59067 0.1163 0.0
Cd86 Cd 0.74282 0.5747 -0.03783 0.0
O87 O 0.84489 0.57045 -0.01974 0.0
O88 O 0.85215 0.66897 0.18946 0.0
O89 O 0.84623 0.68306 0.05415 0.0
C90 C 0.88476 0.70403 0.12213 0.0
C91 C 0.63169 0.57734 -0.04428 0.0
C92 C 0.86183 0.54457 0.04382 0.0
C93 C 0.65465 0.44143 0.03466 0.0
O94 O 0.68776 0.46612 -0.03246 0.0
O95 O 0.67156 0.48465 0.09825 0.0
O96 O 0.66461 0.5743 0.88857 0.0
O97 O 0.66992 0.59517 0.02392 0.0
O98 O 0.62269 0.33622 0.11027 0.0
Cd99 Cd 0.56918 0.22763 0.11547 0.0
Cd100 Cd 0.58399 0.21168 -0.03869 0.0
O101 O 0.58812 0.31777 -0.0205 0.0
O102 O 0.49136 0.22807 0.18901 0.0
O103 O 0.47587 0.2073 0.05364 0.0
C104 C 0.45545 0.2251 0.12183 0.0
C105 C 0.58189 0.09835 -0.04445 0.0
C106 C 0.61435 0.36094 0.04313 0.0
C107 C 0.71837 0.25794 0.03365 0.0
O108 O 0.69296 0.26554 -0.03352 0.0
O109 O 0.67561 0.23212 0.09724 0.0
O110 O 0.58425 0.13336 0.8882 0.0
O111 O 0.56439 0.11936 0.02353 0.0
O112 O 0.82431 0.33159 0.10948 0.0
Cd113 Cd 0.9332 0.38606 0.11577 0.0
Cd114 Cd 0.94834 0.4163 -0.03837 0.0
O115 O 0.84205 0.31472 -0.02126 0.0
O116 O 0.93194 0.3078 0.18917 0.0
O117 O 0.95269 0.31251 0.05398 0.0
C118 C 0.93459 0.27457 0.12195 0.0
C119 C 1.06125 0.52774 -0.04444 0.0
C120 C 0.79913 0.29828 0.04221 0.0
C121 C 0.90224 0.50423 0.03521 0.0
O122 O 0.89403 0.47089 -0.03206 0.0
O123 O 0.9287 0.48775 0.09868 0.0
O124 O 1.02536 0.49459 0.88831 0.0
O125 O 1.0414 0.48974 0.02348 0.0
O126 O 0.82868 0.33626 0.61021 0.0
Cd127 Cd 0.7736 0.22767 0.6155 0.0
Cd128 Cd 0.74284 0.21171 0.46135 0.0
O129 O 0.84485 0.31776 0.47949 0.0
O130 O 0.85184 0.22808 0.68908 0.0
O131 O 0.84653 0.20725 0.55372 0.0
C132 C 0.88476 0.22507 0.62191 0.0
C133 C 0.63167 0.09835 0.45558 0.0
C134 C 0.86176 0.36096 0.54308 0.0
C135 C 0.65464 0.25786 0.53374 0.0
O136 O 0.6877 0.26554 0.4666 0.0
O137 O 0.67158 0.23201 0.59732 0.0
O138 O 0.66428 0.13339 0.38823 0.0
O139 O 0.6702 0.11935 0.52355 0.0
O140 O 0.82338 0.53686 0.61112 0.0
Cd141 Cd 0.93234 0.59069 0.61638 0.0
Cd142 Cd 0.94713 0.57474 0.46222 0.0
O143 O 0.84077 0.57038 0.48039 0.0
O144 O 0.93211 0.66901 0.6895 0.0
O145 O 0.95204 0.68305 0.55418 0.0
C146 C 0.93451 0.70404 0.62215 0.0
C147 C 1.06089 0.57733 0.45578 0.0
C148 C 0.79799 0.54454 0.54397 0.0
C149 C 0.90203 0.44146 0.53462 0.0
O150 O 0.89363 0.46615 0.46749 0.0
O151 O 0.9283 0.48463 0.59824 0.0
O152 O 1.02494 0.57434 0.38862 0.0
O153 O 1.04049 0.59513 0.52398 0.0
O154 O 0.62245 0.33156 0.60959 0.0
Cd155 Cd 0.56808 0.38609 0.61592 0.0
Cd156 Cd 0.58319 0.41632 0.46179 0.0
O157 O 0.58774 0.31465 0.47887 0.0
O158 O 0.4911 0.30784 0.68931 0.0
O159 O 0.47502 0.3126 0.55413 0.0
C160 C 0.4552 0.27464 0.62209 0.0
C161 C 0.58173 0.52776 0.45564 0.0
C162 C 0.61423 0.2982 0.54233 0.0
C163 C 0.71724 0.5042 0.53538 0.0
O164 O 0.69208 0.47084 0.46812 0.0
O165 O 0.6743 0.48774 0.59884 0.0
O166 O 0.58443 0.49457 0.38841 0.0
O167 O 0.56361 0.4898 0.52359 0.0
O168 O 0.35443 0.79951 0.30083 0.0
Cd169 Cd 0.40949 0.90809 0.29558 0.0
Cd170 Cd 0.44025 0.92405 0.44973 0.0
O171 O 0.33826 0.81798 0.43156 0.0
O172 O 0.33126 0.90769 0.22199 0.0
O173 O 0.33654 0.92848 0.35736 0.0
C174 C 0.29832 0.91067 0.28916 0.0
C175 C 0.55143 1.0374 0.45549 0.0
C176 C 0.32136 0.77479 0.36796 0.0
C177 C 0.52846 0.8779 0.37735 0.0
O178 O 0.4954 0.87023 0.4445 0.0
O179 O 0.51151 0.90374 0.31377 0.0
O180 O 0.51882 1.00238 0.52284 0.0
O181 O 0.5129 1.01641 0.38752 0.0
O182 O 0.28948 0.66959 0.44353 0.0
Cd183 Cd 0.23596 0.561 0.44879 0.0
Cd184 Cd 0.25076 0.54506 0.29463 0.0
O185 O 0.25482 0.65112 0.31278 0.0
O186 O 0.15815 0.5614 0.52238 0.0
O187 O 0.14262 0.54062 0.38702 0.0
C188 C 0.12221 0.55842 0.45522 0.0
C189 C 0.24857 0.4317 0.28884 0.0
C190 C 0.28109 0.69429 0.37641 0.0
C191 C 0.3851 0.59118 0.36705 0.0
O192 O 0.35972 0.59888 0.2999 0.0
O193 O 0.34232 0.56534 0.43062 0.0
O194 O 0.25099 0.46674 0.2215 0.0
O195 O 0.23105 0.45269 0.35682 0.0
O196 O 0.56062 0.80418 0.30151 0.0
Cd197 Cd 0.61499 0.74966 0.29515 0.0
Cd198 Cd 0.59988 0.71943 0.44928 0.0
O199 O 0.59537 0.82111 0.43222 0.0
O200 O 0.69196 0.82789 0.22174 0.0
O201 O 0.70807 0.82314 0.35692 0.0
C202 C 0.72788 0.86109 0.28896 0.0
C203 C 0.60137 0.60801 0.45545 0.0
C204 C 0.56886 0.83756 0.36876 0.0
C205 C 0.46586 0.63153 0.37566 0.0
O206 O 0.49099 0.6649 0.44291 0.0
O207 O 0.5088 0.64798 0.3122 0.0
O208 O 0.59865 0.64119 0.52268 0.0
O209 O 0.6195 0.64597 0.3875 0.0
O210 O 0.49536 0.66963 0.94341 0.0
Cd211 Cd 0.44031 0.56105 0.94875 0.0
Cd212 Cd 0.4095 0.5451 0.79462 0.0
O213 O 0.51154 0.65113 0.8127 0.0
O214 O 0.51854 0.56146 0.02234 0.0
O215 O 0.51323 0.54062 0.88698 0.0
C216 C 0.55145 0.55844 0.95518 0.0
C217 C 0.29835 0.43173 0.78883 0.0
C218 C 0.52845 0.69433 0.87629 0.0
C219 C 0.3213 0.5912 0.86711 0.0
O220 O 0.35437 0.59892 0.79996 0.0
O221 O 0.33825 0.56533 0.93066 0.0
O222 O 0.33094 0.46678 0.72148 0.0
O223 O 0.33689 0.45271 0.8568 0.0
O224 O 0.5604 0.79955 0.8007 0.0
Cd225 Cd 0.61392 0.90815 0.79552 0.0
Cd226 Cd 0.59911 0.92409 0.94969 0.0
O227 O 0.59497 0.81799 0.93147 0.0
O228 O 0.69174 0.9077 0.72197 0.0
O229 O 0.70723 0.92846 0.85734 0.0
C230 C 0.72764 0.91066 0.78915 0.0
C231 C 0.6012 1.03741 0.95545 0.0
C232 C 0.56874 0.77483 0.86784 0.0
C233 C 0.46472 0.87783 0.87736 0.0
O234 O 0.49014 0.87022 0.94452 0.0
O235 O 0.50748 0.90364 0.81376 0.0
O236 O 0.59885 1.00241 0.0228 0.0
O237 O 0.6187 1.01641 0.88746 0.0
O238 O 0.28909 0.66487 0.94301 0.0
Cd239 Cd 0.23476 0.71943 0.94935 0.0
Cd240 Cd 0.2499 0.74971 0.79522 0.0
O241 O 0.25442 0.64803 0.81227 0.0
O242 O 0.15775 0.64113 0.02267 0.0
O243 O 0.14171 0.64599 0.8875 0.0
C244 C 0.12186 0.60798 0.95542 0.0
C245 C 0.24851 0.8612 0.78907 0.0
C246 C 0.28089 0.63154 0.87573 0.0
C247 C 0.38397 0.83748 0.86879 0.0
O248 O 0.35879 0.80418 0.80151 0.0
O249 O 0.34104 0.82103 0.93226 0.0
O250 O 0.25117 0.82798 0.72184 0.0
O251 O 0.23041 0.82325 0.85704 0.0
loop_
_geom_bond_atom_site_label_1
_geom_bond_atom_site_label_2
_geom_bond_distance
_geom_bond_site_symmetry_2
_ccdc_geom_bond_type
O0 Cd1 2.223 . S
O0 C8 1.315 . S
Cd1 O0 2.223 . S
Cd1 O4 2.297 . S
Cd1 O5 2.439 . S
Cd1 O11 2.240 1_655 S
Cd2 O3 2.240 1_455 S
Cd2 O10 2.223 . S
Cd2 O12 2.297 . S
Cd2 O13 2.439 . S
O3 Cd2 2.240 1_655 S
O3 C8 1.279 . S
O4 Cd1 2.297 . S
O4 C6 1.247 . S
O5 Cd1 2.439 . S
O5 C6 1.208 . S
C6 O4 1.247 . S
C6 O5 1.208 . S
C7 O12 1.247 . S
C7 O13 1.208 . S
C8 O0 1.315 . S
C8 O3 1.279 . S
C9 O10 1.315 . S
C9 O11 1.279 . S
O10 Cd2 2.223 . S
O10 C9 1.315 . S
O11 Cd1 2.240 1_455 S
O11 C9 1.279 . S
O12 Cd2 2.297 . S
O12 C7 1.247 . S
O13 Cd2 2.439 . S
O13 C7 1.208 . S
O14 Cd15 2.223 1_545 S
O14 C22 1.315 1_545 S
Cd15 O14 2.223 1_565 S
Cd15 O18 2.297 . S
Cd15 O19 2.439 . S
Cd15 O25 2.240 . S
Cd16 O17 2.240 . S
Cd16 O24 2.223 . S
Cd16 O26 2.297 . S
Cd16 O27 2.439 . S
O17 Cd16 2.240 . S
O17 C22 1.279 . S
O18 Cd15 2.297 . S
O18 C20 1.247 . S
O19 Cd15 2.439 . S
O19 C20 1.208 . S
C20 O18 1.247 . S
C20 O19 1.208 . S
C21 O26 1.247 . S
C21 O27 1.208 . S
C22 O14 1.315 1_565 S
C22 O17 1.279 . S
C23 O24 1.315 . S
C23 O25 1.279 . S
O24 Cd16 2.223 . S
O24 C23 1.315 . S
O25 Cd15 2.240 . S
O25 C23 1.279 . S
O26 Cd16 2.297 . S
O26 C21 1.247 . S
O27 Cd16 2.439 . S
O27 C21 1.208 . S
O28 Cd29 2.223 . S
O28 C36 1.315 . S
Cd29 O28 2.223 . S
Cd29 O32 2.297 . S
Cd29 O33 2.439 . S
Cd29 O39 2.240 1_545 S
Cd30 O31 2.240 1_565 S
Cd30 O38 2.223 . S
Cd30 O40 2.297 . S
Cd30 O41 2.439 . S
O31 Cd30 2.240 1_545 S
O31 C36 1.279 . S
O32 Cd29 2.297 . S
O32 C34 1.247 . S
O33 Cd29 2.439 . S
O33 C34 1.208 . S
C34 O32 1.247 . S
C34 O33 1.208 . S
C35 O40 1.247 . S
C35 O41 1.208 . S
C36 O28 1.315 . S
C36 O31 1.279 . S
C37 O38 1.315 . S
C37 O39 1.279 . S
O38 Cd30 2.223 . S
O38 C37 1.315 . S
O39 Cd29 2.240 1_565 S
O39 C37 1.279 . S
O40 Cd30 2.297 . S
O40 C35 1.247 . S
O41 Cd30 2.439 . S
O41 C35 1.208 . S
O42 Cd43 2.223 1_545 S
O42 C50 1.315 1_545 S
Cd43 O42 2.223 1_565 S
Cd43 O46 2.297 . S
Cd43 O47 2.439 . S
Cd43 O53 2.240 1_455 S
Cd44 O45 2.240 1_655 S
Cd44 O52 2.223 . S
Cd44 O54 2.297 . S
Cd44 O55 2.439 . S
O45 Cd44 2.240 1_455 S
O45 C50 1.279 . S
O46 Cd43 2.297 . S
O46 C48 1.247 . S
O47 Cd43 2.439 . S
O47 C48 1.208 . S
C48 O46 1.247 . S
C48 O47 1.208 . S
C49 O54 1.247 . S
C49 O55 1.208 . S
C50 O42 1.315 1_565 S
C50 O45 1.279 . S
C51 O52 1.315 . S
C51 O53 1.279 . S
O52 Cd44 2.223 . S
O52 C51 1.315 . S
O53 Cd43 2.240 1_655 S
O53 C51 1.279 . S
O54 Cd44 2.297 . S
O54 C49 1.247 . S
O55 Cd44 2.439 . S
O55 C49 1.208 . S
O56 Cd57 2.223 . S
O56 C64 1.315 . S
Cd57 O56 2.223 . S
Cd57 O60 2.297 . S
Cd57 O61 2.439 . S
Cd57 O67 2.240 . S
Cd58 O59 2.240 . S
Cd58 O66 2.223 . S
Cd58 O68 2.297 . S
Cd58 O69 2.439 . S
O59 Cd58 2.240 . S
O59 C64 1.279 . S
O60 Cd57 2.297 . S
O60 C62 1.247 . S
O61 Cd57 2.439 . S
O61 C62 1.208 . S
C62 O60 1.247 . S
C62 O61 1.208 . S
C63 O68 1.247 . S
C63 O69 1.208 . S
C64 O56 1.315 . S
C64 O59 1.279 . S
C65 O66 1.315 . S
C65 O67 1.279 . S
O66 Cd58 2.223 . S
O66 C65 1.315 . S
O67 Cd57 2.240 . S
O67 C65 1.279 . S
O68 Cd58 2.297 . S
O68 C63 1.247 . S
O69 Cd58 2.439 . S
O69 C63 1.208 . S
O70 Cd71 2.223 . S
O70 C78 1.315 . S
Cd71 O70 2.223 . S
Cd71 O74 2.297 . S
Cd71 O75 2.439 . S
Cd71 O81 2.240 1_565 S
Cd72 O73 2.240 1_545 S
Cd72 O80 2.222 1_655 S
Cd72 O82 2.297 . S
Cd72 O83 2.439 . S
O73 Cd72 2.240 1_565 S
O73 C78 1.279 . S
O74 Cd71 2.297 . S
O74 C76 1.247 . S
O75 Cd71 2.439 . S
O75 C76 1.208 . S
C76 O74 1.247 . S
C76 O75 1.208 . S
C77 O82 1.247 . S
C77 O83 1.208 . S
C78 O70 1.315 . S
C78 O73 1.279 . S
C79 O80 1.315 1_655 S
C79 O81 1.279 . S
O80 Cd72 2.222 1_455 S
O80 C79 1.315 1_455 S
O81 Cd71 2.240 1_545 S
O81 C79 1.279 . S
O82 Cd72 2.297 . S
O82 C77 1.247 . S
O83 Cd72 2.439 . S
O83 C77 1.208 . S
O84 Cd85 2.223 . S
O84 C92 1.315 . S
Cd85 O84 2.223 . S
Cd85 O88 2.297 . S
Cd85 O89 2.439 . S
Cd85 O95 2.240 . S
Cd86 O87 2.240 1_556 S
Cd86 O94 2.223 1_556 S
Cd86 O96 2.297 . S
Cd86 O97 2.439 1_556 S
O87 Cd86 2.240 1_554 S
O87 C92 1.279 . S
O88 Cd85 2.297 . S
O88 C90 1.247 . S
O89 Cd85 2.439 . S
O89 C90 1.208 . S
C90 O88 1.247 . S
C90 O89 1.208 . S
C91 O96 1.247 . S
C91 O97 1.208 1_556 S
C92 O84 1.315 . S
C92 O87 1.279 . S
C93 O94 1.315 . S
C93 O95 1.279 . S
O94 Cd86 2.223 1_554 S
O94 C93 1.315 . S
O95 Cd85 2.240 . S
O95 C93 1.279 . S
O96 Cd86 2.297 . S
O96 C91 1.247 . S
O97 Cd86 2.439 1_554 S
O97 C91 1.208 1_554 S
O98 Cd99 2.223 . S
O98 C106 1.315 . S
Cd99 O98 2.223 . S
Cd99 O102 2.297 . S
Cd99 O103 2.439 . S
Cd99 O109 2.240 . S
Cd100 O101 2.242 . S
Cd100 O108 2.223 . S
Cd100 O110 2.297 . S
Cd100 O111 2.439 . S
O101 Cd100 2.242 . S
O101 C106 1.278 1_556 S
O102 Cd99 2.297 . S
O102 C104 1.247 . S
O103 Cd99 2.439 . S
O103 C104 1.208 . S
C104 O102 1.247 . S
C104 O103 1.208 . S
C105 O110 1.247 . S
C105 O111 1.208 . S
C106 O98 1.315 . S
C106 O101 1.278 1_554 S
C107 O108 1.315 1_554 S
C107 O109 1.279 . S
O108 Cd100 2.223 . S
O108 C107 1.315 1_556 S
O109 Cd99 2.240 . S
O109 C107 1.279 . S
O110 Cd100 2.297 . S
O110 C105 1.247 . S
O111 Cd100 2.439 . S
O111 C105 1.208 . S
O112 Cd113 2.223 . S
O112 C120 1.315 . S
Cd113 O112 2.223 . S
Cd113 O116 2.297 . S
Cd113 O117 2.439 . S
Cd113 O123 2.240 . S
Cd114 O115 2.240 1_556 S
Cd114 O122 2.223 1_556 S
Cd114 O124 2.297 . S
Cd114 O125 2.439 1_556 S
O115 Cd114 2.240 1_554 S
O115 C120 1.279 . S
O116 Cd113 2.297 . S
O116 C118 1.247 . S
O117 Cd113 2.439 . S
O117 C118 1.208 . S
C118 O116 1.247 . S
C118 O117 1.208 . S
C119 O124 1.247 . S
C119 O125 1.208 1_556 S
C120 O112 1.315 . S
C120 O115 1.279 . S
C121 O122 1.315 . S
C121 O123 1.279 . S
O122 Cd114 2.223 1_554 S
O122 C121 1.315 . S
O123 Cd113 2.240 . S
O123 C121 1.279 . S
O124 Cd114 2.297 . S
O124 C119 1.247 . S
O125 Cd114 2.439 1_554 S
O125 C119 1.208 1_554 S
O126 Cd127 2.223 . S
O126 C134 1.315 . S
Cd127 O126 2.223 . S
Cd127 O130 2.297 . S
Cd127 O131 2.439 . S
Cd127 O137 2.240 . S
Cd128 O129 2.240 . S
Cd128 O136 2.223 . S
Cd128 O138 2.297 . S
Cd128 O139 2.439 . S
O129 Cd128 2.240 . S
O129 C134 1.279 . S
O130 Cd127 2.297 . S
O130 C132 1.247 . S
O131 Cd127 2.439 . S
O131 C132 1.208 . S
C132 O130 1.247 . S
C132 O131 1.208 . S
C133 O138 1.247 . S
C133 O139 1.208 . S
C134 O126 1.315 . S
C134 O129 1.279 . S
C135 O136 1.315 . S
C135 O137 1.279 . S
O136 Cd128 2.223 . S
O136 C135 1.315 . S
O137 Cd127 2.240 . S
O137 C135 1.279 . S
O138 Cd128 2.297 . S
O138 C133 1.247 . S
O139 Cd128 2.439 . S
O139 C133 1.208 . S
O140 Cd141 2.223 . S
O140 C148 1.315 . S
Cd141 O140 2.223 . S
Cd141 O144 2.297 . S
Cd141 O145 2.439 . S
Cd141 O151 2.240 . S
Cd142 O143 2.240 . S
Cd142 O150 2.223 . S
Cd142 O152 2.297 . S
Cd142 O153 2.439 . S
O143 Cd142 2.240 . S
O143 C148 1.279 . S
O144 Cd141 2.297 . S
O144 C146 1.247 . S
O145 Cd141 2.439 . S
O145 C146 1.208 . S
C146 O144 1.247 . S
C146 O145 1.208 . S
C147 O152 1.247 . S
C147 O153 1.208 . S
C148 O140 1.315 . S
C148 O143 1.279 . S
C149 O150 1.315 . S
C149 O151 1.279 . S
O150 Cd142 2.223 . S
O150 C149 1.315 . S
O151 Cd141 2.240 . S
O151 C149 1.279 . S
O152 Cd142 2.297 . S
O152 C147 1.247 . S
O153 Cd142 2.439 . S
O153 C147 1.208 . S
O154 Cd155 2.223 . S
O154 C162 1.315 . S
Cd155 O154 2.223 . S
Cd155 O158 2.297 . S
Cd155 O159 2.439 . S
Cd155 O165 2.240 . S
Cd156 O157 2.240 . S
Cd156 O164 2.223 . S
Cd156 O166 2.297 . S
Cd156 O167 2.439 . S
O157 Cd156 2.240 . S
O157 C162 1.279 . S
O158 Cd155 2.297 . S
O158 C160 1.247 . S
O159 Cd155 2.439 . S
O159 C160 1.208 . S
C160 O158 1.247 . S
C160 O159 1.208 . S
C161 O166 1.247 . S
C161 O167 1.208 . S
C162 O154 1.315 . S
C162 O157 1.279 . S
C163 O164 1.315 . S
C163 O165 1.279 . S
O164 Cd156 2.223 . S
O164 C163 1.315 . S
O165 Cd155 2.240 . S
O165 C163 1.279 . S
O166 Cd156 2.297 . S
O166 C161 1.247 . S
O167 Cd156 2.439 . S
O167 C161 1.208 . S
O168 Cd169 2.223 . S
O168 C176 1.315 . S
Cd169 O168 2.223 . S
Cd169 O172 2.297 . S
Cd169 O173 2.439 . S
Cd169 O179 2.240 . S
Cd170 O171 2.240 . S
Cd170 O178 2.223 . S
Cd170 O180 2.297 . S
Cd170 O181 2.439 . S
O171 Cd170 2.240 . S
O171 C176 1.279 . S
O172 Cd169 2.297 . S
O172 C174 1.247 . S
O173 Cd169 2.439 . S
O173 C174 1.208 . S
C174 O172 1.247 . S
C174 O173 1.208 . S
C175 O180 1.247 . S
C175 O181 1.208 . S
C176 O168 1.315 . S
C176 O171 1.279 . S
C177 O178 1.315 . S
C177 O179 1.279 . S
O178 Cd170 2.223 . S
O178 C177 1.315 . S
O179 Cd169 2.240 . S
O179 C177 1.279 . S
O180 Cd170 2.297 . S
O180 C175 1.247 . S
O181 Cd170 2.439 . S
O181 C175 1.208 . S
O182 Cd183 2.223 . S
O182 C190 1.315 . S
Cd183 O182 2.223 . S
Cd183 O186 2.297 . S
Cd183 O187 2.439 . S
Cd183 O193 2.240 . S
Cd184 O185 2.240 . S
Cd184 O192 2.223 . S
Cd184 O194 2.297 . S
Cd184 O195 2.439 . S
O185 Cd184 2.240 . S
O185 C190 1.279 . S
O186 Cd183 2.297 . S
O186 C188 1.247 . S
O187 Cd183 2.439 . S
O187 C188 1.208 . S
C188 O186 1.247 . S
C188 O187 1.208 . S
C189 O194 1.247 . S
C189 O195 1.208 . S
C190 O182 1.315 . S
C190 O185 1.279 . S
C191 O192 1.315 . S
C191 O193 1.279 . S
O192 Cd184 2.223 . S
O192 C191 1.315 . S
O193 Cd183 2.240 . S
O193 C191 1.279 . S
O194 Cd184 2.297 . S
O194 C189 1.247 . S
O195 Cd184 2.439 . S
O195 C189 1.208 . S
O196 Cd197 2.223 . S
O196 C204 1.315 . S
Cd197 O196 2.223 . S
Cd197 O200 2.297 . S
Cd197 O201 2.439 . S
Cd197 O207 2.240 . S
Cd198 O199 2.240 . S
Cd198 O206 2.223 . S
Cd198 O208 2.297 . S
Cd198 O209 2.439 . S
O199 Cd198 2.240 . S
O199 C204 1.279 . S
O200 Cd197 2.297 . S
O200 C202 1.247 . S
O201 Cd197 2.439 . S
O201 C202 1.208 . S
C202 O200 1.247 . S
C202 O201 1.208 . S
C203 O208 1.247 . S
C203 O209 1.208 . S
C204 O196 1.315 . S
C204 O199 1.279 . S
C205 O206 1.315 . S
C205 O207 1.279 . S
O206 Cd198 2.223 . S
O206 C205 1.315 . S
O207 Cd197 2.240 . S
O207 C205 1.279 . S
O208 Cd198 2.297 . S
O208 C203 1.247 . S
O209 Cd198 2.439 . S
O209 C203 1.208 . S
O210 Cd211 2.223 1_556 S
O210 C218 1.315 . S
Cd211 O210 2.223 1_554 S
Cd211 O214 2.297 . S
Cd211 O215 2.439 1_554 S
Cd211 O221 2.240 1_554 S
Cd212 O213 2.240 . S
Cd212 O220 2.223 . S
Cd212 O222 2.297 . S
Cd212 O223 2.439 . S
O213 Cd212 2.240 . S
O213 C218 1.279 . S
O214 Cd211 2.297 . S
O214 C216 1.247 . S
O215 Cd211 2.439 1_556 S
O215 C216 1.208 1_556 S
C216 O214 1.247 . S
C216 O215 1.208 1_554 S
C217 O222 1.247 . S
C217 O223 1.208 . S
C218 O210 1.315 . S
C218 O213 1.279 . S
C219 O220 1.315 . S
C219 O221 1.279 . S
O220 Cd212 2.223 . S
O220 C219 1.315 . S
O221 Cd211 2.240 1_556 S
O221 C219 1.279 . S
O222 Cd212 2.297 . S
O222 C217 1.247 . S
O223 Cd212 2.439 . S
O223 C217 1.208 . S
O224 Cd225 2.223 . S
O224 C232 1.315 . S
Cd225 O224 2.223 . S
Cd225 O228 2.297 . S
Cd225 O229 2.439 . S
Cd225 O235 2.240 . S
Cd226 O227 2.242 . S
Cd226 O234 2.223 . S
Cd226 O236 2.297 . S
Cd226 O237 2.439 . S
O227 Cd226 2.242 . S
O227 C232 1.278 1_554 S
O228 Cd225 2.297 . S
O228 C230 1.247 . S
O229 Cd225 2.439 . S
O229 C230 1.208 . S
C230 O228 1.247 . S
C230 O229 1.208 . S
C231 O236 1.247 . S
C231 O237 1.208 . S
C232 O224 1.315 . S
C232 O227 1.278 1_556 S
C233 O234 1.315 1_556 S
C233 O235 1.279 . S
O234 Cd226 2.223 . S
O234 C233 1.315 1_554 S
O235 Cd225 2.240 . S
O235 C233 1.279 . S
O236 Cd226 2.297 . S
O236 C231 1.247 . S
O237 Cd226 2.439 . S
O237 C231 1.208 . S
O238 Cd239 2.223 1_556 S
O238 C246 1.315 . S
Cd239 O238 2.223 1_554 S
Cd239 O242 2.297 . S
Cd239 O243 2.439 1_554 S
Cd239 O249 2.240 1_554 S
Cd240 O241 2.240 . S
Cd240 O248 2.223 . S
Cd240 O250 2.297 . S
Cd240 O251 2.439 . S
O241 Cd240 2.240 . S
O241 C246 1.279 . S
O242 Cd239 2.297 . S
O242 C244 1.247 . S
O243 Cd239 2.439 1_556 S
O243 C244 1.208 1_556 S
C244 O242 1.247 . S
C244 O243 1.208 1_554 S
C245 O250 1.247 . S
C245 O251 1.208 . S
C246 O238 1.315 . S
C246 O241 1.279 . S
C247 O248 1.315 . S
C247 O249 1.279 . S
O248 Cd240 2.223 . S
O248 C247 1.315 . S
O249 Cd239 2.240 1_556 S
O249 C247 1.279 . S
O250 Cd240 2.297 . S
O250 C245 1.247 . S
O251 Cd240 2.439 . S
O251 C245 1.208 . S
C217 C7 2.691 . S
C20 C230 1.867 . S
C35 C245 1.997 . S
C160 C34 1.998 . S
C132 C6 1.866 . S
C146 C21 2.690 . S
C90 C49 2.689 . S
C62 C104 1.867 . S
C77 C118 1.997 . S
C76 C202 1.998 . S
C48 C174 1.866 . S
C63 C189 2.690 . S
C119 C244 1.998 1_656 S
C216 C91 1.866 1_554 S
C105 C231 2.693 1_546 S
C175 C133 2.692 1_565 S
C147 C188 1.866 1_655 S
C161 C203 1.998 . S
C9 C36 1.214 . S
C8 C22 1.788 1_545 S
C23 C37 1.215 1_655 S
C51 C78 1.214 . S
C64 C50 1.787 1_545 S
C65 C79 1.215 1_455 S
C92 C121 1.214 . S
C106 C93 1.789 . S
C120 C107 1.215 . S
C135 C162 1.215 . S
C134 C149 1.789 . S
C163 C148 1.214 . S
C204 C177 1.215 . S
C190 C176 1.789 . S
C205 C191 1.214 . S
C246 C219 1.214 . S
C218 C232 1.790 . S
C247 C233 1.215 . S
