# Generated by pormake.
# Topology wjd, (6)-cn, num edge types: 1
# Building blocks:
#     Node 0, Type 0, BuildingBlock: KUMBOL_clean_sbu_0, # of connection points: 6
#     Node 1, Type 0, BuildingBlock: KUMBOL_clean_sbu_0, # of connection points: 6
#     Node 2, Type 0, BuildingBlock: KUMBOL_clean_sbu_0, # of connection points: 6
#     Node 3, Type 0, BuildingBlock: KUMBOL_clean_sbu_0, # of connection points: 6
#     Node 4, Type 0, BuildingBlock: KUMBOL_clean_sbu_0, # of connection points: 6
#     Node 5, Type 0, BuildingBlock: KUMBOL_clean_sbu_0, # of connection points: 6
#     Node 6, Type 0, BuildingBlock: KUMBOL_clean_sbu_0, # of connection points: 6
#     Node 7, Type 0, BuildingBlock: KUMBOL_clean_sbu_0, # of connection points: 6
#     Node 8, Type 0, BuildingBlock: KUMBOL_clean_sbu_0, # of connection points: 6
#     Node 9, Type 0, BuildingBlock: KUMBOL_clean_sbu_0, # of connection points: 6
#     Node 10, Type 0, BuildingBlock: KUMBOL_clean_sbu_0, # of connection points: 6
#     Node 11, Type 0, BuildingBlock: KUMBOL_clean_sbu_0, # of connection points: 6
#     Edge 12, Type (0, 0), BuildingBlock: UVAHIK_clean_linker_0, # of connection points: 2
#     Edge 13, Type (0, 0), BuildingBlock: UVAHIK_clean_linker_0, # of connection points: 2
#     Edge 14, Type (0, 0), BuildingBlock: UVAHIK_clean_linker_0, # of connection points: 2
#     Edge 15, Type (0, 0), BuildingBlock: UVAHIK_clean_linker_0, # of connection points: 2
#     Edge 16, Type (0, 0), BuildingBlock: UVAHIK_clean_linker_0, # of connection points: 2
#     Edge 17, Type (0, 0), BuildingBlock: UVAHIK_clean_linker_0, # of connection points: 2
#     Edge 18, Type (0, 0), BuildingBlock: UVAHIK_clean_linker_0, # of connection points: 2
#     Edge 19, Type (0, 0), BuildingBlock: UVAHIK_clean_linker_0, # of connection points: 2
#     Edge 20, Type (0, 0), BuildingBlock: UVAHIK_clean_linker_0, # of connection points: 2
#     Edge 21, Type (0, 0), BuildingBlock: UVAHIK_clean_linker_0, # of connection points: 2
#     Edge 22, Type (0, 0), BuildingBlock: UVAHIK_clean_linker_0, # of connection points: 2
#     Edge 23, Type (0, 0), BuildingBlock: UVAHIK_clean_linker_0, # of connection points: 2
#     Edge 24, Type (0, 0), BuildingBlock: UVAHIK_clean_linker_0, # of connection points: 2
#     Edge 25, Type (0, 0), BuildingBlock: UVAHIK_clean_linker_0, # of connection points: 2
#     Edge 26, Type (0, 0), BuildingBlock: UVAHIK_clean_linker_0, # of connection points: 2
#     Edge 27, Type (0, 0), BuildingBlock: UVAHIK_clean_linker_0, # of connection points: 2
#     Edge 28, Type (0, 0), BuildingBlock: UVAHIK_clean_linker_0, # of connection points: 2
#     Edge 29, Type (0, 0), BuildingBlock: UVAHIK_clean_linker_0, # of connection points: 2
#     Edge 30, Type (0, 0), BuildingBlock: UVAHIK_clean_linker_0, # of connection points: 2
#     Edge 31, Type (0, 0), BuildingBlock: UVAHIK_clean_linker_0, # of connection points: 2
#     Edge 32, Type (0, 0), BuildingBlock: UVAHIK_clean_linker_0, # of connection points: 2
#     Edge 33, Type (0, 0), BuildingBlock: UVAHIK_clean_linker_0, # of connection points: 2
#     Edge 34, Type (0, 0), BuildingBlock: UVAHIK_clean_linker_0, # of connection points: 2
#     Edge 35, Type (0, 0), BuildingBlock: UVAHIK_clean_linker_0, # of connection points: 2
#     Edge 36, Type (0, 0), BuildingBlock: UVAHIK_clean_linker_0, # of connection points: 2
#     Edge 37, Type (0, 0), BuildingBlock: UVAHIK_clean_linker_0, # of connection points: 2
#     Edge 38, Type (0, 0), BuildingBlock: UVAHIK_clean_linker_0, # of connection points: 2
#     Edge 39, Type (0, 0), BuildingBlock: UVAHIK_clean_linker_0, # of connection points: 2
#     Edge 40, Type (0, 0), BuildingBlock: UVAHIK_clean_linker_0, # of connection points: 2
#     Edge 41, Type (0, 0), BuildingBlock: UVAHIK_clean_linker_0, # of connection points: 2
#     Edge 42, Type (0, 0), BuildingBlock: UVAHIK_clean_linker_0, # of connection points: 2
#     Edge 43, Type (0, 0), BuildingBlock: UVAHIK_clean_linker_0, # of connection points: 2
#     Edge 44, Type (0, 0), BuildingBlock: UVAHIK_clean_linker_0, # of connection points: 2
#     Edge 45, Type (0, 0), BuildingBlock: UVAHIK_clean_linker_0, # of connection points: 2
#     Edge 46, Type (0, 0), BuildingBlock: UVAHIK_clean_linker_0, # of connection points: 2
#     Edge 47, Type (0, 0), BuildingBlock: UVAHIK_clean_linker_0, # of connection points: 2
# Relax obj value: 0.099
# Max RMSD: 0.208
# Mean RMSD: 0.208
data_MOF--net-wjd--node1-KUMBOL_clean_sbu_0--edge1-UVAHIK_clean_linker_0
_symmetry_space_group_name_H-M    P1
_symmetry_Int_Tables_number       1
_symmetry_cell_setting            triclinic
loop_
_symmetry_equiv_pos_as_xyz
'x, y, z'
_cell_length_a     47.41189
_cell_length_b     47.342721
_cell_length_c     71.45091
_cell_angle_alpha  90.037841
_cell_angle_beta   90.02333
_cell_angle_gamma 120.00747
loop_
_atom_site_label
_atom_site_type_symbol
_atom_site_fract_x
_atom_site_fract_y
_atom_site_fract_z
_atom_type_partial_charge
Gd0 Gd 0.32293 0.0991 0.12666 0.0
Gd1 Gd 0.37033 0.18216 0.10865 0.0
C2 C 0.30649 0.22806 0.09968 0.0
C3 C 0.30438 0.23033 0.06578 0.0
C4 C 0.33521 0.20812 0.08072 0.0
C5 C 0.32604 0.21346 0.09811 0.0
C6 C 0.32559 0.21778 0.06437 0.0
C7 C 0.29486 0.2355 0.08342 0.0
C8 C 0.30001 0.23562 0.11752 0.0
C9 C 0.31376 0.22951 0.13318 0.0
N10 N 0.33794 0.20626 0.11352 0.0
C11 C 0.33296 0.21498 0.13089 0.0
H12 H 0.34379 0.21089 0.14306 0.0
C13 C 0.37254 0.19913 0.06352 0.0
N14 N 0.35672 0.1972 0.07994 0.0
C15 C 0.36328 0.20774 0.04687 0.0
C16 C 0.33917 0.21644 0.04723 0.0
H17 H 0.39146 0.19271 0.06324 0.0
H18 H 0.27943 0.24627 0.08435 0.0
H19 H 0.34354 0.0531 0.09896 0.0
H20 H 0.28505 0.24678 0.11932 0.0
H21 H 0.3095 0.2359 0.14702 0.0
H22 H 0.29634 0.23744 0.05336 0.0
H23 H 0.29938 0.09486 0.1724 0.0
H24 H 0.41441 0.03985 0.12826 0.0
H25 H 0.38261 0.03368 0.0996 0.0
H26 H 0.40737 0.07171 0.19082 0.0
H27 H 0.37496 0.20796 0.03381 0.0
H28 H 0.3324 0.22363 0.03436 0.0
H29 H 0.42424 0.05509 0.16226 0.0
H30 H 0.32041 0.09286 0.20349 0.0
N31 N 0.35485 0.07334 0.12656 0.0
C32 C 0.39752 0.04896 0.12801 0.0
C33 C 0.37965 0.04547 0.11182 0.0
C34 C 0.39188 0.06237 0.14403 0.0
C35 C 0.36971 0.07401 0.14292 0.0
C36 C 0.35784 0.05724 0.11144 0.0
N37 N 0.33631 0.09085 0.15749 0.0
C38 C 0.36033 0.0834 0.15892 0.0
C39 C 0.33218 0.09055 0.19107 0.0
C40 C 0.35912 0.08628 0.19268 0.0
C41 C 0.32045 0.09179 0.17333 0.0
C42 C 0.37277 0.0814 0.17652 0.0
H43 H 0.36801 0.08504 0.20645 0.0
O44 O 0.27629 0.07101 0.1407 0.0
O45 O 0.32234 0.14498 0.11982 0.0
O46 O 0.37632 0.18077 0.14031 0.0
O47 O 0.32696 0.13593 0.14808 0.0
O48 O 0.28596 0.10244 0.10834 0.0
O49 O 0.28793 0.05076 0.1167 0.0
O50 O 0.41842 0.21738 0.09809 0.0
O51 O 0.37366 0.14053 0.12099 0.0
O52 O 0.33392 0.09629 0.09648 0.0
O53 O 0.34648 0.14678 0.08402 0.0
O54 O 0.40167 0.16343 0.09731 0.0
O55 O 0.40105 0.22758 0.12354 0.0
C56 C 0.29652 0.13306 0.11025 0.0
C57 C 0.39705 0.07272 0.17748 0.0
C58 C 0.40659 0.0632 0.16123 0.0
C59 C 0.2664 0.0462 0.12944 0.0
C60 C 0.24855 0.01355 0.13766 0.0
C61 C 0.26414 1.00183 0.14934 0.0
C62 C 0.21549 0.99341 0.13313 0.0
C63 C 0.1979 0.96134 0.14004 0.0
C64 C 0.24678 0.97012 0.15638 0.0
C65 C 0.21395 0.94993 0.15174 0.0
C66 C 0.3538 0.16293 0.15279 0.0
C67 C 0.39472 0.14115 0.10973 0.0
C68 C 0.4239 0.23895 0.11097 0.0
C69 C 0.43475 0.27242 0.10448 0.0
C70 C 0.41504 0.27818 0.09226 0.0
C71 C 0.46422 0.29898 0.1109 0.0
C72 C 0.47331 0.331 0.1053 0.0
C73 C 0.42414 0.30966 0.08652 0.0
C74 C 0.45303 0.33595 0.09301 0.0
C75 C 0.3382 0.11567 0.08224 0.0
H76 H 0.28965 0.0171 0.15287 0.0
H77 H 0.20369 1.00251 0.12387 0.0
H78 H 0.25884 0.96108 0.16541 0.0
H79 H 0.20103 0.9255 0.15748 0.0
H80 H 0.39251 0.25845 0.08718 0.0
H81 H 0.47957 0.29488 0.12046 0.0
H82 H 0.40866 0.3137 0.07706 0.0
H83 H 0.45967 0.36026 0.08831 0.0
Gd84 Gd 0.84082 0.66149 0.39941 0.0
Gd85 Gd 0.79521 0.69729 0.37714 0.0
C86 C 0.68937 0.63668 0.35831 0.0
C87 C 0.69438 0.64129 0.32444 0.0
C88 C 0.74244 0.66937 0.34415 0.0
C89 C 0.72342 0.65675 0.35995 0.0
C90 C 0.72813 0.66223 0.32621 0.0
C91 C 0.67503 0.62853 0.34047 0.0
C92 C 0.6707 0.62607 0.37466 0.0
C93 C 0.68596 0.63645 0.39203 0.0
N94 N 0.73806 0.66531 0.37695 0.0
C95 C 0.71979 0.65656 0.39291 0.0
H96 H 0.73118 0.66423 0.40645 0.0
C97 C 0.79431 0.705 0.33131 0.0
N98 N 0.7749 0.68959 0.34639 0.0
C99 C 0.7813 0.69853 0.31322 0.0
C100 C 0.74811 0.6768 0.31063 0.0
H101 H 0.82003 0.72163 0.33311 0.0
H102 H 0.64894 0.61292 0.33892 0.0
H103 H 0.90239 0.68691 0.36872 0.0
H104 H 0.64449 0.6105 0.37402 0.0
H105 H 0.6717 0.62887 0.40476 0.0
H106 H 0.68294 0.6353 0.31077 0.0
H107 H 0.82125 0.63943 0.444 0.0
H108 H 0.99215 0.74446 0.39786 0.0
H109 H 0.96214 0.7203 0.36845 0.0
H110 H 0.95916 0.73157 0.46212 0.0
H111 H 0.79691 0.71021 0.30129 0.0
H112 H 0.73807 0.67187 0.2966 0.0
H113 H 0.9907 0.74938 0.43286 0.0
H114 H 0.84713 0.65419 0.47525 0.0
N115 N 0.89808 0.69295 0.39793 0.0
C116 C 0.96581 0.72987 0.39808 0.0
C117 C 0.94897 0.7162 0.38146 0.0
C118 C 0.94852 0.72351 0.41487 0.0
C119 C 0.91425 0.70447 0.41434 0.0
C120 C 0.91497 0.69732 0.38168 0.0
N121 N 0.86423 0.6732 0.42953 0.0
C122 C 0.89663 0.69446 0.43073 0.0
C123 C 0.86131 0.6659 0.46286 0.0
C124 C 0.89428 0.68928 0.46441 0.0
C125 C 0.84676 0.65756 0.44517 0.0
C126 C 0.91259 0.70323 0.4482 0.0
H127 H 0.90562 0.6954 0.47811 0.0
O128 O 0.82712 0.61286 0.40952 0.0
O129 O 0.79349 0.6525 0.38809 0.0
O130 O 0.78977 0.6954 0.40854 0.0
O131 O 0.83436 0.69349 0.42104 0.0
O132 O 0.79166 0.6276 0.4121 0.0
O133 O 0.85529 0.63083 0.38425 0.0
O134 O 0.81403 0.74807 0.36971 0.0
O135 O 0.84273 0.70633 0.38863 0.0
O136 O 0.84394 0.66342 0.3671 0.0
O137 O 0.79627 0.66158 0.35706 0.0
O138 O 0.8443 0.73031 0.36413 0.0
O139 O 0.77677 0.72562 0.39101 0.0
C140 C 0.77432 0.63185 0.39979 0.0
C141 C 0.94647 0.72419 0.44884 0.0
C142 C 0.96443 0.73431 0.43218 0.0
C143 C 0.84344 0.60761 0.39667 0.0
C144 C 0.86587 0.59659 0.40337 0.0
C145 C 0.89193 0.61711 0.41505 0.0
C146 C 0.86207 0.56617 0.39796 0.0
C147 C 0.88483 0.55705 0.40395 0.0
C148 C 0.91417 0.60807 0.4211 0.0
C149 C 0.91077 0.57834 0.41557 0.0
C150 C 0.81023 0.70005 0.42232 0.0
C151 C 0.86163 0.7265 0.37662 0.0
C152 C 0.79479 0.7518 0.38117 0.0
C153 C 0.7787 0.76892 0.37358 0.0
C154 C 0.75209 0.75294 0.36143 0.0
C155 C 0.79044 0.80181 0.3783 0.0
C156 C 0.77545 0.81871 0.37101 0.0
C157 C 0.73726 0.76956 0.35406 0.0
C158 C 0.74878 0.80216 0.35878 0.0
C159 C 0.82187 0.65822 0.35397 0.0
H160 H 0.89518 0.64021 0.41948 0.0
H161 H 0.84207 0.5501 0.38889 0.0
H162 H 0.9342 0.62423 0.4301 0.0
H163 H 0.92838 0.57183 0.42051 0.0
H164 H 0.74287 0.7277 0.35762 0.0
H165 H 0.81094 0.81402 0.38779 0.0
H166 H 0.7168 0.75716 0.34461 0.0
H167 H 0.73704 0.81455 0.35266 0.0
Gd168 Gd 0.92595 0.22308 0.12384 0.0
Gd169 Gd 0.84164 0.192 0.11195 0.0
C170 C 0.78785 0.08001 0.1133 0.0
C171 C 0.79169 0.06627 0.08108 0.0
C172 C 0.81474 0.12318 0.09042 0.0
C173 C 0.80491 0.11354 0.10866 0.0
C174 C 0.80735 0.09945 0.07633 0.0
C175 C 0.78198 0.05657 0.09953 0.0
C176 C 0.77688 0.0709 0.13164 0.0
C177 C 0.78174 0.09481 0.14465 0.0
N178 N 0.81153 0.13678 0.12182 0.0
C179 C 0.79846 0.12761 0.13939 0.0
H180 H 0.79983 0.14508 0.14951 0.0
C181 C 0.83386 0.1648 0.06778 0.0
N182 N 0.82997 0.15549 0.08624 0.0
C183 C 0.82752 0.14235 0.05344 0.0
C184 C 0.81494 0.10959 0.05777 0.0
H185 H 0.84056 0.18925 0.06365 0.0
H186 H 0.76941 0.03082 0.10294 0.0
H187 H 0.9624 0.27449 0.08709 0.0
H188 H 0.76387 0.04547 0.13575 0.0
H189 H 0.77219 0.08798 0.15869 0.0
H190 H 0.7863 0.04786 0.07048 0.0
H191 H 0.93557 0.22142 0.1712 0.0
H192 H 0.99164 0.3712 0.10473 0.0
H193 H 0.98488 0.33215 0.07975 0.0
H194 H 0.97617 0.36096 0.17103 0.0
H195 H 0.83154 0.15026 0.03899 0.0
H196 H 0.80966 0.09215 0.04659 0.0
H197 H 0.98776 0.3816 0.13875 0.0
H198 H 0.94562 0.25715 0.19817 0.0
N199 N 0.95257 0.27909 0.11574 0.0
C200 C 0.98104 0.34554 0.10802 0.0
C201 C 0.97709 0.32357 0.09388 0.0
C202 C 0.97245 0.33429 0.12637 0.0
C203 C 0.95858 0.30055 0.12989 0.0
C204 C 0.9634 0.29045 0.09807 0.0
N205 N 0.93987 0.25659 0.15095 0.0
C206 C 0.95156 0.28888 0.14801 0.0
C207 C 0.94668 0.26631 0.18416 0.0
C208 C 0.95522 0.29874 0.18138 0.0
C209 C 0.94016 0.24583 0.16871 0.0
C210 C 0.95889 0.31072 0.16313 0.0
H211 H 0.96059 0.31469 0.19335 0.0
O212 O 0.95418 0.20683 0.1399 0.0
O213 O 0.87744 0.17749 0.12096 0.0
O214 O 0.84514 0.19473 0.14368 0.0
O215 O 0.89404 0.1957 0.14861 0.0
O216 O 0.91638 0.17877 0.10725 0.0
O217 O 0.97366 0.234 0.11424 0.0
O218 O 0.81367 0.2055 0.09349 0.0
O219 O 0.88985 0.23815 0.11504 0.0
O220 O 0.92345 0.21977 0.09287 0.0
O221 O 0.87527 0.21989 0.08699 0.0
O222 O 0.85023 0.2345 0.12954 0.0
O223 O 0.79431 0.18433 0.12043 0.0
C224 C 0.88603 0.16076 0.11126 0.0
C225 C 0.97097 0.34398 0.15961 0.0
C226 C 0.9777 0.35574 0.14125 0.0
C227 C 0.97864 0.21964 0.12831 0.0
C228 C 1.01147 0.23627 0.13629 0.0
C229 C 0.02257 0.26439 0.14726 0.0
C230 C 0.03248 0.22432 0.13207 0.0
C231 C 0.06472 0.24037 0.1387 0.0
C232 C 0.05448 0.28035 0.15403 0.0
C233 C 0.07549 0.26852 0.14978 0.0
C234 C 0.86653 0.19307 0.15482 0.0
C235 C 0.88041 0.25356 0.12547 0.0
C236 C 0.78855 0.19397 0.10462 0.0
C237 C 0.75609 0.17226 0.09644 0.0
C238 C 0.75219 0.15019 0.08219 0.0
C239 C 0.72834 0.17223 0.10363 0.0
C240 C 0.69703 0.1499 0.09677 0.0
C241 C 0.72136 0.12839 0.07523 0.0
C242 C 0.69396 0.12813 0.08247 0.0
C243 C 0.90288 0.22158 0.08137 0.0
H244 H 1.00674 0.2741 0.15044 0.0
H245 H 0.02388 0.2029 0.12325 0.0
H246 H 0.06302 0.30203 0.16255 0.0
H247 H 0.10006 0.28122 0.1553 0.0
H248 H 0.77285 0.14955 0.07645 0.0
H249 H 0.73103 0.1889 0.11481 0.0
H250 H 0.71868 0.11148 0.06423 0.0
H251 H 0.67027 0.11098 0.07677 0.0
Gd252 Gd 0.36812 0.18182 0.39699 0.0
Gd253 Gd 0.32553 0.09963 0.37687 0.0
C254 C 0.3914 0.05452 0.38053 0.0
C255 C 0.42201 0.0729 0.35156 0.0
C256 C 0.37939 0.0858 0.35843 0.0
C257 C 0.37362 0.06997 0.37541 0.0
C258 C 0.40284 0.08636 0.346 0.0
C259 C 0.41634 0.05705 0.36883 0.0
C260 C 0.38302 0.03624 0.39702 0.0
C261 C 0.35624 0.03206 0.4073 0.0
N262 N 0.34964 0.06836 0.38653 0.0
C263 C 0.3392 0.04756 0.40155 0.0
H264 H 0.31759 0.04253 0.40925 0.0
C265 C 0.36067 0.10786 0.33533 0.0
N266 N 0.36055 0.09867 0.35351 0.0
C267 C 0.38368 0.10931 0.32258 0.0
C268 C 0.40553 0.09937 0.32811 0.0
H269 H 0.34261 0.11337 0.33023 0.0
H270 H 0.43066 0.04593 0.37273 0.0
H271 H 0.33865 0.20989 0.36393 0.0
H272 H 0.39614 0.02412 0.40146 0.0
H273 H 0.34844 0.01657 0.41956 0.0
H274 H 0.44056 0.07371 0.34236 0.0
H275 H 0.39117 0.19054 0.44192 0.0
H276 H 0.28155 0.24563 0.3901 0.0
H277 H 0.30421 0.23505 0.36149 0.0
H278 H 0.29725 0.2358 0.4555 0.0
H279 H 0.38411 0.11756 0.30839 0.0
H280 H 0.4232 0.10024 0.31816 0.0
H281 H 0.2782 0.24479 0.42523 0.0
H282 H 0.37659 0.20546 0.47214 0.0
N283 N 0.33493 0.20529 0.39354 0.0
C284 C 0.29667 0.23452 0.39124 0.0
C285 C 0.30943 0.22862 0.37507 0.0
C286 C 0.30434 0.22685 0.40873 0.0
C287 C 0.32407 0.21236 0.40943 0.0
C288 C 0.32879 0.2141 0.3765 0.0
N289 N 0.35594 0.19602 0.42634 0.0
C290 C 0.33452 0.20708 0.42641 0.0
C291 C 0.3643 0.20569 0.45942 0.0
C292 C 0.34041 0.2147 0.45993 0.0
C293 C 0.37249 0.19727 0.44234 0.0
C294 C 0.32589 0.21643 0.44323 0.0
H295 H 0.33441 0.22165 0.47315 0.0
O296 O 0.41774 0.21542 0.40639 0.0
O297 O 0.37443 0.14186 0.38446 0.0
O298 O 0.32536 0.09509 0.40806 0.0
O299 O 0.3403 0.14615 0.42086 0.0
O300 O 0.39699 0.16166 0.41005 0.0
O301 O 0.3974 0.22931 0.38381 0.0
O302 O 0.29452 0.07634 0.35276 0.0
O303 O 0.32209 0.14372 0.38398 0.0
O304 O 0.37453 0.18363 0.36519 0.0
O305 O 0.32858 0.13616 0.35559 0.0
O306 O 0.28341 0.09904 0.39188 0.0
O307 O 0.28331 0.05042 0.37954 0.0
C308 C 0.39305 0.14119 0.39701 0.0
C309 C 0.30453 0.2289 0.44271 0.0
C310 C 0.29378 0.23411 0.42547 0.0
C311 C 0.42202 0.23875 0.39507 0.0
C312 C 0.43495 0.27162 0.40336 0.0
C313 C 0.41752 0.27644 0.41764 0.0
C314 C 0.46403 0.29863 0.3967 0.0
C315 C 0.47499 0.33008 0.40423 0.0
C316 C 0.42859 0.30719 0.42535 0.0
C317 C 0.45705 0.33381 0.41873 0.0
C318 C 0.32833 0.11417 0.42228 0.0
C319 C 0.29442 0.13001 0.39175 0.0
C320 C 0.27507 0.05015 0.36214 0.0
C321 C 0.24666 0.02213 0.35331 0.0
C322 C 0.2473 0.01714 0.33398 0.0
C323 C 0.21891 1.00039 0.3638 0.0
C324 C 0.19236 0.9738 0.35487 0.0
C325 C 0.22107 0.99079 0.32521 0.0
C326 C 0.19383 0.9692 0.33557 0.0
C327 C 0.35353 0.16543 0.35209 0.0
H328 H 0.39521 0.25657 0.42283 0.0
H329 H 0.47751 0.29535 0.38548 0.0
H330 H 0.4149 0.31043 0.43643 0.0
H331 H 0.46511 0.35749 0.425 0.0
H332 H 0.26827 0.03349 0.32564 0.0
H333 H 0.21795 1.00406 0.37871 0.0
H334 H 0.22188 0.98707 0.31032 0.0
H335 H 0.17368 0.9489 0.32846 0.0
Gd336 Gd 0.79592 0.70129 0.128 0.0
Gd337 Gd 0.83713 0.65911 0.10996 0.0
C338 C 0.94642 0.72569 0.10085 0.0
C339 C 0.95074 0.72686 0.06696 0.0
C340 C 0.8979 0.69539 0.08197 0.0
C341 C 0.91235 0.70545 0.09933 0.0
C342 C 0.91712 0.70498 0.06561 0.0
C343 C 0.96539 0.73713 0.08456 0.0
C344 C 0.96052 0.7329 0.11868 0.0
C345 C 0.94085 0.71922 0.13438 0.0
N346 N 0.89338 0.69351 0.11477 0.0
C347 C 0.9072 0.69929 0.13215 0.0
H348 H 0.89251 0.68856 0.14439 0.0
C349 C 0.85196 0.65677 0.06494 0.0
N350 N 0.86567 0.67312 0.08127 0.0
C351 C 0.86975 0.666 0.04827 0.0
C352 C 0.90234 0.69071 0.04854 0.0
H353 H 0.82679 0.63738 0.06475 0.0
H354 H 0.99154 0.75297 0.08545 0.0
H355 H 0.76045 0.72866 0.09715 0.0
H356 H 0.98659 0.74837 0.12044 0.0
H357 H 0.95155 0.72406 0.14822 0.0
H358 H 0.96585 0.73482 0.05453 0.0
H359 H 0.78083 0.66666 0.17117 0.0
H360 H 0.65831 0.65954 0.09558 0.0
H361 H 0.70594 0.70985 0.08367 0.0
H362 H 0.64327 0.59139 0.14844 0.0
H363 H 0.85841 0.65384 0.03528 0.0
H364 H 0.91626 0.69744 0.03567 0.0
H365 H 0.63519 0.61495 0.11966 0.0
H366 H 0.73578 0.62222 0.1881 0.0
N367 N 0.74425 0.68808 0.11561 0.0
C368 C 0.68221 0.66761 0.10148 0.0
C369 C 0.70899 0.69604 0.09476 0.0
C370 C 0.68629 0.65107 0.11651 0.0
C371 C 0.71797 0.66248 0.12359 0.0
C372 C 0.73979 0.7066 0.10246 0.0
N373 N 0.75308 0.66226 0.14679 0.0
C374 C 0.72247 0.64938 0.13981 0.0
C375 C 0.73172 0.62907 0.17433 0.0
C376 C 0.70056 0.61367 0.1666 0.0
C377 C 0.75763 0.65381 0.16435 0.0
C378 C 0.69544 0.6243 0.14934 0.0
H379 H 0.68048 0.59451 0.17436 0.0
O380 O 0.7956 0.72568 0.15378 0.0
O381 O 0.84406 0.70564 0.12161 0.0
O382 O 0.83216 0.65391 0.14174 0.0
O383 O 0.82694 0.69815 0.15101 0.0
O384 O 0.83604 0.74173 0.11113 0.0
O385 O 0.8008 0.74958 0.12674 0.0
O386 O 0.82493 0.61093 0.09957 0.0
O387 O 0.79134 0.65259 0.12286 0.0
O388 O 0.78465 0.69161 0.09739 0.0
O389 O 0.82538 0.68301 0.0853 0.0
O390 O 0.78729 0.62624 0.09856 0.0
O391 O 0.85381 0.62969 0.12445 0.0
C392 C 0.8571 0.73225 0.11271 0.0
C393 C 0.66418 0.61116 0.14156 0.0
C394 C 0.65961 0.62451 0.12515 0.0
C395 C 0.79899 0.75118 0.14483 0.0
C396 C 0.80074 0.77964 0.15448 0.0
C397 C 0.79576 0.77845 0.17391 0.0
C398 C 0.80653 0.80776 0.14447 0.0
C399 C 0.80655 0.83391 0.15386 0.0
C400 C 0.79602 0.8045 0.18319 0.0
C401 C 0.80118 0.83199 0.17324 0.0
C402 C 0.8332 0.67447 0.15466 0.0
C403 C 0.77146 0.63156 0.11142 0.0
C404 C 0.84193 0.60626 0.11219 0.0
C405 C 0.86456 0.59558 0.1054 0.0
C406 C 0.89122 0.61669 0.09431 0.0
C407 C 0.86058 0.56497 0.11049 0.0
C408 C 0.88365 0.55616 0.10469 0.0
C409 C 0.91363 0.60785 0.0883 0.0
C410 C 0.90998 0.57788 0.09347 0.0
C411 C 0.80136 0.68957 0.08329 0.0
H412 H 0.79133 0.75723 0.18195 0.0
H413 H 0.81047 0.80916 0.12947 0.0
H414 H 0.79203 0.80329 0.19815 0.0
H415 H 0.80117 0.85193 0.18068 0.0
H416 H 0.89497 0.64019 0.0904 0.0
H417 H 0.84029 0.54858 0.11925 0.0
H418 H 0.93408 0.62443 0.07972 0.0
H419 H 0.92782 0.57159 0.08865 0.0
Gd420 Gd 0.84159 0.19236 0.39867 0.0
Gd421 Gd 0.92524 0.22207 0.38625 0.0
C422 C 0.97281 0.33336 0.38376 0.0
C423 C 0.97055 0.343 0.35059 0.0
C424 C 0.95081 0.28783 0.36212 0.0
C425 C 0.95846 0.29957 0.38022 0.0
C426 C 0.95798 0.30966 0.34703 0.0
C427 C 0.97792 0.35483 0.36893 0.0
C428 C 0.982 0.34464 0.40207 0.0
C429 C 0.97819 0.32264 0.41614 0.0
N430 N 0.95259 0.27811 0.39432 0.0
C431 C 0.96405 0.28947 0.41192 0.0
H432 H 0.96324 0.27347 0.42281 0.0
C433 C 0.93826 0.24456 0.34131 0.0
N434 N 0.93863 0.25547 0.35914 0.0
C435 C 0.94458 0.26502 0.32591 0.0
C436 C 0.95362 0.29757 0.32876 0.0
H437 H 0.93335 0.22005 0.33874 0.0
H438 H 0.98834 0.38073 0.37145 0.0
H439 H 0.79741 0.14563 0.36158 0.0
H440 H 0.99297 0.37035 0.40537 0.0
H441 H 0.98648 0.33124 0.43022 0.0
H442 H 0.97564 0.35998 0.3392 0.0
H443 H 0.84246 0.19009 0.44691 0.0
H444 H 0.75969 0.04576 0.37536 0.0
H445 H 0.76802 0.08839 0.35254 0.0
H446 H 0.7851 0.04825 0.4402 0.0
H447 H 0.943 0.25576 0.31186 0.0
H448 H 0.95884 0.31352 0.31681 0.0
H449 H 0.76642 0.0311 0.40795 0.0
H450 H 0.83363 0.15112 0.47151 0.0
N451 N 0.81003 0.13713 0.38898 0.0
C452 C 0.77347 0.07121 0.37939 0.0
C453 C 0.77832 0.09519 0.36645 0.0
C454 C 0.78545 0.08033 0.39757 0.0
C455 C 0.80347 0.11389 0.4021 0.0
C456 C 0.79603 0.12803 0.37161 0.0
N457 N 0.83026 0.15595 0.42433 0.0
C458 C 0.81426 0.12358 0.42022 0.0
C459 C 0.82887 0.14306 0.45709 0.0
C460 C 0.81551 0.11017 0.45278 0.0
C461 C 0.83508 0.16547 0.44276 0.0
C462 C 0.80697 0.09989 0.43429 0.0
H463 H 0.81032 0.09276 0.46395 0.0
O464 O 0.81416 0.20571 0.41767 0.0
O465 O 0.89 0.23821 0.39523 0.0
O466 O 0.9233 0.21872 0.41723 0.0
O467 O 0.87627 0.22083 0.42325 0.0
O468 O 0.85014 0.2346 0.38093 0.0
O469 O 0.79483 0.18642 0.39039 0.0
O470 O 0.953 0.20581 0.36974 0.0
O471 O 0.87654 0.17693 0.38939 0.0
O472 O 0.84434 0.19427 0.36687 0.0
O473 O 0.89272 0.19436 0.36172 0.0
O474 O 0.91547 0.17758 0.40272 0.0
O475 O 0.97296 0.23248 0.39553 0.0
C476 C 0.88043 0.25354 0.38481 0.0
C477 C 0.79043 0.06665 0.42962 0.0
C478 C 0.77969 0.05688 0.41129 0.0
C479 C 0.78915 0.19524 0.40649 0.0
C480 C 0.75653 0.17331 0.41439 0.0
C481 C 0.75223 0.15024 0.42807 0.0
C482 C 0.72902 0.17395 0.40736 0.0
C483 C 0.69752 0.15128 0.41378 0.0
C484 C 0.7212 0.12805 0.43458 0.0
C485 C 0.69402 0.12844 0.42748 0.0
C486 C 0.90353 0.22166 0.42884 0.0
C487 C 0.88497 0.15992 0.39894 0.0
C488 C 0.97769 0.21844 0.38119 0.0
C489 C 1.01032 0.23541 0.373 0.0
C490 C 0.02105 0.26382 0.36237 0.0
C491 C 0.03151 0.22348 0.37665 0.0
C492 C 0.06357 0.2398 0.36977 0.0
C493 C 0.05278 0.28007 0.35536 0.0
C494 C 0.07397 0.26823 0.35903 0.0
C495 C 0.86526 0.192 0.35564 0.0
H496 H 0.77272 0.1491 0.43368 0.0
H497 H 0.73204 0.1914 0.39661 0.0
H498 H 0.71818 0.11034 0.44513 0.0
H499 H 0.67017 0.11097 0.43282 0.0
H500 H 1.00509 0.27353 0.35964 0.0
H501 H 0.0232 0.20184 0.38522 0.0
H502 H 0.06103 0.30198 0.34711 0.0
H503 H 0.09839 0.28115 0.35333 0.0
Gd504 Gd 0.1895 0.36445 0.6115 0.0
Gd505 Gd 0.10509 0.32176 0.6274 0.0
C506 C 0.05747 0.36349 0.6651 0.0
C507 C 0.0549 0.33745 0.69491 0.0
C508 C 0.07788 0.32587 0.6676 0.0
C509 C 0.0725 0.3472 0.65703 0.0
C510 C 0.06911 0.32062 0.68663 0.0
C511 C 0.04906 0.3588 0.68416 0.0
C512 C 0.05076 0.38341 0.65364 0.0
C513 C 0.05805 0.38578 0.63456 0.0
N514 N 0.08076 0.35096 0.63865 0.0
C515 C 0.07262 0.36879 0.6272 0.0
H516 H 0.07756 0.37009 0.61238 0.0
C517 C 0.09658 0.28792 0.66864 0.0
N518 N 0.09216 0.31048 0.6592 0.0
C519 C 0.08838 0.28195 0.6876 0.0
C520 C 0.0748 0.29854 0.69668 0.0
H521 H 0.10717 0.27525 0.66153 0.0
H522 H 0.03765 0.37125 0.69065 0.0
H523 H 0.2272 0.33788 0.64066 0.0
H524 H 0.03929 0.39643 0.65929 0.0
H525 H 0.05229 0.40051 0.62549 0.0
H526 H 0.04806 0.33388 0.70955 0.0
H527 H 0.19367 0.39109 0.56688 0.0
H528 H 0.25552 0.27961 0.60904 0.0
H529 H 0.25247 0.30358 0.63917 0.0
H530 H 0.2325 0.29471 0.54593 0.0
H531 H 0.09254 0.2646 0.6952 0.0
H532 H 0.0685 0.2939 0.71136 0.0
H533 H 0.24669 0.27534 0.57435 0.0
H534 H 0.20361 0.37687 0.53521 0.0
N535 N 0.21478 0.33267 0.61168 0.0
C536 C 0.24429 0.29467 0.60958 0.0
C537 C 0.24267 0.3082 0.62661 0.0
C538 C 0.2326 0.30182 0.59333 0.0
C539 C 0.21814 0.32155 0.59477 0.0
C540 C 0.22801 0.32748 0.62739 0.0
N541 N 0.1993 0.35409 0.58046 0.0
C542 C 0.20977 0.33222 0.57871 0.0
C543 C 0.20501 0.36384 0.54728 0.0
C544 C 0.21253 0.33905 0.54507 0.0
C545 C 0.19956 0.3719 0.56521 0.0
C546 C 0.21616 0.32373 0.5609 0.0
H547 H 0.2172 0.33317 0.53118 0.0
O548 O 0.2216 0.41259 0.59974 0.0
O549 O 0.14451 0.36823 0.61549 0.0
O550 O 0.10857 0.34351 0.59908 0.0
O551 O 0.15166 0.33984 0.58731 0.0
O552 O 0.1878 0.40736 0.62378 0.0
O553 O 0.23877 0.39398 0.62208 0.0
O554 O 0.07052 0.26979 0.62727 0.0
O555 O 0.15132 0.31944 0.6247 0.0
O556 O 0.18814 0.35536 0.64316 0.0
O557 O 0.13727 0.34723 0.65222 0.0
O558 O 0.10912 0.27894 0.61678 0.0
O559 O 0.0581 0.30335 0.61382 0.0
C560 C 0.15706 0.39591 0.62313 0.0
C561 C 0.22802 0.30195 0.55949 0.0
C562 C 0.23622 0.291 0.57568 0.0
C563 C 0.24638 0.41764 0.61019 0.0
C564 C 0.27835 0.43059 0.60089 0.0
C565 C 0.28207 0.41359 0.58592 0.0
C566 C 0.30586 0.45926 0.60755 0.0
C567 C 0.33677 0.47022 0.5994 0.0
C568 C 0.31238 0.42465 0.57764 0.0
C569 C 0.33955 0.45266 0.58433 0.0
C570 C 0.12312 0.33837 0.58489 0.0
C571 C 0.1399 0.29132 0.6179 0.0
C572 C 0.04804 0.27316 0.61876 0.0
C573 C 1.01505 0.25428 0.62667 0.0
C574 C 1.0026 0.26915 0.63844 0.0
C575 C 0.99586 0.22078 0.62256 0.0
C576 C 0.96412 0.20239 0.62988 0.0
C577 C 0.9714 0.25096 0.64594 0.0
C578 C 0.95222 0.21788 0.64166 0.0
C579 C 0.1676 0.35497 0.65603 0.0
H580 H 0.26174 0.39159 0.58065 0.0
H581 H 0.30341 0.47239 0.61928 0.0
H582 H 0.31486 0.41127 0.56607 0.0
H583 H 0.36288 0.46071 0.57768 0.0
H584 H 0.01687 0.29479 0.6418 0.0
H585 H 1.00541 0.20923 0.61344 0.0
H586 H 0.96198 0.26257 0.65506 0.0
H587 H 0.9281 0.2043 0.64771 0.0
Gd588 Gd 0.22775 0.9193 0.88288 0.0
Gd589 Gd 0.1991 0.83624 0.89675 0.0
C590 C 0.08728 0.77986 0.89562 0.0
C591 C 0.07352 0.78478 0.92766 0.0
C592 C 0.13043 0.80892 0.91828 0.0
C593 C 0.1208 0.79799 0.90016 0.0
C594 C 0.10671 0.80162 0.93232 0.0
C595 C 0.06383 0.77393 0.90934 0.0
C596 C 0.07822 0.76803 0.8774 0.0
C597 C 0.1022 0.77326 0.8644 0.0
N598 N 0.14402 0.80479 0.887 0.0
C599 C 0.13499 0.7911 0.86955 0.0
H600 H 0.15259 0.79284 0.85945 0.0
C601 C 0.17227 0.83081 0.94083 0.0
N602 N 0.16276 0.82534 0.92239 0.0
C603 C 0.14981 0.82455 0.95511 0.0
C604 C 0.11692 0.81059 0.95079 0.0
H605 H 0.19692 0.8386 0.94503 0.0
H606 H 0.03809 0.76053 0.90599 0.0
H607 H 0.2811 0.95724 0.91859 0.0
H608 H 0.05281 0.75418 0.87337 0.0
H609 H 0.09545 0.76318 0.85044 0.0
H610 H 0.05511 0.77941 0.93822 0.0
H611 H 0.22235 0.92512 0.83541 0.0
H612 H 0.37688 0.98793 0.89888 0.0
H613 H 0.33933 0.98134 0.92466 0.0
H614 H 0.36239 0.96887 0.83293 0.0
H615 H 0.15784 0.82971 0.96952 0.0
H616 H 0.09949 0.80539 0.96193 0.0
H617 H 0.38515 0.98267 0.86472 0.0
H618 H 0.25646 0.93435 0.8078 0.0
N619 N 0.28413 0.94697 0.8898 0.0
C620 C 0.35101 0.97677 0.89613 0.0
C621 C 0.32989 0.97295 0.91072 0.0
C622 C 0.33861 0.96715 0.87805 0.0
C623 C 0.30465 0.95254 0.87522 0.0
C624 C 0.2965 0.95848 0.90723 0.0
N625 N 0.25927 0.93178 0.85507 0.0
C626 C 0.29178 0.94422 0.85738 0.0
C627 C 0.26664 0.93659 0.82165 0.0
C628 C 0.29938 0.946 0.82383 0.0
C629 C 0.24717 0.93066 0.83747 0.0
C630 C 0.31262 0.95105 0.84183 0.0
H631 H 0.31454 0.95093 0.81155 0.0
O632 O 0.20956 0.94586 0.86682 0.0
O633 O 0.18309 0.87039 0.8867 0.0
O634 O 0.2027 0.83806 0.86511 0.0
O635 O 0.20016 0.88487 0.85893 0.0
O636 O 0.18371 0.90984 0.89952 0.0
O637 O 0.23908 0.9678 0.89146 0.0
O638 O 0.21336 0.80984 0.91597 0.0
O639 O 0.24433 0.88498 0.893 0.0
O640 O 0.22547 0.91895 0.91392 0.0
O641 O 0.22682 0.87172 0.92102 0.0
O642 O 0.24222 0.84503 0.87974 0.0
O643 O 0.19194 0.78859 0.88931 0.0
C644 C 0.16624 0.87914 0.89614 0.0
C645 C 0.34615 0.964 0.84468 0.0
C646 C 0.35912 0.97201 0.86276 0.0
C647 C 0.22332 0.97143 0.87764 0.0
C648 C 0.23911 1.00348 0.86859 0.0
C649 C 0.26498 0.01261 0.85608 0.0
C650 C 0.22853 0.02561 0.87302 0.0
C651 C 0.24371 0.05693 0.86498 0.0
C652 C 0.27989 0.04346 0.84787 0.0
C653 C 0.26938 0.06548 0.85224 0.0
C654 C 0.19982 0.85804 0.8534 0.0
C655 C 0.26054 0.87563 0.88323 0.0
C656 C 0.20187 0.78399 0.90535 0.0
C657 C 0.18055 0.75195 0.91414 0.0
C658 C 0.15987 0.74903 0.92898 0.0
C659 C 0.17962 0.72366 0.90706 0.0
C660 C 0.15785 0.69274 0.91465 0.0
C661 C 0.13859 0.71862 0.93663 0.0
C662 C 0.13751 0.69068 0.92954 0.0
C663 C 0.22787 0.89936 0.92598 0.0
H664 H 0.27372 0.99605 0.85273 0.0
H665 H 0.20894 0.01862 0.88302 0.0
H666 H 0.29974 0.05037 0.83811 0.0
H667 H 0.28123 0.08914 0.84552 0.0
H668 H 0.15999 0.77013 0.93468 0.0
H669 H 0.19521 0.72563 0.89545 0.0
H670 H 0.12279 0.71668 0.94808 0.0
H671 H 0.12088 0.66737 0.93586 0.0
Gd672 Gd 0.66304 0.83271 0.60914 0.0
Gd673 Gd 0.71051 0.79699 0.62693 0.0
C674 C 0.64179 0.68712 0.63435 0.0
C675 C 0.62732 0.68352 0.66719 0.0
C676 C 0.6667 0.73573 0.65359 0.0
C677 C 0.66275 0.72111 0.63633 0.0
C678 C 0.65005 0.71679 0.66939 0.0
C679 C 0.6232 0.66868 0.64968 0.0
C680 C 0.64086 0.67249 0.61721 0.0
C681 C 0.66184 0.69132 0.60292 0.0
N682 N 0.68095 0.73969 0.62176 0.0
C683 C 0.68228 0.72484 0.60557 0.0
H684 H 0.69915 0.73828 0.59451 0.0
C685 C 0.69953 0.78095 0.67274 0.0
N686 N 0.6892 0.76777 0.65527 0.0
C687 C 0.68348 0.76344 0.68878 0.0
C688 C 0.65795 0.73144 0.68706 0.0
H689 H 0.71995 0.8053 0.67449 0.0
H690 H 0.60647 0.64273 0.6483 0.0
H691 H 0.6893 0.88736 0.64383 0.0
H692 H 0.62502 0.64652 0.61511 0.0
H693 H 0.66243 0.68 0.58988 0.0
H694 H 0.61385 0.66876 0.67909 0.0
H695 H 0.64151 0.82169 0.56376 0.0
H696 H 0.74423 0.98285 0.62038 0.0
H697 H 0.72173 0.94688 0.648 0.0
H698 H 0.7319 0.96295 0.55434 0.0
H699 H 0.69101 0.77459 0.70246 0.0
H700 H 0.64572 0.71777 0.69952 0.0
H701 H 0.74877 0.98851 0.58539 0.0
H702 H 0.65632 0.85386 0.53448 0.0
N703 N 0.69412 0.88924 0.61421 0.0
C704 C 0.73003 0.95665 0.61847 0.0
C705 C 0.71738 0.93645 0.63409 0.0
C706 C 0.7235 0.94286 0.60056 0.0
C707 C 0.70495 0.90861 0.59886 0.0
C708 C 0.69921 0.90262 0.63168 0.0
N709 N 0.67543 0.8615 0.58051 0.0
C710 C 0.69581 0.89422 0.58141 0.0
C711 C 0.66792 0.86545 0.54754 0.0
C712 C 0.69097 0.89867 0.548 0.0
C713 C 0.65964 0.84735 0.56409 0.0
C714 C 0.70444 0.91368 0.56516 0.0
H715 H 0.69699 0.91277 0.53521 0.0
O716 O 0.61367 0.81672 0.5994 0.0
O717 O 0.65989 0.78725 0.62068 0.0
O718 O 0.7059 0.78962 0.59595 0.0
O719 O 0.68966 0.82536 0.58438 0.0
O720 O 0.6344 0.78348 0.59613 0.0
O721 O 0.63207 0.84771 0.62351 0.0
O722 O 0.75218 0.81031 0.64508 0.0
O723 O 0.71077 0.84362 0.62094 0.0
O724 O 0.65718 0.82479 0.64091 0.0
O725 O 0.70631 0.82888 0.64888 0.0
O726 O 0.74949 0.83975 0.61095 0.0
O727 O 0.74939 0.78882 0.61788 0.0
C728 C 0.64036 0.76744 0.60857 0.0
C729 C 0.72462 0.94763 0.56669 0.0
C730 C 0.73412 0.9622 0.58437 0.0
C731 C 0.60826 0.83386 0.6116 0.0
C732 C 0.59549 0.85453 0.60425 0.0
C733 C 0.61287 0.87768 0.59036 0.0
C734 C 0.56654 0.85213 0.61134 0.0
C735 C 0.55575 0.87322 0.60462 0.0
C736 C 0.60203 0.89804 0.58349 0.0
C737 C 0.57373 0.89591 0.59055 0.0
C738 C 0.70149 0.80541 0.58216 0.0
C739 C 0.73749 0.85868 0.61223 0.0
C740 C 0.76618 0.80037 0.63319 0.0
C741 C 0.78178 0.7827 0.64051 0.0
C742 C 0.76408 0.75357 0.6505 0.0
C743 C 0.81484 0.7947 0.63656 0.0
C744 C 0.83052 0.77772 0.64253 0.0
C745 C 0.77948 0.73662 0.65656 0.0
C746 C 0.81243 0.74852 0.65261 0.0
C747 C 0.67947 0.82904 0.65353 0.0
H748 H 0.63493 0.88025 0.58476 0.0
H749 H 0.55297 0.83458 0.62221 0.0
H750 H 0.61574 0.91568 0.57271 0.0
H751 H 0.56576 0.91202 0.58492 0.0
H752 H 0.73847 0.74391 0.65346 0.0
H753 H 0.82816 0.81694 0.62849 0.0
H754 H 0.76583 0.71414 0.66432 0.0
H755 H 0.82383 0.73505 0.65764 0.0
Gd756 Gd 0.10497 0.32451 0.87872 0.0
Gd757 Gd 0.18709 0.36017 0.90034 0.0
C758 C 0.23345 0.29817 0.91442 0.0
C759 C 0.23128 0.29677 0.9484 0.0
C760 C 0.21058 0.32665 0.93094 0.0
C761 C 0.218 0.31704 0.91432 0.0
C762 C 0.21817 0.31761 0.9482 0.0
C763 C 0.23895 0.28709 0.93151 0.0
C764 C 0.24423 0.29229 0.89741 0.0
C765 C 0.24066 0.30623 0.88103 0.0
N766 N 0.21295 0.3288 0.89813 0.0
C767 C 0.22529 0.32488 0.88169 0.0
H768 H 0.22277 0.33548 0.86891 0.0
C769 C 0.19775 0.36321 0.94603 0.0
N770 N 0.19931 0.34786 0.93016 0.0
C771 C 0.20431 0.35456 0.96353 0.0
C772 C 0.21403 0.3312 0.96465 0.0
H773 H 0.19031 0.38134 0.9452 0.0
H774 H 0.25031 0.27213 0.93185 0.0
H775 H 0.07427 0.357 0.9088 0.0
H776 H 0.25616 0.27787 0.89686 0.0
H777 H 0.2496 0.3025 0.86786 0.0
H778 H 0.23689 0.28918 0.96152 0.0
H779 H 0.10354 0.29986 0.83453 0.0
H780 H 0.03974 0.41035 0.87737 0.0
H781 H 0.04976 0.39203 0.9078 0.0
H782 H 0.05108 0.38544 0.81372 0.0
H783 H 0.20204 0.36602 0.9761 0.0
H784 H 0.21955 0.32486 0.9782 0.0
H785 H 0.04049 0.40789 0.84223 0.0
H786 H 0.09003 0.31066 0.80305 0.0
N787 N 0.07935 0.35615 0.8792 0.0
C788 C 0.05062 0.39495 0.87771 0.0
C789 C 0.05615 0.3846 0.8949 0.0
C790 C 0.05823 0.38445 0.86114 0.0
C791 C 0.07253 0.36461 0.86238 0.0
C792 C 0.07013 0.36467 0.89538 0.0
N793 N 0.0909 0.33193 0.84828 0.0
C794 C 0.07837 0.35198 0.84639 0.0
C795 C 0.08669 0.3225 0.81512 0.0
C796 C 0.07497 0.34411 0.81288 0.0
C797 C 0.09425 0.31639 0.83303 0.0
C798 C 0.07028 0.35885 0.82864 0.0
H799 H 0.06911 0.3488 0.79898 0.0
O800 O 0.07285 0.27372 0.87112 0.0
O801 O 0.14392 0.31562 0.88955 0.0
O802 O 0.18778 0.35929 0.86793 0.0
O803 O 0.14108 0.36014 0.85848 0.0
O804 O 0.12092 0.29187 0.86507 0.0
O805 O 0.05934 0.29562 0.89342 0.0
O806 O 0.22214 0.4086 0.91065 0.0
O807 O 0.14838 0.36907 0.88963 0.0
O808 O 0.1025 0.32695 0.9101 0.0
O809 O 0.14896 0.32826 0.92217 0.0
O810 O 0.17236 0.39411 0.91351 0.0
O811 O 0.23188 0.3911 0.88501 0.0
C812 C 0.14246 0.29574 0.87729 0.0
C813 C 0.05722 0.37964 0.82725 0.0
C814 C 0.05122 0.39244 0.84348 0.0
C815 C 0.0507 0.26961 0.8833 0.0
C816 C 0.01688 0.25224 0.87666 0.0
C817 C 1.00416 0.26876 0.86661 0.0
C818 C 0.99699 0.21882 0.88058 0.0
C819 C 0.96419 0.20204 0.8748 0.0
C820 C 0.97177 0.2522 0.86071 0.0
C821 C 0.95184 0.21914 0.86482 0.0
C822 C 0.17023 0.36413 0.85505 0.0
C823 C 0.15031 0.38974 0.9015 0.0
C824 C 0.24347 0.41408 0.89761 0.0
C825 C 0.27702 0.42496 0.90405 0.0
C826 C 0.28272 0.40443 0.9156 0.0
C827 C 0.30358 0.45526 0.89849 0.0
C828 C 0.33554 0.46427 0.90423 0.0
C829 C 0.31409 0.41334 0.92141 0.0
C830 C 0.34034 0.44296 0.91574 0.0
C831 C 0.11844 0.32213 0.92372 0.0
H832 H 0.01921 0.29444 0.86342 0.0
H833 H 1.00684 0.20609 0.88842 0.0
H834 H 0.96202 0.26505 0.85297 0.0
H835 H 0.92681 0.20681 0.86002 0.0
H836 H 0.26293 0.38142 0.92015 0.0
H837 H 0.29951 0.47134 0.88951 0.0
H838 H 0.31808 0.39718 0.93032 0.0
H839 H 0.36453 0.4494 0.92051 0.0
Gd840 Gd 0.19186 0.84043 0.60865 0.0
Gd841 Gd 0.23767 0.92169 0.63141 0.0
C842 C 0.34331 0.96706 0.65071 0.0
C843 C 0.3378 0.96576 0.68457 0.0
C844 C 0.29004 0.94625 0.66466 0.0
C845 C 0.30929 0.95312 0.64893 0.0
C846 C 0.30407 0.95288 0.68267 0.0
C847 C 0.35739 0.97283 0.66862 0.0
C848 C 0.36222 0.97537 0.63445 0.0
C849 C 0.34722 0.97069 0.61703 0.0
N850 N 0.29489 0.94732 0.63188 0.0
C851 C 0.31341 0.95695 0.616 0.0
H852 H 0.3023 0.95333 0.6024 0.0
C853 C 0.23792 0.92917 0.67735 0.0
N854 N 0.25759 0.93386 0.66229 0.0
C855 C 0.25065 0.93516 0.6955 0.0
C856 C 0.28383 0.94679 0.6982 0.0
H857 H 0.21219 0.91992 0.67551 0.0
H858 H 0.38345 0.98328 0.67027 0.0
H859 H 0.13061 0.80394 0.63952 0.0
H860 H 0.38842 0.986 0.63521 0.0
H861 H 0.36164 0.97748 0.60436 0.0
H862 H 0.34903 0.97081 0.69829 0.0
H863 H 0.21174 0.83984 0.56396 0.0
H864 H 0.04047 0.7698 0.61052 0.0
H865 H 0.07083 0.7766 0.63991 0.0
H866 H 0.073 0.79026 0.54622 0.0
H867 H 0.23483 0.93067 0.7074 0.0
H868 H 0.29364 0.95143 0.71228 0.0
H869 H 0.0416 0.77601 0.57554 0.0
H870 H 0.18553 0.82784 0.53279 0.0
N871 N 0.13461 0.81404 0.61029 0.0
C872 C 0.06684 0.78208 0.61027 0.0
C873 C 0.08387 0.78577 0.62687 0.0
C874 C 0.08398 0.79319 0.59344 0.0
C875 C 0.1183 0.80902 0.59391 0.0
C876 C 0.11789 0.80143 0.62658 0.0
N877 N 0.16841 0.82898 0.57858 0.0
C878 C 0.13586 0.81701 0.57747 0.0
C879 C 0.1713 0.8249 0.54523 0.0
C880 C 0.1381 0.81434 0.54377 0.0
C881 C 0.18604 0.8316 0.56287 0.0
C882 C 0.11977 0.8095 0.56003 0.0
H883 H 0.12665 0.80884 0.5301 0.0
O884 O 0.20519 0.80547 0.59815 0.0
O885 O 0.23905 0.87866 0.62005 0.0
O886 O 0.24417 0.92444 0.6002 0.0
O887 O 0.1984 0.87971 0.58748 0.0
O888 O 0.24113 0.85541 0.59615 0.0
O889 O 0.17806 0.79553 0.62386 0.0
O890 O 0.21764 0.95281 0.63839 0.0
O891 O 0.19021 0.88322 0.61983 0.0
O892 O 0.189 0.83878 0.64095 0.0
O893 O 0.23681 0.88462 0.65104 0.0
O894 O 0.18865 0.90509 0.64459 0.0
O895 O 0.25589 0.96867 0.61773 0.0
C896 C 0.25833 0.87694 0.60855 0.0
C897 C 0.08579 0.79584 0.55947 0.0
C898 C 0.06791 0.78769 0.57617 0.0
C899 C 0.18952 0.7841 0.61122 0.0
C900 C 0.16706 0.75042 0.60487 0.0
C901 C 0.14076 0.74432 0.59327 0.0
C902 C 0.17105 0.72409 0.61061 0.0
C903 C 0.14826 0.69193 0.60503 0.0
C904 C 0.11841 0.71272 0.58765 0.0
C905 C 0.12201 0.68667 0.59352 0.0
C906 C 0.22355 0.90997 0.58628 0.0
C907 C 0.17137 0.88413 0.63198 0.0
C908 C 0.23704 0.97618 0.62721 0.0
C909 C 0.25216 1.00926 0.63508 0.0
C910 C 0.27852 0.02016 0.64743 0.0
C911 C 0.23952 0.02978 0.63065 0.0
C912 C 0.25345 0.06137 0.63842 0.0
C913 C 0.29226 0.05124 0.65527 0.0
C914 C 0.27988 0.07169 0.65085 0.0
C915 C 0.21135 0.85548 0.65399 0.0
H916 H 0.13741 0.76398 0.58855 0.0
H917 H 0.19127 0.72848 0.6196 0.0
H918 H 0.09818 0.7084 0.57872 0.0
H919 H 0.10435 0.6623 0.5889 0.0
H920 H 0.28835 1.00459 0.65106 0.0
H921 H 0.21916 0.02128 0.62104 0.0
H922 H 0.31251 0.05948 0.6649 0.0
H923 H 0.2908 0.0955 0.65739 0.0
Gd924 Gd 0.71034 0.79757 0.88385 0.0
Gd925 Gd 0.65847 0.8292 0.89754 0.0
C926 C 0.71709 0.94114 0.89696 0.0
C927 C 0.73478 0.95412 0.92921 0.0
C928 C 0.70114 0.89741 0.91945 0.0
C929 C 0.70077 0.90749 0.90131 0.0
C930 C 0.71746 0.92083 0.93369 0.0
C931 C 0.73458 0.96426 0.91089 0.0
C932 C 0.71521 0.9507 0.87873 0.0
C933 C 0.69644 0.92709 0.86552 0.0
N934 N 0.6842 0.88457 0.88798 0.0
C935 C 0.6805 0.89416 0.87049 0.0
H936 H 0.66462 0.87695 0.86021 0.0
C937 C 0.67875 0.85528 0.9418 0.0
N938 N 0.68408 0.865 0.9234 0.0
C939 C 0.6949 0.87741 0.95627 0.0
C940 C 0.715 0.91026 0.95216 0.0
H941 H 0.66106 0.83073 0.94578 0.0
H942 H 0.74762 0.99009 0.90769 0.0
H943 H 0.69171 0.74348 0.91945 0.0
H944 H 0.72751 0.97623 0.87484 0.0
H945 H 0.69381 0.93426 0.85153 0.0
H946 H 0.74777 0.97229 0.93993 0.0
H947 H 0.72359 0.8029 0.8366 0.0
H948 H 0.6253 0.64834 0.89907 0.0
H949 H 0.65605 0.68528 0.92518 0.0
H950 H 0.62369 0.66389 0.83305 0.0
H951 H 0.69106 0.86918 0.97066 0.0
H952 H 0.72714 0.92746 0.96344 0.0
H953 H 0.61287 0.64074 0.86477 0.0
H954 H 0.69906 0.76932 0.8087 0.0
N955 N 0.67959 0.74112 0.89051 0.0
C956 C 0.64071 0.67421 0.89647 0.0
C957 C 0.65788 0.69499 0.91124 0.0
C958 C 0.64447 0.68693 0.87841 0.0
C959 C 0.66473 0.72088 0.87578 0.0
C960 C 0.67769 0.72839 0.90795 0.0
N961 N 0.69139 0.76639 0.85586 0.0
C962 C 0.67033 0.73399 0.85797 0.0
C963 C 0.69017 0.75917 0.82245 0.0
C964 C 0.66585 0.7267 0.82437 0.0
C965 C 0.70351 0.77837 0.83841 0.0
C966 C 0.65648 0.71338 0.84228 0.0
H967 H 0.65579 0.71171 0.81199 0.0
O968 O 0.75514 0.81411 0.86812 0.0
O969 O 0.70824 0.84357 0.88746 0.0
O970 O 0.65687 0.82578 0.86574 0.0
O971 O 0.70474 0.82544 0.85965 0.0
O972 O 0.74626 0.84144 0.90025 0.0
O973 O 0.74563 0.78399 0.89271 0.0
O974 O 0.61809 0.81725 0.91664 0.0
O975 O 0.6598 0.78269 0.89387 0.0
O976 O 0.71262 0.79999 0.91491 0.0
O977 O 0.66523 0.80086 0.92201 0.0
O978 O 0.62289 0.7866 0.88063 0.0
O979 O 0.61904 0.83756 0.88955 0.0
C980 C 0.73404 0.85979 0.89689 0.0
C981 C 0.63495 0.67993 0.84492 0.0
C982 C 0.62894 0.66673 0.86296 0.0
C983 C 0.76553 0.79916 0.87899 0.0
C984 C 0.78044 0.782 0.87004 0.0
C985 C 0.76243 0.75513 0.85831 0.0
C986 C 0.81315 0.79218 0.87395 0.0
C987 C 0.8281 0.77568 0.86616 0.0
C988 C 0.77716 0.73879 0.85038 0.0
C989 C 0.80976 0.74893 0.85424 0.0
C990 C 0.67912 0.82725 0.85402 0.0
C991 C 0.63419 0.76743 0.88398 0.0
C992 C 0.60433 0.82875 0.90559 0.0
C993 C 0.59454 0.85131 0.91369 0.0
C994 C 0.61476 0.87526 0.92662 0.0
C995 C 0.56578 0.85042 0.90757 0.0
C996 C 0.55781 0.87371 0.91411 0.0
C997 C 0.60684 0.89811 0.93322 0.0
C998 C 0.57868 0.89747 0.92699 0.0
C999 C 0.69117 0.79861 0.927 0.0
H1000 H 0.73707 0.74665 0.8554 0.0
H1001 H 0.8267 0.81255 0.88339 0.0
H1002 H 0.76324 0.71812 0.84125 0.0
H1003 H 0.82067 0.73598 0.84779 0.0
H1004 H 0.63682 0.87658 0.93157 0.0
H1005 H 0.55017 0.83226 0.89742 0.0
H1006 H 0.6227 0.91651 0.94315 0.0
H1007 H 0.57303 0.91546 0.93239 0.0
C1008 C 0.07634 0.19438 0.13466 0.0
C1009 C 0.08711 0.22796 0.13397 0.0
C1010 C 0.09777 0.18291 0.13078 0.0
C1011 C 0.17674 0.20574 0.10831 0.0
H1012 H 0.17573 0.14062 0.14163 0.0
C1013 C 0.25631 0.14609 0.09605 0.0
C1014 C 0.27262 0.14402 0.11189 0.0
C1015 C 0.23271 0.15543 0.09791 0.0
C1016 C 0.17638 0.15888 0.13223 0.0
H1017 H 0.12846 0.27563 0.12792 0.0
H1018 H 0.16596 0.25569 0.12144 0.0
H1019 H 0.13646 0.15896 0.14613 0.0
H1020 H 0.27571 0.14745 0.14211 0.0
H1021 H 0.23462 0.16377 0.14543 0.0
H1022 H 0.21725 0.20619 0.09472 0.0
C1023 C 0.14094 0.23821 0.12493 0.0
C1024 C 0.15364 0.16912 0.13468 0.0
C1025 C 0.11956 0.24968 0.12887 0.0
C1026 C 0.264 0.1498 0.12966 0.0
C1027 C 0.24023 0.15875 0.13156 0.0
C1028 C 0.19944 0.1954 0.10582 0.0
C1029 C 0.1304 0.20473 0.12602 0.0
C1030 C 0.15368 0.19283 0.12283 0.0
C1031 C 0.22447 0.1619 0.11571 0.0
C1032 C 0.19963 0.17202 0.11784 0.0
H1033 H 0.05151 0.17701 0.13859 0.0
H1034 H 0.08879 0.15693 0.13153 0.0
H1035 H 0.17725 0.22385 0.09884 0.0
H1036 H 0.2622 0.14099 0.08227 0.0
H1037 H 0.22068 0.15726 0.08547 0.0
C1038 C 0.1386 0.95806 0.36967 0.0
C1039 C 0.16266 0.95021 0.3651 0.0
C1040 C 0.10728 0.93347 0.37489 0.0
C1041 C 0.05342 0.84474 0.3675 0.0
H1042 H 0.99394 0.85576 0.39979 0.0
C1043 C 0.91548 0.76021 0.36186 0.0
C1044 C 0.89684 0.74972 0.37827 0.0
C1045 C 0.94836 0.78402 0.36254 0.0
C1046 C 1.01035 0.85213 0.3909 0.0
H1047 H 0.17381 0.91125 0.36346 0.0
H1048 H 0.11986 0.86858 0.37331 0.0
H1049 H 0.05123 0.8986 0.3983 0.0
H1050 H 0.89712 0.75742 0.40814 0.0
H1051 H 0.95523 0.79912 0.40948 0.0
H1052 H 1.0129 0.79833 0.36019 0.0
C1053 C 0.12457 0.8934 0.37242 0.0
C1054 C 0.04314 0.87686 0.38988 0.0
C1055 C 0.15565 0.91786 0.36703 0.0
C1056 C 0.91136 0.76442 0.39538 0.0
C1057 C 0.94443 0.78856 0.39608 0.0
C1058 C 0.02084 0.82011 0.36857 0.0
C1059 C 0.09953 0.90059 0.37566 0.0
C1060 C 0.06508 0.87363 0.37801 0.0
C1061 C 0.96341 0.79842 0.37965 0.0
C1062 C 0.9987 0.82366 0.38 0.0
H1063 H 0.14337 0.98281 0.368 0.0
H1064 H 0.08869 0.94001 0.37716 0.0
H1065 H 0.06924 0.84141 0.35794 0.0
H1066 H 0.90456 0.74986 0.34843 0.0
H1067 H 0.96189 0.79154 0.34955 0.0
C1068 C 0.86309 0.11094 0.1313 0.0
C1069 C 0.87321 0.12556 0.11366 0.0
C1070 C 0.85409 0.0782 0.13385 0.0
C1071 C 0.86332 0.01177 0.1121 0.0
H1072 H 0.79564 0.95814 0.14747 0.0
C1073 C 0.84324 0.88714 0.13822 0.0
C1074 C 0.81186 0.86349 0.14387 0.0
C1075 C 0.84941 0.91795 0.13234 0.0
C1076 C 0.81424 0.97247 0.13727 0.0
H1077 H 0.88276 0.11821 0.08503 0.0
H1078 H 0.86566 0.06063 0.08914 0.0
H1079 H 0.80756 0.01346 0.1415 0.0
H1080 H 0.76197 0.85234 0.14685 0.0
H1081 H 0.77213 0.90533 0.1357 0.0
H1082 H 0.86919 0.97039 0.10736 0.0
C1083 C 0.86509 0.07432 0.10113 0.0
C1084 C 0.8215 1.00455 0.1341 0.0
C1085 C 0.87455 0.10716 0.09869 0.0
C1086 C 0.78638 0.87032 0.14252 0.0
C1087 C 0.79237 0.90085 0.13639 0.0
C1088 C 0.85575 0.97951 0.11507 0.0
C1089 C 0.85502 0.05943 0.1188 0.0
C1090 C 0.84636 0.02478 0.12161 0.0
C1091 C 0.82419 0.92553 0.13185 0.0
C1092 C 0.83126 0.95944 0.12782 0.0
H1093 H 0.8628 0.12498 0.1432 0.0
H1094 H 0.84714 0.0679 0.14774 0.0
H1095 H 0.88295 0.02666 0.10256 0.0
H1096 H 0.86331 0.88242 0.13937 0.0
H1097 H 0.87427 0.93625 0.12913 0.0
C1098 C 0.25591 0.14412 0.40705 0.0
C1099 C 0.27145 0.14212 0.39085 0.0
C1100 C 0.23252 0.15383 0.40584 0.0
C1101 C 0.17514 0.15813 0.37273 0.0
H1102 H 0.17745 0.22256 0.4072 0.0
C1103 C 0.0753 0.19378 0.3728 0.0
C1104 C 0.08611 0.22733 0.37387 0.0
C1105 C 0.09682 0.18222 0.37611 0.0
C1106 C 0.17655 0.20461 0.39744 0.0
H1107 H 0.27352 0.14606 0.36067 0.0
H1108 H 0.23276 0.16309 0.35844 0.0
H1109 H 0.21754 0.20476 0.4102 0.0
H1110 H 0.12764 0.27488 0.37998 0.0
H1111 H 0.16533 0.25481 0.38543 0.0
H1112 H 0.13478 0.15853 0.35964 0.0
C1113 C 0.23881 0.15773 0.3721 0.0
C1114 C 0.19929 0.19419 0.39928 0.0
C1115 C 0.26236 0.14838 0.37337 0.0
C1116 C 0.1187 0.24896 0.37875 0.0
C1117 C 0.14019 0.23741 0.38211 0.0
C1118 C 0.15239 0.16847 0.37092 0.0
C1119 C 0.22373 0.16072 0.38833 0.0
C1120 C 0.19895 0.171 0.38686 0.0
C1121 C 0.12959 0.20395 0.38064 0.0
C1122 C 0.15294 0.19198 0.38317 0.0
H1123 H 0.26212 0.13851 0.42061 0.0
H1124 H 0.22101 0.15552 0.41855 0.0
H1125 H 0.17408 0.14 0.36305 0.0
H1126 H 0.05035 0.17648 0.36902 0.0
H1127 H 0.08779 0.15626 0.3751 0.0
C1128 C 0.14092 0.95137 0.13553 0.0
C1129 C 0.16299 0.93971 0.13505 0.0
C1130 C 0.10782 0.93047 0.13173 0.0
C1131 C 0.04979 0.85138 0.10968 0.0
H1132 H 0.98702 0.85431 0.1432 0.0
C1133 C 0.9101 0.77267 0.09814 0.0
C1134 C 0.89191 0.75674 0.1141 0.0
C1135 C 0.94313 0.79631 0.09979 0.0
C1136 C 1.00424 0.85313 0.13373 0.0
H1137 H 0.1678 0.89733 0.1294 0.0
H1138 H 0.11011 0.86086 0.12289 0.0
H1139 H 0.04494 0.8929 0.1474 0.0
H1140 H 0.89275 0.75434 0.14432 0.0
H1141 H 0.95025 0.7956 0.1473 0.0
H1142 H 1.00904 0.81116 0.09626 0.0
C1143 C 0.11834 0.88613 0.12622 0.0
C1144 C 0.03742 0.87549 0.13601 0.0
C1145 C 0.15135 0.90694 0.13015 0.0
C1146 C 0.90662 0.76587 0.13179 0.0
C1147 C 0.93941 0.78971 0.13348 0.0
C1148 C 0.01655 0.82914 0.10732 0.0
C1149 C 0.09608 0.8975 0.12719 0.0
C1150 C 0.06065 0.87473 0.12411 0.0
C1151 C 0.95818 0.80501 0.1175 0.0
C1152 C 0.9934 0.82958 0.11942 0.0
H1153 H 0.1491 0.97647 0.13929 0.0
H1154 H 0.09138 0.9401 0.13239 0.0
H1155 H 0.06702 0.85028 0.10018 0.0
H1156 H 0.89893 0.76635 0.0844 0.0
H1157 H 0.95683 0.80792 0.08724 0.0
C1158 C 0.76503 0.86413 0.37947 0.0
C1159 C 0.78737 0.85348 0.37591 0.0
C1160 C 0.77575 0.89707 0.38269 0.0
C1161 C 0.84825 0.97625 0.39519 0.0
H1162 H 0.79805 0.01153 0.37253 0.0
C1163 C 0.87368 0.10639 0.41148 0.0
C1164 C 0.87141 0.12455 0.39667 0.0
C1165 C 0.86326 0.07329 0.40917 0.0
C1166 C 0.81252 1.00217 0.37882 0.0
H1167 H 0.83873 0.86914 0.37354 0.0
H1168 H 0.85753 0.92683 0.37908 0.0
H1169 H 0.78111 0.95421 0.36813 0.0
H1170 H 0.85843 0.12318 0.36749 0.0
H1171 H 0.84042 0.06532 0.3633 0.0
H1172 H 0.88017 0.02449 0.40543 0.0
C1173 C 0.83163 0.90959 0.3795 0.0
C1174 C 0.80256 0.96915 0.37652 0.0
C1175 C 0.82087 0.8765 0.37632 0.0
C1176 C 0.85945 0.10938 0.37929 0.0
C1177 C 0.84921 0.07628 0.37692 0.0
C1178 C 0.85827 1.00932 0.39744 0.0
C1179 C 0.80914 0.92035 0.38241 0.0
C1180 C 0.82018 0.95569 0.38475 0.0
C1181 C 0.85101 0.05782 0.39184 0.0
C1182 C 0.84047 0.02267 0.38933 0.0
H1183 H 0.7391 0.84695 0.3797 0.0
H1184 H 0.75777 0.90429 0.38539 0.0
H1185 H 0.86229 0.96672 0.40184 0.0
H1186 H 0.88334 0.11783 0.42491 0.0
H1187 H 0.86464 0.05978 0.42102 0.0
C1188 C 0.20711 0.07249 0.63312 0.0
C1189 C 0.24076 0.08376 0.63386 0.0
C1190 C 0.19566 0.09443 0.63053 0.0
C1191 C 0.22249 0.1822 0.63651 0.0
H1192 H 0.14645 0.16186 0.60658 0.0
C1193 C 0.16414 0.26425 0.63661 0.0
C1194 C 0.15399 0.26989 0.61926 0.0
C1195 C 0.17413 0.24107 0.63822 0.0
C1196 C 0.16787 0.16803 0.61489 0.0
H1197 H 0.28861 0.12666 0.63114 0.0
H1198 H 0.26879 0.16462 0.62657 0.0
H1199 H 0.16507 0.12231 0.60887 0.0
H1200 H 0.14407 0.25454 0.59035 0.0
H1201 H 0.16243 0.21469 0.59292 0.0
H1202 H 0.22575 0.22814 0.64224 0.0
C1203 C 0.25117 0.13904 0.62855 0.0
C1204 C 0.17833 0.14517 0.61637 0.0
C1205 C 0.26256 0.11721 0.63114 0.0
C1206 C 0.15272 0.25116 0.60374 0.0
C1207 C 0.16285 0.22811 0.60529 0.0
C1208 C 0.21204 0.205 0.63504 0.0
C1209 C 0.21761 0.1281 0.62859 0.0
C1210 C 0.2059 0.15203 0.62713 0.0
C1211 C 0.17372 0.22276 0.62255 0.0
C1212 C 0.18463 0.19827 0.62419 0.0
H1213 H 0.18962 0.04691 0.63524 0.0
H1214 H 0.16964 0.08512 0.63069 0.0
H1215 H 0.24352 0.18818 0.64515 0.0
H1216 H 0.16408 0.27759 0.64892 0.0
H1217 H 0.18174 0.23717 0.6518 0.0
C1218 C 0.11272 0.86741 0.90866 0.0
C1219 C 0.13101 0.86545 0.89385 0.0
C1220 C 0.07969 0.85689 0.90626 0.0
C1221 C 1.00931 0.80708 0.87529 0.0
H1222 H 0.97425 0.85734 0.89816 0.0
C1223 C 0.87203 0.76277 0.87393 0.0
C1224 C 0.86261 0.78611 0.87053 0.0
C1225 C 0.90457 0.77238 0.87748 0.0
C1226 C 0.9837 0.84317 0.89155 0.0
H1227 H 0.13009 0.85297 0.8646 0.0
H1228 H 0.07241 0.83493 0.86022 0.0
H1229 H 0.03153 0.87427 0.90244 0.0
H1230 H 0.88001 0.83798 0.86847 0.0
H1231 H 0.9369 0.85478 0.87452 0.0
H1232 H 0.96179 0.77663 0.86386 0.0
C1233 C 0.08314 0.84344 0.87392 0.0
C1234 C 0.01645 0.85263 0.89421 0.0
C1235 C 0.11612 0.85371 0.87639 0.0
C1236 C 0.88642 0.81938 0.87116 0.0
C1237 C 0.91904 0.829 0.87466 0.0
C1238 C 0.97661 0.79772 0.87255 0.0
C1239 C 0.06454 0.84494 0.88883 0.0
C1240 C 0.02964 0.83468 0.88612 0.0
C1241 C 0.92855 0.80558 0.87767 0.0
C1242 C 0.96337 0.81561 0.88067 0.0
H1243 H 0.124 0.87693 0.92214 0.0
H1244 H 0.06602 0.85802 0.91808 0.0
H1245 H 0.0186 0.79252 0.86901 0.0
H1246 H 0.85418 0.73699 0.87398 0.0
H1247 H 0.91091 0.75372 0.88017 0.0
C1248 C 0.77443 0.9113 0.59639 0.0
C1249 C 0.7597 0.89411 0.61283 0.0
C1250 C 0.7975 0.9446 0.59716 0.0
C1251 C 0.8559 1.00843 0.62924 0.0
H1252 H 0.85214 0.06804 0.59351 0.0
C1253 C 0.95477 0.14528 0.62664 0.0
C1254 C 0.94302 0.16721 0.62528 0.0
C1255 C 0.93377 0.11176 0.62385 0.0
C1256 C 0.85351 0.05173 0.60362 0.0
H1257 H 0.759 0.897 0.64302 0.0
H1258 H 0.7992 0.95522 0.64449 0.0
H1259 H 0.81217 1.00996 0.59176 0.0
H1260 H 0.90056 0.17144 0.61903 0.0
H1261 H 0.86404 0.11326 0.61427 0.0
H1262 H 0.89674 0.05028 0.64139 0.0
C1263 C 0.79267 0.94333 0.63095 0.0
C1264 C 0.83076 0.0184 0.6025 0.0
C1265 C 0.76939 0.91017 0.63013 0.0
C1266 C 0.91023 0.1551 0.6204 0.0
C1267 C 0.88937 0.12176 0.61749 0.0
C1268 C 0.87873 0.04175 0.63031 0.0
C1269 C 0.80692 0.96101 0.61447 0.0
C1270 C 0.83156 0.99637 0.61538 0.0
C1271 C 0.9007 0.09958 0.61946 0.0
C1272 C 0.87767 0.06387 0.6176 0.0
H1273 H 0.7679 0.89901 0.58296 0.0
H1274 H 0.80835 0.95738 0.58424 0.0
H1275 H 0.8574 0.99207 0.63926 0.0
H1276 H 0.9799 0.15389 0.63042 0.0
H1277 H 0.94337 0.09537 0.62526 0.0
C1278 C 0.15456 0.25781 0.89557 0.0
C1279 C 0.15458 0.27268 0.87858 0.0
C1280 C 0.16396 0.23403 0.89603 0.0
C1281 C 0.21118 0.20554 0.86875 0.0
H1282 H 0.16388 0.12564 0.89734 0.0
C1283 C 0.25643 0.1139 0.8724 0.0
C1284 C 0.23315 0.08082 0.86986 0.0
C1285 C 0.24682 0.13694 0.87566 0.0
C1286 C 0.17724 0.14779 0.88923 0.0
H1287 H 0.16223 0.27327 0.8487 0.0
H1288 H 0.17882 0.23217 0.84944 0.0
H1289 H 0.14691 0.16671 0.8986 0.0
H1290 H 0.18134 0.04585 0.86952 0.0
H1291 H 0.16451 0.08623 0.87513 0.0
H1292 H 0.24086 0.18652 0.85889 0.0
C1293 C 0.17245 0.23924 0.86248 0.0
C1294 C 0.16775 0.17145 0.89012 0.0
C1295 C 0.1629 0.26269 0.86203 0.0
C1296 C 0.19993 0.07113 0.87145 0.0
C1297 C 0.19028 0.09427 0.8747 0.0
C1298 C 0.22063 0.18202 0.86787 0.0
C1299 C 0.17338 0.2248 0.87949 0.0
C1300 C 0.18441 0.20042 0.8797 0.0
C1301 C 0.21365 0.12756 0.87645 0.0
C1302 C 0.20374 0.15276 0.87802 0.0
H1303 H 0.14722 0.26448 0.90842 0.0
H1304 H 0.16444 0.22337 0.90935 0.0
H1305 H 0.22481 0.22778 0.86075 0.0
H1306 H 0.28221 0.12209 0.87176 0.0
H1307 H 0.26548 0.16224 0.87739 0.0
C1308 C 0.1216 0.87159 0.61327 0.0
C1309 C 0.13622 0.87194 0.63042 0.0
C1310 C 0.08858 0.86263 0.6126 0.0
C1311 C 0.0232 0.85823 0.64264 0.0
H1312 H 0.96411 0.79717 0.60578 0.0
C1313 C 0.88834 0.82392 0.64004 0.0
C1314 C 0.86559 0.79046 0.63831 0.0
C1315 C 0.9215 0.83562 0.63694 0.0
C1316 C 0.98033 0.81423 0.61617 0.0
H1317 H 0.12869 0.86467 0.66029 0.0
H1318 H 0.07124 0.84864 0.65918 0.0
H1319 H 0.02203 0.81401 0.60467 0.0
H1320 H 0.85977 0.74335 0.63107 0.0
H1321 H 0.91764 0.76363 0.62604 0.0
H1322 H 0.98168 0.85791 0.6545 0.0
C1323 C 0.08493 0.85513 0.64623 0.0
C1324 C 1.01352 0.82408 0.61543 0.0
C1325 C 0.11772 0.86401 0.64687 0.0
C1326 C 0.8767 0.76917 0.63284 0.0
C1327 C 0.90985 0.78087 0.6297 0.0
C1328 C 0.99016 0.84853 0.64334 0.0
C1329 C 0.06998 0.85451 0.62914 0.0
C1330 C 0.03521 0.84578 0.62886 0.0
C1331 C 0.93271 0.81417 0.63199 0.0
C1332 C 0.96821 0.8261 0.63027 0.0
H1333 H 0.13575 0.87861 0.60048 0.0
H1334 H 0.07779 0.86264 0.59924 0.0
H1335 H 0.03937 0.87533 0.65305 0.0
H1336 H 0.88066 0.841 0.64428 0.0
H1337 H 0.93841 0.86147 0.6386 0.0
C1338 C 0.95244 0.14394 0.87552 0.0
C1339 C 0.94254 0.16689 0.87912 0.0
C1340 C 0.93077 0.11055 0.87818 0.0
C1341 C 0.8543 0.0523 0.90228 0.0
H1342 H 0.84722 0.99226 0.86315 0.0
C1343 C 0.77595 0.91258 0.91039 0.0
C1344 C 0.75643 0.89512 0.89512 0.0
C1345 C 0.79887 0.9457 0.90868 0.0
C1346 C 0.8488 1.00876 0.87415 0.0
H1347 H 0.90284 0.17303 0.88919 0.0
H1348 H 0.86516 0.11501 0.89385 0.0
H1349 H 0.88764 0.05018 0.8604 0.0
H1350 H 0.74687 0.89763 0.8657 0.0
H1351 H 0.7871 0.95577 0.86261 0.0
H1352 H 0.81516 0.011 0.9159 0.0
C1353 C 0.88953 0.12265 0.8889 0.0
C1354 C 0.87223 0.04186 0.87268 0.0
C1355 C 0.91102 0.15588 0.88608 0.0
C1356 C 0.76105 0.91092 0.87783 0.0
C1357 C 0.78431 0.94402 0.87602 0.0
C1358 C 0.83104 0.0192 0.90379 0.0
C1359 C 0.89894 0.09952 0.88472 0.0
C1360 C 0.87515 0.06405 0.8867 0.0
C1361 C 0.80335 0.96183 0.89148 0.0
C1362 C 0.82796 0.99705 0.88973 0.0
H1363 H 0.97658 0.15171 0.87012 0.0
H1364 H 0.93888 0.09336 0.87504 0.0
H1365 H 0.85605 0.0687 0.91338 0.0
H1366 H 0.77325 0.90058 0.92372 0.0
H1367 H 0.81349 0.95857 0.92075 0.0
C1368 C 0.32979 0.16772 0.32158 0.0
C1369 C 0.35763 0.17699 0.33254 0.0
C1370 C 0.33225 0.17166 0.30221 0.0
C1371 C 0.38868 0.2101 0.2622 0.0
H1372 H 0.32166 0.1345 0.23592 0.0
C1373 C 0.38843 0.18719 0.18145 0.0
C1374 C 0.35785 0.17302 0.17264 0.0
C1375 C 0.39089 0.19147 0.20095 0.0
C1376 C 0.34036 0.156 0.24299 0.0
H1377 H 0.41011 0.19908 0.33202 0.0
H1378 H 0.41454 0.20579 0.29787 0.0
H1379 H 0.32157 0.13566 0.26986 0.0
H1380 H 0.30632 0.15445 0.17698 0.0
H1381 H 0.31058 0.16233 0.21073 0.0
H1382 H 0.40752 0.23015 0.23503 0.0
C1383 C 0.39079 0.19583 0.30434 0.0
C1384 C 0.34029 0.1567 0.2625 0.0
C1385 C 0.38832 0.19217 0.32388 0.0
C1386 C 0.33016 0.16506 0.18345 0.0
C1387 C 0.33259 0.16937 0.20281 0.0
C1388 C 0.38877 0.20937 0.24254 0.0
C1389 C 0.3626 0.18455 0.29323 0.0
C1390 C 0.36407 0.18395 0.27239 0.0
C1391 C 0.3628 0.18171 0.21189 0.0
C1392 C 0.36423 0.18249 0.23273 0.0
H1393 H 0.30583 0.1561 0.32794 0.0
H1394 H 0.31012 0.16355 0.29419 0.0
H1395 H 0.40737 0.23144 0.26937 0.0
H1396 H 0.41013 0.19334 0.17342 0.0
H1397 H 0.41451 0.20099 0.20754 0.0
C1398 C 0.85895 0.67234 0.32631 0.0
C1399 C 0.82787 0.65351 0.33422 0.0
C1400 C 0.8631 0.67287 0.30685 0.0
C1401 C 0.83287 0.62947 0.26338 0.0
H1402 H 0.85487 0.71173 0.23996 0.0
C1403 C 0.82131 0.63951 0.18307 0.0
C1404 C 0.83941 0.66999 0.1744 0.0
C1405 C 0.82267 0.63658 0.20254 0.0
C1406 C 0.84956 0.6887 0.24608 0.0
H1407 H 0.77704 0.61975 0.32815 0.0
H1408 H 0.78467 0.61947 0.29426 0.0
H1409 H 0.85353 0.70761 0.27388 0.0
H1410 H 0.87452 0.7209 0.1789 0.0
H1411 H 0.87936 0.71557 0.21244 0.0
H1412 H 0.82987 0.61052 0.23586 0.0
C1413 C 0.80566 0.63397 0.30307 0.0
C1414 C 0.84856 0.6864 0.26562 0.0
C1415 C 0.80136 0.63406 0.32243 0.0
C1416 C 0.86027 0.69712 0.18532 0.0
C1417 C 0.86254 0.69404 0.20466 0.0
C1418 C 0.83472 0.63194 0.24381 0.0
C1419 C 0.8364 0.65394 0.29507 0.0
C1420 C 0.83989 0.65672 0.27443 0.0
C1421 C 0.84297 0.66394 0.21375 0.0
C1422 C 0.84273 0.66153 0.23476 0.0
H1423 H 0.87963 0.68811 0.33503 0.0
H1424 H 0.887 0.68861 0.30094 0.0
H1425 H 0.82607 0.60628 0.2699 0.0
H1426 H 0.80451 0.61835 0.17496 0.0
H1427 H 0.80667 0.61305 0.20876 0.0
C1428 C 0.84062 0.19846 0.18424 0.0
C1429 C 0.85954 0.18741 0.17509 0.0
C1430 C 0.8376 0.19668 0.20379 0.0
C1431 C 0.88109 0.19189 0.2456 0.0
H1432 H 0.80158 0.17058 0.27216 0.0
C1433 C 0.87198 0.17136 0.32478 0.0
C1434 C 0.85797 0.18615 0.3354 0.0
C1435 C 0.86918 0.16975 0.30532 0.0
C1436 C 0.82403 0.17685 0.26494 0.0
H1437 H 0.88826 0.16387 0.17905 0.0
H1438 H 0.88266 0.16031 0.21293 0.0
H1439 H 0.80201 0.17085 0.23788 0.0
H1440 H 0.82863 0.20942 0.33403 0.0
H1441 H 0.82367 0.20662 0.29983 0.0
H1442 H 0.90323 0.19803 0.27246 0.0
C1443 C 0.8709 0.17123 0.20518 0.0
C1444 C 0.82429 0.17702 0.2453 0.0
C1445 C 0.87398 0.1731 0.18573 0.0
C1446 C 0.83959 0.19778 0.3262 0.0
C1447 C 0.8368 0.1962 0.30662 0.0
C1448 C 0.88083 0.19169 0.26513 0.0
C1449 C 0.85335 0.1837 0.21453 0.0
C1450 C 0.85277 0.1842 0.23539 0.0
C1451 C 0.85227 0.18287 0.29593 0.0
C1452 C 0.85224 0.18381 0.27508 0.0
H1453 H 0.8293 0.20972 0.17638 0.0
H1454 H 0.824 0.20662 0.21053 0.0
H1455 H 0.90371 0.19842 0.23848 0.0
H1456 H 0.88587 0.16171 0.3315 0.0
H1457 H 0.88071 0.15858 0.29758 0.0
C1458 C 0.16137 0.37297 0.6877 0.0
C1459 C 0.17723 0.36139 0.676 0.0
C1460 C 0.16754 0.37667 0.70688 0.0
C1461 C 0.19409 0.34648 0.74625 0.0
H1462 H 0.2007 0.42221 0.77135 0.0
C1463 C 0.2012 0.3597 0.82755 0.0
C1464 C 0.18115 0.37072 0.83528 0.0
C1465 C 0.20678 0.36152 0.80815 0.0
C1466 C 0.19873 0.40078 0.76463 0.0
H1467 H 0.21235 0.34487 0.6753 0.0
H1468 H 0.22328 0.35137 0.70919 0.0
H1469 H 0.19914 0.41956 0.73733 0.0
H1470 H 0.15231 0.3934 0.82879 0.0
H1471 H 0.16155 0.39615 0.79536 0.0
H1472 H 0.19239 0.32713 0.77364 0.0
C1473 C 0.20598 0.35754 0.70333 0.0
C1474 C 0.19794 0.39934 0.74509 0.0
C1475 C 0.19999 0.35411 0.68394 0.0
C1476 C 0.16796 0.38474 0.82333 0.0
C1477 C 0.17344 0.38651 0.80409 0.0
C1478 C 0.19467 0.34782 0.76589 0.0
C1479 C 0.18973 0.36883 0.715 0.0
C1480 C 0.19486 0.37187 0.73565 0.0
C1481 C 0.19258 0.37457 0.79613 0.0
C1482 C 0.19619 0.37468 0.77534 0.0
H1483 H 0.14377 0.37894 0.68205 0.0
H1484 H 0.15424 0.38496 0.71545 0.0
H1485 H 0.19147 0.32488 0.7394 0.0
H1486 H 0.21142 0.34844 0.83634 0.0
H1487 H 0.22186 0.35233 0.80253 0.0
C1488 C 0.17555 0.85669 0.82214 0.0
C1489 C 0.19621 0.85037 0.83325 0.0
C1490 C 0.17462 0.85244 0.80272 0.0
C1491 C 0.22521 0.86161 0.764 0.0
H1492 H 0.14823 0.80084 0.73616 0.0
C1493 C 0.23279 0.84994 0.68457 0.0
C1494 C 0.20599 0.84447 0.67359 0.0
C1495 C 0.23 0.84657 0.70399 0.0
C1496 C 0.16986 0.81833 0.74362 0.0
H1497 H 0.23215 0.8349 0.833 0.0
H1498 H 0.23132 0.82854 0.79886 0.0
H1499 H 0.1458 0.80345 0.77027 0.0
H1500 H 0.15515 0.83086 0.67413 0.0
H1501 H 0.1503 0.82609 0.70815 0.0
H1502 H 0.24902 0.87817 0.73769 0.0
C1503 C 0.21537 0.83602 0.80525 0.0
C1504 C 0.16845 0.81957 0.76317 0.0
C1505 C 0.21567 0.83943 0.82471 0.0
C1506 C 0.17596 0.83445 0.6823 0.0
C1507 C 0.17331 0.83185 0.70184 0.0
C1508 C 0.22647 0.86098 0.74448 0.0
C1509 C 0.19495 0.84263 0.79411 0.0
C1510 C 0.19618 0.84104 0.77349 0.0
C1511 C 0.20054 0.83864 0.71302 0.0
C1512 C 0.19891 0.8391 0.73394 0.0
H1513 H 0.16047 0.86532 0.82845 0.0
H1514 H 0.15888 0.85789 0.79435 0.0
H1515 H 0.24677 0.87872 0.7717 0.0
H1516 H 0.25631 0.85798 0.67815 0.0
H1517 H 0.25131 0.85105 0.7119 0.0
C1518 C 0.64441 0.81774 0.68214 0.0
C1519 C 0.67512 0.83426 0.67353 0.0
C1520 C 0.64163 0.81891 0.70168 0.0
C1521 C 0.6879 0.86524 0.74414 0.0
H1522 H 0.631 0.78504 0.77057 0.0
C1523 C 0.70391 0.84811 0.82254 0.0
C1524 C 0.67596 0.83175 0.83375 0.0
C1525 C 0.70123 0.84979 0.80313 0.0
C1526 C 0.64669 0.80775 0.76339 0.0
H1527 H 0.72675 0.86593 0.67845 0.0
H1528 H 0.72208 0.86793 0.71219 0.0
H1529 H 0.63058 0.78578 0.73634 0.0
H1530 H 0.62323 0.8045 0.83344 0.0
H1531 H 0.61847 0.8074 0.79938 0.0
H1532 H 0.70471 0.88695 0.77112 0.0
C1533 C 0.69999 0.85425 0.70408 0.0
C1534 C 0.64641 0.80821 0.74375 0.0
C1535 C 0.70272 0.85301 0.68469 0.0
C1536 C 0.64519 0.81756 0.82516 0.0
C1537 C 0.64249 0.81891 0.80565 0.0
C1538 C 0.68834 0.86471 0.76371 0.0
C1539 C 0.66949 0.83689 0.71294 0.0
C1540 C 0.6674 0.83687 0.73384 0.0
C1541 C 0.67052 0.83495 0.7944 0.0
C1542 C 0.6681 0.83587 0.7736 0.0
H1543 H 0.62277 0.80281 0.67389 0.0
H1544 H 0.61772 0.80546 0.70798 0.0
H1545 H 0.70392 0.88795 0.73707 0.0
H1546 H 0.72796 0.85926 0.82876 0.0
H1547 H 0.72333 0.86203 0.7949 0.0
C1548 C 0.26281 0.91646 0.9549 0.0
C1549 C 0.23508 0.91205 0.94531 0.0
C1550 C 0.2743 0.93718 0.9706 0.0
C1551 C 0.25188 0.98437 1.00406 0.0
H1552 H 0.34536 0.04155 0.00719 0.0
C1553 C 0.30883 0.09856 0.05161 0.0
C1554 C 0.33314 0.10052 0.06363 0.0
C1555 C 0.2983 0.07683 0.03641 0.0
C1556 C 0.31919 0.02572 0.0065 0.0
H1557 H 0.1966 0.92401 0.94502 0.0
H1558 H 0.21635 0.95983 0.97191 0.0
H1559 H 0.3228 0.99772 0.98406 0.0
H1560 H 0.36676 0.08302 0.06874 0.0
H1561 H 0.34923 0.04603 0.04204 0.0
H1562 H 0.24835 0.01295 0.02623 0.0
C1563 C 0.22929 0.94738 0.96783 0.0
C1564 C 0.30622 1.00031 0.99336 0.0
C1565 C 0.2179 0.92678 0.95232 0.0
C1566 C 0.34818 0.08215 0.05954 0.0
C1567 C 0.3381 0.06093 0.04425 0.0
C1568 C 0.26483 1.01001 0.01699 0.0
C1569 C 0.25822 0.95376 0.9769 0.0
C1570 C 0.27232 0.97929 0.99188 0.0
C1571 C 0.31229 0.05716 0.03287 0.0
C1572 C 0.29862 0.03105 0.01835 0.0
H1573 H 0.2768 0.90584 0.94955 0.0
H1574 H 0.29636 0.94103 0.97739 0.0
H1575 H 0.22572 0.96843 1.00369 0.0
H1576 H 0.29652 0.1121 0.0547 0.0
H1577 H 0.27853 0.07466 0.02776 0.0
C1578 C 0.80002 0.69882 0.45705 0.0
C1579 C 0.80525 0.71426 0.43961 0.0
C1580 C 0.78951 0.70975 0.47242 0.0
C1581 C 0.74962 0.75927 0.48315 0.0
H1582 H 0.77551 0.75516 0.53398 0.0
C1583 C 0.69375 0.78847 0.54828 0.0
C1584 C 0.71412 0.80218 0.56387 0.0
C1585 C 0.70474 0.77871 0.53258 0.0
C1586 C 0.76826 0.75692 0.51986 0.0
H1587 H 0.80502 0.75394 0.42474 0.0
H1588 H 0.78807 0.7737 0.4514 0.0
H1589 H 0.79633 0.737 0.50841 0.0
H1590 H 0.76219 0.81807 0.57504 0.0
H1591 H 0.78184 0.80281 0.54763 0.0
H1592 H 0.72247 0.78029 0.49455 0.0
C1593 C 0.79091 0.75257 0.4533 0.0
C1594 C 0.77988 0.74594 0.50515 0.0
C1595 C 0.80104 0.74148 0.43802 0.0
C1596 C 0.74603 0.8076 0.56314 0.0
C1597 C 0.7571 0.79831 0.54751 0.0
C1598 C 0.73821 0.77052 0.49785 0.0
C1599 C 0.78414 0.73643 0.47065 0.0
C1600 C 0.771 0.7472 0.48652 0.0
C1601 C 0.73635 0.78268 0.53222 0.0
C1602 C 0.74761 0.76983 0.51643 0.0
H1603 H 0.80229 0.67732 0.45858 0.0
H1604 H 0.78434 0.69644 0.48546 0.0
H1605 H 0.74151 0.76001 0.46908 0.0
H1606 H 0.66885 0.78353 0.54866 0.0
H1607 H 0.68794 0.76669 0.52115 0.0
C1608 C 0.06749 0.28163 0.93918 0.0
C1609 C 0.09927 0.30807 0.94103 0.0
C1610 C 0.04563 0.27161 0.95408 0.0
C1611 C 0.0302 0.30017 0.99963 0.0
H1612 H 0.96168 0.20974 1.00237 0.0
C1613 C 0.9236 0.25753 0.05299 0.0
C1614 C 0.91379 0.22745 0.06169 0.0
C1615 C 0.94431 0.26707 0.03729 0.0
C1616 C 0.98071 0.23509 1.00206 0.0
H1617 H 0.13342 0.34439 0.96026 0.0
H1618 H 0.09564 0.32579 0.98693 0.0
H1619 H 1.00445 0.22592 0.97951 0.0
H1620 H 0.91668 0.18334 0.06053 0.0
H1621 H 0.95226 0.1995 0.0336 0.0
H1622 H 1.00719 0.30873 0.02307 0.0
C1623 C 0.08735 0.31318 0.97368 0.0
C1624 C 1.00522 0.24456 0.98862 0.0
C1625 C 0.10931 0.32347 0.95853 0.0
C1626 C 0.9233 0.20637 0.0538 0.0
C1627 C 0.94393 0.21582 0.03831 0.0
C1628 C 1.00588 0.29052 0.01338 0.0
C1629 C 0.05491 0.28741 0.97155 0.0
C1630 C 0.03022 0.2773 0.987 0.0
C1631 C 0.95561 0.24671 0.03008 0.0
C1632 C 0.98068 0.25777 0.0148 0.0
H1633 H 0.059 0.26929 0.92587 0.0
H1634 H 0.02095 0.2522 0.95154 0.0
H1635 H 0.04869 0.32568 0.99877 0.0
H1636 H 0.91736 0.27461 0.05914 0.0
H1637 H 0.9523 0.29084 0.03123 0.0
C1638 C 0.28617 0.06549 0.43903 0.0
C1639 C 0.31394 0.09674 0.44002 0.0
C1640 C 0.27408 0.04597 0.45488 0.0
C1641 C 0.27653 0.04603 0.50669 0.0
H1642 H 0.24907 0.95447 0.49976 0.0
C1643 C 0.25762 0.96155 0.56856 0.0
C1644 C 0.23077 0.92951 0.56875 0.0
C1645 C 0.26521 0.9812 0.55278 0.0
C1646 C 0.25613 0.97982 0.50188 0.0
H1647 H 0.35003 0.13258 0.45869 0.0
H1648 H 0.32887 0.09823 0.48676 0.0
H1649 H 0.26832 0.99137 0.47302 0.0
H1650 H 0.19076 0.89339 0.55208 0.0
H1651 H 0.2046 0.92789 0.52401 0.0
H1652 H 0.26486 0.03451 0.53564 0.0
C1653 C 0.31637 0.08895 0.47356 0.0
C1654 C 0.26726 1.00108 0.48656 0.0
C1655 C 0.32849 0.10873 0.45753 0.0
C1656 C 0.21177 0.91768 0.55243 0.0
C1657 C 0.21967 0.9375 0.53638 0.0
C1658 C 0.26548 0.02478 0.52201 0.0
C1659 C 0.28945 0.05697 0.47229 0.0
C1660 C 0.27771 0.03452 0.48875 0.0
C1661 C 0.24637 0.96966 0.5365 0.0
C1662 C 0.25539 0.99146 0.51984 0.0
H1663 H 0.274 0.05573 0.42578 0.0
H1664 H 0.25279 0.02198 0.45341 0.0
H1665 H 0.28387 0.07143 0.50888 0.0
H1666 H 0.27313 0.97192 0.58069 0.0
H1667 H 0.28629 1.00551 0.55331 0.0
C1668 C 0.7584 0.67928 0.05999 0.0
C1669 C 0.79167 0.69547 0.06464 0.0
C1670 C 0.747 0.68965 0.04492 0.0
C1671 C 0.76688 0.76379 0.01842 0.0
H1672 H 0.69907 0.7045 0.98455 0.0
C1673 C 0.72822 0.80979 0.95381 0.0
C1674 C 0.69664 0.79143 0.94643 0.0
C1675 C 0.73812 0.79868 0.96921 0.0
C1676 C 0.71754 0.72147 0.99409 0.0
H1677 H 0.83925 0.73504 0.05699 0.0
H1678 H 0.81938 0.75342 0.03045 0.0
H1679 H 0.72116 0.68308 0.00781 0.0
H1680 H 0.65013 0.74742 0.94985 0.0
H1681 H 0.66682 0.72831 0.97742 0.0
H1682 H 0.76289 0.80213 0.00515 0.0
C1683 C 0.80209 0.73243 0.03845 0.0
C1684 C 0.73046 0.70913 0.00736 0.0
C1685 C 0.81359 0.72165 0.05344 0.0
C1686 C 0.67437 0.76248 0.95553 0.0
C1687 C 0.68429 0.75123 0.97107 0.0
C1688 C 0.75372 0.77611 0.00532 0.0
C1689 C 0.76851 0.71695 0.03425 0.0
C1690 C 0.75549 0.73014 0.01963 0.0
C1691 C 0.71668 0.76872 0.9778 0.0
C1692 C 0.72898 0.75521 0.99279 0.0
H1693 H 0.74088 0.65949 0.06865 0.0
H1694 H 0.72102 0.67732 0.0423 0.0
H1695 H 0.78559 0.78066 0.0279 0.0
H1696 H 0.74608 0.83192 0.94685 0.0
H1697 H 0.7633 0.81281 0.97358 0.0
C1698 C 0.10392 0.30661 0.55475 0.0
C1699 C 0.10646 0.33154 0.5665 0.0
C1700 C 0.08172 0.29547 0.53972 0.0
C1701 C 1.00664 0.2965 0.52343 0.0
H1702 H 0.01877 0.25778 0.47863 0.0
C1703 C 0.92214 0.25872 0.45699 0.0
C1704 C 0.91592 0.22955 0.44828 0.0
C1705 C 0.94368 0.27102 0.47232 0.0
C1706 C 1.01489 0.26834 0.49113 0.0
H1707 H 0.08963 0.36593 0.57098 0.0
H1708 H 0.05284 0.3482 0.54439 0.0
H1709 H 0.06177 0.28093 0.50212 0.0
H1710 H 0.92544 0.18938 0.44946 0.0
H1711 H 0.96217 0.21031 0.47618 0.0
H1712 H 0.95994 0.28441 0.51207 0.0
C1713 C 0.0665 0.33591 0.54707 0.0
C1714 C 0.0396 0.28157 0.50469 0.0
C1715 C 0.08808 0.34652 0.5622 0.0
C1716 C 0.92964 0.21184 0.45599 0.0
C1717 C 0.9511 0.22408 0.47113 0.0
C1718 C 0.98213 0.28367 0.50973 0.0
C1719 C 0.06197 0.3094 0.53596 0.0
C1720 C 0.03588 0.29577 0.52114 0.0
C1721 C 0.95943 0.25442 0.47906 0.0
C1722 C 0.98579 0.26914 0.49349 0.0
H1723 H 0.11747 0.29433 0.5579 0.0
H1724 H 0.07902 0.27491 0.53164 0.0
H1725 H 1.00221 0.30642 0.53601 0.0
H1726 H 0.91256 0.27326 0.45104 0.0
H1727 H 0.94958 0.29448 0.47813 0.0
C1728 C 0.66403 0.17645 0.10522 0.0
C1729 C 0.66712 0.14847 0.10432 0.0
C1730 C 0.63386 0.17375 0.10949 0.0
C1731 C 0.54602 0.11203 0.10712 0.0
H1732 H 0.53434 0.17746 0.13295 0.0
C1733 C 0.43109 0.12179 0.09847 0.0
C1734 C 0.41916 0.13146 0.11364 0.0
C1735 C 0.45976 0.12059 0.10009 0.0
C1736 C 0.53711 0.15868 0.12597 0.0
H1737 H 0.64198 0.09624 0.10875 0.0
H1738 H 0.58993 0.09157 0.11667 0.0
H1739 H 0.58855 0.18326 0.13132 0.0
H1740 H 0.42794 0.148 0.1424 0.0
H1741 H 0.47829 0.14543 0.14547 0.0
H1742 H 0.4948 0.08737 0.1018 0.0
C1743 C 0.61025 0.11548 0.11342 0.0
C1744 C 0.56829 0.16226 0.1248 0.0
C1745 C 0.64015 0.11815 0.109 0.0
C1746 C 0.43615 0.13942 0.1307 0.0
C1747 C 0.46518 0.13846 0.13232 0.0
C1748 C 0.515 0.10842 0.10834 0.0
C1749 C 0.60632 0.14302 0.11311 0.0
C1750 C 0.57317 0.13905 0.11523 0.0
C1751 C 0.47766 0.12968 0.11687 0.0
C1752 C 0.51014 0.13188 0.11754 0.0
H1753 H 0.68442 0.20013 0.10164 0.0
H1754 H 0.63178 0.1955 0.10907 0.0
H1755 H 0.54876 0.09392 0.09933 0.0
H1756 H 0.41901 0.11665 0.085 0.0
H1757 H 0.46882 0.11431 0.0878 0.0
C1758 C 0.72023 0.5911 0.41197 0.0
C1759 C 0.74038 0.60586 0.39644 0.0
C1760 C 0.69026 0.56252 0.40992 0.0
C1761 C 0.64806 0.48964 0.3804 0.0
H1762 H 0.57265 0.47564 0.40895 0.0
C1763 C 0.53506 0.36142 0.39658 0.0
C1764 C 0.5046 0.3597 0.39727 0.0
C1765 C 0.56361 0.39149 0.39353 0.0
C1766 C 0.59331 0.47913 0.4007 0.0
H1767 H 0.74502 0.6024 0.36648 0.0
H1768 H 0.6922 0.55214 0.36282 0.0
H1769 H 0.62136 0.52924 0.40885 0.0
H1770 H 0.47986 0.38735 0.39368 0.0
H1771 H 0.52916 0.43927 0.38815 0.0
H1772 H 0.61982 0.43919 0.37241 0.0
C1773 C 0.69965 0.5629 0.3766 0.0
C1774 C 0.62137 0.50987 0.40078 0.0
C1775 C 0.72964 0.59188 0.37864 0.0
C1776 C 0.50304 0.38802 0.39353 0.0
C1777 C 0.53134 0.41784 0.39047 0.0
C1778 C 0.6199 0.45868 0.3804 0.0
C1779 C 0.67987 0.5476 0.3923 0.0
C1780 C 0.6492 0.51552 0.39076 0.0
C1781 C 0.5621 0.42026 0.39108 0.0
C1782 C 0.59217 0.45306 0.39058 0.0
H1783 H 0.72821 0.60116 0.42586 0.0
H1784 H 0.67588 0.55129 0.42234 0.0
H1785 H 0.66924 0.49308 0.37272 0.0
H1786 H 0.53699 0.34 0.39948 0.0
H1787 H 0.58691 0.39248 0.39408 0.0
C1788 C 0.88813 0.30432 0.13985 0.0
C1789 C 0.89092 0.28847 0.12399 0.0
C1790 C 0.88989 0.33454 0.13827 0.0
C1791 C 0.87499 0.38399 0.10402 0.0
H1792 H 0.91226 0.44961 0.14299 0.0
C1793 C 0.85387 0.49475 0.1063 0.0
C1794 C 0.88156 0.52497 0.11031 0.0
C1795 C 0.85454 0.46565 0.10882 0.0
C1796 C 0.90186 0.43168 0.1319 0.0
H1797 H 0.89783 0.29158 0.09397 0.0
H1798 H 0.90166 0.34505 0.09112 0.0
H1799 H 0.91886 0.40194 0.14446 0.0
H1800 H 0.93087 0.54842 0.12104 0.0
H1801 H 0.93218 0.4982 0.12538 0.0
H1802 H 0.85874 0.41429 0.09121 0.0
C1803 C 0.89808 0.33409 0.10485 0.0
C1804 C 0.90542 0.40413 0.13283 0.0
C1805 C 0.89646 0.30378 0.10648 0.0
C1806 C 0.90922 0.52545 0.11776 0.0
C1807 C 0.90987 0.49657 0.12034 0.0
C1808 C 0.87153 0.41168 0.10305 0.0
C1809 C 0.89399 0.34947 0.12069 0.0
C1810 C 0.89196 0.37983 0.11895 0.0
C1811 C 0.88282 0.46629 0.11555 0.0
C1812 C 0.88495 0.43593 0.11698 0.0
H1813 H 0.88309 0.29256 0.15342 0.0
H1814 H 0.8862 0.34529 0.15074 0.0
H1815 H 0.86385 0.36557 0.09322 0.0
H1816 H 0.8323 0.49371 0.10044 0.0
H1817 H 0.83309 0.44273 0.10525 0.0
C1818 C 0.42937 0.12182 0.40879 0.0
C1819 C 0.41975 0.13439 0.39393 0.0
C1820 C 0.45868 0.12159 0.40799 0.0
C1821 C 0.5397 0.16447 0.38539 0.0
H1822 H 0.54875 0.09598 0.40925 0.0
C1823 C 0.66502 0.1788 0.40643 0.0
C1824 C 0.66787 0.15065 0.4064 0.0
C1825 C 0.6351 0.1767 0.40222 0.0
C1826 C 0.54677 0.11518 0.40225 0.0
H1827 H 0.43327 0.1572 0.36667 0.0
H1828 H 0.48433 0.15601 0.36491 0.0
H1829 H 0.49517 0.09011 0.40613 0.0
H1830 H 0.64257 0.09885 0.40048 0.0
H1831 H 0.59098 0.09529 0.39258 0.0
H1832 H 0.59141 0.18926 0.38124 0.0
C1833 C 0.46923 0.14628 0.37724 0.0
C1834 C 0.51593 0.11198 0.4007 0.0
C1835 C 0.43978 0.14647 0.37807 0.0
C1836 C 0.64091 0.12085 0.40093 0.0
C1837 C 0.61125 0.1188 0.39654 0.0
C1838 C 0.57064 0.16758 0.38682 0.0
C1839 C 0.47935 0.13438 0.39236 0.0
C1840 C 0.51196 0.13673 0.39247 0.0
C1841 C 0.60754 0.14644 0.39772 0.0
C1842 C 0.57463 0.14304 0.39539 0.0
H1843 H 0.4147 0.11322 0.42137 0.0
H1844 H 0.46579 0.11279 0.42006 0.0
H1845 H 0.53769 0.18424 0.37917 0.0
H1846 H 0.68541 0.20207 0.41064 0.0
H1847 H 0.63324 0.19852 0.40335 0.0
C1848 C 0.53411 0.36224 0.10935 0.0
C1849 C 0.50363 0.3598 0.11201 0.0
C1850 C 0.56281 0.39196 0.11252 0.0
C1851 C 0.59047 0.48016 0.11348 0.0
H1852 H 0.67163 0.48895 0.13138 0.0
C1853 C 0.71426 0.59615 0.10177 0.0
C1854 C 0.73817 0.60582 0.11567 0.0
C1855 C 0.68455 0.56726 0.10368 0.0
C1856 C 0.64903 0.48699 0.12662 0.0
H1857 H 0.47908 0.38536 0.12152 0.0
H1858 H 0.52883 0.43669 0.12756 0.0
H1859 H 0.62245 0.4353 0.13115 0.0
H1860 H 0.7505 0.59302 0.14228 0.0
H1861 H 0.69809 0.5426 0.14594 0.0
H1862 H 0.61679 0.53174 0.10911 0.0
C1863 C 0.53083 0.41624 0.12242 0.0
C1864 C 0.62094 0.45615 0.12625 0.0
C1865 C 0.50232 0.38677 0.11911 0.0
C1866 C 0.73191 0.58642 0.13166 0.0
C1867 C 0.70217 0.55736 0.13357 0.0
C1868 C 0.61843 0.51092 0.11392 0.0
C1869 C 0.56143 0.41961 0.11854 0.0
C1870 C 0.59132 0.45234 0.1196 0.0
C1871 C 0.6784 0.54711 0.1194 0.0
C1872 C 0.64814 0.51471 0.12033 0.0
H1873 H 0.53572 0.3418 0.10379 0.0
H1874 H 0.58595 0.39369 0.10935 0.0
H1875 H 0.56827 0.47816 0.10794 0.0
H1876 H 0.71907 0.61034 0.08909 0.0
H1877 H 0.66709 0.55993 0.09235 0.0
C1878 C 0.85497 0.49564 0.40239 0.0
C1879 C 0.88266 0.5258 0.39832 0.0
C1880 C 0.85564 0.4665 0.40006 0.0
C1881 C 0.90289 0.43204 0.37742 0.0
H1882 H 0.86484 0.36659 0.41637 0.0
C1883 C 0.88826 0.30414 0.37015 0.0
C1884 C 0.89122 0.28857 0.38608 0.0
C1885 C 0.89024 0.33449 0.37157 0.0
C1886 C 0.87598 0.38482 0.40549 0.0
H1887 H 0.93203 0.5491 0.38775 0.0
H1888 H 0.9333 0.49877 0.38368 0.0
H1889 H 0.85987 0.41544 0.41806 0.0
H1890 H 0.89867 0.29235 0.41607 0.0
H1891 H 0.90277 0.346 0.41863 0.0
H1892 H 0.91966 0.40194 0.36507 0.0
C1893 C 0.91099 0.49723 0.38861 0.0
C1894 C 0.87261 0.41259 0.40629 0.0
C1895 C 0.91034 0.52617 0.39101 0.0
C1896 C 0.89716 0.30431 0.4035 0.0
C1897 C 0.89895 0.33473 0.40497 0.0
C1898 C 0.90632 0.4044 0.37665 0.0
C1899 C 0.88393 0.46702 0.39347 0.0
C1900 C 0.88605 0.4366 0.39225 0.0
C1901 C 0.8947 0.34983 0.38906 0.0
C1902 C 0.89284 0.38032 0.39063 0.0
H1903 H 0.8334 0.4947 0.40817 0.0
H1904 H 0.83418 0.44364 0.40368 0.0
H1905 H 0.91332 0.44979 0.36625 0.0
H1906 H 0.88292 0.29207 0.35665 0.0
H1907 H 0.88645 0.34503 0.35904 0.0
C1908 C 0.17875 0.66112 0.60691 0.0
C1909 C 0.15086 0.66323 0.61093 0.0
C1910 C 0.17856 0.63163 0.60955 0.0
C1911 C 0.13262 0.55034 0.63282 0.0
H1912 H 0.16976 0.52269 0.59347 0.0
C1913 C 0.14761 0.43672 0.63906 0.0
C1914 C 0.14458 0.41871 0.62286 0.0
C1915 C 0.14527 0.46497 0.63809 0.0
C1916 C 0.15889 0.52984 0.60448 0.0
H1917 H 0.1017 0.63692 0.62179 0.0
H1918 H 0.10128 0.58582 0.62642 0.0
H1919 H 0.17437 0.5763 0.59174 0.0
H1920 H 0.1364 0.41558 0.59296 0.0
H1921 H 0.13149 0.46465 0.59121 0.0
H1922 H 0.11648 0.50365 0.64534 0.0
C1923 C 0.12335 0.60666 0.62127 0.0
C1924 C 0.16206 0.56087 0.60365 0.0
C1925 C 0.12351 0.63593 0.61854 0.0
C1926 C 0.13791 0.42864 0.60572 0.0
C1927 C 0.13571 0.45704 0.6047 0.0
C1928 C 0.12942 0.51933 0.63363 0.0
C1929 C 0.15057 0.60381 0.61642 0.0
C1930 C 0.14888 0.57152 0.61779 0.0
C1931 C 0.14039 0.47614 0.6208 0.0
C1932 C 0.14247 0.50861 0.61947 0.0
H1933 H 0.20008 0.68175 0.60091 0.0
H1934 H 0.20012 0.63045 0.60591 0.0
H1935 H 0.1224 0.55775 0.64405 0.0
H1936 H 0.1536 0.4299 0.65232 0.0
H1937 H 0.14933 0.47912 0.65073 0.0
C1938 C 0.31278 0.8848 0.8703 0.0
C1939 C 0.29544 0.88687 0.88562 0.0
C1940 C 0.34302 0.88698 0.87287 0.0
C1941 C 0.38801 0.86932 0.9084 0.0
H1942 H 0.45949 0.91143 0.87323 0.0
C1943 C 0.49714 0.84602 0.90904 0.0
C1944 C 0.52809 0.87402 0.90773 0.0
C1945 C 0.46898 0.84788 0.90551 0.0
C1946 C 0.43982 0.89961 0.88323 0.0
H1947 H 0.29592 0.89296 0.91567 0.0
H1948 H 0.34911 0.89704 0.92025 0.0
H1949 H 0.41196 0.91813 0.86981 0.0
H1950 H 0.55394 0.92539 0.9007 0.0
H1951 H 0.50514 0.92866 0.89445 0.0
H1952 H 0.41602 0.85102 0.92192 0.0
C1953 C 0.33944 0.89397 0.90619 0.0
C1954 C 0.41248 0.90332 0.88121 0.0
C1955 C 0.30926 0.89216 0.90357 0.0
C1956 C 0.53038 0.90346 0.90195 0.0
C1957 C 0.50239 0.90527 0.89826 0.0
C1958 C 0.41531 0.86549 0.91038 0.0
C1959 C 0.35626 0.89053 0.89091 0.0
C1960 C 0.38621 0.88822 0.89375 0.0
C1961 C 0.47129 0.8777 0.90036 0.0
C1962 C 0.44159 0.88061 0.89782 0.0
H1963 H 0.30219 0.87997 0.85641 0.0
H1964 H 0.35507 0.88392 0.86082 0.0
H1965 H 0.36801 0.85693 0.91815 0.0
H1966 H 0.49466 0.82303 0.91354 0.0
H1967 H 0.44541 0.82607 0.907 0.0
C1968 C 0.59753 0.72446 0.62909 0.0
C1969 C 0.61471 0.73349 0.6121 0.0
C1970 C 0.56834 0.69456 0.63063 0.0
C1971 C 0.51828 0.61457 0.60653 0.0
H1972 H 0.44558 0.61446 0.63147 0.0
C1973 C 0.39464 0.49714 0.61007 0.0
C1974 C 0.36673 0.4994 0.60641 0.0
C1975 C 0.42457 0.52506 0.61363 0.0
C1976 C 0.46558 0.61411 0.62438 0.0
H1977 H 0.61504 0.71884 0.58349 0.0
H1978 H 0.56461 0.66691 0.58607 0.0
H1979 H 0.49939 0.66357 0.63215 0.0
H1980 H 0.34788 0.53255 0.60461 0.0
H1981 H 0.40053 0.58178 0.61058 0.0
H1982 H 0.48456 0.56591 0.59797 0.0
C1983 C 0.5737 0.68221 0.59839 0.0
C1984 C 0.49657 0.64214 0.62499 0.0
C1985 C 0.60265 0.71198 0.59687 0.0
C1986 C 0.36901 0.53012 0.60745 0.0
C1987 C 0.3992 0.55828 0.61087 0.0
C1988 C 0.48742 0.58673 0.60585 0.0
C1989 C 0.55573 0.67332 0.61515 0.0
C1990 C 0.52329 0.64281 0.61593 0.0
C1991 C 0.42759 0.55617 0.61345 0.0
C1992 C 0.46056 0.58603 0.61473 0.0
H1993 H 0.60588 0.74109 0.64089 0.0
H1994 H 0.55532 0.68839 0.6438 0.0
H1995 H 0.53824 0.61401 0.59952 0.0
H1996 H 0.3935 0.47371 0.60961 0.0
H1997 H 0.44557 0.52225 0.61611 0.0
C1998 C 0.12501 0.63453 0.90444 0.0
C1999 C 0.1557 0.66228 0.90734 0.0
C2000 C 0.12219 0.60442 0.90031 0.0
C2001 C 0.16726 0.56237 0.88594 0.0
H2002 H 0.09963 0.49128 0.91469 0.0
C2003 C 0.1437 0.42949 0.88133 0.0
C2004 C 0.14132 0.41506 0.89887 0.0
C2005 C 0.14227 0.45834 0.88001 0.0
C2006 C 0.11859 0.5108 0.90651 0.0
H2007 H 0.2077 0.68061 0.90701 0.0
H2008 H 0.20282 0.62764 0.89992 0.0
H2009 H 0.1056 0.54521 0.91658 0.0
H2010 H 0.13481 0.41862 0.92856 0.0
H2011 H 0.1318 0.4683 0.92631 0.0
H2012 H 0.18097 0.52783 0.87652 0.0
C2013 C 0.18088 0.62929 0.90078 0.0
C2014 C 0.12185 0.54174 0.90745 0.0
C2015 C 0.18371 0.65963 0.90485 0.0
C2016 C 0.13622 0.42908 0.91486 0.0
C2017 C 0.13449 0.45754 0.91354 0.0
C2018 C 0.16396 0.53124 0.88499 0.0
C2019 C 0.14998 0.60111 0.89903 0.0
C2020 C 0.1463 0.56802 0.89727 0.0
C2021 C 0.13828 0.47301 0.89619 0.0
C2022 C 0.1398 0.50519 0.89546 0.0
H2023 H 0.10299 0.63594 0.90587 0.0
H2024 H 0.09805 0.58348 0.89854 0.0
H2025 H 0.18625 0.582 0.87785 0.0
H2026 H 0.14833 0.41949 0.86884 0.0
H2027 H 0.14501 0.46954 0.86642 0.0
C2028 C 0.3127 0.89095 0.59665 0.0
C2029 C 0.29224 0.88519 0.61206 0.0
C2030 C 0.34256 0.89223 0.59883 0.0
C2031 C 0.38295 0.85962 0.62801 0.0
H2032 H 0.46005 0.92232 0.60113 0.0
C2033 C 0.49553 0.84415 0.61154 0.0
C2034 C 0.52617 0.87273 0.61192 0.0
C2035 C 0.46706 0.84571 0.61464 0.0
C2036 C 0.43887 0.90477 0.6089 0.0
H2037 H 0.28688 0.87635 0.64194 0.0
H2038 H 0.33943 0.87862 0.64584 0.0
H2039 H 0.41169 0.92783 0.60097 0.0
H2040 H 0.55128 0.92468 0.61743 0.0
H2041 H 0.50203 0.92735 0.62301 0.0
H2042 H 0.41025 0.83633 0.63569 0.0
C2043 C 0.33236 0.88238 0.63206 0.0
C2044 C 0.41107 0.90783 0.60868 0.0
C2045 C 0.30253 0.88154 0.62989 0.0
C2046 C 0.52795 0.90234 0.61681 0.0
C2047 C 0.49972 0.90389 0.61988 0.0
C2048 C 0.41082 0.85641 0.62811 0.0
C2049 C 0.35241 0.88713 0.61647 0.0
C2050 C 0.3827 0.88522 0.61813 0.0
C2051 C 0.46888 0.87587 0.61816 0.0
C2052 C 0.43912 0.87899 0.61854 0.0
H2053 H 0.30503 0.89334 0.58273 0.0
H2054 H 0.35724 0.89564 0.58652 0.0
H2055 H 0.3613 0.84155 0.63521 0.0
H2056 H 0.49348 0.82105 0.60772 0.0
H2057 H 0.44365 0.82366 0.61323 0.0
C2058 C 0.59999 0.7171 0.90283 0.0
C2059 C 0.6099 0.73249 0.88535 0.0
C2060 C 0.57134 0.68676 0.90437 0.0
C2061 C 0.50914 0.61667 0.87626 0.0
H2062 H 0.45179 0.6063 0.91761 0.0
C2063 C 0.39184 0.49503 0.8912 0.0
C2064 C 0.36453 0.49545 0.89847 0.0
C2065 C 0.42131 0.52397 0.88865 0.0
C2066 C 0.46734 0.60896 0.90585 0.0
H2067 H 0.59809 0.72862 0.8559 0.0
H2068 H 0.5486 0.67577 0.85842 0.0
H2069 H 0.50548 0.65517 0.91573 0.0
H2070 H 0.34626 0.52665 0.90808 0.0
H2071 H 0.3979 0.5777 0.90331 0.0
H2072 H 0.47081 0.57104 0.86606 0.0
C2073 C 0.56293 0.68648 0.87093 0.0
C2074 C 0.4984 0.63674 0.90495 0.0
C2075 C 0.59133 0.71676 0.86944 0.0
C2076 C 0.36688 0.52566 0.90233 0.0
C2077 C 0.39657 0.5548 0.89984 0.0
C2078 C 0.47812 0.589 0.87713 0.0
C2079 C 0.55203 0.67143 0.88848 0.0
C2080 C 0.51971 0.64099 0.89012 0.0
C2081 C 0.42436 0.55424 0.8933 0.0
C2082 C 0.45678 0.58468 0.89194 0.0
H2083 H 0.61342 0.72926 0.91538 0.0
H2084 H 0.56386 0.67573 0.91808 0.0
H2085 H 0.52491 0.61894 0.8647 0.0
H2086 H 0.39068 0.47208 0.88807 0.0
H2087 H 0.44209 0.5224 0.88375 0.0
loop_
_geom_bond_atom_site_label_1
_geom_bond_atom_site_label_2
_geom_bond_distance
_geom_bond_site_symmetry_2
_ccdc_geom_bond_type
Gd0 N31 2.661 . S
Gd0 N37 2.601 . S
Gd0 O44 2.545 . S
Gd0 O45 2.606 . S
Gd0 O47 2.429 . S
Gd0 O48 2.545 . S
Gd0 O49 2.412 . S
Gd0 O51 2.362 . S
Gd0 O52 2.324 . S
Gd0 C59 2.828 . S
Gd1 N10 2.661 . S
Gd1 N14 2.601 . S
Gd1 O45 2.362 . S
Gd1 O46 2.324 . S
Gd1 O50 2.545 . S
Gd1 O51 2.606 . S
Gd1 O53 2.429 . S
Gd1 O54 2.545 . S
Gd1 O55 2.412 . S
Gd1 C68 2.828 . S
C2 C5 1.417 . S
C2 C7 1.431 . S
C2 C8 1.412 . S
C3 C6 1.437 . S
C3 C7 1.317 . S
C3 H22 0.929 . S
C4 C5 1.426 . S
C4 C6 1.413 . S
C4 N14 1.359 . S
C5 C2 1.417 . S
C5 C4 1.426 . S
C5 N10 1.350 . S
C6 C3 1.437 . S
C6 C4 1.413 . S
C6 C16 1.391 . S
C7 C2 1.431 . S
C7 C3 1.317 . S
C7 H18 0.930 . S
C8 C2 1.412 . S
C8 C9 1.355 . S
C8 H20 0.930 . S
C9 C8 1.355 . S
C9 C11 1.402 . S
C9 H21 0.930 . S
N10 Gd1 2.661 . S
N10 C5 1.350 . S
N10 C11 1.307 . S
C11 C9 1.402 . S
C11 N10 1.307 . S
C11 H12 0.930 . S
H12 C11 0.930 . S
C13 N14 1.334 . S
C13 C15 1.394 . S
C13 H17 0.930 . S
N14 Gd1 2.601 . S
N14 C4 1.359 . S
N14 C13 1.334 . S
C15 C13 1.394 . S
C15 C16 1.359 . S
C15 H27 0.930 . S
C16 C6 1.391 . S
C16 C15 1.359 . S
C16 H28 0.929 . S
H17 C13 0.930 . S
H18 C7 0.930 . S
H19 C36 0.930 . S
H20 C8 0.930 . S
H21 C9 0.930 . S
H22 C3 0.929 . S
H23 C41 0.930 . S
H24 C32 0.930 . S
H25 C33 0.930 . S
H26 C57 0.929 . S
H27 C15 0.930 . S
H28 C16 0.929 . S
H29 C58 0.930 . S
H30 C39 0.930 . S
N31 Gd0 2.661 . S
N31 C35 1.350 . S
N31 C36 1.307 . S
C32 H24 0.930 . S
C32 C33 1.355 . S
C32 C34 1.412 . S
C33 H25 0.930 . S
C33 C32 1.355 . S
C33 C36 1.402 . S
C34 C32 1.412 . S
C34 C35 1.417 . S
C34 C58 1.431 . S
C35 N31 1.350 . S
C35 C34 1.417 . S
C35 C38 1.426 . S
C36 H19 0.930 . S
C36 N31 1.307 . S
C36 C33 1.402 . S
N37 Gd0 2.601 . S
N37 C38 1.359 . S
N37 C41 1.334 . S
C38 C35 1.426 . S
C38 N37 1.359 . S
C38 C42 1.413 . S
C39 H30 0.930 . S
C39 C40 1.359 . S
C39 C41 1.394 . S
C40 C39 1.359 . S
C40 C42 1.391 . S
C40 H43 0.929 . S
C41 H23 0.930 . S
C41 N37 1.334 . S
C41 C39 1.394 . S
C42 C38 1.413 . S
C42 C40 1.391 . S
C42 C57 1.437 . S
H43 C40 0.929 . S
O44 Gd0 2.545 . S
O44 C59 1.258 . S
O45 Gd0 2.606 . S
O45 Gd1 2.362 . S
O45 C56 1.284 . S
O46 Gd1 2.324 . S
O46 C66 1.254 . S
O47 Gd0 2.429 . S
O47 C66 1.268 . S
O48 Gd0 2.545 . S
O48 C56 1.250 . S
O49 Gd0 2.412 . S
O49 C59 1.252 . S
O50 Gd1 2.545 . S
O50 C68 1.258 . S
O51 Gd0 2.362 . S
O51 Gd1 2.606 . S
O51 C67 1.284 . S
O52 Gd0 2.324 . S
O52 C75 1.254 . S
O53 Gd1 2.429 . S
O53 C75 1.268 . S
O54 Gd1 2.545 . S
O54 C67 1.250 . S
O55 Gd1 2.412 . S
O55 C68 1.252 . S
C56 O45 1.284 . S
C56 O48 1.250 . S
C57 H26 0.929 . S
C57 C42 1.437 . S
C57 C58 1.317 . S
C58 H29 0.930 . S
C58 C34 1.431 . S
C58 C57 1.317 . S
C59 Gd0 2.828 . S
C59 O44 1.258 . S
C59 O49 1.252 . S
C59 C60 1.497 . S
C60 C59 1.497 . S
C60 C61 1.395 . S
C60 C62 1.380 . S
C61 C60 1.395 . S
C61 C64 1.398 1_545 S
C61 H76 0.930 . S
C62 C60 1.380 . S
C62 C63 1.391 1_545 S
C62 H77 0.930 . S
C63 C62 1.391 1_565 S
C63 C65 1.387 . S
C64 C61 1.398 1_565 S
C64 C65 1.380 . S
C64 H78 0.930 . S
C65 C63 1.387 . S
C65 C64 1.380 . S
C65 H79 0.930 . S
C66 O46 1.254 . S
C66 O47 1.268 . S
C67 O51 1.284 . S
C67 O54 1.250 . S
C68 Gd1 2.828 . S
C68 O50 1.258 . S
C68 O55 1.252 . S
C68 C69 1.497 . S
C69 C68 1.497 . S
C69 C70 1.395 . S
C69 C71 1.380 . S
C70 C69 1.395 . S
C70 C73 1.398 . S
C70 H80 0.930 . S
C71 C69 1.380 . S
C71 C72 1.391 . S
C71 H81 0.930 . S
C72 C71 1.391 . S
C72 C74 1.387 . S
C73 C70 1.398 . S
C73 C74 1.380 . S
C73 H82 0.930 . S
C74 C72 1.387 . S
C74 C73 1.380 . S
C74 H83 0.930 . S
C75 O52 1.254 . S
C75 O53 1.268 . S
H76 C61 0.930 . S
H77 C62 0.930 . S
H78 C64 0.930 . S
H79 C65 0.930 . S
H80 C70 0.930 . S
H81 C71 0.930 . S
H82 C73 0.930 . S
H83 C74 0.930 . S
Gd84 N115 2.661 . S
Gd84 N121 2.601 . S
Gd84 O128 2.545 . S
Gd84 O129 2.606 . S
Gd84 O131 2.429 . S
Gd84 O132 2.545 . S
Gd84 O133 2.412 . S
Gd84 O135 2.362 . S
Gd84 O136 2.324 . S
Gd84 C143 2.828 . S
Gd85 N94 2.661 . S
Gd85 N98 2.601 . S
Gd85 O129 2.362 . S
Gd85 O130 2.324 . S
Gd85 O134 2.545 . S
Gd85 O135 2.606 . S
Gd85 O137 2.429 . S
Gd85 O138 2.545 . S
Gd85 O139 2.412 . S
Gd85 C152 2.828 . S
C86 C89 1.417 . S
C86 C91 1.431 . S
C86 C92 1.412 . S
C87 C90 1.437 . S
C87 C91 1.317 . S
C87 H106 0.929 . S
C88 C89 1.426 . S
C88 C90 1.413 . S
C88 N98 1.359 . S
C89 C86 1.417 . S
C89 C88 1.426 . S
C89 N94 1.350 . S
C90 C87 1.437 . S
C90 C88 1.413 . S
C90 C100 1.391 . S
C91 C86 1.431 . S
C91 C87 1.317 . S
C91 H102 0.930 . S
C92 C86 1.412 . S
C92 C93 1.355 . S
C92 H104 0.930 . S
C93 C92 1.355 . S
C93 C95 1.402 . S
C93 H105 0.930 . S
N94 Gd85 2.661 . S
N94 C89 1.350 . S
N94 C95 1.307 . S
C95 C93 1.402 . S
C95 N94 1.307 . S
C95 H96 0.930 . S
H96 C95 0.930 . S
C97 N98 1.334 . S
C97 C99 1.394 . S
C97 H101 0.930 . S
N98 Gd85 2.601 . S
N98 C88 1.359 . S
N98 C97 1.334 . S
C99 C97 1.394 . S
C99 C100 1.359 . S
C99 H111 0.930 . S
C100 C90 1.391 . S
C100 C99 1.359 . S
C100 H112 0.929 . S
H101 C97 0.930 . S
H102 C91 0.930 . S
H103 C120 0.930 . S
H104 C92 0.930 . S
H105 C93 0.930 . S
H106 C87 0.929 . S
H107 C125 0.930 . S
H108 C116 0.930 . S
H109 C117 0.930 . S
H110 C141 0.929 . S
H111 C99 0.930 . S
H112 C100 0.929 . S
H113 C142 0.930 1_455 S
H114 C123 0.930 . S
N115 Gd84 2.661 . S
N115 C119 1.350 . S
N115 C120 1.307 . S
C116 H108 0.930 . S
C116 C117 1.355 . S
C116 C118 1.412 . S
C117 H109 0.930 . S
C117 C116 1.355 . S
C117 C120 1.402 . S
C118 C116 1.412 . S
C118 C119 1.417 . S
C118 C142 1.431 . S
C119 N115 1.350 . S
C119 C118 1.417 . S
C119 C122 1.426 . S
C120 H103 0.930 . S
C120 N115 1.307 . S
C120 C117 1.402 . S
N121 Gd84 2.601 . S
N121 C122 1.359 . S
N121 C125 1.334 . S
C122 C119 1.426 . S
C122 N121 1.359 . S
C122 C126 1.413 . S
C123 H114 0.930 . S
C123 C124 1.359 . S
C123 C125 1.394 . S
C124 C123 1.359 . S
C124 C126 1.391 . S
C124 H127 0.929 . S
C125 H107 0.930 . S
C125 N121 1.334 . S
C125 C123 1.394 . S
C126 C122 1.413 . S
C126 C124 1.391 . S
C126 C141 1.437 . S
H127 C124 0.929 . S
O128 Gd84 2.545 . S
O128 C143 1.258 . S
O129 Gd84 2.606 . S
O129 Gd85 2.362 . S
O129 C140 1.284 . S
O130 Gd85 2.324 . S
O130 C150 1.254 . S
O131 Gd84 2.429 . S
O131 C150 1.268 . S
O132 Gd84 2.545 . S
O132 C140 1.250 . S
O133 Gd84 2.412 . S
O133 C143 1.252 . S
O134 Gd85 2.545 . S
O134 C152 1.258 . S
O135 Gd84 2.362 . S
O135 Gd85 2.606 . S
O135 C151 1.284 . S
O136 Gd84 2.324 . S
O136 C159 1.254 . S
O137 Gd85 2.429 . S
O137 C159 1.268 . S
O138 Gd85 2.545 . S
O138 C151 1.250 . S
O139 Gd85 2.412 . S
O139 C152 1.252 . S
C140 O129 1.284 . S
C140 O132 1.250 . S
C141 H110 0.929 . S
C141 C126 1.437 . S
C141 C142 1.317 . S
C142 H113 0.930 1_655 S
C142 C118 1.431 . S
C142 C141 1.317 . S
C143 Gd84 2.828 . S
C143 O128 1.258 . S
C143 O133 1.252 . S
C143 C144 1.497 . S
C144 C143 1.497 . S
C144 C145 1.395 . S
C144 C146 1.380 . S
C145 C144 1.395 . S
C145 C148 1.398 . S
C145 H160 0.930 . S
C146 C144 1.380 . S
C146 C147 1.391 . S
C146 H161 0.930 . S
C147 C146 1.391 . S
C147 C149 1.387 . S
C148 C145 1.398 . S
C148 C149 1.380 . S
C148 H162 0.930 . S
C149 C147 1.387 . S
C149 C148 1.380 . S
C149 H163 0.930 . S
C150 O130 1.254 . S
C150 O131 1.268 . S
C151 O135 1.284 . S
C151 O138 1.250 . S
C152 Gd85 2.828 . S
C152 O134 1.258 . S
C152 O139 1.252 . S
C152 C153 1.497 . S
C153 C152 1.497 . S
C153 C154 1.395 . S
C153 C155 1.380 . S
C154 C153 1.395 . S
C154 C157 1.398 . S
C154 H164 0.930 . S
C155 C153 1.380 . S
C155 C156 1.391 . S
C155 H165 0.930 . S
C156 C155 1.391 . S
C156 C158 1.387 . S
C157 C154 1.398 . S
C157 C158 1.380 . S
C157 H166 0.930 . S
C158 C156 1.387 . S
C158 C157 1.380 . S
C158 H167 0.930 . S
C159 O136 1.254 . S
C159 O137 1.268 . S
H160 C145 0.930 . S
H161 C146 0.930 . S
H162 C148 0.930 . S
H163 C149 0.930 . S
H164 C154 0.930 . S
H165 C155 0.930 . S
H166 C157 0.930 . S
H167 C158 0.930 . S
Gd168 N199 2.661 . S
Gd168 N205 2.601 . S
Gd168 O212 2.545 . S
Gd168 O213 2.606 . S
Gd168 O215 2.429 . S
Gd168 O216 2.545 . S
Gd168 O217 2.412 . S
Gd168 O219 2.362 . S
Gd168 O220 2.324 . S
Gd168 C227 2.828 . S
Gd169 N178 2.661 . S
Gd169 N182 2.601 . S
Gd169 O213 2.362 . S
Gd169 O214 2.324 . S
Gd169 O218 2.545 . S
Gd169 O219 2.606 . S
Gd169 O221 2.429 . S
Gd169 O222 2.545 . S
Gd169 O223 2.412 . S
Gd169 C236 2.828 . S
C170 C173 1.417 . S
C170 C175 1.431 . S
C170 C176 1.412 . S
C171 C174 1.437 . S
C171 C175 1.317 . S
C171 H190 0.929 . S
C172 C173 1.426 . S
C172 C174 1.413 . S
C172 N182 1.359 . S
C173 C170 1.417 . S
C173 C172 1.426 . S
C173 N178 1.350 . S
C174 C171 1.437 . S
C174 C172 1.413 . S
C174 C184 1.391 . S
C175 C170 1.431 . S
C175 C171 1.317 . S
C175 H186 0.930 1_545 S
C176 C170 1.412 . S
C176 C177 1.355 . S
C176 H188 0.930 . S
C177 C176 1.355 . S
C177 C179 1.402 . S
C177 H189 0.930 . S
N178 Gd169 2.661 . S
N178 C173 1.350 . S
N178 C179 1.307 . S
C179 C177 1.402 . S
C179 N178 1.307 . S
C179 H180 0.930 . S
H180 C179 0.930 . S
C181 N182 1.334 . S
C181 C183 1.394 . S
C181 H185 0.930 . S
N182 Gd169 2.601 . S
N182 C172 1.359 . S
N182 C181 1.334 . S
C183 C181 1.394 . S
C183 C184 1.359 . S
C183 H195 0.930 . S
C184 C174 1.391 . S
C184 C183 1.359 . S
C184 H196 0.929 . S
H185 C181 0.930 . S
H186 C175 0.930 1_565 S
H187 C204 0.930 . S
H188 C176 0.930 . S
H189 C177 0.930 . S
H190 C171 0.929 . S
H191 C209 0.930 . S
H192 C200 0.930 . S
H193 C201 0.930 . S
H194 C225 0.929 . S
H195 C183 0.930 . S
H196 C184 0.929 . S
H197 C226 0.930 . S
H198 C207 0.930 . S
N199 Gd168 2.661 . S
N199 C203 1.350 . S
N199 C204 1.307 . S
C200 H192 0.930 . S
C200 C201 1.355 . S
C200 C202 1.412 . S
C201 H193 0.930 . S
C201 C200 1.355 . S
C201 C204 1.402 . S
C202 C200 1.412 . S
C202 C203 1.417 . S
C202 C226 1.431 . S
C203 N199 1.350 . S
C203 C202 1.417 . S
C203 C206 1.426 . S
C204 H187 0.930 . S
C204 N199 1.307 . S
C204 C201 1.402 . S
N205 Gd168 2.601 . S
N205 C206 1.359 . S
N205 C209 1.334 . S
C206 C203 1.426 . S
C206 N205 1.359 . S
C206 C210 1.413 . S
C207 H198 0.930 . S
C207 C208 1.359 . S
C207 C209 1.394 . S
C208 C207 1.359 . S
C208 C210 1.391 . S
C208 H211 0.929 . S
C209 H191 0.930 . S
C209 N205 1.334 . S
C209 C207 1.394 . S
C210 C206 1.413 . S
C210 C208 1.391 . S
C210 C225 1.437 . S
H211 C208 0.929 . S
O212 Gd168 2.545 . S
O212 C227 1.258 . S
O213 Gd168 2.606 . S
O213 Gd169 2.362 . S
O213 C224 1.284 . S
O214 Gd169 2.324 . S
O214 C234 1.254 . S
O215 Gd168 2.429 . S
O215 C234 1.268 . S
O216 Gd168 2.545 . S
O216 C224 1.250 . S
O217 Gd168 2.412 . S
O217 C227 1.252 . S
O218 Gd169 2.545 . S
O218 C236 1.258 . S
O219 Gd168 2.362 . S
O219 Gd169 2.606 . S
O219 C235 1.284 . S
O220 Gd168 2.324 . S
O220 C243 1.254 . S
O221 Gd169 2.429 . S
O221 C243 1.268 . S
O222 Gd169 2.545 . S
O222 C235 1.250 . S
O223 Gd169 2.412 . S
O223 C236 1.252 . S
C224 O213 1.284 . S
C224 O216 1.250 . S
C225 H194 0.929 . S
C225 C210 1.437 . S
C225 C226 1.317 . S
C226 H197 0.930 . S
C226 C202 1.431 . S
C226 C225 1.317 . S
C227 Gd168 2.828 . S
C227 O212 1.258 . S
C227 O217 1.252 . S
C227 C228 1.497 . S
C228 C227 1.497 . S
C228 C229 1.395 . S
C228 C230 1.380 . S
C229 C228 1.395 . S
C229 C232 1.398 1_655 S
C229 H244 0.930 . S
C230 C228 1.380 . S
C230 C231 1.391 1_655 S
C230 H245 0.930 . S
C231 C230 1.391 1_455 S
C231 C233 1.387 . S
C232 C229 1.398 1_455 S
C232 C233 1.380 . S
C232 H246 0.930 . S
C233 C231 1.387 . S
C233 C232 1.380 . S
C233 H247 0.930 . S
C234 O214 1.254 . S
C234 O215 1.268 . S
C235 O219 1.284 . S
C235 O222 1.250 . S
C236 Gd169 2.828 . S
C236 O218 1.258 . S
C236 O223 1.252 . S
C236 C237 1.497 . S
C237 C236 1.497 . S
C237 C238 1.395 . S
C237 C239 1.380 . S
C238 C237 1.395 . S
C238 C241 1.398 . S
C238 H248 0.930 . S
C239 C237 1.380 . S
C239 C240 1.391 . S
C239 H249 0.930 . S
C240 C239 1.391 . S
C240 C242 1.387 . S
C241 C238 1.398 . S
C241 C242 1.380 . S
C241 H250 0.930 . S
C242 C240 1.387 . S
C242 C241 1.380 . S
C242 H251 0.930 . S
C243 O220 1.254 . S
C243 O221 1.268 . S
H244 C229 0.930 . S
H245 C230 0.930 . S
H246 C232 0.930 . S
H247 C233 0.930 . S
H248 C238 0.930 . S
H249 C239 0.930 . S
H250 C241 0.930 . S
H251 C242 0.930 . S
Gd252 N283 2.661 . S
Gd252 N289 2.601 . S
Gd252 O296 2.545 . S
Gd252 O297 2.606 . S
Gd252 O299 2.429 . S
Gd252 O300 2.545 . S
Gd252 O301 2.412 . S
Gd252 O303 2.362 . S
Gd252 O304 2.324 . S
Gd252 C311 2.828 . S
Gd253 N262 2.661 . S
Gd253 N266 2.601 . S
Gd253 O297 2.362 . S
Gd253 O298 2.324 . S
Gd253 O302 2.545 . S
Gd253 O303 2.606 . S
Gd253 O305 2.429 . S
Gd253 O306 2.545 . S
Gd253 O307 2.412 . S
Gd253 C320 2.828 . S
C254 C257 1.417 . S
C254 C259 1.431 . S
C254 C260 1.412 . S
C255 C258 1.437 . S
C255 C259 1.317 . S
C255 H274 0.929 . S
C256 C257 1.426 . S
C256 C258 1.413 . S
C256 N266 1.359 . S
C257 C254 1.417 . S
C257 C256 1.426 . S
C257 N262 1.350 . S
C258 C255 1.437 . S
C258 C256 1.413 . S
C258 C268 1.391 . S
C259 C254 1.431 . S
C259 C255 1.317 . S
C259 H270 0.930 . S
C260 C254 1.412 . S
C260 C261 1.355 . S
C260 H272 0.930 . S
C261 C260 1.355 . S
C261 C263 1.402 . S
C261 H273 0.930 . S
N262 Gd253 2.661 . S
N262 C257 1.350 . S
N262 C263 1.307 . S
C263 C261 1.402 . S
C263 N262 1.307 . S
C263 H264 0.930 . S
H264 C263 0.930 . S
C265 N266 1.334 . S
C265 C267 1.394 . S
C265 H269 0.930 . S
N266 Gd253 2.601 . S
N266 C256 1.359 . S
N266 C265 1.334 . S
C267 C265 1.394 . S
C267 C268 1.359 . S
C267 H279 0.930 . S
C268 C258 1.391 . S
C268 C267 1.359 . S
C268 H280 0.929 . S
H269 C265 0.930 . S
H270 C259 0.930 . S
H271 C288 0.930 . S
H272 C260 0.930 . S
H273 C261 0.930 . S
H274 C255 0.929 . S
H275 C293 0.930 . S
H276 C284 0.930 . S
H277 C285 0.930 . S
H278 C309 0.929 . S
H279 C267 0.930 . S
H280 C268 0.929 . S
H281 C310 0.930 . S
H282 C291 0.930 . S
N283 Gd252 2.661 . S
N283 C287 1.350 . S
N283 C288 1.307 . S
C284 H276 0.930 . S
C284 C285 1.355 . S
C284 C286 1.412 . S
C285 H277 0.930 . S
C285 C284 1.355 . S
C285 C288 1.402 . S
C286 C284 1.412 . S
C286 C287 1.417 . S
C286 C310 1.431 . S
C287 N283 1.350 . S
C287 C286 1.417 . S
C287 C290 1.426 . S
C288 H271 0.930 . S
C288 N283 1.307 . S
C288 C285 1.402 . S
N289 Gd252 2.601 . S
N289 C290 1.359 . S
N289 C293 1.334 . S
C290 C287 1.426 . S
C290 N289 1.359 . S
C290 C294 1.413 . S
C291 H282 0.930 . S
C291 C292 1.359 . S
C291 C293 1.394 . S
C292 C291 1.359 . S
C292 C294 1.391 . S
C292 H295 0.929 . S
C293 H275 0.930 . S
C293 N289 1.334 . S
C293 C291 1.394 . S
C294 C290 1.413 . S
C294 C292 1.391 . S
C294 C309 1.437 . S
H295 C292 0.929 . S
O296 Gd252 2.545 . S
O296 C311 1.258 . S
O297 Gd252 2.606 . S
O297 Gd253 2.362 . S
O297 C308 1.284 . S
O298 Gd253 2.324 . S
O298 C318 1.254 . S
O299 Gd252 2.429 . S
O299 C318 1.268 . S
O300 Gd252 2.545 . S
O300 C308 1.250 . S
O301 Gd252 2.412 . S
O301 C311 1.252 . S
O302 Gd253 2.545 . S
O302 C320 1.258 . S
O303 Gd252 2.362 . S
O303 Gd253 2.606 . S
O303 C319 1.284 . S
O304 Gd252 2.324 . S
O304 C327 1.254 . S
O305 Gd253 2.429 . S
O305 C327 1.268 . S
O306 Gd253 2.545 . S
O306 C319 1.250 . S
O307 Gd253 2.412 . S
O307 C320 1.252 . S
C308 O297 1.284 . S
C308 O300 1.250 . S
C309 H278 0.929 . S
C309 C294 1.437 . S
C309 C310 1.317 . S
C310 H281 0.930 . S
C310 C286 1.431 . S
C310 C309 1.317 . S
C311 Gd252 2.828 . S
C311 O296 1.258 . S
C311 O301 1.252 . S
C311 C312 1.497 . S
C312 C311 1.497 . S
C312 C313 1.395 . S
C312 C314 1.380 . S
C313 C312 1.395 . S
C313 C316 1.398 . S
C313 H328 0.930 . S
C314 C312 1.380 . S
C314 C315 1.391 . S
C314 H329 0.930 . S
C315 C314 1.391 . S
C315 C317 1.387 . S
C316 C313 1.398 . S
C316 C317 1.380 . S
C316 H330 0.930 . S
C317 C315 1.387 . S
C317 C316 1.380 . S
C317 H331 0.930 . S
C318 O298 1.254 . S
C318 O299 1.268 . S
C319 O303 1.284 . S
C319 O306 1.250 . S
C320 Gd253 2.828 . S
C320 O302 1.258 . S
C320 O307 1.252 . S
C320 C321 1.497 . S
C321 C320 1.497 . S
C321 C322 1.395 . S
C321 C323 1.380 . S
C322 C321 1.395 . S
C322 C325 1.398 1_545 S
C322 H332 0.930 . S
C323 C321 1.380 . S
C323 C324 1.391 1_545 S
C323 H333 0.930 . S
C324 C323 1.391 1_565 S
C324 C326 1.387 . S
C325 C322 1.398 1_565 S
C325 C326 1.380 . S
C325 H334 0.930 . S
C326 C324 1.387 . S
C326 C325 1.380 . S
C326 H335 0.930 . S
C327 O304 1.254 . S
C327 O305 1.268 . S
H328 C313 0.930 . S
H329 C314 0.930 . S
H330 C316 0.930 . S
H331 C317 0.930 . S
H332 C322 0.930 . S
H333 C323 0.930 . S
H334 C325 0.930 . S
H335 C326 0.930 . S
Gd336 N367 2.661 . S
Gd336 N373 2.601 . S
Gd336 O380 2.545 . S
Gd336 O381 2.606 . S
Gd336 O383 2.429 . S
Gd336 O384 2.545 . S
Gd336 O385 2.412 . S
Gd336 O387 2.362 . S
Gd336 O388 2.324 . S
Gd336 C395 2.828 . S
Gd337 N346 2.661 . S
Gd337 N350 2.601 . S
Gd337 O381 2.362 . S
Gd337 O382 2.324 . S
Gd337 O386 2.545 . S
Gd337 O387 2.606 . S
Gd337 O389 2.429 . S
Gd337 O390 2.545 . S
Gd337 O391 2.412 . S
Gd337 C404 2.828 . S
C338 C341 1.417 . S
C338 C343 1.431 . S
C338 C344 1.412 . S
C339 C342 1.437 . S
C339 C343 1.317 . S
C339 H358 0.929 . S
C340 C341 1.426 . S
C340 C342 1.413 . S
C340 N350 1.359 . S
C341 C338 1.417 . S
C341 C340 1.426 . S
C341 N346 1.350 . S
C342 C339 1.437 . S
C342 C340 1.413 . S
C342 C352 1.391 . S
C343 C338 1.431 . S
C343 C339 1.317 . S
C343 H354 0.930 1_655 S
C344 C338 1.412 . S
C344 C345 1.355 . S
C344 H356 0.930 . S
C345 C344 1.355 . S
C345 C347 1.402 . S
C345 H357 0.930 . S
N346 Gd337 2.661 . S
N346 C341 1.350 . S
N346 C347 1.307 . S
C347 C345 1.402 . S
C347 N346 1.307 . S
C347 H348 0.930 . S
H348 C347 0.930 . S
C349 N350 1.334 . S
C349 C351 1.394 . S
C349 H353 0.930 . S
N350 Gd337 2.601 . S
N350 C340 1.359 . S
N350 C349 1.334 . S
C351 C349 1.394 . S
C351 C352 1.359 . S
C351 H363 0.930 . S
C352 C342 1.391 . S
C352 C351 1.359 . S
C352 H364 0.929 . S
H353 C349 0.930 . S
H354 C343 0.930 1_455 S
H355 C372 0.930 . S
H356 C344 0.930 . S
H357 C345 0.930 . S
H358 C339 0.929 . S
H359 C377 0.930 . S
H360 C368 0.930 . S
H361 C369 0.930 . S
H362 C393 0.929 . S
H363 C351 0.930 . S
H364 C352 0.929 . S
H365 C394 0.930 . S
H366 C375 0.930 . S
N367 Gd336 2.661 . S
N367 C371 1.350 . S
N367 C372 1.307 . S
C368 H360 0.930 . S
C368 C369 1.355 . S
C368 C370 1.412 . S
C369 H361 0.930 . S
C369 C368 1.355 . S
C369 C372 1.402 . S
C370 C368 1.412 . S
C370 C371 1.417 . S
C370 C394 1.431 . S
C371 N367 1.350 . S
C371 C370 1.417 . S
C371 C374 1.426 . S
C372 H355 0.930 . S
C372 N367 1.307 . S
C372 C369 1.402 . S
N373 Gd336 2.601 . S
N373 C374 1.359 . S
N373 C377 1.334 . S
C374 C371 1.426 . S
C374 N373 1.359 . S
C374 C378 1.413 . S
C375 H366 0.930 . S
C375 C376 1.359 . S
C375 C377 1.394 . S
C376 C375 1.359 . S
C376 C378 1.391 . S
C376 H379 0.929 . S
C377 H359 0.930 . S
C377 N373 1.334 . S
C377 C375 1.394 . S
C378 C374 1.413 . S
C378 C376 1.391 . S
C378 C393 1.437 . S
H379 C376 0.929 . S
O380 Gd336 2.545 . S
O380 C395 1.258 . S
O381 Gd336 2.606 . S
O381 Gd337 2.362 . S
O381 C392 1.284 . S
O382 Gd337 2.324 . S
O382 C402 1.254 . S
O383 Gd336 2.429 . S
O383 C402 1.268 . S
O384 Gd336 2.545 . S
O384 C392 1.250 . S
O385 Gd336 2.412 . S
O385 C395 1.252 . S
O386 Gd337 2.545 . S
O386 C404 1.258 . S
O387 Gd336 2.362 . S
O387 Gd337 2.606 . S
O387 C403 1.284 . S
O388 Gd336 2.324 . S
O388 C411 1.254 . S
O389 Gd337 2.429 . S
O389 C411 1.268 . S
O390 Gd337 2.545 . S
O390 C403 1.250 . S
O391 Gd337 2.412 . S
O391 C404 1.252 . S
C392 O381 1.284 . S
C392 O384 1.250 . S
C393 H362 0.929 . S
C393 C378 1.437 . S
C393 C394 1.317 . S
C394 H365 0.930 . S
C394 C370 1.431 . S
C394 C393 1.317 . S
C395 Gd336 2.828 . S
C395 O380 1.258 . S
C395 O385 1.252 . S
C395 C396 1.497 . S
C396 C395 1.497 . S
C396 C397 1.395 . S
C396 C398 1.380 . S
C397 C396 1.395 . S
C397 C400 1.398 . S
C397 H412 0.930 . S
C398 C396 1.380 . S
C398 C399 1.391 . S
C398 H413 0.930 . S
C399 C398 1.391 . S
C399 C401 1.387 . S
C400 C397 1.398 . S
C400 C401 1.380 . S
C400 H414 0.930 . S
C401 C399 1.387 . S
C401 C400 1.380 . S
C401 H415 0.930 . S
C402 O382 1.254 . S
C402 O383 1.268 . S
C403 O387 1.284 . S
C403 O390 1.250 . S
C404 Gd337 2.828 . S
C404 O386 1.258 . S
C404 O391 1.252 . S
C404 C405 1.497 . S
C405 C404 1.497 . S
C405 C406 1.395 . S
C405 C407 1.380 . S
C406 C405 1.395 . S
C406 C409 1.398 . S
C406 H416 0.930 . S
C407 C405 1.380 . S
C407 C408 1.391 . S
C407 H417 0.930 . S
C408 C407 1.391 . S
C408 C410 1.387 . S
C409 C406 1.398 . S
C409 C410 1.380 . S
C409 H418 0.930 . S
C410 C408 1.387 . S
C410 C409 1.380 . S
C410 H419 0.930 . S
C411 O388 1.254 . S
C411 O389 1.268 . S
H412 C397 0.930 . S
H413 C398 0.930 . S
H414 C400 0.930 . S
H415 C401 0.930 . S
H416 C406 0.930 . S
H417 C407 0.930 . S
H418 C409 0.930 . S
H419 C410 0.930 . S
Gd420 N451 2.661 . S
Gd420 N457 2.601 . S
Gd420 O464 2.545 . S
Gd420 O465 2.606 . S
Gd420 O467 2.429 . S
Gd420 O468 2.545 . S
Gd420 O469 2.412 . S
Gd420 O471 2.362 . S
Gd420 O472 2.324 . S
Gd420 C479 2.828 . S
Gd421 N430 2.661 . S
Gd421 N434 2.601 . S
Gd421 O465 2.362 . S
Gd421 O466 2.324 . S
Gd421 O470 2.545 . S
Gd421 O471 2.606 . S
Gd421 O473 2.429 . S
Gd421 O474 2.545 . S
Gd421 O475 2.412 . S
Gd421 C488 2.828 . S
C422 C425 1.417 . S
C422 C427 1.431 . S
C422 C428 1.412 . S
C423 C426 1.437 . S
C423 C427 1.317 . S
C423 H442 0.929 . S
C424 C425 1.426 . S
C424 C426 1.413 . S
C424 N434 1.359 . S
C425 C422 1.417 . S
C425 C424 1.426 . S
C425 N430 1.350 . S
C426 C423 1.437 . S
C426 C424 1.413 . S
C426 C436 1.391 . S
C427 C422 1.431 . S
C427 C423 1.317 . S
C427 H438 0.930 . S
C428 C422 1.412 . S
C428 C429 1.355 . S
C428 H440 0.930 . S
C429 C428 1.355 . S
C429 C431 1.402 . S
C429 H441 0.930 . S
N430 Gd421 2.661 . S
N430 C425 1.350 . S
N430 C431 1.307 . S
C431 C429 1.402 . S
C431 N430 1.307 . S
C431 H432 0.930 . S
H432 C431 0.930 . S
C433 N434 1.334 . S
C433 C435 1.394 . S
C433 H437 0.930 . S
N434 Gd421 2.601 . S
N434 C424 1.359 . S
N434 C433 1.334 . S
C435 C433 1.394 . S
C435 C436 1.359 . S
C435 H447 0.930 . S
C436 C426 1.391 . S
C436 C435 1.359 . S
C436 H448 0.929 . S
H437 C433 0.930 . S
H438 C427 0.930 . S
H439 C456 0.930 . S
H440 C428 0.930 . S
H441 C429 0.930 . S
H442 C423 0.929 . S
H443 C461 0.930 . S
H444 C452 0.930 . S
H445 C453 0.930 . S
H446 C477 0.929 . S
H447 C435 0.930 . S
H448 C436 0.929 . S
H449 C478 0.930 1_565 S
H450 C459 0.930 . S
N451 Gd420 2.661 . S
N451 C455 1.350 . S
N451 C456 1.307 . S
C452 H444 0.930 . S
C452 C453 1.355 . S
C452 C454 1.412 . S
C453 H445 0.930 . S
C453 C452 1.355 . S
C453 C456 1.402 . S
C454 C452 1.412 . S
C454 C455 1.417 . S
C454 C478 1.431 . S
C455 N451 1.350 . S
C455 C454 1.417 . S
C455 C458 1.426 . S
C456 H439 0.930 . S
C456 N451 1.307 . S
C456 C453 1.402 . S
N457 Gd420 2.601 . S
N457 C458 1.359 . S
N457 C461 1.334 . S
C458 C455 1.426 . S
C458 N457 1.359 . S
C458 C462 1.413 . S
C459 H450 0.930 . S
C459 C460 1.359 . S
C459 C461 1.394 . S
C460 C459 1.359 . S
C460 C462 1.391 . S
C460 H463 0.929 . S
C461 H443 0.930 . S
C461 N457 1.334 . S
C461 C459 1.394 . S
C462 C458 1.413 . S
C462 C460 1.391 . S
C462 C477 1.437 . S
H463 C460 0.929 . S
O464 Gd420 2.545 . S
O464 C479 1.258 . S
O465 Gd420 2.606 . S
O465 Gd421 2.362 . S
O465 C476 1.284 . S
O466 Gd421 2.324 . S
O466 C486 1.254 . S
O467 Gd420 2.429 . S
O467 C486 1.268 . S
O468 Gd420 2.545 . S
O468 C476 1.250 . S
O469 Gd420 2.412 . S
O469 C479 1.252 . S
O470 Gd421 2.545 . S
O470 C488 1.258 . S
O471 Gd420 2.362 . S
O471 Gd421 2.606 . S
O471 C487 1.284 . S
O472 Gd420 2.324 . S
O472 C495 1.254 . S
O473 Gd421 2.429 . S
O473 C495 1.268 . S
O474 Gd421 2.545 . S
O474 C487 1.250 . S
O475 Gd421 2.412 . S
O475 C488 1.252 . S
C476 O465 1.284 . S
C476 O468 1.250 . S
C477 H446 0.929 . S
C477 C462 1.437 . S
C477 C478 1.317 . S
C478 H449 0.930 1_545 S
C478 C454 1.431 . S
C478 C477 1.317 . S
C479 Gd420 2.828 . S
C479 O464 1.258 . S
C479 O469 1.252 . S
C479 C480 1.497 . S
C480 C479 1.497 . S
C480 C481 1.395 . S
C480 C482 1.380 . S
C481 C480 1.395 . S
C481 C484 1.398 . S
C481 H496 0.930 . S
C482 C480 1.380 . S
C482 C483 1.391 . S
C482 H497 0.930 . S
C483 C482 1.391 . S
C483 C485 1.387 . S
C484 C481 1.398 . S
C484 C485 1.380 . S
C484 H498 0.930 . S
C485 C483 1.387 . S
C485 C484 1.380 . S
C485 H499 0.930 . S
C486 O466 1.254 . S
C486 O467 1.268 . S
C487 O471 1.284 . S
C487 O474 1.250 . S
C488 Gd421 2.828 . S
C488 O470 1.258 . S
C488 O475 1.252 . S
C488 C489 1.497 . S
C489 C488 1.497 . S
C489 C490 1.395 . S
C489 C491 1.380 . S
C490 C489 1.395 . S
C490 C493 1.398 1_655 S
C490 H500 0.930 . S
C491 C489 1.380 . S
C491 C492 1.391 1_655 S
C491 H501 0.930 . S
C492 C491 1.391 1_455 S
C492 C494 1.387 . S
C493 C490 1.398 1_455 S
C493 C494 1.380 . S
C493 H502 0.930 . S
C494 C492 1.387 . S
C494 C493 1.380 . S
C494 H503 0.930 . S
C495 O472 1.254 . S
C495 O473 1.268 . S
H496 C481 0.930 . S
H497 C482 0.930 . S
H498 C484 0.930 . S
H499 C485 0.930 . S
H500 C490 0.930 . S
H501 C491 0.930 . S
H502 C493 0.930 . S
H503 C494 0.930 . S
Gd504 N535 2.661 . S
Gd504 N541 2.601 . S
Gd504 O548 2.545 . S
Gd504 O549 2.606 . S
Gd504 O551 2.429 . S
Gd504 O552 2.545 . S
Gd504 O553 2.412 . S
Gd504 O555 2.362 . S
Gd504 O556 2.324 . S
Gd504 C563 2.828 . S
Gd505 N514 2.661 . S
Gd505 N518 2.601 . S
Gd505 O549 2.362 . S
Gd505 O550 2.324 . S
Gd505 O554 2.545 . S
Gd505 O555 2.606 . S
Gd505 O557 2.429 . S
Gd505 O558 2.545 . S
Gd505 O559 2.412 . S
Gd505 C572 2.828 . S
C506 C509 1.417 . S
C506 C511 1.431 . S
C506 C512 1.412 . S
C507 C510 1.437 . S
C507 C511 1.317 . S
C507 H526 0.929 . S
C508 C509 1.426 . S
C508 C510 1.413 . S
C508 N518 1.359 . S
C509 C506 1.417 . S
C509 C508 1.426 . S
C509 N514 1.350 . S
C510 C507 1.437 . S
C510 C508 1.413 . S
C510 C520 1.391 . S
C511 C506 1.431 . S
C511 C507 1.317 . S
C511 H522 0.930 . S
C512 C506 1.412 . S
C512 C513 1.355 . S
C512 H524 0.930 . S
C513 C512 1.355 . S
C513 C515 1.402 . S
C513 H525 0.930 . S
N514 Gd505 2.661 . S
N514 C509 1.350 . S
N514 C515 1.307 . S
C515 C513 1.402 . S
C515 N514 1.307 . S
C515 H516 0.930 . S
H516 C515 0.930 . S
C517 N518 1.334 . S
C517 C519 1.394 . S
C517 H521 0.930 . S
N518 Gd505 2.601 . S
N518 C508 1.359 . S
N518 C517 1.334 . S
C519 C517 1.394 . S
C519 C520 1.359 . S
C519 H531 0.930 . S
C520 C510 1.391 . S
C520 C519 1.359 . S
C520 H532 0.929 . S
H521 C517 0.930 . S
H522 C511 0.930 . S
H523 C540 0.930 . S
H524 C512 0.930 . S
H525 C513 0.930 . S
H526 C507 0.929 . S
H527 C545 0.930 . S
H528 C536 0.930 . S
H529 C537 0.930 . S
H530 C561 0.929 . S
H531 C519 0.930 . S
H532 C520 0.929 . S
H533 C562 0.930 . S
H534 C543 0.930 . S
N535 Gd504 2.661 . S
N535 C539 1.350 . S
N535 C540 1.307 . S
C536 H528 0.930 . S
C536 C537 1.355 . S
C536 C538 1.412 . S
C537 H529 0.930 . S
C537 C536 1.355 . S
C537 C540 1.402 . S
C538 C536 1.412 . S
C538 C539 1.417 . S
C538 C562 1.431 . S
C539 N535 1.350 . S
C539 C538 1.417 . S
C539 C542 1.426 . S
C540 H523 0.930 . S
C540 N535 1.307 . S
C540 C537 1.402 . S
N541 Gd504 2.601 . S
N541 C542 1.359 . S
N541 C545 1.334 . S
C542 C539 1.426 . S
C542 N541 1.359 . S
C542 C546 1.413 . S
C543 H534 0.930 . S
C543 C544 1.359 . S
C543 C545 1.394 . S
C544 C543 1.359 . S
C544 C546 1.391 . S
C544 H547 0.929 . S
C545 H527 0.930 . S
C545 N541 1.334 . S
C545 C543 1.394 . S
C546 C542 1.413 . S
C546 C544 1.391 . S
C546 C561 1.437 . S
H547 C544 0.929 . S
O548 Gd504 2.545 . S
O548 C563 1.258 . S
O549 Gd504 2.606 . S
O549 Gd505 2.362 . S
O549 C560 1.284 . S
O550 Gd505 2.324 . S
O550 C570 1.254 . S
O551 Gd504 2.429 . S
O551 C570 1.268 . S
O552 Gd504 2.545 . S
O552 C560 1.250 . S
O553 Gd504 2.412 . S
O553 C563 1.252 . S
O554 Gd505 2.545 . S
O554 C572 1.258 . S
O555 Gd504 2.362 . S
O555 Gd505 2.606 . S
O555 C571 1.284 . S
O556 Gd504 2.324 . S
O556 C579 1.254 . S
O557 Gd505 2.429 . S
O557 C579 1.268 . S
O558 Gd505 2.545 . S
O558 C571 1.250 . S
O559 Gd505 2.412 . S
O559 C572 1.252 . S
C560 O549 1.284 . S
C560 O552 1.250 . S
C561 H530 0.929 . S
C561 C546 1.437 . S
C561 C562 1.317 . S
C562 H533 0.930 . S
C562 C538 1.431 . S
C562 C561 1.317 . S
C563 Gd504 2.828 . S
C563 O548 1.258 . S
C563 O553 1.252 . S
C563 C564 1.497 . S
C564 C563 1.497 . S
C564 C565 1.395 . S
C564 C566 1.380 . S
C565 C564 1.395 . S
C565 C568 1.398 . S
C565 H580 0.930 . S
C566 C564 1.380 . S
C566 C567 1.391 . S
C566 H581 0.930 . S
C567 C566 1.391 . S
C567 C569 1.387 . S
C568 C565 1.398 . S
C568 C569 1.380 . S
C568 H582 0.930 . S
C569 C567 1.387 . S
C569 C568 1.380 . S
C569 H583 0.930 . S
C570 O550 1.254 . S
C570 O551 1.268 . S
C571 O555 1.284 . S
C571 O558 1.250 . S
C572 Gd505 2.828 . S
C572 O554 1.258 . S
C572 O559 1.252 . S
C572 C573 1.497 . S
C573 C572 1.497 . S
C573 C574 1.395 . S
C573 C575 1.380 . S
C574 C573 1.395 . S
C574 C577 1.398 1_455 S
C574 H584 0.930 . S
C575 C573 1.380 . S
C575 C576 1.391 1_455 S
C575 H585 0.930 . S
C576 C575 1.391 1_655 S
C576 C578 1.387 . S
C577 C574 1.398 1_655 S
C577 C578 1.380 . S
C577 H586 0.930 . S
C578 C576 1.387 . S
C578 C577 1.380 . S
C578 H587 0.930 . S
C579 O556 1.254 . S
C579 O557 1.268 . S
H580 C565 0.930 . S
H581 C566 0.930 . S
H582 C568 0.930 . S
H583 C569 0.930 . S
H584 C574 0.930 . S
H585 C575 0.930 . S
H586 C577 0.930 . S
H587 C578 0.930 . S
Gd588 N619 2.661 . S
Gd588 N625 2.601 . S
Gd588 O632 2.545 . S
Gd588 O633 2.606 . S
Gd588 O635 2.429 . S
Gd588 O636 2.545 . S
Gd588 O637 2.412 . S
Gd588 O639 2.362 . S
Gd588 O640 2.324 . S
Gd588 C647 2.828 . S
Gd589 N598 2.661 . S
Gd589 N602 2.601 . S
Gd589 O633 2.362 . S
Gd589 O634 2.324 . S
Gd589 O638 2.545 . S
Gd589 O639 2.606 . S
Gd589 O641 2.429 . S
Gd589 O642 2.545 . S
Gd589 O643 2.412 . S
Gd589 C656 2.828 . S
C590 C593 1.417 . S
C590 C595 1.431 . S
C590 C596 1.412 . S
C591 C594 1.437 . S
C591 C595 1.317 . S
C591 H610 0.929 . S
C592 C593 1.426 . S
C592 C594 1.413 . S
C592 N602 1.359 . S
C593 C590 1.417 . S
C593 C592 1.426 . S
C593 N598 1.350 . S
C594 C591 1.437 . S
C594 C592 1.413 . S
C594 C604 1.391 . S
C595 C590 1.431 . S
C595 C591 1.317 . S
C595 H606 0.930 1_455 S
C596 C590 1.412 . S
C596 C597 1.355 . S
C596 H608 0.930 . S
C597 C596 1.355 . S
C597 C599 1.402 . S
C597 H609 0.930 . S
N598 Gd589 2.661 . S
N598 C593 1.350 . S
N598 C599 1.307 . S
C599 C597 1.402 . S
C599 N598 1.307 . S
C599 H600 0.930 . S
H600 C599 0.930 . S
C601 N602 1.334 . S
C601 C603 1.394 . S
C601 H605 0.930 . S
N602 Gd589 2.601 . S
N602 C592 1.359 . S
N602 C601 1.334 . S
C603 C601 1.394 . S
C603 C604 1.359 . S
C603 H615 0.930 . S
C604 C594 1.391 . S
C604 C603 1.359 . S
C604 H616 0.929 . S
H605 C601 0.930 . S
H606 C595 0.930 1_655 S
H607 C624 0.930 . S
H608 C596 0.930 . S
H609 C597 0.930 . S
H610 C591 0.929 . S
H611 C629 0.930 . S
H612 C620 0.930 . S
H613 C621 0.930 . S
H614 C645 0.929 . S
H615 C603 0.930 . S
H616 C604 0.929 . S
H617 C646 0.930 . S
H618 C627 0.930 . S
N619 Gd588 2.661 . S
N619 C623 1.350 . S
N619 C624 1.307 . S
C620 H612 0.930 . S
C620 C621 1.355 . S
C620 C622 1.412 . S
C621 H613 0.930 . S
C621 C620 1.355 . S
C621 C624 1.402 . S
C622 C620 1.412 . S
C622 C623 1.417 . S
C622 C646 1.431 . S
C623 N619 1.350 . S
C623 C622 1.417 . S
C623 C626 1.426 . S
C624 H607 0.930 . S
C624 N619 1.307 . S
C624 C621 1.402 . S
N625 Gd588 2.601 . S
N625 C626 1.359 . S
N625 C629 1.334 . S
C626 C623 1.426 . S
C626 N625 1.359 . S
C626 C630 1.413 . S
C627 H618 0.930 . S
C627 C628 1.359 . S
C627 C629 1.394 . S
C628 C627 1.359 . S
C628 C630 1.391 . S
C628 H631 0.929 . S
C629 H611 0.930 . S
C629 N625 1.334 . S
C629 C627 1.394 . S
C630 C626 1.413 . S
C630 C628 1.391 . S
C630 C645 1.437 . S
H631 C628 0.929 . S
O632 Gd588 2.545 . S
O632 C647 1.258 . S
O633 Gd588 2.606 . S
O633 Gd589 2.362 . S
O633 C644 1.284 . S
O634 Gd589 2.324 . S
O634 C654 1.254 . S
O635 Gd588 2.429 . S
O635 C654 1.268 . S
O636 Gd588 2.545 . S
O636 C644 1.250 . S
O637 Gd588 2.412 . S
O637 C647 1.252 . S
O638 Gd589 2.545 . S
O638 C656 1.258 . S
O639 Gd588 2.362 . S
O639 Gd589 2.606 . S
O639 C655 1.284 . S
O640 Gd588 2.324 . S
O640 C663 1.254 . S
O641 Gd589 2.429 . S
O641 C663 1.268 . S
O642 Gd589 2.545 . S
O642 C655 1.250 . S
O643 Gd589 2.412 . S
O643 C656 1.252 . S
C644 O633 1.284 . S
C644 O636 1.250 . S
C645 H614 0.929 . S
C645 C630 1.437 . S
C645 C646 1.317 . S
C646 H617 0.930 . S
C646 C622 1.431 . S
C646 C645 1.317 . S
C647 Gd588 2.828 . S
C647 O632 1.258 . S
C647 O637 1.252 . S
C647 C648 1.497 . S
C648 C647 1.497 . S
C648 C649 1.395 . S
C648 C650 1.380 . S
C649 C648 1.395 . S
C649 C652 1.398 1_565 S
C649 H664 0.930 . S
C650 C648 1.380 . S
C650 C651 1.391 1_565 S
C650 H665 0.930 . S
C651 C650 1.391 1_545 S
C651 C653 1.387 . S
C652 C649 1.398 1_545 S
C652 C653 1.380 . S
C652 H666 0.930 . S
C653 C651 1.387 . S
C653 C652 1.380 . S
C653 H667 0.930 . S
C654 O634 1.254 . S
C654 O635 1.268 . S
C655 O639 1.284 . S
C655 O642 1.250 . S
C656 Gd589 2.828 . S
C656 O638 1.258 . S
C656 O643 1.252 . S
C656 C657 1.497 . S
C657 C656 1.497 . S
C657 C658 1.395 . S
C657 C659 1.380 . S
C658 C657 1.395 . S
C658 C661 1.398 . S
C658 H668 0.930 . S
C659 C657 1.380 . S
C659 C660 1.391 . S
C659 H669 0.930 . S
C660 C659 1.391 . S
C660 C662 1.387 . S
C661 C658 1.398 . S
C661 C662 1.380 . S
C661 H670 0.930 . S
C662 C660 1.387 . S
C662 C661 1.380 . S
C662 H671 0.930 . S
C663 O640 1.254 . S
C663 O641 1.268 . S
H664 C649 0.930 . S
H665 C650 0.930 . S
H666 C652 0.930 . S
H667 C653 0.930 . S
H668 C658 0.930 . S
H669 C659 0.930 . S
H670 C661 0.930 . S
H671 C662 0.930 . S
Gd672 N703 2.661 . S
Gd672 N709 2.601 . S
Gd672 O716 2.545 . S
Gd672 O717 2.606 . S
Gd672 O719 2.429 . S
Gd672 O720 2.545 . S
Gd672 O721 2.412 . S
Gd672 O723 2.362 . S
Gd672 O724 2.324 . S
Gd672 C731 2.828 . S
Gd673 N682 2.661 . S
Gd673 N686 2.601 . S
Gd673 O717 2.362 . S
Gd673 O718 2.324 . S
Gd673 O722 2.545 . S
Gd673 O723 2.606 . S
Gd673 O725 2.429 . S
Gd673 O726 2.545 . S
Gd673 O727 2.412 . S
Gd673 C740 2.828 . S
C674 C677 1.417 . S
C674 C679 1.431 . S
C674 C680 1.412 . S
C675 C678 1.437 . S
C675 C679 1.317 . S
C675 H694 0.929 . S
C676 C677 1.426 . S
C676 C678 1.413 . S
C676 N686 1.359 . S
C677 C674 1.417 . S
C677 C676 1.426 . S
C677 N682 1.350 . S
C678 C675 1.437 . S
C678 C676 1.413 . S
C678 C688 1.391 . S
C679 C674 1.431 . S
C679 C675 1.317 . S
C679 H690 0.930 . S
C680 C674 1.412 . S
C680 C681 1.355 . S
C680 H692 0.930 . S
C681 C680 1.355 . S
C681 C683 1.402 . S
C681 H693 0.930 . S
N682 Gd673 2.661 . S
N682 C677 1.350 . S
N682 C683 1.307 . S
C683 C681 1.402 . S
C683 N682 1.307 . S
C683 H684 0.930 . S
H684 C683 0.930 . S
C685 N686 1.334 . S
C685 C687 1.394 . S
C685 H689 0.930 . S
N686 Gd673 2.601 . S
N686 C676 1.359 . S
N686 C685 1.334 . S
C687 C685 1.394 . S
C687 C688 1.359 . S
C687 H699 0.930 . S
C688 C678 1.391 . S
C688 C687 1.359 . S
C688 H700 0.929 . S
H689 C685 0.930 . S
H690 C679 0.930 . S
H691 C708 0.930 . S
H692 C680 0.930 . S
H693 C681 0.930 . S
H694 C675 0.929 . S
H695 C713 0.930 . S
H696 C704 0.930 . S
H697 C705 0.930 . S
H698 C729 0.929 . S
H699 C687 0.930 . S
H700 C688 0.929 . S
H701 C730 0.930 1_545 S
H702 C711 0.930 . S
N703 Gd672 2.661 . S
N703 C707 1.350 . S
N703 C708 1.307 . S
C704 H696 0.930 . S
C704 C705 1.355 . S
C704 C706 1.412 . S
C705 H697 0.930 . S
C705 C704 1.355 . S
C705 C708 1.402 . S
C706 C704 1.412 . S
C706 C707 1.417 . S
C706 C730 1.431 . S
C707 N703 1.350 . S
C707 C706 1.417 . S
C707 C710 1.426 . S
C708 H691 0.930 . S
C708 N703 1.307 . S
C708 C705 1.402 . S
N709 Gd672 2.601 . S
N709 C710 1.359 . S
N709 C713 1.334 . S
C710 C707 1.426 . S
C710 N709 1.359 . S
C710 C714 1.413 . S
C711 H702 0.930 . S
C711 C712 1.359 . S
C711 C713 1.394 . S
C712 C711 1.359 . S
C712 C714 1.391 . S
C712 H715 0.929 . S
C713 H695 0.930 . S
C713 N709 1.334 . S
C713 C711 1.394 . S
C714 C710 1.413 . S
C714 C712 1.391 . S
C714 C729 1.437 . S
H715 C712 0.929 . S
O716 Gd672 2.545 . S
O716 C731 1.258 . S
O717 Gd672 2.606 . S
O717 Gd673 2.362 . S
O717 C728 1.284 . S
O718 Gd673 2.324 . S
O718 C738 1.254 . S
O719 Gd672 2.429 . S
O719 C738 1.268 . S
O720 Gd672 2.545 . S
O720 C728 1.250 . S
O721 Gd672 2.412 . S
O721 C731 1.252 . S
O722 Gd673 2.545 . S
O722 C740 1.258 . S
O723 Gd672 2.362 . S
O723 Gd673 2.606 . S
O723 C739 1.284 . S
O724 Gd672 2.324 . S
O724 C747 1.254 . S
O725 Gd673 2.429 . S
O725 C747 1.268 . S
O726 Gd673 2.545 . S
O726 C739 1.250 . S
O727 Gd673 2.412 . S
O727 C740 1.252 . S
C728 O717 1.284 . S
C728 O720 1.250 . S
C729 H698 0.929 . S
C729 C714 1.437 . S
C729 C730 1.317 . S
C730 H701 0.930 1_565 S
C730 C706 1.431 . S
C730 C729 1.317 . S
C731 Gd672 2.828 . S
C731 O716 1.258 . S
C731 O721 1.252 . S
C731 C732 1.497 . S
C732 C731 1.497 . S
C732 C733 1.395 . S
C732 C734 1.380 . S
C733 C732 1.395 . S
C733 C736 1.398 . S
C733 H748 0.930 . S
C734 C732 1.380 . S
C734 C735 1.391 . S
C734 H749 0.930 . S
C735 C734 1.391 . S
C735 C737 1.387 . S
C736 C733 1.398 . S
C736 C737 1.380 . S
C736 H750 0.930 . S
C737 C735 1.387 . S
C737 C736 1.380 . S
C737 H751 0.930 . S
C738 O718 1.254 . S
C738 O719 1.268 . S
C739 O723 1.284 . S
C739 O726 1.250 . S
C740 Gd673 2.828 . S
C740 O722 1.258 . S
C740 O727 1.252 . S
C740 C741 1.497 . S
C741 C740 1.497 . S
C741 C742 1.395 . S
C741 C743 1.380 . S
C742 C741 1.395 . S
C742 C745 1.398 . S
C742 H752 0.930 . S
C743 C741 1.380 . S
C743 C744 1.391 . S
C743 H753 0.930 . S
C744 C743 1.391 . S
C744 C746 1.387 . S
C745 C742 1.398 . S
C745 C746 1.380 . S
C745 H754 0.930 . S
C746 C744 1.387 . S
C746 C745 1.380 . S
C746 H755 0.930 . S
C747 O724 1.254 . S
C747 O725 1.268 . S
H748 C733 0.930 . S
H749 C734 0.930 . S
H750 C736 0.930 . S
H751 C737 0.930 . S
H752 C742 0.930 . S
H753 C743 0.930 . S
H754 C745 0.930 . S
H755 C746 0.930 . S
Gd756 N787 2.661 . S
Gd756 N793 2.601 . S
Gd756 O800 2.545 . S
Gd756 O801 2.606 . S
Gd756 O803 2.429 . S
Gd756 O804 2.545 . S
Gd756 O805 2.412 . S
Gd756 O807 2.362 . S
Gd756 O808 2.324 . S
Gd756 C815 2.828 . S
Gd757 N766 2.661 . S
Gd757 N770 2.601 . S
Gd757 O801 2.362 . S
Gd757 O802 2.324 . S
Gd757 O806 2.545 . S
Gd757 O807 2.606 . S
Gd757 O809 2.429 . S
Gd757 O810 2.545 . S
Gd757 O811 2.412 . S
Gd757 C824 2.828 . S
C758 C761 1.417 . S
C758 C763 1.431 . S
C758 C764 1.412 . S
C759 C762 1.437 . S
C759 C763 1.317 . S
C759 H778 0.929 . S
C760 C761 1.426 . S
C760 C762 1.413 . S
C760 N770 1.359 . S
C761 C758 1.417 . S
C761 C760 1.426 . S
C761 N766 1.350 . S
C762 C759 1.437 . S
C762 C760 1.413 . S
C762 C772 1.391 . S
C763 C758 1.431 . S
C763 C759 1.317 . S
C763 H774 0.930 . S
C764 C758 1.412 . S
C764 C765 1.355 . S
C764 H776 0.930 . S
C765 C764 1.355 . S
C765 C767 1.402 . S
C765 H777 0.930 . S
N766 Gd757 2.661 . S
N766 C761 1.350 . S
N766 C767 1.307 . S
C767 C765 1.402 . S
C767 N766 1.307 . S
C767 H768 0.930 . S
H768 C767 0.930 . S
C769 N770 1.334 . S
C769 C771 1.394 . S
C769 H773 0.930 . S
N770 Gd757 2.601 . S
N770 C760 1.359 . S
N770 C769 1.334 . S
C771 C769 1.394 . S
C771 C772 1.359 . S
C771 H783 0.930 . S
C772 C762 1.391 . S
C772 C771 1.359 . S
C772 H784 0.929 . S
H773 C769 0.930 . S
H774 C763 0.930 . S
H775 C792 0.930 . S
H776 C764 0.930 . S
H777 C765 0.930 . S
H778 C759 0.929 . S
H779 C797 0.930 . S
H780 C788 0.930 . S
H781 C789 0.930 . S
H782 C813 0.929 . S
H783 C771 0.930 . S
H784 C772 0.929 . S
H785 C814 0.930 . S
H786 C795 0.930 . S
N787 Gd756 2.661 . S
N787 C791 1.350 . S
N787 C792 1.307 . S
C788 H780 0.930 . S
C788 C789 1.355 . S
C788 C790 1.412 . S
C789 H781 0.930 . S
C789 C788 1.355 . S
C789 C792 1.402 . S
C790 C788 1.412 . S
C790 C791 1.417 . S
C790 C814 1.431 . S
C791 N787 1.350 . S
C791 C790 1.417 . S
C791 C794 1.426 . S
C792 H775 0.930 . S
C792 N787 1.307 . S
C792 C789 1.402 . S
N793 Gd756 2.601 . S
N793 C794 1.359 . S
N793 C797 1.334 . S
C794 C791 1.426 . S
C794 N793 1.359 . S
C794 C798 1.413 . S
C795 H786 0.930 . S
C795 C796 1.359 . S
C795 C797 1.394 . S
C796 C795 1.359 . S
C796 C798 1.391 . S
C796 H799 0.929 . S
C797 H779 0.930 . S
C797 N793 1.334 . S
C797 C795 1.394 . S
C798 C794 1.413 . S
C798 C796 1.391 . S
C798 C813 1.437 . S
H799 C796 0.929 . S
O800 Gd756 2.545 . S
O800 C815 1.258 . S
O801 Gd756 2.606 . S
O801 Gd757 2.362 . S
O801 C812 1.284 . S
O802 Gd757 2.324 . S
O802 C822 1.254 . S
O803 Gd756 2.429 . S
O803 C822 1.268 . S
O804 Gd756 2.545 . S
O804 C812 1.250 . S
O805 Gd756 2.412 . S
O805 C815 1.252 . S
O806 Gd757 2.545 . S
O806 C824 1.258 . S
O807 Gd756 2.362 . S
O807 Gd757 2.606 . S
O807 C823 1.284 . S
O808 Gd756 2.324 . S
O808 C831 1.254 . S
O809 Gd757 2.429 . S
O809 C831 1.268 . S
O810 Gd757 2.545 . S
O810 C823 1.250 . S
O811 Gd757 2.412 . S
O811 C824 1.252 . S
C812 O801 1.284 . S
C812 O804 1.250 . S
C813 H782 0.929 . S
C813 C798 1.437 . S
C813 C814 1.317 . S
C814 H785 0.930 . S
C814 C790 1.431 . S
C814 C813 1.317 . S
C815 Gd756 2.828 . S
C815 O800 1.258 . S
C815 O805 1.252 . S
C815 C816 1.497 . S
C816 C815 1.497 . S
C816 C817 1.395 . S
C816 C818 1.380 . S
C817 C816 1.395 . S
C817 C820 1.398 1_455 S
C817 H832 0.930 . S
C818 C816 1.380 . S
C818 C819 1.391 1_455 S
C818 H833 0.930 . S
C819 C818 1.391 1_655 S
C819 C821 1.387 . S
C820 C817 1.398 1_655 S
C820 C821 1.380 . S
C820 H834 0.930 . S
C821 C819 1.387 . S
C821 C820 1.380 . S
C821 H835 0.930 . S
C822 O802 1.254 . S
C822 O803 1.268 . S
C823 O807 1.284 . S
C823 O810 1.250 . S
C824 Gd757 2.828 . S
C824 O806 1.258 . S
C824 O811 1.252 . S
C824 C825 1.497 . S
C825 C824 1.497 . S
C825 C826 1.395 . S
C825 C827 1.380 . S
C826 C825 1.395 . S
C826 C829 1.398 . S
C826 H836 0.930 . S
C827 C825 1.380 . S
C827 C828 1.391 . S
C827 H837 0.930 . S
C828 C827 1.391 . S
C828 C830 1.387 . S
C829 C826 1.398 . S
C829 C830 1.380 . S
C829 H838 0.930 . S
C830 C828 1.387 . S
C830 C829 1.380 . S
C830 H839 0.930 . S
C831 O808 1.254 . S
C831 O809 1.268 . S
H832 C817 0.930 . S
H833 C818 0.930 . S
H834 C820 0.930 . S
H835 C821 0.930 . S
H836 C826 0.930 . S
H837 C827 0.930 . S
H838 C829 0.930 . S
H839 C830 0.930 . S
Gd840 N871 2.661 . S
Gd840 N877 2.601 . S
Gd840 O884 2.545 . S
Gd840 O885 2.606 . S
Gd840 O887 2.429 . S
Gd840 O888 2.545 . S
Gd840 O889 2.412 . S
Gd840 O891 2.362 . S
Gd840 O892 2.324 . S
Gd840 C899 2.828 . S
Gd841 N850 2.661 . S
Gd841 N854 2.601 . S
Gd841 O885 2.362 . S
Gd841 O886 2.324 . S
Gd841 O890 2.545 . S
Gd841 O891 2.606 . S
Gd841 O893 2.429 . S
Gd841 O894 2.545 . S
Gd841 O895 2.412 . S
Gd841 C908 2.828 . S
C842 C845 1.417 . S
C842 C847 1.431 . S
C842 C848 1.412 . S
C843 C846 1.437 . S
C843 C847 1.317 . S
C843 H862 0.929 . S
C844 C845 1.426 . S
C844 C846 1.413 . S
C844 N854 1.359 . S
C845 C842 1.417 . S
C845 C844 1.426 . S
C845 N850 1.350 . S
C846 C843 1.437 . S
C846 C844 1.413 . S
C846 C856 1.391 . S
C847 C842 1.431 . S
C847 C843 1.317 . S
C847 H858 0.930 . S
C848 C842 1.412 . S
C848 C849 1.355 . S
C848 H860 0.930 . S
C849 C848 1.355 . S
C849 C851 1.402 . S
C849 H861 0.930 . S
N850 Gd841 2.661 . S
N850 C845 1.350 . S
N850 C851 1.307 . S
C851 C849 1.402 . S
C851 N850 1.307 . S
C851 H852 0.930 . S
H852 C851 0.930 . S
C853 N854 1.334 . S
C853 C855 1.394 . S
C853 H857 0.930 . S
N854 Gd841 2.601 . S
N854 C844 1.359 . S
N854 C853 1.334 . S
C855 C853 1.394 . S
C855 C856 1.359 . S
C855 H867 0.930 . S
C856 C846 1.391 . S
C856 C855 1.359 . S
C856 H868 0.929 . S
H857 C853 0.930 . S
H858 C847 0.930 . S
H859 C876 0.930 . S
H860 C848 0.930 . S
H861 C849 0.930 . S
H862 C843 0.929 . S
H863 C881 0.930 . S
H864 C872 0.930 . S
H865 C873 0.930 . S
H866 C897 0.929 . S
H867 C855 0.930 . S
H868 C856 0.929 . S
H869 C898 0.930 1_655 S
H870 C879 0.930 . S
N871 Gd840 2.661 . S
N871 C875 1.350 . S
N871 C876 1.307 . S
C872 H864 0.930 . S
C872 C873 1.355 . S
C872 C874 1.412 . S
C873 H865 0.930 . S
C873 C872 1.355 . S
C873 C876 1.402 . S
C874 C872 1.412 . S
C874 C875 1.417 . S
C874 C898 1.431 . S
C875 N871 1.350 . S
C875 C874 1.417 . S
C875 C878 1.426 . S
C876 H859 0.930 . S
C876 N871 1.307 . S
C876 C873 1.402 . S
N877 Gd840 2.601 . S
N877 C878 1.359 . S
N877 C881 1.334 . S
C878 C875 1.426 . S
C878 N877 1.359 . S
C878 C882 1.413 . S
C879 H870 0.930 . S
C879 C880 1.359 . S
C879 C881 1.394 . S
C880 C879 1.359 . S
C880 C882 1.391 . S
C880 H883 0.929 . S
C881 H863 0.930 . S
C881 N877 1.334 . S
C881 C879 1.394 . S
C882 C878 1.413 . S
C882 C880 1.391 . S
C882 C897 1.437 . S
H883 C880 0.929 . S
O884 Gd840 2.545 . S
O884 C899 1.258 . S
O885 Gd840 2.606 . S
O885 Gd841 2.362 . S
O885 C896 1.284 . S
O886 Gd841 2.324 . S
O886 C906 1.254 . S
O887 Gd840 2.429 . S
O887 C906 1.268 . S
O888 Gd840 2.545 . S
O888 C896 1.250 . S
O889 Gd840 2.412 . S
O889 C899 1.252 . S
O890 Gd841 2.545 . S
O890 C908 1.258 . S
O891 Gd840 2.362 . S
O891 Gd841 2.606 . S
O891 C907 1.284 . S
O892 Gd840 2.324 . S
O892 C915 1.254 . S
O893 Gd841 2.429 . S
O893 C915 1.268 . S
O894 Gd841 2.545 . S
O894 C907 1.250 . S
O895 Gd841 2.412 . S
O895 C908 1.252 . S
C896 O885 1.284 . S
C896 O888 1.250 . S
C897 H866 0.929 . S
C897 C882 1.437 . S
C897 C898 1.317 . S
C898 H869 0.930 1_455 S
C898 C874 1.431 . S
C898 C897 1.317 . S
C899 Gd840 2.828 . S
C899 O884 1.258 . S
C899 O889 1.252 . S
C899 C900 1.497 . S
C900 C899 1.497 . S
C900 C901 1.395 . S
C900 C902 1.380 . S
C901 C900 1.395 . S
C901 C904 1.398 . S
C901 H916 0.930 . S
C902 C900 1.380 . S
C902 C903 1.391 . S
C902 H917 0.930 . S
C903 C902 1.391 . S
C903 C905 1.387 . S
C904 C901 1.398 . S
C904 C905 1.380 . S
C904 H918 0.930 . S
C905 C903 1.387 . S
C905 C904 1.380 . S
C905 H919 0.930 . S
C906 O886 1.254 . S
C906 O887 1.268 . S
C907 O891 1.284 . S
C907 O894 1.250 . S
C908 Gd841 2.828 . S
C908 O890 1.258 . S
C908 O895 1.252 . S
C908 C909 1.497 . S
C909 C908 1.497 . S
C909 C910 1.395 . S
C909 C911 1.380 . S
C910 C909 1.395 . S
C910 C913 1.398 1_565 S
C910 H920 0.930 . S
C911 C909 1.380 . S
C911 C912 1.391 1_565 S
C911 H921 0.930 . S
C912 C911 1.391 1_545 S
C912 C914 1.387 . S
C913 C910 1.398 1_545 S
C913 C914 1.380 . S
C913 H922 0.930 . S
C914 C912 1.387 . S
C914 C913 1.380 . S
C914 H923 0.930 . S
C915 O892 1.254 . S
C915 O893 1.268 . S
H916 C901 0.930 . S
H917 C902 0.930 . S
H918 C904 0.930 . S
H919 C905 0.930 . S
H920 C910 0.930 . S
H921 C911 0.930 . S
H922 C913 0.930 . S
H923 C914 0.930 . S
Gd924 N955 2.661 . S
Gd924 N961 2.601 . S
Gd924 O968 2.545 . S
Gd924 O969 2.606 . S
Gd924 O971 2.429 . S
Gd924 O972 2.545 . S
Gd924 O973 2.412 . S
Gd924 O975 2.362 . S
Gd924 O976 2.324 . S
Gd924 C983 2.828 . S
Gd925 N934 2.661 . S
Gd925 N938 2.601 . S
Gd925 O969 2.362 . S
Gd925 O970 2.324 . S
Gd925 O974 2.545 . S
Gd925 O975 2.606 . S
Gd925 O977 2.429 . S
Gd925 O978 2.545 . S
Gd925 O979 2.412 . S
Gd925 C992 2.828 . S
C926 C929 1.417 . S
C926 C931 1.431 . S
C926 C932 1.412 . S
C927 C930 1.437 . S
C927 C931 1.317 . S
C927 H946 0.929 . S
C928 C929 1.426 . S
C928 C930 1.413 . S
C928 N938 1.359 . S
C929 C926 1.417 . S
C929 C928 1.426 . S
C929 N934 1.350 . S
C930 C927 1.437 . S
C930 C928 1.413 . S
C930 C940 1.391 . S
C931 C926 1.431 . S
C931 C927 1.317 . S
C931 H942 0.930 1_565 S
C932 C926 1.412 . S
C932 C933 1.355 . S
C932 H944 0.930 . S
C933 C932 1.355 . S
C933 C935 1.402 . S
C933 H945 0.930 . S
N934 Gd925 2.661 . S
N934 C929 1.350 . S
N934 C935 1.307 . S
C935 C933 1.402 . S
C935 N934 1.307 . S
C935 H936 0.930 . S
H936 C935 0.930 . S
C937 N938 1.334 . S
C937 C939 1.394 . S
C937 H941 0.930 . S
N938 Gd925 2.601 . S
N938 C928 1.359 . S
N938 C937 1.334 . S
C939 C937 1.394 . S
C939 C940 1.359 . S
C939 H951 0.930 . S
C940 C930 1.391 . S
C940 C939 1.359 . S
C940 H952 0.929 . S
H941 C937 0.930 . S
H942 C931 0.930 1_545 S
H943 C960 0.930 . S
H944 C932 0.930 . S
H945 C933 0.930 . S
H946 C927 0.929 . S
H947 C965 0.930 . S
H948 C956 0.930 . S
H949 C957 0.930 . S
H950 C981 0.929 . S
H951 C939 0.930 . S
H952 C940 0.929 . S
H953 C982 0.930 . S
H954 C963 0.930 . S
N955 Gd924 2.661 . S
N955 C959 1.350 . S
N955 C960 1.307 . S
C956 H948 0.930 . S
C956 C957 1.355 . S
C956 C958 1.412 . S
C957 H949 0.930 . S
C957 C956 1.355 . S
C957 C960 1.402 . S
C958 C956 1.412 . S
C958 C959 1.417 . S
C958 C982 1.431 . S
C959 N955 1.350 . S
C959 C958 1.417 . S
C959 C962 1.426 . S
C960 H943 0.930 . S
C960 N955 1.307 . S
C960 C957 1.402 . S
N961 Gd924 2.601 . S
N961 C962 1.359 . S
N961 C965 1.334 . S
C962 C959 1.426 . S
C962 N961 1.359 . S
C962 C966 1.413 . S
C963 H954 0.930 . S
C963 C964 1.359 . S
C963 C965 1.394 . S
C964 C963 1.359 . S
C964 C966 1.391 . S
C964 H967 0.929 . S
C965 H947 0.930 . S
C965 N961 1.334 . S
C965 C963 1.394 . S
C966 C962 1.413 . S
C966 C964 1.391 . S
C966 C981 1.437 . S
H967 C964 0.929 . S
O968 Gd924 2.545 . S
O968 C983 1.258 . S
O969 Gd924 2.606 . S
O969 Gd925 2.362 . S
O969 C980 1.284 . S
O970 Gd925 2.324 . S
O970 C990 1.254 . S
O971 Gd924 2.429 . S
O971 C990 1.268 . S
O972 Gd924 2.545 . S
O972 C980 1.250 . S
O973 Gd924 2.412 . S
O973 C983 1.252 . S
O974 Gd925 2.545 . S
O974 C992 1.258 . S
O975 Gd924 2.362 . S
O975 Gd925 2.606 . S
O975 C991 1.284 . S
O976 Gd924 2.324 . S
O976 C999 1.254 . S
O977 Gd925 2.429 . S
O977 C999 1.268 . S
O978 Gd925 2.545 . S
O978 C991 1.250 . S
O979 Gd925 2.412 . S
O979 C992 1.252 . S
C980 O969 1.284 . S
C980 O972 1.250 . S
C981 H950 0.929 . S
C981 C966 1.437 . S
C981 C982 1.317 . S
C982 H953 0.930 . S
C982 C958 1.431 . S
C982 C981 1.317 . S
C983 Gd924 2.828 . S
C983 O968 1.258 . S
C983 O973 1.252 . S
C983 C984 1.497 . S
C984 C983 1.497 . S
C984 C985 1.395 . S
C984 C986 1.380 . S
C985 C984 1.395 . S
C985 C988 1.398 . S
C985 H1000 0.930 . S
C986 C984 1.380 . S
C986 C987 1.391 . S
C986 H1001 0.930 . S
C987 C986 1.391 . S
C987 C989 1.387 . S
C988 C985 1.398 . S
C988 C989 1.380 . S
C988 H1002 0.930 . S
C989 C987 1.387 . S
C989 C988 1.380 . S
C989 H1003 0.930 . S
C990 O970 1.254 . S
C990 O971 1.268 . S
C991 O975 1.284 . S
C991 O978 1.250 . S
C992 Gd925 2.828 . S
C992 O974 1.258 . S
C992 O979 1.252 . S
C992 C993 1.497 . S
C993 C992 1.497 . S
C993 C994 1.395 . S
C993 C995 1.380 . S
C994 C993 1.395 . S
C994 C997 1.398 . S
C994 H1004 0.930 . S
C995 C993 1.380 . S
C995 C996 1.391 . S
C995 H1005 0.930 . S
C996 C995 1.391 . S
C996 C998 1.387 . S
C997 C994 1.398 . S
C997 C998 1.380 . S
C997 H1006 0.930 . S
C998 C996 1.387 . S
C998 C997 1.380 . S
C998 H1007 0.930 . S
C999 O976 1.254 . S
C999 O977 1.268 . S
H1000 C985 0.930 . S
H1001 C986 0.930 . S
H1002 C988 0.930 . S
H1003 C989 0.930 . S
H1004 C994 0.930 . S
H1005 C995 0.930 . S
H1006 C997 0.930 . S
H1007 C998 0.930 . S
C1008 C1009 1.349 . S
C1008 C1010 1.327 . S
C1008 H1033 0.950 . S
C1009 C1008 1.349 . S
C1009 C1025 1.349 . S
C1010 C1008 1.327 . S
C1010 C1029 1.429 . S
C1010 H1034 0.950 . S
C1011 C1028 1.574 . S
C1011 C1030 1.368 . S
C1011 H1035 0.949 . S
H1012 C1016 0.949 . S
C1013 C1014 1.349 . S
C1013 C1015 1.327 . S
C1013 H1036 0.950 . S
C1014 C1013 1.349 . S
C1014 C1026 1.349 . S
C1015 C1013 1.327 . S
C1015 C1031 1.429 . S
C1015 H1037 0.950 . S
C1016 H1012 0.949 . S
C1016 C1024 1.574 . S
C1016 C1032 1.368 . S
H1017 C1025 0.950 . S
H1018 C1023 0.950 . S
H1019 C1024 0.949 . S
H1020 C1026 0.950 . S
H1021 C1027 0.950 . S
H1022 C1028 0.949 . S
C1023 H1018 0.950 . S
C1023 C1025 1.327 . S
C1023 C1029 1.429 . S
C1024 C1016 1.574 . S
C1024 H1019 0.949 . S
C1024 C1030 1.368 . S
C1025 C1009 1.349 . S
C1025 H1017 0.950 . S
C1025 C1023 1.327 . S
C1026 C1014 1.349 . S
C1026 H1020 0.950 . S
C1026 C1027 1.327 . S
C1027 H1021 0.950 . S
C1027 C1026 1.327 . S
C1027 C1031 1.429 . S
C1028 C1011 1.574 . S
C1028 H1022 0.949 . S
C1028 C1032 1.368 . S
C1029 C1010 1.429 . S
C1029 C1023 1.429 . S
C1029 C1030 1.523 . S
C1030 C1011 1.368 . S
C1030 C1024 1.368 . S
C1030 C1029 1.523 . S
C1031 C1015 1.429 . S
C1031 C1027 1.429 . S
C1031 C1032 1.523 . S
C1032 C1016 1.368 . S
C1032 C1028 1.368 . S
C1032 C1031 1.523 . S
H1033 C1008 0.950 . S
H1034 C1010 0.950 . S
H1035 C1011 0.949 . S
H1036 C1013 0.950 . S
H1037 C1015 0.950 . S
C1038 C1039 1.349 . S
C1038 C1040 1.327 . S
C1038 H1063 0.950 . S
C1039 C1038 1.349 . S
C1039 C1055 1.349 . S
C1040 C1038 1.327 . S
C1040 C1059 1.429 . S
C1040 H1064 0.950 . S
C1041 C1058 1.574 . S
C1041 C1060 1.368 . S
C1041 H1065 0.949 . S
H1042 C1046 0.949 . S
C1043 C1044 1.349 . S
C1043 C1045 1.327 . S
C1043 H1066 0.950 . S
C1044 C1043 1.349 . S
C1044 C1056 1.349 . S
C1045 C1043 1.327 . S
C1045 C1061 1.429 . S
C1045 H1067 0.950 . S
C1046 H1042 0.949 . S
C1046 C1054 1.574 1_655 S
C1046 C1062 1.368 . S
H1047 C1055 0.950 . S
H1048 C1053 0.950 . S
H1049 C1054 0.949 . S
H1050 C1056 0.950 . S
H1051 C1057 0.950 . S
H1052 C1058 0.949 . S
C1053 H1048 0.950 . S
C1053 C1055 1.327 . S
C1053 C1059 1.429 . S
C1054 C1046 1.574 1_455 S
C1054 H1049 0.949 . S
C1054 C1060 1.368 . S
C1055 C1039 1.349 . S
C1055 H1047 0.950 . S
C1055 C1053 1.327 . S
C1056 C1044 1.349 . S
C1056 H1050 0.950 . S
C1056 C1057 1.327 . S
C1057 H1051 0.950 . S
C1057 C1056 1.327 . S
C1057 C1061 1.429 . S
C1058 C1041 1.574 . S
C1058 H1052 0.949 . S
C1058 C1062 1.368 1_455 S
C1059 C1040 1.429 . S
C1059 C1053 1.429 . S
C1059 C1060 1.523 . S
C1060 C1041 1.368 . S
C1060 C1054 1.368 . S
C1060 C1059 1.523 . S
C1061 C1045 1.429 . S
C1061 C1057 1.429 . S
C1061 C1062 1.523 . S
C1062 C1046 1.368 . S
C1062 C1058 1.368 1_655 S
C1062 C1061 1.523 . S
H1063 C1038 0.950 . S
H1064 C1040 0.950 . S
H1065 C1041 0.949 . S
H1066 C1043 0.950 . S
H1067 C1045 0.950 . S
C1068 C1069 1.349 . S
C1068 C1070 1.327 . S
C1068 H1093 0.950 . S
C1069 C1068 1.349 . S
C1069 C1085 1.349 . S
C1070 C1068 1.327 . S
C1070 C1089 1.429 . S
C1070 H1094 0.950 . S
C1071 C1088 1.574 1_545 S
C1071 C1090 1.368 . S
C1071 H1095 0.949 . S
H1072 C1076 0.949 . S
C1073 C1074 1.349 . S
C1073 C1075 1.327 . S
C1073 H1096 0.950 . S
C1074 C1073 1.349 . S
C1074 C1086 1.349 . S
C1075 C1073 1.327 . S
C1075 C1091 1.429 . S
C1075 H1097 0.950 . S
C1076 H1072 0.949 . S
C1076 C1084 1.574 . S
C1076 C1092 1.368 . S
H1077 C1085 0.950 . S
H1078 C1083 0.950 . S
H1079 C1084 0.949 . S
H1080 C1086 0.950 . S
H1081 C1087 0.950 . S
H1082 C1088 0.949 . S
C1083 H1078 0.950 . S
C1083 C1085 1.327 . S
C1083 C1089 1.429 . S
C1084 C1076 1.574 . S
C1084 H1079 0.949 . S
C1084 C1090 1.368 1_565 S
C1085 C1069 1.349 . S
C1085 H1077 0.950 . S
C1085 C1083 1.327 . S
C1086 C1074 1.349 . S
C1086 H1080 0.950 . S
C1086 C1087 1.327 . S
C1087 H1081 0.950 . S
C1087 C1086 1.327 . S
C1087 C1091 1.429 . S
C1088 C1071 1.574 1_565 S
C1088 H1082 0.949 . S
C1088 C1092 1.368 . S
C1089 C1070 1.429 . S
C1089 C1083 1.429 . S
C1089 C1090 1.523 . S
C1090 C1071 1.368 . S
C1090 C1084 1.368 1_545 S
C1090 C1089 1.523 . S
C1091 C1075 1.429 . S
C1091 C1087 1.429 . S
C1091 C1092 1.523 . S
C1092 C1076 1.368 . S
C1092 C1088 1.368 . S
C1092 C1091 1.523 . S
H1093 C1068 0.950 . S
H1094 C1070 0.950 . S
H1095 C1071 0.949 . S
H1096 C1073 0.950 . S
H1097 C1075 0.950 . S
C1098 C1099 1.349 . S
C1098 C1100 1.327 . S
C1098 H1123 0.950 . S
C1099 C1098 1.349 . S
C1099 C1115 1.349 . S
C1100 C1098 1.327 . S
C1100 C1119 1.429 . S
C1100 H1124 0.950 . S
C1101 C1118 1.574 . S
C1101 C1120 1.368 . S
C1101 H1125 0.949 . S
H1102 C1106 0.949 . S
C1103 C1104 1.349 . S
C1103 C1105 1.327 . S
C1103 H1126 0.950 . S
C1104 C1103 1.349 . S
C1104 C1116 1.349 . S
C1105 C1103 1.327 . S
C1105 C1121 1.429 . S
C1105 H1127 0.950 . S
C1106 H1102 0.949 . S
C1106 C1114 1.574 . S
C1106 C1122 1.368 . S
H1107 C1115 0.950 . S
H1108 C1113 0.950 . S
H1109 C1114 0.949 . S
H1110 C1116 0.950 . S
H1111 C1117 0.950 . S
H1112 C1118 0.949 . S
C1113 H1108 0.950 . S
C1113 C1115 1.327 . S
C1113 C1119 1.429 . S
C1114 C1106 1.574 . S
C1114 H1109 0.949 . S
C1114 C1120 1.368 . S
C1115 C1099 1.349 . S
C1115 H1107 0.950 . S
C1115 C1113 1.327 . S
C1116 C1104 1.349 . S
C1116 H1110 0.950 . S
C1116 C1117 1.327 . S
C1117 H1111 0.950 . S
C1117 C1116 1.327 . S
C1117 C1121 1.429 . S
C1118 C1101 1.574 . S
C1118 H1112 0.949 . S
C1118 C1122 1.368 . S
C1119 C1100 1.429 . S
C1119 C1113 1.429 . S
C1119 C1120 1.523 . S
C1120 C1101 1.368 . S
C1120 C1114 1.368 . S
C1120 C1119 1.523 . S
C1121 C1105 1.429 . S
C1121 C1117 1.429 . S
C1121 C1122 1.523 . S
C1122 C1106 1.368 . S
C1122 C1118 1.368 . S
C1122 C1121 1.523 . S
H1123 C1098 0.950 . S
H1124 C1100 0.950 . S
H1125 C1101 0.949 . S
H1126 C1103 0.950 . S
H1127 C1105 0.950 . S
C1128 C1129 1.349 . S
C1128 C1130 1.327 . S
C1128 H1153 0.950 . S
C1129 C1128 1.349 . S
C1129 C1145 1.349 . S
C1130 C1128 1.327 . S
C1130 C1149 1.429 . S
C1130 H1154 0.950 . S
C1131 C1148 1.574 . S
C1131 C1150 1.368 . S
C1131 H1155 0.949 . S
H1132 C1136 0.949 . S
C1133 C1134 1.349 . S
C1133 C1135 1.327 . S
C1133 H1156 0.950 . S
C1134 C1133 1.349 . S
C1134 C1146 1.349 . S
C1135 C1133 1.327 . S
C1135 C1151 1.429 . S
C1135 H1157 0.950 . S
C1136 H1132 0.949 . S
C1136 C1144 1.574 1_655 S
C1136 C1152 1.368 . S
H1137 C1145 0.950 . S
H1138 C1143 0.950 . S
H1139 C1144 0.949 . S
H1140 C1146 0.950 . S
H1141 C1147 0.950 . S
H1142 C1148 0.949 . S
C1143 H1138 0.950 . S
C1143 C1145 1.327 . S
C1143 C1149 1.429 . S
C1144 C1136 1.574 1_455 S
C1144 H1139 0.949 . S
C1144 C1150 1.368 . S
C1145 C1129 1.349 . S
C1145 H1137 0.950 . S
C1145 C1143 1.327 . S
C1146 C1134 1.349 . S
C1146 H1140 0.950 . S
C1146 C1147 1.327 . S
C1147 H1141 0.950 . S
C1147 C1146 1.327 . S
C1147 C1151 1.429 . S
C1148 C1131 1.574 . S
C1148 H1142 0.949 . S
C1148 C1152 1.368 1_455 S
C1149 C1130 1.429 . S
C1149 C1143 1.429 . S
C1149 C1150 1.523 . S
C1150 C1131 1.368 . S
C1150 C1144 1.368 . S
C1150 C1149 1.523 . S
C1151 C1135 1.429 . S
C1151 C1147 1.429 . S
C1151 C1152 1.523 . S
C1152 C1136 1.368 . S
C1152 C1148 1.368 1_655 S
C1152 C1151 1.523 . S
H1153 C1128 0.950 . S
H1154 C1130 0.950 . S
H1155 C1131 0.949 . S
H1156 C1133 0.950 . S
H1157 C1135 0.950 . S
C1158 C1159 1.349 . S
C1158 C1160 1.327 . S
C1158 H1183 0.950 . S
C1159 C1158 1.349 . S
C1159 C1175 1.349 . S
C1160 C1158 1.327 . S
C1160 C1179 1.429 . S
C1160 H1184 0.950 . S
C1161 C1178 1.574 1_565 S
C1161 C1180 1.368 . S
C1161 H1185 0.949 . S
H1162 C1166 0.949 . S
C1163 C1164 1.349 . S
C1163 C1165 1.327 . S
C1163 H1186 0.950 . S
C1164 C1163 1.349 . S
C1164 C1176 1.349 . S
C1165 C1163 1.327 . S
C1165 C1181 1.429 . S
C1165 H1187 0.950 . S
C1166 H1162 0.949 . S
C1166 C1174 1.574 . S
C1166 C1182 1.368 1_565 S
H1167 C1175 0.950 . S
H1168 C1173 0.950 . S
H1169 C1174 0.949 . S
H1170 C1176 0.950 . S
H1171 C1177 0.950 . S
H1172 C1178 0.949 . S
C1173 H1168 0.950 . S
C1173 C1175 1.327 . S
C1173 C1179 1.429 . S
C1174 C1166 1.574 . S
C1174 H1169 0.949 . S
C1174 C1180 1.368 . S
C1175 C1159 1.349 . S
C1175 H1167 0.950 . S
C1175 C1173 1.327 . S
C1176 C1164 1.349 . S
C1176 H1170 0.950 . S
C1176 C1177 1.327 . S
C1177 H1171 0.950 . S
C1177 C1176 1.327 . S
C1177 C1181 1.429 . S
C1178 C1161 1.574 1_545 S
C1178 H1172 0.949 . S
C1178 C1182 1.368 . S
C1179 C1160 1.429 . S
C1179 C1173 1.429 . S
C1179 C1180 1.523 . S
C1180 C1161 1.368 . S
C1180 C1174 1.368 . S
C1180 C1179 1.523 . S
C1181 C1165 1.429 . S
C1181 C1177 1.429 . S
C1181 C1182 1.523 . S
C1182 C1166 1.368 1_545 S
C1182 C1178 1.368 . S
C1182 C1181 1.523 . S
H1183 C1158 0.950 . S
H1184 C1160 0.950 . S
H1185 C1161 0.949 . S
H1186 C1163 0.950 . S
H1187 C1165 0.950 . S
C1188 C1189 1.349 . S
C1188 C1190 1.327 . S
C1188 H1213 0.950 . S
C1189 C1188 1.349 . S
C1189 C1205 1.349 . S
C1190 C1188 1.327 . S
C1190 C1209 1.429 . S
C1190 H1214 0.950 . S
C1191 C1208 1.574 . S
C1191 C1210 1.368 . S
C1191 H1215 0.949 . S
H1192 C1196 0.949 . S
C1193 C1194 1.349 . S
C1193 C1195 1.327 . S
C1193 H1216 0.950 . S
C1194 C1193 1.349 . S
C1194 C1206 1.349 . S
C1195 C1193 1.327 . S
C1195 C1211 1.429 . S
C1195 H1217 0.950 . S
C1196 H1192 0.949 . S
C1196 C1204 1.574 . S
C1196 C1212 1.368 . S
H1197 C1205 0.950 . S
H1198 C1203 0.950 . S
H1199 C1204 0.949 . S
H1200 C1206 0.950 . S
H1201 C1207 0.950 . S
H1202 C1208 0.949 . S
C1203 H1198 0.950 . S
C1203 C1205 1.327 . S
C1203 C1209 1.429 . S
C1204 C1196 1.574 . S
C1204 H1199 0.949 . S
C1204 C1210 1.368 . S
C1205 C1189 1.349 . S
C1205 H1197 0.950 . S
C1205 C1203 1.327 . S
C1206 C1194 1.349 . S
C1206 H1200 0.950 . S
C1206 C1207 1.327 . S
C1207 H1201 0.950 . S
C1207 C1206 1.327 . S
C1207 C1211 1.429 . S
C1208 C1191 1.574 . S
C1208 H1202 0.949 . S
C1208 C1212 1.368 . S
C1209 C1190 1.429 . S
C1209 C1203 1.429 . S
C1209 C1210 1.523 . S
C1210 C1191 1.368 . S
C1210 C1204 1.368 . S
C1210 C1209 1.523 . S
C1211 C1195 1.429 . S
C1211 C1207 1.429 . S
C1211 C1212 1.523 . S
C1212 C1196 1.368 . S
C1212 C1208 1.368 . S
C1212 C1211 1.523 . S
H1213 C1188 0.950 . S
H1214 C1190 0.950 . S
H1215 C1191 0.949 . S
H1216 C1193 0.950 . S
H1217 C1195 0.950 . S
C1218 C1219 1.349 . S
C1218 C1220 1.327 . S
C1218 H1243 0.950 . S
C1219 C1218 1.349 . S
C1219 C1235 1.349 . S
C1220 C1218 1.327 . S
C1220 C1239 1.429 . S
C1220 H1244 0.950 . S
C1221 C1238 1.574 . S
C1221 C1240 1.368 1_655 S
C1221 H1245 0.949 . S
H1222 C1226 0.949 . S
C1223 C1224 1.349 . S
C1223 C1225 1.327 . S
C1223 H1246 0.950 . S
C1224 C1223 1.349 . S
C1224 C1236 1.349 . S
C1225 C1223 1.327 . S
C1225 C1241 1.429 . S
C1225 H1247 0.950 . S
C1226 H1222 0.949 . S
C1226 C1234 1.574 1_655 S
C1226 C1242 1.368 . S
H1227 C1235 0.950 . S
H1228 C1233 0.950 . S
H1229 C1234 0.949 . S
H1230 C1236 0.950 . S
H1231 C1237 0.950 . S
H1232 C1238 0.949 . S
C1233 H1228 0.950 . S
C1233 C1235 1.327 . S
C1233 C1239 1.429 . S
C1234 C1226 1.574 1_455 S
C1234 H1229 0.949 . S
C1234 C1240 1.368 . S
C1235 C1219 1.349 . S
C1235 H1227 0.950 . S
C1235 C1233 1.327 . S
C1236 C1224 1.349 . S
C1236 H1230 0.950 . S
C1236 C1237 1.327 . S
C1237 H1231 0.950 . S
C1237 C1236 1.327 . S
C1237 C1241 1.429 . S
C1238 C1221 1.574 . S
C1238 H1232 0.949 . S
C1238 C1242 1.368 . S
C1239 C1220 1.429 . S
C1239 C1233 1.429 . S
C1239 C1240 1.523 . S
C1240 C1221 1.368 1_455 S
C1240 C1234 1.368 . S
C1240 C1239 1.523 . S
C1241 C1225 1.429 . S
C1241 C1237 1.429 . S
C1241 C1242 1.523 . S
C1242 C1226 1.368 . S
C1242 C1238 1.368 . S
C1242 C1241 1.523 . S
H1243 C1218 0.950 . S
H1244 C1220 0.950 . S
H1245 C1221 0.949 . S
H1246 C1223 0.950 . S
H1247 C1225 0.950 . S
C1248 C1249 1.349 . S
C1248 C1250 1.327 . S
C1248 H1273 0.950 . S
C1249 C1248 1.349 . S
C1249 C1265 1.349 . S
C1250 C1248 1.327 . S
C1250 C1269 1.429 . S
C1250 H1274 0.950 . S
C1251 C1268 1.574 1_565 S
C1251 C1270 1.368 . S
C1251 H1275 0.949 . S
H1252 C1256 0.949 . S
C1253 C1254 1.349 . S
C1253 C1255 1.327 . S
C1253 H1276 0.950 . S
C1254 C1253 1.349 . S
C1254 C1266 1.349 . S
C1255 C1253 1.327 . S
C1255 C1271 1.429 . S
C1255 H1277 0.950 . S
C1256 H1252 0.949 . S
C1256 C1264 1.574 . S
C1256 C1272 1.368 . S
H1257 C1265 0.950 . S
H1258 C1263 0.950 . S
H1259 C1264 0.949 . S
H1260 C1266 0.950 . S
H1261 C1267 0.950 . S
H1262 C1268 0.949 . S
C1263 H1258 0.950 . S
C1263 C1265 1.327 . S
C1263 C1269 1.429 . S
C1264 C1256 1.574 . S
C1264 H1259 0.949 . S
C1264 C1270 1.368 1_545 S
C1265 C1249 1.349 . S
C1265 H1257 0.950 . S
C1265 C1263 1.327 . S
C1266 C1254 1.349 . S
C1266 H1260 0.950 . S
C1266 C1267 1.327 . S
C1267 H1261 0.950 . S
C1267 C1266 1.327 . S
C1267 C1271 1.429 . S
C1268 C1251 1.574 1_545 S
C1268 H1262 0.949 . S
C1268 C1272 1.368 . S
C1269 C1250 1.429 . S
C1269 C1263 1.429 . S
C1269 C1270 1.523 . S
C1270 C1251 1.368 . S
C1270 C1264 1.368 1_565 S
C1270 C1269 1.523 . S
C1271 C1255 1.429 . S
C1271 C1267 1.429 . S
C1271 C1272 1.523 . S
C1272 C1256 1.368 . S
C1272 C1268 1.368 . S
C1272 C1271 1.523 . S
H1273 C1248 0.950 . S
H1274 C1250 0.950 . S
H1275 C1251 0.949 . S
H1276 C1253 0.950 . S
H1277 C1255 0.950 . S
C1278 C1279 1.349 . S
C1278 C1280 1.327 . S
C1278 H1303 0.950 . S
C1279 C1278 1.349 . S
C1279 C1295 1.349 . S
C1280 C1278 1.327 . S
C1280 C1299 1.429 . S
C1280 H1304 0.950 . S
C1281 C1298 1.574 . S
C1281 C1300 1.368 . S
C1281 H1305 0.949 . S
H1282 C1286 0.949 . S
C1283 C1284 1.349 . S
C1283 C1285 1.327 . S
C1283 H1306 0.950 . S
C1284 C1283 1.349 . S
C1284 C1296 1.349 . S
C1285 C1283 1.327 . S
C1285 C1301 1.429 . S
C1285 H1307 0.950 . S
C1286 H1282 0.949 . S
C1286 C1294 1.574 . S
C1286 C1302 1.368 . S
H1287 C1295 0.950 . S
H1288 C1293 0.950 . S
H1289 C1294 0.949 . S
H1290 C1296 0.950 . S
H1291 C1297 0.950 . S
H1292 C1298 0.949 . S
C1293 H1288 0.950 . S
C1293 C1295 1.327 . S
C1293 C1299 1.429 . S
C1294 C1286 1.574 . S
C1294 H1289 0.949 . S
C1294 C1300 1.368 . S
C1295 C1279 1.349 . S
C1295 H1287 0.950 . S
C1295 C1293 1.327 . S
C1296 C1284 1.349 . S
C1296 H1290 0.950 . S
C1296 C1297 1.327 . S
C1297 H1291 0.950 . S
C1297 C1296 1.327 . S
C1297 C1301 1.429 . S
C1298 C1281 1.574 . S
C1298 H1292 0.949 . S
C1298 C1302 1.368 . S
C1299 C1280 1.429 . S
C1299 C1293 1.429 . S
C1299 C1300 1.523 . S
C1300 C1281 1.368 . S
C1300 C1294 1.368 . S
C1300 C1299 1.523 . S
C1301 C1285 1.429 . S
C1301 C1297 1.429 . S
C1301 C1302 1.523 . S
C1302 C1286 1.368 . S
C1302 C1298 1.368 . S
C1302 C1301 1.523 . S
H1303 C1278 0.950 . S
H1304 C1280 0.950 . S
H1305 C1281 0.949 . S
H1306 C1283 0.950 . S
H1307 C1285 0.950 . S
C1308 C1309 1.349 . S
C1308 C1310 1.327 . S
C1308 H1333 0.950 . S
C1309 C1308 1.349 . S
C1309 C1325 1.349 . S
C1310 C1308 1.327 . S
C1310 C1329 1.429 . S
C1310 H1334 0.950 . S
C1311 C1328 1.574 1_455 S
C1311 C1330 1.368 . S
C1311 H1335 0.949 . S
H1312 C1316 0.949 . S
C1313 C1314 1.349 . S
C1313 C1315 1.327 . S
C1313 H1336 0.950 . S
C1314 C1313 1.349 . S
C1314 C1326 1.349 . S
C1315 C1313 1.327 . S
C1315 C1331 1.429 . S
C1315 H1337 0.950 . S
C1316 H1312 0.949 . S
C1316 C1324 1.574 . S
C1316 C1332 1.368 . S
H1317 C1325 0.950 . S
H1318 C1323 0.950 . S
H1319 C1324 0.949 . S
H1320 C1326 0.950 . S
H1321 C1327 0.950 . S
H1322 C1328 0.949 . S
C1323 H1318 0.950 . S
C1323 C1325 1.327 . S
C1323 C1329 1.429 . S
C1324 C1316 1.574 . S
C1324 H1319 0.949 . S
C1324 C1330 1.368 1_655 S
C1325 C1309 1.349 . S
C1325 H1317 0.950 . S
C1325 C1323 1.327 . S
C1326 C1314 1.349 . S
C1326 H1320 0.950 . S
C1326 C1327 1.327 . S
C1327 H1321 0.950 . S
C1327 C1326 1.327 . S
C1327 C1331 1.429 . S
C1328 C1311 1.574 1_655 S
C1328 H1322 0.949 . S
C1328 C1332 1.368 . S
C1329 C1310 1.429 . S
C1329 C1323 1.429 . S
C1329 C1330 1.523 . S
C1330 C1311 1.368 . S
C1330 C1324 1.368 1_455 S
C1330 C1329 1.523 . S
C1331 C1315 1.429 . S
C1331 C1327 1.429 . S
C1331 C1332 1.523 . S
C1332 C1316 1.368 . S
C1332 C1328 1.368 . S
C1332 C1331 1.523 . S
H1333 C1308 0.950 . S
H1334 C1310 0.950 . S
H1335 C1311 0.949 . S
H1336 C1313 0.950 . S
H1337 C1315 0.950 . S
C1338 C1339 1.349 . S
C1338 C1340 1.327 . S
C1338 H1363 0.950 . S
C1339 C1338 1.349 . S
C1339 C1355 1.349 . S
C1340 C1338 1.327 . S
C1340 C1359 1.429 . S
C1340 H1364 0.950 . S
C1341 C1358 1.574 . S
C1341 C1360 1.368 . S
C1341 H1365 0.949 . S
H1342 C1346 0.949 . S
C1343 C1344 1.349 . S
C1343 C1345 1.327 . S
C1343 H1366 0.950 . S
C1344 C1343 1.349 . S
C1344 C1356 1.349 . S
C1345 C1343 1.327 . S
C1345 C1361 1.429 . S
C1345 H1367 0.950 . S
C1346 H1342 0.949 . S
C1346 C1354 1.574 1_565 S
C1346 C1362 1.368 . S
H1347 C1355 0.950 . S
H1348 C1353 0.950 . S
H1349 C1354 0.949 . S
H1350 C1356 0.950 . S
H1351 C1357 0.950 . S
H1352 C1358 0.949 . S
C1353 H1348 0.950 . S
C1353 C1355 1.327 . S
C1353 C1359 1.429 . S
C1354 C1346 1.574 1_545 S
C1354 H1349 0.949 . S
C1354 C1360 1.368 . S
C1355 C1339 1.349 . S
C1355 H1347 0.950 . S
C1355 C1353 1.327 . S
C1356 C1344 1.349 . S
C1356 H1350 0.950 . S
C1356 C1357 1.327 . S
C1357 H1351 0.950 . S
C1357 C1356 1.327 . S
C1357 C1361 1.429 . S
C1358 C1341 1.574 . S
C1358 H1352 0.949 . S
C1358 C1362 1.368 1_545 S
C1359 C1340 1.429 . S
C1359 C1353 1.429 . S
C1359 C1360 1.523 . S
C1360 C1341 1.368 . S
C1360 C1354 1.368 . S
C1360 C1359 1.523 . S
C1361 C1345 1.429 . S
C1361 C1357 1.429 . S
C1361 C1362 1.523 . S
C1362 C1346 1.368 . S
C1362 C1358 1.368 1_565 S
C1362 C1361 1.523 . S
H1363 C1338 0.950 . S
H1364 C1340 0.950 . S
H1365 C1341 0.949 . S
H1366 C1343 0.950 . S
H1367 C1345 0.950 . S
C1368 C1369 1.349 . S
C1368 C1370 1.327 . S
C1368 H1393 0.950 . S
C1369 C1368 1.349 . S
C1369 C1385 1.349 . S
C1370 C1368 1.327 . S
C1370 C1389 1.429 . S
C1370 H1394 0.950 . S
C1371 C1388 1.574 . S
C1371 C1390 1.368 . S
C1371 H1395 0.949 . S
H1372 C1376 0.949 . S
C1373 C1374 1.349 . S
C1373 C1375 1.327 . S
C1373 H1396 0.950 . S
C1374 C1373 1.349 . S
C1374 C1386 1.349 . S
C1375 C1373 1.327 . S
C1375 C1391 1.429 . S
C1375 H1397 0.950 . S
C1376 H1372 0.949 . S
C1376 C1384 1.574 . S
C1376 C1392 1.368 . S
H1377 C1385 0.950 . S
H1378 C1383 0.950 . S
H1379 C1384 0.949 . S
H1380 C1386 0.950 . S
H1381 C1387 0.950 . S
H1382 C1388 0.949 . S
C1383 H1378 0.950 . S
C1383 C1385 1.327 . S
C1383 C1389 1.429 . S
C1384 C1376 1.574 . S
C1384 H1379 0.949 . S
C1384 C1390 1.368 . S
C1385 C1369 1.349 . S
C1385 H1377 0.950 . S
C1385 C1383 1.327 . S
C1386 C1374 1.349 . S
C1386 H1380 0.950 . S
C1386 C1387 1.327 . S
C1387 H1381 0.950 . S
C1387 C1386 1.327 . S
C1387 C1391 1.429 . S
C1388 C1371 1.574 . S
C1388 H1382 0.949 . S
C1388 C1392 1.368 . S
C1389 C1370 1.429 . S
C1389 C1383 1.429 . S
C1389 C1390 1.523 . S
C1390 C1371 1.368 . S
C1390 C1384 1.368 . S
C1390 C1389 1.523 . S
C1391 C1375 1.429 . S
C1391 C1387 1.429 . S
C1391 C1392 1.523 . S
C1392 C1376 1.368 . S
C1392 C1388 1.368 . S
C1392 C1391 1.523 . S
H1393 C1368 0.950 . S
H1394 C1370 0.950 . S
H1395 C1371 0.949 . S
H1396 C1373 0.950 . S
H1397 C1375 0.950 . S
C1398 C1399 1.349 . S
C1398 C1400 1.327 . S
C1398 H1423 0.950 . S
C1399 C1398 1.349 . S
C1399 C1415 1.349 . S
C1400 C1398 1.327 . S
C1400 C1419 1.429 . S
C1400 H1424 0.950 . S
C1401 C1418 1.574 . S
C1401 C1420 1.368 . S
C1401 H1425 0.949 . S
H1402 C1406 0.949 . S
C1403 C1404 1.349 . S
C1403 C1405 1.327 . S
C1403 H1426 0.950 . S
C1404 C1403 1.349 . S
C1404 C1416 1.349 . S
C1405 C1403 1.327 . S
C1405 C1421 1.429 . S
C1405 H1427 0.950 . S
C1406 H1402 0.949 . S
C1406 C1414 1.574 . S
C1406 C1422 1.368 . S
H1407 C1415 0.950 . S
H1408 C1413 0.950 . S
H1409 C1414 0.949 . S
H1410 C1416 0.950 . S
H1411 C1417 0.950 . S
H1412 C1418 0.949 . S
C1413 H1408 0.950 . S
C1413 C1415 1.327 . S
C1413 C1419 1.429 . S
C1414 C1406 1.574 . S
C1414 H1409 0.949 . S
C1414 C1420 1.368 . S
C1415 C1399 1.349 . S
C1415 H1407 0.950 . S
C1415 C1413 1.327 . S
C1416 C1404 1.349 . S
C1416 H1410 0.950 . S
C1416 C1417 1.327 . S
C1417 H1411 0.950 . S
C1417 C1416 1.327 . S
C1417 C1421 1.429 . S
C1418 C1401 1.574 . S
C1418 H1412 0.949 . S
C1418 C1422 1.368 . S
C1419 C1400 1.429 . S
C1419 C1413 1.429 . S
C1419 C1420 1.523 . S
C1420 C1401 1.368 . S
C1420 C1414 1.368 . S
C1420 C1419 1.523 . S
C1421 C1405 1.429 . S
C1421 C1417 1.429 . S
C1421 C1422 1.523 . S
C1422 C1406 1.368 . S
C1422 C1418 1.368 . S
C1422 C1421 1.523 . S
H1423 C1398 0.950 . S
H1424 C1400 0.950 . S
H1425 C1401 0.949 . S
H1426 C1403 0.950 . S
H1427 C1405 0.950 . S
C1428 C1429 1.349 . S
C1428 C1430 1.327 . S
C1428 H1453 0.950 . S
C1429 C1428 1.349 . S
C1429 C1445 1.349 . S
C1430 C1428 1.327 . S
C1430 C1449 1.429 . S
C1430 H1454 0.950 . S
C1431 C1448 1.574 . S
C1431 C1450 1.368 . S
C1431 H1455 0.949 . S
H1432 C1436 0.949 . S
C1433 C1434 1.349 . S
C1433 C1435 1.327 . S
C1433 H1456 0.950 . S
C1434 C1433 1.349 . S
C1434 C1446 1.349 . S
C1435 C1433 1.327 . S
C1435 C1451 1.429 . S
C1435 H1457 0.950 . S
C1436 H1432 0.949 . S
C1436 C1444 1.574 . S
C1436 C1452 1.368 . S
H1437 C1445 0.950 . S
H1438 C1443 0.950 . S
H1439 C1444 0.949 . S
H1440 C1446 0.950 . S
H1441 C1447 0.950 . S
H1442 C1448 0.949 . S
C1443 H1438 0.950 . S
C1443 C1445 1.327 . S
C1443 C1449 1.429 . S
C1444 C1436 1.574 . S
C1444 H1439 0.949 . S
C1444 C1450 1.368 . S
C1445 C1429 1.349 . S
C1445 H1437 0.950 . S
C1445 C1443 1.327 . S
C1446 C1434 1.349 . S
C1446 H1440 0.950 . S
C1446 C1447 1.327 . S
C1447 H1441 0.950 . S
C1447 C1446 1.327 . S
C1447 C1451 1.429 . S
C1448 C1431 1.574 . S
C1448 H1442 0.949 . S
C1448 C1452 1.368 . S
C1449 C1430 1.429 . S
C1449 C1443 1.429 . S
C1449 C1450 1.523 . S
C1450 C1431 1.368 . S
C1450 C1444 1.368 . S
C1450 C1449 1.523 . S
C1451 C1435 1.429 . S
C1451 C1447 1.429 . S
C1451 C1452 1.523 . S
C1452 C1436 1.368 . S
C1452 C1448 1.368 . S
C1452 C1451 1.523 . S
H1453 C1428 0.950 . S
H1454 C1430 0.950 . S
H1455 C1431 0.949 . S
H1456 C1433 0.950 . S
H1457 C1435 0.950 . S
C1458 C1459 1.349 . S
C1458 C1460 1.327 . S
C1458 H1483 0.950 . S
C1459 C1458 1.349 . S
C1459 C1475 1.349 . S
C1460 C1458 1.327 . S
C1460 C1479 1.429 . S
C1460 H1484 0.950 . S
C1461 C1478 1.574 . S
C1461 C1480 1.368 . S
C1461 H1485 0.949 . S
H1462 C1466 0.949 . S
C1463 C1464 1.349 . S
C1463 C1465 1.327 . S
C1463 H1486 0.950 . S
C1464 C1463 1.349 . S
C1464 C1476 1.349 . S
C1465 C1463 1.327 . S
C1465 C1481 1.429 . S
C1465 H1487 0.950 . S
C1466 H1462 0.949 . S
C1466 C1474 1.574 . S
C1466 C1482 1.368 . S
H1467 C1475 0.950 . S
H1468 C1473 0.950 . S
H1469 C1474 0.949 . S
H1470 C1476 0.950 . S
H1471 C1477 0.950 . S
H1472 C1478 0.949 . S
C1473 H1468 0.950 . S
C1473 C1475 1.327 . S
C1473 C1479 1.429 . S
C1474 C1466 1.574 . S
C1474 H1469 0.949 . S
C1474 C1480 1.368 . S
C1475 C1459 1.349 . S
C1475 H1467 0.950 . S
C1475 C1473 1.327 . S
C1476 C1464 1.349 . S
C1476 H1470 0.950 . S
C1476 C1477 1.327 . S
C1477 H1471 0.950 . S
C1477 C1476 1.327 . S
C1477 C1481 1.429 . S
C1478 C1461 1.574 . S
C1478 H1472 0.949 . S
C1478 C1482 1.368 . S
C1479 C1460 1.429 . S
C1479 C1473 1.429 . S
C1479 C1480 1.523 . S
C1480 C1461 1.368 . S
C1480 C1474 1.368 . S
C1480 C1479 1.523 . S
C1481 C1465 1.429 . S
C1481 C1477 1.429 . S
C1481 C1482 1.523 . S
C1482 C1466 1.368 . S
C1482 C1478 1.368 . S
C1482 C1481 1.523 . S
H1483 C1458 0.950 . S
H1484 C1460 0.950 . S
H1485 C1461 0.949 . S
H1486 C1463 0.950 . S
H1487 C1465 0.950 . S
C1488 C1489 1.349 . S
C1488 C1490 1.327 . S
C1488 H1513 0.950 . S
C1489 C1488 1.349 . S
C1489 C1505 1.349 . S
C1490 C1488 1.327 . S
C1490 C1509 1.429 . S
C1490 H1514 0.950 . S
C1491 C1508 1.574 . S
C1491 C1510 1.368 . S
C1491 H1515 0.949 . S
H1492 C1496 0.949 . S
C1493 C1494 1.349 . S
C1493 C1495 1.327 . S
C1493 H1516 0.950 . S
C1494 C1493 1.349 . S
C1494 C1506 1.349 . S
C1495 C1493 1.327 . S
C1495 C1511 1.429 . S
C1495 H1517 0.950 . S
C1496 H1492 0.949 . S
C1496 C1504 1.574 . S
C1496 C1512 1.368 . S
H1497 C1505 0.950 . S
H1498 C1503 0.950 . S
H1499 C1504 0.949 . S
H1500 C1506 0.950 . S
H1501 C1507 0.950 . S
H1502 C1508 0.949 . S
C1503 H1498 0.950 . S
C1503 C1505 1.327 . S
C1503 C1509 1.429 . S
C1504 C1496 1.574 . S
C1504 H1499 0.949 . S
C1504 C1510 1.368 . S
C1505 C1489 1.349 . S
C1505 H1497 0.950 . S
C1505 C1503 1.327 . S
C1506 C1494 1.349 . S
C1506 H1500 0.950 . S
C1506 C1507 1.327 . S
C1507 H1501 0.950 . S
C1507 C1506 1.327 . S
C1507 C1511 1.429 . S
C1508 C1491 1.574 . S
C1508 H1502 0.949 . S
C1508 C1512 1.368 . S
C1509 C1490 1.429 . S
C1509 C1503 1.429 . S
C1509 C1510 1.523 . S
C1510 C1491 1.368 . S
C1510 C1504 1.368 . S
C1510 C1509 1.523 . S
C1511 C1495 1.429 . S
C1511 C1507 1.429 . S
C1511 C1512 1.523 . S
C1512 C1496 1.368 . S
C1512 C1508 1.368 . S
C1512 C1511 1.523 . S
H1513 C1488 0.950 . S
H1514 C1490 0.950 . S
H1515 C1491 0.949 . S
H1516 C1493 0.950 . S
H1517 C1495 0.950 . S
C1518 C1519 1.349 . S
C1518 C1520 1.327 . S
C1518 H1543 0.950 . S
C1519 C1518 1.349 . S
C1519 C1535 1.349 . S
C1520 C1518 1.327 . S
C1520 C1539 1.429 . S
C1520 H1544 0.950 . S
C1521 C1538 1.574 . S
C1521 C1540 1.368 . S
C1521 H1545 0.949 . S
H1522 C1526 0.949 . S
C1523 C1524 1.349 . S
C1523 C1525 1.327 . S
C1523 H1546 0.950 . S
C1524 C1523 1.349 . S
C1524 C1536 1.349 . S
C1525 C1523 1.327 . S
C1525 C1541 1.429 . S
C1525 H1547 0.950 . S
C1526 H1522 0.949 . S
C1526 C1534 1.574 . S
C1526 C1542 1.368 . S
H1527 C1535 0.950 . S
H1528 C1533 0.950 . S
H1529 C1534 0.949 . S
H1530 C1536 0.950 . S
H1531 C1537 0.950 . S
H1532 C1538 0.949 . S
C1533 H1528 0.950 . S
C1533 C1535 1.327 . S
C1533 C1539 1.429 . S
C1534 C1526 1.574 . S
C1534 H1529 0.949 . S
C1534 C1540 1.368 . S
C1535 C1519 1.349 . S
C1535 H1527 0.950 . S
C1535 C1533 1.327 . S
C1536 C1524 1.349 . S
C1536 H1530 0.950 . S
C1536 C1537 1.327 . S
C1537 H1531 0.950 . S
C1537 C1536 1.327 . S
C1537 C1541 1.429 . S
C1538 C1521 1.574 . S
C1538 H1532 0.949 . S
C1538 C1542 1.368 . S
C1539 C1520 1.429 . S
C1539 C1533 1.429 . S
C1539 C1540 1.523 . S
C1540 C1521 1.368 . S
C1540 C1534 1.368 . S
C1540 C1539 1.523 . S
C1541 C1525 1.429 . S
C1541 C1537 1.429 . S
C1541 C1542 1.523 . S
C1542 C1526 1.368 . S
C1542 C1538 1.368 . S
C1542 C1541 1.523 . S
H1543 C1518 0.950 . S
H1544 C1520 0.950 . S
H1545 C1521 0.949 . S
H1546 C1523 0.950 . S
H1547 C1525 0.950 . S
C1548 C1549 1.349 . S
C1548 C1550 1.327 . S
C1548 H1573 0.950 . S
C1549 C1548 1.349 . S
C1549 C1565 1.349 . S
C1550 C1548 1.327 . S
C1550 C1569 1.429 . S
C1550 H1574 0.950 . S
C1551 C1568 1.569 1_565 S
C1551 C1570 1.375 . S
C1551 H1575 0.959 . S
H1552 C1556 0.959 . S
C1553 C1554 1.349 . S
C1553 C1555 1.327 . S
C1553 H1576 0.950 . S
C1554 C1553 1.349 . S
C1554 C1566 1.349 . S
C1555 C1553 1.327 . S
C1555 C1571 1.429 . S
C1555 H1577 0.950 . S
C1556 H1552 0.959 . S
C1556 C1564 1.569 1_545 S
C1556 C1572 1.375 . S
H1557 C1565 0.950 . S
H1558 C1563 0.950 . S
H1559 C1564 0.949 . S
H1560 C1566 0.950 . S
H1561 C1567 0.950 . S
H1562 C1568 0.949 . S
C1563 H1558 0.950 . S
C1563 C1565 1.327 . S
C1563 C1569 1.429 . S
C1564 C1556 1.569 1_565 S
C1564 H1559 0.949 . S
C1564 C1570 1.368 1_554 S
C1565 C1549 1.349 . S
C1565 H1557 0.950 . S
C1565 C1563 1.327 . S
C1566 C1554 1.349 . S
C1566 H1560 0.950 . S
C1566 C1567 1.327 . S
C1567 H1561 0.950 . S
C1567 C1566 1.327 . S
C1567 C1571 1.429 . S
C1568 C1551 1.569 1_545 S
C1568 H1562 0.949 . S
C1568 C1572 1.368 1_556 S
C1569 C1550 1.429 . S
C1569 C1563 1.429 . S
C1569 C1570 1.523 . S
C1570 C1551 1.375 . S
C1570 C1564 1.368 1_556 S
C1570 C1569 1.523 . S
C1571 C1555 1.429 . S
C1571 C1567 1.429 . S
C1571 C1572 1.523 . S
C1572 C1556 1.375 . S
C1572 C1568 1.368 1_554 S
C1572 C1571 1.523 . S
H1573 C1548 0.950 . S
H1574 C1550 0.950 . S
H1575 C1551 0.959 . S
H1576 C1553 0.950 . S
H1577 C1555 0.950 . S
C1578 C1579 1.349 . S
C1578 C1580 1.327 . S
C1578 H1603 0.950 . S
C1579 C1578 1.349 . S
C1579 C1595 1.349 . S
C1580 C1578 1.327 . S
C1580 C1599 1.429 . S
C1580 H1604 0.950 . S
C1581 C1598 1.574 . S
C1581 C1600 1.368 . S
C1581 H1605 0.949 . S
H1582 C1586 0.949 . S
C1583 C1584 1.349 . S
C1583 C1585 1.327 . S
C1583 H1606 0.950 . S
C1584 C1583 1.349 . S
C1584 C1596 1.349 . S
C1585 C1583 1.327 . S
C1585 C1601 1.429 . S
C1585 H1607 0.950 . S
C1586 H1582 0.949 . S
C1586 C1594 1.574 . S
C1586 C1602 1.368 . S
H1587 C1595 0.950 . S
H1588 C1593 0.950 . S
H1589 C1594 0.949 . S
H1590 C1596 0.950 . S
H1591 C1597 0.950 . S
H1592 C1598 0.949 . S
C1593 H1588 0.950 . S
C1593 C1595 1.327 . S
C1593 C1599 1.429 . S
C1594 C1586 1.574 . S
C1594 H1589 0.949 . S
C1594 C1600 1.368 . S
C1595 C1579 1.349 . S
C1595 H1587 0.950 . S
C1595 C1593 1.327 . S
C1596 C1584 1.349 . S
C1596 H1590 0.950 . S
C1596 C1597 1.327 . S
C1597 H1591 0.950 . S
C1597 C1596 1.327 . S
C1597 C1601 1.429 . S
C1598 C1581 1.574 . S
C1598 H1592 0.949 . S
C1598 C1602 1.368 . S
C1599 C1580 1.429 . S
C1599 C1593 1.429 . S
C1599 C1600 1.523 . S
C1600 C1581 1.368 . S
C1600 C1594 1.368 . S
C1600 C1599 1.523 . S
C1601 C1585 1.429 . S
C1601 C1597 1.429 . S
C1601 C1602 1.523 . S
C1602 C1586 1.368 . S
C1602 C1598 1.368 . S
C1602 C1601 1.523 . S
H1603 C1578 0.950 . S
H1604 C1580 0.950 . S
H1605 C1581 0.949 . S
H1606 C1583 0.950 . S
H1607 C1585 0.950 . S
C1608 C1609 1.349 . S
C1608 C1610 1.327 . S
C1608 H1633 0.950 . S
C1609 C1608 1.349 . S
C1609 C1625 1.349 . S
C1610 C1608 1.327 . S
C1610 C1629 1.429 . S
C1610 H1634 0.950 . S
C1611 C1628 1.574 1_456 S
C1611 C1630 1.368 . S
C1611 H1635 0.949 . S
H1612 C1616 0.949 . S
C1613 C1614 1.349 . S
C1613 C1615 1.327 . S
C1613 H1636 0.950 . S
C1614 C1613 1.349 . S
C1614 C1626 1.349 . S
C1615 C1613 1.327 . S
C1615 C1631 1.429 . S
C1615 H1637 0.950 . S
C1616 H1612 0.949 . S
C1616 C1624 1.574 1_654 S
C1616 C1632 1.368 . S
H1617 C1625 0.950 . S
H1618 C1623 0.950 . S
H1619 C1624 0.949 . S
H1620 C1626 0.950 . S
H1621 C1627 0.950 . S
H1622 C1628 0.949 . S
C1623 H1618 0.950 . S
C1623 C1625 1.327 . S
C1623 C1629 1.429 . S
C1624 C1616 1.574 1_456 S
C1624 H1619 0.949 . S
C1624 C1630 1.368 . S
C1625 C1609 1.349 . S
C1625 H1617 0.950 . S
C1625 C1623 1.327 . S
C1626 C1614 1.349 . S
C1626 H1620 0.950 . S
C1626 C1627 1.327 . S
C1627 H1621 0.950 . S
C1627 C1626 1.327 . S
C1627 C1631 1.429 . S
C1628 C1611 1.574 1_654 S
C1628 H1622 0.949 . S
C1628 C1632 1.368 . S
C1629 C1610 1.429 . S
C1629 C1623 1.429 . S
C1629 C1630 1.523 . S
C1630 C1611 1.368 . S
C1630 C1624 1.368 . S
C1630 C1629 1.523 . S
C1631 C1615 1.429 . S
C1631 C1627 1.429 . S
C1631 C1632 1.523 . S
C1632 C1616 1.368 . S
C1632 C1628 1.368 . S
C1632 C1631 1.523 . S
H1633 C1608 0.950 . S
H1634 C1610 0.950 . S
H1635 C1611 0.949 . S
H1636 C1613 0.950 . S
H1637 C1615 0.950 . S
C1638 C1639 1.349 . S
C1638 C1640 1.327 . S
C1638 H1663 0.950 . S
C1639 C1638 1.349 . S
C1639 C1655 1.349 . S
C1640 C1638 1.327 . S
C1640 C1659 1.429 . S
C1640 H1664 0.950 . S
C1641 C1658 1.574 . S
C1641 C1660 1.368 . S
C1641 H1665 0.949 . S
H1642 C1646 0.949 . S
C1643 C1644 1.349 . S
C1643 C1645 1.327 . S
C1643 H1666 0.950 . S
C1644 C1643 1.349 . S
C1644 C1656 1.349 . S
C1645 C1643 1.327 . S
C1645 C1661 1.429 . S
C1645 H1667 0.950 . S
C1646 H1642 0.949 . S
C1646 C1654 1.574 . S
C1646 C1662 1.368 . S
H1647 C1655 0.950 . S
H1648 C1653 0.950 . S
H1649 C1654 0.949 . S
H1650 C1656 0.950 . S
H1651 C1657 0.950 . S
H1652 C1658 0.949 . S
C1653 H1648 0.950 . S
C1653 C1655 1.327 . S
C1653 C1659 1.429 . S
C1654 C1646 1.574 . S
C1654 H1649 0.949 . S
C1654 C1660 1.368 1_565 S
C1655 C1639 1.349 . S
C1655 H1647 0.950 . S
C1655 C1653 1.327 . S
C1656 C1644 1.349 . S
C1656 H1650 0.950 . S
C1656 C1657 1.327 . S
C1657 H1651 0.950 . S
C1657 C1656 1.327 . S
C1657 C1661 1.429 . S
C1658 C1641 1.574 . S
C1658 H1652 0.949 . S
C1658 C1662 1.368 1_545 S
C1659 C1640 1.429 . S
C1659 C1653 1.429 . S
C1659 C1660 1.523 . S
C1660 C1641 1.368 . S
C1660 C1654 1.368 1_545 S
C1660 C1659 1.523 . S
C1661 C1645 1.429 . S
C1661 C1657 1.429 . S
C1661 C1662 1.523 . S
C1662 C1646 1.368 . S
C1662 C1658 1.368 1_565 S
C1662 C1661 1.523 . S
H1663 C1638 0.950 . S
H1664 C1640 0.950 . S
H1665 C1641 0.949 . S
H1666 C1643 0.950 . S
H1667 C1645 0.950 . S
C1668 C1669 1.349 . S
C1668 C1670 1.327 . S
C1668 H1693 0.950 . S
C1669 C1668 1.349 . S
C1669 C1685 1.349 . S
C1670 C1668 1.327 . S
C1670 C1689 1.429 . S
C1670 H1694 0.950 . S
C1671 C1688 1.530 1_554 S
C1671 C1690 1.368 . S
C1671 H1695 0.949 . S
H1672 C1676 0.949 . S
C1673 C1674 1.349 . S
C1673 C1675 1.327 . S
C1673 H1696 0.950 . S
C1674 C1673 1.349 . S
C1674 C1686 1.349 . S
C1675 C1673 1.327 . S
C1675 C1691 1.429 . S
C1675 H1697 0.950 . S
C1676 H1672 0.949 . S
C1676 C1684 1.530 1_556 S
C1676 C1692 1.368 . S
H1677 C1685 0.950 . S
H1678 C1683 0.950 . S
H1679 C1684 0.956 . S
H1680 C1686 0.950 . S
H1681 C1687 0.950 . S
H1682 C1688 0.956 . S
C1683 H1678 0.950 . S
C1683 C1685 1.327 . S
C1683 C1689 1.429 . S
C1684 C1676 1.530 1_554 S
C1684 H1679 0.956 . S
C1684 C1690 1.408 . S
C1685 C1669 1.349 . S
C1685 H1677 0.950 . S
C1685 C1683 1.327 . S
C1686 C1674 1.349 . S
C1686 H1680 0.950 . S
C1686 C1687 1.327 . S
C1687 H1681 0.950 . S
C1687 C1686 1.327 . S
C1687 C1691 1.429 . S
C1688 C1671 1.530 1_556 S
C1688 H1682 0.956 . S
C1688 C1692 1.408 . S
C1689 C1670 1.429 . S
C1689 C1683 1.429 . S
C1689 C1690 1.523 . S
C1690 C1671 1.368 . S
C1690 C1684 1.408 . S
C1690 C1689 1.523 . S
C1691 C1675 1.429 . S
C1691 C1687 1.429 . S
C1691 C1692 1.523 . S
C1692 C1676 1.368 . S
C1692 C1688 1.408 . S
C1692 C1691 1.523 . S
H1693 C1668 0.950 . S
H1694 C1670 0.950 . S
H1695 C1671 0.949 . S
H1696 C1673 0.950 . S
H1697 C1675 0.950 . S
C1698 C1699 1.349 . S
C1698 C1700 1.327 . S
C1698 H1723 0.950 . S
C1699 C1698 1.349 . S
C1699 C1715 1.349 . S
C1700 C1698 1.327 . S
C1700 C1719 1.429 . S
C1700 H1724 0.950 . S
C1701 C1718 1.574 . S
C1701 C1720 1.368 1_655 S
C1701 H1725 0.949 . S
H1702 C1706 0.949 . S
C1703 C1704 1.349 . S
C1703 C1705 1.327 . S
C1703 H1726 0.950 . S
C1704 C1703 1.349 . S
C1704 C1716 1.349 . S
C1705 C1703 1.327 . S
C1705 C1721 1.429 . S
C1705 H1727 0.950 . S
C1706 H1702 0.949 . S
C1706 C1714 1.574 . S
C1706 C1722 1.368 1_455 S
H1707 C1715 0.950 . S
H1708 C1713 0.950 . S
H1709 C1714 0.949 . S
H1710 C1716 0.950 . S
H1711 C1717 0.950 . S
H1712 C1718 0.949 . S
C1713 H1708 0.950 . S
C1713 C1715 1.327 . S
C1713 C1719 1.429 . S
C1714 C1706 1.574 . S
C1714 H1709 0.949 . S
C1714 C1720 1.368 . S
C1715 C1699 1.349 . S
C1715 H1707 0.950 . S
C1715 C1713 1.327 . S
C1716 C1704 1.349 . S
C1716 H1710 0.950 . S
C1716 C1717 1.327 . S
C1717 H1711 0.950 . S
C1717 C1716 1.327 . S
C1717 C1721 1.429 . S
C1718 C1701 1.574 . S
C1718 H1712 0.949 . S
C1718 C1722 1.368 . S
C1719 C1700 1.429 . S
C1719 C1713 1.429 . S
C1719 C1720 1.523 . S
C1720 C1701 1.368 1_455 S
C1720 C1714 1.368 . S
C1720 C1719 1.523 . S
C1721 C1705 1.429 . S
C1721 C1717 1.429 . S
C1721 C1722 1.523 . S
C1722 C1706 1.368 1_655 S
C1722 C1718 1.368 . S
C1722 C1721 1.523 . S
H1723 C1698 0.950 . S
H1724 C1700 0.950 . S
H1725 C1701 0.949 . S
H1726 C1703 0.950 . S
H1727 C1705 0.950 . S
C1728 C1729 1.349 . S
C1728 C1730 1.327 . S
C1728 H1753 0.950 . S
C1729 C1728 1.349 . S
C1729 C1745 1.349 . S
C1730 C1728 1.327 . S
C1730 C1749 1.429 . S
C1730 H1754 0.950 . S
C1731 C1748 1.574 . S
C1731 C1750 1.368 . S
C1731 H1755 0.949 . S
H1732 C1736 0.949 . S
C1733 C1734 1.349 . S
C1733 C1735 1.327 . S
C1733 H1756 0.950 . S
C1734 C1733 1.349 . S
C1734 C1746 1.349 . S
C1735 C1733 1.327 . S
C1735 C1751 1.429 . S
C1735 H1757 0.950 . S
C1736 H1732 0.949 . S
C1736 C1744 1.574 . S
C1736 C1752 1.368 . S
H1737 C1745 0.950 . S
H1738 C1743 0.950 . S
H1739 C1744 0.949 . S
H1740 C1746 0.950 . S
H1741 C1747 0.950 . S
H1742 C1748 0.949 . S
C1743 H1738 0.950 . S
C1743 C1745 1.327 . S
C1743 C1749 1.429 . S
C1744 C1736 1.574 . S
C1744 H1739 0.949 . S
C1744 C1750 1.368 . S
C1745 C1729 1.349 . S
C1745 H1737 0.950 . S
C1745 C1743 1.327 . S
C1746 C1734 1.349 . S
C1746 H1740 0.950 . S
C1746 C1747 1.327 . S
C1747 H1741 0.950 . S
C1747 C1746 1.327 . S
C1747 C1751 1.429 . S
C1748 C1731 1.574 . S
C1748 H1742 0.949 . S
C1748 C1752 1.368 . S
C1749 C1730 1.429 . S
C1749 C1743 1.429 . S
C1749 C1750 1.523 . S
C1750 C1731 1.368 . S
C1750 C1744 1.368 . S
C1750 C1749 1.523 . S
C1751 C1735 1.429 . S
C1751 C1747 1.429 . S
C1751 C1752 1.523 . S
C1752 C1736 1.368 . S
C1752 C1748 1.368 . S
C1752 C1751 1.523 . S
H1753 C1728 0.950 . S
H1754 C1730 0.950 . S
H1755 C1731 0.949 . S
H1756 C1733 0.950 . S
H1757 C1735 0.950 . S
C1758 C1759 1.349 . S
C1758 C1760 1.327 . S
C1758 H1783 0.950 . S
C1759 C1758 1.349 . S
C1759 C1775 1.349 . S
C1760 C1758 1.327 . S
C1760 C1779 1.429 . S
C1760 H1784 0.950 . S
C1761 C1778 1.574 . S
C1761 C1780 1.368 . S
C1761 H1785 0.949 . S
H1762 C1766 0.949 . S
C1763 C1764 1.349 . S
C1763 C1765 1.327 . S
C1763 H1786 0.950 . S
C1764 C1763 1.349 . S
C1764 C1776 1.349 . S
C1765 C1763 1.327 . S
C1765 C1781 1.429 . S
C1765 H1787 0.950 . S
C1766 H1762 0.949 . S
C1766 C1774 1.574 . S
C1766 C1782 1.368 . S
H1767 C1775 0.950 . S
H1768 C1773 0.950 . S
H1769 C1774 0.949 . S
H1770 C1776 0.950 . S
H1771 C1777 0.950 . S
H1772 C1778 0.949 . S
C1773 H1768 0.950 . S
C1773 C1775 1.327 . S
C1773 C1779 1.429 . S
C1774 C1766 1.574 . S
C1774 H1769 0.949 . S
C1774 C1780 1.368 . S
C1775 C1759 1.349 . S
C1775 H1767 0.950 . S
C1775 C1773 1.327 . S
C1776 C1764 1.349 . S
C1776 H1770 0.950 . S
C1776 C1777 1.327 . S
C1777 H1771 0.950 . S
C1777 C1776 1.327 . S
C1777 C1781 1.429 . S
C1778 C1761 1.574 . S
C1778 H1772 0.949 . S
C1778 C1782 1.368 . S
C1779 C1760 1.429 . S
C1779 C1773 1.429 . S
C1779 C1780 1.523 . S
C1780 C1761 1.368 . S
C1780 C1774 1.368 . S
C1780 C1779 1.523 . S
C1781 C1765 1.429 . S
C1781 C1777 1.429 . S
C1781 C1782 1.523 . S
C1782 C1766 1.368 . S
C1782 C1778 1.368 . S
C1782 C1781 1.523 . S
H1783 C1758 0.950 . S
H1784 C1760 0.950 . S
H1785 C1761 0.949 . S
H1786 C1763 0.950 . S
H1787 C1765 0.950 . S
C1788 C1789 1.349 . S
C1788 C1790 1.327 . S
C1788 H1813 0.950 . S
C1789 C1788 1.349 . S
C1789 C1805 1.349 . S
C1790 C1788 1.327 . S
C1790 C1809 1.429 . S
C1790 H1814 0.950 . S
C1791 C1808 1.574 . S
C1791 C1810 1.368 . S
C1791 H1815 0.949 . S
H1792 C1796 0.949 . S
C1793 C1794 1.349 . S
C1793 C1795 1.327 . S
C1793 H1816 0.950 . S
C1794 C1793 1.349 . S
C1794 C1806 1.349 . S
C1795 C1793 1.327 . S
C1795 C1811 1.429 . S
C1795 H1817 0.950 . S
C1796 H1792 0.949 . S
C1796 C1804 1.574 . S
C1796 C1812 1.368 . S
H1797 C1805 0.950 . S
H1798 C1803 0.950 . S
H1799 C1804 0.949 . S
H1800 C1806 0.950 . S
H1801 C1807 0.950 . S
H1802 C1808 0.949 . S
C1803 H1798 0.950 . S
C1803 C1805 1.327 . S
C1803 C1809 1.429 . S
C1804 C1796 1.574 . S
C1804 H1799 0.949 . S
C1804 C1810 1.368 . S
C1805 C1789 1.349 . S
C1805 H1797 0.950 . S
C1805 C1803 1.327 . S
C1806 C1794 1.349 . S
C1806 H1800 0.950 . S
C1806 C1807 1.327 . S
C1807 H1801 0.950 . S
C1807 C1806 1.327 . S
C1807 C1811 1.429 . S
C1808 C1791 1.574 . S
C1808 H1802 0.949 . S
C1808 C1812 1.368 . S
C1809 C1790 1.429 . S
C1809 C1803 1.429 . S
C1809 C1810 1.523 . S
C1810 C1791 1.368 . S
C1810 C1804 1.368 . S
C1810 C1809 1.523 . S
C1811 C1795 1.429 . S
C1811 C1807 1.429 . S
C1811 C1812 1.523 . S
C1812 C1796 1.368 . S
C1812 C1808 1.368 . S
C1812 C1811 1.523 . S
H1813 C1788 0.950 . S
H1814 C1790 0.950 . S
H1815 C1791 0.949 . S
H1816 C1793 0.950 . S
H1817 C1795 0.950 . S
C1818 C1819 1.349 . S
C1818 C1820 1.327 . S
C1818 H1843 0.950 . S
C1819 C1818 1.349 . S
C1819 C1835 1.349 . S
C1820 C1818 1.327 . S
C1820 C1839 1.429 . S
C1820 H1844 0.950 . S
C1821 C1838 1.574 . S
C1821 C1840 1.368 . S
C1821 H1845 0.949 . S
H1822 C1826 0.949 . S
C1823 C1824 1.349 . S
C1823 C1825 1.327 . S
C1823 H1846 0.950 . S
C1824 C1823 1.349 . S
C1824 C1836 1.349 . S
C1825 C1823 1.327 . S
C1825 C1841 1.429 . S
C1825 H1847 0.950 . S
C1826 H1822 0.949 . S
C1826 C1834 1.574 . S
C1826 C1842 1.368 . S
H1827 C1835 0.950 . S
H1828 C1833 0.950 . S
H1829 C1834 0.949 . S
H1830 C1836 0.950 . S
H1831 C1837 0.950 . S
H1832 C1838 0.949 . S
C1833 H1828 0.950 . S
C1833 C1835 1.327 . S
C1833 C1839 1.429 . S
C1834 C1826 1.574 . S
C1834 H1829 0.949 . S
C1834 C1840 1.368 . S
C1835 C1819 1.349 . S
C1835 H1827 0.950 . S
C1835 C1833 1.327 . S
C1836 C1824 1.349 . S
C1836 H1830 0.950 . S
C1836 C1837 1.327 . S
C1837 H1831 0.950 . S
C1837 C1836 1.327 . S
C1837 C1841 1.429 . S
C1838 C1821 1.574 . S
C1838 H1832 0.949 . S
C1838 C1842 1.368 . S
C1839 C1820 1.429 . S
C1839 C1833 1.429 . S
C1839 C1840 1.523 . S
C1840 C1821 1.368 . S
C1840 C1834 1.368 . S
C1840 C1839 1.523 . S
C1841 C1825 1.429 . S
C1841 C1837 1.429 . S
C1841 C1842 1.523 . S
C1842 C1826 1.368 . S
C1842 C1838 1.368 . S
C1842 C1841 1.523 . S
H1843 C1818 0.950 . S
H1844 C1820 0.950 . S
H1845 C1821 0.949 . S
H1846 C1823 0.950 . S
H1847 C1825 0.950 . S
C1848 C1849 1.349 . S
C1848 C1850 1.327 . S
C1848 H1873 0.950 . S
C1849 C1848 1.349 . S
C1849 C1865 1.349 . S
C1850 C1848 1.327 . S
C1850 C1869 1.429 . S
C1850 H1874 0.950 . S
C1851 C1868 1.574 . S
C1851 C1870 1.368 . S
C1851 H1875 0.949 . S
H1852 C1856 0.949 . S
C1853 C1854 1.349 . S
C1853 C1855 1.327 . S
C1853 H1876 0.950 . S
C1854 C1853 1.349 . S
C1854 C1866 1.349 . S
C1855 C1853 1.327 . S
C1855 C1871 1.429 . S
C1855 H1877 0.950 . S
C1856 H1852 0.949 . S
C1856 C1864 1.574 . S
C1856 C1872 1.368 . S
H1857 C1865 0.950 . S
H1858 C1863 0.950 . S
H1859 C1864 0.949 . S
H1860 C1866 0.950 . S
H1861 C1867 0.950 . S
H1862 C1868 0.949 . S
C1863 H1858 0.950 . S
C1863 C1865 1.327 . S
C1863 C1869 1.429 . S
C1864 C1856 1.574 . S
C1864 H1859 0.949 . S
C1864 C1870 1.368 . S
C1865 C1849 1.349 . S
C1865 H1857 0.950 . S
C1865 C1863 1.327 . S
C1866 C1854 1.349 . S
C1866 H1860 0.950 . S
C1866 C1867 1.327 . S
C1867 H1861 0.950 . S
C1867 C1866 1.327 . S
C1867 C1871 1.429 . S
C1868 C1851 1.574 . S
C1868 H1862 0.949 . S
C1868 C1872 1.368 . S
C1869 C1850 1.429 . S
C1869 C1863 1.429 . S
C1869 C1870 1.523 . S
C1870 C1851 1.368 . S
C1870 C1864 1.368 . S
C1870 C1869 1.523 . S
C1871 C1855 1.429 . S
C1871 C1867 1.429 . S
C1871 C1872 1.523 . S
C1872 C1856 1.368 . S
C1872 C1868 1.368 . S
C1872 C1871 1.523 . S
H1873 C1848 0.950 . S
H1874 C1850 0.950 . S
H1875 C1851 0.949 . S
H1876 C1853 0.950 . S
H1877 C1855 0.950 . S
C1878 C1879 1.349 . S
C1878 C1880 1.327 . S
C1878 H1903 0.950 . S
C1879 C1878 1.349 . S
C1879 C1895 1.349 . S
C1880 C1878 1.327 . S
C1880 C1899 1.429 . S
C1880 H1904 0.950 . S
C1881 C1898 1.574 . S
C1881 C1900 1.368 . S
C1881 H1905 0.949 . S
H1882 C1886 0.949 . S
C1883 C1884 1.349 . S
C1883 C1885 1.327 . S
C1883 H1906 0.950 . S
C1884 C1883 1.349 . S
C1884 C1896 1.349 . S
C1885 C1883 1.327 . S
C1885 C1901 1.429 . S
C1885 H1907 0.950 . S
C1886 H1882 0.949 . S
C1886 C1894 1.574 . S
C1886 C1902 1.368 . S
H1887 C1895 0.950 . S
H1888 C1893 0.950 . S
H1889 C1894 0.949 . S
H1890 C1896 0.950 . S
H1891 C1897 0.950 . S
H1892 C1898 0.949 . S
C1893 H1888 0.950 . S
C1893 C1895 1.327 . S
C1893 C1899 1.429 . S
C1894 C1886 1.574 . S
C1894 H1889 0.949 . S
C1894 C1900 1.368 . S
C1895 C1879 1.349 . S
C1895 H1887 0.950 . S
C1895 C1893 1.327 . S
C1896 C1884 1.349 . S
C1896 H1890 0.950 . S
C1896 C1897 1.327 . S
C1897 H1891 0.950 . S
C1897 C1896 1.327 . S
C1897 C1901 1.429 . S
C1898 C1881 1.574 . S
C1898 H1892 0.949 . S
C1898 C1902 1.368 . S
C1899 C1880 1.429 . S
C1899 C1893 1.429 . S
C1899 C1900 1.523 . S
C1900 C1881 1.368 . S
C1900 C1894 1.368 . S
C1900 C1899 1.523 . S
C1901 C1885 1.429 . S
C1901 C1897 1.429 . S
C1901 C1902 1.523 . S
C1902 C1886 1.368 . S
C1902 C1898 1.368 . S
C1902 C1901 1.523 . S
H1903 C1878 0.950 . S
H1904 C1880 0.950 . S
H1905 C1881 0.949 . S
H1906 C1883 0.950 . S
H1907 C1885 0.950 . S
C1908 C1909 1.349 . S
C1908 C1910 1.327 . S
C1908 H1933 0.950 . S
C1909 C1908 1.349 . S
C1909 C1925 1.349 . S
C1910 C1908 1.327 . S
C1910 C1929 1.429 . S
C1910 H1934 0.950 . S
C1911 C1928 1.574 . S
C1911 C1930 1.368 . S
C1911 H1935 0.949 . S
H1912 C1916 0.949 . S
C1913 C1914 1.349 . S
C1913 C1915 1.327 . S
C1913 H1936 0.950 . S
C1914 C1913 1.349 . S
C1914 C1926 1.349 . S
C1915 C1913 1.327 . S
C1915 C1931 1.429 . S
C1915 H1937 0.950 . S
C1916 H1912 0.949 . S
C1916 C1924 1.574 . S
C1916 C1932 1.368 . S
H1917 C1925 0.950 . S
H1918 C1923 0.950 . S
H1919 C1924 0.949 . S
H1920 C1926 0.950 . S
H1921 C1927 0.950 . S
H1922 C1928 0.949 . S
C1923 H1918 0.950 . S
C1923 C1925 1.327 . S
C1923 C1929 1.429 . S
C1924 C1916 1.574 . S
C1924 H1919 0.949 . S
C1924 C1930 1.368 . S
C1925 C1909 1.349 . S
C1925 H1917 0.950 . S
C1925 C1923 1.327 . S
C1926 C1914 1.349 . S
C1926 H1920 0.950 . S
C1926 C1927 1.327 . S
C1927 H1921 0.950 . S
C1927 C1926 1.327 . S
C1927 C1931 1.429 . S
C1928 C1911 1.574 . S
C1928 H1922 0.949 . S
C1928 C1932 1.368 . S
C1929 C1910 1.429 . S
C1929 C1923 1.429 . S
C1929 C1930 1.523 . S
C1930 C1911 1.368 . S
C1930 C1924 1.368 . S
C1930 C1929 1.523 . S
C1931 C1915 1.429 . S
C1931 C1927 1.429 . S
C1931 C1932 1.523 . S
C1932 C1916 1.368 . S
C1932 C1928 1.368 . S
C1932 C1931 1.523 . S
H1933 C1908 0.950 . S
H1934 C1910 0.950 . S
H1935 C1911 0.949 . S
H1936 C1913 0.950 . S
H1937 C1915 0.950 . S
C1938 C1939 1.349 . S
C1938 C1940 1.327 . S
C1938 H1963 0.950 . S
C1939 C1938 1.349 . S
C1939 C1955 1.349 . S
C1940 C1938 1.327 . S
C1940 C1959 1.429 . S
C1940 H1964 0.950 . S
C1941 C1958 1.574 . S
C1941 C1960 1.368 . S
C1941 H1965 0.949 . S
H1942 C1946 0.949 . S
C1943 C1944 1.349 . S
C1943 C1945 1.327 . S
C1943 H1966 0.950 . S
C1944 C1943 1.349 . S
C1944 C1956 1.349 . S
C1945 C1943 1.327 . S
C1945 C1961 1.429 . S
C1945 H1967 0.950 . S
C1946 H1942 0.949 . S
C1946 C1954 1.574 . S
C1946 C1962 1.368 . S
H1947 C1955 0.950 . S
H1948 C1953 0.950 . S
H1949 C1954 0.949 . S
H1950 C1956 0.950 . S
H1951 C1957 0.950 . S
H1952 C1958 0.949 . S
C1953 H1948 0.950 . S
C1953 C1955 1.327 . S
C1953 C1959 1.429 . S
C1954 C1946 1.574 . S
C1954 H1949 0.949 . S
C1954 C1960 1.368 . S
C1955 C1939 1.349 . S
C1955 H1947 0.950 . S
C1955 C1953 1.327 . S
C1956 C1944 1.349 . S
C1956 H1950 0.950 . S
C1956 C1957 1.327 . S
C1957 H1951 0.950 . S
C1957 C1956 1.327 . S
C1957 C1961 1.429 . S
C1958 C1941 1.574 . S
C1958 H1952 0.949 . S
C1958 C1962 1.368 . S
C1959 C1940 1.429 . S
C1959 C1953 1.429 . S
C1959 C1960 1.523 . S
C1960 C1941 1.368 . S
C1960 C1954 1.368 . S
C1960 C1959 1.523 . S
C1961 C1945 1.429 . S
C1961 C1957 1.429 . S
C1961 C1962 1.523 . S
C1962 C1946 1.368 . S
C1962 C1958 1.368 . S
C1962 C1961 1.523 . S
H1963 C1938 0.950 . S
H1964 C1940 0.950 . S
H1965 C1941 0.949 . S
H1966 C1943 0.950 . S
H1967 C1945 0.950 . S
C1968 C1969 1.349 . S
C1968 C1970 1.327 . S
C1968 H1993 0.950 . S
C1969 C1968 1.349 . S
C1969 C1985 1.349 . S
C1970 C1968 1.327 . S
C1970 C1989 1.429 . S
C1970 H1994 0.950 . S
C1971 C1988 1.574 . S
C1971 C1990 1.368 . S
C1971 H1995 0.949 . S
H1972 C1976 0.949 . S
C1973 C1974 1.349 . S
C1973 C1975 1.327 . S
C1973 H1996 0.950 . S
C1974 C1973 1.349 . S
C1974 C1986 1.349 . S
C1975 C1973 1.327 . S
C1975 C1991 1.429 . S
C1975 H1997 0.950 . S
C1976 H1972 0.949 . S
C1976 C1984 1.574 . S
C1976 C1992 1.368 . S
H1977 C1985 0.950 . S
H1978 C1983 0.950 . S
H1979 C1984 0.949 . S
H1980 C1986 0.950 . S
H1981 C1987 0.950 . S
H1982 C1988 0.949 . S
C1983 H1978 0.950 . S
C1983 C1985 1.327 . S
C1983 C1989 1.429 . S
C1984 C1976 1.574 . S
C1984 H1979 0.949 . S
C1984 C1990 1.368 . S
C1985 C1969 1.349 . S
C1985 H1977 0.950 . S
C1985 C1983 1.327 . S
C1986 C1974 1.349 . S
C1986 H1980 0.950 . S
C1986 C1987 1.327 . S
C1987 H1981 0.950 . S
C1987 C1986 1.327 . S
C1987 C1991 1.429 . S
C1988 C1971 1.574 . S
C1988 H1982 0.949 . S
C1988 C1992 1.368 . S
C1989 C1970 1.429 . S
C1989 C1983 1.429 . S
C1989 C1990 1.523 . S
C1990 C1971 1.368 . S
C1990 C1984 1.368 . S
C1990 C1989 1.523 . S
C1991 C1975 1.429 . S
C1991 C1987 1.429 . S
C1991 C1992 1.523 . S
C1992 C1976 1.368 . S
C1992 C1988 1.368 . S
C1992 C1991 1.523 . S
H1993 C1968 0.950 . S
H1994 C1970 0.950 . S
H1995 C1971 0.949 . S
H1996 C1973 0.950 . S
H1997 C1975 0.950 . S
C1998 C1999 1.349 . S
C1998 C2000 1.327 . S
C1998 H2023 0.950 . S
C1999 C1998 1.349 . S
C1999 C2015 1.349 . S
C2000 C1998 1.327 . S
C2000 C2019 1.429 . S
C2000 H2024 0.950 . S
C2001 C2018 1.574 . S
C2001 C2020 1.368 . S
C2001 H2025 0.949 . S
H2002 C2006 0.949 . S
C2003 C2004 1.349 . S
C2003 C2005 1.327 . S
C2003 H2026 0.950 . S
C2004 C2003 1.349 . S
C2004 C2016 1.349 . S
C2005 C2003 1.327 . S
C2005 C2021 1.429 . S
C2005 H2027 0.950 . S
C2006 H2002 0.949 . S
C2006 C2014 1.574 . S
C2006 C2022 1.368 . S
H2007 C2015 0.950 . S
H2008 C2013 0.950 . S
H2009 C2014 0.949 . S
H2010 C2016 0.950 . S
H2011 C2017 0.950 . S
H2012 C2018 0.949 . S
C2013 H2008 0.950 . S
C2013 C2015 1.327 . S
C2013 C2019 1.429 . S
C2014 C2006 1.574 . S
C2014 H2009 0.949 . S
C2014 C2020 1.368 . S
C2015 C1999 1.349 . S
C2015 H2007 0.950 . S
C2015 C2013 1.327 . S
C2016 C2004 1.349 . S
C2016 H2010 0.950 . S
C2016 C2017 1.327 . S
C2017 H2011 0.950 . S
C2017 C2016 1.327 . S
C2017 C2021 1.429 . S
C2018 C2001 1.574 . S
C2018 H2012 0.949 . S
C2018 C2022 1.368 . S
C2019 C2000 1.429 . S
C2019 C2013 1.429 . S
C2019 C2020 1.523 . S
C2020 C2001 1.368 . S
C2020 C2014 1.368 . S
C2020 C2019 1.523 . S
C2021 C2005 1.429 . S
C2021 C2017 1.429 . S
C2021 C2022 1.523 . S
C2022 C2006 1.368 . S
C2022 C2018 1.368 . S
C2022 C2021 1.523 . S
H2023 C1998 0.950 . S
H2024 C2000 0.950 . S
H2025 C2001 0.949 . S
H2026 C2003 0.950 . S
H2027 C2005 0.950 . S
C2028 C2029 1.349 . S
C2028 C2030 1.327 . S
C2028 H2053 0.950 . S
C2029 C2028 1.349 . S
C2029 C2045 1.349 . S
C2030 C2028 1.327 . S
C2030 C2049 1.429 . S
C2030 H2054 0.950 . S
C2031 C2048 1.574 . S
C2031 C2050 1.368 . S
C2031 H2055 0.949 . S
H2032 C2036 0.949 . S
C2033 C2034 1.349 . S
C2033 C2035 1.327 . S
C2033 H2056 0.950 . S
C2034 C2033 1.349 . S
C2034 C2046 1.349 . S
C2035 C2033 1.327 . S
C2035 C2051 1.429 . S
C2035 H2057 0.950 . S
C2036 H2032 0.949 . S
C2036 C2044 1.574 . S
C2036 C2052 1.368 . S
H2037 C2045 0.950 . S
H2038 C2043 0.950 . S
H2039 C2044 0.949 . S
H2040 C2046 0.950 . S
H2041 C2047 0.950 . S
H2042 C2048 0.949 . S
C2043 H2038 0.950 . S
C2043 C2045 1.327 . S
C2043 C2049 1.429 . S
C2044 C2036 1.574 . S
C2044 H2039 0.949 . S
C2044 C2050 1.368 . S
C2045 C2029 1.349 . S
C2045 H2037 0.950 . S
C2045 C2043 1.327 . S
C2046 C2034 1.349 . S
C2046 H2040 0.950 . S
C2046 C2047 1.327 . S
C2047 H2041 0.950 . S
C2047 C2046 1.327 . S
C2047 C2051 1.429 . S
C2048 C2031 1.574 . S
C2048 H2042 0.949 . S
C2048 C2052 1.368 . S
C2049 C2030 1.429 . S
C2049 C2043 1.429 . S
C2049 C2050 1.523 . S
C2050 C2031 1.368 . S
C2050 C2044 1.368 . S
C2050 C2049 1.523 . S
C2051 C2035 1.429 . S
C2051 C2047 1.429 . S
C2051 C2052 1.523 . S
C2052 C2036 1.368 . S
C2052 C2048 1.368 . S
C2052 C2051 1.523 . S
H2053 C2028 0.950 . S
H2054 C2030 0.950 . S
H2055 C2031 0.949 . S
H2056 C2033 0.950 . S
H2057 C2035 0.950 . S
C2058 C2059 1.349 . S
C2058 C2060 1.327 . S
C2058 H2083 0.950 . S
C2059 C2058 1.349 . S
C2059 C2075 1.349 . S
C2060 C2058 1.327 . S
C2060 C2079 1.429 . S
C2060 H2084 0.950 . S
C2061 C2078 1.574 . S
C2061 C2080 1.368 . S
C2061 H2085 0.949 . S
H2062 C2066 0.949 . S
C2063 C2064 1.349 . S
C2063 C2065 1.327 . S
C2063 H2086 0.950 . S
C2064 C2063 1.349 . S
C2064 C2076 1.349 . S
C2065 C2063 1.327 . S
C2065 C2081 1.429 . S
C2065 H2087 0.950 . S
C2066 H2062 0.949 . S
C2066 C2074 1.574 . S
C2066 C2082 1.368 . S
H2067 C2075 0.950 . S
H2068 C2073 0.950 . S
H2069 C2074 0.949 . S
H2070 C2076 0.950 . S
H2071 C2077 0.950 . S
H2072 C2078 0.949 . S
C2073 H2068 0.950 . S
C2073 C2075 1.327 . S
C2073 C2079 1.429 . S
C2074 C2066 1.574 . S
C2074 H2069 0.949 . S
C2074 C2080 1.368 . S
C2075 C2059 1.349 . S
C2075 H2067 0.950 . S
C2075 C2073 1.327 . S
C2076 C2064 1.349 . S
C2076 H2070 0.950 . S
C2076 C2077 1.327 . S
C2077 H2071 0.950 . S
C2077 C2076 1.327 . S
C2077 C2081 1.429 . S
C2078 C2061 1.574 . S
C2078 H2072 0.949 . S
C2078 C2082 1.368 . S
C2079 C2060 1.429 . S
C2079 C2073 1.429 . S
C2079 C2080 1.523 . S
C2080 C2061 1.368 . S
C2080 C2074 1.368 . S
C2080 C2079 1.523 . S
C2081 C2065 1.429 . S
C2081 C2077 1.429 . S
C2081 C2082 1.523 . S
C2082 C2066 1.368 . S
C2082 C2078 1.368 . S
C2082 C2081 1.523 . S
H2083 C2058 0.950 . S
H2084 C2060 0.950 . S
H2085 C2061 0.949 . S
H2086 C2063 0.950 . S
H2087 C2065 0.950 . S
C1009 C231 1.182 . S
C1014 C56 1.278 . S
C1039 C324 1.182 . S
C1044 C151 1.278 . S
C1069 C224 1.278 . S
C1074 C399 1.182 . S
C1099 C319 1.278 . S
C1104 C492 1.182 . S
C1129 C63 1.182 . S
C1134 C392 1.278 . S
C1159 C156 1.182 . S
C1164 C487 1.278 . S
C1189 C912 1.182 . S
C1194 C571 1.278 . S
C1219 C644 1.278 . S
C1224 C987 1.182 . S
C1249 C739 1.278 . S
C1254 C576 1.182 . S
C1279 C812 1.278 . S
C1284 C651 1.182 . S
C1309 C907 1.278 . S
C1314 C744 1.182 . S
C1339 C819 1.182 . S
C1344 C980 1.278 . S
C1369 C327 1.971 . S
C1374 C66 1.971 . S
C1399 C159 1.971 . S
C1404 C402 1.971 . S
C1429 C234 1.971 . S
C1434 C495 1.971 . S
C1459 C579 1.971 . S
C1464 C822 1.971 . S
C1489 C654 1.971 . S
C1494 C915 1.971 . S
C1519 C747 1.971 . S
C1524 C990 1.971 . S
C1549 C663 2.150 . S
C1554 C75 2.150 . S
C1579 C150 2.150 . S
C1584 C738 2.150 . S
C1609 C831 2.150 . S
C1614 C243 2.150 . S
C1639 C318 2.150 . S
C1644 C906 2.150 . S
C1669 C411 2.150 . S
C1674 C999 2.150 . S
C1699 C570 2.150 . S
C1704 C486 2.150 . S
C1729 C240 1.306 . S
C1734 C67 1.408 . S
C1759 C140 1.408 . S
C1764 C315 1.306 . S
C1789 C235 1.408 . S
C1794 C408 1.306 . S
C1819 C308 1.408 . S
C1824 C483 1.306 . S
C1849 C72 1.306 . S
C1854 C403 1.408 . S
C1879 C147 1.306 . S
C1884 C476 1.408 . S
C1909 C903 1.306 . S
C1914 C560 1.408 . S
C1939 C655 1.408 . S
C1944 C996 1.306 . S
C1969 C728 1.408 . S
C1974 C567 1.306 . S
C1999 C660 1.306 . S
C2004 C823 1.408 . S
C2029 C896 1.408 . S
C2034 C735 1.306 . S
C2059 C991 1.408 . S
C2064 C828 1.306 . S
