# Generated by pormake.
# Topology umc, (4)-cn, num edge types: 1
# Building blocks:
#     Node 0, Type 0, BuildingBlock: KOZSID_clean_sbu_0, # of connection points: 4
#     Node 1, Type 0, BuildingBlock: KOZSID_clean_sbu_0, # of connection points: 4
#     Node 2, Type 0, BuildingBlock: KOZSID_clean_sbu_0, # of connection points: 4
#     Node 3, Type 0, BuildingBlock: KOZSID_clean_sbu_0, # of connection points: 4
#     Node 4, Type 0, BuildingBlock: KOZSID_clean_sbu_0, # of connection points: 4
#     Node 5, Type 0, BuildingBlock: KOZSID_clean_sbu_0, # of connection points: 4
#     Node 6, Type 0, BuildingBlock: KOZSID_clean_sbu_0, # of connection points: 4
#     Node 7, Type 0, BuildingBlock: KOZSID_clean_sbu_0, # of connection points: 4
#     Node 8, Type 0, BuildingBlock: KOZSID_clean_sbu_0, # of connection points: 4
#     Node 9, Type 0, BuildingBlock: KOZSID_clean_sbu_0, # of connection points: 4
#     Node 10, Type 0, BuildingBlock: KOZSID_clean_sbu_0, # of connection points: 4
#     Node 11, Type 0, BuildingBlock: KOZSID_clean_sbu_0, # of connection points: 4
#     Node 12, Type 0, BuildingBlock: KOZSID_clean_sbu_0, # of connection points: 4
#     Node 13, Type 0, BuildingBlock: KOZSID_clean_sbu_0, # of connection points: 4
#     Node 14, Type 0, BuildingBlock: KOZSID_clean_sbu_0, # of connection points: 4
#     Node 15, Type 0, BuildingBlock: KOZSID_clean_sbu_0, # of connection points: 4
#     Edge 16, Type (0, 0), BuildingBlock: UVAHIK_clean_linker_0, # of connection points: 2
#     Edge 17, Type (0, 0), BuildingBlock: UVAHIK_clean_linker_0, # of connection points: 2
#     Edge 18, Type (0, 0), BuildingBlock: UVAHIK_clean_linker_0, # of connection points: 2
#     Edge 19, Type (0, 0), BuildingBlock: UVAHIK_clean_linker_0, # of connection points: 2
#     Edge 20, Type (0, 0), BuildingBlock: UVAHIK_clean_linker_0, # of connection points: 2
#     Edge 21, Type (0, 0), BuildingBlock: UVAHIK_clean_linker_0, # of connection points: 2
#     Edge 22, Type (0, 0), BuildingBlock: UVAHIK_clean_linker_0, # of connection points: 2
#     Edge 23, Type (0, 0), BuildingBlock: UVAHIK_clean_linker_0, # of connection points: 2
#     Edge 24, Type (0, 0), BuildingBlock: UVAHIK_clean_linker_0, # of connection points: 2
#     Edge 25, Type (0, 0), BuildingBlock: UVAHIK_clean_linker_0, # of connection points: 2
#     Edge 26, Type (0, 0), BuildingBlock: UVAHIK_clean_linker_0, # of connection points: 2
#     Edge 27, Type (0, 0), BuildingBlock: UVAHIK_clean_linker_0, # of connection points: 2
#     Edge 28, Type (0, 0), BuildingBlock: UVAHIK_clean_linker_0, # of connection points: 2
#     Edge 29, Type (0, 0), BuildingBlock: UVAHIK_clean_linker_0, # of connection points: 2
#     Edge 30, Type (0, 0), BuildingBlock: UVAHIK_clean_linker_0, # of connection points: 2
#     Edge 31, Type (0, 0), BuildingBlock: UVAHIK_clean_linker_0, # of connection points: 2
#     Edge 32, Type (0, 0), BuildingBlock: UVAHIK_clean_linker_0, # of connection points: 2
#     Edge 33, Type (0, 0), BuildingBlock: UVAHIK_clean_linker_0, # of connection points: 2
#     Edge 34, Type (0, 0), BuildingBlock: UVAHIK_clean_linker_0, # of connection points: 2
#     Edge 35, Type (0, 0), BuildingBlock: UVAHIK_clean_linker_0, # of connection points: 2
#     Edge 36, Type (0, 0), BuildingBlock: UVAHIK_clean_linker_0, # of connection points: 2
#     Edge 37, Type (0, 0), BuildingBlock: UVAHIK_clean_linker_0, # of connection points: 2
#     Edge 38, Type (0, 0), BuildingBlock: UVAHIK_clean_linker_0, # of connection points: 2
#     Edge 39, Type (0, 0), BuildingBlock: UVAHIK_clean_linker_0, # of connection points: 2
#     Edge 40, Type (0, 0), BuildingBlock: UVAHIK_clean_linker_0, # of connection points: 2
#     Edge 41, Type (0, 0), BuildingBlock: UVAHIK_clean_linker_0, # of connection points: 2
#     Edge 42, Type (0, 0), BuildingBlock: UVAHIK_clean_linker_0, # of connection points: 2
#     Edge 43, Type (0, 0), BuildingBlock: UVAHIK_clean_linker_0, # of connection points: 2
#     Edge 44, Type (0, 0), BuildingBlock: UVAHIK_clean_linker_0, # of connection points: 2
#     Edge 45, Type (0, 0), BuildingBlock: UVAHIK_clean_linker_0, # of connection points: 2
#     Edge 46, Type (0, 0), BuildingBlock: UVAHIK_clean_linker_0, # of connection points: 2
#     Edge 47, Type (0, 0), BuildingBlock: UVAHIK_clean_linker_0, # of connection points: 2
# Relax obj value: 0.055
# Max RMSD: 0.169
# Mean RMSD: 0.169
data_MOF--net-umc--node1-KOZSID_clean_sbu_0--edge1-UVAHIK_clean_linker_0
_symmetry_space_group_name_H-M    P1
_symmetry_Int_Tables_number       1
_symmetry_cell_setting            triclinic
loop_
_symmetry_equiv_pos_as_xyz
'x, y, z'
_cell_length_a     82.403331
_cell_length_b     49.132825
_cell_length_c     79.262511
_cell_angle_alpha  90.018844
_cell_angle_beta   90.001481
_cell_angle_gamma 89.985169
loop_
_atom_site_label
_atom_site_type_symbol
_atom_site_fract_x
_atom_site_fract_y
_atom_site_fract_z
_atom_type_partial_charge
C0 C 0.36763 0.0662 0.34455 0.0
C1 C 0.35805 0.04349 0.34148 0.0
C2 C 0.34962 0.03842 0.35608 0.0
C3 C 0.35447 0.05828 0.36718 0.0
N4 N 0.36543 0.07543 0.36048 0.0
Co5 Co 0.3754 0.10705 0.37199 0.0
N6 N 0.36993 0.09222 0.39453 0.0
C7 C 0.35852 0.07328 0.39772 0.0
C8 C 0.357 0.06752 0.41458 0.0
C9 C 0.36803 0.08404 0.42249 0.0
C10 C 0.37573 0.09901 0.40994 0.0
N11 N 0.38543 0.13866 0.38356 0.0
C12 C 0.38999 0.14163 0.39991 0.0
C13 C 0.39643 0.16735 0.40267 0.0
C14 C 0.39559 0.18097 0.38756 0.0
C15 C 0.38877 0.16287 0.37641 0.0
N16 N 0.38059 0.12176 0.34932 0.0
C17 C 0.38425 0.14781 0.34577 0.0
C18 C 0.38768 0.15173 0.32897 0.0
C19 C 0.386 0.12659 0.32156 0.0
C20 C 0.38153 0.10868 0.33427 0.0
N21 N 0.3545 0.12651 0.37154 0.0
C22 C 0.32616 0.15884 0.37035 0.0
C23 C 0.3309 0.14274 0.35651 0.0
C24 C 0.34507 0.12689 0.35733 0.0
C25 C 0.33585 0.15765 0.38491 0.0
C26 C 0.34972 0.14128 0.38531 0.0
N27 N 0.3964 0.08822 0.37251 0.0
C28 C 0.4253 0.08957 0.368 0.0
C29 C 0.42712 0.0632 0.37452 0.0
C30 C 0.41299 0.04941 0.37965 0.0
C31 C 0.39778 0.06218 0.37843 0.0
C32 C 0.41 0.1017 0.36728 0.0
H33 H 0.38715 0.05115 0.38249 0.0
H34 H 0.40925 0.1222 0.36258 0.0
H35 H 0.34854 0.11526 0.34636 0.0
H36 H 0.3568 0.14119 0.39672 0.0
C37 C 0.35132 0.05868 0.38453 0.0
C38 C 0.37764 0.07971 0.33174 0.0
C39 C 0.38717 0.12133 0.41327 0.0
C40 C 0.38752 0.16626 0.35886 0.0
H41 H 0.35716 0.03193 0.32989 0.0
H42 H 0.34143 0.02164 0.35848 0.0
H43 H 0.34913 0.05261 0.42041 0.0
H44 H 0.36995 0.08526 0.43597 0.0
H45 H 0.40108 0.17552 0.41439 0.0
H46 H 0.39989 0.20134 0.38492 0.0
H47 H 0.39176 0.17029 0.32297 0.0
H48 H 0.38799 0.12203 0.30837 0.0
H49 H 0.32377 0.14232 0.34505 0.0
H50 H 0.3331 0.16985 0.39591 0.0
H51 H 0.43561 0.10099 0.36338 0.0
H52 H 0.41362 0.02911 0.3849 0.0
C53 C 0.64924 0.9374 0.34411 0.0
C54 C 0.65756 0.96176 0.34191 0.0
C55 C 0.66362 0.96888 0.35728 0.0
C56 C 0.6586 0.94875 0.36801 0.0
N57 N 0.64978 0.92902 0.36044 0.0
Co58 Co 0.63946 0.89683 0.37172 0.0
N59 N 0.64592 0.91019 0.39471 0.0
C60 C 0.65457 0.93284 0.39828 0.0
C61 C 0.657 0.93711 0.41516 0.0
C62 C 0.64927 0.91605 0.42292 0.0
C63 C 0.64251 0.90012 0.41024 0.0
N64 N 0.62942 0.86437 0.38301 0.0
C65 C 0.62785 0.85826 0.39966 0.0
C66 C 0.62015 0.83344 0.40199 0.0
C67 C 0.61674 0.82352 0.38628 0.0
C68 C 0.62252 0.84275 0.37527 0.0
N69 N 0.63245 0.88414 0.34871 0.0
C70 C 0.62436 0.8609 0.34505 0.0
C71 C 0.6205 0.85825 0.32831 0.0
C72 C 0.62622 0.88138 0.32084 0.0
C73 C 0.63324 0.89692 0.33351 0.0
N74 N 0.66038 0.87599 0.36973 0.0
C75 C 0.68888 0.84318 0.36963 0.0
C76 C 0.67467 0.83481 0.36153 0.0
C77 C 0.66082 0.85121 0.36175 0.0
C78 C 0.68877 0.86904 0.3771 0.0
C79 C 0.67458 0.88501 0.3769 0.0
N80 N 0.61864 0.91705 0.37372 0.0
C81 C 0.58949 0.91816 0.37011 0.0
C82 C 0.58884 0.94532 0.37515 0.0
C83 C 0.60335 0.95807 0.37983 0.0
C84 C 0.61808 0.94371 0.37886 0.0
C85 C 0.60431 0.90447 0.36969 0.0
H86 H 0.62891 0.95448 0.3822 0.0
H87 H 0.60388 0.88366 0.366 0.0
H88 H 0.6506 0.84299 0.35546 0.0
H89 H 0.6754 0.90441 0.38284 0.0
C90 C 0.6603 0.94964 0.38546 0.0
C91 C 0.64049 0.92366 0.33048 0.0
C92 C 0.63308 0.87559 0.41365 0.0
C93 C 0.62032 0.84228 0.35776 0.0
H94 H 0.65876 0.97372 0.33054 0.0
H95 H 0.67026 0.98721 0.3604 0.0
H96 H 0.66356 0.9536 0.42111 0.0
H97 H 0.64871 0.9128 0.43641 0.0
H98 H 0.61709 0.82373 0.41382 0.0
H99 H 0.61041 0.80485 0.38325 0.0
H100 H 0.61409 0.84165 0.32229 0.0
H101 H 0.62522 0.88637 0.30758 0.0
H102 H 0.67412 0.81548 0.35499 0.0
H103 H 0.69944 0.87677 0.38347 0.0
H104 H 0.57853 0.90734 0.36665 0.0
H105 H 0.60337 0.97915 0.38384 0.0
C106 C 0.36813 0.93806 0.16398 0.0
C107 C 0.3583 0.96044 0.16716 0.0
C108 C 0.34986 0.96549 0.15257 0.0
C109 C 0.35495 0.94594 0.14136 0.0
N110 N 0.36606 0.929 0.148 0.0
Co111 Co 0.37641 0.89787 0.13633 0.0
N112 N 0.37089 0.91294 0.11386 0.0
C113 C 0.35933 0.93166 0.11074 0.0
C114 C 0.35782 0.93766 0.09391 0.0
C115 C 0.369 0.92151 0.08594 0.0
C116 C 0.37679 0.9065 0.09842 0.0
N117 N 0.38677 0.86669 0.12462 0.0
C118 C 0.39133 0.86401 0.10825 0.0
C119 C 0.398 0.83847 0.10539 0.0
C120 C 0.39729 0.82467 0.12044 0.0
C121 C 0.39031 0.84248 0.13166 0.0
N122 N 0.38169 0.88297 0.15894 0.0
C123 C 0.38562 0.85699 0.16237 0.0
C124 C 0.38908 0.85295 0.17915 0.0
C125 C 0.38713 0.87795 0.18668 0.0
C126 C 0.3825 0.89589 0.17405 0.0
N127 N 0.35569 0.87784 0.13656 0.0
C128 C 0.32754 0.8451 0.1373 0.0
C129 C 0.33231 0.8604 0.15146 0.0
C130 C 0.34636 0.87659 0.15082 0.0
C131 C 0.33708 0.8472 0.12269 0.0
C132 C 0.35092 0.86365 0.12255 0.0
N133 N 0.39722 0.91732 0.13605 0.0
C134 C 0.42606 0.91708 0.14114 0.0
C135 C 0.42742 0.94383 0.13525 0.0
C136 C 0.41329 0.9571 0.12977 0.0
C137 C 0.39828 0.9436 0.13045 0.0
C138 C 0.41096 0.90418 0.14129 0.0
H139 H 0.38755 0.95434 0.12639 0.0
H140 H 0.41047 0.88341 0.14557 0.0
H141 H 0.3498 0.88778 0.16198 0.0
H142 H 0.35797 0.86431 0.11112 0.0
C143 C 0.3519 0.9458 0.124 0.0
C144 C 0.37832 0.92471 0.17671 0.0
C145 C 0.38832 0.88436 0.09497 0.0
C146 C 0.38908 0.83881 0.14919 0.0
H147 H 0.35729 0.97182 0.17881 0.0
H148 H 0.34152 0.98209 0.15023 0.0
H149 H 0.34982 0.95246 0.08815 0.0
H150 H 0.37094 0.92052 0.07245 0.0
H151 H 0.40272 0.83054 0.09364 0.0
H152 H 0.40176 0.80437 0.12298 0.0
H153 H 0.39335 0.83444 0.18506 0.0
H154 H 0.38907 0.88241 0.19989 0.0
H155 H 0.32527 0.85995 0.16298 0.0
H156 H 0.33418 0.83564 0.11146 0.0
H157 H 0.43667 0.90594 0.1453 0.0
H158 H 0.4138 0.97786 0.1252 0.0
C159 C 0.64979 0.06186 0.16061 0.0
C160 C 0.6587 0.03806 0.16265 0.0
C161 C 0.66662 0.0335 0.14772 0.0
C162 C 0.66201 0.05447 0.13735 0.0
N163 N 0.65161 0.07185 0.14479 0.0
Co164 Co 0.64145 0.10412 0.13408 0.0
N165 N 0.64641 0.09039 0.11112 0.0
C166 C 0.65757 0.07134 0.10727 0.0
C167 C 0.65872 0.0664 0.09029 0.0
C168 C 0.6477 0.08359 0.08296 0.0
C169 C 0.64037 0.09809 0.09597 0.0
N170 N 0.63126 0.13639 0.12334 0.0
C171 C 0.62647 0.1403 0.10713 0.0
C172 C 0.62012 0.16624 0.10501 0.0
C173 C 0.62126 0.17904 0.12037 0.0
C174 C 0.62817 0.16027 0.13102 0.0
N175 N 0.63672 0.11777 0.15711 0.0
C176 C 0.63331 0.14371 0.16123 0.0
C177 C 0.63068 0.14708 0.17823 0.0
C178 C 0.63264 0.12168 0.18518 0.0
C179 C 0.63632 0.10416 0.17199 0.0
N180 N 0.6624 0.12345 0.13447 0.0
C181 C 0.69004 0.15698 0.13623 0.0
C182 C 0.68591 0.13972 0.14966 0.0
C183 C 0.67202 0.12324 0.14857 0.0
C184 C 0.68047 0.15607 0.12165 0.0
C185 C 0.6669 0.13905 0.12095 0.0
N186 N 0.62039 0.08545 0.13368 0.0
C187 C 0.59162 0.0867 0.13908 0.0
C188 C 0.5896 0.06051 0.13234 0.0
C189 C 0.60357 0.04691 0.12656 0.0
C190 C 0.61881 0.05964 0.12744 0.0
C191 C 0.60694 0.09879 0.13947 0.0
H192 H 0.62931 0.04873 0.1229 0.0
H193 H 0.60783 0.11913 0.14443 0.0
H194 H 0.66878 0.11095 0.15934 0.0
H195 H 0.65977 0.13921 0.10956 0.0
C196 C 0.66477 0.05573 0.11997 0.0
C197 C 0.64056 0.0753 0.17413 0.0
C198 C 0.62903 0.12076 0.0933 0.0
C199 C 0.62983 0.16283 0.14858 0.0
H200 H 0.65941 0.02522 0.1737 0.0
H201 H 0.67421 0.01625 0.14457 0.0
H202 H 0.66631 0.05155 0.084 0.0
H203 H 0.64553 0.0855 0.06955 0.0
H204 H 0.61536 0.17509 0.09354 0.0
H205 H 0.61714 0.19935 0.12349 0.0
H206 H 0.62712 0.16553 0.18471 0.0
H207 H 0.63155 0.11663 0.19843 0.0
H208 H 0.693 0.13972 0.16117 0.0
H209 H 0.68337 0.16867 0.11084 0.0
H210 H 0.58145 0.09798 0.14417 0.0
H211 H 0.60277 0.02676 0.1211 0.0
C212 C 0.6335 0.89398 0.674 0.0
C213 C 0.62577 0.87838 0.68617 0.0
C214 C 0.62053 0.85526 0.67828 0.0
C215 C 0.62526 0.85807 0.66178 0.0
N216 N 0.63349 0.88138 0.65871 0.0
Co217 Co 0.6412 0.89484 0.63614 0.0
N218 N 0.63156 0.86269 0.62408 0.0
C219 C 0.62425 0.84092 0.63127 0.0
C220 C 0.61869 0.82222 0.6198 0.0
C221 C 0.62262 0.8327 0.60437 0.0
C222 C 0.6304 0.85729 0.60731 0.0
N223 N 0.64844 0.90894 0.61362 0.0
C224 C 0.64539 0.89952 0.59784 0.0
C225 C 0.65249 0.91589 0.58561 0.0
C226 C 0.66008 0.93658 0.59393 0.0
C227 C 0.65723 0.93168 0.61067 0.0
N228 N 0.65109 0.92671 0.64817 0.0
C229 C 0.66036 0.94652 0.6413 0.0
C230 C 0.66538 0.9658 0.65264 0.0
C231 C 0.65873 0.95811 0.66765 0.0
C232 C 0.64991 0.93456 0.66453 0.0
N233 N 0.66203 0.87405 0.63864 0.0
C234 C 0.69084 0.84214 0.63997 0.0
C235 C 0.69109 0.86913 0.63423 0.0
C236 C 0.67671 0.88452 0.63365 0.0
C237 C 0.6759 0.83184 0.64536 0.0
C238 C 0.66196 0.84798 0.6448 0.0
N239 N 0.62048 0.91506 0.6336 0.0
C240 C 0.60542 0.95663 0.62851 0.0
C241 C 0.59067 0.94275 0.63018 0.0
C242 C 0.59115 0.91496 0.63369 0.0
C243 C 0.60599 0.90173 0.63546 0.0
C244 C 0.62013 0.94239 0.63007 0.0
H245 H 0.60541 0.88065 0.63843 0.0
H246 H 0.6311 0.95375 0.62839 0.0
H247 H 0.67782 0.90475 0.62901 0.0
H248 H 0.65125 0.83853 0.64926 0.0
C249 C 0.62141 0.83999 0.6487 0.0
C250 C 0.64007 0.92112 0.67737 0.0
C251 C 0.63592 0.87526 0.59377 0.0
C252 C 0.66255 0.94814 0.62389 0.0
H253 H 0.62379 0.88346 0.69929 0.0
H254 H 0.61364 0.83876 0.6838 0.0
H255 H 0.61209 0.80362 0.62233 0.0
H256 H 0.61977 0.82355 0.5923 0.0
H257 H 0.65221 0.91321 0.57206 0.0
H258 H 0.66678 0.95331 0.58841 0.0
H259 H 0.67248 0.9839 0.65016 0.0
H260 H 0.65988 0.96901 0.67946 0.0
H261 H 0.70232 0.87853 0.63021 0.0
H262 H 0.67473 0.81105 0.6497 0.0
H263 H 0.60559 0.97823 0.62577 0.0
H264 H 0.58004 0.90346 0.63538 0.0
C265 C 0.38507 0.10817 0.67414 0.0
C266 C 0.39226 0.12454 0.68628 0.0
C267 C 0.39744 0.14751 0.67819 0.0
C268 C 0.39321 0.14388 0.66161 0.0
N269 N 0.38536 0.12016 0.65867 0.0
Co270 Co 0.37844 0.10545 0.63612 0.0
N271 N 0.38854 0.13691 0.62378 0.0
C272 C 0.39576 0.15894 0.63077 0.0
C273 C 0.40181 0.1769 0.61912 0.0
C274 C 0.39835 0.16561 0.60378 0.0
C275 C 0.39032 0.14132 0.60695 0.0
N276 N 0.3718 0.09028 0.61367 0.0
C277 C 0.37528 0.09894 0.59783 0.0
C278 C 0.36833 0.08218 0.58569 0.0
C279 C 0.36041 0.06202 0.59414 0.0
C280 C 0.36289 0.0676 0.61087 0.0
N281 N 0.3683 0.07406 0.6484 0.0
C282 C 0.35937 0.05374 0.64161 0.0
C283 C 0.35426 0.0348 0.65312 0.0
C284 C 0.36056 0.04321 0.66815 0.0
C285 C 0.36927 0.06683 0.66488 0.0
N286 N 0.35752 0.12631 0.63753 0.0
C287 C 0.32874 0.158 0.637 0.0
C288 C 0.3284 0.1303 0.63299 0.0
C289 C 0.34284 0.115 0.63321 0.0
C290 C 0.34353 0.16925 0.64185 0.0
C291 C 0.3575 0.15319 0.64225 0.0
N292 N 0.39923 0.08517 0.6347 0.0
C293 C 0.41456 0.04359 0.63056 0.0
C294 C 0.42918 0.05715 0.63397 0.0
C295 C 0.42844 0.08502 0.63734 0.0
C296 C 0.41356 0.09838 0.63773 0.0
C297 C 0.39979 0.05793 0.63096 0.0
H298 H 0.41398 0.1195 0.64058 0.0
H299 H 0.38894 0.0467 0.62834 0.0
H300 H 0.34178 0.09419 0.62967 0.0
H301 H 0.36813 0.16328 0.64633 0.0
C302 C 0.39774 0.16107 0.6483 0.0
C303 C 0.37886 0.08085 0.67767 0.0
C304 C 0.3851 0.12272 0.59361 0.0
C305 C 0.35743 0.05152 0.6242 0.0
H306 H 0.394 0.12001 0.69952 0.0
H307 H 0.40411 0.16434 0.68364 0.0
H308 H 0.40836 0.1956 0.6215 0.0
H309 H 0.40161 0.17404 0.59163 0.0
H310 H 0.36899 0.08422 0.57212 0.0
H311 H 0.35378 0.04511 0.58873 0.0
H312 H 0.34734 0.01647 0.65076 0.0
H313 H 0.35929 0.03274 0.68009 0.0
H314 H 0.31715 0.12063 0.62926 0.0
H315 H 0.34433 0.19048 0.64547 0.0
H316 H 0.41445 0.02198 0.62788 0.0
H317 H 0.43935 0.09675 0.63959 0.0
C318 C 0.63327 0.10938 0.83324 0.0
C319 C 0.62551 0.12506 0.82113 0.0
C320 C 0.62023 0.14809 0.82911 0.0
C321 C 0.62497 0.14515 0.84559 0.0
N322 N 0.63324 0.12185 0.84857 0.0
Co323 Co 0.64094 0.10816 0.87108 0.0
N324 N 0.63108 0.13997 0.88328 0.0
C325 C 0.62382 0.16187 0.8762 0.0
C326 C 0.61796 0.18014 0.88778 0.0
C327 C 0.62159 0.16917 0.90317 0.0
C328 C 0.62949 0.14473 0.90009 0.0
N329 N 0.64815 0.0938 0.89354 0.0
C330 C 0.64466 0.10261 0.90935 0.0
C331 C 0.65175 0.08614 0.92154 0.0
C332 C 0.65975 0.06596 0.91316 0.0
C333 C 0.65714 0.07124 0.89641 0.0
N334 N 0.65104 0.07661 0.85892 0.0
C335 C 0.66045 0.05691 0.86571 0.0
C336 C 0.66558 0.03783 0.85428 0.0
C337 C 0.65884 0.04555 0.83932 0.0
C338 C 0.64987 0.06891 0.84254 0.0
N339 N 0.66169 0.12928 0.86879 0.0
C340 C 0.69037 0.16157 0.86773 0.0
C341 C 0.69071 0.13457 0.87344 0.0
C342 C 0.6764 0.119 0.87389 0.0
C343 C 0.67543 0.17169 0.86223 0.0
C344 C 0.66156 0.15538 0.86266 0.0
N345 N 0.62032 0.08764 0.87343 0.0
C346 C 0.60543 0.04591 0.87847 0.0
C347 C 0.59063 0.05969 0.8769 0.0
C348 C 0.59099 0.08748 0.87343 0.0
C349 C 0.60578 0.10085 0.87161 0.0
C350 C 0.62009 0.06029 0.87688 0.0
H351 H 0.60513 0.12195 0.86868 0.0
H352 H 0.63112 0.04904 0.8785 0.0
H353 H 0.67759 0.09878 0.8785 0.0
H354 H 0.65085 0.16471 0.85811 0.0
C355 C 0.62105 0.16305 0.85876 0.0
C356 C 0.6399 0.0823 0.82979 0.0
C357 C 0.63462 0.12617 0.91347 0.0
C358 C 0.66263 0.05508 0.88312 0.0
H359 H 0.62354 0.12009 0.80799 0.0
H360 H 0.6133 0.1646 0.82364 0.0
H361 H 0.61128 0.19869 0.88535 0.0
H362 H 0.61842 0.17782 0.91529 0.0
H363 H 0.65108 0.08835 0.93511 0.0
H364 H 0.66648 0.04921 0.91862 0.0
H365 H 0.67279 0.01982 0.85668 0.0
H366 H 0.66002 0.03478 0.82746 0.0
H367 H 0.70196 0.1253 0.87754 0.0
H368 H 0.6742 0.19248 0.85789 0.0
H369 H 0.60568 0.0243 0.88116 0.0
H370 H 0.57984 0.09889 0.87182 0.0
C371 C 0.38453 0.89373 0.834 0.0
C372 C 0.3913 0.87693 0.82183 0.0
C373 C 0.3964 0.85395 0.82999 0.0
C374 C 0.39252 0.858 0.84663 0.0
N375 N 0.38499 0.88202 0.84955 0.0
Co376 Co 0.3784 0.89717 0.87208 0.0
N377 N 0.38883 0.86607 0.8845 0.0
C378 C 0.39627 0.84418 0.87757 0.0
C379 C 0.40271 0.82667 0.88926 0.0
C380 C 0.39932 0.83814 0.90456 0.0
C381 C 0.39092 0.86205 0.90133 0.0
N382 N 0.37185 0.91253 0.8945 0.0
C383 C 0.37541 0.90404 0.91035 0.0
C384 C 0.36827 0.92063 0.92246 0.0
C385 C 0.36013 0.94051 0.91396 0.0
C386 C 0.36267 0.93491 0.89724 0.0
N387 N 0.36823 0.92847 0.85974 0.0
C388 C 0.35951 0.94907 0.86651 0.0
C389 C 0.35452 0.96808 0.85498 0.0
C390 C 0.36071 0.95943 0.83996 0.0
C391 C 0.36921 0.93561 0.84325 0.0
N392 N 0.35748 0.87621 0.871 0.0
C393 C 0.32855 0.84491 0.87157 0.0
C394 C 0.32817 0.87304 0.87423 0.0
C395 C 0.34267 0.88814 0.87402 0.0
C396 C 0.34351 0.83296 0.86813 0.0
C397 C 0.35756 0.84879 0.86769 0.0
N398 N 0.39918 0.91754 0.87317 0.0
C399 C 0.41456 0.95887 0.87793 0.0
C400 C 0.4291 0.94561 0.87377 0.0
C401 C 0.42829 0.91801 0.86964 0.0
C402 C 0.41342 0.90462 0.86932 0.0
C403 C 0.3998 0.94451 0.87758 0.0
H404 H 0.41377 0.88373 0.86587 0.0
H405 H 0.389 0.9555 0.88079 0.0
H406 H 0.34154 0.90933 0.87649 0.0
H407 H 0.36831 0.83809 0.86472 0.0
C408 C 0.39761 0.84138 0.86001 0.0
C409 C 0.3786 0.92123 0.83044 0.0
C410 C 0.38555 0.88065 0.91462 0.0
C411 C 0.35736 0.95113 0.88391 0.0
H412 H 0.39286 0.8812 0.80854 0.0
H413 H 0.40289 0.83693 0.82455 0.0
H414 H 0.40938 0.80806 0.88692 0.0
H415 H 0.40282 0.83003 0.91672 0.0
H416 H 0.36899 0.91871 0.93604 0.0
H417 H 0.35339 0.95732 0.91934 0.0
H418 H 0.3477 0.98652 0.85732 0.0
H419 H 0.35947 0.96986 0.828 0.0
H420 H 0.3168 0.88325 0.87687 0.0
H421 H 0.34438 0.81132 0.86561 0.0
H422 H 0.4145 0.98027 0.8812 0.0
H423 H 0.43915 0.90647 0.86677 0.0
C424 C 0.86678 0.56305 0.34576 0.0
C425 C 0.85761 0.53959 0.3435 0.0
C426 C 0.84964 0.53494 0.35839 0.0
C427 C 0.85447 0.55552 0.36895 0.0
N428 N 0.86505 0.57275 0.36166 0.0
Co429 Co 0.87553 0.60446 0.37267 0.0
N430 N 0.87051 0.59029 0.3955 0.0
C431 C 0.85918 0.57146 0.39919 0.0
C432 C 0.85804 0.56612 0.41613 0.0
C433 C 0.86926 0.58281 0.42359 0.0
C434 C 0.87668 0.59743 0.41071 0.0
N435 N 0.88601 0.6362 0.38368 0.0
C436 C 0.89087 0.6396 0.39991 0.0
C437 C 0.89745 0.66533 0.40225 0.0
C438 C 0.89638 0.67852 0.38702 0.0
C439 C 0.8893 0.66017 0.37621 0.0
N440 N 0.88035 0.6185 0.34975 0.0
C441 C 0.884 0.64443 0.34586 0.0
C442 C 0.8867 0.64807 0.3289 0.0
C443 C 0.88455 0.62286 0.32172 0.0
C444 C 0.88069 0.60517 0.33476 0.0
N445 N 0.85475 0.62432 0.37256 0.0
C446 C 0.82662 0.65713 0.37181 0.0
C447 C 0.83112 0.64119 0.35782 0.0
C448 C 0.84516 0.62497 0.35846 0.0
C449 C 0.8364 0.65558 0.38627 0.0
C450 C 0.85022 0.63909 0.38642 0.0
N451 N 0.89641 0.5852 0.37282 0.0
C452 C 0.92516 0.58553 0.36722 0.0
C453 C 0.92675 0.55908 0.37355 0.0
C454 C 0.91276 0.54589 0.37949 0.0
C455 C 0.89768 0.5592 0.37885 0.0
C456 C 0.91 0.59825 0.36711 0.0
H457 H 0.88708 0.54852 0.3833 0.0
H458 H 0.90935 0.61882 0.36249 0.0
H459 H 0.8484 0.6133 0.34743 0.0
H460 H 0.85747 0.63889 0.39772 0.0
C461 C 0.85177 0.55642 0.38635 0.0
C462 C 0.87623 0.57645 0.33238 0.0
C463 C 0.8882 0.61978 0.41355 0.0
C464 C 0.88764 0.66317 0.35868 0.0
H465 H 0.85678 0.527 0.33234 0.0
H466 H 0.84188 0.51783 0.36138 0.0
H467 H 0.85032 0.55134 0.42229 0.0
H468 H 0.87148 0.58434 0.43701 0.0
H469 H 0.90233 0.67379 0.41379 0.0
H470 H 0.90068 0.69879 0.38409 0.0
H471 H 0.89044 0.66656 0.32257 0.0
H472 H 0.88563 0.61805 0.30845 0.0
H473 H 0.82389 0.64119 0.34643 0.0
H474 H 0.83371 0.66764 0.39736 0.0
H475 H 0.93566 0.59661 0.3627 0.0
H476 H 0.91343 0.52536 0.38441 0.0
C477 C 0.14936 0.443 0.34791 0.0
C478 C 0.15815 0.46693 0.34597 0.0
C479 C 0.16605 0.47143 0.36092 0.0
C480 C 0.16154 0.45029 0.37119 0.0
N481 N 0.15122 0.43285 0.36368 0.0
Co482 Co 0.14121 0.40034 0.37427 0.0
N483 N 0.14616 0.41383 0.3973 0.0
C484 C 0.15722 0.43302 0.40119 0.0
C485 C 0.15848 0.43769 0.41819 0.0
C486 C 0.14765 0.42018 0.42549 0.0
C487 C 0.1403 0.40576 0.41246 0.0
N488 N 0.13116 0.36782 0.38488 0.0
C489 C 0.12649 0.36357 0.40109 0.0
C490 C 0.12015 0.33759 0.40304 0.0
C491 C 0.12122 0.32508 0.38759 0.0
C492 C 0.12806 0.34406 0.37705 0.0
N493 N 0.13649 0.38694 0.35116 0.0
C494 C 0.13313 0.36103 0.34692 0.0
C495 C 0.13049 0.35784 0.32992 0.0
C496 C 0.13239 0.38332 0.32307 0.0
C497 C 0.13604 0.4007 0.33634 0.0
N498 N 0.16223 0.38123 0.37373 0.0
C499 C 0.18999 0.34801 0.37172 0.0
C500 C 0.18578 0.36545 0.35841 0.0
C501 C 0.17182 0.38177 0.35962 0.0
C502 C 0.18044 0.34859 0.38632 0.0
C503 C 0.16681 0.36547 0.38715 0.0
N504 N 0.12008 0.4188 0.37479 0.0
C505 C 0.09131 0.41737 0.36941 0.0
C506 C 0.08922 0.44352 0.37619 0.0
C507 C 0.10316 0.45719 0.382 0.0
C508 C 0.11844 0.44456 0.3811 0.0
C509 C 0.10666 0.4054 0.36898 0.0
H510 H 0.1289 0.45552 0.38566 0.0
H511 H 0.10761 0.38511 0.36396 0.0
H512 H 0.16852 0.39418 0.34893 0.0
H513 H 0.15971 0.36506 0.39855 0.0
C514 C 0.16432 0.44886 0.38855 0.0
C515 C 0.1402 0.4296 0.33431 0.0
C516 C 0.12921 0.38273 0.41511 0.0
C517 C 0.1297 0.34176 0.35948 0.0
H518 H 0.15881 0.47992 0.33498 0.0
H519 H 0.17356 0.48874 0.36414 0.0
H520 H 0.16605 0.45252 0.42451 0.0
H521 H 0.14565 0.41796 0.43891 0.0
H522 H 0.11544 0.32848 0.41446 0.0
H523 H 0.11712 0.30481 0.38435 0.0
H524 H 0.12697 0.33944 0.32335 0.0
H525 H 0.13128 0.38851 0.30985 0.0
H526 H 0.19285 0.36571 0.34689 0.0
H527 H 0.1834 0.33583 0.39703 0.0
H528 H 0.08116 0.40606 0.36431 0.0
H529 H 0.1023 0.47731 0.38749 0.0
C530 C 0.86677 0.44087 0.16133 0.0
C531 C 0.85786 0.46468 0.16332 0.0
C532 C 0.84995 0.46916 0.14837 0.0
C533 C 0.85456 0.44814 0.13804 0.0
N534 N 0.86496 0.4308 0.14552 0.0
Co535 Co 0.87513 0.3985 0.13485 0.0
N536 N 0.87021 0.41214 0.11187 0.0
C537 C 0.85903 0.43112 0.10799 0.0
C538 C 0.85793 0.43601 0.09099 0.0
C539 C 0.86902 0.41888 0.08371 0.0
C540 C 0.87633 0.40447 0.09676 0.0
N541 N 0.88534 0.36621 0.12416 0.0
C542 C 0.89025 0.36234 0.10799 0.0
C543 C 0.89664 0.33642 0.10589 0.0
C544 C 0.89541 0.3236 0.12124 0.0
C545 C 0.88842 0.34235 0.13186 0.0
N546 N 0.8798 0.38492 0.15791 0.0
C547 C 0.88319 0.35899 0.16205 0.0
C548 C 0.8858 0.35568 0.17906 0.0
C549 C 0.88385 0.38111 0.18599 0.0
C550 C 0.8802 0.39859 0.17278 0.0
N551 N 0.85417 0.3792 0.13519 0.0
C552 C 0.82582 0.34691 0.13642 0.0
C553 C 0.83027 0.36375 0.15003 0.0
C554 C 0.84445 0.37958 0.14918 0.0
C555 C 0.83579 0.34738 0.12205 0.0
C556 C 0.84966 0.36373 0.12162 0.0
N557 N 0.89619 0.41715 0.13447 0.0
C558 C 0.92498 0.41582 0.13969 0.0
C559 C 0.92703 0.4418 0.13266 0.0
C560 C 0.91305 0.45539 0.1269 0.0
C561 C 0.89778 0.44282 0.12803 0.0
C562 C 0.90964 0.40386 0.1403 0.0
H563 H 0.88729 0.4537 0.12347 0.0
H564 H 0.90872 0.38363 0.14542 0.0
H565 H 0.84769 0.39179 0.15999 0.0
H566 H 0.85697 0.36321 0.11037 0.0
C567 C 0.85181 0.44678 0.12066 0.0
C568 C 0.87599 0.42748 0.17489 0.0
C569 C 0.8878 0.38195 0.09417 0.0
C570 C 0.8867 0.33984 0.14942 0.0
H571 H 0.85714 0.4776 0.17434 0.0
H572 H 0.84236 0.4864 0.14519 0.0
H573 H 0.85034 0.45082 0.08467 0.0
H574 H 0.87126 0.41697 0.07031 0.0
H575 H 0.9015 0.3276 0.09445 0.0
H576 H 0.89955 0.30332 0.12437 0.0
H577 H 0.88935 0.33725 0.18556 0.0
H578 H 0.88493 0.3862 0.19923 0.0
H579 H 0.82292 0.36474 0.16132 0.0
H580 H 0.83325 0.33462 0.11124 0.0
H581 H 0.93516 0.40458 0.1448 0.0
H582 H 0.91385 0.47538 0.12123 0.0
C583 C 0.14924 0.56654 0.16409 0.0
C584 C 0.15758 0.54223 0.1664 0.0
C585 C 0.16376 0.53506 0.15109 0.0
C586 C 0.15878 0.55511 0.14028 0.0
N587 N 0.14987 0.57483 0.14775 0.0
Co588 Co 0.13968 0.60703 0.13636 0.0
N589 N 0.14616 0.59345 0.11343 0.0
C590 C 0.15471 0.57065 0.10993 0.0
C591 C 0.15698 0.56608 0.09306 0.0
C592 C 0.14924 0.58707 0.08522 0.0
C593 C 0.14267 0.60329 0.09786 0.0
N594 N 0.12985 0.63955 0.12496 0.0
C595 C 0.12828 0.6455 0.10829 0.0
C596 C 0.12084 0.67051 0.10586 0.0
C597 C 0.11756 0.68071 0.12154 0.0
C598 C 0.12316 0.66144 0.13263 0.0
N599 N 0.13255 0.61985 0.15929 0.0
C600 C 0.1245 0.64318 0.16285 0.0
C601 C 0.12052 0.64592 0.17955 0.0
C602 C 0.12609 0.62273 0.18709 0.0
C603 C 0.13318 0.6071 0.1745 0.0
N604 N 0.16067 0.62767 0.13842 0.0
C605 C 0.18924 0.66031 0.13868 0.0
C606 C 0.17517 0.66837 0.14715 0.0
C607 C 0.16128 0.65206 0.14686 0.0
C608 C 0.18897 0.63482 0.13074 0.0
C609 C 0.17476 0.61893 0.13086 0.0
N610 N 0.11881 0.58702 0.13428 0.0
C611 C 0.08962 0.58637 0.13753 0.0
C612 C 0.08891 0.55906 0.13278 0.0
C613 C 0.10343 0.54601 0.12843 0.0
C614 C 0.11821 0.56023 0.12943 0.0
C615 C 0.10449 0.5999 0.13799 0.0
H616 H 0.12904 0.54925 0.12635 0.0
H617 H 0.10412 0.62082 0.14145 0.0
H618 H 0.15119 0.66004 0.15349 0.0
H619 H 0.17547 0.59983 0.12455 0.0
C620 C 0.16049 0.55403 0.12282 0.0
C621 C 0.14039 0.58034 0.17763 0.0
C622 C 0.13329 0.62784 0.09439 0.0
C623 C 0.12081 0.66195 0.15011 0.0
H624 H 0.15872 0.53035 0.17781 0.0
H625 H 0.17042 0.51671 0.14805 0.0
H626 H 0.16343 0.5494 0.08716 0.0
H627 H 0.1485 0.59007 0.07172 0.0
H628 H 0.11788 0.68016 0.09398 0.0
H629 H 0.11137 0.69955 0.1245 0.0
H630 H 0.11416 0.66263 0.18551 0.0
H631 H 0.12499 0.61782 0.20035 0.0
H632 H 0.17476 0.68737 0.15406 0.0
H633 H 0.19953 0.62734 0.12406 0.0
H634 H 0.07866 0.59742 0.14072 0.0
H635 H 0.10342 0.52482 0.12466 0.0
C636 C 0.13377 0.39232 0.67544 0.0
C637 C 0.12627 0.3764 0.6876 0.0
C638 C 0.12103 0.35336 0.67962 0.0
C639 C 0.12554 0.35652 0.66308 0.0
N640 N 0.13364 0.37998 0.66007 0.0
Co641 Co 0.14092 0.39407 0.6375 0.0
N642 N 0.13099 0.36231 0.6253 0.0
C643 C 0.12382 0.34033 0.63239 0.0
C644 C 0.11793 0.32208 0.62083 0.0
C645 C 0.12145 0.3331 0.60543 0.0
C646 C 0.12936 0.35754 0.60849 0.0
N647 N 0.14776 0.40877 0.61499 0.0
C648 C 0.14431 0.3999 0.59919 0.0
C649 C 0.15128 0.4165 0.58699 0.0
C650 C 0.15917 0.4368 0.59537 0.0
C651 C 0.15663 0.43144 0.61212 0.0
N652 N 0.15104 0.42559 0.64965 0.0
C653 C 0.16023 0.44554 0.64281 0.0
C654 C 0.16536 0.4646 0.65425 0.0
C655 C 0.15884 0.45663 0.66926 0.0
C656 C 0.14999 0.43314 0.66607 0.0
N657 N 0.16179 0.37314 0.63936 0.0
C658 C 0.19064 0.34127 0.64022 0.0
C659 C 0.19084 0.36839 0.63473 0.0
C660 C 0.17644 0.38377 0.63437 0.0
C661 C 0.17573 0.33076 0.64551 0.0
C662 C 0.16178 0.34686 0.64518 0.0
N663 N 0.12018 0.4144 0.63566 0.0
C664 C 0.10499 0.45618 0.63176 0.0
C665 C 0.09029 0.44257 0.6347 0.0
C666 C 0.09093 0.41456 0.63763 0.0
C667 C 0.10578 0.40112 0.63814 0.0
C668 C 0.11973 0.44176 0.63225 0.0
H669 H 0.10527 0.37991 0.64068 0.0
H670 H 0.13065 0.45303 0.63001 0.0
H671 H 0.17751 0.40412 0.62994 0.0
H672 H 0.15112 0.33722 0.64956 0.0
C673 C 0.12138 0.33883 0.64988 0.0
C674 C 0.1402 0.41954 0.67886 0.0
C675 C 0.13453 0.37602 0.59506 0.0
C676 C 0.16219 0.44755 0.6254 0.0
H677 H 0.12441 0.38126 0.70078 0.0
H678 H 0.11423 0.33673 0.68511 0.0
H679 H 0.11135 0.30343 0.62329 0.0
H680 H 0.11826 0.32442 0.59333 0.0
H681 H 0.15068 0.41426 0.57342 0.0
H682 H 0.16584 0.4536 0.5899 0.0
H683 H 0.17241 0.48277 0.65182 0.0
H684 H 0.16007 0.46733 0.68114 0.0
H685 H 0.20205 0.37792 0.63076 0.0
H686 H 0.17459 0.30985 0.64962 0.0
H687 H 0.10518 0.47789 0.62941 0.0
H688 H 0.07996 0.4028 0.63947 0.0
C689 C 0.88564 0.60827 0.674 0.0
C690 C 0.89301 0.62442 0.68614 0.0
C691 C 0.89823 0.6474 0.6781 0.0
C692 C 0.89384 0.644 0.66154 0.0
N693 N 0.88587 0.62041 0.65857 0.0
Co694 Co 0.87859 0.60613 0.63604 0.0
N695 N 0.88867 0.63766 0.62374 0.0
C696 C 0.89605 0.65952 0.63076 0.0
C697 C 0.90212 0.67749 0.61913 0.0
C698 C 0.89851 0.66637 0.60377 0.0
C699 C 0.89039 0.64218 0.60692 0.0
N700 N 0.8716 0.5914 0.6136 0.0
C701 C 0.87504 0.60015 0.59777 0.0
C702 C 0.8679 0.58366 0.58562 0.0
C703 C 0.85989 0.56355 0.59405 0.0
C704 C 0.86254 0.56891 0.61078 0.0
N705 N 0.86849 0.57466 0.64827 0.0
C706 C 0.85939 0.55454 0.64148 0.0
C707 C 0.85433 0.5355 0.65295 0.0
C708 C 0.86082 0.54364 0.66795 0.0
C709 C 0.86958 0.56721 0.6647 0.0
N710 N 0.85777 0.6272 0.63787 0.0
C711 C 0.82912 0.6592 0.63767 0.0
C712 C 0.82864 0.63151 0.63365 0.0
C713 C 0.843 0.61606 0.63372 0.0
C714 C 0.844 0.67027 0.6424 0.0
C715 C 0.85791 0.65405 0.64264 0.0
N716 N 0.89928 0.58567 0.63412 0.0
C717 C 0.91433 0.54421 0.62869 0.0
C718 C 0.92907 0.5579 0.63096 0.0
C719 C 0.92859 0.58548 0.63505 0.0
C720 C 0.91374 0.59875 0.6367 0.0
C721 C 0.89962 0.55849 0.63015 0.0
H722 H 0.9143 0.61966 0.64009 0.0
H723 H 0.88866 0.54734 0.62799 0.0
H724 H 0.84182 0.59528 0.63018 0.0
H725 H 0.86862 0.66399 0.64664 0.0
C726 C 0.89827 0.66135 0.64827 0.0
C727 C 0.87929 0.58103 0.67749 0.0
C728 C 0.88508 0.62367 0.59358 0.0
C729 C 0.85719 0.55265 0.62408 0.0
H730 H 0.89481 0.61974 0.69934 0.0
H731 H 0.90499 0.66411 0.68355 0.0
H732 H 0.90882 0.69605 0.62152 0.0
H733 H 0.90177 0.67484 0.59163 0.0
H734 H 0.86853 0.58579 0.57204 0.0
H735 H 0.85317 0.54678 0.58862 0.0
H736 H 0.84729 0.5173 0.65057 0.0
H737 H 0.85961 0.53303 0.67985 0.0
H738 H 0.81731 0.62197 0.63002 0.0
H739 H 0.84491 0.69149 0.64601 0.0
H740 H 0.91417 0.52277 0.62552 0.0
H741 H 0.93968 0.59679 0.63724 0.0
C742 C 0.13323 0.60905 0.83403 0.0
C743 C 0.12536 0.6245 0.82189 0.0
C744 C 0.12009 0.64763 0.82976 0.0
C745 C 0.12495 0.64496 0.84623 0.0
N746 N 0.13328 0.62175 0.84929 0.0
Co747 Co 0.14108 0.6084 0.87185 0.0
N748 N 0.13145 0.64056 0.88389 0.0
C749 C 0.12426 0.66243 0.87668 0.0
C750 C 0.11877 0.6812 0.88815 0.0
C751 C 0.12262 0.67066 0.9036 0.0
C752 C 0.13026 0.64595 0.90066 0.0
N753 N 0.1483 0.59431 0.89438 0.0
C754 C 0.14512 0.60361 0.91015 0.0
C755 C 0.15205 0.58709 0.92241 0.0
C756 C 0.15971 0.56646 0.91411 0.0
C757 C 0.15704 0.57151 0.89735 0.0
N758 N 0.15107 0.57662 0.85983 0.0
C759 C 0.16048 0.55699 0.8667 0.0
C760 C 0.16561 0.53779 0.85535 0.0
C761 C 0.15888 0.54536 0.84035 0.0
C762 C 0.14991 0.56876 0.84348 0.0
N763 N 0.16187 0.62929 0.86935 0.0
C764 C 0.19054 0.66155 0.86822 0.0
C765 C 0.19079 0.63485 0.87446 0.0
C766 C 0.17648 0.61927 0.87492 0.0
C767 C 0.17571 0.67133 0.86218 0.0
C768 C 0.16184 0.65503 0.86266 0.0
N769 N 0.12039 0.5881 0.8744 0.0
C770 C 0.1054 0.54637 0.87911 0.0
C771 C 0.09063 0.56027 0.8777 0.0
C772 C 0.09106 0.58817 0.87455 0.0
C773 C 0.10588 0.60149 0.87282 0.0
C774 C 0.12009 0.56067 0.87762 0.0
H775 H 0.10527 0.62266 0.87012 0.0
H776 H 0.13109 0.54928 0.87908 0.0
H777 H 0.17758 0.59929 0.87996 0.0
H778 H 0.1512 0.66409 0.85772 0.0
C779 C 0.12127 0.66321 0.85928 0.0
C780 C 0.13992 0.58197 0.83068 0.0
C781 C 0.13563 0.62785 0.91418 0.0
C782 C 0.16255 0.55524 0.88412 0.0
H783 H 0.12333 0.61933 0.80879 0.0
H784 H 0.11314 0.66406 0.82424 0.0
H785 H 0.11224 0.69987 0.88562 0.0
H786 H 0.11983 0.67982 0.91568 0.0
H787 H 0.15157 0.58964 0.93596 0.0
H788 H 0.16634 0.54966 0.91965 0.0
H789 H 0.17279 0.51978 0.85783 0.0
H790 H 0.16006 0.53447 0.82854 0.0
H791 H 0.20196 0.62584 0.87898 0.0
H792 H 0.17456 0.69187 0.85739 0.0
H793 H 0.10561 0.52469 0.88158 0.0
H794 H 0.07993 0.5997 0.87308 0.0
C795 C 0.88492 0.39365 0.83366 0.0
C796 C 0.89186 0.37714 0.82143 0.0
C797 C 0.89703 0.35411 0.82947 0.0
C798 C 0.89303 0.35784 0.84611 0.0
N799 N 0.88534 0.38169 0.84914 0.0
Co800 Co 0.87864 0.39645 0.87174 0.0
N801 N 0.88893 0.36505 0.884 0.0
C802 C 0.89625 0.34316 0.87696 0.0
C803 C 0.90252 0.32531 0.88856 0.0
C804 C 0.8991 0.33655 0.90392 0.0
C805 C 0.89089 0.36068 0.90081 0.0
N806 N 0.87209 0.41152 0.89424 0.0
C807 C 0.87563 0.4028 0.91005 0.0
C808 C 0.86863 0.41939 0.92224 0.0
C809 C 0.86058 0.4395 0.91385 0.0
C810 C 0.86306 0.43405 0.8971 0.0
N811 N 0.86847 0.42791 0.85955 0.0
C812 C 0.85968 0.44834 0.86642 0.0
C813 C 0.85463 0.46743 0.85497 0.0
C814 C 0.86083 0.45901 0.8399 0.0
C815 C 0.86942 0.43523 0.84308 0.0
N816 N 0.85771 0.37557 0.87047 0.0
C817 C 0.82882 0.34416 0.87094 0.0
C818 C 0.82848 0.37208 0.87435 0.0
C819 C 0.84297 0.38723 0.87417 0.0
C820 C 0.84369 0.33252 0.86677 0.0
C821 C 0.85773 0.34842 0.86639 0.0
N822 N 0.89943 0.41675 0.87302 0.0
C823 C 0.91478 0.45817 0.87763 0.0
C824 C 0.92937 0.44481 0.87377 0.0
C825 C 0.9286 0.41711 0.86988 0.0
C826 C 0.91372 0.40373 0.86949 0.0
C827 C 0.90003 0.44381 0.87721 0.0
H828 H 0.91411 0.38275 0.86624 0.0
H829 H 0.8892 0.45489 0.8802 0.0
H830 H 0.84189 0.40823 0.87724 0.0
H831 H 0.86841 0.338 0.86284 0.0
C832 C 0.89788 0.34083 0.8594 0.0
C833 C 0.87885 0.42109 0.83021 0.0
C834 C 0.8856 0.37916 0.9142 0.0
C835 C 0.85767 0.45033 0.88384 0.0
H836 H 0.89347 0.38164 0.80818 0.0
H837 H 0.90359 0.33722 0.82396 0.0
H838 H 0.90912 0.30667 0.88612 0.0
H839 H 0.9025 0.32817 0.91604 0.0
H840 H 0.86935 0.4173 0.93581 0.0
H841 H 0.85393 0.45633 0.91931 0.0
H842 H 0.84778 0.48582 0.8574 0.0
H843 H 0.85956 0.46956 0.82799 0.0
H844 H 0.81718 0.38206 0.87757 0.0
H845 H 0.84452 0.31108 0.86364 0.0
H846 H 0.91468 0.47964 0.8807 0.0
H847 H 0.93948 0.40551 0.86725 0.0
C848 C 0.40224 0.11028 0.43986 0.0
C849 C 0.3914 0.12725 0.43118 0.0
C850 C 0.40406 0.11257 0.45738 0.0
C851 C 0.39462 0.15677 0.49456 0.0
H852 H 0.39593 0.08836 0.51886 0.0
C853 C 0.38061 0.14745 0.56625 0.0
C854 C 0.38921 0.12794 0.57558 0.0
C855 C 0.3828 0.14953 0.54875 0.0
C856 C 0.39585 0.10771 0.51233 0.0
H857 H 0.37401 0.15993 0.43383 0.0
H858 H 0.37714 0.16408 0.4644 0.0
H859 H 0.39654 0.08823 0.48821 0.0
H860 H 0.40707 0.0958 0.57424 0.0
H861 H 0.4112 0.09964 0.54375 0.0
H862 H 0.3936 0.17617 0.51879 0.0
C863 C 0.38453 0.14936 0.45774 0.0
C864 C 0.39621 0.10764 0.49467 0.0
C865 C 0.38274 0.14707 0.44022 0.0
C866 C 0.4004 0.11112 0.56727 0.0
C867 C 0.40261 0.11316 0.5498 0.0
C868 C 0.39424 0.15684 0.51226 0.0
C869 C 0.39496 0.13173 0.46663 0.0
C870 C 0.39551 0.13214 0.48551 0.0
C871 C 0.39359 0.13201 0.54023 0.0
C872 C 0.39476 0.13228 0.52139 0.0
H873 H 0.40885 0.09459 0.43315 0.0
H874 H 0.41237 0.09889 0.46372 0.0
H875 H 0.39425 0.17606 0.48797 0.0
H876 H 0.37175 0.16036 0.57241 0.0
H877 H 0.37552 0.16407 0.54182 0.0
C878 C 0.64148 0.84845 0.5674 0.0
C879 C 0.63258 0.86874 0.57573 0.0
C880 C 0.63986 0.84476 0.54994 0.0
C881 C 0.64289 0.85524 0.51219 0.0
H882 H 0.60186 0.86438 0.48893 0.0
C883 C 0.63905 0.84786 0.43953 0.0
C884 C 0.62976 0.86801 0.43154 0.0
C885 C 0.63797 0.84406 0.45703 0.0
C886 C 0.61345 0.86192 0.4952 0.0
H887 H 0.61486 0.90078 0.57262 0.0
H888 H 0.61197 0.89451 0.54213 0.0
H889 H 0.60259 0.86487 0.51972 0.0
H890 H 0.61183 0.89953 0.43529 0.0
H891 H 0.60989 0.89309 0.46581 0.0
H892 H 0.65382 0.8529 0.48774 0.0
C893 C 0.62004 0.88111 0.549 0.0
C894 C 0.61386 0.8622 0.51289 0.0
C895 C 0.6217 0.88479 0.56644 0.0
C896 C 0.61892 0.8836 0.44119 0.0
C897 C 0.61784 0.87985 0.45867 0.0
C898 C 0.64248 0.85499 0.49452 0.0
C899 C 0.62932 0.86136 0.54044 0.0
C900 C 0.62862 0.85917 0.52163 0.0
C901 C 0.62762 0.86045 0.46691 0.0
C902 C 0.62778 0.85863 0.48575 0.0
H903 H 0.65005 0.836 0.57433 0.0
H904 H 0.64704 0.82914 0.54384 0.0
H905 H 0.65453 0.8533 0.51842 0.0
H906 H 0.64761 0.83581 0.43233 0.0
H907 H 0.64551 0.82865 0.46286 0.0
C908 C 0.38386 0.85846 0.06809 0.0
C909 C 0.39243 0.87851 0.07703 0.0
C910 C 0.38561 0.85602 0.05057 0.0
C911 C 0.39685 0.89746 0.01341 0.0
H912 H 0.39487 0.82851 0.98969 0.0
C913 C 0.40084 0.89307 0.94082 0.0
C914 C 0.38981 0.87578 0.93264 0.0
C915 C 0.40313 0.89133 0.95829 0.0
C916 C 0.39533 0.84796 0.9961 0.0
H917 H 0.40964 0.91149 0.07486 0.0
H918 H 0.41305 0.90697 0.04428 0.0
H919 H 0.39557 0.8291 0.0205 0.0
H920 H 0.37275 0.84285 0.93605 0.0
H921 H 0.37666 0.83969 0.96664 0.0
H922 H 0.39632 0.91638 0.98912 0.0
C923 C 0.40487 0.8932 0.05071 0.0
C924 C 0.39574 0.8483 0.0138 0.0
C925 C 0.4031 0.89562 0.06823 0.0
C926 C 0.38148 0.85612 0.94211 0.0
C927 C 0.38376 0.85436 0.95961 0.0
C928 C 0.39645 0.89712 0.99575 0.0
C929 C 0.39588 0.87374 0.04157 0.0
C930 C 0.3964 0.87308 0.02271 0.0
C931 C 0.39436 0.87235 0.968 0.0
C932 C 0.39558 0.87239 0.98683 0.0
H933 H 0.37526 0.84548 0.07457 0.0
H934 H 0.3783 0.84108 0.044 0.0
H935 H 0.397 0.91696 0.01977 0.0
H936 H 0.4073 0.9085 0.93374 0.0
H937 H 0.41158 0.90521 0.96423 0.0
C938 C 0.6385 0.15041 0.9411 0.0
C939 C 0.6301 0.13111 0.93141 0.0
C940 C 0.63584 0.15227 0.95854 0.0
C941 C 0.6216 0.11013 0.99433 0.0
H942 H 0.62304 0.17811 0.01912 0.0
C943 C 0.63365 0.1477 0.06688 0.0
C944 C 0.62473 0.12781 0.07558 0.0
C945 C 0.63205 0.15059 0.04937 0.0
C946 C 0.62269 0.15893 0.01241 0.0
H947 H 0.61214 0.0991 0.93205 0.0
H948 H 0.60718 0.10258 0.96242 0.0
H949 H 0.62445 0.17863 0.98833 0.0
H950 H 0.60696 0.09575 0.07301 0.0
H951 H 0.60379 0.10112 0.04247 0.0
H952 H 0.62016 0.09035 0.01831 0.0
C953 C 0.61597 0.1161 0.95671 0.0
C954 C 0.62351 0.15923 0.99473 0.0
C955 C 0.61866 0.11425 0.9393 0.0
C956 C 0.61376 0.11151 0.06658 0.0
C957 C 0.61214 0.11438 0.04908 0.0
C958 C 0.62078 0.10984 0.01196 0.0
C959 C 0.62477 0.13475 0.96665 0.0
C960 C 0.62308 0.1348 0.98544 0.0
C961 C 0.62158 0.13349 0.04016 0.0
C962 C 0.62142 0.1342 0.02128 0.0
H963 H 0.64755 0.16334 0.93527 0.0
H964 H 0.64298 0.16665 0.96576 0.0
H965 H 0.62156 0.09087 0.9877 0.0
H966 H 0.64248 0.16004 0.07352 0.0
H967 H 0.63968 0.16526 0.04297 0.0
C968 C 0.90062 0.6117 0.56747 0.0
C969 C 0.88938 0.62868 0.57559 0.0
C970 C 0.90304 0.6136 0.55002 0.0
C971 C 0.89517 0.65704 0.51225 0.0
H972 H 0.89763 0.58822 0.48845 0.0
C973 C 0.90353 0.60962 0.44011 0.0
C974 C 0.89263 0.62632 0.43132 0.0
C975 C 0.90537 0.61225 0.45761 0.0
C976 C 0.89726 0.60769 0.49485 0.0
H977 H 0.87206 0.66122 0.57211 0.0
H978 H 0.87618 0.66465 0.54156 0.0
H979 H 0.89673 0.58861 0.51909 0.0
H980 H 0.87517 0.65895 0.43375 0.0
H981 H 0.87833 0.66373 0.46428 0.0
H982 H 0.8954 0.67604 0.48789 0.0
C983 C 0.88335 0.65011 0.54862 0.0
C984 C 0.89673 0.60791 0.5125 0.0
C985 C 0.88095 0.64819 0.5661 0.0
C986 C 0.88395 0.6463 0.44022 0.0
C987 C 0.88576 0.64895 0.45772 0.0
C988 C 0.8957 0.65682 0.49455 0.0
C989 C 0.89419 0.63245 0.54028 0.0
C990 C 0.89557 0.63256 0.52147 0.0
C991 C 0.8962 0.63151 0.46673 0.0
C992 C 0.89665 0.63211 0.4856 0.0
H993 H 0.90716 0.59639 0.57457 0.0
H994 H 0.91167 0.59997 0.54413 0.0
H995 H 0.89447 0.67643 0.51871 0.0
H996 H 0.91015 0.59381 0.43352 0.0
H997 H 0.91369 0.59873 0.46405 0.0
C998 C 0.13908 0.35013 0.56813 0.0
C999 C 0.13062 0.37032 0.57703 0.0
C1000 C 0.13703 0.34734 0.55066 0.0
C1001 C 0.13954 0.35957 0.51313 0.0
H1002 H 0.09829 0.3713 0.49073 0.0
C1003 C 0.13457 0.35406 0.44067 0.0
C1004 C 0.12555 0.37477 0.43286 0.0
C1005 C 0.13356 0.34998 0.45812 0.0
C1006 C 0.10993 0.36813 0.49677 0.0
H1007 H 0.11323 0.40308 0.57492 0.0
H1008 H 0.10961 0.39838 0.54441 0.0
H1009 H 0.09951 0.37046 0.52152 0.0
H1010 H 0.1083 0.40722 0.437 0.0
H1011 H 0.10647 0.40024 0.46753 0.0
H1012 H 0.15004 0.35778 0.48848 0.0
C1013 C 0.11766 0.38438 0.55084 0.0
C1014 C 0.11063 0.36765 0.51445 0.0
C1015 C 0.11972 0.38715 0.5683 0.0
C1016 C 0.1151 0.39076 0.44272 0.0
C1017 C 0.1141 0.38673 0.4602 0.0
C1018 C 0.13884 0.36006 0.49548 0.0
C1019 C 0.12651 0.36476 0.54171 0.0
C1020 C 0.12547 0.36359 0.52288 0.0
C1021 C 0.12363 0.36671 0.46821 0.0
C1022 C 0.12405 0.36455 0.48703 0.0
H1023 H 0.14765 0.3371 0.57462 0.0
H1024 H 0.14389 0.33178 0.54411 0.0
H1025 H 0.15124 0.35691 0.51912 0.0
H1026 H 0.14296 0.34182 0.43336 0.0
H1027 H 0.1409 0.33413 0.46377 0.0
C1028 C 0.90107 0.39075 0.94043 0.0
C1029 C 0.88983 0.37394 0.93219 0.0
C1030 C 0.90341 0.38865 0.95788 0.0
C1031 C 0.89525 0.34493 0.99548 0.0
H1032 H 0.89786 0.41351 0.01952 0.0
C1033 C 0.90346 0.39179 0.06779 0.0
C1034 C 0.89244 0.37518 0.07649 0.0
C1035 C 0.9054 0.38918 0.0503 0.0
C1036 C 0.89745 0.3941 0.01305 0.0
H1037 H 0.87241 0.3415 0.93547 0.0
H1038 H 0.87639 0.33775 0.96603 0.0
H1039 H 0.89707 0.4134 0.98888 0.0
H1040 H 0.87491 0.3427 0.07391 0.0
H1041 H 0.87826 0.33796 0.0434 0.0
H1042 H 0.89533 0.32571 0.01977 0.0
C1043 C 0.88362 0.35229 0.95906 0.0
C1044 C 0.89698 0.39404 0.9954 0.0
C1045 C 0.88131 0.3544 0.94158 0.0
C1046 C 0.88379 0.35527 0.06751 0.0
C1047 C 0.8857 0.35266 0.05002 0.0
C1048 C 0.89573 0.34499 0.01318 0.0
C1049 C 0.89447 0.36979 0.96751 0.0
C1050 C 0.89577 0.36949 0.98634 0.0
C1051 C 0.89622 0.37006 0.0411 0.0
C1052 C 0.89673 0.36961 0.02222 0.0
H1053 H 0.90769 0.40607 0.93342 0.0
H1054 H 0.91205 0.40216 0.96387 0.0
H1055 H 0.89452 0.32561 0.98895 0.0
H1056 H 0.91006 0.40756 0.07444 0.0
H1057 H 0.91379 0.40266 0.04393 0.0
C1058 C 0.11759 0.6204 0.06777 0.0
C1059 C 0.1296 0.63487 0.07652 0.0
C1060 C 0.11602 0.6231 0.05027 0.0
C1061 C 0.12863 0.66472 0.01308 0.0
H1062 H 0.12293 0.59661 0.9891 0.0
C1063 C 0.14159 0.65218 0.94134 0.0
C1064 C 0.1319 0.63397 0.93217 0.0
C1065 C 0.13961 0.65488 0.95883 0.0
C1066 C 0.12425 0.61594 0.99553 0.0
H1067 H 0.14915 0.66391 0.07411 0.0
H1068 H 0.14649 0.66877 0.04345 0.0
H1069 H 0.12231 0.59702 0.01973 0.0
H1070 H 0.11234 0.60482 0.93375 0.0
H1071 H 0.10853 0.60986 0.96422 0.0
H1072 H 0.13083 0.68352 0.98876 0.0
C1073 C 0.13808 0.65562 0.05006 0.0
C1074 C 0.12389 0.61617 0.01317 0.0
C1075 C 0.13963 0.65291 0.0676 0.0
C1076 C 0.11986 0.61913 0.94061 0.0
C1077 C 0.11783 0.62184 0.95807 0.0
C1078 C 0.12897 0.66449 0.99537 0.0
C1079 C 0.12652 0.64021 0.04109 0.0
C1080 C 0.12614 0.64052 0.02222 0.0
C1081 C 0.12792 0.63931 0.9675 0.0
C1082 C 0.12686 0.64005 0.98635 0.0
H1083 H 0.10984 0.60617 0.07442 0.0
H1084 H 0.10681 0.61126 0.04386 0.0
H1085 H 0.13025 0.6839 0.0196 0.0
H1086 H 0.15111 0.66353 0.93506 0.0
H1087 H 0.14772 0.6683 0.96564 0.0
C1088 C 0.56728 0.97256 0.39007 0.0
C1089 C 0.57298 0.9598 0.37537 0.0
C1090 C 0.55161 0.98378 0.3906 0.0
C1091 C 0.51188 0.98217 0.36728 0.0
H1092 H 0.50215 0.04408 0.39577 0.0
C1093 C 0.446 0.02237 0.37398 0.0
C1094 C 0.44367 0.05058 0.37596 0.0
C1095 C 0.4616 0.01094 0.37481 0.0
C1096 C 0.50461 0.02699 0.38754 0.0
H1097 H 0.56711 0.94985 0.34949 0.0
H1098 H 0.54027 0.97051 0.35003 0.0
H1099 H 0.52965 0.02661 0.39463 0.0
H1100 H 0.45625 0.08858 0.38106 0.0
H1101 H 0.48318 0.06915 0.38139 0.0
H1102 H 0.48709 0.98349 0.35944 0.0
C1103 C 0.54745 0.97097 0.36146 0.0
C1104 C 0.52045 0.01659 0.38712 0.0
C1105 C 0.56295 0.95934 0.36105 0.0
C1106 C 0.45743 0.06688 0.37904 0.0
C1107 C 0.473 0.05556 0.37958 0.0
C1108 C 0.49612 0.99285 0.36748 0.0
C1109 C 0.54137 0.98293 0.37633 0.0
C1110 C 0.52438 0.99404 0.37694 0.0
C1111 C 0.47539 0.0274 0.37743 0.0
C1112 C 0.4922 0.01549 0.37759 0.0
H1113 H 0.57471 0.97295 0.40134 0.0
H1114 H 0.54742 0.9924 0.40239 0.0
H1115 H 0.51418 0.96444 0.35954 0.0
H1116 H 0.43583 0.00903 0.37147 0.0
H1117 H 0.46277 0.98912 0.37341 0.0
C1118 C 0.45394 0.95642 0.1488 0.0
C1119 C 0.4436 0.95734 0.13472 0.0
C1120 C 0.46953 0.96771 0.14811 0.0
C1121 C 0.49602 0.0138 0.1222 0.0
H1122 H 0.53005 0.98038 0.14882 0.0
C1123 C 0.55915 0.06419 0.12892 0.0
C1124 C 0.57302 0.04787 0.13137 0.0
C1125 C 0.54358 0.05283 0.12881 0.0
C1126 C 0.52082 0.98983 0.14107 0.0
H1127 H 0.44153 0.97082 0.10883 0.0
H1128 H 0.46889 0.98969 0.10731 0.0
H1129 H 0.50295 0.96124 0.14928 0.0
H1130 H 0.58103 0.00626 0.13526 0.0
H1131 H 0.55405 0.98631 0.13411 0.0
H1132 H 0.51407 0.04152 0.11331 0.0
C1133 C 0.46488 0.98098 0.11913 0.0
C1134 C 0.50507 0.97909 0.14159 0.0
C1135 C 0.44916 0.97007 0.11995 0.0
C1136 C 0.57077 0.01961 0.13322 0.0
C1137 C 0.55516 0.00816 0.13284 0.0
C1138 C 0.51183 0.02428 0.12147 0.0
C1139 C 0.47538 0.97986 0.13318 0.0
C1140 C 0.49234 0.99104 0.1323 0.0
C1141 C 0.54127 0.02462 0.1308 0.0
C1142 C 0.52448 0.01266 0.13103 0.0
H1143 H 0.44993 0.94699 0.16043 0.0
H1144 H 0.47694 0.96699 0.15937 0.0
H1145 H 0.48665 0.02391 0.11498 0.0
H1146 H 0.56024 0.08593 0.12705 0.0
H1147 H 0.53333 0.06642 0.12745 0.0
C1148 C 0.57133 0.98021 0.63813 0.0
C1149 C 0.57473 0.95671 0.62868 0.0
C1150 C 0.55564 0.99127 0.63825 0.0
C1151 C 0.51684 0.99321 0.61498 0.0
H1152 H 0.49799 0.00867 0.65875 0.0
C1153 C 0.449 0.02275 0.62208 0.0
C1154 C 0.44522 0.04293 0.63405 0.0
C1155 C 0.46458 0.01125 0.62147 0.0
C1156 C 0.50308 0.00487 0.64638 0.0
H1157 H 0.56464 0.92713 0.61133 0.0
H1158 H 0.53737 0.94668 0.6113 0.0
H1159 H 0.52593 0.99283 0.65691 0.0
H1160 H 0.45476 0.06566 0.65534 0.0
H1161 H 0.48183 0.04669 0.65384 0.0
H1162 H 0.49416 0.00577 0.60437 0.0
C1163 C 0.54675 0.95646 0.61871 0.0
C1164 C 0.51913 0.99575 0.64535 0.0
C1165 C 0.56233 0.9452 0.61879 0.0
C1166 C 0.45726 0.05061 0.6457 0.0
C1167 C 0.47281 0.03935 0.645 0.0
C1168 C 0.50082 0.00267 0.61598 0.0
C1169 C 0.54313 0.9793 0.6287 0.0
C1170 C 0.5262 0.98981 0.62966 0.0
C1171 C 0.47679 0.01969 0.63278 0.0
C1172 C 0.4937 0.00868 0.6317 0.0
H1173 H 0.58062 0.98939 0.64595 0.0
H1174 H 0.55325 0.00905 0.64595 0.0
H1175 H 0.52199 0.98895 0.60269 0.0
H1176 H 0.44007 0.01637 0.61287 0.0
H1177 H 0.46705 0.99582 0.61206 0.0
C1178 C 0.56249 0.0568 0.88873 0.0
C1179 C 0.57475 0.04561 0.87852 0.0
C1180 C 0.54691 0.04552 0.8889 0.0
C1181 C 0.5189 0.0075 0.86212 0.0
H1182 H 0.49459 0.99533 0.90331 0.0
C1183 C 0.45696 0.95296 0.86162 0.0
C1184 C 0.44513 0.95985 0.87371 0.0
C1185 C 0.47252 0.96413 0.8623 0.0
C1186 C 0.50106 0.99904 0.89165 0.0
H1187 H 0.58042 0.01351 0.86076 0.0
H1188 H 0.55304 0.99386 0.8609 0.0
H1189 H 0.52244 0.01205 0.90485 0.0
H1190 H 0.4404 0.98499 0.89565 0.0
H1191 H 0.46739 0.00548 0.89641 0.0
H1192 H 0.49754 0.99537 0.84884 0.0
C1193 C 0.55554 0.01136 0.8688 0.0
C1194 C 0.51709 0.00843 0.89256 0.0
C1195 C 0.57123 0.02242 0.86882 0.0
C1196 C 0.44915 0.97922 0.8861 0.0
C1197 C 0.46474 0.99067 0.88668 0.0
C1198 C 0.50282 0.99848 0.86119 0.0
C1199 C 0.54316 0.02302 0.87868 0.0
C1200 C 0.52622 0.01258 0.87781 0.0
C1201 C 0.47674 0.98297 0.87492 0.0
C1202 C 0.49368 0.99389 0.87594 0.0
H1203 H 0.56489 0.07465 0.89636 0.0
H1204 H 0.53763 0.05504 0.89658 0.0
H1205 H 0.52552 0.01101 0.85052 0.0
H1206 H 0.45427 0.93857 0.85165 0.0
H1207 H 0.48136 0.95736 0.85311 0.0
C1208 C 0.95322 0.54642 0.35989 0.0
C1209 C 0.943 0.54577 0.37408 0.0
C1210 C 0.96885 0.53526 0.36055 0.0
C1211 C 0.99561 0.48983 0.38657 0.0
H1212 H 0.02942 0.52302 0.35955 0.0
C1213 C 0.0588 0.43967 0.37968 0.0
C1214 C 0.07262 0.45606 0.37717 0.0
C1215 C 0.0432 0.45094 0.37981 0.0
C1216 C 0.02025 0.51364 0.3674 0.0
H1217 H 0.94119 0.53292 0.40012 0.0
H1218 H 0.9686 0.51425 0.40155 0.0
H1219 H 1.00227 0.542 0.35913 0.0
H1220 H 0.08053 0.49769 0.37317 0.0
H1221 H 0.0535 0.51749 0.37431 0.0
H1222 H 0.01377 0.46232 0.3955 0.0
C1223 C 0.96447 0.52266 0.38969 0.0
C1224 C 1.00447 0.52428 0.36691 0.0
C1225 C 0.94872 0.53345 0.38892 0.0
C1226 C 0.0703 0.4843 0.37527 0.0
C1227 C 0.05467 0.49565 0.37564 0.0
C1228 C 0.01144 0.47943 0.38726 0.0
C1229 C 0.97485 0.5235 0.37553 0.0
C1230 C 0.99183 0.51241 0.37636 0.0
C1231 C 0.04083 0.47912 0.37776 0.0
C1232 C 0.02402 0.49098 0.37756 0.0
H1233 H 0.94908 0.55551 0.34821 0.0
H1234 H 0.97617 0.53576 0.34922 0.0
H1235 H 0.9863 0.47979 0.39391 0.0
H1236 H 0.05995 0.41794 0.38158 0.0
H1237 H 0.03298 0.4373 0.38124 0.0
C1238 C 0.06274 0.54596 0.14667 0.0
C1239 C 0.07301 0.54472 0.13254 0.0
C1240 C 0.04724 0.53435 0.14621 0.0
C1241 C 0.02066 0.48736 0.12105 0.0
H1242 H 0.98684 0.52201 0.14738 0.0
C1243 C 0.95742 0.43771 0.12896 0.0
C1244 C 0.94363 0.45424 0.13136 0.0
C1245 C 0.97302 0.44893 0.12851 0.0
C1246 C 0.996 0.5122 0.13971 0.0
H1247 H 0.07515 0.5302 0.10688 0.0
H1248 H 0.04787 0.51076 0.10575 0.0
H1249 H 0.01394 0.54102 0.14738 0.0
H1250 H 0.93578 0.49605 0.13477 0.0
H1251 H 0.96278 0.51572 0.133 0.0
H1252 H 1.0025 0.45942 0.11266 0.0
C1253 C 0.05187 0.52 0.11742 0.0
C1254 C 0.01176 0.52287 0.13998 0.0
C1255 C 0.06753 0.53122 0.11801 0.0
C1256 C 0.94598 0.48253 0.13278 0.0
C1257 C 0.9616 0.49383 0.13205 0.0
C1258 C 1.00482 0.47696 0.12056 0.0
C1259 C 0.04139 0.52161 0.13148 0.0
C1260 C 0.02442 0.51047 0.1308 0.0
C1261 C 0.97542 0.47718 0.13009 0.0
C1262 C 0.99224 0.48902 0.13002 0.0
H1263 H 0.06672 0.55601 0.15811 0.0
H1264 H 0.03987 0.53541 0.1575 0.0
H1265 H 0.02998 0.47694 0.11392 0.0
H1266 H 0.95625 0.41592 0.12739 0.0
H1267 H 0.98322 0.43521 0.12722 0.0
C1268 C 0.94825 0.51994 0.6384 0.0
C1269 C 0.94501 0.54395 0.6294 0.0
C1270 C 0.96392 0.50881 0.6385 0.0
C1271 C 1.003 0.5079 0.61574 0.0
H1272 H 0.0213 0.49025 0.65942 0.0
C1273 C 0.0707 0.47762 0.62315 0.0
C1274 C 0.07429 0.45688 0.6348 0.0
C1275 C 0.05515 0.48924 0.62255 0.0
C1276 C 0.01637 0.49466 0.64707 0.0
H1277 H 0.95536 0.57441 0.61283 0.0
H1278 H 0.9826 0.55474 0.61275 0.0
H1279 H 0.9934 0.50626 0.65753 0.0
H1280 H 0.06443 0.43325 0.65555 0.0
H1281 H 0.03743 0.45242 0.65402 0.0
H1282 H 0.02579 0.49577 0.60518 0.0
C1283 C 0.97311 0.54461 0.61983 0.0
C1284 C 1.00034 0.50389 0.64601 0.0
C1285 C 0.95754 0.55594 0.61994 0.0
C1286 C 0.06208 0.44875 0.64615 0.0
C1287 C 0.04657 0.46012 0.64545 0.0
C1288 C 0.01899 0.49832 0.61675 0.0
C1289 C 0.97657 0.52123 0.62937 0.0
C1290 C 0.99346 0.51061 0.63034 0.0
C1291 C 0.04278 0.48036 0.63354 0.0
C1292 C 0.02591 0.49152 0.63244 0.0
H1293 H 0.93885 0.51039 0.64589 0.0
H1294 H 0.96619 0.49062 0.64585 0.0
H1295 H 0.998 0.51278 0.60346 0.0
H1296 H 0.07975 0.48436 0.61418 0.0
H1297 H 0.05282 0.50512 0.61339 0.0
C1298 C 0.06234 0.55734 0.88921 0.0
C1299 C 0.07471 0.5462 0.87912 0.0
C1300 C 0.04678 0.54597 0.88927 0.0
C1301 C 0.01909 0.50723 0.86241 0.0
H1302 H 0.99451 0.49563 0.90349 0.0
C1303 C 0.95736 0.45193 0.86188 0.0
C1304 C 0.9454 0.45908 0.87377 0.0
C1305 C 0.97289 0.46325 0.8626 0.0
C1306 C 1.00106 0.49917 0.89186 0.0
H1307 H 0.08058 0.51408 0.86144 0.0
H1308 H 0.05326 0.49424 0.8614 0.0
H1309 H 0.02228 0.5127 0.90512 0.0
H1310 H 0.9404 0.48477 0.89539 0.0
H1311 H 0.96732 0.50546 0.89623 0.0
H1312 H 0.99788 0.49452 0.84905 0.0
C1313 C 0.05565 0.5118 0.86928 0.0
C1314 C 0.01704 0.50878 0.89283 0.0
C1315 C 0.07131 0.52297 0.86942 0.0
C1316 C 0.94925 0.4788 0.886 0.0
C1317 C 0.96481 0.49037 0.88662 0.0
C1318 C 1.00306 0.49797 0.86142 0.0
C1319 C 0.04317 0.52339 0.87905 0.0
C1320 C 0.02627 0.51275 0.87812 0.0
C1321 C 0.97693 0.48246 0.87506 0.0
C1322 C 0.99382 0.49359 0.87613 0.0
H1323 H 0.06465 0.5752 0.89687 0.0
H1324 H 0.03743 0.55545 0.89686 0.0
H1325 H 0.02578 0.51058 0.85083 0.0
H1326 H 0.9548 0.43725 0.85204 0.0
H1327 H 0.98184 0.45631 0.85357 0.0
C1328 C 0.20155 0.30095 0.37449 0.0
C1329 C 0.20379 0.32848 0.37031 0.0
C1330 C 0.21444 0.28244 0.37361 0.0
C1331 C 0.25704 0.27391 0.35718 0.0
H1332 H 0.25704 0.21372 0.38872 0.0
C1333 C 0.30659 0.18957 0.35447 0.0
C1334 C 0.31152 0.17714 0.36966 0.0
C1335 C 0.29329 0.20745 0.35406 0.0
C1336 C 0.25747 0.23055 0.37993 0.0
H1337 H 0.22139 0.35816 0.36186 0.0
H1338 H 0.24414 0.32626 0.36101 0.0
H1339 H 0.23514 0.24639 0.38939 0.0
H1340 H 0.30561 0.17368 0.39629 0.0
H1341 H 0.28341 0.20576 0.39578 0.0
H1342 H 0.27992 0.2589 0.34843 0.0
C1343 C 0.2323 0.3186 0.3645 0.0
C1344 C 0.24461 0.24919 0.38008 0.0
C1345 C 0.21927 0.33703 0.36508 0.0
C1346 C 0.30257 0.18308 0.38436 0.0
C1347 C 0.28949 0.20128 0.384 0.0
C1348 C 0.27009 0.25551 0.35723 0.0
C1349 C 0.23013 0.29096 0.36884 0.0
C1350 C 0.24409 0.27116 0.36867 0.0
C1351 C 0.28458 0.21382 0.36886 0.0
C1352 C 0.27054 0.23345 0.3686 0.0
H1353 H 0.1897 0.29362 0.3783 0.0
H1354 H 0.21199 0.26134 0.37658 0.0
H1355 H 0.25712 0.2902 0.34799 0.0
H1356 H 0.31316 0.18596 0.34287 0.0
H1357 H 0.28984 0.21616 0.34204 0.0
C1358 C 0.71933 0.83489 0.36944 0.0
C1359 C 0.70338 0.8247 0.37038 0.0
C1360 C 0.73275 0.81721 0.36976 0.0
C1361 C 0.74449 0.74573 0.38101 0.0
H1362 H 0.78242 0.76129 0.3538 0.0
C1363 C 0.80273 0.68016 0.38595 0.0
C1364 C 0.81212 0.67566 0.37135 0.0
C1365 C 0.78968 0.69844 0.38583 0.0
C1366 C 0.77188 0.7564 0.36136 0.0
H1367 H 0.68931 0.78757 0.37293 0.0
H1368 H 0.71239 0.75705 0.37283 0.0
H1369 H 0.75953 0.79268 0.35355 0.0
H1370 H 0.81476 0.68715 0.34507 0.0
H1371 H 0.79167 0.71812 0.34468 0.0
H1372 H 0.7565 0.70902 0.38835 0.0
C1373 C 0.71467 0.77872 0.37207 0.0
C1374 C 0.75878 0.77472 0.36142 0.0
C1375 C 0.70132 0.79633 0.37185 0.0
C1376 C 0.80779 0.68974 0.35653 0.0
C1377 C 0.79464 0.70793 0.35639 0.0
C1378 C 0.7575 0.72737 0.38087 0.0
C1379 C 0.73062 0.7888 0.37103 0.0
C1380 C 0.74485 0.76965 0.37122 0.0
C1381 C 0.78541 0.7127 0.37107 0.0
C1382 C 0.77143 0.73236 0.37105 0.0
H1383 H 0.72149 0.85653 0.36819 0.0
H1384 H 0.74481 0.82589 0.36914 0.0
H1385 H 0.73415 0.74116 0.38895 0.0
H1386 H 0.80543 0.66951 0.39757 0.0
H1387 H 0.78309 0.70166 0.39748 0.0
C1388 C 0.20177 0.70715 0.13712 0.0
C1389 C 0.20378 0.67871 0.13804 0.0
C1390 C 0.21516 0.72467 0.13698 0.0
C1391 C 0.25946 0.72781 0.14693 0.0
H1392 H 0.25696 0.79469 0.12116 0.0
C1393 C 0.30885 0.81203 0.15236 0.0
C1394 C 0.31298 0.8267 0.1377 0.0
C1395 C 0.29563 0.79399 0.15244 0.0
C1396 C 0.25802 0.77601 0.12831 0.0
H1397 H 0.22183 0.64665 0.13935 0.0
H1398 H 0.24522 0.67714 0.13855 0.0
H1399 H 0.23449 0.76282 0.12042 0.0
H1400 H 0.3059 0.83405 0.11172 0.0
H1401 H 0.28343 0.80215 0.11168 0.0
H1402 H 0.28326 0.74066 0.15434 0.0
C1403 C 0.23317 0.68594 0.1383 0.0
C1404 C 0.24494 0.75779 0.12809 0.0
C1405 C 0.21971 0.66836 0.13853 0.0
C1406 C 0.30335 0.82293 0.12321 0.0
C1407 C 0.29022 0.8048 0.12325 0.0
C1408 C 0.27261 0.74599 0.14706 0.0
C1409 C 0.2311 0.71441 0.13757 0.0
C1410 C 0.24538 0.73345 0.13746 0.0
C1411 C 0.28615 0.78995 0.13785 0.0
C1412 C 0.2721 0.77044 0.13779 0.0
H1413 H 0.18976 0.71605 0.13641 0.0
H1414 H 0.21294 0.74638 0.13664 0.0
H1415 H 0.26027 0.70949 0.15447 0.0
H1416 H 0.31601 0.81405 0.16374 0.0
H1417 H 0.29281 0.78332 0.16402 0.0
C1418 C 0.71926 0.16837 0.14296 0.0
C1419 C 0.7038 0.17665 0.13749 0.0
C1420 C 0.73224 0.1869 0.14341 0.0
C1421 C 0.74457 0.25577 0.12699 0.0
H1422 H 0.77953 0.24753 0.15924 0.0
C1423 C 0.8025 0.32192 0.12245 0.0
C1424 C 0.8112 0.32858 0.13719 0.0
C1425 C 0.78944 0.30368 0.12291 0.0
C1426 C 0.76979 0.2505 0.15026 0.0
H1427 H 0.68971 0.21116 0.12892 0.0
H1428 H 0.71192 0.2436 0.13039 0.0
H1429 H 0.7568 0.21609 0.15985 0.0
H1430 H 0.81245 0.32101 0.16414 0.0
H1431 H 0.78919 0.2907 0.16511 0.0
H1432 H 0.75704 0.29094 0.11797 0.0
C1433 C 0.71439 0.22263 0.13366 0.0
C1434 C 0.75679 0.23202 0.15042 0.0
C1435 C 0.70154 0.20402 0.13293 0.0
C1436 C 0.80607 0.31682 0.1525 0.0
C1437 C 0.7928 0.29889 0.15301 0.0
C1438 C 0.7574 0.27447 0.12702 0.0
C1439 C 0.73005 0.21437 0.13869 0.0
C1440 C 0.74396 0.23425 0.13873 0.0
C1441 C 0.78433 0.29179 0.13819 0.0
C1442 C 0.77033 0.2721 0.13856 0.0
H1443 H 0.72141 0.14737 0.14647 0.0
H1444 H 0.74407 0.17943 0.14712 0.0
H1445 H 0.7352 0.25814 0.11754 0.0
H1446 H 0.80571 0.33078 0.11041 0.0
H1447 H 0.78355 0.29863 0.11112 0.0
C1448 C 0.70768 0.80393 0.65232 0.0
C1449 C 0.70576 0.82455 0.64013 0.0
C1450 C 0.72096 0.78617 0.65184 0.0
C1451 C 0.75423 0.76177 0.62321 0.0
H1452 H 0.77069 0.73008 0.66462 0.0
C1453 C 0.81493 0.70175 0.62821 0.0
C1454 C 0.81441 0.67677 0.63686 0.0
C1455 C 0.80146 0.71914 0.62809 0.0
C1456 C 0.76614 0.7386 0.65294 0.0
H1457 H 0.71694 0.84273 0.61805 0.0
H1458 H 0.74051 0.813 0.61784 0.0
H1459 H 0.74854 0.76283 0.66583 0.0
H1460 H 0.79933 0.65041 0.65212 0.0
H1461 H 0.77584 0.68121 0.65227 0.0
H1462 H 0.77245 0.73816 0.6105 0.0
C1463 C 0.73139 0.80985 0.62747 0.0
C1464 C 0.75334 0.75737 0.65358 0.0
C1465 C 0.71793 0.82737 0.62777 0.0
C1466 C 0.80005 0.66946 0.64528 0.0
C1467 C 0.78666 0.68714 0.64545 0.0
C1468 C 0.76725 0.7434 0.62262 0.0
C1469 C 0.73303 0.7887 0.63937 0.0
C1470 C 0.74707 0.76918 0.63871 0.0
C1471 C 0.78725 0.71223 0.63689 0.0
C1472 C 0.77328 0.73149 0.63747 0.0
H1473 H 0.69888 0.80129 0.66232 0.0
H1474 H 0.7215 0.77008 0.66115 0.0
H1475 H 0.74966 0.7698 0.61142 0.0
H1476 H 0.82581 0.70787 0.62155 0.0
H1477 H 0.80231 0.73836 0.62145 0.0
C1478 C 0.21776 0.32673 0.62794 0.0
C1479 C 0.20559 0.32373 0.64028 0.0
C1480 C 0.2312 0.30918 0.62752 0.0
C1481 C 0.25307 0.2561 0.65327 0.0
H1482 H 0.27205 0.23741 0.61004 0.0
C1483 C 0.29962 0.16809 0.64453 0.0
C1484 C 0.31397 0.17545 0.63612 0.0
C1485 C 0.28624 0.18579 0.64476 0.0
C1486 C 0.26689 0.2425 0.62221 0.0
H1487 H 0.19871 0.30015 0.66234 0.0
H1488 H 0.22129 0.26889 0.66096 0.0
H1489 H 0.24938 0.26926 0.6112 0.0
H1490 H 0.32536 0.20661 0.62084 0.0
H1491 H 0.30188 0.23712 0.62085 0.0
H1492 H 0.27035 0.22848 0.66411 0.0
C1493 C 0.22076 0.28513 0.65176 0.0
C1494 C 0.25394 0.26099 0.62293 0.0
C1495 C 0.20751 0.30292 0.65236 0.0
C1496 C 0.31448 0.20045 0.62749 0.0
C1497 C 0.30102 0.21786 0.62743 0.0
C1498 C 0.2658 0.23723 0.65249 0.0
C1499 C 0.23282 0.28781 0.63929 0.0
C1500 C 0.24682 0.26821 0.63849 0.0
C1501 C 0.28683 0.21093 0.63627 0.0
C1502 C 0.2729 0.23028 0.63697 0.0
H1503 H 0.21677 0.34227 0.61832 0.0
H1504 H 0.24031 0.31244 0.6179 0.0
H1505 H 0.24831 0.26142 0.66556 0.0
H1506 H 0.29892 0.14903 0.65136 0.0
H1507 H 0.27543 0.17984 0.6516 0.0
C1508 C 0.70718 0.19996 0.85552 0.0
C1509 C 0.70523 0.17934 0.86771 0.0
C1510 C 0.7204 0.21782 0.8561 0.0
C1511 C 0.75336 0.24255 0.885 0.0
H1512 H 0.77031 0.27381 0.84369 0.0
C1513 C 0.81416 0.30226 0.88075 0.0
C1514 C 0.81395 0.32693 0.87175 0.0
C1515 C 0.80062 0.28505 0.88078 0.0
C1516 C 0.76561 0.26543 0.85535 0.0
H1517 H 0.71628 0.16129 0.8899 0.0
H1518 H 0.73974 0.19122 0.89031 0.0
H1519 H 0.74813 0.24112 0.84233 0.0
H1520 H 0.79933 0.35295 0.85579 0.0
H1521 H 0.77569 0.32248 0.85553 0.0
H1522 H 0.77143 0.26625 0.89786 0.0
C1523 C 0.7307 0.19427 0.88059 0.0
C1524 C 0.7528 0.24669 0.85462 0.0
C1525 C 0.7173 0.17665 0.88018 0.0
C1526 C 0.7998 0.33415 0.86292 0.0
C1527 C 0.78634 0.31664 0.86267 0.0
C1528 C 0.76637 0.26092 0.88568 0.0
C1529 C 0.73238 0.21541 0.86868 0.0
C1530 C 0.74638 0.235 0.86944 0.0
C1531 C 0.78663 0.29183 0.87155 0.0
C1532 C 0.7726 0.27267 0.87087 0.0
H1533 H 0.69844 0.20251 0.84545 0.0
H1534 H 0.72099 0.23388 0.84678 0.0
H1535 H 0.74866 0.23462 0.89676 0.0
H1536 H 0.82487 0.29621 0.88773 0.0
H1537 H 0.80125 0.26604 0.88767 0.0
C1538 C 0.20759 0.69934 0.85568 0.0
C1539 C 0.20536 0.67937 0.86822 0.0
C1540 C 0.22075 0.71732 0.85626 0.0
C1541 C 0.2528 0.74391 0.8856 0.0
H1542 H 0.2709 0.77289 0.84418 0.0
C1543 C 0.31358 0.80373 0.882 0.0
C1544 C 0.31365 0.82778 0.87237 0.0
C1545 C 0.30005 0.78649 0.882 0.0
C1546 C 0.26588 0.76516 0.85586 0.0
H1547 H 0.21586 0.66259 0.89108 0.0
H1548 H 0.23923 0.69272 0.89155 0.0
H1549 H 0.24884 0.73999 0.84284 0.0
H1550 H 0.29952 0.85269 0.8553 0.0
H1551 H 0.27591 0.82217 0.85501 0.0
H1552 H 0.27042 0.76849 0.8985 0.0
C1553 C 0.23045 0.69518 0.88152 0.0
C1554 C 0.25314 0.7463 0.85514 0.0
C1555 C 0.2171 0.67743 0.88108 0.0
C1556 C 0.29978 0.83438 0.8629 0.0
C1557 C 0.28633 0.81683 0.86265 0.0
C1558 C 0.26574 0.76242 0.88629 0.0
C1559 C 0.23239 0.71567 0.86923 0.0
C1560 C 0.24631 0.73542 0.87 0.0
C1561 C 0.28636 0.79261 0.87214 0.0
C1562 C 0.27239 0.77335 0.87144 0.0
H1563 H 0.1991 0.70129 0.84532 0.0
H1564 H 0.22156 0.73288 0.84664 0.0
H1565 H 0.24777 0.73662 0.89737 0.0
H1566 H 0.32408 0.79816 0.88947 0.0
H1567 H 0.30049 0.76793 0.88937 0.0
C1568 C 0.39032 0.04269 0.31439 0.0
C1569 C 0.38033 0.06578 0.31523 0.0
C1570 C 0.39153 0.02759 0.29942 0.0
C1571 C 0.38331 0.03057 0.25317 0.0
H1572 H 0.38381 0.95185 0.25654 0.0
C1573 C 0.3907 0.96195 0.1941 0.0
C1574 C 0.38093 0.93859 0.19325 0.0
C1575 C 0.39178 0.97704 0.20908 0.0
C1576 C 0.38361 0.9738 0.25534 0.0
H1577 H 0.36341 0.09082 0.3013 0.0
H1578 H 0.36556 0.06472 0.2751 0.0
H1579 H 0.38336 0.97936 0.28215 0.0
H1580 H 0.36429 0.91305 0.20718 0.0
H1581 H 0.36623 0.93913 0.23341 0.0
H1582 H 0.38312 0.025 0.22636 0.0
C1583 C 0.3728 0.05852 0.28583 0.0
C1584 C 0.38355 0.98963 0.27006 0.0
C1585 C 0.37157 0.07356 0.30082 0.0
C1586 C 0.37229 0.93053 0.20767 0.0
C1587 C 0.37338 0.94556 0.22267 0.0
C1588 C 0.38341 0.01473 0.23844 0.0
C1589 C 0.38267 0.03513 0.28495 0.0
C1590 C 0.3833 0.01826 0.26921 0.0
C1591 C 0.38302 0.96922 0.22355 0.0
C1592 C 0.38347 0.9861 0.2393 0.0
H1593 H 0.39699 0.03607 0.32543 0.0
H1594 H 0.39938 0.00991 0.29922 0.0
H1595 H 0.38328 0.05252 0.25197 0.0
H1596 H 0.39728 0.96879 0.18306 0.0
H1597 H 0.39945 0.99493 0.20929 0.0
C1598 C 0.62444 0.0532 0.19736 0.0
C1599 C 0.63941 0.06225 0.19109 0.0
C1600 C 0.62362 0.03909 0.21275 0.0
C1601 C 0.64827 0.02214 0.25134 0.0
H1602 H 0.61734 0.96311 0.25581 0.0
C1603 C 0.6534 0.94111 0.30382 0.0
C1604 C 0.63936 0.93679 0.3135 0.0
C1605 C 0.65268 0.95617 0.28885 0.0
C1606 C 0.62598 0.97963 0.25477 0.0
H1607 H 0.66512 0.06499 0.19622 0.0
H1608 H 0.66395 0.03958 0.22255 0.0
H1609 H 0.61743 0.99082 0.23023 0.0
H1610 H 0.61343 0.94338 0.31469 0.0
H1611 H 0.61204 0.9691 0.28811 0.0
H1612 H 0.65716 0.01018 0.27566 0.0
C1613 C 0.6527 0.04355 0.21595 0.0
C1614 C 0.62599 0.99572 0.24013 0.0
C1615 C 0.65345 0.05793 0.20074 0.0
C1616 C 0.62442 0.94652 0.30744 0.0
C1617 C 0.62365 0.96121 0.29228 0.0
C1618 C 0.64843 0.00579 0.2658 0.0
C1619 C 0.63779 0.03362 0.22217 0.0
C1620 C 0.63721 0.01716 0.23812 0.0
C1621 C 0.63784 0.96674 0.28302 0.0
C1622 C 0.63736 0.98426 0.26766 0.0
H1623 H 0.61343 0.05661 0.1902 0.0
H1624 H 0.61186 0.03244 0.2172 0.0
H1625 H 0.65683 0.03879 0.25061 0.0
H1626 H 0.66503 0.93355 0.30816 0.0
H1627 H 0.66378 0.95975 0.28187 0.0
C1628 C 0.62719 0.04463 0.81301 0.0
C1629 C 0.6369 0.06809 0.81342 0.0
C1630 C 0.62599 0.029 0.79827 0.0
C1631 C 0.63404 0.03006 0.7519 0.0
H1632 H 0.63414 0.95155 0.75691 0.0
C1633 C 0.62727 0.95871 0.69415 0.0
C1634 C 0.63709 0.93538 0.69372 0.0
C1635 C 0.62603 0.97436 0.70888 0.0
C1636 C 0.63419 0.97343 0.75524 0.0
H1637 H 0.65294 0.09372 0.79886 0.0
H1638 H 0.65094 0.06651 0.77303 0.0
H1639 H 0.63446 0.98042 0.7819 0.0
H1640 H 0.65329 0.90997 0.70826 0.0
H1641 H 0.65124 0.93721 0.73407 0.0
H1642 H 0.63429 0.02306 0.72523 0.0
C1643 C 0.64398 0.06032 0.78397 0.0
C1644 C 0.63416 0.99006 0.76962 0.0
C1645 C 0.64515 0.07597 0.79873 0.0
C1646 C 0.64543 0.92764 0.70839 0.0
C1647 C 0.64422 0.94329 0.72315 0.0
C1648 C 0.63407 0.01343 0.73751 0.0
C1649 C 0.63457 0.03635 0.78359 0.0
C1650 C 0.63414 0.01864 0.76818 0.0
C1651 C 0.63469 0.96713 0.72355 0.0
C1652 C 0.63421 0.98484 0.73895 0.0
H1653 H 0.62083 0.03805 0.82426 0.0
H1654 H 0.61842 0.01099 0.79845 0.0
H1655 H 0.63387 0.05193 0.75023 0.0
H1656 H 0.62084 0.96518 0.68292 0.0
H1657 H 0.61838 0.99227 0.70872 0.0
C1658 C 0.37322 0.9274 0.79939 0.0
C1659 C 0.38178 0.93496 0.81396 0.0
C1660 C 0.37452 0.94286 0.78457 0.0
C1661 C 0.38509 0.01258 0.77005 0.0
H1662 H 0.38441 0.97949 0.72568 0.0
C1663 C 0.37367 0.07476 0.70876 0.0
C1664 C 0.38199 0.06692 0.6941 0.0
C1665 C 0.37492 0.05923 0.72356 0.0
C1666 C 0.38478 0.98913 0.73796 0.0
H1667 H 0.39852 0.96423 0.82452 0.0
H1668 H 0.4011 0.99101 0.79862 0.0
H1669 H 0.38469 0.95066 0.7507 0.0
H1670 H 0.39825 0.03706 0.68335 0.0
H1671 H 0.40074 0.01015 0.70921 0.0
H1672 H 0.38533 0.05105 0.75731 0.0
C1673 C 0.39323 0.97336 0.79858 0.0
C1674 C 0.38474 0.97253 0.75235 0.0
C1675 C 0.39193 0.95788 0.81336 0.0
C1676 C 0.39185 0.04362 0.69458 0.0
C1677 C 0.3931 0.02808 0.70934 0.0
C1678 C 0.3851 0.02918 0.75566 0.0
C1679 C 0.38434 0.96635 0.78403 0.0
C1680 C 0.38484 0.984 0.76862 0.0
C1681 C 0.38444 0.03538 0.72398 0.0
C1682 C 0.38489 0.01772 0.73939 0.0
H1683 H 0.36509 0.91008 0.79966 0.0
H1684 H 0.36733 0.93697 0.77373 0.0
H1685 H 0.38497 0.02223 0.78234 0.0
H1686 H 0.36576 0.09237 0.70859 0.0
H1687 H 0.36792 0.06536 0.73448 0.0
C1688 C 0.89232 0.44957 0.19802 0.0
C1689 C 0.87726 0.4407 0.19181 0.0
C1690 C 0.89325 0.46409 0.21326 0.0
C1691 C 0.86881 0.50922 0.23995 0.0
H1692 H 0.89938 0.49262 0.27565 0.0
C1693 C 0.86349 0.55972 0.30551 0.0
C1694 C 0.87745 0.5636 0.31535 0.0
C1695 C 0.86431 0.54565 0.29018 0.0
C1696 C 0.89095 0.49796 0.26572 0.0
H1697 H 0.85154 0.4384 0.19708 0.0
H1698 H 0.85305 0.46425 0.22346 0.0
H1699 H 0.89946 0.46554 0.24978 0.0
H1700 H 0.90338 0.55744 0.31646 0.0
H1701 H 0.90508 0.53378 0.28928 0.0
H1702 H 0.86052 0.54199 0.25543 0.0
C1703 C 0.86413 0.46033 0.21651 0.0
C1704 C 0.89095 0.48226 0.25091 0.0
C1705 C 0.86326 0.44549 0.20146 0.0
C1706 C 0.89242 0.55437 0.30916 0.0
C1707 C 0.89331 0.54057 0.29366 0.0
C1708 C 0.86897 0.52517 0.25459 0.0
C1709 C 0.87909 0.47018 0.22248 0.0
C1710 C 0.87971 0.48745 0.23796 0.0
C1711 C 0.87921 0.5356 0.28402 0.0
C1712 C 0.87985 0.51958 0.26787 0.0
H1713 H 0.90329 0.44589 0.19084 0.0
H1714 H 0.90495 0.47135 0.21755 0.0
H1715 H 0.8602 0.51406 0.23008 0.0
H1716 H 0.85182 0.56691 0.30996 0.0
H1717 H 0.8531 0.54206 0.28341 0.0
C1718 C 0.15313 0.4474 0.30783 0.0
C1719 C 0.13906 0.44282 0.3174 0.0
C1720 C 0.15241 0.46233 0.29282 0.0
C1721 C 0.12587 0.48486 0.25841 0.0
H1722 H 0.15636 0.54458 0.25438 0.0
C1723 C 0.12434 0.55788 0.2008 0.0
C1724 C 0.13926 0.56745 0.19467 0.0
C1725 C 0.12352 0.54383 0.21619 0.0
C1726 C 0.14791 0.52777 0.25508 0.0
H1727 H 0.11306 0.44846 0.31831 0.0
H1728 H 0.11165 0.47408 0.29166 0.0
H1729 H 0.15657 0.51627 0.27956 0.0
H1730 H 0.16491 0.57073 0.19997 0.0
H1731 H 0.16374 0.54541 0.22636 0.0
H1732 H 0.11756 0.49557 0.2337 0.0
C1733 C 0.12329 0.46658 0.29597 0.0
C1734 C 0.14799 0.5116 0.26962 0.0
C1735 C 0.12408 0.45198 0.31118 0.0
C1736 C 0.15327 0.56345 0.20443 0.0
C1737 C 0.15252 0.54908 0.21966 0.0
C1738 C 0.12596 0.50076 0.2437 0.0
C1739 C 0.13752 0.47248 0.28683 0.0
C1740 C 0.13705 0.48987 0.27143 0.0
C1741 C 0.13765 0.53879 0.22575 0.0
C1742 C 0.13705 0.52241 0.24174 0.0
H1743 H 0.16479 0.44012 0.31226 0.0
H1744 H 0.16353 0.46612 0.28592 0.0
H1745 H 0.11735 0.46815 0.2594 0.0
H1746 H 0.11336 0.56089 0.19353 0.0
H1747 H 0.11178 0.53686 0.22053 0.0
C1748 C 0.14508 0.57533 0.79964 0.0
C1749 C 0.1369 0.56756 0.81439 0.0
C1750 C 0.14389 0.55953 0.78494 0.0
C1751 C 0.13419 0.48905 0.77093 0.0
H1752 H 0.13405 0.5216 0.72641 0.0
C1753 C 0.1455 0.42619 0.70988 0.0
C1754 C 0.1371 0.43374 0.69521 0.0
C1755 C 0.14425 0.44193 0.7246 0.0
C1756 C 0.1339 0.51209 0.73873 0.0
H1757 H 0.12093 0.53755 0.82542 0.0
H1758 H 0.11849 0.51019 0.79973 0.0
H1759 H 0.13364 0.55072 0.75128 0.0
H1760 H 0.1207 0.46327 0.68435 0.0
H1761 H 0.11816 0.49049 0.71009 0.0
H1762 H 0.13423 0.45042 0.75837 0.0
C1763 C 0.12602 0.52824 0.79945 0.0
C1764 C 0.13388 0.52887 0.75304 0.0
C1765 C 0.12724 0.54404 0.81412 0.0
C1766 C 0.12717 0.45694 0.69559 0.0
C1767 C 0.12589 0.47267 0.71028 0.0
C1768 C 0.13421 0.47227 0.75661 0.0
C1769 C 0.13453 0.53549 0.7847 0.0
C1770 C 0.13408 0.51762 0.76937 0.0
C1771 C 0.13462 0.46567 0.72494 0.0
C1772 C 0.13413 0.48352 0.74028 0.0
H1773 H 0.15283 0.59314 0.79966 0.0
H1774 H 0.15079 0.56564 0.77396 0.0
H1775 H 0.13456 0.47955 0.78324 0.0
H1776 H 0.15346 0.40864 0.70977 0.0
H1777 H 0.15132 0.43602 0.73551 0.0
C1778 C 0.87403 0.57493 0.70857 0.0
C1779 C 0.88234 0.56703 0.69391 0.0
C1780 C 0.87523 0.55939 0.72337 0.0
C1781 C 0.885 0.48926 0.7378 0.0
H1782 H 0.88511 0.52239 0.78217 0.0
C1783 C 0.87343 0.42743 0.79918 0.0
C1784 C 0.88195 0.435 0.81377 0.0
C1785 C 0.87472 0.44295 0.78438 0.0
C1786 C 0.88525 0.51273 0.76989 0.0
H1787 H 0.89855 0.53708 0.68318 0.0
H1788 H 0.90097 0.51017 0.70904 0.0
H1789 H 0.88553 0.55119 0.75714 0.0
H1790 H 0.8986 0.46437 0.82439 0.0
H1791 H 0.90115 0.49123 0.79853 0.0
H1792 H 0.88489 0.45079 0.75054 0.0
C1793 C 0.89336 0.52813 0.70916 0.0
C1794 C 0.8853 0.52931 0.75549 0.0
C1795 C 0.89215 0.54368 0.6944 0.0
C1796 C 0.89203 0.45802 0.81322 0.0
C1797 C 0.89332 0.47354 0.79846 0.0
C1798 C 0.88493 0.47267 0.75219 0.0
C1799 C 0.88471 0.5355 0.72381 0.0
C1800 C 0.88512 0.51784 0.73922 0.0
C1801 C 0.88448 0.4665 0.78388 0.0
C1802 C 0.88501 0.48414 0.76846 0.0
H1803 H 0.86617 0.5926 0.70839 0.0
H1804 H 0.86823 0.56557 0.73428 0.0
H1805 H 0.88465 0.4796 0.72552 0.0
H1806 H 0.86536 0.41004 0.79941 0.0
H1807 H 0.86757 0.43703 0.77352 0.0
loop_
_geom_bond_atom_site_label_1
_geom_bond_atom_site_label_2
_geom_bond_distance
_geom_bond_site_symmetry_2
_ccdc_geom_bond_type
C0 C1 1.443 . S
C0 N4 1.376 . S
C0 C38 1.389 . S
C1 C0 1.443 . S
C1 C2 1.340 . S
C1 H41 0.951 . S
C2 C1 1.340 . S
C2 C3 1.439 . S
C2 H42 0.950 . S
C3 C2 1.439 . S
C3 N4 1.374 . S
C3 C37 1.395 . S
N4 C0 1.376 . S
N4 C3 1.374 . S
N4 Co5 2.008 . S
Co5 N4 2.008 . S
Co5 N6 1.995 . S
Co5 N11 2.008 . S
Co5 N16 1.995 . S
Co5 N21 2.282 . S
Co5 N27 2.282 . S
N6 Co5 1.995 . S
N6 C7 1.376 . S
N6 C10 1.383 . S
C7 N6 1.376 . S
C7 C8 1.446 . S
C7 C37 1.391 . S
C8 C7 1.446 . S
C8 C9 1.339 . S
C8 H43 0.949 . S
C9 C8 1.339 . S
C9 C10 1.439 . S
C9 H44 0.950 . S
C10 N6 1.383 . S
C10 C9 1.439 . S
C10 C39 1.392 . S
N11 Co5 2.008 . S
N11 C12 1.376 . S
N11 C15 1.374 . S
C12 N11 1.376 . S
C12 C13 1.443 . S
C12 C39 1.389 . S
C13 C12 1.443 . S
C13 C14 1.340 . S
C13 H45 0.951 . S
C14 C13 1.340 . S
C14 C15 1.439 . S
C14 H46 0.950 . S
C15 N11 1.374 . S
C15 C14 1.439 . S
C15 C40 1.395 . S
N16 Co5 1.995 . S
N16 C17 1.376 . S
N16 C20 1.383 . S
C17 N16 1.376 . S
C17 C18 1.446 . S
C17 C40 1.391 . S
C18 C17 1.446 . S
C18 C19 1.339 . S
C18 H47 0.949 . S
C19 C18 1.339 . S
C19 C20 1.439 . S
C19 H48 0.950 . S
C20 N16 1.383 . S
C20 C19 1.439 . S
C20 C38 1.392 . S
N21 Co5 2.282 . S
N21 C24 1.332 . S
N21 C26 1.332 . S
C22 C23 1.386 . S
C22 C25 1.388 . S
C23 C22 1.386 . S
C23 C24 1.382 . S
C23 H49 0.950 . S
C24 N21 1.332 . S
C24 C23 1.382 . S
C24 H35 0.952 . S
C25 C22 1.388 . S
C25 C26 1.382 . S
C25 H50 0.950 . S
C26 N21 1.332 . S
C26 C25 1.382 . S
C26 H36 0.948 . S
N27 Co5 2.282 . S
N27 C31 1.332 . S
N27 C32 1.332 . S
C28 C29 1.388 . S
C28 C32 1.382 . S
C28 H51 0.950 . S
C29 C28 1.388 . S
C29 C30 1.386 . S
C30 C29 1.386 . S
C30 C31 1.382 . S
C30 H52 0.950 . S
C31 N27 1.332 . S
C31 C30 1.382 . S
C31 H33 0.952 . S
C32 N27 1.332 . S
C32 C28 1.382 . S
C32 H34 0.948 . S
H33 C31 0.952 . S
H34 C32 0.948 . S
H35 C24 0.952 . S
H36 C26 0.948 . S
C37 C3 1.395 . S
C37 C7 1.391 . S
C38 C0 1.389 . S
C38 C20 1.392 . S
C39 C10 1.392 . S
C39 C12 1.389 . S
C40 C15 1.395 . S
C40 C17 1.391 . S
H41 C1 0.951 . S
H42 C2 0.950 . S
H43 C8 0.949 . S
H44 C9 0.950 . S
H45 C13 0.951 . S
H46 C14 0.950 . S
H47 C18 0.949 . S
H48 C19 0.950 . S
H49 C23 0.950 . S
H50 C25 0.950 . S
H51 C28 0.950 . S
H52 C30 0.950 . S
C53 C54 1.443 . S
C53 N57 1.376 . S
C53 C91 1.389 . S
C54 C53 1.443 . S
C54 C55 1.340 . S
C54 H94 0.951 . S
C55 C54 1.340 . S
C55 C56 1.439 . S
C55 H95 0.950 . S
C56 C55 1.439 . S
C56 N57 1.374 . S
C56 C90 1.395 . S
N57 C53 1.376 . S
N57 C56 1.374 . S
N57 Co58 2.008 . S
Co58 N57 2.008 . S
Co58 N59 1.995 . S
Co58 N64 2.008 . S
Co58 N69 1.995 . S
Co58 N74 2.282 . S
Co58 N80 2.282 . S
N59 Co58 1.995 . S
N59 C60 1.376 . S
N59 C63 1.383 . S
C60 N59 1.376 . S
C60 C61 1.446 . S
C60 C90 1.391 . S
C61 C60 1.446 . S
C61 C62 1.339 . S
C61 H96 0.949 . S
C62 C61 1.339 . S
C62 C63 1.439 . S
C62 H97 0.950 . S
C63 N59 1.383 . S
C63 C62 1.439 . S
C63 C92 1.392 . S
N64 Co58 2.008 . S
N64 C65 1.376 . S
N64 C68 1.374 . S
C65 N64 1.376 . S
C65 C66 1.443 . S
C65 C92 1.389 . S
C66 C65 1.443 . S
C66 C67 1.340 . S
C66 H98 0.951 . S
C67 C66 1.340 . S
C67 C68 1.439 . S
C67 H99 0.950 . S
C68 N64 1.374 . S
C68 C67 1.439 . S
C68 C93 1.395 . S
N69 Co58 1.995 . S
N69 C70 1.376 . S
N69 C73 1.383 . S
C70 N69 1.376 . S
C70 C71 1.446 . S
C70 C93 1.391 . S
C71 C70 1.446 . S
C71 C72 1.339 . S
C71 H100 0.949 . S
C72 C71 1.339 . S
C72 C73 1.439 . S
C72 H101 0.950 . S
C73 N69 1.383 . S
C73 C72 1.439 . S
C73 C91 1.392 . S
N74 Co58 2.282 . S
N74 C77 1.332 . S
N74 C79 1.332 . S
C75 C76 1.386 . S
C75 C78 1.388 . S
C76 C75 1.386 . S
C76 C77 1.382 . S
C76 H102 0.950 . S
C77 N74 1.332 . S
C77 C76 1.382 . S
C77 H88 0.952 . S
C78 C75 1.388 . S
C78 C79 1.382 . S
C78 H103 0.950 . S
C79 N74 1.332 . S
C79 C78 1.382 . S
C79 H89 0.948 . S
N80 Co58 2.282 . S
N80 C84 1.332 . S
N80 C85 1.332 . S
C81 C82 1.388 . S
C81 C85 1.382 . S
C81 H104 0.950 . S
C82 C81 1.388 . S
C82 C83 1.386 . S
C83 C82 1.386 . S
C83 C84 1.382 . S
C83 H105 0.950 . S
C84 N80 1.332 . S
C84 C83 1.382 . S
C84 H86 0.952 . S
C85 N80 1.332 . S
C85 C81 1.382 . S
C85 H87 0.948 . S
H86 C84 0.952 . S
H87 C85 0.948 . S
H88 C77 0.952 . S
H89 C79 0.948 . S
C90 C56 1.395 . S
C90 C60 1.391 . S
C91 C53 1.389 . S
C91 C73 1.392 . S
C92 C63 1.392 . S
C92 C65 1.389 . S
C93 C68 1.395 . S
C93 C70 1.391 . S
H94 C54 0.951 . S
H95 C55 0.950 . S
H96 C61 0.949 . S
H97 C62 0.950 . S
H98 C66 0.951 . S
H99 C67 0.950 . S
H100 C71 0.949 . S
H101 C72 0.950 . S
H102 C76 0.950 . S
H103 C78 0.950 . S
H104 C81 0.950 . S
H105 C83 0.950 . S
C106 C107 1.443 . S
C106 N110 1.376 . S
C106 C144 1.389 . S
C107 C106 1.443 . S
C107 C108 1.340 . S
C107 H147 0.951 . S
C108 C107 1.340 . S
C108 C109 1.439 . S
C108 H148 0.950 . S
C109 C108 1.439 . S
C109 N110 1.374 . S
C109 C143 1.395 . S
N110 C106 1.376 . S
N110 C109 1.374 . S
N110 Co111 2.008 . S
Co111 N110 2.008 . S
Co111 N112 1.995 . S
Co111 N117 2.008 . S
Co111 N122 1.995 . S
Co111 N127 2.282 . S
Co111 N133 2.282 . S
N112 Co111 1.995 . S
N112 C113 1.376 . S
N112 C116 1.383 . S
C113 N112 1.376 . S
C113 C114 1.446 . S
C113 C143 1.391 . S
C114 C113 1.446 . S
C114 C115 1.339 . S
C114 H149 0.949 . S
C115 C114 1.339 . S
C115 C116 1.439 . S
C115 H150 0.950 . S
C116 N112 1.383 . S
C116 C115 1.439 . S
C116 C145 1.392 . S
N117 Co111 2.008 . S
N117 C118 1.376 . S
N117 C121 1.374 . S
C118 N117 1.376 . S
C118 C119 1.443 . S
C118 C145 1.389 . S
C119 C118 1.443 . S
C119 C120 1.340 . S
C119 H151 0.951 . S
C120 C119 1.340 . S
C120 C121 1.439 . S
C120 H152 0.950 . S
C121 N117 1.374 . S
C121 C120 1.439 . S
C121 C146 1.395 . S
N122 Co111 1.995 . S
N122 C123 1.376 . S
N122 C126 1.383 . S
C123 N122 1.376 . S
C123 C124 1.446 . S
C123 C146 1.391 . S
C124 C123 1.446 . S
C124 C125 1.339 . S
C124 H153 0.949 . S
C125 C124 1.339 . S
C125 C126 1.439 . S
C125 H154 0.950 . S
C126 N122 1.383 . S
C126 C125 1.439 . S
C126 C144 1.392 . S
N127 Co111 2.282 . S
N127 C130 1.332 . S
N127 C132 1.332 . S
C128 C129 1.386 . S
C128 C131 1.388 . S
C129 C128 1.386 . S
C129 C130 1.382 . S
C129 H155 0.950 . S
C130 N127 1.332 . S
C130 C129 1.382 . S
C130 H141 0.952 . S
C131 C128 1.388 . S
C131 C132 1.382 . S
C131 H156 0.950 . S
C132 N127 1.332 . S
C132 C131 1.382 . S
C132 H142 0.948 . S
N133 Co111 2.282 . S
N133 C137 1.332 . S
N133 C138 1.332 . S
C134 C135 1.388 . S
C134 C138 1.382 . S
C134 H157 0.950 . S
C135 C134 1.388 . S
C135 C136 1.386 . S
C136 C135 1.386 . S
C136 C137 1.382 . S
C136 H158 0.950 . S
C137 N133 1.332 . S
C137 C136 1.382 . S
C137 H139 0.952 . S
C138 N133 1.332 . S
C138 C134 1.382 . S
C138 H140 0.948 . S
H139 C137 0.952 . S
H140 C138 0.948 . S
H141 C130 0.952 . S
H142 C132 0.948 . S
C143 C109 1.395 . S
C143 C113 1.391 . S
C144 C106 1.389 . S
C144 C126 1.392 . S
C145 C116 1.392 . S
C145 C118 1.389 . S
C146 C121 1.395 . S
C146 C123 1.391 . S
H147 C107 0.951 . S
H148 C108 0.950 . S
H149 C114 0.949 . S
H150 C115 0.950 . S
H151 C119 0.951 . S
H152 C120 0.950 . S
H153 C124 0.949 . S
H154 C125 0.950 . S
H155 C129 0.950 . S
H156 C131 0.950 . S
H157 C134 0.950 . S
H158 C136 0.950 . S
C159 C160 1.443 . S
C159 N163 1.376 . S
C159 C197 1.389 . S
C160 C159 1.443 . S
C160 C161 1.340 . S
C160 H200 0.951 . S
C161 C160 1.340 . S
C161 C162 1.439 . S
C161 H201 0.950 . S
C162 C161 1.439 . S
C162 N163 1.374 . S
C162 C196 1.395 . S
N163 C159 1.376 . S
N163 C162 1.374 . S
N163 Co164 2.008 . S
Co164 N163 2.008 . S
Co164 N165 1.995 . S
Co164 N170 2.008 . S
Co164 N175 1.995 . S
Co164 N180 2.282 . S
Co164 N186 2.282 . S
N165 Co164 1.995 . S
N165 C166 1.376 . S
N165 C169 1.383 . S
C166 N165 1.376 . S
C166 C167 1.446 . S
C166 C196 1.391 . S
C167 C166 1.446 . S
C167 C168 1.339 . S
C167 H202 0.949 . S
C168 C167 1.339 . S
C168 C169 1.439 . S
C168 H203 0.950 . S
C169 N165 1.383 . S
C169 C168 1.439 . S
C169 C198 1.392 . S
N170 Co164 2.008 . S
N170 C171 1.376 . S
N170 C174 1.374 . S
C171 N170 1.376 . S
C171 C172 1.443 . S
C171 C198 1.389 . S
C172 C171 1.443 . S
C172 C173 1.340 . S
C172 H204 0.951 . S
C173 C172 1.340 . S
C173 C174 1.439 . S
C173 H205 0.950 . S
C174 N170 1.374 . S
C174 C173 1.439 . S
C174 C199 1.395 . S
N175 Co164 1.995 . S
N175 C176 1.376 . S
N175 C179 1.383 . S
C176 N175 1.376 . S
C176 C177 1.446 . S
C176 C199 1.391 . S
C177 C176 1.446 . S
C177 C178 1.339 . S
C177 H206 0.949 . S
C178 C177 1.339 . S
C178 C179 1.439 . S
C178 H207 0.950 . S
C179 N175 1.383 . S
C179 C178 1.439 . S
C179 C197 1.392 . S
N180 Co164 2.282 . S
N180 C183 1.332 . S
N180 C185 1.332 . S
C181 C182 1.386 . S
C181 C184 1.388 . S
C182 C181 1.386 . S
C182 C183 1.382 . S
C182 H208 0.950 . S
C183 N180 1.332 . S
C183 C182 1.382 . S
C183 H194 0.952 . S
C184 C181 1.388 . S
C184 C185 1.382 . S
C184 H209 0.950 . S
C185 N180 1.332 . S
C185 C184 1.382 . S
C185 H195 0.948 . S
N186 Co164 2.282 . S
N186 C190 1.332 . S
N186 C191 1.332 . S
C187 C188 1.388 . S
C187 C191 1.382 . S
C187 H210 0.950 . S
C188 C187 1.388 . S
C188 C189 1.386 . S
C189 C188 1.386 . S
C189 C190 1.382 . S
C189 H211 0.950 . S
C190 N186 1.332 . S
C190 C189 1.382 . S
C190 H192 0.952 . S
C191 N186 1.332 . S
C191 C187 1.382 . S
C191 H193 0.948 . S
H192 C190 0.952 . S
H193 C191 0.948 . S
H194 C183 0.952 . S
H195 C185 0.948 . S
C196 C162 1.395 . S
C196 C166 1.391 . S
C197 C159 1.389 . S
C197 C179 1.392 . S
C198 C169 1.392 . S
C198 C171 1.389 . S
C199 C174 1.395 . S
C199 C176 1.391 . S
H200 C160 0.951 . S
H201 C161 0.950 . S
H202 C167 0.949 . S
H203 C168 0.950 . S
H204 C172 0.951 . S
H205 C173 0.950 . S
H206 C177 0.949 . S
H207 C178 0.950 . S
H208 C182 0.950 . S
H209 C184 0.950 . S
H210 C187 0.950 . S
H211 C189 0.950 . S
C212 C213 1.443 . S
C212 N216 1.376 . S
C212 C250 1.389 . S
C213 C212 1.443 . S
C213 C214 1.340 . S
C213 H253 0.951 . S
C214 C213 1.340 . S
C214 C215 1.439 . S
C214 H254 0.950 . S
C215 C214 1.439 . S
C215 N216 1.374 . S
C215 C249 1.395 . S
N216 C212 1.376 . S
N216 C215 1.374 . S
N216 Co217 2.008 . S
Co217 N216 2.008 . S
Co217 N218 1.995 . S
Co217 N223 2.008 . S
Co217 N228 1.995 . S
Co217 N233 2.282 . S
Co217 N239 2.282 . S
N218 Co217 1.995 . S
N218 C219 1.376 . S
N218 C222 1.383 . S
C219 N218 1.376 . S
C219 C220 1.446 . S
C219 C249 1.391 . S
C220 C219 1.446 . S
C220 C221 1.339 . S
C220 H255 0.949 . S
C221 C220 1.339 . S
C221 C222 1.439 . S
C221 H256 0.950 . S
C222 N218 1.383 . S
C222 C221 1.439 . S
C222 C251 1.392 . S
N223 Co217 2.008 . S
N223 C224 1.376 . S
N223 C227 1.374 . S
C224 N223 1.376 . S
C224 C225 1.443 . S
C224 C251 1.389 . S
C225 C224 1.443 . S
C225 C226 1.340 . S
C225 H257 0.951 . S
C226 C225 1.340 . S
C226 C227 1.439 . S
C226 H258 0.950 . S
C227 N223 1.374 . S
C227 C226 1.439 . S
C227 C252 1.395 . S
N228 Co217 1.995 . S
N228 C229 1.376 . S
N228 C232 1.383 . S
C229 N228 1.376 . S
C229 C230 1.446 . S
C229 C252 1.391 . S
C230 C229 1.446 . S
C230 C231 1.339 . S
C230 H259 0.949 . S
C231 C230 1.339 . S
C231 C232 1.439 . S
C231 H260 0.950 . S
C232 N228 1.383 . S
C232 C231 1.439 . S
C232 C250 1.392 . S
N233 Co217 2.282 . S
N233 C236 1.332 . S
N233 C238 1.332 . S
C234 C235 1.386 . S
C234 C237 1.388 . S
C235 C234 1.386 . S
C235 C236 1.382 . S
C235 H261 0.950 . S
C236 N233 1.332 . S
C236 C235 1.382 . S
C236 H247 0.952 . S
C237 C234 1.388 . S
C237 C238 1.382 . S
C237 H262 0.950 . S
C238 N233 1.332 . S
C238 C237 1.382 . S
C238 H248 0.948 . S
N239 Co217 2.282 . S
N239 C243 1.332 . S
N239 C244 1.332 . S
C240 C241 1.388 . S
C240 C244 1.382 . S
C240 H263 0.950 . S
C241 C240 1.388 . S
C241 C242 1.386 . S
C242 C241 1.386 . S
C242 C243 1.382 . S
C242 H264 0.950 . S
C243 N239 1.332 . S
C243 C242 1.382 . S
C243 H245 0.952 . S
C244 N239 1.332 . S
C244 C240 1.382 . S
C244 H246 0.948 . S
H245 C243 0.952 . S
H246 C244 0.948 . S
H247 C236 0.952 . S
H248 C238 0.948 . S
C249 C215 1.395 . S
C249 C219 1.391 . S
C250 C212 1.389 . S
C250 C232 1.392 . S
C251 C222 1.392 . S
C251 C224 1.389 . S
C252 C227 1.395 . S
C252 C229 1.391 . S
H253 C213 0.951 . S
H254 C214 0.950 . S
H255 C220 0.949 . S
H256 C221 0.950 . S
H257 C225 0.951 . S
H258 C226 0.950 . S
H259 C230 0.949 . S
H260 C231 0.950 . S
H261 C235 0.950 . S
H262 C237 0.950 . S
H263 C240 0.950 . S
H264 C242 0.950 . S
C265 C266 1.443 . S
C265 N269 1.376 . S
C265 C303 1.389 . S
C266 C265 1.443 . S
C266 C267 1.340 . S
C266 H306 0.951 . S
C267 C266 1.340 . S
C267 C268 1.439 . S
C267 H307 0.950 . S
C268 C267 1.439 . S
C268 N269 1.374 . S
C268 C302 1.395 . S
N269 C265 1.376 . S
N269 C268 1.374 . S
N269 Co270 2.008 . S
Co270 N269 2.008 . S
Co270 N271 1.995 . S
Co270 N276 2.008 . S
Co270 N281 1.995 . S
Co270 N286 2.282 . S
Co270 N292 2.282 . S
N271 Co270 1.995 . S
N271 C272 1.376 . S
N271 C275 1.383 . S
C272 N271 1.376 . S
C272 C273 1.446 . S
C272 C302 1.391 . S
C273 C272 1.446 . S
C273 C274 1.339 . S
C273 H308 0.949 . S
C274 C273 1.339 . S
C274 C275 1.439 . S
C274 H309 0.950 . S
C275 N271 1.383 . S
C275 C274 1.439 . S
C275 C304 1.392 . S
N276 Co270 2.008 . S
N276 C277 1.376 . S
N276 C280 1.374 . S
C277 N276 1.376 . S
C277 C278 1.443 . S
C277 C304 1.389 . S
C278 C277 1.443 . S
C278 C279 1.340 . S
C278 H310 0.951 . S
C279 C278 1.340 . S
C279 C280 1.439 . S
C279 H311 0.950 . S
C280 N276 1.374 . S
C280 C279 1.439 . S
C280 C305 1.395 . S
N281 Co270 1.995 . S
N281 C282 1.376 . S
N281 C285 1.383 . S
C282 N281 1.376 . S
C282 C283 1.446 . S
C282 C305 1.391 . S
C283 C282 1.446 . S
C283 C284 1.339 . S
C283 H312 0.949 . S
C284 C283 1.339 . S
C284 C285 1.439 . S
C284 H313 0.950 . S
C285 N281 1.383 . S
C285 C284 1.439 . S
C285 C303 1.392 . S
N286 Co270 2.282 . S
N286 C289 1.332 . S
N286 C291 1.332 . S
C287 C288 1.386 . S
C287 C290 1.388 . S
C288 C287 1.386 . S
C288 C289 1.382 . S
C288 H314 0.950 . S
C289 N286 1.332 . S
C289 C288 1.382 . S
C289 H300 0.952 . S
C290 C287 1.388 . S
C290 C291 1.382 . S
C290 H315 0.950 . S
C291 N286 1.332 . S
C291 C290 1.382 . S
C291 H301 0.948 . S
N292 Co270 2.282 . S
N292 C296 1.332 . S
N292 C297 1.332 . S
C293 C294 1.388 . S
C293 C297 1.382 . S
C293 H316 0.950 . S
C294 C293 1.388 . S
C294 C295 1.386 . S
C295 C294 1.386 . S
C295 C296 1.382 . S
C295 H317 0.950 . S
C296 N292 1.332 . S
C296 C295 1.382 . S
C296 H298 0.952 . S
C297 N292 1.332 . S
C297 C293 1.382 . S
C297 H299 0.948 . S
H298 C296 0.952 . S
H299 C297 0.948 . S
H300 C289 0.952 . S
H301 C291 0.948 . S
C302 C268 1.395 . S
C302 C272 1.391 . S
C303 C265 1.389 . S
C303 C285 1.392 . S
C304 C275 1.392 . S
C304 C277 1.389 . S
C305 C280 1.395 . S
C305 C282 1.391 . S
H306 C266 0.951 . S
H307 C267 0.950 . S
H308 C273 0.949 . S
H309 C274 0.950 . S
H310 C278 0.951 . S
H311 C279 0.950 . S
H312 C283 0.949 . S
H313 C284 0.950 . S
H314 C288 0.950 . S
H315 C290 0.950 . S
H316 C293 0.950 . S
H317 C295 0.950 . S
C318 C319 1.443 . S
C318 N322 1.376 . S
C318 C356 1.389 . S
C319 C318 1.443 . S
C319 C320 1.340 . S
C319 H359 0.951 . S
C320 C319 1.340 . S
C320 C321 1.439 . S
C320 H360 0.950 . S
C321 C320 1.439 . S
C321 N322 1.374 . S
C321 C355 1.395 . S
N322 C318 1.376 . S
N322 C321 1.374 . S
N322 Co323 2.008 . S
Co323 N322 2.008 . S
Co323 N324 1.995 . S
Co323 N329 2.008 . S
Co323 N334 1.995 . S
Co323 N339 2.282 . S
Co323 N345 2.282 . S
N324 Co323 1.995 . S
N324 C325 1.376 . S
N324 C328 1.383 . S
C325 N324 1.376 . S
C325 C326 1.446 . S
C325 C355 1.391 . S
C326 C325 1.446 . S
C326 C327 1.339 . S
C326 H361 0.949 . S
C327 C326 1.339 . S
C327 C328 1.439 . S
C327 H362 0.950 . S
C328 N324 1.383 . S
C328 C327 1.439 . S
C328 C357 1.392 . S
N329 Co323 2.008 . S
N329 C330 1.376 . S
N329 C333 1.374 . S
C330 N329 1.376 . S
C330 C331 1.443 . S
C330 C357 1.389 . S
C331 C330 1.443 . S
C331 C332 1.340 . S
C331 H363 0.951 . S
C332 C331 1.340 . S
C332 C333 1.439 . S
C332 H364 0.950 . S
C333 N329 1.374 . S
C333 C332 1.439 . S
C333 C358 1.395 . S
N334 Co323 1.995 . S
N334 C335 1.376 . S
N334 C338 1.383 . S
C335 N334 1.376 . S
C335 C336 1.446 . S
C335 C358 1.391 . S
C336 C335 1.446 . S
C336 C337 1.339 . S
C336 H365 0.949 . S
C337 C336 1.339 . S
C337 C338 1.439 . S
C337 H366 0.950 . S
C338 N334 1.383 . S
C338 C337 1.439 . S
C338 C356 1.392 . S
N339 Co323 2.282 . S
N339 C342 1.332 . S
N339 C344 1.332 . S
C340 C341 1.386 . S
C340 C343 1.388 . S
C341 C340 1.386 . S
C341 C342 1.382 . S
C341 H367 0.950 . S
C342 N339 1.332 . S
C342 C341 1.382 . S
C342 H353 0.952 . S
C343 C340 1.388 . S
C343 C344 1.382 . S
C343 H368 0.950 . S
C344 N339 1.332 . S
C344 C343 1.382 . S
C344 H354 0.948 . S
N345 Co323 2.282 . S
N345 C349 1.332 . S
N345 C350 1.332 . S
C346 C347 1.388 . S
C346 C350 1.382 . S
C346 H369 0.950 . S
C347 C346 1.388 . S
C347 C348 1.386 . S
C348 C347 1.386 . S
C348 C349 1.382 . S
C348 H370 0.950 . S
C349 N345 1.332 . S
C349 C348 1.382 . S
C349 H351 0.952 . S
C350 N345 1.332 . S
C350 C346 1.382 . S
C350 H352 0.948 . S
H351 C349 0.952 . S
H352 C350 0.948 . S
H353 C342 0.952 . S
H354 C344 0.948 . S
C355 C321 1.395 . S
C355 C325 1.391 . S
C356 C318 1.389 . S
C356 C338 1.392 . S
C357 C328 1.392 . S
C357 C330 1.389 . S
C358 C333 1.395 . S
C358 C335 1.391 . S
H359 C319 0.951 . S
H360 C320 0.950 . S
H361 C326 0.949 . S
H362 C327 0.950 . S
H363 C331 0.951 . S
H364 C332 0.950 . S
H365 C336 0.949 . S
H366 C337 0.950 . S
H367 C341 0.950 . S
H368 C343 0.950 . S
H369 C346 0.950 . S
H370 C348 0.950 . S
C371 C372 1.443 . S
C371 N375 1.376 . S
C371 C409 1.389 . S
C372 C371 1.443 . S
C372 C373 1.340 . S
C372 H412 0.951 . S
C373 C372 1.340 . S
C373 C374 1.439 . S
C373 H413 0.950 . S
C374 C373 1.439 . S
C374 N375 1.374 . S
C374 C408 1.395 . S
N375 C371 1.376 . S
N375 C374 1.374 . S
N375 Co376 2.008 . S
Co376 N375 2.008 . S
Co376 N377 1.995 . S
Co376 N382 2.008 . S
Co376 N387 1.995 . S
Co376 N392 2.282 . S
Co376 N398 2.282 . S
N377 Co376 1.995 . S
N377 C378 1.376 . S
N377 C381 1.383 . S
C378 N377 1.376 . S
C378 C379 1.446 . S
C378 C408 1.391 . S
C379 C378 1.446 . S
C379 C380 1.339 . S
C379 H414 0.949 . S
C380 C379 1.339 . S
C380 C381 1.439 . S
C380 H415 0.950 . S
C381 N377 1.383 . S
C381 C380 1.439 . S
C381 C410 1.392 . S
N382 Co376 2.008 . S
N382 C383 1.376 . S
N382 C386 1.374 . S
C383 N382 1.376 . S
C383 C384 1.443 . S
C383 C410 1.389 . S
C384 C383 1.443 . S
C384 C385 1.340 . S
C384 H416 0.951 . S
C385 C384 1.340 . S
C385 C386 1.439 . S
C385 H417 0.950 . S
C386 N382 1.374 . S
C386 C385 1.439 . S
C386 C411 1.395 . S
N387 Co376 1.995 . S
N387 C388 1.376 . S
N387 C391 1.383 . S
C388 N387 1.376 . S
C388 C389 1.446 . S
C388 C411 1.391 . S
C389 C388 1.446 . S
C389 C390 1.339 . S
C389 H418 0.949 . S
C390 C389 1.339 . S
C390 C391 1.439 . S
C390 H419 0.950 . S
C391 N387 1.383 . S
C391 C390 1.439 . S
C391 C409 1.392 . S
N392 Co376 2.282 . S
N392 C395 1.332 . S
N392 C397 1.332 . S
C393 C394 1.386 . S
C393 C396 1.388 . S
C394 C393 1.386 . S
C394 C395 1.382 . S
C394 H420 0.950 . S
C395 N392 1.332 . S
C395 C394 1.382 . S
C395 H406 0.952 . S
C396 C393 1.388 . S
C396 C397 1.382 . S
C396 H421 0.950 . S
C397 N392 1.332 . S
C397 C396 1.382 . S
C397 H407 0.948 . S
N398 Co376 2.282 . S
N398 C402 1.332 . S
N398 C403 1.332 . S
C399 C400 1.388 . S
C399 C403 1.382 . S
C399 H422 0.950 . S
C400 C399 1.388 . S
C400 C401 1.386 . S
C401 C400 1.386 . S
C401 C402 1.382 . S
C401 H423 0.950 . S
C402 N398 1.332 . S
C402 C401 1.382 . S
C402 H404 0.952 . S
C403 N398 1.332 . S
C403 C399 1.382 . S
C403 H405 0.948 . S
H404 C402 0.952 . S
H405 C403 0.948 . S
H406 C395 0.952 . S
H407 C397 0.948 . S
C408 C374 1.395 . S
C408 C378 1.391 . S
C409 C371 1.389 . S
C409 C391 1.392 . S
C410 C381 1.392 . S
C410 C383 1.389 . S
C411 C386 1.395 . S
C411 C388 1.391 . S
H412 C372 0.951 . S
H413 C373 0.950 . S
H414 C379 0.949 . S
H415 C380 0.950 . S
H416 C384 0.951 . S
H417 C385 0.950 . S
H418 C389 0.949 . S
H419 C390 0.950 . S
H420 C394 0.950 . S
H421 C396 0.950 . S
H422 C399 0.950 . S
H423 C401 0.950 . S
C424 C425 1.443 . S
C424 N428 1.376 . S
C424 C462 1.389 . S
C425 C424 1.443 . S
C425 C426 1.340 . S
C425 H465 0.951 . S
C426 C425 1.340 . S
C426 C427 1.439 . S
C426 H466 0.950 . S
C427 C426 1.439 . S
C427 N428 1.374 . S
C427 C461 1.395 . S
N428 C424 1.376 . S
N428 C427 1.374 . S
N428 Co429 2.008 . S
Co429 N428 2.008 . S
Co429 N430 1.995 . S
Co429 N435 2.008 . S
Co429 N440 1.995 . S
Co429 N445 2.282 . S
Co429 N451 2.282 . S
N430 Co429 1.995 . S
N430 C431 1.376 . S
N430 C434 1.383 . S
C431 N430 1.376 . S
C431 C432 1.446 . S
C431 C461 1.391 . S
C432 C431 1.446 . S
C432 C433 1.339 . S
C432 H467 0.949 . S
C433 C432 1.339 . S
C433 C434 1.439 . S
C433 H468 0.950 . S
C434 N430 1.383 . S
C434 C433 1.439 . S
C434 C463 1.392 . S
N435 Co429 2.008 . S
N435 C436 1.376 . S
N435 C439 1.374 . S
C436 N435 1.376 . S
C436 C437 1.443 . S
C436 C463 1.389 . S
C437 C436 1.443 . S
C437 C438 1.340 . S
C437 H469 0.951 . S
C438 C437 1.340 . S
C438 C439 1.439 . S
C438 H470 0.950 . S
C439 N435 1.374 . S
C439 C438 1.439 . S
C439 C464 1.395 . S
N440 Co429 1.995 . S
N440 C441 1.376 . S
N440 C444 1.383 . S
C441 N440 1.376 . S
C441 C442 1.446 . S
C441 C464 1.391 . S
C442 C441 1.446 . S
C442 C443 1.339 . S
C442 H471 0.949 . S
C443 C442 1.339 . S
C443 C444 1.439 . S
C443 H472 0.950 . S
C444 N440 1.383 . S
C444 C443 1.439 . S
C444 C462 1.392 . S
N445 Co429 2.282 . S
N445 C448 1.332 . S
N445 C450 1.332 . S
C446 C447 1.386 . S
C446 C449 1.388 . S
C447 C446 1.386 . S
C447 C448 1.382 . S
C447 H473 0.950 . S
C448 N445 1.332 . S
C448 C447 1.382 . S
C448 H459 0.952 . S
C449 C446 1.388 . S
C449 C450 1.382 . S
C449 H474 0.950 . S
C450 N445 1.332 . S
C450 C449 1.382 . S
C450 H460 0.948 . S
N451 Co429 2.282 . S
N451 C455 1.332 . S
N451 C456 1.332 . S
C452 C453 1.388 . S
C452 C456 1.382 . S
C452 H475 0.950 . S
C453 C452 1.388 . S
C453 C454 1.386 . S
C454 C453 1.386 . S
C454 C455 1.382 . S
C454 H476 0.950 . S
C455 N451 1.332 . S
C455 C454 1.382 . S
C455 H457 0.952 . S
C456 N451 1.332 . S
C456 C452 1.382 . S
C456 H458 0.948 . S
H457 C455 0.952 . S
H458 C456 0.948 . S
H459 C448 0.952 . S
H460 C450 0.948 . S
C461 C427 1.395 . S
C461 C431 1.391 . S
C462 C424 1.389 . S
C462 C444 1.392 . S
C463 C434 1.392 . S
C463 C436 1.389 . S
C464 C439 1.395 . S
C464 C441 1.391 . S
H465 C425 0.951 . S
H466 C426 0.950 . S
H467 C432 0.949 . S
H468 C433 0.950 . S
H469 C437 0.951 . S
H470 C438 0.950 . S
H471 C442 0.949 . S
H472 C443 0.950 . S
H473 C447 0.950 . S
H474 C449 0.950 . S
H475 C452 0.950 . S
H476 C454 0.950 . S
C477 C478 1.443 . S
C477 N481 1.376 . S
C477 C515 1.389 . S
C478 C477 1.443 . S
C478 C479 1.340 . S
C478 H518 0.951 . S
C479 C478 1.340 . S
C479 C480 1.439 . S
C479 H519 0.950 . S
C480 C479 1.439 . S
C480 N481 1.374 . S
C480 C514 1.395 . S
N481 C477 1.376 . S
N481 C480 1.374 . S
N481 Co482 2.008 . S
Co482 N481 2.008 . S
Co482 N483 1.995 . S
Co482 N488 2.008 . S
Co482 N493 1.995 . S
Co482 N498 2.282 . S
Co482 N504 2.282 . S
N483 Co482 1.995 . S
N483 C484 1.376 . S
N483 C487 1.383 . S
C484 N483 1.376 . S
C484 C485 1.446 . S
C484 C514 1.391 . S
C485 C484 1.446 . S
C485 C486 1.339 . S
C485 H520 0.949 . S
C486 C485 1.339 . S
C486 C487 1.439 . S
C486 H521 0.950 . S
C487 N483 1.383 . S
C487 C486 1.439 . S
C487 C516 1.392 . S
N488 Co482 2.008 . S
N488 C489 1.376 . S
N488 C492 1.374 . S
C489 N488 1.376 . S
C489 C490 1.443 . S
C489 C516 1.389 . S
C490 C489 1.443 . S
C490 C491 1.340 . S
C490 H522 0.951 . S
C491 C490 1.340 . S
C491 C492 1.439 . S
C491 H523 0.950 . S
C492 N488 1.374 . S
C492 C491 1.439 . S
C492 C517 1.395 . S
N493 Co482 1.995 . S
N493 C494 1.376 . S
N493 C497 1.383 . S
C494 N493 1.376 . S
C494 C495 1.446 . S
C494 C517 1.391 . S
C495 C494 1.446 . S
C495 C496 1.339 . S
C495 H524 0.949 . S
C496 C495 1.339 . S
C496 C497 1.439 . S
C496 H525 0.950 . S
C497 N493 1.383 . S
C497 C496 1.439 . S
C497 C515 1.392 . S
N498 Co482 2.282 . S
N498 C501 1.332 . S
N498 C503 1.332 . S
C499 C500 1.386 . S
C499 C502 1.388 . S
C500 C499 1.386 . S
C500 C501 1.382 . S
C500 H526 0.950 . S
C501 N498 1.332 . S
C501 C500 1.382 . S
C501 H512 0.952 . S
C502 C499 1.388 . S
C502 C503 1.382 . S
C502 H527 0.950 . S
C503 N498 1.332 . S
C503 C502 1.382 . S
C503 H513 0.948 . S
N504 Co482 2.282 . S
N504 C508 1.332 . S
N504 C509 1.332 . S
C505 C506 1.388 . S
C505 C509 1.382 . S
C505 H528 0.950 . S
C506 C505 1.388 . S
C506 C507 1.386 . S
C507 C506 1.386 . S
C507 C508 1.382 . S
C507 H529 0.950 . S
C508 N504 1.332 . S
C508 C507 1.382 . S
C508 H510 0.952 . S
C509 N504 1.332 . S
C509 C505 1.382 . S
C509 H511 0.948 . S
H510 C508 0.952 . S
H511 C509 0.948 . S
H512 C501 0.952 . S
H513 C503 0.948 . S
C514 C480 1.395 . S
C514 C484 1.391 . S
C515 C477 1.389 . S
C515 C497 1.392 . S
C516 C487 1.392 . S
C516 C489 1.389 . S
C517 C492 1.395 . S
C517 C494 1.391 . S
H518 C478 0.951 . S
H519 C479 0.950 . S
H520 C485 0.949 . S
H521 C486 0.950 . S
H522 C490 0.951 . S
H523 C491 0.950 . S
H524 C495 0.949 . S
H525 C496 0.950 . S
H526 C500 0.950 . S
H527 C502 0.950 . S
H528 C505 0.950 . S
H529 C507 0.950 . S
C530 C531 1.443 . S
C530 N534 1.376 . S
C530 C568 1.389 . S
C531 C530 1.443 . S
C531 C532 1.340 . S
C531 H571 0.951 . S
C532 C531 1.340 . S
C532 C533 1.439 . S
C532 H572 0.950 . S
C533 C532 1.439 . S
C533 N534 1.374 . S
C533 C567 1.395 . S
N534 C530 1.376 . S
N534 C533 1.374 . S
N534 Co535 2.008 . S
Co535 N534 2.008 . S
Co535 N536 1.995 . S
Co535 N541 2.008 . S
Co535 N546 1.995 . S
Co535 N551 2.282 . S
Co535 N557 2.282 . S
N536 Co535 1.995 . S
N536 C537 1.376 . S
N536 C540 1.383 . S
C537 N536 1.376 . S
C537 C538 1.446 . S
C537 C567 1.391 . S
C538 C537 1.446 . S
C538 C539 1.339 . S
C538 H573 0.949 . S
C539 C538 1.339 . S
C539 C540 1.439 . S
C539 H574 0.950 . S
C540 N536 1.383 . S
C540 C539 1.439 . S
C540 C569 1.392 . S
N541 Co535 2.008 . S
N541 C542 1.376 . S
N541 C545 1.374 . S
C542 N541 1.376 . S
C542 C543 1.443 . S
C542 C569 1.389 . S
C543 C542 1.443 . S
C543 C544 1.340 . S
C543 H575 0.951 . S
C544 C543 1.340 . S
C544 C545 1.439 . S
C544 H576 0.950 . S
C545 N541 1.374 . S
C545 C544 1.439 . S
C545 C570 1.395 . S
N546 Co535 1.995 . S
N546 C547 1.376 . S
N546 C550 1.383 . S
C547 N546 1.376 . S
C547 C548 1.446 . S
C547 C570 1.391 . S
C548 C547 1.446 . S
C548 C549 1.339 . S
C548 H577 0.949 . S
C549 C548 1.339 . S
C549 C550 1.439 . S
C549 H578 0.950 . S
C550 N546 1.383 . S
C550 C549 1.439 . S
C550 C568 1.392 . S
N551 Co535 2.282 . S
N551 C554 1.332 . S
N551 C556 1.332 . S
C552 C553 1.386 . S
C552 C555 1.388 . S
C553 C552 1.386 . S
C553 C554 1.382 . S
C553 H579 0.950 . S
C554 N551 1.332 . S
C554 C553 1.382 . S
C554 H565 0.952 . S
C555 C552 1.388 . S
C555 C556 1.382 . S
C555 H580 0.950 . S
C556 N551 1.332 . S
C556 C555 1.382 . S
C556 H566 0.948 . S
N557 Co535 2.282 . S
N557 C561 1.332 . S
N557 C562 1.332 . S
C558 C559 1.388 . S
C558 C562 1.382 . S
C558 H581 0.950 . S
C559 C558 1.388 . S
C559 C560 1.386 . S
C560 C559 1.386 . S
C560 C561 1.382 . S
C560 H582 0.950 . S
C561 N557 1.332 . S
C561 C560 1.382 . S
C561 H563 0.952 . S
C562 N557 1.332 . S
C562 C558 1.382 . S
C562 H564 0.948 . S
H563 C561 0.952 . S
H564 C562 0.948 . S
H565 C554 0.952 . S
H566 C556 0.948 . S
C567 C533 1.395 . S
C567 C537 1.391 . S
C568 C530 1.389 . S
C568 C550 1.392 . S
C569 C540 1.392 . S
C569 C542 1.389 . S
C570 C545 1.395 . S
C570 C547 1.391 . S
H571 C531 0.951 . S
H572 C532 0.950 . S
H573 C538 0.949 . S
H574 C539 0.950 . S
H575 C543 0.951 . S
H576 C544 0.950 . S
H577 C548 0.949 . S
H578 C549 0.950 . S
H579 C553 0.950 . S
H580 C555 0.950 . S
H581 C558 0.950 . S
H582 C560 0.950 . S
C583 C584 1.443 . S
C583 N587 1.376 . S
C583 C621 1.389 . S
C584 C583 1.443 . S
C584 C585 1.340 . S
C584 H624 0.951 . S
C585 C584 1.340 . S
C585 C586 1.439 . S
C585 H625 0.950 . S
C586 C585 1.439 . S
C586 N587 1.374 . S
C586 C620 1.395 . S
N587 C583 1.376 . S
N587 C586 1.374 . S
N587 Co588 2.008 . S
Co588 N587 2.008 . S
Co588 N589 1.995 . S
Co588 N594 2.008 . S
Co588 N599 1.995 . S
Co588 N604 2.282 . S
Co588 N610 2.282 . S
N589 Co588 1.995 . S
N589 C590 1.376 . S
N589 C593 1.383 . S
C590 N589 1.376 . S
C590 C591 1.446 . S
C590 C620 1.391 . S
C591 C590 1.446 . S
C591 C592 1.339 . S
C591 H626 0.949 . S
C592 C591 1.339 . S
C592 C593 1.439 . S
C592 H627 0.950 . S
C593 N589 1.383 . S
C593 C592 1.439 . S
C593 C622 1.392 . S
N594 Co588 2.008 . S
N594 C595 1.376 . S
N594 C598 1.374 . S
C595 N594 1.376 . S
C595 C596 1.443 . S
C595 C622 1.389 . S
C596 C595 1.443 . S
C596 C597 1.340 . S
C596 H628 0.951 . S
C597 C596 1.340 . S
C597 C598 1.439 . S
C597 H629 0.950 . S
C598 N594 1.374 . S
C598 C597 1.439 . S
C598 C623 1.395 . S
N599 Co588 1.995 . S
N599 C600 1.376 . S
N599 C603 1.383 . S
C600 N599 1.376 . S
C600 C601 1.446 . S
C600 C623 1.391 . S
C601 C600 1.446 . S
C601 C602 1.339 . S
C601 H630 0.949 . S
C602 C601 1.339 . S
C602 C603 1.439 . S
C602 H631 0.950 . S
C603 N599 1.383 . S
C603 C602 1.439 . S
C603 C621 1.392 . S
N604 Co588 2.282 . S
N604 C607 1.332 . S
N604 C609 1.332 . S
C605 C606 1.386 . S
C605 C608 1.388 . S
C606 C605 1.386 . S
C606 C607 1.382 . S
C606 H632 0.950 . S
C607 N604 1.332 . S
C607 C606 1.382 . S
C607 H618 0.952 . S
C608 C605 1.388 . S
C608 C609 1.382 . S
C608 H633 0.950 . S
C609 N604 1.332 . S
C609 C608 1.382 . S
C609 H619 0.948 . S
N610 Co588 2.282 . S
N610 C614 1.332 . S
N610 C615 1.332 . S
C611 C612 1.388 . S
C611 C615 1.382 . S
C611 H634 0.950 . S
C612 C611 1.388 . S
C612 C613 1.386 . S
C613 C612 1.386 . S
C613 C614 1.382 . S
C613 H635 0.950 . S
C614 N610 1.332 . S
C614 C613 1.382 . S
C614 H616 0.952 . S
C615 N610 1.332 . S
C615 C611 1.382 . S
C615 H617 0.948 . S
H616 C614 0.952 . S
H617 C615 0.948 . S
H618 C607 0.952 . S
H619 C609 0.948 . S
C620 C586 1.395 . S
C620 C590 1.391 . S
C621 C583 1.389 . S
C621 C603 1.392 . S
C622 C593 1.392 . S
C622 C595 1.389 . S
C623 C598 1.395 . S
C623 C600 1.391 . S
H624 C584 0.951 . S
H625 C585 0.950 . S
H626 C591 0.949 . S
H627 C592 0.950 . S
H628 C596 0.951 . S
H629 C597 0.950 . S
H630 C601 0.949 . S
H631 C602 0.950 . S
H632 C606 0.950 . S
H633 C608 0.950 . S
H634 C611 0.950 . S
H635 C613 0.950 . S
C636 C637 1.443 . S
C636 N640 1.376 . S
C636 C674 1.389 . S
C637 C636 1.443 . S
C637 C638 1.340 . S
C637 H677 0.951 . S
C638 C637 1.340 . S
C638 C639 1.439 . S
C638 H678 0.950 . S
C639 C638 1.439 . S
C639 N640 1.374 . S
C639 C673 1.395 . S
N640 C636 1.376 . S
N640 C639 1.374 . S
N640 Co641 2.008 . S
Co641 N640 2.008 . S
Co641 N642 1.995 . S
Co641 N647 2.008 . S
Co641 N652 1.995 . S
Co641 N657 2.282 . S
Co641 N663 2.282 . S
N642 Co641 1.995 . S
N642 C643 1.376 . S
N642 C646 1.383 . S
C643 N642 1.376 . S
C643 C644 1.446 . S
C643 C673 1.391 . S
C644 C643 1.446 . S
C644 C645 1.339 . S
C644 H679 0.949 . S
C645 C644 1.339 . S
C645 C646 1.439 . S
C645 H680 0.950 . S
C646 N642 1.383 . S
C646 C645 1.439 . S
C646 C675 1.392 . S
N647 Co641 2.008 . S
N647 C648 1.376 . S
N647 C651 1.374 . S
C648 N647 1.376 . S
C648 C649 1.443 . S
C648 C675 1.389 . S
C649 C648 1.443 . S
C649 C650 1.340 . S
C649 H681 0.951 . S
C650 C649 1.340 . S
C650 C651 1.439 . S
C650 H682 0.950 . S
C651 N647 1.374 . S
C651 C650 1.439 . S
C651 C676 1.395 . S
N652 Co641 1.995 . S
N652 C653 1.376 . S
N652 C656 1.383 . S
C653 N652 1.376 . S
C653 C654 1.446 . S
C653 C676 1.391 . S
C654 C653 1.446 . S
C654 C655 1.339 . S
C654 H683 0.949 . S
C655 C654 1.339 . S
C655 C656 1.439 . S
C655 H684 0.950 . S
C656 N652 1.383 . S
C656 C655 1.439 . S
C656 C674 1.392 . S
N657 Co641 2.282 . S
N657 C660 1.332 . S
N657 C662 1.332 . S
C658 C659 1.386 . S
C658 C661 1.388 . S
C659 C658 1.386 . S
C659 C660 1.382 . S
C659 H685 0.950 . S
C660 N657 1.332 . S
C660 C659 1.382 . S
C660 H671 0.952 . S
C661 C658 1.388 . S
C661 C662 1.382 . S
C661 H686 0.950 . S
C662 N657 1.332 . S
C662 C661 1.382 . S
C662 H672 0.948 . S
N663 Co641 2.282 . S
N663 C667 1.332 . S
N663 C668 1.332 . S
C664 C665 1.388 . S
C664 C668 1.382 . S
C664 H687 0.950 . S
C665 C664 1.388 . S
C665 C666 1.386 . S
C666 C665 1.386 . S
C666 C667 1.382 . S
C666 H688 0.950 . S
C667 N663 1.332 . S
C667 C666 1.382 . S
C667 H669 0.952 . S
C668 N663 1.332 . S
C668 C664 1.382 . S
C668 H670 0.948 . S
H669 C667 0.952 . S
H670 C668 0.948 . S
H671 C660 0.952 . S
H672 C662 0.948 . S
C673 C639 1.395 . S
C673 C643 1.391 . S
C674 C636 1.389 . S
C674 C656 1.392 . S
C675 C646 1.392 . S
C675 C648 1.389 . S
C676 C651 1.395 . S
C676 C653 1.391 . S
H677 C637 0.951 . S
H678 C638 0.950 . S
H679 C644 0.949 . S
H680 C645 0.950 . S
H681 C649 0.951 . S
H682 C650 0.950 . S
H683 C654 0.949 . S
H684 C655 0.950 . S
H685 C659 0.950 . S
H686 C661 0.950 . S
H687 C664 0.950 . S
H688 C666 0.950 . S
C689 C690 1.443 . S
C689 N693 1.376 . S
C689 C727 1.389 . S
C690 C689 1.443 . S
C690 C691 1.340 . S
C690 H730 0.951 . S
C691 C690 1.340 . S
C691 C692 1.439 . S
C691 H731 0.950 . S
C692 C691 1.439 . S
C692 N693 1.374 . S
C692 C726 1.395 . S
N693 C689 1.376 . S
N693 C692 1.374 . S
N693 Co694 2.008 . S
Co694 N693 2.008 . S
Co694 N695 1.995 . S
Co694 N700 2.008 . S
Co694 N705 1.995 . S
Co694 N710 2.282 . S
Co694 N716 2.282 . S
N695 Co694 1.995 . S
N695 C696 1.376 . S
N695 C699 1.383 . S
C696 N695 1.376 . S
C696 C697 1.446 . S
C696 C726 1.391 . S
C697 C696 1.446 . S
C697 C698 1.339 . S
C697 H732 0.949 . S
C698 C697 1.339 . S
C698 C699 1.439 . S
C698 H733 0.950 . S
C699 N695 1.383 . S
C699 C698 1.439 . S
C699 C728 1.392 . S
N700 Co694 2.008 . S
N700 C701 1.376 . S
N700 C704 1.374 . S
C701 N700 1.376 . S
C701 C702 1.443 . S
C701 C728 1.389 . S
C702 C701 1.443 . S
C702 C703 1.340 . S
C702 H734 0.951 . S
C703 C702 1.340 . S
C703 C704 1.439 . S
C703 H735 0.950 . S
C704 N700 1.374 . S
C704 C703 1.439 . S
C704 C729 1.395 . S
N705 Co694 1.995 . S
N705 C706 1.376 . S
N705 C709 1.383 . S
C706 N705 1.376 . S
C706 C707 1.446 . S
C706 C729 1.391 . S
C707 C706 1.446 . S
C707 C708 1.339 . S
C707 H736 0.949 . S
C708 C707 1.339 . S
C708 C709 1.439 . S
C708 H737 0.950 . S
C709 N705 1.383 . S
C709 C708 1.439 . S
C709 C727 1.392 . S
N710 Co694 2.282 . S
N710 C713 1.332 . S
N710 C715 1.332 . S
C711 C712 1.386 . S
C711 C714 1.388 . S
C712 C711 1.386 . S
C712 C713 1.382 . S
C712 H738 0.950 . S
C713 N710 1.332 . S
C713 C712 1.382 . S
C713 H724 0.952 . S
C714 C711 1.388 . S
C714 C715 1.382 . S
C714 H739 0.950 . S
C715 N710 1.332 . S
C715 C714 1.382 . S
C715 H725 0.948 . S
N716 Co694 2.282 . S
N716 C720 1.332 . S
N716 C721 1.332 . S
C717 C718 1.388 . S
C717 C721 1.382 . S
C717 H740 0.950 . S
C718 C717 1.388 . S
C718 C719 1.386 . S
C719 C718 1.386 . S
C719 C720 1.382 . S
C719 H741 0.950 . S
C720 N716 1.332 . S
C720 C719 1.382 . S
C720 H722 0.952 . S
C721 N716 1.332 . S
C721 C717 1.382 . S
C721 H723 0.948 . S
H722 C720 0.952 . S
H723 C721 0.948 . S
H724 C713 0.952 . S
H725 C715 0.948 . S
C726 C692 1.395 . S
C726 C696 1.391 . S
C727 C689 1.389 . S
C727 C709 1.392 . S
C728 C699 1.392 . S
C728 C701 1.389 . S
C729 C704 1.395 . S
C729 C706 1.391 . S
H730 C690 0.951 . S
H731 C691 0.950 . S
H732 C697 0.949 . S
H733 C698 0.950 . S
H734 C702 0.951 . S
H735 C703 0.950 . S
H736 C707 0.949 . S
H737 C708 0.950 . S
H738 C712 0.950 . S
H739 C714 0.950 . S
H740 C717 0.950 . S
H741 C719 0.950 . S
C742 C743 1.443 . S
C742 N746 1.376 . S
C742 C780 1.389 . S
C743 C742 1.443 . S
C743 C744 1.340 . S
C743 H783 0.951 . S
C744 C743 1.340 . S
C744 C745 1.439 . S
C744 H784 0.950 . S
C745 C744 1.439 . S
C745 N746 1.374 . S
C745 C779 1.395 . S
N746 C742 1.376 . S
N746 C745 1.374 . S
N746 Co747 2.008 . S
Co747 N746 2.008 . S
Co747 N748 1.995 . S
Co747 N753 2.008 . S
Co747 N758 1.995 . S
Co747 N763 2.282 . S
Co747 N769 2.282 . S
N748 Co747 1.995 . S
N748 C749 1.376 . S
N748 C752 1.383 . S
C749 N748 1.376 . S
C749 C750 1.446 . S
C749 C779 1.391 . S
C750 C749 1.446 . S
C750 C751 1.339 . S
C750 H785 0.949 . S
C751 C750 1.339 . S
C751 C752 1.439 . S
C751 H786 0.950 . S
C752 N748 1.383 . S
C752 C751 1.439 . S
C752 C781 1.392 . S
N753 Co747 2.008 . S
N753 C754 1.376 . S
N753 C757 1.374 . S
C754 N753 1.376 . S
C754 C755 1.443 . S
C754 C781 1.389 . S
C755 C754 1.443 . S
C755 C756 1.340 . S
C755 H787 0.951 . S
C756 C755 1.340 . S
C756 C757 1.439 . S
C756 H788 0.950 . S
C757 N753 1.374 . S
C757 C756 1.439 . S
C757 C782 1.395 . S
N758 Co747 1.995 . S
N758 C759 1.376 . S
N758 C762 1.383 . S
C759 N758 1.376 . S
C759 C760 1.446 . S
C759 C782 1.391 . S
C760 C759 1.446 . S
C760 C761 1.339 . S
C760 H789 0.949 . S
C761 C760 1.339 . S
C761 C762 1.439 . S
C761 H790 0.950 . S
C762 N758 1.383 . S
C762 C761 1.439 . S
C762 C780 1.392 . S
N763 Co747 2.282 . S
N763 C766 1.332 . S
N763 C768 1.332 . S
C764 C765 1.386 . S
C764 C767 1.388 . S
C765 C764 1.386 . S
C765 C766 1.382 . S
C765 H791 0.950 . S
C766 N763 1.332 . S
C766 C765 1.382 . S
C766 H777 0.952 . S
C767 C764 1.388 . S
C767 C768 1.382 . S
C767 H792 0.950 . S
C768 N763 1.332 . S
C768 C767 1.382 . S
C768 H778 0.948 . S
N769 Co747 2.282 . S
N769 C773 1.332 . S
N769 C774 1.332 . S
C770 C771 1.388 . S
C770 C774 1.382 . S
C770 H793 0.950 . S
C771 C770 1.388 . S
C771 C772 1.386 . S
C772 C771 1.386 . S
C772 C773 1.382 . S
C772 H794 0.950 . S
C773 N769 1.332 . S
C773 C772 1.382 . S
C773 H775 0.952 . S
C774 N769 1.332 . S
C774 C770 1.382 . S
C774 H776 0.948 . S
H775 C773 0.952 . S
H776 C774 0.948 . S
H777 C766 0.952 . S
H778 C768 0.948 . S
C779 C745 1.395 . S
C779 C749 1.391 . S
C780 C742 1.389 . S
C780 C762 1.392 . S
C781 C752 1.392 . S
C781 C754 1.389 . S
C782 C757 1.395 . S
C782 C759 1.391 . S
H783 C743 0.951 . S
H784 C744 0.950 . S
H785 C750 0.949 . S
H786 C751 0.950 . S
H787 C755 0.951 . S
H788 C756 0.950 . S
H789 C760 0.949 . S
H790 C761 0.950 . S
H791 C765 0.950 . S
H792 C767 0.950 . S
H793 C770 0.950 . S
H794 C772 0.950 . S
C795 C796 1.443 . S
C795 N799 1.376 . S
C795 C833 1.389 . S
C796 C795 1.443 . S
C796 C797 1.340 . S
C796 H836 0.951 . S
C797 C796 1.340 . S
C797 C798 1.439 . S
C797 H837 0.950 . S
C798 C797 1.439 . S
C798 N799 1.374 . S
C798 C832 1.395 . S
N799 C795 1.376 . S
N799 C798 1.374 . S
N799 Co800 2.008 . S
Co800 N799 2.008 . S
Co800 N801 1.995 . S
Co800 N806 2.008 . S
Co800 N811 1.995 . S
Co800 N816 2.282 . S
Co800 N822 2.282 . S
N801 Co800 1.995 . S
N801 C802 1.376 . S
N801 C805 1.383 . S
C802 N801 1.376 . S
C802 C803 1.446 . S
C802 C832 1.391 . S
C803 C802 1.446 . S
C803 C804 1.339 . S
C803 H838 0.949 . S
C804 C803 1.339 . S
C804 C805 1.439 . S
C804 H839 0.950 . S
C805 N801 1.383 . S
C805 C804 1.439 . S
C805 C834 1.392 . S
N806 Co800 2.008 . S
N806 C807 1.376 . S
N806 C810 1.374 . S
C807 N806 1.376 . S
C807 C808 1.443 . S
C807 C834 1.389 . S
C808 C807 1.443 . S
C808 C809 1.340 . S
C808 H840 0.951 . S
C809 C808 1.340 . S
C809 C810 1.439 . S
C809 H841 0.950 . S
C810 N806 1.374 . S
C810 C809 1.439 . S
C810 C835 1.395 . S
N811 Co800 1.995 . S
N811 C812 1.376 . S
N811 C815 1.383 . S
C812 N811 1.376 . S
C812 C813 1.446 . S
C812 C835 1.391 . S
C813 C812 1.446 . S
C813 C814 1.339 . S
C813 H842 0.949 . S
C814 C813 1.339 . S
C814 C815 1.439 . S
C814 H843 0.950 . S
C815 N811 1.383 . S
C815 C814 1.439 . S
C815 C833 1.392 . S
N816 Co800 2.282 . S
N816 C819 1.332 . S
N816 C821 1.332 . S
C817 C818 1.386 . S
C817 C820 1.388 . S
C818 C817 1.386 . S
C818 C819 1.382 . S
C818 H844 0.950 . S
C819 N816 1.332 . S
C819 C818 1.382 . S
C819 H830 0.952 . S
C820 C817 1.388 . S
C820 C821 1.382 . S
C820 H845 0.950 . S
C821 N816 1.332 . S
C821 C820 1.382 . S
C821 H831 0.948 . S
N822 Co800 2.282 . S
N822 C826 1.332 . S
N822 C827 1.332 . S
C823 C824 1.388 . S
C823 C827 1.382 . S
C823 H846 0.950 . S
C824 C823 1.388 . S
C824 C825 1.386 . S
C825 C824 1.386 . S
C825 C826 1.382 . S
C825 H847 0.950 . S
C826 N822 1.332 . S
C826 C825 1.382 . S
C826 H828 0.952 . S
C827 N822 1.332 . S
C827 C823 1.382 . S
C827 H829 0.948 . S
H828 C826 0.952 . S
H829 C827 0.948 . S
H830 C819 0.952 . S
H831 C821 0.948 . S
C832 C798 1.395 . S
C832 C802 1.391 . S
C833 C795 1.389 . S
C833 C815 1.392 . S
C834 C805 1.392 . S
C834 C807 1.389 . S
C835 C810 1.395 . S
C835 C812 1.391 . S
H836 C796 0.951 . S
H837 C797 0.950 . S
H838 C803 0.949 . S
H839 C804 0.950 . S
H840 C808 0.951 . S
H841 C809 0.950 . S
H842 C813 0.949 . S
H843 C814 0.950 . S
H844 C818 0.950 . S
H845 C820 0.950 . S
H846 C823 0.950 . S
H847 C825 0.950 . S
C848 C849 1.349 . S
C848 C850 1.327 . S
C848 H873 0.950 . S
C849 C848 1.349 . S
C849 C865 1.349 . S
C850 C848 1.327 . S
C850 C869 1.429 . S
C850 H874 0.950 . S
C851 C868 1.574 . S
C851 C870 1.368 . S
C851 H875 0.949 . S
H852 C856 0.949 . S
C853 C854 1.349 . S
C853 C855 1.327 . S
C853 H876 0.950 . S
C854 C853 1.349 . S
C854 C866 1.349 . S
C855 C853 1.327 . S
C855 C871 1.429 . S
C855 H877 0.950 . S
C856 H852 0.949 . S
C856 C864 1.574 . S
C856 C872 1.368 . S
H857 C865 0.950 . S
H858 C863 0.950 . S
H859 C864 0.949 . S
H860 C866 0.950 . S
H861 C867 0.950 . S
H862 C868 0.949 . S
C863 H858 0.950 . S
C863 C865 1.327 . S
C863 C869 1.429 . S
C864 C856 1.574 . S
C864 H859 0.949 . S
C864 C870 1.368 . S
C865 C849 1.349 . S
C865 H857 0.950 . S
C865 C863 1.327 . S
C866 C854 1.349 . S
C866 H860 0.950 . S
C866 C867 1.327 . S
C867 H861 0.950 . S
C867 C866 1.327 . S
C867 C871 1.429 . S
C868 C851 1.574 . S
C868 H862 0.949 . S
C868 C872 1.368 . S
C869 C850 1.429 . S
C869 C863 1.429 . S
C869 C870 1.523 . S
C870 C851 1.368 . S
C870 C864 1.368 . S
C870 C869 1.523 . S
C871 C855 1.429 . S
C871 C867 1.429 . S
C871 C872 1.523 . S
C872 C856 1.368 . S
C872 C868 1.368 . S
C872 C871 1.523 . S
H873 C848 0.950 . S
H874 C850 0.950 . S
H875 C851 0.949 . S
H876 C853 0.950 . S
H877 C855 0.950 . S
C878 C879 1.349 . S
C878 C880 1.327 . S
C878 H903 0.950 . S
C879 C878 1.349 . S
C879 C895 1.349 . S
C880 C878 1.327 . S
C880 C899 1.429 . S
C880 H904 0.950 . S
C881 C898 1.574 . S
C881 C900 1.368 . S
C881 H905 0.949 . S
H882 C886 0.949 . S
C883 C884 1.349 . S
C883 C885 1.327 . S
C883 H906 0.950 . S
C884 C883 1.349 . S
C884 C896 1.349 . S
C885 C883 1.327 . S
C885 C901 1.429 . S
C885 H907 0.950 . S
C886 H882 0.949 . S
C886 C894 1.574 . S
C886 C902 1.368 . S
H887 C895 0.950 . S
H888 C893 0.950 . S
H889 C894 0.949 . S
H890 C896 0.950 . S
H891 C897 0.950 . S
H892 C898 0.949 . S
C893 H888 0.950 . S
C893 C895 1.327 . S
C893 C899 1.429 . S
C894 C886 1.574 . S
C894 H889 0.949 . S
C894 C900 1.368 . S
C895 C879 1.349 . S
C895 H887 0.950 . S
C895 C893 1.327 . S
C896 C884 1.349 . S
C896 H890 0.950 . S
C896 C897 1.327 . S
C897 H891 0.950 . S
C897 C896 1.327 . S
C897 C901 1.429 . S
C898 C881 1.574 . S
C898 H892 0.949 . S
C898 C902 1.368 . S
C899 C880 1.429 . S
C899 C893 1.429 . S
C899 C900 1.523 . S
C900 C881 1.368 . S
C900 C894 1.368 . S
C900 C899 1.523 . S
C901 C885 1.429 . S
C901 C897 1.429 . S
C901 C902 1.523 . S
C902 C886 1.368 . S
C902 C898 1.368 . S
C902 C901 1.523 . S
H903 C878 0.950 . S
H904 C880 0.950 . S
H905 C881 0.949 . S
H906 C883 0.950 . S
H907 C885 0.950 . S
C908 C909 1.349 . S
C908 C910 1.327 . S
C908 H933 0.950 . S
C909 C908 1.349 . S
C909 C925 1.349 . S
C910 C908 1.327 . S
C910 C929 1.429 . S
C910 H934 0.950 . S
C911 C928 1.574 1_554 S
C911 C930 1.368 . S
C911 H935 0.949 . S
H912 C916 0.949 . S
C913 C914 1.349 . S
C913 C915 1.327 . S
C913 H936 0.950 . S
C914 C913 1.349 . S
C914 C926 1.349 . S
C915 C913 1.327 . S
C915 C931 1.429 . S
C915 H937 0.950 . S
C916 H912 0.949 . S
C916 C924 1.574 1_556 S
C916 C932 1.368 . S
H917 C925 0.950 . S
H918 C923 0.950 . S
H919 C924 0.949 . S
H920 C926 0.950 . S
H921 C927 0.950 . S
H922 C928 0.949 . S
C923 H918 0.950 . S
C923 C925 1.327 . S
C923 C929 1.429 . S
C924 C916 1.574 1_554 S
C924 H919 0.949 . S
C924 C930 1.368 . S
C925 C909 1.349 . S
C925 H917 0.950 . S
C925 C923 1.327 . S
C926 C914 1.349 . S
C926 H920 0.950 . S
C926 C927 1.327 . S
C927 H921 0.950 . S
C927 C926 1.327 . S
C927 C931 1.429 . S
C928 C911 1.574 1_556 S
C928 H922 0.949 . S
C928 C932 1.368 . S
C929 C910 1.429 . S
C929 C923 1.429 . S
C929 C930 1.523 . S
C930 C911 1.368 . S
C930 C924 1.368 . S
C930 C929 1.523 . S
C931 C915 1.429 . S
C931 C927 1.429 . S
C931 C932 1.523 . S
C932 C916 1.368 . S
C932 C928 1.368 . S
C932 C931 1.523 . S
H933 C908 0.950 . S
H934 C910 0.950 . S
H935 C911 0.949 . S
H936 C913 0.950 . S
H937 C915 0.950 . S
C938 C939 1.349 . S
C938 C940 1.327 . S
C938 H963 0.950 . S
C939 C938 1.349 . S
C939 C955 1.349 . S
C940 C938 1.327 . S
C940 C959 1.429 . S
C940 H964 0.950 . S
C941 C958 1.574 1_556 S
C941 C960 1.368 . S
C941 H965 0.949 . S
H942 C946 0.949 . S
C943 C944 1.349 . S
C943 C945 1.327 . S
C943 H966 0.950 . S
C944 C943 1.349 . S
C944 C956 1.349 . S
C945 C943 1.327 . S
C945 C961 1.429 . S
C945 H967 0.950 . S
C946 H942 0.949 . S
C946 C954 1.574 1_554 S
C946 C962 1.368 . S
H947 C955 0.950 . S
H948 C953 0.950 . S
H949 C954 0.949 . S
H950 C956 0.950 . S
H951 C957 0.950 . S
H952 C958 0.949 . S
C953 H948 0.950 . S
C953 C955 1.327 . S
C953 C959 1.429 . S
C954 C946 1.574 1_556 S
C954 H949 0.949 . S
C954 C960 1.368 . S
C955 C939 1.349 . S
C955 H947 0.950 . S
C955 C953 1.327 . S
C956 C944 1.349 . S
C956 H950 0.950 . S
C956 C957 1.327 . S
C957 H951 0.950 . S
C957 C956 1.327 . S
C957 C961 1.429 . S
C958 C941 1.574 1_554 S
C958 H952 0.949 . S
C958 C962 1.368 . S
C959 C940 1.429 . S
C959 C953 1.429 . S
C959 C960 1.523 . S
C960 C941 1.368 . S
C960 C954 1.368 . S
C960 C959 1.523 . S
C961 C945 1.429 . S
C961 C957 1.429 . S
C961 C962 1.523 . S
C962 C946 1.368 . S
C962 C958 1.368 . S
C962 C961 1.523 . S
H963 C938 0.950 . S
H964 C940 0.950 . S
H965 C941 0.949 . S
H966 C943 0.950 . S
H967 C945 0.950 . S
C968 C969 1.349 . S
C968 C970 1.327 . S
C968 H993 0.950 . S
C969 C968 1.349 . S
C969 C985 1.349 . S
C970 C968 1.327 . S
C970 C989 1.429 . S
C970 H994 0.950 . S
C971 C988 1.574 . S
C971 C990 1.368 . S
C971 H995 0.949 . S
H972 C976 0.949 . S
C973 C974 1.349 . S
C973 C975 1.327 . S
C973 H996 0.950 . S
C974 C973 1.349 . S
C974 C986 1.349 . S
C975 C973 1.327 . S
C975 C991 1.429 . S
C975 H997 0.950 . S
C976 H972 0.949 . S
C976 C984 1.574 . S
C976 C992 1.368 . S
H977 C985 0.950 . S
H978 C983 0.950 . S
H979 C984 0.949 . S
H980 C986 0.950 . S
H981 C987 0.950 . S
H982 C988 0.949 . S
C983 H978 0.950 . S
C983 C985 1.327 . S
C983 C989 1.429 . S
C984 C976 1.574 . S
C984 H979 0.949 . S
C984 C990 1.368 . S
C985 C969 1.349 . S
C985 H977 0.950 . S
C985 C983 1.327 . S
C986 C974 1.349 . S
C986 H980 0.950 . S
C986 C987 1.327 . S
C987 H981 0.950 . S
C987 C986 1.327 . S
C987 C991 1.429 . S
C988 C971 1.574 . S
C988 H982 0.949 . S
C988 C992 1.368 . S
C989 C970 1.429 . S
C989 C983 1.429 . S
C989 C990 1.523 . S
C990 C971 1.368 . S
C990 C984 1.368 . S
C990 C989 1.523 . S
C991 C975 1.429 . S
C991 C987 1.429 . S
C991 C992 1.523 . S
C992 C976 1.368 . S
C992 C988 1.368 . S
C992 C991 1.523 . S
H993 C968 0.950 . S
H994 C970 0.950 . S
H995 C971 0.949 . S
H996 C973 0.950 . S
H997 C975 0.950 . S
C998 C999 1.349 . S
C998 C1000 1.327 . S
C998 H1023 0.950 . S
C999 C998 1.349 . S
C999 C1015 1.349 . S
C1000 C998 1.327 . S
C1000 C1019 1.429 . S
C1000 H1024 0.950 . S
C1001 C1018 1.574 . S
C1001 C1020 1.368 . S
C1001 H1025 0.949 . S
H1002 C1006 0.949 . S
C1003 C1004 1.349 . S
C1003 C1005 1.327 . S
C1003 H1026 0.950 . S
C1004 C1003 1.349 . S
C1004 C1016 1.349 . S
C1005 C1003 1.327 . S
C1005 C1021 1.429 . S
C1005 H1027 0.950 . S
C1006 H1002 0.949 . S
C1006 C1014 1.574 . S
C1006 C1022 1.368 . S
H1007 C1015 0.950 . S
H1008 C1013 0.950 . S
H1009 C1014 0.949 . S
H1010 C1016 0.950 . S
H1011 C1017 0.950 . S
H1012 C1018 0.949 . S
C1013 H1008 0.950 . S
C1013 C1015 1.327 . S
C1013 C1019 1.429 . S
C1014 C1006 1.574 . S
C1014 H1009 0.949 . S
C1014 C1020 1.368 . S
C1015 C999 1.349 . S
C1015 H1007 0.950 . S
C1015 C1013 1.327 . S
C1016 C1004 1.349 . S
C1016 H1010 0.950 . S
C1016 C1017 1.327 . S
C1017 H1011 0.950 . S
C1017 C1016 1.327 . S
C1017 C1021 1.429 . S
C1018 C1001 1.574 . S
C1018 H1012 0.949 . S
C1018 C1022 1.368 . S
C1019 C1000 1.429 . S
C1019 C1013 1.429 . S
C1019 C1020 1.523 . S
C1020 C1001 1.368 . S
C1020 C1014 1.368 . S
C1020 C1019 1.523 . S
C1021 C1005 1.429 . S
C1021 C1017 1.429 . S
C1021 C1022 1.523 . S
C1022 C1006 1.368 . S
C1022 C1018 1.368 . S
C1022 C1021 1.523 . S
H1023 C998 0.950 . S
H1024 C1000 0.950 . S
H1025 C1001 0.949 . S
H1026 C1003 0.950 . S
H1027 C1005 0.950 . S
C1028 C1029 1.349 . S
C1028 C1030 1.327 . S
C1028 H1053 0.950 . S
C1029 C1028 1.349 . S
C1029 C1045 1.349 . S
C1030 C1028 1.327 . S
C1030 C1049 1.429 . S
C1030 H1054 0.950 . S
C1031 C1048 1.574 1_556 S
C1031 C1050 1.368 . S
C1031 H1055 0.949 . S
H1032 C1036 0.949 . S
C1033 C1034 1.349 . S
C1033 C1035 1.327 . S
C1033 H1056 0.950 . S
C1034 C1033 1.349 . S
C1034 C1046 1.349 . S
C1035 C1033 1.327 . S
C1035 C1051 1.429 . S
C1035 H1057 0.950 . S
C1036 H1032 0.949 . S
C1036 C1044 1.574 1_554 S
C1036 C1052 1.368 . S
H1037 C1045 0.950 . S
H1038 C1043 0.950 . S
H1039 C1044 0.949 . S
H1040 C1046 0.950 . S
H1041 C1047 0.950 . S
H1042 C1048 0.949 . S
C1043 H1038 0.950 . S
C1043 C1045 1.327 . S
C1043 C1049 1.429 . S
C1044 C1036 1.574 1_556 S
C1044 H1039 0.949 . S
C1044 C1050 1.368 . S
C1045 C1029 1.349 . S
C1045 H1037 0.950 . S
C1045 C1043 1.327 . S
C1046 C1034 1.349 . S
C1046 H1040 0.950 . S
C1046 C1047 1.327 . S
C1047 H1041 0.950 . S
C1047 C1046 1.327 . S
C1047 C1051 1.429 . S
C1048 C1031 1.574 1_554 S
C1048 H1042 0.949 . S
C1048 C1052 1.368 . S
C1049 C1030 1.429 . S
C1049 C1043 1.429 . S
C1049 C1050 1.523 . S
C1050 C1031 1.368 . S
C1050 C1044 1.368 . S
C1050 C1049 1.523 . S
C1051 C1035 1.429 . S
C1051 C1047 1.429 . S
C1051 C1052 1.523 . S
C1052 C1036 1.368 . S
C1052 C1048 1.368 . S
C1052 C1051 1.523 . S
H1053 C1028 0.950 . S
H1054 C1030 0.950 . S
H1055 C1031 0.949 . S
H1056 C1033 0.950 . S
H1057 C1035 0.950 . S
C1058 C1059 1.349 . S
C1058 C1060 1.327 . S
C1058 H1083 0.950 . S
C1059 C1058 1.349 . S
C1059 C1075 1.349 . S
C1060 C1058 1.327 . S
C1060 C1079 1.429 . S
C1060 H1084 0.950 . S
C1061 C1078 1.574 1_554 S
C1061 C1080 1.368 . S
C1061 H1085 0.949 . S
H1062 C1066 0.949 . S
C1063 C1064 1.349 . S
C1063 C1065 1.327 . S
C1063 H1086 0.950 . S
C1064 C1063 1.349 . S
C1064 C1076 1.349 . S
C1065 C1063 1.327 . S
C1065 C1081 1.429 . S
C1065 H1087 0.950 . S
C1066 H1062 0.949 . S
C1066 C1074 1.574 1_556 S
C1066 C1082 1.368 . S
H1067 C1075 0.950 . S
H1068 C1073 0.950 . S
H1069 C1074 0.949 . S
H1070 C1076 0.950 . S
H1071 C1077 0.950 . S
H1072 C1078 0.949 . S
C1073 H1068 0.950 . S
C1073 C1075 1.327 . S
C1073 C1079 1.429 . S
C1074 C1066 1.574 1_554 S
C1074 H1069 0.949 . S
C1074 C1080 1.368 . S
C1075 C1059 1.349 . S
C1075 H1067 0.950 . S
C1075 C1073 1.327 . S
C1076 C1064 1.349 . S
C1076 H1070 0.950 . S
C1076 C1077 1.327 . S
C1077 H1071 0.950 . S
C1077 C1076 1.327 . S
C1077 C1081 1.429 . S
C1078 C1061 1.574 1_556 S
C1078 H1072 0.949 . S
C1078 C1082 1.368 . S
C1079 C1060 1.429 . S
C1079 C1073 1.429 . S
C1079 C1080 1.523 . S
C1080 C1061 1.368 . S
C1080 C1074 1.368 . S
C1080 C1079 1.523 . S
C1081 C1065 1.429 . S
C1081 C1077 1.429 . S
C1081 C1082 1.523 . S
C1082 C1066 1.368 . S
C1082 C1078 1.368 . S
C1082 C1081 1.523 . S
H1083 C1058 0.950 . S
H1084 C1060 0.950 . S
H1085 C1061 0.949 . S
H1086 C1063 0.950 . S
H1087 C1065 0.950 . S
C1088 C1089 1.349 . S
C1088 C1090 1.327 . S
C1088 H1113 0.950 . S
C1089 C1088 1.349 . S
C1089 C1105 1.349 . S
C1090 C1088 1.327 . S
C1090 C1109 1.429 . S
C1090 H1114 0.950 . S
C1091 C1108 1.574 . S
C1091 C1110 1.368 . S
C1091 H1115 0.949 . S
H1092 C1096 0.949 . S
C1093 C1094 1.349 . S
C1093 C1095 1.327 . S
C1093 H1116 0.950 . S
C1094 C1093 1.349 . S
C1094 C1106 1.349 . S
C1095 C1093 1.327 . S
C1095 C1111 1.429 . S
C1095 H1117 0.950 . S
C1096 H1092 0.949 . S
C1096 C1104 1.574 . S
C1096 C1112 1.368 . S
H1097 C1105 0.950 . S
H1098 C1103 0.950 . S
H1099 C1104 0.949 . S
H1100 C1106 0.950 . S
H1101 C1107 0.950 . S
H1102 C1108 0.949 . S
C1103 H1098 0.950 . S
C1103 C1105 1.327 . S
C1103 C1109 1.429 . S
C1104 C1096 1.574 . S
C1104 H1099 0.949 . S
C1104 C1110 1.368 1_545 S
C1105 C1089 1.349 . S
C1105 H1097 0.950 . S
C1105 C1103 1.327 . S
C1106 C1094 1.349 . S
C1106 H1100 0.950 . S
C1106 C1107 1.327 . S
C1107 H1101 0.950 . S
C1107 C1106 1.327 . S
C1107 C1111 1.429 . S
C1108 C1091 1.574 . S
C1108 H1102 0.949 . S
C1108 C1112 1.368 1_565 S
C1109 C1090 1.429 . S
C1109 C1103 1.429 . S
C1109 C1110 1.523 . S
C1110 C1091 1.368 . S
C1110 C1104 1.368 1_565 S
C1110 C1109 1.523 . S
C1111 C1095 1.429 . S
C1111 C1107 1.429 . S
C1111 C1112 1.523 . S
C1112 C1096 1.368 . S
C1112 C1108 1.368 1_545 S
C1112 C1111 1.523 . S
H1113 C1088 0.950 . S
H1114 C1090 0.950 . S
H1115 C1091 0.949 . S
H1116 C1093 0.950 . S
H1117 C1095 0.950 . S
C1118 C1119 1.349 . S
C1118 C1120 1.327 . S
C1118 H1143 0.950 . S
C1119 C1118 1.349 . S
C1119 C1135 1.349 . S
C1120 C1118 1.327 . S
C1120 C1139 1.429 . S
C1120 H1144 0.950 . S
C1121 C1138 1.574 . S
C1121 C1140 1.368 1_545 S
C1121 H1145 0.949 . S
H1122 C1126 0.949 . S
C1123 C1124 1.349 . S
C1123 C1125 1.327 . S
C1123 H1146 0.950 . S
C1124 C1123 1.349 . S
C1124 C1136 1.349 . S
C1125 C1123 1.327 . S
C1125 C1141 1.429 . S
C1125 H1147 0.950 . S
C1126 H1122 0.949 . S
C1126 C1134 1.574 . S
C1126 C1142 1.368 1_565 S
H1127 C1135 0.950 . S
H1128 C1133 0.950 . S
H1129 C1134 0.949 . S
H1130 C1136 0.950 . S
H1131 C1137 0.950 . S
H1132 C1138 0.949 . S
C1133 H1128 0.950 . S
C1133 C1135 1.327 . S
C1133 C1139 1.429 . S
C1134 C1126 1.574 . S
C1134 H1129 0.949 . S
C1134 C1140 1.368 . S
C1135 C1119 1.349 . S
C1135 H1127 0.950 . S
C1135 C1133 1.327 . S
C1136 C1124 1.349 . S
C1136 H1130 0.950 . S
C1136 C1137 1.327 . S
C1137 H1131 0.950 . S
C1137 C1136 1.327 . S
C1137 C1141 1.429 . S
C1138 C1121 1.574 . S
C1138 H1132 0.949 . S
C1138 C1142 1.368 . S
C1139 C1120 1.429 . S
C1139 C1133 1.429 . S
C1139 C1140 1.523 . S
C1140 C1121 1.368 1_565 S
C1140 C1134 1.368 . S
C1140 C1139 1.523 . S
C1141 C1125 1.429 . S
C1141 C1137 1.429 . S
C1141 C1142 1.523 . S
C1142 C1126 1.368 1_545 S
C1142 C1138 1.368 . S
C1142 C1141 1.523 . S
H1143 C1118 0.950 . S
H1144 C1120 0.950 . S
H1145 C1121 0.949 . S
H1146 C1123 0.950 . S
H1147 C1125 0.950 . S
C1148 C1149 1.349 . S
C1148 C1150 1.327 . S
C1148 H1173 0.950 . S
C1149 C1148 1.349 . S
C1149 C1165 1.349 . S
C1150 C1148 1.327 . S
C1150 C1169 1.429 . S
C1150 H1174 0.950 . S
C1151 C1168 1.574 . S
C1151 C1170 1.368 . S
C1151 H1175 0.949 . S
H1152 C1156 0.949 . S
C1153 C1154 1.349 . S
C1153 C1155 1.327 . S
C1153 H1176 0.950 . S
C1154 C1153 1.349 . S
C1154 C1166 1.349 . S
C1155 C1153 1.327 . S
C1155 C1171 1.429 . S
C1155 H1177 0.950 . S
C1156 H1152 0.949 . S
C1156 C1164 1.574 . S
C1156 C1172 1.368 . S
H1157 C1165 0.950 . S
H1158 C1163 0.950 . S
H1159 C1164 0.949 . S
H1160 C1166 0.950 . S
H1161 C1167 0.950 . S
H1162 C1168 0.949 . S
C1163 H1158 0.950 . S
C1163 C1165 1.327 . S
C1163 C1169 1.429 . S
C1164 C1156 1.574 . S
C1164 H1159 0.949 . S
C1164 C1170 1.368 1_545 S
C1165 C1149 1.349 . S
C1165 H1157 0.950 . S
C1165 C1163 1.327 . S
C1166 C1154 1.349 . S
C1166 H1160 0.950 . S
C1166 C1167 1.327 . S
C1167 H1161 0.950 . S
C1167 C1166 1.327 . S
C1167 C1171 1.429 . S
C1168 C1151 1.574 . S
C1168 H1162 0.949 . S
C1168 C1172 1.368 1_565 S
C1169 C1150 1.429 . S
C1169 C1163 1.429 . S
C1169 C1170 1.523 . S
C1170 C1151 1.368 . S
C1170 C1164 1.368 1_565 S
C1170 C1169 1.523 . S
C1171 C1155 1.429 . S
C1171 C1167 1.429 . S
C1171 C1172 1.523 . S
C1172 C1156 1.368 . S
C1172 C1168 1.368 1_545 S
C1172 C1171 1.523 . S
H1173 C1148 0.950 . S
H1174 C1150 0.950 . S
H1175 C1151 0.949 . S
H1176 C1153 0.950 . S
H1177 C1155 0.950 . S
C1178 C1179 1.349 . S
C1178 C1180 1.327 . S
C1178 H1203 0.950 . S
C1179 C1178 1.349 . S
C1179 C1195 1.349 . S
C1180 C1178 1.327 . S
C1180 C1199 1.429 . S
C1180 H1204 0.950 . S
C1181 C1198 1.574 . S
C1181 C1200 1.368 1_565 S
C1181 H1205 0.949 . S
H1182 C1186 0.949 . S
C1183 C1184 1.349 . S
C1183 C1185 1.327 . S
C1183 H1206 0.950 . S
C1184 C1183 1.349 . S
C1184 C1196 1.349 . S
C1185 C1183 1.327 . S
C1185 C1201 1.429 . S
C1185 H1207 0.950 . S
C1186 H1182 0.949 . S
C1186 C1194 1.574 . S
C1186 C1202 1.368 1_545 S
H1187 C1195 0.950 . S
H1188 C1193 0.950 . S
H1189 C1194 0.949 . S
H1190 C1196 0.950 . S
H1191 C1197 0.950 . S
H1192 C1198 0.949 . S
C1193 H1188 0.950 . S
C1193 C1195 1.327 . S
C1193 C1199 1.429 . S
C1194 C1186 1.574 . S
C1194 H1189 0.949 . S
C1194 C1200 1.368 . S
C1195 C1179 1.349 . S
C1195 H1187 0.950 . S
C1195 C1193 1.327 . S
C1196 C1184 1.349 . S
C1196 H1190 0.950 . S
C1196 C1197 1.327 . S
C1197 H1191 0.950 . S
C1197 C1196 1.327 . S
C1197 C1201 1.429 . S
C1198 C1181 1.574 . S
C1198 H1192 0.949 . S
C1198 C1202 1.368 . S
C1199 C1180 1.429 . S
C1199 C1193 1.429 . S
C1199 C1200 1.523 . S
C1200 C1181 1.368 1_545 S
C1200 C1194 1.368 . S
C1200 C1199 1.523 . S
C1201 C1185 1.429 . S
C1201 C1197 1.429 . S
C1201 C1202 1.523 . S
C1202 C1186 1.368 1_565 S
C1202 C1198 1.368 . S
C1202 C1201 1.523 . S
H1203 C1178 0.950 . S
H1204 C1180 0.950 . S
H1205 C1181 0.949 . S
H1206 C1183 0.950 . S
H1207 C1185 0.950 . S
C1208 C1209 1.349 . S
C1208 C1210 1.327 . S
C1208 H1233 0.950 . S
C1209 C1208 1.349 . S
C1209 C1225 1.349 . S
C1210 C1208 1.327 . S
C1210 C1229 1.429 . S
C1210 H1234 0.950 . S
C1211 C1228 1.574 1_655 S
C1211 C1230 1.368 . S
C1211 H1235 0.949 . S
H1212 C1216 0.949 . S
C1213 C1214 1.349 . S
C1213 C1215 1.327 . S
C1213 H1236 0.950 . S
C1214 C1213 1.349 . S
C1214 C1226 1.349 . S
C1215 C1213 1.327 . S
C1215 C1231 1.429 . S
C1215 H1237 0.950 . S
C1216 H1212 0.949 . S
C1216 C1224 1.574 1_455 S
C1216 C1232 1.368 . S
H1217 C1225 0.950 . S
H1218 C1223 0.950 . S
H1219 C1224 0.949 . S
H1220 C1226 0.950 . S
H1221 C1227 0.950 . S
H1222 C1228 0.949 . S
C1223 H1218 0.950 . S
C1223 C1225 1.327 . S
C1223 C1229 1.429 . S
C1224 C1216 1.574 1_655 S
C1224 H1219 0.949 . S
C1224 C1230 1.368 . S
C1225 C1209 1.349 . S
C1225 H1217 0.950 . S
C1225 C1223 1.327 . S
C1226 C1214 1.349 . S
C1226 H1220 0.950 . S
C1226 C1227 1.327 . S
C1227 H1221 0.950 . S
C1227 C1226 1.327 . S
C1227 C1231 1.429 . S
C1228 C1211 1.574 1_455 S
C1228 H1222 0.949 . S
C1228 C1232 1.368 . S
C1229 C1210 1.429 . S
C1229 C1223 1.429 . S
C1229 C1230 1.523 . S
C1230 C1211 1.368 . S
C1230 C1224 1.368 . S
C1230 C1229 1.523 . S
C1231 C1215 1.429 . S
C1231 C1227 1.429 . S
C1231 C1232 1.523 . S
C1232 C1216 1.368 . S
C1232 C1228 1.368 . S
C1232 C1231 1.523 . S
H1233 C1208 0.950 . S
H1234 C1210 0.950 . S
H1235 C1211 0.949 . S
H1236 C1213 0.950 . S
H1237 C1215 0.950 . S
C1238 C1239 1.349 . S
C1238 C1240 1.327 . S
C1238 H1263 0.950 . S
C1239 C1238 1.349 . S
C1239 C1255 1.349 . S
C1240 C1238 1.327 . S
C1240 C1259 1.429 . S
C1240 H1264 0.950 . S
C1241 C1258 1.574 1_455 S
C1241 C1260 1.368 . S
C1241 H1265 0.949 . S
H1242 C1246 0.949 . S
C1243 C1244 1.349 . S
C1243 C1245 1.327 . S
C1243 H1266 0.950 . S
C1244 C1243 1.349 . S
C1244 C1256 1.349 . S
C1245 C1243 1.327 . S
C1245 C1261 1.429 . S
C1245 H1267 0.950 . S
C1246 H1242 0.949 . S
C1246 C1254 1.574 1_655 S
C1246 C1262 1.368 . S
H1247 C1255 0.950 . S
H1248 C1253 0.950 . S
H1249 C1254 0.949 . S
H1250 C1256 0.950 . S
H1251 C1257 0.950 . S
H1252 C1258 0.949 . S
C1253 H1248 0.950 . S
C1253 C1255 1.327 . S
C1253 C1259 1.429 . S
C1254 C1246 1.574 1_455 S
C1254 H1249 0.949 . S
C1254 C1260 1.368 . S
C1255 C1239 1.349 . S
C1255 H1247 0.950 . S
C1255 C1253 1.327 . S
C1256 C1244 1.349 . S
C1256 H1250 0.950 . S
C1256 C1257 1.327 . S
C1257 H1251 0.950 . S
C1257 C1256 1.327 . S
C1257 C1261 1.429 . S
C1258 C1241 1.574 1_655 S
C1258 H1252 0.949 . S
C1258 C1262 1.368 . S
C1259 C1240 1.429 . S
C1259 C1253 1.429 . S
C1259 C1260 1.523 . S
C1260 C1241 1.368 . S
C1260 C1254 1.368 . S
C1260 C1259 1.523 . S
C1261 C1245 1.429 . S
C1261 C1257 1.429 . S
C1261 C1262 1.523 . S
C1262 C1246 1.368 . S
C1262 C1258 1.368 . S
C1262 C1261 1.523 . S
H1263 C1238 0.950 . S
H1264 C1240 0.950 . S
H1265 C1241 0.949 . S
H1266 C1243 0.950 . S
H1267 C1245 0.950 . S
C1268 C1269 1.349 . S
C1268 C1270 1.327 . S
C1268 H1293 0.950 . S
C1269 C1268 1.349 . S
C1269 C1285 1.349 . S
C1270 C1268 1.327 . S
C1270 C1289 1.429 . S
C1270 H1294 0.950 . S
C1271 C1288 1.574 1_655 S
C1271 C1290 1.368 . S
C1271 H1295 0.949 . S
H1272 C1276 0.949 . S
C1273 C1274 1.349 . S
C1273 C1275 1.327 . S
C1273 H1296 0.950 . S
C1274 C1273 1.349 . S
C1274 C1286 1.349 . S
C1275 C1273 1.327 . S
C1275 C1291 1.429 . S
C1275 H1297 0.950 . S
C1276 H1272 0.949 . S
C1276 C1284 1.574 1_455 S
C1276 C1292 1.368 . S
H1277 C1285 0.950 . S
H1278 C1283 0.950 . S
H1279 C1284 0.949 . S
H1280 C1286 0.950 . S
H1281 C1287 0.950 . S
H1282 C1288 0.949 . S
C1283 H1278 0.950 . S
C1283 C1285 1.327 . S
C1283 C1289 1.429 . S
C1284 C1276 1.574 1_655 S
C1284 H1279 0.949 . S
C1284 C1290 1.368 . S
C1285 C1269 1.349 . S
C1285 H1277 0.950 . S
C1285 C1283 1.327 . S
C1286 C1274 1.349 . S
C1286 H1280 0.950 . S
C1286 C1287 1.327 . S
C1287 H1281 0.950 . S
C1287 C1286 1.327 . S
C1287 C1291 1.429 . S
C1288 C1271 1.574 1_455 S
C1288 H1282 0.949 . S
C1288 C1292 1.368 . S
C1289 C1270 1.429 . S
C1289 C1283 1.429 . S
C1289 C1290 1.523 . S
C1290 C1271 1.368 . S
C1290 C1284 1.368 . S
C1290 C1289 1.523 . S
C1291 C1275 1.429 . S
C1291 C1287 1.429 . S
C1291 C1292 1.523 . S
C1292 C1276 1.368 . S
C1292 C1288 1.368 . S
C1292 C1291 1.523 . S
H1293 C1268 0.950 . S
H1294 C1270 0.950 . S
H1295 C1271 0.949 . S
H1296 C1273 0.950 . S
H1297 C1275 0.950 . S
C1298 C1299 1.349 . S
C1298 C1300 1.327 . S
C1298 H1323 0.950 . S
C1299 C1298 1.349 . S
C1299 C1315 1.349 . S
C1300 C1298 1.327 . S
C1300 C1319 1.429 . S
C1300 H1324 0.950 . S
C1301 C1318 1.574 1_455 S
C1301 C1320 1.368 . S
C1301 H1325 0.949 . S
H1302 C1306 0.949 . S
C1303 C1304 1.349 . S
C1303 C1305 1.327 . S
C1303 H1326 0.950 . S
C1304 C1303 1.349 . S
C1304 C1316 1.349 . S
C1305 C1303 1.327 . S
C1305 C1321 1.429 . S
C1305 H1327 0.950 . S
C1306 H1302 0.949 . S
C1306 C1314 1.574 1_655 S
C1306 C1322 1.368 . S
H1307 C1315 0.950 . S
H1308 C1313 0.950 . S
H1309 C1314 0.949 . S
H1310 C1316 0.950 . S
H1311 C1317 0.950 . S
H1312 C1318 0.949 . S
C1313 H1308 0.950 . S
C1313 C1315 1.327 . S
C1313 C1319 1.429 . S
C1314 C1306 1.574 1_455 S
C1314 H1309 0.949 . S
C1314 C1320 1.368 . S
C1315 C1299 1.349 . S
C1315 H1307 0.950 . S
C1315 C1313 1.327 . S
C1316 C1304 1.349 . S
C1316 H1310 0.950 . S
C1316 C1317 1.327 . S
C1317 H1311 0.950 . S
C1317 C1316 1.327 . S
C1317 C1321 1.429 . S
C1318 C1301 1.574 1_655 S
C1318 H1312 0.949 . S
C1318 C1322 1.368 . S
C1319 C1300 1.429 . S
C1319 C1313 1.429 . S
C1319 C1320 1.523 . S
C1320 C1301 1.368 . S
C1320 C1314 1.368 . S
C1320 C1319 1.523 . S
C1321 C1305 1.429 . S
C1321 C1317 1.429 . S
C1321 C1322 1.523 . S
C1322 C1306 1.368 . S
C1322 C1318 1.368 . S
C1322 C1321 1.523 . S
H1323 C1298 0.950 . S
H1324 C1300 0.950 . S
H1325 C1301 0.949 . S
H1326 C1303 0.950 . S
H1327 C1305 0.950 . S
C1328 C1329 1.349 . S
C1328 C1330 1.327 . S
C1328 H1353 0.950 . S
C1329 C1328 1.349 . S
C1329 C1345 1.349 . S
C1330 C1328 1.327 . S
C1330 C1349 1.429 . S
C1330 H1354 0.950 . S
C1331 C1348 1.574 . S
C1331 C1350 1.368 . S
C1331 H1355 0.949 . S
H1332 C1336 0.949 . S
C1333 C1334 1.349 . S
C1333 C1335 1.327 . S
C1333 H1356 0.950 . S
C1334 C1333 1.349 . S
C1334 C1346 1.349 . S
C1335 C1333 1.327 . S
C1335 C1351 1.429 . S
C1335 H1357 0.950 . S
C1336 H1332 0.949 . S
C1336 C1344 1.574 . S
C1336 C1352 1.368 . S
H1337 C1345 0.950 . S
H1338 C1343 0.950 . S
H1339 C1344 0.949 . S
H1340 C1346 0.950 . S
H1341 C1347 0.950 . S
H1342 C1348 0.949 . S
C1343 H1338 0.950 . S
C1343 C1345 1.327 . S
C1343 C1349 1.429 . S
C1344 C1336 1.574 . S
C1344 H1339 0.949 . S
C1344 C1350 1.368 . S
C1345 C1329 1.349 . S
C1345 H1337 0.950 . S
C1345 C1343 1.327 . S
C1346 C1334 1.349 . S
C1346 H1340 0.950 . S
C1346 C1347 1.327 . S
C1347 H1341 0.950 . S
C1347 C1346 1.327 . S
C1347 C1351 1.429 . S
C1348 C1331 1.574 . S
C1348 H1342 0.949 . S
C1348 C1352 1.368 . S
C1349 C1330 1.429 . S
C1349 C1343 1.429 . S
C1349 C1350 1.523 . S
C1350 C1331 1.368 . S
C1350 C1344 1.368 . S
C1350 C1349 1.523 . S
C1351 C1335 1.429 . S
C1351 C1347 1.429 . S
C1351 C1352 1.523 . S
C1352 C1336 1.368 . S
C1352 C1348 1.368 . S
C1352 C1351 1.523 . S
H1353 C1328 0.950 . S
H1354 C1330 0.950 . S
H1355 C1331 0.949 . S
H1356 C1333 0.950 . S
H1357 C1335 0.950 . S
C1358 C1359 1.349 . S
C1358 C1360 1.327 . S
C1358 H1383 0.950 . S
C1359 C1358 1.349 . S
C1359 C1375 1.349 . S
C1360 C1358 1.327 . S
C1360 C1379 1.429 . S
C1360 H1384 0.950 . S
C1361 C1378 1.574 . S
C1361 C1380 1.368 . S
C1361 H1385 0.949 . S
H1362 C1366 0.949 . S
C1363 C1364 1.349 . S
C1363 C1365 1.327 . S
C1363 H1386 0.950 . S
C1364 C1363 1.349 . S
C1364 C1376 1.349 . S
C1365 C1363 1.327 . S
C1365 C1381 1.429 . S
C1365 H1387 0.950 . S
C1366 H1362 0.949 . S
C1366 C1374 1.574 . S
C1366 C1382 1.368 . S
H1367 C1375 0.950 . S
H1368 C1373 0.950 . S
H1369 C1374 0.949 . S
H1370 C1376 0.950 . S
H1371 C1377 0.950 . S
H1372 C1378 0.949 . S
C1373 H1368 0.950 . S
C1373 C1375 1.327 . S
C1373 C1379 1.429 . S
C1374 C1366 1.574 . S
C1374 H1369 0.949 . S
C1374 C1380 1.368 . S
C1375 C1359 1.349 . S
C1375 H1367 0.950 . S
C1375 C1373 1.327 . S
C1376 C1364 1.349 . S
C1376 H1370 0.950 . S
C1376 C1377 1.327 . S
C1377 H1371 0.950 . S
C1377 C1376 1.327 . S
C1377 C1381 1.429 . S
C1378 C1361 1.574 . S
C1378 H1372 0.949 . S
C1378 C1382 1.368 . S
C1379 C1360 1.429 . S
C1379 C1373 1.429 . S
C1379 C1380 1.523 . S
C1380 C1361 1.368 . S
C1380 C1374 1.368 . S
C1380 C1379 1.523 . S
C1381 C1365 1.429 . S
C1381 C1377 1.429 . S
C1381 C1382 1.523 . S
C1382 C1366 1.368 . S
C1382 C1378 1.368 . S
C1382 C1381 1.523 . S
H1383 C1358 0.950 . S
H1384 C1360 0.950 . S
H1385 C1361 0.949 . S
H1386 C1363 0.950 . S
H1387 C1365 0.950 . S
C1388 C1389 1.349 . S
C1388 C1390 1.327 . S
C1388 H1413 0.950 . S
C1389 C1388 1.349 . S
C1389 C1405 1.349 . S
C1390 C1388 1.327 . S
C1390 C1409 1.429 . S
C1390 H1414 0.950 . S
C1391 C1408 1.574 . S
C1391 C1410 1.368 . S
C1391 H1415 0.949 . S
H1392 C1396 0.949 . S
C1393 C1394 1.349 . S
C1393 C1395 1.327 . S
C1393 H1416 0.950 . S
C1394 C1393 1.349 . S
C1394 C1406 1.349 . S
C1395 C1393 1.327 . S
C1395 C1411 1.429 . S
C1395 H1417 0.950 . S
C1396 H1392 0.949 . S
C1396 C1404 1.574 . S
C1396 C1412 1.368 . S
H1397 C1405 0.950 . S
H1398 C1403 0.950 . S
H1399 C1404 0.949 . S
H1400 C1406 0.950 . S
H1401 C1407 0.950 . S
H1402 C1408 0.949 . S
C1403 H1398 0.950 . S
C1403 C1405 1.327 . S
C1403 C1409 1.429 . S
C1404 C1396 1.574 . S
C1404 H1399 0.949 . S
C1404 C1410 1.368 . S
C1405 C1389 1.349 . S
C1405 H1397 0.950 . S
C1405 C1403 1.327 . S
C1406 C1394 1.349 . S
C1406 H1400 0.950 . S
C1406 C1407 1.327 . S
C1407 H1401 0.950 . S
C1407 C1406 1.327 . S
C1407 C1411 1.429 . S
C1408 C1391 1.574 . S
C1408 H1402 0.949 . S
C1408 C1412 1.368 . S
C1409 C1390 1.429 . S
C1409 C1403 1.429 . S
C1409 C1410 1.523 . S
C1410 C1391 1.368 . S
C1410 C1404 1.368 . S
C1410 C1409 1.523 . S
C1411 C1395 1.429 . S
C1411 C1407 1.429 . S
C1411 C1412 1.523 . S
C1412 C1396 1.368 . S
C1412 C1408 1.368 . S
C1412 C1411 1.523 . S
H1413 C1388 0.950 . S
H1414 C1390 0.950 . S
H1415 C1391 0.949 . S
H1416 C1393 0.950 . S
H1417 C1395 0.950 . S
C1418 C1419 1.349 . S
C1418 C1420 1.327 . S
C1418 H1443 0.950 . S
C1419 C1418 1.349 . S
C1419 C1435 1.349 . S
C1420 C1418 1.327 . S
C1420 C1439 1.429 . S
C1420 H1444 0.950 . S
C1421 C1438 1.574 . S
C1421 C1440 1.368 . S
C1421 H1445 0.949 . S
H1422 C1426 0.949 . S
C1423 C1424 1.349 . S
C1423 C1425 1.327 . S
C1423 H1446 0.950 . S
C1424 C1423 1.349 . S
C1424 C1436 1.349 . S
C1425 C1423 1.327 . S
C1425 C1441 1.429 . S
C1425 H1447 0.950 . S
C1426 H1422 0.949 . S
C1426 C1434 1.574 . S
C1426 C1442 1.368 . S
H1427 C1435 0.950 . S
H1428 C1433 0.950 . S
H1429 C1434 0.949 . S
H1430 C1436 0.950 . S
H1431 C1437 0.950 . S
H1432 C1438 0.949 . S
C1433 H1428 0.950 . S
C1433 C1435 1.327 . S
C1433 C1439 1.429 . S
C1434 C1426 1.574 . S
C1434 H1429 0.949 . S
C1434 C1440 1.368 . S
C1435 C1419 1.349 . S
C1435 H1427 0.950 . S
C1435 C1433 1.327 . S
C1436 C1424 1.349 . S
C1436 H1430 0.950 . S
C1436 C1437 1.327 . S
C1437 H1431 0.950 . S
C1437 C1436 1.327 . S
C1437 C1441 1.429 . S
C1438 C1421 1.574 . S
C1438 H1432 0.949 . S
C1438 C1442 1.368 . S
C1439 C1420 1.429 . S
C1439 C1433 1.429 . S
C1439 C1440 1.523 . S
C1440 C1421 1.368 . S
C1440 C1434 1.368 . S
C1440 C1439 1.523 . S
C1441 C1425 1.429 . S
C1441 C1437 1.429 . S
C1441 C1442 1.523 . S
C1442 C1426 1.368 . S
C1442 C1438 1.368 . S
C1442 C1441 1.523 . S
H1443 C1418 0.950 . S
H1444 C1420 0.950 . S
H1445 C1421 0.949 . S
H1446 C1423 0.950 . S
H1447 C1425 0.950 . S
C1448 C1449 1.349 . S
C1448 C1450 1.327 . S
C1448 H1473 0.950 . S
C1449 C1448 1.349 . S
C1449 C1465 1.349 . S
C1450 C1448 1.327 . S
C1450 C1469 1.429 . S
C1450 H1474 0.950 . S
C1451 C1468 1.574 . S
C1451 C1470 1.368 . S
C1451 H1475 0.949 . S
H1452 C1456 0.949 . S
C1453 C1454 1.349 . S
C1453 C1455 1.327 . S
C1453 H1476 0.950 . S
C1454 C1453 1.349 . S
C1454 C1466 1.349 . S
C1455 C1453 1.327 . S
C1455 C1471 1.429 . S
C1455 H1477 0.950 . S
C1456 H1452 0.949 . S
C1456 C1464 1.574 . S
C1456 C1472 1.368 . S
H1457 C1465 0.950 . S
H1458 C1463 0.950 . S
H1459 C1464 0.949 . S
H1460 C1466 0.950 . S
H1461 C1467 0.950 . S
H1462 C1468 0.949 . S
C1463 H1458 0.950 . S
C1463 C1465 1.327 . S
C1463 C1469 1.429 . S
C1464 C1456 1.574 . S
C1464 H1459 0.949 . S
C1464 C1470 1.368 . S
C1465 C1449 1.349 . S
C1465 H1457 0.950 . S
C1465 C1463 1.327 . S
C1466 C1454 1.349 . S
C1466 H1460 0.950 . S
C1466 C1467 1.327 . S
C1467 H1461 0.950 . S
C1467 C1466 1.327 . S
C1467 C1471 1.429 . S
C1468 C1451 1.574 . S
C1468 H1462 0.949 . S
C1468 C1472 1.368 . S
C1469 C1450 1.429 . S
C1469 C1463 1.429 . S
C1469 C1470 1.523 . S
C1470 C1451 1.368 . S
C1470 C1464 1.368 . S
C1470 C1469 1.523 . S
C1471 C1455 1.429 . S
C1471 C1467 1.429 . S
C1471 C1472 1.523 . S
C1472 C1456 1.368 . S
C1472 C1468 1.368 . S
C1472 C1471 1.523 . S
H1473 C1448 0.950 . S
H1474 C1450 0.950 . S
H1475 C1451 0.949 . S
H1476 C1453 0.950 . S
H1477 C1455 0.950 . S
C1478 C1479 1.349 . S
C1478 C1480 1.327 . S
C1478 H1503 0.950 . S
C1479 C1478 1.349 . S
C1479 C1495 1.349 . S
C1480 C1478 1.327 . S
C1480 C1499 1.429 . S
C1480 H1504 0.950 . S
C1481 C1498 1.574 . S
C1481 C1500 1.368 . S
C1481 H1505 0.949 . S
H1482 C1486 0.949 . S
C1483 C1484 1.349 . S
C1483 C1485 1.327 . S
C1483 H1506 0.950 . S
C1484 C1483 1.349 . S
C1484 C1496 1.349 . S
C1485 C1483 1.327 . S
C1485 C1501 1.429 . S
C1485 H1507 0.950 . S
C1486 H1482 0.949 . S
C1486 C1494 1.574 . S
C1486 C1502 1.368 . S
H1487 C1495 0.950 . S
H1488 C1493 0.950 . S
H1489 C1494 0.949 . S
H1490 C1496 0.950 . S
H1491 C1497 0.950 . S
H1492 C1498 0.949 . S
C1493 H1488 0.950 . S
C1493 C1495 1.327 . S
C1493 C1499 1.429 . S
C1494 C1486 1.574 . S
C1494 H1489 0.949 . S
C1494 C1500 1.368 . S
C1495 C1479 1.349 . S
C1495 H1487 0.950 . S
C1495 C1493 1.327 . S
C1496 C1484 1.349 . S
C1496 H1490 0.950 . S
C1496 C1497 1.327 . S
C1497 H1491 0.950 . S
C1497 C1496 1.327 . S
C1497 C1501 1.429 . S
C1498 C1481 1.574 . S
C1498 H1492 0.949 . S
C1498 C1502 1.368 . S
C1499 C1480 1.429 . S
C1499 C1493 1.429 . S
C1499 C1500 1.523 . S
C1500 C1481 1.368 . S
C1500 C1494 1.368 . S
C1500 C1499 1.523 . S
C1501 C1485 1.429 . S
C1501 C1497 1.429 . S
C1501 C1502 1.523 . S
C1502 C1486 1.368 . S
C1502 C1498 1.368 . S
C1502 C1501 1.523 . S
H1503 C1478 0.950 . S
H1504 C1480 0.950 . S
H1505 C1481 0.949 . S
H1506 C1483 0.950 . S
H1507 C1485 0.950 . S
C1508 C1509 1.349 . S
C1508 C1510 1.327 . S
C1508 H1533 0.950 . S
C1509 C1508 1.349 . S
C1509 C1525 1.349 . S
C1510 C1508 1.327 . S
C1510 C1529 1.429 . S
C1510 H1534 0.950 . S
C1511 C1528 1.574 . S
C1511 C1530 1.368 . S
C1511 H1535 0.949 . S
H1512 C1516 0.949 . S
C1513 C1514 1.349 . S
C1513 C1515 1.327 . S
C1513 H1536 0.950 . S
C1514 C1513 1.349 . S
C1514 C1526 1.349 . S
C1515 C1513 1.327 . S
C1515 C1531 1.429 . S
C1515 H1537 0.950 . S
C1516 H1512 0.949 . S
C1516 C1524 1.574 . S
C1516 C1532 1.368 . S
H1517 C1525 0.950 . S
H1518 C1523 0.950 . S
H1519 C1524 0.949 . S
H1520 C1526 0.950 . S
H1521 C1527 0.950 . S
H1522 C1528 0.949 . S
C1523 H1518 0.950 . S
C1523 C1525 1.327 . S
C1523 C1529 1.429 . S
C1524 C1516 1.574 . S
C1524 H1519 0.949 . S
C1524 C1530 1.368 . S
C1525 C1509 1.349 . S
C1525 H1517 0.950 . S
C1525 C1523 1.327 . S
C1526 C1514 1.349 . S
C1526 H1520 0.950 . S
C1526 C1527 1.327 . S
C1527 H1521 0.950 . S
C1527 C1526 1.327 . S
C1527 C1531 1.429 . S
C1528 C1511 1.574 . S
C1528 H1522 0.949 . S
C1528 C1532 1.368 . S
C1529 C1510 1.429 . S
C1529 C1523 1.429 . S
C1529 C1530 1.523 . S
C1530 C1511 1.368 . S
C1530 C1524 1.368 . S
C1530 C1529 1.523 . S
C1531 C1515 1.429 . S
C1531 C1527 1.429 . S
C1531 C1532 1.523 . S
C1532 C1516 1.368 . S
C1532 C1528 1.368 . S
C1532 C1531 1.523 . S
H1533 C1508 0.950 . S
H1534 C1510 0.950 . S
H1535 C1511 0.949 . S
H1536 C1513 0.950 . S
H1537 C1515 0.950 . S
C1538 C1539 1.349 . S
C1538 C1540 1.327 . S
C1538 H1563 0.950 . S
C1539 C1538 1.349 . S
C1539 C1555 1.349 . S
C1540 C1538 1.327 . S
C1540 C1559 1.429 . S
C1540 H1564 0.950 . S
C1541 C1558 1.574 . S
C1541 C1560 1.368 . S
C1541 H1565 0.949 . S
H1542 C1546 0.949 . S
C1543 C1544 1.349 . S
C1543 C1545 1.327 . S
C1543 H1566 0.950 . S
C1544 C1543 1.349 . S
C1544 C1556 1.349 . S
C1545 C1543 1.327 . S
C1545 C1561 1.429 . S
C1545 H1567 0.950 . S
C1546 H1542 0.949 . S
C1546 C1554 1.574 . S
C1546 C1562 1.368 . S
H1547 C1555 0.950 . S
H1548 C1553 0.950 . S
H1549 C1554 0.949 . S
H1550 C1556 0.950 . S
H1551 C1557 0.950 . S
H1552 C1558 0.949 . S
C1553 H1548 0.950 . S
C1553 C1555 1.327 . S
C1553 C1559 1.429 . S
C1554 C1546 1.574 . S
C1554 H1549 0.949 . S
C1554 C1560 1.368 . S
C1555 C1539 1.349 . S
C1555 H1547 0.950 . S
C1555 C1553 1.327 . S
C1556 C1544 1.349 . S
C1556 H1550 0.950 . S
C1556 C1557 1.327 . S
C1557 H1551 0.950 . S
C1557 C1556 1.327 . S
C1557 C1561 1.429 . S
C1558 C1541 1.574 . S
C1558 H1552 0.949 . S
C1558 C1562 1.368 . S
C1559 C1540 1.429 . S
C1559 C1553 1.429 . S
C1559 C1560 1.523 . S
C1560 C1541 1.368 . S
C1560 C1554 1.368 . S
C1560 C1559 1.523 . S
C1561 C1545 1.429 . S
C1561 C1557 1.429 . S
C1561 C1562 1.523 . S
C1562 C1546 1.368 . S
C1562 C1558 1.368 . S
C1562 C1561 1.523 . S
H1563 C1538 0.950 . S
H1564 C1540 0.950 . S
H1565 C1541 0.949 . S
H1566 C1543 0.950 . S
H1567 C1545 0.950 . S
C1568 C1569 1.349 . S
C1568 C1570 1.327 . S
C1568 H1593 0.950 . S
C1569 C1568 1.349 . S
C1569 C1585 1.349 . S
C1570 C1568 1.327 . S
C1570 C1589 1.429 . S
C1570 H1594 0.950 . S
C1571 C1588 1.574 . S
C1571 C1590 1.368 . S
C1571 H1595 0.949 . S
H1572 C1576 0.949 . S
C1573 C1574 1.349 . S
C1573 C1575 1.327 . S
C1573 H1596 0.950 . S
C1574 C1573 1.349 . S
C1574 C1586 1.349 . S
C1575 C1573 1.327 . S
C1575 C1591 1.429 . S
C1575 H1597 0.950 . S
C1576 H1572 0.949 . S
C1576 C1584 1.574 . S
C1576 C1592 1.368 . S
H1577 C1585 0.950 . S
H1578 C1583 0.950 . S
H1579 C1584 0.949 . S
H1580 C1586 0.950 . S
H1581 C1587 0.950 . S
H1582 C1588 0.949 . S
C1583 H1578 0.950 . S
C1583 C1585 1.327 . S
C1583 C1589 1.429 . S
C1584 C1576 1.574 . S
C1584 H1579 0.949 . S
C1584 C1590 1.368 1_565 S
C1585 C1569 1.349 . S
C1585 H1577 0.950 . S
C1585 C1583 1.327 . S
C1586 C1574 1.349 . S
C1586 H1580 0.950 . S
C1586 C1587 1.327 . S
C1587 H1581 0.950 . S
C1587 C1586 1.327 . S
C1587 C1591 1.429 . S
C1588 C1571 1.574 . S
C1588 H1582 0.949 . S
C1588 C1592 1.368 1_545 S
C1589 C1570 1.429 . S
C1589 C1583 1.429 . S
C1589 C1590 1.523 . S
C1590 C1571 1.368 . S
C1590 C1584 1.368 1_545 S
C1590 C1589 1.523 . S
C1591 C1575 1.429 . S
C1591 C1587 1.429 . S
C1591 C1592 1.523 . S
C1592 C1576 1.368 . S
C1592 C1588 1.368 1_565 S
C1592 C1591 1.523 . S
H1593 C1568 0.950 . S
H1594 C1570 0.950 . S
H1595 C1571 0.949 . S
H1596 C1573 0.950 . S
H1597 C1575 0.950 . S
C1598 C1599 1.349 . S
C1598 C1600 1.327 . S
C1598 H1623 0.950 . S
C1599 C1598 1.349 . S
C1599 C1615 1.349 . S
C1600 C1598 1.327 . S
C1600 C1619 1.429 . S
C1600 H1624 0.950 . S
C1601 C1618 1.574 1_545 S
C1601 C1620 1.368 . S
C1601 H1625 0.949 . S
H1602 C1606 0.949 . S
C1603 C1604 1.349 . S
C1603 C1605 1.327 . S
C1603 H1626 0.950 . S
C1604 C1603 1.349 . S
C1604 C1616 1.349 . S
C1605 C1603 1.327 . S
C1605 C1621 1.429 . S
C1605 H1627 0.950 . S
C1606 H1602 0.949 . S
C1606 C1614 1.574 1_565 S
C1606 C1622 1.368 . S
H1607 C1615 0.950 . S
H1608 C1613 0.950 . S
H1609 C1614 0.949 . S
H1610 C1616 0.950 . S
H1611 C1617 0.950 . S
H1612 C1618 0.949 . S
C1613 H1608 0.950 . S
C1613 C1615 1.327 . S
C1613 C1619 1.429 . S
C1614 C1606 1.574 1_545 S
C1614 H1609 0.949 . S
C1614 C1620 1.368 . S
C1615 C1599 1.349 . S
C1615 H1607 0.950 . S
C1615 C1613 1.327 . S
C1616 C1604 1.349 . S
C1616 H1610 0.950 . S
C1616 C1617 1.327 . S
C1617 H1611 0.950 . S
C1617 C1616 1.327 . S
C1617 C1621 1.429 . S
C1618 C1601 1.574 1_565 S
C1618 H1612 0.949 . S
C1618 C1622 1.368 . S
C1619 C1600 1.429 . S
C1619 C1613 1.429 . S
C1619 C1620 1.523 . S
C1620 C1601 1.368 . S
C1620 C1614 1.368 . S
C1620 C1619 1.523 . S
C1621 C1605 1.429 . S
C1621 C1617 1.429 . S
C1621 C1622 1.523 . S
C1622 C1606 1.368 . S
C1622 C1618 1.368 . S
C1622 C1621 1.523 . S
H1623 C1598 0.950 . S
H1624 C1600 0.950 . S
H1625 C1601 0.949 . S
H1626 C1603 0.950 . S
H1627 C1605 0.950 . S
C1628 C1629 1.349 . S
C1628 C1630 1.327 . S
C1628 H1653 0.950 . S
C1629 C1628 1.349 . S
C1629 C1645 1.349 . S
C1630 C1628 1.327 . S
C1630 C1649 1.429 . S
C1630 H1654 0.950 . S
C1631 C1648 1.574 . S
C1631 C1650 1.368 . S
C1631 H1655 0.949 . S
H1632 C1636 0.949 . S
C1633 C1634 1.349 . S
C1633 C1635 1.327 . S
C1633 H1656 0.950 . S
C1634 C1633 1.349 . S
C1634 C1646 1.349 . S
C1635 C1633 1.327 . S
C1635 C1651 1.429 . S
C1635 H1657 0.950 . S
C1636 H1632 0.949 . S
C1636 C1644 1.574 . S
C1636 C1652 1.368 . S
H1637 C1645 0.950 . S
H1638 C1643 0.950 . S
H1639 C1644 0.949 . S
H1640 C1646 0.950 . S
H1641 C1647 0.950 . S
H1642 C1648 0.949 . S
C1643 H1638 0.950 . S
C1643 C1645 1.327 . S
C1643 C1649 1.429 . S
C1644 C1636 1.574 . S
C1644 H1639 0.949 . S
C1644 C1650 1.368 1_565 S
C1645 C1629 1.349 . S
C1645 H1637 0.950 . S
C1645 C1643 1.327 . S
C1646 C1634 1.349 . S
C1646 H1640 0.950 . S
C1646 C1647 1.327 . S
C1647 H1641 0.950 . S
C1647 C1646 1.327 . S
C1647 C1651 1.429 . S
C1648 C1631 1.574 . S
C1648 H1642 0.949 . S
C1648 C1652 1.368 1_545 S
C1649 C1630 1.429 . S
C1649 C1643 1.429 . S
C1649 C1650 1.523 . S
C1650 C1631 1.368 . S
C1650 C1644 1.368 1_545 S
C1650 C1649 1.523 . S
C1651 C1635 1.429 . S
C1651 C1647 1.429 . S
C1651 C1652 1.523 . S
C1652 C1636 1.368 . S
C1652 C1648 1.368 1_565 S
C1652 C1651 1.523 . S
H1653 C1628 0.950 . S
H1654 C1630 0.950 . S
H1655 C1631 0.949 . S
H1656 C1633 0.950 . S
H1657 C1635 0.950 . S
C1658 C1659 1.349 . S
C1658 C1660 1.327 . S
C1658 H1683 0.950 . S
C1659 C1658 1.349 . S
C1659 C1675 1.349 . S
C1660 C1658 1.327 . S
C1660 C1679 1.429 . S
C1660 H1684 0.950 . S
C1661 C1678 1.574 . S
C1661 C1680 1.368 1_545 S
C1661 H1685 0.949 . S
H1662 C1666 0.949 . S
C1663 C1664 1.349 . S
C1663 C1665 1.327 . S
C1663 H1686 0.950 . S
C1664 C1663 1.349 . S
C1664 C1676 1.349 . S
C1665 C1663 1.327 . S
C1665 C1681 1.429 . S
C1665 H1687 0.950 . S
C1666 H1662 0.949 . S
C1666 C1674 1.574 . S
C1666 C1682 1.368 1_565 S
H1667 C1675 0.950 . S
H1668 C1673 0.950 . S
H1669 C1674 0.949 . S
H1670 C1676 0.950 . S
H1671 C1677 0.950 . S
H1672 C1678 0.949 . S
C1673 H1668 0.950 . S
C1673 C1675 1.327 . S
C1673 C1679 1.429 . S
C1674 C1666 1.574 . S
C1674 H1669 0.949 . S
C1674 C1680 1.368 . S
C1675 C1659 1.349 . S
C1675 H1667 0.950 . S
C1675 C1673 1.327 . S
C1676 C1664 1.349 . S
C1676 H1670 0.950 . S
C1676 C1677 1.327 . S
C1677 H1671 0.950 . S
C1677 C1676 1.327 . S
C1677 C1681 1.429 . S
C1678 C1661 1.574 . S
C1678 H1672 0.949 . S
C1678 C1682 1.368 . S
C1679 C1660 1.429 . S
C1679 C1673 1.429 . S
C1679 C1680 1.523 . S
C1680 C1661 1.368 1_565 S
C1680 C1674 1.368 . S
C1680 C1679 1.523 . S
C1681 C1665 1.429 . S
C1681 C1677 1.429 . S
C1681 C1682 1.523 . S
C1682 C1666 1.368 1_545 S
C1682 C1678 1.368 . S
C1682 C1681 1.523 . S
H1683 C1658 0.950 . S
H1684 C1660 0.950 . S
H1685 C1661 0.949 . S
H1686 C1663 0.950 . S
H1687 C1665 0.950 . S
C1688 C1689 1.349 . S
C1688 C1690 1.327 . S
C1688 H1713 0.950 . S
C1689 C1688 1.349 . S
C1689 C1705 1.349 . S
C1690 C1688 1.327 . S
C1690 C1709 1.429 . S
C1690 H1714 0.950 . S
C1691 C1708 1.574 . S
C1691 C1710 1.368 . S
C1691 H1715 0.949 . S
H1692 C1696 0.949 . S
C1693 C1694 1.349 . S
C1693 C1695 1.327 . S
C1693 H1716 0.950 . S
C1694 C1693 1.349 . S
C1694 C1706 1.349 . S
C1695 C1693 1.327 . S
C1695 C1711 1.429 . S
C1695 H1717 0.950 . S
C1696 H1692 0.949 . S
C1696 C1704 1.574 . S
C1696 C1712 1.368 . S
H1697 C1705 0.950 . S
H1698 C1703 0.950 . S
H1699 C1704 0.949 . S
H1700 C1706 0.950 . S
H1701 C1707 0.950 . S
H1702 C1708 0.949 . S
C1703 H1698 0.950 . S
C1703 C1705 1.327 . S
C1703 C1709 1.429 . S
C1704 C1696 1.574 . S
C1704 H1699 0.949 . S
C1704 C1710 1.368 . S
C1705 C1689 1.349 . S
C1705 H1697 0.950 . S
C1705 C1703 1.327 . S
C1706 C1694 1.349 . S
C1706 H1700 0.950 . S
C1706 C1707 1.327 . S
C1707 H1701 0.950 . S
C1707 C1706 1.327 . S
C1707 C1711 1.429 . S
C1708 C1691 1.574 . S
C1708 H1702 0.949 . S
C1708 C1712 1.368 . S
C1709 C1690 1.429 . S
C1709 C1703 1.429 . S
C1709 C1710 1.523 . S
C1710 C1691 1.368 . S
C1710 C1704 1.368 . S
C1710 C1709 1.523 . S
C1711 C1695 1.429 . S
C1711 C1707 1.429 . S
C1711 C1712 1.523 . S
C1712 C1696 1.368 . S
C1712 C1708 1.368 . S
C1712 C1711 1.523 . S
H1713 C1688 0.950 . S
H1714 C1690 0.950 . S
H1715 C1691 0.949 . S
H1716 C1693 0.950 . S
H1717 C1695 0.950 . S
C1718 C1719 1.349 . S
C1718 C1720 1.327 . S
C1718 H1743 0.950 . S
C1719 C1718 1.349 . S
C1719 C1735 1.349 . S
C1720 C1718 1.327 . S
C1720 C1739 1.429 . S
C1720 H1744 0.950 . S
C1721 C1738 1.574 . S
C1721 C1740 1.368 . S
C1721 H1745 0.949 . S
H1722 C1726 0.949 . S
C1723 C1724 1.349 . S
C1723 C1725 1.327 . S
C1723 H1746 0.950 . S
C1724 C1723 1.349 . S
C1724 C1736 1.349 . S
C1725 C1723 1.327 . S
C1725 C1741 1.429 . S
C1725 H1747 0.950 . S
C1726 H1722 0.949 . S
C1726 C1734 1.574 . S
C1726 C1742 1.368 . S
H1727 C1735 0.950 . S
H1728 C1733 0.950 . S
H1729 C1734 0.949 . S
H1730 C1736 0.950 . S
H1731 C1737 0.950 . S
H1732 C1738 0.949 . S
C1733 H1728 0.950 . S
C1733 C1735 1.327 . S
C1733 C1739 1.429 . S
C1734 C1726 1.574 . S
C1734 H1729 0.949 . S
C1734 C1740 1.368 . S
C1735 C1719 1.349 . S
C1735 H1727 0.950 . S
C1735 C1733 1.327 . S
C1736 C1724 1.349 . S
C1736 H1730 0.950 . S
C1736 C1737 1.327 . S
C1737 H1731 0.950 . S
C1737 C1736 1.327 . S
C1737 C1741 1.429 . S
C1738 C1721 1.574 . S
C1738 H1732 0.949 . S
C1738 C1742 1.368 . S
C1739 C1720 1.429 . S
C1739 C1733 1.429 . S
C1739 C1740 1.523 . S
C1740 C1721 1.368 . S
C1740 C1734 1.368 . S
C1740 C1739 1.523 . S
C1741 C1725 1.429 . S
C1741 C1737 1.429 . S
C1741 C1742 1.523 . S
C1742 C1726 1.368 . S
C1742 C1738 1.368 . S
C1742 C1741 1.523 . S
H1743 C1718 0.950 . S
H1744 C1720 0.950 . S
H1745 C1721 0.949 . S
H1746 C1723 0.950 . S
H1747 C1725 0.950 . S
C1748 C1749 1.349 . S
C1748 C1750 1.327 . S
C1748 H1773 0.950 . S
C1749 C1748 1.349 . S
C1749 C1765 1.349 . S
C1750 C1748 1.327 . S
C1750 C1769 1.429 . S
C1750 H1774 0.950 . S
C1751 C1768 1.574 . S
C1751 C1770 1.368 . S
C1751 H1775 0.949 . S
H1752 C1756 0.949 . S
C1753 C1754 1.349 . S
C1753 C1755 1.327 . S
C1753 H1776 0.950 . S
C1754 C1753 1.349 . S
C1754 C1766 1.349 . S
C1755 C1753 1.327 . S
C1755 C1771 1.429 . S
C1755 H1777 0.950 . S
C1756 H1752 0.949 . S
C1756 C1764 1.574 . S
C1756 C1772 1.368 . S
H1757 C1765 0.950 . S
H1758 C1763 0.950 . S
H1759 C1764 0.949 . S
H1760 C1766 0.950 . S
H1761 C1767 0.950 . S
H1762 C1768 0.949 . S
C1763 H1758 0.950 . S
C1763 C1765 1.327 . S
C1763 C1769 1.429 . S
C1764 C1756 1.574 . S
C1764 H1759 0.949 . S
C1764 C1770 1.368 . S
C1765 C1749 1.349 . S
C1765 H1757 0.950 . S
C1765 C1763 1.327 . S
C1766 C1754 1.349 . S
C1766 H1760 0.950 . S
C1766 C1767 1.327 . S
C1767 H1761 0.950 . S
C1767 C1766 1.327 . S
C1767 C1771 1.429 . S
C1768 C1751 1.574 . S
C1768 H1762 0.949 . S
C1768 C1772 1.368 . S
C1769 C1750 1.429 . S
C1769 C1763 1.429 . S
C1769 C1770 1.523 . S
C1770 C1751 1.368 . S
C1770 C1764 1.368 . S
C1770 C1769 1.523 . S
C1771 C1755 1.429 . S
C1771 C1767 1.429 . S
C1771 C1772 1.523 . S
C1772 C1756 1.368 . S
C1772 C1768 1.368 . S
C1772 C1771 1.523 . S
H1773 C1748 0.950 . S
H1774 C1750 0.950 . S
H1775 C1751 0.949 . S
H1776 C1753 0.950 . S
H1777 C1755 0.950 . S
C1778 C1779 1.349 . S
C1778 C1780 1.327 . S
C1778 H1803 0.950 . S
C1779 C1778 1.349 . S
C1779 C1795 1.349 . S
C1780 C1778 1.327 . S
C1780 C1799 1.429 . S
C1780 H1804 0.950 . S
C1781 C1798 1.574 . S
C1781 C1800 1.368 . S
C1781 H1805 0.949 . S
H1782 C1786 0.949 . S
C1783 C1784 1.349 . S
C1783 C1785 1.327 . S
C1783 H1806 0.950 . S
C1784 C1783 1.349 . S
C1784 C1796 1.349 . S
C1785 C1783 1.327 . S
C1785 C1801 1.429 . S
C1785 H1807 0.950 . S
C1786 H1782 0.949 . S
C1786 C1794 1.574 . S
C1786 C1802 1.368 . S
H1787 C1795 0.950 . S
H1788 C1793 0.950 . S
H1789 C1794 0.949 . S
H1790 C1796 0.950 . S
H1791 C1797 0.950 . S
H1792 C1798 0.949 . S
C1793 H1788 0.950 . S
C1793 C1795 1.327 . S
C1793 C1799 1.429 . S
C1794 C1786 1.574 . S
C1794 H1789 0.949 . S
C1794 C1800 1.368 . S
C1795 C1779 1.349 . S
C1795 H1787 0.950 . S
C1795 C1793 1.327 . S
C1796 C1784 1.349 . S
C1796 H1790 0.950 . S
C1796 C1797 1.327 . S
C1797 H1791 0.950 . S
C1797 C1796 1.327 . S
C1797 C1801 1.429 . S
C1798 C1781 1.574 . S
C1798 H1792 0.949 . S
C1798 C1802 1.368 . S
C1799 C1780 1.429 . S
C1799 C1793 1.429 . S
C1799 C1800 1.523 . S
C1800 C1781 1.368 . S
C1800 C1794 1.368 . S
C1800 C1799 1.523 . S
C1801 C1785 1.429 . S
C1801 C1797 1.429 . S
C1801 C1802 1.523 . S
C1802 C1786 1.368 . S
C1802 C1798 1.368 . S
C1802 C1801 1.523 . S
H1803 C1778 0.950 . S
H1804 C1780 0.950 . S
H1805 C1781 0.949 . S
H1806 C1783 0.950 . S
H1807 C1785 0.950 . S
C849 C39 1.910 . S
C854 C304 1.905 . S
C879 C251 1.905 . S
C884 C92 1.910 . S
C909 C145 1.910 . S
C914 C410 1.905 . S
C939 C357 1.905 . S
C944 C198 1.910 . S
C969 C728 1.905 . S
C974 C463 1.910 . S
C999 C675 1.905 . S
C1004 C516 1.910 . S
C1029 C834 1.905 . S
C1034 C569 1.910 . S
C1059 C622 1.910 . S
C1064 C781 1.905 . S
C1089 C82 1.545 . S
C1094 C29 1.545 . S
C1119 C135 1.546 . S
C1124 C188 1.546 . S
C1149 C241 1.546 . S
C1154 C294 1.546 . S
C1179 C347 1.547 . S
C1184 C400 1.547 . S
C1209 C453 1.545 . S
C1214 C506 1.545 . S
C1239 C612 1.546 . S
C1244 C559 1.546 . S
C1269 C718 1.546 . S
C1274 C665 1.546 . S
C1299 C771 1.547 . S
C1304 C824 1.547 . S
C1329 C499 1.536 . S
C1334 C22 1.536 . S
C1359 C75 1.536 . S
C1364 C446 1.536 . S
C1389 C605 1.538 . S
C1394 C128 1.538 . S
C1419 C181 1.538 . S
C1424 C552 1.538 . S
C1449 C234 1.535 . S
C1454 C711 1.535 . S
C1479 C658 1.535 . S
C1484 C287 1.535 . S
C1509 C340 1.536 . S
C1514 C817 1.536 . S
C1539 C764 1.536 . S
C1544 C393 1.536 . S
C1569 C38 1.959 . S
C1574 C144 1.959 . S
C1599 C197 1.960 . S
C1604 C91 1.960 . S
C1629 C356 1.967 . S
C1634 C250 1.967 . S
C1659 C409 1.967 . S
C1664 C303 1.967 . S
C1689 C568 1.959 . S
C1694 C462 1.959 . S
C1719 C515 1.960 . S
C1724 C621 1.960 . S
C1749 C780 1.967 . S
C1754 C674 1.967 . S
C1779 C727 1.967 . S
C1784 C833 1.967 . S
