# Generated by pormake.
# Topology umf, (4)-cn, num edge types: 1
# Building blocks:
#     Node 0, Type 0, BuildingBlock: ICAMEG_clean_sbu_1, # of connection points: 4
#     Node 1, Type 0, BuildingBlock: ICAMEG_clean_sbu_1, # of connection points: 4
#     Node 2, Type 0, BuildingBlock: ICAMEG_clean_sbu_1, # of connection points: 4
#     Node 3, Type 0, BuildingBlock: ICAMEG_clean_sbu_1, # of connection points: 4
#     Node 4, Type 0, BuildingBlock: ICAMEG_clean_sbu_1, # of connection points: 4
#     Node 5, Type 0, BuildingBlock: ICAMEG_clean_sbu_1, # of connection points: 4
#     Node 6, Type 0, BuildingBlock: ICAMEG_clean_sbu_1, # of connection points: 4
#     Node 7, Type 0, BuildingBlock: ICAMEG_clean_sbu_1, # of connection points: 4
#     Edge 8, Type (0, 0), BuildingBlock: KIFKEQ_clean_linker_1, # of connection points: 2
#     Edge 9, Type (0, 0), BuildingBlock: KIFKEQ_clean_linker_1, # of connection points: 2
#     Edge 10, Type (0, 0), BuildingBlock: KIFKEQ_clean_linker_1, # of connection points: 2
#     Edge 11, Type (0, 0), BuildingBlock: KIFKEQ_clean_linker_1, # of connection points: 2
#     Edge 12, Type (0, 0), BuildingBlock: KIFKEQ_clean_linker_1, # of connection points: 2
#     Edge 13, Type (0, 0), BuildingBlock: KIFKEQ_clean_linker_1, # of connection points: 2
#     Edge 14, Type (0, 0), BuildingBlock: KIFKEQ_clean_linker_1, # of connection points: 2
#     Edge 15, Type (0, 0), BuildingBlock: KIFKEQ_clean_linker_1, # of connection points: 2
#     Edge 16, Type (0, 0), BuildingBlock: KIFKEQ_clean_linker_1, # of connection points: 2
#     Edge 17, Type (0, 0), BuildingBlock: KIFKEQ_clean_linker_1, # of connection points: 2
#     Edge 18, Type (0, 0), BuildingBlock: KIFKEQ_clean_linker_1, # of connection points: 2
#     Edge 19, Type (0, 0), BuildingBlock: KIFKEQ_clean_linker_1, # of connection points: 2
#     Edge 20, Type (0, 0), BuildingBlock: KIFKEQ_clean_linker_1, # of connection points: 2
#     Edge 21, Type (0, 0), BuildingBlock: KIFKEQ_clean_linker_1, # of connection points: 2
#     Edge 22, Type (0, 0), BuildingBlock: KIFKEQ_clean_linker_1, # of connection points: 2
#     Edge 23, Type (0, 0), BuildingBlock: KIFKEQ_clean_linker_1, # of connection points: 2
# Relax obj value: 0.112
# Max RMSD: 0.202
# Mean RMSD: 0.202
data_MOF--net-umf--node1-ICAMEG_clean_sbu_1--edge1-KIFKEQ_clean_linker_1
_symmetry_space_group_name_H-M    P1
_symmetry_Int_Tables_number       1
_symmetry_cell_setting            triclinic
loop_
_symmetry_equiv_pos_as_xyz
'x, y, z'
_cell_length_a     30.429109
_cell_length_b     30.468778
_cell_length_c     57.661122
_cell_angle_alpha  89.994809
_cell_angle_beta   90.005622
_cell_angle_gamma 89.979987
loop_
_atom_site_label
_atom_site_type_symbol
_atom_site_fract_x
_atom_site_fract_y
_atom_site_fract_z
_atom_type_partial_charge
Co0 Co 0.09248 0.2262 0.13423 0.0
Co1 Co 0.00736 0.24652 0.17231 0.0
O2 O 0.04294 0.26119 0.14525 0.0
C3 C 0.03289 0.23326 0.09433 0.0
O4 O 0.00116 0.22468 0.10905 0.0
C5 C 0.03775 0.33653 0.18078 0.0
O6 O 0.0773 0.32274 0.17532 0.0
O7 O 0.06076 0.23891 0.19163 0.0
O8 O 0.11288 0.21517 0.16688 0.0
H9 H 0.96571 0.15893 0.24279 0.0
H10 H 0.07812 0.3153 0.11507 0.0
O11 O 0.07255 0.23563 0.10138 0.0
H12 H 0.22496 0.31977 0.15118 0.0
H13 H 0.21757 0.19194 0.08008 0.0
H14 H 0.13371 0.14214 0.14836 0.0
H15 H 0.18138 0.2515 0.1514 0.0
H16 H 0.15564 0.23585 0.0951 0.0
O17 O 0.0055 0.30995 0.18085 0.0
H18 H 0.01011 0.17706 0.2083 0.0
H19 H 0.92911 0.2876 0.1946 0.0
H20 H 0.19562 0.09738 0.13406 0.0
H21 H 0.12068 0.3842 0.11432 0.0
H22 H 0.23802 0.12225 0.09968 0.0
H23 H 0.19461 0.38674 0.13253 0.0
O24 O 0.05699 0.17175 0.13538 0.0
H25 H 0.91071 0.32489 0.11503 0.0
H26 H 0.92666 0.19313 0.164 0.0
H27 H 0.86104 0.20125 0.13925 0.0
H28 H 0.85275 0.26753 0.11455 0.0
H29 H 0.97601 0.31526 0.13985 0.0
H30 H 0.88404 0.27091 0.22906 0.0
H31 H 0.90213 0.20603 0.25335 0.0
O32 O 0.00863 0.18271 0.16429 0.0
C33 C 0.09879 0.2234 0.18731 0.0
C34 C 0.95738 0.18718 0.23229 0.0
C35 C 0.91158 0.25006 0.2246 0.0
N36 N 0.9719 0.23304 0.19933 0.0
C37 C 0.98231 0.19752 0.2127 0.0
C38 C 0.93725 0.25939 0.20514 0.0
C39 C 0.92174 0.21365 0.23822 0.0
C40 C 0.11046 0.31605 0.12281 0.0
N41 N 0.12736 0.2794 0.13315 0.0
C42 C 0.13432 0.3552 0.12243 0.0
C43 C 0.17577 0.35662 0.13268 0.0
C44 C 0.19281 0.31906 0.14316 0.0
C45 C 0.16796 0.28053 0.14327 0.0
C46 C 0.19945 0.18084 0.09513 0.0
C47 C 0.15228 0.15336 0.13352 0.0
C48 C 0.16434 0.20554 0.10369 0.0
N49 N 0.14148 0.19182 0.12276 0.0
C50 C 0.18717 0.12779 0.12545 0.0
C51 C 0.21091 0.14174 0.10613 0.0
C52 C 0.02709 0.15838 0.14913 0.0
C53 C 0.91388 0.29594 0.12577 0.0
C54 C 0.92335 0.22202 0.15326 0.0
C55 C 0.88607 0.22648 0.13932 0.0
C56 C 0.88141 0.2637 0.12548 0.0
N57 N 0.95506 0.25378 0.15344 0.0
C58 C 0.95068 0.29041 0.13996 0.0
Co59 Co 0.76254 0.08905 0.63426 0.0
Co60 Co 0.74886 -0.00044 0.67039 0.0
O61 O 0.73195 0.03612 0.64419 0.0
C62 C 0.765 0.03015 0.59393 0.0
O63 O 0.77791 -0.00013 0.60862 0.0
C64 C 0.65858 0.02728 0.68017 0.0
O65 O 0.67181 0.06712 0.6751 0.0
O66 O 0.75571 0.05177 0.69071 0.0
O67 O 0.76925 0.10931 0.66719 0.0
H68 H 0.84162 0.95542 0.73862 0.0
H69 H 0.67644 0.06622 0.61337 0.0
O70 O 0.75698 0.06893 0.60115 0.0
H71 H 0.6546 0.21049 0.65038 0.0
H72 H 0.78708 0.21823 0.58146 0.0
H73 H 0.8409 0.13844 0.65024 0.0
H74 H 0.7271 0.17426 0.65145 0.0
H75 H 0.74899 0.15169 0.59527 0.0
O76 O 0.68562 0.99537 0.6796 0.0
H77 H 0.82053 0.0015 0.70523 0.0
H78 H 0.71073 0.91925 0.69194 0.0
H79 H 0.8798 0.20502 0.63716 0.0
H80 H 0.60347 0.10138 0.61177 0.0
H81 H 0.85288 0.2454 0.60253 0.0
H82 H 0.59217 0.17397 0.63044 0.0
O83 O 0.82058 0.05954 0.63643 0.0
H84 H 0.67182 0.90547 0.6115 0.0
H85 H 0.80391 0.92078 0.66038 0.0
H86 H 0.79712 0.85703 0.63427 0.0
H87 H 0.73067 0.84907 0.6096 0.0
H88 H 0.68016 0.96891 0.6377 0.0
H89 H 0.7304 0.87247 0.72531 0.0
H90 H 0.79641 0.89037 0.74883 0.0
O91 O 0.81221 0.00358 0.66153 0.0
C92 C 0.76503 0.09207 0.68728 0.0
C93 C 0.81288 0.9472 0.72845 0.0
C94 C 0.75042 0.90068 0.721 0.0
N95 N 0.76468 0.96282 0.69655 0.0
C96 C 0.80085 0.97309 0.70949 0.0
C97 C 0.73939 0.92732 0.70216 0.0
C98 C 0.78747 0.91073 0.73419 0.0
C99 C 0.6719 0.09803 0.62131 0.0
N100 N 0.70603 0.11829 0.63236 0.0
C101 C 0.63046 0.11769 0.62044 0.0
C102 C 0.62412 0.15839 0.63095 0.0
C103 C 0.65913 0.17888 0.64215 0.0
C104 C 0.70009 0.15819 0.64273 0.0
C105 C 0.79904 0.20101 0.59662 0.0
C106 C 0.82878 0.15608 0.63529 0.0
C107 C 0.77764 0.16331 0.6045 0.0
N108 N 0.79242 0.14157 0.62371 0.0
C109 C 0.85104 0.19364 0.6279 0.0
C110 C 0.83595 0.21624 0.60845 0.0
C111 C 0.83571 0.02755 0.64826 0.0
C112 C 0.70088 0.90852 0.62221 0.0
C113 C 0.77496 0.9176 0.64966 0.0
C114 C 0.77125 0.88138 0.63495 0.0
C115 C 0.73394 0.87692 0.62112 0.0
N116 N 0.74241 0.94846 0.65062 0.0
C117 C 0.7057 0.94427 0.63715 0.0
Co118 Co 0.90131 0.76218 0.13558 0.0
Co119 Co 0.99058 0.74861 0.17196 0.0
O120 O 0.95438 0.73158 0.14555 0.0
C121 C 0.95988 0.76231 0.09506 0.0
O122 O 0.99127 0.77292 0.10961 0.0
C123 C 0.96538 0.65743 0.18101 0.0
O124 O 0.92497 0.66966 0.17634 0.0
O125 O 0.93812 0.75385 0.19222 0.0
O126 O 0.88137 0.76923 0.16856 0.0
H127 H 0.03149 0.83931 0.24146 0.0
H128 H 0.92365 0.67588 0.115 0.0
O129 O 0.92076 0.75644 0.10239 0.0
H130 H 0.77942 0.65515 0.15241 0.0
H131 H 0.77134 0.78702 0.08321 0.0
H132 H 0.85211 0.84044 0.15178 0.0
H133 H 0.81596 0.72741 0.15313 0.0
H134 H 0.83807 0.74881 0.09679 0.0
O135 O -0.00356 0.68539 0.18062 0.0
H136 H 0.9861 0.81828 0.2078 0.0
H137 H 0.07233 0.71229 0.19301 0.0
H138 H 0.78533 0.87944 0.13894 0.0
H139 H 0.88819 0.60311 0.11376 0.0
H140 H 0.74447 0.85273 0.10442 0.0
H141 H 0.81561 0.59238 0.13263 0.0
O142 O 0.93131 0.81995 0.13726 0.0
H143 H 0.08779 0.67518 0.11313 0.0
H144 H 0.0675 0.80631 0.16212 0.0
H145 H 0.13181 0.80172 0.13619 0.0
H146 H 0.14228 0.73577 0.11148 0.0
H147 H 0.02373 0.6813 0.13913 0.0
H148 H 0.1185 0.73195 0.22663 0.0
H149 H 0.09826 0.79602 0.25104 0.0
O150 O 0.98502 0.81196 0.16375 0.0
C151 C 0.89805 0.76426 0.18874 0.0
C152 C 0.04077 0.81145 0.23089 0.0
C153 C 0.08957 0.75116 0.22259 0.0
N154 N 0.02686 0.76444 0.19831 0.0
C155 C 0.01528 0.79949 0.21176 0.0
C156 C 0.06328 0.74014 0.2036 0.0
C157 C 0.07819 0.78711 0.23628 0.0
C158 C 0.89186 0.67156 0.12303 0.0
N159 N 0.87178 0.70588 0.13399 0.0
C160 C 0.87202 0.63025 0.12236 0.0
C161 C 0.83133 0.62423 0.13298 0.0
C162 C 0.81102 0.65943 0.1441 0.0
C163 C 0.83189 0.70025 0.14447 0.0
C164 C 0.7888 0.79891 0.09831 0.0
C165 C 0.83432 0.82846 0.13684 0.0
C166 C 0.82663 0.77746 0.10605 0.0
N167 N 0.84868 0.79216 0.12518 0.0
C168 C 0.79662 0.85075 0.12961 0.0
C169 C 0.77373 0.83577 0.11022 0.0
C170 C 0.96219 0.83521 0.14983 0.0
C171 C 0.08367 0.70401 0.12388 0.0
C172 C 0.07179 0.77754 0.15139 0.0
C173 C 0.10832 0.77508 0.13678 0.0
C174 C 0.11419 0.73805 0.12293 0.0
N175 N 0.042 0.744 0.15222 0.0
C176 C 0.04758 0.70756 0.13872 0.0
Co177 Co 0.233 0.902 0.63681 0.0
Co178 Co 0.24698 0.99381 0.67135 0.0
O179 O 0.26424 0.95506 0.64604 0.0
C180 C 0.23301 0.95936 0.5958 0.0
O181 O 0.22365 0.99136 0.61019 0.0
C182 C 0.33592 0.96373 0.6828 0.0
O183 O 0.32191 0.92404 0.678 0.0
O184 O 0.23662 0.94317 0.69239 0.0
O185 O 0.22683 0.88348 0.67 0.0
H186 H 0.15161 0.04534 0.73706 0.0
H187 H 0.31905 0.92321 0.61545 0.0
O188 O 0.23796 0.92031 0.60337 0.0
H189 H 0.34002 0.78028 0.65404 0.0
H190 H 0.2058 0.77078 0.58581 0.0
H191 H 0.15517 0.85359 0.65426 0.0
H192 H 0.26784 0.81717 0.65487 0.0
H193 H 0.24482 0.83761 0.59845 0.0
O194 O 0.3097 -0.00374 0.68164 0.0
H195 H 0.17305 -0.0034 0.70482 0.0
H196 H 0.2867 0.07392 0.69229 0.0
H197 H 0.11538 0.78676 0.64235 0.0
H198 H 0.39172 0.88738 0.61409 0.0
H199 H 0.14068 0.74487 0.60788 0.0
H200 H 0.40258 0.81546 0.63355 0.0
O201 O 0.17524 0.93215 0.63867 0.0
H202 H 0.33171 0.08174 0.61272 0.0
H203 H 0.1956 0.0738 0.65893 0.0
H204 H 0.20667 0.13582 0.63206 0.0
H205 H 0.27516 0.14006 0.60873 0.0
H206 H 0.3191 0.02011 0.63962 0.0
H207 H 0.26669 0.12331 0.72452 0.0
H208 H 0.19859 0.10924 0.74708 0.0
O209 O 0.18422 0.99155 0.66137 0.0
C210 C 0.22853 0.90238 0.68977 0.0
C211 C 0.18128 0.0519 0.72731 0.0
C212 C 0.2459 0.09563 0.72029 0.0
N213 N 0.23086 0.03266 0.69658 0.0
C214 C 0.19351 0.02451 0.70899 0.0
C215 C 0.25711 0.06751 0.7021 0.0
C216 C 0.20768 0.08772 0.73294 0.0
C217 C 0.32341 0.89169 0.62374 0.0
N218 N 0.2892 0.87216 0.63509 0.0
C219 C 0.36467 0.87165 0.623 0.0
C220 C 0.37076 0.83133 0.63395 0.0
C221 C 0.33568 0.81159 0.64546 0.0
C222 C 0.2949 0.83264 0.64589 0.0
C223 C 0.19451 0.7887 0.60088 0.0
C224 C 0.16654 0.83536 0.63934 0.0
C225 C 0.21642 0.82659 0.60809 0.0
N226 N 0.20247 0.84923 0.62718 0.0
C227 C 0.1438 0.79763 0.63263 0.0
C228 C 0.15799 0.77417 0.61328 0.0
C229 C 0.16054 0.96615 0.64898 0.0
C230 C 0.30179 0.08033 0.62284 0.0
C231 C 0.22543 0.07538 0.6488 0.0
C232 C 0.23157 0.11062 0.63366 0.0
C233 C 0.27002 0.113 0.62058 0.0
N234 N 0.25674 0.04345 0.65091 0.0
C235 C 0.29456 0.04561 0.63819 0.0
Co236 Co 0.09256 0.76414 0.88401 0.0
Co237 Co 0.00499 0.74766 0.84691 0.0
O238 O 0.04061 0.73195 0.8738 0.0
C239 C 0.03371 0.76232 0.92439 0.0
O240 O 0.00216 0.77226 0.9098 0.0
C241 C 0.03078 0.65615 0.83906 0.0
O242 O 0.07109 0.66853 0.84387 0.0
O243 O 0.05792 0.75218 0.82706 0.0
O244 O 0.11265 0.77221 0.85105 0.0
H245 H 0.96548 0.83506 0.77599 0.0
H246 H 0.07311 0.67697 0.90436 0.0
O247 O 0.073 0.75744 0.91712 0.0
H248 H 0.21841 0.6616 0.86737 0.0
H249 H 0.22104 0.79295 0.93681 0.0
H250 H 0.13919 0.84413 0.86811 0.0
H251 H 0.17924 0.73249 0.86659 0.0
H252 H 0.15582 0.7526 0.92297 0.0
O253 O -0.00032 0.68409 0.83902 0.0
H254 H 0.00984 0.81603 0.81036 0.0
H255 H 0.9242 0.70984 0.82562 0.0
H256 H 0.20445 0.88526 0.88123 0.0
H257 H 0.11124 0.60552 0.90565 0.0
H258 H 0.24585 0.85969 0.91582 0.0
H259 H 0.18437 0.5975 0.887 0.0
O260 O 0.06049 0.82078 0.88244 0.0
H261 H 0.90636 0.67634 0.90578 0.0
H262 H 0.9276 0.80553 0.85549 0.0
H263 H 0.86257 0.80179 0.88094 0.0
H264 H 0.85162 0.73681 0.90631 0.0
H265 H 0.97116 0.68162 0.88025 0.0
H266 H 0.87904 0.72754 0.79132 0.0
H267 H 0.89953 0.79067 0.7663 0.0
O268 O 0.01005 0.81146 0.85424 0.0
C269 C 0.09714 0.7651 0.83078 0.0
C270 C 0.95612 0.80758 0.78681 0.0
C271 C 0.90764 0.7472 0.7954 0.0
N272 N 0.96937 0.76212 0.82009 0.0
C273 C 0.98103 0.79673 0.80633 0.0
C274 C 0.93336 0.73729 0.81477 0.0
C275 C 0.91915 0.78263 0.78137 0.0
C276 C 0.10513 0.67382 0.89641 0.0
N277 N 0.12404 0.70888 0.88553 0.0
C278 C 0.12647 0.63325 0.89712 0.0
C279 C 0.16748 0.62876 0.88661 0.0
C280 C 0.18658 0.6647 0.87558 0.0
C281 C 0.16422 0.70473 0.87517 0.0
C282 C 0.20334 0.80436 0.92169 0.0
C283 C 0.15723 0.83264 0.88308 0.0
C284 C 0.16636 0.78169 0.91379 0.0
N285 N 0.14401 0.79579 0.89463 0.0
C286 C 0.19407 0.85614 0.89047 0.0
C287 C 0.21725 0.8418 0.90989 0.0
C288 C 0.03077 0.83503 0.86885 0.0
C289 C 0.91069 0.70474 0.89474 0.0
C290 C 0.92312 0.7772 0.86651 0.0
C291 C 0.88618 0.77521 0.88085 0.0
C292 C 0.88003 0.73873 0.89506 0.0
N293 N 0.95305 0.74374 0.8663 0.0
C294 C 0.9472 0.70782 0.88016 0.0
Co295 Co 0.2293 0.08897 0.38426 0.0
Co296 Co 0.24614 -0.0003 0.34827 0.0
O297 O 0.26224 0.03739 0.37424 0.0
C298 C 0.2325 0.03068 0.42485 0.0
O299 O 0.22339 -0.00122 0.41035 0.0
C300 C 0.33545 0.03027 0.33787 0.0
O301 O 0.3214 0.06985 0.34297 0.0
O302 O 0.23676 0.05135 0.32781 0.0
O303 O 0.22069 0.10826 0.3513 0.0
H304 H 0.15356 0.95107 0.28085 0.0
H305 H 0.31694 0.07076 0.40457 0.0
O306 O 0.2364 0.06996 0.41746 0.0
H307 H 0.33057 0.21527 0.36673 0.0
H308 H 0.19964 0.21787 0.43654 0.0
H309 H 0.14804 0.13397 0.36868 0.0
H310 H 0.25995 0.1755 0.36637 0.0
H311 H 0.24076 0.15309 0.42277 0.0
O312 O 0.30921 -0.00225 0.33862 0.0
H313 H 0.17366 -0.00159 0.31391 0.0
H314 H 0.28686 0.92055 0.32678 0.0
H315 H 0.1061 0.19873 0.38171 0.0
H316 H 0.38811 0.10948 0.40545 0.0
H317 H 0.13189 0.24117 0.41589 0.0
H318 H 0.39527 0.18222 0.38637 0.0
O319 O 0.17289 0.05656 0.38282 0.0
H320 H 0.32886 0.90914 0.4066 0.0
H321 H 0.19446 0.91905 0.35909 0.0
H322 H 0.2047 0.85582 0.38526 0.0
H323 H 0.27232 0.85059 0.40924 0.0
H324 H 0.31708 0.97201 0.38038 0.0
H325 H 0.26822 0.87259 0.29374 0.0
H326 H 0.20101 0.88762 0.27059 0.0
O327 O 0.18285 0.00122 0.35754 0.0
C328 C 0.22542 0.09114 0.33122 0.0
C329 C 0.18284 0.94409 0.29085 0.0
C330 C 0.24723 0.90008 0.29806 0.0
N331 N 0.23116 0.962 0.32236 0.0
C332 C 0.19431 0.9707 0.30963 0.0
C333 C 0.25767 0.9274 0.31672 0.0
C334 C 0.20951 0.90852 0.28509 0.0
C335 C 0.31969 0.10261 0.39644 0.0
N336 N 0.2843 0.12098 0.38556 0.0
C337 C 0.36012 0.12429 0.39691 0.0
C338 C 0.36413 0.16507 0.38617 0.0
C339 C 0.32784 0.18362 0.37513 0.0
C340 C 0.28797 0.16093 0.37496 0.0
C341 C 0.18816 0.19975 0.42158 0.0
C342 C 0.15968 0.15254 0.38342 0.0
C343 C 0.21128 0.16303 0.41372 0.0
N344 N 0.19709 0.14015 0.39476 0.0
C345 C 0.1357 0.18905 0.39078 0.0
C346 C 0.15015 0.21281 0.40998 0.0
C347 C 0.1588 0.02399 0.37112 0.0
C348 C 0.29932 0.91099 0.39619 0.0
C349 C 0.2239 0.91706 0.36952 0.0
C350 C 0.22958 0.88113 0.38426 0.0
C351 C 0.26754 0.87819 0.39769 0.0
N352 N 0.25519 0.94913 0.36816 0.0
C353 C 0.29256 0.94641 0.38123 0.0
Co354 Co 0.89517 0.22564 0.88464 0.0
Co355 Co 0.97835 0.24427 0.84542 0.0
O356 O 0.94521 0.25938 0.87326 0.0
C357 C 0.95564 0.23144 0.92424 0.0
O358 O 0.98684 0.22148 0.90945 0.0
C359 C 0.95282 0.33619 0.83885 0.0
O360 O 0.91273 0.3239 0.84419 0.0
O361 O 0.92358 0.24129 0.82695 0.0
O362 O 0.8737 0.21469 0.85211 0.0
H363 H 0.01056 0.15899 0.7728 0.0
H364 H 0.91165 0.31456 0.90352 0.0
O365 O 0.91598 0.235 0.91734 0.0
H366 H 0.76417 0.32176 0.86826 0.0
H367 H 0.77053 0.19448 0.93959 0.0
H368 H 0.85185 0.14242 0.87092 0.0
H369 H 0.80637 0.25261 0.86795 0.0
H370 H 0.83314 0.23686 0.92417 0.0
O371 O 0.98372 0.30806 0.83806 0.0
H372 H 0.96936 0.17744 0.80833 0.0
H373 H 0.05767 0.28194 0.82256 0.0
H374 H 0.78921 0.0992 0.88562 0.0
H375 H 0.87049 0.38432 0.90436 0.0
H376 H 0.74809 0.12522 0.92021 0.0
H377 H 0.79624 0.38824 0.88658 0.0
O378 O 0.92979 0.17062 0.8834 0.0
H379 H 0.08315 0.31244 0.90234 0.0
H380 H 0.05574 0.1852 0.8515 0.0
H381 H 0.12306 0.18735 0.87529 0.0
H382 H 0.13714 0.25134 0.90092 0.0
H383 H 0.016 0.30873 0.87847 0.0
H384 H 0.09967 0.26482 0.78709 0.0
H385 H 0.07627 0.20282 0.762 0.0
O386 O 0.97335 0.18005 0.85224 0.0
C387 C 0.88612 0.22487 0.83162 0.0
C388 C 0.02119 0.18597 0.78364 0.0
C389 C 0.07117 0.24541 0.79165 0.0
N390 N 0.01137 0.23044 0.81761 0.0
C391 C -0.00192 0.19649 0.80382 0.0
C392 C 0.04723 0.25499 0.81168 0.0
C393 C 0.05802 0.21061 0.77758 0.0
C394 C 0.87917 0.31591 0.89597 0.0
N395 N 0.86134 0.27954 0.8858 0.0
C396 C 0.8561 0.35554 0.89641 0.0
C397 C 0.81447 0.35773 0.88638 0.0
C398 C 0.79648 0.32045 0.87609 0.0
C399 C 0.82055 0.28142 0.87592 0.0
C400 C 0.7881 0.18288 0.92447 0.0
C401 C 0.83387 0.15412 0.88585 0.0
C402 C 0.8236 0.20669 0.91568 0.0
N403 N 0.84576 0.19236 0.8965 0.0
C404 C 0.79855 0.12943 0.89416 0.0
C405 C 0.77552 0.14402 0.91358 0.0
C406 C 0.95661 0.15642 0.86822 0.0
C407 C 0.07746 0.28445 0.89118 0.0
C408 C 0.06155 0.21309 0.86267 0.0
C409 C 0.09979 0.21418 0.87605 0.0
C410 C 0.10769 0.25012 0.89041 0.0
N411 N 0.03203 0.24688 0.86354 0.0
C412 C 0.0396 0.28228 0.87753 0.0
Co413 Co 0.76005 0.89991 0.38234 0.0
Co414 Co 0.74828 0.9913 0.34733 0.0
O415 O 0.7305 0.9538 0.373 0.0
C416 C 0.76429 0.95769 0.42307 0.0
O417 O 0.77721 0.98813 0.40849 0.0
C418 C 0.658 0.96439 0.3368 0.0
O419 O 0.67097 0.92427 0.34148 0.0
O420 O 0.75603 0.93989 0.32649 0.0
O421 O 0.7655 0.88058 0.34923 0.0
H422 H 0.84312 0.03781 0.28038 0.0
H423 H 0.67489 0.92424 0.40382 0.0
O424 O 0.75563 0.91917 0.41566 0.0
H425 H 0.64903 0.78152 0.36589 0.0
H426 H 0.78308 0.76883 0.43402 0.0
H427 H 0.8362 0.84857 0.36508 0.0
H428 H 0.72233 0.81604 0.36472 0.0
H429 H 0.74631 0.83674 0.42106 0.0
O430 O 0.68529 -0.00396 0.33767 0.0
H431 H 0.82103 0.99058 0.31312 0.0
H432 H 0.7109 0.07251 0.32633 0.0
H433 H 0.87375 0.78063 0.37731 0.0
H434 H 0.60113 0.89081 0.40552 0.0
H435 H 0.84718 0.74027 0.41202 0.0
H436 H 0.58782 0.819 0.38639 0.0
O437 O 0.81886 0.92804 0.38009 0.0
H438 H 0.66959 0.08307 0.40667 0.0
H439 H 0.80296 0.06963 0.35863 0.0
H440 H 0.79546 0.13233 0.38539 0.0
H441 H 0.72837 0.13934 0.40965 0.0
H442 H 0.67864 0.0207 0.37983 0.0
H443 H 0.73159 0.12046 0.29362 0.0
H444 H 0.79825 0.1033 0.27046 0.0
O445 O 0.81124 0.98674 0.35671 0.0
C446 C 0.76355 0.89903 0.32934 0.0
C447 C 0.81409 0.04572 0.29039 0.0
C448 C 0.75146 0.09207 0.2978 0.0
N449 N 0.76495 0.02902 0.32173 0.0
C450 C 0.8015 0.01918 0.30899 0.0
C451 C 0.73985 0.06476 0.31627 0.0
C452 C 0.78887 0.08243 0.28482 0.0
C453 C 0.66945 0.89277 0.39567 0.0
N454 N 0.70292 0.87198 0.38432 0.0
C455 C 0.62758 0.87408 0.3966 0.0
C456 C 0.62012 0.83382 0.38584 0.0
C457 C 0.65445 0.81279 0.37432 0.0
C458 C 0.69586 0.8325 0.37369 0.0
C459 C 0.79491 0.78607 0.41884 0.0
C460 C 0.82428 0.83102 0.3801 0.0
C461 C 0.77427 0.82456 0.41145 0.0
N462 N 0.78889 0.84634 0.39222 0.0
C463 C 0.84575 0.79265 0.38699 0.0
C464 C 0.83086 0.77005 0.40648 0.0
C465 C 0.83441 0.96103 0.36921 0.0
C466 C 0.69893 0.08044 0.39615 0.0
C467 C 0.77373 0.07241 0.36916 0.0
C468 C 0.76962 0.10803 0.38425 0.0
C469 C 0.73195 0.11196 0.39784 0.0
N470 N 0.74122 0.04162 0.36761 0.0
C471 C 0.70415 0.04529 0.38085 0.0
H472 H 0.09179 0.40555 0.17079 0.0
H473 H 0.96462 0.37371 0.19961 0.0
H474 H 0.07439 0.48344 0.17356 0.0
H475 H 0.94776 0.45152 0.20308 0.0
H476 H 0.04287 0.62189 0.19578 0.0
H477 H 0.06142 0.54434 0.19916 0.0
H478 H 0.93021 0.50986 0.1769 0.0
H479 H 0.91132 0.58724 0.1742 0.0
C480 C 0.06047 0.41522 0.17813 0.0
C481 C 0.02943 0.38358 0.18481 0.0
C482 C 0.05054 0.45987 0.17981 0.0
C483 C 0.00951 0.47371 0.18839 0.0
C484 C 0.97928 0.44195 0.19596 0.0
C485 C 0.98905 0.39738 0.1941 0.0
C486 C 0.01787 0.5977 0.19184 0.0
C487 C 0.97564 0.61063 0.1847 0.0
C488 C 0.02858 0.55328 0.19365 0.0
C489 C -0.00262 0.52089 0.18821 0.0
C490 C 0.95485 0.53393 0.18157 0.0
C491 C 0.94405 0.57832 0.17991 0.0
H492 H 0.40381 0.90722 0.67506 0.0
H493 H 0.37453 0.03805 0.69957 0.0
H494 H 0.48199 0.92292 0.67753 0.0
H495 H 0.45288 0.05331 0.70287 0.0
H496 H 0.58973 0.08271 0.67273 0.0
H497 H 0.51188 0.06658 0.67666 0.0
H498 H 0.54338 0.93684 0.70215 0.0
H499 H 0.62141 0.95253 0.69741 0.0
C500 C 0.4141 0.93904 0.68144 0.0
C501 C 0.38307 0.97152 0.68696 0.0
C502 C 0.45898 0.948 0.68298 0.0
C503 C 0.47377 0.9895 0.69028 0.0
C504 C 0.44261 0.02131 0.69676 0.0
C505 C 0.39773 0.01249 0.695 0.0
C506 C 0.58006 0.05091 0.67941 0.0
C507 C 0.61164 0.01879 0.68463 0.0
C508 C 0.53538 0.04171 0.6818 0.0
C509 C 0.52132 0.00034 0.68967 0.0
C510 C 0.55306 0.96876 0.69567 0.0
C511 C 0.59776 0.97782 0.69307 0.0
H512 H 0.02888 0.37161 0.82227 0.0
H513 H 0.90029 0.40662 0.84823 0.0
H514 H 0.04791 0.44902 0.81931 0.0
H515 H 0.91978 0.48398 0.84593 0.0
H516 H 0.08383 0.58573 0.84765 0.0
H517 H 0.0644 0.50835 0.84528 0.0
H518 H 0.93538 0.54339 0.81989 0.0
H519 H 0.95437 0.6208 0.82293 0.0
C520 C 0.00463 0.39586 0.82729 0.0
C521 C 0.96312 0.38306 0.83554 0.0
C522 C 0.01564 0.44021 0.82571 0.0
C523 C 0.98549 0.47269 0.83251 0.0
C524 C 0.94358 0.45983 0.84025 0.0
C525 C 0.93245 0.41547 0.84167 0.0
C526 C 0.05149 0.57689 0.84134 0.0
C527 C 0.02056 0.60931 0.83559 0.0
C528 C 0.04039 0.53252 0.83988 0.0
C529 C -0.00176 0.51968 0.83249 0.0
C530 C 0.96784 0.55219 0.82604 0.0
C531 C 0.97882 0.59653 0.82765 0.0
H532 H 0.3734 0.95695 0.31961 0.0
H533 H 0.40385 0.08584 0.34643 0.0
H534 H 0.45154 0.94149 0.31551 0.0
H535 H 0.48198 0.06987 0.34314 0.0
H536 H 0.62079 0.04059 0.32134 0.0
H537 H 0.54271 0.05726 0.31777 0.0
H538 H 0.51114 0.92603 0.34094 0.0
H539 H 0.58896 0.90898 0.34371 0.0
C540 C 0.39682 0.98204 0.32454 0.0
C541 C 0.38255 0.02252 0.33345 0.0
C542 C 0.4416 0.9731 0.32232 0.0
C543 C 0.47309 0.00426 0.32919 0.0
C544 C 0.45868 0.04531 0.33739 0.0
C545 C 0.41387 0.05442 0.33939 0.0
C546 C 0.59711 0.01518 0.3254 0.0
C547 C 0.61098 0.97351 0.33284 0.0
C548 C 0.55238 0.02481 0.32349 0.0
C549 C 0.5206 0.99308 0.32917 0.0
C550 C 0.53464 0.95106 0.33605 0.0
C551 C 0.57932 0.94132 0.33777 0.0
H552 H 0.90138 0.21942 0.96131 0.0
H553 H 0.03431 0.2547 0.94308 0.0
H554 H 0.92058 0.22231 1.00222 0.0
H555 H 0.05314 0.26056 0.98399 0.0
H556 H 0.08683 0.21746 0.05751 0.0
H557 H 0.06792 0.21941 0.01653 0.0
H558 H 0.93717 0.26449 0.03411 0.0
H559 H 0.95557 0.25955 0.0751 0.0
C560 C 0.93455 0.22861 0.96612 0.0
C561 C 0.96642 0.23656 0.94905 0.0
C562 C 0.9456 0.23061 0.98963 0.0
C563 C 0.98859 0.2416 0.99666 0.0
C564 C 0.02002 0.25093 0.97941 0.0
C565 C 0.00919 0.24794 0.95591 0.0
C566 C 0.05414 0.22797 0.05253 0.0
C567 C 0.02258 0.23806 0.06945 0.0
C568 C 0.04326 0.22941 0.02899 0.0
C569 C 0.00081 0.24197 0.02177 0.0
C570 C 0.9698 0.25355 0.03885 0.0
C571 C 0.98041 0.25111 0.0624 0.0
H572 H 0.73687 0.08326 0.55854 0.0
H573 H 0.78378 0.95213 0.57289 0.0
H574 H 0.73245 0.0654 0.51736 0.0
H575 H 0.78066 0.93477 0.53177 0.0
H576 H 0.73645 0.90425 0.45842 0.0
H577 H 0.73234 0.92183 0.49966 0.0
H578 H 0.78094 0.05235 0.48542 0.0
H579 H 0.78377 0.03529 0.44429 0.0
C580 C 0.74629 0.05066 0.55292 0.0
C581 C 0.76091 0.01922 0.569 0.0
C582 C 0.74398 0.04047 0.52929 0.0
C583 C 0.75638 -0.00132 0.52119 0.0
C584 C 0.77028 0.96707 0.53738 0.0
C585 C 0.77241 0.97718 0.56098 0.0
C586 C 0.74604 0.93675 0.4641 0.0
C587 C 0.76063 0.96827 0.44806 0.0
C588 C 0.7439 0.94678 0.48776 0.0
C589 C 0.75642 0.9885 0.49592 0.0
C590 C 0.77042 0.02013 0.47978 0.0
C591 C 0.77239 0.01018 0.45616 0.0
H592 H 0.90471 0.77588 0.05849 0.0
H593 H 0.03799 0.73977 0.0755 0.0
H594 H 0.9229 0.7743 0.01741 0.0
H595 H 0.05578 0.73495 0.03445 0.0
H596 H 0.95602 0.73835 0.94398 0.0
H597 H 0.93827 0.73358 0.98504 0.0
H598 H 0.07029 0.77572 1.002 0.0
H599 H 0.0885 0.77726 0.96094 0.0
C600 C 0.93774 0.76681 0.05336 0.0
C601 C 0.97001 0.75824 0.07013 0.0
C602 C 0.94822 0.76555 0.02975 0.0
C603 C 0.99101 0.75458 0.02233 0.0
C604 C 0.02283 0.74466 0.0393 0.0
C605 C 0.01259 0.74703 0.06289 0.0
C606 C 0.98125 0.74622 0.95657 0.0
C607 C 0.0236 0.7582 0.94932 0.0
C608 C 0.97102 0.74388 0.98017 0.0
C609 C 0.00261 0.75459 0.99712 0.0
C610 C 0.04517 0.76633 0.98968 0.0
C611 C 0.05566 0.76757 0.96608 0.0
H612 H 0.21775 0.08587 0.46126 0.0
H613 H 0.25663 0.95331 0.44469 0.0
H614 H 0.21951 0.06813 0.50238 0.0
H615 H 0.26142 0.93601 0.48581 0.0
H616 H 0.2565 0.03666 0.57582 0.0
H617 H 0.26115 0.05377 0.5347 0.0
H618 H 0.22015 0.92132 0.51829 0.0
H619 H 0.21856 0.90376 0.55948 0.0
C620 C 0.22747 0.05312 0.46649 0.0
C621 C 0.23679 0.02091 0.44982 0.0
C622 C 0.22881 0.0429 0.49012 0.0
C623 C 0.24054 0.00045 0.49768 0.0
C624 C 0.25116 0.9687 0.48083 0.0
C625 C 0.2488 0.97867 0.4572 0.0
C626 C 0.2488 0.01119 0.56335 0.0
C627 C 0.23707 0.96893 0.5708 0.0
C628 C 0.2511 0.02105 0.53972 0.0
C629 C 0.24065 0.98917 0.52292 0.0
C630 C 0.22926 0.94667 0.53052 0.0
C631 C 0.228 0.93656 0.55418 0.0
H632 H 0.15297 0.15281 0.19107 0.0
H633 H 0.10581 0.26561 0.22879 0.0
H634 H 0.18859 0.12559 0.22585 0.0
H635 H 0.14434 0.24054 0.26336 0.0
H636 H 0.16243 0.1541 0.32735 0.0
H637 H 0.13756 0.19032 0.29228 0.0
H638 H 0.24165 0.12674 0.25361 0.0
H639 H 0.26399 0.08794 0.2886 0.0
C640 C 0.15145 0.17248 0.20669 0.0
C641 C 0.12642 0.21111 0.20731 0.0
C642 C 0.17214 0.15702 0.22674 0.0
C643 C 0.16926 0.18047 0.24778 0.0
C644 C 0.14636 0.2207 0.24783 0.0
C645 C 0.12462 0.23545 0.22794 0.0
C646 C 0.18023 0.14832 0.31138 0.0
C647 C 0.21485 0.11795 0.31064 0.0
C648 C 0.16619 0.16937 0.29116 0.0
C649 C 0.18721 0.16146 0.26976 0.0
C650 C 0.22364 0.13287 0.26946 0.0
C651 C 0.23683 0.11089 0.28957 0.0
H652 H 0.83384 0.15304 0.82748 0.0
H653 H 0.87582 0.26923 0.79096 0.0
H654 H 0.79851 0.12611 0.79257 0.0
H655 H 0.83758 0.24426 0.75627 0.0
H656 H 0.72544 0.087 0.72955 0.0
H657 H 0.74527 0.12629 0.7648 0.0
H658 H 0.84702 0.19509 0.72692 0.0
H659 H 0.82458 0.15819 0.69158 0.0
C660 C 0.83415 0.17352 0.81213 0.0
C661 C 0.85776 0.21303 0.81185 0.0
C662 C 0.81366 0.15821 0.792 0.0
C663 C 0.81536 0.18262 0.77124 0.0
C664 C 0.83656 0.22374 0.77158 0.0
C665 C 0.85808 0.23841 0.79154 0.0
C666 C 0.75148 0.11121 0.7288 0.0
C667 C 0.77362 0.11945 0.70789 0.0
C668 C 0.76324 0.13349 0.74906 0.0
C669 C 0.79837 0.16362 0.74905 0.0
C670 C 0.81935 0.17286 0.7278 0.0
C671 C 0.80672 0.15144 0.70742 0.0
H672 H 0.79034 0.813 0.3272 0.0
H673 H 0.75918 0.92476 0.28394 0.0
H674 H 0.81539 0.7729 0.29304 0.0
H675 H 0.78477 0.88494 0.25006 0.0
H676 H 0.81402 0.79723 0.18984 0.0
H677 H 0.77354 0.82303 0.22373 0.0
H678 H 0.87984 0.78075 0.26808 0.0
H679 H 0.91997 0.75443 0.23446 0.0
C680 C 0.78824 0.82885 0.31042 0.0
C681 C 0.77316 0.87235 0.30841 0.0
C682 C 0.8028 0.8059 0.29085 0.0
C683 C 0.80239 0.82582 0.26885 0.0
C684 C 0.78514 0.86842 0.26669 0.0
C685 C 0.77074 0.8914 0.28621 0.0
C686 C 0.82846 0.79272 0.20684 0.0
C687 C 0.87055 0.77417 0.20934 0.0
C688 C 0.80531 0.80772 0.22626 0.0
C689 C 0.8236 0.80428 0.24859 0.0
C690 C 0.86456 0.78354 0.25118 0.0
C691 C 0.88775 0.7687 0.23181 0.0
H692 H 0.20481 0.81552 0.69249 0.0
H693 H 0.22941 0.92998 0.73493 0.0
H694 H 0.18093 0.77534 0.72684 0.0
H695 H 0.20481 0.89011 0.76897 0.0
H696 H 0.17899 0.80318 0.82989 0.0
H697 H 0.21858 0.83026 0.79598 0.0
H698 H 0.11629 0.77966 0.75145 0.0
H699 H 0.07723 0.75197 0.78506 0.0
C700 C 0.2056 0.83202 0.70912 0.0
C701 C 0.21867 0.87619 0.71084 0.0
C702 C 0.19173 0.809 0.7288 0.0
C703 C 0.1907 0.82957 0.75064 0.0
C704 C 0.20566 0.87305 0.7525 0.0
C705 C 0.21947 0.89606 0.73287 0.0
C706 C 0.16533 0.79711 0.81285 0.0
C707 C 0.12462 0.77579 0.81029 0.0
C708 C 0.18793 0.81286 0.79341 0.0
C709 C 0.17042 0.80749 0.77101 0.0
C710 C 0.13098 0.78403 0.7684 0.0
C711 C 0.10839 0.76838 0.78777 0.0
H712 H 0.98371 0.11077 0.18204 0.0
H713 H 0.04154 0.10045 0.11372 0.0
H714 H 0.96708 0.03247 0.18134 0.0
H715 H 0.02418 0.0221 0.11306 0.0
H716 H 0.93865 0.89302 0.11568 0.0
H717 H 0.9525 0.97214 0.11461 0.0
H718 H 0.01958 0.9637 0.18041 0.0
H719 H 0.00654 0.88483 0.18146 0.0
C720 C 0.99248 0.09196 0.1668 0.0
C721 C 0.0142 0.11175 0.14799 0.0
C722 C 0.98311 0.04717 0.16647 0.0
C723 C 0.99459 0.02151 0.1472 0.0
C724 C 0.01493 0.04139 0.12807 0.0
C725 C 0.02499 0.0861 0.12853 0.0
C726 C 0.95646 0.90804 0.12988 0.0
C727 C 0.97146 0.88269 0.14867 0.0
C728 C 0.96444 0.95318 0.1292 0.0
C729 C 0.9868 0.97375 0.14749 0.0
C730 C 0.00187 0.94851 0.16622 0.0
C731 C 0.99461 0.90336 0.16672 0.0
H732 H 0.09565 0.91241 0.63261 0.0
H733 H 0.11797 0.04209 0.66082 0.0
H734 H 0.01698 0.9273 0.63105 0.0
H735 H 0.03922 0.05677 0.65909 0.0
H736 H 0.90004 0.07937 0.62963 0.0
H737 H 0.97883 0.06479 0.62833 0.0
H738 H 0.95794 0.93997 0.66199 0.0
H739 H 0.87919 0.95438 0.6635 0.0
C740 C 0.08391 0.9442 0.6383 0.0
C741 C 0.11315 0.97606 0.64688 0.0
C742 C 0.03884 0.95256 0.63751 0.0
C743 C 0.02217 0.9931 0.64499 0.0
C744 C 0.05136 0.02535 0.65305 0.0
C745 C 0.09639 0.01682 0.65413 0.0
C746 C 0.91213 0.04868 0.63665 0.0
C747 C 0.88325 0.01801 0.64666 0.0
C748 C 0.95726 0.04051 0.63599 0.0
C749 C 0.97431 0.00129 0.64505 0.0
C750 C 0.94549 0.9703 0.6547 0.0
C751 C 0.90044 0.97868 0.65564 0.0
H752 H 0.95859 0.1007 0.83181 0.0
H753 H 0.97978 0.10759 0.90565 0.0
H754 H 0.97498 0.02265 0.83233 0.0
H755 H 0.00015 0.0302 0.90619 0.0
H756 H 0.99551 0.88154 0.90431 0.0
H757 H 0.97622 0.95932 0.90431 0.0
H758 H 0.02872 0.97135 0.83472 0.0
H759 H 0.04402 0.89296 0.83438 0.0
C760 C 0.96759 0.08537 0.8481 0.0
C761 C 0.96804 0.10973 0.86868 0.0
C762 C 0.97741 0.04068 0.84844 0.0
C763 C 0.98936 0.01969 0.86929 0.0
C764 C 0.99025 0.04466 0.88987 0.0
C765 C 0.979 0.0891 0.8896 0.0
C766 C 0.00255 0.90119 0.88909 0.0
C767 C 0.02086 0.88189 0.86931 0.0
C768 C 0.99196 0.9458 0.88908 0.0
C769 C 0.00073 0.97209 0.86948 0.0
C770 C 0.02021 0.95232 0.84991 0.0
C771 C 0.02947 0.90752 0.84972 0.0
H772 H 0.87799 0.03626 0.35748 0.0
H773 H 0.89871 0.90583 0.38505 0.0
H774 H 0.9567 0.05022 0.35964 0.0
H775 H 0.97763 0.91999 0.38698 0.0
H776 H 0.11709 0.95 0.35545 0.0
H777 H 0.03849 0.9341 0.3566 0.0
H778 H 0.01507 0.05719 0.39155 0.0
H779 H 0.09347 0.0732 0.39064 0.0
C780 C 0.89923 0.01063 0.36408 0.0
C781 C 0.88201 0.96995 0.37113 0.0
C782 C 0.94427 0.01874 0.3654 0.0
C783 C 0.97307 0.98617 0.3735 0.0
C784 C 0.95603 0.94552 0.38057 0.0
C785 C 0.91087 0.93758 0.37956 0.0
C786 C 0.09528 0.97353 0.36356 0.0
C787 C 0.11162 0.01291 0.37291 0.0
C788 C 0.05035 0.9643 0.36429 0.0
C789 C 0.02088 0.99452 0.37409 0.0
C790 C 0.03716 0.03354 0.38373 0.0
C791 C 0.08209 0.04254 0.38328 0.0
loop_
_geom_bond_atom_site_label_1
_geom_bond_atom_site_label_2
_geom_bond_distance
_geom_bond_site_symmetry_2
_ccdc_geom_bond_type
Co0 O2 2.143 . S
Co0 O8 2.074 . S
Co0 O11 2.093 . S
Co0 O24 2.097 . S
Co0 N41 2.151 . S
Co0 N49 2.214 . S
Co1 O2 2.160 . S
Co1 O7 2.058 . S
Co1 O17 2.057 . S
Co1 O32 2.037 . S
Co1 N36 2.145 1_455 S
Co1 N57 2.257 1_455 S
O2 Co0 2.143 . S
O2 Co1 2.160 . S
C3 O4 1.278 . S
C3 O11 1.224 . S
O4 C3 1.278 . S
C5 O6 1.245 . S
C5 O17 1.232 . S
O6 C5 1.245 . S
O7 Co1 2.058 . S
O7 C33 1.269 . S
O8 Co0 2.074 . S
O8 C33 1.257 . S
H9 C34 0.930 . S
H10 C40 0.930 . S
O11 Co0 2.093 . S
O11 C3 1.224 . S
H12 C44 0.929 . S
H13 C46 0.930 . S
H14 C47 0.930 . S
H15 C45 0.929 . S
H16 C48 0.928 . S
O17 Co1 2.057 . S
O17 C5 1.232 . S
H18 C37 0.929 . S
H19 C38 0.929 . S
H20 C50 0.931 . S
H21 C42 0.929 . S
H22 C51 0.930 . S
H23 C43 0.931 . S
O24 Co0 2.097 . S
O24 C52 1.214 . S
H25 C53 0.929 . S
H26 C54 0.929 . S
H27 C55 0.930 . S
H28 C56 0.929 . S
H29 C58 0.930 . S
H30 C35 0.930 . S
H31 C39 0.930 . S
O32 Co1 2.037 . S
O32 C52 1.234 . S
C33 O7 1.269 . S
C33 O8 1.257 . S
C34 H9 0.930 . S
C34 C37 1.388 . S
C34 C39 1.418 . S
C35 H30 0.930 . S
C35 C38 1.404 . S
C35 C39 1.353 . S
N36 Co1 2.145 1_655 S
N36 C37 1.397 . S
N36 C38 1.334 . S
C37 H18 0.929 . S
C37 C34 1.388 . S
C37 N36 1.397 . S
C38 H19 0.929 . S
C38 C35 1.404 . S
C38 N36 1.334 . S
C39 H31 0.930 . S
C39 C34 1.418 . S
C39 C35 1.353 . S
C40 H10 0.930 . S
C40 N41 1.330 . S
C40 C42 1.446 . S
N41 Co0 2.151 . S
N41 C40 1.330 . S
N41 C45 1.418 . S
C42 H21 0.929 . S
C42 C40 1.446 . S
C42 C43 1.332 . S
C43 H23 0.931 . S
C43 C42 1.332 . S
C43 C44 1.267 . S
C44 H12 0.929 . S
C44 C43 1.267 . S
C44 C45 1.251 . S
C45 H15 0.929 . S
C45 N41 1.418 . S
C45 C44 1.251 . S
C46 H13 0.930 . S
C46 C48 1.406 . S
C46 C51 1.261 . S
C47 H14 0.930 . S
C47 N49 1.325 . S
C47 C50 1.357 . S
C48 H16 0.928 . S
C48 C46 1.406 . S
C48 N49 1.261 . S
N49 Co0 2.214 . S
N49 C47 1.325 . S
N49 C48 1.261 . S
C50 H20 0.931 . S
C50 C47 1.357 . S
C50 C51 1.312 . S
C51 H22 0.930 . S
C51 C46 1.261 . S
C51 C50 1.312 . S
C52 O24 1.214 . S
C52 O32 1.234 . S
C53 H25 0.929 . S
C53 C56 1.391 . S
C53 C58 1.391 . S
C54 H26 0.929 . S
C54 C55 1.390 . S
C54 N57 1.391 . S
C55 H27 0.930 . S
C55 C54 1.390 . S
C55 C56 1.392 . S
C56 H28 0.929 . S
C56 C53 1.391 . S
C56 C55 1.392 . S
N57 Co1 2.257 1_655 S
N57 C54 1.391 . S
N57 C58 1.388 . S
C58 H29 0.930 . S
C58 C53 1.391 . S
C58 N57 1.388 . S
Co59 O61 2.143 . S
Co59 O67 2.074 . S
Co59 O70 2.093 . S
Co59 O83 2.097 . S
Co59 N100 2.151 . S
Co59 N108 2.214 . S
Co60 O61 2.160 . S
Co60 O66 2.058 . S
Co60 O76 2.057 . S
Co60 O91 2.037 . S
Co60 N95 2.145 1_545 S
Co60 N116 2.257 1_545 S
O61 Co59 2.143 . S
O61 Co60 2.160 . S
C62 O63 1.278 . S
C62 O70 1.224 . S
O63 C62 1.278 . S
C64 O65 1.245 . S
C64 O76 1.232 . S
O65 C64 1.245 . S
O66 Co60 2.058 . S
O66 C92 1.269 . S
O67 Co59 2.074 . S
O67 C92 1.257 . S
H68 C93 0.930 . S
H69 C99 0.930 . S
O70 Co59 2.093 . S
O70 C62 1.224 . S
H71 C103 0.929 . S
H72 C105 0.930 . S
H73 C106 0.930 . S
H74 C104 0.929 . S
H75 C107 0.928 . S
O76 Co60 2.057 . S
O76 C64 1.232 . S
H77 C96 0.929 . S
H78 C97 0.929 . S
H79 C109 0.931 . S
H80 C101 0.929 . S
H81 C110 0.930 . S
H82 C102 0.931 . S
O83 Co59 2.097 . S
O83 C111 1.214 . S
H84 C112 0.929 . S
H85 C113 0.929 . S
H86 C114 0.930 . S
H87 C115 0.929 . S
H88 C117 0.930 . S
H89 C94 0.930 . S
H90 C98 0.930 . S
O91 Co60 2.037 . S
O91 C111 1.234 . S
C92 O66 1.269 . S
C92 O67 1.257 . S
C93 H68 0.930 . S
C93 C96 1.388 . S
C93 C98 1.418 . S
C94 H89 0.930 . S
C94 C97 1.404 . S
C94 C98 1.353 . S
N95 Co60 2.145 1_565 S
N95 C96 1.397 . S
N95 C97 1.334 . S
C96 H77 0.929 . S
C96 C93 1.388 . S
C96 N95 1.397 . S
C97 H78 0.929 . S
C97 C94 1.404 . S
C97 N95 1.334 . S
C98 H90 0.930 . S
C98 C93 1.418 . S
C98 C94 1.353 . S
C99 H69 0.930 . S
C99 N100 1.330 . S
C99 C101 1.446 . S
N100 Co59 2.151 . S
N100 C99 1.330 . S
N100 C104 1.418 . S
C101 H80 0.929 . S
C101 C99 1.446 . S
C101 C102 1.332 . S
C102 H82 0.931 . S
C102 C101 1.332 . S
C102 C103 1.267 . S
C103 H71 0.929 . S
C103 C102 1.267 . S
C103 C104 1.251 . S
C104 H74 0.929 . S
C104 N100 1.418 . S
C104 C103 1.251 . S
C105 H72 0.930 . S
C105 C107 1.406 . S
C105 C110 1.261 . S
C106 H73 0.930 . S
C106 N108 1.325 . S
C106 C109 1.357 . S
C107 H75 0.928 . S
C107 C105 1.406 . S
C107 N108 1.261 . S
N108 Co59 2.214 . S
N108 C106 1.325 . S
N108 C107 1.261 . S
C109 H79 0.931 . S
C109 C106 1.357 . S
C109 C110 1.312 . S
C110 H81 0.930 . S
C110 C105 1.261 . S
C110 C109 1.312 . S
C111 O83 1.214 . S
C111 O91 1.234 . S
C112 H84 0.929 . S
C112 C115 1.391 . S
C112 C117 1.391 . S
C113 H85 0.929 . S
C113 C114 1.390 . S
C113 N116 1.391 . S
C114 H86 0.930 . S
C114 C113 1.390 . S
C114 C115 1.392 . S
C115 H87 0.929 . S
C115 C112 1.391 . S
C115 C114 1.392 . S
N116 Co60 2.257 1_565 S
N116 C113 1.391 . S
N116 C117 1.388 . S
C117 H88 0.930 . S
C117 C112 1.391 . S
C117 N116 1.388 . S
Co118 O120 2.143 . S
Co118 O126 2.074 . S
Co118 O129 2.093 . S
Co118 O142 2.097 . S
Co118 N159 2.151 . S
Co118 N167 2.214 . S
Co119 O120 2.160 . S
Co119 O125 2.058 . S
Co119 O135 2.057 . S
Co119 O150 2.037 . S
Co119 N154 2.145 1_655 S
Co119 N175 2.257 1_655 S
O120 Co118 2.143 . S
O120 Co119 2.160 . S
C121 O122 1.278 . S
C121 O129 1.224 . S
O122 C121 1.278 . S
C123 O124 1.245 . S
C123 O135 1.232 . S
O124 C123 1.245 . S
O125 Co119 2.058 . S
O125 C151 1.269 . S
O126 Co118 2.074 . S
O126 C151 1.257 . S
H127 C152 0.930 . S
H128 C158 0.930 . S
O129 Co118 2.093 . S
O129 C121 1.224 . S
H130 C162 0.929 . S
H131 C164 0.930 . S
H132 C165 0.930 . S
H133 C163 0.929 . S
H134 C166 0.928 . S
O135 Co119 2.057 . S
O135 C123 1.232 . S
H136 C155 0.929 . S
H137 C156 0.929 . S
H138 C168 0.931 . S
H139 C160 0.929 . S
H140 C169 0.930 . S
H141 C161 0.931 . S
O142 Co118 2.097 . S
O142 C170 1.214 . S
H143 C171 0.929 . S
H144 C172 0.929 . S
H145 C173 0.930 . S
H146 C174 0.929 . S
H147 C176 0.930 . S
H148 C153 0.930 . S
H149 C157 0.930 . S
O150 Co119 2.037 . S
O150 C170 1.234 . S
C151 O125 1.269 . S
C151 O126 1.257 . S
C152 H127 0.930 . S
C152 C155 1.388 . S
C152 C157 1.418 . S
C153 H148 0.930 . S
C153 C156 1.404 . S
C153 C157 1.353 . S
N154 Co119 2.145 1_455 S
N154 C155 1.397 . S
N154 C156 1.334 . S
C155 H136 0.929 . S
C155 C152 1.388 . S
C155 N154 1.397 . S
C156 H137 0.929 . S
C156 C153 1.404 . S
C156 N154 1.334 . S
C157 H149 0.930 . S
C157 C152 1.418 . S
C157 C153 1.353 . S
C158 H128 0.930 . S
C158 N159 1.330 . S
C158 C160 1.446 . S
N159 Co118 2.151 . S
N159 C158 1.330 . S
N159 C163 1.418 . S
C160 H139 0.929 . S
C160 C158 1.446 . S
C160 C161 1.332 . S
C161 H141 0.931 . S
C161 C160 1.332 . S
C161 C162 1.267 . S
C162 H130 0.929 . S
C162 C161 1.267 . S
C162 C163 1.251 . S
C163 H133 0.929 . S
C163 N159 1.418 . S
C163 C162 1.251 . S
C164 H131 0.930 . S
C164 C166 1.406 . S
C164 C169 1.261 . S
C165 H132 0.930 . S
C165 N167 1.325 . S
C165 C168 1.357 . S
C166 H134 0.928 . S
C166 C164 1.406 . S
C166 N167 1.261 . S
N167 Co118 2.214 . S
N167 C165 1.325 . S
N167 C166 1.261 . S
C168 H138 0.931 . S
C168 C165 1.357 . S
C168 C169 1.312 . S
C169 H140 0.930 . S
C169 C164 1.261 . S
C169 C168 1.312 . S
C170 O142 1.214 . S
C170 O150 1.234 . S
C171 H143 0.929 . S
C171 C174 1.391 . S
C171 C176 1.391 . S
C172 H144 0.929 . S
C172 C173 1.390 . S
C172 N175 1.391 . S
C173 H145 0.930 . S
C173 C172 1.390 . S
C173 C174 1.392 . S
C174 H146 0.929 . S
C174 C171 1.391 . S
C174 C173 1.392 . S
N175 Co119 2.257 1_455 S
N175 C172 1.391 . S
N175 C176 1.388 . S
C176 H147 0.930 . S
C176 C171 1.391 . S
C176 N175 1.388 . S
Co177 O179 2.143 . S
Co177 O185 2.074 . S
Co177 O188 2.093 . S
Co177 O201 2.097 . S
Co177 N218 2.151 . S
Co177 N226 2.214 . S
Co178 O179 2.160 . S
Co178 O184 2.058 . S
Co178 O194 2.057 . S
Co178 O209 2.037 . S
Co178 N213 2.145 1_565 S
Co178 N234 2.257 1_565 S
O179 Co177 2.143 . S
O179 Co178 2.160 . S
C180 O181 1.278 . S
C180 O188 1.224 . S
O181 C180 1.278 . S
C182 O183 1.245 . S
C182 O194 1.232 . S
O183 C182 1.245 . S
O184 Co178 2.058 . S
O184 C210 1.269 . S
O185 Co177 2.074 . S
O185 C210 1.257 . S
H186 C211 0.930 . S
H187 C217 0.930 . S
O188 Co177 2.093 . S
O188 C180 1.224 . S
H189 C221 0.929 . S
H190 C223 0.930 . S
H191 C224 0.930 . S
H192 C222 0.929 . S
H193 C225 0.928 . S
O194 Co178 2.057 . S
O194 C182 1.232 . S
H195 C214 0.929 . S
H196 C215 0.929 . S
H197 C227 0.931 . S
H198 C219 0.929 . S
H199 C228 0.930 . S
H200 C220 0.931 . S
O201 Co177 2.097 . S
O201 C229 1.214 . S
H202 C230 0.929 . S
H203 C231 0.929 . S
H204 C232 0.930 . S
H205 C233 0.929 . S
H206 C235 0.930 . S
H207 C212 0.930 . S
H208 C216 0.930 . S
O209 Co178 2.037 . S
O209 C229 1.234 . S
C210 O184 1.269 . S
C210 O185 1.257 . S
C211 H186 0.930 . S
C211 C214 1.388 . S
C211 C216 1.418 . S
C212 H207 0.930 . S
C212 C215 1.404 . S
C212 C216 1.353 . S
N213 Co178 2.145 1_545 S
N213 C214 1.397 . S
N213 C215 1.334 . S
C214 H195 0.929 . S
C214 C211 1.388 . S
C214 N213 1.397 . S
C215 H196 0.929 . S
C215 C212 1.404 . S
C215 N213 1.334 . S
C216 H208 0.930 . S
C216 C211 1.418 . S
C216 C212 1.353 . S
C217 H187 0.930 . S
C217 N218 1.330 . S
C217 C219 1.446 . S
N218 Co177 2.151 . S
N218 C217 1.330 . S
N218 C222 1.418 . S
C219 H198 0.929 . S
C219 C217 1.446 . S
C219 C220 1.332 . S
C220 H200 0.931 . S
C220 C219 1.332 . S
C220 C221 1.267 . S
C221 H189 0.929 . S
C221 C220 1.267 . S
C221 C222 1.251 . S
C222 H192 0.929 . S
C222 N218 1.418 . S
C222 C221 1.251 . S
C223 H190 0.930 . S
C223 C225 1.406 . S
C223 C228 1.261 . S
C224 H191 0.930 . S
C224 N226 1.325 . S
C224 C227 1.357 . S
C225 H193 0.928 . S
C225 C223 1.406 . S
C225 N226 1.261 . S
N226 Co177 2.214 . S
N226 C224 1.325 . S
N226 C225 1.261 . S
C227 H197 0.931 . S
C227 C224 1.357 . S
C227 C228 1.312 . S
C228 H199 0.930 . S
C228 C223 1.261 . S
C228 C227 1.312 . S
C229 O201 1.214 . S
C229 O209 1.234 . S
C230 H202 0.929 . S
C230 C233 1.391 . S
C230 C235 1.391 . S
C231 H203 0.929 . S
C231 C232 1.390 . S
C231 N234 1.391 . S
C232 H204 0.930 . S
C232 C231 1.390 . S
C232 C233 1.392 . S
C233 H205 0.929 . S
C233 C230 1.391 . S
C233 C232 1.392 . S
N234 Co178 2.257 1_545 S
N234 C231 1.391 . S
N234 C235 1.388 . S
C235 H206 0.930 . S
C235 C230 1.391 . S
C235 N234 1.388 . S
Co236 O238 2.143 . S
Co236 O244 2.074 . S
Co236 O247 2.093 . S
Co236 O260 2.097 . S
Co236 N277 2.151 . S
Co236 N285 2.214 . S
Co237 O238 2.160 . S
Co237 O243 2.058 . S
Co237 O253 2.057 . S
Co237 O268 2.037 . S
Co237 N272 2.145 1_455 S
Co237 N293 2.257 1_455 S
O238 Co236 2.143 . S
O238 Co237 2.160 . S
C239 O240 1.278 . S
C239 O247 1.224 . S
O240 C239 1.278 . S
C241 O242 1.245 . S
C241 O253 1.232 . S
O242 C241 1.245 . S
O243 Co237 2.058 . S
O243 C269 1.269 . S
O244 Co236 2.074 . S
O244 C269 1.257 . S
H245 C270 0.930 . S
H246 C276 0.930 . S
O247 Co236 2.093 . S
O247 C239 1.224 . S
H248 C280 0.929 . S
H249 C282 0.930 . S
H250 C283 0.930 . S
H251 C281 0.929 . S
H252 C284 0.928 . S
O253 Co237 2.057 . S
O253 C241 1.232 . S
H254 C273 0.929 . S
H255 C274 0.929 . S
H256 C286 0.931 . S
H257 C278 0.929 . S
H258 C287 0.930 . S
H259 C279 0.931 . S
O260 Co236 2.097 . S
O260 C288 1.214 . S
H261 C289 0.929 . S
H262 C290 0.929 . S
H263 C291 0.930 . S
H264 C292 0.929 . S
H265 C294 0.930 . S
H266 C271 0.930 . S
H267 C275 0.930 . S
O268 Co237 2.037 . S
O268 C288 1.234 . S
C269 O243 1.269 . S
C269 O244 1.257 . S
C270 H245 0.930 . S
C270 C273 1.388 . S
C270 C275 1.418 . S
C271 H266 0.930 . S
C271 C274 1.404 . S
C271 C275 1.353 . S
N272 Co237 2.145 1_655 S
N272 C273 1.397 . S
N272 C274 1.334 . S
C273 H254 0.929 . S
C273 C270 1.388 . S
C273 N272 1.397 . S
C274 H255 0.929 . S
C274 C271 1.404 . S
C274 N272 1.334 . S
C275 H267 0.930 . S
C275 C270 1.418 . S
C275 C271 1.353 . S
C276 H246 0.930 . S
C276 N277 1.330 . S
C276 C278 1.446 . S
N277 Co236 2.151 . S
N277 C276 1.330 . S
N277 C281 1.418 . S
C278 H257 0.929 . S
C278 C276 1.446 . S
C278 C279 1.332 . S
C279 H259 0.931 . S
C279 C278 1.332 . S
C279 C280 1.267 . S
C280 H248 0.929 . S
C280 C279 1.267 . S
C280 C281 1.251 . S
C281 H251 0.929 . S
C281 N277 1.418 . S
C281 C280 1.251 . S
C282 H249 0.930 . S
C282 C284 1.406 . S
C282 C287 1.261 . S
C283 H250 0.930 . S
C283 N285 1.325 . S
C283 C286 1.357 . S
C284 H252 0.928 . S
C284 C282 1.406 . S
C284 N285 1.261 . S
N285 Co236 2.214 . S
N285 C283 1.325 . S
N285 C284 1.261 . S
C286 H256 0.931 . S
C286 C283 1.357 . S
C286 C287 1.312 . S
C287 H258 0.930 . S
C287 C282 1.261 . S
C287 C286 1.312 . S
C288 O260 1.214 . S
C288 O268 1.234 . S
C289 H261 0.929 . S
C289 C292 1.391 . S
C289 C294 1.391 . S
C290 H262 0.929 . S
C290 C291 1.390 . S
C290 N293 1.391 . S
C291 H263 0.930 . S
C291 C290 1.390 . S
C291 C292 1.392 . S
C292 H264 0.929 . S
C292 C289 1.391 . S
C292 C291 1.392 . S
N293 Co237 2.257 1_655 S
N293 C290 1.391 . S
N293 C294 1.388 . S
C294 H265 0.930 . S
C294 C289 1.391 . S
C294 N293 1.388 . S
Co295 O297 2.143 . S
Co295 O303 2.074 . S
Co295 O306 2.093 . S
Co295 O319 2.097 . S
Co295 N336 2.151 . S
Co295 N344 2.214 . S
Co296 O297 2.160 . S
Co296 O302 2.058 . S
Co296 O312 2.057 . S
Co296 O327 2.037 . S
Co296 N331 2.145 1_545 S
Co296 N352 2.257 1_545 S
O297 Co295 2.143 . S
O297 Co296 2.160 . S
C298 O299 1.278 . S
C298 O306 1.224 . S
O299 C298 1.278 . S
C300 O301 1.245 . S
C300 O312 1.232 . S
O301 C300 1.245 . S
O302 Co296 2.058 . S
O302 C328 1.269 . S
O303 Co295 2.074 . S
O303 C328 1.257 . S
H304 C329 0.930 . S
H305 C335 0.930 . S
O306 Co295 2.093 . S
O306 C298 1.224 . S
H307 C339 0.929 . S
H308 C341 0.930 . S
H309 C342 0.930 . S
H310 C340 0.929 . S
H311 C343 0.928 . S
O312 Co296 2.057 . S
O312 C300 1.232 . S
H313 C332 0.929 . S
H314 C333 0.929 . S
H315 C345 0.931 . S
H316 C337 0.929 . S
H317 C346 0.930 . S
H318 C338 0.931 . S
O319 Co295 2.097 . S
O319 C347 1.214 . S
H320 C348 0.929 . S
H321 C349 0.929 . S
H322 C350 0.930 . S
H323 C351 0.929 . S
H324 C353 0.930 . S
H325 C330 0.930 . S
H326 C334 0.930 . S
O327 Co296 2.037 . S
O327 C347 1.234 . S
C328 O302 1.269 . S
C328 O303 1.257 . S
C329 H304 0.930 . S
C329 C332 1.388 . S
C329 C334 1.418 . S
C330 H325 0.930 . S
C330 C333 1.404 . S
C330 C334 1.353 . S
N331 Co296 2.145 1_565 S
N331 C332 1.397 . S
N331 C333 1.334 . S
C332 H313 0.929 . S
C332 C329 1.388 . S
C332 N331 1.397 . S
C333 H314 0.929 . S
C333 C330 1.404 . S
C333 N331 1.334 . S
C334 H326 0.930 . S
C334 C329 1.418 . S
C334 C330 1.353 . S
C335 H305 0.930 . S
C335 N336 1.330 . S
C335 C337 1.446 . S
N336 Co295 2.151 . S
N336 C335 1.330 . S
N336 C340 1.418 . S
C337 H316 0.929 . S
C337 C335 1.446 . S
C337 C338 1.332 . S
C338 H318 0.931 . S
C338 C337 1.332 . S
C338 C339 1.267 . S
C339 H307 0.929 . S
C339 C338 1.267 . S
C339 C340 1.251 . S
C340 H310 0.929 . S
C340 N336 1.418 . S
C340 C339 1.251 . S
C341 H308 0.930 . S
C341 C343 1.406 . S
C341 C346 1.261 . S
C342 H309 0.930 . S
C342 N344 1.325 . S
C342 C345 1.357 . S
C343 H311 0.928 . S
C343 C341 1.406 . S
C343 N344 1.261 . S
N344 Co295 2.214 . S
N344 C342 1.325 . S
N344 C343 1.261 . S
C345 H315 0.931 . S
C345 C342 1.357 . S
C345 C346 1.312 . S
C346 H317 0.930 . S
C346 C341 1.261 . S
C346 C345 1.312 . S
C347 O319 1.214 . S
C347 O327 1.234 . S
C348 H320 0.929 . S
C348 C351 1.391 . S
C348 C353 1.391 . S
C349 H321 0.929 . S
C349 C350 1.390 . S
C349 N352 1.391 . S
C350 H322 0.930 . S
C350 C349 1.390 . S
C350 C351 1.392 . S
C351 H323 0.929 . S
C351 C348 1.391 . S
C351 C350 1.392 . S
N352 Co296 2.257 1_565 S
N352 C349 1.391 . S
N352 C353 1.388 . S
C353 H324 0.930 . S
C353 C348 1.391 . S
C353 N352 1.388 . S
Co354 O356 2.143 . S
Co354 O362 2.074 . S
Co354 O365 2.093 . S
Co354 O378 2.097 . S
Co354 N395 2.151 . S
Co354 N403 2.214 . S
Co355 O356 2.160 . S
Co355 O361 2.058 . S
Co355 O371 2.057 . S
Co355 O386 2.037 . S
Co355 N390 2.145 1_655 S
Co355 N411 2.257 1_655 S
O356 Co354 2.143 . S
O356 Co355 2.160 . S
C357 O358 1.278 . S
C357 O365 1.224 . S
O358 C357 1.278 . S
C359 O360 1.245 . S
C359 O371 1.232 . S
O360 C359 1.245 . S
O361 Co355 2.058 . S
O361 C387 1.269 . S
O362 Co354 2.074 . S
O362 C387 1.257 . S
H363 C388 0.930 . S
H364 C394 0.930 . S
O365 Co354 2.093 . S
O365 C357 1.224 . S
H366 C398 0.929 . S
H367 C400 0.930 . S
H368 C401 0.930 . S
H369 C399 0.929 . S
H370 C402 0.928 . S
O371 Co355 2.057 . S
O371 C359 1.232 . S
H372 C391 0.929 . S
H373 C392 0.929 . S
H374 C404 0.931 . S
H375 C396 0.929 . S
H376 C405 0.930 . S
H377 C397 0.931 . S
O378 Co354 2.097 . S
O378 C406 1.214 . S
H379 C407 0.929 . S
H380 C408 0.929 . S
H381 C409 0.930 . S
H382 C410 0.929 . S
H383 C412 0.930 . S
H384 C389 0.930 . S
H385 C393 0.930 . S
O386 Co355 2.037 . S
O386 C406 1.234 . S
C387 O361 1.269 . S
C387 O362 1.257 . S
C388 H363 0.930 . S
C388 C391 1.388 . S
C388 C393 1.418 . S
C389 H384 0.930 . S
C389 C392 1.404 . S
C389 C393 1.353 . S
N390 Co355 2.145 1_455 S
N390 C391 1.397 . S
N390 C392 1.334 . S
C391 H372 0.929 . S
C391 C388 1.388 . S
C391 N390 1.397 . S
C392 H373 0.929 . S
C392 C389 1.404 . S
C392 N390 1.334 . S
C393 H385 0.930 . S
C393 C388 1.418 . S
C393 C389 1.353 . S
C394 H364 0.930 . S
C394 N395 1.330 . S
C394 C396 1.446 . S
N395 Co354 2.151 . S
N395 C394 1.330 . S
N395 C399 1.418 . S
C396 H375 0.929 . S
C396 C394 1.446 . S
C396 C397 1.332 . S
C397 H377 0.931 . S
C397 C396 1.332 . S
C397 C398 1.267 . S
C398 H366 0.929 . S
C398 C397 1.267 . S
C398 C399 1.251 . S
C399 H369 0.929 . S
C399 N395 1.418 . S
C399 C398 1.251 . S
C400 H367 0.930 . S
C400 C402 1.406 . S
C400 C405 1.261 . S
C401 H368 0.930 . S
C401 N403 1.325 . S
C401 C404 1.357 . S
C402 H370 0.928 . S
C402 C400 1.406 . S
C402 N403 1.261 . S
N403 Co354 2.214 . S
N403 C401 1.325 . S
N403 C402 1.261 . S
C404 H374 0.931 . S
C404 C401 1.357 . S
C404 C405 1.312 . S
C405 H376 0.930 . S
C405 C400 1.261 . S
C405 C404 1.312 . S
C406 O378 1.214 . S
C406 O386 1.234 . S
C407 H379 0.929 . S
C407 C410 1.391 . S
C407 C412 1.391 . S
C408 H380 0.929 . S
C408 C409 1.390 . S
C408 N411 1.391 . S
C409 H381 0.930 . S
C409 C408 1.390 . S
C409 C410 1.392 . S
C410 H382 0.929 . S
C410 C407 1.391 . S
C410 C409 1.392 . S
N411 Co355 2.257 1_455 S
N411 C408 1.391 . S
N411 C412 1.388 . S
C412 H383 0.930 . S
C412 C407 1.391 . S
C412 N411 1.388 . S
Co413 O415 2.143 . S
Co413 O421 2.074 . S
Co413 O424 2.093 . S
Co413 O437 2.097 . S
Co413 N454 2.151 . S
Co413 N462 2.214 . S
Co414 O415 2.160 . S
Co414 O420 2.058 . S
Co414 O430 2.057 . S
Co414 O445 2.037 . S
Co414 N449 2.145 1_565 S
Co414 N470 2.257 1_565 S
O415 Co413 2.143 . S
O415 Co414 2.160 . S
C416 O417 1.278 . S
C416 O424 1.224 . S
O417 C416 1.278 . S
C418 O419 1.245 . S
C418 O430 1.232 . S
O419 C418 1.245 . S
O420 Co414 2.058 . S
O420 C446 1.269 . S
O421 Co413 2.074 . S
O421 C446 1.257 . S
H422 C447 0.930 . S
H423 C453 0.930 . S
O424 Co413 2.093 . S
O424 C416 1.224 . S
H425 C457 0.929 . S
H426 C459 0.930 . S
H427 C460 0.930 . S
H428 C458 0.929 . S
H429 C461 0.928 . S
O430 Co414 2.057 . S
O430 C418 1.232 . S
H431 C450 0.929 . S
H432 C451 0.929 . S
H433 C463 0.931 . S
H434 C455 0.929 . S
H435 C464 0.930 . S
H436 C456 0.931 . S
O437 Co413 2.097 . S
O437 C465 1.214 . S
H438 C466 0.929 . S
H439 C467 0.929 . S
H440 C468 0.930 . S
H441 C469 0.929 . S
H442 C471 0.930 . S
H443 C448 0.930 . S
H444 C452 0.930 . S
O445 Co414 2.037 . S
O445 C465 1.234 . S
C446 O420 1.269 . S
C446 O421 1.257 . S
C447 H422 0.930 . S
C447 C450 1.388 . S
C447 C452 1.418 . S
C448 H443 0.930 . S
C448 C451 1.404 . S
C448 C452 1.353 . S
N449 Co414 2.145 1_545 S
N449 C450 1.397 . S
N449 C451 1.334 . S
C450 H431 0.929 . S
C450 C447 1.388 . S
C450 N449 1.397 . S
C451 H432 0.929 . S
C451 C448 1.404 . S
C451 N449 1.334 . S
C452 H444 0.930 . S
C452 C447 1.418 . S
C452 C448 1.353 . S
C453 H423 0.930 . S
C453 N454 1.330 . S
C453 C455 1.446 . S
N454 Co413 2.151 . S
N454 C453 1.330 . S
N454 C458 1.418 . S
C455 H434 0.929 . S
C455 C453 1.446 . S
C455 C456 1.332 . S
C456 H436 0.931 . S
C456 C455 1.332 . S
C456 C457 1.267 . S
C457 H425 0.929 . S
C457 C456 1.267 . S
C457 C458 1.251 . S
C458 H428 0.929 . S
C458 N454 1.418 . S
C458 C457 1.251 . S
C459 H426 0.930 . S
C459 C461 1.406 . S
C459 C464 1.261 . S
C460 H427 0.930 . S
C460 N462 1.325 . S
C460 C463 1.357 . S
C461 H429 0.928 . S
C461 C459 1.406 . S
C461 N462 1.261 . S
N462 Co413 2.214 . S
N462 C460 1.325 . S
N462 C461 1.261 . S
C463 H433 0.931 . S
C463 C460 1.357 . S
C463 C464 1.312 . S
C464 H435 0.930 . S
C464 C459 1.261 . S
C464 C463 1.312 . S
C465 O437 1.214 . S
C465 O445 1.234 . S
C466 H438 0.929 . S
C466 C469 1.391 . S
C466 C471 1.391 . S
C467 H439 0.929 . S
C467 C468 1.390 . S
C467 N470 1.391 . S
C468 H440 0.930 . S
C468 C467 1.390 . S
C468 C469 1.392 . S
C469 H441 0.929 . S
C469 C466 1.391 . S
C469 C468 1.392 . S
N470 Co414 2.257 1_545 S
N470 C467 1.391 . S
N470 C471 1.388 . S
C471 H442 0.930 . S
C471 C466 1.391 . S
C471 N470 1.388 . S
H472 C480 0.950 . S
H473 C485 0.950 . S
H474 C482 0.950 . S
H475 C484 0.950 . S
H476 C486 0.950 . S
H477 C488 0.950 . S
H478 C490 0.950 . S
H479 C491 0.950 . S
C480 H472 0.950 . S
C480 C481 1.386 1_655 S
C480 C482 1.391 . S
C481 C480 1.386 1_455 S
C481 C485 1.393 . S
C482 H474 0.950 . S
C482 C480 1.391 . S
C482 C483 1.400 1_655 S
C483 C482 1.400 1_455 S
C483 C484 1.398 . S
C483 C489 1.491 1_455 S
C484 H475 0.950 . S
C484 C483 1.398 . S
C484 C485 1.391 . S
C485 H473 0.950 . S
C485 C481 1.393 . S
C485 C484 1.391 . S
C486 H476 0.950 . S
C486 C487 1.386 1_455 S
C486 C488 1.391 . S
C487 C486 1.386 1_655 S
C487 C491 1.393 . S
C488 H477 0.950 . S
C488 C486 1.391 . S
C488 C489 1.400 1_455 S
C489 C483 1.491 1_655 S
C489 C488 1.400 1_655 S
C489 C490 1.398 . S
C490 H478 0.950 . S
C490 C489 1.398 . S
C490 C491 1.391 . S
C491 H479 0.950 . S
C491 C487 1.393 . S
C491 C490 1.391 . S
H492 C500 0.950 . S
H493 C505 0.950 . S
H494 C502 0.950 . S
H495 C504 0.950 . S
H496 C506 0.950 . S
H497 C508 0.950 . S
H498 C510 0.950 . S
H499 C511 0.950 . S
C500 H492 0.950 . S
C500 C501 1.386 . S
C500 C502 1.391 . S
C501 C500 1.386 . S
C501 C505 1.393 1_565 S
C502 H494 0.950 . S
C502 C500 1.391 . S
C502 C503 1.400 . S
C503 C502 1.400 . S
C503 C504 1.398 1_565 S
C503 C509 1.491 1_565 S
C504 H495 0.950 . S
C504 C503 1.398 1_545 S
C504 C505 1.391 . S
C505 H493 0.950 . S
C505 C501 1.393 1_545 S
C505 C504 1.391 . S
C506 H496 0.950 . S
C506 C507 1.386 . S
C506 C508 1.391 . S
C507 C506 1.386 . S
C507 C511 1.393 1_545 S
C508 H497 0.950 . S
C508 C506 1.391 . S
C508 C509 1.400 . S
C509 C503 1.491 1_545 S
C509 C508 1.400 . S
C509 C510 1.398 1_545 S
C510 H498 0.950 . S
C510 C509 1.398 1_565 S
C510 C511 1.391 . S
C511 H499 0.950 . S
C511 C507 1.393 1_565 S
C511 C510 1.391 . S
H512 C520 0.950 . S
H513 C525 0.950 . S
H514 C522 0.950 . S
H515 C524 0.950 . S
H516 C526 0.950 . S
H517 C528 0.950 . S
H518 C530 0.950 . S
H519 C531 0.950 . S
C520 H512 0.950 . S
C520 C521 1.386 . S
C520 C522 1.391 . S
C521 C520 1.386 . S
C521 C525 1.393 . S
C522 H514 0.950 . S
C522 C520 1.391 . S
C522 C523 1.400 . S
C523 C522 1.400 . S
C523 C524 1.398 . S
C523 C529 1.491 1_655 S
C524 H515 0.950 . S
C524 C523 1.398 . S
C524 C525 1.391 . S
C525 H513 0.950 . S
C525 C521 1.393 . S
C525 C524 1.391 . S
C526 H516 0.950 . S
C526 C527 1.386 . S
C526 C528 1.391 . S
C527 C526 1.386 . S
C527 C531 1.393 . S
C528 H517 0.950 . S
C528 C526 1.391 . S
C528 C529 1.400 . S
C529 C523 1.491 1_455 S
C529 C528 1.400 . S
C529 C530 1.398 . S
C530 H518 0.950 . S
C530 C529 1.398 . S
C530 C531 1.391 . S
C531 H519 0.950 . S
C531 C527 1.393 . S
C531 C530 1.391 . S
H532 C540 0.950 . S
H533 C545 0.950 . S
H534 C542 0.950 . S
H535 C544 0.950 . S
H536 C546 0.950 . S
H537 C548 0.950 . S
H538 C550 0.950 . S
H539 C551 0.950 . S
C540 H532 0.950 . S
C540 C541 1.386 1_565 S
C540 C542 1.391 . S
C541 C540 1.386 1_545 S
C541 C545 1.393 . S
C542 H534 0.950 . S
C542 C540 1.391 . S
C542 C543 1.400 1_565 S
C543 C542 1.400 1_545 S
C543 C544 1.398 . S
C543 C549 1.491 1_545 S
C544 H535 0.950 . S
C544 C543 1.398 . S
C544 C545 1.391 . S
C545 H533 0.950 . S
C545 C541 1.393 . S
C545 C544 1.391 . S
C546 H536 0.950 . S
C546 C547 1.386 1_545 S
C546 C548 1.391 . S
C547 C546 1.386 1_565 S
C547 C551 1.393 . S
C548 H537 0.950 . S
C548 C546 1.391 . S
C548 C549 1.400 1_545 S
C549 C543 1.491 1_565 S
C549 C548 1.400 1_565 S
C549 C550 1.398 . S
C550 H538 0.950 . S
C550 C549 1.398 . S
C550 C551 1.391 . S
C551 H539 0.950 . S
C551 C547 1.393 . S
C551 C550 1.391 . S
H552 C560 0.950 . S
H553 C565 0.950 1_455 S
H554 C562 0.974 . S
H555 C564 0.950 . S
H556 C566 0.950 . S
H557 C568 0.974 . S
H558 C570 0.950 . S
H559 C571 0.950 1_655 S
C560 H552 0.950 . S
C560 C561 1.386 . S
C560 C562 1.391 . S
C561 C560 1.386 . S
C561 C565 1.393 . S
C562 H554 0.974 . S
C562 C560 1.391 . S
C562 C563 1.400 . S
C563 C562 1.400 . S
C563 C564 1.398 1_655 S
C563 C569 1.491 1_656 S
C564 H555 0.950 . S
C564 C563 1.398 1_455 S
C564 C565 1.391 1_455 S
C565 H553 0.950 1_655 S
C565 C561 1.393 . S
C565 C564 1.391 1_655 S
C566 H556 0.950 . S
C566 C567 1.386 . S
C566 C568 1.391 . S
C567 C566 1.386 . S
C567 C571 1.393 . S
C568 H557 0.974 . S
C568 C566 1.391 . S
C568 C569 1.400 . S
C569 C563 1.491 1_454 S
C569 C568 1.400 . S
C569 C570 1.398 1_455 S
C570 H558 0.950 . S
C570 C569 1.398 1_655 S
C570 C571 1.391 1_655 S
C571 H559 0.950 1_455 S
C571 C567 1.393 . S
C571 C570 1.391 1_455 S
H572 C580 0.950 . S
H573 C585 0.950 . S
H574 C582 0.950 . S
H575 C584 0.950 1_565 S
H576 C586 0.950 . S
H577 C588 0.950 . S
H578 C590 0.950 1_545 S
H579 C591 0.950 . S
C580 H572 0.950 . S
C580 C581 1.386 . S
C580 C582 1.391 . S
C581 C580 1.386 . S
C581 C585 1.393 . S
C582 H574 0.950 . S
C582 C580 1.391 . S
C582 C583 1.400 . S
C583 C582 1.400 . S
C583 C584 1.398 . S
C583 C589 1.491 1_545 S
C584 H575 0.950 1_545 S
C584 C583 1.398 . S
C584 C585 1.391 . S
C585 H573 0.950 . S
C585 C581 1.393 . S
C585 C584 1.391 . S
C586 H576 0.950 . S
C586 C587 1.386 . S
C586 C588 1.391 . S
C587 C586 1.386 . S
C587 C591 1.393 . S
C588 H577 0.950 . S
C588 C586 1.391 . S
C588 C589 1.400 . S
C589 C583 1.491 1_565 S
C589 C588 1.400 . S
C589 C590 1.398 . S
C590 H578 0.950 1_565 S
C590 C589 1.398 . S
C590 C591 1.391 . S
C591 H579 0.950 . S
C591 C587 1.393 . S
C591 C590 1.391 . S
H592 C600 0.950 . S
H593 C605 0.950 . S
H594 C602 0.950 . S
H595 C604 0.950 1_455 S
H596 C606 0.950 . S
H597 C608 0.950 . S
H598 C610 0.950 1_655 S
H599 C611 0.950 . S
C600 H592 0.950 . S
C600 C601 1.386 . S
C600 C602 1.391 . S
C601 C600 1.386 . S
C601 C605 1.393 . S
C602 H594 0.950 . S
C602 C600 1.391 . S
C602 C603 1.400 . S
C603 C602 1.400 . S
C603 C604 1.398 . S
C603 C609 1.491 1_654 S
C604 H595 0.950 1_655 S
C604 C603 1.398 . S
C604 C605 1.391 . S
C605 H593 0.950 . S
C605 C601 1.393 . S
C605 C604 1.391 . S
C606 H596 0.950 . S
C606 C607 1.386 . S
C606 C608 1.391 . S
C607 C606 1.386 . S
C607 C611 1.393 . S
C608 H597 0.950 . S
C608 C606 1.391 . S
C608 C609 1.400 . S
C609 C603 1.491 1_456 S
C609 C608 1.400 . S
C609 C610 1.398 . S
C610 H598 0.950 1_455 S
C610 C609 1.398 . S
C610 C611 1.391 . S
C611 H599 0.950 . S
C611 C607 1.393 . S
C611 C610 1.391 . S
H612 C620 0.950 . S
H613 C625 0.950 . S
H614 C622 0.950 1_565 S
H615 C624 0.950 . S
H616 C626 0.950 . S
H617 C628 0.950 1_545 S
H618 C630 0.950 . S
H619 C631 0.950 . S
C620 H612 0.950 . S
C620 C621 1.386 . S
C620 C622 1.391 . S
C621 C620 1.386 . S
C621 C625 1.393 . S
C622 H614 0.950 1_545 S
C622 C620 1.391 . S
C622 C623 1.400 . S
C623 C622 1.400 . S
C623 C624 1.398 . S
C623 C629 1.491 1_545 S
C624 H615 0.950 . S
C624 C623 1.398 . S
C624 C625 1.391 . S
C625 H613 0.950 . S
C625 C621 1.393 . S
C625 C624 1.391 . S
C626 H616 0.950 . S
C626 C627 1.386 . S
C626 C628 1.391 . S
C627 C626 1.386 . S
C627 C631 1.393 . S
C628 H617 0.950 1_565 S
C628 C626 1.391 . S
C628 C629 1.400 . S
C629 C623 1.491 1_565 S
C629 C628 1.400 . S
C629 C630 1.398 . S
C630 H618 0.950 . S
C630 C629 1.398 . S
C630 C631 1.391 . S
C631 H619 0.950 . S
C631 C627 1.393 . S
C631 C630 1.391 . S
H632 C640 0.950 . S
H633 C645 0.950 . S
H634 C642 0.950 . S
H635 C644 0.950 . S
H636 C646 0.950 . S
H637 C648 0.950 . S
H638 C650 0.950 . S
H639 C651 0.950 . S
C640 H632 0.950 . S
C640 C641 1.386 . S
C640 C642 1.391 . S
C641 C640 1.386 . S
C641 C645 1.393 . S
C642 H634 0.950 . S
C642 C640 1.391 . S
C642 C643 1.400 . S
C643 C642 1.400 . S
C643 C644 1.398 . S
C643 C649 1.491 . S
C644 H635 0.950 . S
C644 C643 1.398 . S
C644 C645 1.391 . S
C645 H633 0.950 . S
C645 C641 1.393 . S
C645 C644 1.391 . S
C646 H636 0.950 . S
C646 C647 1.386 . S
C646 C648 1.391 . S
C647 C646 1.386 . S
C647 C651 1.393 . S
C648 H637 0.950 . S
C648 C646 1.391 . S
C648 C649 1.400 . S
C649 C643 1.491 . S
C649 C648 1.400 . S
C649 C650 1.398 . S
C650 H638 0.950 . S
C650 C649 1.398 . S
C650 C651 1.391 . S
C651 H639 0.950 . S
C651 C647 1.393 . S
C651 C650 1.391 . S
H652 C660 0.950 . S
H653 C665 0.950 . S
H654 C662 0.950 . S
H655 C664 0.950 . S
H656 C666 0.950 . S
H657 C668 0.950 . S
H658 C670 0.950 . S
H659 C671 0.950 . S
C660 H652 0.950 . S
C660 C661 1.386 . S
C660 C662 1.391 . S
C661 C660 1.386 . S
C661 C665 1.393 . S
C662 H654 0.950 . S
C662 C660 1.391 . S
C662 C663 1.400 . S
C663 C662 1.400 . S
C663 C664 1.398 . S
C663 C669 1.491 . S
C664 H655 0.950 . S
C664 C663 1.398 . S
C664 C665 1.391 . S
C665 H653 0.950 . S
C665 C661 1.393 . S
C665 C664 1.391 . S
C666 H656 0.950 . S
C666 C667 1.386 . S
C666 C668 1.391 . S
C667 C666 1.386 . S
C667 C671 1.393 . S
C668 H657 0.950 . S
C668 C666 1.391 . S
C668 C669 1.400 . S
C669 C663 1.491 . S
C669 C668 1.400 . S
C669 C670 1.398 . S
C670 H658 0.950 . S
C670 C669 1.398 . S
C670 C671 1.391 . S
C671 H659 0.950 . S
C671 C667 1.393 . S
C671 C670 1.391 . S
H672 C680 0.950 . S
H673 C685 0.950 . S
H674 C682 0.950 . S
H675 C684 0.950 . S
H676 C686 0.950 . S
H677 C688 0.950 . S
H678 C690 0.950 . S
H679 C691 0.950 . S
C680 H672 0.950 . S
C680 C681 1.386 . S
C680 C682 1.391 . S
C681 C680 1.386 . S
C681 C685 1.393 . S
C682 H674 0.950 . S
C682 C680 1.391 . S
C682 C683 1.400 . S
C683 C682 1.400 . S
C683 C684 1.398 . S
C683 C689 1.491 . S
C684 H675 0.950 . S
C684 C683 1.398 . S
C684 C685 1.391 . S
C685 H673 0.950 . S
C685 C681 1.393 . S
C685 C684 1.391 . S
C686 H676 0.950 . S
C686 C687 1.386 . S
C686 C688 1.391 . S
C687 C686 1.386 . S
C687 C691 1.393 . S
C688 H677 0.950 . S
C688 C686 1.391 . S
C688 C689 1.400 . S
C689 C683 1.491 . S
C689 C688 1.400 . S
C689 C690 1.398 . S
C690 H678 0.950 . S
C690 C689 1.398 . S
C690 C691 1.391 . S
C691 H679 0.950 . S
C691 C687 1.393 . S
C691 C690 1.391 . S
H692 C700 0.950 . S
H693 C705 0.950 . S
H694 C702 0.950 . S
H695 C704 0.950 . S
H696 C706 0.950 . S
H697 C708 0.950 . S
H698 C710 0.950 . S
H699 C711 0.950 . S
C700 H692 0.950 . S
C700 C701 1.386 . S
C700 C702 1.391 . S
C701 C700 1.386 . S
C701 C705 1.393 . S
C702 H694 0.950 . S
C702 C700 1.391 . S
C702 C703 1.400 . S
C703 C702 1.400 . S
C703 C704 1.398 . S
C703 C709 1.491 . S
C704 H695 0.950 . S
C704 C703 1.398 . S
C704 C705 1.391 . S
C705 H693 0.950 . S
C705 C701 1.393 . S
C705 C704 1.391 . S
C706 H696 0.950 . S
C706 C707 1.386 . S
C706 C708 1.391 . S
C707 C706 1.386 . S
C707 C711 1.393 . S
C708 H697 0.950 . S
C708 C706 1.391 . S
C708 C709 1.400 . S
C709 C703 1.491 . S
C709 C708 1.400 . S
C709 C710 1.398 . S
C710 H698 0.950 . S
C710 C709 1.398 . S
C710 C711 1.391 . S
C711 H699 0.950 . S
C711 C707 1.393 . S
C711 C710 1.391 . S
H712 C720 0.950 . S
H713 C725 0.950 . S
H714 C722 0.950 . S
H715 C724 0.950 . S
H716 C726 0.950 . S
H717 C728 0.950 . S
H718 C730 0.950 . S
H719 C731 0.950 . S
C720 H712 0.950 . S
C720 C721 1.386 . S
C720 C722 1.391 . S
C721 C720 1.386 . S
C721 C725 1.393 1_455 S
C722 H714 0.950 . S
C722 C720 1.391 . S
C722 C723 1.400 . S
C723 C722 1.400 . S
C723 C724 1.398 1_455 S
C723 C729 1.491 1_445 S
C724 H715 0.950 . S
C724 C723 1.398 1_655 S
C724 C725 1.391 . S
C725 H713 0.950 . S
C725 C721 1.393 1_655 S
C725 C724 1.391 . S
C726 H716 0.950 . S
C726 C727 1.386 . S
C726 C728 1.391 . S
C727 C726 1.386 . S
C727 C731 1.393 1_655 S
C728 H717 0.950 . S
C728 C726 1.391 . S
C728 C729 1.400 . S
C729 C723 1.491 1_665 S
C729 C728 1.400 . S
C729 C730 1.398 1_655 S
C730 H718 0.950 . S
C730 C729 1.398 1_455 S
C730 C731 1.391 . S
C731 H719 0.950 . S
C731 C727 1.393 1_455 S
C731 C730 1.391 . S
H732 C740 0.950 . S
H733 C745 0.950 . S
H734 C742 0.950 . S
H735 C744 0.950 . S
H736 C746 0.950 . S
H737 C748 0.950 . S
H738 C750 0.950 . S
H739 C751 0.950 . S
C740 H732 0.950 . S
C740 C741 1.386 . S
C740 C742 1.391 . S
C741 C740 1.386 . S
C741 C745 1.393 1_565 S
C742 H734 0.950 . S
C742 C740 1.391 . S
C742 C743 1.400 . S
C743 C742 1.400 . S
C743 C744 1.398 1_565 S
C743 C749 1.491 1_465 S
C744 H735 0.950 . S
C744 C743 1.398 1_545 S
C744 C745 1.391 . S
C745 H733 0.950 . S
C745 C741 1.393 1_545 S
C745 C744 1.391 . S
C746 H736 0.950 . S
C746 C747 1.386 . S
C746 C748 1.391 . S
C747 C746 1.386 . S
C747 C751 1.393 1_545 S
C748 H737 0.950 . S
C748 C746 1.391 . S
C748 C749 1.400 . S
C749 C743 1.491 1_645 S
C749 C748 1.400 . S
C749 C750 1.398 1_545 S
C750 H738 0.950 . S
C750 C749 1.398 1_565 S
C750 C751 1.391 . S
C751 H739 0.950 . S
C751 C747 1.393 1_565 S
C751 C750 1.391 . S
H752 C760 0.950 . S
H753 C765 0.950 . S
H754 C762 0.950 . S
H755 C764 0.951 . S
H756 C766 0.950 . S
H757 C768 0.950 . S
H758 C770 0.952 . S
H759 C771 0.950 . S
C760 H752 0.950 . S
C760 C761 1.386 . S
C760 C762 1.391 . S
C761 C760 1.386 . S
C761 C765 1.393 . S
C762 H754 0.950 . S
C762 C760 1.391 . S
C762 C763 1.400 . S
C763 C762 1.400 . S
C763 C764 1.398 . S
C763 C769 1.491 1_645 S
C764 H755 0.951 . S
C764 C763 1.398 . S
C764 C765 1.391 . S
C765 H753 0.950 . S
C765 C761 1.393 . S
C765 C764 1.391 . S
C766 H756 0.950 . S
C766 C767 1.386 . S
C766 C768 1.391 . S
C767 C766 1.386 . S
C767 C771 1.393 . S
C768 H757 0.950 . S
C768 C766 1.391 . S
C768 C769 1.400 . S
C769 C763 1.491 1_465 S
C769 C768 1.400 . S
C769 C770 1.398 . S
C770 H758 0.952 . S
C770 C769 1.398 . S
C770 C771 1.391 . S
C771 H759 0.950 . S
C771 C767 1.393 . S
C771 C770 1.391 . S
H772 C780 0.950 . S
H773 C785 0.950 . S
H774 C782 0.950 . S
H775 C784 0.950 . S
H776 C786 0.950 . S
H777 C788 0.950 . S
H778 C790 0.950 . S
H779 C791 0.950 . S
C780 H772 0.950 . S
C780 C781 1.386 1_545 S
C780 C782 1.391 . S
C781 C780 1.386 1_565 S
C781 C785 1.393 . S
C782 H774 0.950 . S
C782 C780 1.391 . S
C782 C783 1.400 1_545 S
C783 C782 1.400 1_565 S
C783 C784 1.398 . S
C783 C789 1.491 1_665 S
C784 H775 0.950 . S
C784 C783 1.398 . S
C784 C785 1.391 . S
C785 H773 0.950 . S
C785 C781 1.393 . S
C785 C784 1.391 . S
C786 H776 0.950 . S
C786 C787 1.386 1_565 S
C786 C788 1.391 . S
C787 C786 1.386 1_545 S
C787 C791 1.393 . S
C788 H777 0.950 . S
C788 C786 1.391 . S
C788 C789 1.400 1_565 S
C789 C783 1.491 1_445 S
C789 C788 1.400 1_545 S
C789 C790 1.398 . S
C790 H778 0.950 . S
C790 C789 1.398 . S
C790 C791 1.391 . S
C791 H779 0.950 . S
C791 C787 1.393 . S
C791 C790 1.391 . S
C481 C5 1.382 . S
C487 C123 1.377 . S
C501 C182 1.377 . S
C507 C64 1.382 . S
C521 C359 1.373 . S
C527 C241 1.374 . S
C541 C300 1.381 . S
C547 C418 1.373 . S
C561 C357 1.524 . S
C567 C3 1.535 . S
C581 C62 1.517 . S
C587 C416 1.520 . S
C601 C121 1.518 . S
C607 C239 1.519 . S
C621 C298 1.522 . S
C627 C180 1.517 . S
C641 C33 1.343 . S
C647 C328 1.330 . S
C661 C387 1.346 . S
C667 C92 1.341 . S
C681 C446 1.349 . S
C687 C151 1.333 . S
C701 C210 1.335 . S
C707 C269 1.335 . S
C721 C52 0.960 . S
C727 C170 0.947 . S
C741 C229 0.962 . S
C747 C111 0.952 . S
C761 C406 0.959 . S
C767 C288 0.961 . S
C781 C465 0.946 . S
C787 C347 0.960 . S
