# Generated by pormake.
# Topology ull, (4)-cn, num edge types: 1
# Building blocks:
#     Node 0, Type 0, BuildingBlock: QUQFOY_clean_sbu_1, # of connection points: 4
#     Node 1, Type 0, BuildingBlock: QUQFOY_clean_sbu_1, # of connection points: 4
#     Node 2, Type 0, BuildingBlock: QUQFOY_clean_sbu_1, # of connection points: 4
#     Node 3, Type 0, BuildingBlock: QUQFOY_clean_sbu_1, # of connection points: 4
#     Node 4, Type 0, BuildingBlock: QUQFOY_clean_sbu_1, # of connection points: 4
#     Node 5, Type 0, BuildingBlock: QUQFOY_clean_sbu_1, # of connection points: 4
#     Node 6, Type 0, BuildingBlock: QUQFOY_clean_sbu_1, # of connection points: 4
#     Node 7, Type 0, BuildingBlock: QUQFOY_clean_sbu_1, # of connection points: 4
#     Node 8, Type 0, BuildingBlock: QUQFOY_clean_sbu_1, # of connection points: 4
#     Node 9, Type 0, BuildingBlock: QUQFOY_clean_sbu_1, # of connection points: 4
#     Node 10, Type 0, BuildingBlock: QUQFOY_clean_sbu_1, # of connection points: 4
#     Node 11, Type 0, BuildingBlock: QUQFOY_clean_sbu_1, # of connection points: 4
#     Node 12, Type 0, BuildingBlock: QUQFOY_clean_sbu_1, # of connection points: 4
#     Node 13, Type 0, BuildingBlock: QUQFOY_clean_sbu_1, # of connection points: 4
#     Node 14, Type 0, BuildingBlock: QUQFOY_clean_sbu_1, # of connection points: 4
#     Node 15, Type 0, BuildingBlock: QUQFOY_clean_sbu_1, # of connection points: 4
#     Node 16, Type 0, BuildingBlock: QUQFOY_clean_sbu_1, # of connection points: 4
#     Node 17, Type 0, BuildingBlock: QUQFOY_clean_sbu_1, # of connection points: 4
#     Node 18, Type 0, BuildingBlock: QUQFOY_clean_sbu_1, # of connection points: 4
#     Node 19, Type 0, BuildingBlock: QUQFOY_clean_sbu_1, # of connection points: 4
#     Node 20, Type 0, BuildingBlock: QUQFOY_clean_sbu_1, # of connection points: 4
#     Node 21, Type 0, BuildingBlock: QUQFOY_clean_sbu_1, # of connection points: 4
#     Node 22, Type 0, BuildingBlock: QUQFOY_clean_sbu_1, # of connection points: 4
#     Node 23, Type 0, BuildingBlock: QUQFOY_clean_sbu_1, # of connection points: 4
#     Node 24, Type 0, BuildingBlock: QUQFOY_clean_sbu_1, # of connection points: 4
#     Node 25, Type 0, BuildingBlock: QUQFOY_clean_sbu_1, # of connection points: 4
#     Node 26, Type 0, BuildingBlock: QUQFOY_clean_sbu_1, # of connection points: 4
#     Node 27, Type 0, BuildingBlock: QUQFOY_clean_sbu_1, # of connection points: 4
#     Node 28, Type 0, BuildingBlock: QUQFOY_clean_sbu_1, # of connection points: 4
#     Node 29, Type 0, BuildingBlock: QUQFOY_clean_sbu_1, # of connection points: 4
#     Node 30, Type 0, BuildingBlock: QUQFOY_clean_sbu_1, # of connection points: 4
#     Node 31, Type 0, BuildingBlock: QUQFOY_clean_sbu_1, # of connection points: 4
#     Node 32, Type 0, BuildingBlock: QUQFOY_clean_sbu_1, # of connection points: 4
#     Node 33, Type 0, BuildingBlock: QUQFOY_clean_sbu_1, # of connection points: 4
#     Node 34, Type 0, BuildingBlock: QUQFOY_clean_sbu_1, # of connection points: 4
#     Node 35, Type 0, BuildingBlock: QUQFOY_clean_sbu_1, # of connection points: 4
#     Node 36, Type 0, BuildingBlock: QUQFOY_clean_sbu_1, # of connection points: 4
#     Node 37, Type 0, BuildingBlock: QUQFOY_clean_sbu_1, # of connection points: 4
#     Node 38, Type 0, BuildingBlock: QUQFOY_clean_sbu_1, # of connection points: 4
#     Node 39, Type 0, BuildingBlock: QUQFOY_clean_sbu_1, # of connection points: 4
#     Node 40, Type 0, BuildingBlock: QUQFOY_clean_sbu_1, # of connection points: 4
#     Node 41, Type 0, BuildingBlock: QUQFOY_clean_sbu_1, # of connection points: 4
#     Node 42, Type 0, BuildingBlock: QUQFOY_clean_sbu_1, # of connection points: 4
#     Node 43, Type 0, BuildingBlock: QUQFOY_clean_sbu_1, # of connection points: 4
#     Node 44, Type 0, BuildingBlock: QUQFOY_clean_sbu_1, # of connection points: 4
#     Node 45, Type 0, BuildingBlock: QUQFOY_clean_sbu_1, # of connection points: 4
#     Node 46, Type 0, BuildingBlock: QUQFOY_clean_sbu_1, # of connection points: 4
#     Node 47, Type 0, BuildingBlock: QUQFOY_clean_sbu_1, # of connection points: 4
#     Edge 48, Type (0, 0), BuildingBlock: XIVTED_clean_linker_0, # of connection points: 2
#     Edge 49, Type (0, 0), BuildingBlock: XIVTED_clean_linker_0, # of connection points: 2
#     Edge 50, Type (0, 0), BuildingBlock: XIVTED_clean_linker_0, # of connection points: 2
#     Edge 51, Type (0, 0), BuildingBlock: XIVTED_clean_linker_0, # of connection points: 2
#     Edge 52, Type (0, 0), BuildingBlock: XIVTED_clean_linker_0, # of connection points: 2
#     Edge 53, Type (0, 0), BuildingBlock: XIVTED_clean_linker_0, # of connection points: 2
#     Edge 54, Type (0, 0), BuildingBlock: XIVTED_clean_linker_0, # of connection points: 2
#     Edge 55, Type (0, 0), BuildingBlock: XIVTED_clean_linker_0, # of connection points: 2
#     Edge 56, Type (0, 0), BuildingBlock: XIVTED_clean_linker_0, # of connection points: 2
#     Edge 57, Type (0, 0), BuildingBlock: XIVTED_clean_linker_0, # of connection points: 2
#     Edge 58, Type (0, 0), BuildingBlock: XIVTED_clean_linker_0, # of connection points: 2
#     Edge 59, Type (0, 0), BuildingBlock: XIVTED_clean_linker_0, # of connection points: 2
#     Edge 60, Type (0, 0), BuildingBlock: XIVTED_clean_linker_0, # of connection points: 2
#     Edge 61, Type (0, 0), BuildingBlock: XIVTED_clean_linker_0, # of connection points: 2
#     Edge 62, Type (0, 0), BuildingBlock: XIVTED_clean_linker_0, # of connection points: 2
#     Edge 63, Type (0, 0), BuildingBlock: XIVTED_clean_linker_0, # of connection points: 2
#     Edge 64, Type (0, 0), BuildingBlock: XIVTED_clean_linker_0, # of connection points: 2
#     Edge 65, Type (0, 0), BuildingBlock: XIVTED_clean_linker_0, # of connection points: 2
#     Edge 66, Type (0, 0), BuildingBlock: XIVTED_clean_linker_0, # of connection points: 2
#     Edge 67, Type (0, 0), BuildingBlock: XIVTED_clean_linker_0, # of connection points: 2
#     Edge 68, Type (0, 0), BuildingBlock: XIVTED_clean_linker_0, # of connection points: 2
#     Edge 69, Type (0, 0), BuildingBlock: XIVTED_clean_linker_0, # of connection points: 2
#     Edge 70, Type (0, 0), BuildingBlock: XIVTED_clean_linker_0, # of connection points: 2
#     Edge 71, Type (0, 0), BuildingBlock: XIVTED_clean_linker_0, # of connection points: 2
#     Edge 72, Type (0, 0), BuildingBlock: XIVTED_clean_linker_0, # of connection points: 2
#     Edge 73, Type (0, 0), BuildingBlock: XIVTED_clean_linker_0, # of connection points: 2
#     Edge 74, Type (0, 0), BuildingBlock: XIVTED_clean_linker_0, # of connection points: 2
#     Edge 75, Type (0, 0), BuildingBlock: XIVTED_clean_linker_0, # of connection points: 2
#     Edge 76, Type (0, 0), BuildingBlock: XIVTED_clean_linker_0, # of connection points: 2
#     Edge 77, Type (0, 0), BuildingBlock: XIVTED_clean_linker_0, # of connection points: 2
#     Edge 78, Type (0, 0), BuildingBlock: XIVTED_clean_linker_0, # of connection points: 2
#     Edge 79, Type (0, 0), BuildingBlock: XIVTED_clean_linker_0, # of connection points: 2
#     Edge 80, Type (0, 0), BuildingBlock: XIVTED_clean_linker_0, # of connection points: 2
#     Edge 81, Type (0, 0), BuildingBlock: XIVTED_clean_linker_0, # of connection points: 2
#     Edge 82, Type (0, 0), BuildingBlock: XIVTED_clean_linker_0, # of connection points: 2
#     Edge 83, Type (0, 0), BuildingBlock: XIVTED_clean_linker_0, # of connection points: 2
#     Edge 84, Type (0, 0), BuildingBlock: XIVTED_clean_linker_0, # of connection points: 2
#     Edge 85, Type (0, 0), BuildingBlock: XIVTED_clean_linker_0, # of connection points: 2
#     Edge 86, Type (0, 0), BuildingBlock: XIVTED_clean_linker_0, # of connection points: 2
#     Edge 87, Type (0, 0), BuildingBlock: XIVTED_clean_linker_0, # of connection points: 2
#     Edge 88, Type (0, 0), BuildingBlock: XIVTED_clean_linker_0, # of connection points: 2
#     Edge 89, Type (0, 0), BuildingBlock: XIVTED_clean_linker_0, # of connection points: 2
#     Edge 90, Type (0, 0), BuildingBlock: XIVTED_clean_linker_0, # of connection points: 2
#     Edge 91, Type (0, 0), BuildingBlock: XIVTED_clean_linker_0, # of connection points: 2
#     Edge 92, Type (0, 0), BuildingBlock: XIVTED_clean_linker_0, # of connection points: 2
#     Edge 93, Type (0, 0), BuildingBlock: XIVTED_clean_linker_0, # of connection points: 2
#     Edge 94, Type (0, 0), BuildingBlock: XIVTED_clean_linker_0, # of connection points: 2
#     Edge 95, Type (0, 0), BuildingBlock: XIVTED_clean_linker_0, # of connection points: 2
#     Edge 96, Type (0, 0), BuildingBlock: XIVTED_clean_linker_0, # of connection points: 2
#     Edge 97, Type (0, 0), BuildingBlock: XIVTED_clean_linker_0, # of connection points: 2
#     Edge 98, Type (0, 0), BuildingBlock: XIVTED_clean_linker_0, # of connection points: 2
#     Edge 99, Type (0, 0), BuildingBlock: XIVTED_clean_linker_0, # of connection points: 2
#     Edge 100, Type (0, 0), BuildingBlock: XIVTED_clean_linker_0, # of connection points: 2
#     Edge 101, Type (0, 0), BuildingBlock: XIVTED_clean_linker_0, # of connection points: 2
#     Edge 102, Type (0, 0), BuildingBlock: XIVTED_clean_linker_0, # of connection points: 2
#     Edge 103, Type (0, 0), BuildingBlock: XIVTED_clean_linker_0, # of connection points: 2
#     Edge 104, Type (0, 0), BuildingBlock: XIVTED_clean_linker_0, # of connection points: 2
#     Edge 105, Type (0, 0), BuildingBlock: XIVTED_clean_linker_0, # of connection points: 2
#     Edge 106, Type (0, 0), BuildingBlock: XIVTED_clean_linker_0, # of connection points: 2
#     Edge 107, Type (0, 0), BuildingBlock: XIVTED_clean_linker_0, # of connection points: 2
#     Edge 108, Type (0, 0), BuildingBlock: XIVTED_clean_linker_0, # of connection points: 2
#     Edge 109, Type (0, 0), BuildingBlock: XIVTED_clean_linker_0, # of connection points: 2
#     Edge 110, Type (0, 0), BuildingBlock: XIVTED_clean_linker_0, # of connection points: 2
#     Edge 111, Type (0, 0), BuildingBlock: XIVTED_clean_linker_0, # of connection points: 2
#     Edge 112, Type (0, 0), BuildingBlock: XIVTED_clean_linker_0, # of connection points: 2
#     Edge 113, Type (0, 0), BuildingBlock: XIVTED_clean_linker_0, # of connection points: 2
#     Edge 114, Type (0, 0), BuildingBlock: XIVTED_clean_linker_0, # of connection points: 2
#     Edge 115, Type (0, 0), BuildingBlock: XIVTED_clean_linker_0, # of connection points: 2
#     Edge 116, Type (0, 0), BuildingBlock: XIVTED_clean_linker_0, # of connection points: 2
#     Edge 117, Type (0, 0), BuildingBlock: XIVTED_clean_linker_0, # of connection points: 2
#     Edge 118, Type (0, 0), BuildingBlock: XIVTED_clean_linker_0, # of connection points: 2
#     Edge 119, Type (0, 0), BuildingBlock: XIVTED_clean_linker_0, # of connection points: 2
#     Edge 120, Type (0, 0), BuildingBlock: XIVTED_clean_linker_0, # of connection points: 2
#     Edge 121, Type (0, 0), BuildingBlock: XIVTED_clean_linker_0, # of connection points: 2
#     Edge 122, Type (0, 0), BuildingBlock: XIVTED_clean_linker_0, # of connection points: 2
#     Edge 123, Type (0, 0), BuildingBlock: XIVTED_clean_linker_0, # of connection points: 2
#     Edge 124, Type (0, 0), BuildingBlock: XIVTED_clean_linker_0, # of connection points: 2
#     Edge 125, Type (0, 0), BuildingBlock: XIVTED_clean_linker_0, # of connection points: 2
#     Edge 126, Type (0, 0), BuildingBlock: XIVTED_clean_linker_0, # of connection points: 2
#     Edge 127, Type (0, 0), BuildingBlock: XIVTED_clean_linker_0, # of connection points: 2
#     Edge 128, Type (0, 0), BuildingBlock: XIVTED_clean_linker_0, # of connection points: 2
#     Edge 129, Type (0, 0), BuildingBlock: XIVTED_clean_linker_0, # of connection points: 2
#     Edge 130, Type (0, 0), BuildingBlock: XIVTED_clean_linker_0, # of connection points: 2
#     Edge 131, Type (0, 0), BuildingBlock: XIVTED_clean_linker_0, # of connection points: 2
#     Edge 132, Type (0, 0), BuildingBlock: XIVTED_clean_linker_0, # of connection points: 2
#     Edge 133, Type (0, 0), BuildingBlock: XIVTED_clean_linker_0, # of connection points: 2
#     Edge 134, Type (0, 0), BuildingBlock: XIVTED_clean_linker_0, # of connection points: 2
#     Edge 135, Type (0, 0), BuildingBlock: XIVTED_clean_linker_0, # of connection points: 2
#     Edge 136, Type (0, 0), BuildingBlock: XIVTED_clean_linker_0, # of connection points: 2
#     Edge 137, Type (0, 0), BuildingBlock: XIVTED_clean_linker_0, # of connection points: 2
#     Edge 138, Type (0, 0), BuildingBlock: XIVTED_clean_linker_0, # of connection points: 2
#     Edge 139, Type (0, 0), BuildingBlock: XIVTED_clean_linker_0, # of connection points: 2
#     Edge 140, Type (0, 0), BuildingBlock: XIVTED_clean_linker_0, # of connection points: 2
#     Edge 141, Type (0, 0), BuildingBlock: XIVTED_clean_linker_0, # of connection points: 2
#     Edge 142, Type (0, 0), BuildingBlock: XIVTED_clean_linker_0, # of connection points: 2
#     Edge 143, Type (0, 0), BuildingBlock: XIVTED_clean_linker_0, # of connection points: 2
# Relax obj value: 0.008
# Max RMSD: 0.067
# Mean RMSD: 0.067
data_MOF--net-ull--node1-QUQFOY_clean_sbu_1--edge1-XIVTED_clean_linker_0
_symmetry_space_group_name_H-M    P1
_symmetry_Int_Tables_number       1
_symmetry_cell_setting            triclinic
loop_
_symmetry_equiv_pos_as_xyz
'x, y, z'
_cell_length_a     63.443576
_cell_length_b     63.447689
_cell_length_c     63.440299
_cell_angle_alpha  90.003828
_cell_angle_beta   89.99441
_cell_angle_gamma 90.009502
loop_
_atom_site_label
_atom_site_type_symbol
_atom_site_fract_x
_atom_site_fract_y
_atom_site_fract_z
_atom_type_partial_charge
O0 O 1.0031 0.34449 0.21695 0.0
Cd1 Cd 1.00549 0.3705 0.19753 0.0
Cd2 Cd 0.02503 0.34279 0.17209 0.0
O3 O 0.02391 0.32355 0.19849 0.0
O4 O 1.0059 0.39613 0.21594 0.0
O5 O 0.0337 0.38468 0.19815 0.0
C6 C 0.02574 0.39773 0.21163 0.0
C7 C 0.05512 0.3451 0.1506 0.0
C8 C 0.01278 0.32706 0.21482 0.0
C9 C 0.98266 0.36004 0.15809 0.0
O10 O 0.99715 0.34638 0.15589 0.0
O11 O 0.98352 0.37322 0.17321 0.0
O12 O 0.04363 0.32836 0.15118 0.0
O13 O 0.05017 0.36037 0.16312 0.0
O14 O 0.67054 1.00506 0.21776 0.0
Cd15 Cd 0.6443 1.00443 0.19853 0.0
Cd16 Cd 0.67107 0.02519 0.17232 0.0
O17 O 0.69093 0.02536 0.19823 0.0
O18 O 0.62028 1.00163 0.21866 0.0
O19 O 0.62543 0.02989 0.19879 0.0
C20 C 0.61492 0.02059 0.21357 0.0
C21 C 0.66814 0.05511 0.15067 0.0
C22 C 0.6877 0.01505 0.21512 0.0
C23 C 0.65581 0.98145 0.15945 0.0
O24 O 0.6682 0.99692 0.15653 0.0
O25 O 0.64316 0.98146 0.17506 0.0
O26 O 0.68497 0.04377 0.15111 0.0
O27 O 0.65297 0.04996 0.16323 0.0
O28 O 0.00914 0.66926 0.21595 0.0
Cd29 Cd 0.00721 0.64321 0.19654 0.0
Cd30 Cd 0.98691 0.67037 0.17101 0.0
O31 O 0.98786 0.68962 0.1974 0.0
O32 O 0.00741 0.61758 0.21488 0.0
O33 O 0.97928 0.62851 0.19727 0.0
C34 C 0.98758 0.6156 0.21068 0.0
C35 C 0.95674 0.66838 0.14958 0.0
C36 C 0.99906 0.68645 0.21374 0.0
C37 C 0.02954 0.65383 0.15685 0.0
O38 O 0.01473 0.66713 0.1546 0.0
O39 O 0.02911 0.64083 0.17214 0.0
O40 O 0.96828 0.68507 0.15034 0.0
O41 O 0.96174 0.65291 0.16182 0.0
O42 O 0.34224 0.00838 0.21557 0.0
Cd43 Cd 0.36831 0.00708 0.19612 0.0
Cd44 Cd 0.34115 0.98766 0.17011 0.0
O45 O 0.32178 0.98773 0.19642 0.0
O46 O 0.39392 0.00679 0.21452 0.0
O47 O 0.38311 0.97922 0.19596 0.0
C48 C 0.39599 0.98713 0.20965 0.0
C49 C 0.34425 0.95801 0.14812 0.0
C50 C 0.32501 0.99843 0.21308 0.0
C51 C 0.35758 0.03066 0.15723 0.0
O52 O 0.34421 0.01599 0.15457 0.0
O53 O 0.37068 0.02968 0.1724 0.0
O54 O 0.32728 0.96916 0.14874 0.0
O55 O 0.35933 0.96309 0.16082 0.0
O56 O 1.00424 0.66919 0.79642 0.0
Cd57 Cd 1.00591 0.64339 0.81615 0.0
Cd58 Cd 0.02646 0.67064 0.84129 0.0
O59 O 0.02566 0.68965 0.81472 0.0
O60 O 1.00588 0.61753 0.79809 0.0
O61 O 0.03382 0.62873 0.81584 0.0
C62 C 0.02568 0.61568 0.80247 0.0
C63 C 0.05683 0.66781 0.86233 0.0
C64 C 0.01445 0.68633 0.79841 0.0
C65 C 0.98368 0.65471 0.85569 0.0
O66 O 0.99862 0.66789 0.85781 0.0
O67 O 0.98399 0.64153 0.84056 0.0
O68 O 0.04571 0.6848 0.86181 0.0
O69 O 0.05127 0.65253 0.85008 0.0
O70 O 0.3436 1.00516 0.79531 0.0
Cd71 Cd 0.36998 1.00478 0.81438 0.0
Cd72 Cd 0.34281 0.0243 0.84097 0.0
O73 O 0.32276 0.02464 0.8152 0.0
O74 O 0.39396 1.00292 0.79407 0.0
O75 O 0.38837 0.03062 0.81459 0.0
C76 C 0.39901 0.02185 0.79957 0.0
C77 C 0.34604 0.05375 0.8632 0.0
C78 C 0.32619 0.01465 0.79816 0.0
C79 C 0.35887 0.98059 0.8528 0.0
O80 O 0.34612 0.99572 0.85603 0.0
O81 O 0.37163 0.98129 0.83731 0.0
O82 O 0.32921 0.04239 0.86281 0.0
O83 O 0.36097 0.04894 0.85022 0.0
O84 O 0.00664 0.34222 0.79587 0.0
Cd85 Cd 0.00727 0.36831 0.81534 0.0
Cd86 Cd 0.98695 0.34135 0.84146 0.0
O87 O 0.98662 0.32162 0.81546 0.0
O88 O 0.00938 0.39264 0.79552 0.0
O89 O 0.98156 0.38681 0.81582 0.0
C90 C 0.99046 0.39768 0.80105 0.0
C91 C 0.95719 0.34437 0.86329 0.0
C92 C 0.99676 0.32499 0.79851 0.0
C93 C 0.03071 0.35668 0.85408 0.0
O94 O 0.01532 0.34418 0.85705 0.0
O95 O 0.03049 0.36943 0.83857 0.0
O96 O 0.96845 0.32749 0.86276 0.0
O97 O 0.96232 0.35953 0.8507 0.0
O98 O 0.67002 0.01339 0.7975 0.0
Cd99 Cd 0.64273 0.01162 0.81504 0.0
Cd100 Cd 0.66762 0.98879 0.84035 0.0
O101 O 0.68679 0.98767 0.81374 0.0
O102 O 0.61908 0.01323 0.79436 0.0
O103 O 0.62579 0.98493 0.81377 0.0
C104 C 0.61487 0.99386 0.79905 0.0
C105 C 0.66458 0.95918 0.8625 0.0
C106 C 0.68564 1.00094 0.79875 0.0
C107 C 0.65311 0.03258 0.8547 0.0
O108 O 0.66583 0.01717 0.85654 0.0
O109 O 0.63999 0.03298 0.83953 0.0
O110 O 0.68168 0.97006 0.86138 0.0
O111 O 0.64922 0.96451 0.85026 0.0
O112 O 0.21663 1.00301 0.34266 0.0
Cd113 Cd 0.19707 1.00498 0.36858 0.0
Cd114 Cd 0.1717 0.025 0.34119 0.0
O115 O 0.19811 0.024 0.32196 0.0
O116 O 0.21534 1.00474 0.39429 0.0
O117 O 0.19778 0.03289 0.38331 0.0
C118 C 0.21115 0.02457 0.39625 0.0
C119 C 0.15077 0.05545 0.34394 0.0
C120 C 0.21448 0.01291 0.32535 0.0
C121 C 0.15751 0.98245 0.35776 0.0
O122 O 0.15524 0.99717 0.34436 0.0
O123 O 0.17271 0.98304 0.37085 0.0
O124 O 0.15108 0.04416 0.32706 0.0
O125 O 0.16314 0.05001 0.35916 0.0
O126 O 0.0084 0.21786 0.34261 0.0
Cd127 Cd 0.00932 0.19889 0.36908 0.0
Cd128 Cd 0.98853 0.17238 0.34268 0.0
O129 O 0.98782 0.19816 0.32267 0.0
O130 O 0.01187 0.2192 0.39299 0.0
O131 O 0.98387 0.19894 0.38799 0.0
C132 C 0.993 0.21388 0.39843 0.0
C133 C 0.95916 0.15007 0.34609 0.0
C134 C 0.99818 0.21507 0.32561 0.0
C135 C 0.03256 0.16003 0.35754 0.0
O136 O 0.01702 0.15703 0.34525 0.0
O137 O 0.0325 0.17558 0.37024 0.0
O138 O 0.97027 0.1507 0.3291 0.0
O139 O 0.96415 0.1629 0.36109 0.0
O140 O 0.79749 0.01032 0.34316 0.0
Cd141 Cd 0.81671 0.00791 0.3693 0.0
Cd142 Cd 0.84205 0.98747 0.34214 0.0
O143 O 0.81577 0.98883 0.32277 0.0
O144 O 0.79826 0.00795 0.39488 0.0
O145 O 0.81564 0.9798 0.38364 0.0
C146 C 0.80226 0.98807 0.39661 0.0
C147 C 0.86318 0.95711 0.34415 0.0
C148 C 0.79962 1.0003 0.32592 0.0
C149 C 0.85665 0.02984 0.35895 0.0
O150 O 0.85874 0.01509 0.34556 0.0
O151 O 0.84136 0.02951 0.37194 0.0
O152 O 0.86258 0.96867 0.32747 0.0
O153 O 0.85092 0.96218 0.35958 0.0
O154 O 1.00419 0.79518 0.34291 0.0
Cd155 Cd 1.00589 0.81492 0.36874 0.0
Cd156 Cd 0.02525 0.84047 0.34102 0.0
O157 O 0.02487 0.81387 0.32205 0.0
O158 O 1.00622 0.79677 0.39453 0.0
O159 O 0.0339 0.8149 0.3833 0.0
C160 C 0.02597 0.80141 0.39636 0.0
C161 C 0.05496 0.86248 0.34331 0.0
C162 C 0.01405 0.79734 0.32558 0.0
C163 C 0.98247 0.85385 0.35766 0.0
O164 O 0.99703 0.85619 0.3441 0.0
O165 O 0.98349 0.83889 0.37101 0.0
O166 O 0.04362 0.86151 0.32649 0.0
O167 O 0.05005 0.85011 0.35872 0.0
O168 O 0.21692 0.00921 0.6702 0.0
Cd169 Cd 0.19799 0.00924 0.64371 0.0
Cd170 Cd 0.17189 0.98839 0.67027 0.0
O171 O 0.1976 0.98853 0.6904 0.0
O172 O 0.21818 0.01126 0.61963 0.0
O173 O 0.19813 0.98327 0.62554 0.0
C174 C 0.21295 0.9922 0.61476 0.0
C175 C 0.15024 0.95848 0.66714 0.0
C176 C 0.21428 0.99924 0.68737 0.0
C177 C 0.15877 0.03199 0.65478 0.0
O178 O 0.15598 0.01654 0.66725 0.0
O179 O 0.17437 0.03204 0.64214 0.0
O180 O 0.15056 0.9698 0.68399 0.0
O181 O 0.163 0.96358 0.65212 0.0
O182 O 1.00089 0.21562 0.67007 0.0
Cd183 Cd 1.00302 0.19639 0.64389 0.0
Cd184 Cd 0.02354 0.17095 0.67087 0.0
O185 O 0.02232 0.19715 0.69036 0.0
O186 O 1.00327 0.21483 0.61826 0.0
O187 O 0.03114 0.19704 0.62958 0.0
C188 C 0.02311 0.21053 0.61657 0.0
C189 C 0.05406 0.15009 0.66821 0.0
C190 C 0.01094 0.21339 0.68727 0.0
C191 C 0.98098 0.1565 0.65437 0.0
O192 O 0.99586 0.15429 0.66761 0.0
O193 O 0.98127 0.17184 0.64142 0.0
O194 O 0.04267 0.15033 0.68503 0.0
O195 O 0.04869 0.16252 0.65302 0.0
O196 O 0.79655 0.99815 0.67149 0.0
Cd197 Cd 0.81453 1.00161 0.64463 0.0
Cd198 Cd 0.83911 0.02398 0.6701 0.0
O199 O 0.81195 0.02429 0.68851 0.0
O200 O 0.79569 1.00185 0.61932 0.0
O201 O 0.81273 0.03003 0.63109 0.0
C202 C 0.79943 0.02184 0.61799 0.0
C203 C 0.86077 0.05394 0.66706 0.0
C204 C 0.79732 0.01061 0.68717 0.0
C205 C 0.85454 0.98113 0.6551 0.0
O206 O 0.85576 0.99594 0.66857 0.0
O207 O 0.83985 0.98122 0.64145 0.0
O208 O 0.85953 0.04331 0.68431 0.0
O209 O 0.84883 0.04821 0.6516 0.0
O210 O 0.01052 0.79572 0.67017 0.0
Cd211 Cd 0.00876 0.81501 0.64399 0.0
Cd212 Cd 0.98841 0.84064 0.67104 0.0
O213 O 0.98911 0.81433 0.69037 0.0
O214 O 0.00845 0.79657 0.61838 0.0
O215 O 0.98069 0.81461 0.62957 0.0
C216 C 0.98865 0.80103 0.61662 0.0
C217 C 0.95844 0.86221 0.66848 0.0
C218 C 1.00033 0.79798 0.68729 0.0
C219 C 0.03115 0.85464 0.65463 0.0
O220 O 0.0163 0.85686 0.6679 0.0
O221 O 0.03074 0.83939 0.64158 0.0
O222 O 0.96976 0.86159 0.68533 0.0
O223 O 0.96349 0.8497 0.65325 0.0
O224 O 0.34406 0.21699 1.00244 0.0
Cd225 Cd 0.36988 0.19727 1.0045 0.0
Cd226 Cd 0.34247 0.17222 0.02491 0.0
O227 O 0.32355 0.19881 0.02392 0.0
O228 O 0.39578 0.21528 1.0047 0.0
O229 O 0.3842 0.19776 0.03263 0.0
C230 C 0.3974 0.21103 0.02455 0.0
C231 C 0.34439 0.1509 0.05513 0.0
C232 C 0.32689 0.21504 0.01261 0.0
C233 C 0.35881 0.15758 0.98239 0.0
O234 O 0.34545 0.15563 0.99719 0.0
O235 O 0.37203 0.17268 0.98274 0.0
O236 O 0.32763 0.15181 0.04371 0.0
O237 O 0.35996 0.16297 0.05001 0.0
O238 O 0.34314 0.79578 0.00913 0.0
Cd239 Cd 0.36911 0.81523 0.00662 0.0
Cd240 Cd 0.34181 0.84016 0.98596 0.0
O241 O 0.32261 0.81375 0.98751 0.0
O242 O 0.39491 0.79705 1.00644 0.0
O243 O 0.38329 0.81441 0.97843 0.0
C244 C 0.39646 0.80115 0.98655 0.0
C245 C 0.34396 0.86101 0.95541 0.0
C246 C 0.32588 0.79771 0.99911 0.0
C247 C 0.35829 0.85517 0.02831 0.0
O248 O 0.34496 0.85706 0.01348 0.0
O249 O 0.37143 0.84 0.02811 0.0
O250 O 0.32718 0.86044 0.96684 0.0
O251 O 0.3594 0.84887 0.96072 0.0
O252 O 0.21675 0.34258 0.0093 0.0
Cd253 Cd 0.1972 0.36856 0.0079 0.0
Cd254 Cd 0.17163 0.34155 0.98743 0.0
O255 O 0.19805 0.32236 0.98799 0.0
O256 O 0.21545 0.39429 0.00796 0.0
O257 O 0.19742 0.3834 0.98006 0.0
C258 C 0.21093 0.39632 0.9882 0.0
C259 C 0.15026 0.34413 0.95726 0.0
C260 C 0.2145 0.32549 0.99905 0.0
C261 C 0.15768 0.3575 0.03037 0.0
O262 O 0.15534 0.34441 0.01539 0.0
O263 O 0.17295 0.37054 0.03002 0.0
O264 O 0.15088 0.32726 0.96855 0.0
O265 O 0.16259 0.35945 0.96254 0.0
O266 O 0.67003 0.21779 0.00935 0.0
Cd267 Cd 0.64344 0.19897 0.0093 0.0
Cd268 Cd 0.67039 0.17241 0.98938 0.0
O269 O 0.69066 0.19799 0.98955 0.0
O270 O 0.61947 0.21935 0.01088 0.0
O271 O 0.62545 0.19894 0.98318 0.0
C272 C 0.61469 0.21391 0.99186 0.0
C273 C 0.66734 0.15054 0.95967 0.0
C274 C 0.68743 0.21489 0.99983 0.0
C275 C 0.6539 0.15998 0.03281 0.0
O276 O 0.66666 0.15691 0.01766 0.0
O277 O 0.64137 0.17567 0.03241 0.0
O278 O 0.68405 0.15069 0.9712 0.0
O279 O 0.65247 0.16359 0.96444 0.0
O280 O 0.79525 0.67049 0.00763 0.0
Cd281 Cd 0.8148 0.64445 1.0064 0.0
Cd282 Cd 0.84078 0.67171 0.98695 0.0
O283 O 0.81443 0.691 0.98705 0.0
O284 O 0.79653 0.61873 1.0064 0.0
O285 O 0.81486 0.62938 0.97863 0.0
C286 C 0.80132 0.61648 0.98674 0.0
C287 C 0.86283 0.66874 0.95734 0.0
C288 C 0.79774 0.68774 0.99771 0.0
C289 C 0.85376 0.65535 0.02994 0.0
O290 O 0.85638 0.66871 0.01525 0.0
O291 O 0.8386 0.64223 0.02899 0.0
O292 O 0.8621 0.6857 0.96849 0.0
O293 O 0.85019 0.6536 0.96237 0.0
O294 O 0.66855 0.79673 1.00282 0.0
Cd295 Cd 0.64278 0.81652 1.00495 0.0
Cd296 Cd 0.67052 0.84165 0.02493 0.0
O297 O 0.68953 0.81509 0.02368 0.0
O298 O 0.61685 0.79856 1.00504 0.0
O299 O 0.62831 0.81609 0.03301 0.0
C300 C 0.6151 0.80287 0.02487 0.0
C301 C 0.66824 0.86263 0.05537 0.0
C302 C 0.68594 0.79874 0.0126 0.0
C303 C 0.65368 0.85617 0.98256 0.0
O304 O 0.66718 0.85825 0.99722 0.0
O305 O 0.64054 0.841 0.9831 0.0
O306 O 0.68502 0.86216 0.04393 0.0
O307 O 0.65289 0.85035 0.05012 0.0
O308 O 0.21805 0.66856 1.0057 0.0
Cd309 Cd 0.19885 0.64228 1.00503 0.0
Cd310 Cd 0.17258 0.6692 0.02542 0.0
O311 O 0.19854 0.68899 0.02599 0.0
O312 O 0.21903 0.61826 1.0026 0.0
O313 O 0.19889 0.62357 0.03063 0.0
C314 C 0.21379 0.61303 0.02155 0.0
C315 C 0.15023 0.66607 0.05479 0.0
C316 C 0.21543 0.68572 0.0157 0.0
C317 C 0.16021 0.65398 0.98153 0.0
O318 O 0.1573 0.6665 0.99691 0.0
O319 O 0.1756 0.64109 0.98181 0.0
O320 O 0.15097 0.683 0.04361 0.0
O321 O 0.16298 0.65098 0.04989 0.0
O322 O 0.79549 0.34423 1.00557 0.0
Cd323 Cd 0.8145 0.37065 1.00544 0.0
Cd324 Cd 0.84089 0.34351 0.02545 0.0
O325 O 0.81505 0.32354 0.02553 0.0
O326 O 0.79416 0.39454 1.00309 0.0
O327 O 0.81416 0.38914 0.03121 0.0
C328 C 0.79927 0.39968 0.0221 0.0
C329 C 0.86309 0.34619 0.05499 0.0
C330 C 0.79818 0.32689 0.01524 0.0
C331 C 0.85332 0.35964 0.9819 0.0
O332 O 0.8563 0.34687 0.99706 0.0
O333 O 0.83781 0.37237 0.98234 0.0
O334 O 0.86246 0.32947 0.0435 0.0
O335 O 0.85033 0.36134 0.05029 0.0
O336 O 0.50596 0.84328 0.718 0.0
Cd337 Cd 0.50555 0.86967 0.69891 0.0
Cd338 Cd 0.52608 0.84295 0.67262 0.0
O339 O 0.52622 0.82293 0.6984 0.0
O340 O 0.50324 0.8937 0.71907 0.0
O341 O 0.53128 0.8882 0.69899 0.0
C342 C 0.52221 0.89885 0.71381 0.0
C343 C 0.55576 0.84592 0.65067 0.0
C344 C 0.51587 0.82609 0.71527 0.0
C345 C 0.48246 0.85859 0.65983 0.0
O346 O 0.49783 0.84606 0.65692 0.0
O347 O 0.48256 0.87118 0.67547 0.0
O348 O 0.54441 0.82909 0.65117 0.0
O349 O 0.55084 0.861 0.66342 0.0
O350 O 0.16993 0.50234 0.71732 0.0
Cd351 Cd 0.14393 0.50381 0.69781 0.0
Cd352 Cd 0.1709 0.52418 0.67219 0.0
O353 O 0.19006 0.52372 0.69862 0.0
O354 O 0.11825 0.50363 0.71608 0.0
O355 O 0.12908 0.53164 0.6982 0.0
C356 C 0.11619 0.5234 0.71168 0.0
C357 C 0.16858 0.55422 0.65063 0.0
C358 C 0.18698 0.51264 0.71506 0.0
C359 C 0.15489 0.48127 0.65835 0.0
O360 O 0.16806 0.49619 0.65601 0.0
O361 O 0.14182 0.48171 0.67358 0.0
O362 O 0.1854 0.54287 0.65144 0.0
O363 O 0.15315 0.54908 0.66286 0.0
O364 O 0.50807 0.17066 0.71644 0.0
Cd365 Cd 0.50857 0.14419 0.69752 0.0
Cd366 Cd 0.48835 0.17089 0.67097 0.0
O367 O 0.48793 0.19099 0.69669 0.0
O368 O 0.5106 0.12024 0.71785 0.0
O369 O 0.48282 0.12569 0.69739 0.0
C370 C 0.49168 0.11511 0.7124 0.0
C371 C 0.45891 0.16764 0.64873 0.0
C372 C 0.49822 0.18787 0.71361 0.0
C373 C 0.53223 0.15539 0.65886 0.0
O374 O 0.51687 0.16787 0.65573 0.0
O375 O 0.5319 0.1427 0.67442 0.0
O376 O 0.47021 0.18451 0.6492 0.0
O377 O 0.46376 0.15268 0.66165 0.0
O378 O 0.84335 0.51195 0.71655 0.0
Cd379 Cd 0.87054 0.5101 0.69889 0.0
Cd380 Cd 0.84542 0.48776 0.67341 0.0
O381 O 0.82613 0.48676 0.69994 0.0
O382 O 0.8943 0.51138 0.71948 0.0
O383 O 0.88731 0.48331 0.69983 0.0
C384 C 0.89837 0.49204 0.71457 0.0
C385 C 0.84855 0.45791 0.65157 0.0
C386 C 0.82751 0.4998 0.71512 0.0
C387 C 0.86028 0.53152 0.6594 0.0
O388 O 0.84746 0.51621 0.65731 0.0
O389 O 0.87334 0.53166 0.67461 0.0
O390 O 0.8315 0.46891 0.65238 0.0
O391 O 0.86383 0.46334 0.66387 0.0
O392 O 0.50672 0.16946 0.29608 0.0
Cd393 Cd 0.50558 0.14306 0.31509 0.0
Cd394 Cd 0.52533 0.16998 0.34202 0.0
O395 O 0.52626 0.18999 0.31624 0.0
O396 O 0.50288 0.11937 0.29457 0.0
O397 O 0.53082 0.12386 0.31502 0.0
C398 C 0.52166 0.11369 0.29991 0.0
C399 C 0.55452 0.16661 0.36457 0.0
C400 C 0.51649 0.18669 0.29905 0.0
C401 C 0.48131 0.15443 0.35343 0.0
O402 O 0.49656 0.16698 0.35683 0.0
O403 O 0.48195 0.14174 0.33788 0.0
O404 O 0.54327 0.1835 0.36402 0.0
O405 O 0.54974 0.15167 0.35159 0.0
O406 O 0.84289 0.50189 0.29689 0.0
Cd407 Cd 0.86902 0.50428 0.31614 0.0
Cd408 Cd 0.8418 0.52462 0.34142 0.0
O409 O 0.82243 0.52337 0.31512 0.0
O410 O 0.89461 0.50458 0.29769 0.0
O411 O 0.88315 0.53248 0.31534 0.0
C412 C 0.89619 0.52445 0.30188 0.0
C413 C 0.84438 0.55495 0.36255 0.0
C414 C 0.82565 0.51191 0.29896 0.0
C415 C 0.85866 0.48228 0.35602 0.0
O416 O 0.84519 0.49697 0.35805 0.0
O417 O 0.87171 0.48268 0.34077 0.0
O418 O 0.82754 0.5436 0.3621 0.0
O419 O 0.8596 0.54971 0.35009 0.0
O420 O 0.51231 0.84313 0.29695 0.0
Cd421 Cd 0.50869 0.86979 0.31515 0.0
Cd422 Cd 0.48681 0.8439 0.33965 0.0
O423 O 0.48638 0.82576 0.31229 0.0
O424 O 0.5087 0.89508 0.29634 0.0
O425 O 0.48033 0.88342 0.31314 0.0
C426 C 0.48869 0.89646 0.29988 0.0
C427 C 0.4568 0.84684 0.36127 0.0
C428 C 0.49995 0.82737 0.29758 0.0
C429 C 0.52961 0.8592 0.3549 0.0
O430 O 0.515 0.8455 0.35613 0.0
O431 O 0.52915 0.873 0.34036 0.0
O432 O 0.46747 0.82961 0.36003 0.0
O433 O 0.46257 0.86235 0.34942 0.0
O434 O 0.17056 0.51087 0.29838 0.0
Cd435 Cd 0.14428 0.50879 0.31747 0.0
Cd436 Cd 0.17129 0.4887 0.34314 0.0
O437 O 0.19088 0.48961 0.31699 0.0
O438 O 0.11885 0.50903 0.29881 0.0
O439 O 0.12957 0.48085 0.31645 0.0
C440 C 0.11681 0.4892 0.30293 0.0
C441 C 0.16826 0.45848 0.36436 0.0
C442 C 0.1878 0.5009 0.30069 0.0
C443 C 0.15473 0.53134 0.35707 0.0
O444 O 0.16809 0.5166 0.35942 0.0
O445 O 0.14169 0.53073 0.34182 0.0
O446 O 0.18518 0.46972 0.36407 0.0
O447 O 0.15319 0.46381 0.35176 0.0
O448 O 0.71609 0.49796 0.84196 0.0
Cd449 Cd 0.69807 0.50187 0.86874 0.0
Cd450 Cd 0.67372 0.52425 0.84304 0.0
O451 O 0.701 0.52419 0.82482 0.0
O452 O 0.71683 0.50276 0.8941 0.0
O453 O 0.69978 0.5306 0.88159 0.0
C454 C 0.71307 0.52277 0.89492 0.0
C455 C 0.65217 0.55436 0.84529 0.0
C456 C 0.71549 0.51037 0.82624 0.0
C457 C 0.65789 0.48167 0.85847 0.0
O458 O 0.65684 0.49635 0.84486 0.0
O459 O 0.67257 0.48173 0.87212 0.0
O460 O 0.6536 0.54344 0.82823 0.0
O461 O 0.66384 0.54882 0.86101 0.0
O462 O 0.51104 0.71547 0.84252 0.0
Cd463 Cd 0.50897 0.69617 0.86866 0.0
Cd464 Cd 0.48953 0.67043 0.84121 0.0
O465 O 0.49026 0.69672 0.82181 0.0
O466 O 0.50893 0.71473 0.89418 0.0
O467 O 0.48095 0.69689 0.88323 0.0
C468 C 0.48911 0.71044 0.89609 0.0
C469 C 0.4595 0.64895 0.8442 0.0
C470 C 0.50127 0.71317 0.82516 0.0
C471 C 0.5321 0.65687 0.8582 0.0
O472 O 0.5176 0.65446 0.84459 0.0
O473 O 0.53112 0.672 0.87135 0.0
O474 O 0.47075 0.64932 0.82729 0.0
O475 O 0.46469 0.66162 0.85926 0.0
O476 O 0.29572 0.51048 0.84438 0.0
Cd477 Cd 0.31544 0.5087 0.8702 0.0
Cd478 Cd 0.34032 0.48761 0.84318 0.0
O479 O 0.31374 0.48854 0.82422 0.0
O480 O 0.29747 0.50888 0.89613 0.0
O481 O 0.31484 0.48075 0.8848 0.0
C482 C 0.30161 0.48902 0.89792 0.0
C483 C 0.36113 0.45708 0.84585 0.0
C484 C 0.29759 0.50002 0.82738 0.0
C485 C 0.3553 0.53031 0.85873 0.0
O486 O 0.35718 0.51525 0.84565 0.0
O487 O 0.34018 0.53031 0.87193 0.0
O488 O 0.36053 0.46819 0.82886 0.0
O489 O 0.34908 0.46274 0.86124 0.0
O490 O 0.50399 0.29577 0.84314 0.0
Cd491 Cd 0.50394 0.31491 0.86949 0.0
Cd492 Cd 0.52379 0.3411 0.84221 0.0
O493 O 0.52389 0.31525 0.82231 0.0
O494 O 0.50228 0.29479 0.89366 0.0
O495 O 0.52999 0.31514 0.88756 0.0
C496 C 0.52129 0.30025 0.89843 0.0
C497 C 0.5533 0.36323 0.84526 0.0
C498 C 0.51359 0.2984 0.82575 0.0
C499 C 0.48024 0.35354 0.85825 0.0
O500 O 0.49539 0.35643 0.84546 0.0
O501 O 0.48073 0.33815 0.87115 0.0
O502 O 0.54195 0.36276 0.82842 0.0
O503 O 0.54848 0.35034 0.86026 0.0
O504 O 0.71642 0.5086 0.17119 0.0
Cd505 Cd 0.69773 0.50956 0.14454 0.0
Cd506 Cd 0.67033 0.49012 0.17131 0.0
O507 O 0.69592 0.48924 0.19155 0.0
O508 O 0.71849 0.51189 0.12101 0.0
O509 O 0.69786 0.4841 0.12561 0.0
C510 C 0.71309 0.49308 0.11546 0.0
C511 C 0.64763 0.461 0.16837 0.0
C512 C 0.71319 0.49894 0.18844 0.0
C513 C 0.65927 0.53402 0.1552 0.0
O514 O 0.65568 0.51891 0.16786 0.0
O515 O 0.67497 0.53322 0.1427 0.0
O516 O 0.64818 0.47255 0.18506 0.0
O517 O 0.66066 0.46545 0.15337 0.0
O518 O 0.49863 0.71642 0.17012 0.0
Cd519 Cd 0.50255 0.69819 0.14351 0.0
Cd520 Cd 0.52537 0.67423 0.16927 0.0
O521 O 0.52503 0.70165 0.18727 0.0
O522 O 0.50305 0.71677 0.11801 0.0
O523 O 0.53116 0.7001 0.13043 0.0
C524 C 0.5231 0.71323 0.11708 0.0
C525 C 0.5559 0.65324 0.16726 0.0
C526 C 0.51113 0.71605 0.18578 0.0
C527 C 0.48288 0.65778 0.1541 0.0
O528 O 0.4977 0.6569 0.16759 0.0
O529 O 0.48265 0.67246 0.14045 0.0
O530 O 0.54489 0.65458 0.18427 0.0
O531 O 0.55014 0.66463 0.15142 0.0
O532 O 0.296 0.50565 0.17174 0.0
Cd533 Cd 0.31498 0.50449 0.1453 0.0
Cd534 Cd 0.34199 0.52397 0.17245 0.0
O535 O 0.3162 0.52498 0.19243 0.0
O536 O 0.29439 0.50178 0.12165 0.0
O537 O 0.31489 0.5297 0.12603 0.0
C538 C 0.29976 0.52054 0.11589 0.0
C539 C 0.36465 0.55302 0.16881 0.0
C540 C 0.29898 0.51529 0.18905 0.0
C541 C 0.35319 0.47999 0.15671 0.0
O542 O 0.35659 0.49515 0.16938 0.0
O543 O 0.33772 0.48079 0.14394 0.0
O544 O 0.36416 0.54187 0.18578 0.0
O545 O 0.35152 0.54824 0.15399 0.0
O546 O 0.51094 0.29641 0.17086 0.0
Cd547 Cd 0.50807 0.31564 0.14475 0.0
Cd548 Cd 0.4877 0.34082 0.17211 0.0
O549 O 0.48967 0.31463 0.19154 0.0
O550 O 0.50783 0.29725 0.11911 0.0
O551 O 0.4798 0.31456 0.13076 0.0
C552 C 0.48792 0.30126 0.11761 0.0
C553 C 0.45691 0.36135 0.17036 0.0
C554 C 0.50119 0.29853 0.18826 0.0
C555 C 0.52968 0.35589 0.15476 0.0
O556 O 0.51504 0.35792 0.16828 0.0
O557 O 0.52941 0.34048 0.14189 0.0
O558 O 0.46868 0.36106 0.18691 0.0
O559 O 0.46207 0.34914 0.15491 0.0
O560 O 0.8434 0.71651 0.50356 0.0
Cd561 Cd 0.86921 0.69676 0.50528 0.0
Cd562 Cd 0.8416 0.67155 0.52536 0.0
O563 O 0.82274 0.6982 0.52478 0.0
O564 O 0.89506 0.71485 0.50507 0.0
O565 O 0.88404 0.69724 0.53317 0.0
C566 C 0.89705 0.71057 0.52488 0.0
C567 C 0.84405 0.6499 0.5553 0.0
C568 C 0.82619 0.71454 0.51366 0.0
C569 C 0.85773 0.65751 0.48258 0.0
O570 O 0.84437 0.65544 0.49735 0.0
O571 O 0.87113 0.67245 0.48318 0.0
O572 O 0.82714 0.65078 0.54409 0.0
O573 O 0.85944 0.66219 0.55014 0.0
O574 O 0.8443 0.29525 0.50922 0.0
Cd575 Cd 0.87086 0.31413 0.50982 0.0
Cd576 Cd 0.84437 0.3408 0.48927 0.0
O577 O 0.82423 0.3151 0.48891 0.0
O578 O 0.89475 0.29375 0.51198 0.0
O579 O 0.88937 0.31403 0.48407 0.0
C580 C 0.8999 0.29906 0.49303 0.0
C581 C 0.84734 0.36293 0.45972 0.0
C582 C 0.8272 0.29815 0.4992 0.0
C583 C 0.86 0.35324 0.53304 0.0
O584 O 0.84754 0.35629 0.51764 0.0
O585 O 0.8725 0.33752 0.53291 0.0
O586 O 0.83057 0.36244 0.47114 0.0
O587 O 0.86239 0.35008 0.46451 0.0
O588 O 0.7165 0.84241 0.50876 0.0
Cd589 Cd 0.6971 0.8685 0.50708 0.0
Cd590 Cd 0.67134 0.84117 0.48727 0.0
O591 O 0.69777 0.822 0.48767 0.0
O592 O 0.71555 0.89408 0.50685 0.0
O593 O 0.69742 0.88309 0.47907 0.0
C594 C 0.71103 0.89598 0.48709 0.0
C595 C 0.64926 0.84348 0.45764 0.0
C596 C 0.71423 0.82522 0.49869 0.0
C597 C 0.65787 0.85777 0.53008 0.0
O598 O 0.65554 0.84435 0.51539 0.0
O599 O 0.673 0.87095 0.52933 0.0
O600 O 0.6502 0.82667 0.46899 0.0
O601 O 0.66175 0.85882 0.46245 0.0
O602 O 0.17044 0.71747 0.51167 0.0
Cd603 Cd 0.14453 0.69789 0.50938 0.0
Cd604 Cd 0.17221 0.67264 0.48972 0.0
O605 O 0.19127 0.69918 0.49061 0.0
O606 O 0.11878 0.7161 0.50925 0.0
O607 O 0.13018 0.69856 0.48126 0.0
C608 C 0.11709 0.71189 0.4894 0.0
C609 C 0.16983 0.65109 0.45969 0.0
C610 C 0.18778 0.71546 0.5018 0.0
C611 C 0.15534 0.65852 0.53214 0.0
O612 O 0.16902 0.65645 0.51765 0.0
O613 O 0.14201 0.6735 0.53129 0.0
O614 O 0.18668 0.65187 0.47101 0.0
O615 O 0.15448 0.66344 0.46479 0.0
O616 O 0.29603 0.1698 0.50931 0.0
Cd617 Cd 0.31565 0.14392 0.50734 0.0
Cd618 Cd 0.34082 0.17112 0.48668 0.0
O619 O 0.31431 0.19018 0.4878 0.0
O620 O 0.29756 0.11809 0.50712 0.0
O621 O 0.31524 0.12959 0.47925 0.0
C622 C 0.3019 0.11644 0.48729 0.0
C623 C 0.36186 0.169 0.45625 0.0
C624 C 0.29806 0.18694 0.49912 0.0
C625 C 0.35548 0.15481 0.52924 0.0
O626 O 0.35754 0.16804 0.51435 0.0
O627 O 0.34023 0.14176 0.52905 0.0
O628 O 0.3612 0.18577 0.46768 0.0
O629 O 0.34974 0.15353 0.46152 0.0
O630 O 0.16825 0.29496 0.5033 0.0
Cd631 Cd 0.14239 0.31467 0.50497 0.0
Cd632 Cd 0.16957 0.33971 0.52572 0.0
O633 O 0.18853 0.31313 0.525 0.0
O634 O 0.11649 0.29665 0.50477 0.0
O635 O 0.12763 0.31417 0.53288 0.0
C636 C 0.11456 0.3009 0.52459 0.0
C637 C 0.16703 0.36106 0.55587 0.0
C638 C 0.18532 0.2969 0.51365 0.0
C639 C 0.15391 0.35426 0.48293 0.0
O640 O 0.16706 0.35621 0.49791 0.0
O641 O 0.14061 0.33923 0.48314 0.0
O642 O 0.18399 0.36024 0.54473 0.0
O643 O 0.15163 0.34888 0.55053 0.0
O644 O 0.71794 0.16905 0.50347 0.0
Cd645 Cd 0.69815 0.14329 0.50576 0.0
Cd646 Cd 0.67328 0.17093 0.52612 0.0
O647 O 0.69982 0.18996 0.52461 0.0
O648 O 0.71594 0.11721 0.50635 0.0
O649 O 0.69832 0.12925 0.53401 0.0
C650 C 0.71146 0.1158 0.52617 0.0
C651 C 0.65246 0.16862 0.55667 0.0
C652 C 0.71602 0.18642 0.51331 0.0
C653 C 0.6583 0.15422 0.48385 0.0
O654 O 0.65639 0.16763 0.49861 0.0
O655 O 0.67348 0.1411 0.48412 0.0
O656 O 0.65295 0.18544 0.54529 0.0
O657 O 0.66469 0.15327 0.55132 0.0
O658 O 0.29646 0.84385 0.50572 0.0
Cd659 Cd 0.31537 0.87036 0.50503 0.0
Cd660 Cd 0.34212 0.84388 0.52544 0.0
O661 O 0.31648 0.82369 0.52576 0.0
O662 O 0.29503 0.8943 0.50299 0.0
O663 O 0.3155 0.88888 0.53077 0.0
C664 C 0.30048 0.89944 0.52191 0.0
C665 C 0.36401 0.84688 0.55519 0.0
C666 C 0.29945 0.8267 0.51562 0.0
C667 C 0.35436 0.85943 0.48159 0.0
O668 O 0.35759 0.84707 0.49703 0.0
O669 O 0.33859 0.87186 0.48177 0.0
O670 O 0.36371 0.83014 0.5437 0.0
O671 O 0.35118 0.8619 0.55028 0.0
H672 H 0.08088 0.50177 0.2824 0.0
H673 H 0.06825 0.39539 0.21794 0.0
H674 H 0.11884 0.44688 0.29539 0.0
H675 H 0.014 0.43362 0.23274 0.0
H676 H 0.08976 0.41776 0.24094 0.0
H677 H 0.05828 0.48015 0.25952 0.0
C678 C 0.08434 0.48515 0.28059 0.0
C679 C 0.10169 0.47607 0.29091 0.0
C680 C 0.07317 0.4213 0.23903 0.0
C681 C 0.07637 0.45154 0.26432 0.0
C682 C 0.06093 0.40869 0.22576 0.0
C683 C 0.03929 0.41266 0.22341 0.0
C684 C 0.06383 0.43828 0.2497 0.0
C685 C 0.03061 0.42999 0.23413 0.0
C686 C 0.07148 0.47287 0.26753 0.0
C687 C 0.10552 0.45448 0.28791 0.0
N688 N 0.04293 0.44225 0.24674 0.0
N689 N 0.09314 0.44301 0.27468 0.0
H690 H 0.60236 0.01293 0.25394 0.0
H691 H 0.51447 0.10176 0.25928 0.0
H692 H 0.59087 0.05444 0.20131 0.0
H693 H 0.55507 0.08909 0.31234 0.0
H694 H 0.53567 0.07764 0.23777 0.0
H695 H 0.57819 0.03411 0.27543 0.0
C696 C 0.59448 0.02629 0.24679 0.0
C697 C 0.59861 0.03196 0.22579 0.0
C698 C 0.53977 0.08003 0.25417 0.0
C699 C 0.57086 0.05599 0.25024 0.0
C700 C 0.52763 0.09364 0.26651 0.0
C701 C 0.53304 0.09742 0.28764 0.0
C702 C 0.55711 0.06972 0.26317 0.0
C703 C 0.5504 0.08664 0.29611 0.0
C704 C 0.58085 0.03841 0.25912 0.0
C705 C 0.58815 0.04956 0.21744 0.0
N706 N 0.56178 0.07316 0.28386 0.0
N707 N 0.57464 0.06092 0.22966 0.0
H708 H 1.00009 0.57951 0.23092 0.0
H709 H 0.89385 0.56694 0.29553 0.0
H710 H 0.94525 0.6176 0.21812 0.0
H711 H 0.93199 0.51264 0.28064 0.0
H712 H 0.91616 0.58841 0.27244 0.0
H713 H 0.97846 0.55683 0.2537 0.0
C714 C 0.98348 0.58298 0.23275 0.0
C715 C 0.97442 0.60039 0.22252 0.0
C716 C 0.91968 0.57181 0.27435 0.0
C717 C 0.94987 0.57499 0.249 0.0
C718 C 0.90711 0.5596 0.28767 0.0
C719 C 0.91108 0.53796 0.29002 0.0
C720 C 0.93663 0.56246 0.26363 0.0
C721 C 0.92837 0.52925 0.27924 0.0
C722 C 0.97119 0.57007 0.24575 0.0
C723 C 0.95283 0.60423 0.22554 0.0
N724 N 0.94059 0.54155 0.26659 0.0
N725 N 0.94136 0.59181 0.23872 0.0
H726 H 0.50076 0.9329 0.27998 0.0
H727 H 0.39475 0.94441 0.21461 0.0
H728 H 0.44664 0.89332 0.29137 0.0
H729 H 0.43152 0.99918 0.23116 0.0
H730 H 0.41755 0.92283 0.2371 0.0
H731 H 0.47895 0.95535 0.25714 0.0
C732 C 0.48428 0.92903 0.2778 0.0
C733 C 0.47545 0.9113 0.28767 0.0
C734 C 0.42068 0.93955 0.23568 0.0
C735 C 0.45074 0.93646 0.26116 0.0
C736 C 0.40782 0.95184 0.2227 0.0
C737 C 0.41125 0.97363 0.22102 0.0
C738 C 0.43735 0.94902 0.24671 0.0
C739 C 0.42831 0.98244 0.23205 0.0
C740 C 0.4719 0.94181 0.26477 0.0
C741 C 0.45403 0.90695 0.28422 0.0
N742 N 0.44081 0.97009 0.24438 0.0
N743 N 0.44247 0.91928 0.27105 0.0
H744 H 0.08012 0.51102 0.73207 0.0
H745 H 0.06822 0.61744 0.79636 0.0
H746 H 0.11822 0.56576 0.71881 0.0
H747 H 0.01352 0.57988 0.78141 0.0
H748 H 0.08949 0.59484 0.77338 0.0
H749 H 0.05755 0.5328 0.75483 0.0
C750 C 0.0836 0.52764 0.73378 0.0
C751 C 0.10099 0.53663 0.72345 0.0
C752 C 0.07285 0.5915 0.77526 0.0
C753 C 0.07574 0.56133 0.7499 0.0
C754 C 0.06075 0.60423 0.78852 0.0
C755 C 0.03906 0.60052 0.7908 0.0
C756 C 0.06333 0.57466 0.76454 0.0
C757 C 0.03018 0.5833 0.78006 0.0
C758 C 0.07076 0.54001 0.74677 0.0
C759 C 0.10487 0.55823 0.72632 0.0
N760 N 0.04238 0.57092 0.76745 0.0
N761 N 0.09252 0.56978 0.7395 0.0
H762 H 0.42257 0.05571 0.81268 0.0
H763 H 0.45796 0.09133 0.69932 0.0
H764 H 0.41153 0.0155 0.75897 0.0
H765 H 0.49811 0.10267 0.75302 0.0
H766 H 0.43695 0.06686 0.72085 0.0
H767 H 0.44692 0.07689 0.79117 0.0
C768 C 0.4254 0.05125 0.79644 0.0
C769 C 0.41513 0.03377 0.78762 0.0
C770 C 0.4505 0.0746 0.72779 0.0
C771 C 0.44235 0.05817 0.76289 0.0
C772 C 0.46244 0.08854 0.71556 0.0
C773 C 0.47986 0.09893 0.72437 0.0
C774 C 0.45564 0.07156 0.74912 0.0
C775 C 0.48492 0.09483 0.74555 0.0
C776 C 0.43927 0.06329 0.78422 0.0
C777 C 0.41927 0.02874 0.76644 0.0
N778 N 0.47269 0.08171 0.7573 0.0
N779 N 0.43232 0.04106 0.7547 0.0
H780 H 0.92112 0.45767 0.7016 0.0
H781 H 0.95677 0.42131 0.81447 0.0
H782 H 0.91089 0.49821 0.75522 0.0
H783 H 0.99692 0.41066 0.76064 0.0
H784 H 0.93573 0.44602 0.79324 0.0
H785 H 0.94525 0.43623 0.72304 0.0
C786 C 0.92406 0.46211 0.71782 0.0
C787 C 0.91412 0.47979 0.72663 0.0
C788 C 0.94929 0.43838 0.78621 0.0
C789 C 0.94111 0.4551 0.75127 0.0
C790 C 0.96125 0.42431 0.79827 0.0
C791 C 0.97867 0.41404 0.78933 0.0
C792 C 0.95442 0.44165 0.76492 0.0
C793 C 0.98373 0.4184 0.76821 0.0
C794 C 0.93782 0.44993 0.73 0.0
C795 C 0.9184 0.48481 0.74777 0.0
N796 N 0.97148 0.43163 0.75662 0.0
N797 N 0.93134 0.47236 0.75949 0.0
H798 H 0.60261 1.00061 0.75841 0.0
H799 H 0.5152 0.91144 0.75427 0.0
H800 H 0.59181 0.95944 0.81143 0.0
H801 H 0.55595 0.92283 0.70102 0.0
H802 H 0.53661 0.93574 0.77537 0.0
H803 H 0.57888 0.97871 0.73708 0.0
C804 C 0.595 0.98715 0.76565 0.0
C805 C 0.59915 0.98181 0.78673 0.0
C806 C 0.5407 0.93302 0.75901 0.0
C807 C 0.57188 0.957 0.76252 0.0
C808 C 0.52845 0.91931 0.74691 0.0
C809 C 0.53382 0.91513 0.72585 0.0
C810 C 0.55812 0.94305 0.74984 0.0
C811 C 0.5513 0.9256 0.71721 0.0
C812 C 0.58162 0.97463 0.75343 0.0
C813 C 0.58905 0.96406 0.79524 0.0
N814 N 0.56278 0.9392 0.72921 0.0
N815 N 0.57574 0.95235 0.78314 0.0
H816 H 0.23145 0.01208 0.43234 0.0
H817 H 0.29577 0.11851 0.44475 0.0
H818 H 0.21851 0.0669 0.39425 0.0
H819 H 0.28087 0.08054 0.49917 0.0
H820 H 0.27286 0.09601 0.4233 0.0
H821 H 0.25422 0.03377 0.45499 0.0
C822 C 0.23324 0.0287 0.42886 0.0
C823 C 0.22298 0.03774 0.41146 0.0
C824 C 0.27473 0.09256 0.43992 0.0
C825 C 0.24944 0.06234 0.43681 0.0
C826 C 0.28795 0.10524 0.45213 0.0
C827 C 0.29023 0.10138 0.47379 0.0
C828 C 0.26404 0.07562 0.44932 0.0
C829 C 0.27952 0.08408 0.48254 0.0
C830 C 0.24624 0.04102 0.44175 0.0
C831 C 0.22595 0.05933 0.4076 0.0
N832 N 0.26695 0.07175 0.47025 0.0
N833 N 0.23912 0.07083 0.42001 0.0
H834 H 0.91229 0.25849 0.49985 0.0
H835 H 1.00009 0.2544 0.41084 0.0
H836 H 0.92374 0.31175 0.45916 0.0
H837 H 0.95944 0.20119 0.42271 0.0
H838 H 0.97881 0.27559 0.43519 0.0
H839 H 0.9363 0.23728 0.4782 0.0
C840 C 0.92012 0.26582 0.48657 0.0
C841 C 0.91604 0.28693 0.48129 0.0
C842 C 0.97472 0.25922 0.43257 0.0
C843 C 0.94361 0.2628 0.45669 0.0
C844 C 0.9869 0.24707 0.41883 0.0
C845 C 0.98151 0.22598 0.41476 0.0
C846 C 0.95735 0.25009 0.44274 0.0
C847 C 0.96411 0.21738 0.42538 0.0
C848 C 0.93366 0.25366 0.47417 0.0
C849 C 0.92643 0.29554 0.46375 0.0
N850 N 0.9527 0.22944 0.439 0.0
N851 N 0.93986 0.28347 0.45213 0.0
H852 H 0.71694 0.8942 0.44449 0.0
H853 H 0.7821 1.00029 0.43286 0.0
H854 H 0.73239 0.93162 0.49914 0.0
H855 H 0.79438 0.94584 0.39403 0.0
H856 H 0.75918 0.97854 0.45531 0.0
H857 H 0.73991 0.91673 0.4231 0.0
C858 C 0.72489 0.90736 0.45193 0.0
C859 C 0.72274 0.91105 0.47363 0.0
C860 C 0.76705 0.97139 0.44195 0.0
C861 C 0.749 0.93684 0.44924 0.0
C862 C 0.78012 0.98374 0.42918 0.0
C863 C 0.79025 0.97482 0.41163 0.0
C864 C 0.76363 0.95015 0.43677 0.0
C865 C 0.78705 0.95331 0.40751 0.0
C866 C 0.73815 0.92005 0.43975 0.0
C867 C 0.73363 0.92821 0.48246 0.0
N868 N 0.77381 0.94178 0.41982 0.0
N869 N 0.74622 0.94055 0.47021 0.0
H870 H 0.0686 0.79577 0.39464 0.0
H871 H 0.08069 0.7319 0.50143 0.0
H872 H 0.01405 0.78037 0.43223 0.0
H873 H 0.11958 0.7193 0.44709 0.0
H874 H 0.05807 0.7544 0.47944 0.0
H875 H 0.09014 0.77321 0.41741 0.0
C876 C 0.06121 0.78792 0.40788 0.0
C877 C 0.03949 0.78995 0.41156 0.0
C878 C 0.07148 0.74655 0.47237 0.0
C879 C 0.06406 0.76416 0.43762 0.0
C880 C 0.08435 0.73372 0.48485 0.0
C881 C 0.10197 0.72362 0.47603 0.0
C882 C 0.07662 0.74977 0.45109 0.0
C883 C 0.10606 0.72661 0.45449 0.0
C884 C 0.07347 0.77489 0.42071 0.0
C885 C 0.03073 0.7792 0.42883 0.0
N886 N 0.09365 0.73963 0.44282 0.0
N887 N 0.04307 0.76683 0.44131 0.0
H888 H 0.20008 0.95818 0.59131 0.0
H889 H 0.31351 0.92327 0.55562 0.0
H890 H 0.25348 0.99887 0.60211 0.0
H891 H 0.25981 0.91173 0.51553 0.0
H892 H 0.29191 0.94764 0.57668 0.0
H893 H 0.22168 0.93716 0.56693 0.0
C894 C 0.21627 0.96277 0.58842 0.0
C895 C 0.22497 0.98035 0.59863 0.0
C896 C 0.28498 0.93988 0.56313 0.0
C897 C 0.24981 0.95611 0.57136 0.0
C898 C 0.29726 0.926 0.55116 0.0
C899 C 0.28847 0.91558 0.53375 0.0
C900 C 0.26364 0.94282 0.55803 0.0
C901 C 0.26727 0.91959 0.52872 0.0
C902 C 0.22854 0.95082 0.57453 0.0
C903 C 0.24609 0.98555 0.59441 0.0
N904 N 0.25548 0.93265 0.54098 0.0
N905 N 0.25789 0.97331 0.58135 0.0
H906 H 0.06565 0.21663 0.61866 0.0
H907 H 0.07831 0.28081 0.51219 0.0
H908 H 0.01124 0.23181 0.5808 0.0
H909 H 0.11654 0.29363 0.56695 0.0
H910 H 0.05551 0.25826 0.53397 0.0
H911 H 0.08716 0.23951 0.59619 0.0
C912 C 0.05829 0.22451 0.60543 0.0
C913 C 0.03662 0.2223 0.60158 0.0
C914 C 0.06881 0.26617 0.54118 0.0
C915 C 0.06116 0.24846 0.57584 0.0
C916 C 0.08178 0.27904 0.52882 0.0
C917 C 0.09927 0.2892 0.53781 0.0
C918 C 0.07374 0.26298 0.56251 0.0
C919 C 0.10312 0.28626 0.55941 0.0
C920 C 0.07053 0.23772 0.59276 0.0
C921 C 0.02789 0.2331 0.58433 0.0
N922 N 0.09063 0.2732 0.57096 0.0
N923 N 0.04021 0.24564 0.572 0.0
H924 H 0.77926 0.00996 0.58161 0.0
H925 H 0.71687 0.11769 0.56883 0.0
H926 H 0.7918 0.06409 0.62081 0.0
H927 H 0.73203 0.07952 0.51461 0.0
H928 H 0.73878 0.0946 0.59069 0.0
H929 H 0.75705 0.03214 0.55889 0.0
C930 C 0.77745 0.02652 0.58535 0.0
C931 C 0.78748 0.03523 0.60306 0.0
C932 C 0.73719 0.09124 0.57402 0.0
C933 C 0.76169 0.06041 0.57756 0.0
C934 C 0.72455 0.10427 0.56157 0.0
C935 C 0.72263 0.10052 0.53985 0.0
C936 C 0.74765 0.07407 0.5648 0.0
C937 C 0.73312 0.08299 0.53128 0.0
C938 C 0.76479 0.03912 0.57241 0.0
C939 C 0.78452 0.05676 0.60723 0.0
N940 N 0.74512 0.07034 0.5438 0.0
N941 N 0.77171 0.06855 0.59473 0.0
H942 H 0.93331 0.73059 0.51242 0.0
H943 H 0.94608 0.79512 0.61867 0.0
H944 H 0.89507 0.71797 0.56722 0.0
H945 H 1.00046 0.77965 0.58089 0.0
H946 H 0.92451 0.77223 0.59626 0.0
H947 H 0.95613 0.7532 0.53412 0.0
C948 C 0.92984 0.73242 0.52904 0.0
C949 C 0.91235 0.72229 0.53807 0.0
C950 C 0.94115 0.77396 0.59283 0.0
C951 C 0.93789 0.74859 0.56268 0.0
C952 C 0.95342 0.78718 0.60547 0.0
C953 C 0.97511 0.7893 0.60163 0.0
C954 C 0.9505 0.76313 0.57596 0.0
C955 C 0.98381 0.77842 0.58441 0.0
C956 C 0.94282 0.74532 0.54136 0.0
C957 C 0.9085 0.72531 0.55965 0.0
N958 N 0.97146 0.76587 0.57212 0.0
N959 N 0.92099 0.7384 0.57116 0.0
H960 H 0.44545 0.29461 0.11979 0.0
H961 H 0.43373 0.23124 0.01264 0.0
H962 H 0.49993 0.28042 0.08165 0.0
H963 H 0.39495 0.21809 0.06693 0.0
H964 H 0.45624 0.25373 0.03474 0.0
H965 H 0.42413 0.27174 0.09711 0.0
C966 C 0.45287 0.28694 0.10647 0.0
C967 C 0.4745 0.28943 0.10259 0.0
C968 C 0.44289 0.24576 0.04179 0.0
C969 C 0.45019 0.26329 0.07661 0.0
C970 C 0.43008 0.23293 0.02923 0.0
C971 C 0.41251 0.22269 0.038 0.0
C972 C 0.43774 0.24884 0.06309 0.0
C973 C 0.40844 0.22552 0.05957 0.0
C974 C 0.44074 0.27374 0.09367 0.0
C975 C 0.48331 0.27891 0.08521 0.0
N976 N 0.42078 0.23854 0.07131 0.0
N977 N 0.4711 0.26637 0.07277 0.0
H978 H 0.39429 0.79454 0.94407 0.0
H979 H 0.50132 0.73109 0.93208 0.0
H980 H 0.4325 0.7804 0.99852 0.0
H981 H 0.44672 0.71751 0.89389 0.0
H982 H 0.47938 0.75378 0.95456 0.0
H983 H 0.41693 0.77164 0.92275 0.0
C984 C 0.40763 0.78688 0.95148 0.0
C985 C 0.41152 0.78938 0.97311 0.0
C986 C 0.47224 0.74568 0.94134 0.0
C987 C 0.43745 0.76321 0.94878 0.0
C988 C 0.4847 0.73273 0.92854 0.0
C989 C 0.47579 0.72231 0.91116 0.0
C990 C 0.4509 0.74868 0.93634 0.0
C991 C 0.45419 0.72509 0.90723 0.0
C992 C 0.42039 0.77366 0.93935 0.0
C993 C 0.42892 0.77887 0.9819 0.0
N994 N 0.44254 0.73821 0.91955 0.0
N995 N 0.44133 0.76632 0.96968 0.0
H996 H 0.28146 0.50121 0.93422 0.0
H997 H 0.21675 0.39491 0.9456 0.0
H998 H 0.29415 0.44674 0.89553 0.0
H999 H 0.23219 0.43195 1.00051 0.0
H1000 H 0.23964 0.41763 0.92435 0.0
H1001 H 0.25869 0.47933 0.95672 0.0
C1002 C 0.27962 0.48463 0.93058 0.0
C1003 C 0.2898 0.47574 0.91306 0.0
C1004 C 0.23789 0.42083 0.94104 0.0
C1005 C 0.26334 0.45095 0.93823 0.0
C1006 C 0.22468 0.40803 0.95313 0.0
C1007 C 0.22256 0.41155 0.97486 0.0
C1008 C 0.24873 0.43757 0.95063 0.0
C1009 C 0.23342 0.42867 0.98381 0.0
C1010 C 0.26662 0.47221 0.94339 0.0
C1011 C 0.28676 0.4542 0.90899 0.0
N1012 N 0.24597 0.44113 0.97164 0.0
N1013 N 0.27359 0.4426 0.92131 0.0
H1014 H 0.59126 0.20062 0.95798 0.0
H1015 H 0.55527 0.31358 0.9217 0.0
H1016 H 0.60219 0.25458 0.99789 0.0
H1017 H 0.51513 0.25971 0.91123 0.0
H1018 H 0.57659 0.2923 0.94612 0.0
H1019 H 0.56685 0.22194 0.9367 0.0
C1020 C 0.58841 0.21688 0.96234 0.0
C1021 C 0.59864 0.22582 0.97979 0.0
C1022 C 0.56298 0.28526 0.93858 0.0
C1023 C 0.57135 0.25033 0.95525 0.0
C1024 C 0.55086 0.29735 0.92466 0.0
C1025 C 0.53334 0.28842 0.91454 0.0
C1026 C 0.55792 0.26396 0.94185 0.0
C1027 C 0.52839 0.26727 0.91886 0.0
C1028 C 0.5745 0.22899 0.95024 0.0
C1029 C 0.59446 0.24701 0.98468 0.0
N1030 N 0.54079 0.25565 0.93194 0.0
N1031 N 0.58138 0.25865 0.9723 0.0
H1032 H 0.72005 0.56508 0.89133 0.0
H1033 H 0.78097 0.58046 0.9993 0.0
H1034 H 0.73369 0.51182 0.93136 0.0
H1035 H 0.79536 0.61751 0.94413 0.0
H1036 H 0.75922 0.55708 0.97736 0.0
H1037 H 0.74259 0.5871 0.91366 0.0
C1038 C 0.72756 0.55807 0.90497 0.0
C1039 C 0.72498 0.53658 0.90951 0.0
C1040 C 0.76731 0.57024 0.97009 0.0
C1041 C 0.75071 0.56172 0.9351 0.0
C1042 C 0.77971 0.58356 0.98256 0.0
C1043 C 0.79006 0.6009 0.97349 0.0
C1044 C 0.76479 0.57466 0.94856 0.0
C1045 C 0.78781 0.60423 0.95173 0.0
C1046 C 0.74056 0.57061 0.91757 0.0
C1047 C 0.73528 0.52831 0.92729 0.0
N1048 N 0.77519 0.59141 0.94006 0.0
N1049 N 0.7476 0.54093 0.93954 0.0
H1050 H 0.56541 0.72042 0.1202 0.0
H1051 H 0.57887 0.78267 0.01264 0.0
H1052 H 0.51162 0.73394 0.08085 0.0
H1053 H 0.61689 0.79624 0.06736 0.0
H1054 H 0.55593 0.76052 0.03464 0.0
H1055 H 0.58703 0.74324 0.09777 0.0
C1056 C 0.5582 0.72796 0.10668 0.0
C1057 C 0.53667 0.72526 0.10238 0.0
C1058 C 0.56921 0.76851 0.0418 0.0
C1059 C 0.56135 0.75134 0.07668 0.0
C1060 C 0.58227 0.78115 0.0293 0.0
C1061 C 0.59976 0.79139 0.03821 0.0
C1062 C 0.57402 0.76565 0.0632 0.0
C1063 C 0.60349 0.78878 0.05987 0.0
C1064 C 0.57051 0.74113 0.09403 0.0
C1065 C 0.52814 0.73561 0.08475 0.0
N1066 N 0.5909 0.77596 0.07157 0.0
N1067 N 0.54053 0.74811 0.07245 0.0
H1068 H 0.25424 0.60048 0.01432 0.0
H1069 H 0.25911 0.51338 0.10398 0.0
H1070 H 0.20134 0.58928 0.05557 0.0
H1071 H 0.31226 0.55381 0.09113 0.0
H1072 H 0.2377 0.53442 0.07963 0.0
H1073 H 0.27562 0.57657 0.03588 0.0
C1074 C 0.24701 0.59272 0.0277 0.0
C1075 C 0.22596 0.59686 0.03318 0.0
C1076 C 0.2541 0.53852 0.08204 0.0
C1077 C 0.2503 0.56939 0.05767 0.0
C1078 C 0.26638 0.52647 0.09577 0.0
C1079 C 0.28752 0.53187 0.09957 0.0
C1080 C 0.26315 0.55576 0.0716 0.0
C1081 C 0.29603 0.54915 0.08868 0.0
C1082 C 0.25928 0.57923 0.04004 0.0
C1083 C 0.21751 0.58654 0.05083 0.0
N1084 N 0.28384 0.56043 0.07507 0.0
N1085 N 0.22968 0.57317 0.06241 0.0
H1086 H 0.75385 0.49991 0.10373 0.0
H1087 H 0.75882 0.41215 0.01477 0.0
H1088 H 0.70059 0.45958 0.091 0.0
H1089 H 0.81158 0.42344 0.05616 0.0
H1090 H 0.73739 0.43619 0.03615 0.0
H1091 H 0.7753 0.47852 0.07972 0.0
C1092 C 0.74657 0.48676 0.09563 0.0
C1093 C 0.72539 0.4815 0.09935 0.0
C1094 C 0.75371 0.43351 0.04039 0.0
C1095 C 0.7498 0.45721 0.07177 0.0
C1096 C 0.766 0.41995 0.02815 0.0
C1097 C 0.78703 0.41581 0.03371 0.0
C1098 C 0.76265 0.44342 0.05799 0.0
C1099 C 0.79543 0.42617 0.05136 0.0
C1100 C 0.75887 0.47451 0.08208 0.0
C1101 C 0.71686 0.46415 0.08859 0.0
N1102 N 0.78325 0.43962 0.06283 0.0
N1103 N 0.72907 0.45267 0.07517 0.0
H1104 H 0.9918 0.21041 0.28308 0.0
H1105 H 1.00209 0.3325 0.25619 0.0
H1106 H 0.00671 0.25699 0.33035 0.0
H1107 H 0.01834 0.28435 0.21097 0.0
H1108 H 0.99781 0.30519 0.28313 0.0
H1109 H 0.99533 0.23766 0.2558 0.0
C1110 C 0.99563 0.22638 0.28773 0.0
C1111 C 0.99901 0.23145 0.30901 0.0
C1112 C 1.00234 0.30064 0.26731 0.0
C1113 C 1.00289 0.26258 0.27799 0.0
C1114 C 1.00474 0.31618 0.25192 0.0
C1115 C 0.01065 0.31069 0.23132 0.0
C1116 C 1.00544 0.27939 0.26198 0.0
C1117 C 0.01392 0.28928 0.2267 0.0
C1118 C 0.99778 0.24185 0.27217 0.0
C1119 C 1.00408 0.25237 0.31413 0.0
N1120 N 0.0111 0.27438 0.24187 0.0
N1121 N 1.00574 0.26719 0.29876 0.0
H1122 H 0.80378 0.9935 0.28344 0.0
H1123 H 0.68227 0.00722 0.25707 0.0
H1124 H 0.75841 0.012 0.33063 0.0
H1125 H 0.73043 0.02027 0.21083 0.0
H1126 H 0.70963 1.00394 0.28407 0.0
H1127 H 0.77665 0.99804 0.25623 0.0
C1128 C 0.7881 0.9984 0.28809 0.0
C1129 C 0.78333 1.00238 0.30933 0.0
C1130 C 0.71418 0.00762 0.26803 0.0
C1131 C 0.75231 0.0074 0.27838 0.0
C1132 C 0.69861 0.00943 0.25261 0.0
C1133 C 0.7041 0.01406 0.23168 0.0
C1134 C 0.73544 0.00997 0.26243 0.0
C1135 C 0.72551 0.01682 0.2268 0.0
C1136 C 0.77271 1.00111 0.27256 0.0
C1137 C 0.76279 0.00883 0.31444 0.0
N1138 N 0.74045 0.01451 0.24203 0.0
N1139 N 0.74799 0.01098 0.2991 0.0
H1140 H 0.99248 0.72892 0.2095 0.0
H1141 H 1.00462 0.75568 0.33121 0.0
H1142 H 0.0097 0.68161 0.25524 0.0
H1143 H 0.01952 0.80119 0.2829 0.0
H1144 H 1.00092 0.72857 0.30395 0.0
H1145 H 0.99661 0.75609 0.23673 0.0
C1146 C 0.997 0.72424 0.22529 0.0
C1147 C 1.00079 0.70298 0.23012 0.0
C1148 C 1.00507 0.74448 0.29936 0.0
C1149 C 1.00532 0.73389 0.26126 0.0
C1150 C 0.00712 0.75996 0.31487 0.0
C1151 C 0.01244 0.78071 0.30931 0.0
C1152 C 0.00788 0.74988 0.27809 0.0
C1153 C 0.01554 0.78536 0.28789 0.0
C1154 C 0.99948 0.73974 0.24074 0.0
C1155 C 0.00673 0.69782 0.25081 0.0
N1156 N 0.01302 0.7701 0.27302 0.0
N1157 N 0.00866 0.71315 0.26566 0.0
H1158 H 0.25598 1.00268 0.33073 0.0
H1159 H 0.28248 0.99221 0.20872 0.0
H1160 H 0.21057 0.01874 0.28271 0.0
H1161 H 0.32996 0.00792 0.25483 0.0
H1162 H 0.25535 0.996 0.23605 0.0
H1163 H 0.28295 0.99886 0.30336 0.0
C1164 C 0.25168 1.00539 0.31443 0.0
C1165 C 0.23101 0.0111 0.30898 0.0
C1166 C 0.27172 0.99859 0.24012 0.0
C1167 C 0.26169 1.00641 0.27764 0.0
C1168 C 0.2872 0.99631 0.22461 0.0
C1169 C 0.3085 0.99979 0.22952 0.0
C1170 C 0.27764 1.00394 0.26077 0.0
C1171 C 0.31372 1.0052 0.25034 0.0
C1172 C 0.26709 1.00327 0.29886 0.0
C1173 C 0.22634 0.01446 0.28761 0.0
N1174 N 0.29842 0.00697 0.26523 0.0
N1175 N 0.24153 0.01189 0.27267 0.0
H1176 H 1.00453 0.68073 0.75687 0.0
H1177 H 0.99379 0.80241 0.72975 0.0
H1178 H 0.02054 0.72893 0.80211 0.0
H1179 H 0.01064 0.7564 0.68256 0.0
H1180 H 0.99768 0.77522 0.75699 0.0
H1181 H 1.00104 0.70796 0.72971 0.0
C1182 C 0.0073 0.69704 0.76109 0.0
C1183 C 0.01288 0.70259 0.78177 0.0
C1184 C 1.00051 0.77115 0.74066 0.0
C1185 C 0.00857 0.73376 0.75088 0.0
C1186 C 0.99817 0.78657 0.72511 0.0
C1187 C 1.00193 0.78165 0.70386 0.0
C1188 C 1.00617 0.75056 0.73485 0.0
C1189 C 0.0077 0.7609 0.69876 0.0
C1190 C 1.00537 0.71253 0.74558 0.0
C1191 C 0.01634 0.72397 0.78634 0.0
N1192 N 0.00949 0.74607 0.71412 0.0
N1193 N 0.01394 0.73882 0.77105 0.0
H1194 H 0.20983 0.99256 0.72991 0.0
H1195 H 0.3316 0.00671 0.75625 0.0
H1196 H 0.25579 0.0096 0.68273 0.0
H1197 H 0.28335 0.01917 0.80255 0.0
H1198 H 0.30425 1.00273 0.72937 0.0
H1199 H 0.23694 0.99697 0.75721 0.0
C1200 C 0.22564 0.99707 0.72528 0.0
C1201 C 0.23057 1.00073 0.70402 0.0
C1202 C 0.29967 1.00642 0.7454 0.0
C1203 C 0.26154 1.00566 0.73506 0.0
C1204 C 0.31524 0.00866 0.76075 0.0
C1205 C 0.30974 0.01334 0.78166 0.0
C1206 C 0.27837 0.00845 0.75103 0.0
C1207 C 0.28828 0.01572 0.78658 0.0
C1208 C 0.24102 0.99973 0.74086 0.0
C1209 C 0.25127 0.00669 0.69893 0.0
N1210 N 0.27334 0.01305 0.77141 0.0
N1211 N 0.26601 0.00884 0.71431 0.0
H1212 H 0.01788 0.2091 0.72971 0.0
H1213 H 1.00445 0.33058 0.75653 0.0
H1214 H 0.99942 0.25467 0.68271 0.0
H1215 H 0.9916 0.28226 0.80264 0.0
H1216 H 0.00764 0.30332 0.72941 0.0
H1217 H 0.01354 0.23618 0.75701 0.0
C1218 C 0.01303 0.22481 0.72512 0.0
C1219 C 0.009 0.22965 0.70391 0.0
C1220 C 1.00403 0.29872 0.74545 0.0
C1221 C 1.00419 0.26062 0.73497 0.0
C1222 C 1.00226 0.31423 0.76094 0.0
C1223 C 0.99771 0.30867 0.78186 0.0
C1224 C 1.0017 0.27743 0.75098 0.0
C1225 C 0.99499 0.28723 0.78667 0.0
C1226 C 0.01043 0.24018 0.74071 0.0
C1227 C 1.00262 0.25024 0.69887 0.0
N1228 N 0.99723 0.27235 0.77138 0.0
N1229 N 1.00057 0.265 0.71427 0.0
H1230 H 0.77434 0.97591 0.69828 0.0
H1231 H 0.69708 0.03538 0.77577 0.0
H1232 H 0.78388 0.04127 0.71449 0.0
H1233 H 0.71288 0.96997 0.78556 0.0
H1234 H 0.72498 0.03777 0.7492 0.0
H1235 H 0.74781 0.97326 0.72628 0.0
C1236 C 0.7708 0.98972 0.70768 0.0
C1237 C 0.7813 0.00887 0.70405 0.0
C1238 C 0.72236 0.02293 0.75722 0.0
C1239 C 0.75084 1.00595 0.73582 0.0
C1240 C 0.70639 0.0215 0.77228 0.0
C1241 C 0.70266 1.00242 0.78286 0.0
C1242 C 0.73435 1.00503 0.75231 0.0
C1243 C 0.7153 0.98498 0.77782 0.0
C1244 C 0.75578 0.98814 0.7237 0.0
C1245 C 0.7762 0.02621 0.71681 0.0
N1246 N 0.73046 0.98663 0.7627 0.0
N1247 N 0.76116 0.02441 0.73199 0.0
H1248 H 0.2103 0.28303 0.99243 0.0
H1249 H 0.33226 0.25654 1.00227 0.0
H1250 H 0.25617 0.33049 0.00887 0.0
H1251 H 0.28433 0.21119 0.01878 0.0
H1252 H 0.30488 0.28357 0.99876 0.0
H1253 H 0.23771 0.25597 0.99597 0.0
C1254 C 0.22615 0.28777 0.99665 0.0
C1255 C 0.23097 0.30903 1.0004 0.0
C1256 C 0.30041 0.2677 1.00319 0.0
C1257 C 0.26232 0.27825 1.00425 0.0
C1258 C 0.31598 0.25227 1.00513 0.0
C1259 C 0.31055 0.23161 0.01088 0.0
C1260 C 0.27922 0.26232 0.00654 0.0
C1261 C 0.28921 0.22696 0.01445 0.0
C1262 C 0.24171 0.27233 0.99879 0.0
C1263 C 0.25176 0.31427 1.00594 0.0
N1264 N 0.27427 0.24216 0.01204 0.0
N1265 N 0.26671 0.29901 0.00755 0.0
H1266 H 0.25739 0.68026 0.00798 0.0
H1267 H 0.28337 0.80162 0.99243 0.0
H1268 H 0.21111 0.72847 0.02058 0.0
H1269 H 0.33081 0.75666 0.01126 0.0
H1270 H 0.25627 0.77447 0.99753 0.0
H1271 H 0.28434 0.70763 1.00427 0.0
C1272 C 0.25292 0.69661 0.01002 0.0
C1273 C 0.23199 0.70211 0.01464 0.0
C1274 C 0.27263 0.77062 1.00055 0.0
C1275 C 0.26266 0.73347 0.01003 0.0
C1276 C 0.28809 0.78602 0.99751 0.0
C1277 C 0.30937 0.78138 1.00143 0.0
C1278 C 0.27854 0.75034 0.00711 0.0
C1279 C 0.31459 0.76094 0.00813 0.0
C1280 C 0.2683 0.71219 0.00795 0.0
C1281 C 0.22708 0.72355 0.01716 0.0
N1282 N 0.2993 0.74613 0.0106 0.0
N1283 N 0.24227 0.73849 0.0146 0.0
H1284 H 0.75643 0.33221 1.0064 0.0
H1285 H 0.73008 0.21024 0.99406 0.0
H1286 H 0.80241 0.28411 0.02046 0.0
H1287 H 0.68271 0.25661 0.00931 0.0
H1288 H 0.75735 0.23737 0.99842 0.0
H1289 H 0.72957 0.30485 1.00242 0.0
C1290 C 0.76087 0.31589 0.00869 0.0
C1291 C 0.78169 0.31043 0.01383 0.0
C1292 C 0.74097 0.24154 1.00079 0.0
C1293 C 0.75108 0.27904 0.00895 0.0
C1294 C 0.72541 0.22613 0.99817 0.0
C1295 C 0.70409 0.23117 1.00134 0.0
C1296 C 0.73512 0.26219 1.00621 0.0
C1297 C 0.69894 0.252 0.00679 0.0
C1298 C 0.74552 0.3003 1.00646 0.0
C1299 C 0.78652 0.28901 0.01664 0.0
N1300 N 0.71432 0.26676 0.00892 0.0
N1301 N 0.77136 0.27405 0.01397 0.0
H1302 H 0.80218 0.73025 0.99151 0.0
H1303 H 0.68029 0.75727 1.00231 0.0
H1304 H 0.75596 0.68288 0.00726 0.0
H1305 H 0.72862 0.80239 0.01826 0.0
H1306 H 0.7075 0.73014 0.99838 0.0
H1307 H 0.77494 0.75744 0.99536 0.0
C1308 C 0.78628 0.72556 0.99563 0.0
C1309 C 0.78133 0.70427 0.9991 0.0
C1310 C 0.7121 0.74598 1.00279 0.0
C1311 C 0.75017 0.73523 1.00333 0.0
C1312 C 0.69662 0.76147 1.00497 0.0
C1313 C 0.7022 0.78211 0.01068 0.0
C1314 C 0.73336 0.75125 1.00587 0.0
C1315 C 0.72362 0.78665 0.01398 0.0
C1316 C 0.77082 0.74108 0.99795 0.0
C1317 C 0.76049 0.69911 1.00453 0.0
N1318 N 0.73846 0.77139 0.01135 0.0
N1319 N 0.74564 0.71446 1.00634 0.0
H1320 H 0.49495 0.70916 0.78257 0.0
H1321 H 0.50747 0.83113 0.75718 0.0
H1322 H 0.512 0.75458 0.83025 0.0
H1323 H 0.52132 0.78341 0.71073 0.0
H1324 H 0.50404 0.80354 0.78393 0.0
H1325 H 0.49929 0.73655 0.75558 0.0
C1326 C 0.49948 0.7249 0.78737 0.0
C1327 C 0.50313 0.7296 0.80869 0.0
C1328 C 0.50792 0.79914 0.7679 0.0
C1329 C 0.50794 0.76093 0.77798 0.0
C1330 C 0.50982 0.81484 0.75262 0.0
C1331 C 0.51473 0.80955 0.7317 0.0
C1332 C 0.51048 0.77793 0.76217 0.0
C1333 C 0.51766 0.78819 0.72669 0.0
C1334 C 0.50209 0.74045 0.77197 0.0
C1335 C 0.50911 0.75024 0.814 0.0
N1336 N 0.51528 0.77311 0.74179 0.0
N1337 N 0.51117 0.76518 0.79878 0.0
H1338 H 0.25613 0.51047 0.8327 0.0
H1339 H 0.22942 0.51926 0.71076 0.0
H1340 H 0.30137 0.49333 0.78489 0.0
H1341 H 0.18205 0.50297 0.75678 0.0
H1342 H 0.25653 0.51588 0.73815 0.0
H1343 H 0.22905 0.51368 0.80532 0.0
C1344 C 0.26036 0.5074 0.81645 0.0
C1345 C 0.28101 0.50157 0.81105 0.0
C1346 C 0.24018 0.51306 0.74219 0.0
C1347 C 0.25025 0.50556 0.77972 0.0
C1348 C 0.22472 0.5151 0.72664 0.0
C1349 C 0.20346 0.51135 0.73151 0.0
C1350 C 0.23429 0.5077 0.76283 0.0
C1351 C 0.19826 0.50589 0.75232 0.0
C1352 C 0.24491 0.50917 0.80088 0.0
C1353 C 0.28562 0.49773 0.78974 0.0
N1354 N 0.21355 0.50439 0.76727 0.0
N1355 N 0.27039 0.49998 0.77481 0.0
H1356 H 0.50456 0.25669 0.8311 0.0
H1357 H 0.49211 0.23048 0.70906 0.0
H1358 H 0.51869 0.30264 0.78298 0.0
H1359 H 0.50741 0.18306 0.75537 0.0
H1360 H 0.49631 0.2577 0.73627 0.0
H1361 H 0.50036 0.22987 0.80372 0.0
C1362 C 0.50682 0.26113 0.81477 0.0
C1363 C 0.51205 0.28192 0.80931 0.0
C1364 C 0.49871 0.24132 0.74041 0.0
C1365 C 0.50692 0.25137 0.77791 0.0
C1366 C 0.49617 0.22578 0.72496 0.0
C1367 C 0.49944 0.20447 0.72996 0.0
C1368 C 0.50413 0.23543 0.76105 0.0
C1369 C 0.50483 0.19929 0.75079 0.0
C1370 C 0.50446 0.24581 0.79917 0.0
C1371 C 0.51481 0.28676 0.78788 0.0
N1372 N 0.50689 0.21464 0.76559 0.0
N1373 N 0.51203 0.27163 0.77292 0.0
H1374 H 0.81657 0.53419 0.73839 0.0
H1375 H 0.7381 0.47543 0.81517 0.0
H1376 H 0.79976 0.46912 0.72796 0.0
H1377 H 0.72943 0.54093 0.79909 0.0
H1378 H 0.76475 0.47253 0.7873 0.0
H1379 H 0.7886 0.53678 0.76487 0.0
C1380 C 0.80702 0.52042 0.74172 0.0
C1381 C 0.81048 0.50139 0.73098 0.0
C1382 C 0.75694 0.48749 0.78987 0.0
C1383 C 0.77872 0.50423 0.76143 0.0
C1384 C 0.74186 0.48921 0.80582 0.0
C1385 C 0.73157 0.50847 0.80945 0.0
C1386 C 0.76215 0.50529 0.77784 0.0
C1387 C 0.73694 0.52578 0.79677 0.0
C1388 C 0.79102 0.52197 0.75673 0.0
C1389 C 0.79755 0.4841 0.73583 0.0
N1390 N 0.75205 0.52385 0.78166 0.0
N1391 N 0.78236 0.48585 0.7509 0.0
H1392 H 0.50979 0.18127 0.25692 0.0
H1393 H 0.49445 0.30262 0.23076 0.0
H1394 H 0.52114 0.22948 0.30354 0.0
H1395 H 0.5136 0.25752 0.18356 0.0
H1396 H 0.49937 0.27556 0.25796 0.0
H1397 H 0.50661 0.20864 0.22993 0.0
C1398 C 0.51167 0.19762 0.26146 0.0
C1399 C 0.51576 0.20312 0.2825 0.0
C1400 C 0.50252 0.27166 0.24164 0.0
C1401 C 0.51178 0.23449 0.25176 0.0
C1402 C 0.49959 0.28702 0.22611 0.0
C1403 C 0.50361 0.28231 0.20486 0.0
C1404 C 0.50909 0.25135 0.23582 0.0
C1405 C 0.51038 0.26186 0.19975 0.0
C1406 C 0.50991 0.2132 0.24605 0.0
C1407 C 0.51811 0.22456 0.28748 0.0
N1408 N 0.51275 0.2471 0.2151 0.0
N1409 N 0.51585 0.2395 0.27225 0.0
H1410 H 0.83067 0.50023 0.2578 0.0
H1411 H 0.70824 0.49361 0.23109 0.0
H1412 H 0.78311 0.51872 0.30279 0.0
H1413 H 0.75538 0.50592 0.18362 0.0
H1414 H 0.73559 0.49666 0.25834 0.0
H1415 H 0.8032 0.49632 0.23098 0.0
C1416 C 0.81445 0.50344 0.26205 0.0
C1417 C 0.80917 0.50989 0.28255 0.0
C1418 C 0.73988 0.49865 0.24194 0.0
C1419 C 0.77769 0.50512 0.25202 0.0
C1420 C 0.72435 0.49678 0.2264 0.0
C1421 C 0.72955 0.49957 0.20507 0.0
C1422 C 0.76079 0.50289 0.23605 0.0
C1423 C 0.75065 0.50377 0.19987 0.0
C1424 C 0.79881 0.50126 0.24672 0.0
C1425 C 0.78788 0.51387 0.28714 0.0
N1426 N 0.76551 0.50519 0.21523 0.0
N1427 N 0.77287 0.51127 0.27203 0.0
H1428 H 0.47619 0.73877 0.19663 0.0
H1429 H 0.53461 0.8169 0.27436 0.0
H1430 H 0.5417 0.73024 0.2128 0.0
H1431 H 0.4694 0.80005 0.28379 0.0
H1432 H 0.53744 0.78932 0.24745 0.0
H1433 H 0.47325 0.76553 0.22438 0.0
C1434 C 0.48997 0.74259 0.20597 0.0
C1435 C 0.50923 0.73228 0.20242 0.0
C1436 C 0.52254 0.79167 0.25546 0.0
C1437 C 0.506 0.763 0.23389 0.0
C1438 C 0.52087 0.80744 0.27071 0.0
C1439 C 0.50173 0.81075 0.28132 0.0
C1440 C 0.50482 0.77945 0.25041 0.0
C1441 C 0.48446 0.79795 0.27605 0.0
C1442 C 0.48823 0.75775 0.22184 0.0
C1443 C 0.52654 0.73775 0.21507 0.0
N1444 N 0.48635 0.78299 0.26079 0.0
N1445 N 0.52458 0.75291 0.23012 0.0
H1446 H 0.25686 0.50862 0.18353 0.0
H1447 H 0.23023 0.49376 0.30495 0.0
H1448 H 0.30337 0.51983 0.23187 0.0
H1449 H 0.18331 0.51275 0.25951 0.0
H1450 H 0.25756 0.49829 0.27793 0.0
H1451 H 0.22981 0.50541 0.21082 0.0
C1452 C 0.26137 0.51046 0.19989 0.0
C1453 C 0.28239 0.51453 0.20544 0.0
C1454 C 0.24127 0.50148 0.27394 0.0
C1455 C 0.25157 0.51052 0.23674 0.0
C1456 C 0.22567 0.49876 0.28928 0.0
C1457 C 0.20446 0.50288 0.28446 0.0
C1458 C 0.23556 0.50793 0.25356 0.0
C1459 C 0.19946 0.50947 0.26393 0.0
C1460 C 0.24592 0.50868 0.21544 0.0
C1461 C 0.28733 0.51682 0.2269 0.0
N1462 N 0.21487 0.51164 0.2492 0.0
N1463 N 0.27205 0.51456 0.24181 0.0
H1464 H 0.83177 0.75605 0.50357 0.0
H1465 H 0.70996 0.78272 0.49236 0.0
H1466 H 0.78357 0.7108 0.51957 0.0
H1467 H 0.75584 0.83019 0.50876 0.0
H1468 H 0.73725 0.75561 0.49639 0.0
H1469 H 0.80449 0.78313 0.49976 0.0
C1470 C 0.81545 0.75182 0.50628 0.0
C1471 C 0.80992 0.73116 0.51195 0.0
C1472 C 0.74128 0.77198 0.49909 0.0
C1473 C 0.7787 0.76194 0.50726 0.0
C1474 C 0.72579 0.78745 0.49667 0.0
C1475 C 0.73065 0.80873 0.50026 0.0
C1476 C 0.76186 0.77789 0.50469 0.0
C1477 C 0.7514 0.81396 0.50594 0.0
C1478 C 0.79994 0.76728 0.50416 0.0
C1479 C 0.78853 0.72656 0.51532 0.0
N1480 N 0.76628 0.79866 0.50783 0.0
N1481 N 0.77365 0.74179 0.51273 0.0
H1482 H 0.75731 0.1809 0.50223 0.0
H1483 H 0.78465 0.30298 0.49311 0.0
H1484 H 0.71243 0.22907 0.5193 0.0
H1485 H 0.83184 0.25616 0.50749 0.0
H1486 H 0.75732 0.27577 0.4965 0.0
H1487 H 0.78437 0.20814 0.49813 0.0
C1488 C 0.75314 0.1972 0.50509 0.0
C1489 C 0.7326 0.20272 0.51119 0.0
C1490 C 0.77368 0.27152 0.49886 0.0
C1491 C 0.76339 0.23394 0.50619 0.0
C1492 C 0.78927 0.28696 0.49681 0.0
C1493 C 0.81055 0.28182 0.50008 0.0
C1494 C 0.77945 0.25072 0.50377 0.0
C1495 C 0.81563 0.26084 0.50495 0.0
C1496 C 0.7686 0.21271 0.5028 0.0
C1497 C 0.72811 0.22411 0.51473 0.0
N1498 N 0.80022 0.24603 0.50653 0.0
N1499 N 0.74334 0.23898 0.51201 0.0
H1500 H 0.30436 0.78414 0.52155 0.0
H1501 H 0.18227 0.75678 0.51269 0.0
H1502 H 0.25743 0.83131 0.50746 0.0
H1503 H 0.23042 0.71185 0.49567 0.0
H1504 H 0.20951 0.78384 0.51667 0.0
H1505 H 0.27719 0.75678 0.51816 0.0
C1506 C 0.28833 0.78875 0.51791 0.0
C1507 C 0.28314 0.81003 0.51474 0.0
C1508 C 0.21408 0.76806 0.51203 0.0
C1509 C 0.25209 0.77891 0.51103 0.0
C1510 C 0.19858 0.7526 0.50981 0.0
C1511 C 0.20409 0.73204 0.50377 0.0
C1512 C 0.2353 0.76284 0.50864 0.0
C1513 C 0.22547 0.72754 0.5002 0.0
C1514 C 0.2729 0.77314 0.51585 0.0
C1515 C 0.26214 0.8151 0.50993 0.0
N1516 N 0.24034 0.74277 0.50286 0.0
N1517 N 0.24736 0.79967 0.50835 0.0
H1518 H 0.18007 0.25538 0.50337 0.0
H1519 H 0.30201 0.22946 0.49271 0.0
H1520 H 0.22784 0.30088 0.51993 0.0
H1521 H 0.25653 0.18172 0.50944 0.0
H1522 H 0.27453 0.25638 0.49668 0.0
H1523 H 0.20755 0.22846 0.49978 0.0
C1524 C 0.19633 0.2597 0.50625 0.0
C1525 C 0.20169 0.28038 0.51201 0.0
C1526 C 0.27063 0.24 0.49947 0.0
C1527 C 0.23314 0.24979 0.50757 0.0
C1528 C 0.28623 0.22463 0.49709 0.0
C1529 C 0.28154 0.20333 0.50079 0.0
C1530 C 0.2501 0.23395 0.50511 0.0
C1531 C 0.26085 0.19797 0.50655 0.0
C1532 C 0.21196 0.24433 0.50426 0.0
C1533 C 0.22302 0.28509 0.5156 0.0
N1534 N 0.24584 0.21316 0.50838 0.0
N1535 N 0.23801 0.26996 0.51312 0.0
H1536 H 0.08193 0.37869 0.14365 0.0
H1537 H 0.12688 0.32842 0.03732 0.0
H1538 H 0.06729 0.31613 0.12131 0.0
H1539 H 0.15485 0.38392 0.06509 0.0
H1540 H 0.10347 0.32548 0.06739 0.0
H1541 H 0.10777 0.38232 0.11496 0.0
C1542 C 0.08428 0.36566 0.13288 0.0
C1543 C 0.07234 0.34709 0.13487 0.0
C1544 C 0.11472 0.33832 0.06702 0.0
C1545 C 0.1016 0.35127 0.10194 0.0
C1546 C 0.12809 0.3401 0.04972 0.0
C1547 C 0.14295 0.35648 0.04858 0.0
C1548 C 0.11592 0.35309 0.08344 0.0
C1549 C 0.14366 0.37104 0.06528 0.0
C1550 C 0.09899 0.36777 0.1165 0.0
C1551 C 0.07603 0.33075 0.12043 0.0
N1552 N 0.13028 0.36905 0.08203 0.0
N1553 N 0.09016 0.3333 0.10456 0.0
H1554 H 0.69774 0.06868 0.12274 0.0
H1555 H 0.62692 0.15721 0.06716 0.0
H1556 H 0.63405 0.08123 0.14313 0.0
H1557 H 0.68315 0.12962 0.04052 0.0
H1558 H 0.63007 0.13292 0.09735 0.0
H1559 H 0.69383 0.09503 0.09526 0.0
C1560 C 0.68292 0.07708 0.12154 0.0
C1561 C 0.66615 0.07258 0.13523 0.0
C1562 C 0.64164 0.13227 0.08482 0.0
C1563 C 0.66149 0.10293 0.10344 0.0
C1564 C 0.63987 0.1461 0.06762 0.0
C1565 C 0.65475 0.14546 0.05119 0.0
C1566 C 0.65856 0.11796 0.08567 0.0
C1567 C 0.67121 0.13073 0.05266 0.0
C1568 C 0.68067 0.09212 0.10573 0.0
C1569 C 0.64737 0.08414 0.13288 0.0
N1570 N 0.67268 0.11772 0.06954 0.0
N1571 N 0.6455 0.09877 0.1172 0.0
H1572 H 0.94342 0.69854 0.12209 0.0
H1573 H 0.85678 0.62763 0.06359 0.0
H1574 H 0.9307 0.63449 0.14117 0.0
H1575 H 0.88336 0.68515 0.03875 0.0
H1576 H 0.88048 0.63063 0.09421 0.0
H1577 H 0.91754 0.69501 0.09407 0.0
C1578 C 0.93506 0.68374 0.12051 0.0
C1579 C 0.93938 0.66675 0.13398 0.0
C1580 C 0.88105 0.64252 0.08199 0.0
C1581 C 0.90962 0.66252 0.10157 0.0
C1582 C 0.86756 0.64083 0.06452 0.0
C1583 C 0.86808 0.65612 0.04848 0.0
C1584 C 0.89493 0.65975 0.08349 0.0
C1585 C 0.88237 0.67291 0.05059 0.0
C1586 C 0.9203 0.6817 0.10439 0.0
C1587 C 0.92791 0.64799 0.13112 0.0
N1588 N 0.89509 0.67427 0.06771 0.0
N1589 N 0.91359 0.64633 0.11515 0.0
H1590 H 0.32972 0.88663 0.03432 0.0
H1591 H 0.37814 0.93149 0.14154 0.0
H1592 H 0.38432 0.85816 0.06332 0.0
H1593 H 0.31595 0.94605 0.11812 0.0
H1594 H 0.38237 0.9058 0.11279 0.0
H1595 H 0.32656 0.91032 0.06412 0.0
C1596 C 0.34116 0.88537 0.04693 0.0
C1597 C 0.35732 0.87025 0.04623 0.0
C1598 C 0.36777 0.91454 0.1141 0.0
C1599 C 0.35366 0.89761 0.08079 0.0
C1600 C 0.36532 0.92917 0.1305 0.0
C1601 C 0.34667 0.94101 0.13223 0.0
C1602 C 0.35154 0.91195 0.09925 0.0
C1603 C 0.33062 0.93737 0.11746 0.0
C1604 C 0.33926 0.89891 0.06407 0.0
C1605 C 0.3716 0.86953 0.06318 0.0
N1606 N 0.33349 0.92332 0.10158 0.0
N1607 N 0.36947 0.88305 0.07978 0.0
H1608 H 0.0828 0.63358 0.86931 0.0
H1609 H 0.13075 0.6842 0.97401 0.0
H1610 H 0.07058 0.697 0.89068 0.0
H1611 H 0.15682 0.62749 0.94687 0.0
H1612 H 0.10738 0.68754 0.94399 0.0
H1613 H 0.1092 0.62975 0.89746 0.0
C1614 C 0.0858 0.64675 0.87975 0.0
C1615 C 0.07436 0.66562 0.87767 0.0
C1616 C 0.11821 0.67435 0.94447 0.0
C1617 C 0.10427 0.66123 0.90996 0.0
C1618 C 0.13156 0.67234 0.96175 0.0
C1619 C 0.14583 0.65548 0.96308 0.0
C1620 C 0.11882 0.65931 0.92827 0.0
C1621 C 0.14609 0.64074 0.94652 0.0
C1622 C 0.10084 0.64453 0.89581 0.0
C1623 C 0.07889 0.68214 0.89166 0.0
N1624 N 0.13269 0.64293 0.92981 0.0
N1625 N 0.09332 0.67949 0.90723 0.0
H1626 H 0.37978 0.08054 0.86977 0.0
H1627 H 0.33003 0.1264 0.97604 0.0
H1628 H 0.31763 0.06563 0.89311 0.0
H1629 H 0.38527 0.15431 0.9477 0.0
H1630 H 0.32722 0.10245 0.94643 0.0
H1631 H 0.38368 0.10654 0.89832 0.0
C1632 C 0.36691 0.08283 0.88075 0.0
C1633 C 0.34837 0.07081 0.87906 0.0
C1634 C 0.33998 0.11379 0.94657 0.0
C1635 C 0.35284 0.10026 0.91178 0.0
C1636 C 0.34168 0.12749 0.96361 0.0
C1637 C 0.35792 0.14251 0.96445 0.0
C1638 C 0.35469 0.11483 0.93009 0.0
C1639 C 0.37247 0.14302 0.94772 0.0
C1640 C 0.36917 0.09764 0.89704 0.0
C1641 C 0.33224 0.07444 0.89375 0.0
N1642 N 0.37055 0.12934 0.93121 0.0
N1643 N 0.33491 0.08867 0.90949 0.0
H1644 H 0.85613 0.38649 0.94749 0.0
H1645 H 0.94376 0.31492 0.89144 0.0
H1646 H 0.88338 0.33008 0.97409 0.0
H1647 H 0.93127 0.37857 0.87093 0.0
H1648 H 0.91766 0.31904 0.91916 0.0
H1649 H 0.88016 0.38304 0.91715 0.0
C1650 C 0.86712 0.37344 0.947 0.0
C1651 C 0.86773 0.3586 0.96345 0.0
C1652 C 0.92053 0.33214 0.9086 0.0
C1653 C 0.89495 0.35445 0.92879 0.0
C1654 C 0.93542 0.32976 0.89266 0.0
C1655 C 0.93986 0.34647 0.87887 0.0
C1656 C 0.90982 0.35137 0.91092 0.0
C1657 C 0.9284 0.3653 0.88125 0.0
C1658 C 0.8808 0.37149 0.9297 0.0
C1659 C 0.8823 0.34199 0.96192 0.0
N1660 N 0.91393 0.36729 0.89705 0.0
N1661 N 0.89518 0.34037 0.94495 0.0
H1662 H 0.68272 0.88691 0.97524 0.0
H1663 H 0.63048 0.93322 0.87043 0.0
H1664 H 0.62641 0.85954 0.94854 0.0
H1665 H 0.69387 0.94656 0.89123 0.0
H1666 H 0.62706 0.90739 0.89918 0.0
H1667 H 0.68506 0.91062 0.94537 0.0
C1668 C 0.67074 0.88589 0.96312 0.0
C1669 C 0.65433 0.8711 0.9645 0.0
C1670 C 0.64173 0.9159 0.89729 0.0
C1671 C 0.65701 0.89849 0.92985 0.0
C1672 C 0.64372 0.93061 0.88089 0.0
C1673 C 0.66248 0.94215 0.87842 0.0
C1674 C 0.65855 0.91291 0.9114 0.0
C1675 C 0.67908 0.93813 0.89247 0.0
C1676 C 0.67217 0.89945 0.94593 0.0
C1677 C 0.63935 0.87065 0.94815 0.0
N1678 N 0.67666 0.92402 0.90836 0.0
N1679 N 0.64101 0.8842 0.9315 0.0
H1680 H 0.14426 0.08188 0.37795 0.0
H1681 H 0.03965 0.13023 0.32755 0.0
H1682 H 0.12225 0.06905 0.31486 0.0
H1683 H 0.0674 0.15664 0.38381 0.0
H1684 H 0.06941 0.10655 0.32425 0.0
H1685 H 0.11638 0.10857 0.3817 0.0
C1686 C 0.13374 0.08479 0.36483 0.0
C1687 C 0.13556 0.0731 0.34609 0.0
C1688 C 0.06913 0.11752 0.33733 0.0
C1689 C 0.10357 0.10336 0.35038 0.0
C1690 C 0.052 0.13106 0.33931 0.0
C1691 C 0.0509 0.14551 0.35604 0.0
C1692 C 0.08542 0.11812 0.35226 0.0
C1693 C 0.06757 0.14577 0.37066 0.0
C1694 C 0.11783 0.1 0.367 0.0
C1695 C 0.12146 0.07755 0.32964 0.0
N1696 N 0.08413 0.13219 0.3685 0.0
N1697 N 0.10605 0.09215 0.33224 0.0
H1698 H 0.93277 0.14308 0.38008 0.0
H1699 H 0.88838 0.03609 0.33074 0.0
H1700 H 0.94729 0.12021 0.31766 0.0
H1701 H 0.8593 0.0647 0.38524 0.0
H1702 H 0.91205 0.06594 0.32801 0.0
H1703 H 0.90717 0.11419 0.38412 0.0
C1704 C 0.93047 0.13214 0.36718 0.0
C1705 C 0.94227 0.13406 0.34852 0.0
C1706 C 0.90051 0.0658 0.34059 0.0
C1707 C 0.91331 0.10094 0.35316 0.0
C1708 C 0.88698 0.04863 0.34225 0.0
C1709 C 0.8717 0.0478 0.35825 0.0
C1710 C 0.89903 0.08243 0.35509 0.0
C1711 C 0.8708 0.06466 0.37264 0.0
C1712 C 0.91589 0.11566 0.36952 0.0
C1713 C 0.93865 0.1194 0.33236 0.0
N1714 N 0.88432 0.0813 0.37075 0.0
N1715 N 0.92466 0.10346 0.33512 0.0
H1716 H 0.89053 0.94344 0.314 0.0
H1717 H 0.94896 0.85727 0.38552 0.0
H1718 H 0.87148 0.93121 0.37817 0.0
H1719 H 0.97365 0.88319 0.32763 0.0
H1720 H 0.91839 0.88099 0.3824 0.0
H1721 H 0.91846 0.91748 0.31766 0.0
C1722 C 0.89209 0.93517 0.32885 0.0
C1723 C 0.87867 0.93966 0.34584 0.0
C1724 C 0.93056 0.88142 0.37045 0.0
C1725 C 0.91098 0.90982 0.35023 0.0
C1726 C 0.94801 0.86791 0.37222 0.0
C1727 C 0.96399 0.86823 0.35686 0.0
C1728 C 0.92903 0.89511 0.35308 0.0
C1729 C 0.96186 0.88235 0.33993 0.0
C1730 C 0.90816 0.92037 0.33097 0.0
C1731 C 0.8815 0.92829 0.36467 0.0
N1732 N 0.94476 0.89509 0.3385 0.0
N1733 N 0.89742 0.91394 0.36641 0.0
H1734 H 0.15463 0.94834 0.38488 0.0
H1735 H 0.06738 0.89108 0.31377 0.0
H1736 H 0.12706 0.97465 0.32849 0.0
H1737 H 0.08114 0.87054 0.37716 0.0
H1738 H 0.09285 0.91944 0.31776 0.0
H1739 H 0.13082 0.91786 0.38158 0.0
C1740 C 0.14358 0.94777 0.37188 0.0
C1741 C 0.14287 0.96416 0.35697 0.0
C1742 C 0.0904 0.90873 0.33083 0.0
C1743 C 0.11588 0.92929 0.35298 0.0
C1744 C 0.07588 0.89241 0.32852 0.0
C1745 C 0.07199 0.87842 0.34519 0.0
C1746 C 0.10128 0.91118 0.34995 0.0
C1747 C 0.0836 0.88099 0.3639 0.0
C1748 C 0.13003 0.93038 0.37001 0.0
C1749 C 0.12823 0.96252 0.34043 0.0
N1750 N 0.0977 0.89712 0.36582 0.0
N1751 N 0.11546 0.94544 0.33887 0.0
H1752 H 0.03787 0.88558 0.68356 0.0
H1753 H 0.14342 0.93207 0.63313 0.0
H1754 H 0.06575 0.85781 0.628 0.0
H1755 H 0.12111 0.94573 0.69594 0.0
H1756 H 0.11501 0.9059 0.62932 0.0
H1757 H 0.0676 0.90935 0.68631 0.0
C1758 C 0.05023 0.88448 0.67182 0.0
C1759 C 0.04921 0.86956 0.6555 0.0
C1760 C 0.1165 0.91455 0.64396 0.0
C1761 C 0.08372 0.89705 0.65867 0.0
C1762 C 0.13271 0.92945 0.64617 0.0
C1763 C 0.13462 0.9412 0.66487 0.0
C1764 C 0.10205 0.91158 0.66049 0.0
C1765 C 0.12028 0.93716 0.68121 0.0
C1766 C 0.06734 0.89807 0.67349 0.0
C1767 C 0.06586 0.86903 0.64085 0.0
N1768 N 0.1046 0.92286 0.67857 0.0
N1769 N 0.08244 0.88263 0.64275 0.0
H1770 H 0.12824 0.03854 0.68417 0.0
H1771 H 0.08072 0.1438 0.63436 0.0
H1772 H 0.15561 0.06699 0.62872 0.0
H1773 H 0.06734 0.12129 0.69715 0.0
H1774 H 0.10733 0.11584 0.63057 0.0
H1775 H 0.10446 0.06823 0.68739 0.0
C1776 C 0.12925 0.05102 0.67256 0.0
C1777 C 0.14403 0.05016 0.6561 0.0
C1778 C 0.09866 0.11719 0.64521 0.0
C1779 C 0.11653 0.0846 0.6598 0.0
C1780 C 0.0835 0.13315 0.64741 0.0
C1781 C 0.07168 0.13485 0.66608 0.0
C1782 C 0.10182 0.10278 0.66173 0.0
C1783 C 0.07595 0.1206 0.68244 0.0
C1784 C 0.11566 0.0681 0.67451 0.0
C1785 C 0.1445 0.06698 0.64166 0.0
N1786 N 0.09049 0.10514 0.67981 0.0
N1787 N 0.13087 0.0835 0.64379 0.0
H1788 H 0.9741 0.12559 0.68334 0.0
H1789 H 0.86847 0.07961 0.63273 0.0
H1790 H 0.94648 0.15337 0.62768 0.0
H1791 H 0.88951 0.06698 0.69618 0.0
H1792 H 0.89724 0.10534 0.62887 0.0
H1793 H 0.9441 0.10208 0.68618 0.0
C1794 C 0.96176 0.12674 0.6716 0.0
C1795 C 0.96291 0.14159 0.65523 0.0
C1796 C 0.89539 0.09702 0.64366 0.0
C1797 C 0.92813 0.11444 0.6585 0.0
C1798 C 0.87898 0.08237 0.6459 0.0
C1799 C 0.87659 0.07104 0.6648 0.0
C1800 C 0.90961 0.10015 0.66036 0.0
C1801 C 0.8907 0.07525 0.6813 0.0
C1802 C 0.9445 0.1133 0.67332 0.0
C1803 C 0.94628 0.1422 0.64057 0.0
N1804 N 0.90662 0.08929 0.67863 0.0
N1805 N 0.92957 0.12876 0.64251 0.0
H1806 H 0.93179 0.86896 0.63477 0.0
H1807 H 0.88493 0.97472 0.68482 0.0
H1808 H 0.94625 0.89173 0.69724 0.0
H1809 H 0.85883 0.94687 0.62846 0.0
H1810 H 0.90892 0.94508 0.68801 0.0
H1811 H 0.90589 0.89752 0.63092 0.0
C1812 C 0.9294 0.87981 0.64774 0.0
C1813 C 0.94127 0.87795 0.66635 0.0
C1814 C 0.89796 0.94536 0.67493 0.0
C1815 C 0.91194 0.91074 0.66192 0.0
C1816 C 0.88427 0.96241 0.67301 0.0
C1817 C 0.86976 0.96337 0.65633 0.0
C1818 C 0.89739 0.92905 0.65999 0.0
C1819 C 0.86973 0.9468 0.64159 0.0
C1820 C 0.91466 0.89612 0.6455 0.0
C1821 C 0.93754 0.8925 0.68259 0.0
N1822 N 0.88337 0.93032 0.64374 0.0
N1823 N 0.92335 0.9083 0.67994 0.0
H1824 H 0.38533 0.06428 0.15437 0.0
H1825 H 0.3141 0.12365 0.06865 0.0
H1826 H 0.32772 0.03966 0.12776 0.0
H1827 H 0.3784 0.14222 0.08089 0.0
H1828 H 0.31766 0.09547 0.09437 0.0
H1829 H 0.38227 0.09509 0.13095 0.0
C1830 C 0.3721 0.0653 0.14363 0.0
C1831 C 0.3568 0.04927 0.14303 0.0
C1832 C 0.33102 0.10571 0.09153 0.0
C1833 C 0.35309 0.0845 0.11651 0.0
C1834 C 0.32896 0.12193 0.07688 0.0
C1835 C 0.34602 0.13528 0.07246 0.0
C1836 C 0.35029 0.1027 0.102 0.0
C1837 C 0.36485 0.13225 0.08376 0.0
C1838 C 0.37036 0.08288 0.1303 0.0
C1839 C 0.33997 0.05149 0.12881 0.0
N1840 N 0.36653 0.1162 0.09797 0.0
N1841 N 0.33856 0.06872 0.11625 0.0
H1842 H 0.38598 0.94639 0.8554 0.0
H1843 H 0.31393 0.88829 0.94138 0.0
H1844 H 0.32882 0.9719 0.88214 0.0
H1845 H 0.37813 0.86908 0.92963 0.0
H1846 H 0.31783 0.91613 0.91534 0.0
H1847 H 0.38244 0.9156 0.87882 0.0
C1848 C 0.37273 0.94556 0.86615 0.0
C1849 C 0.35773 0.96185 0.86682 0.0
C1850 C 0.33109 0.90581 0.91835 0.0
C1851 C 0.35347 0.92666 0.89333 0.0
C1852 C 0.32883 0.88979 0.93319 0.0
C1853 C 0.34577 0.87637 0.93785 0.0
C1854 C 0.35043 0.90857 0.90794 0.0
C1855 C 0.36467 0.87912 0.92658 0.0
C1856 C 0.37074 0.928 0.87948 0.0
C1857 C 0.34087 0.95988 0.88105 0.0
N1858 N 0.36655 0.89499 0.91219 0.0
N1859 N 0.3392 0.94266 0.8936 0.0
H1860 H 0.03808 0.32699 0.88414 0.0
H1861 H 0.14319 0.378 0.93084 0.0
H1862 H 0.06541 0.38312 0.85705 0.0
H1863 H 0.12163 0.31489 0.94425 0.0
H1864 H 0.11487 0.38153 0.90458 0.0
H1865 H 0.06811 0.32397 0.90756 0.0
C1866 C 0.05038 0.33878 0.88311 0.0
C1867 C 0.04911 0.35538 0.86853 0.0
C1868 C 0.11651 0.36688 0.91318 0.0
C1869 C 0.08392 0.35193 0.8956 0.0
C1870 C 0.13267 0.36483 0.92813 0.0
C1871 C 0.13476 0.34614 0.93986 0.0
C1872 C 0.10227 0.35018 0.91011 0.0
C1873 C 0.12065 0.32962 0.9357 0.0
C1874 C 0.06766 0.33696 0.8965 0.0
C1875 C 0.06572 0.37006 0.86802 0.0
N1876 N 0.10499 0.3321 0.92134 0.0
N1877 N 0.08242 0.36805 0.88143 0.0
H1878 H 0.63393 0.14477 0.93236 0.0
H1879 H 0.68224 0.03807 0.8858 0.0
H1880 H 0.69542 0.12021 0.94799 0.0
H1881 H 0.62746 0.06768 0.85835 0.0
H1882 H 0.6856 0.06744 0.9101 0.0
H1883 H 0.6299 0.11652 0.90612 0.0
C1884 C 0.64664 0.13358 0.93017 0.0
C1885 C 0.66503 0.13486 0.94246 0.0
C1886 C 0.67282 0.06761 0.89877 0.0
C1887 C 0.6604 0.10244 0.91272 0.0
C1888 C 0.67082 0.05073 0.88489 0.0
C1889 C 0.65452 0.05032 0.86993 0.0
C1890 C 0.65836 0.08433 0.89794 0.0
C1891 C 0.64028 0.06731 0.8696 0.0
C1892 C 0.6443 0.11746 0.91523 0.0
C1893 C 0.68094 0.11989 0.93897 0.0
N1894 N 0.64249 0.08362 0.88344 0.0
N1895 N 0.67819 0.10431 0.92457 0.0
H1896 H 0.97701 0.6838 0.88657 0.0
H1897 H 0.86985 0.6348 0.93099 0.0
H1898 H 0.9488 0.62853 0.85858 0.0
H1899 H 0.89263 0.69727 0.94536 0.0
H1900 H 0.8988 0.63067 0.90552 0.0
H1901 H 0.9469 0.68703 0.90989 0.0
C1902 C 0.96451 0.67223 0.88534 0.0
C1903 C 0.96553 0.65585 0.87048 0.0
C1904 C 0.8973 0.64531 0.91417 0.0
C1905 C 0.93062 0.65958 0.89741 0.0
C1906 C 0.88078 0.6477 0.92867 0.0
C1907 C 0.87881 0.6664 0.94041 0.0
C1908 C 0.91204 0.66165 0.91158 0.0
C1909 C 0.89347 0.68256 0.93676 0.0
C1910 C 0.94719 0.67418 0.89867 0.0
C1911 C 0.9487 0.64142 0.86976 0.0
N1912 N 0.90947 0.67975 0.92284 0.0
N1913 N 0.93193 0.64359 0.88308 0.0
H1914 H 0.6853 0.97449 0.12908 0.0
H1915 H 0.6346 0.8693 0.0822 0.0
H1916 H 0.62958 0.94658 0.15647 0.0
H1917 H 0.69746 0.89134 0.06832 0.0
H1918 H 0.63114 0.89743 0.10866 0.0
H1919 H 0.68835 0.94462 0.10545 0.0
C1920 C 0.6736 0.96209 0.13012 0.0
C1921 C 0.65711 0.96316 0.14485 0.0
C1922 C 0.64572 0.89594 0.09992 0.0
C1923 C 0.6606 0.92853 0.11755 0.0
C1924 C 0.64773 0.87988 0.08484 0.0
C1925 C 0.66633 0.87799 0.07293 0.0
C1926 C 0.66235 0.91027 0.10292 0.0
C1927 C 0.6828 0.89217 0.07702 0.0
C1928 C 0.67544 0.94491 0.11662 0.0
C1929 C 0.64256 0.94644 0.14539 0.0
N1930 N 0.68035 0.90774 0.0915 0.0
N1931 N 0.64458 0.92983 0.13185 0.0
H1932 H 0.0363 0.68236 0.12552 0.0
H1933 H 0.14296 0.6322 0.08122 0.0
H1934 H 0.06422 0.62733 0.15422 0.0
H1935 H 0.1206 0.69476 0.06662 0.0
H1936 H 0.11401 0.62841 0.10679 0.0
H1937 H 0.06631 0.68503 0.10203 0.0
C1938 C 0.04872 0.67073 0.12688 0.0
C1939 C 0.04765 0.65459 0.14198 0.0
C1940 C 0.1156 0.64298 0.09806 0.0
C1941 C 0.08245 0.65765 0.11485 0.0
C1942 C 0.13211 0.64518 0.0835 0.0
C1943 C 0.1342 0.66381 0.07168 0.0
C1944 C 0.101 0.65946 0.10061 0.0
C1945 C 0.11966 0.68009 0.07527 0.0
C1946 C 0.06598 0.67234 0.11345 0.0
C1947 C 0.06437 0.64004 0.14285 0.0
N1948 N 0.10368 0.67747 0.08925 0.0
N1949 N 0.08109 0.64189 0.12943 0.0
H1950 H 0.94871 0.38745 0.15519 0.0
H1951 H 0.89168 0.31675 0.06747 0.0
H1952 H 0.97478 0.331 0.1275 0.0
H1953 H 0.87105 0.3801 0.08121 0.0
H1954 H 0.91988 0.32069 0.09307 0.0
H1955 H 0.91832 0.38443 0.1312 0.0
C1956 C 0.94812 0.3745 0.14409 0.0
C1957 C 0.9644 0.35948 0.1434 0.0
C1958 C 0.9092 0.33377 0.09058 0.0
C1959 C 0.92965 0.35581 0.11621 0.0
C1960 C 0.89297 0.33149 0.07598 0.0
C1961 C 0.87899 0.34816 0.07205 0.0
C1962 C 0.91161 0.35287 0.10151 0.0
C1963 C 0.88151 0.36685 0.0837 0.0
C1964 C 0.93077 0.37278 0.13043 0.0
C1965 C 0.96273 0.34301 0.12868 0.0
N1966 N 0.89757 0.36875 0.09789 0.0
N1967 N 0.94571 0.34161 0.11583 0.0
H1968 H 0.62731 0.82865 0.53758 0.0
H1969 H 0.58196 0.87994 0.64321 0.0
H1970 H 0.65499 0.88475 0.56441 0.0
H1971 H 0.56831 0.81685 0.62172 0.0
H1972 H 0.60774 0.88358 0.61442 0.0
H1973 H 0.604 0.82603 0.5677 0.0
C1974 C 0.62849 0.84053 0.54979 0.0
C1975 C 0.64324 0.85697 0.54837 0.0
C1976 C 0.59918 0.86892 0.61618 0.0
C1977 C 0.6163 0.85396 0.58331 0.0
C1978 C 0.58451 0.86681 0.6326 0.0
C1979 C 0.57286 0.84808 0.63485 0.0
C1980 C 0.60204 0.85225 0.60186 0.0
C1981 C 0.57679 0.83161 0.62063 0.0
C1982 C 0.61516 0.83894 0.56712 0.0
C1983 C 0.64389 0.87181 0.56484 0.0
N1984 N 0.59088 0.83415 0.60474 0.0
N1985 N 0.63055 0.86999 0.58164 0.0
H1986 H 0.19857 0.56767 0.62302 0.0
H1987 H 0.12747 0.65483 0.5656 0.0
H1988 H 0.13456 0.58014 0.64242 0.0
H1989 H 0.18506 0.62871 0.54044 0.0
H1990 H 0.13043 0.63065 0.59585 0.0
H1991 H 0.1949 0.59372 0.59517 0.0
C1992 C 0.18375 0.576 0.62154 0.0
C1993 C 0.16681 0.57158 0.63505 0.0
C1994 C 0.14235 0.63028 0.58363 0.0
C1995 C 0.16241 0.60153 0.60285 0.0
C1996 C 0.14067 0.64404 0.56638 0.0
C1997 C 0.156 0.64382 0.55037 0.0
C1998 C 0.1596 0.61642 0.58495 0.0
C1999 C 0.17279 0.6295 0.55226 0.0
C2000 C 0.18162 0.59086 0.60552 0.0
C2001 C 0.14802 0.58301 0.63232 0.0
N2002 N 0.17414 0.61652 0.56919 0.0
N2003 N 0.14627 0.59744 0.61646 0.0
H2004 H 0.38695 0.18333 0.53542 0.0
H2005 H 0.43214 0.1339 0.64209 0.0
H2006 H 0.35847 0.12855 0.56409 0.0
H2007 H 0.44714 0.19603 0.61877 0.0
H2008 H 0.40627 0.12997 0.61344 0.0
H2009 H 0.41083 0.18614 0.56511 0.0
C2010 C 0.38572 0.17178 0.54794 0.0
C2011 C 0.37056 0.15567 0.54717 0.0
C2012 C 0.41516 0.14449 0.61475 0.0
C2013 C 0.39814 0.15891 0.5816 0.0
C2014 C 0.42989 0.14676 0.63109 0.0
C2015 C 0.4419 0.16531 0.63283 0.0
C2016 C 0.41262 0.1608 0.59997 0.0
C2017 C 0.43834 0.18142 0.6181 0.0
C2018 C 0.39937 0.17348 0.56501 0.0
C2019 C 0.36987 0.14124 0.564 0.0
N2020 N 0.42418 0.17873 0.6023 0.0
N2021 N 0.3835 0.14317 0.58054 0.0
H2022 H 0.83066 0.38364 0.54022 0.0
H2023 H 0.88256 0.43161 0.64437 0.0
H2024 H 0.88671 0.35642 0.56758 0.0
H2025 H 0.8193 0.44474 0.62305 0.0
H2026 H 0.88592 0.40503 0.61628 0.0
H2027 H 0.82809 0.40756 0.56988 0.0
C2028 C 0.84252 0.38269 0.55246 0.0
C2029 C 0.85897 0.36791 0.55129 0.0
C2030 C 0.87129 0.41366 0.61792 0.0
C2031 C 0.85603 0.39559 0.58569 0.0
C2032 C 0.86934 0.42881 0.63394 0.0
C2033 C 0.85064 0.44052 0.63604 0.0
C2034 C 0.85449 0.41039 0.60385 0.0
C2035 C 0.83405 0.43621 0.62206 0.0
C2036 C 0.84096 0.39636 0.56952 0.0
C2037 C 0.87376 0.36752 0.56781 0.0
N2038 N 0.83643 0.42167 0.60656 0.0
N2039 N 0.872 0.38123 0.58432 0.0
H2040 H 0.58136 0.13292 0.3712 0.0
H2041 H 0.62665 0.18256 0.47779 0.0
H2042 H 0.56603 0.19488 0.39474 0.0
H2043 H 0.65521 0.12784 0.44909 0.0
H2044 H 0.60259 0.18518 0.44825 0.0
H2045 H 0.60724 0.12904 0.39986 0.0
C2046 C 0.58353 0.14575 0.38225 0.0
C2047 C 0.57144 0.16425 0.38057 0.0
C2048 C 0.6141 0.17258 0.4483 0.0
C2049 C 0.60074 0.15979 0.41342 0.0
C2050 C 0.62786 0.17098 0.4653 0.0
C2051 C 0.6431 0.15495 0.46601 0.0
C2052 C 0.61531 0.15798 0.43173 0.0
C2053 C 0.64375 0.14048 0.44921 0.0
C2054 C 0.59827 0.14351 0.3986 0.0
C2055 C 0.5749 0.18032 0.39536 0.0
N2056 N 0.63001 0.14231 0.43274 0.0
N2057 N 0.58908 0.17766 0.41115 0.0
H2058 H 0.87846 0.5811 0.36964 0.0
H2059 H 0.82797 0.62751 0.47518 0.0
H2060 H 0.8153 0.56805 0.39131 0.0
H2061 H 0.88453 0.65407 0.44817 0.0
H2062 H 0.82482 0.60422 0.44508 0.0
H2063 H 0.88234 0.60703 0.39822 0.0
C2064 C 0.86535 0.58383 0.38023 0.0
C2065 C 0.84654 0.57229 0.3781 0.0
C2066 C 0.83794 0.61513 0.44562 0.0
C2067 C 0.851 0.60165 0.41089 0.0
C2068 C 0.83984 0.62844 0.46294 0.0
C2069 C 0.85658 0.64286 0.46431 0.0
C2070 C 0.85294 0.61596 0.42939 0.0
C2071 C 0.87137 0.64322 0.44779 0.0
C2072 C 0.8676 0.59859 0.39655 0.0
C2073 C 0.83011 0.57645 0.39231 0.0
N2074 N 0.86925 0.6299 0.43102 0.0
N2075 N 0.83279 0.59062 0.40812 0.0
H2076 H 0.38465 0.82999 0.47414 0.0
H2077 H 0.43105 0.88111 0.36901 0.0
H2078 H 0.35702 0.88587 0.44682 0.0
H2079 H 0.44345 0.81749 0.38965 0.0
H2080 H 0.40502 0.88472 0.39755 0.0
H2081 H 0.40793 0.82706 0.44398 0.0
C2082 C 0.38348 0.84175 0.46181 0.0
C2083 C 0.36877 0.85825 0.46313 0.0
C2084 C 0.41335 0.86995 0.39565 0.0
C2085 C 0.39569 0.85488 0.42817 0.0
C2086 C 0.42818 0.86785 0.37938 0.0
C2087 C 0.43955 0.84898 0.37695 0.0
C2088 C 0.41007 0.85313 0.4097 0.0
C2089 C 0.43518 0.83236 0.39088 0.0
C2090 C 0.39678 0.83997 0.44446 0.0
C2091 C 0.36808 0.87289 0.44649 0.0
N2092 N 0.42097 0.83489 0.40667 0.0
N2093 N 0.38143 0.87093 0.42971 0.0
H2094 H 0.13417 0.43216 0.37079 0.0
H2095 H 0.18348 0.38466 0.47643 0.0
H2096 H 0.19689 0.44541 0.39358 0.0
H2097 H 0.12756 0.35804 0.44821 0.0
H2098 H 0.18682 0.40848 0.44677 0.0
H2099 H 0.13001 0.40591 0.39904 0.0
C2100 C 0.14712 0.42943 0.38157 0.0
C2101 C 0.16589 0.44109 0.37983 0.0
C2102 C 0.1738 0.39745 0.44695 0.0
C2103 C 0.16112 0.41135 0.41225 0.0
C2104 C 0.17179 0.38383 0.46402 0.0
C2105 C 0.15518 0.36922 0.46492 0.0
C2106 C 0.15903 0.39675 0.4305 0.0
C2107 C 0.14062 0.36901 0.44819 0.0
C2108 C 0.14471 0.41448 0.39769 0.0
C2109 C 0.18211 0.4369 0.39427 0.0
N2110 N 0.14284 0.38263 0.43167 0.0
N2111 N 0.17928 0.42255 0.40988 0.0
H2112 H 0.62512 0.56817 0.81493 0.0
H2113 H 0.56543 0.65359 0.88627 0.0
H2114 H 0.64302 0.5796 0.87957 0.0
H2115 H 0.54105 0.62728 0.82842 0.0
H2116 H 0.59609 0.62993 0.88338 0.0
H2117 H 0.59688 0.59382 0.81855 0.0
C2118 C 0.62324 0.5762 0.82988 0.0
C2119 C 0.63644 0.57159 0.84701 0.0
C2120 C 0.58395 0.62939 0.8714 0.0
C2121 C 0.60379 0.60107 0.85133 0.0
C2122 C 0.56646 0.64286 0.87303 0.0
C2123 C 0.55055 0.64243 0.8576 0.0
C2124 C 0.58562 0.61564 0.85409 0.0
C2125 C 0.55278 0.62821 0.84077 0.0
C2126 C 0.60699 0.59082 0.83197 0.0
C2127 C 0.63318 0.58263 0.86597 0.0
N2128 N 0.56994 0.61553 0.83945 0.0
N2129 N 0.61712 0.59683 0.86766 0.0
H2130 H 0.43285 0.64273 0.87807 0.0
H2131 H 0.38617 0.53633 0.8295 0.0
H2132 H 0.44701 0.6192 0.81582 0.0
H2133 H 0.3589 0.56527 0.88474 0.0
H2134 H 0.41009 0.56593 0.8261 0.0
H2135 H 0.40672 0.61439 0.88227 0.0
C2136 C 0.43035 0.63176 0.86523 0.0
C2137 C 0.44222 0.63334 0.84657 0.0
C2138 C 0.39889 0.56592 0.83899 0.0
C2139 C 0.41262 0.6008 0.85141 0.0
C2140 C 0.38522 0.54889 0.84103 0.0
C2141 C 0.37039 0.54821 0.85746 0.0
C2142 C 0.39803 0.58254 0.85354 0.0
C2143 C 0.37004 0.5651 0.87182 0.0
C2144 C 0.41547 0.61559 0.86766 0.0
C2145 C 0.43833 0.61865 0.8305 0.0
N2146 N 0.3837 0.58158 0.86957 0.0
N2147 N 0.42403 0.60299 0.83335 0.0
H2148 H 0.36859 0.43134 0.88018 0.0
H2149 H 0.47222 0.38286 0.82806 0.0
H2150 H 0.38875 0.44286 0.81622 0.0
H2151 H 0.44603 0.35704 0.88534 0.0
H2152 H 0.44217 0.4062 0.82512 0.0
H2153 H 0.3967 0.40485 0.88371 0.0
C2154 C 0.37874 0.42817 0.86683 0.0
C2155 C 0.37636 0.43945 0.8479 0.0
C2156 C 0.44286 0.39544 0.83834 0.0
C2157 C 0.40859 0.40944 0.85194 0.0
C2158 C 0.46016 0.3821 0.84013 0.0
C2159 C 0.46177 0.36791 0.85703 0.0
C2160 C 0.42692 0.3949 0.85365 0.0
C2161 C 0.44546 0.36771 0.87205 0.0
C2162 C 0.39478 0.41308 0.86888 0.0
C2163 C 0.38999 0.43468 0.83115 0.0
N2164 N 0.42872 0.3811 0.87007 0.0
N2165 N 0.40554 0.42022 0.83363 0.0
H2166 H 0.58012 0.36974 0.87891 0.0
H2167 H 0.62704 0.47568 0.82914 0.0
H2168 H 0.56503 0.39327 0.81689 0.0
H2169 H 0.65353 0.44738 0.88509 0.0
H2170 H 0.60272 0.4463 0.82614 0.0
H2171 H 0.60608 0.39827 0.88284 0.0
C2172 C 0.58237 0.38076 0.86607 0.0
C2173 C 0.57032 0.37911 0.84755 0.0
C2174 C 0.61382 0.44643 0.8391 0.0
C2175 C 0.59973 0.41185 0.85205 0.0
C2176 C 0.62773 0.46332 0.8409 0.0
C2177 C 0.64245 0.46407 0.8574 0.0
C2178 C 0.61441 0.43004 0.85396 0.0
C2179 C 0.64247 0.44747 0.8721 0.0
C2180 C 0.59714 0.39705 0.86835 0.0
C2181 C 0.57387 0.39388 0.83146 0.0
N2182 N 0.62864 0.43113 0.87005 0.0
N2183 N 0.58811 0.40962 0.83415 0.0
H2184 H 0.56415 0.35868 0.12802 0.0
H2185 H 0.61785 0.44967 0.19711 0.0
H2186 H 0.53602 0.38784 0.18271 0.0
H2187 H 0.64064 0.43385 0.13498 0.0
H2188 H 0.58987 0.42385 0.19311 0.0
H2189 H 0.59392 0.38345 0.13088 0.0
C2190 C 0.56416 0.37028 0.14054 0.0
C2191 C 0.5475 0.37112 0.15514 0.0
C2192 C 0.60096 0.42594 0.18031 0.0
C2193 C 0.58153 0.39923 0.15863 0.0
C2194 C 0.61707 0.44067 0.18262 0.0
C2195 C 0.63162 0.44405 0.16632 0.0
C2196 C 0.59927 0.4143 0.16155 0.0
C2197 C 0.62973 0.43179 0.14794 0.0
C2198 C 0.58115 0.38439 0.14216 0.0
C2199 C 0.5484 0.3865 0.17105 0.0
N2200 N 0.6138 0.41746 0.14601 0.0
N2201 N 0.56509 0.39978 0.17239 0.0
H2202 H 0.6565 0.56756 0.1273 0.0
H2203 H 0.57049 0.62714 0.19807 0.0
H2204 H 0.63023 0.54348 0.18529 0.0
H2205 H 0.58131 0.64413 0.13308 0.0
H2206 H 0.5968 0.59947 0.19489 0.0
H2207 H 0.63288 0.59828 0.13009 0.0
C2208 C 0.64583 0.56871 0.14059 0.0
C2209 C 0.64531 0.55282 0.15602 0.0
C2210 C 0.59353 0.60926 0.1813 0.0
C2211 C 0.61857 0.58792 0.15942 0.0
C2212 C 0.57853 0.62518 0.18313 0.0
C2213 C 0.57352 0.63793 0.16577 0.0
C2214 C 0.60378 0.60594 0.16196 0.0
C2215 C 0.58461 0.63462 0.14685 0.0
C2216 C 0.63237 0.58621 0.14215 0.0
C2217 C 0.63117 0.55518 0.1729 0.0
N2218 N 0.59918 0.61886 0.1454 0.0
N2219 N 0.6185 0.57234 0.17415 0.0
H2220 H 0.47758 0.62665 0.18329 0.0
H2221 H 0.3708 0.57982 0.13506 0.0
H2222 H 0.44829 0.65325 0.12792 0.0
H2223 H 0.39546 0.56431 0.19654 0.0
H2224 H 0.39938 0.60565 0.1307 0.0
H2225 H 0.44839 0.60209 0.18657 0.0
C2226 C 0.46505 0.62731 0.17172 0.0
C2227 C 0.46546 0.64214 0.1553 0.0
C2228 C 0.39841 0.59664 0.14517 0.0
C2229 C 0.43166 0.61385 0.15907 0.0
C2230 C 0.3821 0.58193 0.14769 0.0
C2231 C 0.38072 0.56984 0.1662 0.0
C2232 C 0.41352 0.59911 0.1612 0.0
C2233 C 0.39583 0.57322 0.182 0.0
C2234 C 0.44827 0.61327 0.17368 0.0
C2235 C 0.44865 0.64212 0.14084 0.0
N2236 N 0.41159 0.5874 0.17908 0.0
N2237 N 0.43242 0.62817 0.14305 0.0
H2238 H 0.44267 0.38814 0.20073 0.0
H2239 H 0.35605 0.44607 0.12928 0.0
H2240 H 0.43076 0.36927 0.13645 0.0
H2241 H 0.38206 0.4709 0.18707 0.0
H2242 H 0.37963 0.41537 0.13259 0.0
H2243 H 0.41618 0.41559 0.19726 0.0
C2244 C 0.43435 0.38964 0.18589 0.0
C2245 C 0.43911 0.37644 0.16881 0.0
C2246 C 0.38008 0.4276 0.14449 0.0
C2247 C 0.40866 0.40819 0.16464 0.0
C2248 C 0.36665 0.44509 0.14263 0.0
C2249 C 0.36711 0.46119 0.15786 0.0
C2250 C 0.39381 0.42612 0.16184 0.0
C2251 C 0.38116 0.45904 0.17484 0.0
C2252 C 0.41924 0.40543 0.18389 0.0
C2253 C 0.42765 0.37914 0.15002 0.0
N2254 N 0.39383 0.4419 0.17636 0.0
N2255 N 0.41301 0.39481 0.14837 0.0
H2256 H 0.8867 0.566 0.65588 0.0
H2257 H 0.81482 0.621 0.56786 0.0
H2258 H 0.83057 0.53838 0.62906 0.0
H2259 H 0.87786 0.64254 0.58167 0.0
H2260 H 0.81909 0.59295 0.59367 0.0
H2261 H 0.88284 0.59601 0.63166 0.0
C2262 C 0.87362 0.56619 0.64491 0.0
C2263 C 0.85897 0.54957 0.64452 0.0
C2264 C 0.832 0.60382 0.59114 0.0
C2265 C 0.85434 0.58393 0.61702 0.0
C2266 C 0.82954 0.61996 0.57644 0.0
C2267 C 0.84604 0.63415 0.57248 0.0
C2268 C 0.85111 0.60177 0.60214 0.0
C2269 C 0.86473 0.63194 0.58418 0.0
C2270 C 0.87143 0.58333 0.63112 0.0
C2271 C 0.84232 0.55072 0.62997 0.0
N2272 N 0.86679 0.616 0.59846 0.0
N2273 N 0.84045 0.56758 0.61693 0.0
H2274 H 0.83032 0.47583 0.38758 0.0
H2275 H 0.88098 0.36981 0.43286 0.0
H2276 H 0.88533 0.44774 0.35896 0.0
H2277 H 0.81862 0.39251 0.44787 0.0
H2278 H 0.88456 0.39843 0.4069 0.0
H2279 H 0.8279 0.44616 0.41149 0.0
C2280 C 0.842 0.46344 0.38632 0.0
C2281 C 0.85806 0.46436 0.37111 0.0
C2282 C 0.87008 0.39699 0.41581 0.0
C2283 C 0.85527 0.42994 0.39874 0.0
C2284 C 0.868 0.38066 0.43059 0.0
C2285 C 0.84949 0.37877 0.44264 0.0
C2286 C 0.85361 0.41158 0.41325 0.0
C2287 C 0.83321 0.39331 0.43905 0.0
C2288 C 0.84052 0.44637 0.4 0.0
C2289 C 0.87267 0.4477 0.3704 0.0
N2290 N 0.83572 0.40909 0.42484 0.0
N2291 N 0.87096 0.43116 0.38407 0.0
H2292 H 0.56328 0.88651 0.35912 0.0
H2293 H 0.62032 0.81413 0.44546 0.0
H2294 H 0.53727 0.82899 0.38456 0.0
H2295 H 0.64128 0.87733 0.43153 0.0
H2296 H 0.59182 0.81833 0.42015 0.0
H2297 H 0.5935 0.8828 0.38307 0.0
C2298 C 0.56385 0.87317 0.36975 0.0
C2299 C 0.54764 0.85806 0.3698 0.0
C2300 C 0.60265 0.8313 0.42253 0.0
C2301 C 0.58226 0.85362 0.39701 0.0
C2302 C 0.61905 0.82887 0.43695 0.0
C2303 C 0.63322 0.84543 0.44073 0.0
C2304 C 0.60031 0.85044 0.41165 0.0
C2305 C 0.63071 0.86416 0.42915 0.0
C2306 C 0.58112 0.87106 0.38339 0.0
C2307 C 0.54929 0.84108 0.38392 0.0
N2308 N 0.61452 0.86619 0.41515 0.0
N2309 N 0.56627 0.83931 0.39683 0.0
H2310 H 0.19937 0.62276 0.44671 0.0
H2311 H 0.12769 0.56556 0.3599 0.0
H2312 H 0.13578 0.64317 0.43373 0.0
H2313 H 0.18403 0.53912 0.38746 0.0
H2314 H 0.13115 0.59609 0.38364 0.0
H2315 H 0.1952 0.59453 0.42113 0.0
C2316 C 0.18454 0.62143 0.43835 0.0
C2317 C 0.16786 0.63534 0.44251 0.0
C2318 C 0.14267 0.58352 0.38444 0.0
C2319 C 0.16289 0.6027 0.41311 0.0
C2320 C 0.14071 0.5661 0.37093 0.0
C2321 C 0.15556 0.54967 0.37166 0.0
C2322 C 0.15974 0.58459 0.39855 0.0
C2323 C 0.17213 0.55128 0.38627 0.0
C2324 C 0.18213 0.60518 0.42378 0.0
C2325 C 0.14905 0.63277 0.43106 0.0
N2326 N 0.17378 0.56839 0.39898 0.0
N2327 N 0.14702 0.6167 0.41691 0.0
H2328 H 0.44708 0.12737 0.35599 0.0
H2329 H 0.38915 0.1991 0.44235 0.0
H2330 H 0.47258 0.18456 0.38268 0.0
H2331 H 0.36993 0.13495 0.43034 0.0
H2332 H 0.41694 0.19534 0.41622 0.0
H2333 H 0.41632 0.13086 0.37947 0.0
C2334 C 0.44624 0.14062 0.36673 0.0
C2335 C 0.46253 0.15563 0.36739 0.0
C2336 C 0.40663 0.18206 0.41919 0.0
C2337 C 0.42739 0.15983 0.39397 0.0
C2338 C 0.39065 0.18423 0.43409 0.0
C2339 C 0.37724 0.16727 0.4387 0.0
C2340 C 0.40935 0.16278 0.40867 0.0
C2341 C 0.37996 0.14842 0.42734 0.0
C2342 C 0.42871 0.14258 0.3801 0.0
C2343 C 0.46056 0.17249 0.38162 0.0
N2344 N 0.39579 0.14663 0.41289 0.0
N2345 N 0.44337 0.17413 0.39421 0.0
H2346 H 0.18428 0.47391 0.62795 0.0
H2347 H 0.13301 0.36859 0.58198 0.0
H2348 H 0.12806 0.4469 0.65524 0.0
H2349 H 0.19636 0.38963 0.56883 0.0
H2350 H 0.12942 0.39725 0.60786 0.0
H2351 H 0.18711 0.44379 0.60461 0.0
C2352 C 0.17242 0.46167 0.62903 0.0
C2353 C 0.15588 0.46303 0.64367 0.0
C2354 C 0.14414 0.39542 0.5994 0.0
C2355 C 0.15913 0.42813 0.61671 0.0
C2356 C 0.14622 0.37906 0.58467 0.0
C2357 C 0.165 0.37672 0.57313 0.0
C2358 C 0.16088 0.40961 0.60242 0.0
C2359 C 0.18156 0.39079 0.57725 0.0
C2360 C 0.17414 0.44434 0.61569 0.0
C2361 C 0.14108 0.44652 0.64422 0.0
N2362 N 0.17905 0.40665 0.59138 0.0
N2363 N 0.14301 0.42975 0.63087 0.0
H2364 H 0.6454 0.13468 0.58299 0.0
H2365 H 0.53981 0.18513 0.62892 0.0
H2366 H 0.62404 0.19794 0.56999 0.0
H2367 H 0.56709 0.1291 0.65626 0.0
H2368 H 0.57012 0.18839 0.60592 0.0
H2369 H 0.61697 0.131 0.60911 0.0
C2370 C 0.63492 0.14786 0.58577 0.0
C2371 C 0.63707 0.16662 0.57418 0.0
C2372 C 0.5696 0.17537 0.61695 0.0
C2373 C 0.60445 0.1624 0.60375 0.0
C2374 C 0.55216 0.17341 0.63009 0.0
C2375 C 0.55079 0.15676 0.64461 0.0
C2376 C 0.58594 0.16051 0.61804 0.0
C2377 C 0.56747 0.14218 0.64532 0.0
C2378 C 0.61869 0.14572 0.60065 0.0
C2379 C 0.623 0.18315 0.57843 0.0
N2380 N 0.58435 0.14433 0.63213 0.0
N2381 N 0.60727 0.18058 0.59269 0.0
H2382 H 0.47569 0.82954 0.62903 0.0
H2383 H 0.37057 0.88049 0.58216 0.0
H2384 H 0.44767 0.88496 0.6569 0.0
H2385 H 0.39319 0.818 0.56763 0.0
H2386 H 0.39868 0.88392 0.60868 0.0
H2387 H 0.44608 0.82689 0.60509 0.0
C2388 C 0.46331 0.84125 0.63013 0.0
C2389 C 0.46428 0.85754 0.64509 0.0
C2390 C 0.39733 0.86944 0.59976 0.0
C2391 C 0.42992 0.85449 0.6174 0.0
C2392 C 0.38129 0.86745 0.58465 0.0
C2393 C 0.37955 0.84895 0.57256 0.0
C2394 C 0.41177 0.85288 0.60262 0.0
C2395 C 0.3939 0.83259 0.57645 0.0
C2396 C 0.44627 0.83964 0.61643 0.0
C2397 C 0.4476 0.87213 0.64565 0.0
N2398 N 0.4094 0.83501 0.59098 0.0
N2399 N 0.43111 0.87033 0.63193 0.0
loop_
_geom_bond_atom_site_label_1
_geom_bond_atom_site_label_2
_geom_bond_distance
_geom_bond_site_symmetry_2
_ccdc_geom_bond_type
O0 Cd1 2.223 . S
O0 C8 1.315 . S
Cd1 O0 2.223 . S
Cd1 O4 2.297 . S
Cd1 O5 2.439 . S
Cd1 O11 2.240 . S
Cd2 O3 2.240 . S
Cd2 O10 2.223 . S
Cd2 O12 2.297 . S
Cd2 O13 2.439 . S
O3 Cd2 2.240 . S
O3 C8 1.279 . S
O4 Cd1 2.297 . S
O4 C6 1.247 . S
O5 Cd1 2.439 . S
O5 C6 1.208 . S
C6 O4 1.247 . S
C6 O5 1.208 . S
C7 O12 1.247 . S
C7 O13 1.208 . S
C8 O0 1.315 . S
C8 O3 1.279 . S
C9 O10 1.315 . S
C9 O11 1.279 . S
O10 Cd2 2.223 . S
O10 C9 1.315 . S
O11 Cd1 2.240 . S
O11 C9 1.279 . S
O12 Cd2 2.297 . S
O12 C7 1.247 . S
O13 Cd2 2.439 . S
O13 C7 1.208 . S
O14 Cd15 2.223 . S
O14 C22 1.315 . S
Cd15 O14 2.223 . S
Cd15 O18 2.297 . S
Cd15 O19 2.439 . S
Cd15 O25 2.240 . S
Cd16 O17 2.240 . S
Cd16 O24 2.223 . S
Cd16 O26 2.297 . S
Cd16 O27 2.439 . S
O17 Cd16 2.240 . S
O17 C22 1.279 . S
O18 Cd15 2.297 . S
O18 C20 1.247 . S
O19 Cd15 2.439 . S
O19 C20 1.208 . S
C20 O18 1.247 . S
C20 O19 1.208 . S
C21 O26 1.247 . S
C21 O27 1.208 . S
C22 O14 1.315 . S
C22 O17 1.279 . S
C23 O24 1.315 . S
C23 O25 1.279 . S
O24 Cd16 2.223 . S
O24 C23 1.315 . S
O25 Cd15 2.240 . S
O25 C23 1.279 . S
O26 Cd16 2.297 . S
O26 C21 1.247 . S
O27 Cd16 2.439 . S
O27 C21 1.208 . S
O28 Cd29 2.223 . S
O28 C36 1.315 . S
Cd29 O28 2.223 . S
Cd29 O32 2.297 . S
Cd29 O33 2.439 . S
Cd29 O39 2.240 . S
Cd30 O31 2.240 . S
Cd30 O38 2.223 . S
Cd30 O40 2.297 . S
Cd30 O41 2.439 . S
O31 Cd30 2.240 . S
O31 C36 1.279 . S
O32 Cd29 2.297 . S
O32 C34 1.247 . S
O33 Cd29 2.439 . S
O33 C34 1.208 . S
C34 O32 1.247 . S
C34 O33 1.208 . S
C35 O40 1.247 . S
C35 O41 1.208 . S
C36 O28 1.315 . S
C36 O31 1.279 . S
C37 O38 1.315 . S
C37 O39 1.279 . S
O38 Cd30 2.223 . S
O38 C37 1.315 . S
O39 Cd29 2.240 . S
O39 C37 1.279 . S
O40 Cd30 2.297 . S
O40 C35 1.247 . S
O41 Cd30 2.439 . S
O41 C35 1.208 . S
O42 Cd43 2.223 . S
O42 C50 1.315 . S
Cd43 O42 2.223 . S
Cd43 O46 2.297 . S
Cd43 O47 2.439 . S
Cd43 O53 2.240 . S
Cd44 O45 2.240 . S
Cd44 O52 2.223 . S
Cd44 O54 2.297 . S
Cd44 O55 2.439 . S
O45 Cd44 2.240 . S
O45 C50 1.279 . S
O46 Cd43 2.297 . S
O46 C48 1.247 . S
O47 Cd43 2.439 . S
O47 C48 1.208 . S
C48 O46 1.247 . S
C48 O47 1.208 . S
C49 O54 1.247 . S
C49 O55 1.208 . S
C50 O42 1.315 . S
C50 O45 1.279 . S
C51 O52 1.315 . S
C51 O53 1.279 . S
O52 Cd44 2.223 . S
O52 C51 1.315 . S
O53 Cd43 2.240 . S
O53 C51 1.279 . S
O54 Cd44 2.297 . S
O54 C49 1.247 . S
O55 Cd44 2.439 . S
O55 C49 1.208 . S
O56 Cd57 2.223 . S
O56 C64 1.315 . S
Cd57 O56 2.223 . S
Cd57 O60 2.297 . S
Cd57 O61 2.439 . S
Cd57 O67 2.240 . S
Cd58 O59 2.240 . S
Cd58 O66 2.223 . S
Cd58 O68 2.297 . S
Cd58 O69 2.439 . S
O59 Cd58 2.240 . S
O59 C64 1.279 . S
O60 Cd57 2.297 . S
O60 C62 1.247 . S
O61 Cd57 2.439 . S
O61 C62 1.208 . S
C62 O60 1.247 . S
C62 O61 1.208 . S
C63 O68 1.247 . S
C63 O69 1.208 . S
C64 O56 1.315 . S
C64 O59 1.279 . S
C65 O66 1.315 . S
C65 O67 1.279 . S
O66 Cd58 2.223 . S
O66 C65 1.315 . S
O67 Cd57 2.240 . S
O67 C65 1.279 . S
O68 Cd58 2.297 . S
O68 C63 1.247 . S
O69 Cd58 2.439 . S
O69 C63 1.208 . S
O70 Cd71 2.223 . S
O70 C78 1.315 . S
Cd71 O70 2.223 . S
Cd71 O74 2.297 . S
Cd71 O75 2.439 . S
Cd71 O81 2.240 . S
Cd72 O73 2.240 . S
Cd72 O80 2.223 . S
Cd72 O82 2.297 . S
Cd72 O83 2.439 . S
O73 Cd72 2.240 . S
O73 C78 1.279 . S
O74 Cd71 2.297 . S
O74 C76 1.247 . S
O75 Cd71 2.439 . S
O75 C76 1.208 . S
C76 O74 1.247 . S
C76 O75 1.208 . S
C77 O82 1.247 . S
C77 O83 1.208 . S
C78 O70 1.315 . S
C78 O73 1.279 . S
C79 O80 1.315 . S
C79 O81 1.279 . S
O80 Cd72 2.223 . S
O80 C79 1.315 . S
O81 Cd71 2.240 . S
O81 C79 1.279 . S
O82 Cd72 2.297 . S
O82 C77 1.247 . S
O83 Cd72 2.439 . S
O83 C77 1.208 . S
O84 Cd85 2.223 . S
O84 C92 1.315 . S
Cd85 O84 2.223 . S
Cd85 O88 2.297 . S
Cd85 O89 2.439 . S
Cd85 O95 2.240 . S
Cd86 O87 2.240 . S
Cd86 O94 2.223 . S
Cd86 O96 2.297 . S
Cd86 O97 2.439 . S
O87 Cd86 2.240 . S
O87 C92 1.279 . S
O88 Cd85 2.297 . S
O88 C90 1.247 . S
O89 Cd85 2.439 . S
O89 C90 1.208 . S
C90 O88 1.247 . S
C90 O89 1.208 . S
C91 O96 1.247 . S
C91 O97 1.208 . S
C92 O84 1.315 . S
C92 O87 1.279 . S
C93 O94 1.315 . S
C93 O95 1.279 . S
O94 Cd86 2.223 . S
O94 C93 1.315 . S
O95 Cd85 2.240 . S
O95 C93 1.279 . S
O96 Cd86 2.297 . S
O96 C91 1.247 . S
O97 Cd86 2.439 . S
O97 C91 1.208 . S
O98 Cd99 2.223 . S
O98 C106 1.315 . S
Cd99 O98 2.223 . S
Cd99 O102 2.297 . S
Cd99 O103 2.439 . S
Cd99 O109 2.240 . S
Cd100 O101 2.240 . S
Cd100 O108 2.223 . S
Cd100 O110 2.297 . S
Cd100 O111 2.439 . S
O101 Cd100 2.240 . S
O101 C106 1.279 . S
O102 Cd99 2.297 . S
O102 C104 1.247 . S
O103 Cd99 2.439 . S
O103 C104 1.208 . S
C104 O102 1.247 . S
C104 O103 1.208 . S
C105 O110 1.247 . S
C105 O111 1.208 . S
C106 O98 1.315 . S
C106 O101 1.279 . S
C107 O108 1.315 . S
C107 O109 1.279 . S
O108 Cd100 2.223 . S
O108 C107 1.315 . S
O109 Cd99 2.240 . S
O109 C107 1.279 . S
O110 Cd100 2.297 . S
O110 C105 1.247 . S
O111 Cd100 2.439 . S
O111 C105 1.208 . S
O112 Cd113 2.223 . S
O112 C120 1.315 . S
Cd113 O112 2.223 . S
Cd113 O116 2.297 . S
Cd113 O117 2.439 . S
Cd113 O123 2.240 . S
Cd114 O115 2.240 . S
Cd114 O122 2.223 . S
Cd114 O124 2.297 . S
Cd114 O125 2.439 . S
O115 Cd114 2.240 . S
O115 C120 1.279 . S
O116 Cd113 2.297 . S
O116 C118 1.247 . S
O117 Cd113 2.439 . S
O117 C118 1.208 . S
C118 O116 1.247 . S
C118 O117 1.208 . S
C119 O124 1.247 . S
C119 O125 1.208 . S
C120 O112 1.315 . S
C120 O115 1.279 . S
C121 O122 1.315 . S
C121 O123 1.279 . S
O122 Cd114 2.223 . S
O122 C121 1.315 . S
O123 Cd113 2.240 . S
O123 C121 1.279 . S
O124 Cd114 2.297 . S
O124 C119 1.247 . S
O125 Cd114 2.439 . S
O125 C119 1.208 . S
O126 Cd127 2.223 . S
O126 C134 1.315 . S
Cd127 O126 2.223 . S
Cd127 O130 2.297 . S
Cd127 O131 2.439 . S
Cd127 O137 2.240 . S
Cd128 O129 2.240 . S
Cd128 O136 2.223 . S
Cd128 O138 2.297 . S
Cd128 O139 2.439 . S
O129 Cd128 2.240 . S
O129 C134 1.279 . S
O130 Cd127 2.297 . S
O130 C132 1.247 . S
O131 Cd127 2.439 . S
O131 C132 1.208 . S
C132 O130 1.247 . S
C132 O131 1.208 . S
C133 O138 1.247 . S
C133 O139 1.208 . S
C134 O126 1.315 . S
C134 O129 1.279 . S
C135 O136 1.315 . S
C135 O137 1.279 . S
O136 Cd128 2.223 . S
O136 C135 1.315 . S
O137 Cd127 2.240 . S
O137 C135 1.279 . S
O138 Cd128 2.297 . S
O138 C133 1.247 . S
O139 Cd128 2.439 . S
O139 C133 1.208 . S
O140 Cd141 2.223 . S
O140 C148 1.315 . S
Cd141 O140 2.223 . S
Cd141 O144 2.297 . S
Cd141 O145 2.439 . S
Cd141 O151 2.240 . S
Cd142 O143 2.240 . S
Cd142 O150 2.223 . S
Cd142 O152 2.297 . S
Cd142 O153 2.439 . S
O143 Cd142 2.240 . S
O143 C148 1.279 . S
O144 Cd141 2.297 . S
O144 C146 1.247 . S
O145 Cd141 2.439 . S
O145 C146 1.208 . S
C146 O144 1.247 . S
C146 O145 1.208 . S
C147 O152 1.247 . S
C147 O153 1.208 . S
C148 O140 1.315 . S
C148 O143 1.279 . S
C149 O150 1.315 . S
C149 O151 1.279 . S
O150 Cd142 2.223 . S
O150 C149 1.315 . S
O151 Cd141 2.240 . S
O151 C149 1.279 . S
O152 Cd142 2.297 . S
O152 C147 1.247 . S
O153 Cd142 2.439 . S
O153 C147 1.208 . S
O154 Cd155 2.223 . S
O154 C162 1.315 . S
Cd155 O154 2.223 . S
Cd155 O158 2.297 . S
Cd155 O159 2.439 . S
Cd155 O165 2.240 . S
Cd156 O157 2.240 . S
Cd156 O164 2.223 . S
Cd156 O166 2.297 . S
Cd156 O167 2.439 . S
O157 Cd156 2.240 . S
O157 C162 1.279 . S
O158 Cd155 2.297 . S
O158 C160 1.247 . S
O159 Cd155 2.439 . S
O159 C160 1.208 . S
C160 O158 1.247 . S
C160 O159 1.208 . S
C161 O166 1.247 . S
C161 O167 1.208 . S
C162 O154 1.315 . S
C162 O157 1.279 . S
C163 O164 1.315 . S
C163 O165 1.279 . S
O164 Cd156 2.223 . S
O164 C163 1.315 . S
O165 Cd155 2.240 . S
O165 C163 1.279 . S
O166 Cd156 2.297 . S
O166 C161 1.247 . S
O167 Cd156 2.439 . S
O167 C161 1.208 . S
O168 Cd169 2.223 . S
O168 C176 1.315 . S
Cd169 O168 2.223 . S
Cd169 O172 2.297 . S
Cd169 O173 2.439 . S
Cd169 O179 2.240 . S
Cd170 O171 2.240 . S
Cd170 O178 2.223 . S
Cd170 O180 2.297 . S
Cd170 O181 2.439 . S
O171 Cd170 2.240 . S
O171 C176 1.279 . S
O172 Cd169 2.297 . S
O172 C174 1.247 . S
O173 Cd169 2.439 . S
O173 C174 1.208 . S
C174 O172 1.247 . S
C174 O173 1.208 . S
C175 O180 1.247 . S
C175 O181 1.208 . S
C176 O168 1.315 . S
C176 O171 1.279 . S
C177 O178 1.315 . S
C177 O179 1.279 . S
O178 Cd170 2.223 . S
O178 C177 1.315 . S
O179 Cd169 2.240 . S
O179 C177 1.279 . S
O180 Cd170 2.297 . S
O180 C175 1.247 . S
O181 Cd170 2.439 . S
O181 C175 1.208 . S
O182 Cd183 2.223 . S
O182 C190 1.315 . S
Cd183 O182 2.223 . S
Cd183 O186 2.297 . S
Cd183 O187 2.439 . S
Cd183 O193 2.240 . S
Cd184 O185 2.240 . S
Cd184 O192 2.223 . S
Cd184 O194 2.297 . S
Cd184 O195 2.439 . S
O185 Cd184 2.240 . S
O185 C190 1.279 . S
O186 Cd183 2.297 . S
O186 C188 1.247 . S
O187 Cd183 2.439 . S
O187 C188 1.208 . S
C188 O186 1.247 . S
C188 O187 1.208 . S
C189 O194 1.247 . S
C189 O195 1.208 . S
C190 O182 1.315 . S
C190 O185 1.279 . S
C191 O192 1.315 . S
C191 O193 1.279 . S
O192 Cd184 2.223 . S
O192 C191 1.315 . S
O193 Cd183 2.240 . S
O193 C191 1.279 . S
O194 Cd184 2.297 . S
O194 C189 1.247 . S
O195 Cd184 2.439 . S
O195 C189 1.208 . S
O196 Cd197 2.223 . S
O196 C204 1.315 . S
Cd197 O196 2.223 . S
Cd197 O200 2.297 . S
Cd197 O201 2.439 . S
Cd197 O207 2.240 . S
Cd198 O199 2.240 . S
Cd198 O206 2.223 . S
Cd198 O208 2.297 . S
Cd198 O209 2.439 . S
O199 Cd198 2.240 . S
O199 C204 1.279 . S
O200 Cd197 2.297 . S
O200 C202 1.247 . S
O201 Cd197 2.439 . S
O201 C202 1.208 . S
C202 O200 1.247 . S
C202 O201 1.208 . S
C203 O208 1.247 . S
C203 O209 1.208 . S
C204 O196 1.315 . S
C204 O199 1.279 . S
C205 O206 1.315 . S
C205 O207 1.279 . S
O206 Cd198 2.223 . S
O206 C205 1.315 . S
O207 Cd197 2.240 . S
O207 C205 1.279 . S
O208 Cd198 2.297 . S
O208 C203 1.247 . S
O209 Cd198 2.439 . S
O209 C203 1.208 . S
O210 Cd211 2.223 . S
O210 C218 1.315 . S
Cd211 O210 2.223 . S
Cd211 O214 2.297 . S
Cd211 O215 2.439 . S
Cd211 O221 2.240 . S
Cd212 O213 2.240 . S
Cd212 O220 2.223 . S
Cd212 O222 2.297 . S
Cd212 O223 2.439 . S
O213 Cd212 2.240 . S
O213 C218 1.279 . S
O214 Cd211 2.297 . S
O214 C216 1.247 . S
O215 Cd211 2.439 . S
O215 C216 1.208 . S
C216 O214 1.247 . S
C216 O215 1.208 . S
C217 O222 1.247 . S
C217 O223 1.208 . S
C218 O210 1.315 . S
C218 O213 1.279 . S
C219 O220 1.315 . S
C219 O221 1.279 . S
O220 Cd212 2.223 . S
O220 C219 1.315 . S
O221 Cd211 2.240 . S
O221 C219 1.279 . S
O222 Cd212 2.297 . S
O222 C217 1.247 . S
O223 Cd212 2.439 . S
O223 C217 1.208 . S
O224 Cd225 2.223 . S
O224 C232 1.315 . S
Cd225 O224 2.223 . S
Cd225 O228 2.297 . S
Cd225 O229 2.439 . S
Cd225 O235 2.240 . S
Cd226 O227 2.240 . S
Cd226 O234 2.223 . S
Cd226 O236 2.297 . S
Cd226 O237 2.439 . S
O227 Cd226 2.240 . S
O227 C232 1.279 . S
O228 Cd225 2.297 . S
O228 C230 1.247 . S
O229 Cd225 2.439 . S
O229 C230 1.208 . S
C230 O228 1.247 . S
C230 O229 1.208 . S
C231 O236 1.247 . S
C231 O237 1.208 . S
C232 O224 1.315 . S
C232 O227 1.279 . S
C233 O234 1.315 . S
C233 O235 1.279 . S
O234 Cd226 2.223 . S
O234 C233 1.315 . S
O235 Cd225 2.240 . S
O235 C233 1.279 . S
O236 Cd226 2.297 . S
O236 C231 1.247 . S
O237 Cd226 2.439 . S
O237 C231 1.208 . S
O238 Cd239 2.223 . S
O238 C246 1.315 . S
Cd239 O238 2.223 . S
Cd239 O242 2.297 . S
Cd239 O243 2.439 . S
Cd239 O249 2.240 . S
Cd240 O241 2.240 . S
Cd240 O248 2.223 . S
Cd240 O250 2.297 . S
Cd240 O251 2.439 . S
O241 Cd240 2.240 . S
O241 C246 1.279 . S
O242 Cd239 2.297 . S
O242 C244 1.247 . S
O243 Cd239 2.439 . S
O243 C244 1.208 . S
C244 O242 1.247 . S
C244 O243 1.208 . S
C245 O250 1.247 . S
C245 O251 1.208 . S
C246 O238 1.315 . S
C246 O241 1.279 . S
C247 O248 1.315 . S
C247 O249 1.279 . S
O248 Cd240 2.223 . S
O248 C247 1.315 . S
O249 Cd239 2.240 . S
O249 C247 1.279 . S
O250 Cd240 2.297 . S
O250 C245 1.247 . S
O251 Cd240 2.439 . S
O251 C245 1.208 . S
O252 Cd253 2.223 . S
O252 C260 1.315 . S
Cd253 O252 2.223 . S
Cd253 O256 2.297 . S
Cd253 O257 2.439 . S
Cd253 O263 2.240 . S
Cd254 O255 2.240 . S
Cd254 O262 2.223 . S
Cd254 O264 2.297 . S
Cd254 O265 2.439 . S
O255 Cd254 2.240 . S
O255 C260 1.279 . S
O256 Cd253 2.297 . S
O256 C258 1.247 . S
O257 Cd253 2.439 . S
O257 C258 1.208 . S
C258 O256 1.247 . S
C258 O257 1.208 . S
C259 O264 1.247 . S
C259 O265 1.208 . S
C260 O252 1.315 . S
C260 O255 1.279 . S
C261 O262 1.315 . S
C261 O263 1.279 . S
O262 Cd254 2.223 . S
O262 C261 1.315 . S
O263 Cd253 2.240 . S
O263 C261 1.279 . S
O264 Cd254 2.297 . S
O264 C259 1.247 . S
O265 Cd254 2.439 . S
O265 C259 1.208 . S
O266 Cd267 2.223 . S
O266 C274 1.315 . S
Cd267 O266 2.223 . S
Cd267 O270 2.297 . S
Cd267 O271 2.439 . S
Cd267 O277 2.240 . S
Cd268 O269 2.240 . S
Cd268 O276 2.223 . S
Cd268 O278 2.297 . S
Cd268 O279 2.439 . S
O269 Cd268 2.240 . S
O269 C274 1.279 . S
O270 Cd267 2.297 . S
O270 C272 1.247 . S
O271 Cd267 2.439 . S
O271 C272 1.208 . S
C272 O270 1.247 . S
C272 O271 1.208 . S
C273 O278 1.247 . S
C273 O279 1.208 . S
C274 O266 1.315 . S
C274 O269 1.279 . S
C275 O276 1.315 . S
C275 O277 1.279 . S
O276 Cd268 2.223 . S
O276 C275 1.315 . S
O277 Cd267 2.240 . S
O277 C275 1.279 . S
O278 Cd268 2.297 . S
O278 C273 1.247 . S
O279 Cd268 2.439 . S
O279 C273 1.208 . S
O280 Cd281 2.223 . S
O280 C288 1.315 . S
Cd281 O280 2.223 . S
Cd281 O284 2.297 . S
Cd281 O285 2.439 . S
Cd281 O291 2.240 . S
Cd282 O283 2.240 . S
Cd282 O290 2.223 . S
Cd282 O292 2.297 . S
Cd282 O293 2.439 . S
O283 Cd282 2.240 . S
O283 C288 1.279 . S
O284 Cd281 2.297 . S
O284 C286 1.247 . S
O285 Cd281 2.439 . S
O285 C286 1.208 . S
C286 O284 1.247 . S
C286 O285 1.208 . S
C287 O292 1.247 . S
C287 O293 1.208 . S
C288 O280 1.315 . S
C288 O283 1.279 . S
C289 O290 1.315 . S
C289 O291 1.279 . S
O290 Cd282 2.223 . S
O290 C289 1.315 . S
O291 Cd281 2.240 . S
O291 C289 1.279 . S
O292 Cd282 2.297 . S
O292 C287 1.247 . S
O293 Cd282 2.439 . S
O293 C287 1.208 . S
O294 Cd295 2.223 . S
O294 C302 1.315 . S
Cd295 O294 2.223 . S
Cd295 O298 2.297 . S
Cd295 O299 2.439 . S
Cd295 O305 2.240 . S
Cd296 O297 2.240 . S
Cd296 O304 2.223 . S
Cd296 O306 2.297 . S
Cd296 O307 2.439 . S
O297 Cd296 2.240 . S
O297 C302 1.279 . S
O298 Cd295 2.297 . S
O298 C300 1.247 . S
O299 Cd295 2.439 . S
O299 C300 1.208 . S
C300 O298 1.247 . S
C300 O299 1.208 . S
C301 O306 1.247 . S
C301 O307 1.208 . S
C302 O294 1.315 . S
C302 O297 1.279 . S
C303 O304 1.315 . S
C303 O305 1.279 . S
O304 Cd296 2.223 . S
O304 C303 1.315 . S
O305 Cd295 2.240 . S
O305 C303 1.279 . S
O306 Cd296 2.297 . S
O306 C301 1.247 . S
O307 Cd296 2.439 . S
O307 C301 1.208 . S
O308 Cd309 2.223 . S
O308 C316 1.315 . S
Cd309 O308 2.223 . S
Cd309 O312 2.297 . S
Cd309 O313 2.439 . S
Cd309 O319 2.240 . S
Cd310 O311 2.240 . S
Cd310 O318 2.223 . S
Cd310 O320 2.297 . S
Cd310 O321 2.439 . S
O311 Cd310 2.240 . S
O311 C316 1.279 . S
O312 Cd309 2.297 . S
O312 C314 1.247 . S
O313 Cd309 2.439 . S
O313 C314 1.208 . S
C314 O312 1.247 . S
C314 O313 1.208 . S
C315 O320 1.247 . S
C315 O321 1.208 . S
C316 O308 1.315 . S
C316 O311 1.279 . S
C317 O318 1.315 . S
C317 O319 1.279 . S
O318 Cd310 2.223 . S
O318 C317 1.315 . S
O319 Cd309 2.240 . S
O319 C317 1.279 . S
O320 Cd310 2.297 . S
O320 C315 1.247 . S
O321 Cd310 2.439 . S
O321 C315 1.208 . S
O322 Cd323 2.223 . S
O322 C330 1.315 . S
Cd323 O322 2.223 . S
Cd323 O326 2.297 . S
Cd323 O327 2.439 . S
Cd323 O333 2.240 . S
Cd324 O325 2.240 . S
Cd324 O332 2.223 . S
Cd324 O334 2.297 . S
Cd324 O335 2.439 . S
O325 Cd324 2.240 . S
O325 C330 1.279 . S
O326 Cd323 2.297 . S
O326 C328 1.247 . S
O327 Cd323 2.439 . S
O327 C328 1.208 . S
C328 O326 1.247 . S
C328 O327 1.208 . S
C329 O334 1.247 . S
C329 O335 1.208 . S
C330 O322 1.315 . S
C330 O325 1.279 . S
C331 O332 1.315 . S
C331 O333 1.279 . S
O332 Cd324 2.223 . S
O332 C331 1.315 . S
O333 Cd323 2.240 . S
O333 C331 1.279 . S
O334 Cd324 2.297 . S
O334 C329 1.247 . S
O335 Cd324 2.439 . S
O335 C329 1.208 . S
O336 Cd337 2.223 . S
O336 C344 1.315 . S
Cd337 O336 2.223 . S
Cd337 O340 2.297 . S
Cd337 O341 2.439 . S
Cd337 O347 2.240 . S
Cd338 O339 2.240 . S
Cd338 O346 2.223 . S
Cd338 O348 2.297 . S
Cd338 O349 2.439 . S
O339 Cd338 2.240 . S
O339 C344 1.279 . S
O340 Cd337 2.297 . S
O340 C342 1.247 . S
O341 Cd337 2.439 . S
O341 C342 1.208 . S
C342 O340 1.247 . S
C342 O341 1.208 . S
C343 O348 1.247 . S
C343 O349 1.208 . S
C344 O336 1.315 . S
C344 O339 1.279 . S
C345 O346 1.315 . S
C345 O347 1.279 . S
O346 Cd338 2.223 . S
O346 C345 1.315 . S
O347 Cd337 2.240 . S
O347 C345 1.279 . S
O348 Cd338 2.297 . S
O348 C343 1.247 . S
O349 Cd338 2.439 . S
O349 C343 1.208 . S
O350 Cd351 2.223 . S
O350 C358 1.315 . S
Cd351 O350 2.223 . S
Cd351 O354 2.297 . S
Cd351 O355 2.439 . S
Cd351 O361 2.240 . S
Cd352 O353 2.240 . S
Cd352 O360 2.223 . S
Cd352 O362 2.297 . S
Cd352 O363 2.439 . S
O353 Cd352 2.240 . S
O353 C358 1.279 . S
O354 Cd351 2.297 . S
O354 C356 1.247 . S
O355 Cd351 2.439 . S
O355 C356 1.208 . S
C356 O354 1.247 . S
C356 O355 1.208 . S
C357 O362 1.247 . S
C357 O363 1.208 . S
C358 O350 1.315 . S
C358 O353 1.279 . S
C359 O360 1.315 . S
C359 O361 1.279 . S
O360 Cd352 2.223 . S
O360 C359 1.315 . S
O361 Cd351 2.240 . S
O361 C359 1.279 . S
O362 Cd352 2.297 . S
O362 C357 1.247 . S
O363 Cd352 2.439 . S
O363 C357 1.208 . S
O364 Cd365 2.223 . S
O364 C372 1.315 . S
Cd365 O364 2.223 . S
Cd365 O368 2.297 . S
Cd365 O369 2.439 . S
Cd365 O375 2.240 . S
Cd366 O367 2.240 . S
Cd366 O374 2.223 . S
Cd366 O376 2.297 . S
Cd366 O377 2.439 . S
O367 Cd366 2.240 . S
O367 C372 1.279 . S
O368 Cd365 2.297 . S
O368 C370 1.247 . S
O369 Cd365 2.439 . S
O369 C370 1.208 . S
C370 O368 1.247 . S
C370 O369 1.208 . S
C371 O376 1.247 . S
C371 O377 1.208 . S
C372 O364 1.315 . S
C372 O367 1.279 . S
C373 O374 1.315 . S
C373 O375 1.279 . S
O374 Cd366 2.223 . S
O374 C373 1.315 . S
O375 Cd365 2.240 . S
O375 C373 1.279 . S
O376 Cd366 2.297 . S
O376 C371 1.247 . S
O377 Cd366 2.439 . S
O377 C371 1.208 . S
O378 Cd379 2.223 . S
O378 C386 1.315 . S
Cd379 O378 2.223 . S
Cd379 O382 2.297 . S
Cd379 O383 2.439 . S
Cd379 O389 2.240 . S
Cd380 O381 2.240 . S
Cd380 O388 2.223 . S
Cd380 O390 2.297 . S
Cd380 O391 2.439 . S
O381 Cd380 2.240 . S
O381 C386 1.279 . S
O382 Cd379 2.297 . S
O382 C384 1.247 . S
O383 Cd379 2.439 . S
O383 C384 1.208 . S
C384 O382 1.247 . S
C384 O383 1.208 . S
C385 O390 1.247 . S
C385 O391 1.208 . S
C386 O378 1.315 . S
C386 O381 1.279 . S
C387 O388 1.315 . S
C387 O389 1.279 . S
O388 Cd380 2.223 . S
O388 C387 1.315 . S
O389 Cd379 2.240 . S
O389 C387 1.279 . S
O390 Cd380 2.297 . S
O390 C385 1.247 . S
O391 Cd380 2.439 . S
O391 C385 1.208 . S
O392 Cd393 2.223 . S
O392 C400 1.315 . S
Cd393 O392 2.223 . S
Cd393 O396 2.297 . S
Cd393 O397 2.439 . S
Cd393 O403 2.240 . S
Cd394 O395 2.240 . S
Cd394 O402 2.223 . S
Cd394 O404 2.297 . S
Cd394 O405 2.439 . S
O395 Cd394 2.240 . S
O395 C400 1.279 . S
O396 Cd393 2.297 . S
O396 C398 1.247 . S
O397 Cd393 2.439 . S
O397 C398 1.208 . S
C398 O396 1.247 . S
C398 O397 1.208 . S
C399 O404 1.247 . S
C399 O405 1.208 . S
C400 O392 1.315 . S
C400 O395 1.279 . S
C401 O402 1.315 . S
C401 O403 1.279 . S
O402 Cd394 2.223 . S
O402 C401 1.315 . S
O403 Cd393 2.240 . S
O403 C401 1.279 . S
O404 Cd394 2.297 . S
O404 C399 1.247 . S
O405 Cd394 2.439 . S
O405 C399 1.208 . S
O406 Cd407 2.223 . S
O406 C414 1.315 . S
Cd407 O406 2.223 . S
Cd407 O410 2.297 . S
Cd407 O411 2.439 . S
Cd407 O417 2.240 . S
Cd408 O409 2.240 . S
Cd408 O416 2.223 . S
Cd408 O418 2.297 . S
Cd408 O419 2.439 . S
O409 Cd408 2.240 . S
O409 C414 1.279 . S
O410 Cd407 2.297 . S
O410 C412 1.247 . S
O411 Cd407 2.439 . S
O411 C412 1.208 . S
C412 O410 1.247 . S
C412 O411 1.208 . S
C413 O418 1.247 . S
C413 O419 1.208 . S
C414 O406 1.315 . S
C414 O409 1.279 . S
C415 O416 1.315 . S
C415 O417 1.279 . S
O416 Cd408 2.223 . S
O416 C415 1.315 . S
O417 Cd407 2.240 . S
O417 C415 1.279 . S
O418 Cd408 2.297 . S
O418 C413 1.247 . S
O419 Cd408 2.439 . S
O419 C413 1.208 . S
O420 Cd421 2.223 . S
O420 C428 1.315 . S
Cd421 O420 2.223 . S
Cd421 O424 2.297 . S
Cd421 O425 2.439 . S
Cd421 O431 2.240 . S
Cd422 O423 2.240 . S
Cd422 O430 2.223 . S
Cd422 O432 2.297 . S
Cd422 O433 2.439 . S
O423 Cd422 2.240 . S
O423 C428 1.279 . S
O424 Cd421 2.297 . S
O424 C426 1.247 . S
O425 Cd421 2.439 . S
O425 C426 1.208 . S
C426 O424 1.247 . S
C426 O425 1.208 . S
C427 O432 1.247 . S
C427 O433 1.208 . S
C428 O420 1.315 . S
C428 O423 1.279 . S
C429 O430 1.315 . S
C429 O431 1.279 . S
O430 Cd422 2.223 . S
O430 C429 1.315 . S
O431 Cd421 2.240 . S
O431 C429 1.279 . S
O432 Cd422 2.297 . S
O432 C427 1.247 . S
O433 Cd422 2.439 . S
O433 C427 1.208 . S
O434 Cd435 2.223 . S
O434 C442 1.315 . S
Cd435 O434 2.223 . S
Cd435 O438 2.297 . S
Cd435 O439 2.439 . S
Cd435 O445 2.240 . S
Cd436 O437 2.240 . S
Cd436 O444 2.223 . S
Cd436 O446 2.297 . S
Cd436 O447 2.439 . S
O437 Cd436 2.240 . S
O437 C442 1.279 . S
O438 Cd435 2.297 . S
O438 C440 1.247 . S
O439 Cd435 2.439 . S
O439 C440 1.208 . S
C440 O438 1.247 . S
C440 O439 1.208 . S
C441 O446 1.247 . S
C441 O447 1.208 . S
C442 O434 1.315 . S
C442 O437 1.279 . S
C443 O444 1.315 . S
C443 O445 1.279 . S
O444 Cd436 2.223 . S
O444 C443 1.315 . S
O445 Cd435 2.240 . S
O445 C443 1.279 . S
O446 Cd436 2.297 . S
O446 C441 1.247 . S
O447 Cd436 2.439 . S
O447 C441 1.208 . S
O448 Cd449 2.223 . S
O448 C456 1.315 . S
Cd449 O448 2.223 . S
Cd449 O452 2.297 . S
Cd449 O453 2.439 . S
Cd449 O459 2.240 . S
Cd450 O451 2.240 . S
Cd450 O458 2.223 . S
Cd450 O460 2.297 . S
Cd450 O461 2.439 . S
O451 Cd450 2.240 . S
O451 C456 1.279 . S
O452 Cd449 2.297 . S
O452 C454 1.247 . S
O453 Cd449 2.439 . S
O453 C454 1.208 . S
C454 O452 1.247 . S
C454 O453 1.208 . S
C455 O460 1.247 . S
C455 O461 1.208 . S
C456 O448 1.315 . S
C456 O451 1.279 . S
C457 O458 1.315 . S
C457 O459 1.279 . S
O458 Cd450 2.223 . S
O458 C457 1.315 . S
O459 Cd449 2.240 . S
O459 C457 1.279 . S
O460 Cd450 2.297 . S
O460 C455 1.247 . S
O461 Cd450 2.439 . S
O461 C455 1.208 . S
O462 Cd463 2.223 . S
O462 C470 1.315 . S
Cd463 O462 2.223 . S
Cd463 O466 2.297 . S
Cd463 O467 2.439 . S
Cd463 O473 2.240 . S
Cd464 O465 2.240 . S
Cd464 O472 2.223 . S
Cd464 O474 2.297 . S
Cd464 O475 2.439 . S
O465 Cd464 2.240 . S
O465 C470 1.279 . S
O466 Cd463 2.297 . S
O466 C468 1.247 . S
O467 Cd463 2.439 . S
O467 C468 1.208 . S
C468 O466 1.247 . S
C468 O467 1.208 . S
C469 O474 1.247 . S
C469 O475 1.208 . S
C470 O462 1.315 . S
C470 O465 1.279 . S
C471 O472 1.315 . S
C471 O473 1.279 . S
O472 Cd464 2.223 . S
O472 C471 1.315 . S
O473 Cd463 2.240 . S
O473 C471 1.279 . S
O474 Cd464 2.297 . S
O474 C469 1.247 . S
O475 Cd464 2.439 . S
O475 C469 1.208 . S
O476 Cd477 2.223 . S
O476 C484 1.315 . S
Cd477 O476 2.223 . S
Cd477 O480 2.297 . S
Cd477 O481 2.439 . S
Cd477 O487 2.240 . S
Cd478 O479 2.240 . S
Cd478 O486 2.223 . S
Cd478 O488 2.297 . S
Cd478 O489 2.439 . S
O479 Cd478 2.240 . S
O479 C484 1.279 . S
O480 Cd477 2.297 . S
O480 C482 1.247 . S
O481 Cd477 2.439 . S
O481 C482 1.208 . S
C482 O480 1.247 . S
C482 O481 1.208 . S
C483 O488 1.247 . S
C483 O489 1.208 . S
C484 O476 1.315 . S
C484 O479 1.279 . S
C485 O486 1.315 . S
C485 O487 1.279 . S
O486 Cd478 2.223 . S
O486 C485 1.315 . S
O487 Cd477 2.240 . S
O487 C485 1.279 . S
O488 Cd478 2.297 . S
O488 C483 1.247 . S
O489 Cd478 2.439 . S
O489 C483 1.208 . S
O490 Cd491 2.223 . S
O490 C498 1.315 . S
Cd491 O490 2.223 . S
Cd491 O494 2.297 . S
Cd491 O495 2.439 . S
Cd491 O501 2.240 . S
Cd492 O493 2.240 . S
Cd492 O500 2.223 . S
Cd492 O502 2.297 . S
Cd492 O503 2.439 . S
O493 Cd492 2.240 . S
O493 C498 1.279 . S
O494 Cd491 2.297 . S
O494 C496 1.247 . S
O495 Cd491 2.439 . S
O495 C496 1.208 . S
C496 O494 1.247 . S
C496 O495 1.208 . S
C497 O502 1.247 . S
C497 O503 1.208 . S
C498 O490 1.315 . S
C498 O493 1.279 . S
C499 O500 1.315 . S
C499 O501 1.279 . S
O500 Cd492 2.223 . S
O500 C499 1.315 . S
O501 Cd491 2.240 . S
O501 C499 1.279 . S
O502 Cd492 2.297 . S
O502 C497 1.247 . S
O503 Cd492 2.439 . S
O503 C497 1.208 . S
O504 Cd505 2.223 . S
O504 C512 1.315 . S
Cd505 O504 2.223 . S
Cd505 O508 2.297 . S
Cd505 O509 2.439 . S
Cd505 O515 2.240 . S
Cd506 O507 2.240 . S
Cd506 O514 2.223 . S
Cd506 O516 2.297 . S
Cd506 O517 2.439 . S
O507 Cd506 2.240 . S
O507 C512 1.279 . S
O508 Cd505 2.297 . S
O508 C510 1.247 . S
O509 Cd505 2.439 . S
O509 C510 1.208 . S
C510 O508 1.247 . S
C510 O509 1.208 . S
C511 O516 1.247 . S
C511 O517 1.208 . S
C512 O504 1.315 . S
C512 O507 1.279 . S
C513 O514 1.315 . S
C513 O515 1.279 . S
O514 Cd506 2.223 . S
O514 C513 1.315 . S
O515 Cd505 2.240 . S
O515 C513 1.279 . S
O516 Cd506 2.297 . S
O516 C511 1.247 . S
O517 Cd506 2.439 . S
O517 C511 1.208 . S
O518 Cd519 2.223 . S
O518 C526 1.315 . S
Cd519 O518 2.223 . S
Cd519 O522 2.297 . S
Cd519 O523 2.439 . S
Cd519 O529 2.240 . S
Cd520 O521 2.240 . S
Cd520 O528 2.223 . S
Cd520 O530 2.297 . S
Cd520 O531 2.439 . S
O521 Cd520 2.240 . S
O521 C526 1.279 . S
O522 Cd519 2.297 . S
O522 C524 1.247 . S
O523 Cd519 2.439 . S
O523 C524 1.208 . S
C524 O522 1.247 . S
C524 O523 1.208 . S
C525 O530 1.247 . S
C525 O531 1.208 . S
C526 O518 1.315 . S
C526 O521 1.279 . S
C527 O528 1.315 . S
C527 O529 1.279 . S
O528 Cd520 2.223 . S
O528 C527 1.315 . S
O529 Cd519 2.240 . S
O529 C527 1.279 . S
O530 Cd520 2.297 . S
O530 C525 1.247 . S
O531 Cd520 2.439 . S
O531 C525 1.208 . S
O532 Cd533 2.223 . S
O532 C540 1.315 . S
Cd533 O532 2.223 . S
Cd533 O536 2.297 . S
Cd533 O537 2.439 . S
Cd533 O543 2.240 . S
Cd534 O535 2.240 . S
Cd534 O542 2.223 . S
Cd534 O544 2.297 . S
Cd534 O545 2.439 . S
O535 Cd534 2.240 . S
O535 C540 1.279 . S
O536 Cd533 2.297 . S
O536 C538 1.247 . S
O537 Cd533 2.439 . S
O537 C538 1.208 . S
C538 O536 1.247 . S
C538 O537 1.208 . S
C539 O544 1.247 . S
C539 O545 1.208 . S
C540 O532 1.315 . S
C540 O535 1.279 . S
C541 O542 1.315 . S
C541 O543 1.279 . S
O542 Cd534 2.223 . S
O542 C541 1.315 . S
O543 Cd533 2.240 . S
O543 C541 1.279 . S
O544 Cd534 2.297 . S
O544 C539 1.247 . S
O545 Cd534 2.439 . S
O545 C539 1.208 . S
O546 Cd547 2.223 . S
O546 C554 1.315 . S
Cd547 O546 2.223 . S
Cd547 O550 2.297 . S
Cd547 O551 2.439 . S
Cd547 O557 2.240 . S
Cd548 O549 2.240 . S
Cd548 O556 2.223 . S
Cd548 O558 2.297 . S
Cd548 O559 2.439 . S
O549 Cd548 2.240 . S
O549 C554 1.279 . S
O550 Cd547 2.297 . S
O550 C552 1.247 . S
O551 Cd547 2.439 . S
O551 C552 1.208 . S
C552 O550 1.247 . S
C552 O551 1.208 . S
C553 O558 1.247 . S
C553 O559 1.208 . S
C554 O546 1.315 . S
C554 O549 1.279 . S
C555 O556 1.315 . S
C555 O557 1.279 . S
O556 Cd548 2.223 . S
O556 C555 1.315 . S
O557 Cd547 2.240 . S
O557 C555 1.279 . S
O558 Cd548 2.297 . S
O558 C553 1.247 . S
O559 Cd548 2.439 . S
O559 C553 1.208 . S
O560 Cd561 2.223 . S
O560 C568 1.315 . S
Cd561 O560 2.223 . S
Cd561 O564 2.297 . S
Cd561 O565 2.439 . S
Cd561 O571 2.240 . S
Cd562 O563 2.240 . S
Cd562 O570 2.223 . S
Cd562 O572 2.297 . S
Cd562 O573 2.439 . S
O563 Cd562 2.240 . S
O563 C568 1.279 . S
O564 Cd561 2.297 . S
O564 C566 1.247 . S
O565 Cd561 2.439 . S
O565 C566 1.208 . S
C566 O564 1.247 . S
C566 O565 1.208 . S
C567 O572 1.247 . S
C567 O573 1.208 . S
C568 O560 1.315 . S
C568 O563 1.279 . S
C569 O570 1.315 . S
C569 O571 1.279 . S
O570 Cd562 2.223 . S
O570 C569 1.315 . S
O571 Cd561 2.240 . S
O571 C569 1.279 . S
O572 Cd562 2.297 . S
O572 C567 1.247 . S
O573 Cd562 2.439 . S
O573 C567 1.208 . S
O574 Cd575 2.223 . S
O574 C582 1.315 . S
Cd575 O574 2.223 . S
Cd575 O578 2.297 . S
Cd575 O579 2.439 . S
Cd575 O585 2.240 . S
Cd576 O577 2.240 . S
Cd576 O584 2.223 . S
Cd576 O586 2.297 . S
Cd576 O587 2.439 . S
O577 Cd576 2.240 . S
O577 C582 1.279 . S
O578 Cd575 2.297 . S
O578 C580 1.247 . S
O579 Cd575 2.439 . S
O579 C580 1.208 . S
C580 O578 1.247 . S
C580 O579 1.208 . S
C581 O586 1.247 . S
C581 O587 1.208 . S
C582 O574 1.315 . S
C582 O577 1.279 . S
C583 O584 1.315 . S
C583 O585 1.279 . S
O584 Cd576 2.223 . S
O584 C583 1.315 . S
O585 Cd575 2.240 . S
O585 C583 1.279 . S
O586 Cd576 2.297 . S
O586 C581 1.247 . S
O587 Cd576 2.439 . S
O587 C581 1.208 . S
O588 Cd589 2.223 . S
O588 C596 1.315 . S
Cd589 O588 2.223 . S
Cd589 O592 2.297 . S
Cd589 O593 2.439 . S
Cd589 O599 2.240 . S
Cd590 O591 2.240 . S
Cd590 O598 2.223 . S
Cd590 O600 2.297 . S
Cd590 O601 2.439 . S
O591 Cd590 2.240 . S
O591 C596 1.279 . S
O592 Cd589 2.297 . S
O592 C594 1.247 . S
O593 Cd589 2.439 . S
O593 C594 1.208 . S
C594 O592 1.247 . S
C594 O593 1.208 . S
C595 O600 1.247 . S
C595 O601 1.208 . S
C596 O588 1.315 . S
C596 O591 1.279 . S
C597 O598 1.315 . S
C597 O599 1.279 . S
O598 Cd590 2.223 . S
O598 C597 1.315 . S
O599 Cd589 2.240 . S
O599 C597 1.279 . S
O600 Cd590 2.297 . S
O600 C595 1.247 . S
O601 Cd590 2.439 . S
O601 C595 1.208 . S
O602 Cd603 2.223 . S
O602 C610 1.315 . S
Cd603 O602 2.223 . S
Cd603 O606 2.297 . S
Cd603 O607 2.439 . S
Cd603 O613 2.240 . S
Cd604 O605 2.240 . S
Cd604 O612 2.223 . S
Cd604 O614 2.297 . S
Cd604 O615 2.439 . S
O605 Cd604 2.240 . S
O605 C610 1.279 . S
O606 Cd603 2.297 . S
O606 C608 1.247 . S
O607 Cd603 2.439 . S
O607 C608 1.208 . S
C608 O606 1.247 . S
C608 O607 1.208 . S
C609 O614 1.247 . S
C609 O615 1.208 . S
C610 O602 1.315 . S
C610 O605 1.279 . S
C611 O612 1.315 . S
C611 O613 1.279 . S
O612 Cd604 2.223 . S
O612 C611 1.315 . S
O613 Cd603 2.240 . S
O613 C611 1.279 . S
O614 Cd604 2.297 . S
O614 C609 1.247 . S
O615 Cd604 2.439 . S
O615 C609 1.208 . S
O616 Cd617 2.223 . S
O616 C624 1.315 . S
Cd617 O616 2.223 . S
Cd617 O620 2.297 . S
Cd617 O621 2.439 . S
Cd617 O627 2.240 . S
Cd618 O619 2.240 . S
Cd618 O626 2.223 . S
Cd618 O628 2.297 . S
Cd618 O629 2.439 . S
O619 Cd618 2.240 . S
O619 C624 1.279 . S
O620 Cd617 2.297 . S
O620 C622 1.247 . S
O621 Cd617 2.439 . S
O621 C622 1.208 . S
C622 O620 1.247 . S
C622 O621 1.208 . S
C623 O628 1.247 . S
C623 O629 1.208 . S
C624 O616 1.315 . S
C624 O619 1.279 . S
C625 O626 1.315 . S
C625 O627 1.279 . S
O626 Cd618 2.223 . S
O626 C625 1.315 . S
O627 Cd617 2.240 . S
O627 C625 1.279 . S
O628 Cd618 2.297 . S
O628 C623 1.247 . S
O629 Cd618 2.439 . S
O629 C623 1.208 . S
O630 Cd631 2.223 . S
O630 C638 1.315 . S
Cd631 O630 2.223 . S
Cd631 O634 2.297 . S
Cd631 O635 2.439 . S
Cd631 O641 2.240 . S
Cd632 O633 2.240 . S
Cd632 O640 2.223 . S
Cd632 O642 2.297 . S
Cd632 O643 2.439 . S
O633 Cd632 2.240 . S
O633 C638 1.279 . S
O634 Cd631 2.297 . S
O634 C636 1.247 . S
O635 Cd631 2.439 . S
O635 C636 1.208 . S
C636 O634 1.247 . S
C636 O635 1.208 . S
C637 O642 1.247 . S
C637 O643 1.208 . S
C638 O630 1.315 . S
C638 O633 1.279 . S
C639 O640 1.315 . S
C639 O641 1.279 . S
O640 Cd632 2.223 . S
O640 C639 1.315 . S
O641 Cd631 2.240 . S
O641 C639 1.279 . S
O642 Cd632 2.297 . S
O642 C637 1.247 . S
O643 Cd632 2.439 . S
O643 C637 1.208 . S
O644 Cd645 2.223 . S
O644 C652 1.315 . S
Cd645 O644 2.223 . S
Cd645 O648 2.297 . S
Cd645 O649 2.439 . S
Cd645 O655 2.240 . S
Cd646 O647 2.240 . S
Cd646 O654 2.223 . S
Cd646 O656 2.297 . S
Cd646 O657 2.439 . S
O647 Cd646 2.240 . S
O647 C652 1.279 . S
O648 Cd645 2.297 . S
O648 C650 1.247 . S
O649 Cd645 2.439 . S
O649 C650 1.208 . S
C650 O648 1.247 . S
C650 O649 1.208 . S
C651 O656 1.247 . S
C651 O657 1.208 . S
C652 O644 1.315 . S
C652 O647 1.279 . S
C653 O654 1.315 . S
C653 O655 1.279 . S
O654 Cd646 2.223 . S
O654 C653 1.315 . S
O655 Cd645 2.240 . S
O655 C653 1.279 . S
O656 Cd646 2.297 . S
O656 C651 1.247 . S
O657 Cd646 2.439 . S
O657 C651 1.208 . S
O658 Cd659 2.223 . S
O658 C666 1.315 . S
Cd659 O658 2.223 . S
Cd659 O662 2.297 . S
Cd659 O663 2.439 . S
Cd659 O669 2.240 . S
Cd660 O661 2.240 . S
Cd660 O668 2.223 . S
Cd660 O670 2.297 . S
Cd660 O671 2.439 . S
O661 Cd660 2.240 . S
O661 C666 1.279 . S
O662 Cd659 2.297 . S
O662 C664 1.247 . S
O663 Cd659 2.439 . S
O663 C664 1.208 . S
C664 O662 1.247 . S
C664 O663 1.208 . S
C665 O670 1.247 . S
C665 O671 1.208 . S
C666 O658 1.315 . S
C666 O661 1.279 . S
C667 O668 1.315 . S
C667 O669 1.279 . S
O668 Cd660 2.223 . S
O668 C667 1.315 . S
O669 Cd659 2.240 . S
O669 C667 1.279 . S
O670 Cd660 2.297 . S
O670 C665 1.247 . S
O671 Cd660 2.439 . S
O671 C665 1.208 . S
H672 C678 0.930 . S
H673 C682 0.930 . S
H674 C687 0.929 . S
H675 C685 0.929 . S
H676 C680 0.929 . S
H677 C686 0.929 . S
C678 H672 0.930 . S
C678 C679 1.367 . S
C678 C686 1.378 . S
C679 C678 1.367 . S
C679 C687 1.433 . S
C680 H676 0.929 . S
C680 C682 1.378 . S
C680 C684 1.350 . S
C681 C684 1.463 . S
C681 C686 1.350 . S
C681 N689 1.427 . S
C682 H673 0.930 . S
C682 C680 1.378 . S
C682 C683 1.367 . S
C683 C682 1.367 . S
C683 C685 1.433 . S
C684 C680 1.350 . S
C684 C681 1.463 . S
C684 N688 1.427 . S
C685 H675 0.929 . S
C685 C683 1.433 . S
C685 N688 1.384 . S
C686 H677 0.929 . S
C686 C678 1.378 . S
C686 C681 1.350 . S
C687 H674 0.929 . S
C687 C679 1.433 . S
C687 N689 1.384 . S
N688 C684 1.427 . S
N688 C685 1.384 . S
N689 C681 1.427 . S
N689 C687 1.384 . S
H690 C696 0.930 . S
H691 C700 0.930 . S
H692 C705 0.929 . S
H693 C703 0.929 . S
H694 C698 0.929 . S
H695 C704 0.929 . S
C696 H690 0.930 . S
C696 C697 1.367 . S
C696 C704 1.378 . S
C697 C696 1.367 . S
C697 C705 1.433 . S
C698 H694 0.929 . S
C698 C700 1.378 . S
C698 C702 1.350 . S
C699 C702 1.463 . S
C699 C704 1.350 . S
C699 N707 1.427 . S
C700 H691 0.930 . S
C700 C698 1.378 . S
C700 C701 1.367 . S
C701 C700 1.367 . S
C701 C703 1.433 . S
C702 C698 1.350 . S
C702 C699 1.463 . S
C702 N706 1.427 . S
C703 H693 0.929 . S
C703 C701 1.433 . S
C703 N706 1.384 . S
C704 H695 0.929 . S
C704 C696 1.378 . S
C704 C699 1.350 . S
C705 H692 0.929 . S
C705 C697 1.433 . S
C705 N707 1.384 . S
N706 C702 1.427 . S
N706 C703 1.384 . S
N707 C699 1.427 . S
N707 C705 1.384 . S
H708 C714 0.930 . S
H709 C718 0.930 . S
H710 C723 0.929 . S
H711 C721 0.929 . S
H712 C716 0.929 . S
H713 C722 0.929 . S
C714 H708 0.930 . S
C714 C715 1.367 . S
C714 C722 1.378 . S
C715 C714 1.367 . S
C715 C723 1.433 . S
C716 H712 0.929 . S
C716 C718 1.378 . S
C716 C720 1.350 . S
C717 C720 1.463 . S
C717 C722 1.350 . S
C717 N725 1.427 . S
C718 H709 0.930 . S
C718 C716 1.378 . S
C718 C719 1.367 . S
C719 C718 1.367 . S
C719 C721 1.433 . S
C720 C716 1.350 . S
C720 C717 1.463 . S
C720 N724 1.427 . S
C721 H711 0.929 . S
C721 C719 1.433 . S
C721 N724 1.384 . S
C722 H713 0.929 . S
C722 C714 1.378 . S
C722 C717 1.350 . S
C723 H710 0.929 . S
C723 C715 1.433 . S
C723 N725 1.384 . S
N724 C720 1.427 . S
N724 C721 1.384 . S
N725 C717 1.427 . S
N725 C723 1.384 . S
H726 C732 0.930 . S
H727 C736 0.930 . S
H728 C741 0.929 . S
H729 C739 0.929 . S
H730 C734 0.929 . S
H731 C740 0.929 . S
C732 H726 0.930 . S
C732 C733 1.367 . S
C732 C740 1.378 . S
C733 C732 1.367 . S
C733 C741 1.433 . S
C734 H730 0.929 . S
C734 C736 1.378 . S
C734 C738 1.350 . S
C735 C738 1.463 . S
C735 C740 1.350 . S
C735 N743 1.427 . S
C736 H727 0.930 . S
C736 C734 1.378 . S
C736 C737 1.367 . S
C737 C736 1.367 . S
C737 C739 1.433 . S
C738 C734 1.350 . S
C738 C735 1.463 . S
C738 N742 1.427 . S
C739 H729 0.929 . S
C739 C737 1.433 . S
C739 N742 1.384 . S
C740 H731 0.929 . S
C740 C732 1.378 . S
C740 C735 1.350 . S
C741 H728 0.929 . S
C741 C733 1.433 . S
C741 N743 1.384 . S
N742 C738 1.427 . S
N742 C739 1.384 . S
N743 C735 1.427 . S
N743 C741 1.384 . S
H744 C750 0.930 . S
H745 C754 0.930 . S
H746 C759 0.929 . S
H747 C757 0.929 . S
H748 C752 0.929 . S
H749 C758 0.929 . S
C750 H744 0.930 . S
C750 C751 1.367 . S
C750 C758 1.378 . S
C751 C750 1.367 . S
C751 C759 1.433 . S
C752 H748 0.929 . S
C752 C754 1.378 . S
C752 C756 1.350 . S
C753 C756 1.463 . S
C753 C758 1.350 . S
C753 N761 1.427 . S
C754 H745 0.930 . S
C754 C752 1.378 . S
C754 C755 1.367 . S
C755 C754 1.367 . S
C755 C757 1.433 . S
C756 C752 1.350 . S
C756 C753 1.463 . S
C756 N760 1.427 . S
C757 H747 0.929 . S
C757 C755 1.433 . S
C757 N760 1.384 . S
C758 H749 0.929 . S
C758 C750 1.378 . S
C758 C753 1.350 . S
C759 H746 0.929 . S
C759 C751 1.433 . S
C759 N761 1.384 . S
N760 C756 1.427 . S
N760 C757 1.384 . S
N761 C753 1.427 . S
N761 C759 1.384 . S
H762 C768 0.930 . S
H763 C772 0.930 . S
H764 C777 0.929 . S
H765 C775 0.929 . S
H766 C770 0.929 . S
H767 C776 0.929 . S
C768 H762 0.930 . S
C768 C769 1.367 . S
C768 C776 1.378 . S
C769 C768 1.367 . S
C769 C777 1.433 . S
C770 H766 0.929 . S
C770 C772 1.378 . S
C770 C774 1.350 . S
C771 C774 1.463 . S
C771 C776 1.350 . S
C771 N779 1.427 . S
C772 H763 0.930 . S
C772 C770 1.378 . S
C772 C773 1.367 . S
C773 C772 1.367 . S
C773 C775 1.433 . S
C774 C770 1.350 . S
C774 C771 1.463 . S
C774 N778 1.427 . S
C775 H765 0.929 . S
C775 C773 1.433 . S
C775 N778 1.384 . S
C776 H767 0.929 . S
C776 C768 1.378 . S
C776 C771 1.350 . S
C777 H764 0.929 . S
C777 C769 1.433 . S
C777 N779 1.384 . S
N778 C774 1.427 . S
N778 C775 1.384 . S
N779 C771 1.427 . S
N779 C777 1.384 . S
H780 C786 0.930 . S
H781 C790 0.930 . S
H782 C795 0.929 . S
H783 C793 0.929 . S
H784 C788 0.929 . S
H785 C794 0.929 . S
C786 H780 0.930 . S
C786 C787 1.367 . S
C786 C794 1.378 . S
C787 C786 1.367 . S
C787 C795 1.433 . S
C788 H784 0.929 . S
C788 C790 1.378 . S
C788 C792 1.350 . S
C789 C792 1.463 . S
C789 C794 1.350 . S
C789 N797 1.427 . S
C790 H781 0.930 . S
C790 C788 1.378 . S
C790 C791 1.367 . S
C791 C790 1.367 . S
C791 C793 1.433 . S
C792 C788 1.350 . S
C792 C789 1.463 . S
C792 N796 1.427 . S
C793 H783 0.929 . S
C793 C791 1.433 . S
C793 N796 1.384 . S
C794 H785 0.929 . S
C794 C786 1.378 . S
C794 C789 1.350 . S
C795 H782 0.929 . S
C795 C787 1.433 . S
C795 N797 1.384 . S
N796 C792 1.427 . S
N796 C793 1.384 . S
N797 C789 1.427 . S
N797 C795 1.384 . S
H798 C804 0.930 . S
H799 C808 0.930 . S
H800 C813 0.929 . S
H801 C811 0.929 . S
H802 C806 0.929 . S
H803 C812 0.929 . S
C804 H798 0.930 . S
C804 C805 1.367 . S
C804 C812 1.378 . S
C805 C804 1.367 . S
C805 C813 1.433 . S
C806 H802 0.929 . S
C806 C808 1.378 . S
C806 C810 1.350 . S
C807 C810 1.463 . S
C807 C812 1.350 . S
C807 N815 1.427 . S
C808 H799 0.930 . S
C808 C806 1.378 . S
C808 C809 1.367 . S
C809 C808 1.367 . S
C809 C811 1.433 . S
C810 C806 1.350 . S
C810 C807 1.463 . S
C810 N814 1.427 . S
C811 H801 0.929 . S
C811 C809 1.433 . S
C811 N814 1.384 . S
C812 H803 0.929 . S
C812 C804 1.378 . S
C812 C807 1.350 . S
C813 H800 0.929 . S
C813 C805 1.433 . S
C813 N815 1.384 . S
N814 C810 1.427 . S
N814 C811 1.384 . S
N815 C807 1.427 . S
N815 C813 1.384 . S
H816 C822 0.930 . S
H817 C826 0.930 . S
H818 C831 0.929 . S
H819 C829 0.929 . S
H820 C824 0.929 . S
H821 C830 0.929 . S
C822 H816 0.930 . S
C822 C823 1.367 . S
C822 C830 1.378 . S
C823 C822 1.367 . S
C823 C831 1.433 . S
C824 H820 0.929 . S
C824 C826 1.378 . S
C824 C828 1.350 . S
C825 C828 1.463 . S
C825 C830 1.350 . S
C825 N833 1.427 . S
C826 H817 0.930 . S
C826 C824 1.378 . S
C826 C827 1.367 . S
C827 C826 1.367 . S
C827 C829 1.433 . S
C828 C824 1.350 . S
C828 C825 1.463 . S
C828 N832 1.427 . S
C829 H819 0.929 . S
C829 C827 1.433 . S
C829 N832 1.384 . S
C830 H821 0.929 . S
C830 C822 1.378 . S
C830 C825 1.350 . S
C831 H818 0.929 . S
C831 C823 1.433 . S
C831 N833 1.384 . S
N832 C828 1.427 . S
N832 C829 1.384 . S
N833 C825 1.427 . S
N833 C831 1.384 . S
H834 C840 0.930 . S
H835 C844 0.930 . S
H836 C849 0.929 . S
H837 C847 0.929 . S
H838 C842 0.929 . S
H839 C848 0.929 . S
C840 H834 0.930 . S
C840 C841 1.367 . S
C840 C848 1.378 . S
C841 C840 1.367 . S
C841 C849 1.433 . S
C842 H838 0.929 . S
C842 C844 1.378 . S
C842 C846 1.350 . S
C843 C846 1.463 . S
C843 C848 1.350 . S
C843 N851 1.427 . S
C844 H835 0.930 . S
C844 C842 1.378 . S
C844 C845 1.367 . S
C845 C844 1.367 . S
C845 C847 1.433 . S
C846 C842 1.350 . S
C846 C843 1.463 . S
C846 N850 1.427 . S
C847 H837 0.929 . S
C847 C845 1.433 . S
C847 N850 1.384 . S
C848 H839 0.929 . S
C848 C840 1.378 . S
C848 C843 1.350 . S
C849 H836 0.929 . S
C849 C841 1.433 . S
C849 N851 1.384 . S
N850 C846 1.427 . S
N850 C847 1.384 . S
N851 C843 1.427 . S
N851 C849 1.384 . S
H852 C858 0.930 . S
H853 C862 0.930 . S
H854 C867 0.929 . S
H855 C865 0.929 . S
H856 C860 0.929 . S
H857 C866 0.929 . S
C858 H852 0.930 . S
C858 C859 1.367 . S
C858 C866 1.378 . S
C859 C858 1.367 . S
C859 C867 1.433 . S
C860 H856 0.929 . S
C860 C862 1.378 . S
C860 C864 1.350 . S
C861 C864 1.463 . S
C861 C866 1.350 . S
C861 N869 1.427 . S
C862 H853 0.930 . S
C862 C860 1.378 . S
C862 C863 1.367 . S
C863 C862 1.367 . S
C863 C865 1.433 . S
C864 C860 1.350 . S
C864 C861 1.463 . S
C864 N868 1.427 . S
C865 H855 0.929 . S
C865 C863 1.433 . S
C865 N868 1.384 . S
C866 H857 0.929 . S
C866 C858 1.378 . S
C866 C861 1.350 . S
C867 H854 0.929 . S
C867 C859 1.433 . S
C867 N869 1.384 . S
N868 C864 1.427 . S
N868 C865 1.384 . S
N869 C861 1.427 . S
N869 C867 1.384 . S
H870 C876 0.930 . S
H871 C880 0.930 . S
H872 C885 0.929 . S
H873 C883 0.929 . S
H874 C878 0.929 . S
H875 C884 0.929 . S
C876 H870 0.930 . S
C876 C877 1.367 . S
C876 C884 1.378 . S
C877 C876 1.367 . S
C877 C885 1.433 . S
C878 H874 0.929 . S
C878 C880 1.378 . S
C878 C882 1.350 . S
C879 C882 1.463 . S
C879 C884 1.350 . S
C879 N887 1.427 . S
C880 H871 0.930 . S
C880 C878 1.378 . S
C880 C881 1.367 . S
C881 C880 1.367 . S
C881 C883 1.433 . S
C882 C878 1.350 . S
C882 C879 1.463 . S
C882 N886 1.427 . S
C883 H873 0.929 . S
C883 C881 1.433 . S
C883 N886 1.384 . S
C884 H875 0.929 . S
C884 C876 1.378 . S
C884 C879 1.350 . S
C885 H872 0.929 . S
C885 C877 1.433 . S
C885 N887 1.384 . S
N886 C882 1.427 . S
N886 C883 1.384 . S
N887 C879 1.427 . S
N887 C885 1.384 . S
H888 C894 0.930 . S
H889 C898 0.930 . S
H890 C903 0.929 . S
H891 C901 0.929 . S
H892 C896 0.929 . S
H893 C902 0.929 . S
C894 H888 0.930 . S
C894 C895 1.367 . S
C894 C902 1.378 . S
C895 C894 1.367 . S
C895 C903 1.433 . S
C896 H892 0.929 . S
C896 C898 1.378 . S
C896 C900 1.350 . S
C897 C900 1.463 . S
C897 C902 1.350 . S
C897 N905 1.427 . S
C898 H889 0.930 . S
C898 C896 1.378 . S
C898 C899 1.367 . S
C899 C898 1.367 . S
C899 C901 1.433 . S
C900 C896 1.350 . S
C900 C897 1.463 . S
C900 N904 1.427 . S
C901 H891 0.929 . S
C901 C899 1.433 . S
C901 N904 1.384 . S
C902 H893 0.929 . S
C902 C894 1.378 . S
C902 C897 1.350 . S
C903 H890 0.929 . S
C903 C895 1.433 . S
C903 N905 1.384 . S
N904 C900 1.427 . S
N904 C901 1.384 . S
N905 C897 1.427 . S
N905 C903 1.384 . S
H906 C912 0.930 . S
H907 C916 0.930 . S
H908 C921 0.929 . S
H909 C919 0.929 . S
H910 C914 0.929 . S
H911 C920 0.929 . S
C912 H906 0.930 . S
C912 C913 1.367 . S
C912 C920 1.378 . S
C913 C912 1.367 . S
C913 C921 1.433 . S
C914 H910 0.929 . S
C914 C916 1.378 . S
C914 C918 1.350 . S
C915 C918 1.463 . S
C915 C920 1.350 . S
C915 N923 1.427 . S
C916 H907 0.930 . S
C916 C914 1.378 . S
C916 C917 1.367 . S
C917 C916 1.367 . S
C917 C919 1.433 . S
C918 C914 1.350 . S
C918 C915 1.463 . S
C918 N922 1.427 . S
C919 H909 0.929 . S
C919 C917 1.433 . S
C919 N922 1.384 . S
C920 H911 0.929 . S
C920 C912 1.378 . S
C920 C915 1.350 . S
C921 H908 0.929 . S
C921 C913 1.433 . S
C921 N923 1.384 . S
N922 C918 1.427 . S
N922 C919 1.384 . S
N923 C915 1.427 . S
N923 C921 1.384 . S
H924 C930 0.930 . S
H925 C934 0.930 . S
H926 C939 0.929 . S
H927 C937 0.929 . S
H928 C932 0.929 . S
H929 C938 0.929 . S
C930 H924 0.930 . S
C930 C931 1.367 . S
C930 C938 1.378 . S
C931 C930 1.367 . S
C931 C939 1.433 . S
C932 H928 0.929 . S
C932 C934 1.378 . S
C932 C936 1.350 . S
C933 C936 1.463 . S
C933 C938 1.350 . S
C933 N941 1.427 . S
C934 H925 0.930 . S
C934 C932 1.378 . S
C934 C935 1.367 . S
C935 C934 1.367 . S
C935 C937 1.433 . S
C936 C932 1.350 . S
C936 C933 1.463 . S
C936 N940 1.427 . S
C937 H927 0.929 . S
C937 C935 1.433 . S
C937 N940 1.384 . S
C938 H929 0.929 . S
C938 C930 1.378 . S
C938 C933 1.350 . S
C939 H926 0.929 . S
C939 C931 1.433 . S
C939 N941 1.384 . S
N940 C936 1.427 . S
N940 C937 1.384 . S
N941 C933 1.427 . S
N941 C939 1.384 . S
H942 C948 0.930 . S
H943 C952 0.930 . S
H944 C957 0.929 . S
H945 C955 0.929 . S
H946 C950 0.929 . S
H947 C956 0.929 . S
C948 H942 0.930 . S
C948 C949 1.367 . S
C948 C956 1.378 . S
C949 C948 1.367 . S
C949 C957 1.433 . S
C950 H946 0.929 . S
C950 C952 1.378 . S
C950 C954 1.350 . S
C951 C954 1.463 . S
C951 C956 1.350 . S
C951 N959 1.427 . S
C952 H943 0.930 . S
C952 C950 1.378 . S
C952 C953 1.367 . S
C953 C952 1.367 . S
C953 C955 1.433 . S
C954 C950 1.350 . S
C954 C951 1.463 . S
C954 N958 1.427 . S
C955 H945 0.929 . S
C955 C953 1.433 . S
C955 N958 1.384 . S
C956 H947 0.929 . S
C956 C948 1.378 . S
C956 C951 1.350 . S
C957 H944 0.929 . S
C957 C949 1.433 . S
C957 N959 1.384 . S
N958 C954 1.427 . S
N958 C955 1.384 . S
N959 C951 1.427 . S
N959 C957 1.384 . S
H960 C966 0.930 . S
H961 C970 0.930 . S
H962 C975 0.929 . S
H963 C973 0.929 . S
H964 C968 0.929 . S
H965 C974 0.929 . S
C966 H960 0.930 . S
C966 C967 1.367 . S
C966 C974 1.378 . S
C967 C966 1.367 . S
C967 C975 1.433 . S
C968 H964 0.929 . S
C968 C970 1.378 . S
C968 C972 1.350 . S
C969 C972 1.463 . S
C969 C974 1.350 . S
C969 N977 1.427 . S
C970 H961 0.930 . S
C970 C968 1.378 . S
C970 C971 1.367 . S
C971 C970 1.367 . S
C971 C973 1.433 . S
C972 C968 1.350 . S
C972 C969 1.463 . S
C972 N976 1.427 . S
C973 H963 0.929 . S
C973 C971 1.433 . S
C973 N976 1.384 . S
C974 H965 0.929 . S
C974 C966 1.378 . S
C974 C969 1.350 . S
C975 H962 0.929 . S
C975 C967 1.433 . S
C975 N977 1.384 . S
N976 C972 1.427 . S
N976 C973 1.384 . S
N977 C969 1.427 . S
N977 C975 1.384 . S
H978 C984 0.930 . S
H979 C988 0.930 . S
H980 C993 0.929 . S
H981 C991 0.929 . S
H982 C986 0.929 . S
H983 C992 0.929 . S
C984 H978 0.930 . S
C984 C985 1.367 . S
C984 C992 1.378 . S
C985 C984 1.367 . S
C985 C993 1.433 . S
C986 H982 0.929 . S
C986 C988 1.378 . S
C986 C990 1.350 . S
C987 C990 1.463 . S
C987 C992 1.350 . S
C987 N995 1.427 . S
C988 H979 0.930 . S
C988 C986 1.378 . S
C988 C989 1.367 . S
C989 C988 1.367 . S
C989 C991 1.433 . S
C990 C986 1.350 . S
C990 C987 1.463 . S
C990 N994 1.427 . S
C991 H981 0.929 . S
C991 C989 1.433 . S
C991 N994 1.384 . S
C992 H983 0.929 . S
C992 C984 1.378 . S
C992 C987 1.350 . S
C993 H980 0.929 . S
C993 C985 1.433 . S
C993 N995 1.384 . S
N994 C990 1.427 . S
N994 C991 1.384 . S
N995 C987 1.427 . S
N995 C993 1.384 . S
H996 C1002 0.930 . S
H997 C1006 0.930 . S
H998 C1011 0.929 . S
H999 C1009 0.929 . S
H1000 C1004 0.929 . S
H1001 C1010 0.929 . S
C1002 H996 0.930 . S
C1002 C1003 1.367 . S
C1002 C1010 1.378 . S
C1003 C1002 1.367 . S
C1003 C1011 1.433 . S
C1004 H1000 0.929 . S
C1004 C1006 1.378 . S
C1004 C1008 1.350 . S
C1005 C1008 1.463 . S
C1005 C1010 1.350 . S
C1005 N1013 1.427 . S
C1006 H997 0.930 . S
C1006 C1004 1.378 . S
C1006 C1007 1.367 . S
C1007 C1006 1.367 . S
C1007 C1009 1.433 . S
C1008 C1004 1.350 . S
C1008 C1005 1.463 . S
C1008 N1012 1.427 . S
C1009 H999 0.929 . S
C1009 C1007 1.433 . S
C1009 N1012 1.384 . S
C1010 H1001 0.929 . S
C1010 C1002 1.378 . S
C1010 C1005 1.350 . S
C1011 H998 0.929 . S
C1011 C1003 1.433 . S
C1011 N1013 1.384 . S
N1012 C1008 1.427 . S
N1012 C1009 1.384 . S
N1013 C1005 1.427 . S
N1013 C1011 1.384 . S
H1014 C1020 0.930 . S
H1015 C1024 0.930 . S
H1016 C1029 0.929 . S
H1017 C1027 0.929 . S
H1018 C1022 0.929 . S
H1019 C1028 0.929 . S
C1020 H1014 0.930 . S
C1020 C1021 1.367 . S
C1020 C1028 1.378 . S
C1021 C1020 1.367 . S
C1021 C1029 1.433 . S
C1022 H1018 0.929 . S
C1022 C1024 1.378 . S
C1022 C1026 1.350 . S
C1023 C1026 1.463 . S
C1023 C1028 1.350 . S
C1023 N1031 1.427 . S
C1024 H1015 0.930 . S
C1024 C1022 1.378 . S
C1024 C1025 1.367 . S
C1025 C1024 1.367 . S
C1025 C1027 1.433 . S
C1026 C1022 1.350 . S
C1026 C1023 1.463 . S
C1026 N1030 1.427 . S
C1027 H1017 0.929 . S
C1027 C1025 1.433 . S
C1027 N1030 1.384 . S
C1028 H1019 0.929 . S
C1028 C1020 1.378 . S
C1028 C1023 1.350 . S
C1029 H1016 0.929 . S
C1029 C1021 1.433 . S
C1029 N1031 1.384 . S
N1030 C1026 1.427 . S
N1030 C1027 1.384 . S
N1031 C1023 1.427 . S
N1031 C1029 1.384 . S
H1032 C1038 0.930 . S
H1033 C1042 0.930 . S
H1034 C1047 0.929 . S
H1035 C1045 0.929 . S
H1036 C1040 0.929 . S
H1037 C1046 0.929 . S
C1038 H1032 0.930 . S
C1038 C1039 1.367 . S
C1038 C1046 1.378 . S
C1039 C1038 1.367 . S
C1039 C1047 1.433 . S
C1040 H1036 0.929 . S
C1040 C1042 1.378 . S
C1040 C1044 1.350 . S
C1041 C1044 1.463 . S
C1041 C1046 1.350 . S
C1041 N1049 1.427 . S
C1042 H1033 0.930 . S
C1042 C1040 1.378 . S
C1042 C1043 1.367 . S
C1043 C1042 1.367 . S
C1043 C1045 1.433 . S
C1044 C1040 1.350 . S
C1044 C1041 1.463 . S
C1044 N1048 1.427 . S
C1045 H1035 0.929 . S
C1045 C1043 1.433 . S
C1045 N1048 1.384 . S
C1046 H1037 0.929 . S
C1046 C1038 1.378 . S
C1046 C1041 1.350 . S
C1047 H1034 0.929 . S
C1047 C1039 1.433 . S
C1047 N1049 1.384 . S
N1048 C1044 1.427 . S
N1048 C1045 1.384 . S
N1049 C1041 1.427 . S
N1049 C1047 1.384 . S
H1050 C1056 0.930 . S
H1051 C1060 0.930 . S
H1052 C1065 0.929 . S
H1053 C1063 0.929 . S
H1054 C1058 0.929 . S
H1055 C1064 0.929 . S
C1056 H1050 0.930 . S
C1056 C1057 1.367 . S
C1056 C1064 1.378 . S
C1057 C1056 1.367 . S
C1057 C1065 1.433 . S
C1058 H1054 0.929 . S
C1058 C1060 1.378 . S
C1058 C1062 1.350 . S
C1059 C1062 1.463 . S
C1059 C1064 1.350 . S
C1059 N1067 1.427 . S
C1060 H1051 0.930 . S
C1060 C1058 1.378 . S
C1060 C1061 1.367 . S
C1061 C1060 1.367 . S
C1061 C1063 1.433 . S
C1062 C1058 1.350 . S
C1062 C1059 1.463 . S
C1062 N1066 1.427 . S
C1063 H1053 0.929 . S
C1063 C1061 1.433 . S
C1063 N1066 1.384 . S
C1064 H1055 0.929 . S
C1064 C1056 1.378 . S
C1064 C1059 1.350 . S
C1065 H1052 0.929 . S
C1065 C1057 1.433 . S
C1065 N1067 1.384 . S
N1066 C1062 1.427 . S
N1066 C1063 1.384 . S
N1067 C1059 1.427 . S
N1067 C1065 1.384 . S
H1068 C1074 0.930 . S
H1069 C1078 0.930 . S
H1070 C1083 0.929 . S
H1071 C1081 0.929 . S
H1072 C1076 0.929 . S
H1073 C1082 0.929 . S
C1074 H1068 0.930 . S
C1074 C1075 1.367 . S
C1074 C1082 1.378 . S
C1075 C1074 1.367 . S
C1075 C1083 1.433 . S
C1076 H1072 0.929 . S
C1076 C1078 1.378 . S
C1076 C1080 1.350 . S
C1077 C1080 1.463 . S
C1077 C1082 1.350 . S
C1077 N1085 1.427 . S
C1078 H1069 0.930 . S
C1078 C1076 1.378 . S
C1078 C1079 1.367 . S
C1079 C1078 1.367 . S
C1079 C1081 1.433 . S
C1080 C1076 1.350 . S
C1080 C1077 1.463 . S
C1080 N1084 1.427 . S
C1081 H1071 0.929 . S
C1081 C1079 1.433 . S
C1081 N1084 1.384 . S
C1082 H1073 0.929 . S
C1082 C1074 1.378 . S
C1082 C1077 1.350 . S
C1083 H1070 0.929 . S
C1083 C1075 1.433 . S
C1083 N1085 1.384 . S
N1084 C1080 1.427 . S
N1084 C1081 1.384 . S
N1085 C1077 1.427 . S
N1085 C1083 1.384 . S
H1086 C1092 0.930 . S
H1087 C1096 0.930 . S
H1088 C1101 0.929 . S
H1089 C1099 0.929 . S
H1090 C1094 0.929 . S
H1091 C1100 0.929 . S
C1092 H1086 0.930 . S
C1092 C1093 1.367 . S
C1092 C1100 1.378 . S
C1093 C1092 1.367 . S
C1093 C1101 1.433 . S
C1094 H1090 0.929 . S
C1094 C1096 1.378 . S
C1094 C1098 1.350 . S
C1095 C1098 1.463 . S
C1095 C1100 1.350 . S
C1095 N1103 1.427 . S
C1096 H1087 0.930 . S
C1096 C1094 1.378 . S
C1096 C1097 1.367 . S
C1097 C1096 1.367 . S
C1097 C1099 1.433 . S
C1098 C1094 1.350 . S
C1098 C1095 1.463 . S
C1098 N1102 1.427 . S
C1099 H1089 0.929 . S
C1099 C1097 1.433 . S
C1099 N1102 1.384 . S
C1100 H1091 0.929 . S
C1100 C1092 1.378 . S
C1100 C1095 1.350 . S
C1101 H1088 0.929 . S
C1101 C1093 1.433 . S
C1101 N1103 1.384 . S
N1102 C1098 1.427 . S
N1102 C1099 1.384 . S
N1103 C1095 1.427 . S
N1103 C1101 1.384 . S
H1104 C1110 0.930 . S
H1105 C1114 0.930 . S
H1106 C1119 0.929 . S
H1107 C1117 0.929 . S
H1108 C1112 0.929 . S
H1109 C1118 0.929 . S
C1110 H1104 0.930 . S
C1110 C1111 1.367 . S
C1110 C1118 1.378 . S
C1111 C1110 1.367 . S
C1111 C1119 1.433 . S
C1112 H1108 0.929 . S
C1112 C1114 1.378 . S
C1112 C1116 1.350 . S
C1113 C1116 1.463 1_655 S
C1113 C1118 1.350 . S
C1113 N1121 1.427 . S
C1114 H1105 0.930 . S
C1114 C1112 1.378 . S
C1114 C1115 1.367 . S
C1115 C1114 1.367 . S
C1115 C1117 1.433 . S
C1116 C1112 1.350 . S
C1116 C1113 1.463 1_455 S
C1116 N1120 1.427 . S
C1117 H1107 0.929 . S
C1117 C1115 1.433 . S
C1117 N1120 1.384 . S
C1118 H1109 0.929 . S
C1118 C1110 1.378 . S
C1118 C1113 1.350 . S
C1119 H1106 0.929 . S
C1119 C1111 1.433 . S
C1119 N1121 1.384 . S
N1120 C1116 1.427 . S
N1120 C1117 1.384 . S
N1121 C1113 1.427 . S
N1121 C1119 1.384 . S
H1122 C1128 0.930 . S
H1123 C1132 0.930 . S
H1124 C1137 0.929 1_545 S
H1125 C1135 0.929 1_565 S
H1126 C1130 0.929 . S
H1127 C1136 0.929 . S
C1128 H1122 0.930 . S
C1128 C1129 1.367 . S
C1128 C1136 1.378 . S
C1129 C1128 1.367 . S
C1129 C1137 1.433 . S
C1130 H1126 0.929 . S
C1130 C1132 1.378 . S
C1130 C1134 1.350 . S
C1131 C1134 1.463 1_565 S
C1131 C1136 1.350 . S
C1131 N1139 1.427 1_565 S
C1132 H1123 0.930 . S
C1132 C1130 1.378 . S
C1132 C1133 1.367 . S
C1133 C1132 1.367 . S
C1133 C1135 1.433 . S
C1134 C1130 1.350 . S
C1134 C1131 1.463 1_545 S
C1134 N1138 1.427 1_545 S
C1135 H1125 0.929 1_545 S
C1135 C1133 1.433 . S
C1135 N1138 1.384 1_545 S
C1136 H1127 0.929 . S
C1136 C1128 1.378 . S
C1136 C1131 1.350 . S
C1137 H1124 0.929 1_565 S
C1137 C1129 1.433 . S
C1137 N1139 1.384 1_565 S
N1138 C1134 1.427 1_565 S
N1138 C1135 1.384 1_565 S
N1139 C1131 1.427 1_545 S
N1139 C1137 1.384 1_545 S
H1140 C1146 0.930 . S
H1141 C1150 0.930 . S
H1142 C1155 0.929 . S
H1143 C1153 0.929 . S
H1144 C1148 0.929 . S
H1145 C1154 0.929 . S
C1146 H1140 0.930 . S
C1146 C1147 1.367 . S
C1146 C1154 1.378 . S
C1147 C1146 1.367 . S
C1147 C1155 1.433 . S
C1148 H1144 0.929 . S
C1148 C1150 1.378 . S
C1148 C1152 1.350 . S
C1149 C1152 1.463 1_655 S
C1149 C1154 1.350 . S
C1149 N1157 1.427 . S
C1150 H1141 0.930 . S
C1150 C1148 1.378 . S
C1150 C1151 1.367 . S
C1151 C1150 1.367 . S
C1151 C1153 1.433 . S
C1152 C1148 1.350 . S
C1152 C1149 1.463 1_455 S
C1152 N1156 1.427 . S
C1153 H1143 0.929 . S
C1153 C1151 1.433 . S
C1153 N1156 1.384 . S
C1154 H1145 0.929 . S
C1154 C1146 1.378 . S
C1154 C1149 1.350 . S
C1155 H1142 0.929 . S
C1155 C1147 1.433 . S
C1155 N1157 1.384 . S
N1156 C1152 1.427 . S
N1156 C1153 1.384 . S
N1157 C1149 1.427 . S
N1157 C1155 1.384 . S
H1158 C1164 0.930 . S
H1159 C1168 0.930 . S
H1160 C1173 0.929 . S
H1161 C1171 0.929 . S
H1162 C1166 0.929 1_545 S
H1163 C1172 0.929 1_565 S
C1164 H1158 0.930 . S
C1164 C1165 1.367 . S
C1164 C1172 1.378 . S
C1165 C1164 1.367 . S
C1165 C1173 1.433 . S
C1166 H1162 0.929 1_565 S
C1166 C1168 1.378 . S
C1166 C1170 1.350 . S
C1167 C1170 1.463 1_545 S
C1167 C1172 1.350 . S
C1167 N1175 1.427 . S
C1168 H1159 0.930 . S
C1168 C1166 1.378 . S
C1168 C1169 1.367 . S
C1169 C1168 1.367 . S
C1169 C1171 1.433 . S
C1170 C1166 1.350 . S
C1170 C1167 1.463 1_565 S
C1170 N1174 1.427 . S
C1171 H1161 0.929 . S
C1171 C1169 1.433 . S
C1171 N1174 1.384 . S
C1172 H1163 0.929 1_545 S
C1172 C1164 1.378 . S
C1172 C1167 1.350 . S
C1173 H1160 0.929 . S
C1173 C1165 1.433 . S
C1173 N1175 1.384 . S
N1174 C1170 1.427 . S
N1174 C1171 1.384 . S
N1175 C1167 1.427 . S
N1175 C1173 1.384 . S
H1176 C1182 0.930 . S
H1177 C1186 0.930 . S
H1178 C1191 0.929 . S
H1179 C1189 0.929 . S
H1180 C1184 0.929 1_455 S
H1181 C1190 0.929 1_655 S
C1182 H1176 0.930 . S
C1182 C1183 1.367 . S
C1182 C1190 1.378 . S
C1183 C1182 1.367 . S
C1183 C1191 1.433 . S
C1184 H1180 0.929 1_655 S
C1184 C1186 1.378 . S
C1184 C1188 1.350 . S
C1185 C1188 1.463 1_455 S
C1185 C1190 1.350 . S
C1185 N1193 1.427 . S
C1186 H1177 0.930 . S
C1186 C1184 1.378 . S
C1186 C1187 1.367 . S
C1187 C1186 1.367 . S
C1187 C1189 1.433 . S
C1188 C1184 1.350 . S
C1188 C1185 1.463 1_655 S
C1188 N1192 1.427 . S
C1189 H1179 0.929 . S
C1189 C1187 1.433 . S
C1189 N1192 1.384 . S
C1190 H1181 0.929 1_455 S
C1190 C1182 1.378 . S
C1190 C1185 1.350 . S
C1191 H1178 0.929 . S
C1191 C1183 1.433 . S
C1191 N1193 1.384 . S
N1192 C1188 1.427 . S
N1192 C1189 1.384 . S
N1193 C1185 1.427 . S
N1193 C1191 1.384 . S
H1194 C1200 0.930 . S
H1195 C1204 0.930 . S
H1196 C1209 0.910 1_545 S
H1197 C1207 0.910 1_565 S
H1198 C1202 0.929 . S
H1199 C1208 0.929 . S
C1200 H1194 0.930 . S
C1200 C1201 1.367 . S
C1200 C1208 1.378 . S
C1201 C1200 1.367 . S
C1201 C1209 1.433 . S
C1202 H1198 0.929 . S
C1202 C1204 1.378 . S
C1202 C1206 1.350 . S
C1203 C1206 1.463 1_565 S
C1203 C1208 1.350 . S
C1203 N1211 1.427 1_565 S
C1204 H1195 0.930 . S
C1204 C1202 1.378 . S
C1204 C1205 1.367 . S
C1205 C1204 1.367 . S
C1205 C1207 1.433 . S
C1206 C1202 1.350 . S
C1206 C1203 1.463 1_545 S
C1206 N1210 1.427 1_545 S
C1207 H1197 0.910 1_545 S
C1207 C1205 1.433 . S
C1207 N1210 1.384 1_545 S
C1208 H1199 0.929 . S
C1208 C1200 1.378 . S
C1208 C1203 1.350 . S
C1209 H1196 0.910 1_565 S
C1209 C1201 1.433 . S
C1209 N1211 1.384 1_565 S
N1210 C1206 1.427 1_565 S
N1210 C1207 1.384 1_565 S
N1211 C1203 1.427 1_545 S
N1211 C1209 1.384 1_545 S
H1212 C1218 0.930 . S
H1213 C1222 0.930 . S
H1214 C1227 0.929 . S
H1215 C1225 0.929 . S
H1216 C1220 0.926 1_455 S
H1217 C1226 0.926 1_655 S
C1218 H1212 0.930 . S
C1218 C1219 1.367 . S
C1218 C1226 1.380 . S
C1219 C1218 1.367 . S
C1219 C1227 1.433 . S
C1220 H1216 0.926 1_655 S
C1220 C1222 1.380 . S
C1220 C1224 1.351 . S
C1221 C1224 1.463 1_455 S
C1221 C1226 1.351 . S
C1221 N1229 1.427 . S
C1222 H1213 0.930 . S
C1222 C1220 1.380 . S
C1222 C1223 1.367 . S
C1223 C1222 1.367 . S
C1223 C1225 1.433 . S
C1224 C1220 1.351 . S
C1224 C1221 1.463 1_655 S
C1224 N1228 1.427 . S
C1225 H1215 0.929 . S
C1225 C1223 1.433 . S
C1225 N1228 1.384 . S
C1226 H1217 0.926 1_455 S
C1226 C1218 1.380 . S
C1226 C1221 1.351 . S
C1227 H1214 0.929 . S
C1227 C1219 1.433 . S
C1227 N1229 1.384 . S
N1228 C1224 1.427 . S
N1228 C1225 1.384 . S
N1229 C1221 1.427 . S
N1229 C1227 1.384 . S
H1230 C1236 0.930 1_565 S
H1231 C1240 0.930 1_545 S
H1232 C1245 0.929 . S
H1233 C1243 0.929 . S
H1234 C1238 0.929 . S
H1235 C1244 0.929 . S
C1236 H1230 0.930 1_545 S
C1236 C1237 1.367 . S
C1236 C1244 1.378 1_545 S
C1237 C1236 1.367 . S
C1237 C1245 1.433 . S
C1238 H1234 0.929 . S
C1238 C1240 1.378 1_545 S
C1238 C1242 1.350 1_545 S
C1239 C1242 1.463 1_545 S
C1239 C1244 1.350 1_545 S
C1239 N1247 1.427 . S
C1240 H1231 0.930 1_565 S
C1240 C1238 1.378 1_565 S
C1240 C1241 1.367 . S
C1241 C1240 1.367 . S
C1241 C1243 1.433 . S
C1242 C1238 1.350 1_565 S
C1242 C1239 1.463 1_565 S
C1242 N1246 1.427 . S
C1243 H1233 0.929 . S
C1243 C1241 1.433 . S
C1243 N1246 1.384 . S
C1244 H1235 0.929 . S
C1244 C1236 1.378 1_565 S
C1244 C1239 1.350 1_565 S
C1245 H1232 0.929 . S
C1245 C1237 1.433 . S
C1245 N1247 1.384 . S
N1246 C1242 1.427 . S
N1246 C1243 1.384 . S
N1247 C1239 1.427 . S
N1247 C1245 1.384 . S
H1248 C1254 0.930 . S
H1249 C1258 0.930 . S
H1250 C1263 0.929 . S
H1251 C1261 0.929 . S
H1252 C1256 0.929 . S
H1253 C1262 0.929 . S
C1254 H1248 0.930 . S
C1254 C1255 1.367 . S
C1254 C1262 1.378 . S
C1255 C1254 1.367 . S
C1255 C1263 1.433 . S
C1256 H1252 0.929 . S
C1256 C1258 1.378 . S
C1256 C1260 1.350 . S
C1257 C1260 1.463 1_556 S
C1257 C1262 1.350 . S
C1257 N1265 1.427 . S
C1258 H1249 0.930 . S
C1258 C1256 1.378 . S
C1258 C1259 1.367 . S
C1259 C1258 1.367 . S
C1259 C1261 1.433 . S
C1260 C1256 1.350 . S
C1260 C1257 1.463 1_554 S
C1260 N1264 1.427 . S
C1261 H1251 0.929 . S
C1261 C1259 1.433 . S
C1261 N1264 1.384 . S
C1262 H1253 0.929 . S
C1262 C1254 1.378 . S
C1262 C1257 1.350 . S
C1263 H1250 0.929 . S
C1263 C1255 1.433 . S
C1263 N1265 1.384 . S
N1264 C1260 1.427 . S
N1264 C1261 1.384 . S
N1265 C1257 1.427 . S
N1265 C1263 1.384 . S
H1266 C1272 0.930 . S
H1267 C1276 0.930 . S
H1268 C1281 0.929 . S
H1269 C1279 0.929 . S
H1270 C1274 0.929 . S
H1271 C1280 0.929 . S
C1272 H1266 0.930 . S
C1272 C1273 1.367 . S
C1272 C1280 1.378 . S
C1273 C1272 1.367 . S
C1273 C1281 1.433 . S
C1274 H1270 0.929 . S
C1274 C1276 1.378 . S
C1274 C1278 1.350 . S
C1275 C1278 1.463 1_554 S
C1275 C1280 1.350 . S
C1275 N1283 1.427 . S
C1276 H1267 0.930 . S
C1276 C1274 1.378 . S
C1276 C1277 1.367 . S
C1277 C1276 1.367 . S
C1277 C1279 1.433 . S
C1278 C1274 1.350 . S
C1278 C1275 1.463 1_556 S
C1278 N1282 1.427 . S
C1279 H1269 0.929 . S
C1279 C1277 1.433 . S
C1279 N1282 1.384 . S
C1280 H1271 0.929 . S
C1280 C1272 1.378 . S
C1280 C1275 1.350 . S
C1281 H1268 0.929 . S
C1281 C1273 1.433 . S
C1281 N1283 1.384 . S
N1282 C1278 1.427 . S
N1282 C1279 1.384 . S
N1283 C1275 1.427 . S
N1283 C1281 1.384 . S
H1284 C1290 0.930 . S
H1285 C1294 0.930 . S
H1286 C1299 0.929 . S
H1287 C1297 0.929 . S
H1288 C1292 0.929 . S
H1289 C1298 0.929 . S
C1290 H1284 0.930 . S
C1290 C1291 1.367 . S
C1290 C1298 1.378 . S
C1291 C1290 1.367 . S
C1291 C1299 1.433 . S
C1292 H1288 0.929 . S
C1292 C1294 1.378 . S
C1292 C1296 1.350 . S
C1293 C1296 1.463 1_554 S
C1293 C1298 1.350 . S
C1293 N1301 1.427 . S
C1294 H1285 0.930 . S
C1294 C1292 1.378 . S
C1294 C1295 1.367 . S
C1295 C1294 1.367 . S
C1295 C1297 1.433 . S
C1296 C1292 1.350 . S
C1296 C1293 1.463 1_556 S
C1296 N1300 1.427 . S
C1297 H1287 0.929 . S
C1297 C1295 1.433 . S
C1297 N1300 1.384 . S
C1298 H1289 0.929 . S
C1298 C1290 1.378 . S
C1298 C1293 1.350 . S
C1299 H1286 0.929 . S
C1299 C1291 1.433 . S
C1299 N1301 1.384 . S
N1300 C1296 1.427 . S
N1300 C1297 1.384 . S
N1301 C1293 1.427 . S
N1301 C1299 1.384 . S
H1302 C1308 0.930 . S
H1303 C1312 0.930 . S
H1304 C1317 0.929 . S
H1305 C1315 0.929 . S
H1306 C1310 0.929 . S
H1307 C1316 0.929 . S
C1308 H1302 0.930 . S
C1308 C1309 1.367 . S
C1308 C1316 1.378 . S
C1309 C1308 1.367 . S
C1309 C1317 1.433 . S
C1310 H1306 0.929 . S
C1310 C1312 1.378 . S
C1310 C1314 1.350 . S
C1311 C1314 1.463 1_556 S
C1311 C1316 1.350 . S
C1311 N1319 1.427 . S
C1312 H1303 0.930 . S
C1312 C1310 1.378 . S
C1312 C1313 1.367 . S
C1313 C1312 1.367 . S
C1313 C1315 1.433 . S
C1314 C1310 1.350 . S
C1314 C1311 1.463 1_554 S
C1314 N1318 1.427 . S
C1315 H1305 0.929 . S
C1315 C1313 1.433 . S
C1315 N1318 1.384 . S
C1316 H1307 0.929 . S
C1316 C1308 1.378 . S
C1316 C1311 1.350 . S
C1317 H1304 0.929 . S
C1317 C1309 1.433 . S
C1317 N1319 1.384 . S
N1318 C1314 1.427 . S
N1318 C1315 1.384 . S
N1319 C1311 1.427 . S
N1319 C1317 1.384 . S
H1320 C1326 0.930 . S
H1321 C1330 0.930 . S
H1322 C1335 0.929 . S
H1323 C1333 0.929 . S
H1324 C1328 0.929 . S
H1325 C1334 0.929 . S
C1326 H1320 0.930 . S
C1326 C1327 1.367 . S
C1326 C1334 1.378 . S
C1327 C1326 1.367 . S
C1327 C1335 1.433 . S
C1328 H1324 0.929 . S
C1328 C1330 1.378 . S
C1328 C1332 1.350 . S
C1329 C1332 1.463 . S
C1329 C1334 1.350 . S
C1329 N1337 1.427 . S
C1330 H1321 0.930 . S
C1330 C1328 1.378 . S
C1330 C1331 1.367 . S
C1331 C1330 1.367 . S
C1331 C1333 1.433 . S
C1332 C1328 1.350 . S
C1332 C1329 1.463 . S
C1332 N1336 1.427 . S
C1333 H1323 0.929 . S
C1333 C1331 1.433 . S
C1333 N1336 1.384 . S
C1334 H1325 0.929 . S
C1334 C1326 1.378 . S
C1334 C1329 1.350 . S
C1335 H1322 0.929 . S
C1335 C1327 1.433 . S
C1335 N1337 1.384 . S
N1336 C1332 1.427 . S
N1336 C1333 1.384 . S
N1337 C1329 1.427 . S
N1337 C1335 1.384 . S
H1338 C1344 0.930 . S
H1339 C1348 0.930 . S
H1340 C1353 0.929 . S
H1341 C1351 0.929 . S
H1342 C1346 0.929 . S
H1343 C1352 0.929 . S
C1344 H1338 0.930 . S
C1344 C1345 1.367 . S
C1344 C1352 1.378 . S
C1345 C1344 1.367 . S
C1345 C1353 1.433 . S
C1346 H1342 0.929 . S
C1346 C1348 1.378 . S
C1346 C1350 1.350 . S
C1347 C1350 1.463 . S
C1347 C1352 1.350 . S
C1347 N1355 1.427 . S
C1348 H1339 0.930 . S
C1348 C1346 1.378 . S
C1348 C1349 1.367 . S
C1349 C1348 1.367 . S
C1349 C1351 1.433 . S
C1350 C1346 1.350 . S
C1350 C1347 1.463 . S
C1350 N1354 1.427 . S
C1351 H1341 0.929 . S
C1351 C1349 1.433 . S
C1351 N1354 1.384 . S
C1352 H1343 0.929 . S
C1352 C1344 1.378 . S
C1352 C1347 1.350 . S
C1353 H1340 0.929 . S
C1353 C1345 1.433 . S
C1353 N1355 1.384 . S
N1354 C1350 1.427 . S
N1354 C1351 1.384 . S
N1355 C1347 1.427 . S
N1355 C1353 1.384 . S
H1356 C1362 0.930 . S
H1357 C1366 0.930 . S
H1358 C1371 0.929 . S
H1359 C1369 0.929 . S
H1360 C1364 0.929 . S
H1361 C1370 0.929 . S
C1362 H1356 0.930 . S
C1362 C1363 1.367 . S
C1362 C1370 1.378 . S
C1363 C1362 1.367 . S
C1363 C1371 1.433 . S
C1364 H1360 0.929 . S
C1364 C1366 1.378 . S
C1364 C1368 1.350 . S
C1365 C1368 1.463 . S
C1365 C1370 1.350 . S
C1365 N1373 1.427 . S
C1366 H1357 0.930 . S
C1366 C1364 1.378 . S
C1366 C1367 1.367 . S
C1367 C1366 1.367 . S
C1367 C1369 1.433 . S
C1368 C1364 1.350 . S
C1368 C1365 1.463 . S
C1368 N1372 1.427 . S
C1369 H1359 0.929 . S
C1369 C1367 1.433 . S
C1369 N1372 1.384 . S
C1370 H1361 0.929 . S
C1370 C1362 1.378 . S
C1370 C1365 1.350 . S
C1371 H1358 0.929 . S
C1371 C1363 1.433 . S
C1371 N1373 1.384 . S
N1372 C1368 1.427 . S
N1372 C1369 1.384 . S
N1373 C1365 1.427 . S
N1373 C1371 1.384 . S
H1374 C1380 0.930 . S
H1375 C1384 0.930 . S
H1376 C1389 0.929 . S
H1377 C1387 0.929 . S
H1378 C1382 0.929 . S
H1379 C1388 0.929 . S
C1380 H1374 0.930 . S
C1380 C1381 1.367 . S
C1380 C1388 1.378 . S
C1381 C1380 1.367 . S
C1381 C1389 1.433 . S
C1382 H1378 0.929 . S
C1382 C1384 1.378 . S
C1382 C1386 1.350 . S
C1383 C1386 1.463 . S
C1383 C1388 1.350 . S
C1383 N1391 1.427 . S
C1384 H1375 0.930 . S
C1384 C1382 1.378 . S
C1384 C1385 1.367 . S
C1385 C1384 1.367 . S
C1385 C1387 1.433 . S
C1386 C1382 1.350 . S
C1386 C1383 1.463 . S
C1386 N1390 1.427 . S
C1387 H1377 0.929 . S
C1387 C1385 1.433 . S
C1387 N1390 1.384 . S
C1388 H1379 0.929 . S
C1388 C1380 1.378 . S
C1388 C1383 1.350 . S
C1389 H1376 0.929 . S
C1389 C1381 1.433 . S
C1389 N1391 1.384 . S
N1390 C1386 1.427 . S
N1390 C1387 1.384 . S
N1391 C1383 1.427 . S
N1391 C1389 1.384 . S
H1392 C1398 0.930 . S
H1393 C1402 0.930 . S
H1394 C1407 0.929 . S
H1395 C1405 0.929 . S
H1396 C1400 0.929 . S
H1397 C1406 0.929 . S
C1398 H1392 0.930 . S
C1398 C1399 1.367 . S
C1398 C1406 1.378 . S
C1399 C1398 1.367 . S
C1399 C1407 1.433 . S
C1400 H1396 0.929 . S
C1400 C1402 1.378 . S
C1400 C1404 1.350 . S
C1401 C1404 1.463 . S
C1401 C1406 1.350 . S
C1401 N1409 1.427 . S
C1402 H1393 0.930 . S
C1402 C1400 1.378 . S
C1402 C1403 1.367 . S
C1403 C1402 1.367 . S
C1403 C1405 1.433 . S
C1404 C1400 1.350 . S
C1404 C1401 1.463 . S
C1404 N1408 1.427 . S
C1405 H1395 0.929 . S
C1405 C1403 1.433 . S
C1405 N1408 1.384 . S
C1406 H1397 0.929 . S
C1406 C1398 1.378 . S
C1406 C1401 1.350 . S
C1407 H1394 0.929 . S
C1407 C1399 1.433 . S
C1407 N1409 1.384 . S
N1408 C1404 1.427 . S
N1408 C1405 1.384 . S
N1409 C1401 1.427 . S
N1409 C1407 1.384 . S
H1410 C1416 0.930 . S
H1411 C1420 0.930 . S
H1412 C1425 0.929 . S
H1413 C1423 0.929 . S
H1414 C1418 0.929 . S
H1415 C1424 0.929 . S
C1416 H1410 0.930 . S
C1416 C1417 1.367 . S
C1416 C1424 1.378 . S
C1417 C1416 1.367 . S
C1417 C1425 1.433 . S
C1418 H1414 0.929 . S
C1418 C1420 1.378 . S
C1418 C1422 1.350 . S
C1419 C1422 1.463 . S
C1419 C1424 1.350 . S
C1419 N1427 1.427 . S
C1420 H1411 0.930 . S
C1420 C1418 1.378 . S
C1420 C1421 1.367 . S
C1421 C1420 1.367 . S
C1421 C1423 1.433 . S
C1422 C1418 1.350 . S
C1422 C1419 1.463 . S
C1422 N1426 1.427 . S
C1423 H1413 0.929 . S
C1423 C1421 1.433 . S
C1423 N1426 1.384 . S
C1424 H1415 0.929 . S
C1424 C1416 1.378 . S
C1424 C1419 1.350 . S
C1425 H1412 0.929 . S
C1425 C1417 1.433 . S
C1425 N1427 1.384 . S
N1426 C1422 1.427 . S
N1426 C1423 1.384 . S
N1427 C1419 1.427 . S
N1427 C1425 1.384 . S
H1428 C1434 0.930 . S
H1429 C1438 0.930 . S
H1430 C1443 0.929 . S
H1431 C1441 0.929 . S
H1432 C1436 0.929 . S
H1433 C1442 0.929 . S
C1434 H1428 0.930 . S
C1434 C1435 1.367 . S
C1434 C1442 1.378 . S
C1435 C1434 1.367 . S
C1435 C1443 1.433 . S
C1436 H1432 0.929 . S
C1436 C1438 1.378 . S
C1436 C1440 1.350 . S
C1437 C1440 1.463 . S
C1437 C1442 1.350 . S
C1437 N1445 1.427 . S
C1438 H1429 0.930 . S
C1438 C1436 1.378 . S
C1438 C1439 1.367 . S
C1439 C1438 1.367 . S
C1439 C1441 1.433 . S
C1440 C1436 1.350 . S
C1440 C1437 1.463 . S
C1440 N1444 1.427 . S
C1441 H1431 0.929 . S
C1441 C1439 1.433 . S
C1441 N1444 1.384 . S
C1442 H1433 0.929 . S
C1442 C1434 1.378 . S
C1442 C1437 1.350 . S
C1443 H1430 0.929 . S
C1443 C1435 1.433 . S
C1443 N1445 1.384 . S
N1444 C1440 1.427 . S
N1444 C1441 1.384 . S
N1445 C1437 1.427 . S
N1445 C1443 1.384 . S
H1446 C1452 0.930 . S
H1447 C1456 0.930 . S
H1448 C1461 0.929 . S
H1449 C1459 0.929 . S
H1450 C1454 0.929 . S
H1451 C1460 0.929 . S
C1452 H1446 0.930 . S
C1452 C1453 1.367 . S
C1452 C1460 1.378 . S
C1453 C1452 1.367 . S
C1453 C1461 1.433 . S
C1454 H1450 0.929 . S
C1454 C1456 1.378 . S
C1454 C1458 1.350 . S
C1455 C1458 1.463 . S
C1455 C1460 1.350 . S
C1455 N1463 1.427 . S
C1456 H1447 0.930 . S
C1456 C1454 1.378 . S
C1456 C1457 1.367 . S
C1457 C1456 1.367 . S
C1457 C1459 1.433 . S
C1458 C1454 1.350 . S
C1458 C1455 1.463 . S
C1458 N1462 1.427 . S
C1459 H1449 0.929 . S
C1459 C1457 1.433 . S
C1459 N1462 1.384 . S
C1460 H1451 0.929 . S
C1460 C1452 1.378 . S
C1460 C1455 1.350 . S
C1461 H1448 0.929 . S
C1461 C1453 1.433 . S
C1461 N1463 1.384 . S
N1462 C1458 1.427 . S
N1462 C1459 1.384 . S
N1463 C1455 1.427 . S
N1463 C1461 1.384 . S
H1464 C1470 0.930 . S
H1465 C1474 0.930 . S
H1466 C1479 0.929 . S
H1467 C1477 0.929 . S
H1468 C1472 0.929 . S
H1469 C1478 0.929 . S
C1470 H1464 0.930 . S
C1470 C1471 1.367 . S
C1470 C1478 1.378 . S
C1471 C1470 1.367 . S
C1471 C1479 1.433 . S
C1472 H1468 0.929 . S
C1472 C1474 1.378 . S
C1472 C1476 1.350 . S
C1473 C1476 1.463 . S
C1473 C1478 1.350 . S
C1473 N1481 1.427 . S
C1474 H1465 0.930 . S
C1474 C1472 1.378 . S
C1474 C1475 1.367 . S
C1475 C1474 1.367 . S
C1475 C1477 1.433 . S
C1476 C1472 1.350 . S
C1476 C1473 1.463 . S
C1476 N1480 1.427 . S
C1477 H1467 0.929 . S
C1477 C1475 1.433 . S
C1477 N1480 1.384 . S
C1478 H1469 0.929 . S
C1478 C1470 1.378 . S
C1478 C1473 1.350 . S
C1479 H1466 0.929 . S
C1479 C1471 1.433 . S
C1479 N1481 1.384 . S
N1480 C1476 1.427 . S
N1480 C1477 1.384 . S
N1481 C1473 1.427 . S
N1481 C1479 1.384 . S
H1482 C1488 0.930 . S
H1483 C1492 0.930 . S
H1484 C1497 0.929 . S
H1485 C1495 0.929 . S
H1486 C1490 0.929 . S
H1487 C1496 0.929 . S
C1488 H1482 0.930 . S
C1488 C1489 1.367 . S
C1488 C1496 1.378 . S
C1489 C1488 1.367 . S
C1489 C1497 1.433 . S
C1490 H1486 0.929 . S
C1490 C1492 1.378 . S
C1490 C1494 1.350 . S
C1491 C1494 1.463 . S
C1491 C1496 1.350 . S
C1491 N1499 1.427 . S
C1492 H1483 0.930 . S
C1492 C1490 1.378 . S
C1492 C1493 1.367 . S
C1493 C1492 1.367 . S
C1493 C1495 1.433 . S
C1494 C1490 1.350 . S
C1494 C1491 1.463 . S
C1494 N1498 1.427 . S
C1495 H1485 0.929 . S
C1495 C1493 1.433 . S
C1495 N1498 1.384 . S
C1496 H1487 0.929 . S
C1496 C1488 1.378 . S
C1496 C1491 1.350 . S
C1497 H1484 0.929 . S
C1497 C1489 1.433 . S
C1497 N1499 1.384 . S
N1498 C1494 1.427 . S
N1498 C1495 1.384 . S
N1499 C1491 1.427 . S
N1499 C1497 1.384 . S
H1500 C1506 0.930 . S
H1501 C1510 0.930 . S
H1502 C1515 0.929 . S
H1503 C1513 0.929 . S
H1504 C1508 0.929 . S
H1505 C1514 0.929 . S
C1506 H1500 0.930 . S
C1506 C1507 1.367 . S
C1506 C1514 1.378 . S
C1507 C1506 1.367 . S
C1507 C1515 1.433 . S
C1508 H1504 0.929 . S
C1508 C1510 1.378 . S
C1508 C1512 1.350 . S
C1509 C1512 1.463 . S
C1509 C1514 1.350 . S
C1509 N1517 1.427 . S
C1510 H1501 0.930 . S
C1510 C1508 1.378 . S
C1510 C1511 1.367 . S
C1511 C1510 1.367 . S
C1511 C1513 1.433 . S
C1512 C1508 1.350 . S
C1512 C1509 1.463 . S
C1512 N1516 1.427 . S
C1513 H1503 0.929 . S
C1513 C1511 1.433 . S
C1513 N1516 1.384 . S
C1514 H1505 0.929 . S
C1514 C1506 1.378 . S
C1514 C1509 1.350 . S
C1515 H1502 0.929 . S
C1515 C1507 1.433 . S
C1515 N1517 1.384 . S
N1516 C1512 1.427 . S
N1516 C1513 1.384 . S
N1517 C1509 1.427 . S
N1517 C1515 1.384 . S
H1518 C1524 0.930 . S
H1519 C1528 0.930 . S
H1520 C1533 0.929 . S
H1521 C1531 0.929 . S
H1522 C1526 0.929 . S
H1523 C1532 0.929 . S
C1524 H1518 0.930 . S
C1524 C1525 1.367 . S
C1524 C1532 1.378 . S
C1525 C1524 1.367 . S
C1525 C1533 1.433 . S
C1526 H1522 0.929 . S
C1526 C1528 1.378 . S
C1526 C1530 1.350 . S
C1527 C1530 1.463 . S
C1527 C1532 1.350 . S
C1527 N1535 1.427 . S
C1528 H1519 0.930 . S
C1528 C1526 1.378 . S
C1528 C1529 1.367 . S
C1529 C1528 1.367 . S
C1529 C1531 1.433 . S
C1530 C1526 1.350 . S
C1530 C1527 1.463 . S
C1530 N1534 1.427 . S
C1531 H1521 0.929 . S
C1531 C1529 1.433 . S
C1531 N1534 1.384 . S
C1532 H1523 0.929 . S
C1532 C1524 1.378 . S
C1532 C1527 1.350 . S
C1533 H1520 0.929 . S
C1533 C1525 1.433 . S
C1533 N1535 1.384 . S
N1534 C1530 1.427 . S
N1534 C1531 1.384 . S
N1535 C1527 1.427 . S
N1535 C1533 1.384 . S
H1536 C1542 0.930 . S
H1537 C1546 0.930 . S
H1538 C1551 0.929 . S
H1539 C1549 0.929 . S
H1540 C1544 0.929 . S
H1541 C1550 0.929 . S
C1542 H1536 0.930 . S
C1542 C1543 1.367 . S
C1542 C1550 1.378 . S
C1543 C1542 1.367 . S
C1543 C1551 1.433 . S
C1544 H1540 0.929 . S
C1544 C1546 1.378 . S
C1544 C1548 1.350 . S
C1545 C1548 1.463 . S
C1545 C1550 1.350 . S
C1545 N1553 1.427 . S
C1546 H1537 0.930 . S
C1546 C1544 1.378 . S
C1546 C1547 1.367 . S
C1547 C1546 1.367 . S
C1547 C1549 1.433 . S
C1548 C1544 1.350 . S
C1548 C1545 1.463 . S
C1548 N1552 1.427 . S
C1549 H1539 0.929 . S
C1549 C1547 1.433 . S
C1549 N1552 1.384 . S
C1550 H1541 0.929 . S
C1550 C1542 1.378 . S
C1550 C1545 1.350 . S
C1551 H1538 0.929 . S
C1551 C1543 1.433 . S
C1551 N1553 1.384 . S
N1552 C1548 1.427 . S
N1552 C1549 1.384 . S
N1553 C1545 1.427 . S
N1553 C1551 1.384 . S
H1554 C1560 0.930 . S
H1555 C1564 0.930 . S
H1556 C1569 0.929 . S
H1557 C1567 0.929 1_556 S
H1558 C1562 0.929 . S
H1559 C1568 0.929 . S
C1560 H1554 0.930 . S
C1560 C1561 1.367 . S
C1560 C1568 1.378 . S
C1561 C1560 1.367 . S
C1561 C1569 1.433 . S
C1562 H1558 0.929 . S
C1562 C1564 1.378 . S
C1562 C1566 1.350 . S
C1563 C1566 1.463 . S
C1563 C1568 1.350 . S
C1563 N1571 1.427 . S
C1564 H1555 0.930 . S
C1564 C1562 1.378 . S
C1564 C1565 1.367 . S
C1565 C1564 1.367 . S
C1565 C1567 1.433 . S
C1566 C1562 1.350 . S
C1566 C1563 1.463 . S
C1566 N1570 1.427 . S
C1567 H1557 0.929 1_554 S
C1567 C1565 1.433 . S
C1567 N1570 1.384 . S
C1568 H1559 0.929 . S
C1568 C1560 1.378 . S
C1568 C1563 1.350 . S
C1569 H1556 0.929 . S
C1569 C1561 1.433 . S
C1569 N1571 1.384 . S
N1570 C1566 1.427 . S
N1570 C1567 1.384 . S
N1571 C1563 1.427 . S
N1571 C1569 1.384 . S
H1572 C1578 0.930 . S
H1573 C1582 0.930 . S
H1574 C1587 0.929 . S
H1575 C1585 0.956 . S
H1576 C1580 0.929 . S
H1577 C1586 0.929 . S
C1578 H1572 0.930 . S
C1578 C1579 1.367 . S
C1578 C1586 1.378 . S
C1579 C1578 1.367 . S
C1579 C1587 1.433 . S
C1580 H1576 0.929 . S
C1580 C1582 1.378 . S
C1580 C1584 1.350 . S
C1581 C1584 1.463 . S
C1581 C1586 1.350 . S
C1581 N1589 1.427 . S
C1582 H1573 0.930 . S
C1582 C1580 1.378 . S
C1582 C1583 1.367 . S
C1583 C1582 1.367 . S
C1583 C1585 1.433 . S
C1584 C1580 1.350 . S
C1584 C1581 1.463 . S
C1584 N1588 1.427 . S
C1585 H1575 0.956 . S
C1585 C1583 1.433 . S
C1585 N1588 1.384 . S
C1586 H1577 0.929 . S
C1586 C1578 1.378 . S
C1586 C1581 1.350 . S
C1587 H1574 0.929 . S
C1587 C1579 1.433 . S
C1587 N1589 1.384 . S
N1588 C1584 1.427 . S
N1588 C1585 1.384 . S
N1589 C1581 1.427 . S
N1589 C1587 1.384 . S
H1590 C1596 0.930 1_556 S
H1591 C1600 0.930 . S
H1592 C1605 0.929 . S
H1593 C1603 0.929 . S
H1594 C1598 0.929 . S
H1595 C1604 0.929 . S
C1596 H1590 0.930 1_554 S
C1596 C1597 1.367 . S
C1596 C1604 1.378 . S
C1597 C1596 1.367 . S
C1597 C1605 1.433 . S
C1598 H1594 0.929 . S
C1598 C1600 1.378 . S
C1598 C1602 1.350 . S
C1599 C1602 1.463 . S
C1599 C1604 1.350 . S
C1599 N1607 1.427 . S
C1600 H1591 0.930 . S
C1600 C1598 1.378 . S
C1600 C1601 1.367 . S
C1601 C1600 1.367 . S
C1601 C1603 1.433 . S
C1602 C1598 1.350 . S
C1602 C1599 1.463 . S
C1602 N1606 1.427 . S
C1603 H1593 0.929 . S
C1603 C1601 1.433 . S
C1603 N1606 1.384 . S
C1604 H1595 0.929 . S
C1604 C1596 1.378 . S
C1604 C1599 1.350 . S
C1605 H1592 0.929 . S
C1605 C1597 1.433 . S
C1605 N1607 1.384 . S
N1606 C1602 1.427 . S
N1606 C1603 1.384 . S
N1607 C1599 1.427 . S
N1607 C1605 1.384 . S
H1608 C1614 0.930 . S
H1609 C1618 0.930 1_554 S
H1610 C1623 0.929 . S
H1611 C1621 0.929 . S
H1612 C1616 0.929 . S
H1613 C1622 0.929 . S
C1614 H1608 0.930 . S
C1614 C1615 1.367 . S
C1614 C1622 1.378 . S
C1615 C1614 1.367 . S
C1615 C1623 1.433 . S
C1616 H1612 0.929 . S
C1616 C1618 1.378 . S
C1616 C1620 1.350 . S
C1617 C1620 1.463 . S
C1617 C1622 1.350 . S
C1617 N1625 1.427 . S
C1618 H1609 0.930 1_556 S
C1618 C1616 1.378 . S
C1618 C1619 1.367 . S
C1619 C1618 1.367 . S
C1619 C1621 1.433 . S
C1620 C1616 1.350 . S
C1620 C1617 1.463 . S
C1620 N1624 1.427 . S
C1621 H1611 0.929 . S
C1621 C1619 1.433 . S
C1621 N1624 1.384 . S
C1622 H1613 0.929 . S
C1622 C1614 1.378 . S
C1622 C1617 1.350 . S
C1623 H1610 0.929 . S
C1623 C1615 1.433 . S
C1623 N1625 1.384 . S
N1624 C1620 1.427 . S
N1624 C1621 1.384 . S
N1625 C1617 1.427 . S
N1625 C1623 1.384 . S
H1626 C1632 0.930 . S
H1627 C1636 0.930 . S
H1628 C1641 0.929 . S
H1629 C1639 0.929 . S
H1630 C1634 0.929 . S
H1631 C1640 0.929 . S
C1632 H1626 0.930 . S
C1632 C1633 1.367 . S
C1632 C1640 1.378 . S
C1633 C1632 1.367 . S
C1633 C1641 1.433 . S
C1634 H1630 0.929 . S
C1634 C1636 1.378 . S
C1634 C1638 1.350 . S
C1635 C1638 1.463 . S
C1635 C1640 1.350 . S
C1635 N1643 1.427 . S
C1636 H1627 0.930 . S
C1636 C1634 1.378 . S
C1636 C1637 1.367 . S
C1637 C1636 1.367 . S
C1637 C1639 1.433 . S
C1638 C1634 1.350 . S
C1638 C1635 1.463 . S
C1638 N1642 1.427 . S
C1639 H1629 0.929 . S
C1639 C1637 1.433 . S
C1639 N1642 1.384 . S
C1640 H1631 0.929 . S
C1640 C1632 1.378 . S
C1640 C1635 1.350 . S
C1641 H1628 0.929 . S
C1641 C1633 1.433 . S
C1641 N1643 1.384 . S
N1642 C1638 1.427 . S
N1642 C1639 1.384 . S
N1643 C1635 1.427 . S
N1643 C1641 1.384 . S
H1644 C1650 0.930 . S
H1645 C1654 0.930 . S
H1646 C1659 0.929 . S
H1647 C1657 0.929 . S
H1648 C1652 0.929 . S
H1649 C1658 0.929 . S
C1650 H1644 0.930 . S
C1650 C1651 1.367 . S
C1650 C1658 1.378 . S
C1651 C1650 1.367 . S
C1651 C1659 1.433 . S
C1652 H1648 0.929 . S
C1652 C1654 1.378 . S
C1652 C1656 1.350 . S
C1653 C1656 1.463 . S
C1653 C1658 1.350 . S
C1653 N1661 1.427 . S
C1654 H1645 0.930 . S
C1654 C1652 1.378 . S
C1654 C1655 1.367 . S
C1655 C1654 1.367 . S
C1655 C1657 1.433 . S
C1656 C1652 1.350 . S
C1656 C1653 1.463 . S
C1656 N1660 1.427 . S
C1657 H1647 0.929 . S
C1657 C1655 1.433 . S
C1657 N1660 1.384 . S
C1658 H1649 0.929 . S
C1658 C1650 1.378 . S
C1658 C1653 1.350 . S
C1659 H1646 0.929 . S
C1659 C1651 1.433 . S
C1659 N1661 1.384 . S
N1660 C1656 1.427 . S
N1660 C1657 1.384 . S
N1661 C1653 1.427 . S
N1661 C1659 1.384 . S
H1662 C1668 0.930 1_554 S
H1663 C1672 0.930 . S
H1664 C1677 0.929 . S
H1665 C1675 0.929 . S
H1666 C1670 0.929 . S
H1667 C1676 0.929 . S
C1668 H1662 0.930 1_556 S
C1668 C1669 1.367 . S
C1668 C1676 1.378 . S
C1669 C1668 1.367 . S
C1669 C1677 1.433 . S
C1670 H1666 0.929 . S
C1670 C1672 1.378 . S
C1670 C1674 1.350 . S
C1671 C1674 1.463 . S
C1671 C1676 1.350 . S
C1671 N1679 1.427 . S
C1672 H1663 0.930 . S
C1672 C1670 1.378 . S
C1672 C1673 1.367 . S
C1673 C1672 1.367 . S
C1673 C1675 1.433 . S
C1674 C1670 1.350 . S
C1674 C1671 1.463 . S
C1674 N1678 1.427 . S
C1675 H1665 0.929 . S
C1675 C1673 1.433 . S
C1675 N1678 1.384 . S
C1676 H1667 0.929 . S
C1676 C1668 1.378 . S
C1676 C1671 1.350 . S
C1677 H1664 0.929 . S
C1677 C1669 1.433 . S
C1677 N1679 1.384 . S
N1678 C1674 1.427 . S
N1678 C1675 1.384 . S
N1679 C1671 1.427 . S
N1679 C1677 1.384 . S
H1680 C1686 0.930 . S
H1681 C1690 0.930 1_655 S
H1682 C1695 0.929 . S
H1683 C1693 0.929 . S
H1684 C1688 0.929 . S
H1685 C1694 0.929 . S
C1686 H1680 0.930 . S
C1686 C1687 1.367 . S
C1686 C1694 1.378 . S
C1687 C1686 1.367 . S
C1687 C1695 1.433 . S
C1688 H1684 0.929 . S
C1688 C1690 1.378 . S
C1688 C1692 1.350 . S
C1689 C1692 1.463 . S
C1689 C1694 1.350 . S
C1689 N1697 1.427 . S
C1690 H1681 0.930 1_455 S
C1690 C1688 1.378 . S
C1690 C1691 1.367 . S
C1691 C1690 1.367 . S
C1691 C1693 1.433 . S
C1692 C1688 1.350 . S
C1692 C1689 1.463 . S
C1692 N1696 1.427 . S
C1693 H1683 0.929 . S
C1693 C1691 1.433 . S
C1693 N1696 1.384 . S
C1694 H1685 0.929 . S
C1694 C1686 1.378 . S
C1694 C1689 1.350 . S
C1695 H1682 0.929 . S
C1695 C1687 1.433 . S
C1695 N1697 1.384 . S
N1696 C1692 1.427 . S
N1696 C1693 1.384 . S
N1697 C1689 1.427 . S
N1697 C1695 1.384 . S
H1698 C1704 0.930 . S
H1699 C1708 0.930 . S
H1700 C1713 0.929 . S
H1701 C1711 0.929 . S
H1702 C1706 0.929 . S
H1703 C1712 0.929 . S
C1704 H1698 0.930 . S
C1704 C1705 1.367 . S
C1704 C1712 1.378 . S
C1705 C1704 1.367 . S
C1705 C1713 1.433 . S
C1706 H1702 0.929 . S
C1706 C1708 1.378 . S
C1706 C1710 1.350 . S
C1707 C1710 1.463 . S
C1707 C1712 1.350 . S
C1707 N1715 1.427 . S
C1708 H1699 0.930 . S
C1708 C1706 1.378 . S
C1708 C1709 1.367 . S
C1709 C1708 1.367 . S
C1709 C1711 1.433 . S
C1710 C1706 1.350 . S
C1710 C1707 1.463 . S
C1710 N1714 1.427 . S
C1711 H1701 0.929 . S
C1711 C1709 1.433 . S
C1711 N1714 1.384 . S
C1712 H1703 0.929 . S
C1712 C1704 1.378 . S
C1712 C1707 1.350 . S
C1713 H1700 0.929 . S
C1713 C1705 1.433 . S
C1713 N1715 1.384 . S
N1714 C1710 1.427 . S
N1714 C1711 1.384 . S
N1715 C1707 1.427 . S
N1715 C1713 1.384 . S
H1716 C1722 0.930 . S
H1717 C1726 0.930 . S
H1718 C1731 0.929 . S
H1719 C1729 0.944 . S
H1720 C1724 0.929 . S
H1721 C1730 0.929 . S
C1722 H1716 0.930 . S
C1722 C1723 1.367 . S
C1722 C1730 1.378 . S
C1723 C1722 1.367 . S
C1723 C1731 1.433 . S
C1724 H1720 0.929 . S
C1724 C1726 1.378 . S
C1724 C1728 1.350 . S
C1725 C1728 1.463 . S
C1725 C1730 1.350 . S
C1725 N1733 1.427 . S
C1726 H1717 0.930 . S
C1726 C1724 1.378 . S
C1726 C1727 1.367 . S
C1727 C1726 1.367 . S
C1727 C1729 1.433 . S
C1728 C1724 1.350 . S
C1728 C1725 1.463 . S
C1728 N1732 1.427 . S
C1729 H1719 0.944 . S
C1729 C1727 1.433 . S
C1729 N1732 1.384 . S
C1730 H1721 0.929 . S
C1730 C1722 1.378 . S
C1730 C1725 1.350 . S
C1731 H1718 0.929 . S
C1731 C1723 1.433 . S
C1731 N1733 1.384 . S
N1732 C1728 1.427 . S
N1732 C1729 1.384 . S
N1733 C1725 1.427 . S
N1733 C1731 1.384 . S
H1734 C1740 0.929 1_545 S
H1735 C1744 0.930 . S
H1736 C1749 0.929 . S
H1737 C1747 0.929 . S
H1738 C1742 0.929 . S
H1739 C1748 0.929 . S
C1740 H1734 0.929 1_565 S
C1740 C1741 1.367 . S
C1740 C1748 1.378 . S
C1741 C1740 1.367 . S
C1741 C1749 1.433 . S
C1742 H1738 0.929 . S
C1742 C1744 1.378 . S
C1742 C1746 1.350 . S
C1743 C1746 1.463 . S
C1743 C1748 1.350 . S
C1743 N1751 1.427 . S
C1744 H1735 0.930 . S
C1744 C1742 1.378 . S
C1744 C1745 1.367 . S
C1745 C1744 1.367 . S
C1745 C1747 1.433 . S
C1746 C1742 1.350 . S
C1746 C1743 1.463 . S
C1746 N1750 1.427 . S
C1747 H1737 0.929 . S
C1747 C1745 1.433 . S
C1747 N1750 1.384 . S
C1748 H1739 0.929 . S
C1748 C1740 1.378 . S
C1748 C1743 1.350 . S
C1749 H1736 0.929 . S
C1749 C1741 1.433 . S
C1749 N1751 1.384 . S
N1750 C1746 1.427 . S
N1750 C1747 1.384 . S
N1751 C1743 1.427 . S
N1751 C1749 1.384 . S
H1752 C1758 0.930 1_655 S
H1753 C1762 0.930 . S
H1754 C1767 0.929 . S
H1755 C1765 0.929 . S
H1756 C1760 0.929 . S
H1757 C1766 0.929 . S
C1758 H1752 0.930 1_455 S
C1758 C1759 1.367 . S
C1758 C1766 1.378 . S
C1759 C1758 1.367 . S
C1759 C1767 1.433 . S
C1760 H1756 0.929 . S
C1760 C1762 1.378 . S
C1760 C1764 1.350 . S
C1761 C1764 1.463 . S
C1761 C1766 1.350 . S
C1761 N1769 1.427 . S
C1762 H1753 0.930 . S
C1762 C1760 1.378 . S
C1762 C1763 1.367 . S
C1763 C1762 1.367 . S
C1763 C1765 1.433 . S
C1764 C1760 1.350 . S
C1764 C1761 1.463 . S
C1764 N1768 1.427 . S
C1765 H1755 0.929 . S
C1765 C1763 1.433 . S
C1765 N1768 1.384 . S
C1766 H1757 0.929 . S
C1766 C1758 1.378 . S
C1766 C1761 1.350 . S
C1767 H1754 0.929 . S
C1767 C1759 1.433 . S
C1767 N1769 1.384 . S
N1768 C1764 1.427 . S
N1768 C1765 1.384 . S
N1769 C1761 1.427 . S
N1769 C1767 1.384 . S
H1770 C1776 0.930 . S
H1771 C1780 0.930 . S
H1772 C1785 0.929 . S
H1773 C1783 0.929 . S
H1774 C1778 0.929 . S
H1775 C1784 0.929 . S
C1776 H1770 0.930 . S
C1776 C1777 1.367 . S
C1776 C1784 1.378 . S
C1777 C1776 1.367 . S
C1777 C1785 1.433 . S
C1778 H1774 0.929 . S
C1778 C1780 1.378 . S
C1778 C1782 1.350 . S
C1779 C1782 1.463 . S
C1779 C1784 1.350 . S
C1779 N1787 1.427 . S
C1780 H1771 0.930 . S
C1780 C1778 1.378 . S
C1780 C1781 1.367 . S
C1781 C1780 1.367 . S
C1781 C1783 1.433 . S
C1782 C1778 1.350 . S
C1782 C1779 1.463 . S
C1782 N1786 1.427 . S
C1783 H1773 0.929 . S
C1783 C1781 1.433 . S
C1783 N1786 1.384 . S
C1784 H1775 0.929 . S
C1784 C1776 1.378 . S
C1784 C1779 1.350 . S
C1785 H1772 0.929 . S
C1785 C1777 1.433 . S
C1785 N1787 1.384 . S
N1786 C1782 1.427 . S
N1786 C1783 1.384 . S
N1787 C1779 1.427 . S
N1787 C1785 1.384 . S
H1788 C1794 0.930 1_455 S
H1789 C1798 0.930 . S
H1790 C1803 0.929 . S
H1791 C1801 0.929 . S
H1792 C1796 0.929 . S
H1793 C1802 0.929 . S
C1794 H1788 0.930 1_655 S
C1794 C1795 1.367 . S
C1794 C1802 1.378 . S
C1795 C1794 1.367 . S
C1795 C1803 1.433 . S
C1796 H1792 0.929 . S
C1796 C1798 1.378 . S
C1796 C1800 1.350 . S
C1797 C1800 1.463 . S
C1797 C1802 1.350 . S
C1797 N1805 1.427 . S
C1798 H1789 0.930 . S
C1798 C1796 1.378 . S
C1798 C1799 1.367 . S
C1799 C1798 1.367 . S
C1799 C1801 1.433 . S
C1800 C1796 1.350 . S
C1800 C1797 1.463 . S
C1800 N1804 1.427 . S
C1801 H1791 0.929 . S
C1801 C1799 1.433 . S
C1801 N1804 1.384 . S
C1802 H1793 0.929 . S
C1802 C1794 1.378 . S
C1802 C1797 1.350 . S
C1803 H1790 0.929 . S
C1803 C1795 1.433 . S
C1803 N1805 1.384 . S
N1804 C1800 1.427 . S
N1804 C1801 1.384 . S
N1805 C1797 1.427 . S
N1805 C1803 1.384 . S
H1806 C1812 0.930 . S
H1807 C1816 0.930 1_545 S
H1808 C1821 0.929 . S
H1809 C1819 0.929 . S
H1810 C1814 0.929 . S
H1811 C1820 0.929 . S
C1812 H1806 0.930 . S
C1812 C1813 1.367 . S
C1812 C1820 1.378 . S
C1813 C1812 1.367 . S
C1813 C1821 1.433 . S
C1814 H1810 0.929 . S
C1814 C1816 1.378 . S
C1814 C1818 1.350 . S
C1815 C1818 1.463 . S
C1815 C1820 1.350 . S
C1815 N1823 1.427 . S
C1816 H1807 0.930 1_565 S
C1816 C1814 1.378 . S
C1816 C1817 1.367 . S
C1817 C1816 1.367 . S
C1817 C1819 1.433 . S
C1818 C1814 1.350 . S
C1818 C1815 1.463 . S
C1818 N1822 1.427 . S
C1819 H1809 0.929 . S
C1819 C1817 1.433 . S
C1819 N1822 1.384 . S
C1820 H1811 0.929 . S
C1820 C1812 1.378 . S
C1820 C1815 1.350 . S
C1821 H1808 0.929 . S
C1821 C1813 1.433 . S
C1821 N1823 1.384 . S
N1822 C1818 1.427 . S
N1822 C1819 1.384 . S
N1823 C1815 1.427 . S
N1823 C1821 1.384 . S
H1824 C1830 0.930 . S
H1825 C1834 0.930 . S
H1826 C1839 0.929 . S
H1827 C1837 0.929 . S
H1828 C1832 0.929 . S
H1829 C1838 0.929 . S
C1830 H1824 0.930 . S
C1830 C1831 1.367 . S
C1830 C1838 1.378 . S
C1831 C1830 1.367 . S
C1831 C1839 1.433 . S
C1832 H1828 0.929 . S
C1832 C1834 1.378 . S
C1832 C1836 1.350 . S
C1833 C1836 1.463 . S
C1833 C1838 1.350 . S
C1833 N1841 1.427 . S
C1834 H1825 0.930 . S
C1834 C1832 1.378 . S
C1834 C1835 1.367 . S
C1835 C1834 1.367 . S
C1835 C1837 1.433 . S
C1836 C1832 1.350 . S
C1836 C1833 1.463 . S
C1836 N1840 1.427 . S
C1837 H1827 0.929 . S
C1837 C1835 1.433 . S
C1837 N1840 1.384 . S
C1838 H1829 0.929 . S
C1838 C1830 1.378 . S
C1838 C1833 1.350 . S
C1839 H1826 0.929 . S
C1839 C1831 1.433 . S
C1839 N1841 1.384 . S
N1840 C1836 1.427 . S
N1840 C1837 1.384 . S
N1841 C1833 1.427 . S
N1841 C1839 1.384 . S
H1842 C1848 0.930 . S
H1843 C1852 0.930 . S
H1844 C1857 0.929 1_545 S
H1845 C1855 0.929 . S
H1846 C1850 0.929 . S
H1847 C1856 0.929 . S
C1848 H1842 0.930 . S
C1848 C1849 1.367 . S
C1848 C1856 1.378 . S
C1849 C1848 1.367 . S
C1849 C1857 1.433 . S
C1850 H1846 0.929 . S
C1850 C1852 1.378 . S
C1850 C1854 1.350 . S
C1851 C1854 1.463 . S
C1851 C1856 1.350 . S
C1851 N1859 1.427 . S
C1852 H1843 0.930 . S
C1852 C1850 1.378 . S
C1852 C1853 1.367 . S
C1853 C1852 1.367 . S
C1853 C1855 1.433 . S
C1854 C1850 1.350 . S
C1854 C1851 1.463 . S
C1854 N1858 1.427 . S
C1855 H1845 0.929 . S
C1855 C1853 1.433 . S
C1855 N1858 1.384 . S
C1856 H1847 0.929 . S
C1856 C1848 1.378 . S
C1856 C1851 1.350 . S
C1857 H1844 0.929 1_565 S
C1857 C1849 1.433 . S
C1857 N1859 1.384 . S
N1858 C1854 1.427 . S
N1858 C1855 1.384 . S
N1859 C1851 1.427 . S
N1859 C1857 1.384 . S
H1860 C1866 0.930 1_655 S
H1861 C1870 0.930 . S
H1862 C1875 0.929 . S
H1863 C1873 0.929 . S
H1864 C1868 0.929 . S
H1865 C1874 0.929 . S
C1866 H1860 0.930 1_455 S
C1866 C1867 1.367 . S
C1866 C1874 1.378 . S
C1867 C1866 1.367 . S
C1867 C1875 1.433 . S
C1868 H1864 0.929 . S
C1868 C1870 1.378 . S
C1868 C1872 1.350 . S
C1869 C1872 1.463 . S
C1869 C1874 1.350 . S
C1869 N1877 1.427 . S
C1870 H1861 0.930 . S
C1870 C1868 1.378 . S
C1870 C1871 1.367 . S
C1871 C1870 1.367 . S
C1871 C1873 1.433 . S
C1872 C1868 1.350 . S
C1872 C1869 1.463 . S
C1872 N1876 1.427 . S
C1873 H1863 0.929 . S
C1873 C1871 1.433 . S
C1873 N1876 1.384 . S
C1874 H1865 0.929 . S
C1874 C1866 1.378 . S
C1874 C1869 1.350 . S
C1875 H1862 0.929 . S
C1875 C1867 1.433 . S
C1875 N1877 1.384 . S
N1876 C1872 1.427 . S
N1876 C1873 1.384 . S
N1877 C1869 1.427 . S
N1877 C1875 1.384 . S
H1878 C1884 0.930 . S
H1879 C1888 0.930 1_565 S
H1880 C1893 0.929 . S
H1881 C1891 0.929 . S
H1882 C1886 0.929 . S
H1883 C1892 0.929 . S
C1884 H1878 0.930 . S
C1884 C1885 1.367 . S
C1884 C1892 1.378 . S
C1885 C1884 1.367 . S
C1885 C1893 1.433 . S
C1886 H1882 0.929 . S
C1886 C1888 1.378 . S
C1886 C1890 1.350 . S
C1887 C1890 1.463 . S
C1887 C1892 1.350 . S
C1887 N1895 1.427 . S
C1888 H1879 0.930 1_545 S
C1888 C1886 1.378 . S
C1888 C1889 1.367 . S
C1889 C1888 1.367 . S
C1889 C1891 1.433 . S
C1890 C1886 1.350 . S
C1890 C1887 1.463 . S
C1890 N1894 1.427 . S
C1891 H1881 0.929 . S
C1891 C1889 1.433 . S
C1891 N1894 1.384 . S
C1892 H1883 0.929 . S
C1892 C1884 1.378 . S
C1892 C1887 1.350 . S
C1893 H1880 0.929 . S
C1893 C1885 1.433 . S
C1893 N1895 1.384 . S
N1894 C1890 1.427 . S
N1894 C1891 1.384 . S
N1895 C1887 1.427 . S
N1895 C1893 1.384 . S
H1896 C1902 0.930 . S
H1897 C1906 0.930 . S
H1898 C1911 0.929 . S
H1899 C1909 0.929 . S
H1900 C1904 0.929 . S
H1901 C1910 0.929 . S
C1902 H1896 0.930 . S
C1902 C1903 1.367 . S
C1902 C1910 1.378 . S
C1903 C1902 1.367 . S
C1903 C1911 1.433 . S
C1904 H1900 0.929 . S
C1904 C1906 1.378 . S
C1904 C1908 1.350 . S
C1905 C1908 1.463 . S
C1905 C1910 1.350 . S
C1905 N1913 1.427 . S
C1906 H1897 0.930 . S
C1906 C1904 1.378 . S
C1906 C1907 1.367 . S
C1907 C1906 1.367 . S
C1907 C1909 1.433 . S
C1908 C1904 1.350 . S
C1908 C1905 1.463 . S
C1908 N1912 1.427 . S
C1909 H1899 0.929 . S
C1909 C1907 1.433 . S
C1909 N1912 1.384 . S
C1910 H1901 0.929 . S
C1910 C1902 1.378 . S
C1910 C1905 1.350 . S
C1911 H1898 0.929 . S
C1911 C1903 1.433 . S
C1911 N1913 1.384 . S
N1912 C1908 1.427 . S
N1912 C1909 1.384 . S
N1913 C1905 1.427 . S
N1913 C1911 1.384 . S
H1914 C1920 0.930 1_545 S
H1915 C1924 0.930 . S
H1916 C1929 0.929 . S
H1917 C1927 0.929 . S
H1918 C1922 0.929 . S
H1919 C1928 0.929 . S
C1920 H1914 0.930 1_565 S
C1920 C1921 1.367 . S
C1920 C1928 1.378 . S
C1921 C1920 1.367 . S
C1921 C1929 1.433 . S
C1922 H1918 0.929 . S
C1922 C1924 1.378 . S
C1922 C1926 1.350 . S
C1923 C1926 1.463 . S
C1923 C1928 1.350 . S
C1923 N1931 1.427 . S
C1924 H1915 0.930 . S
C1924 C1922 1.378 . S
C1924 C1925 1.367 . S
C1925 C1924 1.367 . S
C1925 C1927 1.433 . S
C1926 C1922 1.350 . S
C1926 C1923 1.463 . S
C1926 N1930 1.427 . S
C1927 H1917 0.929 . S
C1927 C1925 1.433 . S
C1927 N1930 1.384 . S
C1928 H1919 0.929 . S
C1928 C1920 1.378 . S
C1928 C1923 1.350 . S
C1929 H1916 0.929 . S
C1929 C1921 1.433 . S
C1929 N1931 1.384 . S
N1930 C1926 1.427 . S
N1930 C1927 1.384 . S
N1931 C1923 1.427 . S
N1931 C1929 1.384 . S
H1932 C1938 0.930 1_655 S
H1933 C1942 0.930 . S
H1934 C1947 0.929 . S
H1935 C1945 0.929 . S
H1936 C1940 0.929 . S
H1937 C1946 0.929 . S
C1938 H1932 0.930 1_455 S
C1938 C1939 1.367 . S
C1938 C1946 1.378 . S
C1939 C1938 1.367 . S
C1939 C1947 1.433 . S
C1940 H1936 0.929 . S
C1940 C1942 1.378 . S
C1940 C1944 1.350 . S
C1941 C1944 1.463 . S
C1941 C1946 1.350 . S
C1941 N1949 1.427 . S
C1942 H1933 0.930 . S
C1942 C1940 1.378 . S
C1942 C1943 1.367 . S
C1943 C1942 1.367 . S
C1943 C1945 1.433 . S
C1944 C1940 1.350 . S
C1944 C1941 1.463 . S
C1944 N1948 1.427 . S
C1945 H1935 0.929 . S
C1945 C1943 1.433 . S
C1945 N1948 1.384 . S
C1946 H1937 0.929 . S
C1946 C1938 1.378 . S
C1946 C1941 1.350 . S
C1947 H1934 0.929 . S
C1947 C1939 1.433 . S
C1947 N1949 1.384 . S
N1948 C1944 1.427 . S
N1948 C1945 1.384 . S
N1949 C1941 1.427 . S
N1949 C1947 1.384 . S
H1950 C1956 0.930 . S
H1951 C1960 0.930 . S
H1952 C1965 0.929 . S
H1953 C1963 0.929 . S
H1954 C1958 0.929 . S
H1955 C1964 0.929 . S
C1956 H1950 0.930 . S
C1956 C1957 1.367 . S
C1956 C1964 1.378 . S
C1957 C1956 1.367 . S
C1957 C1965 1.433 . S
C1958 H1954 0.929 . S
C1958 C1960 1.378 . S
C1958 C1962 1.350 . S
C1959 C1962 1.463 . S
C1959 C1964 1.350 . S
C1959 N1967 1.427 . S
C1960 H1951 0.930 . S
C1960 C1958 1.378 . S
C1960 C1961 1.367 . S
C1961 C1960 1.367 . S
C1961 C1963 1.433 . S
C1962 C1958 1.350 . S
C1962 C1959 1.463 . S
C1962 N1966 1.427 . S
C1963 H1953 0.929 . S
C1963 C1961 1.433 . S
C1963 N1966 1.384 . S
C1964 H1955 0.929 . S
C1964 C1956 1.378 . S
C1964 C1959 1.350 . S
C1965 H1952 0.929 . S
C1965 C1957 1.433 . S
C1965 N1967 1.384 . S
N1966 C1962 1.427 . S
N1966 C1963 1.384 . S
N1967 C1959 1.427 . S
N1967 C1965 1.384 . S
H1968 C1974 0.930 . S
H1969 C1978 0.930 . S
H1970 C1983 0.929 . S
H1971 C1981 0.929 . S
H1972 C1976 0.929 . S
H1973 C1982 0.929 . S
C1974 H1968 0.930 . S
C1974 C1975 1.367 . S
C1974 C1982 1.378 . S
C1975 C1974 1.367 . S
C1975 C1983 1.433 . S
C1976 H1972 0.929 . S
C1976 C1978 1.378 . S
C1976 C1980 1.350 . S
C1977 C1980 1.463 . S
C1977 C1982 1.350 . S
C1977 N1985 1.427 . S
C1978 H1969 0.930 . S
C1978 C1976 1.378 . S
C1978 C1979 1.367 . S
C1979 C1978 1.367 . S
C1979 C1981 1.433 . S
C1980 C1976 1.350 . S
C1980 C1977 1.463 . S
C1980 N1984 1.427 . S
C1981 H1971 0.929 . S
C1981 C1979 1.433 . S
C1981 N1984 1.384 . S
C1982 H1973 0.929 . S
C1982 C1974 1.378 . S
C1982 C1977 1.350 . S
C1983 H1970 0.929 . S
C1983 C1975 1.433 . S
C1983 N1985 1.384 . S
N1984 C1980 1.427 . S
N1984 C1981 1.384 . S
N1985 C1977 1.427 . S
N1985 C1983 1.384 . S
H1986 C1992 0.930 . S
H1987 C1996 0.930 . S
H1988 C2001 0.929 . S
H1989 C1999 0.929 . S
H1990 C1994 0.929 . S
H1991 C2000 0.929 . S
C1992 H1986 0.930 . S
C1992 C1993 1.367 . S
C1992 C2000 1.378 . S
C1993 C1992 1.367 . S
C1993 C2001 1.433 . S
C1994 H1990 0.929 . S
C1994 C1996 1.378 . S
C1994 C1998 1.350 . S
C1995 C1998 1.463 . S
C1995 C2000 1.350 . S
C1995 N2003 1.427 . S
C1996 H1987 0.930 . S
C1996 C1994 1.378 . S
C1996 C1997 1.367 . S
C1997 C1996 1.367 . S
C1997 C1999 1.433 . S
C1998 C1994 1.350 . S
C1998 C1995 1.463 . S
C1998 N2002 1.427 . S
C1999 H1989 0.929 . S
C1999 C1997 1.433 . S
C1999 N2002 1.384 . S
C2000 H1991 0.929 . S
C2000 C1992 1.378 . S
C2000 C1995 1.350 . S
C2001 H1988 0.929 . S
C2001 C1993 1.433 . S
C2001 N2003 1.384 . S
N2002 C1998 1.427 . S
N2002 C1999 1.384 . S
N2003 C1995 1.427 . S
N2003 C2001 1.384 . S
H2004 C2010 0.930 . S
H2005 C2014 0.930 . S
H2006 C2019 0.929 . S
H2007 C2017 0.929 . S
H2008 C2012 0.929 . S
H2009 C2018 0.929 . S
C2010 H2004 0.930 . S
C2010 C2011 1.367 . S
C2010 C2018 1.378 . S
C2011 C2010 1.367 . S
C2011 C2019 1.433 . S
C2012 H2008 0.929 . S
C2012 C2014 1.378 . S
C2012 C2016 1.350 . S
C2013 C2016 1.463 . S
C2013 C2018 1.350 . S
C2013 N2021 1.427 . S
C2014 H2005 0.930 . S
C2014 C2012 1.378 . S
C2014 C2015 1.367 . S
C2015 C2014 1.367 . S
C2015 C2017 1.433 . S
C2016 C2012 1.350 . S
C2016 C2013 1.463 . S
C2016 N2020 1.427 . S
C2017 H2007 0.929 . S
C2017 C2015 1.433 . S
C2017 N2020 1.384 . S
C2018 H2009 0.929 . S
C2018 C2010 1.378 . S
C2018 C2013 1.350 . S
C2019 H2006 0.929 . S
C2019 C2011 1.433 . S
C2019 N2021 1.384 . S
N2020 C2016 1.427 . S
N2020 C2017 1.384 . S
N2021 C2013 1.427 . S
N2021 C2019 1.384 . S
H2022 C2028 0.930 . S
H2023 C2032 0.930 . S
H2024 C2037 0.929 . S
H2025 C2035 0.929 . S
H2026 C2030 0.929 . S
H2027 C2036 0.929 . S
C2028 H2022 0.930 . S
C2028 C2029 1.367 . S
C2028 C2036 1.378 . S
C2029 C2028 1.367 . S
C2029 C2037 1.433 . S
C2030 H2026 0.929 . S
C2030 C2032 1.378 . S
C2030 C2034 1.350 . S
C2031 C2034 1.463 . S
C2031 C2036 1.350 . S
C2031 N2039 1.427 . S
C2032 H2023 0.930 . S
C2032 C2030 1.378 . S
C2032 C2033 1.367 . S
C2033 C2032 1.367 . S
C2033 C2035 1.433 . S
C2034 C2030 1.350 . S
C2034 C2031 1.463 . S
C2034 N2038 1.427 . S
C2035 H2025 0.929 . S
C2035 C2033 1.433 . S
C2035 N2038 1.384 . S
C2036 H2027 0.929 . S
C2036 C2028 1.378 . S
C2036 C2031 1.350 . S
C2037 H2024 0.929 . S
C2037 C2029 1.433 . S
C2037 N2039 1.384 . S
N2038 C2034 1.427 . S
N2038 C2035 1.384 . S
N2039 C2031 1.427 . S
N2039 C2037 1.384 . S
H2040 C2046 0.930 . S
H2041 C2050 0.930 . S
H2042 C2055 0.929 . S
H2043 C2053 0.929 . S
H2044 C2048 0.929 . S
H2045 C2054 0.929 . S
C2046 H2040 0.930 . S
C2046 C2047 1.367 . S
C2046 C2054 1.378 . S
C2047 C2046 1.367 . S
C2047 C2055 1.433 . S
C2048 H2044 0.929 . S
C2048 C2050 1.378 . S
C2048 C2052 1.350 . S
C2049 C2052 1.463 . S
C2049 C2054 1.350 . S
C2049 N2057 1.427 . S
C2050 H2041 0.930 . S
C2050 C2048 1.378 . S
C2050 C2051 1.367 . S
C2051 C2050 1.367 . S
C2051 C2053 1.433 . S
C2052 C2048 1.350 . S
C2052 C2049 1.463 . S
C2052 N2056 1.427 . S
C2053 H2043 0.929 . S
C2053 C2051 1.433 . S
C2053 N2056 1.384 . S
C2054 H2045 0.929 . S
C2054 C2046 1.378 . S
C2054 C2049 1.350 . S
C2055 H2042 0.929 . S
C2055 C2047 1.433 . S
C2055 N2057 1.384 . S
N2056 C2052 1.427 . S
N2056 C2053 1.384 . S
N2057 C2049 1.427 . S
N2057 C2055 1.384 . S
H2058 C2064 0.930 . S
H2059 C2068 0.930 . S
H2060 C2073 0.929 . S
H2061 C2071 0.929 . S
H2062 C2066 0.929 . S
H2063 C2072 0.929 . S
C2064 H2058 0.930 . S
C2064 C2065 1.367 . S
C2064 C2072 1.378 . S
C2065 C2064 1.367 . S
C2065 C2073 1.433 . S
C2066 H2062 0.929 . S
C2066 C2068 1.378 . S
C2066 C2070 1.350 . S
C2067 C2070 1.463 . S
C2067 C2072 1.350 . S
C2067 N2075 1.427 . S
C2068 H2059 0.930 . S
C2068 C2066 1.378 . S
C2068 C2069 1.367 . S
C2069 C2068 1.367 . S
C2069 C2071 1.433 . S
C2070 C2066 1.350 . S
C2070 C2067 1.463 . S
C2070 N2074 1.427 . S
C2071 H2061 0.929 . S
C2071 C2069 1.433 . S
C2071 N2074 1.384 . S
C2072 H2063 0.929 . S
C2072 C2064 1.378 . S
C2072 C2067 1.350 . S
C2073 H2060 0.929 . S
C2073 C2065 1.433 . S
C2073 N2075 1.384 . S
N2074 C2070 1.427 . S
N2074 C2071 1.384 . S
N2075 C2067 1.427 . S
N2075 C2073 1.384 . S
H2076 C2082 0.930 . S
H2077 C2086 0.930 . S
H2078 C2091 0.929 . S
H2079 C2089 0.929 . S
H2080 C2084 0.929 . S
H2081 C2090 0.929 . S
C2082 H2076 0.930 . S
C2082 C2083 1.367 . S
C2082 C2090 1.378 . S
C2083 C2082 1.367 . S
C2083 C2091 1.433 . S
C2084 H2080 0.929 . S
C2084 C2086 1.378 . S
C2084 C2088 1.350 . S
C2085 C2088 1.463 . S
C2085 C2090 1.350 . S
C2085 N2093 1.427 . S
C2086 H2077 0.930 . S
C2086 C2084 1.378 . S
C2086 C2087 1.367 . S
C2087 C2086 1.367 . S
C2087 C2089 1.433 . S
C2088 C2084 1.350 . S
C2088 C2085 1.463 . S
C2088 N2092 1.427 . S
C2089 H2079 0.929 . S
C2089 C2087 1.433 . S
C2089 N2092 1.384 . S
C2090 H2081 0.929 . S
C2090 C2082 1.378 . S
C2090 C2085 1.350 . S
C2091 H2078 0.929 . S
C2091 C2083 1.433 . S
C2091 N2093 1.384 . S
N2092 C2088 1.427 . S
N2092 C2089 1.384 . S
N2093 C2085 1.427 . S
N2093 C2091 1.384 . S
H2094 C2100 0.930 . S
H2095 C2104 0.930 . S
H2096 C2109 0.929 . S
H2097 C2107 0.929 . S
H2098 C2102 0.929 . S
H2099 C2108 0.929 . S
C2100 H2094 0.930 . S
C2100 C2101 1.367 . S
C2100 C2108 1.378 . S
C2101 C2100 1.367 . S
C2101 C2109 1.433 . S
C2102 H2098 0.929 . S
C2102 C2104 1.378 . S
C2102 C2106 1.350 . S
C2103 C2106 1.463 . S
C2103 C2108 1.350 . S
C2103 N2111 1.427 . S
C2104 H2095 0.930 . S
C2104 C2102 1.378 . S
C2104 C2105 1.367 . S
C2105 C2104 1.367 . S
C2105 C2107 1.433 . S
C2106 C2102 1.350 . S
C2106 C2103 1.463 . S
C2106 N2110 1.427 . S
C2107 H2097 0.929 . S
C2107 C2105 1.433 . S
C2107 N2110 1.384 . S
C2108 H2099 0.929 . S
C2108 C2100 1.378 . S
C2108 C2103 1.350 . S
C2109 H2096 0.929 . S
C2109 C2101 1.433 . S
C2109 N2111 1.384 . S
N2110 C2106 1.427 . S
N2110 C2107 1.384 . S
N2111 C2103 1.427 . S
N2111 C2109 1.384 . S
H2112 C2118 0.930 . S
H2113 C2122 0.930 . S
H2114 C2127 0.929 . S
H2115 C2125 0.929 . S
H2116 C2120 0.929 . S
H2117 C2126 0.929 . S
C2118 H2112 0.930 . S
C2118 C2119 1.367 . S
C2118 C2126 1.378 . S
C2119 C2118 1.367 . S
C2119 C2127 1.433 . S
C2120 H2116 0.929 . S
C2120 C2122 1.378 . S
C2120 C2124 1.350 . S
C2121 C2124 1.463 . S
C2121 C2126 1.350 . S
C2121 N2129 1.427 . S
C2122 H2113 0.930 . S
C2122 C2120 1.378 . S
C2122 C2123 1.367 . S
C2123 C2122 1.367 . S
C2123 C2125 1.433 . S
C2124 C2120 1.350 . S
C2124 C2121 1.463 . S
C2124 N2128 1.427 . S
C2125 H2115 0.929 . S
C2125 C2123 1.433 . S
C2125 N2128 1.384 . S
C2126 H2117 0.929 . S
C2126 C2118 1.378 . S
C2126 C2121 1.350 . S
C2127 H2114 0.929 . S
C2127 C2119 1.433 . S
C2127 N2129 1.384 . S
N2128 C2124 1.427 . S
N2128 C2125 1.384 . S
N2129 C2121 1.427 . S
N2129 C2127 1.384 . S
H2130 C2136 0.930 . S
H2131 C2140 0.930 . S
H2132 C2145 0.929 . S
H2133 C2143 0.929 . S
H2134 C2138 0.929 . S
H2135 C2144 0.929 . S
C2136 H2130 0.930 . S
C2136 C2137 1.367 . S
C2136 C2144 1.378 . S
C2137 C2136 1.367 . S
C2137 C2145 1.433 . S
C2138 H2134 0.929 . S
C2138 C2140 1.378 . S
C2138 C2142 1.350 . S
C2139 C2142 1.463 . S
C2139 C2144 1.350 . S
C2139 N2147 1.427 . S
C2140 H2131 0.930 . S
C2140 C2138 1.378 . S
C2140 C2141 1.367 . S
C2141 C2140 1.367 . S
C2141 C2143 1.433 . S
C2142 C2138 1.350 . S
C2142 C2139 1.463 . S
C2142 N2146 1.427 . S
C2143 H2133 0.929 . S
C2143 C2141 1.433 . S
C2143 N2146 1.384 . S
C2144 H2135 0.929 . S
C2144 C2136 1.378 . S
C2144 C2139 1.350 . S
C2145 H2132 0.929 . S
C2145 C2137 1.433 . S
C2145 N2147 1.384 . S
N2146 C2142 1.427 . S
N2146 C2143 1.384 . S
N2147 C2139 1.427 . S
N2147 C2145 1.384 . S
H2148 C2154 0.930 . S
H2149 C2158 0.930 . S
H2150 C2163 0.929 . S
H2151 C2161 0.929 . S
H2152 C2156 0.929 . S
H2153 C2162 0.929 . S
C2154 H2148 0.930 . S
C2154 C2155 1.367 . S
C2154 C2162 1.378 . S
C2155 C2154 1.367 . S
C2155 C2163 1.433 . S
C2156 H2152 0.929 . S
C2156 C2158 1.378 . S
C2156 C2160 1.350 . S
C2157 C2160 1.463 . S
C2157 C2162 1.350 . S
C2157 N2165 1.427 . S
C2158 H2149 0.930 . S
C2158 C2156 1.378 . S
C2158 C2159 1.367 . S
C2159 C2158 1.367 . S
C2159 C2161 1.433 . S
C2160 C2156 1.350 . S
C2160 C2157 1.463 . S
C2160 N2164 1.427 . S
C2161 H2151 0.929 . S
C2161 C2159 1.433 . S
C2161 N2164 1.384 . S
C2162 H2153 0.929 . S
C2162 C2154 1.378 . S
C2162 C2157 1.350 . S
C2163 H2150 0.929 . S
C2163 C2155 1.433 . S
C2163 N2165 1.384 . S
N2164 C2160 1.427 . S
N2164 C2161 1.384 . S
N2165 C2157 1.427 . S
N2165 C2163 1.384 . S
H2166 C2172 0.930 . S
H2167 C2176 0.930 . S
H2168 C2181 0.929 . S
H2169 C2179 0.929 . S
H2170 C2174 0.929 . S
H2171 C2180 0.929 . S
C2172 H2166 0.930 . S
C2172 C2173 1.367 . S
C2172 C2180 1.378 . S
C2173 C2172 1.367 . S
C2173 C2181 1.433 . S
C2174 H2170 0.929 . S
C2174 C2176 1.378 . S
C2174 C2178 1.350 . S
C2175 C2178 1.463 . S
C2175 C2180 1.350 . S
C2175 N2183 1.427 . S
C2176 H2167 0.930 . S
C2176 C2174 1.378 . S
C2176 C2177 1.367 . S
C2177 C2176 1.367 . S
C2177 C2179 1.433 . S
C2178 C2174 1.350 . S
C2178 C2175 1.463 . S
C2178 N2182 1.427 . S
C2179 H2169 0.929 . S
C2179 C2177 1.433 . S
C2179 N2182 1.384 . S
C2180 H2171 0.929 . S
C2180 C2172 1.378 . S
C2180 C2175 1.350 . S
C2181 H2168 0.929 . S
C2181 C2173 1.433 . S
C2181 N2183 1.384 . S
N2182 C2178 1.427 . S
N2182 C2179 1.384 . S
N2183 C2175 1.427 . S
N2183 C2181 1.384 . S
H2184 C2190 0.930 . S
H2185 C2194 0.930 . S
H2186 C2199 0.929 . S
H2187 C2197 0.929 . S
H2188 C2192 0.929 . S
H2189 C2198 0.929 . S
C2190 H2184 0.930 . S
C2190 C2191 1.367 . S
C2190 C2198 1.378 . S
C2191 C2190 1.367 . S
C2191 C2199 1.433 . S
C2192 H2188 0.929 . S
C2192 C2194 1.378 . S
C2192 C2196 1.350 . S
C2193 C2196 1.463 . S
C2193 C2198 1.350 . S
C2193 N2201 1.427 . S
C2194 H2185 0.930 . S
C2194 C2192 1.378 . S
C2194 C2195 1.367 . S
C2195 C2194 1.367 . S
C2195 C2197 1.433 . S
C2196 C2192 1.350 . S
C2196 C2193 1.463 . S
C2196 N2200 1.427 . S
C2197 H2187 0.929 . S
C2197 C2195 1.433 . S
C2197 N2200 1.384 . S
C2198 H2189 0.929 . S
C2198 C2190 1.378 . S
C2198 C2193 1.350 . S
C2199 H2186 0.929 . S
C2199 C2191 1.433 . S
C2199 N2201 1.384 . S
N2200 C2196 1.427 . S
N2200 C2197 1.384 . S
N2201 C2193 1.427 . S
N2201 C2199 1.384 . S
H2202 C2208 0.930 . S
H2203 C2212 0.930 . S
H2204 C2217 0.929 . S
H2205 C2215 0.929 . S
H2206 C2210 0.929 . S
H2207 C2216 0.929 . S
C2208 H2202 0.930 . S
C2208 C2209 1.367 . S
C2208 C2216 1.378 . S
C2209 C2208 1.367 . S
C2209 C2217 1.433 . S
C2210 H2206 0.929 . S
C2210 C2212 1.378 . S
C2210 C2214 1.350 . S
C2211 C2214 1.463 . S
C2211 C2216 1.350 . S
C2211 N2219 1.427 . S
C2212 H2203 0.930 . S
C2212 C2210 1.378 . S
C2212 C2213 1.367 . S
C2213 C2212 1.367 . S
C2213 C2215 1.433 . S
C2214 C2210 1.350 . S
C2214 C2211 1.463 . S
C2214 N2218 1.427 . S
C2215 H2205 0.929 . S
C2215 C2213 1.433 . S
C2215 N2218 1.384 . S
C2216 H2207 0.929 . S
C2216 C2208 1.378 . S
C2216 C2211 1.350 . S
C2217 H2204 0.929 . S
C2217 C2209 1.433 . S
C2217 N2219 1.384 . S
N2218 C2214 1.427 . S
N2218 C2215 1.384 . S
N2219 C2211 1.427 . S
N2219 C2217 1.384 . S
H2220 C2226 0.930 . S
H2221 C2230 0.930 . S
H2222 C2235 0.929 . S
H2223 C2233 0.929 . S
H2224 C2228 0.929 . S
H2225 C2234 0.929 . S
C2226 H2220 0.930 . S
C2226 C2227 1.367 . S
C2226 C2234 1.378 . S
C2227 C2226 1.367 . S
C2227 C2235 1.433 . S
C2228 H2224 0.929 . S
C2228 C2230 1.378 . S
C2228 C2232 1.350 . S
C2229 C2232 1.463 . S
C2229 C2234 1.350 . S
C2229 N2237 1.427 . S
C2230 H2221 0.930 . S
C2230 C2228 1.378 . S
C2230 C2231 1.367 . S
C2231 C2230 1.367 . S
C2231 C2233 1.433 . S
C2232 C2228 1.350 . S
C2232 C2229 1.463 . S
C2232 N2236 1.427 . S
C2233 H2223 0.929 . S
C2233 C2231 1.433 . S
C2233 N2236 1.384 . S
C2234 H2225 0.929 . S
C2234 C2226 1.378 . S
C2234 C2229 1.350 . S
C2235 H2222 0.929 . S
C2235 C2227 1.433 . S
C2235 N2237 1.384 . S
N2236 C2232 1.427 . S
N2236 C2233 1.384 . S
N2237 C2229 1.427 . S
N2237 C2235 1.384 . S
H2238 C2244 0.930 . S
H2239 C2248 0.930 . S
H2240 C2253 0.929 . S
H2241 C2251 0.929 . S
H2242 C2246 0.929 . S
H2243 C2252 0.929 . S
C2244 H2238 0.930 . S
C2244 C2245 1.367 . S
C2244 C2252 1.378 . S
C2245 C2244 1.367 . S
C2245 C2253 1.433 . S
C2246 H2242 0.929 . S
C2246 C2248 1.378 . S
C2246 C2250 1.350 . S
C2247 C2250 1.463 . S
C2247 C2252 1.350 . S
C2247 N2255 1.427 . S
C2248 H2239 0.930 . S
C2248 C2246 1.378 . S
C2248 C2249 1.367 . S
C2249 C2248 1.367 . S
C2249 C2251 1.433 . S
C2250 C2246 1.350 . S
C2250 C2247 1.463 . S
C2250 N2254 1.427 . S
C2251 H2241 0.929 . S
C2251 C2249 1.433 . S
C2251 N2254 1.384 . S
C2252 H2243 0.929 . S
C2252 C2244 1.378 . S
C2252 C2247 1.350 . S
C2253 H2240 0.929 . S
C2253 C2245 1.433 . S
C2253 N2255 1.384 . S
N2254 C2250 1.427 . S
N2254 C2251 1.384 . S
N2255 C2247 1.427 . S
N2255 C2253 1.384 . S
H2256 C2262 0.930 . S
H2257 C2266 0.930 . S
H2258 C2271 0.929 . S
H2259 C2269 0.929 . S
H2260 C2264 0.929 . S
H2261 C2270 0.929 . S
C2262 H2256 0.930 . S
C2262 C2263 1.367 . S
C2262 C2270 1.378 . S
C2263 C2262 1.367 . S
C2263 C2271 1.433 . S
C2264 H2260 0.929 . S
C2264 C2266 1.378 . S
C2264 C2268 1.350 . S
C2265 C2268 1.463 . S
C2265 C2270 1.350 . S
C2265 N2273 1.427 . S
C2266 H2257 0.930 . S
C2266 C2264 1.378 . S
C2266 C2267 1.367 . S
C2267 C2266 1.367 . S
C2267 C2269 1.433 . S
C2268 C2264 1.350 . S
C2268 C2265 1.463 . S
C2268 N2272 1.427 . S
C2269 H2259 0.929 . S
C2269 C2267 1.433 . S
C2269 N2272 1.384 . S
C2270 H2261 0.929 . S
C2270 C2262 1.378 . S
C2270 C2265 1.350 . S
C2271 H2258 0.929 . S
C2271 C2263 1.433 . S
C2271 N2273 1.384 . S
N2272 C2268 1.427 . S
N2272 C2269 1.384 . S
N2273 C2265 1.427 . S
N2273 C2271 1.384 . S
H2274 C2280 0.930 . S
H2275 C2284 0.930 . S
H2276 C2289 0.929 . S
H2277 C2287 0.929 . S
H2278 C2282 0.929 . S
H2279 C2288 0.929 . S
C2280 H2274 0.930 . S
C2280 C2281 1.367 . S
C2280 C2288 1.378 . S
C2281 C2280 1.367 . S
C2281 C2289 1.433 . S
C2282 H2278 0.929 . S
C2282 C2284 1.378 . S
C2282 C2286 1.350 . S
C2283 C2286 1.463 . S
C2283 C2288 1.350 . S
C2283 N2291 1.427 . S
C2284 H2275 0.930 . S
C2284 C2282 1.378 . S
C2284 C2285 1.367 . S
C2285 C2284 1.367 . S
C2285 C2287 1.433 . S
C2286 C2282 1.350 . S
C2286 C2283 1.463 . S
C2286 N2290 1.427 . S
C2287 H2277 0.929 . S
C2287 C2285 1.433 . S
C2287 N2290 1.384 . S
C2288 H2279 0.929 . S
C2288 C2280 1.378 . S
C2288 C2283 1.350 . S
C2289 H2276 0.929 . S
C2289 C2281 1.433 . S
C2289 N2291 1.384 . S
N2290 C2286 1.427 . S
N2290 C2287 1.384 . S
N2291 C2283 1.427 . S
N2291 C2289 1.384 . S
H2292 C2298 0.930 . S
H2293 C2302 0.930 . S
H2294 C2307 0.929 . S
H2295 C2305 0.929 . S
H2296 C2300 0.929 . S
H2297 C2306 0.929 . S
C2298 H2292 0.930 . S
C2298 C2299 1.367 . S
C2298 C2306 1.378 . S
C2299 C2298 1.367 . S
C2299 C2307 1.433 . S
C2300 H2296 0.929 . S
C2300 C2302 1.378 . S
C2300 C2304 1.350 . S
C2301 C2304 1.463 . S
C2301 C2306 1.350 . S
C2301 N2309 1.427 . S
C2302 H2293 0.930 . S
C2302 C2300 1.378 . S
C2302 C2303 1.367 . S
C2303 C2302 1.367 . S
C2303 C2305 1.433 . S
C2304 C2300 1.350 . S
C2304 C2301 1.463 . S
C2304 N2308 1.427 . S
C2305 H2295 0.929 . S
C2305 C2303 1.433 . S
C2305 N2308 1.384 . S
C2306 H2297 0.929 . S
C2306 C2298 1.378 . S
C2306 C2301 1.350 . S
C2307 H2294 0.929 . S
C2307 C2299 1.433 . S
C2307 N2309 1.384 . S
N2308 C2304 1.427 . S
N2308 C2305 1.384 . S
N2309 C2301 1.427 . S
N2309 C2307 1.384 . S
H2310 C2316 0.930 . S
H2311 C2320 0.930 . S
H2312 C2325 0.929 . S
H2313 C2323 0.929 . S
H2314 C2318 0.929 . S
H2315 C2324 0.929 . S
C2316 H2310 0.930 . S
C2316 C2317 1.367 . S
C2316 C2324 1.378 . S
C2317 C2316 1.367 . S
C2317 C2325 1.433 . S
C2318 H2314 0.929 . S
C2318 C2320 1.378 . S
C2318 C2322 1.350 . S
C2319 C2322 1.463 . S
C2319 C2324 1.350 . S
C2319 N2327 1.427 . S
C2320 H2311 0.930 . S
C2320 C2318 1.378 . S
C2320 C2321 1.367 . S
C2321 C2320 1.367 . S
C2321 C2323 1.433 . S
C2322 C2318 1.350 . S
C2322 C2319 1.463 . S
C2322 N2326 1.427 . S
C2323 H2313 0.929 . S
C2323 C2321 1.433 . S
C2323 N2326 1.384 . S
C2324 H2315 0.929 . S
C2324 C2316 1.378 . S
C2324 C2319 1.350 . S
C2325 H2312 0.929 . S
C2325 C2317 1.433 . S
C2325 N2327 1.384 . S
N2326 C2322 1.427 . S
N2326 C2323 1.384 . S
N2327 C2319 1.427 . S
N2327 C2325 1.384 . S
H2328 C2334 0.930 . S
H2329 C2338 0.930 . S
H2330 C2343 0.929 . S
H2331 C2341 0.929 . S
H2332 C2336 0.929 . S
H2333 C2342 0.929 . S
C2334 H2328 0.930 . S
C2334 C2335 1.367 . S
C2334 C2342 1.378 . S
C2335 C2334 1.367 . S
C2335 C2343 1.433 . S
C2336 H2332 0.929 . S
C2336 C2338 1.378 . S
C2336 C2340 1.350 . S
C2337 C2340 1.463 . S
C2337 C2342 1.350 . S
C2337 N2345 1.427 . S
C2338 H2329 0.930 . S
C2338 C2336 1.378 . S
C2338 C2339 1.367 . S
C2339 C2338 1.367 . S
C2339 C2341 1.433 . S
C2340 C2336 1.350 . S
C2340 C2337 1.463 . S
C2340 N2344 1.427 . S
C2341 H2331 0.929 . S
C2341 C2339 1.433 . S
C2341 N2344 1.384 . S
C2342 H2333 0.929 . S
C2342 C2334 1.378 . S
C2342 C2337 1.350 . S
C2343 H2330 0.929 . S
C2343 C2335 1.433 . S
C2343 N2345 1.384 . S
N2344 C2340 1.427 . S
N2344 C2341 1.384 . S
N2345 C2337 1.427 . S
N2345 C2343 1.384 . S
H2346 C2352 0.930 . S
H2347 C2356 0.930 . S
H2348 C2361 0.929 . S
H2349 C2359 0.929 . S
H2350 C2354 0.929 . S
H2351 C2360 0.929 . S
C2352 H2346 0.930 . S
C2352 C2353 1.367 . S
C2352 C2360 1.378 . S
C2353 C2352 1.367 . S
C2353 C2361 1.433 . S
C2354 H2350 0.929 . S
C2354 C2356 1.378 . S
C2354 C2358 1.350 . S
C2355 C2358 1.463 . S
C2355 C2360 1.350 . S
C2355 N2363 1.427 . S
C2356 H2347 0.930 . S
C2356 C2354 1.378 . S
C2356 C2357 1.367 . S
C2357 C2356 1.367 . S
C2357 C2359 1.433 . S
C2358 C2354 1.350 . S
C2358 C2355 1.463 . S
C2358 N2362 1.427 . S
C2359 H2349 0.929 . S
C2359 C2357 1.433 . S
C2359 N2362 1.384 . S
C2360 H2351 0.929 . S
C2360 C2352 1.378 . S
C2360 C2355 1.350 . S
C2361 H2348 0.929 . S
C2361 C2353 1.433 . S
C2361 N2363 1.384 . S
N2362 C2358 1.427 . S
N2362 C2359 1.384 . S
N2363 C2355 1.427 . S
N2363 C2361 1.384 . S
H2364 C2370 0.930 . S
H2365 C2374 0.930 . S
H2366 C2379 0.929 . S
H2367 C2377 0.929 . S
H2368 C2372 0.929 . S
H2369 C2378 0.929 . S
C2370 H2364 0.930 . S
C2370 C2371 1.367 . S
C2370 C2378 1.378 . S
C2371 C2370 1.367 . S
C2371 C2379 1.433 . S
C2372 H2368 0.929 . S
C2372 C2374 1.378 . S
C2372 C2376 1.350 . S
C2373 C2376 1.463 . S
C2373 C2378 1.350 . S
C2373 N2381 1.427 . S
C2374 H2365 0.930 . S
C2374 C2372 1.378 . S
C2374 C2375 1.367 . S
C2375 C2374 1.367 . S
C2375 C2377 1.433 . S
C2376 C2372 1.350 . S
C2376 C2373 1.463 . S
C2376 N2380 1.427 . S
C2377 H2367 0.929 . S
C2377 C2375 1.433 . S
C2377 N2380 1.384 . S
C2378 H2369 0.929 . S
C2378 C2370 1.378 . S
C2378 C2373 1.350 . S
C2379 H2366 0.929 . S
C2379 C2371 1.433 . S
C2379 N2381 1.384 . S
N2380 C2376 1.427 . S
N2380 C2377 1.384 . S
N2381 C2373 1.427 . S
N2381 C2379 1.384 . S
H2382 C2388 0.930 . S
H2383 C2392 0.930 . S
H2384 C2397 0.929 . S
H2385 C2395 0.929 . S
H2386 C2390 0.929 . S
H2387 C2396 0.929 . S
C2388 H2382 0.930 . S
C2388 C2389 1.367 . S
C2388 C2396 1.378 . S
C2389 C2388 1.367 . S
C2389 C2397 1.433 . S
C2390 H2386 0.929 . S
C2390 C2392 1.378 . S
C2390 C2394 1.350 . S
C2391 C2394 1.463 . S
C2391 C2396 1.350 . S
C2391 N2399 1.427 . S
C2392 H2383 0.930 . S
C2392 C2390 1.378 . S
C2392 C2393 1.367 . S
C2393 C2392 1.367 . S
C2393 C2395 1.433 . S
C2394 C2390 1.350 . S
C2394 C2391 1.463 . S
C2394 N2398 1.427 . S
C2395 H2385 0.929 . S
C2395 C2393 1.433 . S
C2395 N2398 1.384 . S
C2396 H2387 0.929 . S
C2396 C2388 1.378 . S
C2396 C2391 1.350 . S
C2397 H2384 0.929 . S
C2397 C2389 1.433 . S
C2397 N2399 1.384 . S
N2398 C2394 1.427 . S
N2398 C2395 1.384 . S
N2399 C2391 1.427 . S
N2399 C2397 1.384 . S
C679 C440 1.435 . S
C683 C6 1.444 . S
C697 C20 1.438 . S
C701 C398 1.439 . S
C715 C34 1.435 . S
C719 C412 1.444 . S
C733 C426 1.435 . S
C737 C48 1.444 . S
C751 C356 1.438 . S
C755 C62 1.444 . S
C769 C76 1.440 . S
C773 C370 1.443 . S
C787 C384 1.443 . S
C791 C90 1.440 . S
C805 C104 1.437 . S
C809 C342 1.440 . S
C823 C118 1.437 . S
C827 C622 1.445 . S
C841 C580 1.440 . S
C845 C132 1.437 . S
C859 C594 1.444 . S
C863 C146 1.438 . S
C877 C160 1.445 . S
C881 C608 1.436 . S
C895 C174 1.440 . S
C899 C664 1.443 . S
C913 C188 1.443 . S
C917 C636 1.435 . S
C931 C202 1.436 . S
C935 C650 1.445 . S
C949 C566 1.436 . S
C953 C216 1.442 . S
C967 C552 1.444 . S
C971 C230 1.438 . S
C985 C244 1.444 . S
C989 C468 1.438 . S
C1003 C482 1.436 . S
C1007 C258 1.445 . S
C1021 C272 1.444 . S
C1025 C496 1.438 . S
C1039 C454 1.444 . S
C1043 C286 1.435 . S
C1057 C524 1.444 . S
C1061 C300 1.435 . S
C1075 C314 1.439 . S
C1079 C538 1.438 . S
C1093 C510 1.441 . S
C1097 C328 1.436 . S
C1111 C134 1.600 . S
C1115 C8 1.591 . S
C1129 C148 1.597 . S
C1133 C22 1.597 . S
C1147 C36 1.600 . S
C1151 C162 1.591 . S
C1165 C120 1.590 . S
C1169 C50 1.598 . S
C1183 C64 1.590 . S
C1187 C218 1.599 . S
C1201 C176 1.599 . S
C1205 C78 1.594 . S
C1219 C190 1.598 . S
C1223 C92 1.590 . S
C1237 C204 1.594 . S
C1241 C106 1.592 . S
C1255 C260 1.599 . S
C1259 C232 1.590 . S
C1273 C316 1.591 . S
C1277 C246 1.600 . S
C1291 C330 1.591 . S
C1295 C274 1.600 . S
C1309 C288 1.600 . S
C1313 C302 1.590 . S
C1327 C470 1.600 . S
C1331 C344 1.594 . S
C1345 C484 1.594 . S
C1349 C358 1.600 . S
C1363 C498 1.591 . S
C1367 C372 1.600 . S
C1381 C386 1.594 . S
C1385 C456 1.592 . S
C1399 C400 1.591 . S
C1403 C554 1.597 . S
C1417 C414 1.591 . S
C1421 C512 1.600 . S
C1435 C526 1.594 . S
C1439 C428 1.592 . S
C1453 C540 1.591 . S
C1457 C442 1.596 . S
C1471 C568 1.591 . S
C1475 C596 1.600 . S
C1489 C652 1.590 . S
C1493 C582 1.600 . S
C1507 C666 1.594 . S
C1511 C610 1.592 . S
C1525 C638 1.593 . S
C1529 C624 1.600 . S
C1543 C7 1.380 . S
C1547 C261 1.357 1_554 S
C1561 C21 1.374 . S
C1565 C275 1.365 1_554 S
C1579 C35 1.370 . S
C1583 C289 1.368 1_554 S
C1597 C247 1.358 1_554 S
C1601 C49 1.377 . S
C1615 C63 1.380 . S
C1619 C317 1.356 1_556 S
C1633 C77 1.379 . S
C1637 C233 1.359 1_556 S
C1651 C331 1.368 1_556 S
C1655 C91 1.370 . S
C1669 C303 1.357 1_556 S
C1673 C105 1.379 . S
C1687 C119 1.380 . S
C1691 C135 1.356 1_455 S
C1705 C133 1.380 . S
C1709 C149 1.357 1_545 S
C1723 C147 1.370 . S
C1727 C163 1.368 1_655 S
C1741 C121 1.364 1_565 S
C1745 C161 1.373 . S
C1759 C219 1.356 1_455 S
C1763 C175 1.380 . S
C1777 C177 1.358 1_545 S
C1781 C189 1.379 . S
C1795 C191 1.356 1_655 S
C1799 C203 1.380 . S
C1813 C217 1.380 . S
C1817 C205 1.356 1_565 S
C1831 C51 1.365 1_545 S
C1835 C231 1.372 . S
C1849 C79 1.369 1_565 S
C1853 C245 1.371 . S
C1867 C93 1.356 1_455 S
C1871 C259 1.379 . S
C1885 C273 1.376 . S
C1889 C107 1.359 1_545 S
C1903 C65 1.360 1_655 S
C1907 C287 1.378 . S
C1921 C23 1.360 1_565 S
C1925 C301 1.376 . S
C1939 C37 1.356 1_455 S
C1943 C315 1.380 . S
C1957 C9 1.365 1_655 S
C1961 C329 1.372 . S
C1975 C597 1.360 . S
C1979 C343 1.379 . S
C1993 C357 1.372 . S
C1997 C611 1.366 . S
C2011 C625 1.359 . S
C2015 C371 1.379 . S
C2029 C583 1.362 . S
C2033 C385 1.377 . S
C2047 C399 1.378 . S
C2051 C653 1.358 . S
C2065 C413 1.376 . S
C2069 C569 1.363 . S
C2083 C667 1.360 . S
C2087 C427 1.379 . S
C2101 C441 1.376 . S
C2105 C639 1.363 . S
C2119 C455 1.372 . S
C2123 C471 1.368 . S
C2137 C469 1.379 . S
C2141 C485 1.359 . S
C2155 C483 1.378 . S
C2159 C499 1.360 . S
C2173 C497 1.380 . S
C2177 C457 1.356 . S
C2191 C555 1.363 . S
C2195 C511 1.374 . S
C2209 C513 1.368 . S
C2213 C525 1.371 . S
C2227 C527 1.359 . S
C2231 C539 1.377 . S
C2245 C553 1.374 . S
C2249 C541 1.362 . S
C2263 C387 1.368 . S
C2267 C567 1.372 . S
C2281 C415 1.357 . S
C2285 C581 1.379 . S
C2299 C429 1.368 . S
C2303 C595 1.372 . S
C2317 C609 1.374 . S
C2321 C443 1.363 . S
C2335 C401 1.369 . S
C2339 C623 1.371 . S
C2353 C359 1.356 . S
C2357 C637 1.380 . S
C2371 C651 1.380 . S
C2375 C373 1.357 . S
C2389 C345 1.360 . S
C2393 C665 1.376 . S
