# Generated by pormake.
# Topology ooa, (5)-cn, num edge types: 1
# Building blocks:
#     Node 0, Type 0, BuildingBlock: XOMCOT_clean_sbu_1, # of connection points: 5
#     Node 1, Type 0, BuildingBlock: XOMCOT_clean_sbu_1, # of connection points: 5
#     Node 2, Type 0, BuildingBlock: XOMCOT_clean_sbu_1, # of connection points: 5
#     Node 3, Type 0, BuildingBlock: XOMCOT_clean_sbu_1, # of connection points: 5
#     Node 4, Type 0, BuildingBlock: XOMCOT_clean_sbu_1, # of connection points: 5
#     Node 5, Type 0, BuildingBlock: XOMCOT_clean_sbu_1, # of connection points: 5
#     Node 6, Type 0, BuildingBlock: XOMCOT_clean_sbu_1, # of connection points: 5
#     Node 7, Type 0, BuildingBlock: XOMCOT_clean_sbu_1, # of connection points: 5
#     Edge 8, Type (0, 0), BuildingBlock: AJUNOK_clean_linker_0, # of connection points: 2
#     Edge 9, Type (0, 0), BuildingBlock: AJUNOK_clean_linker_0, # of connection points: 2
#     Edge 10, Type (0, 0), BuildingBlock: AJUNOK_clean_linker_0, # of connection points: 2
#     Edge 11, Type (0, 0), BuildingBlock: AJUNOK_clean_linker_0, # of connection points: 2
#     Edge 12, Type (0, 0), BuildingBlock: AJUNOK_clean_linker_0, # of connection points: 2
#     Edge 13, Type (0, 0), BuildingBlock: AJUNOK_clean_linker_0, # of connection points: 2
#     Edge 14, Type (0, 0), BuildingBlock: AJUNOK_clean_linker_0, # of connection points: 2
#     Edge 15, Type (0, 0), BuildingBlock: AJUNOK_clean_linker_0, # of connection points: 2
#     Edge 16, Type (0, 0), BuildingBlock: AJUNOK_clean_linker_0, # of connection points: 2
#     Edge 17, Type (0, 0), BuildingBlock: AJUNOK_clean_linker_0, # of connection points: 2
#     Edge 18, Type (0, 0), BuildingBlock: AJUNOK_clean_linker_0, # of connection points: 2
#     Edge 19, Type (0, 0), BuildingBlock: AJUNOK_clean_linker_0, # of connection points: 2
#     Edge 20, Type (0, 0), BuildingBlock: AJUNOK_clean_linker_0, # of connection points: 2
#     Edge 21, Type (0, 0), BuildingBlock: AJUNOK_clean_linker_0, # of connection points: 2
#     Edge 22, Type (0, 0), BuildingBlock: AJUNOK_clean_linker_0, # of connection points: 2
#     Edge 23, Type (0, 0), BuildingBlock: AJUNOK_clean_linker_0, # of connection points: 2
#     Edge 24, Type (0, 0), BuildingBlock: AJUNOK_clean_linker_0, # of connection points: 2
#     Edge 25, Type (0, 0), BuildingBlock: AJUNOK_clean_linker_0, # of connection points: 2
#     Edge 26, Type (0, 0), BuildingBlock: AJUNOK_clean_linker_0, # of connection points: 2
#     Edge 27, Type (0, 0), BuildingBlock: AJUNOK_clean_linker_0, # of connection points: 2
# Relax obj value: 0.419
# Max RMSD: 0.220
# Mean RMSD: 0.220
data_MOF--net-ooa--node1-XOMCOT_clean_sbu_1--edge1-AJUNOK_clean_linker_0
_symmetry_space_group_name_H-M    P1
_symmetry_Int_Tables_number       1
_symmetry_cell_setting            triclinic
loop_
_symmetry_equiv_pos_as_xyz
'x, y, z'
_cell_length_a     21.288186
_cell_length_b     24.120811
_cell_length_c     38.002075
_cell_angle_alpha  89.848153
_cell_angle_beta   90.152778
_cell_angle_gamma 89.940063
loop_
_atom_site_label
_atom_site_type_symbol
_atom_site_fract_x
_atom_site_fract_y
_atom_site_fract_z
_atom_type_partial_charge
C0 C 0.10958 0.09541 0.12066 0.0
C1 C 0.15183 0.05437 0.12901 0.0
N2 N 0.19655 0.05301 0.10395 0.0
N3 N 0.12776 0.12039 0.09064 0.0
C4 C 0.1806 0.0936 0.08097 0.0
H5 H 0.06718 0.10525 0.13495 0.0
Co6 Co 0.08137 0.17333 0.06609 0.0
C7 C 0.17782 0.22244 0.01856 0.0
O8 O 0.13821 0.22334 0.992 0.0
N9 N 1.03136 0.22488 0.04187 0.0
C10 C 0.97577 0.30014 0.02782 0.0
C11 C 1.03177 0.28089 0.04194 0.0
C12 C 0.97555 0.21133 0.02724 0.0
N13 N 0.94097 0.25599 0.01841 0.0
O14 O 0.07809 0.12407 0.02757 0.0
H15 H 0.06811 0.30593 0.05389 0.0
H16 H 0.9578 0.16949 0.02571 0.0
O17 O 0.15926 0.20543 0.04857 0.0
C18 C 1.03943 0.08514 0.03395 0.0
O19 O 1.00452 0.08846 0.06235 0.0
N20 N 0.08254 0.21818 0.10553 0.0
C21 C 0.08152 0.23342 0.17751 0.0
C22 C 0.13739 0.24031 0.15859 0.0
C23 C 0.13696 0.23251 0.12226 0.0
C24 C 1.02665 0.21866 0.12283 0.0
C25 C 1.025 0.22663 0.15907 0.0
H26 H 0.18142 0.2309 0.10874 0.0
H27 H 0.98429 0.20607 0.10927 0.0
H28 H 0.20594 0.10347 0.05723 0.0
H29 H 0.14858 0.02647 0.15128 0.0
H30 H 0.96064 0.34292 0.02608 0.0
H31 H 0.18186 0.24586 0.17205 0.0
H32 H 0.9808 0.22247 0.17288 0.0
C33 C 0.48936 0.85479 0.11956 0.0
C34 C 0.44852 0.89653 0.12853 0.0
N35 N 0.40378 0.89996 0.10347 0.0
N36 N 0.47009 0.83152 0.0892 0.0
C37 C 0.4178 0.85981 0.08003 0.0
H38 H 0.53145 0.84304 0.13374 0.0
Co39 Co 0.51545 0.77837 0.06451 0.0
C40 C 0.40902 0.7077 0.03592 0.0
O41 O 0.43237 0.661 0.04793 0.0
N42 N 0.56515 0.72617 0.03981 0.0
C43 C 0.62417 0.6523 0.02737 0.0
C44 C 0.57066 0.67064 0.04397 0.0
C45 C 0.61618 0.74011 0.02055 0.0
N46 N 0.65302 0.69627 0.01277 0.0
O47 O 0.5253 0.83083 0.02808 0.0
H48 H 0.54237 0.64558 0.06133 0.0
H49 H 0.62886 0.78224 0.01425 0.0
O50 O 0.43804 0.7532 0.0415 0.0
C51 C 0.56383 0.86926 0.03575 0.0
O52 O 0.59879 0.86379 0.06411 0.0
N53 N 0.50704 0.73053 0.10255 0.0
C54 C 0.5045 0.70753 0.17391 0.0
C55 C 0.44845 0.70993 0.15457 0.0
C56 C 0.45066 0.72164 0.11867 0.0
C57 C 0.56205 0.72319 0.12036 0.0
C58 C 0.56187 0.71109 0.15616 0.0
H59 H 0.40713 0.73098 0.10527 0.0
H60 H 0.6061 0.73328 0.10776 0.0
H61 H 0.39098 0.85136 0.05653 0.0
H62 H 0.45247 0.92336 0.15121 0.0
H63 H 0.64328 0.61079 0.02902 0.0
H64 H 0.40336 0.70791 0.16768 0.0
H65 H 0.606 0.71063 0.17042 0.0
C66 C 0.10573 0.3552 0.37783 0.0
C67 C 0.14589 0.39606 0.36647 0.0
N68 N 0.19367 0.39992 0.3897 0.0
N69 N 0.12801 0.33344 0.40807 0.0
C70 C 0.18131 0.36173 0.41477 0.0
H71 H 0.06184 0.34337 0.36558 0.0
Co72 Co 0.08537 0.28245 0.43582 0.0
C73 C 0.19277 0.21325 0.46232 0.0
O74 O 0.16634 0.16714 0.45139 0.0
N75 N 1.03859 0.23411 0.46418 0.0
C76 C 0.99788 0.18946 0.51016 0.0
C77 C 0.05264 0.2054 0.4938 0.0
C78 C 0.97517 0.23609 0.46384 0.0
N79 N 0.94915 0.2096 0.49149 0.0
O80 O 0.07655 0.33759 0.47029 0.0
H81 H 0.09877 0.20094 0.50521 0.0
H82 H 0.94875 0.2598 0.44469 0.0
O83 O 0.16449 0.2595 0.45777 0.0
C84 C 1.03484 0.37381 0.46345 0.0
O85 O 0.99755 0.36583 0.43634 0.0
N86 N 0.09269 0.23026 0.39946 0.0
C87 C 0.09452 0.20321 0.32857 0.0
C88 C 0.1508 0.21029 0.347 0.0
C89 C 0.14895 0.2239 0.38255 0.0
C90 C 1.03798 0.21721 0.38267 0.0
C91 C 1.03787 0.20317 0.34712 0.0
H92 H 0.19223 0.23736 0.39463 0.0
H93 H 0.99347 0.22475 0.39509 0.0
H94 H 0.20971 0.35547 0.438 0.0
H95 H 0.13862 0.42255 0.34381 0.0
H96 H 0.99431 0.169 0.53547 0.0
H97 H 0.19535 0.21098 0.33329 0.0
H98 H 0.99339 0.19876 0.3335 0.0
C99 C 0.48991 0.59459 0.38138 0.0
C100 C 0.44904 0.5544 0.37003 0.0
N101 N 0.39844 0.55467 0.39129 0.0
N102 N 0.46534 0.62008 0.40968 0.0
C103 C 0.40983 0.59461 0.41534 0.0
H104 H 0.53565 0.60361 0.37045 0.0
Co105 Co 0.5083 0.67268 0.43588 0.0
C106 C 0.40147 0.74781 0.45571 0.0
O107 O 0.4304 0.79164 0.44309 0.0
N108 N 0.55585 0.72278 0.46271 0.0
C109 C 0.59608 0.77606 0.50493 0.0
C110 C 0.54147 0.75746 0.4894 0.0
C111 C 0.61929 0.71971 0.46355 0.0
N112 N 0.64507 0.75214 0.48857 0.0
O113 O 0.5122 0.62163 0.47308 0.0
H114 H 0.49494 0.76535 0.49934 0.0
H115 H 0.64611 0.69173 0.44721 0.0
O116 O 0.42859 0.7005 0.45475 0.0
C117 C 0.55283 0.58364 0.46899 0.0
O118 O 0.59373 0.58847 0.44332 0.0
N119 N 0.5056 0.72051 0.39681 0.0
C120 C 0.50853 0.73907 0.32477 0.0
C121 C 0.45113 0.73705 0.34243 0.0
C122 C 0.4506 0.72716 0.3785 0.0
C123 C 0.56176 0.72906 0.3805 0.0
C124 C 0.56427 0.73878 0.34436 0.0
H125 H 0.40607 0.71661 0.39019 0.0
H126 H 0.6052 0.72123 0.39417 0.0
H127 H 0.37902 0.60433 0.43708 0.0
H128 H 0.4575 0.52555 0.34881 0.0
H129 H 0.59916 0.80167 0.52821 0.0
H130 H 0.40716 0.73648 0.328 0.0
H131 H 0.6095 0.74071 0.33141 0.0
C132 C 0.97723 0.84985 0.87376 0.0
C133 C 0.93634 0.89131 0.86419 0.0
N134 N 0.89786 0.90165 0.89156 0.0
N135 N 0.96348 0.83265 0.9066 0.0
C136 C 0.91495 0.86491 0.91676 0.0
H137 H 1.01508 0.83365 0.85788 0.0
Co138 Co 1.00981 0.78191 0.93312 0.0
C139 C 0.90658 0.70725 0.958 0.0
O140 O 0.93634 0.66294 0.94678 0.0
N141 N 0.05996 0.73407 0.96033 0.0
C142 C 0.10348 0.68838 0.00521 0.0
C143 C 0.04775 0.704 0.98958 0.0
C144 C 0.12337 0.73736 0.95956 0.0
N145 N 0.15113 0.71007 0.9865 0.0
O146 O 1.01647 0.83529 0.9687 0.0
H147 H 1.00207 0.69806 0.00117 0.0
H148 H 0.14846 0.76224 0.94057 0.0
O149 O 0.93202 0.75498 0.95469 0.0
C150 C 0.05606 0.87367 0.96317 0.0
O151 O 0.09469 0.86915 0.93641 0.0
N152 N 1.0045 0.73115 0.89569 0.0
C153 C 1.00162 0.70905 0.82416 0.0
C154 C 0.94583 0.7102 0.84342 0.0
C155 C 0.94815 0.72207 0.8792 0.0
C156 C 0.05935 0.72234 0.87808 0.0
C157 C 0.05897 0.71099 0.84213 0.0
H158 H 0.90438 0.73254 0.89177 0.0
H159 H 0.10369 0.73184 0.89025 0.0
H160 H 0.89418 0.86279 0.94266 0.0
H161 H 0.93516 0.91171 0.83884 0.0
H162 H 0.10839 0.66661 0.03002 0.0
H163 H 0.90067 0.70848 0.83024 0.0
H164 H 0.10304 0.71041 0.82793 0.0
C165 C 0.61686 0.10884 0.87788 0.0
C166 C 0.66044 0.0698 0.8681 0.0
N167 N 0.69838 0.0605 0.89577 0.0
N168 N 0.62854 0.12504 0.91128 0.0
C169 C 0.67805 0.0939 0.92168 0.0
H170 H 0.57878 0.12401 0.86167 0.0
Co171 Co 0.58148 0.17591 0.93725 0.0
C172 C 0.67772 0.22544 0.98598 0.0
O173 O 0.63747 0.23158 0.01183 0.0
N174 N 0.53111 0.22527 0.96263 0.0
C175 C 0.47505 0.29948 0.97783 0.0
C176 C 0.53117 0.28127 0.96362 0.0
C177 C 0.47528 0.2106 0.97669 0.0
N178 N 0.44049 0.25469 0.98621 0.0
O179 O 0.57743 0.12356 0.97409 0.0
H180 H 0.56736 0.30717 0.95229 0.0
H181 H 0.45784 0.16856 0.97728 0.0
O182 O 0.65922 0.20548 0.95672 0.0
C183 C 0.54155 0.08287 0.96723 0.0
O184 O 0.50556 0.08547 0.9391 0.0
N185 N 0.58419 0.22485 0.89955 0.0
C186 C 0.58814 0.2466 0.82832 0.0
C187 C 0.64225 0.25318 0.84892 0.0
C188 C 0.63935 0.24204 0.88486 0.0
C189 C 0.52952 0.22646 0.88092 0.0
C190 C 0.5304 0.23746 0.84493 0.0
H191 H 0.68289 0.24017 0.89941 0.0
H192 H 0.48658 0.21177 0.8929 0.0
H193 H 0.69872 0.09555 0.94768 0.0
H194 H 0.66367 0.04927 0.84287 0.0
H195 H 0.45959 0.34206 0.98024 0.0
H196 H 0.68737 0.2613 0.83684 0.0
H197 H 0.48766 0.23236 0.82975 0.0
C198 C 0.98566 0.59983 0.61615 0.0
C199 C 0.94334 0.55984 0.62599 0.0
N200 N 0.89466 0.561 0.60324 0.0
N201 N 0.96377 0.62643 0.58742 0.0
C202 C 0.90817 0.6021 0.5802 0.0
H203 H 1.0305 0.60806 0.62852 0.0
Co204 Co 1.0095 0.67918 0.56261 0.0
C205 C 0.90381 0.75395 0.5369 0.0
O206 O 0.92999 0.79942 0.54869 0.0
N207 N 0.05977 0.73104 0.53783 0.0
C208 C 0.12053 0.80397 0.52583 0.0
C209 C 0.06712 0.78619 0.54275 0.0
C210 C 0.10984 0.71669 0.51789 0.0
N211 N 0.14765 0.76 0.51032 0.0
O212 O 1.01549 0.62802 0.52524 0.0
H213 H 1.04041 0.81111 0.5609 0.0
H214 H 0.12124 0.67451 0.51104 0.0
O215 O 0.93158 0.70744 0.54131 0.0
C216 C 0.05287 0.58807 0.53166 0.0
O217 O 0.0902 0.59163 0.55918 0.0
N218 N 1.00485 0.72544 0.60147 0.0
C219 C 1.00611 0.74378 0.67335 0.0
C220 C 0.94931 0.74507 0.65465 0.0
C221 C 0.9496 0.73551 0.61851 0.0
C222 C 0.06082 0.7295 0.61871 0.0
C223 C 0.06256 0.73907 0.65478 0.0
H224 H 0.90514 0.7285 0.60557 0.0
H225 H 0.10387 0.71877 0.60528 0.0
H226 H 0.87864 0.61424 0.55838 0.0
H227 H 0.94907 0.53084 0.64755 0.0
H228 H 0.14097 0.8449 0.52793 0.0
H229 H 0.90474 0.74726 0.66827 0.0
H230 H 0.10723 0.73782 0.66848 0.0
C231 C 0.60814 0.35711 0.62435 0.0
C232 C 0.64735 0.40029 0.63309 0.0
N233 N 0.69098 0.40531 0.60766 0.0
N234 N 0.62771 0.33452 0.59388 0.0
C235 C 0.67821 0.36467 0.58439 0.0
H236 H 0.56691 0.34397 0.63869 0.0
Co237 Co 0.58507 0.28111 0.56805 0.0
C238 C 0.69385 0.2117 0.54363 0.0
O239 O 0.66961 0.16584 0.55649 0.0
N240 N 0.5383 0.23051 0.5415 0.0
C241 C 0.49654 0.18266 0.49718 0.0
C242 C 0.55172 0.19841 0.51338 0.0
C243 C 0.47503 0.23426 0.54127 0.0
N244 N 0.44841 0.20614 0.51452 0.0
O245 O 0.57531 0.33342 0.53178 0.0
H246 H 0.59786 0.19136 0.50267 0.0
H247 H 0.44922 0.26036 0.55924 0.0
O248 O 0.66401 0.25739 0.54671 0.0
C249 C 0.53317 0.36965 0.53734 0.0
O250 O 0.49621 0.3636 0.56471 0.0
N251 N 0.59323 0.23171 0.60603 0.0
C252 C 0.59437 0.21005 0.67779 0.0
C253 C 0.65089 0.21623 0.6595 0.0
C254 C 0.64935 0.22712 0.62347 0.0
C255 C 0.53851 0.21919 0.62281 0.0
C256 C 0.53808 0.20788 0.65875 0.0
H257 H 0.69255 0.24014 0.61116 0.0
H258 H 0.49405 0.22497 0.6098 0.0
H259 H 0.70441 0.35742 0.56059 0.0
H260 H 0.64288 0.4271 0.65574 0.0
H261 H 0.49248 0.15997 0.47274 0.0
H262 H 0.69524 0.21925 0.67341 0.0
H263 H 0.49352 0.20301 0.67211 0.0
C264 C 0.0957 0.01752 0.99585 0.0
C265 C 1.04102 0.033 0.014 0.0
C266 C 0.10065 0.9653 0.98012 0.0
C267 C 0.05121 0.92677 0.98211 0.0
H268 H 0.13558 0.04532 0.99449 0.0
H269 H 0.14373 0.95499 0.96648 0.0
S270 S 0.8962 0.94911 0.02453 0.0
N271 N 0.93518 0.00718 0.03149 0.0
N272 N 0.94469 0.90878 0.00247 0.0
C273 C 0.99593 0.94212 -0.00015 0.0
C274 C 0.99076 -0.00462 0.01559 0.0
C275 C 0.50062 -0.01055 0.98248 0.0
C276 C 0.54756 0.02995 0.9864 0.0
C277 C 0.50717 0.93693 0.99765 0.0
C278 C 0.561 0.92294 0.01726 0.0
H279 H 0.45835 -0.0017 0.96754 0.0
H280 H 0.46914 0.90751 0.99447 0.0
S281 S 0.69918 0.01303 0.03375 0.0
N282 N 0.65063 0.05202 0.01049 0.0
N283 N 0.66318 0.95296 0.03878 0.0
C284 C 0.60863 0.96282 0.02115 0.0
C285 C 0.6018 0.01648 0.00584 0.0
C286 C 0.09219 0.49299 0.51939 0.0
C287 C 0.04814 0.53513 0.51242 0.0
C288 C 0.08649 0.44061 0.50414 0.0
C289 C 1.03647 0.42818 0.48126 0.0
H290 H 0.13147 0.50026 0.53696 0.0
H291 H 0.12218 0.40991 0.5101 0.0
S292 S 0.90806 0.52392 0.45447 0.0
N293 N 0.95249 0.56097 0.48115 0.0
N294 N 0.94162 0.46231 0.45245 0.0
C295 C 0.99192 0.4699 0.47401 0.0
C296 C 0.99786 0.52345 0.48952 0.0
C297 C 0.59596 0.49145 0.48571 0.0
C298 C 0.54684 0.5303 0.48771 0.0
C299 C 0.59018 0.4388 0.50074 0.0
C300 C 0.53511 0.42306 0.51849 0.0
H301 H 0.63937 0.50169 0.47239 0.0
H302 H 0.62981 0.41072 0.49903 0.0
S303 S 0.39084 0.50784 0.52893 0.0
N304 N 0.43986 0.54839 0.5073 0.0
N305 N 0.42932 0.44935 0.53583 0.0
C306 C 0.48518 0.4611 0.52026 0.0
C307 C 0.491 0.5148 0.50489 0.0
C308 C 0.32437 0.95611 0.13413 0.0
C309 C 0.3522 0.93876 0.10253 0.0
C310 C 0.27426 -0.00635 0.13422 0.0
C311 C 0.2494 0.01537 0.1027 0.0
H312 H 0.34104 0.94006 0.15909 0.0
H313 H 0.25515 0.00599 0.15936 0.0
S314 S 0.30742 -0.01518 0.01263 0.0
N315 N 0.35367 0.94834 0.03883 0.0
N316 N 0.25712 0.0165 0.03873 0.0
C317 C 0.27709 -0.0014 0.07077 0.0
C318 C 0.32886 0.96076 0.07075 0.0
C319 C 0.26881 0.46005 0.42136 0.0
C320 C 0.24474 0.43919 0.38948 0.0
C321 C 0.31837 0.49827 0.42176 0.0
C322 C 0.34591 0.51702 0.3903 0.0
H323 H 0.24889 0.44713 0.44624 0.0
H324 H 0.33595 0.51248 0.44691 0.0
S325 S 0.29992 0.47574 0.29982 0.0
N326 N 0.25292 0.43972 0.32567 0.0
N327 N 0.34417 0.5132 0.32638 0.0
C328 C 0.32192 0.49695 0.35825 0.0
C329 C 0.27176 0.45776 0.35785 0.0
C330 C 0.79691 0.93555 0.91577 0.0
C331 C 0.84967 0.94375 0.89395 0.0
C332 C 0.74828 0.97485 0.91729 0.0
C333 C 0.75055 0.02312 0.89672 0.0
H334 H 0.79228 0.89791 0.9311 0.0
H335 H 0.70778 0.96679 0.93372 0.0
S336 S 0.88006 0.06871 0.83904 0.0
N337 N 0.90339 0.00805 0.85454 0.0
N338 N 0.80997 0.07967 0.85617 0.0
C339 C 0.8032 0.03287 0.87576 0.0
C340 C 0.85331 -0.00627 0.87466 0.0
C341 C 0.77024 0.46391 0.63674 0.0
C342 C 0.74032 0.44608 0.6058 0.0
C343 C 0.81969 0.50208 0.63561 0.0
C344 C 0.84132 0.52405 0.60349 0.0
H345 H 0.75612 0.4474 0.66202 0.0
H346 H 0.84121 0.51442 0.6602 0.0
S347 S 0.77579 0.49328 0.51498 0.0
N348 N 0.73282 0.45598 0.54225 0.0
N349 N 0.82765 0.52569 0.53985 0.0
C350 C 0.81094 0.50732 0.57231 0.0
C351 C 0.76014 0.46872 0.57353 0.0
C352 C 0.26434 0.2648 0.98224 0.0
C353 C 0.24554 0.23594 0.01279 0.0
C354 C 0.32825 0.27353 0.97455 0.0
C355 C 0.37565 0.2528 0.99677 0.0
H356 H 0.2295 0.27995 0.96374 0.0
H357 H 0.34083 0.29451 0.95035 0.0
S358 S 0.35323 0.17697 0.08051 0.0
N359 N 0.28122 0.18979 0.06644 0.0
N360 N 0.40055 0.20399 0.0507 0.0
C361 C 0.35795 0.22512 0.0276 0.0
C362 C 0.29313 0.21738 0.03599 0.0
C363 C 0.2428 0.66247 0.0127 0.0
C364 C 0.21682 0.70958 0.99631 0.0
C365 C 0.30537 0.66174 0.02438 0.0
C366 C 0.34469 0.70829 0.02039 0.0
H367 H 0.21427 0.62588 0.01672 0.0
H368 H 0.32244 0.62466 0.0374 0.0
S369 S 0.30032 0.84171 0.9781 0.0
N370 N 0.23568 0.8041 0.97645 0.0
N371 N 0.3537 0.80202 0.99717 0.0
C372 C 0.31982 0.75525 0.00318 0.0
C373 C 0.25589 0.75609 0.99144 0.0
C374 C 0.35499 0.1611 0.48882 0.0
C375 C 0.38375 0.20836 0.50316 0.0
C376 C 0.29282 0.16273 0.47649 0.0
C377 C 0.25701 0.21188 0.47779 0.0
H378 H 0.38091 0.12256 0.48712 0.0
H379 H 0.27317 0.12529 0.46531 0.0
S380 S 0.31117 0.34767 0.51246 0.0
N381 N 0.37238 0.30626 0.51708 0.0
N382 N 0.25511 0.30888 0.4954 0.0
C383 C 0.28512 0.25934 0.49254 0.0
C384 C 0.34854 0.25773 0.50484 0.0
C385 C 0.24843 0.7106 0.50149 0.0
C386 C 0.21014 0.7574 0.49558 0.0
C387 C 0.31002 0.70803 0.48859 0.0
C388 C 0.33623 0.75228 0.46938 0.0
H389 H 0.23123 0.67598 0.51684 0.0
H390 H 0.33747 0.67113 0.49408 0.0
S391 S 0.25423 0.88286 0.44473 0.0
N392 N 0.20182 0.84781 0.4677 0.0
N393 N 0.31781 0.84364 0.44392 0.0
C394 C 0.29825 0.79916 0.46297 0.0
C395 C 0.23529 0.80157 0.47596 0.0
C396 C 0.75459 0.74452 0.00453 0.0
C397 C 0.7158 0.69821 0.99839 0.0
C398 C 0.81609 0.74686 0.99154 0.0
C399 C 0.84177 0.70278 0.97212 0.0
H400 H 0.7378 0.77903 0.02004 0.0
H401 H 0.84389 0.78345 0.99707 0.0
S402 S 0.75864 0.57347 0.94682 0.0
N403 N 0.70659 0.60846 0.97003 0.0
N404 N 0.82259 0.61212 0.94622 0.0
C405 C 0.80347 0.65628 0.96559 0.0
C406 C 0.74052 0.65416 0.97859 0.0
C407 C 0.76509 0.27156 0.01994 0.0
C408 C 0.74576 0.23782 0.99163 0.0
C409 C 0.82919 0.2802 0.02741 0.0
C410 C 0.87623 0.25454 0.00729 0.0
H411 H 0.73049 0.29077 0.03684 0.0
H412 H 0.84207 0.30497 0.05002 0.0
S413 S 0.85217 0.1649 0.92952 0.0
N414 N 0.78047 0.18157 0.94213 0.0
N415 N 0.90001 0.1961 0.95739 0.0
C416 C 0.8579 0.22205 0.97853 0.0
C417 C 0.79296 0.21421 0.97036 0.0
C418 C 0.81038 0.7066 0.50971 0.0
C419 C 0.83854 0.75548 0.52248 0.0
C420 C 0.74768 0.70598 0.49815 0.0
C421 C 0.71037 0.75418 0.49893 0.0
H422 H 0.83664 0.66816 0.50892 0.0
H423 H 0.72781 0.66708 0.48939 0.0
S424 S 0.76207 0.89401 0.52693 0.0
N425 N 0.82434 0.85432 0.5332 0.0
N426 N 0.70696 0.85275 0.51124 0.0
C427 C 0.73816 0.8036 0.51064 0.0
C428 C 0.80207 0.80439 0.52235 0.0
C429 C 0.85818 0.16346 0.519 0.0
C430 C 0.88419 0.21011 0.50227 0.0
C431 C 0.79615 0.16383 0.5314 0.0
C432 C 0.75767 0.21107 0.52776 0.0
H433 H 0.88625 0.12643 0.52268 0.0
H434 H 0.7788 0.12707 0.54458 0.0
S435 S 0.80339 0.34422 0.48559 0.0
N436 N 0.8669 0.30521 0.48307 0.0
N437 N 0.74989 0.3053 0.50494 0.0
C438 C 0.7828 0.25771 0.51038 0.0
C439 C 0.8461 0.25741 0.49799 0.0
C440 C 0.12122 0.25436 0.27374 0.0
C441 C 0.09371 0.20774 0.28987 0.0
C442 C 0.1165 0.26289 0.2374 0.0
C443 C 0.08381 0.22524 0.21604 0.0
H444 H 0.14532 0.28519 0.28946 0.0
H445 H 0.13795 0.29945 0.22599 0.0
S446 S 1.0083 0.09428 0.24521 0.0
N447 N 1.03556 0.12227 0.2818 0.0
N448 N 1.02739 0.13754 0.21324 0.0
C449 C 0.05726 0.17782 0.23179 0.0
C450 C 0.06195 0.16929 0.2688 0.0
C451 C 0.47007 0.75634 0.22811 0.0
C452 C 0.50345 0.71238 0.21257 0.0
C453 C 0.47294 0.76561 0.2644 0.0
C454 C 0.50967 0.7315 0.28626 0.0
H455 H 0.44264 0.78454 0.21198 0.0
H456 H 0.44656 0.79982 0.27544 0.0
S457 S 0.6015 0.60816 0.25878 0.0
N458 N 0.57161 0.63292 0.22178 0.0
N459 N 0.57665 0.64984 0.29023 0.0
C460 C 0.54236 0.6868 0.27111 0.0
C461 C 0.53938 0.6774 0.23418 0.0
C462 C 1.03807 0.69222 0.7274 0.0
C463 C 1.00575 0.73719 0.71199 0.0
C464 C 1.03564 0.68252 0.76369 0.0
C465 C 1.00024 0.71709 0.78567 0.0
H466 H 0.06466 0.66376 0.71121 0.0
H467 H 0.06135 0.64769 0.77462 0.0
S468 S 0.91077 0.84248 0.75866 0.0
N469 N 0.93969 0.81783 0.72157 0.0
N470 N 0.93498 0.79977 0.7899 0.0
C471 C 0.9682 0.7625 0.77065 0.0
C472 C 0.97089 0.77246 0.73375 0.0
C473 C 0.5532 0.25775 0.73098 0.0
C474 C 0.593 0.2172 0.71639 0.0
C475 C 0.55299 0.26824 0.76715 0.0
C476 C 0.5931 0.23901 0.78991 0.0
H477 H 0.52251 0.28216 0.71423 0.0
H478 H 0.52127 0.29938 0.77741 0.0
S479 S 0.70394 0.12678 0.76524 0.0
N480 N 0.67208 0.14662 0.72757 0.0
N481 N 0.67182 0.16623 0.79575 0.0
C482 C 0.63309 0.19828 0.77573 0.0
C483 C 0.6331 0.18746 0.7389 0.0
loop_
_geom_bond_atom_site_label_1
_geom_bond_atom_site_label_2
_geom_bond_distance
_geom_bond_site_symmetry_2
_ccdc_geom_bond_type
C0 C1 1.351 . S
C0 N3 1.368 . S
C0 H5 0.931 . S
C1 C0 1.351 . S
C1 N2 1.373 . S
C1 H29 0.930 . S
N2 C1 1.373 . S
N2 C4 1.340 . S
N3 C0 1.368 . S
N3 C4 1.321 . S
N3 Co6 2.135 . S
C4 N2 1.340 . S
C4 N3 1.321 . S
C4 H28 0.930 . S
H5 C0 0.931 . S
Co6 N3 2.135 . S
Co6 N9 2.121 . S
Co6 O14 2.055 . S
Co6 O17 2.039 . S
Co6 N20 2.140 . S
C7 O8 1.227 . S
C7 O17 1.265 . S
O8 C7 1.227 . S
N9 Co6 2.121 . S
N9 C11 1.375 . S
N9 C12 1.313 1_455 S
C10 C11 1.338 1_655 S
C10 N13 1.377 . S
C10 H30 0.930 . S
C11 N9 1.375 . S
C11 C10 1.338 1_455 S
C11 H15 0.931 . S
C12 N9 1.313 1_655 S
C12 N13 1.344 . S
C12 H16 0.930 . S
N13 C10 1.377 . S
N13 C12 1.344 . S
O14 Co6 2.055 . S
O14 C18 1.253 1_455 S
H15 C11 0.931 . S
H16 C12 0.930 . S
O17 Co6 2.039 . S
O17 C7 1.265 . S
C18 O14 1.253 1_655 S
C18 O19 1.227 . S
O19 C18 1.227 . S
N20 Co6 2.140 . S
N20 C23 1.346 . S
N20 C24 1.345 . S
C21 C22 1.387 . S
C21 C25 1.391 . S
C22 C21 1.387 . S
C22 C23 1.369 . S
C22 H31 0.929 . S
C23 N20 1.346 . S
C23 C22 1.369 . S
C23 H26 0.928 . S
C24 N20 1.345 . S
C24 C25 1.371 . S
C24 H27 0.931 1_455 S
C25 C21 1.391 . S
C25 C24 1.371 . S
C25 H32 0.930 1_455 S
H26 C23 0.928 . S
H27 C24 0.931 1_655 S
H28 C4 0.930 . S
H29 C1 0.930 . S
H30 C10 0.930 . S
H31 C22 0.929 . S
H32 C25 0.930 1_655 S
C33 C34 1.351 . S
C33 N36 1.368 . S
C33 H38 0.931 . S
C34 C33 1.351 . S
C34 N35 1.373 . S
C34 H62 0.930 . S
N35 C34 1.373 . S
N35 C37 1.340 . S
N36 C33 1.368 . S
N36 C37 1.321 . S
N36 Co39 2.135 . S
C37 N35 1.340 . S
C37 N36 1.321 . S
C37 H61 0.930 . S
H38 C33 0.931 . S
Co39 N36 2.135 . S
Co39 N42 2.121 . S
Co39 O47 2.055 . S
Co39 O50 2.039 . S
Co39 N53 2.140 . S
C40 O41 1.227 . S
C40 O50 1.265 . S
O41 C40 1.227 . S
N42 Co39 2.121 . S
N42 C44 1.375 . S
N42 C45 1.313 . S
C43 C44 1.338 . S
C43 N46 1.377 . S
C43 H63 0.930 . S
C44 N42 1.375 . S
C44 C43 1.338 . S
C44 H48 0.931 . S
C45 N42 1.313 . S
C45 N46 1.344 . S
C45 H49 0.930 . S
N46 C43 1.377 . S
N46 C45 1.344 . S
O47 Co39 2.055 . S
O47 C51 1.253 . S
H48 C44 0.931 . S
H49 C45 0.930 . S
O50 Co39 2.039 . S
O50 C40 1.265 . S
C51 O47 1.253 . S
C51 O52 1.227 . S
O52 C51 1.227 . S
N53 Co39 2.140 . S
N53 C56 1.346 . S
N53 C57 1.345 . S
C54 C55 1.387 . S
C54 C58 1.391 . S
C55 C54 1.387 . S
C55 C56 1.369 . S
C55 H64 0.929 . S
C56 N53 1.346 . S
C56 C55 1.369 . S
C56 H59 0.928 . S
C57 N53 1.345 . S
C57 C58 1.371 . S
C57 H60 0.931 . S
C58 C54 1.391 . S
C58 C57 1.371 . S
C58 H65 0.930 . S
H59 C56 0.928 . S
H60 C57 0.931 . S
H61 C37 0.930 . S
H62 C34 0.930 . S
H63 C43 0.930 . S
H64 C55 0.929 . S
H65 C58 0.930 . S
C66 C67 1.351 . S
C66 N69 1.368 . S
C66 H71 0.931 . S
C67 C66 1.351 . S
C67 N68 1.373 . S
C67 H95 0.930 . S
N68 C67 1.373 . S
N68 C70 1.340 . S
N69 C66 1.368 . S
N69 C70 1.321 . S
N69 Co72 2.135 . S
C70 N68 1.340 . S
C70 N69 1.321 . S
C70 H94 0.930 . S
H71 C66 0.931 . S
Co72 N69 2.135 . S
Co72 N75 2.121 . S
Co72 O80 2.055 . S
Co72 O83 2.039 . S
Co72 N86 2.140 . S
C73 O74 1.227 . S
C73 O83 1.265 . S
O74 C73 1.227 . S
N75 Co72 2.121 . S
N75 C77 1.375 . S
N75 C78 1.313 1_455 S
C76 C77 1.338 1_655 S
C76 N79 1.377 . S
C76 H96 0.930 . S
C77 N75 1.375 . S
C77 C76 1.338 1_455 S
C77 H81 0.931 . S
C78 N75 1.313 1_655 S
C78 N79 1.344 . S
C78 H82 0.930 . S
N79 C76 1.377 . S
N79 C78 1.344 . S
O80 Co72 2.055 . S
O80 C84 1.253 1_455 S
H81 C77 0.931 . S
H82 C78 0.930 . S
O83 Co72 2.039 . S
O83 C73 1.265 . S
C84 O80 1.253 1_655 S
C84 O85 1.227 . S
O85 C84 1.227 . S
N86 Co72 2.140 . S
N86 C89 1.346 . S
N86 C90 1.345 . S
C87 C88 1.387 . S
C87 C91 1.391 . S
C88 C87 1.387 . S
C88 C89 1.369 . S
C88 H97 0.929 . S
C89 N86 1.346 . S
C89 C88 1.369 . S
C89 H92 0.928 . S
C90 N86 1.345 . S
C90 C91 1.371 . S
C90 H93 0.931 1_455 S
C91 C87 1.391 . S
C91 C90 1.371 . S
C91 H98 0.930 1_455 S
H92 C89 0.928 . S
H93 C90 0.931 1_655 S
H94 C70 0.930 . S
H95 C67 0.930 . S
H96 C76 0.930 . S
H97 C88 0.929 . S
H98 C91 0.930 1_655 S
C99 C100 1.351 . S
C99 N102 1.368 . S
C99 H104 0.931 . S
C100 C99 1.351 . S
C100 N101 1.373 . S
C100 H128 0.930 . S
N101 C100 1.373 . S
N101 C103 1.340 . S
N102 C99 1.368 . S
N102 C103 1.321 . S
N102 Co105 2.135 . S
C103 N101 1.340 . S
C103 N102 1.321 . S
C103 H127 0.930 . S
H104 C99 0.931 . S
Co105 N102 2.135 . S
Co105 N108 2.121 . S
Co105 O113 2.055 . S
Co105 O116 2.039 . S
Co105 N119 2.140 . S
C106 O107 1.227 . S
C106 O116 1.265 . S
O107 C106 1.227 . S
N108 Co105 2.121 . S
N108 C110 1.375 . S
N108 C111 1.313 . S
C109 C110 1.338 . S
C109 N112 1.377 . S
C109 H129 0.930 . S
C110 N108 1.375 . S
C110 C109 1.338 . S
C110 H114 0.931 . S
C111 N108 1.313 . S
C111 N112 1.344 . S
C111 H115 0.930 . S
N112 C109 1.377 . S
N112 C111 1.344 . S
O113 Co105 2.055 . S
O113 C117 1.253 . S
H114 C110 0.931 . S
H115 C111 0.930 . S
O116 Co105 2.039 . S
O116 C106 1.265 . S
C117 O113 1.253 . S
C117 O118 1.227 . S
O118 C117 1.227 . S
N119 Co105 2.140 . S
N119 C122 1.346 . S
N119 C123 1.345 . S
C120 C121 1.387 . S
C120 C124 1.391 . S
C121 C120 1.387 . S
C121 C122 1.369 . S
C121 H130 0.929 . S
C122 N119 1.346 . S
C122 C121 1.369 . S
C122 H125 0.928 . S
C123 N119 1.345 . S
C123 C124 1.371 . S
C123 H126 0.931 . S
C124 C120 1.391 . S
C124 C123 1.371 . S
C124 H131 0.930 . S
H125 C122 0.928 . S
H126 C123 0.931 . S
H127 C103 0.930 . S
H128 C100 0.930 . S
H129 C109 0.930 . S
H130 C121 0.929 . S
H131 C124 0.930 . S
C132 C133 1.351 . S
C132 N135 1.368 . S
C132 H137 0.931 . S
C133 C132 1.351 . S
C133 N134 1.373 . S
C133 H161 0.930 . S
N134 C133 1.373 . S
N134 C136 1.340 . S
N135 C132 1.368 . S
N135 C136 1.321 . S
N135 Co138 2.135 . S
C136 N134 1.340 . S
C136 N135 1.321 . S
C136 H160 0.930 . S
H137 C132 0.931 . S
Co138 N135 2.135 . S
Co138 N141 2.121 . S
Co138 O146 2.055 . S
Co138 O149 2.039 . S
Co138 N152 2.140 . S
C139 O140 1.227 . S
C139 O149 1.265 . S
O140 C139 1.227 . S
N141 Co138 2.121 . S
N141 C143 1.375 . S
N141 C144 1.313 1_655 S
C142 C143 1.338 1_455 S
C142 N145 1.377 . S
C142 H162 0.930 . S
C143 N141 1.375 . S
C143 C142 1.338 1_655 S
C143 H147 0.931 . S
C144 N141 1.313 1_455 S
C144 N145 1.344 . S
C144 H148 0.930 . S
N145 C142 1.377 . S
N145 C144 1.344 . S
O146 Co138 2.055 . S
O146 C150 1.253 1_655 S
H147 C143 0.931 . S
H148 C144 0.930 . S
O149 Co138 2.039 . S
O149 C139 1.265 . S
C150 O146 1.253 1_455 S
C150 O151 1.227 . S
O151 C150 1.227 . S
N152 Co138 2.140 . S
N152 C155 1.346 . S
N152 C156 1.345 . S
C153 C154 1.387 . S
C153 C157 1.391 . S
C154 C153 1.387 . S
C154 C155 1.369 . S
C154 H163 0.929 . S
C155 N152 1.346 . S
C155 C154 1.369 . S
C155 H158 0.928 . S
C156 N152 1.345 . S
C156 C157 1.371 . S
C156 H159 0.931 1_655 S
C157 C153 1.391 . S
C157 C156 1.371 . S
C157 H164 0.930 1_655 S
H158 C155 0.928 . S
H159 C156 0.931 1_455 S
H160 C136 0.930 . S
H161 C133 0.930 . S
H162 C142 0.930 . S
H163 C154 0.929 . S
H164 C157 0.930 1_455 S
C165 C166 1.351 . S
C165 N168 1.368 . S
C165 H170 0.931 . S
C166 C165 1.351 . S
C166 N167 1.373 . S
C166 H194 0.930 . S
N167 C166 1.373 . S
N167 C169 1.340 . S
N168 C165 1.368 . S
N168 C169 1.321 . S
N168 Co171 2.135 . S
C169 N167 1.340 . S
C169 N168 1.321 . S
C169 H193 0.930 . S
H170 C165 0.931 . S
Co171 N168 2.135 . S
Co171 N174 2.121 . S
Co171 O179 2.055 . S
Co171 O182 2.039 . S
Co171 N185 2.140 . S
C172 O173 1.227 . S
C172 O182 1.265 . S
O173 C172 1.227 . S
N174 Co171 2.121 . S
N174 C176 1.375 . S
N174 C177 1.313 . S
C175 C176 1.338 . S
C175 N178 1.377 . S
C175 H195 0.930 . S
C176 N174 1.375 . S
C176 C175 1.338 . S
C176 H180 0.931 . S
C177 N174 1.313 . S
C177 N178 1.344 . S
C177 H181 0.930 . S
N178 C175 1.377 . S
N178 C177 1.344 . S
O179 Co171 2.055 . S
O179 C183 1.253 . S
H180 C176 0.931 . S
H181 C177 0.930 . S
O182 Co171 2.039 . S
O182 C172 1.265 . S
C183 O179 1.253 . S
C183 O184 1.227 . S
O184 C183 1.227 . S
N185 Co171 2.140 . S
N185 C188 1.346 . S
N185 C189 1.345 . S
C186 C187 1.387 . S
C186 C190 1.391 . S
C187 C186 1.387 . S
C187 C188 1.369 . S
C187 H196 0.929 . S
C188 N185 1.346 . S
C188 C187 1.369 . S
C188 H191 0.928 . S
C189 N185 1.345 . S
C189 C190 1.371 . S
C189 H192 0.931 . S
C190 C186 1.391 . S
C190 C189 1.371 . S
C190 H197 0.930 . S
H191 C188 0.928 . S
H192 C189 0.931 . S
H193 C169 0.930 . S
H194 C166 0.930 . S
H195 C175 0.930 . S
H196 C187 0.929 . S
H197 C190 0.930 . S
C198 C199 1.351 . S
C198 N201 1.368 . S
C198 H203 0.931 . S
C199 C198 1.351 . S
C199 N200 1.373 . S
C199 H227 0.930 . S
N200 C199 1.373 . S
N200 C202 1.340 . S
N201 C198 1.368 . S
N201 C202 1.321 . S
N201 Co204 2.135 . S
C202 N200 1.340 . S
C202 N201 1.321 . S
C202 H226 0.930 . S
H203 C198 0.931 . S
Co204 N201 2.135 . S
Co204 N207 2.121 . S
Co204 O212 2.055 . S
Co204 O215 2.039 . S
Co204 N218 2.140 . S
C205 O206 1.227 . S
C205 O215 1.265 . S
O206 C205 1.227 . S
N207 Co204 2.121 . S
N207 C209 1.375 . S
N207 C210 1.313 1_655 S
C208 C209 1.338 1_455 S
C208 N211 1.377 . S
C208 H228 0.930 . S
C209 N207 1.375 . S
C209 C208 1.338 1_655 S
C209 H213 0.931 . S
C210 N207 1.313 1_455 S
C210 N211 1.344 . S
C210 H214 0.930 . S
N211 C208 1.377 . S
N211 C210 1.344 . S
O212 Co204 2.055 . S
O212 C216 1.253 1_655 S
H213 C209 0.931 . S
H214 C210 0.930 . S
O215 Co204 2.039 . S
O215 C205 1.265 . S
C216 O212 1.253 1_455 S
C216 O217 1.227 . S
O217 C216 1.227 . S
N218 Co204 2.140 . S
N218 C221 1.346 . S
N218 C222 1.345 . S
C219 C220 1.387 . S
C219 C223 1.391 . S
C220 C219 1.387 . S
C220 C221 1.369 . S
C220 H229 0.929 . S
C221 N218 1.346 . S
C221 C220 1.369 . S
C221 H224 0.928 . S
C222 N218 1.345 . S
C222 C223 1.371 . S
C222 H225 0.931 1_655 S
C223 C219 1.391 . S
C223 C222 1.371 . S
C223 H230 0.930 1_655 S
H224 C221 0.928 . S
H225 C222 0.931 1_455 S
H226 C202 0.930 . S
H227 C199 0.930 . S
H228 C208 0.930 . S
H229 C220 0.929 . S
H230 C223 0.930 1_455 S
C231 C232 1.351 . S
C231 N234 1.368 . S
C231 H236 0.931 . S
C232 C231 1.351 . S
C232 N233 1.373 . S
C232 H260 0.930 . S
N233 C232 1.373 . S
N233 C235 1.340 . S
N234 C231 1.368 . S
N234 C235 1.321 . S
N234 Co237 2.135 . S
C235 N233 1.340 . S
C235 N234 1.321 . S
C235 H259 0.930 . S
H236 C231 0.931 . S
Co237 N234 2.135 . S
Co237 N240 2.121 . S
Co237 O245 2.055 . S
Co237 O248 2.039 . S
Co237 N251 2.140 . S
C238 O239 1.227 . S
C238 O248 1.265 . S
O239 C238 1.227 . S
N240 Co237 2.121 . S
N240 C242 1.375 . S
N240 C243 1.313 . S
C241 C242 1.338 . S
C241 N244 1.377 . S
C241 H261 0.930 . S
C242 N240 1.375 . S
C242 C241 1.338 . S
C242 H246 0.931 . S
C243 N240 1.313 . S
C243 N244 1.344 . S
C243 H247 0.930 . S
N244 C241 1.377 . S
N244 C243 1.344 . S
O245 Co237 2.055 . S
O245 C249 1.253 . S
H246 C242 0.931 . S
H247 C243 0.930 . S
O248 Co237 2.039 . S
O248 C238 1.265 . S
C249 O245 1.253 . S
C249 O250 1.227 . S
O250 C249 1.227 . S
N251 Co237 2.140 . S
N251 C254 1.346 . S
N251 C255 1.345 . S
C252 C253 1.387 . S
C252 C256 1.391 . S
C253 C252 1.387 . S
C253 C254 1.369 . S
C253 H262 0.929 . S
C254 N251 1.346 . S
C254 C253 1.369 . S
C254 H257 0.928 . S
C255 N251 1.345 . S
C255 C256 1.371 . S
C255 H258 0.931 . S
C256 C252 1.391 . S
C256 C255 1.371 . S
C256 H263 0.930 . S
H257 C254 0.928 . S
H258 C255 0.931 . S
H259 C235 0.930 . S
H260 C232 0.930 . S
H261 C241 0.930 . S
H262 C253 0.929 . S
H263 C256 0.930 . S
C264 C265 1.369 1_455 S
C264 C266 1.419 1_545 S
C264 H268 0.930 . S
C265 C264 1.369 1_655 S
C265 C274 1.429 1_554 S
C266 C264 1.419 1_565 S
C266 C267 1.363 1_554 S
C266 H269 0.929 . S
C267 C266 1.363 1_556 S
C267 C273 1.428 1_455 S
H268 C264 0.930 . S
H269 C266 0.929 . S
S270 N271 1.613 1_565 S
S270 N272 1.610 . S
N271 S270 1.613 1_545 S
N271 C274 1.350 . S
N272 S270 1.610 . S
N272 C273 1.351 . S
C273 C267 1.428 1_655 S
C273 N272 1.351 . S
C273 C274 1.434 1_565 S
C274 C265 1.429 1_556 S
C274 N271 1.350 . S
C274 C273 1.434 1_545 S
C275 C276 1.369 . S
C275 C277 1.419 1_545 S
C275 H279 0.930 . S
C276 C275 1.369 . S
C276 C285 1.429 1_556 S
C277 C275 1.419 1_565 S
C277 C278 1.363 1_556 S
C277 H280 0.929 . S
C278 C277 1.363 1_554 S
C278 C284 1.428 . S
H279 C275 0.930 . S
H280 C277 0.929 . S
S281 N282 1.613 . S
S281 N283 1.610 . S
N282 S281 1.613 . S
N282 C285 1.350 . S
N283 S281 1.610 . S
N283 C284 1.351 1_545 S
C284 C278 1.428 . S
C284 N283 1.351 1_565 S
C284 C285 1.434 1_565 S
C285 C276 1.429 1_554 S
C285 N282 1.350 . S
C285 C284 1.434 1_545 S
C286 C287 1.369 1_655 S
C286 C288 1.419 . S
C286 H290 0.930 . S
C287 C286 1.369 1_455 S
C287 C296 1.429 . S
C288 C286 1.419 . S
C288 C289 1.363 . S
C288 H291 0.929 . S
C289 C288 1.363 . S
C289 C295 1.428 1_655 S
H290 C286 0.930 . S
H291 C288 0.929 . S
S292 N293 1.613 . S
S292 N294 1.610 . S
N293 S292 1.613 . S
N293 C296 1.350 . S
N294 S292 1.610 . S
N294 C295 1.351 . S
C295 C289 1.428 1_455 S
C295 N294 1.351 . S
C295 C296 1.434 . S
C296 C287 1.429 . S
C296 N293 1.350 . S
C296 C295 1.434 . S
C297 C298 1.369 . S
C297 C299 1.419 . S
C297 H301 0.930 . S
C298 C297 1.369 . S
C298 C307 1.429 . S
C299 C297 1.419 . S
C299 C300 1.363 . S
C299 H302 0.929 . S
C300 C299 1.363 . S
C300 C306 1.428 . S
H301 C297 0.930 . S
H302 C299 0.929 . S
S303 N304 1.613 . S
S303 N305 1.610 . S
N304 S303 1.613 . S
N304 C307 1.350 . S
N305 S303 1.610 . S
N305 C306 1.351 . S
C306 C300 1.428 . S
C306 N305 1.351 . S
C306 C307 1.434 . S
C307 C298 1.429 . S
C307 N304 1.350 . S
C307 C306 1.434 . S
C308 C309 1.369 . S
C308 C310 1.419 1_565 S
C308 H312 0.930 . S
C309 C308 1.369 . S
C309 C318 1.429 . S
C310 C308 1.419 1_545 S
C310 C311 1.363 . S
C310 H313 0.929 . S
C311 C310 1.363 . S
C311 C317 1.428 . S
H312 C308 0.930 . S
H313 C310 0.929 . S
S314 N315 1.613 . S
S314 N316 1.610 1_565 S
N315 S314 1.613 . S
N315 C318 1.350 . S
N316 S314 1.610 1_545 S
N316 C317 1.351 . S
C317 C311 1.428 . S
C317 N316 1.351 . S
C317 C318 1.434 1_545 S
C318 C309 1.429 . S
C318 N315 1.350 . S
C318 C317 1.434 1_565 S
C319 C320 1.369 . S
C319 C321 1.419 . S
C319 H323 0.930 . S
C320 C319 1.369 . S
C320 C329 1.429 . S
C321 C319 1.419 . S
C321 C322 1.363 . S
C321 H324 0.929 . S
C322 C321 1.363 . S
C322 C328 1.428 . S
H323 C319 0.930 . S
H324 C321 0.929 . S
S325 N326 1.613 . S
S325 N327 1.610 . S
N326 S325 1.613 . S
N326 C329 1.350 . S
N327 S325 1.610 . S
N327 C328 1.351 . S
C328 C322 1.428 . S
C328 N327 1.351 . S
C328 C329 1.434 . S
C329 C320 1.429 . S
C329 N326 1.350 . S
C329 C328 1.434 . S
C330 C331 1.369 . S
C330 C332 1.419 1_565 S
C330 H334 0.930 . S
C331 C330 1.369 . S
C331 C340 1.429 . S
C332 C330 1.419 1_545 S
C332 C333 1.363 . S
C332 H335 0.929 . S
C333 C332 1.363 . S
C333 C339 1.428 . S
H334 C330 0.930 . S
H335 C332 0.929 . S
S336 N337 1.613 1_545 S
S336 N338 1.610 . S
N337 S336 1.613 1_565 S
N337 C340 1.350 . S
N338 S336 1.610 . S
N338 C339 1.351 . S
C339 C333 1.428 . S
C339 N338 1.351 . S
C339 C340 1.434 1_545 S
C340 C331 1.429 . S
C340 N337 1.350 . S
C340 C339 1.434 1_565 S
C341 C342 1.369 . S
C341 C343 1.419 . S
C341 H345 0.930 . S
C342 C341 1.369 . S
C342 C351 1.429 . S
C343 C341 1.419 . S
C343 C344 1.363 . S
C343 H346 0.929 . S
C344 C343 1.363 . S
C344 C350 1.428 . S
H345 C341 0.930 . S
H346 C343 0.929 . S
S347 N348 1.613 . S
S347 N349 1.610 . S
N348 S347 1.613 . S
N348 C351 1.350 . S
N349 S347 1.610 . S
N349 C350 1.351 . S
C350 C344 1.428 . S
C350 N349 1.351 . S
C350 C351 1.434 . S
C351 C342 1.429 . S
C351 N348 1.350 . S
C351 C350 1.434 . S
C352 C353 1.369 1_556 S
C352 C354 1.419 . S
C352 H356 0.930 . S
C353 C352 1.369 1_554 S
C353 C362 1.429 . S
C354 C352 1.419 . S
C354 C355 1.363 . S
C354 H357 0.929 . S
C355 C354 1.363 . S
C355 C361 1.428 1_556 S
H356 C352 0.930 . S
H357 C354 0.929 . S
S358 N359 1.613 . S
S358 N360 1.610 . S
N359 S358 1.613 . S
N359 C362 1.350 . S
N360 S358 1.610 . S
N360 C361 1.351 . S
C361 C355 1.428 1_554 S
C361 N360 1.351 . S
C361 C362 1.434 . S
C362 C353 1.429 . S
C362 N359 1.350 . S
C362 C361 1.434 . S
C363 C364 1.369 . S
C363 C365 1.419 . S
C363 H367 0.930 . S
C364 C363 1.369 . S
C364 C373 1.429 1_556 S
C365 C363 1.419 . S
C365 C366 1.363 1_556 S
C365 H368 0.929 . S
C366 C365 1.363 1_554 S
C366 C372 1.428 . S
H367 C363 0.930 . S
H368 C365 0.929 . S
S369 N370 1.613 . S
S369 N371 1.610 . S
N370 S369 1.613 . S
N370 C373 1.350 . S
N371 S369 1.610 . S
N371 C372 1.351 . S
C372 C366 1.428 . S
C372 N371 1.351 . S
C372 C373 1.434 . S
C373 C364 1.429 1_554 S
C373 N370 1.350 . S
C373 C372 1.434 . S
C374 C375 1.369 . S
C374 C376 1.419 . S
C374 H378 0.930 . S
C375 C374 1.369 . S
C375 C384 1.429 . S
C376 C374 1.419 . S
C376 C377 1.363 . S
C376 H379 0.929 . S
C377 C376 1.363 . S
C377 C383 1.428 . S
H378 C374 0.930 . S
H379 C376 0.929 . S
S380 N381 1.613 . S
S380 N382 1.610 . S
N381 S380 1.613 . S
N381 C384 1.350 . S
N382 S380 1.610 . S
N382 C383 1.351 . S
C383 C377 1.428 . S
C383 N382 1.351 . S
C383 C384 1.434 . S
C384 C375 1.429 . S
C384 N381 1.350 . S
C384 C383 1.434 . S
C385 C386 1.369 . S
C385 C387 1.419 . S
C385 H389 0.930 . S
C386 C385 1.369 . S
C386 C395 1.429 . S
C387 C385 1.419 . S
C387 C388 1.363 . S
C387 H390 0.929 . S
C388 C387 1.363 . S
C388 C394 1.428 . S
H389 C385 0.930 . S
H390 C387 0.929 . S
S391 N392 1.613 . S
S391 N393 1.610 . S
N392 S391 1.613 . S
N392 C395 1.350 . S
N393 S391 1.610 . S
N393 C394 1.351 . S
C394 C388 1.428 . S
C394 N393 1.351 . S
C394 C395 1.434 . S
C395 C386 1.429 . S
C395 N392 1.350 . S
C395 C394 1.434 . S
C396 C397 1.369 . S
C396 C398 1.419 . S
C396 H400 0.930 . S
C397 C396 1.369 . S
C397 C406 1.429 1_554 S
C398 C396 1.419 . S
C398 C399 1.363 1_554 S
C398 H401 0.929 . S
C399 C398 1.363 1_556 S
C399 C405 1.428 . S
H400 C396 0.930 . S
H401 C398 0.929 . S
S402 N403 1.613 . S
S402 N404 1.610 . S
N403 S402 1.613 . S
N403 C406 1.350 . S
N404 S402 1.610 . S
N404 C405 1.351 . S
C405 C399 1.428 . S
C405 N404 1.351 . S
C405 C406 1.434 . S
C406 C397 1.429 1_556 S
C406 N403 1.350 . S
C406 C405 1.434 . S
C407 C408 1.369 1_554 S
C407 C409 1.419 . S
C407 H411 0.930 . S
C408 C407 1.369 1_556 S
C408 C417 1.429 . S
C409 C407 1.419 . S
C409 C410 1.363 . S
C409 H412 0.929 . S
C410 C409 1.363 . S
C410 C416 1.428 1_554 S
H411 C407 0.930 . S
H412 C409 0.929 . S
S413 N414 1.613 . S
S413 N415 1.610 . S
N414 S413 1.613 . S
N414 C417 1.350 . S
N415 S413 1.610 . S
N415 C416 1.351 . S
C416 C410 1.428 1_556 S
C416 N415 1.351 . S
C416 C417 1.434 . S
C417 C408 1.429 . S
C417 N414 1.350 . S
C417 C416 1.434 . S
C418 C419 1.369 . S
C418 C420 1.419 . S
C418 H422 0.930 . S
C419 C418 1.369 . S
C419 C428 1.429 . S
C420 C418 1.419 . S
C420 C421 1.363 . S
C420 H423 0.929 . S
C421 C420 1.363 . S
C421 C427 1.428 . S
H422 C418 0.930 . S
H423 C420 0.929 . S
S424 N425 1.613 . S
S424 N426 1.610 . S
N425 S424 1.613 . S
N425 C428 1.350 . S
N426 S424 1.610 . S
N426 C427 1.351 . S
C427 C421 1.428 . S
C427 N426 1.351 . S
C427 C428 1.434 . S
C428 C419 1.429 . S
C428 N425 1.350 . S
C428 C427 1.434 . S
C429 C430 1.369 . S
C429 C431 1.419 . S
C429 H433 0.930 . S
C430 C429 1.369 . S
C430 C439 1.429 . S
C431 C429 1.419 . S
C431 C432 1.363 . S
C431 H434 0.929 . S
C432 C431 1.363 . S
C432 C438 1.428 . S
H433 C429 0.930 . S
H434 C431 0.929 . S
S435 N436 1.613 . S
S435 N437 1.610 . S
N436 S435 1.613 . S
N436 C439 1.350 . S
N437 S435 1.610 . S
N437 C438 1.351 . S
C438 C432 1.428 . S
C438 N437 1.351 . S
C438 C439 1.434 . S
C439 C430 1.429 . S
C439 N436 1.350 . S
C439 C438 1.434 . S
C440 C441 1.369 . S
C440 C442 1.419 . S
C440 H444 0.930 . S
C441 C440 1.369 . S
C441 C450 1.429 . S
C442 C440 1.419 . S
C442 C443 1.363 . S
C442 H445 0.929 . S
C443 C442 1.363 . S
C443 C449 1.428 . S
H444 C440 0.930 . S
H445 C442 0.929 . S
S446 N447 1.613 . S
S446 N448 1.610 . S
N447 S446 1.613 . S
N447 C450 1.350 1_655 S
N448 S446 1.610 . S
N448 C449 1.351 1_655 S
C449 C443 1.428 . S
C449 N448 1.351 1_455 S
C449 C450 1.434 . S
C450 C441 1.429 . S
C450 N447 1.350 1_455 S
C450 C449 1.434 . S
C451 C452 1.369 . S
C451 C453 1.419 . S
C451 H455 0.930 . S
C452 C451 1.369 . S
C452 C461 1.429 . S
C453 C451 1.419 . S
C453 C454 1.363 . S
C453 H456 0.929 . S
C454 C453 1.363 . S
C454 C460 1.428 . S
H455 C451 0.930 . S
H456 C453 0.929 . S
S457 N458 1.613 . S
S457 N459 1.610 . S
N458 S457 1.613 . S
N458 C461 1.350 . S
N459 S457 1.610 . S
N459 C460 1.351 . S
C460 C454 1.428 . S
C460 N459 1.351 . S
C460 C461 1.434 . S
C461 C452 1.429 . S
C461 N458 1.350 . S
C461 C460 1.434 . S
C462 C463 1.369 . S
C462 C464 1.419 . S
C462 H466 0.930 1_655 S
C463 C462 1.369 . S
C463 C472 1.429 . S
C464 C462 1.419 . S
C464 C465 1.363 . S
C464 H467 0.929 1_655 S
C465 C464 1.363 . S
C465 C471 1.428 . S
H466 C462 0.930 1_455 S
H467 C464 0.929 1_455 S
S468 N469 1.613 . S
S468 N470 1.610 . S
N469 S468 1.613 . S
N469 C472 1.350 . S
N470 S468 1.610 . S
N470 C471 1.351 . S
C471 C465 1.428 . S
C471 N470 1.351 . S
C471 C472 1.434 . S
C472 C463 1.429 . S
C472 N469 1.350 . S
C472 C471 1.434 . S
C473 C474 1.369 . S
C473 C475 1.419 . S
C473 H477 0.930 . S
C474 C473 1.369 . S
C474 C483 1.429 . S
C475 C473 1.419 . S
C475 C476 1.363 . S
C475 H478 0.929 . S
C476 C475 1.363 . S
C476 C482 1.428 . S
H477 C473 0.930 . S
H478 C475 0.929 . S
S479 N480 1.613 . S
S479 N481 1.610 . S
N480 S479 1.613 . S
N480 C483 1.350 . S
N481 S479 1.610 . S
N481 C482 1.351 . S
C482 C476 1.428 . S
C482 N481 1.351 . S
C482 C483 1.434 . S
C483 C474 1.429 . S
C483 N480 1.350 . S
C483 C482 1.434 . S
C265 C18 1.375 . S
C267 C150 1.363 . S
C276 C183 1.366 . S
C278 C51 1.369 . S
C287 C216 1.368 . S
C289 C84 1.367 . S
C298 C117 1.370 . S
C300 C249 1.367 . S
C309 N35 0.852 . S
C311 N2 0.845 . S
C320 N68 0.864 . S
C322 N101 0.849 . S
C331 N134 0.838 . S
C333 N167 0.862 . S
C342 N233 0.854 . S
C344 N200 0.846 . S
C353 C7 1.838 . S
C355 N178 1.940 . S
C364 N145 1.938 . S
C366 C40 1.839 . S
C375 N244 1.940 . S
C377 C73 1.845 . S
C386 N211 1.942 . S
C388 C106 1.841 . S
C397 N46 1.942 . S
C399 C139 1.842 . S
C408 C172 1.838 . S
C410 N13 1.939 . S
C419 C205 1.845 . S
C421 N112 1.941 . S
C430 N79 1.939 . S
C432 C238 1.838 . S
C441 C87 1.533 . S
C443 C21 1.527 . S
C452 C54 1.532 . S
C454 C120 1.527 . S
C463 C219 1.532 . S
C465 C153 1.527 . S
C474 C252 1.532 . S
C476 C186 1.527 . S
