# Generated by pormake.
# Topology sma, (6)-cn, num edge types: 1
# Building blocks:
#     Node 0, Type 0, BuildingBlock: CUKXOW_clean_sbu_0, # of connection points: 6
#     Node 1, Type 0, BuildingBlock: CUKXOW_clean_sbu_0, # of connection points: 6
#     Node 2, Type 0, BuildingBlock: CUKXOW_clean_sbu_0, # of connection points: 6
#     Edge 3, Type (0, 0), BuildingBlock: MIFKUJ_clean_linker_0, # of connection points: 2
#     Edge 4, Type (0, 0), BuildingBlock: MIFKUJ_clean_linker_0, # of connection points: 2
#     Edge 5, Type (0, 0), BuildingBlock: MIFKUJ_clean_linker_0, # of connection points: 2
#     Edge 6, Type (0, 0), BuildingBlock: MIFKUJ_clean_linker_0, # of connection points: 2
#     Edge 7, Type (0, 0), BuildingBlock: MIFKUJ_clean_linker_0, # of connection points: 2
#     Edge 8, Type (0, 0), BuildingBlock: MIFKUJ_clean_linker_0, # of connection points: 2
#     Edge 9, Type (0, 0), BuildingBlock: MIFKUJ_clean_linker_0, # of connection points: 2
#     Edge 10, Type (0, 0), BuildingBlock: MIFKUJ_clean_linker_0, # of connection points: 2
#     Edge 11, Type (0, 0), BuildingBlock: MIFKUJ_clean_linker_0, # of connection points: 2
# Relax obj value: 0.160
# Max RMSD: 0.244
# Mean RMSD: 0.236
data_MOF--net-sma--node1-CUKXOW_clean_sbu_0--edge1-MIFKUJ_clean_linker_0
_symmetry_space_group_name_H-M    P1
_symmetry_Int_Tables_number       1
_symmetry_cell_setting            triclinic
loop_
_symmetry_equiv_pos_as_xyz
'x, y, z'
_cell_length_a     39.445752
_cell_length_b     36.391978
_cell_length_c     17.792161
_cell_angle_alpha  99.399487
_cell_angle_beta   90.235355
_cell_angle_gamma 113.794
loop_
_atom_site_label
_atom_site_type_symbol
_atom_site_fract_x
_atom_site_fract_y
_atom_site_fract_z
_atom_type_partial_charge
Tb0 Tb 0.07977 0.57952 0.09451 0.0
C1 C 1.04133 0.57025 0.24779 0.0
Tb2 Tb 1.02055 0.49488 0.10974 0.0
O3 O 1.04267 0.59145 0.02037 0.0
O4 O 1.02132 0.55284 0.10037 0.0
O5 O 0.06895 0.59384 0.21264 0.0
C6 C 0.96621 0.43223 0.15626 0.0
O7 O 1.01888 0.53219 0.21744 0.0
C8 C 0.08939 0.501 0.09736 0.0
C9 C 1.04343 0.51262 0.94868 0.0
O10 O 0.96226 0.45022 0.10127 0.0
O11 O 1.00082 0.44871 0.18261 0.0
O12 O 0.05998 0.46852 0.07023 0.0
O13 O 0.07908 0.52725 0.13282 0.0
O14 O 1.01568 0.49174 -0.01218 0.0
O15 O 0.07511 0.54243 -0.01777 0.0
C16 C 0.14371 0.64582 0.11697 0.0
O17 O 0.14046 0.60841 0.10988 0.0
O18 O 0.11102 0.64572 0.10809 0.0
C19 C 1.01266 0.56627 0.04527 0.0
Tb20 Tb 0.53614 1.02954 0.54613 0.0
C21 C 0.58006 1.03092 0.39787 0.0
Tb22 Tb 0.6192 0.08516 0.55654 0.0
O23 O 0.52412 0.08013 0.60031 0.0
O24 O 0.56894 0.09112 0.53189 0.0
O25 O 0.54822 1.01438 0.42888 0.0
C26 C 0.68281 0.14618 0.53368 0.0
O27 O 0.61012 0.06074 0.43537 0.0
C28 C 0.60435 1.01237 0.58834 0.0
C29 C 0.58043 0.06587 0.70572 0.0
O30 O 0.67583 0.10759 0.51954 0.0
O31 O 0.65445 0.15054 0.56404 0.0
O32 O 0.63446 0.04462 0.61485 0.0
O33 O 0.58644 1.02149 0.54091 0.0
O34 O 0.60615 0.09471 0.67474 0.0
O35 O 0.55199 1.0347 0.66509 0.0
C36 C 0.46676 0.97385 0.51177 0.0
O37 O 0.48083 1.00897 0.49006 0.0
O38 O 0.4918 0.96994 0.55377 0.0
C39 C 0.55226 0.10795 0.57655 0.0
Tb40 Tb 0.51585 0.55417 0.78909 0.0
C41 C 0.5768 0.61176 0.92321 0.0
Tb42 Tb 0.60127 0.57032 0.7769 0.0
O43 O 0.50029 0.48785 0.77153 0.0
O44 O 0.553 0.52848 0.81586 0.0
O45 O 0.54332 0.60074 0.88892 0.0
C46 C 0.66249 0.55786 0.80217 0.0
O47 O 0.60267 0.60081 0.89258 0.0
C48 C 0.58888 0.63304 0.74758 0.0
C49 C 0.54269 0.52972 0.63272 0.0
O50 O 0.63585 0.55288 0.84717 0.0
O51 O 0.65468 0.56973 0.74164 0.0
O52 O 0.62131 0.63137 0.74646 0.0
O53 O 0.56601 0.59968 0.76342 0.0
O54 O 0.57343 0.53174 0.66814 0.0
O55 O 0.51887 0.5432 0.66699 0.0
C56 C 0.44934 0.55018 0.82908 0.0
O57 O 0.46382 0.56102 0.766 0.0
O58 O 0.47254 0.54239 0.86873 0.0
C59 C 0.53326 0.49138 0.79082 0.0
H60 H 0.15469 0.52541 0.18384 0.0
H61 H 0.21481 0.53122 0.13945 0.0
H62 H 0.16939 0.50446 0.90544 0.0
H63 H 0.10833 0.49229 0.95062 0.0
H64 H 0.21013 0.47241 0.89609 0.0
H65 H 0.24954 0.61678 0.02475 0.0
H66 H 0.26142 0.6744 0.12971 0.0
H67 H 0.3087 0.62097 0.27478 0.0
H68 H 0.2988 0.56385 0.1686 0.0
H69 H 0.39171 0.55381 0.74648 0.0
H70 H 0.32962 0.54383 0.78866 0.0
H71 H 0.36111 0.52541 0.00724 0.0
H72 H 0.42253 0.53519 0.96568 0.0
H73 H 0.3292 0.57908 0.0223 0.0
H74 H 0.30319 0.44564 0.87804 0.0
H75 H 0.30117 0.39644 0.76313 0.0
H76 H 0.23029 0.43395 0.64055 0.0
H77 H 0.23231 0.4838 0.7545 0.0
C78 C 0.15782 0.52104 0.12299 0.0
C79 C 0.12697 0.50917 0.07079 0.0
C80 C 0.19259 0.52509 0.09716 0.0
C81 C 0.19798 0.5198 0.01826 0.0
C82 C 0.16684 0.50871 0.96648 0.0
C83 C 0.13175 0.50236 -0.00764 0.0
C84 C 0.23504 0.52377 -0.01104 0.0
C85 C 0.23589 0.49651 0.9233 0.0
C86 C 0.26962 0.55376 0.02452 0.0
C87 C 0.27267 0.58583 0.0897 0.0
C88 C 0.26187 0.61705 0.07947 0.0
C89 C 0.26841 0.64968 0.13917 0.0
C90 C 0.285 0.65096 0.20975 0.0
C91 C 0.29554 0.61977 0.2204 0.0
C92 C 0.28979 0.58746 0.16032 0.0
C93 C 0.38526 0.54766 0.80346 0.0
C94 C 0.412 0.54541 0.85284 0.0
C95 C 0.34973 0.54166 0.82733 0.0
C96 C 0.34052 0.53351 0.90104 0.0
C97 C 0.36742 0.53154 0.95016 0.0
C98 C 0.40259 0.53719 0.92627 0.0
C99 C 0.30368 0.52887 0.92924 0.0
C100 C 0.30309 0.55556 -0.00509 0.0
C101 C 0.26956 0.49881 0.89294 0.0
C102 C 0.26822 0.46875 0.82456 0.0
C103 C 0.28743 0.44365 0.82639 0.0
C104 C 0.28624 0.41559 0.76147 0.0
C105 C 0.2657 0.41215 0.69451 0.0
C106 C 0.24623 0.43669 0.69242 0.0
C107 C 0.24737 0.46482 0.75717 0.0
H108 H 0.26481 0.39041 0.64431 0.0
H109 H 0.29038 0.67641 0.25584 0.0
H110 H 0.73826 0.1373 0.45265 0.0
H111 H 0.78513 0.18788 0.38983 0.0
H112 H 0.7434 0.27741 0.48141 0.0
H113 H 0.6965 0.22689 0.54477 0.0
H114 H 0.77291 0.2292 0.27909 0.0
H115 H 0.80328 0.35919 0.51475 0.0
H116 H 0.80788 0.37692 0.65566 0.0
H117 H 0.85363 0.28932 0.67243 0.0
H118 H 0.84914 0.27113 0.53159 0.0
H119 H 0.89096 0.40403 0.12431 0.0
H120 H 0.84145 0.35828 0.19086 0.0
H121 H 0.92385 0.34731 0.33502 0.0
H122 H 0.9732 0.39359 0.26993 0.0
H123 H 0.87136 0.35778 0.41903 0.0
H124 H 0.87094 0.26714 0.18054 0.0
H125 H 0.8675 0.25106 0.03964 0.0
H126 H 0.76232 0.25979 0.02694 0.0
H127 H 0.76499 0.27542 0.16772 0.0
C128 C 0.73947 0.16797 0.46045 0.0
C129 C 0.7139 0.17825 0.5041 0.0
C130 C 0.76608 0.19675 0.42402 0.0
C131 C 0.76789 0.23649 0.43094 0.0
C132 C 0.74287 0.24711 0.47594 0.0
C133 C 0.71612 0.21824 0.51222 0.0
C134 C 0.79551 0.2664 0.38975 0.0
C135 C 0.79433 0.25739 0.30969 0.0
C136 C 0.82331 0.30329 0.42909 0.0
C137 C 0.82604 0.31402 0.51322 0.0
C138 C 0.81431 0.3438 0.54871 0.0
C139 C 0.81685 0.35387 0.62843 0.0
C140 C 0.83109 0.33429 0.67297 0.0
C141 C 0.84266 0.30449 0.63788 0.0
C142 C 0.84009 0.29426 0.55819 0.0
C143 C 0.89841 0.39148 0.16967 0.0
C144 C 0.93592 0.40206 0.19143 0.0
C145 C 0.87012 0.36535 0.20777 0.0
C146 C 0.87881 0.34894 0.26773 0.0
C147 C 0.91633 0.35953 0.28918 0.0
C148 C 0.94454 0.38576 0.25148 0.0
C149 C 0.8491 0.32053 0.30812 0.0
C150 C 0.8498 0.32981 0.38817 0.0
C151 C 0.82067 0.28398 0.26853 0.0
C152 C 0.81822 0.27253 0.18435 0.0
C153 C 0.84703 0.26543 0.14756 0.0
C154 C 0.84521 0.25639 0.0678 0.0
C155 C 0.81474 0.25447 0.02436 0.0
C156 C 0.78591 0.26131 0.06064 0.0
C157 C 0.78742 0.26993 0.14037 0.0
H158 H 0.81343 0.24761 0.96262 0.0
H159 H 0.83313 0.34218 0.73466 0.0
H160 H 0.6357 0.99304 0.7039 0.0
H161 H 0.62156 0.92537 0.73411 0.0
H162 H 0.5364 0.87113 0.54778 0.0
H163 H 0.54996 0.93918 0.5184 0.0
H164 H 0.55643 0.86077 0.77015 0.0
H165 H 0.5473 0.78372 0.45908 0.0
H166 H 0.56738 0.80194 0.33393 0.0
H167 H 0.66219 0.90681 0.44556 0.0
H168 H 0.64296 0.88887 0.57112 0.0
H169 H 0.52562 0.64848 0.76577 0.0
H170 H 0.51737 0.70892 0.73855 0.0
H171 H 0.63033 0.7593 0.67516 0.0
H172 H 0.6383 0.69958 0.70069 0.0
H173 H 0.58599 0.7671 0.573 0.0
H174 H 0.60383 0.79427 0.85397 0.0
H175 H 0.58504 0.77464 0.97881 0.0
H176 H 0.47649 0.76966 0.92904 0.0
H177 H 0.49475 0.78945 0.80416 0.0
C178 C 0.61357 0.96678 0.67007 0.0
C179 C 0.59403 0.97141 0.60861 0.0
C180 C 0.60539 0.92809 0.68764 0.0
C181 C 0.57799 0.89304 0.64317 0.0
C182 C 0.5577 0.89768 0.58289 0.0
C183 C 0.5655 0.93655 0.56604 0.0
C184 C 0.57323 0.85173 0.65594 0.0
C185 C 0.56255 0.84013 0.72676 0.0
C186 C 0.58111 0.82458 0.59959 0.0
C187 C 0.59339 0.83524 0.52441 0.0
C188 C 0.57248 0.8106 0.4568 0.0
C189 C 0.58371 0.82087 0.38583 0.0
C190 C 0.61595 0.85561 0.38182 0.0
C191 C 0.63714 0.88001 0.44874 0.0
C192 C 0.62606 0.86983 0.51982 0.0
C193 C 0.54859 0.67265 0.74637 0.0
C194 C 0.58259 0.66927 0.7353 0.0
C195 C 0.54393 0.70718 0.73084 0.0
C196 C 0.57328 0.73889 0.70466 0.0
C197 C 0.60714 0.73533 0.69456 0.0
C198 C 0.61175 0.70115 0.70979 0.0
C199 C 0.5698 0.77624 0.68773 0.0
C200 C 0.57904 0.78725 0.61594 0.0
C201 C 0.56077 0.80282 0.74327 0.0
C202 C 0.55052 0.79297 0.81971 0.0
C203 C 0.57599 0.78904 0.86984 0.0
C204 C 0.56544 0.7779 0.94055 0.0
C205 C 0.52954 0.7707 0.96165 0.0
C206 C 0.50426 0.77515 0.91254 0.0
C207 C 0.51474 0.78651 0.84198 0.0
H208 H 0.52134 0.76183 0.0162 0.0
H209 H 0.62456 0.86356 0.32684 0.0
H210 H 0.72497 0.5746 0.72268 0.0
H211 H 0.78193 0.5674 0.75827 0.0
H212 H 0.73205 0.51816 0.95525 0.0
H213 H 0.67579 0.5262 0.9209 0.0
H214 H 0.79783 0.57358 -0.00262 0.0
H215 H 0.74727 0.45895 0.7955 0.0
H216 H 0.72154 0.41984 0.66646 0.0
H217 H 0.82256 0.49057 0.5731 0.0
H218 H 0.84866 0.53068 0.70139 0.0
H219 H 0.94675 0.52485 0.10452 0.0
H220 H 0.88427 0.51443 0.05753 0.0
H221 H 0.93069 0.57641 0.87101 0.0
H222 H 0.99284 0.58669 0.91744 0.0
H223 H 0.86498 0.50947 0.82486 0.0
H224 H 0.912 0.62728 0.02985 0.0
H225 H 0.93769 0.66218 0.16135 0.0
H226 H 0.84105 0.57947 0.25029 0.0
H227 H 0.81502 0.54375 0.11926 0.0
C228 C 0.72617 0.56194 0.77314 0.0
C229 C 0.69609 0.55117 0.81923 0.0
C230 C 0.75863 0.55759 0.79327 0.0
C231 C 0.76134 0.54198 0.85937 0.0
C232 C 0.73082 0.53038 0.90422 0.0
C233 C 0.69861 0.53495 0.88443 0.0
C234 C 0.79662 0.54011 0.8848 0.0
C235 C 0.81207 0.5589 0.95977 0.0
C236 C 0.81575 0.52155 0.83576 0.0
C237 C 0.79976 0.4982 0.7581 0.0
C238 C 0.76384 0.46656 0.74737 0.0
C239 C 0.74921 0.44412 0.67434 0.0
C240 C 0.77036 0.45279 0.61159 0.0
C241 C 0.80617 0.48394 0.62173 0.0
C242 C 0.82088 0.50656 0.6946 0.0
C243 C 0.94346 0.53589 0.05318 0.0
C244 C 0.97459 0.55704 0.01516 0.0
C245 C 0.90784 0.53 0.02643 0.0
C246 C 0.90285 0.54513 0.96124 0.0
C247 C 0.93383 0.56461 0.92147 0.0
C248 C 0.96935 0.57071 0.9484 0.0
C249 C 0.8659 0.54303 0.93678 0.0
C250 C 0.85034 0.52374 0.86218 0.0
C251 C 0.84639 0.56072 -0.01379 0.0
C252 C 0.86175 0.58262 0.06486 0.0
C253 C 0.89634 0.6164 0.07749 0.0
C254 C 0.91095 0.63634 0.15192 0.0
C255 C 0.89106 0.62298 0.21415 0.0
C256 C 0.85645 0.58975 0.20204 0.0
C257 C 0.84175 0.56967 0.12772 0.0
H258 H 0.90244 0.63842 0.27173 0.0
H259 H 0.75903 0.4353 0.55514 0.0
H260 H 0.41028 0.98338 0.44249 0.0
H261 H 0.3521 0.92962 0.37953 0.0
H262 H 0.3823 0.83856 0.45161 0.0
H263 H 0.44051 0.89243 0.51569 0.0
H264 H 0.36483 0.82694 0.29238 0.0
H265 H 0.31357 0.85445 0.52946 0.0
H266 H 0.30001 0.89805 0.63551 0.0
H267 H 0.24051 0.93235 0.4774 0.0
H268 H 0.25417 0.88938 0.3702 0.0
H269 H 0.19717 0.64786 0.21464 0.0
H270 H 0.24969 0.70811 0.28212 0.0
H271 H 0.21691 0.78563 0.16812 0.0
H272 H 0.16319 0.72525 0.10188 0.0
H273 H 0.23551 0.80804 0.34014 0.0
H274 H 0.28218 0.77827 0.10442 0.0
H275 H 0.29871 0.73994 -0.00567 0.0
H276 H 0.37009 0.7154 0.14264 0.0
H277 H 0.35313 0.75251 0.25412 0.0
C278 C 0.40415 0.95193 0.44615 0.0
C279 C 0.42978 0.9419 0.48369 0.0
C280 C 0.37091 0.92132 0.41035 0.0
C281 C 0.36296 0.88021 0.41103 0.0
C282 C 0.38799 0.87019 0.45068 0.0
C283 C 0.42107 0.90089 0.48742 0.0
C284 C 0.3302 0.84764 0.36478 0.0
C285 C 0.33647 0.82222 0.30348 0.0
C286 C 0.29348 0.8432 0.3773 0.0
C287 C 0.28524 0.86903 0.4417 0.0
C288 C 0.2979 0.8716 0.5172 0.0
C289 C 0.29013 0.89613 0.57755 0.0
C290 C 0.2695 0.91805 0.56318 0.0
C291 C 0.25653 0.9154 0.48844 0.0
C292 C 0.26425 0.89093 0.42787 0.0
C293 C 0.20154 0.67767 0.20281 0.0
C294 C 0.17697 0.68196 0.15131 0.0
C295 C 0.2315 0.71193 0.24131 0.0
C296 C 0.23781 0.75093 0.22799 0.0
C297 C 0.21281 0.75556 0.17791 0.0
C298 C 0.18242 0.7212 0.13992 0.0
C299 C 0.27012 0.78655 0.26883 0.0
C300 C 0.26383 0.81265 0.32896 0.0
C301 C 0.30697 0.79193 0.2547 0.0
C302 C 0.31574 0.76761 0.18813 0.0
C303 C 0.30076 0.76398 0.11399 0.0
C304 C 0.31042 0.74267 0.05115 0.0
C305 C 0.3354 0.72519 0.06147 0.0
C306 C 0.35079 0.72901 0.13468 0.0
C307 C 0.34106 0.75009 0.19776 0.0
H308 H 0.34283 0.7087 0.01276 0.0
H309 H 0.26351 0.93702 0.60998 0.0
H310 H 0.59932 0.49194 0.74182 0.0
H311 H 0.61616 0.4337 0.71078 0.0
H312 H 0.50981 0.35488 0.77595 0.0
H313 H 0.4931 0.41332 0.80716 0.0
H314 H 0.575 0.34259 0.82977 0.0
H315 H 0.51778 0.35947 0.59843 0.0
H316 H 0.51731 0.40217 0.50437 0.0
H317 H 0.62672 0.41496 0.44744 0.0
H318 H 0.62812 0.37299 0.54235 0.0
H319 H 0.5161 0.1408 0.67419 0.0
H320 H 0.5259 0.21151 0.71067 0.0
H321 H 0.61646 0.24701 0.5647 0.0
H322 H 0.60492 0.17455 0.52357 0.0
H323 H 0.57753 0.29077 0.55472 0.0
H324 H 0.63317 0.26596 0.76328 0.0
H325 H 0.64069 0.22912 0.86227 0.0
H326 H 0.546 0.238 0.96806 0.0
H327 H 0.53749 0.27432 0.86904 0.0
C328 C 0.58012 0.46259 0.75193 0.0
C329 C 0.54526 0.45738 0.77835 0.0
C330 C 0.58955 0.42916 0.73322 0.0
C331 C 0.56424 0.38995 0.74114 0.0
C332 C 0.52983 0.38492 0.76979 0.0
C333 C 0.52026 0.41824 0.78734 0.0
C334 C 0.57222 0.35352 0.71533 0.0
C335 C 0.57551 0.33111 0.76973 0.0
C336 C 0.57482 0.33982 0.63728 0.0
C337 C 0.57317 0.36339 0.57787 0.0
C338 C 0.54179 0.37152 0.56605 0.0
C339 C 0.54136 0.39561 0.51264 0.0
C340 C 0.57199 0.41133 0.47006 0.0
C341 C 0.60303 0.4028 0.48052 0.0
C342 C 0.60365 0.37885 0.53408 0.0
C343 C 0.53824 0.16345 0.64961 0.0
C344 C 0.56029 0.152 0.59713 0.0
C345 C 0.54405 0.20417 0.67121 0.0
C346 C 0.57274 0.23505 0.64264 0.0
C347 C 0.59451 0.22386 0.58865 0.0
C348 C 0.58823 0.18253 0.5658 0.0
C349 C 0.57852 0.27845 0.66911 0.0
C350 C 0.57789 0.30239 0.615 0.0
C351 C 0.57947 0.29425 0.74791 0.0
C352 C 0.58464 0.27281 0.80843 0.0
C353 C 0.61382 0.2599 0.80741 0.0
C354 C 0.61827 0.23909 0.86356 0.0
C355 C 0.59383 0.2312 0.92138 0.0
C356 C 0.56493 0.24417 0.92327 0.0
C357 C 0.56033 0.26494 0.8672 0.0
H358 H 0.59729 0.21506 0.96477 0.0
H359 H 0.57165 0.43007 0.4289 0.0
H360 H 0.97486 0.48169 0.87294 0.0
H361 H 0.95982 0.50235 0.75842 0.0
H362 H 0.07668 0.56384 0.72849 0.0
H363 H 0.09215 0.54412 0.84422 0.0
H364 H 1.03938 0.61416 0.73115 0.0
H365 H 1.0207 0.47469 0.6159 0.0
H366 H 0.99045 0.39951 0.59787 0.0
H367 H 0.88462 0.40246 0.55369 0.0
H368 H 0.91393 0.4774 0.57341 0.0
H369 H 0.08988 0.61623 0.36938 0.0
H370 H 0.07342 0.62518 0.50078 0.0
H371 H 0.95711 0.57336 0.42188 0.0
H372 H 0.97368 0.56259 0.29055 0.0
H373 H 0.97063 0.52432 0.49071 0.0
H374 H 0.99376 0.66144 0.56299 0.0
H375 H 1.02392 0.73607 0.57186 0.0
H376 H 0.12093 0.73998 0.68928 0.0
H377 H 0.09172 0.66532 0.68012 0.0
C378 C 0.99743 0.49837 0.84065 0.0
C379 C 1.03478 0.51184 0.86806 0.0
C380 C 0.9887 0.51051 0.77568 0.0
C381 C 1.0172 0.53533 0.73652 0.0
C382 C 0.0544 0.54538 0.7594 0.0
C383 C 0.06317 0.53362 0.82472 0.0
C384 C 1.00876 0.5522 0.67301 0.0
C385 C 1.02448 0.59479 0.67811 0.0
C386 C 0.98705 0.5268 0.60649 0.0
C387 C 0.9694 0.48168 0.59748 0.0
C388 C 0.99086 0.45927 0.60361 0.0
C389 C 0.97385 0.41664 0.59293 0.0
C390 C 0.9355 0.39609 0.57519 0.0
C391 C 0.91415 0.41819 0.56813 0.0
C392 C 0.93093 0.46076 0.57916 0.0
C393 C 0.06099 0.60832 0.38021 0.0
C394 C 1.03287 0.58733 0.32145 0.0
C395 C 0.05151 0.614 0.45521 0.0
C396 C 1.01388 0.59922 0.47122 0.0
C397 C 0.98622 0.58451 0.41074 0.0
C398 C 0.99565 0.57789 0.33609 0.0
C399 C 1.00422 0.58651 0.5456 0.0
C400 C 0.98454 0.54441 0.54392 0.0
C401 C 1.0224 0.61245 0.61487 0.0
C402 C 1.0404 0.65757 0.62092 0.0
C403 C 1.02161 0.67812 0.59036 0.0
C404 C 1.03855 0.72049 0.59549 0.0
C405 C 0.0743 0.74276 0.63117 0.0
C406 C 0.09319 0.7227 0.66183 0.0
C407 C 0.07639 0.68033 0.65687 0.0
H408 H 0.08737 0.77555 0.63504 0.0
H409 H 0.92237 0.36309 0.56649 0.0
H410 H 0.53033 0.99904 0.27339 0.0
H411 H 0.5423 0.97409 0.14503 0.0
H412 H 0.65064 0.98838 0.22954 0.0
H413 H 0.63929 1.0154 0.35713 0.0
H414 H 0.65854 1.03498 0.13541 0.0
H415 H 0.59109 0.89628 0.11323 0.0
H416 H 0.54123 0.832 0.13431 0.0
H417 H 0.46268 0.85416 0.00144 0.0
H418 H 0.51166 0.9191 -0.01889 0.0
H419 H 0.64865 0.07886 0.76235 0.0
H420 H 0.66141 0.04668 0.86179 0.0
H421 H 0.54714 1.00735 0.9184 0.0
H422 H 0.53342 1.03569 0.81273 0.0
H423 H 0.56742 0.94768 0.91884 0.0
H424 H 0.62906 0.09855 0.02198 0.0
H425 H 0.67619 0.16731 0.01383 0.0
H426 H 0.76162 0.12226 0.0044 0.0
H427 H 0.7149 0.05321 0.01194 0.0
C428 C 0.55634 0.9961 0.26439 0.0
C429 C 0.58457 1.01072 0.32328 0.0
C430 C 0.56294 0.98094 0.19154 0.0
C431 C 0.5975 0.97934 0.17762 0.0
C432 C 0.62392 0.98949 0.23897 0.0
C433 C 0.61769 1.00564 0.31122 0.0
C434 C 0.60934 0.97936 0.0992 0.0
C435 C 0.63931 1.0149 0.08756 0.0
C436 C 0.58505 0.95278 0.03637 0.0
C437 C 0.55535 0.91277 0.0454 0.0
C438 C 0.56319 0.8876 0.0886 0.0
C439 C 0.53499 0.85108 0.10074 0.0
C440 C 0.49879 0.83913 0.06957 0.0
C441 C 0.49075 0.86352 0.02565 0.0
C442 C 0.5188 0.90018 0.01361 0.0
C443 C 0.62643 0.06415 0.79717 0.0
C444 C 0.59006 0.05993 0.78064 0.0
C445 C 0.63374 0.04543 0.85357 0.0
C446 C 0.60526 1.02447 0.89742 0.0
C447 C 0.56943 1.0227 0.8842 0.0
C448 C 0.56175 0.03978 0.82541 0.0
C449 C 0.61251 1.00606 0.96011 0.0
C450 C 0.58725 0.9665 0.96664 0.0
C451 C 0.64059 1.02925 0.01931 0.0
C452 C 0.66856 0.07081 0.01637 0.0
C453 C 0.65791 0.1034 0.018 0.0
C454 C 0.6845 0.14234 0.01347 0.0
C455 C 0.7218 0.14902 0.00812 0.0
C456 C 0.73268 0.11694 0.00817 0.0
C457 C 0.70619 0.07793 0.01257 0.0
H458 H 0.74227 0.17899 0.00378 0.0
H459 H 0.477 0.81082 0.07903 0.0
H460 H 0.59366 0.52084 0.53683 0.0
H461 H 0.59474 0.52995 0.4047 0.0
H462 H 0.48159 0.51871 0.40537 0.0
H463 H 0.48065 0.51105 0.53915 0.0
H464 H 0.5606 0.50574 0.26131 0.0
H465 H 0.48251 0.60645 0.34642 0.0
H466 H 0.45857 0.63307 0.46108 0.0
H467 H 0.54668 0.63187 0.6013 0.0
H468 H 0.57249 0.60827 0.48821 0.0
H469 H 0.52781 0.6308 0.01208 0.0
H470 H 0.52298 0.62137 0.14392 0.0
H471 H 0.63372 0.62535 0.1534 0.0
H472 H 0.63846 0.63337 0.02027 0.0
H473 H 0.55191 0.63979 0.28842 0.0
H474 H 0.62905 0.53918 0.18473 0.0
H475 H 0.64434 0.50763 0.0632 0.0
H476 H 0.54492 0.50052 0.95023 0.0
H477 H 0.52959 0.53267 0.07018 0.0
C478 C 0.56848 0.51878 0.50832 0.0
C479 C 0.5378 0.51768 0.5492 0.0
C480 C 0.56907 0.5237 0.4324 0.0
C481 C 0.53886 0.52701 0.39711 0.0
C482 C 0.50558 0.51756 0.43304 0.0
C483 C 0.50516 0.51335 0.50948 0.0
C484 C 0.54565 0.5496 0.33337 0.0
C485 C 0.55884 0.53507 0.26735 0.0
C486 C 0.54264 0.5876 0.34077 0.0
C487 C 0.529 0.60486 0.40905 0.0
C488 C 0.49705 0.61255 0.40191 0.0
C489 C 0.48331 0.62745 0.46672 0.0
C490 C 0.50122 0.63454 0.53888 0.0
C491 C 0.53315 0.62727 0.54596 0.0
C492 C 0.54749 0.61333 0.48144 0.0
C493 C 0.55189 0.63158 0.04297 0.0
C494 C 0.58246 0.62979 0.00475 0.0
C495 C 0.54908 0.62633 0.11865 0.0
C496 C 0.5772 0.62032 0.15607 0.0
C497 C 0.61122 0.62839 0.12366 0.0
C498 C 0.61388 0.63308 0.04759 0.0
C499 C 0.5675 0.59626 0.21745 0.0
C500 C 0.55369 0.61047 0.28261 0.0
C501 C 0.56896 0.55752 0.20841 0.0
C502 C 0.57837 0.53852 0.13608 0.0
C503 C 0.61059 0.53094 0.13372 0.0
C504 C 0.61934 0.51314 0.06501 0.0
C505 C 0.59577 0.50234 -0.00128 0.0
C506 C 0.56344 0.50934 0.00106 0.0
C507 C 0.55477 0.52746 0.06931 0.0
H508 H 0.60244 0.48836 0.94566 0.0
H509 H 0.49033 0.64551 0.58923 0.0
loop_
_geom_bond_atom_site_label_1
_geom_bond_atom_site_label_2
_geom_bond_distance
_geom_bond_site_symmetry_2
_ccdc_geom_bond_type
Tb0 O3 2.453 1_455 S
Tb0 O4 2.596 1_455 S
Tb0 O5 2.374 . S
Tb0 O13 2.343 . S
Tb0 O15 2.353 . S
Tb0 O17 2.427 . S
Tb0 O18 2.513 . S
C1 O5 1.251 . S
C1 O7 1.263 . S
Tb2 O4 2.343 . S
Tb2 O7 2.353 1_655 S
Tb2 O10 2.427 . S
Tb2 O11 2.513 . S
Tb2 O12 2.453 1_655 S
Tb2 O13 2.596 1_655 S
Tb2 O14 2.374 . S
O3 Tb0 2.453 1_655 S
O3 C19 1.245 . S
O4 Tb0 2.596 1_655 S
O4 Tb2 2.343 . S
O4 C19 1.259 . S
O5 Tb0 2.374 . S
O5 C1 1.251 . S
C6 O10 1.275 . S
C6 O11 1.246 . S
O7 C1 1.263 . S
O7 Tb2 2.353 1_455 S
C8 O12 1.245 . S
C8 O13 1.259 . S
C9 O14 1.248 1_456 S
C9 O15 1.261 1_556 S
O10 Tb2 2.427 . S
O10 C6 1.275 . S
O11 Tb2 2.513 . S
O11 C6 1.246 . S
O12 Tb2 2.453 1_455 S
O12 C8 1.245 . S
O13 Tb0 2.343 . S
O13 Tb2 2.596 1_455 S
O13 C8 1.259 . S
O14 Tb2 2.374 . S
O14 C9 1.248 1_654 S
O15 Tb0 2.353 . S
O15 C9 1.261 1_554 S
C16 O17 1.275 . S
C16 O18 1.246 . S
O17 Tb0 2.427 . S
O17 C16 1.275 . S
O18 Tb0 2.513 . S
O18 C16 1.246 . S
C19 O3 1.245 . S
C19 O4 1.259 . S
Tb20 O23 2.453 1_565 S
Tb20 O24 2.596 1_565 S
Tb20 O25 2.374 . S
Tb20 O33 2.343 . S
Tb20 O35 2.353 1_565 S
Tb20 O37 2.427 . S
Tb20 O38 2.513 . S
C21 O25 1.251 1_545 S
C21 O27 1.263 . S
Tb22 O24 2.343 . S
Tb22 O27 2.353 . S
Tb22 O30 2.427 . S
Tb22 O31 2.513 . S
Tb22 O32 2.453 1_545 S
Tb22 O33 2.596 1_545 S
Tb22 O34 2.374 . S
O23 Tb20 2.453 1_545 S
O23 C39 1.245 . S
O24 Tb20 2.596 1_545 S
O24 Tb22 2.343 . S
O24 C39 1.259 . S
O25 Tb20 2.374 . S
O25 C21 1.251 1_565 S
C26 O30 1.275 . S
C26 O31 1.246 . S
O27 C21 1.263 . S
O27 Tb22 2.353 . S
C28 O32 1.245 . S
C28 O33 1.259 . S
C29 O34 1.250 . S
C29 O35 1.263 . S
O30 Tb22 2.427 . S
O30 C26 1.275 . S
O31 Tb22 2.513 . S
O31 C26 1.246 . S
O32 Tb22 2.453 1_565 S
O32 C28 1.245 . S
O33 Tb20 2.343 . S
O33 Tb22 2.596 1_565 S
O33 C28 1.259 . S
O34 Tb22 2.374 . S
O34 C29 1.250 . S
O35 Tb20 2.353 1_545 S
O35 C29 1.263 . S
C36 O37 1.275 . S
C36 O38 1.246 . S
O37 Tb20 2.427 . S
O37 C36 1.275 . S
O38 Tb20 2.513 . S
O38 C36 1.246 . S
C39 O23 1.245 . S
C39 O24 1.259 . S
Tb40 O43 2.453 . S
Tb40 O44 2.596 . S
Tb40 O45 2.374 . S
Tb40 O53 2.343 . S
Tb40 O55 2.353 . S
Tb40 O57 2.427 . S
Tb40 O58 2.513 . S
C41 O45 1.251 . S
C41 O47 1.263 . S
Tb42 O44 2.343 . S
Tb42 O47 2.353 . S
Tb42 O50 2.427 . S
Tb42 O51 2.513 . S
Tb42 O52 2.453 . S
Tb42 O53 2.596 . S
Tb42 O54 2.374 . S
O43 Tb40 2.453 . S
O43 C59 1.245 . S
O44 Tb40 2.596 . S
O44 Tb42 2.343 . S
O44 C59 1.259 . S
O45 Tb40 2.374 . S
O45 C41 1.251 . S
C46 O50 1.275 . S
C46 O51 1.246 . S
O47 C41 1.263 . S
O47 Tb42 2.353 . S
C48 O52 1.245 . S
C48 O53 1.259 . S
C49 O54 1.250 . S
C49 O55 1.263 . S
O50 Tb42 2.427 . S
O50 C46 1.275 . S
O51 Tb42 2.513 . S
O51 C46 1.246 . S
O52 Tb42 2.453 . S
O52 C48 1.245 . S
O53 Tb40 2.343 . S
O53 Tb42 2.596 . S
O53 C48 1.259 . S
O54 Tb42 2.374 . S
O54 C49 1.250 . S
O55 Tb40 2.353 . S
O55 C49 1.263 . S
C56 O57 1.275 . S
C56 O58 1.246 . S
O57 Tb40 2.427 . S
O57 C56 1.275 . S
O58 Tb40 2.513 . S
O58 C56 1.246 . S
C59 O43 1.245 . S
C59 O44 1.259 . S
H60 C78 0.951 . S
H61 C80 0.951 . S
H62 C82 0.950 . S
H63 C83 0.950 1_556 S
H64 C85 0.950 . S
H65 C88 0.950 . S
H66 C89 0.950 . S
H67 C91 0.950 . S
H68 C92 0.950 . S
H69 C93 0.951 . S
H70 C95 0.951 . S
H71 C97 0.950 1_554 S
H72 C98 0.950 . S
H73 C100 0.950 . S
H74 C103 0.950 . S
H75 C104 0.950 . S
H76 C106 0.950 . S
H77 C107 0.950 . S
C78 H60 0.951 . S
C78 C79 1.366 . S
C78 C80 1.388 . S
C79 C78 1.366 . S
C79 C83 1.385 . S
C80 H61 0.951 . S
C80 C78 1.388 . S
C80 C81 1.366 . S
C81 C80 1.366 . S
C81 C82 1.414 1_554 S
C81 C84 1.499 . S
C82 H62 0.950 . S
C82 C81 1.414 1_556 S
C82 C83 1.374 1_556 S
C83 H63 0.950 1_554 S
C83 C79 1.385 . S
C83 C82 1.374 1_554 S
C84 C81 1.499 . S
C84 C85 1.373 1_554 S
C84 C86 1.389 . S
C85 H64 0.950 . S
C85 C84 1.373 1_556 S
C85 C101 1.377 . S
C86 C84 1.389 . S
C86 C87 1.524 . S
C86 C100 1.377 . S
C87 C86 1.524 . S
C87 C88 1.397 . S
C87 C92 1.363 . S
C88 H65 0.950 . S
C88 C87 1.397 . S
C88 C89 1.334 . S
C89 H66 0.950 . S
C89 C88 1.334 . S
C89 C90 1.287 . S
C90 C89 1.287 . S
C90 C91 1.524 . S
C90 H109 0.913 . S
C91 H67 0.950 . S
C91 C90 1.524 . S
C91 C92 1.415 . S
C92 H68 0.950 . S
C92 C87 1.363 . S
C92 C91 1.415 . S
C93 H69 0.951 . S
C93 C94 1.366 . S
C93 C95 1.388 . S
C94 C93 1.366 . S
C94 C98 1.385 . S
C95 H70 0.951 . S
C95 C93 1.388 . S
C95 C96 1.366 . S
C96 C95 1.366 . S
C96 C97 1.414 . S
C96 C99 1.499 . S
C97 H71 0.950 1_556 S
C97 C96 1.414 . S
C97 C98 1.374 . S
C98 H72 0.950 . S
C98 C94 1.385 . S
C98 C97 1.374 . S
C99 C96 1.499 . S
C99 C100 1.373 1_556 S
C99 C101 1.389 . S
C100 H73 0.950 . S
C100 C86 1.377 . S
C100 C99 1.373 1_554 S
C101 C85 1.377 . S
C101 C99 1.389 . S
C101 C102 1.524 . S
C102 C101 1.524 . S
C102 C103 1.397 . S
C102 C107 1.363 . S
C103 H74 0.950 . S
C103 C102 1.397 . S
C103 C104 1.334 . S
C104 H75 0.950 . S
C104 C103 1.334 . S
C104 C105 1.287 . S
C105 C104 1.287 . S
C105 C106 1.524 . S
C105 H108 0.999 . S
C106 H76 0.950 . S
C106 C105 1.524 . S
C106 C107 1.415 . S
C107 H77 0.950 . S
C107 C102 1.363 . S
C107 C106 1.415 . S
H108 C105 0.999 . S
H109 C90 0.913 . S
H110 C128 0.951 . S
H111 C130 0.951 . S
H112 C132 0.950 . S
H113 C133 0.950 . S
H114 C135 0.950 . S
H115 C138 0.950 . S
H116 C139 0.950 . S
H117 C141 0.950 . S
H118 C142 0.950 . S
H119 C143 0.951 . S
H120 C145 0.951 . S
H121 C147 0.950 . S
H122 C148 0.950 . S
H123 C150 0.950 . S
H124 C153 0.950 . S
H125 C154 0.950 . S
H126 C156 0.950 . S
H127 C157 0.950 . S
C128 H110 0.951 . S
C128 C129 1.366 . S
C128 C130 1.388 . S
C129 C128 1.366 . S
C129 C133 1.385 . S
C130 H111 0.951 . S
C130 C128 1.388 . S
C130 C131 1.366 . S
C131 C130 1.366 . S
C131 C132 1.414 . S
C131 C134 1.499 . S
C132 H112 0.950 . S
C132 C131 1.414 . S
C132 C133 1.374 . S
C133 H113 0.950 . S
C133 C129 1.385 . S
C133 C132 1.374 . S
C134 C131 1.499 . S
C134 C135 1.373 . S
C134 C136 1.389 . S
C135 H114 0.950 . S
C135 C134 1.373 . S
C135 C151 1.377 . S
C136 C134 1.389 . S
C136 C137 1.524 . S
C136 C150 1.377 . S
C137 C136 1.524 . S
C137 C138 1.397 . S
C137 C142 1.363 . S
C138 H115 0.950 . S
C138 C137 1.397 . S
C138 C139 1.334 . S
C139 H116 0.950 . S
C139 C138 1.334 . S
C139 C140 1.287 . S
C140 C139 1.287 . S
C140 C141 1.524 . S
C140 H159 0.913 . S
C141 H117 0.950 . S
C141 C140 1.524 . S
C141 C142 1.415 . S
C142 H118 0.950 . S
C142 C137 1.363 . S
C142 C141 1.415 . S
C143 H119 0.951 . S
C143 C144 1.366 . S
C143 C145 1.388 . S
C144 C143 1.366 . S
C144 C148 1.385 . S
C145 H120 0.951 . S
C145 C143 1.388 . S
C145 C146 1.366 . S
C146 C145 1.366 . S
C146 C147 1.414 . S
C146 C149 1.499 . S
C147 H121 0.950 . S
C147 C146 1.414 . S
C147 C148 1.374 . S
C148 H122 0.950 . S
C148 C144 1.385 . S
C148 C147 1.374 . S
C149 C146 1.499 . S
C149 C150 1.373 . S
C149 C151 1.389 . S
C150 H123 0.950 . S
C150 C136 1.377 . S
C150 C149 1.373 . S
C151 C135 1.377 . S
C151 C149 1.389 . S
C151 C152 1.524 . S
C152 C151 1.524 . S
C152 C153 1.397 . S
C152 C157 1.363 . S
C153 H124 0.950 . S
C153 C152 1.397 . S
C153 C154 1.334 . S
C154 H125 0.950 . S
C154 C153 1.334 . S
C154 C155 1.287 . S
C155 C154 1.287 . S
C155 C156 1.524 . S
C155 H158 0.999 . S
C156 H126 0.950 . S
C156 C155 1.524 . S
C156 C157 1.415 . S
C157 H127 0.950 . S
C157 C152 1.363 . S
C157 C156 1.415 . S
H158 C155 0.999 . S
H159 C140 0.913 . S
H160 C178 0.951 . S
H161 C180 0.951 . S
H162 C182 0.950 . S
H163 C183 0.950 . S
H164 C185 0.950 . S
H165 C188 0.950 . S
H166 C189 0.950 . S
H167 C191 0.950 . S
H168 C192 0.950 . S
H169 C193 0.951 . S
H170 C195 0.951 . S
H171 C197 0.950 . S
H172 C198 0.950 . S
H173 C200 0.950 . S
H174 C203 0.950 . S
H175 C204 0.950 . S
H176 C206 0.950 . S
H177 C207 0.950 . S
C178 H160 0.951 . S
C178 C179 1.366 . S
C178 C180 1.388 . S
C179 C178 1.366 . S
C179 C183 1.385 . S
C180 H161 0.951 . S
C180 C178 1.388 . S
C180 C181 1.366 . S
C181 C180 1.366 . S
C181 C182 1.414 . S
C181 C184 1.499 . S
C182 H162 0.950 . S
C182 C181 1.414 . S
C182 C183 1.374 . S
C183 H163 0.950 . S
C183 C179 1.385 . S
C183 C182 1.374 . S
C184 C181 1.499 . S
C184 C185 1.373 . S
C184 C186 1.389 . S
C185 H164 0.950 . S
C185 C184 1.373 . S
C185 C201 1.377 . S
C186 C184 1.389 . S
C186 C187 1.524 . S
C186 C200 1.377 . S
C187 C186 1.524 . S
C187 C188 1.397 . S
C187 C192 1.363 . S
C188 H165 0.950 . S
C188 C187 1.397 . S
C188 C189 1.334 . S
C189 H166 0.950 . S
C189 C188 1.334 . S
C189 C190 1.287 . S
C190 C189 1.287 . S
C190 C191 1.524 . S
C190 H209 0.913 . S
C191 H167 0.950 . S
C191 C190 1.524 . S
C191 C192 1.415 . S
C192 H168 0.950 . S
C192 C187 1.363 . S
C192 C191 1.415 . S
C193 H169 0.951 . S
C193 C194 1.366 . S
C193 C195 1.388 . S
C194 C193 1.366 . S
C194 C198 1.385 . S
C195 H170 0.951 . S
C195 C193 1.388 . S
C195 C196 1.366 . S
C196 C195 1.366 . S
C196 C197 1.414 . S
C196 C199 1.499 . S
C197 H171 0.950 . S
C197 C196 1.414 . S
C197 C198 1.374 . S
C198 H172 0.950 . S
C198 C194 1.385 . S
C198 C197 1.374 . S
C199 C196 1.499 . S
C199 C200 1.373 . S
C199 C201 1.389 . S
C200 H173 0.950 . S
C200 C186 1.377 . S
C200 C199 1.373 . S
C201 C185 1.377 . S
C201 C199 1.389 . S
C201 C202 1.524 . S
C202 C201 1.524 . S
C202 C203 1.397 . S
C202 C207 1.363 . S
C203 H174 0.950 . S
C203 C202 1.397 . S
C203 C204 1.334 . S
C204 H175 0.950 . S
C204 C203 1.334 . S
C204 C205 1.287 . S
C205 C204 1.287 . S
C205 C206 1.524 . S
C205 H208 0.999 . S
C206 H176 0.950 . S
C206 C205 1.524 . S
C206 C207 1.415 . S
C207 H177 0.950 . S
C207 C202 1.363 . S
C207 C206 1.415 . S
H208 C205 0.999 . S
H209 C190 0.913 . S
H210 C228 0.951 . S
H211 C230 0.951 . S
H212 C232 0.950 . S
H213 C233 0.950 . S
H214 C235 0.950 . S
H215 C238 0.950 . S
H216 C239 0.950 . S
H217 C241 0.950 . S
H218 C242 0.950 . S
H219 C243 0.951 . S
H220 C245 0.951 . S
H221 C247 0.950 . S
H222 C248 0.950 . S
H223 C250 0.950 . S
H224 C253 0.950 . S
H225 C254 0.950 . S
H226 C256 0.950 . S
H227 C257 0.950 . S
C228 H210 0.951 . S
C228 C229 1.366 . S
C228 C230 1.388 . S
C229 C228 1.366 . S
C229 C233 1.385 . S
C230 H211 0.951 . S
C230 C228 1.388 . S
C230 C231 1.366 . S
C231 C230 1.366 . S
C231 C232 1.414 . S
C231 C234 1.499 . S
C232 H212 0.950 . S
C232 C231 1.414 . S
C232 C233 1.374 . S
C233 H213 0.950 . S
C233 C229 1.385 . S
C233 C232 1.374 . S
C234 C231 1.499 . S
C234 C235 1.373 1_556 S
C234 C236 1.389 . S
C235 H214 0.950 . S
C235 C234 1.373 1_554 S
C235 C251 1.377 . S
C236 C234 1.389 . S
C236 C237 1.524 . S
C236 C250 1.377 . S
C237 C236 1.524 . S
C237 C238 1.397 . S
C237 C242 1.363 . S
C238 H215 0.950 . S
C238 C237 1.397 . S
C238 C239 1.334 . S
C239 H216 0.950 . S
C239 C238 1.334 . S
C239 C240 1.287 . S
C240 C239 1.287 . S
C240 C241 1.524 . S
C240 H259 0.913 . S
C241 H217 0.950 . S
C241 C240 1.524 . S
C241 C242 1.415 . S
C242 H218 0.950 . S
C242 C237 1.363 . S
C242 C241 1.415 . S
C243 H219 0.951 . S
C243 C244 1.366 . S
C243 C245 1.388 . S
C244 C243 1.366 . S
C244 C248 1.385 . S
C245 H220 0.951 . S
C245 C243 1.388 . S
C245 C246 1.366 . S
C246 C245 1.366 . S
C246 C247 1.414 . S
C246 C249 1.499 . S
C247 H221 0.950 . S
C247 C246 1.414 . S
C247 C248 1.374 . S
C248 H222 0.950 . S
C248 C244 1.385 . S
C248 C247 1.374 . S
C249 C246 1.499 . S
C249 C250 1.373 1_554 S
C249 C251 1.389 . S
C250 H223 0.950 . S
C250 C236 1.377 . S
C250 C249 1.373 1_556 S
C251 C235 1.377 . S
C251 C249 1.389 . S
C251 C252 1.524 . S
C252 C251 1.524 . S
C252 C253 1.397 . S
C252 C257 1.363 . S
C253 H224 0.950 . S
C253 C252 1.397 . S
C253 C254 1.334 . S
C254 H225 0.950 . S
C254 C253 1.334 . S
C254 C255 1.287 . S
C255 C254 1.287 . S
C255 C256 1.524 . S
C255 H258 0.999 . S
C256 H226 0.950 . S
C256 C255 1.524 . S
C256 C257 1.415 . S
C257 H227 0.950 . S
C257 C252 1.363 . S
C257 C256 1.415 . S
H258 C255 0.999 . S
H259 C240 0.913 . S
H260 C278 0.951 . S
H261 C280 0.951 . S
H262 C282 0.950 . S
H263 C283 0.950 . S
H264 C285 0.950 . S
H265 C288 0.950 . S
H266 C289 0.950 . S
H267 C291 0.950 . S
H268 C292 0.950 . S
H269 C293 0.951 . S
H270 C295 0.951 . S
H271 C297 0.950 . S
H272 C298 0.950 . S
H273 C300 0.950 . S
H274 C303 0.950 . S
H275 C304 0.950 . S
H276 C306 0.950 . S
H277 C307 0.950 . S
C278 H260 0.951 . S
C278 C279 1.366 . S
C278 C280 1.388 . S
C279 C278 1.366 . S
C279 C283 1.385 . S
C280 H261 0.951 . S
C280 C278 1.388 . S
C280 C281 1.366 . S
C281 C280 1.366 . S
C281 C282 1.414 . S
C281 C284 1.499 . S
C282 H262 0.950 . S
C282 C281 1.414 . S
C282 C283 1.374 . S
C283 H263 0.950 . S
C283 C279 1.385 . S
C283 C282 1.374 . S
C284 C281 1.499 . S
C284 C285 1.373 . S
C284 C286 1.389 . S
C285 H264 0.950 . S
C285 C284 1.373 . S
C285 C301 1.377 . S
C286 C284 1.389 . S
C286 C287 1.524 . S
C286 C300 1.377 . S
C287 C286 1.524 . S
C287 C288 1.397 . S
C287 C292 1.363 . S
C288 H265 0.950 . S
C288 C287 1.397 . S
C288 C289 1.334 . S
C289 H266 0.950 . S
C289 C288 1.334 . S
C289 C290 1.287 . S
C290 C289 1.287 . S
C290 C291 1.524 . S
C290 H309 0.913 . S
C291 H267 0.950 . S
C291 C290 1.524 . S
C291 C292 1.415 . S
C292 H268 0.950 . S
C292 C287 1.363 . S
C292 C291 1.415 . S
C293 H269 0.951 . S
C293 C294 1.366 . S
C293 C295 1.388 . S
C294 C293 1.366 . S
C294 C298 1.385 . S
C295 H270 0.951 . S
C295 C293 1.388 . S
C295 C296 1.366 . S
C296 C295 1.366 . S
C296 C297 1.414 . S
C296 C299 1.499 . S
C297 H271 0.950 . S
C297 C296 1.414 . S
C297 C298 1.374 . S
C298 H272 0.950 . S
C298 C294 1.385 . S
C298 C297 1.374 . S
C299 C296 1.499 . S
C299 C300 1.373 . S
C299 C301 1.389 . S
C300 H273 0.950 . S
C300 C286 1.377 . S
C300 C299 1.373 . S
C301 C285 1.377 . S
C301 C299 1.389 . S
C301 C302 1.524 . S
C302 C301 1.524 . S
C302 C303 1.397 . S
C302 C307 1.363 . S
C303 H274 0.950 . S
C303 C302 1.397 . S
C303 C304 1.334 . S
C304 H275 0.950 . S
C304 C303 1.334 . S
C304 C305 1.287 . S
C305 C304 1.287 . S
C305 C306 1.524 . S
C305 H308 0.999 . S
C306 H276 0.950 . S
C306 C305 1.524 . S
C306 C307 1.415 . S
C307 H277 0.950 . S
C307 C302 1.363 . S
C307 C306 1.415 . S
H308 C305 0.999 . S
H309 C290 0.913 . S
H310 C328 0.951 . S
H311 C330 0.951 . S
H312 C332 0.950 . S
H313 C333 0.950 . S
H314 C335 0.950 . S
H315 C338 0.950 . S
H316 C339 0.950 . S
H317 C341 0.950 . S
H318 C342 0.950 . S
H319 C343 0.951 . S
H320 C345 0.951 . S
H321 C347 0.950 . S
H322 C348 0.950 . S
H323 C350 0.950 . S
H324 C353 0.950 . S
H325 C354 0.950 . S
H326 C356 0.950 . S
H327 C357 0.950 . S
C328 H310 0.951 . S
C328 C329 1.366 . S
C328 C330 1.388 . S
C329 C328 1.366 . S
C329 C333 1.385 . S
C330 H311 0.951 . S
C330 C328 1.388 . S
C330 C331 1.366 . S
C331 C330 1.366 . S
C331 C332 1.414 . S
C331 C334 1.499 . S
C332 H312 0.950 . S
C332 C331 1.414 . S
C332 C333 1.374 . S
C333 H313 0.950 . S
C333 C329 1.385 . S
C333 C332 1.374 . S
C334 C331 1.499 . S
C334 C335 1.373 . S
C334 C336 1.389 . S
C335 H314 0.950 . S
C335 C334 1.373 . S
C335 C351 1.377 . S
C336 C334 1.389 . S
C336 C337 1.524 . S
C336 C350 1.377 . S
C337 C336 1.524 . S
C337 C338 1.397 . S
C337 C342 1.363 . S
C338 H315 0.950 . S
C338 C337 1.397 . S
C338 C339 1.334 . S
C339 H316 0.950 . S
C339 C338 1.334 . S
C339 C340 1.287 . S
C340 C339 1.287 . S
C340 C341 1.524 . S
C340 H359 0.913 . S
C341 H317 0.950 . S
C341 C340 1.524 . S
C341 C342 1.415 . S
C342 H318 0.950 . S
C342 C337 1.363 . S
C342 C341 1.415 . S
C343 H319 0.951 . S
C343 C344 1.366 . S
C343 C345 1.388 . S
C344 C343 1.366 . S
C344 C348 1.385 . S
C345 H320 0.951 . S
C345 C343 1.388 . S
C345 C346 1.366 . S
C346 C345 1.366 . S
C346 C347 1.414 . S
C346 C349 1.499 . S
C347 H321 0.950 . S
C347 C346 1.414 . S
C347 C348 1.374 . S
C348 H322 0.950 . S
C348 C344 1.385 . S
C348 C347 1.374 . S
C349 C346 1.499 . S
C349 C350 1.373 . S
C349 C351 1.389 . S
C350 H323 0.950 . S
C350 C336 1.377 . S
C350 C349 1.373 . S
C351 C335 1.377 . S
C351 C349 1.389 . S
C351 C352 1.524 . S
C352 C351 1.524 . S
C352 C353 1.397 . S
C352 C357 1.363 . S
C353 H324 0.950 . S
C353 C352 1.397 . S
C353 C354 1.334 . S
C354 H325 0.950 . S
C354 C353 1.334 . S
C354 C355 1.287 . S
C355 C354 1.287 . S
C355 C356 1.524 . S
C355 H358 0.999 . S
C356 H326 0.950 . S
C356 C355 1.524 . S
C356 C357 1.415 . S
C357 H327 0.950 . S
C357 C352 1.363 . S
C357 C356 1.415 . S
H358 C355 0.999 . S
H359 C340 0.913 . S
H360 C378 0.951 . S
H361 C380 0.948 . S
H362 C382 0.950 . S
H363 C383 0.950 1_554 S
H364 C385 0.950 . S
H365 C388 0.950 . S
H366 C389 0.950 . S
H367 C391 0.950 . S
H368 C392 0.950 . S
H369 C393 0.951 . S
H370 C395 0.951 . S
H371 C397 0.950 . S
H372 C398 0.950 . S
H373 C400 0.950 . S
H374 C403 0.950 . S
H375 C404 0.950 . S
H376 C406 0.950 . S
H377 C407 0.950 . S
C378 H360 0.951 . S
C378 C379 1.366 . S
C378 C380 1.388 . S
C379 C378 1.366 . S
C379 C383 1.385 . S
C380 H361 0.948 . S
C380 C378 1.388 . S
C380 C381 1.366 . S
C381 C380 1.366 . S
C381 C382 1.414 . S
C381 C384 1.499 . S
C382 H362 0.950 . S
C382 C381 1.414 . S
C382 C383 1.374 . S
C383 H363 0.950 1_556 S
C383 C379 1.385 . S
C383 C382 1.374 . S
C384 C381 1.499 . S
C384 C385 1.373 1_455 S
C384 C386 1.389 . S
C385 H364 0.950 . S
C385 C384 1.373 1_655 S
C385 C401 1.377 . S
C386 C384 1.389 . S
C386 C387 1.524 . S
C386 C400 1.377 . S
C387 C386 1.524 . S
C387 C388 1.397 . S
C387 C392 1.363 . S
C388 H365 0.950 . S
C388 C387 1.397 . S
C388 C389 1.334 . S
C389 H366 0.950 . S
C389 C388 1.334 . S
C389 C390 1.287 . S
C390 C389 1.287 . S
C390 C391 1.524 . S
C390 H409 0.913 . S
C391 H367 0.950 . S
C391 C390 1.524 . S
C391 C392 1.415 . S
C392 H368 0.950 . S
C392 C387 1.363 . S
C392 C391 1.415 . S
C393 H369 0.951 . S
C393 C394 1.366 . S
C393 C395 1.388 . S
C394 C393 1.366 . S
C394 C398 1.385 1_455 S
C395 H370 0.951 . S
C395 C393 1.388 . S
C395 C396 1.366 . S
C396 C395 1.366 . S
C396 C397 1.414 1_455 S
C396 C399 1.499 . S
C397 H371 0.950 . S
C397 C396 1.414 1_655 S
C397 C398 1.374 . S
C398 H372 0.950 . S
C398 C394 1.385 1_655 S
C398 C397 1.374 . S
C399 C396 1.499 . S
C399 C400 1.373 . S
C399 C401 1.389 1_455 S
C400 H373 0.950 . S
C400 C386 1.377 . S
C400 C399 1.373 . S
C401 C385 1.377 . S
C401 C399 1.389 1_655 S
C401 C402 1.524 . S
C402 C401 1.524 . S
C402 C403 1.397 . S
C402 C407 1.363 . S
C403 H374 0.950 . S
C403 C402 1.397 . S
C403 C404 1.334 . S
C404 H375 0.950 . S
C404 C403 1.334 . S
C404 C405 1.287 . S
C405 C404 1.287 . S
C405 C406 1.524 . S
C405 H408 0.999 . S
C406 H376 0.950 . S
C406 C405 1.524 . S
C406 C407 1.415 . S
C407 H377 0.950 . S
C407 C402 1.363 . S
C407 C406 1.415 . S
H408 C405 0.999 . S
H409 C390 0.913 . S
H410 C428 0.951 . S
H411 C430 0.951 . S
H412 C432 0.950 . S
H413 C433 0.950 . S
H414 C435 0.953 . S
H415 C438 0.950 1_565 S
H416 C439 0.950 1_565 S
H417 C441 0.950 . S
H418 C442 0.950 . S
H419 C443 0.951 . S
H420 C445 0.951 . S
H421 C447 0.950 . S
H422 C448 0.950 . S
H423 C450 0.950 . S
H424 C453 0.950 . S
H425 C454 0.950 . S
H426 C456 0.950 . S
H427 C457 0.950 . S
C428 H410 0.951 . S
C428 C429 1.366 . S
C428 C430 1.388 . S
C429 C428 1.366 . S
C429 C433 1.385 1_545 S
C430 H411 0.951 . S
C430 C428 1.388 . S
C430 C431 1.366 . S
C431 C430 1.366 . S
C431 C432 1.414 1_545 S
C431 C434 1.499 . S
C432 H412 0.950 . S
C432 C431 1.414 1_565 S
C432 C433 1.374 . S
C433 H413 0.950 . S
C433 C429 1.385 1_565 S
C433 C432 1.374 . S
C434 C431 1.499 . S
C434 C435 1.372 1_545 S
C434 C436 1.389 . S
C435 H414 0.953 . S
C435 C434 1.372 1_565 S
C435 C451 1.376 1_564 S
C436 C434 1.389 . S
C436 C437 1.524 . S
C436 C450 1.377 1_554 S
C437 C436 1.524 . S
C437 C438 1.397 . S
C437 C442 1.363 . S
C438 H415 0.950 1_545 S
C438 C437 1.397 . S
C438 C439 1.334 . S
C439 H416 0.950 1_545 S
C439 C438 1.334 . S
C439 C440 1.287 . S
C440 C439 1.287 . S
C440 C441 1.524 . S
C440 H459 0.913 . S
C441 H417 0.950 . S
C441 C440 1.524 . S
C441 C442 1.415 . S
C442 H418 0.950 . S
C442 C437 1.363 . S
C442 C441 1.415 . S
C443 H419 0.951 . S
C443 C444 1.366 1_565 S
C443 C445 1.388 . S
C444 C443 1.366 1_545 S
C444 C448 1.385 . S
C445 H420 0.951 . S
C445 C443 1.388 . S
C445 C446 1.366 1_565 S
C446 C445 1.366 1_545 S
C446 C447 1.414 . S
C446 C449 1.499 . S
C447 H421 0.950 . S
C447 C446 1.414 . S
C447 C448 1.374 . S
C448 H422 0.950 . S
C448 C444 1.385 . S
C448 C447 1.374 . S
C449 C446 1.499 . S
C449 C450 1.373 . S
C449 C451 1.389 . S
C450 H423 0.950 . S
C450 C436 1.377 1_556 S
C450 C449 1.373 . S
C451 C435 1.376 1_546 S
C451 C449 1.389 . S
C451 C452 1.524 1_545 S
C452 C451 1.524 1_565 S
C452 C453 1.397 1_565 S
C452 C457 1.363 . S
C453 H424 0.950 . S
C453 C452 1.397 1_545 S
C453 C454 1.334 . S
C454 H425 0.950 . S
C454 C453 1.334 . S
C454 C455 1.287 1_545 S
C455 C454 1.287 1_565 S
C455 C456 1.524 . S
C455 H458 0.999 . S
C456 H426 0.950 . S
C456 C455 1.524 . S
C456 C457 1.415 . S
C457 H427 0.950 . S
C457 C452 1.363 . S
C457 C456 1.415 . S
H458 C455 0.999 . S
H459 C440 0.913 . S
H460 C478 0.951 . S
H461 C480 0.951 . S
H462 C482 0.950 . S
H463 C483 0.950 . S
H464 C485 0.950 . S
H465 C488 0.950 . S
H466 C489 0.950 . S
H467 C491 0.950 . S
H468 C492 0.950 . S
H469 C493 0.951 1_556 S
H470 C495 0.951 . S
H471 C497 0.950 . S
H472 C498 0.950 . S
H473 C500 0.950 . S
H474 C503 0.950 . S
H475 C504 0.950 . S
H476 C506 0.950 . S
H477 C507 0.950 . S
C478 H460 0.951 . S
C478 C479 1.366 . S
C478 C480 1.388 . S
C479 C478 1.366 . S
C479 C483 1.385 . S
C480 H461 0.951 . S
C480 C478 1.388 . S
C480 C481 1.366 . S
C481 C480 1.366 . S
C481 C482 1.414 . S
C481 C484 1.499 . S
C482 H462 0.950 . S
C482 C481 1.414 . S
C482 C483 1.374 . S
C483 H463 0.950 . S
C483 C479 1.385 . S
C483 C482 1.374 . S
C484 C481 1.499 . S
C484 C485 1.373 . S
C484 C486 1.389 . S
C485 H464 0.950 . S
C485 C484 1.373 . S
C485 C501 1.377 . S
C486 C484 1.389 . S
C486 C487 1.524 . S
C486 C500 1.377 . S
C487 C486 1.524 . S
C487 C488 1.397 . S
C487 C492 1.363 . S
C488 H465 0.950 . S
C488 C487 1.397 . S
C488 C489 1.334 . S
C489 H466 0.950 . S
C489 C488 1.334 . S
C489 C490 1.287 . S
C490 C489 1.287 . S
C490 C491 1.524 . S
C490 H509 0.913 . S
C491 H467 0.950 . S
C491 C490 1.524 . S
C491 C492 1.415 . S
C492 H468 0.950 . S
C492 C487 1.363 . S
C492 C491 1.415 . S
C493 H469 0.951 1_554 S
C493 C494 1.364 1_554 S
C493 C495 1.388 . S
C494 C493 1.364 1_556 S
C494 C498 1.383 1_556 S
C495 H470 0.951 . S
C495 C493 1.388 . S
C495 C496 1.366 . S
C496 C495 1.366 . S
C496 C497 1.414 . S
C496 C499 1.499 . S
C497 H471 0.950 . S
C497 C496 1.414 . S
C497 C498 1.374 . S
C498 H472 0.950 . S
C498 C494 1.383 1_554 S
C498 C497 1.374 . S
C499 C496 1.499 . S
C499 C500 1.373 . S
C499 C501 1.389 . S
C500 H473 0.950 . S
C500 C486 1.377 . S
C500 C499 1.373 . S
C501 C485 1.377 . S
C501 C499 1.389 . S
C501 C502 1.524 . S
C502 C501 1.524 . S
C502 C503 1.397 . S
C502 C507 1.363 . S
C503 H474 0.950 . S
C503 C502 1.397 . S
C503 C504 1.334 . S
C504 H475 0.950 . S
C504 C503 1.334 . S
C504 C505 1.287 . S
C505 C504 1.287 . S
C505 C506 1.524 . S
C505 H508 0.999 . S
C506 H476 0.950 . S
C506 C505 1.524 . S
C506 C507 1.415 . S
C507 H477 0.950 . S
C507 C502 1.363 . S
C507 C506 1.415 . S
H508 C505 0.999 . S
H509 C490 0.913 . S
C79 C8 2.083 . S
C94 C56 1.998 . S
C129 C26 2.187 . S
C144 C6 2.185 . S
C179 C28 2.430 . S
C194 C48 2.393 . S
C229 C46 2.109 . S
C244 C19 1.966 . S
C279 C36 1.512 . S
C294 C16 1.537 . S
C329 C59 1.965 . S
C344 C39 1.957 . S
C379 C9 0.346 . S
C394 C1 0.343 . S
C429 C21 0.272 . S
C444 C29 0.272 . S
C479 C49 0.301 . S
C494 C41 0.302 . S
