# Generated by pormake.
# Topology umd, (4)-cn, num edge types: 1
# Building blocks:
#     Node 0, Type 0, BuildingBlock: QUQFOY_clean_sbu_1, # of connection points: 4
#     Node 1, Type 0, BuildingBlock: QUQFOY_clean_sbu_1, # of connection points: 4
#     Node 2, Type 0, BuildingBlock: QUQFOY_clean_sbu_1, # of connection points: 4
#     Node 3, Type 0, BuildingBlock: QUQFOY_clean_sbu_1, # of connection points: 4
#     Node 4, Type 0, BuildingBlock: QUQFOY_clean_sbu_1, # of connection points: 4
#     Node 5, Type 0, BuildingBlock: QUQFOY_clean_sbu_1, # of connection points: 4
#     Node 6, Type 0, BuildingBlock: QUQFOY_clean_sbu_1, # of connection points: 4
#     Node 7, Type 0, BuildingBlock: QUQFOY_clean_sbu_1, # of connection points: 4
#     Node 8, Type 0, BuildingBlock: QUQFOY_clean_sbu_1, # of connection points: 4
#     Node 9, Type 0, BuildingBlock: QUQFOY_clean_sbu_1, # of connection points: 4
#     Node 10, Type 0, BuildingBlock: QUQFOY_clean_sbu_1, # of connection points: 4
#     Node 11, Type 0, BuildingBlock: QUQFOY_clean_sbu_1, # of connection points: 4
#     Node 12, Type 0, BuildingBlock: QUQFOY_clean_sbu_1, # of connection points: 4
#     Node 13, Type 0, BuildingBlock: QUQFOY_clean_sbu_1, # of connection points: 4
#     Node 14, Type 0, BuildingBlock: QUQFOY_clean_sbu_1, # of connection points: 4
#     Node 15, Type 0, BuildingBlock: QUQFOY_clean_sbu_1, # of connection points: 4
#     Edge 16, Type (0, 0), BuildingBlock: OJICUG_clean_linker_0, # of connection points: 2
#     Edge 17, Type (0, 0), BuildingBlock: OJICUG_clean_linker_0, # of connection points: 2
#     Edge 18, Type (0, 0), BuildingBlock: OJICUG_clean_linker_0, # of connection points: 2
#     Edge 19, Type (0, 0), BuildingBlock: OJICUG_clean_linker_0, # of connection points: 2
#     Edge 20, Type (0, 0), BuildingBlock: OJICUG_clean_linker_0, # of connection points: 2
#     Edge 21, Type (0, 0), BuildingBlock: OJICUG_clean_linker_0, # of connection points: 2
#     Edge 22, Type (0, 0), BuildingBlock: OJICUG_clean_linker_0, # of connection points: 2
#     Edge 23, Type (0, 0), BuildingBlock: OJICUG_clean_linker_0, # of connection points: 2
#     Edge 24, Type (0, 0), BuildingBlock: OJICUG_clean_linker_0, # of connection points: 2
#     Edge 25, Type (0, 0), BuildingBlock: OJICUG_clean_linker_0, # of connection points: 2
#     Edge 26, Type (0, 0), BuildingBlock: OJICUG_clean_linker_0, # of connection points: 2
#     Edge 27, Type (0, 0), BuildingBlock: OJICUG_clean_linker_0, # of connection points: 2
#     Edge 28, Type (0, 0), BuildingBlock: OJICUG_clean_linker_0, # of connection points: 2
#     Edge 29, Type (0, 0), BuildingBlock: OJICUG_clean_linker_0, # of connection points: 2
#     Edge 30, Type (0, 0), BuildingBlock: OJICUG_clean_linker_0, # of connection points: 2
#     Edge 31, Type (0, 0), BuildingBlock: OJICUG_clean_linker_0, # of connection points: 2
#     Edge 32, Type (0, 0), BuildingBlock: OJICUG_clean_linker_0, # of connection points: 2
#     Edge 33, Type (0, 0), BuildingBlock: OJICUG_clean_linker_0, # of connection points: 2
#     Edge 34, Type (0, 0), BuildingBlock: OJICUG_clean_linker_0, # of connection points: 2
#     Edge 35, Type (0, 0), BuildingBlock: OJICUG_clean_linker_0, # of connection points: 2
#     Edge 36, Type (0, 0), BuildingBlock: OJICUG_clean_linker_0, # of connection points: 2
#     Edge 37, Type (0, 0), BuildingBlock: OJICUG_clean_linker_0, # of connection points: 2
#     Edge 38, Type (0, 0), BuildingBlock: OJICUG_clean_linker_0, # of connection points: 2
#     Edge 39, Type (0, 0), BuildingBlock: OJICUG_clean_linker_0, # of connection points: 2
#     Edge 40, Type (0, 0), BuildingBlock: OJICUG_clean_linker_0, # of connection points: 2
#     Edge 41, Type (0, 0), BuildingBlock: OJICUG_clean_linker_0, # of connection points: 2
#     Edge 42, Type (0, 0), BuildingBlock: OJICUG_clean_linker_0, # of connection points: 2
#     Edge 43, Type (0, 0), BuildingBlock: OJICUG_clean_linker_0, # of connection points: 2
#     Edge 44, Type (0, 0), BuildingBlock: OJICUG_clean_linker_0, # of connection points: 2
#     Edge 45, Type (0, 0), BuildingBlock: OJICUG_clean_linker_0, # of connection points: 2
#     Edge 46, Type (0, 0), BuildingBlock: OJICUG_clean_linker_0, # of connection points: 2
#     Edge 47, Type (0, 0), BuildingBlock: OJICUG_clean_linker_0, # of connection points: 2
# Relax obj value: 0.066
# Max RMSD: 0.197
# Mean RMSD: 0.197
data_MOF--net-umd--node1-QUQFOY_clean_sbu_1--edge1-OJICUG_clean_linker_0
_symmetry_space_group_name_H-M    P1
_symmetry_Int_Tables_number       1
_symmetry_cell_setting            triclinic
loop_
_symmetry_equiv_pos_as_xyz
'x, y, z'
_cell_length_a     29.669447
_cell_length_b     29.618318
_cell_length_c     41.691769
_cell_angle_alpha  90.000065
_cell_angle_beta   89.999934
_cell_angle_gamma 90.006023
loop_
_atom_site_label
_atom_site_type_symbol
_atom_site_fract_x
_atom_site_fract_y
_atom_site_fract_z
_atom_type_partial_charge
O0 O 0.21358 0.44311 0.10168 0.0
Cd1 Cd 0.18892 0.42538 0.14619 0.0
Cd2 Cd 0.21544 0.51359 0.15544 0.0
O3 O 0.24434 0.51002 0.11018 0.0
O4 O 0.18818 0.35712 0.14489 0.0
O5 O 0.23283 0.39648 0.17658 0.0
C6 C 0.22101 0.35783 0.1652 0.0
C7 C 0.25105 0.51833 0.20505 0.0
C8 C 0.236 0.4769 0.09163 0.0
C9 C 0.11621 0.49394 0.15975 0.0
O10 O 0.1469 0.52364 0.15673 0.0
O11 O 0.12611 0.45197 0.15899 0.0
O12 O 0.24511 0.5542 0.18783 0.0
O13 O 0.23987 0.48001 0.19274 0.0
O14 O 0.60347 0.21487 0.60164 0.0
Cd15 Cd 0.62122 0.19018 0.64613 0.0
Cd16 Cd 0.53328 0.21688 0.65547 0.0
O17 O 0.53678 0.24584 0.61022 0.0
O18 O 0.68935 0.18939 0.64475 0.0
O19 O 0.65017 0.23417 0.67647 0.0
C20 C 0.68872 0.2223 0.66504 0.0
C21 C 0.52854 0.25254 0.7051 0.0
C22 C 0.56977 0.23741 0.59162 0.0
C23 C 0.55272 0.11746 0.65979 0.0
O24 O 0.52312 0.14824 0.65678 0.0
O25 O 0.59464 0.1273 0.65899 0.0
O26 O 0.49275 0.24662 0.68785 0.0
O27 O 0.5668 0.24134 0.6928 0.0
O28 O 0.83236 0.60394 0.10164 0.0
Cd29 Cd 0.85709 0.62179 0.14611 0.0
Cd30 Cd 0.83059 0.53352 0.15544 0.0
O31 O 0.80172 0.53699 0.11019 0.0
O32 O 0.85778 0.69006 0.14472 0.0
O33 O 0.81322 0.65074 0.1765 0.0
C34 C 0.82498 0.68938 0.16506 0.0
C35 C 0.79492 0.52903 0.20504 0.0
C36 C 0.80998 0.5701 0.09162 0.0
C37 C 0.92982 0.55326 0.15974 0.0
O38 O 0.89914 0.52354 0.15678 0.0
O39 O 0.91992 0.59523 0.1589 0.0
O40 O 0.80088 0.49308 0.18792 0.0
O41 O 0.80613 0.56729 0.19264 0.0
O42 O 0.4423 0.83351 0.60169 0.0
Cd43 Cd 0.42461 0.85815 0.64621 0.0
Cd44 Cd 0.51258 0.83141 0.65548 0.0
O45 O 0.50902 0.80257 0.6102 0.0
O46 O 0.35648 0.85894 0.64488 0.0
O47 O 0.39571 0.81414 0.67656 0.0
C48 C 0.35714 0.82602 0.66516 0.0
C49 C 0.51736 0.79556 0.70503 0.0
C50 C 0.476 0.81101 0.59163 0.0
C51 C 0.49314 0.93085 0.65987 0.0
O52 O 0.52273 0.90006 0.65687 0.0
O53 O 0.45122 0.92102 0.65906 0.0
O54 O 0.55314 0.80156 0.6878 0.0
O55 O 0.47909 0.80682 0.69278 0.0
O56 O 0.21352 0.60457 0.44491 0.0
Cd57 Cd 0.18885 0.62237 0.40042 0.0
Cd58 Cd 0.21533 0.53417 0.39111 0.0
O59 O 0.24424 0.53767 0.43637 0.0
O60 O 0.18819 0.69062 0.40177 0.0
O61 O 0.23278 0.65126 0.37004 0.0
C62 C 0.22102 0.68991 0.38145 0.0
C63 C 0.25095 0.52943 0.34151 0.0
C64 C 0.23593 0.57077 0.45494 0.0
C65 C 0.1161 0.55385 0.38683 0.0
O66 O 0.14678 0.52414 0.38982 0.0
O67 O 0.12601 0.59583 0.38763 0.0
O68 O 0.24498 0.49357 0.35871 0.0
O69 O 0.2398 0.56776 0.35382 0.0
O70 O 0.44186 0.2137 0.94477 0.0
Cd71 Cd 0.42428 0.18926 0.90016 0.0
Cd72 Cd 0.51226 0.21617 0.89104 0.0
O73 O 0.50851 0.24487 0.93637 0.0
O74 O 0.35614 0.18847 0.90138 0.0
O75 O 0.39549 0.23343 0.86988 0.0
C76 C 0.35688 0.22151 0.88119 0.0
C77 C 0.51712 0.25211 0.84153 0.0
C78 C 0.47549 0.23625 0.9549 0.0
C79 C 0.49292 0.11672 0.88645 0.0
O80 O 0.52246 0.14754 0.88958 0.0
O81 O 0.45099 0.12649 0.8872 0.0
O82 O 0.55286 0.24613 0.8588 0.0
O83 O 0.47883 0.24079 0.85373 0.0
O84 O 0.83217 0.44392 0.44495 0.0
Cd85 Cd 0.85693 0.42603 0.4005 0.0
Cd86 Cd 0.83046 0.51429 0.39113 0.0
O87 O 0.80154 0.51085 0.43637 0.0
O88 O 0.85762 0.35777 0.40193 0.0
O89 O 0.81307 0.39705 0.37011 0.0
C90 C 0.82483 0.35843 0.38158 0.0
C91 C 0.79484 0.51873 0.34151 0.0
C92 C 0.80979 0.47776 0.45495 0.0
C93 C 0.92968 0.49456 0.38687 0.0
O94 O 0.89901 0.52428 0.38982 0.0
O95 O 0.91977 0.45259 0.38771 0.0
O96 O 0.80078 0.5547 0.35862 0.0
O97 O 0.80604 0.48049 0.35392 0.0
O98 O 0.60379 0.83316 0.94483 0.0
Cd99 Cd 0.62145 0.85769 0.90027 0.0
Cd100 Cd 0.53351 0.83081 0.89105 0.0
O101 O 0.53717 0.80199 0.93635 0.0
O102 O 0.68959 0.85852 0.90158 0.0
O103 O 0.65035 0.81359 0.86999 0.0
C104 C 0.68893 0.82552 0.88136 0.0
C105 C 0.52874 0.79507 0.84147 0.0
C106 C 0.57016 0.81058 0.95491 0.0
C107 C 0.55283 0.93025 0.88654 0.0
O108 O 0.52328 0.89943 0.88965 0.0
O109 O 0.59477 0.92047 0.88731 0.0
O110 O 0.49297 0.80095 0.85873 0.0
O111 O 0.56701 0.80632 0.85373 0.0
O112 O 0.83236 0.60394 0.94492 0.0
Cd113 Cd 0.85709 0.6218 0.90045 0.0
Cd114 Cd 0.8306 0.53353 0.89112 0.0
O115 O 0.80172 0.53699 0.93638 0.0
O116 O 0.85778 0.69006 0.90184 0.0
O117 O 0.81322 0.65074 0.87006 0.0
C118 C 0.82498 0.68938 0.8815 0.0
C119 C 0.79493 0.52903 0.84152 0.0
C120 C 0.80999 0.5701 0.95494 0.0
C121 C 0.92982 0.55326 0.88682 0.0
O122 O 0.89915 0.52354 0.88978 0.0
O123 O 0.91992 0.59524 0.88766 0.0
O124 O 0.80088 0.49308 0.85864 0.0
O125 O 0.80613 0.56729 0.85392 0.0
O126 O 0.4423 0.83351 0.44487 0.0
Cd127 Cd 0.42461 0.85815 0.40035 0.0
Cd128 Cd 0.51258 0.83141 0.39107 0.0
O129 O 0.50902 0.80257 0.43636 0.0
O130 O 0.35648 0.85895 0.40168 0.0
O131 O 0.39571 0.81414 0.37 0.0
C132 C 0.35714 0.82602 0.3814 0.0
C133 C 0.51736 0.79556 0.34153 0.0
C134 C 0.47599 0.81101 0.45493 0.0
C135 C 0.49314 0.93085 0.38669 0.0
O136 O 0.52273 0.90006 0.38969 0.0
O137 O 0.45121 0.92102 0.3875 0.0
O138 O 0.55314 0.80156 0.35876 0.0
O139 O 0.47909 0.80682 0.35378 0.0
O140 O 0.21359 0.44312 0.94488 0.0
Cd141 Cd 0.18892 0.42538 0.90037 0.0
Cd142 Cd 0.21544 0.51359 0.89113 0.0
O143 O 0.24434 0.51002 0.93638 0.0
O144 O 0.18818 0.35712 0.90167 0.0
O145 O 0.23283 0.39649 0.86998 0.0
C146 C 0.22101 0.35783 0.88136 0.0
C147 C 0.25105 0.51833 0.84151 0.0
C148 C 0.23601 0.47691 0.95493 0.0
C149 C 0.11622 0.49395 0.88681 0.0
O150 O 0.1469 0.52365 0.88983 0.0
O151 O 0.12611 0.45197 0.88758 0.0
O152 O 0.24512 0.5542 0.85873 0.0
O153 O 0.23988 0.48001 0.85382 0.0
O154 O 0.60347 0.21487 0.44492 0.0
Cd155 Cd 0.62122 0.19018 0.40043 0.0
Cd156 Cd 0.53328 0.21689 0.39109 0.0
O157 O 0.53678 0.24584 0.43635 0.0
O158 O 0.68935 0.18939 0.40181 0.0
O159 O 0.65017 0.23418 0.37009 0.0
C160 C 0.68872 0.2223 0.38152 0.0
C161 C 0.52853 0.25254 0.34147 0.0
C162 C 0.56977 0.2374 0.45494 0.0
C163 C 0.55272 0.11746 0.38677 0.0
O164 O 0.52312 0.14824 0.38978 0.0
O165 O 0.59464 0.1273 0.38757 0.0
O166 O 0.49275 0.24663 0.35871 0.0
O167 O 0.5668 0.24134 0.35376 0.0
O168 O 0.83218 0.44392 0.60161 0.0
Cd169 Cd 0.85694 0.42603 0.64606 0.0
Cd170 Cd 0.83047 0.51428 0.65544 0.0
O171 O 0.80154 0.51085 0.61019 0.0
O172 O 0.85762 0.35777 0.64464 0.0
O173 O 0.81308 0.39704 0.67645 0.0
C174 C 0.82483 0.35842 0.66498 0.0
C175 C 0.79485 0.51873 0.70505 0.0
C176 C 0.80979 0.47775 0.59161 0.0
C177 C 0.92969 0.49456 0.65969 0.0
O178 O 0.89902 0.52428 0.65674 0.0
O179 O 0.91978 0.45259 0.65885 0.0
O180 O 0.80078 0.5547 0.68794 0.0
O181 O 0.80604 0.48049 0.69264 0.0
O182 O 0.60379 0.83317 0.10173 0.0
Cd183 Cd 0.62145 0.85769 0.14629 0.0
Cd184 Cd 0.53351 0.83081 0.15551 0.0
O185 O 0.53717 0.802 0.11021 0.0
O186 O 0.68959 0.85852 0.14499 0.0
O187 O 0.65035 0.81358 0.17657 0.0
C188 C 0.68892 0.82552 0.16521 0.0
C189 C 0.52873 0.79507 0.20509 0.0
C190 C 0.57016 0.81059 0.09165 0.0
C191 C 0.55283 0.93025 0.16002 0.0
O192 O 0.52328 0.89943 0.15691 0.0
O193 O 0.59477 0.92047 0.15926 0.0
O194 O 0.49297 0.80095 0.18783 0.0
O195 O 0.56701 0.80632 0.19283 0.0
O196 O 0.21353 0.60457 0.60165 0.0
Cd197 Cd 0.18885 0.62236 0.64614 0.0
Cd198 Cd 0.21533 0.53416 0.65545 0.0
O199 O 0.24424 0.53767 0.61019 0.0
O200 O 0.1882 0.69062 0.6448 0.0
O201 O 0.23279 0.65125 0.67652 0.0
C202 C 0.22102 0.6899 0.66511 0.0
C203 C 0.25096 0.52943 0.70505 0.0
C204 C 0.23593 0.57076 0.59162 0.0
C205 C 0.11611 0.55385 0.65973 0.0
O206 O 0.14678 0.52414 0.65674 0.0
O207 O 0.12602 0.59582 0.65893 0.0
O208 O 0.24499 0.49356 0.68785 0.0
O209 O 0.2398 0.56775 0.69274 0.0
O210 O 0.44186 0.2137 0.1018 0.0
Cd211 Cd 0.42428 0.18926 0.1464 0.0
Cd212 Cd 0.51226 0.21617 0.15552 0.0
O213 O 0.50851 0.24487 0.11019 0.0
O214 O 0.35614 0.18847 0.14519 0.0
O215 O 0.39549 0.23343 0.17668 0.0
C216 C 0.35688 0.22151 0.16538 0.0
C217 C 0.51712 0.25211 0.20504 0.0
C218 C 0.47548 0.23624 0.09167 0.0
C219 C 0.49292 0.11672 0.16011 0.0
O220 O 0.52246 0.14754 0.15699 0.0
O221 O 0.45099 0.12649 0.15936 0.0
O222 O 0.55286 0.24613 0.18777 0.0
O223 O 0.47883 0.24079 0.19283 0.0
C224 C 0.05783 0.55528 0.16296 0.0
C225 C 0.06852 0.50892 0.16249 0.0
H226 H 1.00602 0.60569 0.16261 0.0
C227 C 0.03312 0.47744 0.16307 0.0
H228 H 0.08418 0.58058 0.16266 0.0
C229 C 0.98821 0.49194 0.16306 0.0
C230 C 0.97752 0.53831 0.16249 0.0
H231 H 0.04002 0.44153 0.16281 0.0
H232 H 0.96186 0.46664 0.16285 0.0
C233 C 1.01292 0.56979 0.16296 0.0
C234 C 0.55448 0.98923 0.66313 0.0
C235 C 0.50817 0.97861 0.66262 0.0
H236 H 0.6049 0.04104 0.66279 0.0
C237 C 0.47682 1.01412 0.66313 0.0
H238 H 0.57968 0.96278 0.66288 0.0
C239 C 0.49139 0.05908 0.6631 0.0
C240 C 0.53769 0.0697 0.66257 0.0
H241 H 0.44096 1.00727 0.66283 0.0
H242 H 0.46618 0.08553 0.66283 0.0
C243 C 0.56905 0.03419 0.66311 0.0
C244 C 0.03301 0.57038 0.38356 0.0
C245 C 0.0684 0.53889 0.3841 0.0
H246 H 0.96175 0.58118 0.38382 0.0
C247 C 0.05769 0.49253 0.38361 0.0
H248 H 0.03992 0.60628 0.38384 0.0
C249 C 1.01278 0.47803 0.38362 0.0
C250 C 0.97739 0.50952 0.38413 0.0
H251 H 0.08404 0.46723 0.38389 0.0
H252 H 1.00586 0.44213 0.38395 0.0
C253 C 0.9881 0.55588 0.38357 0.0
C254 C 0.4914 0.9885 0.88314 0.0
C255 C 0.53772 0.97796 0.88371 0.0
H256 H 0.44088 0.0402 0.88339 0.0
C257 C 0.56901 1.01354 0.88317 0.0
H258 H 0.46624 0.962 0.88339 0.0
C259 C 0.55437 0.05847 0.88315 0.0
C260 C 0.50804 0.069 0.88365 0.0
H261 H 0.60488 1.00676 0.88351 0.0
H262 H 0.57952 0.08496 0.88342 0.0
C263 C 0.47675 0.03343 0.8831 0.0
C264 C 1.01292 0.56979 0.8836 0.0
C265 C 0.97752 0.53831 0.88407 0.0
H266 H 0.08419 0.58058 0.8839 0.0
C267 C 0.98822 0.49195 0.8835 0.0
H268 H 1.00602 0.6057 0.88395 0.0
C269 C 0.03312 0.47744 0.88349 0.0
C270 C 0.06852 0.50892 0.88407 0.0
H271 H 0.96186 0.46665 0.88371 0.0
H272 H 0.04002 0.44153 0.88375 0.0
C273 C 0.05783 0.55528 0.8836 0.0
C274 C 0.56904 0.03419 0.38345 0.0
C275 C 0.53769 0.06971 0.38399 0.0
H276 H 0.57968 0.96279 0.38368 0.0
C277 C 0.49139 0.05908 0.38346 0.0
H278 H 0.6049 0.04104 0.38376 0.0
C279 C 0.47682 1.01412 0.38343 0.0
C280 C 0.50817 0.97861 0.38394 0.0
H281 H 0.46618 0.08553 0.38372 0.0
H282 H 0.44096 1.00727 0.38373 0.0
C283 C 0.55448 0.98923 0.38343 0.0
C284 C 0.9881 0.55587 0.66299 0.0
C285 C 0.9774 0.50951 0.66244 0.0
H286 H 0.03993 0.60628 0.66272 0.0
C287 C 1.01278 0.47803 0.66294 0.0
H288 H 0.96176 0.58118 0.66275 0.0
C289 C 0.05769 0.49252 0.66295 0.0
C290 C 0.0684 0.53889 0.66246 0.0
H291 H 1.00587 0.44212 0.66261 0.0
H292 H 0.08404 0.46722 0.66267 0.0
C293 C 0.03302 0.57037 0.663 0.0
C294 C 0.55436 0.05847 0.16341 0.0
C295 C 0.50804 0.069 0.16291 0.0
H296 H 0.60488 1.00676 0.16305 0.0
C297 C 0.47675 0.03343 0.16346 0.0
H298 H 0.57952 0.08496 0.16315 0.0
C299 C 0.4914 0.9885 0.16343 0.0
C300 C 0.53772 0.97796 0.16286 0.0
H301 H 0.44088 0.0402 0.16317 0.0
H302 H 0.46624 0.962 0.16317 0.0
C303 C 0.56901 1.01354 0.16339 0.0
C304 C 0.26569 0.4844 0.29171 0.0
C305 C 0.26335 0.52651 0.30712 0.0
H306 H 0.26442 0.44877 0.24708 0.0
C307 C 0.26566 0.56597 0.28837 0.0
H308 H 0.26427 0.45337 0.30541 0.0
C309 C 0.2657 0.56337 0.25486 0.0
C310 C 0.26341 0.52126 0.23945 0.0
H311 H 0.26435 0.59901 0.29949 0.0
H312 H 0.26429 0.59441 0.24115 0.0
C313 C 0.2657 0.4818 0.2582 0.0
C314 C 0.48349 0.26721 0.75486 0.0
C315 C 0.52556 0.26486 0.7395 0.0
H316 H 0.4478 0.26581 0.79944 0.0
C317 C 0.56491 0.26705 0.7583 0.0
H318 H 0.45254 0.2659 0.74112 0.0
C319 C 0.56223 0.26696 0.79181 0.0
C320 C 0.52015 0.26465 0.80717 0.0
H321 H 0.59791 0.26572 0.74722 0.0
H322 H 0.59318 0.26544 0.80555 0.0
C323 C 0.48081 0.2671 0.78837 0.0
C324 C 0.78019 0.48428 0.25496 0.0
C325 C 0.7825 0.5263 0.23943 0.0
H326 H 0.7815 0.44891 0.29969 0.0
C327 C 0.78015 0.56587 0.25806 0.0
H328 H 0.78163 0.45317 0.24135 0.0
C329 C 0.78012 0.56347 0.29158 0.0
C330 C 0.78246 0.52145 0.30711 0.0
H331 H 0.78144 0.59884 0.24684 0.0
H332 H 0.78151 0.59458 0.30519 0.0
C333 C 0.78018 0.48188 0.28848 0.0
C334 C 0.48367 0.78049 0.79169 0.0
C335 C 0.52574 0.78274 0.80706 0.0
H336 H 0.44799 0.782 0.74711 0.0
C337 C 0.56509 0.78049 0.78826 0.0
H338 H 0.45272 0.78186 0.80544 0.0
C339 C 0.56242 0.7806 0.75476 0.0
C340 C 0.52035 0.78301 0.7394 0.0
H341 H 0.59809 0.78174 0.79935 0.0
H342 H 0.59337 0.78206 0.74102 0.0
C343 C 0.481 0.78063 0.75819 0.0
C344 C 0.7802 0.48428 0.7916 0.0
C345 C 0.7825 0.5263 0.80713 0.0
H346 H 0.7815 0.44891 0.74687 0.0
C347 C 0.78016 0.56587 0.7885 0.0
H348 H 0.78164 0.45316 0.80521 0.0
C349 C 0.78013 0.56347 0.75499 0.0
C350 C 0.78246 0.52145 0.73945 0.0
H351 H 0.78144 0.59884 0.79972 0.0
H352 H 0.78151 0.59458 0.74137 0.0
C353 C 0.78019 0.48188 0.75808 0.0
C354 C 0.56242 0.7806 0.2918 0.0
C355 C 0.52034 0.78301 0.30716 0.0
H356 H 0.59809 0.78174 0.24721 0.0
C357 C 0.48099 0.78064 0.28837 0.0
H358 H 0.59337 0.78206 0.30554 0.0
C359 C 0.48366 0.78048 0.25487 0.0
C360 C 0.52574 0.78273 0.2395 0.0
H361 H 0.44799 0.782 0.29945 0.0
H362 H 0.45271 0.78186 0.24112 0.0
C363 C 0.56509 0.78048 0.25829 0.0
C364 C 0.2657 0.4818 0.78837 0.0
C365 C 0.26341 0.52126 0.80712 0.0
H366 H 0.26428 0.45336 0.74115 0.0
C367 C 0.2657 0.56337 0.7917 0.0
H368 H 0.26442 0.44877 0.79949 0.0
C369 C 0.26566 0.56597 0.75819 0.0
C370 C 0.26336 0.52651 0.73944 0.0
H371 H 0.2643 0.59441 0.80541 0.0
H372 H 0.26435 0.59901 0.74707 0.0
C373 C 0.26569 0.4844 0.75486 0.0
C374 C 0.56491 0.26705 0.28826 0.0
C375 C 0.52556 0.26487 0.30706 0.0
H376 H 0.59318 0.26544 0.24101 0.0
C377 C 0.48349 0.26722 0.2917 0.0
H378 H 0.59791 0.26572 0.29934 0.0
C379 C 0.48081 0.2671 0.25819 0.0
C380 C 0.52015 0.26466 0.2394 0.0
H381 H 0.45254 0.26591 0.30544 0.0
H382 H 0.4478 0.26582 0.24712 0.0
C383 C 0.56223 0.26696 0.25475 0.0
C384 C 0.25002 0.43748 1.00658 0.0
C385 C 0.24796 0.47823 0.98942 0.0
H386 H 0.24892 0.40533 0.05237 0.0
C387 C 0.2504 0.5192 1.00642 0.0
H388 H 0.24893 0.40533 0.99419 0.0
C389 C 0.2504 0.5192 0.04014 0.0
C390 C 0.24795 0.47823 0.05714 0.0
H391 H 0.24885 0.55114 0.99381 0.0
H392 H 0.24885 0.55114 0.05275 0.0
C393 C 0.25002 0.43748 0.03998 0.0
C394 C 0.52752 0.25179 0.50642 0.0
C395 C 0.56843 0.24939 0.48942 0.0
H396 H 0.49564 0.25019 0.55275 0.0
C397 C 0.6091 0.25152 0.50658 0.0
H398 H 0.49564 0.25019 0.49381 0.0
C399 C 0.6091 0.25152 0.53998 0.0
C400 C 0.56843 0.2494 0.55714 0.0
H401 H 0.64119 0.25047 0.49419 0.0
H402 H 0.64119 0.25047 0.55237 0.0
C403 C 0.52752 0.25179 0.54014 0.0
C404 C 0.79578 0.60947 0.03998 0.0
C405 C 0.798 0.56873 0.05714 0.0
H406 H 0.79675 0.64163 0.99419 0.0
C407 C 0.79572 0.52775 0.04014 0.0
H408 H 0.79675 0.64162 0.05238 0.0
C409 C 0.79572 0.52775 1.00642 0.0
C410 C 0.79801 0.56874 0.98942 0.0
H411 H 0.79739 0.49582 0.05275 0.0
H412 H 0.79739 0.49582 0.99381 0.0
C413 C 0.79578 0.60948 1.00658 0.0
C414 C 0.43663 0.79706 0.53998 0.0
C415 C 0.47731 0.79907 0.55714 0.0
H416 H 0.40453 0.79818 0.49419 0.0
C417 C 0.51821 0.79659 0.54014 0.0
H418 H 0.40454 0.79818 0.55237 0.0
C419 C 0.51821 0.79659 0.50642 0.0
C420 C 0.47731 0.79908 0.48942 0.0
H421 H 0.55009 0.7981 0.55275 0.0
H422 H 0.55009 0.7981 0.49381 0.0
C423 C 0.43663 0.79706 0.50658 0.0
C424 C 0.25024 0.52843 0.50642 0.0
C425 C 0.2479 0.56941 0.48942 0.0
H426 H 0.2486 0.49649 0.55275 0.0
C427 C 0.25008 0.61015 0.50658 0.0
H428 H 0.2486 0.4965 0.49381 0.0
C429 C 0.25008 0.61015 0.53998 0.0
C430 C 0.24791 0.56941 0.55714 0.0
H431 H 0.24907 0.6423 0.49419 0.0
H432 H 0.24908 0.6423 0.55237 0.0
C433 C 0.25024 0.52842 0.54014 0.0
C434 C 0.43601 0.24971 1.00658 0.0
C435 C 0.47671 0.24807 0.98942 0.0
H436 H 0.40393 0.24833 0.05237 0.0
C437 C 0.51759 0.25087 1.00642 0.0
H438 H 0.40393 0.24833 0.99419 0.0
C439 C 0.51759 0.25087 0.04015 0.0
C440 C 0.4767 0.24806 0.05715 0.0
H441 H 0.54948 0.24965 0.99381 0.0
H442 H 0.54948 0.24965 0.05275 0.0
C443 C 0.43601 0.24971 0.03998 0.0
C444 C 0.79549 0.4384 0.50658 0.0
C445 C 0.79778 0.47914 0.48942 0.0
H446 H 0.79642 0.40625 0.55237 0.0
C447 C 0.79555 0.52013 0.50642 0.0
H448 H 0.79641 0.40625 0.49418 0.0
C449 C 0.79555 0.52013 0.54014 0.0
C450 C 0.79778 0.47914 0.55714 0.0
H451 H 0.79727 0.55206 0.49381 0.0
H452 H 0.79728 0.55206 0.55275 0.0
C453 C 0.79549 0.4384 0.53998 0.0
C454 C 0.528 0.79604 0.04014 0.0
C455 C 0.56889 0.7987 0.05715 0.0
H456 H 0.49611 0.79739 0.99381 0.0
C457 C 0.60958 0.79688 0.03998 0.0
H458 H 0.49611 0.7974 0.05276 0.0
C459 C 0.60958 0.79688 1.00658 0.0
C460 C 0.56889 0.79869 0.98941 0.0
H461 H 0.64166 0.79814 0.05237 0.0
H462 H 0.64166 0.79814 0.99419 0.0
C463 C 0.52799 0.79603 1.00642 0.0
C464 C 0.28577 0.31991 0.19261 0.0
C465 C 0.24902 0.31722 0.17141 0.0
H466 H 0.34838 0.29119 0.20779 0.0
C467 C 0.24403 0.27816 0.15254 0.0
H468 H 0.29046 0.34932 0.20771 0.0
C469 C 0.27742 0.24465 0.15259 0.0
C470 C 0.31637 0.24963 0.17151 0.0
H471 H 0.21604 0.27492 0.13603 0.0
H472 H 0.27419 0.21657 0.13611 0.0
C473 C 0.31906 0.28651 0.19266 0.0
C474 C 0.80162 0.27887 0.65214 0.0
C475 C 0.79678 0.31783 0.67112 0.0
H476 H 0.7713 0.21742 0.63559 0.0
C477 C 0.7601 0.32046 0.6924 0.0
H478 H 0.82955 0.27568 0.63556 0.0
C479 C 0.72674 0.28711 0.69241 0.0
C480 C 0.72929 0.25034 0.67115 0.0
H481 H 0.75552 0.34979 0.70759 0.0
H482 H 0.69749 0.29176 0.70761 0.0
C483 C 0.76817 0.24541 0.65215 0.0
C484 C 0.76024 0.72729 0.19249 0.0
C485 C 0.79694 0.72996 0.17124 0.0
H486 H 0.69762 0.75597 0.2077 0.0
C487 C 0.80181 0.76897 0.1523 0.0
H488 H 0.75564 0.69793 0.20764 0.0
C489 C 0.76838 0.80243 0.15234 0.0
C490 C 0.72948 0.79746 0.17131 0.0
H491 H 0.82976 0.77219 0.13574 0.0
H492 H 0.77153 0.83046 0.13581 0.0
C493 C 0.7269 0.76065 0.19253 0.0
C494 C 0.24421 0.76949 0.65234 0.0
C495 C 0.2491 0.73048 0.67127 0.0
H496 H 0.27449 0.83098 0.63583 0.0
C497 C 0.28583 0.72779 0.69249 0.0
H498 H 0.21624 0.77273 0.63581 0.0
C499 C 0.31919 0.76114 0.69251 0.0
C500 C 0.31658 0.79796 0.6713 0.0
H501 H 0.29045 0.69843 0.70763 0.0
H502 H 0.34848 0.75646 0.70766 0.0
C503 C 0.27766 0.80294 0.65236 0.0
C504 C 0.31918 0.76114 0.35406 0.0
C505 C 0.31658 0.79796 0.37526 0.0
H506 H 0.29045 0.69843 0.33893 0.0
C507 C 0.27765 0.80295 0.3942 0.0
H508 H 0.34848 0.75646 0.3389 0.0
C509 C 0.2442 0.7695 0.39422 0.0
C510 C 0.24909 0.73048 0.37529 0.0
H511 H 0.27449 0.83099 0.41073 0.0
H512 H 0.21623 0.77273 0.41075 0.0
C513 C 0.28583 0.72779 0.35407 0.0
C514 C 0.31907 0.2865 0.85391 0.0
C515 C 0.31637 0.24963 0.87506 0.0
H516 H 0.29047 0.34931 0.83886 0.0
C517 C 0.27742 0.24465 0.89397 0.0
H518 H 0.34839 0.29119 0.83878 0.0
C519 C 0.24403 0.27816 0.89402 0.0
C520 C 0.24902 0.31723 0.87516 0.0
H521 H 0.27418 0.21657 0.91045 0.0
H522 H 0.21604 0.27493 0.91054 0.0
C523 C 0.28578 0.31991 0.85395 0.0
C524 C 0.76817 0.24542 0.39441 0.0
C525 C 0.72929 0.25035 0.37541 0.0
H526 H 0.82954 0.27568 0.411 0.0
C527 C 0.72674 0.28712 0.35415 0.0
H528 H 0.77129 0.21742 0.41097 0.0
C529 C 0.7601 0.32047 0.35416 0.0
C530 C 0.79678 0.31783 0.37544 0.0
H531 H 0.69749 0.29176 0.33895 0.0
H532 H 0.75552 0.34979 0.33898 0.0
C533 C 0.80162 0.27887 0.39442 0.0
C534 C 0.80181 0.76897 0.89426 0.0
C535 C 0.79694 0.72996 0.87533 0.0
H536 H 0.77153 0.83046 0.91076 0.0
C537 C 0.76024 0.72729 0.85407 0.0
H538 H 0.82976 0.77219 0.91082 0.0
C539 C 0.7269 0.76065 0.85404 0.0
C540 C 0.72948 0.79746 0.87525 0.0
H541 H 0.75563 0.69793 0.83892 0.0
H542 H 0.69763 0.75597 0.83886 0.0
C543 C 0.76838 0.80243 0.89422 0.0
loop_
_geom_bond_atom_site_label_1
_geom_bond_atom_site_label_2
_geom_bond_distance
_geom_bond_site_symmetry_2
_ccdc_geom_bond_type
O0 Cd1 2.223 . S
O0 C8 1.315 . S
Cd1 O0 2.223 . S
Cd1 O4 2.297 . S
Cd1 O5 2.439 . S
Cd1 O11 2.240 . S
Cd2 O3 2.240 . S
Cd2 O10 2.223 . S
Cd2 O12 2.297 . S
Cd2 O13 2.439 . S
O3 Cd2 2.240 . S
O3 C8 1.279 . S
O4 Cd1 2.297 . S
O4 C6 1.247 . S
O5 Cd1 2.439 . S
O5 C6 1.208 . S
C6 O4 1.247 . S
C6 O5 1.208 . S
C7 O12 1.247 . S
C7 O13 1.208 . S
C8 O0 1.315 . S
C8 O3 1.279 . S
C9 O10 1.315 . S
C9 O11 1.279 . S
O10 Cd2 2.223 . S
O10 C9 1.315 . S
O11 Cd1 2.240 . S
O11 C9 1.279 . S
O12 Cd2 2.297 . S
O12 C7 1.247 . S
O13 Cd2 2.439 . S
O13 C7 1.208 . S
O14 Cd15 2.223 . S
O14 C22 1.315 . S
Cd15 O14 2.223 . S
Cd15 O18 2.297 . S
Cd15 O19 2.439 . S
Cd15 O25 2.240 . S
Cd16 O17 2.240 . S
Cd16 O24 2.223 . S
Cd16 O26 2.297 . S
Cd16 O27 2.439 . S
O17 Cd16 2.240 . S
O17 C22 1.279 . S
O18 Cd15 2.297 . S
O18 C20 1.247 . S
O19 Cd15 2.439 . S
O19 C20 1.208 . S
C20 O18 1.247 . S
C20 O19 1.208 . S
C21 O26 1.247 . S
C21 O27 1.208 . S
C22 O14 1.315 . S
C22 O17 1.279 . S
C23 O24 1.315 . S
C23 O25 1.279 . S
O24 Cd16 2.223 . S
O24 C23 1.315 . S
O25 Cd15 2.240 . S
O25 C23 1.279 . S
O26 Cd16 2.297 . S
O26 C21 1.247 . S
O27 Cd16 2.439 . S
O27 C21 1.208 . S
O28 Cd29 2.223 . S
O28 C36 1.315 . S
Cd29 O28 2.223 . S
Cd29 O32 2.297 . S
Cd29 O33 2.439 . S
Cd29 O39 2.240 . S
Cd30 O31 2.240 . S
Cd30 O38 2.223 . S
Cd30 O40 2.297 . S
Cd30 O41 2.439 . S
O31 Cd30 2.240 . S
O31 C36 1.279 . S
O32 Cd29 2.297 . S
O32 C34 1.247 . S
O33 Cd29 2.439 . S
O33 C34 1.208 . S
C34 O32 1.247 . S
C34 O33 1.208 . S
C35 O40 1.247 . S
C35 O41 1.208 . S
C36 O28 1.315 . S
C36 O31 1.279 . S
C37 O38 1.315 . S
C37 O39 1.279 . S
O38 Cd30 2.223 . S
O38 C37 1.315 . S
O39 Cd29 2.240 . S
O39 C37 1.279 . S
O40 Cd30 2.297 . S
O40 C35 1.247 . S
O41 Cd30 2.439 . S
O41 C35 1.208 . S
O42 Cd43 2.223 . S
O42 C50 1.315 . S
Cd43 O42 2.223 . S
Cd43 O46 2.297 . S
Cd43 O47 2.439 . S
Cd43 O53 2.240 . S
Cd44 O45 2.240 . S
Cd44 O52 2.223 . S
Cd44 O54 2.297 . S
Cd44 O55 2.439 . S
O45 Cd44 2.240 . S
O45 C50 1.279 . S
O46 Cd43 2.297 . S
O46 C48 1.247 . S
O47 Cd43 2.439 . S
O47 C48 1.208 . S
C48 O46 1.247 . S
C48 O47 1.208 . S
C49 O54 1.247 . S
C49 O55 1.208 . S
C50 O42 1.315 . S
C50 O45 1.279 . S
C51 O52 1.315 . S
C51 O53 1.279 . S
O52 Cd44 2.223 . S
O52 C51 1.315 . S
O53 Cd43 2.240 . S
O53 C51 1.279 . S
O54 Cd44 2.297 . S
O54 C49 1.247 . S
O55 Cd44 2.439 . S
O55 C49 1.208 . S
O56 Cd57 2.223 . S
O56 C64 1.315 . S
Cd57 O56 2.223 . S
Cd57 O60 2.297 . S
Cd57 O61 2.439 . S
Cd57 O67 2.240 . S
Cd58 O59 2.240 . S
Cd58 O66 2.223 . S
Cd58 O68 2.297 . S
Cd58 O69 2.439 . S
O59 Cd58 2.240 . S
O59 C64 1.279 . S
O60 Cd57 2.297 . S
O60 C62 1.247 . S
O61 Cd57 2.439 . S
O61 C62 1.208 . S
C62 O60 1.247 . S
C62 O61 1.208 . S
C63 O68 1.247 . S
C63 O69 1.208 . S
C64 O56 1.315 . S
C64 O59 1.279 . S
C65 O66 1.315 . S
C65 O67 1.279 . S
O66 Cd58 2.223 . S
O66 C65 1.315 . S
O67 Cd57 2.240 . S
O67 C65 1.279 . S
O68 Cd58 2.297 . S
O68 C63 1.247 . S
O69 Cd58 2.439 . S
O69 C63 1.208 . S
O70 Cd71 2.223 . S
O70 C78 1.315 . S
Cd71 O70 2.223 . S
Cd71 O74 2.297 . S
Cd71 O75 2.439 . S
Cd71 O81 2.240 . S
Cd72 O73 2.240 . S
Cd72 O80 2.223 . S
Cd72 O82 2.297 . S
Cd72 O83 2.439 . S
O73 Cd72 2.240 . S
O73 C78 1.279 . S
O74 Cd71 2.297 . S
O74 C76 1.247 . S
O75 Cd71 2.439 . S
O75 C76 1.208 . S
C76 O74 1.247 . S
C76 O75 1.208 . S
C77 O82 1.247 . S
C77 O83 1.208 . S
C78 O70 1.315 . S
C78 O73 1.279 . S
C79 O80 1.315 . S
C79 O81 1.279 . S
O80 Cd72 2.223 . S
O80 C79 1.315 . S
O81 Cd71 2.240 . S
O81 C79 1.279 . S
O82 Cd72 2.297 . S
O82 C77 1.247 . S
O83 Cd72 2.439 . S
O83 C77 1.208 . S
O84 Cd85 2.223 . S
O84 C92 1.315 . S
Cd85 O84 2.223 . S
Cd85 O88 2.297 . S
Cd85 O89 2.439 . S
Cd85 O95 2.240 . S
Cd86 O87 2.240 . S
Cd86 O94 2.223 . S
Cd86 O96 2.297 . S
Cd86 O97 2.439 . S
O87 Cd86 2.240 . S
O87 C92 1.279 . S
O88 Cd85 2.297 . S
O88 C90 1.247 . S
O89 Cd85 2.439 . S
O89 C90 1.208 . S
C90 O88 1.247 . S
C90 O89 1.208 . S
C91 O96 1.247 . S
C91 O97 1.208 . S
C92 O84 1.315 . S
C92 O87 1.279 . S
C93 O94 1.315 . S
C93 O95 1.279 . S
O94 Cd86 2.223 . S
O94 C93 1.315 . S
O95 Cd85 2.240 . S
O95 C93 1.279 . S
O96 Cd86 2.297 . S
O96 C91 1.247 . S
O97 Cd86 2.439 . S
O97 C91 1.208 . S
O98 Cd99 2.223 . S
O98 C106 1.315 . S
Cd99 O98 2.223 . S
Cd99 O102 2.297 . S
Cd99 O103 2.439 . S
Cd99 O109 2.240 . S
Cd100 O101 2.240 . S
Cd100 O108 2.223 . S
Cd100 O110 2.297 . S
Cd100 O111 2.439 . S
O101 Cd100 2.240 . S
O101 C106 1.279 . S
O102 Cd99 2.297 . S
O102 C104 1.247 . S
O103 Cd99 2.439 . S
O103 C104 1.208 . S
C104 O102 1.247 . S
C104 O103 1.208 . S
C105 O110 1.247 . S
C105 O111 1.208 . S
C106 O98 1.315 . S
C106 O101 1.279 . S
C107 O108 1.315 . S
C107 O109 1.279 . S
O108 Cd100 2.223 . S
O108 C107 1.315 . S
O109 Cd99 2.240 . S
O109 C107 1.279 . S
O110 Cd100 2.297 . S
O110 C105 1.247 . S
O111 Cd100 2.439 . S
O111 C105 1.208 . S
O112 Cd113 2.223 . S
O112 C120 1.315 . S
Cd113 O112 2.223 . S
Cd113 O116 2.297 . S
Cd113 O117 2.439 . S
Cd113 O123 2.240 . S
Cd114 O115 2.240 . S
Cd114 O122 2.223 . S
Cd114 O124 2.297 . S
Cd114 O125 2.439 . S
O115 Cd114 2.240 . S
O115 C120 1.279 . S
O116 Cd113 2.297 . S
O116 C118 1.247 . S
O117 Cd113 2.439 . S
O117 C118 1.208 . S
C118 O116 1.247 . S
C118 O117 1.208 . S
C119 O124 1.247 . S
C119 O125 1.208 . S
C120 O112 1.315 . S
C120 O115 1.279 . S
C121 O122 1.315 . S
C121 O123 1.279 . S
O122 Cd114 2.223 . S
O122 C121 1.315 . S
O123 Cd113 2.240 . S
O123 C121 1.279 . S
O124 Cd114 2.297 . S
O124 C119 1.247 . S
O125 Cd114 2.439 . S
O125 C119 1.208 . S
O126 Cd127 2.223 . S
O126 C134 1.315 . S
Cd127 O126 2.223 . S
Cd127 O130 2.297 . S
Cd127 O131 2.439 . S
Cd127 O137 2.240 . S
Cd128 O129 2.240 . S
Cd128 O136 2.223 . S
Cd128 O138 2.297 . S
Cd128 O139 2.439 . S
O129 Cd128 2.240 . S
O129 C134 1.279 . S
O130 Cd127 2.297 . S
O130 C132 1.247 . S
O131 Cd127 2.439 . S
O131 C132 1.208 . S
C132 O130 1.247 . S
C132 O131 1.208 . S
C133 O138 1.247 . S
C133 O139 1.208 . S
C134 O126 1.315 . S
C134 O129 1.279 . S
C135 O136 1.315 . S
C135 O137 1.279 . S
O136 Cd128 2.223 . S
O136 C135 1.315 . S
O137 Cd127 2.240 . S
O137 C135 1.279 . S
O138 Cd128 2.297 . S
O138 C133 1.247 . S
O139 Cd128 2.439 . S
O139 C133 1.208 . S
O140 Cd141 2.223 . S
O140 C148 1.315 . S
Cd141 O140 2.223 . S
Cd141 O144 2.297 . S
Cd141 O145 2.439 . S
Cd141 O151 2.240 . S
Cd142 O143 2.240 . S
Cd142 O150 2.223 . S
Cd142 O152 2.297 . S
Cd142 O153 2.439 . S
O143 Cd142 2.240 . S
O143 C148 1.279 . S
O144 Cd141 2.297 . S
O144 C146 1.247 . S
O145 Cd141 2.439 . S
O145 C146 1.208 . S
C146 O144 1.247 . S
C146 O145 1.208 . S
C147 O152 1.247 . S
C147 O153 1.208 . S
C148 O140 1.315 . S
C148 O143 1.279 . S
C149 O150 1.315 . S
C149 O151 1.279 . S
O150 Cd142 2.223 . S
O150 C149 1.315 . S
O151 Cd141 2.240 . S
O151 C149 1.279 . S
O152 Cd142 2.297 . S
O152 C147 1.247 . S
O153 Cd142 2.439 . S
O153 C147 1.208 . S
O154 Cd155 2.223 . S
O154 C162 1.315 . S
Cd155 O154 2.223 . S
Cd155 O158 2.297 . S
Cd155 O159 2.439 . S
Cd155 O165 2.240 . S
Cd156 O157 2.240 . S
Cd156 O164 2.223 . S
Cd156 O166 2.297 . S
Cd156 O167 2.439 . S
O157 Cd156 2.240 . S
O157 C162 1.279 . S
O158 Cd155 2.297 . S
O158 C160 1.247 . S
O159 Cd155 2.439 . S
O159 C160 1.208 . S
C160 O158 1.247 . S
C160 O159 1.208 . S
C161 O166 1.247 . S
C161 O167 1.208 . S
C162 O154 1.315 . S
C162 O157 1.279 . S
C163 O164 1.315 . S
C163 O165 1.279 . S
O164 Cd156 2.223 . S
O164 C163 1.315 . S
O165 Cd155 2.240 . S
O165 C163 1.279 . S
O166 Cd156 2.297 . S
O166 C161 1.247 . S
O167 Cd156 2.439 . S
O167 C161 1.208 . S
O168 Cd169 2.223 . S
O168 C176 1.315 . S
Cd169 O168 2.223 . S
Cd169 O172 2.297 . S
Cd169 O173 2.439 . S
Cd169 O179 2.240 . S
Cd170 O171 2.240 . S
Cd170 O178 2.223 . S
Cd170 O180 2.297 . S
Cd170 O181 2.439 . S
O171 Cd170 2.240 . S
O171 C176 1.279 . S
O172 Cd169 2.297 . S
O172 C174 1.247 . S
O173 Cd169 2.439 . S
O173 C174 1.208 . S
C174 O172 1.247 . S
C174 O173 1.208 . S
C175 O180 1.247 . S
C175 O181 1.208 . S
C176 O168 1.315 . S
C176 O171 1.279 . S
C177 O178 1.315 . S
C177 O179 1.279 . S
O178 Cd170 2.223 . S
O178 C177 1.315 . S
O179 Cd169 2.240 . S
O179 C177 1.279 . S
O180 Cd170 2.297 . S
O180 C175 1.247 . S
O181 Cd170 2.439 . S
O181 C175 1.208 . S
O182 Cd183 2.223 . S
O182 C190 1.315 . S
Cd183 O182 2.223 . S
Cd183 O186 2.297 . S
Cd183 O187 2.439 . S
Cd183 O193 2.240 . S
Cd184 O185 2.240 . S
Cd184 O192 2.223 . S
Cd184 O194 2.297 . S
Cd184 O195 2.439 . S
O185 Cd184 2.240 . S
O185 C190 1.279 . S
O186 Cd183 2.297 . S
O186 C188 1.247 . S
O187 Cd183 2.439 . S
O187 C188 1.208 . S
C188 O186 1.247 . S
C188 O187 1.208 . S
C189 O194 1.247 . S
C189 O195 1.208 . S
C190 O182 1.315 . S
C190 O185 1.279 . S
C191 O192 1.315 . S
C191 O193 1.279 . S
O192 Cd184 2.223 . S
O192 C191 1.315 . S
O193 Cd183 2.240 . S
O193 C191 1.279 . S
O194 Cd184 2.297 . S
O194 C189 1.247 . S
O195 Cd184 2.439 . S
O195 C189 1.208 . S
O196 Cd197 2.223 . S
O196 C204 1.315 . S
Cd197 O196 2.223 . S
Cd197 O200 2.297 . S
Cd197 O201 2.439 . S
Cd197 O207 2.240 . S
Cd198 O199 2.240 . S
Cd198 O206 2.223 . S
Cd198 O208 2.297 . S
Cd198 O209 2.439 . S
O199 Cd198 2.240 . S
O199 C204 1.279 . S
O200 Cd197 2.297 . S
O200 C202 1.247 . S
O201 Cd197 2.439 . S
O201 C202 1.208 . S
C202 O200 1.247 . S
C202 O201 1.208 . S
C203 O208 1.247 . S
C203 O209 1.208 . S
C204 O196 1.315 . S
C204 O199 1.279 . S
C205 O206 1.315 . S
C205 O207 1.279 . S
O206 Cd198 2.223 . S
O206 C205 1.315 . S
O207 Cd197 2.240 . S
O207 C205 1.279 . S
O208 Cd198 2.297 . S
O208 C203 1.247 . S
O209 Cd198 2.439 . S
O209 C203 1.208 . S
O210 Cd211 2.223 . S
O210 C218 1.315 . S
Cd211 O210 2.223 . S
Cd211 O214 2.297 . S
Cd211 O215 2.439 . S
Cd211 O221 2.240 . S
Cd212 O213 2.240 . S
Cd212 O220 2.223 . S
Cd212 O222 2.297 . S
Cd212 O223 2.439 . S
O213 Cd212 2.240 . S
O213 C218 1.279 . S
O214 Cd211 2.297 . S
O214 C216 1.247 . S
O215 Cd211 2.439 . S
O215 C216 1.208 . S
C216 O214 1.247 . S
C216 O215 1.208 . S
C217 O222 1.247 . S
C217 O223 1.208 . S
C218 O210 1.315 . S
C218 O213 1.279 . S
C219 O220 1.315 . S
C219 O221 1.279 . S
O220 Cd212 2.223 . S
O220 C219 1.315 . S
O221 Cd211 2.240 . S
O221 C219 1.279 . S
O222 Cd212 2.297 . S
O222 C217 1.247 . S
O223 Cd212 2.439 . S
O223 C217 1.208 . S
C224 C225 1.387 . S
C224 H228 0.950 . S
C224 C233 1.390 1_455 S
C225 C224 1.387 . S
C225 C227 1.387 . S
H226 C233 0.950 . S
C227 C225 1.387 . S
C227 C229 1.390 1_455 S
C227 H231 0.950 . S
H228 C224 0.950 . S
C229 C227 1.390 1_655 S
C229 C230 1.387 . S
C229 H232 0.950 . S
C230 C229 1.387 . S
C230 C233 1.387 . S
H231 C227 0.950 . S
H232 C229 0.950 . S
C233 C224 1.390 1_655 S
C233 H226 0.950 . S
C233 C230 1.387 . S
C234 C235 1.387 . S
C234 H238 0.950 . S
C234 C243 1.390 1_565 S
C235 C234 1.387 . S
C235 C237 1.387 . S
H236 C243 0.950 . S
C237 C235 1.387 . S
C237 C239 1.390 1_565 S
C237 H241 0.950 . S
H238 C234 0.950 . S
C239 C237 1.390 1_545 S
C239 C240 1.387 . S
C239 H242 0.950 . S
C240 C239 1.387 . S
C240 C243 1.387 . S
H241 C237 0.950 . S
H242 C239 0.950 . S
C243 C234 1.390 1_545 S
C243 H236 0.950 . S
C243 C240 1.387 . S
C244 C245 1.387 . S
C244 H248 0.950 . S
C244 C253 1.390 1_455 S
C245 C244 1.387 . S
C245 C247 1.387 . S
H246 C253 0.950 . S
C247 C245 1.387 . S
C247 C249 1.390 1_455 S
C247 H251 0.950 . S
H248 C244 0.950 . S
C249 C247 1.390 1_655 S
C249 C250 1.387 . S
C249 H252 0.950 . S
C250 C249 1.387 . S
C250 C253 1.387 . S
H251 C247 0.950 . S
H252 C249 0.950 . S
C253 C244 1.390 1_655 S
C253 H246 0.950 . S
C253 C250 1.387 . S
C254 C255 1.387 . S
C254 H258 0.950 . S
C254 C263 1.390 1_565 S
C255 C254 1.387 . S
C255 C257 1.387 . S
H256 C263 0.950 . S
C257 C255 1.387 . S
C257 C259 1.390 1_565 S
C257 H261 0.950 . S
H258 C254 0.950 . S
C259 C257 1.390 1_545 S
C259 C260 1.387 . S
C259 H262 0.950 . S
C260 C259 1.387 . S
C260 C263 1.387 . S
H261 C257 0.950 . S
H262 C259 0.950 . S
C263 C254 1.390 1_545 S
C263 H256 0.950 . S
C263 C260 1.387 . S
C264 C265 1.387 . S
C264 H268 0.950 . S
C264 C273 1.390 1_655 S
C265 C264 1.387 . S
C265 C267 1.387 . S
H266 C273 0.950 . S
C267 C265 1.387 . S
C267 C269 1.390 1_655 S
C267 H271 0.950 . S
H268 C264 0.950 . S
C269 C267 1.390 1_455 S
C269 C270 1.387 . S
C269 H272 0.950 . S
C270 C269 1.387 . S
C270 C273 1.387 . S
H271 C267 0.950 . S
H272 C269 0.950 . S
C273 C264 1.390 1_455 S
C273 H266 0.950 . S
C273 C270 1.387 . S
C274 C275 1.387 . S
C274 H278 0.950 . S
C274 C283 1.390 1_545 S
C275 C274 1.387 . S
C275 C277 1.387 . S
H276 C283 0.950 . S
C277 C275 1.387 . S
C277 C279 1.390 1_545 S
C277 H281 0.950 . S
H278 C274 0.950 . S
C279 C277 1.390 1_565 S
C279 C280 1.387 . S
C279 H282 0.950 . S
C280 C279 1.387 . S
C280 C283 1.387 . S
H281 C277 0.950 . S
H282 C279 0.950 . S
C283 C274 1.390 1_565 S
C283 H276 0.950 . S
C283 C280 1.387 . S
C284 C285 1.387 . S
C284 H288 0.950 . S
C284 C293 1.390 1_655 S
C285 C284 1.387 . S
C285 C287 1.387 . S
H286 C293 0.950 . S
C287 C285 1.387 . S
C287 C289 1.390 1_655 S
C287 H291 0.950 . S
H288 C284 0.950 . S
C289 C287 1.390 1_455 S
C289 C290 1.387 . S
C289 H292 0.950 . S
C290 C289 1.387 . S
C290 C293 1.387 . S
H291 C287 0.950 . S
H292 C289 0.950 . S
C293 C284 1.390 1_455 S
C293 H286 0.950 . S
C293 C290 1.387 . S
C294 C295 1.387 . S
C294 H298 0.950 . S
C294 C303 1.390 1_545 S
C295 C294 1.387 . S
C295 C297 1.387 . S
H296 C303 0.950 . S
C297 C295 1.387 . S
C297 C299 1.390 1_545 S
C297 H301 0.950 . S
H298 C294 0.950 . S
C299 C297 1.390 1_565 S
C299 C300 1.387 . S
C299 H302 0.950 . S
C300 C299 1.387 . S
C300 C303 1.387 . S
H301 C297 0.950 . S
H302 C299 0.950 . S
C303 C294 1.390 1_565 S
C303 H296 0.950 . S
C303 C300 1.387 . S
C304 C305 1.387 . S
C304 H308 0.950 . S
C304 C313 1.390 . S
C305 C304 1.387 . S
C305 C307 1.387 . S
H306 C313 0.950 . S
C307 C305 1.387 . S
C307 C309 1.390 . S
C307 H311 0.950 . S
H308 C304 0.950 . S
C309 C307 1.390 . S
C309 C310 1.387 . S
C309 H312 0.950 . S
C310 C309 1.387 . S
C310 C313 1.387 . S
H311 C307 0.950 . S
H312 C309 0.950 . S
C313 C304 1.390 . S
C313 H306 0.950 . S
C313 C310 1.387 . S
C314 C315 1.387 . S
C314 H318 0.950 . S
C314 C323 1.390 . S
C315 C314 1.387 . S
C315 C317 1.387 . S
H316 C323 0.950 . S
C317 C315 1.387 . S
C317 C319 1.390 . S
C317 H321 0.950 . S
H318 C314 0.950 . S
C319 C317 1.390 . S
C319 C320 1.387 . S
C319 H322 0.950 . S
C320 C319 1.387 . S
C320 C323 1.387 . S
H321 C317 0.950 . S
H322 C319 0.950 . S
C323 C314 1.390 . S
C323 H316 0.950 . S
C323 C320 1.387 . S
C324 C325 1.387 . S
C324 H328 0.950 . S
C324 C333 1.390 . S
C325 C324 1.387 . S
C325 C327 1.387 . S
H326 C333 0.950 . S
C327 C325 1.387 . S
C327 C329 1.390 . S
C327 H331 0.950 . S
H328 C324 0.950 . S
C329 C327 1.390 . S
C329 C330 1.387 . S
C329 H332 0.950 . S
C330 C329 1.387 . S
C330 C333 1.387 . S
H331 C327 0.950 . S
H332 C329 0.950 . S
C333 C324 1.390 . S
C333 H326 0.950 . S
C333 C330 1.387 . S
C334 C335 1.387 . S
C334 H338 0.950 . S
C334 C343 1.390 . S
C335 C334 1.387 . S
C335 C337 1.387 . S
H336 C343 0.950 . S
C337 C335 1.387 . S
C337 C339 1.390 . S
C337 H341 0.950 . S
H338 C334 0.950 . S
C339 C337 1.390 . S
C339 C340 1.387 . S
C339 H342 0.950 . S
C340 C339 1.387 . S
C340 C343 1.387 . S
H341 C337 0.950 . S
H342 C339 0.950 . S
C343 C334 1.390 . S
C343 H336 0.950 . S
C343 C340 1.387 . S
C344 C345 1.387 . S
C344 H348 0.950 . S
C344 C353 1.390 . S
C345 C344 1.387 . S
C345 C347 1.387 . S
H346 C353 0.950 . S
C347 C345 1.387 . S
C347 C349 1.390 . S
C347 H351 0.950 . S
H348 C344 0.950 . S
C349 C347 1.390 . S
C349 C350 1.387 . S
C349 H352 0.950 . S
C350 C349 1.387 . S
C350 C353 1.387 . S
H351 C347 0.950 . S
H352 C349 0.950 . S
C353 C344 1.390 . S
C353 H346 0.950 . S
C353 C350 1.387 . S
C354 C355 1.387 . S
C354 H358 0.950 . S
C354 C363 1.390 . S
C355 C354 1.387 . S
C355 C357 1.387 . S
H356 C363 0.950 . S
C357 C355 1.387 . S
C357 C359 1.390 . S
C357 H361 0.950 . S
H358 C354 0.950 . S
C359 C357 1.390 . S
C359 C360 1.387 . S
C359 H362 0.950 . S
C360 C359 1.387 . S
C360 C363 1.387 . S
H361 C357 0.950 . S
H362 C359 0.950 . S
C363 C354 1.390 . S
C363 H356 0.950 . S
C363 C360 1.387 . S
C364 C365 1.387 . S
C364 H368 0.950 . S
C364 C373 1.390 . S
C365 C364 1.387 . S
C365 C367 1.387 . S
H366 C373 0.950 . S
C367 C365 1.387 . S
C367 C369 1.390 . S
C367 H371 0.950 . S
H368 C364 0.950 . S
C369 C367 1.390 . S
C369 C370 1.387 . S
C369 H372 0.950 . S
C370 C369 1.387 . S
C370 C373 1.387 . S
H371 C367 0.950 . S
H372 C369 0.950 . S
C373 C364 1.390 . S
C373 H366 0.950 . S
C373 C370 1.387 . S
C374 C375 1.387 . S
C374 H378 0.950 . S
C374 C383 1.390 . S
C375 C374 1.387 . S
C375 C377 1.387 . S
H376 C383 0.950 . S
C377 C375 1.387 . S
C377 C379 1.390 . S
C377 H381 0.950 . S
H378 C374 0.950 . S
C379 C377 1.390 . S
C379 C380 1.387 . S
C379 H382 0.950 . S
C380 C379 1.387 . S
C380 C383 1.387 . S
H381 C377 0.950 . S
H382 C379 0.950 . S
C383 C374 1.390 . S
C383 H376 0.950 . S
C383 C380 1.387 . S
C384 C385 1.387 . S
C384 H388 0.950 . S
C384 C393 1.390 1_556 S
C385 C384 1.387 . S
C385 C387 1.387 . S
H386 C393 0.950 . S
C387 C385 1.387 . S
C387 C389 1.390 1_556 S
C387 H391 0.950 . S
H388 C384 0.950 . S
C389 C387 1.390 1_554 S
C389 C390 1.387 . S
C389 H392 0.950 . S
C390 C389 1.387 . S
C390 C393 1.387 . S
H391 C387 0.950 . S
H392 C389 0.950 . S
C393 C384 1.390 1_554 S
C393 H386 0.950 . S
C393 C390 1.387 . S
C394 C395 1.387 . S
C394 H398 0.950 . S
C394 C403 1.390 . S
C395 C394 1.387 . S
C395 C397 1.387 . S
H396 C403 0.950 . S
C397 C395 1.387 . S
C397 C399 1.390 . S
C397 H401 0.950 . S
H398 C394 0.950 . S
C399 C397 1.390 . S
C399 C400 1.387 . S
C399 H402 0.950 . S
C400 C399 1.387 . S
C400 C403 1.387 . S
H401 C397 0.950 . S
H402 C399 0.950 . S
C403 C394 1.390 . S
C403 H396 0.950 . S
C403 C400 1.387 . S
C404 C405 1.387 . S
C404 H408 0.950 . S
C404 C413 1.390 1_554 S
C405 C404 1.387 . S
C405 C407 1.387 . S
H406 C413 0.950 . S
C407 C405 1.387 . S
C407 C409 1.390 1_554 S
C407 H411 0.950 . S
H408 C404 0.950 . S
C409 C407 1.390 1_556 S
C409 C410 1.387 . S
C409 H412 0.950 . S
C410 C409 1.387 . S
C410 C413 1.387 . S
H411 C407 0.950 . S
H412 C409 0.950 . S
C413 C404 1.390 1_556 S
C413 H406 0.950 . S
C413 C410 1.387 . S
C414 C415 1.387 . S
C414 H418 0.950 . S
C414 C423 1.390 . S
C415 C414 1.387 . S
C415 C417 1.387 . S
H416 C423 0.950 . S
C417 C415 1.387 . S
C417 C419 1.390 . S
C417 H421 0.950 . S
H418 C414 0.950 . S
C419 C417 1.390 . S
C419 C420 1.387 . S
C419 H422 0.950 . S
C420 C419 1.387 . S
C420 C423 1.387 . S
H421 C417 0.950 . S
H422 C419 0.950 . S
C423 C414 1.390 . S
C423 H416 0.950 . S
C423 C420 1.387 . S
C424 C425 1.387 . S
C424 H428 0.950 . S
C424 C433 1.390 . S
C425 C424 1.387 . S
C425 C427 1.387 . S
H426 C433 0.950 . S
C427 C425 1.387 . S
C427 C429 1.390 . S
C427 H431 0.950 . S
H428 C424 0.950 . S
C429 C427 1.390 . S
C429 C430 1.387 . S
C429 H432 0.950 . S
C430 C429 1.387 . S
C430 C433 1.387 . S
H431 C427 0.950 . S
H432 C429 0.950 . S
C433 C424 1.390 . S
C433 H426 0.950 . S
C433 C430 1.387 . S
C434 C435 1.387 . S
C434 H438 0.950 . S
C434 C443 1.390 1_556 S
C435 C434 1.387 . S
C435 C437 1.387 . S
H436 C443 0.950 . S
C437 C435 1.387 . S
C437 C439 1.390 1_556 S
C437 H441 0.950 . S
H438 C434 0.950 . S
C439 C437 1.390 1_554 S
C439 C440 1.387 . S
C439 H442 0.950 . S
C440 C439 1.387 . S
C440 C443 1.387 . S
H441 C437 0.950 . S
H442 C439 0.950 . S
C443 C434 1.390 1_554 S
C443 H436 0.950 . S
C443 C440 1.387 . S
C444 C445 1.387 . S
C444 H448 0.950 . S
C444 C453 1.390 . S
C445 C444 1.387 . S
C445 C447 1.387 . S
H446 C453 0.950 . S
C447 C445 1.387 . S
C447 C449 1.390 . S
C447 H451 0.950 . S
H448 C444 0.950 . S
C449 C447 1.390 . S
C449 C450 1.387 . S
C449 H452 0.950 . S
C450 C449 1.387 . S
C450 C453 1.387 . S
H451 C447 0.950 . S
H452 C449 0.950 . S
C453 C444 1.390 . S
C453 H446 0.950 . S
C453 C450 1.387 . S
C454 C455 1.387 . S
C454 H458 0.950 . S
C454 C463 1.390 1_554 S
C455 C454 1.387 . S
C455 C457 1.387 . S
H456 C463 0.950 . S
C457 C455 1.387 . S
C457 C459 1.390 1_554 S
C457 H461 0.950 . S
H458 C454 0.950 . S
C459 C457 1.390 1_556 S
C459 C460 1.387 . S
C459 H462 0.950 . S
C460 C459 1.387 . S
C460 C463 1.387 . S
H461 C457 0.950 . S
H462 C459 0.950 . S
C463 C454 1.390 1_556 S
C463 H456 0.950 . S
C463 C460 1.387 . S
C464 C465 1.387 . S
C464 H468 0.950 . S
C464 C473 1.390 . S
C465 C464 1.387 . S
C465 C467 1.387 . S
H466 C473 0.950 . S
C467 C465 1.387 . S
C467 C469 1.390 . S
C467 H471 0.950 . S
H468 C464 0.950 . S
C469 C467 1.390 . S
C469 C470 1.387 . S
C469 H472 0.950 . S
C470 C469 1.387 . S
C470 C473 1.387 . S
H471 C467 0.950 . S
H472 C469 0.950 . S
C473 C464 1.390 . S
C473 H466 0.950 . S
C473 C470 1.387 . S
C474 C475 1.387 . S
C474 H478 0.950 . S
C474 C483 1.390 . S
C475 C474 1.387 . S
C475 C477 1.387 . S
H476 C483 0.950 . S
C477 C475 1.387 . S
C477 C479 1.390 . S
C477 H481 0.950 . S
H478 C474 0.950 . S
C479 C477 1.390 . S
C479 C480 1.387 . S
C479 H482 0.950 . S
C480 C479 1.387 . S
C480 C483 1.387 . S
H481 C477 0.950 . S
H482 C479 0.950 . S
C483 C474 1.390 . S
C483 H476 0.950 . S
C483 C480 1.387 . S
C484 C485 1.387 . S
C484 H488 0.950 . S
C484 C493 1.390 . S
C485 C484 1.387 . S
C485 C487 1.387 . S
H486 C493 0.950 . S
C487 C485 1.387 . S
C487 C489 1.390 . S
C487 H491 0.950 . S
H488 C484 0.950 . S
C489 C487 1.390 . S
C489 C490 1.387 . S
C489 H492 0.950 . S
C490 C489 1.387 . S
C490 C493 1.387 . S
H491 C487 0.950 . S
H492 C489 0.950 . S
C493 C484 1.390 . S
C493 H486 0.950 . S
C493 C490 1.387 . S
C494 C495 1.387 . S
C494 H498 0.950 . S
C494 C503 1.390 . S
C495 C494 1.387 . S
C495 C497 1.387 . S
H496 C503 0.950 . S
C497 C495 1.387 . S
C497 C499 1.390 . S
C497 H501 0.950 . S
H498 C494 0.950 . S
C499 C497 1.390 . S
C499 C500 1.387 . S
C499 H502 0.950 . S
C500 C499 1.387 . S
C500 C503 1.387 . S
H501 C497 0.950 . S
H502 C499 0.950 . S
C503 C494 1.390 . S
C503 H496 0.950 . S
C503 C500 1.387 . S
C504 C505 1.387 . S
C504 H508 0.950 . S
C504 C513 1.390 . S
C505 C504 1.387 . S
C505 C507 1.387 . S
H506 C513 0.950 . S
C507 C505 1.387 . S
C507 C509 1.390 . S
C507 H511 0.950 . S
H508 C504 0.950 . S
C509 C507 1.390 . S
C509 C510 1.387 . S
C509 H512 0.950 . S
C510 C509 1.387 . S
C510 C513 1.387 . S
H511 C507 0.950 . S
H512 C509 0.950 . S
C513 C504 1.390 . S
C513 H506 0.950 . S
C513 C510 1.387 . S
C514 C515 1.387 . S
C514 H518 0.950 . S
C514 C523 1.390 . S
C515 C514 1.387 . S
C515 C517 1.387 . S
H516 C523 0.950 . S
C517 C515 1.387 . S
C517 C519 1.390 . S
C517 H521 0.950 . S
H518 C514 0.950 . S
C519 C517 1.390 . S
C519 C520 1.387 . S
C519 H522 0.950 . S
C520 C519 1.387 . S
C520 C523 1.387 . S
H521 C517 0.950 . S
H522 C519 0.950 . S
C523 C514 1.390 . S
C523 H516 0.950 . S
C523 C520 1.387 . S
C524 C525 1.387 . S
C524 H528 0.950 . S
C524 C533 1.390 . S
C525 C524 1.387 . S
C525 C527 1.387 . S
H526 C533 0.950 . S
C527 C525 1.387 . S
C527 C529 1.390 . S
C527 H531 0.950 . S
H528 C524 0.950 . S
C529 C527 1.390 . S
C529 C530 1.387 . S
C529 H532 0.950 . S
C530 C529 1.387 . S
C530 C533 1.387 . S
H531 C527 0.950 . S
H532 C529 0.950 . S
C533 C524 1.390 . S
C533 H526 0.950 . S
C533 C530 1.387 . S
C534 C535 1.387 . S
C534 H538 0.950 . S
C534 C543 1.390 . S
C535 C534 1.387 . S
C535 C537 1.387 . S
H536 C543 0.950 . S
C537 C535 1.387 . S
C537 C539 1.390 . S
C537 H541 0.950 . S
H538 C534 0.950 . S
C539 C537 1.390 . S
C539 C540 1.387 . S
C539 H542 0.950 . S
C540 C539 1.387 . S
C540 C543 1.387 . S
H541 C537 0.950 . S
H542 C539 0.950 . S
C543 C534 1.390 . S
C543 H536 0.950 . S
C543 C540 1.387 . S
C225 C9 1.313 . S
C230 C37 1.313 . S
C235 C51 1.308 . S
C240 C23 1.308 . S
C245 C65 1.313 . S
C250 C93 1.313 . S
C255 C107 1.308 . S
C260 C79 1.308 . S
C265 C121 1.308 . S
C270 C149 1.308 . S
C275 C163 1.313 . S
C280 C135 1.313 . S
C285 C177 1.308 . S
C290 C205 1.308 . S
C295 C219 1.308 . S
C300 C191 1.308 . S
C305 C63 1.579 . S
C310 C7 1.579 . S
C315 C21 1.579 . S
C320 C77 1.579 . S
C325 C35 1.579 . S
C330 C91 1.579 . S
C335 C105 1.579 . S
C340 C49 1.579 . S
C345 C119 1.578 . S
C350 C175 1.578 . S
C355 C133 1.579 . S
C360 C189 1.579 . S
C365 C147 1.578 . S
C370 C203 1.578 . S
C375 C161 1.579 . S
C380 C217 1.579 . S
C385 C148 1.251 . S
C390 C8 1.255 . S
C395 C162 1.255 . S
C400 C22 1.251 . S
C405 C36 1.252 . S
C410 C120 1.254 . S
C415 C50 1.251 . S
C420 C134 1.255 . S
C425 C64 1.255 . S
C430 C204 1.252 . S
C435 C78 1.251 . S
C440 C218 1.255 . S
C445 C92 1.255 . S
C450 C176 1.251 . S
C455 C190 1.252 . S
C460 C106 1.255 . S
C465 C6 1.463 . S
C470 C216 1.462 . S
C475 C174 1.463 . S
C480 C20 1.462 . S
C485 C34 1.463 . S
C490 C188 1.462 . S
C495 C202 1.463 . S
C500 C48 1.462 . S
C505 C132 1.462 . S
C510 C62 1.463 . S
C515 C76 1.463 . S
C520 C146 1.462 . S
C525 C160 1.463 . S
C530 C90 1.462 . S
C535 C118 1.463 . S
C540 C104 1.462 . S
