# Generated by pormake.
# Topology etd, (3)-cn, num edge types: 1
# Building blocks:
#     Node 0, Type 0, BuildingBlock: WUSLED_clean_sbu_0, # of connection points: 3
#     Node 1, Type 0, BuildingBlock: WUSLED_clean_sbu_0, # of connection points: 3
#     Node 2, Type 0, BuildingBlock: WUSLED_clean_sbu_0, # of connection points: 3
#     Node 3, Type 0, BuildingBlock: WUSLED_clean_sbu_0, # of connection points: 3
#     Node 4, Type 0, BuildingBlock: WUSLED_clean_sbu_0, # of connection points: 3
#     Node 5, Type 0, BuildingBlock: WUSLED_clean_sbu_0, # of connection points: 3
#     Node 6, Type 0, BuildingBlock: WUSLED_clean_sbu_0, # of connection points: 3
#     Node 7, Type 0, BuildingBlock: WUSLED_clean_sbu_0, # of connection points: 3
#     Node 8, Type 0, BuildingBlock: WUSLED_clean_sbu_0, # of connection points: 3
#     Node 9, Type 0, BuildingBlock: WUSLED_clean_sbu_0, # of connection points: 3
#     Node 10, Type 0, BuildingBlock: WUSLED_clean_sbu_0, # of connection points: 3
#     Node 11, Type 0, BuildingBlock: WUSLED_clean_sbu_0, # of connection points: 3
#     Edge 12, Type (0, 0), BuildingBlock: OJICUG_clean_linker_0, # of connection points: 2
#     Edge 13, Type (0, 0), BuildingBlock: OJICUG_clean_linker_0, # of connection points: 2
#     Edge 14, Type (0, 0), BuildingBlock: OJICUG_clean_linker_0, # of connection points: 2
#     Edge 15, Type (0, 0), BuildingBlock: OJICUG_clean_linker_0, # of connection points: 2
#     Edge 16, Type (0, 0), BuildingBlock: OJICUG_clean_linker_0, # of connection points: 2
#     Edge 17, Type (0, 0), BuildingBlock: OJICUG_clean_linker_0, # of connection points: 2
#     Edge 18, Type (0, 0), BuildingBlock: OJICUG_clean_linker_0, # of connection points: 2
#     Edge 19, Type (0, 0), BuildingBlock: OJICUG_clean_linker_0, # of connection points: 2
#     Edge 20, Type (0, 0), BuildingBlock: OJICUG_clean_linker_0, # of connection points: 2
#     Edge 21, Type (0, 0), BuildingBlock: OJICUG_clean_linker_0, # of connection points: 2
#     Edge 22, Type (0, 0), BuildingBlock: OJICUG_clean_linker_0, # of connection points: 2
#     Edge 23, Type (0, 0), BuildingBlock: OJICUG_clean_linker_0, # of connection points: 2
#     Edge 24, Type (0, 0), BuildingBlock: OJICUG_clean_linker_0, # of connection points: 2
#     Edge 25, Type (0, 0), BuildingBlock: OJICUG_clean_linker_0, # of connection points: 2
#     Edge 26, Type (0, 0), BuildingBlock: OJICUG_clean_linker_0, # of connection points: 2
#     Edge 27, Type (0, 0), BuildingBlock: OJICUG_clean_linker_0, # of connection points: 2
#     Edge 28, Type (0, 0), BuildingBlock: OJICUG_clean_linker_0, # of connection points: 2
#     Edge 29, Type (0, 0), BuildingBlock: OJICUG_clean_linker_0, # of connection points: 2
# Relax obj value: 0.000
# Max RMSD: 0.001
# Mean RMSD: 0.001
data_MOF--net-etd--node1-WUSLED_clean_sbu_0--edge1-OJICUG_clean_linker_0
_symmetry_space_group_name_H-M    P1
_symmetry_Int_Tables_number       1
_symmetry_cell_setting            triclinic
loop_
_symmetry_equiv_pos_as_xyz
'x, y, z'
_cell_length_a     73.601659
_cell_length_b     73.746057
_cell_length_c     53.474376
_cell_angle_alpha  89.947009
_cell_angle_beta   90.045528
_cell_angle_gamma 119.94222
loop_
_atom_site_label
_atom_site_type_symbol
_atom_site_fract_x
_atom_site_fract_y
_atom_site_fract_z
_atom_type_partial_charge
C0 C 0.51578 0.18498 0.09976 0.0
C1 C 0.52773 0.19999 0.11791 0.0
C2 C 0.51725 0.22404 0.1006 0.0
C3 C 0.52848 0.21934 0.11831 0.0
C4 C 0.50533 0.20889 0.08242 0.0
C5 C 0.50462 0.18956 0.08203 0.0
U6 U 0.52886 0.14582 0.1289 0.0
O7 O 0.50971 0.11158 0.13318 0.0
O8 O 0.53912 0.1253 0.11189 0.0
C9 C 0.52216 0.10807 0.11891 0.0
C10 C 0.51471 0.1645 0.09935 0.0
C11 C 0.51184 0.09167 0.0997 0.0
C12 C 0.50106 0.08058 0.05674 0.0
C13 C 0.5098 0.09647 0.0748 0.0
C14 C 0.49582 0.05492 0.08841 0.0
C15 C 0.49421 0.05962 0.06327 0.0
C16 C 0.50455 0.07078 0.10638 0.0
C17 C 0.56085 0.16272 0.19041 0.0
C18 C 0.57958 0.14688 0.20966 0.0
C19 C 0.57645 0.17393 0.23157 0.0
C20 C 0.56492 0.17529 0.21163 0.0
C21 C 0.58423 0.15997 0.2307 0.0
C22 C 0.568 0.14827 0.18964 0.0
C23 C 0.54997 0.16575 0.16908 0.0
O24 O 0.53267 0.1651 0.09573 0.0
O25 O 0.50343 0.1515 0.11723 0.0
O26 O 0.52946 0.15393 0.16868 0.0
O27 O 0.55868 0.16779 0.14703 0.0
H28 H 0.53647 0.19673 0.13176 0.0
H29 H 0.53803 0.23069 0.13237 0.0
H30 H 0.49625 0.21181 0.06872 0.0
H31 H 0.49525 0.17813 0.06795 0.0
H32 H 0.50022 0.08479 0.03754 0.0
H33 H 0.5153 0.11251 0.06924 0.0
H34 H 0.49037 0.03895 0.09424 0.0
H35 H 0.50588 0.06673 0.12552 0.0
H36 H 0.58544 0.13606 0.20832 0.0
H37 H 0.57939 0.18395 0.24765 0.0
H38 H 0.55944 0.18645 0.21261 0.0
H39 H 0.56498 0.13839 0.1734 0.0
C40 C 0.3593 0.49972 0.26511 0.0
C41 C 0.3569 0.51327 0.28145 0.0
C42 C 0.32104 0.49998 0.26679 0.0
C43 C 0.33796 0.51345 0.28222 0.0
C44 C 0.32358 0.48641 0.25051 0.0
C45 C 0.34254 0.48632 0.24968 0.0
U46 U 0.4128 0.51352 0.29209 0.0
O47 O 0.42837 0.49469 0.29443 0.0
O48 O 0.44308 0.52413 0.27333 0.0
C49 C 0.44356 0.50703 0.27914 0.0
C50 C 0.37908 0.49928 0.26404 0.0
C51 C 0.44885 0.49677 0.25871 0.0
C52 C 0.45097 0.46683 0.24296 0.0
C53 C 0.44447 0.47597 0.26122 0.0
C54 C 0.46637 0.49901 0.21916 0.0
C55 C 0.46216 0.47827 0.22177 0.0
C56 C 0.45987 0.50816 0.23742 0.0
C57 C 0.42984 0.54458 0.35412 0.0
C58 C 0.46508 0.56612 0.37076 0.0
C59 C 0.43497 0.55533 0.39771 0.0
C60 C 0.42164 0.54457 0.37776 0.0
C61 C 0.45686 0.56642 0.39444 0.0
C62 C 0.45169 0.55524 0.35078 0.0
C63 C 0.41519 0.53407 0.33323 0.0
O64 O 0.39611 0.51742 0.26024 0.0
O65 O 0.38146 0.48802 0.28141 0.0
O66 O 0.40645 0.51359 0.33237 0.0
O67 O 0.42098 0.54302 0.31115 0.0
H68 H 0.36965 0.52365 0.29363 0.0
H69 H 0.33646 0.5239 0.29518 0.0
H70 H 0.31099 0.47602 0.23816 0.0
H71 H 0.34411 0.47577 0.23694 0.0
H72 H 0.44725 0.45076 0.24549 0.0
H73 H 0.43628 0.4668 0.27752 0.0
H74 H 0.47524 0.50844 0.20333 0.0
H75 H 0.46388 0.52432 0.23505 0.0
H76 H 0.48186 0.5743 0.36767 0.0
H77 H 0.42807 0.55545 0.41555 0.0
H78 H 0.40483 0.53651 0.3807 0.0
H79 H 0.45839 0.55537 0.3327 0.0
C80 C 0.88816 0.34151 0.43625 0.0
C81 C 0.87269 0.33863 0.45367 0.0
C82 C 0.84945 0.30352 0.43742 0.0
C83 C 0.8535 0.31983 0.45423 0.0
C84 C 0.86512 0.30655 0.42008 0.0
C85 C 0.88425 0.32536 0.41952 0.0
U86 U 0.92782 0.39461 0.46373 0.0
O87 O 0.96222 0.40973 0.46659 0.0
O88 O 0.94791 0.42487 0.44533 0.0
C89 C 0.96533 0.42511 0.45149 0.0
C90 C 0.90845 0.36113 0.43542 0.0
C91 C 0.9812 0.43041 0.43154 0.0
C92 C 0.99297 0.43959 0.38839 0.0
C93 C 0.9771 0.43286 0.40643 0.0
C94 C 1.01719 0.44106 0.42003 0.0
C95 C 1.01331 0.44402 0.39501 0.0
C96 C 1.00136 0.43441 0.43805 0.0
C97 C 0.91356 0.41171 0.52548 0.0
C98 C 0.92844 0.44696 0.5423 0.0
C99 C 0.90731 0.41704 0.56877 0.0
C100 C 0.90455 0.40363 0.54886 0.0
C101 C 0.91915 0.43888 0.56572 0.0
C102 C 0.92573 0.43349 0.52236 0.0
C103 C 0.90937 0.39706 0.50462 0.0
O104 O 0.90749 0.37825 0.43161 0.0
O105 O 0.92188 0.36329 0.453 0.0
O106 O 0.92094 0.3881 0.50391 0.0
O107 O 0.90649 0.40302 0.4825 0.0
H108 H 0.87544 0.35095 0.46677 0.0
H109 H 0.84175 0.31817 0.46764 0.0
H110 H 0.86273 0.29427 0.40714 0.0
H111 H 0.89607 0.32726 0.40604 0.0
H112 H 0.98944 0.44191 0.3694 0.0
H113 H 0.96176 0.43001 0.40077 0.0
H114 H 1.03253 0.44398 0.42577 0.0
H115 H 1.00498 0.43272 0.45726 0.0
H116 H 0.93784 0.46369 0.53938 0.0
H117 H 0.89969 0.41026 0.5864 0.0
H118 H 0.89505 0.38687 0.55162 0.0
H119 H 0.93293 0.44007 0.50449 0.0
C120 C 0.57507 0.8747 0.5994 0.0
C121 C 0.57352 0.86446 0.62212 0.0
C122 C 0.5735 0.83554 0.59985 0.0
C123 C 0.57283 0.84514 0.62235 0.0
C124 C 0.57477 0.84581 0.57713 0.0
C125 C 0.57558 0.86518 0.57695 0.0
U126 U 0.56342 0.91509 0.62838 0.0
O127 O 0.58302 0.94938 0.63122 0.0
O128 O 0.55303 0.93546 0.61111 0.0
C129 C 0.57025 0.95275 0.61734 0.0
C130 C 0.57614 0.89522 0.59881 0.0
C131 C 0.58013 0.96874 0.59761 0.0
C132 C 0.59169 0.97917 0.5547 0.0
C133 C 0.58315 0.96365 0.57325 0.0
C134 C 0.59462 1.005 0.58483 0.0
C135 C 0.59729 1.00002 0.56021 0.0
C136 C 0.58612 0.98953 0.60328 0.0
C137 C 0.53361 0.90094 0.69154 0.0
C138 C 0.50734 0.90802 0.70944 0.0
C139 C 0.52837 0.89951 0.73658 0.0
C140 C 0.5389 0.89783 0.71574 0.0
C141 C 0.51215 0.90421 0.7337 0.0
C142 C 0.51796 0.90641 0.68858 0.0
C143 C 0.54354 0.89683 0.66986 0.0
O144 O 0.55812 0.89463 0.59591 0.0
O145 O 0.58817 0.90877 0.61585 0.0
O146 O 0.56408 0.90811 0.66839 0.0
O147 O 0.53416 0.89395 0.64809 0.0
H148 H 0.57301 0.87149 0.6397 0.0
H149 H 0.57212 0.8379 0.64022 0.0
H150 H 0.57494 0.83879 0.55942 0.0
H151 H 0.5766 0.87276 0.55921 0.0
H152 H 0.59338 0.97475 0.53592 0.0
H153 H 0.57865 0.94767 0.56851 0.0
H154 H 0.5991 1.02091 0.58988 0.0
H155 H 0.58402 0.99379 0.62201 0.0
H156 H 0.49484 0.91148 0.70646 0.0
H157 H 0.53278 0.89686 0.75497 0.0
H158 H 0.55092 0.89362 0.71852 0.0
H159 H 0.51352 0.9089 0.67013 0.0
C160 C 0.73638 0.56241 0.76863 0.0
C161 C 0.73824 0.54795 0.78395 0.0
C162 C 0.77457 0.56202 0.77072 0.0
C163 C 0.75715 0.54771 0.78493 0.0
C164 C 0.77258 0.57653 0.75552 0.0
C165 C 0.75367 0.57669 0.75449 0.0
U166 U 0.68187 0.54765 0.79338 0.0
O167 O 0.6659 0.56613 0.79507 0.0
O168 O 0.65227 0.53721 0.77302 0.0
C169 C 0.65129 0.55399 0.77904 0.0
C170 C 0.71657 0.56278 0.76704 0.0
C171 C 0.64626 0.56435 0.75848 0.0
C172 C 0.64834 0.59545 0.73951 0.0
C173 C 0.65468 0.58619 0.75788 0.0
C174 C 0.62517 0.56132 0.72186 0.0
C175 C 0.6334 0.58312 0.72135 0.0
C176 C 0.63146 0.55207 0.74023 0.0
C177 C 0.66182 0.5143 0.85384 0.0
C178 C 0.64818 0.51315 0.89574 0.0
C179 C 0.63423 0.48144 0.8712 0.0
C180 C 0.64782 0.49268 0.85162 0.0
C181 C 0.63437 0.49147 0.89363 0.0
C182 C 0.66178 0.52441 0.87612 0.0
C183 C 0.67762 0.52574 0.834 0.0
O184 O 0.69972 0.54473 0.76222 0.0
O185 O 0.71357 0.57348 0.78459 0.0
O186 O 0.68653 0.54627 0.83387 0.0
O187 O 0.67321 0.51758 0.81143 0.0
H188 H 0.72507 0.53686 0.79513 0.0
H189 H 0.75821 0.5365 0.79705 0.0
H190 H 0.78557 0.58759 0.74411 0.0
H191 H 0.75251 0.58794 0.74252 0.0
H192 H 0.65515 0.61229 0.73956 0.0
H193 H 0.66597 0.59615 0.77177 0.0
H194 H 0.61339 0.55128 0.70845 0.0
H195 H 0.62438 0.53519 0.74043 0.0
H196 H 0.64859 0.52143 0.91263 0.0
H197 H 0.62409 0.46471 0.86905 0.0
H198 H 0.64768 0.48428 0.83494 0.0
H199 H 0.67252 0.54099 0.87865 0.0
C200 C 0.20365 0.71845 0.93504 0.0
C201 C 0.21979 0.72091 0.95115 0.0
C202 C 0.24208 0.75669 0.93637 0.0
C203 C 0.23886 0.73983 0.95175 0.0
C204 C 0.22576 0.75412 0.92036 0.0
C205 C 0.20675 0.73517 0.91969 0.0
U206 U 0.16487 0.66533 0.96288 0.0
O207 O 0.13049 0.64928 0.96579 0.0
O208 O 0.14547 0.63472 0.94479 0.0
C209 C 0.12778 0.63372 0.95131 0.0
C210 C 0.18351 0.69863 0.93415 0.0
C211 C 0.1119 0.62768 0.93143 0.0
C212 C 0.09656 0.63612 0.89613 0.0
C213 C 0.11216 0.64237 0.91452 0.0
C214 C 0.08046 0.60046 0.91131 0.0
C215 C 0.08043 0.61507 0.89437 0.0
C216 C 0.09601 0.60672 0.92962 0.0
C217 C 0.17999 0.64951 0.02491 0.0
C218 C 0.16412 0.61447 0.0426 0.0
C219 C 0.18759 0.64444 0.06773 0.0
C220 C 0.19025 0.6577 0.04767 0.0
C221 C 0.1746 0.62263 0.06544 0.0
C222 C 0.16674 0.6278 0.02252 0.0
C223 C 0.18383 0.66394 1.0039 0.0
O224 O 0.18484 0.68169 0.93054 0.0
O225 O 0.16993 0.69626 0.9516 0.0
O226 O 0.17177 0.67236 1.00296 0.0
O227 O 0.18688 0.65795 0.9819 0.0
H228 H 0.21763 0.7082 0.96328 0.0
H229 H 0.25097 0.74135 0.96452 0.0
H230 H 0.22778 0.76668 0.90807 0.0
H231 H 0.19447 0.73356 0.90714 0.0
H232 H 0.09695 0.64782 0.88354 0.0
H233 H 0.12433 0.65865 0.91563 0.0
H234 H 0.06857 0.58408 0.91025 0.0
H235 H 0.09561 0.59513 0.94244 0.0
H236 H 0.15384 0.59778 0.04027 0.0
H237 H 0.19614 0.65126 0.08487 0.0
H238 H 0.20058 0.67441 0.04985 0.0
H239 H 0.15858 0.62117 1.0051 0.0
C240 C 0.8922 0.56235 0.77483 0.0
C241 C 0.87593 0.54832 0.75916 0.0
C242 C 0.85354 0.56184 0.77371 0.0
C243 C 0.85674 0.54802 0.75866 0.0
C244 C 0.86996 0.57587 0.78935 0.0
C245 C 0.88908 0.57609 0.78991 0.0
U246 U 0.93142 0.54773 0.74823 0.0
O247 O 0.9658 0.56666 0.74472 0.0
O248 O 0.95163 0.53803 0.7674 0.0
C249 C 0.96904 0.55468 0.76016 0.0
C250 C 0.91252 0.56297 0.7756 0.0
C251 C 0.98502 0.56555 0.77968 0.0
C252 C 0.99523 0.57954 0.82177 0.0
C253 C 0.97985 0.57021 0.80316 0.0
C254 C 1.02114 0.58006 0.79344 0.0
C255 C 1.01606 0.58444 0.81721 0.0
C256 C 1.00577 0.57071 0.77492 0.0
C257 C 0.91643 0.51352 0.68849 0.0
C258 C 0.93007 0.51244 0.64728 0.0
C259 C 0.90927 0.4803 0.6703 0.0
C260 C 0.90715 0.49164 0.68991 0.0
C261 C 0.9206 0.49051 0.64862 0.0
C262 C 0.92799 0.5238 0.66695 0.0
C263 C 0.9125 0.52511 0.70851 0.0
O264 O 0.91166 0.54508 0.78045 0.0
O265 O 0.9256 0.5735 0.75744 0.0
O266 O 0.92385 0.54566 0.70813 0.0
O267 O 0.90966 0.51729 0.73122 0.0
H268 H 0.8781 0.53766 0.74727 0.0
H269 H 0.84454 0.5372 0.74618 0.0
H270 H 0.86796 0.58654 0.8014 0.0
H271 H 0.90145 0.58701 0.80215 0.0
H272 H 0.9908 0.58292 0.83974 0.0
H273 H 0.96391 0.56643 0.80717 0.0
H274 H 1.03689 0.58331 0.78933 0.0
H275 H 1.01005 0.56718 0.75694 0.0
H276 H 0.93905 0.52083 0.63096 0.0
H277 H 0.90146 0.46341 0.67182 0.0
H278 H 0.89782 0.48317 0.706 0.0
H279 H 0.93517 0.54062 0.66504 0.0
C280 C 0.35944 0.87377 0.94117 0.0
C281 C 0.35743 0.85733 0.92602 0.0
C282 C 0.32103 0.83553 0.93912 0.0
C283 C 0.33843 0.83836 0.92507 0.0
C284 C 0.32312 0.85217 0.95409 0.0
C285 C 0.34215 0.87108 0.95512 0.0
U286 U 0.41393 0.91176 0.91588 0.0
O287 O 0.43106 0.94614 0.91348 0.0
O288 O 0.44402 0.93014 0.9356 0.0
C289 C 0.44577 0.94813 0.9291 0.0
C290 C 0.37944 0.89369 0.94272 0.0
C291 C 0.45162 0.96375 0.9493 0.0
C292 C 0.44376 0.98463 0.97788 0.0
C293 C 0.43737 0.96927 0.95923 0.0
C294 C 0.47858 0.98891 0.97711 0.0
C295 C 0.46446 0.99463 0.98707 0.0
C296 C 0.47222 0.97368 0.95844 0.0
C297 C 0.43148 0.89541 0.85597 0.0
C298 C 0.46149 0.91755 0.82965 0.0
C299 C 0.44319 0.87992 0.82434 0.0
C300 C 0.4294 0.87777 0.84354 0.0
C301 C 0.45942 0.89982 0.81711 0.0
C302 C 0.44767 0.91536 0.849 0.0
C303 C 0.41638 0.89241 0.87585 0.0
O304 O 0.39604 0.89201 0.94769 0.0
O305 O 0.38275 0.90732 0.92493 0.0
O306 O 0.4087 0.90514 0.8756 0.0
O307 O 0.42118 0.88907 0.8984 0.0
H308 H 0.37058 0.85916 0.91497 0.0
H309 H 0.33729 0.826 0.9131 0.0
H310 H 0.31013 0.85046 0.96536 0.0
H311 H 0.34341 0.88358 0.96693 0.0
H312 H 0.43243 0.9885 0.98532 0.0
H313 H 0.42134 0.96177 0.95256 0.0
H314 H 0.4947 0.99646 0.98346 0.0
H315 H 0.48351 0.96974 0.95098 0.0
H316 H 0.47392 0.93308 0.82471 0.0
H317 H 0.44091 0.86596 0.81487 0.0
H318 H 0.41697 0.86225 0.84861 0.0
H319 H 0.44958 0.92919 0.85846 0.0
C320 C 0.51699 0.34122 0.10479 0.0
C321 C 0.52955 0.33843 0.08724 0.0
C322 C 0.51768 0.30323 0.10323 0.0
C323 C 0.5299 0.31961 0.08648 0.0
C324 C 0.50506 0.30617 0.12069 0.0
C325 C 0.50475 0.32498 0.12145 0.0
U326 U 0.5306 0.39463 0.07804 0.0
O327 O 0.51153 0.40999 0.07579 0.0
O328 O 0.54104 0.42476 0.09687 0.0
C329 C 0.52388 0.42518 0.09104 0.0
C330 C 0.51642 0.36089 0.10593 0.0
C331 C 0.51348 0.43042 0.11133 0.0
C332 C 0.51366 0.44363 0.15319 0.0
C333 C 0.52277 0.43697 0.13505 0.0
C334 C 0.48563 0.43709 0.12448 0.0
C335 C 0.49508 0.44399 0.14807 0.0
C336 C 0.49476 0.43048 0.10633 0.0
C337 C 0.56184 0.41222 1.01619 0.0
C338 C 0.58346 0.44759 1.00012 0.0
C339 C 0.57248 0.41787 0.97254 0.0
C340 C 0.56173 0.40433 0.99233 0.0
C341 C 0.58366 0.43967 0.97622 0.0
C342 C 0.57258 0.43399 1.01992 0.0
C343 C 0.55134 0.39737 0.0369 0.0
O344 O 0.53455 0.37792 0.1098 0.0
O345 O 0.50515 0.36326 0.08853 0.0
O346 O 0.5308 0.38851 0.03771 0.0
O347 O 0.56024 0.403 0.05902 0.0
H348 H 0.53911 0.35082 0.0742 0.0
H349 H 0.53998 0.31802 0.07298 0.0
H350 H 0.49519 0.29383 0.1336 0.0
H351 H 0.49487 0.32682 0.13504 0.0
H352 H 0.52157 0.4491 0.17099 0.0
H353 H 0.53734 0.43739 0.1395 0.0
H354 H 0.47118 0.43687 0.11995 0.0
H355 H 0.48731 0.42573 0.08818 0.0
H356 H 0.5917 0.46429 1.00351 0.0
H357 H 0.57252 0.41121 0.95451 0.0
H358 H 0.55359 0.38759 0.98908 0.0
H359 H 0.57278 0.44045 0.03816 0.0
C360 C 0.20327 0.49921 0.27291 0.0
C361 C 0.21966 0.51394 0.25789 0.0
C362 C 0.24184 0.49959 0.27049 0.0
C363 C 0.2388 0.51417 0.25676 0.0
C364 C 0.22527 0.4848 0.28537 0.0
C365 C 0.2062 0.48465 0.28657 0.0
U366 U 0.16371 0.5143 0.2485 0.0
O367 O 0.12924 0.49602 0.24682 0.0
O368 O 0.14475 0.52488 0.26898 0.0
C369 C 0.12691 0.50818 0.26295 0.0
C370 C 0.18313 0.49888 0.27466 0.0
C371 C 0.11158 0.49783 0.28355 0.0
C372 C 0.08257 0.46677 0.30256 0.0
C373 C 0.09806 0.47601 0.28409 0.0
C374 C 0.09387 0.50088 0.32046 0.0
C375 C 0.08019 0.47911 0.32091 0.0
C376 C 0.10929 0.51011 0.30198 0.0
C377 C 0.17743 0.54806 0.18832 0.0
C378 C 0.16243 0.54916 0.14804 0.0
C379 C 0.18569 0.58144 0.16954 0.0
C380 C 0.18789 0.57003 0.18905 0.0
C381 C 0.1731 0.57117 0.14865 0.0
C382 C 0.16458 0.53773 0.16761 0.0
C383 C 0.18154 0.53635 0.20805 0.0
O384 O 0.1844 0.51693 0.27966 0.0
O385 O 0.16938 0.4883 0.25709 0.0
O386 O 0.16977 0.51584 0.20803 0.0
O387 O 0.18528 0.54442 0.23067 0.0
H388 H 0.21766 0.52525 0.24708 0.0
H389 H 0.25113 0.5256 0.2449 0.0
H390 H 0.22714 0.47351 0.2964 0.0
H391 H 0.19374 0.47318 0.29829 0.0
H392 H 0.07245 0.44994 0.30247 0.0
H393 H 0.09921 0.46605 0.27006 0.0
H394 H 0.0923 0.51093 0.33401 0.0
H395 H 0.11919 0.52698 0.30185 0.0
H396 H 0.15247 0.54074 0.13234 0.0
H397 H 0.19443 0.59836 0.17047 0.0
H398 H 0.19821 0.5785 0.20447 0.0
H399 H 0.15646 0.52083 0.16626 0.0
C400 C 0.73256 0.18574 0.44069 0.0
C401 C 0.7359 0.20073 0.42237 0.0
C402 C 0.77056 0.22443 0.4396 0.0
C403 C 0.7547 0.21989 0.42184 0.0
C404 C 0.76708 0.20925 0.45787 0.0
C405 C 0.74826 0.19011 0.45839 0.0
U406 U 0.67958 0.14716 0.41256 0.0
O407 O 0.66309 0.11281 0.40996 0.0
O408 O 0.64869 0.12825 0.43039 0.0
C409 C 0.6476 0.11045 0.42442 0.0
C410 C 0.71275 0.16562 0.44159 0.0
C411 C 0.64124 0.09483 0.44472 0.0
C412 C 0.6488 0.0749 0.4752 0.0
C413 C 0.65557 0.09023 0.45645 0.0
C414 C 0.61343 0.06881 0.47093 0.0
C415 C 0.62763 0.06402 0.4827 0.0
C416 C 0.62017 0.08401 0.45215 0.0
C417 C 0.66478 0.16357 0.35048 0.0
C418 C 0.63038 0.14639 0.33078 0.0
C419 C 0.6596 0.17588 0.31044 0.0
C420 C 0.67272 0.17735 0.33016 0.0
C421 C 0.63819 0.16059 0.31064 0.0
C422 C 0.64358 0.1479 0.3506 0.0
C423 C 0.67883 0.16653 0.3716 0.0
O424 O 0.6958 0.16698 0.44504 0.0
O425 O 0.71043 0.15205 0.42417 0.0
O426 O 0.68664 0.15394 0.37246 0.0
O427 O 0.67277 0.16955 0.39355 0.0
H428 H 0.72391 0.19763 0.40856 0.0
H429 H 0.75669 0.23126 0.4077 0.0
H430 H 0.77902 0.21204 0.4716 0.0
H431 H 0.74598 0.1787 0.47263 0.0
H432 H 0.66018 0.07176 0.48406 0.0
H433 H 0.67195 0.09844 0.45112 0.0
H434 H 0.59699 0.06057 0.47597 0.0
H435 H 0.60884 0.08724 0.44329 0.0
H436 H 0.61396 0.13452 0.33159 0.0
H437 H 0.66623 0.18683 0.29505 0.0
H438 H 0.68907 0.18949 0.32971 0.0
H439 H 0.63718 0.13711 0.36618 0.0
C440 C 0.57477 0.7189 0.60366 0.0
C441 C 0.57324 0.72719 0.5806 0.0
C442 C 0.57315 0.75641 0.60189 0.0
C443 C 0.57254 0.74582 0.57972 0.0
C444 C 0.57436 0.74784 0.62493 0.0
C445 C 0.57521 0.7293 0.62578 0.0
U446 U 0.56251 0.6654 0.57824 0.0
O447 O 0.5825 0.65102 0.57592 0.0
O448 O 0.55349 0.63593 0.598 0.0
C449 C 0.57076 0.63593 0.59163 0.0
C450 C 0.5761 0.6996 0.60505 0.0
C451 C 0.58191 0.6313 0.61153 0.0
C452 C 0.58516 0.62256 0.65468 0.0
C453 C 0.57568 0.62903 0.63674 0.0
C454 C 0.60762 0.62106 0.62273 0.0
C455 C 0.60105 0.61818 0.64784 0.0
C456 C 0.59812 0.62746 0.60482 0.0
C457 C 0.52931 0.64479 0.51772 0.0
C458 C 0.52911 0.63096 0.47622 0.0
C459 C 0.49676 0.61729 0.49957 0.0
C460 C 0.50758 0.63092 0.51927 0.0
C461 C 0.50733 0.61726 0.47767 0.0
C462 C 0.53996 0.64459 0.49597 0.0
C463 C 0.54024 0.66054 0.53774 0.0
O464 O 0.55841 0.6823 0.60973 0.0
O465 O 0.58737 0.69728 0.58761 0.0
O466 O 0.56086 0.67032 0.53786 0.0
O467 O 0.53208 0.65554 0.56028 0.0
H468 H 0.57267 0.71932 0.56328 0.0
H469 H 0.57134 0.75185 0.5617 0.0
H470 H 0.57507 0.75568 0.64232 0.0
H471 H 0.57637 0.72316 0.64375 0.0
H472 H 0.57952 0.62031 0.67376 0.0
H473 H 0.56315 0.63175 0.64256 0.0
H474 H 0.62003 0.61818 0.61682 0.0
H475 H 0.60318 0.629 0.58552 0.0
H476 H 0.53779 0.63125 0.45973 0.0
H477 H 0.47995 0.60724 0.50119 0.0
H478 H 0.49879 0.63091 0.53551 0.0
H479 H 0.55664 0.65523 0.49396 0.0
C480 C 0.61325 0.17876 0.26184 0.0
C481 C 0.59785 0.15981 0.25126 0.0
H482 H 0.63769 0.19382 0.28888 0.0
C483 C 0.59574 0.14095 0.26043 0.0
H484 H 0.61552 0.19359 0.25505 0.0
C485 C 0.60867 0.1411 0.27982 0.0
C486 C 0.62411 0.16011 0.29028 0.0
H487 H 0.58395 0.12607 0.25281 0.0
H488 H 0.60676 0.12635 0.28638 0.0
C489 C 0.62616 0.17891 0.28107 0.0
C490 C 0.47879 0.58317 0.4601 0.0
C491 C 0.49545 0.60363 0.45612 0.0
H492 H 0.45387 0.55528 0.44384 0.0
C493 C 0.50005 0.61128 0.43146 0.0
H494 H 0.47504 0.57662 0.47877 0.0
C495 C 0.48792 0.59902 0.4114 0.0
C496 C 0.47086 0.5788 0.41549 0.0
H497 H 0.51258 0.62706 0.42771 0.0
H498 H 0.49145 0.60569 0.39278 0.0
C499 C 0.46665 0.57092 0.44006 0.0
C500 C 0.91961 0.48329 0.60243 0.0
C501 C 0.92178 0.47819 0.62721 0.0
H502 H 0.91688 0.47486 0.56372 0.0
C503 C 0.92422 0.46069 0.6314 0.0
H504 H 0.91742 0.49649 0.59851 0.0
C505 C 0.9239 0.44828 0.61144 0.0
C506 C 0.92113 0.45304 0.58674 0.0
H507 H 0.92632 0.45652 0.65018 0.0
H508 H 0.92574 0.43488 0.61539 0.0
C509 C 0.9193 0.47088 0.58245 0.0
C510 C 0.49263 0.91855 0.75796 0.0
C511 C 0.49959 0.90397 0.75572 0.0
H512 H 0.47453 0.92871 0.77901 0.0
C513 C 0.49385 0.88859 0.77436 0.0
H514 H 0.4969 0.93073 0.7441 0.0
C515 C 0.48124 0.88757 0.79444 0.0
C516 C 0.47393 0.90186 0.79646 0.0
H517 H 0.49867 0.87694 0.77316 0.0
H518 H 0.47711 0.87546 0.80837 0.0
C519 C 0.47999 0.91753 0.77813 0.0
C520 C 0.58807 0.45015 0.93082 0.0
C521 C 0.59605 0.45391 0.95535 0.0
H522 H 0.59363 0.45923 0.8923 0.0
C523 C 0.61635 0.47081 0.95957 0.0
H524 H 0.57236 0.43749 0.92696 0.0
C525 C 0.62858 0.48325 0.93967 0.0
C526 C 0.62081 0.47914 0.91504 0.0
H527 H 0.6231 0.47399 0.97816 0.0
H528 H 0.64442 0.49565 0.94351 0.0
C529 C 0.60027 0.46261 0.91094 0.0
C530 C 0.17294 0.58994 0.08236 0.0
C531 C 0.17258 0.60858 0.08662 0.0
H532 H 0.17364 0.5637 0.09848 0.0
C533 C 0.17124 0.61418 0.11141 0.0
H534 H 0.17422 0.58528 0.06354 0.0
C535 C 0.17089 0.60181 0.13144 0.0
C536 C 0.17187 0.58349 0.12724 0.0
H537 H 0.17054 0.62823 0.11536 0.0
H538 H 0.16993 0.60665 0.15028 0.0
C539 C 0.17259 0.57756 0.10242 0.0
C540 C 0.51733 0.25367 0.12416 0.0
C541 C 0.51775 0.24453 0.10124 0.0
H542 H 0.51727 0.27931 0.1428 0.0
C543 C 0.51844 0.25504 0.07897 0.0
H544 H 0.51658 0.24596 0.14169 0.0
C545 C 0.51855 0.27408 0.0796 0.0
C546 C 0.51798 0.28314 0.10252 0.0
H547 H 0.51902 0.24862 0.06098 0.0
H548 H 0.51876 0.28154 0.06206 0.0
C549 C 0.51746 0.27271 0.12479 0.0
C550 C 0.28135 0.51872 0.26994 0.0
C551 C 0.26216 0.49976 0.26936 0.0
H552 H 0.3149 0.53369 0.26954 0.0
C553 C 0.26253 0.4809 0.2679 0.0
H554 H 0.28164 0.53352 0.2713 0.0
C555 C 0.28158 0.481 0.26704 0.0
C556 C 0.30077 0.49994 0.26772 0.0
H557 H 0.24807 0.46603 0.26719 0.0
H558 H 0.28126 0.46617 0.26613 0.0
C559 C 0.30042 0.51881 0.26921 0.0
C560 C 0.81927 0.27304 0.41567 0.0
C561 C 0.82906 0.28341 0.438 0.0
H562 H 0.79344 0.24636 0.39862 0.0
C563 C 0.81932 0.2743 0.46086 0.0
H564 H 0.82615 0.27969 0.3977 0.0
C565 C 0.80037 0.25528 0.46138 0.0
C566 C 0.79064 0.24484 0.43905 0.0
H567 H 0.82648 0.2817 0.47844 0.0
H568 H 0.79326 0.24883 0.47933 0.0
C569 C 0.80033 0.25402 0.41619 0.0
C570 C 0.58503 0.79199 0.5834 0.0
C571 C 0.57285 0.77646 0.60101 0.0
H572 H 0.59519 0.82282 0.56956 0.0
C573 C 0.56068 0.78039 0.61805 0.0
H574 H 0.59482 0.7896 0.57025 0.0
C575 C 0.56074 0.79941 0.61755 0.0
C576 C 0.57308 0.81507 0.60009 0.0
H577 H 0.5509 0.76865 0.63163 0.0
H578 H 0.55091 0.80172 0.63071 0.0
C579 C 0.5852 0.81106 0.58299 0.0
C580 C 0.814 0.58079 0.77248 0.0
C581 C 0.79476 0.56189 0.77171 0.0
H582 H 0.84749 0.5956 0.77351 0.0
C583 C 0.79501 0.54294 0.77166 0.0
H584 H 0.81441 0.59567 0.7728 0.0
C585 C 0.81402 0.5429 0.77221 0.0
C586 C 0.83326 0.56181 0.77299 0.0
H587 H 0.7805 0.5281 0.77084 0.0
H588 H 0.81364 0.52802 0.77229 0.0
C589 C 0.83298 0.58074 0.77316 0.0
C590 C 0.2626 0.79609 0.9365 0.0
C591 C 0.26232 0.77689 0.93704 0.0
H592 H 0.2812 0.82954 0.93659 0.0
C593 C 0.28155 0.77714 0.93818 0.0
H594 H 0.24809 0.79648 0.93586 0.0
C595 C 0.30055 0.79611 0.93871 0.0
C596 C 0.30081 0.81532 0.93827 0.0
H597 H 0.28193 0.76265 0.93838 0.0
H598 H 0.31505 0.79573 0.93978 0.0
C599 C 0.28158 0.81506 0.93718 0.0
C600 C 0.4918 1.02718 0.04461 0.0
C601 C 0.48611 0.04277 0.04393 0.0
H602 H 0.48927 0.99976 0.02761 0.0
C603 C 0.47286 0.04218 0.02456 0.0
H604 H 0.50216 1.02725 0.05905 0.0
C605 C 0.46557 1.02642 1.00632 0.0
C606 C 0.47147 1.01098 1.00693 0.0
H607 H 0.46801 0.05382 0.02356 0.0
H608 H 0.45562 1.02658 0.99148 0.0
C609 C 0.48458 1.01152 0.02639 0.0
C610 C 0.48613 0.44791 0.19256 0.0
C611 C 0.48599 0.45216 0.16693 0.0
H612 H 0.47896 0.45286 0.22985 0.0
C613 C 0.47749 0.4647 0.15948 0.0
H614 H 0.49234 0.43815 0.199 0.0
C615 C 0.46956 0.47293 0.17717 0.0
C616 C 0.46992 0.46887 0.20282 0.0
H617 H 0.47732 0.46853 0.13996 0.0
H618 H 0.4631 0.48246 0.1707 0.0
C619 C 0.4782 0.45615 0.21026 0.0
C620 C 0.06699 0.47667 0.36493 0.0
C621 C 0.06324 0.46947 0.34008 0.0
H622 H 0.05433 0.47457 0.40149 0.0
C623 C 1.043 0.45341 0.33357 0.0
H624 H 0.08242 0.48885 0.37069 0.0
C625 C 1.02688 0.44501 0.35137 0.0
C626 C 1.03059 0.45241 0.37615 0.0
H627 H 1.03947 0.44761 0.31457 0.0
H628 H 1.01151 0.43267 0.34568 0.0
C629 C 0.0509 0.46827 0.3827 0.0
C630 C 0.62718 0.03312 0.50374 0.0
C631 C 0.62026 0.04779 0.50275 0.0
H632 H 0.62541 1.00658 0.52256 0.0
C633 C 0.6059 0.04665 0.52087 0.0
H634 H 0.6381 0.03344 0.48994 0.0
C635 C 0.59854 0.03122 0.5394 0.0
C636 C 0.60532 1.01645 0.54036 0.0
H637 H 0.6004 0.0578 0.52085 0.0
H638 H 0.58728 0.0307 0.55282 0.0
C639 C 0.61973 1.01758 0.52227 0.0
C640 C 0.62195 0.60891 0.70894 0.0
C641 C 0.62597 0.59278 0.70232 0.0
H642 H 0.61116 0.62969 0.69706 0.0
C643 C 0.62225 0.58551 0.6775 0.0
H644 H 0.62442 0.61476 0.72793 0.0
C645 C 0.61444 0.59392 0.65987 0.0
C646 C 0.61013 0.60985 0.66654 0.0
H647 H 0.62538 0.57328 0.67165 0.0
H648 H 0.61136 0.58757 0.6411 0.0
C649 C 0.6141 0.61731 0.69129 0.0
C650 C 1.02733 0.58586 0.86199 0.0
C651 C 1.03229 0.59333 0.8373 0.0
H652 H 1.03842 0.58699 0.89928 0.0
C653 C 0.05308 0.6087 0.8318 0.0
H654 H 1.01156 0.5739 0.8669 0.0
C655 C 0.06859 0.61606 0.85035 0.0
C656 C 0.06373 0.60819 0.87489 0.0
H657 H 0.05743 0.61501 0.81307 0.0
H658 H 0.08451 0.62751 0.84527 0.0
C659 C 1.04283 0.59319 0.88051 0.0
loop_
_geom_bond_atom_site_label_1
_geom_bond_atom_site_label_2
_geom_bond_distance
_geom_bond_site_symmetry_2
_ccdc_geom_bond_type
C0 C1 1.264 . S
C0 C5 1.479 . S
C0 C10 1.465 . S
C1 C0 1.264 . S
C1 C3 1.339 . S
C1 H28 0.931 . S
C2 C3 1.395 . S
C2 C4 1.320 . S
C3 C1 1.339 . S
C3 C2 1.395 . S
C3 H29 0.929 . S
C4 C2 1.320 . S
C4 C5 1.405 . S
C4 H30 0.930 . S
C5 C0 1.479 . S
C5 C4 1.405 . S
C5 H31 0.931 . S
U6 O7 2.454 . S
U6 O8 2.458 . S
U6 C9 2.984 . S
U6 C10 2.847 . S
U6 C23 2.882 . S
U6 O24 2.441 . S
U6 O25 2.420 . S
U6 O26 2.455 . S
U6 O27 2.449 . S
O7 U6 2.454 . S
O7 C9 1.353 . S
O8 U6 2.458 . S
O8 C9 1.286 . S
C9 U6 2.984 . S
C9 O7 1.353 . S
C9 O8 1.286 . S
C9 C11 1.363 . S
C10 C0 1.465 . S
C10 U6 2.847 . S
C10 O24 1.249 . S
C10 O25 1.202 . S
C11 C9 1.363 . S
C11 C13 1.408 . S
C11 C16 1.342 . S
C12 C13 1.310 . S
C12 C15 1.461 . S
C12 H32 0.932 . S
C13 C11 1.408 . S
C13 C12 1.310 . S
C13 H33 0.930 . S
C14 C15 1.474 . S
C14 C16 1.285 . S
C14 H34 0.929 . S
C15 C12 1.461 . S
C15 C14 1.474 . S
C16 C11 1.342 . S
C16 C14 1.285 . S
C16 H35 0.930 . S
C17 C20 1.424 . S
C17 C22 1.245 . S
C17 C23 1.428 . S
C18 C21 1.260 . S
C18 C22 1.477 . S
C18 H36 0.932 . S
C19 C20 1.384 . S
C19 C21 1.479 . S
C19 H37 0.929 . S
C20 C17 1.424 . S
C20 C19 1.384 . S
C20 H38 0.928 . S
C21 C18 1.260 . S
C21 C19 1.479 . S
C22 C17 1.245 . S
C22 C18 1.477 . S
C22 H39 0.932 . S
C23 U6 2.882 . S
C23 C17 1.428 . S
C23 O26 1.301 . S
C23 O27 1.282 . S
O24 U6 2.441 . S
O24 C10 1.249 . S
O25 U6 2.420 . S
O25 C10 1.202 . S
O26 U6 2.455 . S
O26 C23 1.301 . S
O27 U6 2.449 . S
O27 C23 1.282 . S
H28 C1 0.931 . S
H29 C3 0.929 . S
H30 C4 0.930 . S
H31 C5 0.931 . S
H32 C12 0.932 . S
H33 C13 0.930 . S
H34 C14 0.929 . S
H35 C16 0.930 . S
H36 C18 0.932 . S
H37 C19 0.929 . S
H38 C20 0.928 . S
H39 C22 0.932 . S
C40 C41 1.264 . S
C40 C45 1.479 . S
C40 C50 1.465 . S
C41 C40 1.264 . S
C41 C43 1.339 . S
C41 H68 0.931 . S
C42 C43 1.395 . S
C42 C44 1.320 . S
C43 C41 1.339 . S
C43 C42 1.395 . S
C43 H69 0.929 . S
C44 C42 1.320 . S
C44 C45 1.405 . S
C44 H70 0.930 . S
C45 C40 1.479 . S
C45 C44 1.405 . S
C45 H71 0.931 . S
U46 O47 2.454 . S
U46 O48 2.458 . S
U46 C49 2.984 . S
U46 C50 2.847 . S
U46 C63 2.882 . S
U46 O64 2.441 . S
U46 O65 2.420 . S
U46 O66 2.455 . S
U46 O67 2.449 . S
O47 U46 2.454 . S
O47 C49 1.353 . S
O48 U46 2.458 . S
O48 C49 1.286 . S
C49 U46 2.984 . S
C49 O47 1.353 . S
C49 O48 1.286 . S
C49 C51 1.363 . S
C50 C40 1.465 . S
C50 U46 2.847 . S
C50 O64 1.249 . S
C50 O65 1.202 . S
C51 C49 1.363 . S
C51 C53 1.408 . S
C51 C56 1.342 . S
C52 C53 1.310 . S
C52 C55 1.461 . S
C52 H72 0.932 . S
C53 C51 1.408 . S
C53 C52 1.310 . S
C53 H73 0.930 . S
C54 C55 1.474 . S
C54 C56 1.285 . S
C54 H74 0.929 . S
C55 C52 1.461 . S
C55 C54 1.474 . S
C56 C51 1.342 . S
C56 C54 1.285 . S
C56 H75 0.930 . S
C57 C60 1.424 . S
C57 C62 1.245 . S
C57 C63 1.428 . S
C58 C61 1.260 . S
C58 C62 1.477 . S
C58 H76 0.932 . S
C59 C60 1.384 . S
C59 C61 1.479 . S
C59 H77 0.929 . S
C60 C57 1.424 . S
C60 C59 1.384 . S
C60 H78 0.928 . S
C61 C58 1.260 . S
C61 C59 1.479 . S
C62 C57 1.245 . S
C62 C58 1.477 . S
C62 H79 0.932 . S
C63 U46 2.882 . S
C63 C57 1.428 . S
C63 O66 1.301 . S
C63 O67 1.282 . S
O64 U46 2.441 . S
O64 C50 1.249 . S
O65 U46 2.420 . S
O65 C50 1.202 . S
O66 U46 2.455 . S
O66 C63 1.301 . S
O67 U46 2.449 . S
O67 C63 1.282 . S
H68 C41 0.931 . S
H69 C43 0.929 . S
H70 C44 0.930 . S
H71 C45 0.931 . S
H72 C52 0.932 . S
H73 C53 0.930 . S
H74 C54 0.929 . S
H75 C56 0.930 . S
H76 C58 0.932 . S
H77 C59 0.929 . S
H78 C60 0.928 . S
H79 C62 0.932 . S
C80 C81 1.264 . S
C80 C85 1.479 . S
C80 C90 1.465 . S
C81 C80 1.264 . S
C81 C83 1.339 . S
C81 H108 0.931 . S
C82 C83 1.395 . S
C82 C84 1.320 . S
C83 C81 1.339 . S
C83 C82 1.395 . S
C83 H109 0.929 . S
C84 C82 1.320 . S
C84 C85 1.405 . S
C84 H110 0.930 . S
C85 C80 1.479 . S
C85 C84 1.405 . S
C85 H111 0.931 . S
U86 O87 2.454 . S
U86 O88 2.458 . S
U86 C89 2.984 . S
U86 C90 2.847 . S
U86 C103 2.882 . S
U86 O104 2.441 . S
U86 O105 2.420 . S
U86 O106 2.455 . S
U86 O107 2.449 . S
O87 U86 2.454 . S
O87 C89 1.353 . S
O88 U86 2.458 . S
O88 C89 1.286 . S
C89 U86 2.984 . S
C89 O87 1.353 . S
C89 O88 1.286 . S
C89 C91 1.363 . S
C90 C80 1.465 . S
C90 U86 2.847 . S
C90 O104 1.249 . S
C90 O105 1.202 . S
C91 C89 1.363 . S
C91 C93 1.408 . S
C91 C96 1.342 . S
C92 C93 1.310 . S
C92 C95 1.461 . S
C92 H112 0.932 . S
C93 C91 1.408 . S
C93 C92 1.310 . S
C93 H113 0.930 . S
C94 C95 1.474 . S
C94 C96 1.285 . S
C94 H114 0.929 . S
C95 C92 1.461 . S
C95 C94 1.474 . S
C96 C91 1.342 . S
C96 C94 1.285 . S
C96 H115 0.930 . S
C97 C100 1.424 . S
C97 C102 1.245 . S
C97 C103 1.428 . S
C98 C101 1.260 . S
C98 C102 1.477 . S
C98 H116 0.932 . S
C99 C100 1.384 . S
C99 C101 1.479 . S
C99 H117 0.929 . S
C100 C97 1.424 . S
C100 C99 1.384 . S
C100 H118 0.928 . S
C101 C98 1.260 . S
C101 C99 1.479 . S
C102 C97 1.245 . S
C102 C98 1.477 . S
C102 H119 0.932 . S
C103 U86 2.882 . S
C103 C97 1.428 . S
C103 O106 1.301 . S
C103 O107 1.282 . S
O104 U86 2.441 . S
O104 C90 1.249 . S
O105 U86 2.420 . S
O105 C90 1.202 . S
O106 U86 2.455 . S
O106 C103 1.301 . S
O107 U86 2.449 . S
O107 C103 1.282 . S
H108 C81 0.931 . S
H109 C83 0.929 . S
H110 C84 0.930 . S
H111 C85 0.931 . S
H112 C92 0.932 . S
H113 C93 0.930 . S
H114 C94 0.929 . S
H115 C96 0.930 . S
H116 C98 0.932 . S
H117 C99 0.929 . S
H118 C100 0.928 . S
H119 C102 0.932 . S
C120 C121 1.264 . S
C120 C125 1.479 . S
C120 C130 1.465 . S
C121 C120 1.264 . S
C121 C123 1.339 . S
C121 H148 0.931 . S
C122 C123 1.395 . S
C122 C124 1.320 . S
C123 C121 1.339 . S
C123 C122 1.395 . S
C123 H149 0.929 . S
C124 C122 1.320 . S
C124 C125 1.405 . S
C124 H150 0.930 . S
C125 C120 1.479 . S
C125 C124 1.405 . S
C125 H151 0.931 . S
U126 O127 2.454 . S
U126 O128 2.458 . S
U126 C129 2.984 . S
U126 C130 2.847 . S
U126 C143 2.882 . S
U126 O144 2.441 . S
U126 O145 2.420 . S
U126 O146 2.455 . S
U126 O147 2.449 . S
O127 U126 2.454 . S
O127 C129 1.353 . S
O128 U126 2.458 . S
O128 C129 1.286 . S
C129 U126 2.984 . S
C129 O127 1.353 . S
C129 O128 1.286 . S
C129 C131 1.363 . S
C130 C120 1.465 . S
C130 U126 2.847 . S
C130 O144 1.249 . S
C130 O145 1.202 . S
C131 C129 1.363 . S
C131 C133 1.408 . S
C131 C136 1.342 . S
C132 C133 1.310 . S
C132 C135 1.461 . S
C132 H152 0.932 . S
C133 C131 1.408 . S
C133 C132 1.310 . S
C133 H153 0.930 . S
C134 C135 1.474 . S
C134 C136 1.285 . S
C134 H154 0.929 . S
C135 C132 1.461 . S
C135 C134 1.474 . S
C136 C131 1.342 . S
C136 C134 1.285 . S
C136 H155 0.930 . S
C137 C140 1.424 . S
C137 C142 1.245 . S
C137 C143 1.428 . S
C138 C141 1.260 . S
C138 C142 1.477 . S
C138 H156 0.932 . S
C139 C140 1.384 . S
C139 C141 1.479 . S
C139 H157 0.929 . S
C140 C137 1.424 . S
C140 C139 1.384 . S
C140 H158 0.928 . S
C141 C138 1.260 . S
C141 C139 1.479 . S
C142 C137 1.245 . S
C142 C138 1.477 . S
C142 H159 0.932 . S
C143 U126 2.882 . S
C143 C137 1.428 . S
C143 O146 1.301 . S
C143 O147 1.282 . S
O144 U126 2.441 . S
O144 C130 1.249 . S
O145 U126 2.420 . S
O145 C130 1.202 . S
O146 U126 2.455 . S
O146 C143 1.301 . S
O147 U126 2.449 . S
O147 C143 1.282 . S
H148 C121 0.931 . S
H149 C123 0.929 . S
H150 C124 0.930 . S
H151 C125 0.931 . S
H152 C132 0.932 . S
H153 C133 0.930 . S
H154 C134 0.929 . S
H155 C136 0.930 . S
H156 C138 0.932 . S
H157 C139 0.929 . S
H158 C140 0.928 . S
H159 C142 0.932 . S
C160 C161 1.264 . S
C160 C165 1.479 . S
C160 C170 1.465 . S
C161 C160 1.264 . S
C161 C163 1.339 . S
C161 H188 0.931 . S
C162 C163 1.395 . S
C162 C164 1.320 . S
C163 C161 1.339 . S
C163 C162 1.395 . S
C163 H189 0.929 . S
C164 C162 1.320 . S
C164 C165 1.405 . S
C164 H190 0.930 . S
C165 C160 1.479 . S
C165 C164 1.405 . S
C165 H191 0.931 . S
U166 O167 2.454 . S
U166 O168 2.458 . S
U166 C169 2.984 . S
U166 C170 2.847 . S
U166 C183 2.882 . S
U166 O184 2.441 . S
U166 O185 2.420 . S
U166 O186 2.455 . S
U166 O187 2.449 . S
O167 U166 2.454 . S
O167 C169 1.353 . S
O168 U166 2.458 . S
O168 C169 1.286 . S
C169 U166 2.984 . S
C169 O167 1.353 . S
C169 O168 1.286 . S
C169 C171 1.363 . S
C170 C160 1.465 . S
C170 U166 2.847 . S
C170 O184 1.249 . S
C170 O185 1.202 . S
C171 C169 1.363 . S
C171 C173 1.408 . S
C171 C176 1.342 . S
C172 C173 1.310 . S
C172 C175 1.461 . S
C172 H192 0.932 . S
C173 C171 1.408 . S
C173 C172 1.310 . S
C173 H193 0.930 . S
C174 C175 1.474 . S
C174 C176 1.285 . S
C174 H194 0.929 . S
C175 C172 1.461 . S
C175 C174 1.474 . S
C176 C171 1.342 . S
C176 C174 1.285 . S
C176 H195 0.930 . S
C177 C180 1.424 . S
C177 C182 1.245 . S
C177 C183 1.428 . S
C178 C181 1.260 . S
C178 C182 1.477 . S
C178 H196 0.932 . S
C179 C180 1.384 . S
C179 C181 1.479 . S
C179 H197 0.929 . S
C180 C177 1.424 . S
C180 C179 1.384 . S
C180 H198 0.928 . S
C181 C178 1.260 . S
C181 C179 1.479 . S
C182 C177 1.245 . S
C182 C178 1.477 . S
C182 H199 0.932 . S
C183 U166 2.882 . S
C183 C177 1.428 . S
C183 O186 1.301 . S
C183 O187 1.282 . S
O184 U166 2.441 . S
O184 C170 1.249 . S
O185 U166 2.420 . S
O185 C170 1.202 . S
O186 U166 2.455 . S
O186 C183 1.301 . S
O187 U166 2.449 . S
O187 C183 1.282 . S
H188 C161 0.931 . S
H189 C163 0.929 . S
H190 C164 0.930 . S
H191 C165 0.931 . S
H192 C172 0.932 . S
H193 C173 0.930 . S
H194 C174 0.929 . S
H195 C176 0.930 . S
H196 C178 0.932 . S
H197 C179 0.929 . S
H198 C180 0.928 . S
H199 C182 0.932 . S
C200 C201 1.264 . S
C200 C205 1.479 . S
C200 C210 1.465 . S
C201 C200 1.264 . S
C201 C203 1.339 . S
C201 H228 0.931 . S
C202 C203 1.395 . S
C202 C204 1.320 . S
C203 C201 1.339 . S
C203 C202 1.395 . S
C203 H229 0.929 . S
C204 C202 1.320 . S
C204 C205 1.405 . S
C204 H230 0.930 . S
C205 C200 1.479 . S
C205 C204 1.405 . S
C205 H231 0.931 . S
U206 O207 2.454 . S
U206 O208 2.458 . S
U206 C209 2.984 . S
U206 C210 2.847 . S
U206 C223 2.882 . S
U206 O224 2.441 . S
U206 O225 2.420 . S
U206 O226 2.455 . S
U206 O227 2.449 . S
O207 U206 2.454 . S
O207 C209 1.353 . S
O208 U206 2.458 . S
O208 C209 1.286 . S
C209 U206 2.984 . S
C209 O207 1.353 . S
C209 O208 1.286 . S
C209 C211 1.363 . S
C210 C200 1.465 . S
C210 U206 2.847 . S
C210 O224 1.249 . S
C210 O225 1.202 . S
C211 C209 1.363 . S
C211 C213 1.408 . S
C211 C216 1.342 . S
C212 C213 1.310 . S
C212 C215 1.461 . S
C212 H232 0.932 . S
C213 C211 1.408 . S
C213 C212 1.310 . S
C213 H233 0.930 . S
C214 C215 1.474 . S
C214 C216 1.285 . S
C214 H234 0.929 . S
C215 C212 1.461 . S
C215 C214 1.474 . S
C216 C211 1.342 . S
C216 C214 1.285 . S
C216 H235 0.930 . S
C217 C220 1.424 . S
C217 C222 1.245 . S
C217 C223 1.428 1_554 S
C218 C221 1.260 . S
C218 C222 1.477 . S
C218 H236 0.932 . S
C219 C220 1.384 . S
C219 C221 1.479 . S
C219 H237 0.929 . S
C220 C217 1.424 . S
C220 C219 1.384 . S
C220 H238 0.928 . S
C221 C218 1.260 . S
C221 C219 1.479 . S
C222 C217 1.245 . S
C222 C218 1.477 . S
C222 H239 0.932 . S
C223 U206 2.882 . S
C223 C217 1.428 1_556 S
C223 O226 1.301 . S
C223 O227 1.282 . S
O224 U206 2.441 . S
O224 C210 1.249 . S
O225 U206 2.420 . S
O225 C210 1.202 . S
O226 U206 2.455 . S
O226 C223 1.301 . S
O227 U206 2.449 . S
O227 C223 1.282 . S
H228 C201 0.931 . S
H229 C203 0.929 . S
H230 C204 0.930 . S
H231 C205 0.931 . S
H232 C212 0.932 . S
H233 C213 0.930 . S
H234 C214 0.929 . S
H235 C216 0.930 . S
H236 C218 0.932 . S
H237 C219 0.929 . S
H238 C220 0.928 . S
H239 C222 0.932 . S
C240 C241 1.264 . S
C240 C245 1.479 . S
C240 C250 1.465 . S
C241 C240 1.264 . S
C241 C243 1.339 . S
C241 H268 0.931 . S
C242 C243 1.395 . S
C242 C244 1.320 . S
C243 C241 1.339 . S
C243 C242 1.395 . S
C243 H269 0.929 . S
C244 C242 1.320 . S
C244 C245 1.405 . S
C244 H270 0.930 . S
C245 C240 1.479 . S
C245 C244 1.405 . S
C245 H271 0.931 . S
U246 O247 2.454 . S
U246 O248 2.458 . S
U246 C249 2.984 . S
U246 C250 2.847 . S
U246 C263 2.882 . S
U246 O264 2.441 . S
U246 O265 2.420 . S
U246 O266 2.455 . S
U246 O267 2.449 . S
O247 U246 2.454 . S
O247 C249 1.353 . S
O248 U246 2.458 . S
O248 C249 1.286 . S
C249 U246 2.984 . S
C249 O247 1.353 . S
C249 O248 1.286 . S
C249 C251 1.363 . S
C250 C240 1.465 . S
C250 U246 2.847 . S
C250 O264 1.249 . S
C250 O265 1.202 . S
C251 C249 1.363 . S
C251 C253 1.408 . S
C251 C256 1.342 . S
C252 C253 1.310 . S
C252 C255 1.461 . S
C252 H272 0.932 . S
C253 C251 1.408 . S
C253 C252 1.310 . S
C253 H273 0.930 . S
C254 C255 1.474 . S
C254 C256 1.285 . S
C254 H274 0.929 . S
C255 C252 1.461 . S
C255 C254 1.474 . S
C256 C251 1.342 . S
C256 C254 1.285 . S
C256 H275 0.930 . S
C257 C260 1.424 . S
C257 C262 1.245 . S
C257 C263 1.428 . S
C258 C261 1.260 . S
C258 C262 1.477 . S
C258 H276 0.932 . S
C259 C260 1.384 . S
C259 C261 1.479 . S
C259 H277 0.929 . S
C260 C257 1.424 . S
C260 C259 1.384 . S
C260 H278 0.928 . S
C261 C258 1.260 . S
C261 C259 1.479 . S
C262 C257 1.245 . S
C262 C258 1.477 . S
C262 H279 0.932 . S
C263 U246 2.882 . S
C263 C257 1.428 . S
C263 O266 1.301 . S
C263 O267 1.282 . S
O264 U246 2.441 . S
O264 C250 1.249 . S
O265 U246 2.420 . S
O265 C250 1.202 . S
O266 U246 2.455 . S
O266 C263 1.301 . S
O267 U246 2.449 . S
O267 C263 1.282 . S
H268 C241 0.931 . S
H269 C243 0.929 . S
H270 C244 0.930 . S
H271 C245 0.931 . S
H272 C252 0.932 . S
H273 C253 0.930 . S
H274 C254 0.929 . S
H275 C256 0.930 . S
H276 C258 0.932 . S
H277 C259 0.929 . S
H278 C260 0.928 . S
H279 C262 0.932 . S
C280 C281 1.264 . S
C280 C285 1.479 . S
C280 C290 1.465 . S
C281 C280 1.264 . S
C281 C283 1.339 . S
C281 H308 0.931 . S
C282 C283 1.395 . S
C282 C284 1.320 . S
C283 C281 1.339 . S
C283 C282 1.395 . S
C283 H309 0.929 . S
C284 C282 1.320 . S
C284 C285 1.405 . S
C284 H310 0.930 . S
C285 C280 1.479 . S
C285 C284 1.405 . S
C285 H311 0.931 . S
U286 O287 2.454 . S
U286 O288 2.458 . S
U286 C289 2.984 . S
U286 C290 2.847 . S
U286 C303 2.882 . S
U286 O304 2.441 . S
U286 O305 2.420 . S
U286 O306 2.455 . S
U286 O307 2.449 . S
O287 U286 2.454 . S
O287 C289 1.353 . S
O288 U286 2.458 . S
O288 C289 1.286 . S
C289 U286 2.984 . S
C289 O287 1.353 . S
C289 O288 1.286 . S
C289 C291 1.363 . S
C290 C280 1.465 . S
C290 U286 2.847 . S
C290 O304 1.249 . S
C290 O305 1.202 . S
C291 C289 1.363 . S
C291 C293 1.408 . S
C291 C296 1.342 . S
C292 C293 1.310 . S
C292 C295 1.461 . S
C292 H312 0.932 . S
C293 C291 1.408 . S
C293 C292 1.310 . S
C293 H313 0.930 . S
C294 C295 1.474 . S
C294 C296 1.285 . S
C294 H314 0.929 . S
C295 C292 1.461 . S
C295 C294 1.474 . S
C296 C291 1.342 . S
C296 C294 1.285 . S
C296 H315 0.930 . S
C297 C300 1.424 . S
C297 C302 1.245 . S
C297 C303 1.428 . S
C298 C301 1.260 . S
C298 C302 1.477 . S
C298 H316 0.932 . S
C299 C300 1.384 . S
C299 C301 1.479 . S
C299 H317 0.929 . S
C300 C297 1.424 . S
C300 C299 1.384 . S
C300 H318 0.928 . S
C301 C298 1.260 . S
C301 C299 1.479 . S
C302 C297 1.245 . S
C302 C298 1.477 . S
C302 H319 0.932 . S
C303 U286 2.882 . S
C303 C297 1.428 . S
C303 O306 1.301 . S
C303 O307 1.282 . S
O304 U286 2.441 . S
O304 C290 1.249 . S
O305 U286 2.420 . S
O305 C290 1.202 . S
O306 U286 2.455 . S
O306 C303 1.301 . S
O307 U286 2.449 . S
O307 C303 1.282 . S
H308 C281 0.931 . S
H309 C283 0.929 . S
H310 C284 0.930 . S
H311 C285 0.931 . S
H312 C292 0.932 . S
H313 C293 0.930 . S
H314 C294 0.929 . S
H315 C296 0.930 . S
H316 C298 0.932 . S
H317 C299 0.929 . S
H318 C300 0.928 . S
H319 C302 0.932 . S
C320 C321 1.264 . S
C320 C325 1.479 . S
C320 C330 1.465 . S
C321 C320 1.264 . S
C321 C323 1.339 . S
C321 H348 0.931 . S
C322 C323 1.395 . S
C322 C324 1.320 . S
C323 C321 1.339 . S
C323 C322 1.395 . S
C323 H349 0.929 . S
C324 C322 1.320 . S
C324 C325 1.405 . S
C324 H350 0.930 . S
C325 C320 1.479 . S
C325 C324 1.405 . S
C325 H351 0.931 . S
U326 O327 2.454 . S
U326 O328 2.458 . S
U326 C329 2.984 . S
U326 C330 2.847 . S
U326 C343 2.882 . S
U326 O344 2.441 . S
U326 O345 2.420 . S
U326 O346 2.455 . S
U326 O347 2.449 . S
O327 U326 2.454 . S
O327 C329 1.353 . S
O328 U326 2.458 . S
O328 C329 1.286 . S
C329 U326 2.984 . S
C329 O327 1.353 . S
C329 O328 1.286 . S
C329 C331 1.363 . S
C330 C320 1.465 . S
C330 U326 2.847 . S
C330 O344 1.249 . S
C330 O345 1.202 . S
C331 C329 1.363 . S
C331 C333 1.408 . S
C331 C336 1.342 . S
C332 C333 1.310 . S
C332 C335 1.461 . S
C332 H352 0.932 . S
C333 C331 1.408 . S
C333 C332 1.310 . S
C333 H353 0.930 . S
C334 C335 1.474 . S
C334 C336 1.285 . S
C334 H354 0.929 . S
C335 C332 1.461 . S
C335 C334 1.474 . S
C336 C331 1.342 . S
C336 C334 1.285 . S
C336 H355 0.930 . S
C337 C340 1.424 . S
C337 C342 1.245 . S
C337 C343 1.428 1_556 S
C338 C341 1.260 . S
C338 C342 1.477 . S
C338 H356 0.932 . S
C339 C340 1.384 . S
C339 C341 1.479 . S
C339 H357 0.929 . S
C340 C337 1.424 . S
C340 C339 1.384 . S
C340 H358 0.928 . S
C341 C338 1.260 . S
C341 C339 1.479 . S
C342 C337 1.245 . S
C342 C338 1.477 . S
C342 H359 0.932 . S
C343 U326 2.882 . S
C343 C337 1.428 1_554 S
C343 O346 1.301 . S
C343 O347 1.282 . S
O344 U326 2.441 . S
O344 C330 1.249 . S
O345 U326 2.420 . S
O345 C330 1.202 . S
O346 U326 2.455 . S
O346 C343 1.301 . S
O347 U326 2.449 . S
O347 C343 1.282 . S
H348 C321 0.931 . S
H349 C323 0.929 . S
H350 C324 0.930 . S
H351 C325 0.931 . S
H352 C332 0.932 . S
H353 C333 0.930 . S
H354 C334 0.929 . S
H355 C336 0.930 . S
H356 C338 0.932 . S
H357 C339 0.929 . S
H358 C340 0.928 . S
H359 C342 0.932 . S
C360 C361 1.264 . S
C360 C365 1.479 . S
C360 C370 1.465 . S
C361 C360 1.264 . S
C361 C363 1.339 . S
C361 H388 0.931 . S
C362 C363 1.395 . S
C362 C364 1.320 . S
C363 C361 1.339 . S
C363 C362 1.395 . S
C363 H389 0.929 . S
C364 C362 1.320 . S
C364 C365 1.405 . S
C364 H390 0.930 . S
C365 C360 1.479 . S
C365 C364 1.405 . S
C365 H391 0.931 . S
U366 O367 2.454 . S
U366 O368 2.458 . S
U366 C369 2.984 . S
U366 C370 2.847 . S
U366 C383 2.882 . S
U366 O384 2.441 . S
U366 O385 2.420 . S
U366 O386 2.455 . S
U366 O387 2.449 . S
O367 U366 2.454 . S
O367 C369 1.353 . S
O368 U366 2.458 . S
O368 C369 1.286 . S
C369 U366 2.984 . S
C369 O367 1.353 . S
C369 O368 1.286 . S
C369 C371 1.363 . S
C370 C360 1.465 . S
C370 U366 2.847 . S
C370 O384 1.249 . S
C370 O385 1.202 . S
C371 C369 1.363 . S
C371 C373 1.408 . S
C371 C376 1.342 . S
C372 C373 1.310 . S
C372 C375 1.461 . S
C372 H392 0.932 . S
C373 C371 1.408 . S
C373 C372 1.310 . S
C373 H393 0.930 . S
C374 C375 1.474 . S
C374 C376 1.285 . S
C374 H394 0.929 . S
C375 C372 1.461 . S
C375 C374 1.474 . S
C376 C371 1.342 . S
C376 C374 1.285 . S
C376 H395 0.930 . S
C377 C380 1.424 . S
C377 C382 1.245 . S
C377 C383 1.428 . S
C378 C381 1.260 . S
C378 C382 1.477 . S
C378 H396 0.932 . S
C379 C380 1.384 . S
C379 C381 1.479 . S
C379 H397 0.929 . S
C380 C377 1.424 . S
C380 C379 1.384 . S
C380 H398 0.928 . S
C381 C378 1.260 . S
C381 C379 1.479 . S
C382 C377 1.245 . S
C382 C378 1.477 . S
C382 H399 0.932 . S
C383 U366 2.882 . S
C383 C377 1.428 . S
C383 O386 1.301 . S
C383 O387 1.282 . S
O384 U366 2.441 . S
O384 C370 1.249 . S
O385 U366 2.420 . S
O385 C370 1.202 . S
O386 U366 2.455 . S
O386 C383 1.301 . S
O387 U366 2.449 . S
O387 C383 1.282 . S
H388 C361 0.931 . S
H389 C363 0.929 . S
H390 C364 0.930 . S
H391 C365 0.931 . S
H392 C372 0.932 . S
H393 C373 0.930 . S
H394 C374 0.929 . S
H395 C376 0.930 . S
H396 C378 0.932 . S
H397 C379 0.929 . S
H398 C380 0.928 . S
H399 C382 0.932 . S
C400 C401 1.264 . S
C400 C405 1.479 . S
C400 C410 1.465 . S
C401 C400 1.264 . S
C401 C403 1.339 . S
C401 H428 0.931 . S
C402 C403 1.395 . S
C402 C404 1.320 . S
C403 C401 1.339 . S
C403 C402 1.395 . S
C403 H429 0.929 . S
C404 C402 1.320 . S
C404 C405 1.405 . S
C404 H430 0.930 . S
C405 C400 1.479 . S
C405 C404 1.405 . S
C405 H431 0.931 . S
U406 O407 2.454 . S
U406 O408 2.458 . S
U406 C409 2.984 . S
U406 C410 2.847 . S
U406 C423 2.882 . S
U406 O424 2.441 . S
U406 O425 2.420 . S
U406 O426 2.455 . S
U406 O427 2.449 . S
O407 U406 2.454 . S
O407 C409 1.353 . S
O408 U406 2.458 . S
O408 C409 1.286 . S
C409 U406 2.984 . S
C409 O407 1.353 . S
C409 O408 1.286 . S
C409 C411 1.363 . S
C410 C400 1.465 . S
C410 U406 2.847 . S
C410 O424 1.249 . S
C410 O425 1.202 . S
C411 C409 1.363 . S
C411 C413 1.408 . S
C411 C416 1.342 . S
C412 C413 1.310 . S
C412 C415 1.461 . S
C412 H432 0.932 . S
C413 C411 1.408 . S
C413 C412 1.310 . S
C413 H433 0.930 . S
C414 C415 1.474 . S
C414 C416 1.285 . S
C414 H434 0.929 . S
C415 C412 1.461 . S
C415 C414 1.474 . S
C416 C411 1.342 . S
C416 C414 1.285 . S
C416 H435 0.930 . S
C417 C420 1.424 . S
C417 C422 1.245 . S
C417 C423 1.428 . S
C418 C421 1.260 . S
C418 C422 1.477 . S
C418 H436 0.932 . S
C419 C420 1.384 . S
C419 C421 1.479 . S
C419 H437 0.929 . S
C420 C417 1.424 . S
C420 C419 1.384 . S
C420 H438 0.928 . S
C421 C418 1.260 . S
C421 C419 1.479 . S
C422 C417 1.245 . S
C422 C418 1.477 . S
C422 H439 0.932 . S
C423 U406 2.882 . S
C423 C417 1.428 . S
C423 O426 1.301 . S
C423 O427 1.282 . S
O424 U406 2.441 . S
O424 C410 1.249 . S
O425 U406 2.420 . S
O425 C410 1.202 . S
O426 U406 2.455 . S
O426 C423 1.301 . S
O427 U406 2.449 . S
O427 C423 1.282 . S
H428 C401 0.931 . S
H429 C403 0.929 . S
H430 C404 0.930 . S
H431 C405 0.931 . S
H432 C412 0.932 . S
H433 C413 0.930 . S
H434 C414 0.929 . S
H435 C416 0.930 . S
H436 C418 0.932 . S
H437 C419 0.929 . S
H438 C420 0.928 . S
H439 C422 0.932 . S
C440 C441 1.264 . S
C440 C445 1.479 . S
C440 C450 1.465 . S
C441 C440 1.264 . S
C441 C443 1.339 . S
C441 H468 0.931 . S
C442 C443 1.395 . S
C442 C444 1.320 . S
C443 C441 1.339 . S
C443 C442 1.395 . S
C443 H469 0.929 . S
C444 C442 1.320 . S
C444 C445 1.405 . S
C444 H470 0.930 . S
C445 C440 1.479 . S
C445 C444 1.405 . S
C445 H471 0.931 . S
U446 O447 2.454 . S
U446 O448 2.458 . S
U446 C449 2.984 . S
U446 C450 2.847 . S
U446 C463 2.882 . S
U446 O464 2.441 . S
U446 O465 2.420 . S
U446 O466 2.455 . S
U446 O467 2.449 . S
O447 U446 2.454 . S
O447 C449 1.353 . S
O448 U446 2.458 . S
O448 C449 1.286 . S
C449 U446 2.984 . S
C449 O447 1.353 . S
C449 O448 1.286 . S
C449 C451 1.363 . S
C450 C440 1.465 . S
C450 U446 2.847 . S
C450 O464 1.249 . S
C450 O465 1.202 . S
C451 C449 1.363 . S
C451 C453 1.408 . S
C451 C456 1.342 . S
C452 C453 1.310 . S
C452 C455 1.461 . S
C452 H472 0.932 . S
C453 C451 1.408 . S
C453 C452 1.310 . S
C453 H473 0.930 . S
C454 C455 1.474 . S
C454 C456 1.285 . S
C454 H474 0.929 . S
C455 C452 1.461 . S
C455 C454 1.474 . S
C456 C451 1.342 . S
C456 C454 1.285 . S
C456 H475 0.930 . S
C457 C460 1.424 . S
C457 C462 1.245 . S
C457 C463 1.428 . S
C458 C461 1.260 . S
C458 C462 1.477 . S
C458 H476 0.932 . S
C459 C460 1.384 . S
C459 C461 1.479 . S
C459 H477 0.929 . S
C460 C457 1.424 . S
C460 C459 1.384 . S
C460 H478 0.928 . S
C461 C458 1.260 . S
C461 C459 1.479 . S
C462 C457 1.245 . S
C462 C458 1.477 . S
C462 H479 0.932 . S
C463 U446 2.882 . S
C463 C457 1.428 . S
C463 O466 1.301 . S
C463 O467 1.282 . S
O464 U446 2.441 . S
O464 C450 1.249 . S
O465 U446 2.420 . S
O465 C450 1.202 . S
O466 U446 2.455 . S
O466 C463 1.301 . S
O467 U446 2.449 . S
O467 C463 1.282 . S
H468 C441 0.931 . S
H469 C443 0.929 . S
H470 C444 0.930 . S
H471 C445 0.931 . S
H472 C452 0.932 . S
H473 C453 0.930 . S
H474 C454 0.929 . S
H475 C456 0.930 . S
H476 C458 0.932 . S
H477 C459 0.929 . S
H478 C460 0.928 . S
H479 C462 0.932 . S
C480 C481 1.387 . S
C480 H484 0.950 . S
C480 C489 1.390 . S
C481 C480 1.387 . S
C481 C483 1.387 . S
H482 C489 0.950 . S
C483 C481 1.387 . S
C483 C485 1.390 . S
C483 H487 0.950 . S
H484 C480 0.950 . S
C485 C483 1.390 . S
C485 C486 1.387 . S
C485 H488 0.950 . S
C486 C485 1.387 . S
C486 C489 1.387 . S
H487 C483 0.950 . S
H488 C485 0.950 . S
C489 C480 1.390 . S
C489 H482 0.950 . S
C489 C486 1.387 . S
C490 C491 1.387 . S
C490 H494 0.950 . S
C490 C499 1.390 . S
C491 C490 1.387 . S
C491 C493 1.387 . S
H492 C499 0.950 . S
C493 C491 1.387 . S
C493 C495 1.390 . S
C493 H497 0.950 . S
H494 C490 0.950 . S
C495 C493 1.390 . S
C495 C496 1.387 . S
C495 H498 0.950 . S
C496 C495 1.387 . S
C496 C499 1.387 . S
H497 C493 0.950 . S
H498 C495 0.950 . S
C499 C490 1.390 . S
C499 H492 0.950 . S
C499 C496 1.387 . S
C500 C501 1.387 . S
C500 H504 0.950 . S
C500 C509 1.390 . S
C501 C500 1.387 . S
C501 C503 1.387 . S
H502 C509 0.950 . S
C503 C501 1.387 . S
C503 C505 1.390 . S
C503 H507 0.950 . S
H504 C500 0.950 . S
C505 C503 1.390 . S
C505 C506 1.387 . S
C505 H508 0.950 . S
C506 C505 1.387 . S
C506 C509 1.387 . S
H507 C503 0.950 . S
H508 C505 0.950 . S
C509 C500 1.390 . S
C509 H502 0.950 . S
C509 C506 1.387 . S
C510 C511 1.387 . S
C510 H514 0.950 . S
C510 C519 1.390 . S
C511 C510 1.387 . S
C511 C513 1.387 . S
H512 C519 0.950 . S
C513 C511 1.387 . S
C513 C515 1.390 . S
C513 H517 0.950 . S
H514 C510 0.950 . S
C515 C513 1.390 . S
C515 C516 1.387 . S
C515 H518 0.950 . S
C516 C515 1.387 . S
C516 C519 1.387 . S
H517 C513 0.950 . S
H518 C515 0.950 . S
C519 C510 1.390 . S
C519 H512 0.950 . S
C519 C516 1.387 . S
C520 C521 1.387 . S
C520 H524 0.950 . S
C520 C529 1.390 . S
C521 C520 1.387 . S
C521 C523 1.387 . S
H522 C529 0.950 . S
C523 C521 1.387 . S
C523 C525 1.390 . S
C523 H527 0.950 . S
H524 C520 0.950 . S
C525 C523 1.390 . S
C525 C526 1.387 . S
C525 H528 0.950 . S
C526 C525 1.387 . S
C526 C529 1.387 . S
H527 C523 0.950 . S
H528 C525 0.950 . S
C529 C520 1.390 . S
C529 H522 0.950 . S
C529 C526 1.387 . S
C530 C531 1.387 . S
C530 H534 0.950 . S
C530 C539 1.390 . S
C531 C530 1.387 . S
C531 C533 1.387 . S
H532 C539 0.950 . S
C533 C531 1.387 . S
C533 C535 1.390 . S
C533 H537 0.950 . S
H534 C530 0.950 . S
C535 C533 1.390 . S
C535 C536 1.387 . S
C535 H538 0.950 . S
C536 C535 1.387 . S
C536 C539 1.387 . S
H537 C533 0.950 . S
H538 C535 0.950 . S
C539 C530 1.390 . S
C539 H532 0.950 . S
C539 C536 1.387 . S
C540 C541 1.387 . S
C540 H544 0.950 . S
C540 C549 1.390 . S
C541 C540 1.387 . S
C541 C543 1.387 . S
H542 C549 0.950 . S
C543 C541 1.387 . S
C543 C545 1.390 . S
C543 H547 0.950 . S
H544 C540 0.950 . S
C545 C543 1.390 . S
C545 C546 1.387 . S
C545 H548 0.950 . S
C546 C545 1.387 . S
C546 C549 1.387 . S
H547 C543 0.950 . S
H548 C545 0.950 . S
C549 C540 1.390 . S
C549 H542 0.950 . S
C549 C546 1.387 . S
C550 C551 1.387 . S
C550 H554 0.950 . S
C550 C559 1.390 . S
C551 C550 1.387 . S
C551 C553 1.387 . S
H552 C559 0.950 . S
C553 C551 1.387 . S
C553 C555 1.390 . S
C553 H557 0.950 . S
H554 C550 0.950 . S
C555 C553 1.390 . S
C555 C556 1.387 . S
C555 H558 0.950 . S
C556 C555 1.387 . S
C556 C559 1.387 . S
H557 C553 0.950 . S
H558 C555 0.950 . S
C559 C550 1.390 . S
C559 H552 0.950 . S
C559 C556 1.387 . S
C560 C561 1.387 . S
C560 H564 0.950 . S
C560 C569 1.390 . S
C561 C560 1.387 . S
C561 C563 1.387 . S
H562 C569 0.950 . S
C563 C561 1.387 . S
C563 C565 1.390 . S
C563 H567 0.950 . S
H564 C560 0.950 . S
C565 C563 1.390 . S
C565 C566 1.387 . S
C565 H568 0.950 . S
C566 C565 1.387 . S
C566 C569 1.387 . S
H567 C563 0.950 . S
H568 C565 0.950 . S
C569 C560 1.390 . S
C569 H562 0.950 . S
C569 C566 1.387 . S
C570 C571 1.387 . S
C570 H574 0.950 . S
C570 C579 1.390 . S
C571 C570 1.387 . S
C571 C573 1.387 . S
H572 C579 0.950 . S
C573 C571 1.387 . S
C573 C575 1.390 . S
C573 H577 0.950 . S
H574 C570 0.950 . S
C575 C573 1.390 . S
C575 C576 1.387 . S
C575 H578 0.950 . S
C576 C575 1.387 . S
C576 C579 1.387 . S
H577 C573 0.950 . S
H578 C575 0.950 . S
C579 C570 1.390 . S
C579 H572 0.950 . S
C579 C576 1.387 . S
C580 C581 1.387 . S
C580 H584 0.950 . S
C580 C589 1.390 . S
C581 C580 1.387 . S
C581 C583 1.387 . S
H582 C589 0.950 . S
C583 C581 1.387 . S
C583 C585 1.390 . S
C583 H587 0.950 . S
H584 C580 0.950 . S
C585 C583 1.390 . S
C585 C586 1.387 . S
C585 H588 0.950 . S
C586 C585 1.387 . S
C586 C589 1.387 . S
H587 C583 0.950 . S
H588 C585 0.950 . S
C589 C580 1.390 . S
C589 H582 0.950 . S
C589 C586 1.387 . S
C590 C591 1.387 . S
C590 H594 0.950 . S
C590 C599 1.390 . S
C591 C590 1.387 . S
C591 C593 1.387 . S
H592 C599 0.950 . S
C593 C591 1.387 . S
C593 C595 1.390 . S
C593 H597 0.950 . S
H594 C590 0.950 . S
C595 C593 1.390 . S
C595 C596 1.387 . S
C595 H598 0.950 . S
C596 C595 1.387 . S
C596 C599 1.387 . S
H597 C593 0.950 . S
H598 C595 0.950 . S
C599 C590 1.390 . S
C599 H592 0.950 . S
C599 C596 1.387 . S
C600 C601 1.387 . S
C600 H604 0.950 . S
C600 C609 1.390 1_544 S
C601 C600 1.387 . S
C601 C603 1.387 . S
H602 C609 0.950 . S
C603 C601 1.387 . S
C603 C605 1.390 1_544 S
C603 H607 0.950 . S
H604 C600 0.950 . S
C605 C603 1.390 1_566 S
C605 C606 1.387 . S
C605 H608 0.950 . S
C606 C605 1.387 . S
C606 C609 1.387 . S
H607 C603 0.950 . S
H608 C605 0.950 . S
C609 C600 1.390 1_566 S
C609 H602 0.950 . S
C609 C606 1.387 . S
C610 C611 1.387 . S
C610 H614 0.950 . S
C610 C619 1.390 . S
C611 C610 1.387 . S
C611 C613 1.387 . S
H612 C619 0.950 . S
C613 C611 1.387 . S
C613 C615 1.390 . S
C613 H617 0.950 . S
H614 C610 0.950 . S
C615 C613 1.390 . S
C615 C616 1.387 . S
C615 H618 0.950 . S
C616 C615 1.387 . S
C616 C619 1.387 . S
H617 C613 0.950 . S
H618 C615 0.950 . S
C619 C610 1.390 . S
C619 H612 0.950 . S
C619 C616 1.387 . S
C620 C621 1.387 . S
C620 H624 0.950 . S
C620 C629 1.390 . S
C621 C620 1.387 . S
C621 C623 1.387 1_455 S
H622 C629 0.950 . S
C623 C621 1.387 1_655 S
C623 C625 1.390 . S
C623 H627 0.950 . S
H624 C620 0.950 . S
C625 C623 1.390 . S
C625 C626 1.387 . S
C625 H628 0.950 . S
C626 C625 1.387 . S
C626 C629 1.387 1_655 S
H627 C623 0.950 . S
H628 C625 0.950 . S
C629 C620 1.390 . S
C629 H622 0.950 . S
C629 C626 1.387 1_455 S
C630 C631 1.387 . S
C630 H634 0.950 . S
C630 C639 1.390 1_545 S
C631 C630 1.387 . S
C631 C633 1.387 . S
H632 C639 0.950 . S
C633 C631 1.387 . S
C633 C635 1.390 1_545 S
C633 H637 0.950 . S
H634 C630 0.950 . S
C635 C633 1.390 1_565 S
C635 C636 1.387 . S
C635 H638 0.950 . S
C636 C635 1.387 . S
C636 C639 1.387 . S
H637 C633 0.950 . S
H638 C635 0.950 . S
C639 C630 1.390 1_565 S
C639 H632 0.950 . S
C639 C636 1.387 . S
C640 C641 1.387 . S
C640 H644 0.950 . S
C640 C649 1.390 . S
C641 C640 1.387 . S
C641 C643 1.387 . S
H642 C649 0.950 . S
C643 C641 1.387 . S
C643 C645 1.390 . S
C643 H647 0.950 . S
H644 C640 0.950 . S
C645 C643 1.390 . S
C645 C646 1.387 . S
C645 H648 0.950 . S
C646 C645 1.387 . S
C646 C649 1.387 . S
H647 C643 0.950 . S
H648 C645 0.950 . S
C649 C640 1.390 . S
C649 H642 0.950 . S
C649 C646 1.387 . S
C650 C651 1.387 . S
C650 H654 0.950 . S
C650 C659 1.390 . S
C651 C650 1.387 . S
C651 C653 1.387 1_655 S
H652 C659 0.950 . S
C653 C651 1.387 1_455 S
C653 C655 1.390 . S
C653 H657 0.950 . S
H654 C650 0.950 . S
C655 C653 1.390 . S
C655 C656 1.387 . S
C655 H658 0.950 . S
C656 C655 1.387 . S
C656 C659 1.387 1_455 S
H657 C653 0.950 . S
H658 C655 0.950 . S
C659 C650 1.390 . S
C659 H652 0.950 . S
C659 C656 1.387 1_655 S
C481 C21 1.580 . S
C486 C421 1.580 . S
C491 C461 1.580 . S
C496 C61 1.580 . S
C501 C261 1.580 . S
C506 C101 1.580 . S
C511 C141 1.580 . S
C516 C301 1.580 . S
C521 C341 1.580 . S
C526 C181 1.580 . S
C531 C221 1.580 . S
C536 C381 1.580 . S
C541 C2 1.534 . S
C546 C322 1.535 . S
C551 C362 1.535 . S
C556 C42 1.535 . S
C561 C82 1.536 . S
C566 C402 1.534 . S
C571 C442 1.534 . S
C576 C122 1.535 . S
C581 C162 1.535 . S
C586 C242 1.535 . S
C591 C202 1.535 . S
C596 C282 1.535 . S
C601 C15 1.548 . S
C606 C295 1.548 . S
C611 C335 1.549 . S
C616 C55 1.549 . S
C621 C375 1.549 . S
C626 C95 1.548 . S
C631 C415 1.549 . S
C636 C135 1.549 . S
C641 C175 1.549 . S
C646 C455 1.549 . S
C651 C255 1.549 . S
C656 C215 1.549 . S
