# Generated by pormake.
# Topology fst, (5)-cn, num edge types: 1
# Building blocks:
#     Node 0, Type 0, BuildingBlock: XOMCOT_clean_sbu_1, # of connection points: 5
#     Node 1, Type 0, BuildingBlock: XOMCOT_clean_sbu_1, # of connection points: 5
#     Node 2, Type 0, BuildingBlock: XOMCOT_clean_sbu_1, # of connection points: 5
#     Node 3, Type 0, BuildingBlock: XOMCOT_clean_sbu_1, # of connection points: 5
#     Node 4, Type 0, BuildingBlock: XOMCOT_clean_sbu_1, # of connection points: 5
#     Node 5, Type 0, BuildingBlock: XOMCOT_clean_sbu_1, # of connection points: 5
#     Node 6, Type 0, BuildingBlock: XOMCOT_clean_sbu_1, # of connection points: 5
#     Node 7, Type 0, BuildingBlock: XOMCOT_clean_sbu_1, # of connection points: 5
#     Node 8, Type 0, BuildingBlock: XOMCOT_clean_sbu_1, # of connection points: 5
#     Node 9, Type 0, BuildingBlock: XOMCOT_clean_sbu_1, # of connection points: 5
#     Node 10, Type 0, BuildingBlock: XOMCOT_clean_sbu_1, # of connection points: 5
#     Node 11, Type 0, BuildingBlock: XOMCOT_clean_sbu_1, # of connection points: 5
#     Edge 12, Type (0, 0), BuildingBlock: XUDNAN_clean_linker_2, # of connection points: 2
#     Edge 13, Type (0, 0), BuildingBlock: XUDNAN_clean_linker_2, # of connection points: 2
#     Edge 14, Type (0, 0), BuildingBlock: XUDNAN_clean_linker_2, # of connection points: 2
#     Edge 15, Type (0, 0), BuildingBlock: XUDNAN_clean_linker_2, # of connection points: 2
#     Edge 16, Type (0, 0), BuildingBlock: XUDNAN_clean_linker_2, # of connection points: 2
#     Edge 17, Type (0, 0), BuildingBlock: XUDNAN_clean_linker_2, # of connection points: 2
#     Edge 18, Type (0, 0), BuildingBlock: XUDNAN_clean_linker_2, # of connection points: 2
#     Edge 19, Type (0, 0), BuildingBlock: XUDNAN_clean_linker_2, # of connection points: 2
#     Edge 20, Type (0, 0), BuildingBlock: XUDNAN_clean_linker_2, # of connection points: 2
#     Edge 21, Type (0, 0), BuildingBlock: XUDNAN_clean_linker_2, # of connection points: 2
#     Edge 22, Type (0, 0), BuildingBlock: XUDNAN_clean_linker_2, # of connection points: 2
#     Edge 23, Type (0, 0), BuildingBlock: XUDNAN_clean_linker_2, # of connection points: 2
#     Edge 24, Type (0, 0), BuildingBlock: XUDNAN_clean_linker_2, # of connection points: 2
#     Edge 25, Type (0, 0), BuildingBlock: XUDNAN_clean_linker_2, # of connection points: 2
#     Edge 26, Type (0, 0), BuildingBlock: XUDNAN_clean_linker_2, # of connection points: 2
#     Edge 27, Type (0, 0), BuildingBlock: XUDNAN_clean_linker_2, # of connection points: 2
#     Edge 28, Type (0, 0), BuildingBlock: XUDNAN_clean_linker_2, # of connection points: 2
#     Edge 29, Type (0, 0), BuildingBlock: XUDNAN_clean_linker_2, # of connection points: 2
#     Edge 30, Type (0, 0), BuildingBlock: XUDNAN_clean_linker_2, # of connection points: 2
#     Edge 31, Type (0, 0), BuildingBlock: XUDNAN_clean_linker_2, # of connection points: 2
#     Edge 32, Type (0, 0), BuildingBlock: XUDNAN_clean_linker_2, # of connection points: 2
#     Edge 33, Type (0, 0), BuildingBlock: XUDNAN_clean_linker_2, # of connection points: 2
#     Edge 34, Type (0, 0), BuildingBlock: XUDNAN_clean_linker_2, # of connection points: 2
#     Edge 35, Type (0, 0), BuildingBlock: XUDNAN_clean_linker_2, # of connection points: 2
#     Edge 36, Type (0, 0), BuildingBlock: XUDNAN_clean_linker_2, # of connection points: 2
#     Edge 37, Type (0, 0), BuildingBlock: XUDNAN_clean_linker_2, # of connection points: 2
#     Edge 38, Type (0, 0), BuildingBlock: XUDNAN_clean_linker_2, # of connection points: 2
#     Edge 39, Type (0, 0), BuildingBlock: XUDNAN_clean_linker_2, # of connection points: 2
#     Edge 40, Type (0, 0), BuildingBlock: XUDNAN_clean_linker_2, # of connection points: 2
#     Edge 41, Type (0, 0), BuildingBlock: XUDNAN_clean_linker_2, # of connection points: 2
# Relax obj value: 0.139
# Max RMSD: 0.123
# Mean RMSD: 0.123
data_MOF--net-fst--node1-XOMCOT_clean_sbu_1--edge1-XUDNAN_clean_linker_2
_symmetry_space_group_name_H-M    P1
_symmetry_Int_Tables_number       1
_symmetry_cell_setting            triclinic
loop_
_symmetry_equiv_pos_as_xyz
'x, y, z'
_cell_length_a     74.254977
_cell_length_b     74.353821
_cell_length_c     17.706235
_cell_angle_alpha  89.929552
_cell_angle_beta   90.032552
_cell_angle_gamma 119.89493
loop_
_atom_site_label
_atom_site_type_symbol
_atom_site_fract_x
_atom_site_fract_y
_atom_site_fract_z
_atom_type_partial_charge
C0 C 0.13965 0.46651 0.9511 0.0
C1 C 0.13909 0.46935 0.87478 0.0
N2 N 0.12454 0.45136 0.84437 0.0
N3 N 0.12533 0.44687 0.96928 0.0
C4 C 0.11642 0.43784 0.90265 0.0
H5 H 0.14945 0.47823 0.99148 0.0
Co6 Co 0.12035 0.4385 0.07015 0.0
C7 C 0.07659 0.40533 0.08149 0.0
O8 O 0.07579 0.4143 0.14431 0.0
N9 N 0.11628 0.43032 0.17348 0.0
C10 C 0.11072 0.4102 0.27432 0.0
C11 C 0.11257 0.41148 0.19704 0.0
C12 C 0.11689 0.44031 0.23838 0.0
N13 N 0.11342 0.42836 0.3006 0.0
O14 O 0.13584 0.4241 0.05648 0.0
H15 H 0.111 0.39922 0.16003 0.0
H16 H 0.12006 0.45609 0.24069 0.0
O17 O 0.09369 0.41321 0.044 0.0
C18 C 0.15514 0.43658 0.06769 0.0
O19 O 0.16081 0.45562 0.0888 0.0
N20 N 0.10723 0.45472 0.08063 0.0
C21 C 0.09772 0.48648 0.05932 0.0
C22 C 0.08506 0.46668 0.02879 0.0
C23 C 0.09031 0.45123 0.03852 0.0
C24 C 0.11944 0.47378 0.11221 0.0
C25 C 0.11478 0.48975 0.10349 0.0
H26 H 0.0818 0.43727 1.00573 0.0
H27 H 0.13396 0.47726 0.13861 0.0
H28 H 0.10372 0.42207 0.89725 0.0
H29 H 0.14843 0.48363 0.84391 0.0
H30 H 0.10728 0.39673 0.30815 0.0
H31 H 0.0719 0.46351 0.99338 0.0
H32 H 0.1254 0.50497 0.12599 0.0
C33 C 0.68136 0.13689 0.91946 0.0
C34 C 0.68394 0.14017 0.84294 0.0
N35 N 0.69708 0.13391 0.81874 0.0
N36 N 0.69219 0.12782 0.94388 0.0
C37 C 0.70237 0.12706 0.88121 0.0
H38 H 0.67181 0.14063 0.95471 0.0
Co39 Co 0.69232 0.11951 0.04583 0.0
C40 C 0.67913 0.0788 0.95973 0.0
O41 O 0.6758 0.08512 0.89471 0.0
N42 N 0.69252 0.11174 0.14765 0.0
C43 C 0.68091 0.09311 0.25315 0.0
C44 C 0.67904 0.09284 0.17603 0.0
C45 C 0.70259 0.12326 0.20929 0.0
N46 N 0.69567 0.11222 0.27429 0.0
O47 O 0.72175 0.12969 0.0373 0.0
H48 H 0.66757 0.07993 0.14327 0.0
H49 H 0.71376 0.13968 0.20709 0.0
O50 O 0.6855 0.09111 0.01641 0.0
C51 C 0.73076 0.14941 0.04303 0.0
O52 O 0.71927 0.15789 0.05743 0.0
N53 N 0.66399 0.1117 0.05639 0.0
C54 C 0.62648 0.11203 0.06017 0.0
C55 C 0.62877 0.09799 1.01372 0.0
C56 C 0.64767 0.098 1.01288 0.0
C57 C 0.66147 0.12435 0.10563 0.0
C58 C 0.64282 0.1245 0.10939 0.0
H59 H 0.64951 0.0882 0.97285 0.0
H60 H 0.67451 0.1354 0.13898 0.0
H61 H 0.71255 0.12054 0.8806 0.0
H62 H 0.67648 0.1464 0.80739 0.0
H63 H 0.67162 0.0804 0.29123 0.0
H64 H 0.61667 0.08811 0.97448 0.0
H65 H 0.64167 0.13519 0.14788 0.0
C66 C 0.5475 0.67781 0.91012 0.0
C67 C 0.54641 0.68026 0.83383 0.0
N68 N 0.56554 0.69389 0.80875 0.0
N69 N 0.56739 0.68925 0.93365 0.0
C70 C 0.5779 0.69963 0.87065 0.0
H71 H 0.53447 0.66807 0.94614 0.0
Co72 Co 0.57547 0.69003 0.03614 0.0
C73 C 0.60765 0.68132 0.9572 0.0
O74 O 0.60082 0.67976 0.88781 0.0
N75 N 0.5829 0.69077 0.13859 0.0
C76 C 0.58975 0.67972 0.24579 0.0
C77 C 0.58827 0.67742 0.16892 0.0
C78 C 0.58128 0.70117 0.19884 0.0
N79 N 0.58535 0.6946 0.26479 0.0
O80 O 0.59319 0.71975 0.02806 0.0
H81 H 0.58963 0.66568 0.13765 0.0
H82 H 0.57596 0.7123 0.19496 0.0
O83 O 0.59869 0.68524 1.0112 0.0
C84 C 0.58208 0.72844 0.02649 0.0
O85 O 0.56188 0.71674 0.03485 0.0
N86 N 0.55677 0.66117 0.0451 0.0
C87 C 0.52425 0.62021 0.05484 0.0
C88 C 0.54039 0.62576 1.00274 0.0
C89 C 0.55664 0.64635 0.99912 0.0
C90 C 0.54115 0.65597 0.09602 0.0
C91 C 0.52493 0.63553 0.10266 0.0
H92 H 0.5684 0.65045 0.95659 0.0
H93 H 0.54097 0.66789 0.13038 0.0
H94 H 0.5944 0.71066 0.86965 0.0
H95 H 0.53259 0.67252 0.79914 0.0
H96 H 0.59298 0.67054 0.28526 0.0
H97 H 0.54031 0.61435 0.96458 0.0
H98 H 0.51258 0.63189 0.14288 0.0
C99 C 0.8612 0.56178 0.9107 0.0
C100 C 0.8622 0.56409 0.83389 0.0
N101 N 0.88195 0.5712 0.81218 0.0
N102 N 0.88025 0.56747 0.93814 0.0
C103 C 0.89272 0.57321 0.87639 0.0
H104 H 0.84712 0.55507 0.94376 0.0
Co105 Co 0.88358 0.56222 0.03879 0.0
C106 C 0.9271 0.59341 0.08718 0.0
O107 O 0.92602 0.58096 0.14177 0.0
N108 N 0.88535 0.55576 0.14128 0.0
C109 C 0.88292 0.53758 0.24465 0.0
C110 C 0.88203 0.53725 0.16725 0.0
C111 C 0.88769 0.56693 0.20489 0.0
N112 N 0.88661 0.55629 0.26835 0.0
O113 O 0.8705 0.57811 0.06961 0.0
H114 H 0.87879 0.52402 0.13275 0.0
H115 H 0.89019 0.58257 0.2046 0.0
O116 O 0.91175 0.58765 0.04138 0.0
C117 C 0.85168 0.56657 0.09086 0.0
O118 O 0.84472 0.54656 0.09764 0.0
N119 N 0.8942 0.54508 1.00562 0.0
C120 C 0.90292 0.51401 0.96098 0.0
C121 C 0.91895 0.5339 0.98089 0.0
C122 C 0.91432 0.54928 1.00197 0.0
C123 C 0.87853 0.52618 0.98304 0.0
C124 C 0.88249 0.51046 0.96068 0.0
H125 H 0.92709 0.56432 1.01522 0.0
H126 H 0.86268 0.52314 0.98436 0.0
H127 H 0.90889 0.57726 0.87781 0.0
H128 H 0.8492 0.55987 0.79621 0.0
H129 H 0.88113 0.52504 0.28082 0.0
H130 H 0.935 0.53755 0.98193 0.0
H131 H 0.86957 0.49565 0.94366 0.0
C132 C 0.32491 0.86094 0.977 0.0
C133 C 0.32189 0.856 0.90152 0.0
N134 N 0.31176 0.86498 0.87062 0.0
N135 N 0.31704 0.87331 0.99466 0.0
C136 C 0.3085 0.87494 0.92861 0.0
H137 H 0.33228 0.85562 0.01692 0.0
Co138 Co 0.31666 0.88206 0.09603 0.0
C139 C 0.33208 0.92296 1.00796 0.0
O140 O 0.33582 0.91623 0.94476 0.0
N141 N 0.31583 0.89001 0.19857 0.0
C142 C 0.32596 0.90827 0.30542 0.0
C143 C 0.32826 0.90899 0.22817 0.0
C144 C 0.30611 0.87799 0.25984 0.0
N145 N 0.31212 0.88868 0.3261 0.0
O146 O 0.28745 0.87259 0.08442 0.0
H147 H 0.33957 0.92228 0.19652 0.0
H148 H 0.2957 0.86145 0.25612 0.0
O149 O 0.32469 0.9108 0.06501 0.0
C150 C 0.27819 0.85321 0.09951 0.0
O151 O 0.28967 0.84514 0.12012 0.0
N152 N 0.34481 0.88905 0.10988 0.0
C153 C 0.38281 0.88987 0.13012 0.0
C154 C 0.38005 0.90088 0.07065 0.0
C155 C 0.36103 0.90047 0.0621 0.0
C156 C 0.34737 0.87858 0.16831 0.0
C157 C 0.36628 0.87948 0.18118 0.0
H158 H 0.35906 0.90809 1.01389 0.0
H159 H 0.33439 0.86868 0.2041 0.0
H160 H 0.2999 0.88311 0.92321 0.0
H161 H 0.32693 0.84663 0.87136 0.0
H162 H 0.33499 0.921 0.34356 0.0
H163 H 0.39198 0.90894 0.02858 0.0
H164 H 0.36745 0.87136 0.22992 0.0
C165 C 0.46135 0.32635 0.93823 0.0
C166 C 0.46221 0.32377 0.86191 0.0
N167 N 0.44298 0.31026 0.83754 0.0
N168 N 0.44149 0.31517 0.96238 0.0
C169 C 0.43079 0.30467 0.89989 0.0
H170 H 0.47446 0.33626 0.97362 0.0
Co171 Co 0.43361 0.31565 0.06421 0.0
C172 C 0.40154 0.32377 0.98097 0.0
O173 O 0.40879 0.32517 0.9124 0.0
N174 N 0.42636 0.3161 0.16659 0.0
C175 C 0.41976 0.32821 0.2717 0.0
C176 C 0.42137 0.32996 0.19455 0.0
C177 C 0.42754 0.30593 0.22854 0.0
N178 N 0.42364 0.31313 0.29321 0.0
O179 O 0.41616 0.28586 0.06119 0.0
H180 H 0.42019 0.34154 0.16132 0.0
H181 H 0.43231 0.29436 0.22695 0.0
O182 O 0.4102 0.32005 0.03667 0.0
C183 C 0.42761 0.27795 0.07528 0.0
O184 O 0.44731 0.2907 0.09073 0.0
N185 N 0.45227 0.34462 0.06862 0.0
C186 C 0.48483 0.38564 0.07335 0.0
C187 C 0.46871 0.37954 0.02076 0.0
C188 C 0.45244 0.35894 0.01967 0.0
C189 C 0.46791 0.35035 0.11989 0.0
C190 C 0.48415 0.37084 0.12405 0.0
H191 H 0.4407 0.35441 0.97683 0.0
H192 H 0.46809 0.33881 0.1566 0.0
H193 H 0.41422 0.29394 0.8993 0.0
H194 H 0.47589 0.33157 0.82652 0.0
H195 H 0.41659 0.33774 0.30949 0.0
H196 H 0.46881 0.39055 0.98038 0.0
H197 H 0.49648 0.3749 0.16477 0.0
C198 C 0.57261 0.86086 0.12343 0.0
C199 C 0.57504 0.86166 0.2002 0.0
N200 N 0.58029 0.88087 0.22359 0.0
N201 N 0.5764 0.87949 0.09766 0.0
C202 C 0.58114 0.89151 0.16028 0.0
H203 H 0.56725 0.84713 0.08909 0.0
Co204 Co 0.57072 0.88267 0.99745 0.0
C205 C 0.59499 0.92758 0.95841 0.0
O206 O 0.58015 0.92487 0.91142 0.0
N207 N 0.56418 0.88453 0.89463 0.0
C208 C 0.5459 0.87985 0.7894 0.0
C209 C 0.54501 0.87829 0.86654 0.0
C210 C 0.57648 0.88969 0.83229 0.0
N211 N 0.56565 0.88701 0.76775 0.0
O212 O 0.59008 0.8738 0.96578 0.0
H213 H 0.53091 0.87232 0.8989 0.0
H214 H 0.59289 0.89473 0.83408 0.0
O215 O 0.59305 0.91228 0.99833 0.0
C216 C 0.58053 0.85512 0.94163 0.0
O217 O 0.56035 0.84621 0.93137 0.0
N218 N 0.55023 0.88862 0.03184 0.0
C219 C 0.5144 0.8882 0.0835 0.0
C220 C 0.53321 0.90699 0.07577 0.0
C221 C 0.55112 0.90686 0.05093 0.0
C222 C 0.53239 0.87027 0.04285 0.0
C223 C 0.51429 0.8697 0.06699 0.0
H224 H 0.5655 0.92137 0.04904 0.0
H225 H 0.53211 0.8559 0.0301 0.0
H226 H 0.58373 0.90719 0.16013 0.0
H227 H 0.5723 0.84883 0.23665 0.0
H228 H 0.53291 0.87574 0.7518 0.0
H229 H 0.53421 0.92161 0.09022 0.0
H230 H 0.50022 0.85478 0.07129 0.0
C231 C 0.67222 0.53868 0.12805 0.0
C232 C 0.66849 0.53707 0.20416 0.0
N233 N 0.67417 0.55608 0.23078 0.0
N234 N 0.67991 0.55856 0.1061 0.0
C235 C 0.68121 0.56898 0.17048 0.0
H236 H 0.6693 0.52604 0.09057 0.0
Co237 Co 0.68569 0.56581 1.00441 0.0
C238 C 0.67487 0.5979 0.97038 0.0
O239 O 0.66638 0.58704 0.90901 0.0
N240 N 0.69229 0.57279 0.90046 0.0
C241 C 0.70895 0.59217 0.80013 0.0
C242 C 0.70887 0.59079 0.87748 0.0
C243 C 0.68268 0.56339 0.83502 0.0
N244 N 0.69237 0.57498 0.77329 0.0
O245 O 0.71512 0.58067 0.02779 0.0
H246 H 0.71982 0.60276 0.91478 0.0
H247 H 0.66851 0.54868 0.83205 0.0
O248 O 0.68339 0.59137 0.01824 0.0
C249 C 0.7222 0.56819 0.03242 0.0
O250 O 0.70932 0.54837 0.02053 0.0
N251 N 0.6567 0.54918 0.98537 0.0
C252 C 0.61533 0.51731 1.0008 0.0
C253 C 0.62174 0.53733 0.02759 0.0
C254 C 0.64247 0.55286 0.02088 0.0
C255 C 0.65054 0.52993 0.95661 0.0
C256 C 0.62988 0.51388 0.96252 0.0
H257 H 0.64725 0.5671 0.05121 0.0
H258 H 0.66208 0.52647 0.93481 0.0
H259 H 0.68673 0.58546 0.17294 0.0
H260 H 0.66215 0.52304 0.23774 0.0
H261 H 0.71985 0.6053 0.76666 0.0
H262 H 0.61111 0.54064 0.05828 0.0
H263 H 0.62578 0.49851 0.9429 0.0
C264 C 0.13342 0.67615 0.12854 0.0
C265 C 0.13703 0.67869 0.20481 0.0
N266 N 0.13185 0.69261 0.2294 0.0
N267 N 0.12521 0.6878 0.1046 0.0
C268 C 0.12539 0.69845 0.16724 0.0
H269 H 0.13637 0.66609 0.09299 0.0
Co270 Co 0.11731 0.68816 1.00239 0.0
C271 C 0.07705 0.67948 0.08553 0.0
O272 O 0.08294 0.67779 0.15376 0.0
N273 N 0.11008 0.68853 0.9002 0.0
C274 C 0.09176 0.67736 0.794 0.0
C275 C 0.09119 0.67534 0.87106 0.0
C276 C 0.12192 0.69858 0.8391 0.0
N277 N 0.11105 0.69193 0.7737 0.0
O278 O 0.12932 0.71788 1.00868 0.0
H279 H 0.07809 0.66394 0.90333 0.0
H280 H 0.13841 0.70955 0.84201 0.0
O281 O 0.08942 0.68349 0.02965 0.0
C282 C 0.14907 0.72637 1.00615 0.0
O283 O 0.15725 0.71442 0.99631 0.0
N284 N 0.10714 0.65925 0.99474 0.0
C285 C 0.09892 0.61831 0.98639 0.0
C286 C 0.0884 0.62394 0.03849 0.0
C287 C 0.09262 0.6445 0.04144 0.0
C288 C 0.11746 0.65397 0.94365 0.0
C289 C 0.11337 0.63355 0.93775 0.0
H290 H 0.08502 0.64862 0.08408 0.0
H291 H 0.12942 0.66584 0.90866 0.0
H292 H 0.11999 0.70955 0.16802 0.0
H293 H 0.14274 0.67068 0.23994 0.0
H294 H 0.07913 0.66828 0.75537 0.0
H295 H 0.07721 0.6126 0.07725 0.0
H296 H 0.12204 0.62988 0.89747 0.0
C297 C 0.46387 0.1395 0.10551 0.0
C298 C 0.46634 0.13878 0.182 0.0
N299 N 0.44874 0.12303 0.21042 0.0
N300 N 0.44491 0.12405 0.08521 0.0
C301 C 0.43586 0.11433 0.15082 0.0
H302 H 0.47535 0.15043 0.06667 0.0
Co303 Co 0.43648 0.1194 0.98409 0.0
C304 C 0.41094 0.07446 0.96395 0.0
O305 O 0.42173 0.0773 0.9019 0.0
N306 N 0.42789 0.11542 0.88048 0.0
C307 C 0.40666 0.10734 0.78116 0.0
C308 C 0.40824 0.10937 0.85848 0.0
C309 C 0.43794 0.11704 0.81453 0.0
N310 N 0.42537 0.11208 0.75345 0.0
O311 O 0.4174 0.12935 1.0049 0.0
H312 H 0.39557 0.10605 0.89653 0.0
H313 H 0.45409 0.12153 0.81039 0.0
O314 O 0.41512 0.09012 1.00611 0.0
C315 C 0.42789 0.14909 0.99957 0.0
O316 O 0.44748 0.1577 0.97935 0.0
N317 N 0.45738 0.11242 0.96642 0.0
C318 C 0.49579 0.11387 0.97379 0.0
C319 C 0.47803 0.09744 1.00714 0.0
C320 C 0.45902 0.09717 1.00387 0.0
C321 C 0.47446 0.12826 0.93303 0.0
C322 C 0.49354 0.12894 0.9339 0.0
H323 H 0.44627 0.08579 0.03738 0.0
H324 H 0.47363 0.14132 0.91006 0.0
H325 H 0.42047 0.10087 0.15465 0.0
H326 H 0.48005 0.14896 0.21445 0.0
H327 H 0.39263 0.10213 0.7483 0.0
H328 H 0.47915 0.08583 0.04059 0.0
H329 H 0.50674 0.14195 0.90728 0.0
C330 C 0.33305 0.4669 0.10587 0.0
C331 C 0.3367 0.46942 0.18204 0.0
N332 N 0.33317 0.45123 0.21105 0.0
N333 N 0.32753 0.4473 0.08641 0.0
C334 C 0.32749 0.43793 0.15214 0.0
H335 H 0.3348 0.47879 0.06644 0.0
Co336 Co 0.32338 0.43946 0.98528 0.0
C337 C 0.33474 0.4073 0.96285 0.0
O338 O 0.34408 0.41775 0.9015 0.0
N339 N 0.31838 0.43187 0.88143 0.0
C340 C 0.30326 0.41191 0.78089 0.0
C341 C 0.30287 0.41322 0.85813 0.0
C342 C 0.3278 0.44172 0.81634 0.0
N343 N 0.31901 0.42984 0.75437 0.0
O344 O 0.29364 0.42472 1.00251 0.0
H345 H 0.29221 0.40098 0.89533 0.0
H346 H 0.34091 0.45721 0.8138 0.0
O347 O 0.32553 0.41409 1.00625 0.0
C348 C 0.2867 0.43713 0.9912 0.0
O349 O 0.29994 0.4561 0.96892 0.0
N350 N 0.35258 0.45609 0.97166 0.0
C351 C 0.39379 0.4881 0.99002 0.0
C352 C 0.38708 0.46829 0.01987 0.0
C353 C 0.36641 0.45269 1.01157 0.0
C354 C 0.35899 0.47519 0.94086 0.0
C355 C 0.37959 0.49128 0.94805 0.0
H356 H 0.36133 0.43864 0.04361 0.0
H357 H 0.34766 0.47854 0.91613 0.0
H358 H 0.32411 0.42202 0.15646 0.0
H359 H 0.34172 0.48356 0.21388 0.0
H360 H 0.29308 0.39849 0.74729 0.0
H361 H 0.39741 0.46519 0.05363 0.0
H362 H 0.38387 0.5065 0.92617 0.0
C363 C 0.86974 0.31981 0.05247 0.0
C364 C 0.87038 0.32194 0.12958 0.0
N365 N 0.88859 0.32437 0.15399 0.0
N366 N 0.88737 0.32064 0.02847 0.0
C367 C 0.8987 0.32354 0.09185 0.0
H368 H 0.85697 0.31722 0.01608 0.0
Co369 Co 0.89065 0.3158 0.92806 0.0
C370 C 0.93452 0.32692 0.90383 0.0
O371 O 0.93325 0.33327 0.8359 0.0
N372 N 0.89284 0.31007 0.82455 0.0
C373 C 0.89455 0.29312 0.72326 0.0
C374 C 0.89354 0.29313 0.80065 0.0
C375 C 0.89372 0.32026 0.75967 0.0
N376 N 0.89478 0.31024 0.69774 0.0
O377 O 0.87745 0.28643 0.95087 0.0
H378 H 0.89372 0.28156 0.83713 0.0
H379 H 0.89381 0.3348 0.75704 0.0
O380 O 0.91885 0.31986 0.94864 0.0
C381 C 0.85825 0.27765 0.93303 0.0
O382 O 0.85141 0.28913 0.90145 0.0
N383 N 0.90111 0.34421 0.90876 0.0
C384 C 0.90824 0.38483 0.90124 0.0
C385 C 0.92368 0.38081 0.92801 0.0
C386 C 0.91964 0.36032 0.93306 0.0
C387 C 0.88595 0.3479 0.88299 0.0
C388 C 0.88922 0.36805 0.87811 0.0
H389 H 0.93099 0.35757 0.96061 0.0
H390 H 0.87092 0.33495 0.86815 0.0
H391 H 0.9136 0.32422 0.09303 0.0
H392 H 0.85829 0.3214 0.16532 0.0
H393 H 0.89563 0.28174 0.68841 0.0
H394 H 0.93833 0.39329 0.94879 0.0
H395 H 0.87682 0.37044 0.85768 0.0
H396 H 0.10072 0.59533 0.1046 0.0
H397 H 0.09031 0.5934 0.86304 0.0
H398 H 0.08683 0.55857 0.85734 0.0
H399 H 0.13228 0.57199 0.09853 0.0
H400 H 0.1225 0.55759 0.18516 0.0
H401 H 0.12234 0.58151 0.17173 0.0
H402 H 0.08276 0.56257 0.19787 0.0
H403 H 0.08281 0.53857 0.21164 0.0
H404 H 0.06564 0.54002 0.14296 0.0
H405 H 0.08588 0.52482 0.87672 0.0
H406 H 0.08887 0.49481 0.91827 0.0
H407 H 0.10078 0.5186 0.14759 0.0
C408 C 0.09732 0.58736 0.05085 0.0
C409 C 0.09556 0.5969 0.98426 0.0
C410 C 0.09165 0.58629 0.91458 0.0
C411 C 0.08959 0.56651 0.91091 0.0
C412 C 0.09165 0.55761 0.97737 0.0
C413 C 0.0955 0.56769 0.04603 0.0
C414 C 0.09831 0.55519 0.10809 0.0
C415 C 0.12016 0.56729 0.1429 0.0
C416 C 0.08136 0.5487 0.16873 0.0
C417 C 0.09561 0.5366 0.06344 0.0
C418 C 0.09155 0.53825 0.98833 0.0
C419 C 0.08885 0.52326 0.93553 0.0
C420 C 0.09044 0.50617 0.95989 0.0
C421 C 0.09479 0.50415 0.03647 0.0
C422 C 0.09738 0.51964 0.08879 0.0
H423 H 0.58486 0.08324 0.0325 0.0
H424 H 0.6274 0.14916 0.06494 0.0
H425 H 0.59861 0.15605 0.04937 0.0
H426 H 0.55448 0.08966 0.88671 0.0
H427 H 0.53004 0.06828 0.91791 0.0
H428 H 0.5538 0.06796 0.93492 0.0
H429 H 0.54553 0.06289 0.07801 0.0
H430 H 0.52174 0.06319 0.06143 0.0
H431 H 0.54055 0.08111 0.12768 0.0
H432 H 0.56603 0.15644 0.03025 0.0
H433 H 0.53092 0.15035 1.00584 0.0
H434 H 0.50856 0.08446 0.97834 0.0
C435 C 0.58811 0.09911 0.0364 0.0
C436 C 0.60847 0.11558 0.0517 0.0
C437 C 0.61196 0.13613 0.0559 0.0
C438 C 0.5957 0.14029 0.04637 0.0
C439 C 0.57593 0.12379 0.03188 0.0
C440 C 0.57197 0.10361 0.02659 0.0
C441 C 0.54917 0.08893 1.00878 0.0
C442 C 0.54674 0.07807 0.93254 0.0
C443 C 0.53863 0.0731 0.0728 0.0
C444 C 0.54109 0.1041 1.0048 0.0
C445 C 0.55689 0.12409 0.01856 0.0
C446 C 0.55354 0.14089 0.01865 0.0
C447 C 0.5335 0.13725 1.00392 0.0
C448 C 0.51694 0.11697 0.9885 0.0
C449 C 0.52084 0.10015 0.98963 0.0
H450 H 0.42218 0.52021 0.90003 0.0
H451 H 0.41171 0.49656 0.12962 0.0
H452 H 0.44482 0.52669 0.16906 0.0
H453 H 0.47868 0.54165 0.90017 0.0
H454 H 0.48367 0.56406 0.84501 0.0
H455 H 0.4596 0.54002 0.83333 0.0
H456 H 0.43898 0.55889 0.86182 0.0
H457 H 0.46296 0.58297 0.87358 0.0
H458 H 0.44394 0.5734 0.94829 0.0
H459 H 0.47755 0.56053 0.18649 0.0
H460 H 0.50872 0.59543 0.17892 0.0
H461 H 0.49901 0.59707 0.93812 0.0
C462 C 0.42697 0.52131 0.95842 0.0
C463 C 0.41443 0.50584 1.01147 0.0
C464 C 0.42122 0.50792 0.08749 0.0
C465 C 0.43997 0.52507 0.11064 0.0
C466 C 0.45191 0.54004 0.05714 0.0
C467 C 0.4458 0.53831 0.98248 0.0
C468 C 0.46139 0.5569 0.93696 0.0
C469 C 0.47143 0.55026 0.87521 0.0
C470 C 0.4512 0.56874 0.90319 0.0
C471 C 0.47697 0.56947 0.99801 0.0
C472 C 0.47115 0.55944 0.06693 0.0
C473 C 0.48241 0.56843 0.13266 0.0
C474 C 0.50004 0.58823 0.12794 0.0
C475 C 0.50634 0.59877 0.05793 0.0
C476 C 0.49474 0.58914 0.99208 0.0
H477 H 0.88174 0.39738 0.95543 0.0
H478 H 0.94198 0.42055 0.8497 0.0
H479 H 0.94707 0.45612 0.85087 0.0
H480 H 0.86691 0.43071 0.85904 0.0
H481 H 0.85456 0.43424 0.94079 0.0
H482 H 0.85558 0.41068 0.92998 0.0
H483 H 0.87342 0.41664 0.06065 0.0
H484 H 0.87238 0.44017 0.07197 0.0
H485 H 0.8969 0.44079 0.07914 0.0
H486 H 0.94502 0.48911 0.86154 0.0
H487 H 0.93708 0.51703 0.88701 0.0
H488 H 0.87896 0.47223 0.99258 0.0
C489 C 0.89592 0.40992 0.93184 0.0
C490 C 0.91141 0.40621 0.90176 0.0
C491 C 0.92995 0.42308 0.87301 0.0
C492 C 0.93292 0.44329 0.8732 0.0
C493 C 0.91728 0.44639 0.90304 0.0
C494 C 0.89923 0.43017 0.93241 0.0
C495 C 0.88512 0.43768 0.96343 0.0
C496 C 0.86431 0.42773 0.92074 0.0
C497 C 0.88177 0.43358 0.04886 0.0
C498 C 0.89798 0.46066 0.94659 0.0
C499 C 0.91641 0.46538 0.91135 0.0
C500 C 0.9307 0.4856 0.8897 0.0
C501 C 0.92609 0.50141 0.90497 0.0
C502 C 0.90741 0.49702 0.9423 0.0
C503 C 0.89323 0.47624 0.96301 0.0
H504 H 0.42322 0.91647 0.07721 0.0
H505 H 0.38589 0.85749 0.19295 0.0
H506 H 0.41643 0.85368 0.20613 0.0
H507 H 0.45047 0.89744 0.96635 0.0
H508 H 0.4747 0.92165 0.96612 0.0
H509 H 0.45053 0.92165 0.97424 0.0
H510 H 0.46357 0.94292 0.09786 0.0
H511 H 0.48773 0.94282 0.09042 0.0
H512 H 0.4722 0.93317 0.17476 0.0
H513 H 0.45033 0.85527 0.2066 0.0
H514 H 0.4847 0.85978 0.17803 0.0
H515 H 0.49975 0.91492 0.04663 0.0
C516 C 0.42131 0.90273 0.10551 0.0
C517 C 0.40187 0.88776 0.13655 0.0
C518 C 0.40049 0.86994 0.17213 0.0
C519 C 0.41784 0.86741 0.17933 0.0
C520 C 0.43658 0.88247 0.149 0.0
C521 C 0.43843 0.89958 0.11139 0.0
C522 C 0.46002 0.91227 0.07743 0.0
C523 C 0.45885 0.9133 0.99091 0.0
C524 C 0.47156 0.93409 0.11221 0.0
C525 C 0.4698 0.89943 0.10145 0.0
C526 C 0.45604 0.88256 0.14401 0.0
C527 C 0.46121 0.8683 0.17266 0.0
C528 C 0.48076 0.87093 0.15558 0.0
C529 C 0.49488 0.88747 0.10876 0.0
C530 C 0.48942 0.90218 0.08283 0.0
H531 H 0.58747 0.4842 0.91315 0.0
H532 H 0.59674 0.51012 0.13883 0.0
H533 H 0.56351 0.48033 0.17924 0.0
H534 H 0.53094 0.46253 0.90823 0.0
H535 H 0.52627 0.43959 0.85752 0.0
H536 H 0.55036 0.46354 0.8445 0.0
H537 H 0.57092 0.44511 0.88103 0.0
H538 H 0.54692 0.42113 0.89415 0.0
H539 H 0.56558 0.43152 0.96988 0.0
H540 H 0.53082 0.44671 0.19872 0.0
H541 H 0.49975 0.41171 0.19395 0.0
H542 H 0.51052 0.40756 0.95561 0.0
C543 C 0.58239 0.48366 0.97083 0.0
C544 C 0.59462 0.49969 0.02247 0.0
C545 C 0.58746 0.49833 0.09766 0.0
C546 C 0.56865 0.48139 0.12139 0.0
C547 C 0.557 0.46587 0.06931 0.0
C548 C 0.56347 0.46687 0.99546 0.0
C549 C 0.54812 0.44779 0.95159 0.0
C550 C 0.53834 0.45372 0.88661 0.0
C551 C 0.55851 0.43567 0.92247 0.0
C552 C 0.53227 0.43581 1.01274 0.0
C553 C 0.53775 0.44655 0.08022 0.0
C554 C 0.52621 0.43825 0.14599 0.0
C555 C 0.50864 0.41838 0.14286 0.0
C556 C 0.50267 0.40712 0.07436 0.0
C557 C 0.51455 0.41606 1.00835 0.0
H558 H 0.27139 0.46342 0.99915 0.0
H559 H 0.25208 0.39804 1.01303 0.0
H560 H 0.21551 0.38983 0.03142 0.0
H561 H 0.23764 0.46337 0.14184 0.0
H562 H 0.2333 0.48226 0.0937 0.0
H563 H 0.25733 0.48228 0.08032 0.0
H564 H 0.25127 0.47928 0.93551 0.0
H565 H 0.22717 0.47917 0.94845 0.0
H566 H 0.22747 0.45827 0.89809 0.0
H567 H 0.18008 0.38957 0.0457 0.0
H568 H 0.15143 0.39748 0.06241 0.0
H569 H 0.196 0.46311 0.04239 0.0
C570 C 0.25955 0.4473 1.00577 0.0
C571 C 0.26464 0.43135 1.00416 0.0
C572 C 0.24857 0.41053 1.01402 0.0
C573 C 0.22775 0.40575 0.02425 0.0
C574 C 0.22332 0.42198 0.02503 0.0
C575 C 0.23896 0.44235 0.01655 0.0
C576 C 0.23072 0.45724 0.021 0.0
C577 C 0.24032 0.47216 0.08822 0.0
C578 C 0.23437 0.46919 0.94632 0.0
C579 C 0.20792 0.44221 0.03354 0.0
C580 C 0.2037 0.42188 0.03509 0.0
C581 C 0.18336 0.40548 0.04489 0.0
C582 C 0.16716 0.41008 0.05409 0.0
C583 C 0.17147 0.43091 0.05433 0.0
C584 C 0.19213 0.44701 0.0434 0.0
H585 H 0.8185 0.25572 0.88326 0.0
H586 H 0.86369 0.24927 0.01827 0.0
H587 H 0.83667 0.21315 0.05052 0.0
H588 H 0.77732 0.23084 1.00645 0.0
H589 H 0.75788 0.21896 0.93376 0.0
H590 H 0.78144 0.24282 0.91472 0.0
H591 H 0.78873 0.22574 0.79995 0.0
H592 H 0.76516 0.20172 0.81891 0.0
H593 H 0.7896 0.20213 0.81317 0.0
H594 H 0.80257 0.17801 0.0761 0.0
H595 H 0.76603 0.14977 0.09611 0.0
H596 H 0.7447 0.18109 0.94524 0.0
C597 C 0.82295 0.2467 0.9187 0.0
C598 C 0.84328 0.25537 0.9481 0.0
C599 C 0.84826 0.24293 0.99461 0.0
C600 C 0.83299 0.22239 1.01312 0.0
C601 C 0.8129 0.21449 0.98408 0.0
C602 C 0.80803 0.2264 0.9375 0.0
C603 C 0.78521 0.21535 0.9176 0.0
C604 C 0.77487 0.22773 0.9448 0.0
C605 C 0.78199 0.21098 0.83234 0.0
C606 C 0.77768 0.19554 0.96199 0.0
C607 C 0.79378 0.19496 0.99914 0.0
C608 C 0.78998 0.1783 0.0464 0.0
C609 C 0.76924 0.16226 0.05717 0.0
C610 C 0.75269 0.16328 0.02171 0.0
C611 C 0.75713 0.17989 0.97252 0.0
H612 H 0.56535 0.74335 0.92732 0.0
H613 H 0.61699 0.76305 0.08173 0.0
H614 H 0.62634 0.79986 0.06143 0.0
H615 H 0.59111 0.78904 0.79616 0.0
H616 H 0.56694 0.78872 0.7813 0.0
H617 H 0.5669 0.76483 0.79941 0.0
H618 H 0.54176 0.75718 0.91198 0.0
H619 H 0.54176 0.78096 0.89441 0.0
H620 H 0.54895 0.77612 0.98627 0.0
H621 H 0.62578 0.83406 0.03903 0.0
H622 H 0.61587 0.86094 1.01606 0.0
H623 H 0.5656 0.81802 0.87187 0.0
C624 C 0.57899 0.75548 0.95527 0.0
C625 C 0.59051 0.75049 1.00586 0.0
C626 C 0.60815 0.76666 0.04195 0.0
C627 C 0.6135 0.78756 0.03078 0.0
C628 C 0.60132 0.79194 0.982 0.0
C629 C 0.58464 0.77623 0.94383 0.0
C630 C 0.57288 0.78441 0.89916 0.0
C631 C 0.57457 0.78159 0.81395 0.0
C632 C 0.55001 0.77406 0.92453 0.0
C633 C 0.58479 0.80706 0.92096 0.0
C634 C 0.60134 0.81134 0.96792 0.0
C635 C 0.61317 0.83093 1.00082 0.0
C636 C 0.60752 0.84619 0.98715 0.0
C637 C 0.59009 0.84167 0.94152 0.0
C638 C 0.57918 0.82209 0.90618 0.0
H639 H 0.73656 0.54533 0.10116 0.0
H640 H 0.75749 0.60597 1.00299 0.0
H641 H 0.79418 0.6144 0.01957 0.0
H642 H 0.77908 0.5617 0.24035 0.0
H643 H 0.7796 0.53788 0.22905 0.0
H644 H 0.7556 0.53806 0.2167 0.0
H645 H 0.75148 0.52224 0.08304 0.0
H646 H 0.77541 0.52205 0.09488 0.0
H647 H 0.77211 0.53521 1.0151 0.0
H648 H 0.82887 0.61377 0.03345 0.0
H649 H 0.85666 0.6046 0.04594 0.0
H650 H 0.81174 0.54492 0.13952 0.0
C651 C 0.74885 0.56057 0.08434 0.0
C652 C 0.7442 0.575 0.05074 0.0
C653 C 0.76073 0.59475 0.02951 0.0
C654 C 0.78159 0.59961 0.03858 0.0
C655 C 0.78561 0.5847 0.07032 0.0
C656 C 0.76955 0.56569 0.09386 0.0
C657 C 0.77749 0.55177 0.12271 0.0
C658 C 0.77266 0.54709 0.20722 0.0
C659 C 0.7686 0.53165 0.07613 0.0
C660 C 0.80053 0.56553 0.10944 0.0
C661 C 0.80512 0.58455 0.07973 0.0
C662 C 0.82539 0.59905 0.05799 0.0
C663 C 0.84114 0.59375 0.0655 0.0
C664 C 0.83648 0.57409 0.09422 0.0
C665 C 0.81597 0.56016 0.11801 0.0
H666 H 0.18071 0.74109 0.10459 0.0
H667 H 0.14976 0.76117 0.94686 0.0
H668 H 0.17797 0.7978 0.96396 0.0
H669 H 0.20146 0.78715 0.23159 0.0
H670 H 0.22496 0.78624 0.24776 0.0
H671 H 0.20088 0.76263 0.23012 0.0
H672 H 0.21818 0.75413 0.11914 0.0
H673 H 0.24218 0.77771 0.13596 0.0
H674 H 0.23026 0.77274 0.04394 0.0
H675 H 0.21322 0.83198 0.98673 0.0
H676 H 0.24976 0.85884 1.01507 0.0
H677 H 0.25551 0.81504 0.16047 0.0
C678 C 0.17959 0.75328 0.07516 0.0
C679 C 0.16311 0.74845 0.02477 0.0
C680 C 0.16217 0.76468 0.98662 0.0
C681 C 0.17817 0.78548 0.99586 0.0
C682 C 0.19467 0.78968 0.04459 0.0
C683 C 0.19514 0.77391 0.08456 0.0
C684 C 0.21492 0.7818 0.12964 0.0
C685 C 0.21027 0.77931 0.21483 0.0
C686 C 0.22709 0.77096 0.10568 0.0
C687 C 0.22607 0.80437 0.10668 0.0
C688 C 0.21425 0.80888 0.05825 0.0
C689 C 0.22237 0.82861 0.02577 0.0
C690 C 0.24312 0.84382 0.04227 0.0
C691 C 0.25548 0.83909 0.09018 0.0
C692 C 0.2465 0.81925 0.12386 0.0
H693 H 0.44771 0.18348 0.08387 0.0
H694 H 0.39058 0.14658 0.96022 0.0
H695 H 0.38157 0.17444 0.97716 0.0
H696 H 0.42719 0.20741 0.21888 0.0
H697 H 0.45147 0.23157 0.2177 0.0
H698 H 0.45123 0.20741 0.20478 0.0
H699 H 0.47132 0.22124 0.07884 0.0
H700 H 0.47143 0.24527 0.09082 0.0
H701 H 0.46072 0.23025 1.00607 0.0
H702 H 0.38206 0.20967 0.99371 0.0
H703 H 0.3912 0.24644 1.01208 0.0
H704 H 0.44768 0.25839 0.12687 0.0
C705 C 0.43299 0.18099 0.06224 0.0
C706 C 0.41974 0.1629 0.02129 0.0
C707 C 0.40074 0.16023 0.99294 0.0
C708 C 0.39561 0.17604 1.00202 0.0
C709 C 0.40949 0.19414 0.04073 0.0
C710 C 0.42763 0.19638 0.07152 0.0
C711 C 0.44081 0.21757 0.10613 0.0
C712 C 0.44278 0.21588 0.19197 0.0
C713 C 0.46232 0.22926 0.06816 0.0
C714 C 0.42779 0.22739 0.08766 0.0
C715 C 0.40965 0.21376 0.05062 0.0
C716 C 0.39606 0.22026 0.02389 0.0
C717 C 0.40134 0.24117 0.0346 0.0
C718 C 0.42013 0.25533 0.07108 0.0
C719 C 0.43315 0.24804 0.09898 0.0
H720 H 0.11875 0.41025 0.42698 0.0
H721 H 0.10615 0.45864 0.3531 0.0
H722 H 0.10524 0.46803 0.4858 0.0
H723 H 0.08513 0.39464 0.59351 0.0
H724 H 0.10261 0.38992 0.64967 0.0
H725 H 0.10165 0.38646 0.54872 0.0
H726 H 0.14125 0.41204 0.54012 0.0
H727 H 0.14235 0.41551 0.64093 0.0
H728 H 0.15182 0.43771 0.57933 0.0
H729 H 0.10768 0.47359 0.62583 0.0
H730 H 0.11364 0.475 0.76378 0.0
H731 H 0.1228 0.42203 0.74855 0.0
C732 C 0.11548 0.42262 0.43832 0.0
C733 C 0.11258 0.4337 0.37871 0.0
C734 C 0.10874 0.45006 0.397 0.0
C735 C 0.10799 0.4554 0.47249 0.0
C736 C 0.11093 0.44417 0.52948 0.0
C737 C 0.11454 0.42808 0.51341 0.0
C738 C 0.11784 0.41892 0.58527 0.0
C739 C 0.10079 0.39613 0.59484 0.0
C740 C 0.13961 0.42119 0.58646 0.0
C741 C 0.11586 0.4326 0.64429 0.0
C742 C 0.1118 0.44703 0.61071 0.0
C743 C 0.11057 0.46219 0.65277 0.0
C744 C 0.11395 0.46289 0.73087 0.0
C745 C 0.11832 0.44844 0.76638 0.0
C746 C 0.11893 0.43287 0.72272 0.0
H747 H 0.66845 0.10467 0.38741 0.0
H748 H 0.7341 0.13538 0.33581 0.0
H749 H 0.74228 0.14403 0.47195 0.0
H750 H 0.67208 0.14153 0.52973 0.0
H751 H 0.65171 0.12177 0.58677 0.0
H752 H 0.65162 0.11848 0.486 0.0
H753 H 0.65025 0.08329 0.50613 0.0
H754 H 0.65058 0.08658 0.60694 0.0
H755 H 0.66998 0.08234 0.56255 0.0
H756 H 0.74258 0.14676 0.61856 0.0
H757 H 0.73505 0.1474 0.7554 0.0
H758 H 0.6693 0.11676 0.70592 0.0
C759 C 0.68456 0.11334 0.40483 0.0
C760 C 0.70069 0.11929 0.35142 0.0
C761 C 0.72157 0.1308 0.37597 0.0
C762 C 0.7263 0.13562 0.45315 0.0
C763 C 0.70994 0.12911 0.50475 0.0
C764 C 0.68948 0.11855 0.48096 0.0
C765 C 0.67462 0.11364 0.54643 0.0
C766 C 0.66176 0.12451 0.53664 0.0
C767 C 0.66053 0.09006 0.55605 0.0
C768 C 0.68981 0.12285 0.61127 0.0
C769 C 0.71014 0.1315 0.58675 0.0
C770 C 0.72671 0.14022 0.63789 0.0
C771 C 0.72235 0.14042 0.71542 0.0
C772 C 0.70165 0.13227 0.74071 0.0
C773 C 0.68528 0.1233 0.68776 0.0
H774 H 0.56282 0.66757 0.37399 0.0
H775 H 0.60285 0.73292 0.32832 0.0
H776 H 0.60247 0.74066 0.46506 0.0
H777 H 0.5312 0.67381 0.51905 0.0
H778 H 0.5286 0.6521 0.5732 0.0
H779 H 0.53158 0.65249 0.47217 0.0
H780 H 0.56339 0.64732 0.48913 0.0
H781 H 0.56069 0.6472 0.59016 0.0
H782 H 0.58496 0.66539 0.5463 0.0
H783 H 0.5999 0.74009 0.61183 0.0
H784 H 0.59188 0.73185 0.74839 0.0
H785 H 0.5523 0.66706 0.69236 0.0
C786 C 0.57123 0.68353 0.39282 0.0
C787 C 0.58285 0.69969 0.34112 0.0
C788 C 0.5937 0.72041 0.3673 0.0
C789 C 0.59366 0.72486 0.44478 0.0
C790 C 0.58242 0.70841 0.49482 0.0
C791 C 0.57107 0.6882 0.4692 0.0
C792 C 0.56022 0.67316 0.5333 0.0
C793 C 0.53649 0.66225 0.52386 0.0
C794 C 0.56777 0.65734 0.54009 0.0
C795 C 0.56742 0.68792 0.59957 0.0
C796 C 0.58037 0.7082 0.57692 0.0
C797 C 0.58956 0.72429 0.62972 0.0
C798 C 0.58507 0.71951 0.70707 0.0
C799 C 0.57132 0.69889 0.73053 0.0
C800 C 0.56257 0.68301 0.6758 0.0
H801 H 0.86527 0.53323 0.3887 0.0
H802 H 0.91382 0.59456 0.32318 0.0
H803 H 0.91992 0.605 0.45828 0.0
H804 H 0.84453 0.54981 0.53893 0.0
H805 H 0.83848 0.52762 0.59731 0.0
H806 H 0.83862 0.52548 0.49611 0.0
H807 H 0.86511 0.51252 0.5073 0.0
H808 H 0.86527 0.51491 0.60854 0.0
H809 H 0.88928 0.52817 0.55642 0.0
H810 H 0.92102 0.60789 0.60408 0.0
H811 H 0.91389 0.60423 0.74245 0.0
H812 H 0.86404 0.54133 0.70764 0.0
C813 C 0.87721 0.54885 0.40283 0.0
C814 C 0.88916 0.56308 0.34579 0.0
C815 C 0.90441 0.5835 0.36623 0.0
C816 C 0.90808 0.58946 0.44274 0.0
C817 C 0.89622 0.57485 0.49783 0.0
C818 C 0.88087 0.55505 0.47837 0.0
C819 C 0.8696 0.54238 0.54716 0.0
C820 C 0.84644 0.53596 0.54472 0.0
C821 C 0.8725 0.52338 0.5553 0.0
C822 C 0.88095 0.55807 0.60876 0.0
C823 C 0.89646 0.57666 0.57982 0.0
C824 C 0.90888 0.59339 0.62708 0.0
C825 C 0.9049 0.59118 0.70541 0.0
C826 C 0.88849 0.57252 0.735 0.0
C827 C 0.8767 0.55574 0.68604 0.0
H828 H 0.31744 0.897 0.77852 0.0
H829 H 0.2951 0.83097 0.78233 0.0
H830 H 0.29022 0.82941 0.64386 0.0
H831 H 0.28359 0.89646 0.62184 0.0
H832 H 0.30381 0.92032 0.58172 0.0
H833 H 0.30326 0.91586 0.682 0.0
H834 H 0.34088 0.9224 0.6757 0.0
H835 H 0.3415 0.92673 0.57545 0.0
H836 H 0.34691 0.90726 0.61185 0.0
H837 H 0.29029 0.83538 0.50343 0.0
H838 H 0.29569 0.84838 0.37274 0.0
H839 H 0.3182 0.91083 0.45739 0.0
C840 C 0.31095 0.88216 0.75022 0.0
C841 C 0.30635 0.864 0.79146 0.0
C842 C 0.29857 0.84499 0.75202 0.0
C843 C 0.29574 0.84397 0.67332 0.0
C844 C 0.30087 0.86216 0.63396 0.0
C845 C 0.30826 0.88092 0.671 0.0
C846 C 0.31397 0.89836 0.61435 0.0
C847 C 0.30034 0.90834 0.62566 0.0
C848 C 0.33719 0.91464 0.61968 0.0
C849 C 0.30895 0.88654 0.54 0.0
C850 C 0.30123 0.86565 0.5527 0.0
C851 C 0.29614 0.85171 0.49291 0.0
C852 C 0.29919 0.85929 0.41833 0.0
C853 C 0.30741 0.88073 0.40324 0.0
C854 C 0.31205 0.89438 0.46577 0.0
H855 H 0.44352 0.33992 0.40681 0.0
H856 H 0.40742 0.27454 0.35401 0.0
H857 H 0.4075 0.26598 0.49003 0.0
H858 H 0.47602 0.33492 0.54911 0.0
H859 H 0.47717 0.35548 0.60647 0.0
H860 H 0.47409 0.35584 0.50569 0.0
H861 H 0.4408 0.3583 0.52568 0.0
H862 H 0.44365 0.35772 0.62648 0.0
H863 H 0.41985 0.33887 0.58174 0.0
H864 H 0.40975 0.26537 0.63661 0.0
H865 H 0.41789 0.27254 0.7736 0.0
H866 H 0.45425 0.3382 0.72501 0.0
C867 C 0.43573 0.3238 0.42398 0.0
C868 C 0.42534 0.30785 0.37033 0.0
C869 C 0.41552 0.28692 0.39446 0.0
C870 C 0.4154 0.28199 0.47154 0.0
C871 C 0.42549 0.29819 0.5234 0.0
C872 C 0.43581 0.31867 0.49999 0.0
C873 C 0.44597 0.33331 0.56565 0.0
C874 C 0.46972 0.3456 0.55615 0.0
C875 C 0.43703 0.3479 0.57544 0.0
C876 C 0.43962 0.31799 0.63017 0.0
C877 C 0.42759 0.29778 0.60535 0.0
C878 C 0.41937 0.28114 0.6562 0.0
C879 C 0.42393 0.2853 0.7338 0.0
C880 C 0.43684 0.30586 0.75939 0.0
C881 C 0.44458 0.32231 0.70667 0.0
H882 H 0.55364 0.85841 0.33391 0.0
H883 H 0.60942 0.91683 0.28896 0.0
H884 H 0.6129 0.92502 0.4265 0.0
H885 H 0.53357 0.87739 0.48082 0.0
H886 H 0.52294 0.85356 0.53391 0.0
H887 H 0.52521 0.85312 0.43279 0.0
H888 H 0.5466 0.83442 0.44776 0.0
H889 H 0.54463 0.83505 0.54895 0.0
H890 H 0.5698 0.84612 0.50478 0.0
H891 H 0.61079 0.92508 0.57321 0.0
H892 H 0.60098 0.9191 0.70924 0.0
H893 H 0.54607 0.86111 0.65205 0.0
C894 C 0.56655 0.87298 0.35307 0.0
C895 C 0.58138 0.88696 0.30137 0.0
C896 C 0.59789 0.906 0.32804 0.0
C897 C 0.60002 0.91065 0.40591 0.0
C898 C 0.58532 0.89618 0.45578 0.0
C899 C 0.56871 0.87788 0.42978 0.0
C900 C 0.5547 0.86494 0.49351 0.0
C901 C 0.53282 0.8621 0.48473 0.0
C902 C 0.5539 0.84389 0.49905 0.0
C903 C 0.56602 0.87864 0.56003 0.0
C904 C 0.58378 0.89652 0.53784 0.0
C905 C 0.59683 0.91119 0.59081 0.0
C906 C 0.59128 0.90764 0.66784 0.0
C907 C 0.57275 0.88973 0.69068 0.0
C908 C 0.56021 0.87503 0.63591 0.0
H909 H 0.71629 0.59 0.64669 0.0
H910 H 0.65272 0.55102 0.72268 0.0
H911 H 0.64091 0.54471 0.59033 0.0
H912 H 0.70418 0.61337 0.48689 0.0
H913 H 0.72391 0.6135 0.42723 0.0
H914 H 0.72744 0.61567 0.52821 0.0
H915 H 0.73283 0.58382 0.52916 0.0
H916 H 0.72953 0.5817 0.42826 0.0
H917 H 0.71335 0.55979 0.48766 0.0
H918 H 0.63613 0.5411 0.45032 0.0
H919 H 0.63907 0.53921 0.31164 0.0
H920 H 0.70527 0.58151 0.32494 0.0
C921 C 0.69985 0.58034 0.63568 0.0
C922 C 0.68547 0.57099 0.6956 0.0
C923 C 0.66413 0.55813 0.67823 0.0
C924 C 0.65722 0.55464 0.60307 0.0
C925 C 0.67179 0.56418 0.54565 0.0
C926 C 0.69267 0.57673 0.56094 0.0
C927 C 0.70522 0.5844 0.48858 0.0
C928 C 0.71581 0.60815 0.48239 0.0
C929 C 0.72117 0.57698 0.48311 0.0
C930 C 0.68816 0.5739 0.43012 0.0
C931 C 0.66897 0.56244 0.46445 0.0
C932 C 0.651 0.55027 0.42281 0.0
C933 C 0.65276 0.54934 0.34431 0.0
C934 C 0.67227 0.56059 0.30816 0.0
C935 C 0.69013 0.57335 0.35139 0.0
H936 H 0.11556 0.66516 0.34349 0.0
H937 H 0.14541 0.73069 0.29184 0.0
H938 H 0.1452 0.73844 0.42867 0.0
H939 H 0.08146 0.66559 0.48687 0.0
H940 H 0.08279 0.64611 0.54344 0.0
H941 H 0.08605 0.64641 0.44263 0.0
H942 H 0.1215 0.64816 0.46178 0.0
H943 H 0.11845 0.64809 0.56269 0.0
H944 H 0.14125 0.6687 0.51816 0.0
H945 H 0.14266 0.73838 0.5755 0.0
H946 H 0.13401 0.73031 0.7118 0.0
H947 H 0.10416 0.66473 0.66176 0.0
C948 C 0.12208 0.68115 0.36114 0.0
C949 C 0.13069 0.69738 0.30758 0.0
C950 C 0.13874 0.71809 0.33229 0.0
C951 C 0.13878 0.72258 0.40979 0.0
C952 C 0.13041 0.70613 0.46148 0.0
C953 C 0.1219 0.6858 0.43756 0.0
C954 C 0.11299 0.67073 0.50286 0.0
C955 C 0.08943 0.65637 0.49338 0.0
C956 C 0.12423 0.65818 0.51188 0.0
C957 C 0.11786 0.68565 0.56783 0.0
C958 C 0.12817 0.70605 0.54353 0.0
C959 C 0.13448 0.72244 0.59469 0.0
C960 C 0.12967 0.71778 0.67195 0.0
C961 C 0.11839 0.69694 0.6969 0.0
C962 C 0.11269 0.6808 0.64399 0.0
H963 H 0.4185 0.11993 0.30488 0.0
H964 H 0.47301 0.11318 0.29174 0.0
H965 H 0.47151 0.10728 0.42974 0.0
H966 H 0.43291 0.14894 0.47225 0.0
H967 H 0.40714 0.13767 0.51152 0.0
H968 H 0.4106 0.13848 0.41073 0.0
H969 H 0.38633 0.09868 0.40331 0.0
H970 H 0.38262 0.09776 0.50415 0.0
H971 H 0.39181 0.08192 0.46066 0.0
H972 H 0.46592 0.10502 0.56913 0.0
H973 H 0.45643 0.10601 0.70159 0.0
H974 H 0.40624 0.1158 0.62708 0.0
C975 C 0.42963 0.11653 0.3312 0.0
C976 C 0.44566 0.11658 0.28813 0.0
C977 C 0.46051 0.11289 0.3242 0.0
C978 C 0.45977 0.10956 0.40232 0.0
C979 C 0.44413 0.11014 0.44381 0.0
C980 C 0.42926 0.11345 0.4097 0.0
C981 C 0.41516 0.11494 0.46843 0.0
C982 C 0.41654 0.13628 0.46554 0.0
C983 C 0.39264 0.09727 0.45854 0.0
C984 C 0.42465 0.11229 0.54065 0.0
C985 C 0.44123 0.10937 0.52496 0.0
C986 C 0.4529 0.1072 0.58216 0.0
C987 C 0.4475 0.108 0.65747 0.0
C988 C 0.43063 0.1111 0.67541 0.0
C989 C 0.41904 0.11316 0.61569 0.0
H990 H 0.29559 0.41228 0.62802 0.0
H991 H 0.35732 0.45855 0.70244 0.0
H992 H 0.36831 0.46695 0.56977 0.0
H993 H 0.31253 0.39427 0.46503 0.0
H994 H 0.29095 0.3906 0.4073 0.0
H995 H 0.28801 0.38762 0.50835 0.0
H996 H 0.27607 0.41493 0.51298 0.0
H997 H 0.27884 0.4179 0.41205 0.0
H998 H 0.29238 0.44024 0.47236 0.0
H999 H 0.3721 0.47185 0.42959 0.0
H1000 H 0.36804 0.47328 0.29128 0.0
H1001 H 0.30465 0.42276 0.30647 0.0
C1002 C 0.31152 0.42397 0.61678 0.0
C1003 C 0.32553 0.43475 0.67643 0.0
C1004 C 0.34613 0.45023 0.6584 0.0
C1005 C 0.35261 0.45499 0.58298 0.0
C1006 C 0.3384 0.44403 0.5259 0.0
C1007 C 0.31829 0.42882 0.54181 0.0
C1008 C 0.30587 0.41986 0.46987 0.0
C1009 C 0.29893 0.39671 0.46221 0.0
C1010 C 0.28719 0.42346 0.46665 0.0
C1011 C 0.32205 0.4327 0.41094 0.0
C1012 C 0.34075 0.44648 0.44464 0.0
C1013 C 0.35765 0.46092 0.40255 0.0
C1014 C 0.35526 0.46162 0.32428 0.0
C1015 C 0.33621 0.44788 0.28876 0.0
C1016 C 0.31953 0.43298 0.33241 0.0
H1017 H 0.87311 0.28647 0.57953 0.0
H1018 H 0.92107 0.34835 0.64129 0.0
H1019 H 0.92641 0.35849 0.50582 0.0
H1020 H 0.8958 0.28144 0.40848 0.0
H1021 H 0.8715 0.26809 0.35819 0.0
H1022 H 0.87194 0.26574 0.45935 0.0
H1023 H 0.84543 0.27857 0.47346 0.0
H1024 H 0.8447 0.2807 0.37234 0.0
H1025 H 0.85101 0.30286 0.431 0.0
H1026 H 0.92734 0.36099 0.36163 0.0
H1027 H 0.92017 0.35722 0.22347 0.0
H1028 H 0.86989 0.29458 0.25891 0.0
C1029 C 0.88469 0.30215 0.56419 0.0
C1030 C 0.89679 0.31666 0.62015 0.0
C1031 C 0.91163 0.33712 0.59878 0.0
C1032 C 0.91485 0.34291 0.52217 0.0
C1033 C 0.90282 0.32811 0.46805 0.0
C1034 C 0.88774 0.30826 0.48838 0.0
C1035 C 0.8761 0.29555 0.42009 0.0
C1036 C 0.87902 0.27659 0.41102 0.0
C1037 C 0.85294 0.28905 0.4245 0.0
C1038 C 0.88704 0.31124 0.35788 0.0
C1039 C 0.90265 0.32985 0.38631 0.0
C1040 C 0.91508 0.34653 0.33893 0.0
C1041 C 0.91107 0.34427 0.26083 0.0
C1042 C 0.89462 0.32562 0.23157 0.0
C1043 C 0.88262 0.30891 0.28057 0.0
H1044 H 0.0376 0.38954 0.14096 0.0
H1045 H 0.07056 0.38355 0.94899 0.0
H1046 H 0.03694 0.35814 0.89178 0.0
H1047 H 0.994 0.3351 0.14518 0.0
H1048 H 0.97541 0.34301 0.16957 0.0
H1049 H 1.002 0.35822 0.2004 0.0
H1050 H 0.00453 0.39083 0.13699 0.0
H1051 H 0.978 0.37575 0.10627 0.0
H1052 H 0.99827 0.38998 0.03819 0.0
H1053 H 0.99992 0.33696 0.8488 0.0
H1054 H 0.96271 0.32275 0.82071 0.0
H1055 H 0.9536 0.34238 0.04077 0.0
C1056 C 0.03786 0.38256 0.08766 0.0
C1057 C 0.05682 0.38846 0.04972 0.0
C1058 C 0.05632 0.37919 0.97942 0.0
C1059 C 0.03727 0.36469 0.94666 0.0
C1060 C 0.01888 0.35955 0.98505 0.0
C1061 C 0.01904 0.36819 0.05416 0.0
C1062 C 0.99717 0.36169 0.08049 0.0
C1063 C 0.99184 0.34873 0.15323 0.0
C1064 C 0.99433 0.38069 0.09106 0.0
C1065 C 0.9846 0.34853 1.01422 0.0
C1066 C 0.99744 0.34726 0.96032 0.0
C1067 C 0.98972 0.33752 0.89121 0.0
C1068 C 0.96856 0.32947 0.87581 0.0
C1069 C 0.95525 0.33113 0.92914 0.0
C1070 C 0.96328 0.34027 1.00009 0.0
H1071 H 0.60817 0.95969 0.86001 0.0
H1072 H 0.62064 0.94419 0.08281 0.0
H1073 H 0.64637 0.98136 0.10469 0.0
H1074 H 0.66154 1.00126 0.81795 0.0
H1075 H 0.65242 0.01647 0.76895 0.0
H1076 H 0.63696 0.98857 0.76918 0.0
H1077 H 0.60578 0.99097 0.82314 0.0
H1078 H 0.62113 0.0188 0.82346 0.0
H1079 H 0.60899 0.00511 0.90942 0.0
H1080 H 0.66797 0.02135 0.10575 0.0
H1081 H 0.68382 0.05919 0.08465 0.0
H1082 H 0.65699 0.04731 0.85993 0.0
C1083 C 0.61656 0.96401 0.91305 0.0
C1084 C 0.61242 0.94905 0.96974 0.0
C1085 C 0.62371 0.95537 0.03831 0.0
C1086 C 0.63829 0.97646 0.05122 0.0
C1087 C 0.64158 0.99091 0.99456 0.0
C1088 C 0.63115 0.98481 0.92645 0.0
C1089 C 0.63644 0.0032 0.87584 0.0
C1090 C 0.6475 0.00232 0.80372 0.0
C1091 C 0.61693 0.0046 0.85691 0.0
C1092 C 0.65108 0.02078 0.92664 0.0
C1093 C 0.65401 0.0135 0.99478 0.0
C1094 C 0.66597 0.02713 0.05213 0.0
C1095 C 0.67488 0.04863 0.0397 0.0
C1096 C 0.67176 0.05633 0.97051 0.0
C1097 C 0.65997 0.04208 0.91314 0.0
H1098 H 0.66509 0.61848 0.86726 0.0
H1099 H 0.67569 0.61658 0.10721 0.0
H1100 H 0.66351 0.64182 0.12954 0.0
H1101 H 0.67824 0.67346 0.85478 0.0
H1102 H 0.65786 0.66726 0.78696 0.0
H1103 H 0.67075 0.65217 0.79017 0.0
H1104 H 0.63515 0.61864 0.80675 0.0
H1105 H 0.62218 0.63357 0.80417 0.0
H1106 H 0.61844 0.61689 0.88365 0.0
H1107 H 0.64601 0.6644 0.12479 0.0
H1108 H 0.625 0.68088 0.09502 0.0
H1109 H 0.62488 0.66584 0.85835 0.0
C1110 C 0.66537 0.6237 0.92456 0.0
C1111 C 0.67144 0.61561 0.98555 0.0
C1112 C 0.67138 0.62278 0.05953 0.0
C1113 C 0.66441 0.63705 0.0726 0.0
C1114 C 0.65775 0.64408 1.01102 0.0
C1115 C 0.65839 0.63768 0.93836 0.0
C1116 C 0.64863 0.64565 0.88222 0.0
C1117 C 0.66484 0.66052 0.82518 0.0
C1118 C 0.63 0.62762 0.84189 0.0
C1119 C 0.64173 0.65709 0.93456 0.0
C1120 C 0.64737 0.65637 1.00851 0.0
C1121 C 0.64167 0.6651 0.06695 0.0
C1122 C 0.62958 0.67433 0.04951 0.0
C1123 C 0.62295 0.67445 0.97441 0.0
C1124 C 0.62965 0.66613 0.91633 0.0
H1125 H 0.04538 0.66317 0.1885 0.0
H1126 H 0.05788 0.67937 0.95139 0.0
H1127 H 0.02012 0.66277 0.92712 0.0
H1128 H 0.00398 0.61431 0.16314 0.0
H1129 H 0.98931 0.61483 0.24338 0.0
H1130 H 0.01713 0.63061 0.24312 0.0
H1131 H 0.01411 0.66341 0.26694 0.0
H1132 H 0.98618 0.64767 0.26736 0.0
H1133 H 0.99879 0.66944 0.2038 0.0
H1134 H 0.98023 0.64018 0.9272 0.0
H1135 H 0.94334 0.61398 0.95207 0.0
H1136 H 0.95793 0.61371 0.189 0.0
C1137 C 0.0403 0.66375 0.13167 0.0
C1138 C 0.05472 0.6725 0.07182 0.0
C1139 C 0.04721 0.67263 0.99822 0.0
C1140 C 0.02574 0.66332 0.98394 0.0
C1141 C 0.01192 0.6542 0.04401 0.0
C1142 C 0.01902 0.65459 0.11659 0.0
C1143 C 1.00123 0.64232 0.17054 0.0
C1144 C 1.00302 0.62446 0.20713 0.0
C1145 C 1.00001 0.65656 0.23071 0.0
C1146 C 0.98302 0.63427 0.11673 0.0
C1147 C 0.98932 0.64148 0.04409 0.0
C1148 C 0.97514 0.63476 0.98419 0.0
C1149 C 0.95418 0.61995 0.99878 0.0
C1150 C 0.94773 0.61188 0.0725 0.0
C1151 C 0.96232 0.61967 0.13208 0.0
H1152 H 0.35148 0.95291 0.90042 0.0
H1153 H 0.32939 0.94435 0.13169 0.0
H1154 H 0.34525 0.98243 0.14532 0.0
H1155 H 0.3998 0.9965 0.93171 0.0
H1156 H 0.4004 0.00892 0.84353 0.0
H1157 H 0.38574 0.98112 0.85101 0.0
H1158 H 0.35257 0.98126 0.8062 0.0
H1159 H 0.36716 0.00911 0.79822 0.0
H1160 H 0.34406 0.99688 0.85568 0.0
H1161 H 0.36656 0.02261 0.13475 0.0
H1162 H 0.39014 0.05954 0.10017 0.0
H1163 H 0.39689 0.04018 0.87595 0.0
C1164 C 0.34963 0.95889 0.95381 0.0
C1165 C 0.3393 0.94551 1.01522 0.0
C1166 C 0.33739 0.95421 0.08395 0.0
C1167 C 0.34629 0.97586 0.09212 0.0
C1168 C 0.35686 0.98862 0.03077 0.0
C1169 C 0.35832 0.98031 0.96275 0.0
C1170 C 0.37116 0.99708 0.90608 0.0
C1171 C 0.39041 0.99582 0.88171 0.0
C1172 C 0.35794 0.99602 0.83751 0.0
C1173 C 0.37714 0.0162 0.95302 0.0
C1174 C 0.36871 0.0112 0.0247 0.0
C1175 C 0.37302 0.02662 0.07843 0.0
C1176 C 0.38641 0.04757 0.05836 0.0
C1177 C 0.39539 0.05283 0.98538 0.0
C1178 C 0.39033 0.03682 0.93228 0.0
H1179 H 0.34383 0.38476 0.86691 0.0
H1180 H 0.33388 0.3908 0.10449 0.0
H1181 H 0.34591 0.36585 0.13553 0.0
H1182 H 0.33026 0.3294 0.86952 0.0
H1183 H 0.35039 0.33431 0.80211 0.0
H1184 H 0.33757 0.34948 0.79946 0.0
H1185 H 0.37329 0.38318 0.80953 0.0
H1186 H 0.38618 0.36819 0.81282 0.0
H1187 H 0.39025 0.3863 0.88745 0.0
H1188 H 0.36358 0.3434 0.13949 0.0
H1189 H 0.38471 0.32666 0.11691 0.0
H1190 H 0.38366 0.33708 0.87627 0.0
C1191 C 0.34364 0.38046 0.92551 0.0
C1192 C 0.33782 0.38965 0.98332 0.0
C1193 C 0.33797 0.38372 0.05921 0.0
C1194 C 0.34487 0.36962 0.07723 0.0
C1195 C 0.35131 0.36149 0.01861 0.0
C1196 C 0.35049 0.36662 0.94414 0.0
C1197 C 0.36001 0.35761 0.89158 0.0
C1198 C 0.34358 0.34176 0.83749 0.0
C1199 C 0.37852 0.37484 0.84784 0.0
C1200 C 0.36704 0.34712 0.94795 0.0
C1201 C 0.36166 0.34917 0.02091 0.0
C1202 C 0.36767 0.34161 0.08244 0.0
C1203 C 0.3798 0.33219 0.06907 0.0
C1204 C 0.38613 0.3307 0.99483 0.0
C1205 C 0.37911 0.33784 0.93374 0.0
loop_
_geom_bond_atom_site_label_1
_geom_bond_atom_site_label_2
_geom_bond_distance
_geom_bond_site_symmetry_2
_ccdc_geom_bond_type
C0 C1 1.351 . S
C0 N3 1.368 . S
C0 H5 0.931 . S
C1 C0 1.351 . S
C1 N2 1.373 . S
C1 H29 0.930 . S
N2 C1 1.373 . S
N2 C4 1.340 . S
N3 C0 1.368 . S
N3 C4 1.321 . S
N3 Co6 2.135 1_556 S
C4 N2 1.340 . S
C4 N3 1.321 . S
C4 H28 0.930 . S
H5 C0 0.931 . S
Co6 N3 2.135 1_554 S
Co6 N9 2.121 . S
Co6 O14 2.055 . S
Co6 O17 2.039 1_554 S
Co6 N20 2.140 . S
C7 O8 1.227 . S
C7 O17 1.265 . S
O8 C7 1.227 . S
N9 Co6 2.121 . S
N9 C11 1.375 . S
N9 C12 1.313 . S
C10 C11 1.338 . S
C10 N13 1.377 . S
C10 H30 0.930 . S
C11 N9 1.375 . S
C11 C10 1.338 . S
C11 H15 0.931 . S
C12 N9 1.313 . S
C12 N13 1.344 . S
C12 H16 0.930 . S
N13 C10 1.377 . S
N13 C12 1.344 . S
O14 Co6 2.055 . S
O14 C18 1.253 . S
H15 C11 0.931 . S
H16 C12 0.930 . S
O17 Co6 2.039 1_556 S
O17 C7 1.265 . S
C18 O14 1.253 . S
C18 O19 1.227 . S
O19 C18 1.227 . S
N20 Co6 2.140 . S
N20 C23 1.346 1_554 S
N20 C24 1.345 . S
C21 C22 1.387 . S
C21 C25 1.391 1_556 S
C22 C21 1.387 . S
C22 C23 1.369 . S
C22 H31 0.929 . S
C23 N20 1.346 1_556 S
C23 C22 1.369 . S
C23 H26 0.928 . S
C24 N20 1.345 . S
C24 C25 1.371 . S
C24 H27 0.931 . S
C25 C21 1.391 1_554 S
C25 C24 1.371 . S
C25 H32 0.930 . S
H26 C23 0.928 . S
H27 C24 0.931 . S
H28 C4 0.930 . S
H29 C1 0.930 . S
H30 C10 0.930 . S
H31 C22 0.929 . S
H32 C25 0.930 . S
C33 C34 1.351 . S
C33 N36 1.368 . S
C33 H38 0.931 . S
C34 C33 1.351 . S
C34 N35 1.373 . S
C34 H62 0.930 . S
N35 C34 1.373 . S
N35 C37 1.340 . S
N36 C33 1.368 . S
N36 C37 1.321 . S
N36 Co39 2.135 1_556 S
C37 N35 1.340 . S
C37 N36 1.321 . S
C37 H61 0.930 . S
H38 C33 0.931 . S
Co39 N36 2.135 1_554 S
Co39 N42 2.121 . S
Co39 O47 2.055 . S
Co39 O50 2.039 1_554 S
Co39 N53 2.140 . S
C40 O41 1.227 . S
C40 O50 1.265 . S
O41 C40 1.227 . S
N42 Co39 2.121 . S
N42 C44 1.375 . S
N42 C45 1.313 . S
C43 C44 1.338 . S
C43 N46 1.377 . S
C43 H63 0.930 . S
C44 N42 1.375 . S
C44 C43 1.338 . S
C44 H48 0.931 . S
C45 N42 1.313 . S
C45 N46 1.344 . S
C45 H49 0.930 . S
N46 C43 1.377 . S
N46 C45 1.344 . S
O47 Co39 2.055 . S
O47 C51 1.253 . S
H48 C44 0.931 . S
H49 C45 0.930 . S
O50 Co39 2.039 1_556 S
O50 C40 1.265 . S
C51 O47 1.253 . S
C51 O52 1.227 . S
O52 C51 1.227 . S
N53 Co39 2.140 . S
N53 C56 1.346 1_554 S
N53 C57 1.345 . S
C54 C55 1.387 . S
C54 C58 1.391 1_556 S
C55 C54 1.387 . S
C55 C56 1.369 . S
C55 H64 0.929 . S
C56 N53 1.346 1_556 S
C56 C55 1.369 . S
C56 H59 0.928 . S
C57 N53 1.345 . S
C57 C58 1.371 . S
C57 H60 0.931 . S
C58 C54 1.391 1_554 S
C58 C57 1.371 . S
C58 H65 0.930 . S
H59 C56 0.928 . S
H60 C57 0.931 . S
H61 C37 0.930 . S
H62 C34 0.930 . S
H63 C43 0.930 . S
H64 C55 0.929 . S
H65 C58 0.930 . S
C66 C67 1.351 . S
C66 N69 1.368 . S
C66 H71 0.931 . S
C67 C66 1.351 . S
C67 N68 1.373 . S
C67 H95 0.930 . S
N68 C67 1.373 . S
N68 C70 1.340 . S
N69 C66 1.368 . S
N69 C70 1.321 . S
N69 Co72 2.135 1_556 S
C70 N68 1.340 . S
C70 N69 1.321 . S
C70 H94 0.930 . S
H71 C66 0.931 . S
Co72 N69 2.135 1_554 S
Co72 N75 2.121 . S
Co72 O80 2.055 . S
Co72 O83 2.039 1_554 S
Co72 N86 2.140 . S
C73 O74 1.227 . S
C73 O83 1.265 . S
O74 C73 1.227 . S
N75 Co72 2.121 . S
N75 C77 1.375 . S
N75 C78 1.313 . S
C76 C77 1.338 . S
C76 N79 1.377 . S
C76 H96 0.930 . S
C77 N75 1.375 . S
C77 C76 1.338 . S
C77 H81 0.931 . S
C78 N75 1.313 . S
C78 N79 1.344 . S
C78 H82 0.930 . S
N79 C76 1.377 . S
N79 C78 1.344 . S
O80 Co72 2.055 . S
O80 C84 1.253 . S
H81 C77 0.931 . S
H82 C78 0.930 . S
O83 Co72 2.039 1_556 S
O83 C73 1.265 . S
C84 O80 1.253 . S
C84 O85 1.227 . S
O85 C84 1.227 . S
N86 Co72 2.140 . S
N86 C89 1.346 1_554 S
N86 C90 1.345 . S
C87 C88 1.386 . S
C87 C91 1.392 1_556 S
C88 C87 1.386 . S
C88 C89 1.369 . S
C88 H97 0.929 . S
C89 N86 1.346 1_556 S
C89 C88 1.369 . S
C89 H92 0.928 . S
C90 N86 1.345 . S
C90 C91 1.371 . S
C90 H93 0.931 . S
C91 C87 1.392 1_554 S
C91 C90 1.371 . S
C91 H98 0.930 . S
H92 C89 0.928 . S
H93 C90 0.931 . S
H94 C70 0.930 . S
H95 C67 0.930 . S
H96 C76 0.930 . S
H97 C88 0.929 . S
H98 C91 0.930 . S
C99 C100 1.351 . S
C99 N102 1.368 . S
C99 H104 0.931 . S
C100 C99 1.351 . S
C100 N101 1.373 . S
C100 H128 0.930 . S
N101 C100 1.373 . S
N101 C103 1.340 . S
N102 C99 1.368 . S
N102 C103 1.321 . S
N102 Co105 2.135 1_556 S
C103 N101 1.340 . S
C103 N102 1.321 . S
C103 H127 0.930 . S
H104 C99 0.931 . S
Co105 N102 2.135 1_554 S
Co105 N108 2.121 . S
Co105 O113 2.055 . S
Co105 O116 2.039 1_554 S
Co105 N119 2.140 . S
C106 O107 1.227 . S
C106 O116 1.265 . S
O107 C106 1.227 . S
N108 Co105 2.121 . S
N108 C110 1.375 . S
N108 C111 1.313 . S
C109 C110 1.338 . S
C109 N112 1.377 . S
C109 H129 0.930 . S
C110 N108 1.375 . S
C110 C109 1.338 . S
C110 H114 0.931 . S
C111 N108 1.313 . S
C111 N112 1.344 . S
C111 H115 0.930 . S
N112 C109 1.377 . S
N112 C111 1.344 . S
O113 Co105 2.055 . S
O113 C117 1.253 . S
H114 C110 0.931 . S
H115 C111 0.930 . S
O116 Co105 2.039 1_556 S
O116 C106 1.265 . S
C117 O113 1.253 . S
C117 O118 1.227 . S
O118 C117 1.227 . S
N119 Co105 2.140 . S
N119 C122 1.346 1_554 S
N119 C123 1.345 . S
C120 C121 1.387 . S
C120 C124 1.391 1_556 S
C121 C120 1.387 . S
C121 C122 1.369 . S
C121 H130 0.929 . S
C122 N119 1.346 1_556 S
C122 C121 1.369 . S
C122 H125 0.928 . S
C123 N119 1.345 . S
C123 C124 1.371 . S
C123 H126 0.931 . S
C124 C120 1.391 1_554 S
C124 C123 1.371 . S
C124 H131 0.930 . S
H125 C122 0.928 . S
H126 C123 0.931 . S
H127 C103 0.930 . S
H128 C100 0.930 . S
H129 C109 0.930 . S
H130 C121 0.929 . S
H131 C124 0.930 . S
C132 C133 1.351 . S
C132 N135 1.368 . S
C132 H137 0.931 . S
C133 C132 1.351 . S
C133 N134 1.373 . S
C133 H161 0.930 . S
N134 C133 1.373 . S
N134 C136 1.340 . S
N135 C132 1.368 . S
N135 C136 1.321 . S
N135 Co138 2.135 1_556 S
C136 N134 1.340 . S
C136 N135 1.321 . S
C136 H160 0.930 . S
H137 C132 0.931 . S
Co138 N135 2.135 1_554 S
Co138 N141 2.121 . S
Co138 O146 2.055 . S
Co138 O149 2.039 1_554 S
Co138 N152 2.140 . S
C139 O140 1.227 . S
C139 O149 1.265 . S
O140 C139 1.227 . S
N141 Co138 2.121 . S
N141 C143 1.375 . S
N141 C144 1.313 . S
C142 C143 1.338 . S
C142 N145 1.377 . S
C142 H162 0.930 . S
C143 N141 1.375 . S
C143 C142 1.338 . S
C143 H147 0.931 . S
C144 N141 1.313 . S
C144 N145 1.344 . S
C144 H148 0.930 . S
N145 C142 1.377 . S
N145 C144 1.344 . S
O146 Co138 2.055 . S
O146 C150 1.253 . S
H147 C143 0.931 . S
H148 C144 0.930 . S
O149 Co138 2.039 1_556 S
O149 C139 1.265 . S
C150 O146 1.253 . S
C150 O151 1.227 . S
O151 C150 1.227 . S
N152 Co138 2.140 . S
N152 C155 1.346 1_554 S
N152 C156 1.345 . S
C153 C154 1.387 . S
C153 C157 1.391 1_556 S
C154 C153 1.387 . S
C154 C155 1.369 . S
C154 H163 0.929 . S
C155 N152 1.346 1_556 S
C155 C154 1.369 . S
C155 H158 0.928 . S
C156 N152 1.345 . S
C156 C157 1.371 . S
C156 H159 0.931 . S
C157 C153 1.391 1_554 S
C157 C156 1.371 . S
C157 H164 0.930 . S
H158 C155 0.928 . S
H159 C156 0.931 . S
H160 C136 0.930 . S
H161 C133 0.930 . S
H162 C142 0.930 . S
H163 C154 0.929 . S
H164 C157 0.930 . S
C165 C166 1.351 . S
C165 N168 1.368 . S
C165 H170 0.931 . S
C166 C165 1.351 . S
C166 N167 1.373 . S
C166 H194 0.930 . S
N167 C166 1.373 . S
N167 C169 1.340 . S
N168 C165 1.368 . S
N168 C169 1.321 . S
N168 Co171 2.135 1_556 S
C169 N167 1.340 . S
C169 N168 1.321 . S
C169 H193 0.930 . S
H170 C165 0.931 . S
Co171 N168 2.135 1_554 S
Co171 N174 2.121 . S
Co171 O179 2.055 . S
Co171 O182 2.039 1_554 S
Co171 N185 2.140 . S
C172 O173 1.227 . S
C172 O182 1.265 . S
O173 C172 1.227 . S
N174 Co171 2.121 . S
N174 C176 1.375 . S
N174 C177 1.313 . S
C175 C176 1.338 . S
C175 N178 1.377 . S
C175 H195 0.930 . S
C176 N174 1.375 . S
C176 C175 1.338 . S
C176 H180 0.931 . S
C177 N174 1.313 . S
C177 N178 1.344 . S
C177 H181 0.930 . S
N178 C175 1.377 . S
N178 C177 1.344 . S
O179 Co171 2.055 . S
O179 C183 1.253 . S
H180 C176 0.931 . S
H181 C177 0.930 . S
O182 Co171 2.039 1_556 S
O182 C172 1.265 . S
C183 O179 1.253 . S
C183 O184 1.227 . S
O184 C183 1.227 . S
N185 Co171 2.140 . S
N185 C188 1.346 1_554 S
N185 C189 1.345 . S
C186 C187 1.386 . S
C186 C190 1.392 1_556 S
C187 C186 1.386 . S
C187 C188 1.369 . S
C187 H196 0.929 . S
C188 N185 1.346 1_556 S
C188 C187 1.369 . S
C188 H191 0.928 . S
C189 N185 1.345 . S
C189 C190 1.371 . S
C189 H192 0.931 . S
C190 C186 1.392 1_554 S
C190 C189 1.371 . S
C190 H197 0.930 . S
H191 C188 0.928 . S
H192 C189 0.931 . S
H193 C169 0.930 . S
H194 C166 0.930 . S
H195 C175 0.930 . S
H196 C187 0.929 . S
H197 C190 0.930 . S
C198 C199 1.351 . S
C198 N201 1.368 . S
C198 H203 0.931 . S
C199 C198 1.351 . S
C199 N200 1.373 . S
C199 H227 0.930 . S
N200 C199 1.373 . S
N200 C202 1.340 . S
N201 C198 1.368 . S
N201 C202 1.321 . S
N201 Co204 2.135 . S
C202 N200 1.340 . S
C202 N201 1.321 . S
C202 H226 0.930 . S
H203 C198 0.931 . S
Co204 N201 2.135 . S
Co204 N207 2.121 1_554 S
Co204 O212 2.055 1_554 S
Co204 O215 2.039 . S
Co204 N218 2.140 . S
C205 O206 1.227 . S
C205 O215 1.265 . S
O206 C205 1.227 . S
N207 Co204 2.121 1_556 S
N207 C209 1.375 . S
N207 C210 1.313 . S
C208 C209 1.338 . S
C208 N211 1.377 . S
C208 H228 0.930 . S
C209 N207 1.375 . S
C209 C208 1.338 . S
C209 H213 0.931 . S
C210 N207 1.313 . S
C210 N211 1.344 . S
C210 H214 0.930 . S
N211 C208 1.377 . S
N211 C210 1.344 . S
O212 Co204 2.055 1_556 S
O212 C216 1.253 . S
H213 C209 0.931 . S
H214 C210 0.930 . S
O215 Co204 2.039 . S
O215 C205 1.265 . S
C216 O212 1.253 . S
C216 O217 1.227 . S
O217 C216 1.227 . S
N218 Co204 2.140 . S
N218 C221 1.346 . S
N218 C222 1.345 1_554 S
C219 C220 1.387 . S
C219 C223 1.391 1_554 S
C220 C219 1.387 . S
C220 C221 1.369 . S
C220 H229 0.929 . S
C221 N218 1.346 . S
C221 C220 1.369 . S
C221 H224 0.928 . S
C222 N218 1.345 1_556 S
C222 C223 1.371 . S
C222 H225 0.931 . S
C223 C219 1.391 1_556 S
C223 C222 1.371 . S
C223 H230 0.930 . S
H224 C221 0.928 . S
H225 C222 0.931 . S
H226 C202 0.930 . S
H227 C199 0.930 . S
H228 C208 0.930 . S
H229 C220 0.929 . S
H230 C223 0.930 . S
C231 C232 1.351 . S
C231 N234 1.368 . S
C231 H236 0.931 . S
C232 C231 1.351 . S
C232 N233 1.373 . S
C232 H260 0.930 . S
N233 C232 1.373 . S
N233 C235 1.340 . S
N234 C231 1.368 . S
N234 C235 1.321 . S
N234 Co237 2.135 . S
C235 N233 1.340 . S
C235 N234 1.321 . S
C235 H259 0.930 . S
H236 C231 0.931 . S
Co237 N234 2.135 . S
Co237 N240 2.121 1_554 S
Co237 O245 2.055 1_554 S
Co237 O248 2.039 . S
Co237 N251 2.140 . S
C238 O239 1.227 . S
C238 O248 1.265 . S
O239 C238 1.227 . S
N240 Co237 2.121 1_556 S
N240 C242 1.375 . S
N240 C243 1.313 . S
C241 C242 1.338 . S
C241 N244 1.377 . S
C241 H261 0.930 . S
C242 N240 1.375 . S
C242 C241 1.338 . S
C242 H246 0.931 . S
C243 N240 1.313 . S
C243 N244 1.344 . S
C243 H247 0.930 . S
N244 C241 1.377 . S
N244 C243 1.344 . S
O245 Co237 2.055 1_556 S
O245 C249 1.253 . S
H246 C242 0.931 . S
H247 C243 0.930 . S
O248 Co237 2.039 . S
O248 C238 1.265 . S
C249 O245 1.253 . S
C249 O250 1.227 . S
O250 C249 1.227 . S
N251 Co237 2.140 . S
N251 C254 1.346 . S
N251 C255 1.345 1_554 S
C252 C253 1.387 . S
C252 C256 1.391 1_554 S
C253 C252 1.387 . S
C253 C254 1.369 . S
C253 H262 0.929 . S
C254 N251 1.346 . S
C254 C253 1.369 . S
C254 H257 0.928 . S
C255 N251 1.345 1_556 S
C255 C256 1.371 . S
C255 H258 0.931 . S
C256 C252 1.391 1_556 S
C256 C255 1.371 . S
C256 H263 0.930 . S
H257 C254 0.928 . S
H258 C255 0.931 . S
H259 C235 0.930 . S
H260 C232 0.930 . S
H261 C241 0.930 . S
H262 C253 0.929 . S
H263 C256 0.930 . S
C264 C265 1.351 . S
C264 N267 1.368 . S
C264 H269 0.931 . S
C265 C264 1.351 . S
C265 N266 1.373 . S
C265 H293 0.930 . S
N266 C265 1.373 . S
N266 C268 1.340 . S
N267 C264 1.368 . S
N267 C268 1.321 . S
N267 Co270 2.135 . S
C268 N266 1.340 . S
C268 N267 1.321 . S
C268 H292 0.930 . S
H269 C264 0.931 . S
Co270 N267 2.135 . S
Co270 N273 2.121 1_554 S
Co270 O278 2.055 1_554 S
Co270 O281 2.039 . S
Co270 N284 2.140 . S
C271 O272 1.227 . S
C271 O281 1.265 . S
O272 C271 1.227 . S
N273 Co270 2.121 1_556 S
N273 C275 1.375 . S
N273 C276 1.313 . S
C274 C275 1.338 . S
C274 N277 1.377 . S
C274 H294 0.930 . S
C275 N273 1.375 . S
C275 C274 1.338 . S
C275 H279 0.931 . S
C276 N273 1.313 . S
C276 N277 1.344 . S
C276 H280 0.930 . S
N277 C274 1.377 . S
N277 C276 1.344 . S
O278 Co270 2.055 1_556 S
O278 C282 1.253 . S
H279 C275 0.931 . S
H280 C276 0.930 . S
O281 Co270 2.039 . S
O281 C271 1.265 . S
C282 O278 1.253 . S
C282 O283 1.227 . S
O283 C282 1.227 . S
N284 Co270 2.140 . S
N284 C287 1.346 . S
N284 C288 1.345 1_554 S
C285 C286 1.387 . S
C285 C289 1.391 1_554 S
C286 C285 1.387 . S
C286 C287 1.369 . S
C286 H295 0.929 . S
C287 N284 1.346 . S
C287 C286 1.369 . S
C287 H290 0.928 . S
C288 N284 1.345 1_556 S
C288 C289 1.371 . S
C288 H291 0.931 . S
C289 C285 1.391 1_556 S
C289 C288 1.371 . S
C289 H296 0.930 . S
H290 C287 0.928 . S
H291 C288 0.931 . S
H292 C268 0.930 . S
H293 C265 0.930 . S
H294 C274 0.930 . S
H295 C286 0.929 . S
H296 C289 0.930 . S
C297 C298 1.351 . S
C297 N300 1.368 . S
C297 H302 0.931 . S
C298 C297 1.351 . S
C298 N299 1.373 . S
C298 H326 0.930 . S
N299 C298 1.373 . S
N299 C301 1.340 . S
N300 C297 1.368 . S
N300 C301 1.321 . S
N300 Co303 2.135 . S
C301 N299 1.340 . S
C301 N300 1.321 . S
C301 H325 0.930 . S
H302 C297 0.931 . S
Co303 N300 2.135 . S
Co303 N306 2.121 1_554 S
Co303 O311 2.055 1_554 S
Co303 O314 2.039 . S
Co303 N317 2.140 . S
C304 O305 1.227 . S
C304 O314 1.265 . S
O305 C304 1.227 . S
N306 Co303 2.121 1_556 S
N306 C308 1.375 . S
N306 C309 1.313 . S
C307 C308 1.338 . S
C307 N310 1.377 . S
C307 H327 0.930 . S
C308 N306 1.375 . S
C308 C307 1.338 . S
C308 H312 0.931 . S
C309 N306 1.313 . S
C309 N310 1.344 . S
C309 H313 0.930 . S
N310 C307 1.377 . S
N310 C309 1.344 . S
O311 Co303 2.055 1_556 S
O311 C315 1.253 . S
H312 C308 0.931 . S
H313 C309 0.930 . S
O314 Co303 2.039 . S
O314 C304 1.265 . S
C315 O311 1.253 . S
C315 O316 1.227 . S
O316 C315 1.227 . S
N317 Co303 2.140 . S
N317 C320 1.346 . S
N317 C321 1.345 1_554 S
C318 C319 1.387 . S
C318 C322 1.391 1_554 S
C319 C318 1.387 . S
C319 C320 1.369 . S
C319 H328 0.929 . S
C320 N317 1.346 . S
C320 C319 1.369 . S
C320 H323 0.928 . S
C321 N317 1.345 1_556 S
C321 C322 1.371 . S
C321 H324 0.931 . S
C322 C318 1.391 1_556 S
C322 C321 1.371 . S
C322 H329 0.930 . S
H323 C320 0.928 . S
H324 C321 0.931 . S
H325 C301 0.930 . S
H326 C298 0.930 . S
H327 C307 0.930 . S
H328 C319 0.929 . S
H329 C322 0.930 . S
C330 C331 1.351 . S
C330 N333 1.368 . S
C330 H335 0.931 . S
C331 C330 1.351 . S
C331 N332 1.373 . S
C331 H359 0.930 . S
N332 C331 1.373 . S
N332 C334 1.340 . S
N333 C330 1.368 . S
N333 C334 1.321 . S
N333 Co336 2.135 . S
C334 N332 1.340 . S
C334 N333 1.321 . S
C334 H358 0.930 . S
H335 C330 0.931 . S
Co336 N333 2.135 . S
Co336 N339 2.121 1_554 S
Co336 O344 2.055 1_554 S
Co336 O347 2.039 . S
Co336 N350 2.140 . S
C337 O338 1.227 . S
C337 O347 1.265 . S
O338 C337 1.227 . S
N339 Co336 2.121 1_556 S
N339 C341 1.375 . S
N339 C342 1.313 . S
C340 C341 1.338 . S
C340 N343 1.377 . S
C340 H360 0.930 . S
C341 N339 1.375 . S
C341 C340 1.338 . S
C341 H345 0.931 . S
C342 N339 1.313 . S
C342 N343 1.344 . S
C342 H346 0.930 . S
N343 C340 1.377 . S
N343 C342 1.344 . S
O344 Co336 2.055 1_556 S
O344 C348 1.253 . S
H345 C341 0.931 . S
H346 C342 0.930 . S
O347 Co336 2.039 . S
O347 C337 1.265 . S
C348 O344 1.253 . S
C348 O349 1.227 . S
O349 C348 1.227 . S
N350 Co336 2.140 . S
N350 C353 1.346 . S
N350 C354 1.345 1_554 S
C351 C352 1.387 . S
C351 C355 1.391 1_554 S
C352 C351 1.387 . S
C352 C353 1.369 . S
C352 H361 0.929 . S
C353 N350 1.346 . S
C353 C352 1.369 . S
C353 H356 0.928 . S
C354 N350 1.345 1_556 S
C354 C355 1.371 . S
C354 H357 0.931 . S
C355 C351 1.391 1_556 S
C355 C354 1.371 . S
C355 H362 0.930 . S
H356 C353 0.928 . S
H357 C354 0.931 . S
H358 C334 0.930 . S
H359 C331 0.930 . S
H360 C340 0.930 . S
H361 C352 0.929 . S
H362 C355 0.930 . S
C363 C364 1.351 . S
C363 N366 1.368 . S
C363 H368 0.931 . S
C364 C363 1.351 . S
C364 N365 1.373 . S
C364 H392 0.930 . S
N365 C364 1.373 . S
N365 C367 1.340 . S
N366 C363 1.368 . S
N366 C367 1.321 . S
N366 Co369 2.135 . S
C367 N365 1.340 . S
C367 N366 1.321 . S
C367 H391 0.930 . S
H368 C363 0.931 . S
Co369 N366 2.135 . S
Co369 N372 2.121 1_554 S
Co369 O377 2.055 1_554 S
Co369 O380 2.039 . S
Co369 N383 2.140 . S
C370 O371 1.227 . S
C370 O380 1.265 . S
O371 C370 1.227 . S
N372 Co369 2.121 1_556 S
N372 C374 1.375 . S
N372 C375 1.313 . S
C373 C374 1.338 . S
C373 N376 1.377 . S
C373 H393 0.930 . S
C374 N372 1.375 . S
C374 C373 1.338 . S
C374 H378 0.931 . S
C375 N372 1.313 . S
C375 N376 1.344 . S
C375 H379 0.930 . S
N376 C373 1.377 . S
N376 C375 1.344 . S
O377 Co369 2.055 1_556 S
O377 C381 1.253 . S
H378 C374 0.931 . S
H379 C375 0.930 . S
O380 Co369 2.039 . S
O380 C370 1.265 . S
C381 O377 1.253 . S
C381 O382 1.227 . S
O382 C381 1.227 . S
N383 Co369 2.140 . S
N383 C386 1.346 . S
N383 C387 1.345 1_554 S
C384 C385 1.387 . S
C384 C388 1.391 1_554 S
C385 C384 1.387 . S
C385 C386 1.369 . S
C385 H394 0.929 . S
C386 N383 1.346 . S
C386 C385 1.369 . S
C386 H389 0.928 . S
C387 N383 1.345 1_556 S
C387 C388 1.371 . S
C387 H390 0.931 . S
C388 C384 1.391 1_556 S
C388 C387 1.371 . S
C388 H395 0.930 . S
H389 C386 0.928 . S
H390 C387 0.931 . S
H391 C367 0.930 . S
H392 C364 0.930 . S
H393 C373 0.930 . S
H394 C385 0.929 . S
H395 C388 0.930 . S
H396 C408 0.930 . S
H397 C410 0.930 . S
H398 C411 0.930 . S
H399 C415 0.959 . S
H400 C415 0.959 . S
H401 C415 0.961 . S
H402 C416 0.960 . S
H403 C416 0.961 . S
H404 C416 0.959 . S
H405 C419 0.929 . S
H406 C420 0.931 . S
H407 C422 0.930 . S
C408 H396 0.930 . S
C408 C409 1.399 . S
C408 C413 1.399 . S
C409 C408 1.399 . S
C409 C410 1.376 1_554 S
C410 H397 0.930 . S
C410 C409 1.376 1_556 S
C410 C411 1.388 . S
C411 H398 0.930 . S
C411 C410 1.388 . S
C411 C412 1.390 . S
C412 C411 1.390 . S
C412 C413 1.394 1_556 S
C412 C418 1.465 . S
C413 C408 1.399 . S
C413 C412 1.394 1_554 S
C413 C414 1.516 . S
C414 C413 1.516 . S
C414 C415 1.502 . S
C414 C416 1.561 . S
C414 C417 1.526 . S
C415 H399 0.959 . S
C415 H400 0.959 . S
C415 H401 0.961 . S
C415 C414 1.502 . S
C416 H402 0.960 . S
C416 H403 0.961 . S
C416 H404 0.959 . S
C416 C414 1.561 . S
C417 C414 1.526 . S
C417 C418 1.396 1_554 S
C417 C422 1.390 . S
C418 C412 1.465 . S
C418 C417 1.396 1_556 S
C418 C419 1.399 . S
C419 H405 0.929 . S
C419 C418 1.399 . S
C419 C420 1.385 . S
C420 H406 0.931 . S
C420 C419 1.385 . S
C420 C421 1.389 . S
C421 C420 1.389 . S
C421 C422 1.387 1_556 S
C422 H407 0.930 . S
C422 C417 1.390 . S
C422 C421 1.387 1_554 S
H423 C435 0.930 . S
H424 C437 0.930 . S
H425 C438 0.930 . S
H426 C442 0.959 . S
H427 C442 0.959 . S
H428 C442 0.961 . S
H429 C443 0.960 . S
H430 C443 0.961 . S
H431 C443 0.959 1_554 S
H432 C446 0.929 . S
H433 C447 0.931 . S
H434 C449 0.930 . S
C435 H423 0.930 . S
C435 C436 1.399 1_556 S
C435 C440 1.399 . S
C436 C435 1.399 1_554 S
C436 C437 1.376 . S
C437 H424 0.930 . S
C437 C436 1.376 . S
C437 C438 1.388 . S
C438 H425 0.930 . S
C438 C437 1.388 . S
C438 C439 1.390 . S
C439 C438 1.390 . S
C439 C440 1.394 1_554 S
C439 C445 1.465 . S
C440 C435 1.399 . S
C440 C439 1.394 1_556 S
C440 C441 1.516 . S
C441 C440 1.516 . S
C441 C442 1.502 . S
C441 C443 1.561 . S
C441 C444 1.526 . S
C442 H426 0.959 . S
C442 H427 0.959 . S
C442 H428 0.961 . S
C442 C441 1.502 . S
C443 H429 0.960 . S
C443 H430 0.961 . S
C443 H431 0.959 1_556 S
C443 C441 1.561 . S
C444 C441 1.526 . S
C444 C445 1.396 1_556 S
C444 C449 1.390 . S
C445 C439 1.465 . S
C445 C444 1.396 1_554 S
C445 C446 1.399 . S
C446 H432 0.929 . S
C446 C445 1.399 . S
C446 C447 1.385 . S
C447 H433 0.931 . S
C447 C446 1.385 . S
C447 C448 1.389 . S
C448 C447 1.389 . S
C448 C449 1.387 1_554 S
C449 H434 0.930 . S
C449 C444 1.390 . S
C449 C448 1.387 1_556 S
H450 C462 0.930 . S
H451 C464 0.930 . S
H452 C465 0.930 . S
H453 C469 0.959 . S
H454 C469 0.959 . S
H455 C469 0.961 . S
H456 C470 0.960 . S
H457 C470 0.961 . S
H458 C470 0.959 . S
H459 C473 0.929 . S
H460 C474 0.931 . S
H461 C476 0.930 . S
C462 H450 0.930 . S
C462 C463 1.399 1_556 S
C462 C467 1.399 . S
C463 C462 1.399 1_554 S
C463 C464 1.376 . S
C464 H451 0.930 . S
C464 C463 1.376 . S
C464 C465 1.388 . S
C465 H452 0.930 . S
C465 C464 1.388 . S
C465 C466 1.390 . S
C466 C465 1.390 . S
C466 C467 1.394 1_554 S
C466 C472 1.465 . S
C467 C462 1.399 . S
C467 C466 1.394 1_556 S
C467 C468 1.516 . S
C468 C467 1.516 . S
C468 C469 1.502 . S
C468 C470 1.561 . S
C468 C471 1.526 . S
C469 H453 0.959 . S
C469 H454 0.959 . S
C469 H455 0.961 . S
C469 C468 1.502 . S
C470 H456 0.960 . S
C470 H457 0.961 . S
C470 H458 0.959 . S
C470 C468 1.561 . S
C471 C468 1.526 . S
C471 C472 1.396 1_556 S
C471 C476 1.390 . S
C472 C466 1.465 . S
C472 C471 1.396 1_554 S
C472 C473 1.399 . S
C473 H459 0.929 . S
C473 C472 1.399 . S
C473 C474 1.385 . S
C474 H460 0.931 . S
C474 C473 1.385 . S
C474 C475 1.389 . S
C475 C474 1.389 . S
C475 C476 1.387 1_554 S
C476 H461 0.930 . S
C476 C471 1.390 . S
C476 C475 1.387 1_556 S
H477 C489 0.930 . S
H478 C491 0.930 . S
H479 C492 0.930 . S
H480 C496 0.959 . S
H481 C496 0.959 . S
H482 C496 0.961 . S
H483 C497 0.960 . S
H484 C497 0.961 . S
H485 C497 0.959 . S
H486 C500 0.929 . S
H487 C501 0.931 . S
H488 C503 0.930 . S
C489 H477 0.930 . S
C489 C490 1.410 . S
C489 C494 1.399 . S
C490 C489 1.410 . S
C490 C491 1.363 1_554 S
C491 H478 0.930 . S
C491 C490 1.363 1_556 S
C491 C492 1.388 . S
C492 H479 0.930 . S
C492 C491 1.388 . S
C492 C493 1.390 . S
C493 C492 1.390 . S
C493 C494 1.394 1_556 S
C493 C499 1.465 . S
C494 C489 1.399 . S
C494 C493 1.394 1_554 S
C494 C495 1.516 . S
C495 C494 1.516 . S
C495 C496 1.502 . S
C495 C497 1.561 . S
C495 C498 1.526 . S
C496 H480 0.959 . S
C496 H481 0.959 . S
C496 H482 0.961 . S
C496 C495 1.502 . S
C497 H483 0.960 . S
C497 H484 0.961 . S
C497 H485 0.959 . S
C497 C495 1.561 . S
C498 C495 1.526 . S
C498 C499 1.396 1_554 S
C498 C503 1.390 . S
C499 C493 1.465 . S
C499 C498 1.396 1_556 S
C499 C500 1.399 . S
C500 H486 0.929 . S
C500 C499 1.399 . S
C500 C501 1.385 . S
C501 H487 0.931 . S
C501 C500 1.385 . S
C501 C502 1.389 . S
C502 C501 1.389 . S
C502 C503 1.387 1_556 S
C503 H488 0.930 . S
C503 C498 1.390 . S
C503 C502 1.387 1_554 S
H504 C516 0.930 . S
H505 C518 0.930 . S
H506 C519 0.930 . S
H507 C523 0.959 . S
H508 C523 0.959 . S
H509 C523 0.961 . S
H510 C524 0.960 . S
H511 C524 0.961 . S
H512 C524 0.959 . S
H513 C527 0.929 . S
H514 C528 0.931 . S
H515 C530 0.929 1_556 S
C516 H504 0.930 . S
C516 C517 1.399 1_556 S
C516 C521 1.399 1_556 S
C517 C516 1.399 1_554 S
C517 C518 1.376 . S
C518 H505 0.930 . S
C518 C517 1.376 . S
C518 C519 1.388 . S
C519 H506 0.930 . S
C519 C518 1.388 . S
C519 C520 1.390 . S
C520 C519 1.390 . S
C520 C521 1.394 . S
C520 C526 1.465 . S
C521 C516 1.399 1_554 S
C521 C520 1.394 . S
C521 C522 1.516 1_554 S
C522 C521 1.516 1_556 S
C522 C523 1.502 . S
C522 C524 1.561 1_556 S
C522 C525 1.526 1_556 S
C523 H507 0.959 . S
C523 H508 0.959 . S
C523 H509 0.961 . S
C523 C522 1.502 . S
C524 H510 0.960 . S
C524 H511 0.961 . S
C524 H512 0.959 . S
C524 C522 1.561 1_554 S
C525 C522 1.526 1_554 S
C525 C526 1.396 . S
C525 C530 1.390 . S
C526 C520 1.465 . S
C526 C525 1.396 . S
C526 C527 1.399 . S
C527 H513 0.929 . S
C527 C526 1.399 . S
C527 C528 1.385 . S
C528 H514 0.931 . S
C528 C527 1.385 . S
C528 C529 1.389 . S
C529 C528 1.389 . S
C529 C530 1.387 . S
C530 H515 0.929 1_554 S
C530 C525 1.390 . S
C530 C529 1.387 . S
H531 C543 0.930 . S
H532 C545 0.930 . S
H533 C546 0.930 . S
H534 C550 0.959 . S
H535 C550 0.959 . S
H536 C550 0.961 . S
H537 C551 0.960 . S
H538 C551 0.961 . S
H539 C551 0.959 . S
H540 C554 0.929 . S
H541 C555 0.931 . S
H542 C557 0.930 . S
C543 H531 0.930 . S
C543 C544 1.399 1_556 S
C543 C548 1.399 . S
C544 C543 1.399 1_554 S
C544 C545 1.376 . S
C545 H532 0.930 . S
C545 C544 1.376 . S
C545 C546 1.388 . S
C546 H533 0.930 . S
C546 C545 1.388 . S
C546 C547 1.390 . S
C547 C546 1.390 . S
C547 C548 1.394 1_554 S
C547 C553 1.465 . S
C548 C543 1.399 . S
C548 C547 1.394 1_556 S
C548 C549 1.516 . S
C549 C548 1.516 . S
C549 C550 1.502 . S
C549 C551 1.561 . S
C549 C552 1.526 . S
C550 H534 0.959 . S
C550 H535 0.959 . S
C550 H536 0.961 . S
C550 C549 1.502 . S
C551 H537 0.960 . S
C551 H538 0.961 . S
C551 H539 0.959 . S
C551 C549 1.561 . S
C552 C549 1.526 . S
C552 C553 1.396 1_556 S
C552 C557 1.390 . S
C553 C547 1.465 . S
C553 C552 1.396 1_554 S
C553 C554 1.399 . S
C554 H540 0.929 . S
C554 C553 1.399 . S
C554 C555 1.385 . S
C555 H541 0.931 . S
C555 C554 1.385 . S
C555 C556 1.389 . S
C556 C555 1.389 . S
C556 C557 1.387 1_554 S
C557 H542 0.930 . S
C557 C552 1.390 . S
C557 C556 1.387 1_556 S
H558 C570 0.930 . S
H559 C572 0.930 . S
H560 C573 0.930 . S
H561 C577 0.959 . S
H562 C577 0.959 . S
H563 C577 0.961 . S
H564 C578 0.960 . S
H565 C578 0.961 . S
H566 C578 0.959 . S
H567 C581 0.929 . S
H568 C582 0.931 . S
H569 C584 0.930 1_556 S
C570 H558 0.930 . S
C570 C571 1.399 . S
C570 C575 1.399 . S
C571 C570 1.399 . S
C571 C572 1.376 . S
C572 H559 0.930 . S
C572 C571 1.376 . S
C572 C573 1.388 1_556 S
C573 H560 0.930 . S
C573 C572 1.388 1_554 S
C573 C574 1.390 1_554 S
C574 C573 1.390 1_556 S
C574 C575 1.394 . S
C574 C580 1.465 1_556 S
C575 C570 1.399 . S
C575 C574 1.394 . S
C575 C576 1.516 . S
C576 C575 1.516 . S
C576 C577 1.502 1_556 S
C576 C578 1.561 . S
C576 C579 1.526 . S
C577 H561 0.959 . S
C577 H562 0.959 . S
C577 H563 0.961 . S
C577 C576 1.502 1_554 S
C578 H564 0.960 . S
C578 H565 0.961 . S
C578 H566 0.959 . S
C578 C576 1.561 . S
C579 C576 1.526 . S
C579 C580 1.396 1_556 S
C579 C584 1.390 1_556 S
C580 C574 1.465 1_554 S
C580 C579 1.396 1_554 S
C580 C581 1.399 . S
C581 H567 0.929 . S
C581 C580 1.399 . S
C581 C582 1.385 . S
C582 H568 0.931 . S
C582 C581 1.385 . S
C582 C583 1.389 . S
C583 C582 1.389 . S
C583 C584 1.387 . S
C584 H569 0.930 1_554 S
C584 C579 1.390 1_554 S
C584 C583 1.387 . S
H585 C597 0.930 . S
H586 C599 0.930 . S
H587 C600 0.930 . S
H588 C604 0.959 . S
H589 C604 0.959 . S
H590 C604 0.961 . S
H591 C605 0.960 . S
H592 C605 0.961 . S
H593 C605 0.959 . S
H594 C608 0.929 . S
H595 C609 0.931 . S
H596 C611 0.930 . S
C597 H585 0.930 . S
C597 C598 1.399 . S
C597 C602 1.399 . S
C598 C597 1.399 . S
C598 C599 1.376 1_556 S
C599 H586 0.930 . S
C599 C598 1.376 1_554 S
C599 C600 1.388 . S
C600 H587 0.930 . S
C600 C599 1.388 . S
C600 C601 1.390 . S
C601 C600 1.390 . S
C601 C602 1.394 1_554 S
C601 C607 1.465 . S
C602 C597 1.399 . S
C602 C601 1.394 1_556 S
C602 C603 1.516 . S
C603 C602 1.516 . S
C603 C604 1.502 . S
C603 C605 1.561 . S
C603 C606 1.526 . S
C604 H588 0.959 . S
C604 H589 0.959 . S
C604 H590 0.961 . S
C604 C603 1.502 . S
C605 H591 0.960 . S
C605 H592 0.961 . S
C605 H593 0.959 . S
C605 C603 1.561 . S
C606 C603 1.526 . S
C606 C607 1.396 1_556 S
C606 C611 1.390 . S
C607 C601 1.465 . S
C607 C606 1.396 1_554 S
C607 C608 1.399 . S
C608 H594 0.929 . S
C608 C607 1.399 . S
C608 C609 1.385 . S
C609 H595 0.931 . S
C609 C608 1.385 . S
C609 C610 1.389 . S
C610 C609 1.389 . S
C610 C611 1.387 1_554 S
C611 H596 0.930 . S
C611 C606 1.390 . S
C611 C610 1.387 1_556 S
H612 C624 0.930 . S
H613 C626 0.930 . S
H614 C627 0.930 . S
H615 C631 0.959 . S
H616 C631 0.959 . S
H617 C631 0.961 . S
H618 C632 0.960 . S
H619 C632 0.961 . S
H620 C632 0.959 . S
H621 C635 0.929 . S
H622 C636 0.931 . S
H623 C638 0.930 . S
C624 H612 0.930 . S
C624 C625 1.399 1_556 S
C624 C629 1.399 . S
C625 C624 1.399 1_554 S
C625 C626 1.376 . S
C626 H613 0.930 . S
C626 C625 1.376 . S
C626 C627 1.388 . S
C627 H614 0.930 . S
C627 C626 1.388 . S
C627 C628 1.390 . S
C628 C627 1.390 . S
C628 C629 1.394 1_554 S
C628 C634 1.465 . S
C629 C624 1.399 . S
C629 C628 1.394 1_556 S
C629 C630 1.516 . S
C630 C629 1.516 . S
C630 C631 1.502 . S
C630 C632 1.561 . S
C630 C633 1.526 . S
C631 H615 0.959 . S
C631 H616 0.959 . S
C631 H617 0.961 . S
C631 C630 1.502 . S
C632 H618 0.960 . S
C632 H619 0.961 . S
C632 H620 0.959 . S
C632 C630 1.561 . S
C633 C630 1.526 . S
C633 C634 1.396 1_556 S
C633 C638 1.390 . S
C634 C628 1.465 . S
C634 C633 1.396 1_554 S
C634 C635 1.399 . S
C635 H621 0.929 . S
C635 C634 1.399 . S
C635 C636 1.385 . S
C636 H622 0.931 . S
C636 C635 1.385 . S
C636 C637 1.389 1_554 S
C637 C636 1.389 1_556 S
C637 C638 1.387 . S
C638 H623 0.930 . S
C638 C633 1.390 . S
C638 C637 1.387 . S
H639 C651 0.930 . S
H640 C653 0.930 . S
H641 C654 0.930 . S
H642 C658 0.959 . S
H643 C658 0.959 . S
H644 C658 0.961 . S
H645 C659 0.960 . S
H646 C659 0.961 . S
H647 C659 0.959 . S
H648 C662 0.929 . S
H649 C663 0.931 . S
H650 C665 0.930 . S
C651 H639 0.930 . S
C651 C652 1.399 1_554 S
C651 C656 1.399 . S
C652 C651 1.399 1_556 S
C652 C653 1.376 . S
C653 H640 0.930 . S
C653 C652 1.376 . S
C653 C654 1.388 . S
C654 H641 0.930 . S
C654 C653 1.388 . S
C654 C655 1.390 . S
C655 C654 1.390 . S
C655 C656 1.394 1_556 S
C655 C661 1.465 . S
C656 C651 1.399 . S
C656 C655 1.394 1_554 S
C656 C657 1.516 . S
C657 C656 1.516 . S
C657 C658 1.502 . S
C657 C659 1.561 1_554 S
C657 C660 1.526 . S
C658 H642 0.959 . S
C658 H643 0.959 . S
C658 H644 0.961 . S
C658 C657 1.502 . S
C659 H645 0.960 . S
C659 H646 0.961 . S
C659 H647 0.959 . S
C659 C657 1.561 1_556 S
C660 C657 1.526 . S
C660 C661 1.396 1_554 S
C660 C665 1.390 . S
C661 C655 1.465 . S
C661 C660 1.396 1_556 S
C661 C662 1.399 . S
C662 H648 0.929 . S
C662 C661 1.399 . S
C662 C663 1.385 . S
C663 H649 0.931 . S
C663 C662 1.385 . S
C663 C664 1.389 1_556 S
C664 C663 1.389 1_554 S
C664 C665 1.387 . S
C665 H650 0.930 . S
C665 C660 1.390 . S
C665 C664 1.387 . S
H666 C678 0.930 . S
H667 C680 0.930 . S
H668 C681 0.930 . S
H669 C685 0.959 . S
H670 C685 0.959 . S
H671 C685 0.961 . S
H672 C686 0.960 . S
H673 C686 0.961 . S
H674 C686 0.959 . S
H675 C689 0.929 . S
H676 C690 0.931 . S
H677 C692 0.930 . S
C678 H666 0.930 . S
C678 C679 1.399 1_554 S
C678 C683 1.399 . S
C679 C678 1.399 1_556 S
C679 C680 1.376 . S
C680 H667 0.930 . S
C680 C679 1.376 . S
C680 C681 1.388 . S
C681 H668 0.930 . S
C681 C680 1.388 . S
C681 C682 1.390 . S
C682 C681 1.390 . S
C682 C683 1.394 1_556 S
C682 C688 1.465 . S
C683 C678 1.399 . S
C683 C682 1.394 1_554 S
C683 C684 1.516 . S
C684 C683 1.516 . S
C684 C685 1.502 . S
C684 C686 1.561 . S
C684 C687 1.526 . S
C685 H669 0.959 . S
C685 H670 0.959 . S
C685 H671 0.961 . S
C685 C684 1.502 . S
C686 H672 0.960 . S
C686 H673 0.961 . S
C686 H674 0.959 . S
C686 C684 1.561 . S
C687 C684 1.526 . S
C687 C688 1.396 1_554 S
C687 C692 1.390 . S
C688 C682 1.465 . S
C688 C687 1.396 1_556 S
C688 C689 1.399 . S
C689 H675 0.929 . S
C689 C688 1.399 . S
C689 C690 1.385 . S
C690 H676 0.931 . S
C690 C689 1.385 . S
C690 C691 1.389 1_556 S
C691 C690 1.389 1_554 S
C691 C692 1.387 . S
C692 H677 0.930 . S
C692 C687 1.390 . S
C692 C691 1.387 . S
H693 C705 0.930 . S
H694 C707 0.930 . S
H695 C708 0.930 . S
H696 C712 0.959 . S
H697 C712 0.959 . S
H698 C712 0.961 . S
H699 C713 0.960 . S
H700 C713 0.961 . S
H701 C713 0.959 . S
H702 C716 0.929 . S
H703 C717 0.931 . S
H704 C719 0.930 . S
C705 H693 0.930 . S
C705 C706 1.399 1_554 S
C705 C710 1.399 . S
C706 C705 1.399 1_556 S
C706 C707 1.376 . S
C707 H694 0.930 . S
C707 C706 1.376 . S
C707 C708 1.388 . S
C708 H695 0.930 . S
C708 C707 1.388 . S
C708 C709 1.390 . S
C709 C708 1.390 . S
C709 C710 1.394 1_556 S
C709 C715 1.465 . S
C710 C705 1.399 . S
C710 C709 1.394 1_554 S
C710 C711 1.516 . S
C711 C710 1.516 . S
C711 C712 1.502 . S
C711 C713 1.561 . S
C711 C714 1.526 . S
C712 H696 0.959 . S
C712 H697 0.959 . S
C712 H698 0.961 . S
C712 C711 1.502 . S
C713 H699 0.960 . S
C713 H700 0.961 . S
C713 H701 0.959 . S
C713 C711 1.561 . S
C714 C711 1.526 . S
C714 C715 1.396 1_554 S
C714 C719 1.390 . S
C715 C709 1.465 . S
C715 C714 1.396 1_556 S
C715 C716 1.399 . S
C716 H702 0.929 . S
C716 C715 1.399 . S
C716 C717 1.385 . S
C717 H703 0.931 . S
C717 C716 1.385 . S
C717 C718 1.389 1_556 S
C718 C717 1.389 1_554 S
C718 C719 1.387 . S
C719 H704 0.930 . S
C719 C714 1.390 . S
C719 C718 1.387 . S
H720 C732 0.930 . S
H721 C734 0.930 . S
H722 C735 0.930 . S
H723 C739 0.959 . S
H724 C739 0.959 . S
H725 C739 0.961 . S
H726 C740 0.960 . S
H727 C740 0.961 . S
H728 C740 0.959 . S
H729 C743 0.929 . S
H730 C744 0.931 . S
H731 C746 0.930 . S
C732 H720 0.930 . S
C732 C733 1.399 . S
C732 C737 1.399 . S
C733 C732 1.399 . S
C733 C734 1.376 . S
C734 H721 0.930 . S
C734 C733 1.376 . S
C734 C735 1.388 . S
C735 H722 0.930 . S
C735 C734 1.388 . S
C735 C736 1.390 . S
C736 C735 1.390 . S
C736 C737 1.394 . S
C736 C742 1.465 . S
C737 C732 1.399 . S
C737 C736 1.394 . S
C737 C738 1.516 . S
C738 C737 1.516 . S
C738 C739 1.502 . S
C738 C740 1.561 . S
C738 C741 1.526 . S
C739 H723 0.959 . S
C739 H724 0.959 . S
C739 H725 0.961 . S
C739 C738 1.502 . S
C740 H726 0.960 . S
C740 H727 0.961 . S
C740 H728 0.959 . S
C740 C738 1.561 . S
C741 C738 1.526 . S
C741 C742 1.396 . S
C741 C746 1.390 . S
C742 C736 1.465 . S
C742 C741 1.396 . S
C742 C743 1.399 . S
C743 H729 0.929 . S
C743 C742 1.399 . S
C743 C744 1.385 . S
C744 H730 0.931 . S
C744 C743 1.385 . S
C744 C745 1.389 . S
C745 C744 1.389 . S
C745 C746 1.387 . S
C746 H731 0.930 . S
C746 C741 1.390 . S
C746 C745 1.387 . S
H747 C759 0.930 . S
H748 C761 0.930 . S
H749 C762 0.930 . S
H750 C766 0.959 . S
H751 C766 0.959 . S
H752 C766 0.961 . S
H753 C767 0.960 . S
H754 C767 0.961 . S
H755 C767 0.959 . S
H756 C770 0.929 . S
H757 C771 0.931 . S
H758 C773 0.930 . S
C759 H747 0.930 . S
C759 C760 1.399 . S
C759 C764 1.399 . S
C760 C759 1.399 . S
C760 C761 1.376 . S
C761 H748 0.930 . S
C761 C760 1.376 . S
C761 C762 1.388 . S
C762 H749 0.930 . S
C762 C761 1.388 . S
C762 C763 1.390 . S
C763 C762 1.390 . S
C763 C764 1.394 . S
C763 C769 1.465 . S
C764 C759 1.399 . S
C764 C763 1.394 . S
C764 C765 1.516 . S
C765 C764 1.516 . S
C765 C766 1.502 . S
C765 C767 1.561 . S
C765 C768 1.526 . S
C766 H750 0.959 . S
C766 H751 0.959 . S
C766 H752 0.961 . S
C766 C765 1.502 . S
C767 H753 0.960 . S
C767 H754 0.961 . S
C767 H755 0.959 . S
C767 C765 1.561 . S
C768 C765 1.526 . S
C768 C769 1.396 . S
C768 C773 1.390 . S
C769 C763 1.465 . S
C769 C768 1.396 . S
C769 C770 1.399 . S
C770 H756 0.929 . S
C770 C769 1.399 . S
C770 C771 1.385 . S
C771 H757 0.931 . S
C771 C770 1.385 . S
C771 C772 1.389 . S
C772 C771 1.389 . S
C772 C773 1.387 . S
C773 H758 0.930 . S
C773 C768 1.390 . S
C773 C772 1.387 . S
H774 C786 0.930 . S
H775 C788 0.930 . S
H776 C789 0.930 . S
H777 C793 0.959 . S
H778 C793 0.959 . S
H779 C793 0.961 . S
H780 C794 0.960 . S
H781 C794 0.961 . S
H782 C794 0.959 . S
H783 C797 0.929 . S
H784 C798 0.931 . S
H785 C800 0.930 . S
C786 H774 0.930 . S
C786 C787 1.399 . S
C786 C791 1.399 . S
C787 C786 1.399 . S
C787 C788 1.376 . S
C788 H775 0.930 . S
C788 C787 1.376 . S
C788 C789 1.388 . S
C789 H776 0.930 . S
C789 C788 1.388 . S
C789 C790 1.390 . S
C790 C789 1.390 . S
C790 C791 1.394 . S
C790 C796 1.465 . S
C791 C786 1.399 . S
C791 C790 1.394 . S
C791 C792 1.516 . S
C792 C791 1.516 . S
C792 C793 1.502 . S
C792 C794 1.561 . S
C792 C795 1.526 . S
C793 H777 0.959 . S
C793 H778 0.959 . S
C793 H779 0.961 . S
C793 C792 1.502 . S
C794 H780 0.960 . S
C794 H781 0.961 . S
C794 H782 0.959 . S
C794 C792 1.561 . S
C795 C792 1.526 . S
C795 C796 1.396 . S
C795 C800 1.390 . S
C796 C790 1.465 . S
C796 C795 1.396 . S
C796 C797 1.399 . S
C797 H783 0.929 . S
C797 C796 1.399 . S
C797 C798 1.385 . S
C798 H784 0.931 . S
C798 C797 1.385 . S
C798 C799 1.389 . S
C799 C798 1.389 . S
C799 C800 1.387 . S
C800 H785 0.930 . S
C800 C795 1.390 . S
C800 C799 1.387 . S
H801 C813 0.930 . S
H802 C815 0.930 . S
H803 C816 0.930 . S
H804 C820 0.959 . S
H805 C820 0.959 . S
H806 C820 0.961 . S
H807 C821 0.960 . S
H808 C821 0.961 . S
H809 C821 0.959 . S
H810 C824 0.929 . S
H811 C825 0.931 . S
H812 C827 0.930 . S
C813 H801 0.930 . S
C813 C814 1.399 . S
C813 C818 1.399 . S
C814 C813 1.399 . S
C814 C815 1.376 . S
C815 H802 0.930 . S
C815 C814 1.376 . S
C815 C816 1.388 . S
C816 H803 0.930 . S
C816 C815 1.388 . S
C816 C817 1.390 . S
C817 C816 1.390 . S
C817 C818 1.394 . S
C817 C823 1.465 . S
C818 C813 1.399 . S
C818 C817 1.394 . S
C818 C819 1.516 . S
C819 C818 1.516 . S
C819 C820 1.502 . S
C819 C821 1.561 . S
C819 C822 1.526 . S
C820 H804 0.959 . S
C820 H805 0.959 . S
C820 H806 0.961 . S
C820 C819 1.502 . S
C821 H807 0.960 . S
C821 H808 0.961 . S
C821 H809 0.959 . S
C821 C819 1.561 . S
C822 C819 1.526 . S
C822 C823 1.396 . S
C822 C827 1.390 . S
C823 C817 1.465 . S
C823 C822 1.396 . S
C823 C824 1.399 . S
C824 H810 0.929 . S
C824 C823 1.399 . S
C824 C825 1.385 . S
C825 H811 0.931 . S
C825 C824 1.385 . S
C825 C826 1.389 . S
C826 C825 1.389 . S
C826 C827 1.387 . S
C827 H812 0.930 . S
C827 C822 1.390 . S
C827 C826 1.387 . S
H828 C840 0.930 . S
H829 C842 0.930 . S
H830 C843 0.930 . S
H831 C847 0.959 . S
H832 C847 0.959 . S
H833 C847 0.961 . S
H834 C848 0.960 . S
H835 C848 0.961 . S
H836 C848 0.959 . S
H837 C851 0.929 . S
H838 C852 0.931 . S
H839 C854 0.930 . S
C840 H828 0.930 . S
C840 C841 1.399 . S
C840 C845 1.399 . S
C841 C840 1.399 . S
C841 C842 1.376 . S
C842 H829 0.930 . S
C842 C841 1.376 . S
C842 C843 1.388 . S
C843 H830 0.930 . S
C843 C842 1.388 . S
C843 C844 1.390 . S
C844 C843 1.390 . S
C844 C845 1.394 . S
C844 C850 1.465 . S
C845 C840 1.399 . S
C845 C844 1.394 . S
C845 C846 1.516 . S
C846 C845 1.516 . S
C846 C847 1.502 . S
C846 C848 1.561 . S
C846 C849 1.526 . S
C847 H831 0.959 . S
C847 H832 0.959 . S
C847 H833 0.961 . S
C847 C846 1.502 . S
C848 H834 0.960 . S
C848 H835 0.961 . S
C848 H836 0.959 . S
C848 C846 1.561 . S
C849 C846 1.526 . S
C849 C850 1.396 . S
C849 C854 1.390 . S
C850 C844 1.465 . S
C850 C849 1.396 . S
C850 C851 1.399 . S
C851 H837 0.929 . S
C851 C850 1.399 . S
C851 C852 1.385 . S
C852 H838 0.931 . S
C852 C851 1.385 . S
C852 C853 1.389 . S
C853 C852 1.389 . S
C853 C854 1.387 . S
C854 H839 0.930 . S
C854 C849 1.390 . S
C854 C853 1.387 . S
H855 C867 0.930 . S
H856 C869 0.930 . S
H857 C870 0.930 . S
H858 C874 0.959 . S
H859 C874 0.959 . S
H860 C874 0.961 . S
H861 C875 0.960 . S
H862 C875 0.961 . S
H863 C875 0.959 . S
H864 C878 0.929 . S
H865 C879 0.931 . S
H866 C881 0.930 . S
C867 H855 0.930 . S
C867 C868 1.399 . S
C867 C872 1.399 . S
C868 C867 1.399 . S
C868 C869 1.376 . S
C869 H856 0.930 . S
C869 C868 1.376 . S
C869 C870 1.388 . S
C870 H857 0.930 . S
C870 C869 1.388 . S
C870 C871 1.390 . S
C871 C870 1.390 . S
C871 C872 1.394 . S
C871 C877 1.465 . S
C872 C867 1.399 . S
C872 C871 1.394 . S
C872 C873 1.516 . S
C873 C872 1.516 . S
C873 C874 1.502 . S
C873 C875 1.561 . S
C873 C876 1.526 . S
C874 H858 0.959 . S
C874 H859 0.959 . S
C874 H860 0.961 . S
C874 C873 1.502 . S
C875 H861 0.960 . S
C875 H862 0.961 . S
C875 H863 0.959 . S
C875 C873 1.561 . S
C876 C873 1.526 . S
C876 C877 1.396 . S
C876 C881 1.390 . S
C877 C871 1.465 . S
C877 C876 1.396 . S
C877 C878 1.399 . S
C878 H864 0.929 . S
C878 C877 1.399 . S
C878 C879 1.385 . S
C879 H865 0.931 . S
C879 C878 1.385 . S
C879 C880 1.389 . S
C880 C879 1.389 . S
C880 C881 1.387 . S
C881 H866 0.930 . S
C881 C876 1.390 . S
C881 C880 1.387 . S
H882 C894 0.930 . S
H883 C896 0.930 . S
H884 C897 0.930 . S
H885 C901 0.959 . S
H886 C901 0.959 . S
H887 C901 0.961 . S
H888 C902 0.960 . S
H889 C902 0.961 . S
H890 C902 0.959 . S
H891 C905 0.929 . S
H892 C906 0.931 . S
H893 C908 0.930 . S
C894 H882 0.930 . S
C894 C895 1.399 . S
C894 C899 1.399 . S
C895 C894 1.399 . S
C895 C896 1.376 . S
C896 H883 0.930 . S
C896 C895 1.376 . S
C896 C897 1.388 . S
C897 H884 0.930 . S
C897 C896 1.388 . S
C897 C898 1.390 . S
C898 C897 1.390 . S
C898 C899 1.394 . S
C898 C904 1.465 . S
C899 C894 1.399 . S
C899 C898 1.394 . S
C899 C900 1.516 . S
C900 C899 1.516 . S
C900 C901 1.502 . S
C900 C902 1.561 . S
C900 C903 1.526 . S
C901 H885 0.959 . S
C901 H886 0.959 . S
C901 H887 0.961 . S
C901 C900 1.502 . S
C902 H888 0.960 . S
C902 H889 0.961 . S
C902 H890 0.959 . S
C902 C900 1.561 . S
C903 C900 1.526 . S
C903 C904 1.396 . S
C903 C908 1.390 . S
C904 C898 1.465 . S
C904 C903 1.396 . S
C904 C905 1.399 . S
C905 H891 0.929 . S
C905 C904 1.399 . S
C905 C906 1.385 . S
C906 H892 0.931 . S
C906 C905 1.385 . S
C906 C907 1.389 . S
C907 C906 1.389 . S
C907 C908 1.387 . S
C908 H893 0.930 . S
C908 C903 1.390 . S
C908 C907 1.387 . S
H909 C921 0.930 . S
H910 C923 0.930 . S
H911 C924 0.930 . S
H912 C928 0.959 . S
H913 C928 0.959 . S
H914 C928 0.961 . S
H915 C929 0.960 . S
H916 C929 0.961 . S
H917 C929 0.959 . S
H918 C932 0.929 . S
H919 C933 0.931 . S
H920 C935 0.930 . S
C921 H909 0.930 . S
C921 C922 1.399 . S
C921 C926 1.399 . S
C922 C921 1.399 . S
C922 C923 1.376 . S
C923 H910 0.930 . S
C923 C922 1.376 . S
C923 C924 1.388 . S
C924 H911 0.930 . S
C924 C923 1.388 . S
C924 C925 1.390 . S
C925 C924 1.390 . S
C925 C926 1.394 . S
C925 C931 1.465 . S
C926 C921 1.399 . S
C926 C925 1.394 . S
C926 C927 1.516 . S
C927 C926 1.516 . S
C927 C928 1.502 . S
C927 C929 1.561 . S
C927 C930 1.526 . S
C928 H912 0.959 . S
C928 H913 0.959 . S
C928 H914 0.961 . S
C928 C927 1.502 . S
C929 H915 0.960 . S
C929 H916 0.961 . S
C929 H917 0.959 . S
C929 C927 1.561 . S
C930 C927 1.526 . S
C930 C931 1.396 . S
C930 C935 1.390 . S
C931 C925 1.465 . S
C931 C930 1.396 . S
C931 C932 1.399 . S
C932 H918 0.929 . S
C932 C931 1.399 . S
C932 C933 1.385 . S
C933 H919 0.931 . S
C933 C932 1.385 . S
C933 C934 1.389 . S
C934 C933 1.389 . S
C934 C935 1.387 . S
C935 H920 0.930 . S
C935 C930 1.390 . S
C935 C934 1.387 . S
H936 C948 0.930 . S
H937 C950 0.930 . S
H938 C951 0.930 . S
H939 C955 0.959 . S
H940 C955 0.959 . S
H941 C955 0.961 . S
H942 C956 0.960 . S
H943 C956 0.961 . S
H944 C956 0.959 . S
H945 C959 0.929 . S
H946 C960 0.931 . S
H947 C962 0.930 . S
C948 H936 0.930 . S
C948 C949 1.399 . S
C948 C953 1.399 . S
C949 C948 1.399 . S
C949 C950 1.376 . S
C950 H937 0.930 . S
C950 C949 1.376 . S
C950 C951 1.388 . S
C951 H938 0.930 . S
C951 C950 1.388 . S
C951 C952 1.390 . S
C952 C951 1.390 . S
C952 C953 1.394 . S
C952 C958 1.465 . S
C953 C948 1.399 . S
C953 C952 1.394 . S
C953 C954 1.516 . S
C954 C953 1.516 . S
C954 C955 1.502 . S
C954 C956 1.561 . S
C954 C957 1.526 . S
C955 H939 0.959 . S
C955 H940 0.959 . S
C955 H941 0.961 . S
C955 C954 1.502 . S
C956 H942 0.960 . S
C956 H943 0.961 . S
C956 H944 0.959 . S
C956 C954 1.561 . S
C957 C954 1.526 . S
C957 C958 1.396 . S
C957 C962 1.390 . S
C958 C952 1.465 . S
C958 C957 1.396 . S
C958 C959 1.399 . S
C959 H945 0.929 . S
C959 C958 1.399 . S
C959 C960 1.385 . S
C960 H946 0.931 . S
C960 C959 1.385 . S
C960 C961 1.389 . S
C961 C960 1.389 . S
C961 C962 1.387 . S
C962 H947 0.930 . S
C962 C957 1.390 . S
C962 C961 1.387 . S
H963 C975 0.930 . S
H964 C977 0.930 . S
H965 C978 0.930 . S
H966 C982 0.959 . S
H967 C982 0.959 . S
H968 C982 0.961 . S
H969 C983 0.960 . S
H970 C983 0.961 . S
H971 C983 0.959 . S
H972 C986 0.929 . S
H973 C987 0.931 . S
H974 C989 0.930 . S
C975 H963 0.930 . S
C975 C976 1.399 . S
C975 C980 1.399 . S
C976 C975 1.399 . S
C976 C977 1.376 . S
C977 H964 0.930 . S
C977 C976 1.376 . S
C977 C978 1.388 . S
C978 H965 0.930 . S
C978 C977 1.388 . S
C978 C979 1.390 . S
C979 C978 1.390 . S
C979 C980 1.394 . S
C979 C985 1.465 . S
C980 C975 1.399 . S
C980 C979 1.394 . S
C980 C981 1.516 . S
C981 C980 1.516 . S
C981 C982 1.502 . S
C981 C983 1.561 . S
C981 C984 1.526 . S
C982 H966 0.959 . S
C982 H967 0.959 . S
C982 H968 0.961 . S
C982 C981 1.502 . S
C983 H969 0.960 . S
C983 H970 0.961 . S
C983 H971 0.959 . S
C983 C981 1.561 . S
C984 C981 1.526 . S
C984 C985 1.396 . S
C984 C989 1.390 . S
C985 C979 1.465 . S
C985 C984 1.396 . S
C985 C986 1.399 . S
C986 H972 0.929 . S
C986 C985 1.399 . S
C986 C987 1.385 . S
C987 H973 0.931 . S
C987 C986 1.385 . S
C987 C988 1.389 . S
C988 C987 1.389 . S
C988 C989 1.387 . S
C989 H974 0.930 . S
C989 C984 1.390 . S
C989 C988 1.387 . S
H990 C1002 0.930 . S
H991 C1004 0.930 . S
H992 C1005 0.930 . S
H993 C1009 0.959 . S
H994 C1009 0.959 . S
H995 C1009 0.961 . S
H996 C1010 0.960 . S
H997 C1010 0.961 . S
H998 C1010 0.959 . S
H999 C1013 0.929 . S
H1000 C1014 0.931 . S
H1001 C1016 0.930 . S
C1002 H990 0.930 . S
C1002 C1003 1.399 . S
C1002 C1007 1.399 . S
C1003 C1002 1.399 . S
C1003 C1004 1.376 . S
C1004 H991 0.930 . S
C1004 C1003 1.376 . S
C1004 C1005 1.388 . S
C1005 H992 0.930 . S
C1005 C1004 1.388 . S
C1005 C1006 1.390 . S
C1006 C1005 1.390 . S
C1006 C1007 1.394 . S
C1006 C1012 1.465 . S
C1007 C1002 1.399 . S
C1007 C1006 1.394 . S
C1007 C1008 1.516 . S
C1008 C1007 1.516 . S
C1008 C1009 1.502 . S
C1008 C1010 1.561 . S
C1008 C1011 1.526 . S
C1009 H993 0.959 . S
C1009 H994 0.959 . S
C1009 H995 0.961 . S
C1009 C1008 1.502 . S
C1010 H996 0.960 . S
C1010 H997 0.961 . S
C1010 H998 0.959 . S
C1010 C1008 1.561 . S
C1011 C1008 1.526 . S
C1011 C1012 1.396 . S
C1011 C1016 1.390 . S
C1012 C1006 1.465 . S
C1012 C1011 1.396 . S
C1012 C1013 1.399 . S
C1013 H999 0.929 . S
C1013 C1012 1.399 . S
C1013 C1014 1.385 . S
C1014 H1000 0.931 . S
C1014 C1013 1.385 . S
C1014 C1015 1.389 . S
C1015 C1014 1.389 . S
C1015 C1016 1.387 . S
C1016 H1001 0.930 . S
C1016 C1011 1.390 . S
C1016 C1015 1.387 . S
H1017 C1029 0.930 . S
H1018 C1031 0.930 . S
H1019 C1032 0.930 . S
H1020 C1036 0.959 . S
H1021 C1036 0.959 . S
H1022 C1036 0.961 . S
H1023 C1037 0.960 . S
H1024 C1037 0.961 . S
H1025 C1037 0.959 . S
H1026 C1040 0.929 . S
H1027 C1041 0.931 . S
H1028 C1043 0.930 . S
C1029 H1017 0.930 . S
C1029 C1030 1.399 . S
C1029 C1034 1.399 . S
C1030 C1029 1.399 . S
C1030 C1031 1.376 . S
C1031 H1018 0.930 . S
C1031 C1030 1.376 . S
C1031 C1032 1.388 . S
C1032 H1019 0.930 . S
C1032 C1031 1.388 . S
C1032 C1033 1.390 . S
C1033 C1032 1.390 . S
C1033 C1034 1.394 . S
C1033 C1039 1.465 . S
C1034 C1029 1.399 . S
C1034 C1033 1.394 . S
C1034 C1035 1.516 . S
C1035 C1034 1.516 . S
C1035 C1036 1.502 . S
C1035 C1037 1.561 . S
C1035 C1038 1.526 . S
C1036 H1020 0.959 . S
C1036 H1021 0.959 . S
C1036 H1022 0.961 . S
C1036 C1035 1.502 . S
C1037 H1023 0.960 . S
C1037 H1024 0.961 . S
C1037 H1025 0.959 . S
C1037 C1035 1.561 . S
C1038 C1035 1.526 . S
C1038 C1039 1.396 . S
C1038 C1043 1.390 . S
C1039 C1033 1.465 . S
C1039 C1038 1.396 . S
C1039 C1040 1.399 . S
C1040 H1026 0.929 . S
C1040 C1039 1.399 . S
C1040 C1041 1.385 . S
C1041 H1027 0.931 . S
C1041 C1040 1.385 . S
C1041 C1042 1.389 . S
C1042 C1041 1.389 . S
C1042 C1043 1.387 . S
C1043 H1028 0.930 . S
C1043 C1038 1.390 . S
C1043 C1042 1.387 . S
H1044 C1056 0.930 . S
H1045 C1058 0.930 . S
H1046 C1059 0.930 . S
H1047 C1063 0.959 . S
H1048 C1063 0.959 1_655 S
H1049 C1063 0.961 . S
H1050 C1064 0.959 1_455 S
H1051 C1064 0.963 . S
H1052 C1064 0.959 1_556 S
H1053 C1067 0.929 . S
H1054 C1068 0.931 . S
H1055 C1070 0.930 . S
C1056 H1044 0.930 . S
C1056 C1057 1.399 1_554 S
C1056 C1061 1.399 . S
C1057 C1056 1.399 1_556 S
C1057 C1058 1.376 . S
C1058 H1045 0.930 . S
C1058 C1057 1.376 . S
C1058 C1059 1.388 . S
C1059 H1046 0.930 . S
C1059 C1058 1.388 . S
C1059 C1060 1.390 . S
C1060 C1059 1.390 . S
C1060 C1061 1.394 1_556 S
C1060 C1066 1.465 1_455 S
C1061 C1056 1.399 . S
C1061 C1060 1.394 1_554 S
C1061 C1062 1.558 . S
C1062 C1061 1.558 . S
C1062 C1063 1.500 . S
C1062 C1064 1.539 1_455 S
C1062 C1065 1.508 1_455 S
C1063 H1047 0.959 . S
C1063 H1048 0.959 1_455 S
C1063 H1049 0.961 . S
C1063 C1062 1.500 . S
C1064 H1050 0.959 1_655 S
C1064 H1051 0.963 . S
C1064 H1052 0.959 1_554 S
C1064 C1062 1.539 1_655 S
C1065 C1062 1.508 1_655 S
C1065 C1066 1.396 1_554 S
C1065 C1070 1.390 . S
C1066 C1060 1.465 1_655 S
C1066 C1065 1.396 1_556 S
C1066 C1067 1.399 . S
C1067 H1053 0.929 . S
C1067 C1066 1.399 . S
C1067 C1068 1.385 . S
C1068 H1054 0.931 . S
C1068 C1067 1.385 . S
C1068 C1069 1.389 1_556 S
C1069 C1068 1.389 1_554 S
C1069 C1070 1.387 . S
C1070 H1055 0.930 . S
C1070 C1065 1.390 . S
C1070 C1069 1.387 . S
H1071 C1083 0.930 . S
H1072 C1085 0.930 . S
H1073 C1086 0.930 . S
H1074 C1090 0.963 1_545 S
H1075 C1090 0.959 1_545 S
H1076 C1090 0.961 . S
H1077 C1091 0.960 . S
H1078 C1091 0.961 1_545 S
H1079 C1091 0.959 . S
H1080 C1094 0.929 . S
H1081 C1095 0.931 . S
H1082 C1097 0.930 . S
C1083 H1071 0.930 . S
C1083 C1084 1.399 1_556 S
C1083 C1088 1.399 . S
C1084 C1083 1.399 1_554 S
C1084 C1085 1.376 . S
C1085 H1072 0.930 . S
C1085 C1084 1.376 . S
C1085 C1086 1.388 . S
C1086 H1073 0.930 . S
C1086 C1085 1.388 . S
C1086 C1087 1.390 . S
C1087 C1086 1.390 . S
C1087 C1088 1.394 1_554 S
C1087 C1093 1.465 1_565 S
C1088 C1083 1.399 . S
C1088 C1087 1.394 1_556 S
C1088 C1089 1.516 . S
C1089 C1088 1.516 . S
C1089 C1090 1.502 . S
C1089 C1091 1.561 . S
C1089 C1092 1.526 1_565 S
C1090 H1074 0.963 1_565 S
C1090 H1075 0.959 1_565 S
C1090 H1076 0.961 . S
C1090 C1089 1.502 . S
C1091 H1077 0.960 . S
C1091 H1078 0.961 1_565 S
C1091 H1079 0.959 . S
C1091 C1089 1.561 . S
C1092 C1089 1.526 1_545 S
C1092 C1093 1.396 1_556 S
C1092 C1097 1.390 . S
C1093 C1087 1.465 1_545 S
C1093 C1092 1.396 1_554 S
C1093 C1094 1.399 . S
C1094 H1080 0.929 . S
C1094 C1093 1.399 . S
C1094 C1095 1.385 . S
C1095 H1081 0.931 . S
C1095 C1094 1.385 . S
C1095 C1096 1.389 1_554 S
C1096 C1095 1.389 1_556 S
C1096 C1097 1.387 . S
C1097 H1082 0.930 . S
C1097 C1092 1.390 . S
C1097 C1096 1.387 . S
H1098 C1110 0.930 . S
H1099 C1112 0.930 . S
H1100 C1113 0.930 . S
H1101 C1117 0.959 . S
H1102 C1117 0.959 . S
H1103 C1117 0.961 . S
H1104 C1118 0.960 . S
H1105 C1118 0.961 . S
H1106 C1118 0.959 . S
H1107 C1121 0.929 . S
H1108 C1122 0.931 . S
H1109 C1124 0.930 . S
C1110 H1098 0.930 . S
C1110 C1111 1.399 1_556 S
C1110 C1115 1.399 . S
C1111 C1110 1.399 1_554 S
C1111 C1112 1.376 . S
C1112 H1099 0.930 . S
C1112 C1111 1.376 . S
C1112 C1113 1.388 . S
C1113 H1100 0.930 . S
C1113 C1112 1.388 . S
C1113 C1114 1.390 . S
C1114 C1113 1.390 . S
C1114 C1115 1.394 1_554 S
C1114 C1120 1.465 . S
C1115 C1110 1.399 . S
C1115 C1114 1.394 1_556 S
C1115 C1116 1.516 . S
C1116 C1115 1.516 . S
C1116 C1117 1.502 . S
C1116 C1118 1.561 . S
C1116 C1119 1.526 . S
C1117 H1101 0.959 . S
C1117 H1102 0.959 . S
C1117 H1103 0.961 . S
C1117 C1116 1.502 . S
C1118 H1104 0.960 . S
C1118 H1105 0.961 . S
C1118 H1106 0.959 . S
C1118 C1116 1.561 . S
C1119 C1116 1.526 . S
C1119 C1120 1.396 1_556 S
C1119 C1124 1.390 . S
C1120 C1114 1.465 . S
C1120 C1119 1.396 1_554 S
C1120 C1121 1.399 . S
C1121 H1107 0.929 . S
C1121 C1120 1.399 . S
C1121 C1122 1.385 . S
C1122 H1108 0.931 . S
C1122 C1121 1.385 . S
C1122 C1123 1.389 1_554 S
C1123 C1122 1.389 1_556 S
C1123 C1124 1.387 . S
C1124 H1109 0.930 . S
C1124 C1119 1.390 . S
C1124 C1123 1.387 . S
H1125 C1137 0.930 . S
H1126 C1139 0.930 . S
H1127 C1140 0.930 . S
H1128 C1144 0.959 . S
H1129 C1144 0.959 . S
H1130 C1144 0.961 1_455 S
H1131 C1145 0.960 1_455 S
H1132 C1145 0.961 . S
H1133 C1145 0.959 . S
H1134 C1148 0.929 . S
H1135 C1149 0.931 . S
H1136 C1151 0.930 . S
C1137 H1125 0.930 . S
C1137 C1138 1.399 . S
C1137 C1142 1.399 . S
C1138 C1137 1.399 . S
C1138 C1139 1.376 1_554 S
C1139 H1126 0.930 . S
C1139 C1138 1.376 1_556 S
C1139 C1140 1.388 . S
C1140 H1127 0.930 . S
C1140 C1139 1.388 . S
C1140 C1141 1.390 . S
C1141 C1140 1.390 . S
C1141 C1142 1.394 1_556 S
C1141 C1147 1.465 1_455 S
C1142 C1137 1.399 . S
C1142 C1141 1.394 1_554 S
C1142 C1143 1.516 1_455 S
C1143 C1142 1.516 1_655 S
C1143 C1144 1.502 . S
C1143 C1145 1.561 . S
C1143 C1146 1.526 . S
C1144 H1128 0.959 . S
C1144 H1129 0.959 . S
C1144 H1130 0.961 1_655 S
C1144 C1143 1.502 . S
C1145 H1131 0.960 1_655 S
C1145 H1132 0.961 . S
C1145 H1133 0.959 . S
C1145 C1143 1.561 . S
C1146 C1143 1.526 . S
C1146 C1147 1.396 1_554 S
C1146 C1151 1.390 . S
C1147 C1141 1.465 1_655 S
C1147 C1146 1.396 1_556 S
C1147 C1148 1.399 . S
C1148 H1134 0.929 . S
C1148 C1147 1.399 . S
C1148 C1149 1.385 . S
C1149 H1135 0.931 . S
C1149 C1148 1.385 . S
C1149 C1150 1.389 . S
C1150 C1149 1.389 . S
C1150 C1151 1.387 1_556 S
C1151 H1136 0.930 . S
C1151 C1146 1.390 . S
C1151 C1150 1.387 1_554 S
H1152 C1164 0.930 . S
H1153 C1166 0.930 . S
H1154 C1167 0.930 . S
H1155 C1171 0.959 . S
H1156 C1171 0.959 . S
H1157 C1171 0.961 1_565 S
H1158 C1172 0.960 1_565 S
H1159 C1172 0.961 . S
H1160 C1172 0.959 . S
H1161 C1175 0.929 . S
H1162 C1176 0.931 . S
H1163 C1178 0.930 . S
C1164 H1152 0.930 . S
C1164 C1165 1.399 . S
C1164 C1169 1.399 . S
C1165 C1164 1.399 . S
C1165 C1166 1.376 1_556 S
C1166 H1153 0.930 . S
C1166 C1165 1.376 1_554 S
C1166 C1167 1.388 . S
C1167 H1154 0.930 . S
C1167 C1166 1.388 . S
C1167 C1168 1.390 . S
C1168 C1167 1.390 . S
C1168 C1169 1.394 1_554 S
C1168 C1174 1.465 1_565 S
C1169 C1164 1.399 . S
C1169 C1168 1.394 1_556 S
C1169 C1170 1.516 1_565 S
C1170 C1169 1.516 1_545 S
C1170 C1171 1.502 . S
C1170 C1172 1.561 . S
C1170 C1173 1.526 . S
C1171 H1155 0.959 . S
C1171 H1156 0.959 . S
C1171 H1157 0.961 1_545 S
C1171 C1170 1.502 . S
C1172 H1158 0.960 1_545 S
C1172 H1159 0.961 . S
C1172 H1160 0.959 . S
C1172 C1170 1.561 . S
C1173 C1170 1.526 . S
C1173 C1174 1.396 1_556 S
C1173 C1178 1.390 . S
C1174 C1168 1.465 1_545 S
C1174 C1173 1.396 1_554 S
C1174 C1175 1.399 . S
C1175 H1161 0.929 . S
C1175 C1174 1.399 . S
C1175 C1176 1.385 . S
C1176 H1162 0.931 . S
C1176 C1175 1.385 . S
C1176 C1177 1.389 . S
C1177 C1176 1.389 . S
C1177 C1178 1.387 1_554 S
C1178 H1163 0.930 . S
C1178 C1173 1.390 . S
C1178 C1177 1.387 1_556 S
H1179 C1191 0.930 . S
H1180 C1193 0.930 . S
H1181 C1194 0.930 . S
H1182 C1198 0.959 . S
H1183 C1198 0.959 . S
H1184 C1198 0.961 . S
H1185 C1199 0.960 . S
H1186 C1199 0.961 . S
H1187 C1199 0.959 . S
H1188 C1202 0.929 . S
H1189 C1203 0.931 . S
H1190 C1205 0.930 . S
C1191 H1179 0.930 . S
C1191 C1192 1.399 1_556 S
C1191 C1196 1.399 . S
C1192 C1191 1.399 1_554 S
C1192 C1193 1.376 . S
C1193 H1180 0.930 . S
C1193 C1192 1.376 . S
C1193 C1194 1.388 . S
C1194 H1181 0.930 . S
C1194 C1193 1.388 . S
C1194 C1195 1.390 . S
C1195 C1194 1.390 . S
C1195 C1196 1.394 1_554 S
C1195 C1201 1.465 . S
C1196 C1191 1.399 . S
C1196 C1195 1.394 1_556 S
C1196 C1197 1.516 . S
C1197 C1196 1.516 . S
C1197 C1198 1.502 . S
C1197 C1199 1.561 . S
C1197 C1200 1.526 . S
C1198 H1182 0.959 . S
C1198 H1183 0.959 . S
C1198 H1184 0.961 . S
C1198 C1197 1.502 . S
C1199 H1185 0.960 . S
C1199 H1186 0.961 . S
C1199 H1187 0.959 . S
C1199 C1197 1.561 . S
C1200 C1197 1.526 . S
C1200 C1201 1.396 1_556 S
C1200 C1205 1.390 . S
C1201 C1195 1.465 . S
C1201 C1200 1.396 1_554 S
C1201 C1202 1.399 . S
C1202 H1188 0.929 . S
C1202 C1201 1.399 . S
C1202 C1203 1.385 . S
C1203 H1189 0.931 . S
C1203 C1202 1.385 . S
C1203 C1204 1.389 1_554 S
C1204 C1203 1.389 1_556 S
C1204 C1205 1.387 . S
C1205 H1190 0.930 . S
C1205 C1200 1.390 . S
C1205 C1204 1.387 . S
C409 C285 1.561 . S
C421 C21 1.567 . S
C436 C54 1.572 1_554 S
C448 C318 1.578 . S
C463 C351 1.577 . S
C475 C87 1.573 1_554 S
C490 C384 1.563 . S
C502 C120 1.567 . S
C517 C153 1.576 1_554 S
C529 C219 1.579 . S
C544 C252 1.577 . S
C556 C186 1.572 1_554 S
C571 C348 1.239 . S
C583 C18 1.236 . S
C598 C381 1.219 . S
C610 C51 1.237 . S
C625 C84 1.223 . S
C637 C216 1.205 . S
C652 C249 1.240 . S
C664 C117 1.228 . S
C679 C282 1.216 . S
C691 C150 1.203 . S
C706 C315 1.229 . S
C718 C183 1.209 . S
C733 N13 1.489 . S
C745 N2 1.421 . S
C760 N46 1.491 . S
C772 N35 1.406 . S
C787 N79 1.454 . S
C799 N68 1.435 . S
C814 N112 1.416 . S
C826 N101 1.477 . S
C841 N134 1.419 . S
C853 N145 1.489 . S
C868 N178 1.471 . S
C880 N167 1.419 . S
C895 N200 1.461 . S
C907 N211 1.429 . S
C922 N244 1.484 . S
C934 N233 1.428 . S
C949 N266 1.414 . S
C961 N277 1.492 . S
C976 N299 1.468 . S
C988 N310 1.447 . S
C1003 N343 1.484 . S
C1015 N332 1.428 . S
C1030 N376 1.426 . S
C1042 N365 1.485 . S
C1057 C7 1.250 . S
C1069 C370 1.261 . S
C1084 C205 1.206 . S
C1096 C40 1.217 . S
C1111 C238 1.206 . S
C1123 C73 1.218 . S
C1138 C271 1.247 . S
C1150 C106 1.233 . S
C1165 C139 1.262 . S
C1177 C304 1.251 . S
C1192 C337 1.200 . S
C1204 C172 1.208 . S
