# Generated by pormake.
# Topology pcu-i, (5)-cn, num edge types: 1
# Building blocks:
#     Node 0, Type 0, BuildingBlock: XOMCOT_clean_sbu_1, # of connection points: 5
#     Node 1, Type 0, BuildingBlock: XOMCOT_clean_sbu_1, # of connection points: 5
#     Node 2, Type 0, BuildingBlock: XOMCOT_clean_sbu_1, # of connection points: 5
#     Node 3, Type 0, BuildingBlock: XOMCOT_clean_sbu_1, # of connection points: 5
#     Node 4, Type 0, BuildingBlock: XOMCOT_clean_sbu_1, # of connection points: 5
#     Node 5, Type 0, BuildingBlock: XOMCOT_clean_sbu_1, # of connection points: 5
#     Node 6, Type 0, BuildingBlock: XOMCOT_clean_sbu_1, # of connection points: 5
#     Node 7, Type 0, BuildingBlock: XOMCOT_clean_sbu_1, # of connection points: 5
#     Node 8, Type 0, BuildingBlock: XOMCOT_clean_sbu_1, # of connection points: 5
#     Node 9, Type 0, BuildingBlock: XOMCOT_clean_sbu_1, # of connection points: 5
#     Node 10, Type 0, BuildingBlock: XOMCOT_clean_sbu_1, # of connection points: 5
#     Node 11, Type 0, BuildingBlock: XOMCOT_clean_sbu_1, # of connection points: 5
#     Node 12, Type 0, BuildingBlock: XOMCOT_clean_sbu_1, # of connection points: 5
#     Node 13, Type 0, BuildingBlock: XOMCOT_clean_sbu_1, # of connection points: 5
#     Node 14, Type 0, BuildingBlock: XOMCOT_clean_sbu_1, # of connection points: 5
#     Node 15, Type 0, BuildingBlock: XOMCOT_clean_sbu_1, # of connection points: 5
#     Node 16, Type 0, BuildingBlock: XOMCOT_clean_sbu_1, # of connection points: 5
#     Node 17, Type 0, BuildingBlock: XOMCOT_clean_sbu_1, # of connection points: 5
#     Node 18, Type 0, BuildingBlock: XOMCOT_clean_sbu_1, # of connection points: 5
#     Node 19, Type 0, BuildingBlock: XOMCOT_clean_sbu_1, # of connection points: 5
#     Node 20, Type 0, BuildingBlock: XOMCOT_clean_sbu_1, # of connection points: 5
#     Node 21, Type 0, BuildingBlock: XOMCOT_clean_sbu_1, # of connection points: 5
#     Node 22, Type 0, BuildingBlock: XOMCOT_clean_sbu_1, # of connection points: 5
#     Node 23, Type 0, BuildingBlock: XOMCOT_clean_sbu_1, # of connection points: 5
#     Edge 24, Type (0, 0), BuildingBlock: AJUNOK_clean_linker_0, # of connection points: 2
#     Edge 25, Type (0, 0), BuildingBlock: AJUNOK_clean_linker_0, # of connection points: 2
#     Edge 26, Type (0, 0), BuildingBlock: AJUNOK_clean_linker_0, # of connection points: 2
#     Edge 27, Type (0, 0), BuildingBlock: AJUNOK_clean_linker_0, # of connection points: 2
#     Edge 28, Type (0, 0), BuildingBlock: AJUNOK_clean_linker_0, # of connection points: 2
#     Edge 29, Type (0, 0), BuildingBlock: AJUNOK_clean_linker_0, # of connection points: 2
#     Edge 30, Type (0, 0), BuildingBlock: AJUNOK_clean_linker_0, # of connection points: 2
#     Edge 31, Type (0, 0), BuildingBlock: AJUNOK_clean_linker_0, # of connection points: 2
#     Edge 32, Type (0, 0), BuildingBlock: AJUNOK_clean_linker_0, # of connection points: 2
#     Edge 33, Type (0, 0), BuildingBlock: AJUNOK_clean_linker_0, # of connection points: 2
#     Edge 34, Type (0, 0), BuildingBlock: AJUNOK_clean_linker_0, # of connection points: 2
#     Edge 35, Type (0, 0), BuildingBlock: AJUNOK_clean_linker_0, # of connection points: 2
#     Edge 36, Type (0, 0), BuildingBlock: AJUNOK_clean_linker_0, # of connection points: 2
#     Edge 37, Type (0, 0), BuildingBlock: AJUNOK_clean_linker_0, # of connection points: 2
#     Edge 38, Type (0, 0), BuildingBlock: AJUNOK_clean_linker_0, # of connection points: 2
#     Edge 39, Type (0, 0), BuildingBlock: AJUNOK_clean_linker_0, # of connection points: 2
#     Edge 40, Type (0, 0), BuildingBlock: AJUNOK_clean_linker_0, # of connection points: 2
#     Edge 41, Type (0, 0), BuildingBlock: AJUNOK_clean_linker_0, # of connection points: 2
#     Edge 42, Type (0, 0), BuildingBlock: AJUNOK_clean_linker_0, # of connection points: 2
#     Edge 43, Type (0, 0), BuildingBlock: AJUNOK_clean_linker_0, # of connection points: 2
#     Edge 44, Type (0, 0), BuildingBlock: AJUNOK_clean_linker_0, # of connection points: 2
#     Edge 45, Type (0, 0), BuildingBlock: AJUNOK_clean_linker_0, # of connection points: 2
#     Edge 46, Type (0, 0), BuildingBlock: AJUNOK_clean_linker_0, # of connection points: 2
#     Edge 47, Type (0, 0), BuildingBlock: AJUNOK_clean_linker_0, # of connection points: 2
#     Edge 48, Type (0, 0), BuildingBlock: AJUNOK_clean_linker_0, # of connection points: 2
#     Edge 49, Type (0, 0), BuildingBlock: AJUNOK_clean_linker_0, # of connection points: 2
#     Edge 50, Type (0, 0), BuildingBlock: AJUNOK_clean_linker_0, # of connection points: 2
#     Edge 51, Type (0, 0), BuildingBlock: AJUNOK_clean_linker_0, # of connection points: 2
#     Edge 52, Type (0, 0), BuildingBlock: AJUNOK_clean_linker_0, # of connection points: 2
#     Edge 53, Type (0, 0), BuildingBlock: AJUNOK_clean_linker_0, # of connection points: 2
#     Edge 54, Type (0, 0), BuildingBlock: AJUNOK_clean_linker_0, # of connection points: 2
#     Edge 55, Type (0, 0), BuildingBlock: AJUNOK_clean_linker_0, # of connection points: 2
#     Edge 56, Type (0, 0), BuildingBlock: AJUNOK_clean_linker_0, # of connection points: 2
#     Edge 57, Type (0, 0), BuildingBlock: AJUNOK_clean_linker_0, # of connection points: 2
#     Edge 58, Type (0, 0), BuildingBlock: AJUNOK_clean_linker_0, # of connection points: 2
#     Edge 59, Type (0, 0), BuildingBlock: AJUNOK_clean_linker_0, # of connection points: 2
#     Edge 60, Type (0, 0), BuildingBlock: AJUNOK_clean_linker_0, # of connection points: 2
#     Edge 61, Type (0, 0), BuildingBlock: AJUNOK_clean_linker_0, # of connection points: 2
#     Edge 62, Type (0, 0), BuildingBlock: AJUNOK_clean_linker_0, # of connection points: 2
#     Edge 63, Type (0, 0), BuildingBlock: AJUNOK_clean_linker_0, # of connection points: 2
#     Edge 64, Type (0, 0), BuildingBlock: AJUNOK_clean_linker_0, # of connection points: 2
#     Edge 65, Type (0, 0), BuildingBlock: AJUNOK_clean_linker_0, # of connection points: 2
#     Edge 66, Type (0, 0), BuildingBlock: AJUNOK_clean_linker_0, # of connection points: 2
#     Edge 67, Type (0, 0), BuildingBlock: AJUNOK_clean_linker_0, # of connection points: 2
#     Edge 68, Type (0, 0), BuildingBlock: AJUNOK_clean_linker_0, # of connection points: 2
#     Edge 69, Type (0, 0), BuildingBlock: AJUNOK_clean_linker_0, # of connection points: 2
#     Edge 70, Type (0, 0), BuildingBlock: AJUNOK_clean_linker_0, # of connection points: 2
#     Edge 71, Type (0, 0), BuildingBlock: AJUNOK_clean_linker_0, # of connection points: 2
#     Edge 72, Type (0, 0), BuildingBlock: AJUNOK_clean_linker_0, # of connection points: 2
#     Edge 73, Type (0, 0), BuildingBlock: AJUNOK_clean_linker_0, # of connection points: 2
#     Edge 74, Type (0, 0), BuildingBlock: AJUNOK_clean_linker_0, # of connection points: 2
#     Edge 75, Type (0, 0), BuildingBlock: AJUNOK_clean_linker_0, # of connection points: 2
#     Edge 76, Type (0, 0), BuildingBlock: AJUNOK_clean_linker_0, # of connection points: 2
#     Edge 77, Type (0, 0), BuildingBlock: AJUNOK_clean_linker_0, # of connection points: 2
#     Edge 78, Type (0, 0), BuildingBlock: AJUNOK_clean_linker_0, # of connection points: 2
#     Edge 79, Type (0, 0), BuildingBlock: AJUNOK_clean_linker_0, # of connection points: 2
#     Edge 80, Type (0, 0), BuildingBlock: AJUNOK_clean_linker_0, # of connection points: 2
#     Edge 81, Type (0, 0), BuildingBlock: AJUNOK_clean_linker_0, # of connection points: 2
#     Edge 82, Type (0, 0), BuildingBlock: AJUNOK_clean_linker_0, # of connection points: 2
#     Edge 83, Type (0, 0), BuildingBlock: AJUNOK_clean_linker_0, # of connection points: 2
# Relax obj value: 0.246
# Max RMSD: 0.244
# Mean RMSD: 0.244
data_MOF--net-pcu-i--node1-XOMCOT_clean_sbu_1--edge1-AJUNOK_clean_linker_0
_symmetry_space_group_name_H-M    P1
_symmetry_Int_Tables_number       1
_symmetry_cell_setting            triclinic
loop_
_symmetry_equiv_pos_as_xyz
'x, y, z'
_cell_length_a     43.819329
_cell_length_b     43.832242
_cell_length_c     43.839304
_cell_angle_alpha  89.973012
_cell_angle_beta   89.958208
_cell_angle_gamma 89.99277
loop_
_atom_site_label
_atom_site_type_symbol
_atom_site_fract_x
_atom_site_fract_y
_atom_site_fract_z
_atom_type_partial_charge
C0 C 0.07539 0.17929 0.36069 0.0
C1 C 0.04415 0.18139 0.35909 0.0
N2 N 0.03423 0.16113 0.33826 0.0
N3 N 0.08502 0.15785 0.34088 0.0
C4 C 0.05937 0.14701 0.32761 0.0
H5 H 0.09026 0.19287 0.37494 0.0
Co6 Co 0.12548 0.14835 0.33253 0.0
C7 C 0.1214 0.09146 0.2986 0.0
O8 O 0.13397 0.10492 0.27495 0.0
N9 N 0.16647 0.13795 0.32351 0.0
C10 C 0.20739 0.10832 0.31756 0.0
C11 C 0.18196 0.11389 0.3351 0.0
C12 C 0.18352 0.14701 0.29937 0.0
N13 N 0.20798 0.1289 0.29481 0.0
O14 O 0.12006 0.16391 0.29189 0.0
H15 H 0.17395 0.09954 0.35352 0.0
H16 H 0.1769 0.16479 0.28368 0.0
O17 O 0.11411 0.10721 0.32187 0.0
C18 C 0.1222 0.19282 0.29481 0.0
O19 O 0.12782 0.20399 0.32205 0.0
N20 N 0.13073 0.13685 0.37327 0.0
C21 C 0.13477 0.13173 0.43638 0.0
C22 C 0.11418 0.11356 0.42 0.0
C23 C 0.11261 0.11634 0.38822 0.0
C24 C 0.15093 0.15453 0.38892 0.0
C25 C 0.15365 0.152 0.42049 0.0
H26 H 0.09576 0.10324 0.37588 0.0
H27 H 0.16427 0.17144 0.37687 0.0
H28 H 0.05918 0.12993 0.30979 0.0
H29 H 0.02976 0.19677 0.37202 0.0
H30 H 0.2233 0.08965 0.32041 0.0
H31 H 0.09907 0.09789 0.43172 0.0
H32 H 0.16946 0.16668 0.43254 0.0
C33 C 0.83981 0.06866 0.36978 0.0
C34 C 0.84673 0.03815 0.36755 0.0
N35 N 0.86177 0.03363 0.3412 0.0
N36 N 0.85066 0.08333 0.34496 0.0
C37 C 0.86362 0.06122 0.32773 0.0
H38 H 0.82666 0.07921 0.38778 0.0
Co39 Co 0.84502 0.12432 0.33461 0.0
C40 C 0.90562 0.15061 0.32836 0.0
O41 O 0.89433 0.17355 0.34399 0.0
N42 N 0.83924 0.1655 0.32202 0.0
C43 C 0.83117 0.21515 0.31469 0.0
C44 C 0.82771 0.19113 0.33474 0.0
C45 C 0.84871 0.17467 0.294 0.0
N46 N 0.84475 0.20476 0.28914 0.0
O47 O 0.83088 0.11219 0.29498 0.0
H48 H 0.81813 0.19302 0.3573 0.0
H49 H 0.85892 0.15938 0.27757 0.0
O50 O 0.88869 0.12742 0.32234 0.0
C51 C 0.80233 0.10887 0.30011 0.0
O52 O 0.79278 0.11197 0.32837 0.0
N53 N 0.85424 0.13514 0.37544 0.0
C54 C 0.85604 0.13789 0.43931 0.0
C55 C 0.8816 0.1282 0.42256 0.0
C56 C 0.88012 0.12657 0.39067 0.0
C57 C 0.82923 0.1444 0.39147 0.0
C58 C 0.82992 0.14687 0.42319 0.0
H59 H 0.89897 0.11627 0.37858 0.0
H60 H 0.80786 0.14807 0.37975 0.0
H61 H 0.87293 0.06504 0.30517 0.0
H62 H 0.83977 0.02033 0.3832 0.0
H63 H 0.82506 0.23868 0.31904 0.0
H64 H 0.90201 0.12035 0.43406 0.0
H65 H 0.80971 0.15478 0.43498 0.0
C66 C 0.93839 0.81442 0.33762 0.0
C67 C 0.96918 0.81791 0.33269 0.0
N68 N 0.97376 0.84564 0.32037 0.0
N69 N 0.92375 0.83976 0.32816 0.0
C70 C 0.94595 0.85851 0.31783 0.0
H71 H 0.92721 0.79435 0.34663 0.0
Co72 Co 0.88177 0.843 0.32618 0.0
C73 C 0.86622 0.90785 0.32368 0.0
O74 O 0.84431 0.90124 0.34304 0.0
N75 N 0.83875 0.84551 0.32252 0.0
C76 C 0.78793 0.84377 0.32441 0.0
C77 C 0.81458 0.83769 0.34009 0.0
C78 C 0.82601 0.8558 0.29632 0.0
N79 N 0.79544 0.85509 0.29688 0.0
O80 O 0.88294 0.829 0.28481 0.0
H81 H 0.81574 0.82784 0.3626 0.0
H82 H 0.83902 0.86409 0.27702 0.0
O83 O 0.88455 0.8869 0.31447 0.0
C84 C 0.87606 0.80075 0.28659 0.0
O85 O 0.87295 0.78843 0.31374 0.0
N86 N 0.88133 0.85266 0.36797 0.0
C87 C 0.88416 0.85801 0.43131 0.0
C88 C 0.89645 0.88078 0.4125 0.0
C89 C 0.89549 0.8773 0.38081 0.0
C90 C 0.87134 0.82939 0.386 0.0
C91 C 0.87201 0.83178 0.41772 0.0
H92 H 0.90693 0.89398 0.3668 0.0
H93 H 0.86317 0.80855 0.37564 0.0
H94 H 0.94187 0.88057 0.30752 0.0
H95 H 0.98685 0.80129 0.33739 0.0
H96 H 0.76492 0.83941 0.33227 0.0
H97 H 0.90737 0.9007 0.4222 0.0
H98 H 0.86304 0.81331 0.43149 0.0
C99 C 0.18072 0.93385 0.35759 0.0
C100 C 0.17885 0.96502 0.35348 0.0
N101 N 0.15473 0.97074 0.3354 0.0
N102 N 0.15807 0.92031 0.34177 0.0
C103 C 0.14267 0.94346 0.32849 0.0
H104 H 0.19777 0.92179 0.37072 0.0
Co105 Co 0.15097 0.87885 0.33668 0.0
C106 C 0.09699 0.88016 0.29734 0.0
O107 O 0.11296 0.86876 0.27469 0.0
N108 N 0.14235 0.83686 0.33046 0.0
C109 C 0.11295 0.79545 0.32691 0.0
C110 C 0.11919 0.82119 0.34366 0.0
C111 C 0.15001 0.81962 0.30597 0.0
N112 N 0.13201 0.79489 0.30289 0.0
O113 O 0.16959 0.88154 0.29714 0.0
H114 H 0.10552 0.82929 0.36252 0.0
H115 H 0.16622 0.82645 0.28871 0.0
O116 O 0.11017 0.88689 0.32232 0.0
C117 C 0.19797 0.87748 0.30266 0.0
O118 O 0.20614 0.87237 0.33106 0.0
N119 N 0.13714 0.87663 0.37686 0.0
C120 C 0.12875 0.87635 0.43992 0.0
C121 C 0.10996 0.89424 0.42103 0.0
C122 C 0.11455 0.89406 0.38937 0.0
C123 C 0.15537 0.85905 0.3948 0.0
C124 C 0.15125 0.85816 0.42625 0.0
H125 H 0.10107 0.90903 0.37517 0.0
H126 H 0.17377 0.84613 0.38459 0.0
H127 H 0.12354 0.94058 0.31319 0.0
H128 H 0.19402 0.98211 0.36283 0.0
H129 H 0.09468 0.77938 0.33115 0.0
H130 H 0.09285 0.90924 0.43065 0.0
H131 H 0.16613 0.84386 0.43983 0.0
C132 C 0.07108 0.82456 0.66165 0.0
C133 C 0.04002 0.82856 0.66338 0.0
N134 N 0.03451 0.85584 0.67639 0.0
N135 N 0.08506 0.84915 0.6736 0.0
C136 C 0.06221 0.86786 0.6825 0.0
H137 H 0.08281 0.80502 0.65221 0.0
Co138 Co 0.12698 0.85274 0.67692 0.0
C139 C 0.14178 0.91727 0.68166 0.0
O140 O 0.16356 0.91132 0.66194 0.0
N141 N 0.17004 0.85554 0.68191 0.0
C142 C 0.22094 0.85545 0.68083 0.0
C143 C 0.19477 0.84926 0.66446 0.0
C144 C 0.18206 0.86492 0.70881 0.0
N145 N 0.21267 0.86526 0.70868 0.0
O146 O 0.12485 0.83706 0.71761 0.0
H147 H 0.19441 0.84073 0.64143 0.0
H148 H 0.16852 0.87209 0.72818 0.0
O149 O 0.12353 0.89602 0.69033 0.0
C150 C 0.13213 0.80902 0.71469 0.0
O151 O 0.13601 0.79805 0.68706 0.0
N152 N 0.12827 0.86426 0.63551 0.0
C153 C 0.12564 0.87188 0.57242 0.0
C154 C 0.11171 0.89309 0.59181 0.0
C155 C 0.11289 0.88862 0.6234 0.0
C156 C 0.13988 0.84241 0.61672 0.0
C157 C 0.1397 0.8462 0.58514 0.0
H158 H 0.10058 0.90422 0.63795 0.0
H159 H 0.14872 0.82148 0.6263 0.0
H160 H 0.06573 0.88965 0.6935 0.0
H161 H 0.02278 0.81292 0.65513 0.0
H162 H 0.24421 0.85248 0.67306 0.0
H163 H 0.09983 0.91272 0.58262 0.0
H164 H 0.14966 0.82877 0.57072 0.0
C165 C 0.1709 0.07899 0.6414 0.0
C166 C 0.16634 0.04808 0.64399 0.0
N167 N 0.14882 0.04301 0.66867 0.0
N168 N 0.15624 0.09328 0.66438 0.0
C169 C 0.14316 0.07066 0.68085 0.0
H170 H 0.18479 0.09026 0.6244 0.0
Co171 Co 0.15748 0.13492 0.67277 0.0
C172 C 0.0944 0.15389 0.68218 0.0
O173 O 0.1014 0.17802 0.66583 0.0
N174 N 0.15901 0.17699 0.68311 0.0
C175 C 0.15921 0.22772 0.68654 0.0
C176 C 0.16547 0.20311 0.66795 0.0
C177 C 0.15003 0.18659 0.71113 0.0
N178 N 0.14947 0.21715 0.71367 0.0
O179 O 0.17436 0.12635 0.71196 0.0
H180 H 0.17274 0.20481 0.64453 0.0
H181 H 0.1416 0.17137 0.72867 0.0
O182 O 0.11473 0.13341 0.68728 0.0
C183 C 0.20301 0.1245 0.70687 0.0
O184 O 0.21243 0.126 0.67844 0.0
N185 N 0.14492 0.14249 0.6323 0.0
C186 C 0.13965 0.14003 0.56874 0.0
C187 C 0.11611 0.12914 0.58753 0.0
C188 C 0.11936 0.13015 0.61927 0.0
C189 C 0.16788 0.15321 0.61428 0.0
C190 C 0.16534 0.1531 0.58258 0.0
H191 H 0.10246 0.1187 0.63307 0.0
H192 H 0.18925 0.16004 0.62449 0.0
H193 H 0.13079 0.07428 0.70192 0.0
H194 H 0.17607 0.03052 0.62959 0.0
H195 H 0.16063 0.25156 0.68023 0.0
H196 H 0.09621 0.1182 0.57781 0.0
H197 H 0.18399 0.16204 0.56906 0.0
C198 C 0.92489 0.12007 0.64933 0.0
C199 C 0.95589 0.11671 0.65159 0.0
N200 N 0.96615 0.13629 0.67281 0.0
N201 N 0.91528 0.14195 0.66886 0.0
C202 C 0.94115 0.15127 0.68296 0.0
H203 H 0.91028 0.10634 0.63505 0.0
Co204 Co 0.87391 0.15128 0.67728 0.0
C205 C 0.88072 0.0895 0.70367 0.0
O206 O 0.90496 0.09699 0.7196 0.0
N207 N 0.83318 0.15885 0.68665 0.0
C208 C 0.78587 0.17621 0.69179 0.0
C209 C 0.81241 0.17813 0.67477 0.0
C210 C 0.819 0.14582 0.71075 0.0
N211 N 0.79029 0.156 0.71463 0.0
O212 O 0.88344 0.16285 0.71829 0.0
H213 H 0.81641 0.19282 0.65535 0.0
H214 H 0.82967 0.12895 0.72522 0.0
O215 O 0.8674 0.10933 0.68723 0.0
C216 C 0.88804 0.19157 0.716 0.0
O217 O 0.89039 0.20337 0.68853 0.0
N218 N 0.86395 0.14428 0.63627 0.0
C219 C 0.85796 0.14066 0.57289 0.0
C220 C 0.84821 0.11654 0.59176 0.0
C221 C 0.85092 0.11899 0.62356 0.0
C222 C 0.87252 0.16823 0.61845 0.0
C223 C 0.86968 0.16696 0.58682 0.0
H224 H 0.84362 0.10015 0.63766 0.0
H225 H 0.88237 0.18826 0.62892 0.0
H226 H 0.94163 0.16762 0.70134 0.0
H227 H 0.96982 0.10094 0.63864 0.0
H228 H 0.7651 0.18902 0.68794 0.0
H229 H 0.83945 0.09557 0.58212 0.0
H230 H 0.87695 0.18637 0.57336 0.0
C231 C 0.82914 0.93394 0.63634 0.0
C232 C 0.83023 0.96466 0.64241 0.0
N233 N 0.8449 0.96867 0.66902 0.0
N234 N 0.84352 0.91848 0.65885 0.0
C235 C 0.85197 0.94042 0.67886 0.0
H236 H 0.81799 0.92403 0.61684 0.0
Co237 Co 0.8487 0.87623 0.66561 0.0
C238 C 0.91185 0.90059 0.67293 0.0
O239 O 0.90699 0.92082 0.65135 0.0
N240 N 0.85365 0.83494 0.67384 0.0
C241 C 0.85491 0.78429 0.6735 0.0
C242 C 0.84745 0.81002 0.65691 0.0
C243 C 0.86442 0.8239 0.70052 0.0
N244 N 0.86532 0.79322 0.70099 0.0
O245 O 0.83065 0.88114 0.70498 0.0
H246 H 0.83804 0.81045 0.63413 0.0
H247 H 0.87174 0.83821 0.71926 0.0
O248 O 0.89017 0.88278 0.68108 0.0
C249 C 0.80199 0.88028 0.7 0.0
O250 O 0.79259 0.87737 0.67169 0.0
N251 N 0.86281 0.87011 0.62542 0.0
C252 C 0.87387 0.86477 0.5631 0.0
C253 C 0.89771 0.861 0.58408 0.0
C254 C 0.89158 0.86324 0.6154 0.0
C255 C 0.83909 0.87003 0.60537 0.0
C256 C 0.84412 0.86818 0.5741 0.0
H257 H 0.90989 0.85911 0.63126 0.0
H258 H 0.81599 0.87207 0.61379 0.0
H259 H 0.86321 0.93569 0.70032 0.0
H260 H 0.82133 0.98274 0.62811 0.0
H261 H 0.85238 0.76085 0.66616 0.0
H262 H 0.92082 0.85679 0.57636 0.0
H263 H 0.82489 0.86947 0.55863 0.0
C264 C 0.36351 0.07076 0.1768 0.0
C265 C 0.35984 0.03956 0.1775 0.0
N266 N 0.33175 0.03298 0.16705 0.0
N267 N 0.33818 0.0836 0.16485 0.0
C268 C 0.31883 0.06002 0.16041 0.0
H269 H 0.38413 0.08299 0.1826 0.0
Co270 Co 0.33201 0.12397 0.15234 0.0
C271 C 0.31527 0.0917 0.09143 0.0
O272 O 0.32172 0.06301 0.09706 0.0
N273 N 0.32476 0.16444 0.13867 0.0
C274 C 0.32218 0.20286 0.10541 0.0
C275 C 0.33796 0.17714 0.11381 0.0
C276 C 0.30087 0.18319 0.14479 0.0
N277 N 0.29877 0.20664 0.12491 0.0
O278 O 0.29172 0.12171 0.16863 0.0
H279 H 0.35628 0.167 0.10078 0.0
H280 H 0.28413 0.17909 0.16238 0.0
O281 O 0.31917 0.11194 0.11192 0.0
C282 C 0.29382 0.13098 0.19616 0.0
O283 O 0.32015 0.14147 0.20591 0.0
N284 N 0.37302 0.12642 0.13978 0.0
C285 C 0.43647 0.12626 0.13468 0.0
C286 C 0.41859 0.10803 0.11545 0.0
C287 C 0.3868 0.10824 0.1185 0.0
C288 C 0.39002 0.14526 0.1577 0.0
C289 C 0.42177 0.14571 0.15539 0.0
H290 H 0.37374 0.09239 0.10511 0.0
H291 H 0.37886 0.15911 0.17481 0.0
H292 H 0.2966 0.06238 0.14991 0.0
H293 H 0.37716 0.02289 0.18319 0.0
H294 H 0.32632 0.21631 0.08512 0.0
H295 H 0.42914 0.09255 0.09932 0.0
H296 H 0.43475 0.16054 0.17028 0.0
C297 C 0.93089 0.36086 0.15566 0.0
C298 C 0.96111 0.35845 0.14788 0.0
N299 N 0.9657 0.33078 0.13556 0.0
N300 N 0.91622 0.33487 0.14799 0.0
C301 C 0.93831 0.31668 0.13626 0.0
H302 H 0.92067 0.38009 0.16717 0.0
Co303 Co 0.87486 0.32579 0.1546 0.0
C304 C 0.84733 0.31946 0.09409 0.0
O305 O 0.82349 0.33344 0.1057 0.0
N306 N 0.83351 0.31497 0.16163 0.0
C307 C 0.78406 0.31054 0.1727 0.0
C308 C 0.80933 0.32921 0.17452 0.0
C309 C 0.82233 0.28738 0.15311 0.0
N310 N 0.79243 0.28431 0.15913 0.0
O311 O 0.88518 0.28527 0.1673 0.0
H312 H 0.80939 0.35179 0.18421 0.0
H313 H 0.83561 0.2703 0.14119 0.0
O314 O 0.87063 0.31412 0.11104 0.0
C315 C 0.88787 0.28686 0.19623 0.0
O316 O 0.89047 0.31407 0.20853 0.0
N317 N 0.86501 0.36706 0.14591 0.0
C318 C 0.86148 0.4307 0.143 0.0
C319 C 0.86822 0.41358 0.11687 0.0
C320 C 0.87066 0.38181 0.11894 0.0
C321 C 0.8586 0.38356 0.1715 0.0
C322 C 0.85635 0.41532 0.17051 0.0
H323 H 0.87911 0.36959 0.09935 0.0
H324 H 0.85697 0.37208 0.19328 0.0
H325 H 0.93465 0.29325 0.1294 0.0
H326 H 0.97882 0.37501 0.15264 0.0
H327 H 0.76121 0.31596 0.18038 0.0
H328 H 0.87326 0.4248 0.09543 0.0
H329 H 0.85153 0.4278 0.19128 0.0
C330 C 0.65158 0.92813 0.17514 0.0
C331 C 0.65443 0.9588 0.16885 0.0
N332 N 0.6728 0.9618 0.14444 0.0
N333 N 0.66823 0.9121 0.15482 0.0
C334 C 0.68082 0.93332 0.13629 0.0
H335 H 0.63869 0.91815 0.19368 0.0
Co336 Co 0.67511 0.87023 0.15546 0.0
C337 C 0.68217 0.85145 0.09221 0.0
O338 O 0.66428 0.82849 0.09939 0.0
N339 N 0.68417 0.82767 0.15626 0.0
C340 C 0.68607 0.77682 0.1555 0.0
C341 C 0.6683 0.8019 0.16242 0.0
C342 C 0.71183 0.81734 0.14678 0.0
N343 N 0.71337 0.78673 0.14556 0.0
O344 O 0.7149 0.87733 0.17185 0.0
H345 H 0.64494 0.80079 0.17001 0.0
H346 H 0.72993 0.83209 0.1387 0.0
O347 O 0.68905 0.87147 0.11238 0.0
C348 C 0.71 0.87786 0.20059 0.0
O349 O 0.68173 0.87508 0.21022 0.0
N350 N 0.634 0.86429 0.14372 0.0
C351 C 0.57048 0.86376 0.13749 0.0
C352 C 0.58893 0.87687 0.11488 0.0
C353 C 0.6207 0.87719 0.11857 0.0
C354 C 0.61611 0.85306 0.16656 0.0
C355 C 0.58442 0.85172 0.16356 0.0
H356 H 0.63436 0.88918 0.10195 0.0
H357 H 0.62643 0.84615 0.18786 0.0
H358 H 0.6963 0.92821 0.11775 0.0
H359 H 0.64392 0.97745 0.18116 0.0
H360 H 0.67913 0.75315 0.15675 0.0
H361 H 0.57883 0.8873 0.09489 0.0
H362 H 0.57082 0.84255 0.18206 0.0
C363 C 0.07583 0.64489 0.18743 0.0
C364 C 0.04452 0.64633 0.18729 0.0
N365 N 0.03586 0.66551 0.16491 0.0
N366 N 0.08684 0.66301 0.16519 0.0
C367 C 0.06191 0.6753 0.15171 0.0
H368 H 0.0898 0.6323 0.20341 0.0
Co369 Co 0.12797 0.67144 0.16034 0.0
C370 C 0.13922 0.68066 0.09544 0.0
O371 O 0.16415 0.66455 0.09955 0.0
N372 N 0.17009 0.68155 0.15631 0.0
C373 C 0.22084 0.68423 0.15457 0.0
C374 C 0.19623 0.66579 0.16098 0.0
C375 C 0.17974 0.70972 0.1477 0.0
N376 N 0.21033 0.71178 0.14609 0.0
O377 O 0.12112 0.71105 0.17687 0.0
H378 H 0.19793 0.64243 0.16838 0.0
H379 H 0.16451 0.72826 0.14184 0.0
O380 O 0.12092 0.68529 0.11783 0.0
C381 C 0.12948 0.70915 0.20467 0.0
O382 O 0.13997 0.68302 0.21495 0.0
N383 N 0.13391 0.63059 0.148 0.0
C384 C 0.13384 0.56692 0.14213 0.0
C385 C 0.11957 0.58545 0.12024 0.0
C386 C 0.11954 0.61719 0.1238 0.0
C387 C 0.1467 0.61281 0.17006 0.0
C388 C 0.14771 0.58113 0.1672 0.0
H389 H 0.10616 0.63062 0.10822 0.0
H390 H 0.15503 0.62323 0.1908 0.0
H391 H 0.06281 0.69219 0.13372 0.0
H392 H 0.02924 0.63479 0.20291 0.0
H393 H 0.24467 0.67795 0.15635 0.0
H394 H 0.10708 0.57553 0.1014 0.0
H395 H 0.15848 0.56785 0.18503 0.0
C396 C 0.36527 0.93035 0.83873 0.0
C397 C 0.36194 0.96128 0.84155 0.0
N398 N 0.33618 0.96677 0.85728 0.0
N399 N 0.34173 0.91628 0.85274 0.0
C400 C 0.32421 0.93918 0.86386 0.0
H401 H 0.38277 0.91899 0.82562 0.0
Co402 Co 0.33333 0.87478 0.84952 0.0
C403 C 0.32424 0.85156 0.91133 0.0
O404 O 0.34029 0.82796 0.90217 0.0
N405 N 0.32343 0.83294 0.84532 0.0
C406 C 0.32114 0.78258 0.83937 0.0
C407 C 0.33913 0.80809 0.83596 0.0
C408 C 0.29571 0.8218 0.85336 0.0
N409 N 0.29375 0.79129 0.85032 0.0
O410 O 0.29373 0.88401 0.83353 0.0
H411 H 0.36245 0.80778 0.82819 0.0
H412 H 0.27752 0.83584 0.86242 0.0
O413 O 0.31904 0.87367 0.89276 0.0
C414 C 0.29799 0.88825 0.80502 0.0
O415 O 0.3262 0.88831 0.7948 0.0
N416 N 0.37395 0.86653 0.86126 0.0
C417 C 0.43724 0.86463 0.86778 0.0
C418 C 0.4187 0.87359 0.89221 0.0
C419 C 0.38708 0.87521 0.88822 0.0
C420 C 0.39192 0.85841 0.83719 0.0
C421 C 0.42356 0.85698 0.84002 0.0
H422 H 0.37359 0.8852 0.90621 0.0
H423 H 0.38168 0.85472 0.81505 0.0
H424 H 0.30221 0.93576 0.87458 0.0
H425 H 0.37641 0.97856 0.8314 0.0
H426 H 0.32836 0.7593 0.83548 0.0
H427 H 0.42868 0.88086 0.9136 0.0
H428 H 0.43728 0.85079 0.82041 0.0
C429 C 0.06337 0.36888 0.85342 0.0
C430 C 0.03343 0.36554 0.86196 0.0
N431 N 0.02939 0.33674 0.87167 0.0
N432 N 0.07834 0.34233 0.85808 0.0
C433 C 0.05679 0.32304 0.8689 0.0
H434 H 0.07311 0.38915 0.84334 0.0
Co435 Co 0.11913 0.33306 0.84933 0.0
C436 C 0.14873 0.32531 0.90886 0.0
O437 O 0.17219 0.33985 0.8971 0.0
N438 N 0.15972 0.32209 0.84033 0.0
C439 C 0.2069 0.31437 0.82305 0.0
C440 C 0.1823 0.33407 0.82304 0.0
C441 C 0.17105 0.29502 0.84988 0.0
N442 N 0.19955 0.28982 0.83999 0.0
O443 O 0.10803 0.29278 0.83629 0.0
H444 H 0.18134 0.35545 0.81092 0.0
H445 H 0.15848 0.27922 0.8641 0.0
O446 O 0.12492 0.32061 0.89248 0.0
C447 C 0.1012 0.29495 0.80807 0.0
O448 O 0.09465 0.32224 0.79747 0.0
N449 N 0.12985 0.37383 0.85804 0.0
C450 C 0.13491 0.43721 0.86056 0.0
C451 C 0.12929 0.42032 0.88712 0.0
C452 C 0.12609 0.38862 0.88528 0.0
C453 C 0.13517 0.39011 0.83208 0.0
C454 C 0.1382 0.42175 0.83286 0.0
H455 H 0.11855 0.37652 0.90534 0.0
H456 H 0.1351 0.37863 0.81027 0.0
H457 H 0.06077 0.2991 0.87347 0.0
H458 H 0.01548 0.38229 0.85923 0.0
H459 H 0.22864 0.31816 0.81196 0.0
H460 H 0.12571 0.43169 0.90876 0.0
H461 H 0.14212 0.4341 0.81181 0.0
C462 C 0.63203 0.07195 0.85346 0.0
C463 C 0.6364 0.04201 0.86143 0.0
N464 N 0.66554 0.03857 0.87024 0.0
N465 N 0.65829 0.08757 0.85757 0.0
C466 C 0.67853 0.06634 0.86728 0.0
H467 H 0.61116 0.08132 0.84432 0.0
Co468 Co 0.66511 0.12902 0.84971 0.0
C469 C 0.67674 0.15768 0.90897 0.0
O470 O 0.65941 0.18009 0.89914 0.0
N471 N 0.67351 0.17048 0.84134 0.0
C472 C 0.67546 0.22007 0.83065 0.0
C473 C 0.6578 0.19406 0.82916 0.0
C474 C 0.70091 0.18263 0.84874 0.0
N475 N 0.70256 0.21272 0.84316 0.0
O476 O 0.70441 0.11996 0.8327 0.0
H477 H 0.63478 0.19314 0.82056 0.0
H478 H 0.71856 0.16988 0.86035 0.0
O479 O 0.68135 0.13432 0.89183 0.0
C480 C 0.70018 0.1181 0.80393 0.0
O481 O 0.67189 0.11606 0.79419 0.0
N482 N 0.62491 0.13756 0.86275 0.0
C483 C 0.56208 0.13992 0.87224 0.0
C484 C 0.5818 0.13365 0.89652 0.0
C485 C 0.61321 0.13174 0.89114 0.0
C486 C 0.60578 0.14338 0.83894 0.0
C487 C 0.57431 0.14499 0.84322 0.0
H488 H 0.62764 0.12369 0.90937 0.0
H489 H 0.61491 0.14497 0.81608 0.0
H490 H 0.7025 0.07089 0.8711 0.0
H491 H 0.61999 0.02369 0.85907 0.0
H492 H 0.66856 0.24279 0.82387 0.0
H493 H 0.57288 0.1286 0.91901 0.0
H494 H 0.55957 0.14917 0.82383 0.0
C495 C 0.93575 0.63512 0.83449 0.0
C496 C 0.96638 0.63762 0.84056 0.0
N497 N 0.9713 0.66493 0.85356 0.0
N498 N 0.92147 0.66079 0.84377 0.0
C499 C 0.9439 0.67872 0.85497 0.0
H500 H 0.92489 0.61621 0.82302 0.0
Co501 Co 0.88046 0.67079 0.83962 0.0
C502 C 0.85936 0.68361 0.90249 0.0
O503 O 0.8329 0.67152 0.89525 0.0
N504 N 0.83941 0.68227 0.83493 0.0
C505 C 0.79114 0.68927 0.82074 0.0
C506 C 0.81559 0.66949 0.82009 0.0
C507 C 0.82892 0.70994 0.84376 0.0
N508 N 0.79976 0.71465 0.83566 0.0
O509 O 0.89119 0.71007 0.82376 0.0
H510 H 0.8157 0.6476 0.8089 0.0
H511 H 0.84259 0.72657 0.85584 0.0
O512 O 0.88051 0.68531 0.88234 0.0
C513 C 0.89561 0.70694 0.79515 0.0
O514 O 0.8975 0.67909 0.7842 0.0
N515 N 0.87006 0.6307 0.8515 0.0
C516 C 0.86519 0.56753 0.85797 0.0
C517 C 0.87292 0.58583 0.88297 0.0
C518 C 0.87593 0.61737 0.87912 0.0
C519 C 0.86271 0.61302 0.82701 0.0
C520 C 0.85991 0.58145 0.82976 0.0
H521 H 0.88498 0.63038 0.89782 0.0
H522 H 0.86111 0.62327 0.80464 0.0
H523 H 0.94041 0.70186 0.86287 0.0
H524 H 0.98398 0.62141 0.83439 0.0
H525 H 0.76871 0.68519 0.81125 0.0
H526 H 0.87829 0.57566 0.90485 0.0
H527 H 0.85461 0.56794 0.80976 0.0
C528 C 0.17731 0.36278 0.07654 0.0
C529 C 0.17658 0.36163 0.04526 0.0
N530 N 0.15759 0.339 0.03699 0.0
N531 N 0.15884 0.34095 0.08788 0.0
C532 C 0.14706 0.32674 0.06317 0.0
H533 H 0.19143 0.37771 0.09017 0.0
Co534 Co 0.15617 0.33096 0.1289 0.0
C535 C 0.09168 0.31846 0.14179 0.0
O536 O 0.09591 0.3332 0.16751 0.0
N537 N 0.15436 0.31955 0.17058 0.0
C538 C 0.15363 0.31619 0.22126 0.0
C539 C 0.15974 0.33488 0.19682 0.0
C540 C 0.146 0.29125 0.17995 0.0
N541 N 0.14474 0.28888 0.21052 0.0
O542 O 0.17443 0.29211 0.12034 0.0
H543 H 0.16708 0.35823 0.19876 0.0
H544 H 0.13949 0.27306 0.16457 0.0
O545 O 0.11385 0.31559 0.12284 0.0
C546 C 0.20304 0.29731 0.12249 0.0
O547 O 0.21177 0.32519 0.12923 0.0
N548 N 0.14231 0.37104 0.13671 0.0
C549 C 0.13434 0.43417 0.13918 0.0
C550 C 0.11217 0.41562 0.12562 0.0
C551 C 0.11675 0.38402 0.12431 0.0
C552 C 0.1645 0.38918 0.14881 0.0
C553 C 0.16063 0.42067 0.15107 0.0
H554 H 0.10073 0.37049 0.11155 0.0
H555 H 0.18612 0.37928 0.15537 0.0
H556 H 0.13248 0.30684 0.06431 0.0
H557 H 0.18982 0.37556 0.02972 0.0
H558 H 0.15544 0.32224 0.24513 0.0
H559 H 0.09209 0.42557 0.11521 0.0
H560 H 0.17872 0.43453 0.16062 0.0
C561 C 0.15593 0.63607 0.9357 0.0
C562 C 0.14685 0.63846 0.96558 0.0
N563 N 0.13622 0.66685 0.97012 0.0
N564 N 0.15082 0.66286 0.92133 0.0
C565 C 0.13927 0.68137 0.94318 0.0
H566 H 0.1662 0.61616 0.92544 0.0
Co567 Co 0.15802 0.6727 0.88045 0.0
C568 C 0.09749 0.68587 0.85455 0.0
O569 O 0.1068 0.6733 0.82899 0.0
N570 N 0.16532 0.68409 0.83952 0.0
C571 C 0.17759 0.68959 0.79049 0.0
C572 C 0.17734 0.66979 0.81495 0.0
C573 C 0.15879 0.71252 0.82929 0.0
N574 N 0.16584 0.71639 0.79974 0.0
O575 O 0.1733 0.71193 0.89195 0.0
H576 H 0.18542 0.64657 0.8143 0.0
H577 H 0.14831 0.73004 0.84318 0.0
O578 O 0.1156 0.68736 0.87744 0.0
C579 C 0.20195 0.7088 0.89593 0.0
O580 O 0.21254 0.68106 0.9001 0.0
N581 N 0.1468 0.63274 0.86934 0.0
C582 C 0.14087 0.56965 0.86339 0.0
C583 C 0.11535 0.58783 0.86987 0.0
C584 C 0.11889 0.61935 0.87334 0.0
C585 C 0.17179 0.61522 0.86329 0.0
C586 C 0.16932 0.58371 0.85992 0.0
H587 H 0.09963 0.63235 0.88131 0.0
H588 H 0.19414 0.62568 0.86268 0.0
H589 H 0.13385 0.7052 0.93961 0.0
H590 H 0.14937 0.62123 0.98311 0.0
H591 H 0.18503 0.68442 0.76752 0.0
H592 H 0.09322 0.57758 0.8739 0.0
H593 H 0.18965 0.57035 0.85551 0.0
C594 C 0.33511 0.18271 0.93989 0.0
C595 C 0.33253 0.17623 0.97048 0.0
N596 N 0.32298 0.1472 0.97329 0.0
N597 N 0.32698 0.15794 0.92362 0.0
C598 C 0.3197 0.1366 0.94462 0.0
H599 H 0.34228 0.20418 0.93008 0.0
Co600 Co 0.32517 0.15716 0.88149 0.0
C601 C 0.32267 0.09337 0.86197 0.0
O602 O 0.34252 0.10149 0.841 0.0
N603 N 0.32193 0.15725 0.83842 0.0
C604 C 0.32495 0.16137 0.78783 0.0
C605 C 0.33993 0.16646 0.81507 0.0
C606 C 0.29615 0.14727 0.82467 0.0
N607 N 0.29743 0.14931 0.79418 0.0
O608 O 0.28379 0.17098 0.88306 0.0
H609 H 0.36231 0.17642 0.81723 0.0
H610 H 0.27673 0.13807 0.83687 0.0
O611 O 0.31324 0.1131 0.88152 0.0
C612 C 0.28544 0.1996 0.87791 0.0
O613 O 0.31253 0.21227 0.87587 0.0
N614 N 0.36694 0.14763 0.88075 0.0
C615 C 0.43031 0.143 0.88252 0.0
C616 C 0.41201 0.11872 0.89247 0.0
C617 C 0.38025 0.12185 0.89226 0.0
C618 C 0.38453 0.17206 0.87303 0.0
C619 C 0.41627 0.17014 0.87332 0.0
H620 H 0.36657 0.10379 0.90194 0.0
H621 H 0.37376 0.19337 0.86682 0.0
H622 H 0.31154 0.114 0.93919 0.0
H623 H 0.33758 0.19147 0.98924 0.0
H624 H 0.33333 0.16675 0.76523 0.0
H625 H 0.4222 0.09787 0.90097 0.0
H626 H 0.42972 0.18964 0.86624 0.0
C627 C 0.82193 0.36566 0.92763 0.0
C628 C 0.82331 0.36401 0.95888 0.0
N629 N 0.8412 0.34025 0.96647 0.0
N630 N 0.83877 0.3429 0.91559 0.0
C631 C 0.85025 0.3277 0.93989 0.0
H632 H 0.80832 0.38155 0.91456 0.0
Co633 Co 0.84057 0.33252 0.87452 0.0
C634 C 0.90475 0.31825 0.86135 0.0
O635 O 0.90097 0.33151 0.83476 0.0
N636 N 0.84189 0.32056 0.83301 0.0
C637 C 0.84494 0.31631 0.78244 0.0
C638 C 0.83834 0.3357 0.80633 0.0
C639 C 0.84954 0.29182 0.82447 0.0
N640 N 0.85201 0.28883 0.79409 0.0
O641 O 0.82248 0.29405 0.88341 0.0
H642 H 0.83269 0.35952 0.80393 0.0
H643 H 0.85556 0.27391 0.84037 0.0
O644 O 0.8826 0.31717 0.88043 0.0
C645 C 0.79382 0.29904 0.88189 0.0
O646 O 0.78462 0.32751 0.87986 0.0
N647 N 0.85428 0.37223 0.86584 0.0
C648 C 0.86104 0.43534 0.8626 0.0
C649 C 0.88483 0.41711 0.87364 0.0
C650 C 0.8807 0.3855 0.87581 0.0
C651 C 0.83106 0.38989 0.85505 0.0
C652 C 0.83402 0.42146 0.85299 0.0
H653 H 0.89793 0.37228 0.88726 0.0
H654 H 0.80943 0.37944 0.84942 0.0
H655 H 0.8634 0.30687 0.93818 0.0
H656 H 0.81111 0.37835 0.97488 0.0
H657 H 0.84543 0.32216 0.75845 0.0
H658 H 0.90566 0.42736 0.88208 0.0
H659 H 0.815 0.43501 0.84489 0.0
C660 C 0.65243 0.82113 0.92663 0.0
C661 C 0.65579 0.82121 0.95768 0.0
N662 N 0.67468 0.84419 0.96523 0.0
N663 N 0.66908 0.84399 0.91459 0.0
C664 C 0.68249 0.8578 0.93872 0.0
H665 H 0.63965 0.80464 0.91351 0.0
Co666 Co 0.67423 0.84838 0.87299 0.0
C667 C 0.68315 0.91372 0.85996 0.0
O668 O 0.66745 0.90953 0.83481 0.0
N669 N 0.68044 0.85145 0.83049 0.0
C670 C 0.67869 0.84948 0.77979 0.0
C671 C 0.66268 0.84427 0.80633 0.0
C672 C 0.70725 0.86031 0.81791 0.0
N673 N 0.70665 0.85969 0.78727 0.0
O674 O 0.71503 0.83353 0.87651 0.0
H675 H 0.63976 0.83542 0.80742 0.0
H676 H 0.72683 0.86765 0.83104 0.0
O677 O 0.68734 0.89141 0.87845 0.0
C678 C 0.71326 0.80513 0.87052 0.0
O679 O 0.68613 0.793 0.86658 0.0
N680 N 0.63279 0.85927 0.86981 0.0
C681 C 0.56938 0.86354 0.87109 0.0
C682 C 0.5874 0.88831 0.88008 0.0
C683 C 0.6192 0.88542 0.88007 0.0
C684 C 0.61533 0.83489 0.86158 0.0
C685 C 0.58359 0.83657 0.86183 0.0
H686 H 0.63247 0.90371 0.88956 0.0
H687 H 0.62623 0.81358 0.85558 0.0
H688 H 0.69878 0.87627 0.93684 0.0
H689 H 0.64582 0.8051 0.97355 0.0
H690 H 0.67063 0.84539 0.75682 0.0
H691 H 0.57696 0.90919 0.8882 0.0
H692 H 0.57025 0.81685 0.85522 0.0
C693 C 0.85387 0.63106 0.0641 0.0
C694 C 0.86125 0.63429 0.03385 0.0
N695 N 0.86896 0.66352 0.02891 0.0
N696 N 0.85718 0.65816 0.07845 0.0
C697 C 0.86601 0.67763 0.05611 0.0
H698 H 0.84531 0.61038 0.07441 0.0
Co699 Co 0.84831 0.66772 0.11941 0.0
C700 C 0.90757 0.67581 0.14969 0.0
O701 O 0.89541 0.66138 0.173 0.0
N702 N 0.83907 0.67902 0.15992 0.0
C703 C 0.82225 0.68632 0.20732 0.0
C704 C 0.82253 0.66656 0.18279 0.0
C705 C 0.84787 0.70647 0.17102 0.0
N706 N 0.83824 0.71142 0.19968 0.0
O707 O 0.83509 0.70799 0.10796 0.0
H708 H 0.81127 0.6447 0.18215 0.0
H709 H 0.86144 0.72266 0.15821 0.0
O710 O 0.89162 0.68031 0.12551 0.0
C711 C 0.80677 0.70579 0.10139 0.0
O712 O 0.79572 0.67831 0.0967 0.0
N713 N 0.85709 0.62686 0.13058 0.0
C714 C 0.86006 0.56351 0.13757 0.0
C715 C 0.88653 0.58051 0.13171 0.0
C716 C 0.88449 0.61213 0.1276 0.0
C717 C 0.83116 0.61045 0.13576 0.0
C718 C 0.83213 0.57886 0.1396 0.0
H719 H 0.9046 0.6242 0.12013 0.0
H720 H 0.80926 0.6218 0.1352 0.0
H721 H 0.86896 0.70192 0.05935 0.0
H722 H 0.85906 0.61702 0.01632 0.0
H723 H 0.81176 0.68213 0.22928 0.0
H724 H 0.90834 0.56925 0.12869 0.0
H725 H 0.81109 0.56644 0.14335 0.0
C726 C 0.35787 0.82337 0.07966 0.0
C727 C 0.3554 0.82212 0.04844 0.0
N728 N 0.33532 0.84359 0.03948 0.0
N729 N 0.33923 0.84538 0.0903 0.0
C730 C 0.32579 0.85742 0.06526 0.0
H731 H 0.37177 0.80872 0.09383 0.0
Co732 Co 0.33213 0.85362 0.13131 0.0
C733 C 0.29909 0.91158 0.13024 0.0
O734 O 0.2751 0.89809 0.14211 0.0
N735 N 0.3242 0.86281 0.17277 0.0
C736 C 0.32033 0.89125 0.21468 0.0
C737 C 0.3372 0.8857 0.18884 0.0
C738 C 0.29965 0.85462 0.18972 0.0
N739 N 0.29639 0.87206 0.21487 0.0
O740 O 0.29107 0.83864 0.1264 0.0
H741 H 0.35614 0.89945 0.18101 0.0
H742 H 0.28337 0.83743 0.18302 0.0
O743 O 0.32192 0.89554 0.12194 0.0
C744 C 0.29425 0.80971 0.12842 0.0
O745 O 0.32161 0.7988 0.13405 0.0
N746 N 0.3735 0.86413 0.13585 0.0
C747 C 0.43729 0.86631 0.13676 0.0
C748 C 0.42051 0.88559 0.11739 0.0
C749 C 0.38855 0.88408 0.11721 0.0
C750 C 0.38936 0.84598 0.15547 0.0
C751 C 0.42116 0.84716 0.15675 0.0
H752 H 0.37608 0.89739 0.10067 0.0
H753 H 0.37726 0.82966 0.1695 0.0
H754 H 0.30853 0.87507 0.06596 0.0
H755 H 0.36712 0.80639 0.03343 0.0
H756 H 0.32411 0.90951 0.23087 0.0
H757 H 0.43197 0.90059 0.10145 0.0
H758 H 0.433 0.83253 0.17274 0.0
C759 C 0.64422 0.17321 0.07786 0.0
C760 C 0.64743 0.179 0.04722 0.0
N761 N 0.67292 0.16495 0.03748 0.0
N762 N 0.66736 0.1552 0.08725 0.0
C763 C 0.68489 0.15115 0.06217 0.0
H764 H 0.62603 0.18144 0.09238 0.0
Co765 Co 0.67365 0.14202 0.1273 0.0
C766 C 0.6893 0.08099 0.09424 0.0
O767 O 0.68133 0.08701 0.06601 0.0
N768 N 0.6807 0.12811 0.16753 0.0
C769 C 0.6825 0.09516 0.20611 0.0
C770 C 0.66705 0.10356 0.18027 0.0
C771 C 0.7045 0.13411 0.18634 0.0
N772 N 0.70628 0.11425 0.2099 0.0
O773 O 0.71415 0.15894 0.12576 0.0
H774 H 0.64871 0.09064 0.17005 0.0
H775 H 0.72131 0.15162 0.1821 0.0
O776 O 0.68649 0.10134 0.11487 0.0
C777 C 0.70896 0.1871 0.13157 0.0
O778 O 0.68069 0.19536 0.13736 0.0
N779 N 0.6326 0.12972 0.12955 0.0
C780 C 0.56931 0.12331 0.13267 0.0
C781 C 0.58645 0.10609 0.11181 0.0
C782 C 0.61818 0.10967 0.11055 0.0
C783 C 0.61622 0.14667 0.14983 0.0
C784 C 0.58463 0.14369 0.15193 0.0
H785 H 0.63072 0.0974 0.0934 0.0
H786 H 0.62778 0.16332 0.1639 0.0
H787 H 0.70611 0.13853 0.06198 0.0
H788 H 0.63186 0.19182 0.03295 0.0
H789 H 0.67805 0.07478 0.21929 0.0
H790 H 0.57535 0.09042 0.09627 0.0
H791 H 0.57218 0.15805 0.16773 0.0
C792 C 0.11136 0.14322 0.51892 0.0
C793 C 0.13827 0.13613 0.53501 0.0
C794 C 0.11002 0.1407 0.48701 0.0
C795 C 0.13556 0.13116 0.47011 0.0
H796 H 0.09144 0.1515 0.53099 0.0
H797 H 0.08917 0.14715 0.47539 0.0
S798 S 0.21013 0.10644 0.50111 0.0
N799 N 0.19006 0.11618 0.53148 0.0
N800 N 0.18766 0.11262 0.47153 0.0
C801 C 0.16222 0.12313 0.48582 0.0
C802 C 0.16354 0.12532 0.51826 0.0
C803 C 0.88155 0.14869 0.48949 0.0
C804 C 0.8562 0.13743 0.47339 0.0
C805 C 0.88199 0.14921 0.52149 0.0
C806 C 0.85705 0.13857 0.53887 0.0
H807 H 0.9011 0.15763 0.47727 0.0
H808 H 0.90215 0.15804 0.53271 0.0
S809 S 0.7856 0.10538 0.50783 0.0
N810 N 0.80615 0.11363 0.47735 0.0
N811 N 0.80637 0.11605 0.53735 0.0
C812 C 0.83171 0.12682 0.52307 0.0
C813 C 0.83139 0.12599 0.49043 0.0
C814 C 0.895 0.8376 0.48367 0.0
C815 C 0.88399 0.86132 0.46498 0.0
C816 C 0.89293 0.83937 0.51558 0.0
C817 C 0.87936 0.8647 0.52978 0.0
H818 H 0.90495 0.81738 0.47352 0.0
H819 H 0.90096 0.82034 0.52917 0.0
S820 S 0.84821 0.93332 0.4913 0.0
N821 N 0.86003 0.91129 0.46311 0.0
N822 N 0.85609 0.91456 0.52301 0.0
C823 C 0.86905 0.88889 0.51141 0.0
C824 C 0.8714 0.88723 0.47902 0.0
C825 C 0.15301 0.87803 0.52308 0.0
C826 C 0.12528 0.87582 0.53893 0.0
C827 C 0.15368 0.87921 0.49119 0.0
C828 C 0.12666 0.87766 0.47382 0.0
H829 H 0.17439 0.87856 0.53548 0.0
H830 H 0.17568 0.88099 0.48004 0.0
S831 S 0.04806 0.87147 0.50485 0.0
N832 N 0.0701 0.8726 0.53539 0.0
N833 N 0.07126 0.87386 0.47521 0.0
C834 C 0.09866 0.876 0.48952 0.0
C835 C 0.09801 0.87523 0.52213 0.0
C836 C 0.48653 0.12612 0.10669 0.0
C837 C 0.47029 0.12391 0.13431 0.0
C838 C 0.51857 0.12502 0.1062 0.0
C839 C 0.53546 0.12159 0.13329 0.0
H840 H 0.47441 0.12947 0.08542 0.0
H841 H 0.53021 0.12778 0.08456 0.0
S842 S 0.50368 0.11072 0.21096 0.0
N843 N 0.47341 0.11528 0.18902 0.0
N844 N 0.5335 0.1133 0.18806 0.0
C845 C 0.51944 0.11819 0.16086 0.0
C846 C 0.48691 0.11932 0.16138 0.0
C847 C 0.84208 0.5121 0.12023 0.0
C848 C 0.86103 0.52968 0.1393 0.0
C849 C 0.84254 0.48009 0.12133 0.0
C850 C 0.86158 0.46455 0.14192 0.0
H851 H 0.82698 0.5232 0.10411 0.0
H852 H 0.82765 0.46742 0.10623 0.0
S853 S 0.91574 0.49988 0.19646 0.0
N854 N 0.89957 0.52916 0.17907 0.0
N855 N 0.90026 0.46902 0.18138 0.0
C856 C 0.88066 0.48183 0.16107 0.0
C857 C 0.88047 0.51438 0.15966 0.0
C858 C 0.52066 0.89176 0.13361 0.0
C859 C 0.53671 0.86401 0.13504 0.0
C860 C 0.48856 0.89238 0.13386 0.0
C861 C 0.47136 0.86524 0.13536 0.0
H862 H 0.53302 0.91317 0.13317 0.0
H863 H 0.47717 0.91431 0.1336 0.0
S864 S 0.50299 0.78654 0.13557 0.0
N865 N 0.53337 0.80881 0.13586 0.0
N866 N 0.47325 0.80969 0.13521 0.0
C867 C 0.48735 0.8373 0.13553 0.0
C868 C 0.51994 0.83677 0.13566 0.0
C869 C 0.12629 0.48365 0.16606 0.0
C870 C 0.13165 0.46777 0.13882 0.0
C871 C 0.12644 0.51564 0.16672 0.0
C872 C 0.13251 0.53294 0.14025 0.0
H873 H 0.12222 0.47122 0.18704 0.0
H874 H 0.12186 0.52687 0.18824 0.0
S875 S 0.1491 0.50149 0.06335 0.0
N876 N 0.14329 0.47108 0.08484 0.0
N877 N 0.14463 0.53123 0.08606 0.0
C878 C 0.13777 0.5171 0.11278 0.0
C879 C 0.13717 0.48451 0.1121 0.0
C880 C 0.48805 0.88354 0.85017 0.0
C881 C 0.47087 0.86534 0.87032 0.0
C882 C 0.52003 0.88367 0.85124 0.0
C883 C 0.53578 0.86523 0.87215 0.0
H884 H 0.47664 0.89764 0.83338 0.0
H885 H 0.53253 0.89764 0.83511 0.0
S886 S 0.50153 0.81403 0.93007 0.0
N887 N 0.47193 0.82911 0.91225 0.0
N888 N 0.53215 0.82888 0.91381 0.0
C889 C 0.51893 0.84726 0.89264 0.0
C890 C 0.4864 0.84747 0.89188 0.0
C891 C 0.15614 0.48615 0.8807 0.0
C892 C 0.13559 0.47097 0.86139 0.0
C893 C 0.15773 0.5181 0.88112 0.0
C894 C 0.13848 0.53594 0.86259 0.0
H895 H 0.17141 0.47322 0.89522 0.0
H896 H 0.17401 0.52895 0.89621 0.0
S897 S 0.07986 0.50712 0.80896 0.0
N898 N 0.09502 0.47602 0.82392 0.0
N899 N 0.09793 0.53612 0.82485 0.0
C900 C 0.11746 0.52103 0.8436 0.0
C901 C 0.11607 0.48852 0.84292 0.0
C902 C 0.4822 0.16192 0.89696 0.0
C903 C 0.46395 0.14036 0.88171 0.0
C904 C 0.51412 0.16111 0.89463 0.0
C905 C 0.52868 0.13908 0.87649 0.0
H906 H 0.47167 0.17968 0.91056 0.0
H907 H 0.52746 0.1783 0.90636 0.0
S908 S 0.49138 0.07724 0.83261 0.0
N909 N 0.46281 0.09594 0.84859 0.0
N910 N 0.52282 0.09474 0.84383 0.0
C911 C 0.51077 0.11713 0.86156 0.0
C912 C 0.47836 0.11767 0.86429 0.0
C913 C 0.88322 0.51607 0.84112 0.0
C914 C 0.86479 0.53384 0.86055 0.0
C915 C 0.88264 0.48409 0.8425 0.0
C916 C 0.86326 0.46894 0.86301 0.0
H917 H 0.89816 0.527 0.82473 0.0
H918 H 0.89688 0.47113 0.82699 0.0
S919 S 0.81097 0.50479 0.91896 0.0
N920 N 0.82719 0.53389 0.9013 0.0
N921 N 0.82571 0.47374 0.90348 0.0
C922 C 0.84499 0.48637 0.88274 0.0
C923 C 0.84589 0.51887 0.88165 0.0
C924 C 0.16421 0.0173 0.30575 0.0
C925 C 0.14477 0.99973 0.3241 0.0
C926 C 0.15513 0.04608 0.29526 0.0
C927 C 0.12676 0.05862 0.30361 0.0
H928 H 0.18663 0.00877 0.29979 0.0
H929 H 0.1711 0.05933 0.28196 0.0
S930 S 0.06713 0.02061 0.34999 0.0
N931 N 0.09528 0.99553 0.34852 0.0
N932 N 0.07878 0.05056 0.33024 0.0
C933 C 0.10683 0.04082 0.32131 0.0
C934 C 0.11572 0.01111 0.33121 0.0
C935 C 0.95704 0.12535 0.32814 0.0
C936 C 0.93878 0.15113 0.32237 0.0
C937 C 0.98893 0.12823 0.33129 0.0
C938 C 0.00315 0.15692 0.3288 0.0
H939 H 0.94652 0.10343 0.3326 0.0
H940 H 0.00223 0.10845 0.33777 0.0
S941 S 0.96625 0.22996 0.30814 0.0
N942 N 0.93787 0.20527 0.31016 0.0
N943 N 0.99746 0.21035 0.31593 0.0
C944 C 0.98545 0.18211 0.32038 0.0
C945 C 0.9533 0.17928 0.31715 0.0
C946 C 0.89517 0.9559 0.33139 0.0
C947 C 0.87097 0.94041 0.31711 0.0
C948 C 0.89336 0.98746 0.33699 0.0
C949 C 0.86765 0.00433 0.32792 0.0
H950 H 0.91406 0.94321 0.34101 0.0
H951 H 0.91099 0.99831 0.35046 0.0
S952 S 0.80018 0.97508 0.28661 0.0
N953 N 0.82196 0.94473 0.29172 0.0
N954 N 0.81911 0.00405 0.30158 0.0
C955 C 0.84478 0.9896 0.3112 0.0
C956 C 0.84637 0.95758 0.30588 0.0
C957 C 0.02078 0.84117 0.29023 0.0
C958 C 0.00249 0.85783 0.31057 0.0
C959 C 0.05067 0.85042 0.28364 0.0
C960 C 0.06354 0.87607 0.29799 0.0
H961 H 0.01216 0.82032 0.28017 0.0
H962 H 0.06439 0.83621 0.26882 0.0
S963 S 0.02379 0.92886 0.35086 0.0
N964 N 0.99804 0.9025 0.34285 0.0
N965 N 0.05471 0.91949 0.33138 0.0
C966 C 0.04482 0.89384 0.31709 0.0
C967 C 0.01415 0.88477 0.32321 0.0
C968 C 0.11585 0.9978 0.67278 0.0
C969 C 0.14241 0.01358 0.68138 0.0
C970 C 0.11343 0.96608 0.67718 0.0
C971 C 0.1377 0.94946 0.69002 0.0
H972 H 0.09809 0.00962 0.66031 0.0
H973 H 0.09399 0.9542 0.6676 0.0
S974 S 0.2103 0.9811 0.71947 0.0
N975 N 0.19174 0.01107 0.70606 0.0
N976 N 0.18752 0.95156 0.71409 0.0
C977 C 0.16305 0.96556 0.70115 0.0
C978 C 0.16539 0.99766 0.6968 0.0
C979 C 0.04937 0.11915 0.68428 0.0
C980 C 0.06176 0.1484 0.68827 0.0
C981 C 0.01778 0.11515 0.68103 0.0
C982 C 0.99756 0.14019 0.68182 0.0
H983 H 0.06421 0.09959 0.68135 0.0
H984 H 0.00922 0.09243 0.67652 0.0
S985 S 0.01871 0.22077 0.69682 0.0
N986 N 0.05147 0.20218 0.69698 0.0
N987 N 0.99224 0.19477 0.69036 0.0
C988 C 0.00959 0.16915 0.68848 0.0
C989 C 0.04169 0.1732 0.69182 0.0
C990 C 0.8324 0.02196 0.68105 0.0
C991 C 0.85296 0.99746 0.68255 0.0
C992 C 0.8411 0.05131 0.68996 0.0
C993 C 0.87083 0.05739 0.70054 0.0
H994 H 0.80965 0.01852 0.67206 0.0
H995 H 0.8247 0.06964 0.68741 0.0
S996 S 0.93291 1.00066 0.71018 0.0
N997 N 0.90393 0.98073 0.6967 0.0
N998 N 0.9204 0.03605 0.7135 0.0
C999 C 0.89117 0.03278 0.7037 0.0
C1000 C 0.88222 0.00276 0.69464 0.0
C1001 C 0.98029 0.85101 0.69026 0.0
C1002 C 0.0049 0.86935 0.68094 0.0
C1003 C 0.95035 0.86221 0.69022 0.0
C1004 C 0.94381 0.89208 0.6803 0.0
H1005 H 0.98414 0.82744 0.69659 0.0
H1006 H 0.93211 0.84661 0.69612 0.0
S1007 S 1.00073 0.95035 0.65696 0.0
N1008 N 0.02124 0.91959 0.66423 0.0
N1009 N 0.96496 0.94076 0.66394 0.0
C1010 C 0.96851 0.91129 0.6729 0.0
C1011 C 0.99906 0.89991 0.67325 0.0
C1012 C 0.30165 0.14503 0.02514 0.0
C1013 C 0.31789 0.13104 0.00133 0.0
C1014 C 0.29909 0.13104 0.05374 0.0
C1015 C 0.31284 0.10259 0.0596 0.0
H1016 H 0.29149 0.1673 0.02175 0.0
H1017 H 0.28725 0.14313 0.07177 0.0
S1018 S 0.35936 0.05754 0.00507 0.0
N1019 N 0.34843 0.08776 0.98538 0.0
N1020 N 0.34378 0.06125 0.03915 0.0
C1021 C 0.3285 0.08801 0.03564 0.0
C1022 C 0.33104 0.10232 0.00649 0.0
C1023 C 0.82032 0.31472 0.0448 0.0
C1024 C 0.8483 0.31642 0.06048 0.0
C1025 C 0.81852 0.32066 0.01354 0.0
C1026 C 0.84465 0.32811 0.99667 0.0
H1027 H 0.79926 0.3107 0.05715 0.0
H1028 H 0.79633 0.32098 0.00267 0.0
S1029 S 0.92388 0.33195 0.02562 0.0
N1030 N 0.90324 0.32336 0.05602 0.0
N1031 N 0.89966 0.33412 0.99679 0.0
C1032 C 0.87312 0.32738 0.01129 0.0
C1033 C 0.87502 0.32152 0.04337 0.0
C1034 C 0.6967 0.82535 0.01284 0.0
C1035 C 0.6858 0.84995 0.99547 0.0
C1036 C 0.69922 0.82749 0.04452 0.0
C1037 C 0.69091 0.85433 0.05994 0.0
H1038 H 0.70101 0.80356 0.00202 0.0
H1039 H 0.70519 0.80714 0.05726 0.0
S1040 S 0.66546 0.92665 0.02437 0.0
N1041 N 0.67019 0.90306 0.99531 0.0
N1042 N 0.675 0.90724 0.05527 0.0
C1043 C 0.68308 0.88015 0.04261 0.0
C1044 C 0.68047 0.8779 0.01016 0.0
C1045 C 0.15483 0.70044 0.04525 0.0
C1046 C 0.13146 0.68843 0.06373 0.0
C1047 C 0.15444 0.6965 0.01356 0.0
C1048 C 0.13092 0.68001 0.99952 0.0
H1049 H 0.17499 0.71032 0.05563 0.0
H1050 H 0.17411 0.70352 1.00034 0.0
S1051 S 0.06191 0.64878 0.03683 0.0
N1052 N 0.08178 0.66385 0.06509 0.0
N1053 N 0.08189 0.65516 0.00547 0.0
C1054 C 0.10598 0.67064 0.01725 0.0
C1055 C 0.10597 0.67532 0.04948 0.0
C1056 C 0.31608 0.82307 0.99126 0.0
C1057 C 0.32497 0.84833 0.00874 0.0
C1058 C 0.31227 0.82547 0.95971 0.0
C1059 C 0.31758 0.85317 0.94434 0.0
H1060 H 0.31375 0.80089 0.00192 0.0
H1061 H 0.30736 0.80488 0.94694 0.0
S1062 S 0.33754 0.92697 0.98042 0.0
N1063 N 0.33576 0.90265 0.00921 0.0
N1064 N 0.32901 0.90721 0.94946 0.0
C1065 C 0.32382 0.87929 0.96187 0.0
C1066 C 0.32752 0.87683 0.99425 0.0
C1067 C 0.12278 0.3274 0.95984 0.0
C1068 C 0.14871 0.32032 0.94218 0.0
C1069 C 0.12516 0.33129 0.99165 0.0
C1070 C 0.15344 0.3281 0.00643 0.0
H1071 H 0.10121 0.33234 0.94883 0.0
H1072 H 0.10541 0.33891 0.00441 0.0
S1073 S 0.22648 0.30429 0.97143 0.0
N1074 N 0.20236 0.30617 0.94256 0.0
N1075 N 0.20657 0.31358 0.00206 0.0
C1076 C 0.17869 0.31843 0.98943 0.0
C1077 C 0.17636 0.31446 0.95732 0.0
C1078 C 0.68111 0.13365 0.99154 0.0
C1079 C 0.6823 0.16214 0.00627 0.0
C1080 C 0.68252 0.13162 0.95952 0.0
C1081 C 0.68523 0.1581 0.94157 0.0
H1082 H 0.67663 0.11321 0.00468 0.0
H1083 H 0.67888 0.10965 0.94882 0.0
S1084 S 0.69531 0.23718 0.97001 0.0
N1085 N 0.69049 0.21649 0.00115 0.0
N1086 N 0.6939 0.21293 0.94121 0.0
C1087 C 0.68953 0.18624 0.95641 0.0
C1088 C 0.68777 0.18823 0.98876 0.0
C1089 C 0.84188 0.69514 0.95515 0.0
C1090 C 0.86604 0.68764 0.93533 0.0
C1091 C 0.84419 0.69018 0.98665 0.0
C1092 C 0.87058 0.67723 0.99928 0.0
H1093 H 0.82024 0.70286 0.94602 0.0
H1094 H 0.82435 0.69399 0.0009 0.0
S1095 S 0.9417 0.65742 0.9583 0.0
N1096 N 0.9187 0.67032 0.93137 0.0
N1097 N 0.9223 0.65983 0.99057 0.0
C1098 C 0.89572 0.67195 0.98024 0.0
C1099 C 0.8937 0.67761 0.94821 0.0
C1100 C 0.00916 0.30252 0.15589 0.0
C1101 C 0.99531 0.31754 0.13128 0.0
C1102 C 0.04095 0.29933 0.15728 0.0
C1103 C 0.05985 0.31072 0.13391 0.0
H1104 H 0.9956 0.29609 0.17553 0.0
H1105 H 0.05097 0.2904 0.17805 0.0
S1106 S 0.03384 0.34695 0.06214 0.0
N1107 N 0.00208 0.34055 0.08149 0.0
N1108 N 0.06193 0.33341 0.08335 0.0
C1109 C 0.04594 0.32247 0.10754 0.0
C1110 C 0.01355 0.3263 0.10648 0.0
C1111 C 0.01811 0.67155 0.88347 0.0
C1112 C 1.00065 0.67854 0.85757 0.0
C1113 C 0.04957 0.67766 0.8841 0.0
C1114 C 0.06436 0.69005 0.85839 0.0
H1115 H 0.00775 0.65948 0.90238 0.0
H1116 H 0.06272 0.66996 0.90355 0.0
S1117 S 0.02742 0.71596 0.7869 0.0
N1118 N 0.99922 0.70169 0.80746 0.0
N1119 N 0.05844 0.71247 0.80802 0.0
C1120 C 0.04649 0.69943 0.8335 0.0
C1121 C 0.01454 0.69372 0.83318 0.0
C1122 C 0.31251 0.04493 0.83548 0.0
C1123 C 0.31482 0.06065 0.86336 0.0
C1124 C 0.3164 0.01332 0.83402 0.0
C1125 C 0.32244 0.99628 0.8604 0.0
H1126 H 0.31037 0.05746 0.81426 0.0
H1127 H 0.3172 0.0024 0.81187 0.0
S1128 S 0.32497 0.02529 0.93944 0.0
N1129 N 0.31925 0.05612 0.91846 0.0
N1130 N 0.32626 0.99625 0.91547 0.0
C1131 C 0.32137 0.01103 0.88872 0.0
C1132 C 0.31753 0.04343 0.89029 0.0
C1133 C 0.94855 0.32775 0.8959 0.0
C1134 C 0.93638 0.31213 0.87069 0.0
C1135 C 0.98003 0.33341 0.89785 0.0
C1136 C 1.00013 0.32264 0.8753 0.0
H1137 H 0.93355 0.33853 0.91232 0.0
H1138 H 0.98845 0.34829 0.91566 0.0
S1139 S 0.98004 0.27561 0.80821 0.0
N1140 N 0.94705 0.28252 0.82512 0.0
N1141 N 0.0063 0.29217 0.82958 0.0
C1142 C 0.98859 0.30384 0.8522 0.0
C1143 C 0.9566 0.29872 0.84976 0.0
C1144 C 0.69503 0.99712 0.84763 0.0
C1145 C 0.68028 0.00955 0.87315 0.0
C1146 C 0.69953 0.96557 0.84518 0.0
C1147 C 0.68984 0.94559 0.8684 0.0
H1148 H 0.7001 0.01148 0.82817 0.0
H1149 H 0.70807 0.95652 0.82381 0.0
S1150 S 0.65535 0.96793 0.94224 0.0
N1151 N 0.65955 1.00044 0.92357 0.0
N1152 N 0.66933 0.9411 0.91975 0.0
C1153 C 0.67856 0.95821 0.89561 0.0
C1154 C 0.67332 0.9903 0.89774 0.0
C1155 C 0.99161 0.67014 0.13018 0.0
C1156 C 0.00508 0.6751 0.15888 0.0
C1157 C 0.95983 0.67327 0.12614 0.0
C1158 C 0.94084 0.68144 0.15077 0.0
H1159 H 0.0054 0.66179 0.11145 0.0
H1160 H 0.9499 0.66697 0.10442 0.0
S1161 S 0.96622 0.70244 0.2287 0.0
N1162 N 0.99792 0.69272 0.21077 0.0
N1163 N 0.93853 0.69844 0.20349 0.0
C1164 C 0.95463 0.68901 0.17871 0.0
C1165 C 0.98669 0.68585 0.18272 0.0
C1166 C 0.29691 0.98888 0.16924 0.0
C1167 C 0.32178 0.00391 0.15584 0.0
C1168 C 0.28825 0.9596 0.15942 0.0
C1169 C 0.30405 0.94465 0.13565 0.0
H1170 H 0.28487 0.99941 0.18808 0.0
H1171 H 0.27004 0.94811 0.17156 0.0
S1172 S 0.36759 0.97728 0.09008 0.0
N1173 N 0.35996 0.00368 0.11584 0.0
N1174 N 0.34336 0.94917 0.09666 0.0
C1175 C 0.32766 0.96061 0.12082 0.0
C1176 C 0.33663 0.99011 0.13112 0.0
C1177 C 0.67567 0.02585 0.08802 0.0
C1178 C 0.69127 0.04875 0.10438 0.0
C1179 C 0.67098 0.99678 0.10064 0.0
C1180 C 0.68159 0.98979 0.13 0.0
H1181 H 0.66537 0.0309 0.06614 0.0
H1182 H 0.65762 0.98019 0.08814 0.0
S1183 S 0.72924 0.03877 0.17939 0.0
N1184 N 0.72156 0.06037 0.14945 0.0
N1185 N 0.71188 0.00589 0.17325 0.0
C1186 C 0.69908 0.01146 0.1456 0.0
C1187 C 0.7042 0.0409 0.13272 0.0
C1188 C 0.13971 0.20954 0.24293 0.0
C1189 C 0.12149 0.2143 0.26894 0.0
C1190 C 0.14609 0.23375 0.22276 0.0
C1191 C 0.13448 0.26322 0.22822 0.0
H1192 H 0.15079 0.18775 0.23932 0.0
H1193 H 0.16161 0.22993 0.20391 0.0
S1194 S 0.08055 0.28544 0.28936 0.0
N1195 N 0.08834 0.24925 0.29635 0.0
N1196 N 0.10019 0.2944 0.25846 0.0
C1197 C 0.11415 0.26736 0.25255 0.0
C1198 C 0.10765 0.24293 0.2729 0.0
C1199 C 0.76083 0.11991 0.22463 0.0
C1200 C 0.73064 0.11133 0.23198 0.0
C1201 C 0.78463 0.11746 0.24608 0.0
C1202 C 0.77907 0.10626 0.27563 0.0
H1203 H 0.76615 0.12873 0.20218 0.0
H1204 H 0.80719 0.12542 0.23984 0.0
S1205 S 0.70454 0.07933 0.30596 0.0
N1206 N 0.69693 0.09081 0.27096 0.0
N1207 N 0.7415 0.08475 0.31047 0.0
C1208 C 0.74926 0.0965 0.2828 0.0
C1209 C 0.7251 0.09941 0.26123 0.0
C1210 C 0.88491 0.77255 0.23794 0.0
C1211 C 0.86474 0.78331 0.26032 0.0
C1212 C 0.87566 0.74985 0.21728 0.0
C1213 C 0.84613 0.73705 0.21868 0.0
H1214 H 0.90835 0.78039 0.23751 0.0
H1215 H 0.89218 0.74122 0.20111 0.0
S1216 S 0.78364 0.76136 0.27018 0.0
N1217 N 0.81324 0.78214 0.28072 0.0
N1218 N 0.7958 0.73987 0.24171 0.0
C1219 C 0.8253 0.74919 0.23972 0.0
C1220 C 0.83466 0.77223 0.26061 0.0
C1221 C 0.27659 0.87857 0.26688 0.0
C1222 C 0.27106 0.873 0.23589 0.0
C1223 C 0.25264 0.88045 0.28786 0.0
C1224 C 0.22196 0.87713 0.27877 0.0
H1225 H 0.29977 0.88117 0.27504 0.0
H1226 H 0.25838 0.88454 0.31154 0.0
S1227 S 0.19494 0.86374 0.1998 0.0
N1228 N 0.23247 0.86543 0.19667 0.0
N1229 N 0.18729 0.86867 0.23638 0.0
C1230 C 0.21593 0.87206 0.24772 0.0
C1231 C 0.2405 0.86996 0.22623 0.0
C1232 C 0.12222 0.78061 0.76314 0.0
C1233 C 0.14262 0.79033 0.74046 0.0
C1234 C 0.13043 0.75714 0.78342 0.0
C1235 C 0.15911 0.74268 0.78132 0.0
H1236 H 0.09932 0.78989 0.76408 0.0
H1237 H 0.11373 0.74918 0.79981 0.0
S1238 S 0.22209 0.76359 0.72907 0.0
N1239 N 0.19373 0.7864 0.71929 0.0
N1240 N 0.20903 0.74246 0.75742 0.0
C1241 C 0.18024 0.75367 0.76002 0.0
C1242 C 0.172 0.77749 0.73957 0.0
C1243 C 0.21963 0.14182 0.75875 0.0
C1244 C 0.22607 0.12635 0.7314 0.0
C1245 C 0.24304 0.1489 0.77944 0.0
C1246 C 0.27359 0.1409 0.77332 0.0
H1247 H 0.1967 0.14974 0.76353 0.0
H1248 H 0.23743 0.16166 0.79984 0.0
S1249 S 0.30162 0.09626 0.7074 0.0
N1250 N 0.2647 0.10035 0.70107 0.0
N1251 N 0.30844 0.11396 0.73993 0.0
C1252 C 0.28001 0.12415 0.74693 0.0
C1253 C 0.25628 0.11674 0.72602 0.0
C1254 C 0.84962 0.23436 0.77995 0.0
C1255 C 0.86404 0.26295 0.77801 0.0
C1256 C 0.85949 0.20966 0.76196 0.0
C1257 C 0.88421 0.21296 0.74171 0.0
H1258 H 0.82956 0.23172 0.79409 0.0
H1259 H 0.84634 0.18876 0.76222 0.0
S1260 S 0.93261 0.28177 0.73246 0.0
N1261 N 0.90629 0.29207 0.75741 0.0
N1262 N 0.92504 0.24591 0.72369 0.0
C1263 C 0.90015 0.24081 0.74151 0.0
C1264 C 0.88999 0.26581 0.75958 0.0
C1265 C 0.76126 0.85838 0.77307 0.0
C1266 C 0.73111 0.86773 0.76695 0.0
C1267 C 0.78493 0.8642 0.75219 0.0
C1268 C 0.77905 0.87953 0.72464 0.0
H1269 H 0.76628 0.84542 0.7935 0.0
H1270 H 0.8075 0.85531 0.7569 0.0
S1271 S 0.70508 0.91305 0.70058 0.0
N1272 N 0.69754 0.89616 0.7334 0.0
N1273 N 0.74171 0.907 0.69412 0.0
C1274 C 0.74937 0.89055 0.71928 0.0
C1275 C 0.72544 0.88462 0.74042 0.0
C1276 C 0.23955 0.15682 0.2576 0.0
C1277 C 0.22769 0.1291 0.2685 0.0
C1278 C 0.25984 0.15743 0.23285 0.0
C1279 C 0.26801 0.13048 0.2175 0.0
H1280 H 0.234 0.17799 0.26906 0.0
H1281 H 0.26983 0.17903 0.22613 0.0
S1282 S 0.24163 0.05234 0.23545 0.0
N1283 N 0.2247 0.07415 0.26111 0.0
N1284 N 0.262 0.07563 0.21392 0.0
C1285 C 0.25528 0.10284 0.22718 0.0
C1286 C 0.2353 0.10206 0.25289 0.0
C1287 C 0.84804 0.26815 0.23152 0.0
C1288 C 0.87551 0.26252 0.2159 0.0
C1289 C 0.83768 0.24858 0.25454 0.0
C1290 C 0.85445 0.22262 0.26309 0.0
H1291 H 0.83489 0.2885 0.22656 0.0
H1292 H 0.81664 0.2542 0.26621 0.0
S1293 S 0.9278 0.1975 0.2284 0.0
N1294 N 0.91898 0.22899 0.20965 0.0
N1295 N 0.89987 0.19197 0.25313 0.0
C1296 C 0.88155 0.21612 0.24677 0.0
C1297 C 0.89202 0.23617 0.22315 0.0
C1298 C 0.76143 0.86016 0.21825 0.0
C1299 C 0.73461 0.87693 0.22356 0.0
C1300 C 0.78164 0.85361 0.24227 0.0
C1301 C 0.7755 0.86345 0.27226 0.0
H1302 H 0.76597 0.85066 0.19589 0.0
H1303 H 0.80155 0.83971 0.23766 0.0
S1304 S 0.71104 0.912 0.29698 0.0
N1305 N 0.70489 0.90613 0.26029 0.0
N1306 N 0.74285 0.89354 0.30516 0.0
C1307 C 0.74975 0.88158 0.27742 0.0
C1308 C 0.72934 0.88844 0.2531 0.0
C1309 C 0.15717 0.74505 0.23803 0.0
C1310 C 0.12937 0.73529 0.22546 0.0
C1311 C 0.15781 0.76508 0.26291 0.0
C1312 C 0.13064 0.77525 0.2766 0.0
H1313 H 0.17857 0.73634 0.22917 0.0
H1314 H 0.17966 0.77176 0.27228 0.0
S1315 S 0.05192 0.75717 0.25094 0.0
N1316 N 0.07416 0.73805 0.22725 0.0
N1317 N 0.07509 0.77533 0.27446 0.0
C1318 C 0.10264 0.76623 0.2636 0.0
C1319 C 0.10208 0.74631 0.23787 0.0
C1320 C 0.24729 0.86862 0.78714 0.0
C1321 C 0.27296 0.88731 0.78241 0.0
C1322 C 0.2271 0.8621 0.76308 0.0
C1323 C 0.23214 0.87388 0.7336 0.0
H1324 H 0.24373 0.8576 0.80898 0.0
H1325 H 0.2082 0.84669 0.76713 0.0
S1326 S 0.29286 0.92787 0.71072 0.0
N1327 N 0.30002 0.92042 0.74696 0.0
N1328 N 0.26219 0.90783 0.70198 0.0
C1329 C 0.25654 0.89397 0.72912 0.0
C1330 C 0.27689 0.90081 0.75351 0.0
C1331 C 0.1025 0.27593 0.75454 0.0
C1332 C 0.10955 0.27089 0.78555 0.0
C1333 C 0.11549 0.25823 0.73134 0.0
C1334 C 0.13584 0.23447 0.73807 0.0
H1335 H 0.08768 0.29456 0.7479 0.0
H1336 H 0.10976 0.26334 0.70787 0.0
S1337 S 0.16003 0.20958 0.81519 0.0
N1338 N 0.13668 0.23847 0.82162 0.0
N1339 N 0.16123 0.20539 0.77776 0.0
C1340 C 0.14192 0.22794 0.76888 0.0
C1341 C 0.12868 0.24603 0.79267 0.0
C1342 C 0.71614 0.1333 0.75134 0.0
C1343 C 0.72456 0.12568 0.78148 0.0
C1344 C 0.73762 0.14343 0.72994 0.0
C1345 C 0.76861 0.14609 0.73748 0.0
H1346 H 0.69254 0.13205 0.74416 0.0
H1347 H 0.7299 0.14893 0.70714 0.0
S1348 S 0.80307 0.12807 0.81285 0.0
N1349 N 0.76637 0.12089 0.81751 0.0
N1350 N 0.80687 0.13995 0.7773 0.0
C1351 C 0.77758 0.13813 0.76739 0.0
C1352 C 0.75556 0.12796 0.78935 0.0
C1353 C 0.90199 0.72823 0.7429 0.0
C1354 C 0.89206 0.7325 0.7732 0.0
C1355 C 0.89368 0.74847 0.71962 0.0
C1356 C 0.87531 0.77397 0.72568 0.0
H1357 H 0.91541 0.70838 0.73683 0.0
H1358 H 0.90126 0.74391 0.69655 0.0
S1359 S 0.84357 0.79616 0.80094 0.0
N1360 N 0.86339 0.7649 0.80801 0.0
N1361 N 0.84775 0.8029 0.7641 0.0
C1362 C 0.86616 0.77932 0.75599 0.0
C1363 C 0.87461 0.75864 0.7798 0.0
C1364 C 0.24421 0.22123 0.13015 0.0
C1365 C 0.27461 0.22897 0.12279 0.0
C1366 C 0.22058 0.24295 0.12856 0.0
C1367 C 0.22663 0.27321 0.1198 0.0
H1368 H 0.23865 0.19823 0.13722 0.0
H1369 H 0.19773 0.23628 0.13524 0.0
S1370 S 0.302 0.30485 0.0972 0.0
N1371 N 0.30909 0.26893 0.10593 0.0
N1372 N 0.26497 0.3094 0.1023 0.0
C1373 C 0.25675 0.28095 0.11162 0.0
C1374 C 0.28066 0.25895 0.11326 0.0
C1375 C 0.22823 0.75981 0.89681 0.0
C1376 C 0.22318 0.73145 0.88289 0.0
C1377 C 0.25091 0.77968 0.88567 0.0
C1378 C 0.26889 0.77192 0.86002 0.0
H1379 H 0.21544 0.76614 0.91699 0.0
H1380 H 0.25507 0.80074 0.89784 0.0
S1381 S 0.26132 0.7018 0.81337 0.0
N1382 N 0.23646 0.69735 0.8413 0.0
N1383 N 0.27739 0.73532 0.81931 0.0
C1384 C 0.26273 0.74428 0.84512 0.0
C1385 C 0.24028 0.72391 0.85682 0.0
C1386 C 0.23776 0.22913 0.8872 0.0
C1387 C 0.2593 0.21729 0.86673 0.0
C1388 C 0.2175 0.25218 0.87797 0.0
C1389 C 0.21844 0.26421 0.84811 0.0
H1390 H 0.23773 0.22182 0.91081 0.0
H1391 H 0.202 0.26166 0.89469 0.0
S1392 S 0.26803 0.23761 0.78509 0.0
N1393 N 0.27879 0.21721 0.81488 0.0
N1394 N 0.24021 0.25986 0.79738 0.0
C1395 C 0.23867 0.25116 0.82708 0.0
C1396 C 0.25926 0.22785 0.83647 0.0
C1397 C 0.71787 0.26192 0.86538 0.0
C1398 C 0.72597 0.2332 0.85379 0.0
C1399 C 0.74 0.28215 0.87619 0.0
C1400 C 0.77127 0.27461 0.87581 0.0
H1401 H 0.69417 0.26884 0.86618 0.0
H1402 H 0.73248 0.30428 0.88423 0.0
S1403 S 0.80439 0.20138 0.84953 0.0
N1404 N 0.76737 0.19762 0.8436 0.0
N1405 N 0.80903 0.23561 0.86447 0.0
C1406 C 0.77966 0.24546 0.86544 0.0
C1407 C 0.75702 0.22481 0.85424 0.0
C1408 C 0.76075 0.77571 0.88149 0.0
C1409 C 0.73979 0.78743 0.86034 0.0
C1410 C 0.78142 0.75273 0.8729 0.0
C1411 C 0.78134 0.74072 0.84307 0.0
H1412 H 0.75997 0.78302 0.90508 0.0
H1413 H 0.79638 0.7431 0.89004 0.0
S1414 S 0.73395 0.7673 0.77845 0.0
N1415 N 0.72226 0.78781 0.80781 0.0
N1416 N 0.76125 0.74493 0.7917 0.0
C1417 C 0.76183 0.75375 0.8214 0.0
C1418 C 0.74097 0.77706 0.83006 0.0
C1419 C 0.76786 0.77206 0.14178 0.0
C1420 C 0.73744 0.76891 0.13197 0.0
C1421 C 0.79113 0.7532 0.13002 0.0
C1422 C 0.78471 0.73079 0.10786 0.0
H1423 H 0.77337 0.78831 0.15955 0.0
H1424 H 0.81383 0.75514 0.13955 0.0
S1425 S 0.70967 0.71802 0.07062 0.0
N1426 N 0.70294 0.74487 0.09615 0.0
N1427 N 0.74631 0.70975 0.07376 0.0
C1428 C 0.75473 0.72926 0.09633 0.0
C1429 C 0.73118 0.74817 0.10849 0.0
C1430 C 0.22214 0.767 0.14955 0.0
C1431 C 0.22823 0.7379 0.13727 0.0
C1432 C 0.24219 0.79164 0.14443 0.0
C1433 C 0.26874 0.78776 0.12678 0.0
H1434 H 0.20281 0.77021 0.16461 0.0
H1435 H 0.238 0.81307 0.15597 0.0
S1436 S 0.29137 0.71788 0.08479 0.0
N1437 N 0.26001 0.70803 0.10323 0.0
N1438 N 0.29761 0.75395 0.09367 0.0
C1439 C 0.2735 0.75949 0.11242 0.0
C1440 C 0.25329 0.73461 0.11767 0.0
C1441 C 0.76107 0.20488 0.14822 0.0
C1442 C 0.73298 0.21072 0.13382 0.0
C1443 C 0.78091 0.22902 0.15591 0.0
C1444 C 0.77302 0.25958 0.14967 0.0
H1445 H 0.76703 0.18185 0.15492 0.0
H1446 H 0.80194 0.22396 0.16785 0.0
S1447 S 0.70475 0.28624 0.10775 0.0
N1448 N 0.70029 0.24892 0.1103 0.0
N1449 N 0.73734 0.29385 0.12502 0.0
C1450 C 0.74596 0.26537 0.13374 0.0
C1451 C 0.72603 0.24103 0.12572 0.0
loop_
_geom_bond_atom_site_label_1
_geom_bond_atom_site_label_2
_geom_bond_distance
_geom_bond_site_symmetry_2
_ccdc_geom_bond_type
C0 C1 1.351 . S
C0 N3 1.368 . S
C0 H5 0.931 . S
C1 C0 1.351 . S
C1 N2 1.373 . S
C1 H29 0.930 . S
N2 C1 1.373 . S
N2 C4 1.340 . S
N3 C0 1.368 . S
N3 C4 1.321 . S
N3 Co6 2.135 . S
C4 N2 1.340 . S
C4 N3 1.321 . S
C4 H28 0.930 . S
H5 C0 0.931 . S
Co6 N3 2.135 . S
Co6 N9 2.121 . S
Co6 O14 2.055 . S
Co6 O17 2.039 . S
Co6 N20 2.140 . S
C7 O8 1.227 . S
C7 O17 1.265 . S
O8 C7 1.227 . S
N9 Co6 2.121 . S
N9 C11 1.375 . S
N9 C12 1.313 . S
C10 C11 1.338 . S
C10 N13 1.377 . S
C10 H30 0.930 . S
C11 N9 1.375 . S
C11 C10 1.338 . S
C11 H15 0.931 . S
C12 N9 1.313 . S
C12 N13 1.344 . S
C12 H16 0.930 . S
N13 C10 1.377 . S
N13 C12 1.344 . S
O14 Co6 2.055 . S
O14 C18 1.253 . S
H15 C11 0.931 . S
H16 C12 0.930 . S
O17 Co6 2.039 . S
O17 C7 1.265 . S
C18 O14 1.253 . S
C18 O19 1.227 . S
O19 C18 1.227 . S
N20 Co6 2.140 . S
N20 C23 1.346 . S
N20 C24 1.345 . S
C21 C22 1.387 . S
C21 C25 1.391 . S
C22 C21 1.387 . S
C22 C23 1.369 . S
C22 H31 0.929 . S
C23 N20 1.346 . S
C23 C22 1.369 . S
C23 H26 0.928 . S
C24 N20 1.345 . S
C24 C25 1.371 . S
C24 H27 0.931 . S
C25 C21 1.391 . S
C25 C24 1.371 . S
C25 H32 0.930 . S
H26 C23 0.928 . S
H27 C24 0.931 . S
H28 C4 0.930 . S
H29 C1 0.930 . S
H30 C10 0.930 . S
H31 C22 0.929 . S
H32 C25 0.930 . S
C33 C34 1.351 . S
C33 N36 1.368 . S
C33 H38 0.931 . S
C34 C33 1.351 . S
C34 N35 1.373 . S
C34 H62 0.930 . S
N35 C34 1.373 . S
N35 C37 1.340 . S
N36 C33 1.368 . S
N36 C37 1.321 . S
N36 Co39 2.135 . S
C37 N35 1.340 . S
C37 N36 1.321 . S
C37 H61 0.930 . S
H38 C33 0.931 . S
Co39 N36 2.135 . S
Co39 N42 2.121 . S
Co39 O47 2.055 . S
Co39 O50 2.039 . S
Co39 N53 2.140 . S
C40 O41 1.227 . S
C40 O50 1.265 . S
O41 C40 1.227 . S
N42 Co39 2.121 . S
N42 C44 1.375 . S
N42 C45 1.313 . S
C43 C44 1.338 . S
C43 N46 1.377 . S
C43 H63 0.930 . S
C44 N42 1.375 . S
C44 C43 1.338 . S
C44 H48 0.931 . S
C45 N42 1.313 . S
C45 N46 1.344 . S
C45 H49 0.930 . S
N46 C43 1.377 . S
N46 C45 1.344 . S
O47 Co39 2.055 . S
O47 C51 1.253 . S
H48 C44 0.931 . S
H49 C45 0.930 . S
O50 Co39 2.039 . S
O50 C40 1.265 . S
C51 O47 1.253 . S
C51 O52 1.227 . S
O52 C51 1.227 . S
N53 Co39 2.140 . S
N53 C56 1.346 . S
N53 C57 1.345 . S
C54 C55 1.387 . S
C54 C58 1.391 . S
C55 C54 1.387 . S
C55 C56 1.369 . S
C55 H64 0.929 . S
C56 N53 1.346 . S
C56 C55 1.369 . S
C56 H59 0.928 . S
C57 N53 1.345 . S
C57 C58 1.371 . S
C57 H60 0.931 . S
C58 C54 1.391 . S
C58 C57 1.371 . S
C58 H65 0.930 . S
H59 C56 0.928 . S
H60 C57 0.931 . S
H61 C37 0.930 . S
H62 C34 0.930 . S
H63 C43 0.930 . S
H64 C55 0.929 . S
H65 C58 0.930 . S
C66 C67 1.351 . S
C66 N69 1.368 . S
C66 H71 0.931 . S
C67 C66 1.351 . S
C67 N68 1.373 . S
C67 H95 0.930 . S
N68 C67 1.373 . S
N68 C70 1.340 . S
N69 C66 1.368 . S
N69 C70 1.321 . S
N69 Co72 2.135 . S
C70 N68 1.340 . S
C70 N69 1.321 . S
C70 H94 0.930 . S
H71 C66 0.931 . S
Co72 N69 2.135 . S
Co72 N75 2.121 . S
Co72 O80 2.055 . S
Co72 O83 2.039 . S
Co72 N86 2.140 . S
C73 O74 1.227 . S
C73 O83 1.265 . S
O74 C73 1.227 . S
N75 Co72 2.121 . S
N75 C77 1.375 . S
N75 C78 1.313 . S
C76 C77 1.338 . S
C76 N79 1.377 . S
C76 H96 0.930 . S
C77 N75 1.375 . S
C77 C76 1.338 . S
C77 H81 0.931 . S
C78 N75 1.313 . S
C78 N79 1.344 . S
C78 H82 0.930 . S
N79 C76 1.377 . S
N79 C78 1.344 . S
O80 Co72 2.055 . S
O80 C84 1.253 . S
H81 C77 0.931 . S
H82 C78 0.930 . S
O83 Co72 2.039 . S
O83 C73 1.265 . S
C84 O80 1.253 . S
C84 O85 1.227 . S
O85 C84 1.227 . S
N86 Co72 2.140 . S
N86 C89 1.346 . S
N86 C90 1.345 . S
C87 C88 1.387 . S
C87 C91 1.391 . S
C88 C87 1.387 . S
C88 C89 1.369 . S
C88 H97 0.929 . S
C89 N86 1.346 . S
C89 C88 1.369 . S
C89 H92 0.928 . S
C90 N86 1.345 . S
C90 C91 1.371 . S
C90 H93 0.931 . S
C91 C87 1.391 . S
C91 C90 1.371 . S
C91 H98 0.930 . S
H92 C89 0.928 . S
H93 C90 0.931 . S
H94 C70 0.930 . S
H95 C67 0.930 . S
H96 C76 0.930 . S
H97 C88 0.929 . S
H98 C91 0.930 . S
C99 C100 1.351 . S
C99 N102 1.368 . S
C99 H104 0.931 . S
C100 C99 1.351 . S
C100 N101 1.373 . S
C100 H128 0.930 . S
N101 C100 1.373 . S
N101 C103 1.340 . S
N102 C99 1.368 . S
N102 C103 1.321 . S
N102 Co105 2.135 . S
C103 N101 1.340 . S
C103 N102 1.321 . S
C103 H127 0.930 . S
H104 C99 0.931 . S
Co105 N102 2.135 . S
Co105 N108 2.121 . S
Co105 O113 2.055 . S
Co105 O116 2.039 . S
Co105 N119 2.140 . S
C106 O107 1.227 . S
C106 O116 1.265 . S
O107 C106 1.227 . S
N108 Co105 2.121 . S
N108 C110 1.375 . S
N108 C111 1.313 . S
C109 C110 1.338 . S
C109 N112 1.377 . S
C109 H129 0.930 . S
C110 N108 1.375 . S
C110 C109 1.338 . S
C110 H114 0.931 . S
C111 N108 1.313 . S
C111 N112 1.344 . S
C111 H115 0.930 . S
N112 C109 1.377 . S
N112 C111 1.344 . S
O113 Co105 2.055 . S
O113 C117 1.253 . S
H114 C110 0.931 . S
H115 C111 0.930 . S
O116 Co105 2.039 . S
O116 C106 1.265 . S
C117 O113 1.253 . S
C117 O118 1.227 . S
O118 C117 1.227 . S
N119 Co105 2.140 . S
N119 C122 1.346 . S
N119 C123 1.345 . S
C120 C121 1.387 . S
C120 C124 1.391 . S
C121 C120 1.387 . S
C121 C122 1.369 . S
C121 H130 0.929 . S
C122 N119 1.346 . S
C122 C121 1.369 . S
C122 H125 0.928 . S
C123 N119 1.345 . S
C123 C124 1.371 . S
C123 H126 0.931 . S
C124 C120 1.391 . S
C124 C123 1.371 . S
C124 H131 0.930 . S
H125 C122 0.928 . S
H126 C123 0.931 . S
H127 C103 0.930 . S
H128 C100 0.930 . S
H129 C109 0.930 . S
H130 C121 0.929 . S
H131 C124 0.930 . S
C132 C133 1.351 . S
C132 N135 1.368 . S
C132 H137 0.931 . S
C133 C132 1.351 . S
C133 N134 1.373 . S
C133 H161 0.930 . S
N134 C133 1.373 . S
N134 C136 1.340 . S
N135 C132 1.368 . S
N135 C136 1.321 . S
N135 Co138 2.135 . S
C136 N134 1.340 . S
C136 N135 1.321 . S
C136 H160 0.930 . S
H137 C132 0.931 . S
Co138 N135 2.135 . S
Co138 N141 2.121 . S
Co138 O146 2.055 . S
Co138 O149 2.039 . S
Co138 N152 2.140 . S
C139 O140 1.227 . S
C139 O149 1.265 . S
O140 C139 1.227 . S
N141 Co138 2.121 . S
N141 C143 1.375 . S
N141 C144 1.313 . S
C142 C143 1.338 . S
C142 N145 1.377 . S
C142 H162 0.930 . S
C143 N141 1.375 . S
C143 C142 1.338 . S
C143 H147 0.931 . S
C144 N141 1.313 . S
C144 N145 1.344 . S
C144 H148 0.930 . S
N145 C142 1.377 . S
N145 C144 1.344 . S
O146 Co138 2.055 . S
O146 C150 1.253 . S
H147 C143 0.931 . S
H148 C144 0.930 . S
O149 Co138 2.039 . S
O149 C139 1.265 . S
C150 O146 1.253 . S
C150 O151 1.227 . S
O151 C150 1.227 . S
N152 Co138 2.140 . S
N152 C155 1.346 . S
N152 C156 1.345 . S
C153 C154 1.387 . S
C153 C157 1.391 . S
C154 C153 1.387 . S
C154 C155 1.369 . S
C154 H163 0.929 . S
C155 N152 1.346 . S
C155 C154 1.369 . S
C155 H158 0.928 . S
C156 N152 1.345 . S
C156 C157 1.371 . S
C156 H159 0.931 . S
C157 C153 1.391 . S
C157 C156 1.371 . S
C157 H164 0.930 . S
H158 C155 0.928 . S
H159 C156 0.931 . S
H160 C136 0.930 . S
H161 C133 0.930 . S
H162 C142 0.930 . S
H163 C154 0.929 . S
H164 C157 0.930 . S
C165 C166 1.351 . S
C165 N168 1.368 . S
C165 H170 0.931 . S
C166 C165 1.351 . S
C166 N167 1.373 . S
C166 H194 0.930 . S
N167 C166 1.373 . S
N167 C169 1.340 . S
N168 C165 1.368 . S
N168 C169 1.321 . S
N168 Co171 2.135 . S
C169 N167 1.340 . S
C169 N168 1.321 . S
C169 H193 0.930 . S
H170 C165 0.931 . S
Co171 N168 2.135 . S
Co171 N174 2.121 . S
Co171 O179 2.055 . S
Co171 O182 2.039 . S
Co171 N185 2.140 . S
C172 O173 1.227 . S
C172 O182 1.265 . S
O173 C172 1.227 . S
N174 Co171 2.121 . S
N174 C176 1.375 . S
N174 C177 1.313 . S
C175 C176 1.338 . S
C175 N178 1.377 . S
C175 H195 0.930 . S
C176 N174 1.375 . S
C176 C175 1.338 . S
C176 H180 0.931 . S
C177 N174 1.313 . S
C177 N178 1.344 . S
C177 H181 0.930 . S
N178 C175 1.377 . S
N178 C177 1.344 . S
O179 Co171 2.055 . S
O179 C183 1.253 . S
H180 C176 0.931 . S
H181 C177 0.930 . S
O182 Co171 2.039 . S
O182 C172 1.265 . S
C183 O179 1.253 . S
C183 O184 1.227 . S
O184 C183 1.227 . S
N185 Co171 2.140 . S
N185 C188 1.346 . S
N185 C189 1.345 . S
C186 C187 1.387 . S
C186 C190 1.391 . S
C187 C186 1.387 . S
C187 C188 1.369 . S
C187 H196 0.929 . S
C188 N185 1.346 . S
C188 C187 1.369 . S
C188 H191 0.928 . S
C189 N185 1.345 . S
C189 C190 1.371 . S
C189 H192 0.931 . S
C190 C186 1.391 . S
C190 C189 1.371 . S
C190 H197 0.930 . S
H191 C188 0.928 . S
H192 C189 0.931 . S
H193 C169 0.930 . S
H194 C166 0.930 . S
H195 C175 0.930 . S
H196 C187 0.929 . S
H197 C190 0.930 . S
C198 C199 1.351 . S
C198 N201 1.368 . S
C198 H203 0.931 . S
C199 C198 1.351 . S
C199 N200 1.373 . S
C199 H227 0.930 . S
N200 C199 1.373 . S
N200 C202 1.340 . S
N201 C198 1.368 . S
N201 C202 1.321 . S
N201 Co204 2.135 . S
C202 N200 1.340 . S
C202 N201 1.321 . S
C202 H226 0.930 . S
H203 C198 0.931 . S
Co204 N201 2.135 . S
Co204 N207 2.121 . S
Co204 O212 2.055 . S
Co204 O215 2.039 . S
Co204 N218 2.140 . S
C205 O206 1.227 . S
C205 O215 1.265 . S
O206 C205 1.227 . S
N207 Co204 2.121 . S
N207 C209 1.375 . S
N207 C210 1.313 . S
C208 C209 1.338 . S
C208 N211 1.377 . S
C208 H228 0.930 . S
C209 N207 1.375 . S
C209 C208 1.338 . S
C209 H213 0.931 . S
C210 N207 1.313 . S
C210 N211 1.344 . S
C210 H214 0.930 . S
N211 C208 1.377 . S
N211 C210 1.344 . S
O212 Co204 2.055 . S
O212 C216 1.253 . S
H213 C209 0.931 . S
H214 C210 0.930 . S
O215 Co204 2.039 . S
O215 C205 1.265 . S
C216 O212 1.253 . S
C216 O217 1.227 . S
O217 C216 1.227 . S
N218 Co204 2.140 . S
N218 C221 1.346 . S
N218 C222 1.345 . S
C219 C220 1.387 . S
C219 C223 1.391 . S
C220 C219 1.387 . S
C220 C221 1.369 . S
C220 H229 0.929 . S
C221 N218 1.346 . S
C221 C220 1.369 . S
C221 H224 0.928 . S
C222 N218 1.345 . S
C222 C223 1.371 . S
C222 H225 0.931 . S
C223 C219 1.391 . S
C223 C222 1.371 . S
C223 H230 0.930 . S
H224 C221 0.928 . S
H225 C222 0.931 . S
H226 C202 0.930 . S
H227 C199 0.930 . S
H228 C208 0.930 . S
H229 C220 0.929 . S
H230 C223 0.930 . S
C231 C232 1.351 . S
C231 N234 1.368 . S
C231 H236 0.931 . S
C232 C231 1.351 . S
C232 N233 1.373 . S
C232 H260 0.930 . S
N233 C232 1.373 . S
N233 C235 1.340 . S
N234 C231 1.368 . S
N234 C235 1.321 . S
N234 Co237 2.135 . S
C235 N233 1.340 . S
C235 N234 1.321 . S
C235 H259 0.930 . S
H236 C231 0.931 . S
Co237 N234 2.135 . S
Co237 N240 2.121 . S
Co237 O245 2.055 . S
Co237 O248 2.039 . S
Co237 N251 2.140 . S
C238 O239 1.227 . S
C238 O248 1.265 . S
O239 C238 1.227 . S
N240 Co237 2.121 . S
N240 C242 1.375 . S
N240 C243 1.313 . S
C241 C242 1.338 . S
C241 N244 1.377 . S
C241 H261 0.930 . S
C242 N240 1.375 . S
C242 C241 1.338 . S
C242 H246 0.931 . S
C243 N240 1.313 . S
C243 N244 1.344 . S
C243 H247 0.930 . S
N244 C241 1.377 . S
N244 C243 1.344 . S
O245 Co237 2.055 . S
O245 C249 1.253 . S
H246 C242 0.931 . S
H247 C243 0.930 . S
O248 Co237 2.039 . S
O248 C238 1.265 . S
C249 O245 1.253 . S
C249 O250 1.227 . S
O250 C249 1.227 . S
N251 Co237 2.140 . S
N251 C254 1.346 . S
N251 C255 1.345 . S
C252 C253 1.387 . S
C252 C256 1.391 . S
C253 C252 1.387 . S
C253 C254 1.369 . S
C253 H262 0.929 . S
C254 N251 1.346 . S
C254 C253 1.369 . S
C254 H257 0.928 . S
C255 N251 1.345 . S
C255 C256 1.371 . S
C255 H258 0.931 . S
C256 C252 1.391 . S
C256 C255 1.371 . S
C256 H263 0.930 . S
H257 C254 0.928 . S
H258 C255 0.931 . S
H259 C235 0.930 . S
H260 C232 0.930 . S
H261 C241 0.930 . S
H262 C253 0.929 . S
H263 C256 0.930 . S
C264 C265 1.351 . S
C264 N267 1.368 . S
C264 H269 0.931 . S
C265 C264 1.351 . S
C265 N266 1.373 . S
C265 H293 0.930 . S
N266 C265 1.373 . S
N266 C268 1.340 . S
N267 C264 1.368 . S
N267 C268 1.321 . S
N267 Co270 2.135 . S
C268 N266 1.340 . S
C268 N267 1.321 . S
C268 H292 0.930 . S
H269 C264 0.931 . S
Co270 N267 2.135 . S
Co270 N273 2.121 . S
Co270 O278 2.055 . S
Co270 O281 2.039 . S
Co270 N284 2.140 . S
C271 O272 1.227 . S
C271 O281 1.265 . S
O272 C271 1.227 . S
N273 Co270 2.121 . S
N273 C275 1.375 . S
N273 C276 1.313 . S
C274 C275 1.338 . S
C274 N277 1.377 . S
C274 H294 0.930 . S
C275 N273 1.375 . S
C275 C274 1.338 . S
C275 H279 0.931 . S
C276 N273 1.313 . S
C276 N277 1.344 . S
C276 H280 0.930 . S
N277 C274 1.377 . S
N277 C276 1.344 . S
O278 Co270 2.055 . S
O278 C282 1.253 . S
H279 C275 0.931 . S
H280 C276 0.930 . S
O281 Co270 2.039 . S
O281 C271 1.265 . S
C282 O278 1.253 . S
C282 O283 1.227 . S
O283 C282 1.227 . S
N284 Co270 2.140 . S
N284 C287 1.346 . S
N284 C288 1.345 . S
C285 C286 1.387 . S
C285 C289 1.391 . S
C286 C285 1.387 . S
C286 C287 1.369 . S
C286 H295 0.929 . S
C287 N284 1.346 . S
C287 C286 1.369 . S
C287 H290 0.928 . S
C288 N284 1.345 . S
C288 C289 1.371 . S
C288 H291 0.931 . S
C289 C285 1.391 . S
C289 C288 1.371 . S
C289 H296 0.930 . S
H290 C287 0.928 . S
H291 C288 0.931 . S
H292 C268 0.930 . S
H293 C265 0.930 . S
H294 C274 0.930 . S
H295 C286 0.929 . S
H296 C289 0.930 . S
C297 C298 1.351 . S
C297 N300 1.368 . S
C297 H302 0.931 . S
C298 C297 1.351 . S
C298 N299 1.373 . S
C298 H326 0.930 . S
N299 C298 1.373 . S
N299 C301 1.340 . S
N300 C297 1.368 . S
N300 C301 1.321 . S
N300 Co303 2.135 . S
C301 N299 1.340 . S
C301 N300 1.321 . S
C301 H325 0.930 . S
H302 C297 0.931 . S
Co303 N300 2.135 . S
Co303 N306 2.121 . S
Co303 O311 2.055 . S
Co303 O314 2.039 . S
Co303 N317 2.140 . S
C304 O305 1.227 . S
C304 O314 1.265 . S
O305 C304 1.227 . S
N306 Co303 2.121 . S
N306 C308 1.375 . S
N306 C309 1.313 . S
C307 C308 1.338 . S
C307 N310 1.377 . S
C307 H327 0.930 . S
C308 N306 1.375 . S
C308 C307 1.338 . S
C308 H312 0.931 . S
C309 N306 1.313 . S
C309 N310 1.344 . S
C309 H313 0.930 . S
N310 C307 1.377 . S
N310 C309 1.344 . S
O311 Co303 2.055 . S
O311 C315 1.253 . S
H312 C308 0.931 . S
H313 C309 0.930 . S
O314 Co303 2.039 . S
O314 C304 1.265 . S
C315 O311 1.253 . S
C315 O316 1.227 . S
O316 C315 1.227 . S
N317 Co303 2.140 . S
N317 C320 1.346 . S
N317 C321 1.345 . S
C318 C319 1.387 . S
C318 C322 1.391 . S
C319 C318 1.387 . S
C319 C320 1.369 . S
C319 H328 0.929 . S
C320 N317 1.346 . S
C320 C319 1.369 . S
C320 H323 0.928 . S
C321 N317 1.345 . S
C321 C322 1.371 . S
C321 H324 0.931 . S
C322 C318 1.391 . S
C322 C321 1.371 . S
C322 H329 0.930 . S
H323 C320 0.928 . S
H324 C321 0.931 . S
H325 C301 0.930 . S
H326 C298 0.930 . S
H327 C307 0.930 . S
H328 C319 0.929 . S
H329 C322 0.930 . S
C330 C331 1.351 . S
C330 N333 1.368 . S
C330 H335 0.931 . S
C331 C330 1.351 . S
C331 N332 1.373 . S
C331 H359 0.930 . S
N332 C331 1.373 . S
N332 C334 1.340 . S
N333 C330 1.368 . S
N333 C334 1.321 . S
N333 Co336 2.135 . S
C334 N332 1.340 . S
C334 N333 1.321 . S
C334 H358 0.930 . S
H335 C330 0.931 . S
Co336 N333 2.135 . S
Co336 N339 2.121 . S
Co336 O344 2.055 . S
Co336 O347 2.039 . S
Co336 N350 2.140 . S
C337 O338 1.227 . S
C337 O347 1.265 . S
O338 C337 1.227 . S
N339 Co336 2.121 . S
N339 C341 1.375 . S
N339 C342 1.313 . S
C340 C341 1.338 . S
C340 N343 1.377 . S
C340 H360 0.930 . S
C341 N339 1.375 . S
C341 C340 1.338 . S
C341 H345 0.931 . S
C342 N339 1.313 . S
C342 N343 1.344 . S
C342 H346 0.930 . S
N343 C340 1.377 . S
N343 C342 1.344 . S
O344 Co336 2.055 . S
O344 C348 1.253 . S
H345 C341 0.931 . S
H346 C342 0.930 . S
O347 Co336 2.039 . S
O347 C337 1.265 . S
C348 O344 1.253 . S
C348 O349 1.227 . S
O349 C348 1.227 . S
N350 Co336 2.140 . S
N350 C353 1.346 . S
N350 C354 1.345 . S
C351 C352 1.387 . S
C351 C355 1.391 . S
C352 C351 1.387 . S
C352 C353 1.369 . S
C352 H361 0.929 . S
C353 N350 1.346 . S
C353 C352 1.369 . S
C353 H356 0.928 . S
C354 N350 1.345 . S
C354 C355 1.371 . S
C354 H357 0.931 . S
C355 C351 1.391 . S
C355 C354 1.371 . S
C355 H362 0.930 . S
H356 C353 0.928 . S
H357 C354 0.931 . S
H358 C334 0.930 . S
H359 C331 0.930 . S
H360 C340 0.930 . S
H361 C352 0.929 . S
H362 C355 0.930 . S
C363 C364 1.351 . S
C363 N366 1.368 . S
C363 H368 0.931 . S
C364 C363 1.351 . S
C364 N365 1.373 . S
C364 H392 0.930 . S
N365 C364 1.373 . S
N365 C367 1.340 . S
N366 C363 1.368 . S
N366 C367 1.321 . S
N366 Co369 2.135 . S
C367 N365 1.340 . S
C367 N366 1.321 . S
C367 H391 0.930 . S
H368 C363 0.931 . S
Co369 N366 2.135 . S
Co369 N372 2.121 . S
Co369 O377 2.055 . S
Co369 O380 2.039 . S
Co369 N383 2.140 . S
C370 O371 1.227 . S
C370 O380 1.265 . S
O371 C370 1.227 . S
N372 Co369 2.121 . S
N372 C374 1.375 . S
N372 C375 1.313 . S
C373 C374 1.338 . S
C373 N376 1.377 . S
C373 H393 0.930 . S
C374 N372 1.375 . S
C374 C373 1.338 . S
C374 H378 0.931 . S
C375 N372 1.313 . S
C375 N376 1.344 . S
C375 H379 0.930 . S
N376 C373 1.377 . S
N376 C375 1.344 . S
O377 Co369 2.055 . S
O377 C381 1.253 . S
H378 C374 0.931 . S
H379 C375 0.930 . S
O380 Co369 2.039 . S
O380 C370 1.265 . S
C381 O377 1.253 . S
C381 O382 1.227 . S
O382 C381 1.227 . S
N383 Co369 2.140 . S
N383 C386 1.346 . S
N383 C387 1.345 . S
C384 C385 1.387 . S
C384 C388 1.391 . S
C385 C384 1.387 . S
C385 C386 1.369 . S
C385 H394 0.929 . S
C386 N383 1.346 . S
C386 C385 1.369 . S
C386 H389 0.928 . S
C387 N383 1.345 . S
C387 C388 1.371 . S
C387 H390 0.931 . S
C388 C384 1.391 . S
C388 C387 1.371 . S
C388 H395 0.930 . S
H389 C386 0.928 . S
H390 C387 0.931 . S
H391 C367 0.930 . S
H392 C364 0.930 . S
H393 C373 0.930 . S
H394 C385 0.929 . S
H395 C388 0.930 . S
C396 C397 1.351 . S
C396 N399 1.368 . S
C396 H401 0.931 . S
C397 C396 1.351 . S
C397 N398 1.373 . S
C397 H425 0.930 . S
N398 C397 1.373 . S
N398 C400 1.340 . S
N399 C396 1.368 . S
N399 C400 1.321 . S
N399 Co402 2.135 . S
C400 N398 1.340 . S
C400 N399 1.321 . S
C400 H424 0.930 . S
H401 C396 0.931 . S
Co402 N399 2.135 . S
Co402 N405 2.121 . S
Co402 O410 2.055 . S
Co402 O413 2.039 . S
Co402 N416 2.140 . S
C403 O404 1.227 . S
C403 O413 1.265 . S
O404 C403 1.227 . S
N405 Co402 2.121 . S
N405 C407 1.375 . S
N405 C408 1.313 . S
C406 C407 1.338 . S
C406 N409 1.377 . S
C406 H426 0.930 . S
C407 N405 1.375 . S
C407 C406 1.338 . S
C407 H411 0.931 . S
C408 N405 1.313 . S
C408 N409 1.344 . S
C408 H412 0.930 . S
N409 C406 1.377 . S
N409 C408 1.344 . S
O410 Co402 2.055 . S
O410 C414 1.253 . S
H411 C407 0.931 . S
H412 C408 0.930 . S
O413 Co402 2.039 . S
O413 C403 1.265 . S
C414 O410 1.253 . S
C414 O415 1.227 . S
O415 C414 1.227 . S
N416 Co402 2.140 . S
N416 C419 1.346 . S
N416 C420 1.345 . S
C417 C418 1.387 . S
C417 C421 1.391 . S
C418 C417 1.387 . S
C418 C419 1.369 . S
C418 H427 0.929 . S
C419 N416 1.346 . S
C419 C418 1.369 . S
C419 H422 0.928 . S
C420 N416 1.345 . S
C420 C421 1.371 . S
C420 H423 0.931 . S
C421 C417 1.391 . S
C421 C420 1.371 . S
C421 H428 0.930 . S
H422 C419 0.928 . S
H423 C420 0.931 . S
H424 C400 0.930 . S
H425 C397 0.930 . S
H426 C406 0.930 . S
H427 C418 0.929 . S
H428 C421 0.930 . S
C429 C430 1.351 . S
C429 N432 1.368 . S
C429 H434 0.931 . S
C430 C429 1.351 . S
C430 N431 1.373 . S
C430 H458 0.930 . S
N431 C430 1.373 . S
N431 C433 1.340 . S
N432 C429 1.368 . S
N432 C433 1.321 . S
N432 Co435 2.135 . S
C433 N431 1.340 . S
C433 N432 1.321 . S
C433 H457 0.930 . S
H434 C429 0.931 . S
Co435 N432 2.135 . S
Co435 N438 2.121 . S
Co435 O443 2.055 . S
Co435 O446 2.039 . S
Co435 N449 2.140 . S
C436 O437 1.227 . S
C436 O446 1.265 . S
O437 C436 1.227 . S
N438 Co435 2.121 . S
N438 C440 1.375 . S
N438 C441 1.313 . S
C439 C440 1.338 . S
C439 N442 1.377 . S
C439 H459 0.930 . S
C440 N438 1.375 . S
C440 C439 1.338 . S
C440 H444 0.931 . S
C441 N438 1.313 . S
C441 N442 1.344 . S
C441 H445 0.930 . S
N442 C439 1.377 . S
N442 C441 1.344 . S
O443 Co435 2.055 . S
O443 C447 1.253 . S
H444 C440 0.931 . S
H445 C441 0.930 . S
O446 Co435 2.039 . S
O446 C436 1.265 . S
C447 O443 1.253 . S
C447 O448 1.227 . S
O448 C447 1.227 . S
N449 Co435 2.140 . S
N449 C452 1.346 . S
N449 C453 1.345 . S
C450 C451 1.387 . S
C450 C454 1.391 . S
C451 C450 1.387 . S
C451 C452 1.369 . S
C451 H460 0.929 . S
C452 N449 1.346 . S
C452 C451 1.369 . S
C452 H455 0.928 . S
C453 N449 1.345 . S
C453 C454 1.371 . S
C453 H456 0.931 . S
C454 C450 1.391 . S
C454 C453 1.371 . S
C454 H461 0.930 . S
H455 C452 0.928 . S
H456 C453 0.931 . S
H457 C433 0.930 . S
H458 C430 0.930 . S
H459 C439 0.930 . S
H460 C451 0.929 . S
H461 C454 0.930 . S
C462 C463 1.351 . S
C462 N465 1.368 . S
C462 H467 0.931 . S
C463 C462 1.351 . S
C463 N464 1.373 . S
C463 H491 0.930 . S
N464 C463 1.373 . S
N464 C466 1.340 . S
N465 C462 1.368 . S
N465 C466 1.321 . S
N465 Co468 2.135 . S
C466 N464 1.340 . S
C466 N465 1.321 . S
C466 H490 0.930 . S
H467 C462 0.931 . S
Co468 N465 2.135 . S
Co468 N471 2.121 . S
Co468 O476 2.055 . S
Co468 O479 2.039 . S
Co468 N482 2.140 . S
C469 O470 1.227 . S
C469 O479 1.265 . S
O470 C469 1.227 . S
N471 Co468 2.121 . S
N471 C473 1.375 . S
N471 C474 1.313 . S
C472 C473 1.338 . S
C472 N475 1.377 . S
C472 H492 0.930 . S
C473 N471 1.375 . S
C473 C472 1.338 . S
C473 H477 0.931 . S
C474 N471 1.313 . S
C474 N475 1.344 . S
C474 H478 0.930 . S
N475 C472 1.377 . S
N475 C474 1.344 . S
O476 Co468 2.055 . S
O476 C480 1.253 . S
H477 C473 0.931 . S
H478 C474 0.930 . S
O479 Co468 2.039 . S
O479 C469 1.265 . S
C480 O476 1.253 . S
C480 O481 1.227 . S
O481 C480 1.227 . S
N482 Co468 2.140 . S
N482 C485 1.346 . S
N482 C486 1.345 . S
C483 C484 1.387 . S
C483 C487 1.391 . S
C484 C483 1.387 . S
C484 C485 1.369 . S
C484 H493 0.929 . S
C485 N482 1.346 . S
C485 C484 1.369 . S
C485 H488 0.928 . S
C486 N482 1.345 . S
C486 C487 1.371 . S
C486 H489 0.931 . S
C487 C483 1.391 . S
C487 C486 1.371 . S
C487 H494 0.930 . S
H488 C485 0.928 . S
H489 C486 0.931 . S
H490 C466 0.930 . S
H491 C463 0.930 . S
H492 C472 0.930 . S
H493 C484 0.929 . S
H494 C487 0.930 . S
C495 C496 1.351 . S
C495 N498 1.368 . S
C495 H500 0.931 . S
C496 C495 1.351 . S
C496 N497 1.373 . S
C496 H524 0.930 . S
N497 C496 1.373 . S
N497 C499 1.340 . S
N498 C495 1.368 . S
N498 C499 1.321 . S
N498 Co501 2.135 . S
C499 N497 1.340 . S
C499 N498 1.321 . S
C499 H523 0.930 . S
H500 C495 0.931 . S
Co501 N498 2.135 . S
Co501 N504 2.121 . S
Co501 O509 2.055 . S
Co501 O512 2.039 . S
Co501 N515 2.140 . S
C502 O503 1.227 . S
C502 O512 1.265 . S
O503 C502 1.227 . S
N504 Co501 2.121 . S
N504 C506 1.375 . S
N504 C507 1.313 . S
C505 C506 1.338 . S
C505 N508 1.377 . S
C505 H525 0.930 . S
C506 N504 1.375 . S
C506 C505 1.338 . S
C506 H510 0.931 . S
C507 N504 1.313 . S
C507 N508 1.344 . S
C507 H511 0.930 . S
N508 C505 1.377 . S
N508 C507 1.344 . S
O509 Co501 2.055 . S
O509 C513 1.253 . S
H510 C506 0.931 . S
H511 C507 0.930 . S
O512 Co501 2.039 . S
O512 C502 1.265 . S
C513 O509 1.253 . S
C513 O514 1.227 . S
O514 C513 1.227 . S
N515 Co501 2.140 . S
N515 C518 1.346 . S
N515 C519 1.345 . S
C516 C517 1.387 . S
C516 C520 1.391 . S
C517 C516 1.387 . S
C517 C518 1.369 . S
C517 H526 0.929 . S
C518 N515 1.346 . S
C518 C517 1.369 . S
C518 H521 0.928 . S
C519 N515 1.345 . S
C519 C520 1.371 . S
C519 H522 0.931 . S
C520 C516 1.391 . S
C520 C519 1.371 . S
C520 H527 0.930 . S
H521 C518 0.928 . S
H522 C519 0.931 . S
H523 C499 0.930 . S
H524 C496 0.930 . S
H525 C505 0.930 . S
H526 C517 0.929 . S
H527 C520 0.930 . S
C528 C529 1.351 . S
C528 N531 1.368 . S
C528 H533 0.931 . S
C529 C528 1.351 . S
C529 N530 1.373 . S
C529 H557 0.930 . S
N530 C529 1.373 . S
N530 C532 1.340 . S
N531 C528 1.368 . S
N531 C532 1.321 . S
N531 Co534 2.135 . S
C532 N530 1.340 . S
C532 N531 1.321 . S
C532 H556 0.930 . S
H533 C528 0.931 . S
Co534 N531 2.135 . S
Co534 N537 2.121 . S
Co534 O542 2.055 . S
Co534 O545 2.039 . S
Co534 N548 2.140 . S
C535 O536 1.227 . S
C535 O545 1.265 . S
O536 C535 1.227 . S
N537 Co534 2.121 . S
N537 C539 1.375 . S
N537 C540 1.313 . S
C538 C539 1.338 . S
C538 N541 1.377 . S
C538 H558 0.930 . S
C539 N537 1.375 . S
C539 C538 1.338 . S
C539 H543 0.931 . S
C540 N537 1.313 . S
C540 N541 1.344 . S
C540 H544 0.930 . S
N541 C538 1.377 . S
N541 C540 1.344 . S
O542 Co534 2.055 . S
O542 C546 1.253 . S
H543 C539 0.931 . S
H544 C540 0.930 . S
O545 Co534 2.039 . S
O545 C535 1.265 . S
C546 O542 1.253 . S
C546 O547 1.227 . S
O547 C546 1.227 . S
N548 Co534 2.140 . S
N548 C551 1.346 . S
N548 C552 1.345 . S
C549 C550 1.387 . S
C549 C553 1.391 . S
C550 C549 1.387 . S
C550 C551 1.369 . S
C550 H559 0.929 . S
C551 N548 1.346 . S
C551 C550 1.369 . S
C551 H554 0.928 . S
C552 N548 1.345 . S
C552 C553 1.371 . S
C552 H555 0.931 . S
C553 C549 1.391 . S
C553 C552 1.371 . S
C553 H560 0.930 . S
H554 C551 0.928 . S
H555 C552 0.931 . S
H556 C532 0.930 . S
H557 C529 0.930 . S
H558 C538 0.930 . S
H559 C550 0.929 . S
H560 C553 0.930 . S
C561 C562 1.351 . S
C561 N564 1.368 . S
C561 H566 0.931 . S
C562 C561 1.351 . S
C562 N563 1.373 . S
C562 H590 0.930 . S
N563 C562 1.373 . S
N563 C565 1.340 . S
N564 C561 1.368 . S
N564 C565 1.321 . S
N564 Co567 2.135 . S
C565 N563 1.340 . S
C565 N564 1.321 . S
C565 H589 0.930 . S
H566 C561 0.931 . S
Co567 N564 2.135 . S
Co567 N570 2.121 . S
Co567 O575 2.055 . S
Co567 O578 2.039 . S
Co567 N581 2.140 . S
C568 O569 1.227 . S
C568 O578 1.265 . S
O569 C568 1.227 . S
N570 Co567 2.121 . S
N570 C572 1.375 . S
N570 C573 1.313 . S
C571 C572 1.338 . S
C571 N574 1.377 . S
C571 H591 0.930 . S
C572 N570 1.375 . S
C572 C571 1.338 . S
C572 H576 0.931 . S
C573 N570 1.313 . S
C573 N574 1.344 . S
C573 H577 0.930 . S
N574 C571 1.377 . S
N574 C573 1.344 . S
O575 Co567 2.055 . S
O575 C579 1.253 . S
H576 C572 0.931 . S
H577 C573 0.930 . S
O578 Co567 2.039 . S
O578 C568 1.265 . S
C579 O575 1.253 . S
C579 O580 1.227 . S
O580 C579 1.227 . S
N581 Co567 2.140 . S
N581 C584 1.346 . S
N581 C585 1.345 . S
C582 C583 1.387 . S
C582 C586 1.391 . S
C583 C582 1.387 . S
C583 C584 1.369 . S
C583 H592 0.929 . S
C584 N581 1.346 . S
C584 C583 1.369 . S
C584 H587 0.928 . S
C585 N581 1.345 . S
C585 C586 1.371 . S
C585 H588 0.931 . S
C586 C582 1.391 . S
C586 C585 1.371 . S
C586 H593 0.930 . S
H587 C584 0.928 . S
H588 C585 0.931 . S
H589 C565 0.930 . S
H590 C562 0.930 . S
H591 C571 0.930 . S
H592 C583 0.929 . S
H593 C586 0.930 . S
C594 C595 1.351 . S
C594 N597 1.368 . S
C594 H599 0.931 . S
C595 C594 1.351 . S
C595 N596 1.373 . S
C595 H623 0.930 . S
N596 C595 1.373 . S
N596 C598 1.340 . S
N597 C594 1.368 . S
N597 C598 1.321 . S
N597 Co600 2.135 . S
C598 N596 1.340 . S
C598 N597 1.321 . S
C598 H622 0.930 . S
H599 C594 0.931 . S
Co600 N597 2.135 . S
Co600 N603 2.121 . S
Co600 O608 2.055 . S
Co600 O611 2.039 . S
Co600 N614 2.140 . S
C601 O602 1.227 . S
C601 O611 1.265 . S
O602 C601 1.227 . S
N603 Co600 2.121 . S
N603 C605 1.375 . S
N603 C606 1.313 . S
C604 C605 1.338 . S
C604 N607 1.377 . S
C604 H624 0.930 . S
C605 N603 1.375 . S
C605 C604 1.338 . S
C605 H609 0.931 . S
C606 N603 1.313 . S
C606 N607 1.344 . S
C606 H610 0.930 . S
N607 C604 1.377 . S
N607 C606 1.344 . S
O608 Co600 2.055 . S
O608 C612 1.253 . S
H609 C605 0.931 . S
H610 C606 0.930 . S
O611 Co600 2.039 . S
O611 C601 1.265 . S
C612 O608 1.253 . S
C612 O613 1.227 . S
O613 C612 1.227 . S
N614 Co600 2.140 . S
N614 C617 1.346 . S
N614 C618 1.345 . S
C615 C616 1.387 . S
C615 C619 1.391 . S
C616 C615 1.387 . S
C616 C617 1.369 . S
C616 H625 0.929 . S
C617 N614 1.346 . S
C617 C616 1.369 . S
C617 H620 0.928 . S
C618 N614 1.345 . S
C618 C619 1.371 . S
C618 H621 0.931 . S
C619 C615 1.391 . S
C619 C618 1.371 . S
C619 H626 0.930 . S
H620 C617 0.928 . S
H621 C618 0.931 . S
H622 C598 0.930 . S
H623 C595 0.930 . S
H624 C604 0.930 . S
H625 C616 0.929 . S
H626 C619 0.930 . S
C627 C628 1.351 . S
C627 N630 1.368 . S
C627 H632 0.931 . S
C628 C627 1.351 . S
C628 N629 1.373 . S
C628 H656 0.930 . S
N629 C628 1.373 . S
N629 C631 1.340 . S
N630 C627 1.368 . S
N630 C631 1.321 . S
N630 Co633 2.135 . S
C631 N629 1.340 . S
C631 N630 1.321 . S
C631 H655 0.930 . S
H632 C627 0.931 . S
Co633 N630 2.135 . S
Co633 N636 2.121 . S
Co633 O641 2.055 . S
Co633 O644 2.039 . S
Co633 N647 2.140 . S
C634 O635 1.227 . S
C634 O644 1.265 . S
O635 C634 1.227 . S
N636 Co633 2.121 . S
N636 C638 1.375 . S
N636 C639 1.313 . S
C637 C638 1.338 . S
C637 N640 1.377 . S
C637 H657 0.930 . S
C638 N636 1.375 . S
C638 C637 1.338 . S
C638 H642 0.931 . S
C639 N636 1.313 . S
C639 N640 1.344 . S
C639 H643 0.930 . S
N640 C637 1.377 . S
N640 C639 1.344 . S
O641 Co633 2.055 . S
O641 C645 1.253 . S
H642 C638 0.931 . S
H643 C639 0.930 . S
O644 Co633 2.039 . S
O644 C634 1.265 . S
C645 O641 1.253 . S
C645 O646 1.227 . S
O646 C645 1.227 . S
N647 Co633 2.140 . S
N647 C650 1.346 . S
N647 C651 1.345 . S
C648 C649 1.387 . S
C648 C652 1.391 . S
C649 C648 1.387 . S
C649 C650 1.369 . S
C649 H658 0.929 . S
C650 N647 1.346 . S
C650 C649 1.369 . S
C650 H653 0.928 . S
C651 N647 1.345 . S
C651 C652 1.371 . S
C651 H654 0.931 . S
C652 C648 1.391 . S
C652 C651 1.371 . S
C652 H659 0.930 . S
H653 C650 0.928 . S
H654 C651 0.931 . S
H655 C631 0.930 . S
H656 C628 0.930 . S
H657 C637 0.930 . S
H658 C649 0.929 . S
H659 C652 0.930 . S
C660 C661 1.351 . S
C660 N663 1.368 . S
C660 H665 0.931 . S
C661 C660 1.351 . S
C661 N662 1.373 . S
C661 H689 0.930 . S
N662 C661 1.373 . S
N662 C664 1.340 . S
N663 C660 1.368 . S
N663 C664 1.321 . S
N663 Co666 2.135 . S
C664 N662 1.340 . S
C664 N663 1.321 . S
C664 H688 0.930 . S
H665 C660 0.931 . S
Co666 N663 2.135 . S
Co666 N669 2.121 . S
Co666 O674 2.055 . S
Co666 O677 2.039 . S
Co666 N680 2.140 . S
C667 O668 1.227 . S
C667 O677 1.265 . S
O668 C667 1.227 . S
N669 Co666 2.121 . S
N669 C671 1.375 . S
N669 C672 1.313 . S
C670 C671 1.338 . S
C670 N673 1.377 . S
C670 H690 0.930 . S
C671 N669 1.375 . S
C671 C670 1.338 . S
C671 H675 0.931 . S
C672 N669 1.313 . S
C672 N673 1.344 . S
C672 H676 0.930 . S
N673 C670 1.377 . S
N673 C672 1.344 . S
O674 Co666 2.055 . S
O674 C678 1.253 . S
H675 C671 0.931 . S
H676 C672 0.930 . S
O677 Co666 2.039 . S
O677 C667 1.265 . S
C678 O674 1.253 . S
C678 O679 1.227 . S
O679 C678 1.227 . S
N680 Co666 2.140 . S
N680 C683 1.346 . S
N680 C684 1.345 . S
C681 C682 1.387 . S
C681 C685 1.391 . S
C682 C681 1.387 . S
C682 C683 1.369 . S
C682 H691 0.929 . S
C683 N680 1.346 . S
C683 C682 1.369 . S
C683 H686 0.928 . S
C684 N680 1.345 . S
C684 C685 1.371 . S
C684 H687 0.931 . S
C685 C681 1.391 . S
C685 C684 1.371 . S
C685 H692 0.930 . S
H686 C683 0.928 . S
H687 C684 0.931 . S
H688 C664 0.930 . S
H689 C661 0.930 . S
H690 C670 0.930 . S
H691 C682 0.929 . S
H692 C685 0.930 . S
C693 C694 1.351 . S
C693 N696 1.368 . S
C693 H698 0.931 . S
C694 C693 1.351 . S
C694 N695 1.373 . S
C694 H722 0.930 . S
N695 C694 1.373 . S
N695 C697 1.340 . S
N696 C693 1.368 . S
N696 C697 1.321 . S
N696 Co699 2.135 . S
C697 N695 1.340 . S
C697 N696 1.321 . S
C697 H721 0.930 . S
H698 C693 0.931 . S
Co699 N696 2.135 . S
Co699 N702 2.121 . S
Co699 O707 2.055 . S
Co699 O710 2.039 . S
Co699 N713 2.140 . S
C700 O701 1.227 . S
C700 O710 1.265 . S
O701 C700 1.227 . S
N702 Co699 2.121 . S
N702 C704 1.375 . S
N702 C705 1.313 . S
C703 C704 1.338 . S
C703 N706 1.377 . S
C703 H723 0.930 . S
C704 N702 1.375 . S
C704 C703 1.338 . S
C704 H708 0.931 . S
C705 N702 1.313 . S
C705 N706 1.344 . S
C705 H709 0.930 . S
N706 C703 1.377 . S
N706 C705 1.344 . S
O707 Co699 2.055 . S
O707 C711 1.253 . S
H708 C704 0.931 . S
H709 C705 0.930 . S
O710 Co699 2.039 . S
O710 C700 1.265 . S
C711 O707 1.253 . S
C711 O712 1.227 . S
O712 C711 1.227 . S
N713 Co699 2.140 . S
N713 C716 1.346 . S
N713 C717 1.345 . S
C714 C715 1.387 . S
C714 C718 1.391 . S
C715 C714 1.387 . S
C715 C716 1.369 . S
C715 H724 0.929 . S
C716 N713 1.346 . S
C716 C715 1.369 . S
C716 H719 0.928 . S
C717 N713 1.345 . S
C717 C718 1.371 . S
C717 H720 0.931 . S
C718 C714 1.391 . S
C718 C717 1.371 . S
C718 H725 0.930 . S
H719 C716 0.928 . S
H720 C717 0.931 . S
H721 C697 0.930 . S
H722 C694 0.930 . S
H723 C703 0.930 . S
H724 C715 0.929 . S
H725 C718 0.930 . S
C726 C727 1.351 . S
C726 N729 1.368 . S
C726 H731 0.931 . S
C727 C726 1.351 . S
C727 N728 1.373 . S
C727 H755 0.930 . S
N728 C727 1.373 . S
N728 C730 1.340 . S
N729 C726 1.368 . S
N729 C730 1.321 . S
N729 Co732 2.135 . S
C730 N728 1.340 . S
C730 N729 1.321 . S
C730 H754 0.930 . S
H731 C726 0.931 . S
Co732 N729 2.135 . S
Co732 N735 2.121 . S
Co732 O740 2.055 . S
Co732 O743 2.039 . S
Co732 N746 2.140 . S
C733 O734 1.227 . S
C733 O743 1.265 . S
O734 C733 1.227 . S
N735 Co732 2.121 . S
N735 C737 1.375 . S
N735 C738 1.313 . S
C736 C737 1.338 . S
C736 N739 1.377 . S
C736 H756 0.930 . S
C737 N735 1.375 . S
C737 C736 1.338 . S
C737 H741 0.931 . S
C738 N735 1.313 . S
C738 N739 1.344 . S
C738 H742 0.930 . S
N739 C736 1.377 . S
N739 C738 1.344 . S
O740 Co732 2.055 . S
O740 C744 1.253 . S
H741 C737 0.931 . S
H742 C738 0.930 . S
O743 Co732 2.039 . S
O743 C733 1.265 . S
C744 O740 1.253 . S
C744 O745 1.227 . S
O745 C744 1.227 . S
N746 Co732 2.140 . S
N746 C749 1.346 . S
N746 C750 1.345 . S
C747 C748 1.387 . S
C747 C751 1.391 . S
C748 C747 1.387 . S
C748 C749 1.369 . S
C748 H757 0.929 . S
C749 N746 1.346 . S
C749 C748 1.369 . S
C749 H752 0.928 . S
C750 N746 1.345 . S
C750 C751 1.371 . S
C750 H753 0.931 . S
C751 C747 1.391 . S
C751 C750 1.371 . S
C751 H758 0.930 . S
H752 C749 0.928 . S
H753 C750 0.931 . S
H754 C730 0.930 . S
H755 C727 0.930 . S
H756 C736 0.930 . S
H757 C748 0.929 . S
H758 C751 0.930 . S
C759 C760 1.351 . S
C759 N762 1.368 . S
C759 H764 0.931 . S
C760 C759 1.351 . S
C760 N761 1.373 . S
C760 H788 0.930 . S
N761 C760 1.373 . S
N761 C763 1.340 . S
N762 C759 1.368 . S
N762 C763 1.321 . S
N762 Co765 2.135 . S
C763 N761 1.340 . S
C763 N762 1.321 . S
C763 H787 0.930 . S
H764 C759 0.931 . S
Co765 N762 2.135 . S
Co765 N768 2.121 . S
Co765 O773 2.055 . S
Co765 O776 2.039 . S
Co765 N779 2.140 . S
C766 O767 1.227 . S
C766 O776 1.265 . S
O767 C766 1.227 . S
N768 Co765 2.121 . S
N768 C770 1.375 . S
N768 C771 1.313 . S
C769 C770 1.338 . S
C769 N772 1.377 . S
C769 H789 0.930 . S
C770 N768 1.375 . S
C770 C769 1.338 . S
C770 H774 0.931 . S
C771 N768 1.313 . S
C771 N772 1.344 . S
C771 H775 0.930 . S
N772 C769 1.377 . S
N772 C771 1.344 . S
O773 Co765 2.055 . S
O773 C777 1.253 . S
H774 C770 0.931 . S
H775 C771 0.930 . S
O776 Co765 2.039 . S
O776 C766 1.265 . S
C777 O773 1.253 . S
C777 O778 1.227 . S
O778 C777 1.227 . S
N779 Co765 2.140 . S
N779 C782 1.346 . S
N779 C783 1.345 . S
C780 C781 1.387 . S
C780 C784 1.391 . S
C781 C780 1.387 . S
C781 C782 1.369 . S
C781 H790 0.929 . S
C782 N779 1.346 . S
C782 C781 1.369 . S
C782 H785 0.928 . S
C783 N779 1.345 . S
C783 C784 1.371 . S
C783 H786 0.931 . S
C784 C780 1.391 . S
C784 C783 1.371 . S
C784 H791 0.930 . S
H785 C782 0.928 . S
H786 C783 0.931 . S
H787 C763 0.930 . S
H788 C760 0.930 . S
H789 C769 0.930 . S
H790 C781 0.929 . S
H791 C784 0.930 . S
C792 C793 1.369 . S
C792 C794 1.419 . S
C792 H796 0.930 . S
C793 C792 1.369 . S
C793 C802 1.429 . S
C794 C792 1.419 . S
C794 C795 1.363 . S
C794 H797 0.929 . S
C795 C794 1.363 . S
C795 C801 1.428 . S
H796 C792 0.930 . S
H797 C794 0.929 . S
S798 N799 1.613 . S
S798 N800 1.610 . S
N799 S798 1.613 . S
N799 C802 1.350 . S
N800 S798 1.610 . S
N800 C801 1.351 . S
C801 C795 1.428 . S
C801 N800 1.351 . S
C801 C802 1.434 . S
C802 C793 1.429 . S
C802 N799 1.350 . S
C802 C801 1.434 . S
C803 C804 1.369 . S
C803 C805 1.419 . S
C803 H807 0.930 . S
C804 C803 1.369 . S
C804 C813 1.429 . S
C805 C803 1.419 . S
C805 C806 1.363 . S
C805 H808 0.929 . S
C806 C805 1.363 . S
C806 C812 1.428 . S
H807 C803 0.930 . S
H808 C805 0.929 . S
S809 N810 1.613 . S
S809 N811 1.610 . S
N810 S809 1.613 . S
N810 C813 1.350 . S
N811 S809 1.610 . S
N811 C812 1.351 . S
C812 C806 1.428 . S
C812 N811 1.351 . S
C812 C813 1.434 . S
C813 C804 1.429 . S
C813 N810 1.350 . S
C813 C812 1.434 . S
C814 C815 1.369 . S
C814 C816 1.419 . S
C814 H818 0.930 . S
C815 C814 1.369 . S
C815 C824 1.429 . S
C816 C814 1.419 . S
C816 C817 1.363 . S
C816 H819 0.929 . S
C817 C816 1.363 . S
C817 C823 1.428 . S
H818 C814 0.930 . S
H819 C816 0.929 . S
S820 N821 1.613 . S
S820 N822 1.610 . S
N821 S820 1.613 . S
N821 C824 1.350 . S
N822 S820 1.610 . S
N822 C823 1.351 . S
C823 C817 1.428 . S
C823 N822 1.351 . S
C823 C824 1.434 . S
C824 C815 1.429 . S
C824 N821 1.350 . S
C824 C823 1.434 . S
C825 C826 1.369 . S
C825 C827 1.419 . S
C825 H829 0.930 . S
C826 C825 1.369 . S
C826 C835 1.429 . S
C827 C825 1.419 . S
C827 C828 1.363 . S
C827 H830 0.929 . S
C828 C827 1.363 . S
C828 C834 1.428 . S
H829 C825 0.930 . S
H830 C827 0.929 . S
S831 N832 1.613 . S
S831 N833 1.610 . S
N832 S831 1.613 . S
N832 C835 1.350 . S
N833 S831 1.610 . S
N833 C834 1.351 . S
C834 C828 1.428 . S
C834 N833 1.351 . S
C834 C835 1.434 . S
C835 C826 1.429 . S
C835 N832 1.350 . S
C835 C834 1.434 . S
C836 C837 1.369 . S
C836 C838 1.419 . S
C836 H840 0.930 . S
C837 C836 1.369 . S
C837 C846 1.429 . S
C838 C836 1.419 . S
C838 C839 1.363 . S
C838 H841 0.929 . S
C839 C838 1.363 . S
C839 C845 1.428 . S
H840 C836 0.930 . S
H841 C838 0.929 . S
S842 N843 1.613 . S
S842 N844 1.610 . S
N843 S842 1.613 . S
N843 C846 1.350 . S
N844 S842 1.610 . S
N844 C845 1.351 . S
C845 C839 1.428 . S
C845 N844 1.351 . S
C845 C846 1.434 . S
C846 C837 1.429 . S
C846 N843 1.350 . S
C846 C845 1.434 . S
C847 C848 1.369 . S
C847 C849 1.419 . S
C847 H851 0.930 . S
C848 C847 1.369 . S
C848 C857 1.429 . S
C849 C847 1.419 . S
C849 C850 1.363 . S
C849 H852 0.929 . S
C850 C849 1.363 . S
C850 C856 1.428 . S
H851 C847 0.930 . S
H852 C849 0.929 . S
S853 N854 1.613 . S
S853 N855 1.610 . S
N854 S853 1.613 . S
N854 C857 1.350 . S
N855 S853 1.610 . S
N855 C856 1.351 . S
C856 C850 1.428 . S
C856 N855 1.351 . S
C856 C857 1.434 . S
C857 C848 1.429 . S
C857 N854 1.350 . S
C857 C856 1.434 . S
C858 C859 1.369 . S
C858 C860 1.419 . S
C858 H862 0.930 . S
C859 C858 1.369 . S
C859 C868 1.429 . S
C860 C858 1.419 . S
C860 C861 1.363 . S
C860 H863 0.929 . S
C861 C860 1.363 . S
C861 C867 1.428 . S
H862 C858 0.930 . S
H863 C860 0.929 . S
S864 N865 1.613 . S
S864 N866 1.610 . S
N865 S864 1.613 . S
N865 C868 1.350 . S
N866 S864 1.610 . S
N866 C867 1.351 . S
C867 C861 1.428 . S
C867 N866 1.351 . S
C867 C868 1.434 . S
C868 C859 1.429 . S
C868 N865 1.350 . S
C868 C867 1.434 . S
C869 C870 1.369 . S
C869 C871 1.419 . S
C869 H873 0.930 . S
C870 C869 1.369 . S
C870 C879 1.429 . S
C871 C869 1.419 . S
C871 C872 1.363 . S
C871 H874 0.929 . S
C872 C871 1.363 . S
C872 C878 1.428 . S
H873 C869 0.930 . S
H874 C871 0.929 . S
S875 N876 1.613 . S
S875 N877 1.610 . S
N876 S875 1.613 . S
N876 C879 1.350 . S
N877 S875 1.610 . S
N877 C878 1.351 . S
C878 C872 1.428 . S
C878 N877 1.351 . S
C878 C879 1.434 . S
C879 C870 1.429 . S
C879 N876 1.350 . S
C879 C878 1.434 . S
C880 C881 1.369 . S
C880 C882 1.419 . S
C880 H884 0.930 . S
C881 C880 1.369 . S
C881 C890 1.429 . S
C882 C880 1.419 . S
C882 C883 1.363 . S
C882 H885 0.929 . S
C883 C882 1.363 . S
C883 C889 1.428 . S
H884 C880 0.930 . S
H885 C882 0.929 . S
S886 N887 1.613 . S
S886 N888 1.610 . S
N887 S886 1.613 . S
N887 C890 1.350 . S
N888 S886 1.610 . S
N888 C889 1.351 . S
C889 C883 1.428 . S
C889 N888 1.351 . S
C889 C890 1.434 . S
C890 C881 1.429 . S
C890 N887 1.350 . S
C890 C889 1.434 . S
C891 C892 1.369 . S
C891 C893 1.419 . S
C891 H895 0.930 . S
C892 C891 1.369 . S
C892 C901 1.429 . S
C893 C891 1.419 . S
C893 C894 1.363 . S
C893 H896 0.929 . S
C894 C893 1.363 . S
C894 C900 1.428 . S
H895 C891 0.930 . S
H896 C893 0.929 . S
S897 N898 1.613 . S
S897 N899 1.610 . S
N898 S897 1.613 . S
N898 C901 1.350 . S
N899 S897 1.610 . S
N899 C900 1.351 . S
C900 C894 1.428 . S
C900 N899 1.351 . S
C900 C901 1.434 . S
C901 C892 1.429 . S
C901 N898 1.350 . S
C901 C900 1.434 . S
C902 C903 1.369 . S
C902 C904 1.419 . S
C902 H906 0.930 . S
C903 C902 1.369 . S
C903 C912 1.429 . S
C904 C902 1.419 . S
C904 C905 1.363 . S
C904 H907 0.929 . S
C905 C904 1.363 . S
C905 C911 1.428 . S
H906 C902 0.930 . S
H907 C904 0.929 . S
S908 N909 1.613 . S
S908 N910 1.610 . S
N909 S908 1.613 . S
N909 C912 1.350 . S
N910 S908 1.610 . S
N910 C911 1.351 . S
C911 C905 1.428 . S
C911 N910 1.351 . S
C911 C912 1.434 . S
C912 C903 1.429 . S
C912 N909 1.350 . S
C912 C911 1.434 . S
C913 C914 1.369 . S
C913 C915 1.419 . S
C913 H917 0.930 . S
C914 C913 1.369 . S
C914 C923 1.429 . S
C915 C913 1.419 . S
C915 C916 1.363 . S
C915 H918 0.929 . S
C916 C915 1.363 . S
C916 C922 1.428 . S
H917 C913 0.930 . S
H918 C915 0.929 . S
S919 N920 1.613 . S
S919 N921 1.610 . S
N920 S919 1.613 . S
N920 C923 1.350 . S
N921 S919 1.610 . S
N921 C922 1.351 . S
C922 C916 1.428 . S
C922 N921 1.351 . S
C922 C923 1.434 . S
C923 C914 1.429 . S
C923 N920 1.350 . S
C923 C922 1.434 . S
C924 C925 1.369 . S
C924 C926 1.419 1_565 S
C924 H928 0.930 . S
C925 C924 1.369 . S
C925 C934 1.429 1_565 S
C926 C924 1.419 1_545 S
C926 C927 1.363 . S
C926 H929 0.929 . S
C927 C926 1.363 . S
C927 C933 1.428 . S
H928 C924 0.930 . S
H929 C926 0.929 . S
S930 N931 1.613 . S
S930 N932 1.610 . S
N931 S930 1.613 . S
N931 C934 1.350 . S
N932 S930 1.610 . S
N932 C933 1.351 . S
C933 C927 1.428 . S
C933 N932 1.351 . S
C933 C934 1.434 . S
C934 C925 1.429 1_545 S
C934 N931 1.350 . S
C934 C933 1.434 . S
C935 C936 1.369 . S
C935 C937 1.419 . S
C935 H939 0.930 . S
C936 C935 1.369 . S
C936 C945 1.429 . S
C937 C935 1.419 . S
C937 C938 1.363 1_655 S
C937 H940 0.929 1_655 S
C938 C937 1.363 1_455 S
C938 C944 1.428 1_455 S
H939 C935 0.930 . S
H940 C937 0.929 1_455 S
S941 N942 1.613 . S
S941 N943 1.610 1_655 S
N942 S941 1.613 . S
N942 C945 1.350 . S
N943 S941 1.610 1_455 S
N943 C944 1.351 1_455 S
C944 C938 1.428 1_655 S
C944 N943 1.351 1_655 S
C944 C945 1.434 . S
C945 C936 1.429 . S
C945 N942 1.350 . S
C945 C944 1.434 . S
C946 C947 1.369 . S
C946 C948 1.419 . S
C946 H950 0.930 . S
C947 C946 1.369 . S
C947 C956 1.429 . S
C948 C946 1.419 . S
C948 C949 1.363 1_565 S
C948 H951 0.929 1_565 S
C949 C948 1.363 1_545 S
C949 C955 1.428 1_545 S
H950 C946 0.930 . S
H951 C948 0.929 1_545 S
S952 N953 1.613 . S
S952 N954 1.610 1_565 S
N953 S952 1.613 . S
N953 C956 1.350 . S
N954 S952 1.610 1_545 S
N954 C955 1.351 1_545 S
C955 C949 1.428 1_565 S
C955 N954 1.351 1_565 S
C955 C956 1.434 . S
C956 C947 1.429 . S
C956 N953 1.350 . S
C956 C955 1.434 . S
C957 C958 1.369 . S
C957 C959 1.419 1_655 S
C957 H961 0.930 . S
C958 C957 1.369 . S
C958 C967 1.429 1_655 S
C959 C957 1.419 1_455 S
C959 C960 1.363 . S
C959 H962 0.929 . S
C960 C959 1.363 . S
C960 C966 1.428 . S
H961 C957 0.930 . S
H962 C959 0.929 . S
S963 N964 1.613 . S
S963 N965 1.610 . S
N964 S963 1.613 . S
N964 C967 1.350 . S
N965 S963 1.610 . S
N965 C966 1.351 . S
C966 C960 1.428 . S
C966 N965 1.351 . S
C966 C967 1.434 . S
C967 C958 1.429 1_455 S
C967 N964 1.350 . S
C967 C966 1.434 . S
C968 C969 1.369 1_565 S
C968 C970 1.419 . S
C968 H972 0.930 . S
C969 C968 1.369 1_545 S
C969 C978 1.429 . S
C970 C968 1.419 . S
C970 C971 1.363 . S
C970 H973 0.929 . S
C971 C970 1.363 . S
C971 C977 1.428 . S
H972 C968 0.930 . S
H973 C970 0.929 . S
S974 N975 1.597 1_565 S
S974 N976 1.635 . S
N975 S974 1.597 1_545 S
N975 C978 1.350 . S
N976 S974 1.635 . S
N976 C977 1.351 . S
C977 C971 1.428 . S
C977 N976 1.351 . S
C977 C978 1.434 1_565 S
C978 C969 1.429 . S
C978 N975 1.350 . S
C978 C977 1.434 1_545 S
C979 C980 1.369 . S
C979 C981 1.419 . S
C979 H983 0.930 . S
C980 C979 1.369 . S
C980 C989 1.429 . S
C981 C979 1.419 . S
C981 C982 1.363 1_455 S
C981 H984 0.929 . S
C982 C981 1.363 1_655 S
C982 C988 1.428 . S
H983 C979 0.930 . S
H984 C981 0.929 . S
S985 N986 1.613 . S
S985 N987 1.610 1_455 S
N986 S985 1.613 . S
N986 C989 1.350 . S
N987 S985 1.610 1_655 S
N987 C988 1.351 . S
C988 C982 1.428 . S
C988 N987 1.351 . S
C988 C989 1.434 1_655 S
C989 C980 1.429 . S
C989 N986 1.350 . S
C989 C988 1.434 1_455 S
C990 C991 1.369 1_545 S
C990 C992 1.419 . S
C990 H994 0.930 . S
C991 C990 1.369 1_565 S
C991 C1000 1.429 . S
C992 C990 1.419 . S
C992 C993 1.363 . S
C992 H995 0.929 . S
C993 C992 1.363 . S
C993 C999 1.428 . S
H994 C990 0.930 . S
H995 C992 0.929 . S
S996 N997 1.613 . S
S996 N998 1.610 1_565 S
N997 S996 1.613 . S
N997 C1000 1.350 . S
N998 S996 1.610 1_545 S
N998 C999 1.351 . S
C999 C993 1.428 . S
C999 N998 1.351 . S
C999 C1000 1.434 1_545 S
C1000 C991 1.429 . S
C1000 N997 1.350 . S
C1000 C999 1.434 1_565 S
C1001 C1002 1.369 1_655 S
C1001 C1003 1.419 . S
C1001 H1005 0.930 . S
C1002 C1001 1.369 1_455 S
C1002 C1011 1.433 . S
C1003 C1001 1.419 . S
C1003 C1004 1.363 . S
C1003 H1006 0.929 . S
C1004 C1003 1.363 . S
C1004 C1010 1.428 . S
H1005 C1001 0.930 . S
H1006 C1003 0.929 . S
S1007 N1008 1.613 1_655 S
S1007 N1009 1.610 . S
N1008 S1007 1.613 1_455 S
N1008 C1011 1.357 . S
N1009 S1007 1.610 . S
N1009 C1010 1.351 . S
C1010 C1004 1.428 . S
C1010 N1009 1.351 . S
C1010 C1011 1.421 1_655 S
C1011 C1002 1.433 . S
C1011 N1008 1.357 . S
C1011 C1010 1.421 1_455 S
C1012 C1013 1.373 . S
C1012 C1014 1.409 1_556 S
C1012 H1016 0.936 . S
C1013 C1012 1.373 . S
C1013 C1022 1.429 1_556 S
C1014 C1012 1.409 1_554 S
C1014 C1015 1.363 . S
C1014 H1017 0.929 . S
C1015 C1014 1.363 . S
C1015 C1021 1.428 . S
H1016 C1012 0.936 . S
H1017 C1014 0.929 . S
S1018 N1019 1.613 . S
S1018 N1020 1.610 . S
N1019 S1018 1.613 . S
N1019 C1022 1.350 . S
N1020 S1018 1.610 . S
N1020 C1021 1.351 . S
C1021 C1015 1.428 . S
C1021 N1020 1.351 . S
C1021 C1022 1.434 . S
C1022 C1013 1.429 1_554 S
C1022 N1019 1.350 . S
C1022 C1021 1.434 . S
C1023 C1024 1.369 . S
C1023 C1025 1.419 1_554 S
C1023 H1027 0.930 . S
C1024 C1023 1.369 . S
C1024 C1033 1.429 . S
C1025 C1023 1.419 1_556 S
C1025 C1026 1.363 . S
C1025 H1028 0.929 . S
C1026 C1025 1.363 . S
C1026 C1032 1.428 1_556 S
H1027 C1023 0.930 . S
H1028 C1025 0.929 . S
S1029 N1030 1.613 . S
S1029 N1031 1.610 . S
N1030 S1029 1.613 . S
N1030 C1033 1.350 . S
N1031 S1029 1.610 . S
N1031 C1032 1.351 . S
C1032 C1026 1.428 1_554 S
C1032 N1031 1.351 . S
C1032 C1033 1.434 . S
C1033 C1024 1.429 . S
C1033 N1030 1.350 . S
C1033 C1032 1.434 . S
C1034 C1035 1.369 1_554 S
C1034 C1036 1.419 . S
C1034 H1038 0.930 1_554 S
C1035 C1034 1.369 1_556 S
C1035 C1044 1.429 1_556 S
C1036 C1034 1.419 . S
C1036 C1037 1.363 . S
C1036 H1039 0.929 . S
C1037 C1036 1.363 . S
C1037 C1043 1.428 . S
H1038 C1034 0.930 1_556 S
H1039 C1036 0.929 . S
S1040 N1041 1.613 1_554 S
S1040 N1042 1.610 . S
N1041 S1040 1.613 1_556 S
N1041 C1044 1.350 1_556 S
N1042 S1040 1.610 . S
N1042 C1043 1.351 . S
C1043 C1037 1.428 . S
C1043 N1042 1.351 . S
C1043 C1044 1.434 . S
C1044 C1035 1.429 1_554 S
C1044 N1041 1.350 1_554 S
C1044 C1043 1.434 . S
C1045 C1046 1.369 . S
C1045 C1047 1.402 1_554 S
C1045 H1049 0.930 . S
C1046 C1045 1.369 . S
C1046 C1055 1.429 . S
C1047 C1045 1.402 1_556 S
C1047 C1048 1.370 . S
C1047 H1050 0.940 . S
C1048 C1047 1.370 . S
C1048 C1054 1.428 1_556 S
H1049 C1045 0.930 . S
H1050 C1047 0.940 . S
S1051 N1052 1.613 . S
S1051 N1053 1.610 . S
N1052 S1051 1.613 . S
N1052 C1055 1.350 . S
N1053 S1051 1.610 . S
N1053 C1054 1.351 . S
C1054 C1048 1.428 1_554 S
C1054 N1053 1.351 . S
C1054 C1055 1.434 . S
C1055 C1046 1.429 . S
C1055 N1052 1.350 . S
C1055 C1054 1.434 . S
C1056 C1057 1.369 1_556 S
C1056 C1058 1.419 . S
C1056 H1060 0.930 1_556 S
C1057 C1056 1.369 1_554 S
C1057 C1066 1.429 1_554 S
C1058 C1056 1.419 . S
C1058 C1059 1.363 . S
C1058 H1061 0.929 . S
C1059 C1058 1.363 . S
C1059 C1065 1.428 . S
H1060 C1056 0.930 1_554 S
H1061 C1058 0.929 . S
S1062 N1063 1.613 1_556 S
S1062 N1064 1.610 . S
N1063 S1062 1.613 1_554 S
N1063 C1066 1.350 1_554 S
N1064 S1062 1.610 . S
N1064 C1065 1.351 . S
C1065 C1059 1.428 . S
C1065 N1064 1.351 . S
C1065 C1066 1.434 . S
C1066 C1057 1.429 1_556 S
C1066 N1063 1.350 1_556 S
C1066 C1065 1.434 . S
C1067 C1068 1.369 . S
C1067 C1069 1.419 . S
C1067 H1071 0.930 . S
C1068 C1067 1.369 . S
C1068 C1077 1.429 . S
C1069 C1067 1.419 . S
C1069 C1070 1.363 1_556 S
C1069 H1072 0.929 1_556 S
C1070 C1069 1.363 1_554 S
C1070 C1076 1.428 1_554 S
H1071 C1067 0.930 . S
H1072 C1069 0.929 1_554 S
S1073 N1074 1.613 . S
S1073 N1075 1.610 1_556 S
N1074 S1073 1.613 . S
N1074 C1077 1.350 . S
N1075 S1073 1.610 1_554 S
N1075 C1076 1.351 1_554 S
C1076 C1070 1.428 1_556 S
C1076 N1075 1.351 1_556 S
C1076 C1077 1.434 . S
C1077 C1068 1.429 . S
C1077 N1074 1.350 . S
C1077 C1076 1.434 . S
C1078 C1079 1.369 1_556 S
C1078 C1080 1.419 . S
C1078 H1082 0.944 . S
C1079 C1078 1.369 1_554 S
C1079 C1088 1.419 1_554 S
C1080 C1078 1.419 . S
C1080 C1081 1.363 . S
C1080 H1083 0.929 . S
C1081 C1080 1.363 . S
C1081 C1087 1.428 . S
H1082 C1078 0.944 . S
H1083 C1080 0.929 . S
S1084 N1085 1.613 1_556 S
S1084 N1086 1.610 . S
N1085 S1084 1.613 1_554 S
N1085 C1088 1.337 1_554 S
N1086 S1084 1.610 . S
N1086 C1087 1.351 . S
C1087 C1081 1.428 . S
C1087 N1086 1.351 . S
C1087 C1088 1.460 . S
C1088 C1079 1.419 1_556 S
C1088 N1085 1.337 1_556 S
C1088 C1087 1.460 . S
C1089 C1090 1.369 . S
C1089 C1091 1.420 1_556 S
C1089 H1093 0.930 . S
C1090 C1089 1.369 . S
C1090 C1099 1.429 . S
C1091 C1089 1.420 1_554 S
C1091 C1092 1.363 . S
C1091 H1094 0.928 . S
C1092 C1091 1.363 . S
C1092 C1098 1.428 1_554 S
H1093 C1089 0.930 . S
H1094 C1091 0.928 . S
S1095 N1096 1.613 . S
S1095 N1097 1.610 . S
N1096 S1095 1.613 . S
N1096 C1099 1.350 . S
N1097 S1095 1.610 . S
N1097 C1098 1.351 . S
C1098 C1092 1.428 1_556 S
C1098 N1097 1.351 . S
C1098 C1099 1.434 . S
C1099 C1090 1.429 . S
C1099 N1096 1.350 . S
C1099 C1098 1.434 . S
C1100 C1101 1.369 . S
C1100 C1102 1.419 1_655 S
C1100 H1104 0.930 . S
C1101 C1100 1.369 . S
C1101 C1110 1.429 1_655 S
C1102 C1100 1.419 1_455 S
C1102 C1103 1.363 . S
C1102 H1105 0.929 . S
C1103 C1102 1.363 . S
C1103 C1109 1.428 . S
H1104 C1100 0.930 . S
H1105 C1102 0.929 . S
S1106 N1107 1.613 . S
S1106 N1108 1.610 . S
N1107 S1106 1.613 . S
N1107 C1110 1.350 . S
N1108 S1106 1.610 . S
N1108 C1109 1.351 . S
C1109 C1103 1.428 . S
C1109 N1108 1.351 . S
C1109 C1110 1.434 . S
C1110 C1101 1.429 1_455 S
C1110 N1107 1.350 . S
C1110 C1109 1.434 . S
C1111 C1112 1.369 1_455 S
C1111 C1113 1.419 . S
C1111 H1115 0.940 . S
C1112 C1111 1.369 1_655 S
C1112 C1121 1.416 1_655 S
C1113 C1111 1.419 . S
C1113 C1114 1.363 . S
C1113 H1116 0.929 . S
C1114 C1113 1.363 . S
C1114 C1120 1.428 . S
H1115 C1111 0.940 . S
H1116 C1113 0.929 . S
S1117 N1118 1.613 1_455 S
S1117 N1119 1.610 . S
N1118 S1117 1.613 1_655 S
N1118 C1121 1.334 1_655 S
N1119 S1117 1.610 . S
N1119 C1120 1.351 . S
C1120 C1114 1.428 . S
C1120 N1119 1.351 . S
C1120 C1121 1.465 . S
C1121 C1112 1.416 1_455 S
C1121 N1118 1.334 1_455 S
C1121 C1120 1.465 . S
C1122 C1123 1.369 . S
C1122 C1124 1.419 . S
C1122 H1126 0.930 . S
C1123 C1122 1.369 . S
C1123 C1132 1.429 . S
C1124 C1122 1.419 . S
C1124 C1125 1.363 1_545 S
C1124 H1127 0.929 1_545 S
C1125 C1124 1.363 1_565 S
C1125 C1131 1.428 1_565 S
H1126 C1122 0.930 . S
H1127 C1124 0.929 1_565 S
S1128 N1129 1.613 . S
S1128 N1130 1.610 1_545 S
N1129 S1128 1.613 . S
N1129 C1132 1.350 . S
N1130 S1128 1.610 1_565 S
N1130 C1131 1.351 1_565 S
C1131 C1125 1.428 1_545 S
C1131 N1130 1.351 1_545 S
C1131 C1132 1.434 . S
C1132 C1123 1.429 . S
C1132 N1129 1.350 . S
C1132 C1131 1.434 . S
C1133 C1134 1.369 . S
C1133 C1135 1.419 . S
C1133 H1137 0.930 . S
C1134 C1133 1.369 . S
C1134 C1143 1.429 . S
C1135 C1133 1.419 . S
C1135 C1136 1.363 1_655 S
C1135 H1138 0.929 . S
C1136 C1135 1.363 1_455 S
C1136 C1142 1.428 . S
H1137 C1133 0.930 . S
H1138 C1135 0.929 . S
S1139 N1140 1.613 1_455 S
S1139 N1141 1.610 . S
N1140 S1139 1.613 1_655 S
N1140 C1143 1.350 . S
N1141 S1139 1.610 . S
N1141 C1142 1.351 . S
C1142 C1136 1.428 . S
C1142 N1141 1.351 . S
C1142 C1143 1.434 1_455 S
C1143 C1134 1.429 . S
C1143 N1140 1.350 . S
C1143 C1142 1.434 1_655 S
C1144 C1145 1.369 1_565 S
C1144 C1146 1.419 . S
C1144 H1148 0.930 1_565 S
C1145 C1144 1.369 1_545 S
C1145 C1154 1.429 1_545 S
C1146 C1144 1.419 . S
C1146 C1147 1.363 . S
C1146 H1149 0.929 . S
C1147 C1146 1.363 . S
C1147 C1153 1.428 . S
H1148 C1144 0.930 1_545 S
H1149 C1146 0.929 . S
S1150 N1151 1.613 1_565 S
S1150 N1152 1.610 . S
N1151 S1150 1.613 1_545 S
N1151 C1154 1.350 1_545 S
N1152 S1150 1.610 . S
N1152 C1153 1.351 . S
C1153 C1147 1.428 . S
C1153 N1152 1.351 . S
C1153 C1154 1.434 . S
C1154 C1145 1.429 1_565 S
C1154 N1151 1.350 1_565 S
C1154 C1153 1.434 . S
C1155 C1156 1.369 1_655 S
C1155 C1157 1.419 . S
C1155 H1159 0.930 . S
C1156 C1155 1.369 1_455 S
C1156 C1165 1.420 1_455 S
C1157 C1155 1.419 . S
C1157 C1158 1.363 . S
C1157 H1160 0.929 . S
C1158 C1157 1.363 . S
C1158 C1164 1.428 . S
H1159 C1155 0.930 . S
H1160 C1157 0.929 . S
S1161 N1162 1.613 1_655 S
S1161 N1163 1.610 . S
N1162 S1161 1.613 1_455 S
N1162 C1165 1.339 1_455 S
N1163 S1161 1.610 . S
N1163 C1164 1.351 . S
C1164 C1158 1.428 . S
C1164 N1163 1.351 . S
C1164 C1165 1.456 . S
C1165 C1156 1.420 1_655 S
C1165 N1162 1.339 1_655 S
C1165 C1164 1.456 . S
C1166 C1167 1.373 . S
C1166 C1168 1.409 1_545 S
C1166 H1170 0.936 . S
C1167 C1166 1.373 . S
C1167 C1176 1.429 1_545 S
C1168 C1166 1.409 1_565 S
C1168 C1169 1.363 . S
C1168 H1171 0.929 . S
C1169 C1168 1.363 . S
C1169 C1175 1.428 . S
H1170 C1166 0.936 . S
H1171 C1168 0.929 . S
S1172 N1173 1.613 . S
S1172 N1174 1.610 . S
N1173 S1172 1.613 . S
N1173 C1176 1.350 . S
N1174 S1172 1.610 . S
N1174 C1175 1.351 . S
C1175 C1169 1.428 . S
C1175 N1174 1.351 . S
C1175 C1176 1.434 . S
C1176 C1167 1.429 1_565 S
C1176 N1173 1.350 . S
C1176 C1175 1.434 . S
C1177 C1178 1.369 . S
C1177 C1179 1.419 . S
C1177 H1181 0.930 . S
C1178 C1177 1.369 . S
C1178 C1187 1.429 . S
C1179 C1177 1.419 . S
C1179 C1180 1.363 1_545 S
C1179 H1182 0.929 . S
C1180 C1179 1.363 1_565 S
C1180 C1186 1.428 . S
H1181 C1177 0.930 . S
H1182 C1179 0.929 . S
S1183 N1184 1.613 1_565 S
S1183 N1185 1.610 . S
N1184 S1183 1.613 1_545 S
N1184 C1187 1.350 . S
N1185 S1183 1.610 . S
N1185 C1186 1.351 . S
C1186 C1180 1.428 . S
C1186 N1185 1.351 . S
C1186 C1187 1.434 1_565 S
C1187 C1178 1.429 . S
C1187 N1184 1.350 . S
C1187 C1186 1.434 1_545 S
C1188 C1189 1.369 . S
C1188 C1190 1.419 . S
C1188 H1192 0.930 . S
C1189 C1188 1.369 . S
C1189 C1198 1.429 . S
C1190 C1188 1.419 . S
C1190 C1191 1.363 . S
C1190 H1193 0.929 . S
C1191 C1190 1.363 . S
C1191 C1197 1.428 . S
H1192 C1188 0.930 . S
H1193 C1190 0.929 . S
S1194 N1195 1.613 . S
S1194 N1196 1.610 . S
N1195 S1194 1.613 . S
N1195 C1198 1.350 . S
N1196 S1194 1.610 . S
N1196 C1197 1.351 . S
C1197 C1191 1.428 . S
C1197 N1196 1.351 . S
C1197 C1198 1.434 . S
C1198 C1189 1.429 . S
C1198 N1195 1.350 . S
C1198 C1197 1.434 . S
C1199 C1200 1.369 . S
C1199 C1201 1.419 . S
C1199 H1203 0.930 . S
C1200 C1199 1.369 . S
C1200 C1209 1.429 . S
C1201 C1199 1.419 . S
C1201 C1202 1.363 . S
C1201 H1204 0.929 . S
C1202 C1201 1.363 . S
C1202 C1208 1.428 . S
H1203 C1199 0.930 . S
H1204 C1201 0.929 . S
S1205 N1206 1.613 . S
S1205 N1207 1.610 . S
N1206 S1205 1.613 . S
N1206 C1209 1.350 . S
N1207 S1205 1.610 . S
N1207 C1208 1.351 . S
C1208 C1202 1.428 . S
C1208 N1207 1.351 . S
C1208 C1209 1.434 . S
C1209 C1200 1.429 . S
C1209 N1206 1.350 . S
C1209 C1208 1.434 . S
C1210 C1211 1.369 . S
C1210 C1212 1.419 . S
C1210 H1214 0.930 . S
C1211 C1210 1.369 . S
C1211 C1220 1.429 . S
C1212 C1210 1.419 . S
C1212 C1213 1.363 . S
C1212 H1215 0.929 . S
C1213 C1212 1.363 . S
C1213 C1219 1.428 . S
H1214 C1210 0.930 . S
H1215 C1212 0.929 . S
S1216 N1217 1.613 . S
S1216 N1218 1.610 . S
N1217 S1216 1.613 . S
N1217 C1220 1.350 . S
N1218 S1216 1.610 . S
N1218 C1219 1.351 . S
C1219 C1213 1.428 . S
C1219 N1218 1.351 . S
C1219 C1220 1.434 . S
C1220 C1211 1.429 . S
C1220 N1217 1.350 . S
C1220 C1219 1.434 . S
C1221 C1222 1.369 . S
C1221 C1223 1.419 . S
C1221 H1225 0.930 . S
C1222 C1221 1.369 . S
C1222 C1231 1.429 . S
C1223 C1221 1.419 . S
C1223 C1224 1.363 . S
C1223 H1226 0.929 . S
C1224 C1223 1.363 . S
C1224 C1230 1.428 . S
H1225 C1221 0.930 . S
H1226 C1223 0.929 . S
S1227 N1228 1.613 . S
S1227 N1229 1.610 . S
N1228 S1227 1.613 . S
N1228 C1231 1.350 . S
N1229 S1227 1.610 . S
N1229 C1230 1.351 . S
C1230 C1224 1.428 . S
C1230 N1229 1.351 . S
C1230 C1231 1.434 . S
C1231 C1222 1.429 . S
C1231 N1228 1.350 . S
C1231 C1230 1.434 . S
C1232 C1233 1.369 . S
C1232 C1234 1.419 . S
C1232 H1236 0.930 . S
C1233 C1232 1.369 . S
C1233 C1242 1.429 . S
C1234 C1232 1.419 . S
C1234 C1235 1.363 . S
C1234 H1237 0.929 . S
C1235 C1234 1.363 . S
C1235 C1241 1.428 . S
H1236 C1232 0.930 . S
H1237 C1234 0.929 . S
S1238 N1239 1.613 . S
S1238 N1240 1.610 . S
N1239 S1238 1.613 . S
N1239 C1242 1.350 . S
N1240 S1238 1.610 . S
N1240 C1241 1.351 . S
C1241 C1235 1.428 . S
C1241 N1240 1.351 . S
C1241 C1242 1.434 . S
C1242 C1233 1.429 . S
C1242 N1239 1.350 . S
C1242 C1241 1.434 . S
C1243 C1244 1.369 . S
C1243 C1245 1.419 . S
C1243 H1247 0.930 . S
C1244 C1243 1.369 . S
C1244 C1253 1.429 . S
C1245 C1243 1.419 . S
C1245 C1246 1.363 . S
C1245 H1248 0.929 . S
C1246 C1245 1.363 . S
C1246 C1252 1.428 . S
H1247 C1243 0.930 . S
H1248 C1245 0.929 . S
S1249 N1250 1.613 . S
S1249 N1251 1.610 . S
N1250 S1249 1.613 . S
N1250 C1253 1.350 . S
N1251 S1249 1.610 . S
N1251 C1252 1.351 . S
C1252 C1246 1.428 . S
C1252 N1251 1.351 . S
C1252 C1253 1.434 . S
C1253 C1244 1.429 . S
C1253 N1250 1.350 . S
C1253 C1252 1.434 . S
C1254 C1255 1.369 . S
C1254 C1256 1.419 . S
C1254 H1258 0.930 . S
C1255 C1254 1.369 . S
C1255 C1264 1.429 . S
C1256 C1254 1.419 . S
C1256 C1257 1.363 . S
C1256 H1259 0.929 . S
C1257 C1256 1.363 . S
C1257 C1263 1.428 . S
H1258 C1254 0.930 . S
H1259 C1256 0.929 . S
S1260 N1261 1.613 . S
S1260 N1262 1.610 . S
N1261 S1260 1.613 . S
N1261 C1264 1.350 . S
N1262 S1260 1.610 . S
N1262 C1263 1.351 . S
C1263 C1257 1.428 . S
C1263 N1262 1.351 . S
C1263 C1264 1.434 . S
C1264 C1255 1.429 . S
C1264 N1261 1.350 . S
C1264 C1263 1.434 . S
C1265 C1266 1.369 . S
C1265 C1267 1.419 . S
C1265 H1269 0.930 . S
C1266 C1265 1.369 . S
C1266 C1275 1.429 . S
C1267 C1265 1.419 . S
C1267 C1268 1.363 . S
C1267 H1270 0.929 . S
C1268 C1267 1.363 . S
C1268 C1274 1.428 . S
H1269 C1265 0.930 . S
H1270 C1267 0.929 . S
S1271 N1272 1.613 . S
S1271 N1273 1.610 . S
N1272 S1271 1.613 . S
N1272 C1275 1.350 . S
N1273 S1271 1.610 . S
N1273 C1274 1.351 . S
C1274 C1268 1.428 . S
C1274 N1273 1.351 . S
C1274 C1275 1.434 . S
C1275 C1266 1.429 . S
C1275 N1272 1.350 . S
C1275 C1274 1.434 . S
C1276 C1277 1.369 . S
C1276 C1278 1.419 . S
C1276 H1280 0.930 . S
C1277 C1276 1.369 . S
C1277 C1286 1.429 . S
C1278 C1276 1.419 . S
C1278 C1279 1.363 . S
C1278 H1281 0.929 . S
C1279 C1278 1.363 . S
C1279 C1285 1.428 . S
H1280 C1276 0.930 . S
H1281 C1278 0.929 . S
S1282 N1283 1.613 . S
S1282 N1284 1.610 . S
N1283 S1282 1.613 . S
N1283 C1286 1.350 . S
N1284 S1282 1.610 . S
N1284 C1285 1.351 . S
C1285 C1279 1.428 . S
C1285 N1284 1.351 . S
C1285 C1286 1.434 . S
C1286 C1277 1.429 . S
C1286 N1283 1.350 . S
C1286 C1285 1.434 . S
C1287 C1288 1.369 . S
C1287 C1289 1.419 . S
C1287 H1291 0.930 . S
C1288 C1287 1.369 . S
C1288 C1297 1.429 . S
C1289 C1287 1.419 . S
C1289 C1290 1.363 . S
C1289 H1292 0.929 . S
C1290 C1289 1.363 . S
C1290 C1296 1.428 . S
H1291 C1287 0.930 . S
H1292 C1289 0.929 . S
S1293 N1294 1.613 . S
S1293 N1295 1.610 . S
N1294 S1293 1.613 . S
N1294 C1297 1.350 . S
N1295 S1293 1.610 . S
N1295 C1296 1.351 . S
C1296 C1290 1.428 . S
C1296 N1295 1.351 . S
C1296 C1297 1.434 . S
C1297 C1288 1.429 . S
C1297 N1294 1.350 . S
C1297 C1296 1.434 . S
C1298 C1299 1.369 . S
C1298 C1300 1.419 . S
C1298 H1302 0.930 . S
C1299 C1298 1.369 . S
C1299 C1308 1.429 . S
C1300 C1298 1.419 . S
C1300 C1301 1.363 . S
C1300 H1303 0.929 . S
C1301 C1300 1.363 . S
C1301 C1307 1.428 . S
H1302 C1298 0.930 . S
H1303 C1300 0.929 . S
S1304 N1305 1.613 . S
S1304 N1306 1.610 . S
N1305 S1304 1.613 . S
N1305 C1308 1.350 . S
N1306 S1304 1.610 . S
N1306 C1307 1.351 . S
C1307 C1301 1.428 . S
C1307 N1306 1.351 . S
C1307 C1308 1.434 . S
C1308 C1299 1.429 . S
C1308 N1305 1.350 . S
C1308 C1307 1.434 . S
C1309 C1310 1.369 . S
C1309 C1311 1.419 . S
C1309 H1313 0.930 . S
C1310 C1309 1.369 . S
C1310 C1319 1.429 . S
C1311 C1309 1.419 . S
C1311 C1312 1.363 . S
C1311 H1314 0.929 . S
C1312 C1311 1.363 . S
C1312 C1318 1.428 . S
H1313 C1309 0.930 . S
H1314 C1311 0.929 . S
S1315 N1316 1.613 . S
S1315 N1317 1.610 . S
N1316 S1315 1.613 . S
N1316 C1319 1.350 . S
N1317 S1315 1.610 . S
N1317 C1318 1.351 . S
C1318 C1312 1.428 . S
C1318 N1317 1.351 . S
C1318 C1319 1.434 . S
C1319 C1310 1.429 . S
C1319 N1316 1.350 . S
C1319 C1318 1.434 . S
C1320 C1321 1.369 . S
C1320 C1322 1.419 . S
C1320 H1324 0.930 . S
C1321 C1320 1.369 . S
C1321 C1330 1.429 . S
C1322 C1320 1.419 . S
C1322 C1323 1.363 . S
C1322 H1325 0.929 . S
C1323 C1322 1.363 . S
C1323 C1329 1.428 . S
H1324 C1320 0.930 . S
H1325 C1322 0.929 . S
S1326 N1327 1.613 . S
S1326 N1328 1.610 . S
N1327 S1326 1.613 . S
N1327 C1330 1.350 . S
N1328 S1326 1.610 . S
N1328 C1329 1.351 . S
C1329 C1323 1.428 . S
C1329 N1328 1.351 . S
C1329 C1330 1.434 . S
C1330 C1321 1.429 . S
C1330 N1327 1.350 . S
C1330 C1329 1.434 . S
C1331 C1332 1.369 . S
C1331 C1333 1.419 . S
C1331 H1335 0.930 . S
C1332 C1331 1.369 . S
C1332 C1341 1.429 . S
C1333 C1331 1.419 . S
C1333 C1334 1.363 . S
C1333 H1336 0.929 . S
C1334 C1333 1.363 . S
C1334 C1340 1.428 . S
H1335 C1331 0.930 . S
H1336 C1333 0.929 . S
S1337 N1338 1.613 . S
S1337 N1339 1.610 . S
N1338 S1337 1.613 . S
N1338 C1341 1.350 . S
N1339 S1337 1.610 . S
N1339 C1340 1.351 . S
C1340 C1334 1.428 . S
C1340 N1339 1.351 . S
C1340 C1341 1.434 . S
C1341 C1332 1.429 . S
C1341 N1338 1.350 . S
C1341 C1340 1.434 . S
C1342 C1343 1.369 . S
C1342 C1344 1.419 . S
C1342 H1346 0.930 . S
C1343 C1342 1.369 . S
C1343 C1352 1.429 . S
C1344 C1342 1.419 . S
C1344 C1345 1.363 . S
C1344 H1347 0.929 . S
C1345 C1344 1.363 . S
C1345 C1351 1.428 . S
H1346 C1342 0.930 . S
H1347 C1344 0.929 . S
S1348 N1349 1.613 . S
S1348 N1350 1.610 . S
N1349 S1348 1.613 . S
N1349 C1352 1.350 . S
N1350 S1348 1.610 . S
N1350 C1351 1.351 . S
C1351 C1345 1.428 . S
C1351 N1350 1.351 . S
C1351 C1352 1.434 . S
C1352 C1343 1.429 . S
C1352 N1349 1.350 . S
C1352 C1351 1.434 . S
C1353 C1354 1.369 . S
C1353 C1355 1.419 . S
C1353 H1357 0.930 . S
C1354 C1353 1.369 . S
C1354 C1363 1.429 . S
C1355 C1353 1.419 . S
C1355 C1356 1.363 . S
C1355 H1358 0.929 . S
C1356 C1355 1.363 . S
C1356 C1362 1.428 . S
H1357 C1353 0.930 . S
H1358 C1355 0.929 . S
S1359 N1360 1.613 . S
S1359 N1361 1.610 . S
N1360 S1359 1.613 . S
N1360 C1363 1.350 . S
N1361 S1359 1.610 . S
N1361 C1362 1.351 . S
C1362 C1356 1.428 . S
C1362 N1361 1.351 . S
C1362 C1363 1.434 . S
C1363 C1354 1.429 . S
C1363 N1360 1.350 . S
C1363 C1362 1.434 . S
C1364 C1365 1.369 . S
C1364 C1366 1.419 . S
C1364 H1368 0.930 . S
C1365 C1364 1.369 . S
C1365 C1374 1.429 . S
C1366 C1364 1.419 . S
C1366 C1367 1.363 . S
C1366 H1369 0.929 . S
C1367 C1366 1.363 . S
C1367 C1373 1.428 . S
H1368 C1364 0.930 . S
H1369 C1366 0.929 . S
S1370 N1371 1.613 . S
S1370 N1372 1.610 . S
N1371 S1370 1.613 . S
N1371 C1374 1.350 . S
N1372 S1370 1.610 . S
N1372 C1373 1.351 . S
C1373 C1367 1.428 . S
C1373 N1372 1.351 . S
C1373 C1374 1.434 . S
C1374 C1365 1.429 . S
C1374 N1371 1.350 . S
C1374 C1373 1.434 . S
C1375 C1376 1.369 . S
C1375 C1377 1.419 . S
C1375 H1379 0.930 . S
C1376 C1375 1.369 . S
C1376 C1385 1.429 . S
C1377 C1375 1.419 . S
C1377 C1378 1.363 . S
C1377 H1380 0.929 . S
C1378 C1377 1.363 . S
C1378 C1384 1.428 . S
H1379 C1375 0.930 . S
H1380 C1377 0.929 . S
S1381 N1382 1.613 . S
S1381 N1383 1.610 . S
N1382 S1381 1.613 . S
N1382 C1385 1.350 . S
N1383 S1381 1.610 . S
N1383 C1384 1.351 . S
C1384 C1378 1.428 . S
C1384 N1383 1.351 . S
C1384 C1385 1.434 . S
C1385 C1376 1.429 . S
C1385 N1382 1.350 . S
C1385 C1384 1.434 . S
C1386 C1387 1.369 . S
C1386 C1388 1.419 . S
C1386 H1390 0.930 . S
C1387 C1386 1.369 . S
C1387 C1396 1.429 . S
C1388 C1386 1.419 . S
C1388 C1389 1.363 . S
C1388 H1391 0.929 . S
C1389 C1388 1.363 . S
C1389 C1395 1.428 . S
H1390 C1386 0.930 . S
H1391 C1388 0.929 . S
S1392 N1393 1.613 . S
S1392 N1394 1.610 . S
N1393 S1392 1.613 . S
N1393 C1396 1.350 . S
N1394 S1392 1.610 . S
N1394 C1395 1.351 . S
C1395 C1389 1.428 . S
C1395 N1394 1.351 . S
C1395 C1396 1.434 . S
C1396 C1387 1.429 . S
C1396 N1393 1.350 . S
C1396 C1395 1.434 . S
C1397 C1398 1.369 . S
C1397 C1399 1.419 . S
C1397 H1401 0.930 . S
C1398 C1397 1.369 . S
C1398 C1407 1.429 . S
C1399 C1397 1.419 . S
C1399 C1400 1.363 . S
C1399 H1402 0.929 . S
C1400 C1399 1.363 . S
C1400 C1406 1.428 . S
H1401 C1397 0.930 . S
H1402 C1399 0.929 . S
S1403 N1404 1.613 . S
S1403 N1405 1.610 . S
N1404 S1403 1.613 . S
N1404 C1407 1.350 . S
N1405 S1403 1.610 . S
N1405 C1406 1.351 . S
C1406 C1400 1.428 . S
C1406 N1405 1.351 . S
C1406 C1407 1.434 . S
C1407 C1398 1.429 . S
C1407 N1404 1.350 . S
C1407 C1406 1.434 . S
C1408 C1409 1.369 . S
C1408 C1410 1.419 . S
C1408 H1412 0.930 . S
C1409 C1408 1.369 . S
C1409 C1418 1.429 . S
C1410 C1408 1.419 . S
C1410 C1411 1.363 . S
C1410 H1413 0.929 . S
C1411 C1410 1.363 . S
C1411 C1417 1.428 . S
H1412 C1408 0.930 . S
H1413 C1410 0.929 . S
S1414 N1415 1.613 . S
S1414 N1416 1.610 . S
N1415 S1414 1.613 . S
N1415 C1418 1.350 . S
N1416 S1414 1.610 . S
N1416 C1417 1.351 . S
C1417 C1411 1.428 . S
C1417 N1416 1.351 . S
C1417 C1418 1.434 . S
C1418 C1409 1.429 . S
C1418 N1415 1.350 . S
C1418 C1417 1.434 . S
C1419 C1420 1.369 . S
C1419 C1421 1.419 . S
C1419 H1423 0.930 . S
C1420 C1419 1.369 . S
C1420 C1429 1.429 . S
C1421 C1419 1.419 . S
C1421 C1422 1.363 . S
C1421 H1424 0.929 . S
C1422 C1421 1.363 . S
C1422 C1428 1.428 . S
H1423 C1419 0.930 . S
H1424 C1421 0.929 . S
S1425 N1426 1.613 . S
S1425 N1427 1.610 . S
N1426 S1425 1.613 . S
N1426 C1429 1.350 . S
N1427 S1425 1.610 . S
N1427 C1428 1.351 . S
C1428 C1422 1.428 . S
C1428 N1427 1.351 . S
C1428 C1429 1.434 . S
C1429 C1420 1.429 . S
C1429 N1426 1.350 . S
C1429 C1428 1.434 . S
C1430 C1431 1.369 . S
C1430 C1432 1.419 . S
C1430 H1434 0.930 . S
C1431 C1430 1.369 . S
C1431 C1440 1.429 . S
C1432 C1430 1.419 . S
C1432 C1433 1.363 . S
C1432 H1435 0.929 . S
C1433 C1432 1.363 . S
C1433 C1439 1.428 . S
H1434 C1430 0.930 . S
H1435 C1432 0.929 . S
S1436 N1437 1.613 . S
S1436 N1438 1.610 . S
N1437 S1436 1.613 . S
N1437 C1440 1.350 . S
N1438 S1436 1.610 . S
N1438 C1439 1.351 . S
C1439 C1433 1.428 . S
C1439 N1438 1.351 . S
C1439 C1440 1.434 . S
C1440 C1431 1.429 . S
C1440 N1437 1.350 . S
C1440 C1439 1.434 . S
C1441 C1442 1.369 . S
C1441 C1443 1.419 . S
C1441 H1445 0.930 . S
C1442 C1441 1.369 . S
C1442 C1451 1.429 . S
C1443 C1441 1.419 . S
C1443 C1444 1.363 . S
C1443 H1446 0.929 . S
C1444 C1443 1.363 . S
C1444 C1450 1.428 . S
H1445 C1441 0.930 . S
H1446 C1443 0.929 . S
S1447 N1448 1.613 . S
S1447 N1449 1.610 . S
N1448 S1447 1.613 . S
N1448 C1451 1.350 . S
N1449 S1447 1.610 . S
N1449 C1450 1.351 . S
C1450 C1444 1.428 . S
C1450 N1449 1.351 . S
C1450 C1451 1.434 . S
C1451 C1442 1.429 . S
C1451 N1448 1.350 . S
C1451 C1450 1.434 . S
C793 C186 1.165 . S
C795 C21 1.163 . S
C804 C54 1.164 . S
C806 C219 1.160 . S
C815 C87 1.157 . S
C817 C252 1.159 . S
C826 C153 1.162 . S
C828 C120 1.158 . S
C837 C285 1.165 . S
C839 C780 1.160 . S
C848 C714 1.161 . S
C850 C318 1.164 . S
C859 C351 1.161 . S
C861 C747 1.164 . S
C870 C549 1.161 . S
C872 C384 1.158 . S
C881 C417 1.157 . S
C883 C681 1.159 . S
C892 C450 1.162 . S
C894 C582 1.158 . S
C903 C615 1.157 . S
C905 C483 1.158 . S
C914 C516 1.157 . S
C916 C648 1.162 . S
C925 N101 1.639 . S
C927 C7 1.684 . S
C936 C40 1.690 . S
C938 N2 1.630 . S
C947 C73 1.689 . S
C949 N35 1.630 . S
C958 N68 1.639 . S
C960 C106 1.683 . S
C969 N167 1.628 . S
C971 C139 1.689 . S
C980 C172 1.691 . S
C982 N200 1.630 . S
C991 N233 1.630 . S
C993 C205 1.690 . S
C1002 N134 1.633 . S
C1004 C238 1.689 . S
C1013 N596 1.639 . S
C1015 C271 1.685 . S
C1024 C304 1.682 . S
C1026 N629 1.637 . S
C1035 N662 1.638 . S
C1037 C337 1.686 . S
C1046 C370 1.682 . S
C1048 N563 1.638 . S
C1057 N728 1.636 . S
C1059 C403 1.687 . S
C1068 C436 1.690 . S
C1070 N530 1.629 . S
C1079 N761 1.629 . S
C1081 C469 1.688 . S
C1090 C502 1.682 . S
C1092 N695 1.638 . S
C1101 N299 1.639 . S
C1103 C535 1.684 . S
C1112 N497 1.629 . S
C1114 C568 1.688 . S
C1123 C601 1.683 . S
C1125 N398 1.638 . S
C1134 C634 1.691 . S
C1136 N431 1.631 . S
C1145 N464 1.637 . S
C1147 C667 1.687 . S
C1156 N365 1.629 . S
C1158 C700 1.688 . S
C1167 N266 1.635 . S
C1169 C733 1.684 . S
C1178 C766 1.690 . S
C1180 N332 1.632 . S
C1189 C18 1.444 . S
C1191 N541 1.322 . S
C1200 N772 1.329 . S
C1202 C51 1.442 . S
C1211 C84 1.440 . S
C1213 N706 1.328 . S
C1222 N739 1.314 . S
C1224 C117 1.448 . S
C1233 C150 1.440 . S
C1235 N574 1.328 . S
C1244 C183 1.444 . S
C1246 N607 1.322 . S
C1255 N640 1.328 . S
C1257 C216 1.442 . S
C1266 N673 1.318 . S
C1268 C249 1.446 . S
C1277 N13 1.315 . S
C1279 C282 1.447 . S
C1288 C315 1.449 . S
C1290 N46 1.316 . S
C1299 C348 1.444 . S
C1301 N79 1.322 . S
C1310 C381 1.449 . S
C1312 N112 1.316 . S
C1321 C414 1.443 . S
C1323 N145 1.324 . S
C1332 C447 1.440 . S
C1334 N178 1.328 . S
C1343 C480 1.443 . S
C1345 N211 1.324 . S
C1354 C513 1.440 . S
C1356 N244 1.328 . S
C1365 N277 1.327 . S
C1367 C546 1.443 . S
C1376 C579 1.440 . S
C1378 N409 1.328 . S
C1387 C612 1.441 . S
C1389 N442 1.327 . S
C1398 N475 1.329 . S
C1400 C645 1.442 . S
C1409 C678 1.444 . S
C1411 N508 1.322 . S
C1420 N343 1.323 . S
C1422 C711 1.444 . S
C1431 N376 1.327 . S
C1433 C744 1.442 . S
C1442 C777 1.448 . S
C1444 N310 1.316 . S
