# Generated by pormake.
# Topology ukd, (4)-cn, num edge types: 1
# Building blocks:
#     Node 0, Type 0, BuildingBlock: GALJAG_clean_sbu_0, # of connection points: 4
#     Node 1, Type 0, BuildingBlock: GALJAG_clean_sbu_0, # of connection points: 4
#     Node 2, Type 0, BuildingBlock: GALJAG_clean_sbu_0, # of connection points: 4
#     Node 3, Type 0, BuildingBlock: GALJAG_clean_sbu_0, # of connection points: 4
#     Node 4, Type 0, BuildingBlock: GALJAG_clean_sbu_0, # of connection points: 4
#     Node 5, Type 0, BuildingBlock: GALJAG_clean_sbu_0, # of connection points: 4
#     Node 6, Type 0, BuildingBlock: GALJAG_clean_sbu_0, # of connection points: 4
#     Node 7, Type 0, BuildingBlock: GALJAG_clean_sbu_0, # of connection points: 4
#     Node 8, Type 0, BuildingBlock: GALJAG_clean_sbu_0, # of connection points: 4
#     Node 9, Type 0, BuildingBlock: GALJAG_clean_sbu_0, # of connection points: 4
#     Node 10, Type 0, BuildingBlock: GALJAG_clean_sbu_0, # of connection points: 4
#     Node 11, Type 0, BuildingBlock: GALJAG_clean_sbu_0, # of connection points: 4
#     Node 12, Type 0, BuildingBlock: GALJAG_clean_sbu_0, # of connection points: 4
#     Node 13, Type 0, BuildingBlock: GALJAG_clean_sbu_0, # of connection points: 4
#     Node 14, Type 0, BuildingBlock: GALJAG_clean_sbu_0, # of connection points: 4
#     Node 15, Type 0, BuildingBlock: GALJAG_clean_sbu_0, # of connection points: 4
#     Node 16, Type 0, BuildingBlock: GALJAG_clean_sbu_0, # of connection points: 4
#     Node 17, Type 0, BuildingBlock: GALJAG_clean_sbu_0, # of connection points: 4
#     Node 18, Type 0, BuildingBlock: GALJAG_clean_sbu_0, # of connection points: 4
#     Node 19, Type 0, BuildingBlock: GALJAG_clean_sbu_0, # of connection points: 4
#     Node 20, Type 0, BuildingBlock: GALJAG_clean_sbu_0, # of connection points: 4
#     Node 21, Type 0, BuildingBlock: GALJAG_clean_sbu_0, # of connection points: 4
#     Node 22, Type 0, BuildingBlock: GALJAG_clean_sbu_0, # of connection points: 4
#     Node 23, Type 0, BuildingBlock: GALJAG_clean_sbu_0, # of connection points: 4
#     Node 24, Type 0, BuildingBlock: GALJAG_clean_sbu_0, # of connection points: 4
#     Node 25, Type 0, BuildingBlock: GALJAG_clean_sbu_0, # of connection points: 4
#     Node 26, Type 0, BuildingBlock: GALJAG_clean_sbu_0, # of connection points: 4
#     Node 27, Type 0, BuildingBlock: GALJAG_clean_sbu_0, # of connection points: 4
#     Node 28, Type 0, BuildingBlock: GALJAG_clean_sbu_0, # of connection points: 4
#     Node 29, Type 0, BuildingBlock: GALJAG_clean_sbu_0, # of connection points: 4
#     Node 30, Type 0, BuildingBlock: GALJAG_clean_sbu_0, # of connection points: 4
#     Node 31, Type 0, BuildingBlock: GALJAG_clean_sbu_0, # of connection points: 4
#     Edge 32, Type (0, 0), BuildingBlock: TEMPAE_clean_linker_10, # of connection points: 2
#     Edge 33, Type (0, 0), BuildingBlock: TEMPAE_clean_linker_10, # of connection points: 2
#     Edge 34, Type (0, 0), BuildingBlock: TEMPAE_clean_linker_10, # of connection points: 2
#     Edge 35, Type (0, 0), BuildingBlock: TEMPAE_clean_linker_10, # of connection points: 2
#     Edge 36, Type (0, 0), BuildingBlock: TEMPAE_clean_linker_10, # of connection points: 2
#     Edge 37, Type (0, 0), BuildingBlock: TEMPAE_clean_linker_10, # of connection points: 2
#     Edge 38, Type (0, 0), BuildingBlock: TEMPAE_clean_linker_10, # of connection points: 2
#     Edge 39, Type (0, 0), BuildingBlock: TEMPAE_clean_linker_10, # of connection points: 2
#     Edge 40, Type (0, 0), BuildingBlock: TEMPAE_clean_linker_10, # of connection points: 2
#     Edge 41, Type (0, 0), BuildingBlock: TEMPAE_clean_linker_10, # of connection points: 2
#     Edge 42, Type (0, 0), BuildingBlock: TEMPAE_clean_linker_10, # of connection points: 2
#     Edge 43, Type (0, 0), BuildingBlock: TEMPAE_clean_linker_10, # of connection points: 2
#     Edge 44, Type (0, 0), BuildingBlock: TEMPAE_clean_linker_10, # of connection points: 2
#     Edge 45, Type (0, 0), BuildingBlock: TEMPAE_clean_linker_10, # of connection points: 2
#     Edge 46, Type (0, 0), BuildingBlock: TEMPAE_clean_linker_10, # of connection points: 2
#     Edge 47, Type (0, 0), BuildingBlock: TEMPAE_clean_linker_10, # of connection points: 2
#     Edge 48, Type (0, 0), BuildingBlock: TEMPAE_clean_linker_10, # of connection points: 2
#     Edge 49, Type (0, 0), BuildingBlock: TEMPAE_clean_linker_10, # of connection points: 2
#     Edge 50, Type (0, 0), BuildingBlock: TEMPAE_clean_linker_10, # of connection points: 2
#     Edge 51, Type (0, 0), BuildingBlock: TEMPAE_clean_linker_10, # of connection points: 2
#     Edge 52, Type (0, 0), BuildingBlock: TEMPAE_clean_linker_10, # of connection points: 2
#     Edge 53, Type (0, 0), BuildingBlock: TEMPAE_clean_linker_10, # of connection points: 2
#     Edge 54, Type (0, 0), BuildingBlock: TEMPAE_clean_linker_10, # of connection points: 2
#     Edge 55, Type (0, 0), BuildingBlock: TEMPAE_clean_linker_10, # of connection points: 2
#     Edge 56, Type (0, 0), BuildingBlock: TEMPAE_clean_linker_10, # of connection points: 2
#     Edge 57, Type (0, 0), BuildingBlock: TEMPAE_clean_linker_10, # of connection points: 2
#     Edge 58, Type (0, 0), BuildingBlock: TEMPAE_clean_linker_10, # of connection points: 2
#     Edge 59, Type (0, 0), BuildingBlock: TEMPAE_clean_linker_10, # of connection points: 2
#     Edge 60, Type (0, 0), BuildingBlock: TEMPAE_clean_linker_10, # of connection points: 2
#     Edge 61, Type (0, 0), BuildingBlock: TEMPAE_clean_linker_10, # of connection points: 2
#     Edge 62, Type (0, 0), BuildingBlock: TEMPAE_clean_linker_10, # of connection points: 2
#     Edge 63, Type (0, 0), BuildingBlock: TEMPAE_clean_linker_10, # of connection points: 2
#     Edge 64, Type (0, 0), BuildingBlock: TEMPAE_clean_linker_10, # of connection points: 2
#     Edge 65, Type (0, 0), BuildingBlock: TEMPAE_clean_linker_10, # of connection points: 2
#     Edge 66, Type (0, 0), BuildingBlock: TEMPAE_clean_linker_10, # of connection points: 2
#     Edge 67, Type (0, 0), BuildingBlock: TEMPAE_clean_linker_10, # of connection points: 2
#     Edge 68, Type (0, 0), BuildingBlock: TEMPAE_clean_linker_10, # of connection points: 2
#     Edge 69, Type (0, 0), BuildingBlock: TEMPAE_clean_linker_10, # of connection points: 2
#     Edge 70, Type (0, 0), BuildingBlock: TEMPAE_clean_linker_10, # of connection points: 2
#     Edge 71, Type (0, 0), BuildingBlock: TEMPAE_clean_linker_10, # of connection points: 2
#     Edge 72, Type (0, 0), BuildingBlock: TEMPAE_clean_linker_10, # of connection points: 2
#     Edge 73, Type (0, 0), BuildingBlock: TEMPAE_clean_linker_10, # of connection points: 2
#     Edge 74, Type (0, 0), BuildingBlock: TEMPAE_clean_linker_10, # of connection points: 2
#     Edge 75, Type (0, 0), BuildingBlock: TEMPAE_clean_linker_10, # of connection points: 2
#     Edge 76, Type (0, 0), BuildingBlock: TEMPAE_clean_linker_10, # of connection points: 2
#     Edge 77, Type (0, 0), BuildingBlock: TEMPAE_clean_linker_10, # of connection points: 2
#     Edge 78, Type (0, 0), BuildingBlock: TEMPAE_clean_linker_10, # of connection points: 2
#     Edge 79, Type (0, 0), BuildingBlock: TEMPAE_clean_linker_10, # of connection points: 2
#     Edge 80, Type (0, 0), BuildingBlock: TEMPAE_clean_linker_10, # of connection points: 2
#     Edge 81, Type (0, 0), BuildingBlock: TEMPAE_clean_linker_10, # of connection points: 2
#     Edge 82, Type (0, 0), BuildingBlock: TEMPAE_clean_linker_10, # of connection points: 2
#     Edge 83, Type (0, 0), BuildingBlock: TEMPAE_clean_linker_10, # of connection points: 2
#     Edge 84, Type (0, 0), BuildingBlock: TEMPAE_clean_linker_10, # of connection points: 2
#     Edge 85, Type (0, 0), BuildingBlock: TEMPAE_clean_linker_10, # of connection points: 2
#     Edge 86, Type (0, 0), BuildingBlock: TEMPAE_clean_linker_10, # of connection points: 2
#     Edge 87, Type (0, 0), BuildingBlock: TEMPAE_clean_linker_10, # of connection points: 2
#     Edge 88, Type (0, 0), BuildingBlock: TEMPAE_clean_linker_10, # of connection points: 2
#     Edge 89, Type (0, 0), BuildingBlock: TEMPAE_clean_linker_10, # of connection points: 2
#     Edge 90, Type (0, 0), BuildingBlock: TEMPAE_clean_linker_10, # of connection points: 2
#     Edge 91, Type (0, 0), BuildingBlock: TEMPAE_clean_linker_10, # of connection points: 2
#     Edge 92, Type (0, 0), BuildingBlock: TEMPAE_clean_linker_10, # of connection points: 2
#     Edge 93, Type (0, 0), BuildingBlock: TEMPAE_clean_linker_10, # of connection points: 2
#     Edge 94, Type (0, 0), BuildingBlock: TEMPAE_clean_linker_10, # of connection points: 2
#     Edge 95, Type (0, 0), BuildingBlock: TEMPAE_clean_linker_10, # of connection points: 2
# Relax obj value: 0.105
# Max RMSD: 0.103
# Mean RMSD: 0.103
data_MOF--net-ukd--node1-GALJAG_clean_sbu_0--edge1-TEMPAE_clean_linker_10
_symmetry_space_group_name_H-M    P1
_symmetry_Int_Tables_number       1
_symmetry_cell_setting            triclinic
loop_
_symmetry_equiv_pos_as_xyz
'x, y, z'
_cell_length_a     46.428777
_cell_length_b     46.373776
_cell_length_c     72.042698
_cell_angle_alpha  89.985201
_cell_angle_beta   89.990166
_cell_angle_gamma 90.001971
loop_
_atom_site_label
_atom_site_type_symbol
_atom_site_fract_x
_atom_site_fract_y
_atom_site_fract_z
_atom_type_partial_charge
In0 In 0.20416 0.17704 0.34246 0.0
O1 O 0.15977 0.16316 0.33196 0.0
O2 O 0.17644 0.14259 0.35601 0.0
C3 C 0.21213 0.19782 0.30782 0.0
C4 C 0.25049 0.14529 0.35179 0.0
C5 C 0.19703 0.22147 0.36615 0.0
O6 O 0.19564 0.20965 0.31941 0.0
O7 O 0.22411 0.17512 0.31353 0.0
O8 O 0.18111 0.19945 0.36625 0.0
O9 O 0.21736 0.22062 0.35453 0.0
C10 C 0.15587 0.14486 0.34468 0.0
O11 O 0.24644 0.17034 0.35812 0.0
O12 O 0.23121 0.13645 0.34087 0.0
In13 In 0.05979 0.95929 0.58839 0.0
O14 O 0.07105 0.99548 0.60855 0.0
O15 O 0.09723 0.98988 0.58452 0.0
C16 C 0.0122 0.94376 0.60745 0.0
C17 C 0.09949 0.91752 0.59275 0.0
C18 C 0.03677 0.97085 0.55483 0.0
O19 O 0.01939 0.96984 0.60552 0.0
O20 O 0.02914 0.92596 0.60004 0.0
O21 O 0.04079 0.94547 0.56051 0.0
O22 O 0.04466 0.99026 0.56592 0.0
C23 C 0.09254 0.0039 0.59923 0.0
O24 O 0.09136 0.9259 0.5769 0.0
O25 O 0.08777 0.93039 0.6062 0.0
In26 In 0.29878 0.81361 0.83987 0.0
O27 O 0.25798 0.81974 0.85714 0.0
O28 O 0.27014 0.85312 0.83849 0.0
C29 C 0.31895 0.76643 0.85732 0.0
C30 C 0.34405 0.84854 0.84621 0.0
C31 C 0.28138 0.79478 0.80629 0.0
O32 O 0.29663 0.77951 0.86275 0.0
O33 O 0.33092 0.77723 0.84322 0.0
O34 O 0.29558 0.81773 0.80834 0.0
O35 O 0.27603 0.78143 0.82112 0.0
C36 C 0.25238 0.84424 0.85043 0.0
O37 O 0.34026 0.83592 0.83088 0.0
O38 O 0.3249 0.84366 0.85824 0.0
In39 In 0.43071 0.03248 0.0936 0.0
O40 O 0.4195 0.9918 0.10994 0.0
O41 O 0.39128 0.00512 0.08826 0.0
C42 C 0.47513 0.04131 0.11724 0.0
C43 C 0.39575 0.07881 0.09557 0.0
C44 C 0.4535 0.02533 0.05948 0.0
O45 O 0.45183 0.05507 0.11808 0.0
O46 O 0.47563 0.02191 0.105 0.0
O47 O 0.4556 0.04868 0.06835 0.0
O48 O 0.43959 0.00581 0.06772 0.0
C49 C 0.39663 0.98708 0.10091 0.0
O50 O 0.41437 0.07594 0.08293 0.0
O51 O 0.39441 0.05806 0.10685 0.0
In52 In 0.19917 0.81599 0.15339 0.0
O53 O 0.2373 0.82408 0.13393 0.0
O54 O 0.22739 0.85572 0.15428 0.0
C55 C 0.18701 0.76864 0.13315 0.0
C56 C 0.15515 0.85362 0.15099 0.0
C57 C 0.20959 0.79379 0.18739 0.0
O58 O 0.21212 0.77391 0.13896 0.0
O59 O 0.16851 0.78749 0.13722 0.0
O60 O 0.18637 0.78939 0.17882 0.0
O61 O 0.22726 0.80971 0.17899 0.0
C62 C 0.24355 0.8481 0.14112 0.0
O63 O 0.16476 0.84495 0.16642 0.0
O64 O 0.1678 0.84337 0.13697 0.0
In65 In 0.43481 0.95935 0.40085 0.0
O66 O 0.42388 0.99773 0.38231 0.0
O67 O 0.39763 0.98977 0.40601 0.0
C68 C 0.48068 0.93665 0.38322 0.0
C69 C 0.3971 0.91608 0.39552 0.0
C70 C 0.45775 0.97758 0.43307 0.0
O71 O 0.46881 0.95962 0.37771 0.0
O72 O 0.46947 0.9256 0.39747 0.0
O73 O 0.43816 0.95874 0.43237 0.0
O74 O 0.46571 0.98722 0.41752 0.0
C75 C 0.40242 0.00528 0.39196 0.0
O76 O 0.41009 0.91974 0.41073 0.0
O77 O 0.40291 0.93442 0.38314 0.0
In78 In 0.28822 0.17163 0.65803 0.0
O79 O 0.32536 0.14383 0.6689 0.0
O80 O 0.3172 0.14455 0.63984 0.0
C81 C 0.27989 0.19109 0.69299 0.0
C82 C 0.24287 0.14064 0.64615 0.0
C83 C 0.29982 0.2193 0.63792 0.0
O84 O 0.30132 0.1983 0.68335 0.0
O85 O 0.26303 0.17367 0.68517 0.0
O86 O 0.27497 0.21434 0.64431 0.0
O87 O 0.31821 0.20011 0.64144 0.0
C88 C 0.33261 0.13517 0.65293 0.0
O89 O 0.24734 0.16613 0.6407 0.0
O90 O 0.26121 0.13104 0.65747 0.0
In91 In 0.0659 0.02558 0.90372 0.0
O92 O 0.07218 0.07299 0.91113 0.0
O93 O 0.10395 0.05268 0.89431 0.0
C94 C 0.04587 0.01501 0.93818 0.0
C95 C 0.0989 0.97998 0.89412 0.0
C96 C 0.02106 0.03772 0.88108 0.0
O97 O 0.06765 0.03064 0.93527 0.0
O98 O 0.03439 0.0048 0.92377 0.0
O99 O 0.04548 0.04922 0.87926 0.0
O100 O 0.01951 0.01933 0.89392 0.0
C101 C 0.09544 0.07549 0.90216 0.0
O102 O 0.07843 0.98875 0.88412 0.0
O103 O 0.10245 0.994 0.90889 0.0
In104 In 0.78341 0.8193 0.65389 0.0
O105 O 0.74689 0.82986 0.63373 0.0
O106 O 0.74923 0.85315 0.65909 0.0
C107 C 0.80621 0.77293 0.63699 0.0
C108 C 0.82606 0.85766 0.64826 0.0
C109 C 0.7677 0.79575 0.68647 0.0
O110 O 0.78106 0.78175 0.63339 0.0
O111 O 0.81965 0.78766 0.64888 0.0
O112 O 0.78163 0.81908 0.68554 0.0
O113 O 0.76166 0.78453 0.67103 0.0
C114 C 0.73622 0.84922 0.64395 0.0
O115 O 0.82171 0.84597 0.66385 0.0
O116 O 0.80868 0.85023 0.63568 0.0
In117 In 0.9196 0.04084 0.40144 0.0
O118 O 0.95371 0.0403 0.37858 0.0
O119 O 0.95599 0.07312 0.3992 0.0
C120 C 0.8878 0.99467 0.39171 0.0
C121 C 0.94207 0.02319 0.43395 0.0
C122 C 0.88451 0.08604 0.39529 0.0
O123 O 0.9113 0.0007 0.38381 0.0
O124 O 0.8804 0.01201 0.4043 0.0
O125 O 0.89232 0.07874 0.41141 0.0
O126 O 0.89402 0.07026 0.3824 0.0
C127 C 0.96683 0.06217 0.38476 0.0
O128 O 0.92072 0.03997 0.43313 0.0
O129 O 0.95184 0.01529 0.41845 0.0
In130 In 0.69705 0.18645 0.15162 0.0
O131 O 0.66375 0.15525 0.16348 0.0
O132 O 0.66434 0.16212 0.13427 0.0
C133 C 0.71853 0.20914 0.18307 0.0
C134 C 0.74163 0.15389 0.14021 0.0
C135 C 0.67403 0.23394 0.13608 0.0
O136 O 0.69703 0.19247 0.18302 0.0
O137 O 0.72913 0.21421 0.16729 0.0
O138 O 0.69369 0.2196 0.1282 0.0
O139 O 0.66609 0.22417 0.1516 0.0
C140 C 0.65289 0.14934 0.14787 0.0
O141 O 0.72519 0.14673 0.15334 0.0
O142 O 0.73551 0.17762 0.13257 0.0
In143 In 0.57336 0.96462 0.90549 0.0
O144 O 0.53599 0.96804 0.88482 0.0
O145 O 0.54083 0.92925 0.90026 0.0
C146 C 0.60604 0.00944 0.89462 0.0
C147 C 0.55074 0.98245 0.93793 0.0
C148 C 0.60941 0.91979 0.90073 0.0
O149 O 0.58558 -0.00011 0.88485 0.0
O150 O 0.60969 0.99657 0.90985 0.0
O151 O 0.59678 0.92458 0.91595 0.0
O152 O 0.60423 0.93793 0.88811 0.0
C153 C 0.52662 0.94302 0.88828 0.0
O154 O 0.54061 0.98981 0.92241 0.0
O155 O 0.57257 0.96628 0.93712 0.0
In156 In 0.8001 0.17921 0.8351 0.0
O157 O 0.83301 0.14537 0.82593 0.0
O158 O 0.8339 0.15965 0.85397 0.0
C159 C 0.7837 0.19841 0.80135 0.0
C160 C 0.75633 0.14635 0.84716 0.0
C161 C 0.81599 0.22868 0.8518 0.0
O162 O 0.80941 0.19179 0.80502 0.0
O163 O 0.76628 0.19486 0.81455 0.0
O164 O 0.79529 0.21359 0.85771 0.0
O165 O 0.8283 0.21885 0.83756 0.0
C166 C 0.84483 0.14367 0.84168 0.0
O167 O 0.75991 0.172 0.85258 0.0
O168 O 0.77483 0.13738 0.83568 0.0
In169 In 0.56452 0.04447 0.59008 0.0
O170 O 0.53381 0.05344 0.566 0.0
O171 O 0.5667 0.02245 0.56182 0.0
C172 C 0.5975 0.09215 0.59235 0.0
C173 C 0.51974 0.05283 0.61339 0.0
C174 C 0.59644 -0.0011 0.60058 0.0
O175 O 0.5806 0.08776 0.57891 0.0
O176 O 0.59794 0.07237 0.60437 0.0
O177 O 0.57054 0.00188 0.60556 0.0
O178 O 0.60602 0.01884 0.59042 0.0
C179 C 0.54527 0.03549 0.55517 0.0
O180 O 0.52167 0.03082 0.60317 0.0
O181 O 0.54067 0.07001 0.61215 0.0
In182 In 0.70709 0.80351 0.34413 0.0
O183 O 0.68207 0.84175 0.35517 0.0
O184 O 0.66441 0.81965 0.33197 0.0
C185 C 0.72006 0.78184 0.31043 0.0
C186 C 0.75118 0.83817 0.35335 0.0
C187 C 0.69432 0.75938 0.36746 0.0
O188 O 0.69459 0.78249 0.31654 0.0
O189 O 0.73871 0.79206 0.32128 0.0
O190 O 0.68153 0.78326 0.36783 0.0
O191 O 0.71446 0.75799 0.35577 0.0
C192 C 0.66181 0.83988 0.34359 0.0
O193 O 0.74518 0.81584 0.36268 0.0
O194 O 0.73512 0.84257 0.33952 0.0
In195 In 0.93332 0.97107 0.09719 0.0
O196 O 0.95967 0.95588 0.07229 0.0
O197 O 0.94499 -0.00077 0.07244 0.0
C198 C 0.89757 0.92526 0.09736 0.0
C199 C 0.97641 0.96029 0.12154 0.0
C200 C 0.89819 0.01579 0.10431 0.0
O201 O 0.9154 0.92963 0.08442 0.0
O202 O 0.89748 0.94426 0.10989 0.0
O203 O 0.92013 0.0106 0.11415 0.0
O204 O 0.89429 -0.00146 0.09102 0.0
C205 C 0.95884 0.97986 0.06404 0.0
O206 O 0.97687 0.98167 0.11073 0.0
O207 O 0.95379 0.94545 0.12061 0.0
In208 In 0.69926 0.68021 0.84087 0.0
O209 O 0.73584 0.66923 0.86076 0.0
O210 O 0.72887 0.64182 0.83747 0.0
C211 C 0.68403 0.72892 0.85878 0.0
C212 C 0.65658 0.64167 0.84597 0.0
C213 C 0.71294 0.70272 0.80749 0.0
O214 O 0.70878 0.71795 0.86045 0.0
O215 O 0.66718 0.71515 0.84832 0.0
O216 O 0.68748 0.69619 0.81185 0.0
O217 O 0.73142 0.69761 0.81984 0.0
C218 C 0.7436 0.64715 0.85178 0.0
O219 O 0.66757 0.64637 0.83023 0.0
O220 O 0.66724 0.65628 0.85906 0.0
In221 In 0.55876 0.47263 0.09584 0.0
O222 O 0.57263 0.50999 0.11469 0.0
O223 O 0.59653 0.50228 0.09009 0.0
C224 C 0.51375 0.46041 0.11841 0.0
C225 C 0.58839 0.42278 0.09698 0.0
C226 C 0.53858 0.48437 0.06162 0.0
O227 O 0.53865 0.4505 0.12107 0.0
O228 O 0.51182 0.47749 0.10488 0.0
O229 O 0.55693 0.46483 0.06458 0.0
O230 O 0.5306 0.49794 0.07588 0.0
C231 C 0.59347 0.51733 0.10449 0.0
O232 O 0.56507 0.42537 0.08809 0.0
O233 O 0.59688 0.44547 0.10499 0.0
In234 In 0.79457 0.32218 0.33614 0.0
O235 O 0.75543 0.32947 0.35475 0.0
O236 O 0.76442 0.36029 0.33362 0.0
C237 C 0.80308 0.27606 0.35829 0.0
C238 C 0.84075 0.35728 0.33893 0.0
C239 C 0.78521 0.30232 0.30139 0.0
O240 O 0.82027 0.29706 0.35753 0.0
O241 O 0.78086 0.27873 0.34834 0.0
O242 O 0.80422 0.29188 0.31189 0.0
O243 O 0.77148 0.32317 0.30823 0.0
C244 C 0.74826 0.35269 0.34683 0.0
O245 O 0.81957 0.35848 0.34983 0.0
O246 O 0.83855 0.33858 0.3263 0.0
In247 In 0.93636 0.54238 0.59605 0.0
O248 O 0.92437 0.50475 0.61512 0.0
O249 O 0.89919 0.51186 0.59091 0.0
C250 C 0.98196 0.56311 0.61481 0.0
C251 C 0.90057 0.5875 0.60036 0.0
C252 C 0.96029 0.52549 0.56376 0.0
O253 O 0.97185 0.53828 0.61798 0.0
O254 O 0.9689 0.57718 0.60241 0.0
O255 O 0.93694 0.53934 0.56443 0.0
O256 O 0.97143 0.52009 0.57931 0.0
C257 C 0.90326 0.49693 0.60528 0.0
O258 O 0.91444 0.58315 0.58554 0.0
O259 O 0.90459 0.56891 0.6129 0.0
In260 In 0.70462 0.32389 0.65236 0.0
O261 O 0.74456 0.33317 0.63478 0.0
O262 O 0.7348 0.36162 0.65702 0.0
C263 C 0.68205 0.27938 0.63343 0.0
C264 C 0.6605 0.36082 0.64762 0.0
C265 C 0.7214 0.29744 0.68387 0.0
O266 O 0.70537 0.2913 0.62858 0.0
O267 O 0.67029 0.29009 0.64764 0.0
O268 O 0.70722 0.32065 0.684 0.0
O269 O 0.72716 0.28783 0.66795 0.0
C270 C 0.75148 0.35543 0.64381 0.0
O271 O 0.66616 0.34955 0.66316 0.0
O272 O 0.67737 0.35377 0.63465 0.0
In273 In 0.9305 0.4617 0.89872 0.0
O274 O 0.9197 0.50247 0.88228 0.0
O275 O 0.8906 0.48855 0.90331 0.0
C276 C 0.975 0.45275 0.87521 0.0
C277 C 0.89536 0.41556 0.89681 0.0
C278 C 0.95349 0.46926 0.93275 0.0
O279 O 0.97461 0.47349 0.88653 0.0
O280 O 0.95245 0.4377 0.87516 0.0
O281 O 0.95792 0.44689 0.92323 0.0
O282 O 0.93712 0.48751 0.92524 0.0
C283 C 0.8963 0.50676 0.89083 0.0
O284 O 0.91318 0.41887 0.90987 0.0
O285 O 0.89507 0.43565 0.88503 0.0
In286 In 0.79521 0.68754 0.15131 0.0
O287 O 0.75475 0.67949 0.13399 0.0
O288 O 0.7668 0.64811 0.15408 0.0
C289 C 0.81461 0.73555 0.13441 0.0
C290 C 0.84047 0.653 0.14408 0.0
C291 C 0.77798 0.70606 0.185 0.0
O292 O 0.79206 0.72274 0.12909 0.0
O293 O 0.8271 0.72407 0.14809 0.0
O294 O 0.79378 0.68417 0.18292 0.0
O295 O 0.77103 0.71857 0.17014 0.0
C296 C 0.74915 0.65569 0.14171 0.0
O297 O 0.8372 0.66551 0.1595 0.0
O298 O 0.82079 0.65777 0.13239 0.0
In299 In 0.5596 0.53032 0.40439 0.0
O300 O 0.58678 0.56684 0.41691 0.0
O301 O 0.57625 0.56882 0.38826 0.0
C302 C 0.54054 0.50871 0.4367 0.0
C303 C 0.59612 0.48912 0.3924 0.0
C304 C 0.50985 0.54517 0.38772 0.0
O305 O 0.55353 0.53262 0.43568 0.0
O306 O 0.53755 0.49564 0.42144 0.0
O307 O 0.53184 0.53778 0.37858 0.0
O308 O 0.51295 0.54493 0.40509 0.0
C309 C 0.58898 0.58041 0.40178 0.0
O310 O 0.57067 0.49112 0.38643 0.0
O311 O 0.60295 0.50781 0.40427 0.0
In312 In 0.29258 0.31345 0.15598 0.0
O313 O 0.26554 0.35414 0.15759 0.0
O314 O 0.25472 0.32348 0.13683 0.0
C315 C 0.31224 0.26524 0.13949 0.0
C316 C 0.33792 0.34901 0.15151 0.0
C317 C 0.27273 0.29128 0.18811 0.0
O318 O 0.29158 0.2797 0.1329 0.0
O319 O 0.32284 0.27517 0.15429 0.0
O320 O 0.29558 0.30593 0.18722 0.0
O321 O 0.25986 0.28807 0.17286 0.0
C322 C 0.2492 0.34744 0.14431 0.0
O323 O 0.32621 0.34499 0.16711 0.0
O324 O 0.32665 0.33525 0.13826 0.0
In325 In 0.43212 0.52948 0.901 0.0
O326 O 0.46024 0.54317 0.92542 0.0
O327 O 0.4359 0.50467 0.92818 0.0
C328 C 0.39905 0.57719 0.89881 0.0
C329 C 0.47722 0.53689 0.87775 0.0
C330 C 0.39757 0.48469 0.89288 0.0
O331 O 0.41633 0.57296 0.91206 0.0
O332 O 0.39818 0.55719 0.88699 0.0
O333 O 0.42163 0.4882 0.88496 0.0
O334 O 0.39132 0.5036 0.90479 0.0
C335 C 0.45361 0.52189 0.93544 0.0
O336 O 0.47678 0.51726 0.88987 0.0
O337 O 0.45446 0.55156 0.87682 0.0
In338 In 0.21346 0.69026 0.64859 0.0
O339 O 0.24956 0.67594 0.62905 0.0
O340 O 0.24204 0.65165 0.65367 0.0
C341 C 0.1989 0.73549 0.62672 0.0
C342 C 0.16944 0.65255 0.64815 0.0
C343 C 0.22626 0.71438 0.68164 0.0
O344 O 0.22386 0.73272 0.63337 0.0
O345 O 0.18199 0.71523 0.63067 0.0
O346 O 0.20071 0.71166 0.67597 0.0
O347 O 0.24516 0.70494 0.67067 0.0
C348 C 0.25665 0.65466 0.63903 0.0
O349 O 0.17543 0.6674 0.66234 0.0
O350 O 0.18589 0.65651 0.63443 0.0
In351 In 0.0714 0.45171 0.40917 0.0
O352 O 0.05822 0.44139 0.43894 0.0
O353 O 0.05412 0.48469 0.42974 0.0
C354 C 0.1065 0.40646 0.40303 0.0
C355 C 0.02289 0.43677 0.39097 0.0
C356 C 0.10519 0.49616 0.39928 0.0
O357 O 0.10353 0.41757 0.41891 0.0
O358 O 0.09208 0.41842 0.39035 0.0
O359 O 0.07987 0.49319 0.39317 0.0
O360 O 0.11339 0.47665 0.4103 0.0
C361 C 0.05088 0.46687 0.44277 0.0
O362 O 0.0396 0.45612 0.38499 0.0
O363 O 0.03058 0.42539 0.40607 0.0
In364 In 0.28544 0.68179 0.34109 0.0
O365 O 0.25135 0.66929 0.36262 0.0
O366 O 0.25681 0.64248 0.33899 0.0
C367 C 0.30398 0.73228 0.35478 0.0
C368 C 0.33205 0.64887 0.34757 0.0
C369 C 0.26593 0.70162 0.30834 0.0
O370 O 0.28133 0.72025 0.36073 0.0
O371 O 0.31687 0.71889 0.34198 0.0
O372 O 0.28768 0.68538 0.30955 0.0
O373 O 0.25399 0.70752 0.32358 0.0
C374 C 0.24358 0.64693 0.35398 0.0
O375 O 0.31942 0.64891 0.33205 0.0
O376 O 0.32101 0.66503 0.3597 0.0
In377 In 0.07091 0.53482 0.08662 0.0
O378 O 0.0692 0.53547 0.05498 0.0
O379 O 0.04135 0.50664 0.06929 0.0
C380 C 0.10681 0.5791 0.09336 0.0
C381 C 0.02268 0.55684 0.10174 0.0
C382 C 0.10367 0.49015 0.09764 0.0
O383 O 0.09902 0.57239 0.07712 0.0
O384 O 0.09679 0.5632 0.10604 0.0
O385 O 0.08146 0.49786 0.10646 0.0
O386 O 0.10905 0.50482 0.08332 0.0
C387 C 0.04979 0.51648 0.05391 0.0
O388 O 0.03298 0.53292 0.10691 0.0
O389 O 0.03669 0.56934 0.08909 0.0
In390 In 0.2001 0.31117 0.8433 0.0
O391 O 0.22941 0.34997 0.84036 0.0
O392 O 0.23807 0.32103 0.86252 0.0
C393 C 0.17772 0.26411 0.85979 0.0
C394 C 0.15586 0.3484 0.84672 0.0
C395 C 0.2204 0.28718 0.81191 0.0
O396 O 0.19784 0.27855 0.86707 0.0
O397 O 0.16894 0.27358 0.84438 0.0
O398 O 0.19951 0.30459 0.81198 0.0
O399 O 0.23109 0.28203 0.82765 0.0
C400 C 0.24511 0.34379 0.85405 0.0
O401 O 0.16647 0.34176 0.83116 0.0
O402 O 0.16764 0.33633 0.86046 0.0
In403 In 0.42151 0.4493 0.5908 0.0
O404 O 0.44896 0.43403 0.56633 0.0
O405 O 0.42503 0.47251 0.56295 0.0
C406 C 0.38387 0.40624 0.59722 0.0
C407 C 0.46904 0.4387 0.6112 0.0
C408 C 0.39089 0.49616 0.60049 0.0
O409 O 0.39305 0.41194 0.58112 0.0
O410 O 0.39344 0.42245 0.60985 0.0
O411 O 0.41563 0.49123 0.60707 0.0
O412 O 0.38184 0.47746 0.5892 0.0
C413 C 0.44255 0.4549 0.55596 0.0
O414 O 0.46329 0.46361 0.60515 0.0
O415 O 0.45051 0.41977 0.60738 0.0
C416 C 0.14141 0.36878 0.4137 0.0
C417 C 0.12426 0.38062 0.3996 0.0
C418 C 0.157 0.34323 0.41072 0.0
C419 C 0.155 0.32916 0.39334 0.0
C420 C 0.1382 0.34142 0.37896 0.0
C421 C 0.12317 0.36708 0.38224 0.0
C422 C 0.17503 0.33096 0.42626 0.0
C423 C 0.13536 0.32698 0.36024 0.0
C424 C 0.20627 0.27284 0.37468 0.0
C425 C 0.18966 0.24778 0.37665 0.0
C426 C 0.19631 0.2994 0.38146 0.0
C427 C 0.16905 0.30082 0.39021 0.0
C428 C 0.15332 0.27518 0.39353 0.0
C429 C 0.16391 0.24892 0.38677 0.0
C430 C 0.21395 0.32621 0.37799 0.0
C431 C 0.12415 0.27576 0.40281 0.0
H432 H 0.14239 0.3793 0.42712 0.0
H433 H 0.10995 0.37615 0.3713 0.0
H434 H 0.16562 0.31026 0.43102 0.0
H435 H 0.19715 0.3263 0.42127 0.0
H436 H 0.17638 0.34583 0.43832 0.0
H437 H 0.12198 0.33971 0.35043 0.0
H438 H 0.15695 0.32377 0.35397 0.0
H439 H 0.12542 0.30538 0.36193 0.0
H440 H 0.22634 0.27202 0.36701 0.0
H441 H 0.15108 0.22955 0.38845 0.0
H442 H 0.21428 0.34018 0.39048 0.0
H443 H 0.20404 0.33881 0.36655 0.0
H444 H 0.23647 0.32097 0.37402 0.0
H445 H 0.12482 0.28897 0.41563 0.0
H446 H 0.11643 0.25379 0.40642 0.0
H447 H 0.10825 0.28583 0.39331 0.0
C448 C 0.97922 0.90496 0.61813 0.0
C449 C 0.98528 0.93446 0.61657 0.0
C450 C 0.95275 0.89536 0.62506 0.0
C451 C 0.9318 0.91578 0.63063 0.0
C452 C 0.9382 0.94561 0.62982 0.0
C453 C 0.96494 0.95464 0.62275 0.0
C454 C 0.9468 0.86333 0.62572 0.0
C455 C 0.91645 0.96794 0.63578 0.0
C456 C 0.85613 0.88648 0.62645 0.0
C457 C 0.85108 0.87643 0.6445 0.0
C458 C 0.8817 0.90095 0.62199 0.0
C459 C 0.90264 0.90557 0.63595 0.0
C460 C 0.89685 0.89712 0.65447 0.0
C461 C 0.87111 0.88253 0.65852 0.0
C462 C 0.88706 0.90962 0.60207 0.0
C463 C 0.91853 0.90197 0.66976 0.0
H464 H 0.99494 0.88926 0.61348 0.0
H465 H 0.96959 0.97748 0.6216 0.0
H466 H 0.93992 0.85689 0.63987 0.0
H467 H 0.92893 0.85798 0.6161 0.0
H468 H 0.96593 0.8503 0.62179 0.0
H469 H 0.92581 0.98998 0.63618 0.0
H470 H 0.89804 0.96797 0.62596 0.0
H471 H 0.90775 0.96263 0.64971 0.0
H472 H 0.84061 0.88199 0.61558 0.0
H473 H 0.86719 0.87498 0.67254 0.0
H474 H 0.90445 0.89602 0.59615 0.0
H475 H 0.89437 0.93236 0.60132 0.0
H476 H 0.86753 0.90715 0.5933 0.0
H477 H 0.93706 0.88716 0.66782 0.0
H478 H 0.90916 0.89802 0.68372 0.0
H479 H 0.92701 0.92432 0.66925 0.0
C480 C 0.3631 0.60698 0.88182 0.0
C481 C 0.38317 0.60446 0.89625 0.0
C482 C 0.35061 0.63364 0.87749 0.0
C483 C 0.35856 0.65839 0.88778 0.0
C484 C 0.37764 0.65569 0.90301 0.0
C485 C 0.38969 0.62867 0.90711 0.0
C486 C 0.33013 0.63558 0.86125 0.0
C487 C 0.38662 0.68161 0.91429 0.0
C488 C 0.35599 0.72794 0.86035 0.0
C489 C 0.32982 0.73991 0.86622 0.0
C490 C 0.36598 0.70188 0.86775 0.0
C491 C 0.34931 0.68733 0.88128 0.0
C492 C 0.32323 0.69967 0.88765 0.0
C493 C 0.3138 0.72593 0.88006 0.0
C494 C 0.39402 0.6895 0.86067 0.0
C495 C 0.3049 0.68471 0.90203 0.0
H496 H 0.35782 0.58825 0.87348 0.0
H497 H 0.40518 0.62678 0.9183 0.0
H498 H 0.31032 0.64741 0.86527 0.0
H499 H 0.34045 0.64782 0.8498 0.0
H500 H 0.3239 0.61399 0.85592 0.0
H501 H 0.39878 0.67541 0.92695 0.0
H502 H 0.40049 0.69581 0.9057 0.0
H503 H 0.36751 0.69441 0.91847 0.0
H504 H 0.36854 0.73877 0.84974 0.0
H505 H 0.29356 0.73515 0.88464 0.0
H506 H 0.38986 0.6688 0.85343 0.0
H507 H 0.4087 0.68485 0.87245 0.0
H508 H 0.40516 0.70429 0.85089 0.0
H509 H 0.2965 0.66419 0.89626 0.0
H510 H 0.28637 0.69817 0.90652 0.0
H511 H 0.31804 0.67919 0.91439 0.0
C512 C 0.52757 0.03685 0.12453 0.0
C513 C 0.50115 0.05084 0.12729 0.0
C514 C 0.55341 0.04948 0.13056 0.0
C515 C 0.55268 0.07683 0.13928 0.0
C516 C 0.52587 0.08982 0.14347 0.0
C517 C 0.50039 0.07653 0.13754 0.0
C518 C 0.58155 0.03464 0.12626 0.0
C519 C 0.52412 0.11902 0.15268 0.0
C520 C 0.61912 0.11191 0.16028 0.0
C521 C 0.62817 0.12966 0.14562 0.0
C522 C 0.59509 0.09376 0.15829 0.0
C523 C 0.57956 0.09388 0.14138 0.0
C524 C 0.58888 0.11153 0.1265 0.0
C525 C 0.6132 0.12901 0.12876 0.0
C526 C 0.58608 0.07481 0.1743 0.0
C527 C 0.57271 0.11254 0.1083 0.0
H528 H 0.52824 0.01685 0.11676 0.0
H529 H 0.48 0.08735 0.13983 0.0
H530 H 0.59205 0.04553 0.11433 0.0
H531 H 0.59649 0.03605 0.13825 0.0
H532 H 0.57837 0.01157 0.12263 0.0
H533 H 0.50182 0.12439 0.15708 0.0
H534 H 0.53841 0.11996 0.16499 0.0
H535 H 0.53155 0.13581 0.14279 0.0
H536 H 0.63082 0.11223 0.1733 0.0
H537 H 0.62011 0.14273 0.11742 0.0
H538 H 0.58376 0.05214 0.1696 0.0
H539 H 0.56475 0.08182 0.17957 0.0
H540 H 0.60176 0.07552 0.18594 0.0
H541 H 0.5715 0.09065 0.10215 0.0
H542 H 0.58298 0.12723 0.09807 0.0
H543 H 0.55029 0.11995 0.11073 0.0
C544 C 0.15025 0.73646 0.11895 0.0
C545 C 0.17905 0.74144 0.1238 0.0
C546 C 0.14135 0.70957 0.11224 0.0
C547 C 0.1618 0.68716 0.11021 0.0
C548 C 0.1912 0.69251 0.11411 0.0
C549 C 0.1995 0.71964 0.12095 0.0
C550 C 0.10976 0.70474 0.10824 0.0
C551 C 0.21364 0.66922 0.11189 0.0
C552 C 0.12937 0.61288 0.11593 0.0
C553 C 0.1243 0.60492 0.09746 0.0
C554 C 0.14287 0.63905 0.12023 0.0
C555 C 0.15169 0.6576 0.10569 0.0
C556 C 0.14809 0.64895 0.087 0.0
C557 C 0.13428 0.6227 0.08308 0.0
C558 C 0.14625 0.64753 0.14036 0.0
C559 C 0.15758 0.668 0.07114 0.0
H560 H 0.13437 0.75329 0.12103 0.0
H561 H 0.22182 0.72345 0.12461 0.0
H562 H 0.10689 0.69571 0.09411 0.0
H563 H 0.1009 0.68881 0.11823 0.0
H564 H 0.09698 0.72492 0.10933 0.0
H565 H 0.23588 0.67781 0.1132 0.0
H566 H 0.21043 0.65246 0.12268 0.0
H567 H 0.21141 0.65853 0.09819 0.0
H568 H 0.12182 0.59915 0.1271 0.0
H569 H 0.13057 0.61652 0.06877 0.0
H570 H 0.13235 0.66642 0.1434 0.0
H571 H 0.16881 0.65399 0.14324 0.0
H572 H 0.14027 0.62977 0.14998 0.0
H573 H 0.14333 0.68716 0.07035 0.0
H574 H 0.15676 0.65659 0.0576 0.0
H575 H 0.17983 0.67591 0.07348 0.0
C576 C 0.51741 0.89784 0.38109 0.0
C577 C 0.50611 0.92371 0.37417 0.0
C578 C 0.54235 0.88569 0.37351 0.0
C579 C 0.55639 0.89975 0.3586 0.0
C580 C 0.54465 0.92544 0.35114 0.0
C581 C 0.51957 0.93719 0.35905 0.0
C582 C 0.55416 0.85823 0.38188 0.0
C583 C 0.55901 0.94089 0.3352 0.0
C584 C 0.63555 0.88135 0.35745 0.0
C585 C 0.63599 0.85833 0.34486 0.0
C586 C 0.61005 0.89647 0.36107 0.0
C587 C 0.58438 0.88828 0.35189 0.0
C588 C 0.58512 0.86637 0.33821 0.0
C589 C 0.61102 0.85162 0.33482 0.0
C590 C 0.61022 0.91982 0.37568 0.0
C591 C 0.55821 0.85717 0.32807 0.0
H592 H 0.507 0.88723 0.3927 0.0
H593 H 0.51082 0.95714 0.35362 0.0
H594 H 0.55705 0.84164 0.37095 0.0
H595 H 0.57564 0.86245 0.38807 0.0
H596 H 0.53988 0.8493 0.39284 0.0
H597 H 0.54579 0.95909 0.32991 0.0
H598 H 0.58016 0.94947 0.33976 0.0
H599 H 0.56319 0.92568 0.32362 0.0
H600 H 0.65491 0.88683 0.36509 0.0
H601 H 0.61133 0.83393 0.32499 0.0
H602 H 0.59855 0.91213 0.38818 0.0
H603 H 0.59891 0.93934 0.37057 0.0
H604 H 0.63243 0.92596 0.37985 0.0
H605 H 0.54406 0.84499 0.3377 0.0
H606 H 0.56315 0.84318 0.31596 0.0
H607 H 0.54593 0.87624 0.32319 0.0
C608 C 0.33647 0.25082 0.62308 0.0
C609 C 0.30778 0.24637 0.62842 0.0
C610 C 0.3456 0.27749 0.61617 0.0
C611 C 0.32548 0.30024 0.61437 0.0
C612 C 0.29612 0.29542 0.61871 0.0
C613 C 0.2876 0.2685 0.62581 0.0
C614 C 0.37714 0.28175 0.61176 0.0
C615 C 0.274 0.31905 0.61667 0.0
C616 C 0.35999 0.37353 0.61984 0.0
C617 C 0.36535 0.38117 0.60134 0.0
C618 C 0.34561 0.34788 0.62424 0.0
C619 C 0.33604 0.3296 0.60976 0.0
C620 C 0.33976 0.3381 0.59103 0.0
C621 C 0.3546 0.36375 0.58702 0.0
C622 C 0.34226 0.33952 0.64439 0.0
C623 C 0.32936 0.31941 0.57525 0.0
H624 H 0.35214 0.23373 0.62496 0.0
H625 H 0.26536 0.26508 0.62982 0.0
H626 H 0.37976 0.29056 0.59755 0.0
H627 H 0.38656 0.29763 0.62155 0.0
H628 H 0.38962 0.26137 0.6128 0.0
H629 H 0.25166 0.31075 0.61808 0.0
H630 H 0.27758 0.33566 0.6275 0.0
H631 H 0.27621 0.32982 0.60299 0.0
H632 H 0.36813 0.38699 0.63096 0.0
H633 H 0.35848 0.36974 0.57269 0.0
H634 H 0.35574 0.32029 0.64737 0.0
H635 H 0.3196 0.33362 0.64741 0.0
H636 H 0.34881 0.35713 0.65396 0.0
H637 H 0.34322 0.3 0.57416 0.0
H638 H 0.32996 0.33098 0.56174 0.0
H639 H 0.30704 0.3119 0.57786 0.0
C640 C 0.99746 0.07245 0.85953 0.0
C641 C 0.9955 0.04791 0.87082 0.0
C642 C 0.97262 0.08571 0.8525 0.0
C643 C 0.94526 0.07395 0.85675 0.0
C644 C 0.94334 0.04788 0.8669 0.0
C645 C 0.96853 0.03521 0.87391 0.0
C646 C 0.97558 0.11352 0.84175 0.0
C647 C 0.91458 0.03446 0.87148 0.0
C648 C 0.88439 0.1275 0.86248 0.0
C649 C 0.86993 0.12506 0.84549 0.0
C650 C 0.90881 0.11081 0.86629 0.0
C651 C 0.91885 0.09096 0.85284 0.0
C652 C 0.90409 0.08801 0.83575 0.0
C653 C 0.87982 0.10527 0.83222 0.0
C654 C 0.92409 0.11477 0.88463 0.0
C655 C 0.91404 0.06682 0.82121 0.0
H656 H 0.01829 0.08228 0.85704 0.0
H657 H 0.96695 0.01609 0.88251 0.0
H658 H 0.96207 0.11301 0.82907 0.0
H659 H 0.9679 0.13173 0.85044 0.0
H660 H -0.00175 0.11786 0.83767 0.0
H661 H 0.91691 0.01218 0.87696 0.0
H662 H 0.90349 0.04772 0.88212 0.0
H663 H 0.90055 0.03389 0.85902 0.0
H664 H 0.87686 0.14281 0.87276 0.0
H665 H 0.8686 0.10327 0.81909 0.0
H666 H 0.94667 0.12163 0.88219 0.0
H667 H 0.92483 0.094 0.89226 0.0
H668 H 0.91343 0.13109 0.89359 0.0
H669 H 0.93606 0.07252 0.81649 0.0
H670 H 0.89954 0.06636 0.80895 0.0
H671 H 0.91517 0.04482 0.82722 0.0
C672 C 0.8824 0.63564 0.59014 0.0
C673 C 0.88273 0.61342 0.60334 0.0
C674 C 0.86801 0.66166 0.59371 0.0
C675 C 0.85356 0.66539 0.61084 0.0
C676 C 0.85265 0.64247 0.62382 0.0
C677 C 0.86732 0.61677 0.61992 0.0
C678 C 0.86945 0.68563 0.57955 0.0
C679 C 0.83728 0.64556 0.64219 0.0
C680 C 0.84759 0.73976 0.63207 0.0
C681 C 0.81862 0.74654 0.62881 0.0
C682 C 0.8594 0.71379 0.62575 0.0
C683 C 0.84175 0.69402 0.61603 0.0
C684 C 0.81268 0.70108 0.61221 0.0
C685 C 0.80144 0.72739 0.61861 0.0
C686 C 0.89059 0.70714 0.62996 0.0
C687 C 0.79324 0.68047 0.60191 0.0
H688 H 0.89423 0.6331 0.57727 0.0
H689 H 0.86735 0.59956 0.63011 0.0
H690 H 0.84764 0.69443 0.57683 0.0
H691 H 0.88279 0.70354 0.58507 0.0
H692 H 0.87895 0.67832 0.5662 0.0
H693 H 0.83641 0.62492 0.64999 0.0
H694 H 0.84857 0.66179 0.65086 0.0
H695 H 0.81497 0.65341 0.64 0.0
H696 H 0.86099 0.7546 0.63986 0.0
H697 H 0.77902 0.73257 0.61609 0.0
H698 H 0.90225 0.70165 0.61699 0.0
H699 H 0.89193 0.68811 0.63926 0.0
H700 H 0.90177 0.7255 0.63675 0.0
H701 H 0.80336 0.67381 0.58864 0.0
H702 H 0.77182 0.69006 0.59889 0.0
H703 H 0.79006 0.66068 0.61032 0.0
C704 C 0.12623 0.10798 0.361 0.0
C705 C 0.12849 0.12919 0.34722 0.0
C706 C 0.09963 0.09529 0.36521 0.0
C707 C 0.07468 0.1042 0.35548 0.0
C708 C 0.07707 0.12459 0.34093 0.0
C709 C 0.10403 0.13681 0.33692 0.0
C710 C 0.098 0.07342 0.38071 0.0
C711 C 0.05094 0.13464 0.33027 0.0
C712 C 0.00721 0.05886 0.36183 0.0
C713 C 0.99338 0.07367 0.37627 0.0
C714 C 0.03343 0.06889 0.35454 0.0
C715 C 0.04591 0.09432 0.36184 0.0
C716 C 0.03157 0.10976 0.37605 0.0
C717 C 0.00552 0.0992 0.38312 0.0
C718 C 0.04817 0.05186 0.33942 0.0
C719 C 0.0441 0.13708 0.38413 0.0
H720 H 0.14514 0.10187 0.3689 0.0
H721 H 0.10571 0.15318 0.32624 0.0
H722 H 0.08596 0.08271 0.3926 0.0
H723 H 0.08614 0.05394 0.37608 0.0
H724 H 0.11967 0.06677 0.38566 0.0
H725 H 0.05683 0.14814 0.31811 0.0
H726 H 0.03815 0.11592 0.32538 0.0
H727 H 0.03686 0.14752 0.33956 0.0
H728 H 0.99786 0.03911 0.3565 0.0
H729 H 0.99483 0.11082 0.39421 0.0
H730 H 0.06885 0.04311 0.3447 0.0
H731 H 0.05334 0.06608 0.32749 0.0
H732 H 0.03475 0.03362 0.3344 0.0
H733 H 0.0649 0.13222 0.39104 0.0
H734 H 0.02951 0.14728 0.39445 0.0
H735 H 0.04855 0.15288 0.37293 0.0
C736 C 0.62876 0.39333 0.10967 0.0
C737 C 0.6033 0.39488 0.09927 0.0
C738 C 0.64146 0.36668 0.11383 0.0
C739 C 0.62833 0.34098 0.10745 0.0
C740 C 0.60339 0.34248 0.09618 0.0
C741 C 0.59115 0.36947 0.09221 0.0
C742 C 0.66812 0.36597 0.12584 0.0
C743 C 0.58883 0.31554 0.08909 0.0
C744 C 0.67175 0.27171 0.11126 0.0
C745 C 0.6616 0.26053 0.12811 0.0
C746 C 0.66074 0.29766 0.10409 0.0
C747 C 0.63914 0.31263 0.11407 0.0
C748 C 0.62845 0.3011 0.13091 0.0
C749 C 0.63982 0.2752 0.13772 0.0
C750 C 0.67256 0.30932 0.08607 0.0
C751 C 0.60539 0.31641 0.14195 0.0
H752 H 0.63833 0.41293 0.11508 0.0
H753 H 0.57151 0.37057 0.08411 0.0
H754 H 0.66284 0.35616 0.13947 0.0
H755 H 0.68499 0.35241 0.11931 0.0
H756 H 0.67709 0.38785 0.12828 0.0
H757 H 0.57149 0.32046 0.07894 0.0
H758 H 0.60477 0.30107 0.08239 0.0
H759 H 0.57925 0.30356 0.1009 0.0
H760 H 0.68856 0.2604 0.10377 0.0
H761 H 0.63182 0.2666 0.15073 0.0
H762 H 0.68341 0.33027 0.0886 0.0
H763 H 0.65476 0.31336 0.07614 0.0
H764 H 0.68826 0.29435 0.07955 0.0
H765 H 0.61336 0.33785 0.14645 0.0
H766 H 0.59876 0.30405 0.15446 0.0
H767 H 0.58611 0.32009 0.13316 0.0
C768 C 0.48168 0.9483 0.86938 0.0
C769 C 0.50053 0.93085 0.87962 0.0
C770 C 0.45582 0.93707 0.86229 0.0
C771 C 0.44893 0.90772 0.86542 0.0
C772 C 0.4684 0.88984 0.87522 0.0
C773 C 0.49389 0.90167 0.88226 0.0
C774 C 0.43549 0.95675 0.85195 0.0
C775 C 0.46197 0.85836 0.8787 0.0
C776 C 0.372 0.88088 0.86715 0.0
C777 C 0.3697 0.86629 0.85018 0.0
C778 C 0.39725 0.89571 0.87188 0.0
C779 C 0.42079 0.89577 0.85939 0.0
C780 C 0.41815 0.88208 0.84191 0.0
C781 C 0.39255 0.86754 0.83749 0.0
C782 C 0.39918 0.91023 0.89061 0.0
C783 C 0.44283 0.88164 0.82826 0.0
H784 H 0.48677 0.97089 0.86733 0.0
H785 H 0.50852 0.88805 0.89005 0.0
H786 H 0.42976 0.94725 0.83832 0.0
H787 H 0.41521 0.95916 0.85995 0.0
H788 H 0.44486 0.97851 0.84963 0.0
H789 H 0.48008 0.84708 0.88569 0.0
H790 H 0.4425 0.85634 0.88754 0.0
H791 H 0.45734 0.84722 0.86541 0.0
H792 H 0.35429 0.88015 0.87695 0.0
H793 H 0.39081 0.85634 0.82433 0.0
H794 H 0.40679 0.93278 0.88902 0.0
H795 H 0.4151 0.89875 0.8994 0.0
H796 H 0.37816 0.91044 0.89798 0.0
H797 H 0.45137 0.90372 0.82611 0.0
H798 H 0.43638 0.87259 0.8146 0.0
H799 H 0.46065 0.86835 0.83393 0.0
C800 C 0.85696 0.38797 0.88056 0.0
C801 C 0.87841 0.38898 0.89422 0.0
C802 C 0.84378 0.36185 0.87575 0.0
C803 C 0.85253 0.33614 0.88471 0.0
C804 C 0.87281 0.33733 0.89937 0.0
C805 C 0.88545 0.36385 0.90402 0.0
C806 C 0.82195 0.36153 0.86021 0.0
C807 C 0.88271 0.31036 0.90921 0.0
C808 C 0.8096 0.26784 0.87539 0.0
C809 C 0.82541 0.25568 0.86076 0.0
C810 C 0.81831 0.29392 0.88358 0.0
C811 C 0.84344 0.30788 0.87702 0.0
C812 C 0.8597 0.29537 0.86248 0.0
C813 C 0.85041 0.26949 0.85449 0.0
C814 C 0.80042 0.30677 0.89899 0.0
C815 C 0.88674 0.30953 0.85515 0.0
H816 H 0.85125 0.40745 0.87309 0.0
H817 H 0.902 0.36459 0.91463 0.0
H818 H 0.83162 0.35134 0.84775 0.0
H819 H 0.80285 0.34853 0.86417 0.0
H820 H 0.8147 0.38359 0.85642 0.0
H821 H 0.89546 0.31533 0.92186 0.0
H822 H 0.86403 0.29679 0.91318 0.0
H823 H 0.89635 0.29742 0.89968 0.0
H824 H 0.79025 0.25718 0.88026 0.0
H825 H 0.86279 0.26009 0.84326 0.0
H826 H 0.79167 0.32792 0.89452 0.0
H827 H 0.81402 0.31073 0.91139 0.0
H828 H 0.78216 0.2926 0.90303 0.0
H829 H 0.88143 0.33096 0.84921 0.0
H830 H 0.89745 0.29642 0.84425 0.0
H831 H 0.90225 0.31308 0.86664 0.0
C832 C 0.37406 0.10527 0.66416 0.0
C833 C 0.35849 0.11752 0.64946 0.0
C834 C 0.40011 0.0907 0.66086 0.0
C835 C 0.41095 0.08899 0.64252 0.0
C836 C 0.39476 0.10051 0.62761 0.0
C837 C 0.36862 0.11439 0.63126 0.0
C838 C 0.41647 0.07806 0.67703 0.0
C839 C 0.4057 0.09945 0.60786 0.0
C840 C 0.49042 0.08763 0.63159 0.0
C841 C 0.49359 0.05994 0.62409 0.0
C842 C 0.46396 0.09679 0.63882 0.0
C843 C 0.44027 0.07758 0.63882 0.0
C844 C 0.44402 0.04881 0.63272 0.0
C845 C 0.47065 0.04037 0.62524 0.0
C846 C 0.46082 0.12774 0.64504 0.0
C847 C 0.41945 0.02751 0.63296 0.0
H848 H 0.36615 0.10749 0.67824 0.0
H849 H 0.35665 0.12381 0.61985 0.0
H850 H 0.4237 0.05582 0.67377 0.0
H851 H 0.43603 0.09115 0.67973 0.0
H852 H 0.4033 0.07755 0.6899 0.0
H853 H 0.38999 0.10851 0.5978 0.0
H854 H 0.42606 0.11187 0.60676 0.0
H855 H 0.41052 0.07689 0.60381 0.0
H856 H 0.50815 0.1028 0.63083 0.0
H857 H 0.47313 0.01882 0.61962 0.0
H858 H 0.45021 0.12882 0.65881 0.0
H859 H 0.44694 0.13954 0.63506 0.0
H860 H 0.4819 0.139 0.64591 0.0
H861 H 0.40741 0.02887 0.64624 0.0
H862 H 0.42706 0.00501 0.63099 0.0
H863 H 0.40416 0.03273 0.62161 0.0
C864 C 0.69642 0.70692 0.37523 0.0
C865 C 0.68364 0.734 0.37778 0.0
C866 C 0.68314 0.68182 0.38197 0.0
C867 C 0.65642 0.68396 0.39136 0.0
C868 C 0.64463 0.71145 0.39523 0.0
C869 C 0.65844 0.73618 0.38842 0.0
C870 C 0.69658 0.65291 0.37777 0.0
C871 C 0.61622 0.71469 0.40522 0.0
C872 C 0.60391 0.62286 0.38304 0.0
C873 C 0.60564 0.60734 0.39969 0.0
C874 C 0.62014 0.64793 0.38032 0.0
C875 C 0.63881 0.65765 0.39454 0.0
C876 C 0.64055 0.64222 0.41147 0.0
C877 C 0.6238 0.61723 0.41388 0.0
C878 C 0.61742 0.66393 0.36212 0.0
C879 C 0.66033 0.65189 0.42687 0.0
H880 H 0.71602 0.70514 0.36713 0.0
H881 H 0.64856 0.7571 0.39055 0.0
H882 H 0.69615 0.63884 0.39023 0.0
H883 H 0.68398 0.64196 0.36675 0.0
H884 H 0.71921 0.65504 0.37295 0.0
H885 H 0.61216 0.73733 0.40953 0.0
H886 H 0.59848 0.70781 0.39589 0.0
H887 H 0.61548 0.70068 0.41769 0.0
H888 H 0.58981 0.61537 0.37206 0.0
H889 H 0.62525 0.6052 0.42675 0.0
H890 H 0.63861 0.66461 0.355 0.0
H891 H 0.61074 0.68655 0.3647 0.0
H892 H 0.60151 0.65378 0.35264 0.0
H893 H 0.68297 0.65164 0.42194 0.0
H894 H 0.65864 0.63793 0.43936 0.0
H895 H 0.65527 0.67441 0.43091 0.0
C896 C 0.11946 0.88802 0.16478 0.0
C897 C 0.13028 0.87326 0.14929 0.0
C898 C 0.09509 0.90585 0.16322 0.0
C899 C 0.08103 0.90838 0.14586 0.0
C900 C 0.09221 0.89383 0.13015 0.0
C901 C 0.11684 0.87667 0.13204 0.0
C902 C 0.08409 0.9215 0.18016 0.0
C903 C 0.07766 0.89566 0.11142 0.0
C904 C 0.0016 0.92301 0.14027 0.0
C905 C 0.002 0.95028 0.13186 0.0
C906 C 0.02713 0.90989 0.14626 0.0
C907 C 0.0536 0.92463 0.14405 0.0
C908 C 0.05375 0.95331 0.1373 0.0
C909 C 0.0279 0.96577 0.13112 0.0
C910 C 0.026 0.87921 0.15329 0.0
C911 C 0.08147 0.97 0.1352 0.0
H912 H 0.12997 0.88557 0.17812 0.0
H913 H 0.12512 0.86527 0.12003 0.0
H914 H 0.08078 0.94468 0.17699 0.0
H915 H 0.06292 0.91251 0.18432 0.0
H916 H 0.0991 0.91962 0.19211 0.0
H917 H 0.08937 0.88334 0.10056 0.0
H918 H 0.0554 0.88707 0.11242 0.0
H919 H 0.07608 0.91847 0.10691 0.0
H920 H 0.9816 0.91101 0.14101 0.0
H921 H 0.02826 0.98698 0.1248 0.0
H922 H 0.03923 0.87674 0.16599 0.0
H923 H 0.03507 0.86457 0.14259 0.0
H924 H 0.00364 0.87219 0.1564 0.0
H925 H 0.09545 0.967 0.14754 0.0
H926 H 0.07747 0.99342 0.13321 0.0
H927 H 0.09344 0.96185 0.12295 0.0
C928 C 0.64718 0.76624 0.86587 0.0
C929 C 0.67557 0.75635 0.86762 0.0
C930 C 0.63894 0.79307 0.87301 0.0
C931 C 0.65964 0.8105 0.88208 0.0
C932 C 0.68817 0.80034 0.88435 0.0
C933 C 0.69582 0.77328 0.87709 0.0
C934 C 0.60823 0.80307 0.87039 0.0
C935 C 0.71076 0.81838 0.89394 0.0
C936 C 0.64026 0.88962 0.88017 0.0
C937 C 0.62638 0.89343 0.89726 0.0
C938 C 0.65287 0.86314 0.87551 0.0
C939 C 0.6514 0.83992 0.88823 0.0
C940 C 0.63898 0.84418 0.90597 0.0
C941 C 0.62663 0.87098 0.9103 0.0
C942 C 0.66616 0.85952 0.85652 0.0
C943 C 0.63706 0.81995 0.91991 0.0
H944 H 0.63141 0.75317 0.85864 0.0
H945 H 0.71779 0.76568 0.87847 0.0
H946 H 0.59863 0.80897 0.88397 0.0
H947 H 0.60786 0.82266 0.86154 0.0
H948 H 0.5945 0.78635 0.8638 0.0
H949 H 0.73134 0.80651 0.89579 0.0
H950 H 0.71504 0.8381 0.88568 0.0
H951 H 0.70291 0.82546 0.90775 0.0
H952 H 0.64032 0.90701 0.87011 0.0
H953 H 0.61601 0.87387 0.92357 0.0
H954 H 0.65241 0.84512 0.84799 0.0
H955 H 0.68766 0.84923 0.85763 0.0
H956 H 0.66853 0.88041 0.84912 0.0
H957 H 0.62115 0.80378 0.91505 0.0
H958 H 0.6303 0.82772 0.93383 0.0
H959 H 0.6581 0.80881 0.92123 0.0
C960 C 0.49035 0.42428 0.13909 0.0
C961 C 0.48818 0.44932 0.12828 0.0
C962 C 0.4656 0.40989 0.14531 0.0
C963 C 0.43811 0.42108 0.14078 0.0
C964 C 0.43589 0.44767 0.13123 0.0
C965 C 0.461 0.4614 0.12497 0.0
C966 C 0.46889 0.38152 0.15537 0.0
C967 C 0.40697 0.46058 0.12646 0.0
C968 C 0.3786 0.36684 0.13219 0.0
C969 C 0.36319 0.36788 0.14889 0.0
C970 C 0.40303 0.38404 0.12946 0.0
C971 C 0.41202 0.40309 0.14369 0.0
C972 C 0.39634 0.40454 0.16052 0.0
C973 C 0.37217 0.38671 0.16298 0.0
C974 C 0.41936 0.38161 0.11139 0.0
C975 C 0.40509 0.4249 0.17585 0.0
H976 H 0.51134 0.41488 0.14171 0.0
H977 H 0.45925 0.4809 0.11673 0.0
H978 H 0.45466 0.38072 0.16772 0.0
H979 H 0.46236 0.36366 0.14602 0.0
H980 H 0.49145 0.37767 0.15989 0.0
H981 H 0.40891 0.48326 0.12164 0.0
H982 H 0.39678 0.44774 0.11525 0.0
H983 H 0.39236 0.45991 0.13864 0.0
H984 H 0.3718 0.35223 0.1213 0.0
H985 H 0.36019 0.38763 0.17588 0.0
H986 H 0.44203 0.37536 0.11416 0.0
H987 H 0.41977 0.4028 0.10425 0.0
H988 H 0.40971 0.36546 0.10185 0.0
H989 H 0.42716 0.41967 0.18068 0.0
H990 H 0.39022 0.42389 0.18792 0.0
H991 H 0.40556 0.44737 0.17055 0.0
C992 C 0.86549 0.123 0.37346 0.0
C993 C 0.86744 0.11227 0.3916 0.0
C994 C 0.85199 0.14941 0.36982 0.0
C995 C 0.8397 0.16523 0.38465 0.0
C996 C 0.84035 0.15383 0.40288 0.0
C997 C 0.85449 0.12755 0.40617 0.0
C998 C 0.85204 0.16096 0.35021 0.0
C999 C 0.82695 0.16983 0.41895 0.0
C1000 C 0.83801 0.2455 0.37557 0.0
C1001 C 0.8104 0.24904 0.36806 0.0
C1002 C 0.84731 0.21854 0.38198 0.0
C1003 C 0.82836 0.19467 0.3811 0.0
C1004 C 0.79974 0.1986 0.37481 0.0
C1005 C 0.79113 0.22576 0.36822 0.0
C1006 C 0.87807 0.21524 0.38848 0.0
C1007 C 0.77874 0.17378 0.37406 0.0
H1008 H 0.87549 0.11126 0.36216 0.0
H1009 H 0.8558 0.11919 0.4202 0.0
H1010 H 0.82976 0.1661 0.34575 0.0
H1011 H 0.86463 0.18129 0.34964 0.0
H1012 H 0.8615 0.14546 0.34016 0.0
H1013 H 0.82625 0.15652 0.43176 0.0
H1014 H 0.83955 0.18963 0.42188 0.0
H1015 H 0.80471 0.17668 0.41542 0.0
H1016 H 0.85297 0.26345 0.37554 0.0
H1017 H 0.76968 0.22847 0.36254 0.0
H1018 H 0.89016 0.20174 0.37842 0.0
H1019 H 0.8788 0.20409 0.40209 0.0
H1020 H 0.88925 0.23632 0.38981 0.0
H1021 H 0.78488 0.15897 0.36263 0.0
H1022 H 0.75631 0.18122 0.37161 0.0
H1023 H 0.77938 0.16123 0.38717 0.0
C1024 C 0.12262 0.63459 0.66088 0.0
C1025 C 0.14363 0.63406 0.6469 0.0
C1026 C 0.09615 0.62042 0.65846 0.0
C1027 C 0.09074 0.60543 0.64171 0.0
C1028 C 0.11266 0.60326 0.62811 0.0
C1029 C 0.13883 0.61765 0.63087 0.0
C1030 C 0.07337 0.62304 0.67331 0.0
C1031 C 0.10782 0.58732 0.6101 0.0
C1032 C 0.02624 0.55639 0.6342 0.0
C1033 C 0.00814 0.57445 0.62383 0.0
C1034 C 0.05281 0.56648 0.64092 0.0
C1035 C 0.06124 0.59525 0.63718 0.0
C1036 C 0.04232 0.61392 0.62754 0.0
C1037 C 0.01605 0.60326 0.62095 0.0
C1038 C 0.0724 0.54602 0.65121 0.0
C1039 C 0.0504 0.64482 0.62339 0.0
H1040 H 0.12632 0.64715 0.67334 0.0
H1041 H 0.15513 0.61694 0.6201 0.0
H1042 H 0.0562 0.63791 0.66849 0.0
H1043 H 0.06316 0.60183 0.67603 0.0
H1044 H 0.0823 0.63154 0.68653 0.0
H1045 H 0.12796 0.58504 0.6019 0.0
H1046 H 0.09893 0.56552 0.61282 0.0
H1047 H 0.09182 0.59916 0.60156 0.0
H1048 H 0.02014 0.5341 0.63647 0.0
H1049 H 0.00199 0.61738 0.61309 0.0
H1050 H 0.08084 0.55629 0.66401 0.0
H1051 H 0.09118 0.54062 0.64234 0.0
H1052 H 0.06127 0.52566 0.65504 0.0
H1053 H 0.05704 0.65602 0.6363 0.0
H1054 H 0.03238 0.65706 0.61698 0.0
H1055 H 0.06902 0.64529 0.61374 0.0
C1056 C 0.6082 0.14312 0.58335 0.0
C1057 C 0.61363 0.1193 0.59482 0.0
C1058 C 0.62071 0.17006 0.58715 0.0
C1059 C 0.6391 0.17305 0.6027 0.0
C1060 C 0.64588 0.14865 0.61367 0.0
C1061 C 0.633 0.12208 0.60962 0.0
C1062 C 0.61303 0.19559 0.57513 0.0
C1063 C 0.66556 0.15092 0.63031 0.0
C1064 C 0.68608 0.23898 0.61054 0.0
C1065 C 0.67006 0.25382 0.62398 0.0
C1066 C 0.67581 0.2131 0.60287 0.0
C1067 C 0.64891 0.20203 0.60877 0.0
C1068 C 0.63213 0.21765 0.62173 0.0
C1069 C 0.64295 0.24332 0.62921 0.0
C1070 C 0.69425 0.19701 0.58907 0.0
C1071 C 0.60322 0.20667 0.62829 0.0
H1072 H 0.59327 0.14103 0.57186 0.0
H1073 H 0.63744 0.10365 0.61843 0.0
H1074 H 0.5991 0.21058 0.58309 0.0
H1075 H 0.63269 0.20767 0.57111 0.0
H1076 H 0.60138 0.18904 0.56233 0.0
H1077 H 0.67073 0.12948 0.63634 0.0
H1078 H 0.68597 0.16178 0.62643 0.0
H1079 H 0.6551 0.16423 0.64119 0.0
H1080 H 0.70704 0.24709 0.60644 0.0
H1081 H 0.63039 0.25485 0.6395 0.0
H1082 H 0.68139 0.19099 0.57668 0.0
H1083 H 0.70214 0.17671 0.59544 0.0
H1084 H 0.71314 0.20988 0.5845 0.0
H1085 H 0.58916 0.20182 0.61624 0.0
H1086 H 0.592 0.22241 0.6374 0.0
H1087 H 0.60618 0.18629 0.63614 0.0
C1088 C 0.12108 0.38431 0.83366 0.0
C1089 C 0.13092 0.36787 0.84872 0.0
C1090 C 0.09659 0.40192 0.83534 0.0
C1091 C 0.08141 0.40257 0.85237 0.0
C1092 C 0.09161 0.38638 0.8677 0.0
C1093 C 0.11637 0.36942 0.86571 0.0
C1094 C 0.08664 0.41932 0.81884 0.0
C1095 C 0.07585 0.38623 0.88606 0.0
C1096 C 0.02721 0.45872 0.8676 0.0
C1097 C 0.00137 0.44347 0.86541 0.0
C1098 C 0.05352 0.44666 0.86191 0.0
C1099 C 0.05385 0.41863 0.85413 0.0
C1100 C 0.02757 0.40424 0.85051 0.0
C1101 C 0.00161 0.41695 0.85608 0.0
C1102 C 0.08106 0.46298 0.86557 0.0
C1103 C 0.02695 0.37428 0.84229 0.0
H1104 H 0.13244 0.38331 0.82053 0.0
H1105 H 0.12389 0.35672 0.87739 0.0
H1106 H 0.06571 0.41087 0.81379 0.0
H1107 H 0.08316 0.44214 0.82291 0.0
H1108 H 0.10235 0.41863 0.80721 0.0
H1109 H 0.08695 0.37289 0.89668 0.0
H1110 H 0.07381 0.40854 0.89145 0.0
H1111 H 0.05374 0.37767 0.8841 0.0
H1112 H 0.02711 0.47935 0.87467 0.0
H1113 H 0.98166 0.40514 0.85423 0.0
H1114 H 0.09593 0.46122 0.85356 0.0
H1115 H 0.09212 0.4535 0.87778 0.0
H1116 H 0.07696 0.48615 0.86845 0.0
H1117 H 0.04101 0.37301 0.82987 0.0
H1118 H 0.00483 0.36756 0.8383 0.0
H1119 H 0.03536 0.35865 0.85263 0.0
C1120 C 0.88579 0.87512 0.08717 0.0
C1121 C 0.88038 0.89859 0.09892 0.0
C1122 C 0.87285 0.84822 0.09046 0.0
C1123 C 0.85406 0.84491 0.10579 0.0
C1124 C 0.84703 0.86909 0.11689 0.0
C1125 C 0.86035 0.89564 0.11335 0.0
C1126 C 0.8808 0.82296 0.07828 0.0
C1127 C 0.8269 0.86651 0.13328 0.0
C1128 C 0.80882 0.77738 0.11269 0.0
C1129 C 0.82529 0.76246 0.12589 0.0
C1130 C 0.81822 0.80399 0.10556 0.0
C1131 C 0.84469 0.81571 0.11174 0.0
C1132 C 0.86178 0.80022 0.1246 0.0
C1133 C 0.85183 0.77384 0.13154 0.0
C1134 C 0.79946 0.81994 0.09187 0.0
C1135 C 0.89024 0.81189 0.13147 0.0
H1136 H 0.90119 0.87735 0.07595 0.0
H1137 H 0.8559 0.91382 0.12236 0.0
H1138 H 0.89499 0.80807 0.08614 0.0
H1139 H 0.8613 0.81067 0.07422 0.0
H1140 H 0.89232 0.82987 0.06551 0.0
H1141 H 0.82107 0.88789 0.13914 0.0
H1142 H 0.80686 0.85512 0.12922 0.0
H1143 H 0.83737 0.85358 0.14435 0.0
H1144 H 0.7883 0.76862 0.10828 0.0
H1145 H 0.86474 0.76229 0.14164 0.0
H1146 H 0.81218 0.82622 0.07947 0.0
H1147 H 0.79137 0.8401 0.09831 0.0
H1148 H 0.78071 0.80686 0.08731 0.0
H1149 H 0.90451 0.81698 0.11956 0.0
H1150 H 0.90158 0.79647 0.14074 0.0
H1151 H 0.88663 0.83225 0.13922 0.0
C1152 C 0.48418 0.57109 0.36239 0.0
C1153 C 0.48314 0.55539 0.37897 0.0
C1154 C 0.45941 0.58468 0.35544 0.0
C1155 C 0.43296 0.58163 0.36505 0.0
C1156 C 0.43152 0.56407 0.38111 0.0
C1157 C 0.45678 0.55158 0.38807 0.0
C1158 C 0.46197 0.60384 0.33857 0.0
C1159 C 0.40357 0.55958 0.39144 0.0
C1160 C 0.3781 0.64196 0.36439 0.0
C1161 C 0.35821 0.63193 0.3513 0.0
C1162 C 0.40301 0.62619 0.36846 0.0
C1163 C 0.40763 0.59928 0.35967 0.0
C1164 C 0.38758 0.58903 0.34641 0.0
C1165 C 0.36323 0.60578 0.34214 0.0
C1166 C 0.42426 0.63824 0.38233 0.0
C1167 C 0.3914 0.56007 0.33717 0.0
H1168 H 0.50469 0.57417 0.35546 0.0
H1169 H 0.45602 0.53919 0.40083 0.0
H1170 H 0.44488 0.59873 0.32834 0.0
H1171 H 0.459 0.62666 0.34279 0.0
H1172 H 0.48328 0.60172 0.33169 0.0
H1173 H 0.4053 0.54226 0.40204 0.0
H1174 H 0.39732 0.57987 0.39854 0.0
H1175 H 0.38602 0.55398 0.38163 0.0
H1176 H 0.37431 0.66236 0.37132 0.0
H1177 H 0.34769 0.59802 0.33209 0.0
H1178 H 0.4462 0.63867 0.37623 0.0
H1179 H 0.42507 0.62418 0.39477 0.0
H1180 H 0.41853 0.66042 0.38684 0.0
H1181 H 0.41265 0.55895 0.33018 0.0
H1182 H 0.37429 0.55561 0.32678 0.0
H1183 H 0.39099 0.5428 0.34783 0.0
C1184 C 0.35709 0.10643 0.1116 0.0
C1185 C 0.37911 0.10556 0.09831 0.0
C1186 C 0.34389 0.13255 0.11642 0.0
C1187 C 0.35319 0.15841 0.10786 0.0
C1188 C 0.37429 0.15742 0.09368 0.0
C1189 C 0.38693 0.13091 0.089 0.0
C1190 C 0.3212 0.13267 0.13144 0.0
C1191 C 0.38483 0.18456 0.0843 0.0
C1192 C 0.30868 0.2261 0.11568 0.0
C1193 C 0.32309 0.23856 0.13079 0.0
C1194 C 0.31841 0.20015 0.10783 0.0
C1195 C 0.34319 0.18658 0.11523 0.0
C1196 C 0.35811 0.19941 0.13024 0.0
C1197 C 0.34781 0.22519 0.13788 0.0
C1198 C 0.30191 0.18697 0.0919 0.0
C1199 C 0.38474 0.18568 0.13844 0.0
H1200 H 0.35083 0.08681 0.11872 0.0
H1201 H 0.40395 0.1303 0.0787 0.0
H1202 H 0.32996 0.14313 0.14408 0.0
H1203 H 0.30216 0.14534 0.12697 0.0
H1204 H 0.31404 0.11054 0.13515 0.0
H1205 H 0.39876 0.17982 0.07214 0.0
H1206 H 0.36639 0.19794 0.07964 0.0
H1207 H 0.39739 0.1976 0.09435 0.0
H1208 H 0.28954 0.2364 0.11018 0.0
H1209 H 0.3591 0.23481 0.1495 0.0
H1210 H 0.29315 0.1657 0.09613 0.0
H1211 H 0.3165 0.18317 0.07995 0.0
H1212 H 0.28378 0.20083 0.08726 0.0
H1213 H 0.37928 0.16423 0.14428 0.0
H1214 H 0.39444 0.19902 0.14962 0.0
H1215 H 0.40114 0.18225 0.12746 0.0
C1216 C 0.52977 0.5311 0.87109 0.0
C1217 C 0.50373 0.54559 0.8679 0.0
C1218 C 0.55603 0.54296 0.86516 0.0
C1219 C 0.55613 0.57003 0.85606 0.0
C1220 C 0.52972 0.58351 0.85148 0.0
C1221 C 0.50381 0.571 0.85735 0.0
C1222 C 0.58374 0.52761 0.86989 0.0
C1223 C 0.52885 0.61243 0.84184 0.0
C1224 C 0.61736 0.62179 0.86572 0.0
C1225 C 0.63224 0.62167 0.84881 0.0
C1226 C 0.59297 0.6045 0.86835 0.0
C1227 C 0.58347 0.58631 0.85379 0.0
C1228 C 0.59904 0.58526 0.83692 0.0
C1229 C 0.62317 0.60319 0.83456 0.0
C1230 C 0.57681 0.60646 0.88651 0.0
C1231 C 0.58983 0.56575 0.82124 0.0
H1232 H 0.5298 0.51131 0.87911 0.0
H1233 H 0.48373 0.5822 0.85472 0.0
H1234 H 0.5989 0.52822 0.85799 0.0
H1235 H 0.5943 0.53869 0.88172 0.0
H1236 H 0.57994 0.50477 0.87386 0.0
H1237 H 0.50672 0.61833 0.83736 0.0
H1238 H 0.53682 0.62934 0.85146 0.0
H1239 H 0.54314 0.61246 0.82951 0.0
H1240 H 0.6243 0.63604 0.87677 0.0
H1241 H 0.63477 0.60292 0.8215 0.0
H1242 H 0.57495 0.5848 0.89293 0.0
H1243 H 0.55462 0.61445 0.88397 0.0
H1244 H 0.58746 0.62114 0.89658 0.0
H1245 H 0.58648 0.54346 0.82641 0.0
H1246 H 0.6059 0.56523 0.80982 0.0
H1247 H 0.56898 0.5733 0.8155 0.0
C1248 C 0.20697 0.78571 0.61498 0.0
C1249 C 0.18889 0.76172 0.61705 0.0
C1250 C 0.19603 0.81215 0.60854 0.0
C1251 C 0.16634 0.81453 0.60431 0.0
C1252 C 0.14847 0.78985 0.60525 0.0
C1253 C 0.16001 0.76372 0.61152 0.0
C1254 C 0.21583 0.83788 0.60736 0.0
C1255 C 0.11668 0.79145 0.60089 0.0
C1256 C 0.1256 0.88361 0.61355 0.0
C1257 C 0.11962 0.89324 0.59553 0.0
C1258 C 0.14203 0.85874 0.61658 0.0
C1259 C 0.15295 0.84322 0.60119 0.0
C1260 C 0.14835 0.85371 0.58297 0.0
C1261 C 0.13156 0.87859 0.58034 0.0
C1262 C 0.14637 0.84824 0.63624 0.0
C1263 C 0.16003 0.83796 0.56626 0.0
H1264 H 0.22937 0.78421 0.61913 0.0
H1265 H 0.14597 0.74517 0.61295 0.0
H1266 H 0.21215 0.84996 0.59428 0.0
H1267 H 0.21122 0.85279 0.61903 0.0
H1268 H 0.23887 0.83151 0.6081 0.0
H1269 H 0.10636 0.76983 0.60073 0.0
H1270 H 0.10569 0.80488 0.6115 0.0
H1271 H 0.11315 0.80185 0.58722 0.0
H1272 H 0.11657 0.89496 0.62535 0.0
H1273 H 0.12715 0.88609 0.56637 0.0
H1274 H 0.16955 0.84436 0.63896 0.0
H1275 H 0.13497 0.82742 0.63819 0.0
H1276 H 0.13816 0.86383 0.64669 0.0
H1277 H 0.18296 0.83213 0.56841 0.0
H1278 H 0.15819 0.85102 0.55338 0.0
H1279 H 0.14788 0.8176 0.56425 0.0
C1280 C 0.98731 0.44185 0.36502 0.0
C1281 C 0.99659 0.42757 0.3811 0.0
C1282 C 0.96216 0.43308 0.35574 0.0
C1283 C 0.94618 0.40943 0.36271 0.0
C1284 C 0.9557 0.3948 0.37883 0.0
C1285 C 0.98072 0.40411 0.38785 0.0
C1286 C 0.9525 0.44925 0.33866 0.0
C1287 C 0.93934 0.36937 0.38665 0.0
C1288 C 0.86674 0.39736 0.35462 0.0
C1289 C 0.86719 0.37414 0.34219 0.0
C1290 C 0.89235 0.41065 0.36033 0.0
C1291 C 0.91901 0.40012 0.35364 0.0
C1292 C 0.91946 0.37791 0.34015 0.0
C1293 C 0.89344 0.36527 0.33447 0.0
C1294 C 0.89094 0.4346 0.37449 0.0
C1295 C 0.94747 0.366 0.33277 0.0
H1296 H -0.00043 0.45999 0.35976 0.0
H1297 H 0.98787 0.39292 0.40023 0.0
H1298 H 0.95036 0.4342 0.32677 0.0
H1299 H 0.93096 0.45888 0.34111 0.0
H1300 H 0.96772 0.46672 0.33476 0.0
H1301 H 0.95015 0.35985 0.39897 0.0
H1302 H 0.91734 0.37618 0.39075 0.0
H1303 H 0.93704 0.35238 0.37592 0.0
H1304 H 0.84641 0.40446 0.36045 0.0
H1305 H 0.89384 0.34732 0.32484 0.0
H1306 H 0.90526 0.45269 0.37043 0.0
H1307 H 0.89856 0.42643 0.38811 0.0
H1308 H 0.8687 0.44301 0.37625 0.0
H1309 H 0.96224 0.38372 0.32873 0.0
H1310 H 0.9441 0.35169 0.3206 0.0
H1311 H 0.95831 0.35337 0.34384 0.0
C1312 C 0.34307 0.76856 0.35777 0.0
C1313 C 0.31507 0.75972 0.36225 0.0
C1314 C 0.35422 0.79455 0.36453 0.0
C1315 C 0.33678 0.81235 0.37586 0.0
C1316 C 0.30847 0.80356 0.38048 0.0
C1317 C 0.29798 0.77716 0.37371 0.0
C1318 C 0.38466 0.803 0.35946 0.0
C1319 C 0.2892 0.8222 0.39234 0.0
C1320 C 0.3788 0.86718 0.40385 0.0
C1321 C 0.37838 0.89101 0.3919 0.0
C1322 C 0.36408 0.84174 0.39927 0.0
C1323 C 0.34835 0.84036 0.38246 0.0
C1324 C 0.3464 0.86501 0.37093 0.0
C1325 C 0.36165 0.89 0.37573 0.0
C1326 C 0.36686 0.81582 0.41183 0.0
C1327 C 0.32949 0.8645 0.35304 0.0
H1328 H 0.35642 0.75503 0.34901 0.0
H1329 H 0.27628 0.77037 0.37715 0.0
H1330 H 0.38448 0.82345 0.35146 0.0
H1331 H 0.39747 0.80681 0.37223 0.0
H1332 H 0.39567 0.78625 0.35102 0.0
H1333 H 0.26789 0.81206 0.39491 0.0
H1334 H 0.29966 0.82657 0.40589 0.0
H1335 H 0.28576 0.84333 0.38545 0.0
H1336 H 0.39171 0.86792 0.41638 0.0
H1337 H 0.36107 0.90852 0.36655 0.0
H1338 H 0.38002 0.79906 0.40483 0.0
H1339 H 0.3454 0.80626 0.41465 0.0
H1340 H 0.37723 0.82129 0.42527 0.0
H1341 H 0.34053 0.85038 0.34284 0.0
H1342 H 0.32723 0.88633 0.34685 0.0
H1343 H 0.30768 0.85542 0.3554 0.0
C1344 C 0.98874 0.59794 0.10541 0.0
C1345 C 0.9961 0.56936 0.10958 0.0
C1346 C 0.96324 0.61018 0.11216 0.0
C1347 C 0.94446 0.59331 0.12319 0.0
C1348 C 0.95187 0.56449 0.12761 0.0
C1349 C 0.97777 0.55287 0.12082 0.0
C1350 C 0.95625 0.6411 0.10731 0.0
C1351 C 0.93222 0.54582 0.13919 0.0
C1352 C 0.89002 0.63554 0.15151 0.0
C1353 C 0.86609 0.63545 0.13965 0.0
C1354 C 0.91544 0.62102 0.14664 0.0
C1355 C 0.91676 0.60586 0.12961 0.0
C1356 C 0.89222 0.60467 0.11798 0.0
C1357 C 0.86721 0.61964 0.12309 0.0
C1358 C 0.94125 0.62297 0.15933 0.0
C1359 C 0.89272 0.58846 0.0998 0.0
H1360 H 0.00294 0.61082 0.0968 0.0
H1361 H 0.98339 0.53074 0.12403 0.0
H1362 H 0.93607 0.64197 0.09908 0.0
H1363 H 0.9526 0.65378 0.12015 0.0
H1364 H 0.97368 0.65158 0.09918 0.0
H1365 H 0.94147 0.5241 0.1418 0.0
H1366 H 0.92786 0.55634 0.15273 0.0
H1367 H 0.91121 0.54321 0.13205 0.0
H1368 H 0.88923 0.64775 0.16433 0.0
H1369 H 0.84867 0.61935 0.11395 0.0
H1370 H 0.95862 0.63536 0.15237 0.0
H1371 H 0.94987 0.60114 0.16229 0.0
H1372 H 0.93604 0.6337 0.1727 0.0
H1373 H 0.90783 0.59916 0.09006 0.0
H1374 H 0.87113 0.58751 0.09318 0.0
H1375 H 0.90059 0.56613 0.10198 0.0
C1376 C 0.1438 0.22252 0.85918 0.0
C1377 C 0.1658 0.23765 0.86825 0.0
C1378 C 0.13299 0.19667 0.86645 0.0
C1379 C 0.14445 0.18569 0.88323 0.0
C1380 C 0.16626 0.20116 0.89268 0.0
C1381 C 0.17672 0.22701 0.88506 0.0
C1382 C 0.1097 0.18081 0.85595 0.0
C1383 C 0.17889 0.19012 0.91064 0.0
C1384 C 0.09792 0.12892 0.90644 0.0
C1385 C 0.11009 0.10346 0.89947 0.0
C1386 C 0.10972 0.15593 0.902 0.0
C1387 C 0.13422 0.1574 0.89033 0.0
C1388 C 0.14741 0.13168 0.88404 0.0
C1389 C 0.13517 0.105 0.88869 0.0
C1390 C 0.09513 0.1829 0.90903 0.0
C1391 C 0.17361 0.13236 0.87162 0.0
H1392 H 0.13523 0.23068 0.8462 0.0
H1393 H 0.1937 0.23868 0.89214 0.0
H1394 H 0.11774 0.15934 0.85157 0.0
H1395 H 0.0908 0.17716 0.86507 0.0
H1396 H 0.10247 0.19275 0.84341 0.0
H1397 H 0.19464 0.20544 0.91675 0.0
H1398 H 0.16151 0.18612 0.92089 0.0
H1399 H 0.18989 0.16923 0.90817 0.0
H1400 H 0.07857 0.12783 0.91483 0.0
H1401 H 0.14475 0.08537 0.88334 0.0
H1402 H 0.08493 0.19443 0.89724 0.0
H1403 H 0.11115 0.19774 0.91528 0.0
H1404 H 0.07826 0.17806 0.91952 0.0
H1405 H 0.16771 0.14172 0.85796 0.0
H1406 H 0.18275 0.11052 0.86929 0.0
H1407 H 0.19055 0.1463 0.87772 0.0
C1408 C 0.51741 0.4524 0.62393 0.0
C1409 C 0.49654 0.43127 0.62033 0.0
C1410 C 0.54486 0.44469 0.6305 0.0
C1411 C 0.55155 0.4152 0.63323 0.0
C1412 C 0.53009 0.39397 0.63041 0.0
C1413 C 0.50282 0.4023 0.62412 0.0
C1414 C 0.56703 0.46794 0.63374 0.0
C1415 C 0.53638 0.36225 0.63304 0.0
C1416 C 0.62678 0.386 0.62619 0.0
C1417 C 0.63463 0.37864 0.64436 0.0
C1418 C 0.60036 0.39941 0.62248 0.0
C1419 C 0.58151 0.40593 0.63735 0.0
C1420 C 0.59016 0.4003 0.65584 0.0
C1421 C 0.61659 0.38649 0.65913 0.0
C1422 C 0.59187 0.40488 0.60255 0.0
C1423 C 0.57086 0.40746 0.67206 0.0
H1424 H 0.51258 0.47485 0.62111 0.0
H1425 H 0.48674 0.38587 0.62143 0.0
H1426 H 0.57799 0.46464 0.64726 0.0
H1427 H 0.58376 0.46684 0.62277 0.0
H1428 H 0.55735 0.48985 0.63354 0.0
H1429 H 0.51688 0.34865 0.63123 0.0
H1430 H 0.55284 0.35523 0.62283 0.0
H1431 H 0.54531 0.3583 0.64709 0.0
H1432 H 0.64071 0.38009 0.61472 0.0
H1433 H 0.6227 0.38107 0.67323 0.0
H1434 H 0.58453 0.42746 0.60075 0.0
H1435 H 0.5736 0.39062 0.59875 0.0
H1436 H 0.60988 0.40077 0.59274 0.0
H1437 H 0.56196 0.42955 0.67061 0.0
H1438 H 0.58243 0.40588 0.68552 0.0
H1439 H 0.5524 0.39229 0.67235 0.0
C1440 C 0.2376 0.26072 0.20542 0.0
C1441 C 0.26225 0.27819 0.20551 0.0
C1442 C 0.22792 0.24732 0.22171 0.0
C1443 C 0.24324 0.2516 0.23846 0.0
C1444 C 0.26793 0.26951 0.23868 0.0
C1445 C 0.27718 0.28258 0.22217 0.0
C1446 C 0.20152 0.22833 0.22097 0.0
C1447 C 0.28475 0.27463 0.25632 0.0
C1448 C 0.20668 0.23737 0.28462 0.0
C1449 C 0.21838 0.21055 0.28949 0.0
C1450 C 0.21419 0.25079 0.26786 0.0
C1451 C 0.23378 0.23697 0.25573 0.0
C1452 C 0.24506 0.20954 0.26035 0.0
C1453 C 0.23725 0.19666 0.27723 0.0
C1454 C 0.20175 0.28006 0.26337 0.0
C1455 C 0.26589 0.1941 0.24769 0.0
H1456 H 0.226 0.25726 0.19255 0.0
H1457 H 0.29623 0.29609 0.22229 0.0
H1458 H 0.20726 0.20602 0.22512 0.0
H1459 H 0.18511 0.23617 0.23096 0.0
H1460 H 0.19173 0.22769 0.20691 0.0
H1461 H 0.30311 0.28965 0.25421 0.0
H1462 H 0.27041 0.28368 0.26717 0.0
H1463 H 0.29325 0.25387 0.26166 0.0
H1464 H 0.1921 0.24819 0.29409 0.0
H1465 H 0.24631 0.1759 0.28095 0.0
H1466 H 0.191 0.27956 0.24962 0.0
H1467 H 0.21932 0.29622 0.26252 0.0
H1468 H 0.18591 0.28735 0.27393 0.0
H1469 H 0.25642 0.19177 0.23363 0.0
H1470 H 0.27173 0.17236 0.25296 0.0
H1471 H 0.28589 0.20701 0.24621 0.0
C1472 C 0.0254 0.00525 0.52935 0.0
C1473 C 0.0232 0.97747 0.53685 0.0
C1474 C 0.01213 0.01215 0.51246 0.0
C1475 C 0.99584 0.99088 0.50308 0.0
C1476 C 0.99344 0.9628 0.51063 0.0
C1477 C 0.00743 0.95633 0.52738 0.0
C1478 C 0.01559 0.04218 0.50464 0.0
C1479 C 0.97586 0.93972 0.50114 0.0
C1480 C 0.94079 0.01836 0.46844 0.0
C1481 C 0.95525 0.01407 0.45161 0.0
C1482 C 0.95348 0.01025 0.48532 0.0
C1483 C 0.98145 -0.00192 0.4853 0.0
C1484 C 0.99607 0.99359 0.46831 0.0
C1485 C 0.98266 0.00143 0.45163 0.0
C1486 C 0.93709 0.01491 0.50318 0.0
C1487 C 0.0261 0.98108 0.46777 0.0
H1488 H 0.0377 0.02158 0.53664 0.0
H1489 H 0.00555 0.93489 0.53326 0.0
H1490 H 0.02511 0.04107 0.49053 0.0
H1491 H 0.99422 0.05266 0.5033 0.0
H1492 H 0.02954 0.056 0.51347 0.0
H1493 H 0.97585 0.91909 0.50898 0.0
H1494 H 0.95328 0.94713 0.4995 0.0
H1495 H 0.98447 0.93563 0.48702 0.0
H1496 H 0.91951 0.02799 0.46842 0.0
H1497 H 0.99393 -0.0018 0.43862 0.0
H1498 H 0.94882 0.03048 0.51209 0.0
H1499 H 0.93553 0.99436 0.51101 0.0
H1500 H 0.915 0.02328 0.50072 0.0
H1501 H 0.04107 0.99523 0.47559 0.0
H1502 H 0.03433 0.97865 0.45338 0.0
H1503 H 0.02639 0.95965 0.47461 0.0
C1504 C 0.26198 0.72588 0.70631 0.0
C1505 C 0.23362 0.7273 0.69972 0.0
C1506 C 0.26937 0.73754 0.7236 0.0
C1507 C 0.24792 0.7512 0.73444 0.0
C1508 C 0.21932 0.75306 0.72774 0.0
C1509 C 0.21245 0.74091 0.71046 0.0
C1510 C 0.30004 0.73489 0.73038 0.0
C1511 C 0.19598 0.76775 0.73886 0.0
C1512 C 0.26118 0.75602 0.78623 0.0
C1513 C 0.27207 0.78407 0.78799 0.0
C1514 C 0.25297 0.74514 0.76887 0.0
C1515 C 0.25539 0.7629 0.75298 0.0
C1516 C 0.26585 0.79145 0.75472 0.0
C1517 C 0.27427 0.80165 0.77223 0.0
C1518 C 0.24224 0.71446 0.7675 0.0
C1519 C 0.26838 0.81109 0.73808 0.0
H1520 H 0.27839 0.71532 0.69805 0.0
H1521 H 0.19053 0.74214 0.70535 0.0
H1522 H 0.30909 0.75659 0.73322 0.0
H1523 H 0.30054 0.72267 0.74362 0.0
H1524 H 0.31417 0.72379 0.7202 0.0
H1525 H 0.17504 0.76821 0.7314 0.0
H1526 H 0.19292 0.75639 0.75227 0.0
H1527 H 0.20244 0.79022 0.74212 0.0
H1528 H 0.25952 0.74235 0.79839 0.0
H1529 H 0.28254 0.82341 0.77359 0.0
H1530 H 0.25668 0.7018 0.75832 0.0
H1531 H 0.22047 0.71406 0.76118 0.0
H1532 H 0.24121 0.70365 0.78125 0.0
H1533 H 0.28392 0.8019 0.72799 0.0
H1534 H 0.27568 0.83311 0.74194 0.0
H1535 H 0.24729 0.81278 0.73093 0.0
C1536 C 0.48506 0.04193 0.03354 0.0
C1537 C 0.46711 0.02076 0.04123 0.0
C1538 C 0.49913 0.03723 0.01658 0.0
C1539 C 0.49496 0.01083 0.00711 0.0
C1540 C 0.4765 0.98957 0.01468 0.0
C1541 C 0.46285 0.99478 0.0317 0.0
C1542 C 0.51875 0.06032 0.00891 0.0
C1543 C 0.4714 0.96122 0.0049 0.0
C1544 C 0.51087 0.00568 0.95562 0.0
C1545 C 0.53735 0.99116 0.95562 0.0
C1546 C 0.49703 0.01268 0.97231 0.0
C1547 C 0.51014 0.00515 0.98936 0.0
C1548 C 0.53723 0.99114 0.98945 0.0
C1549 C 0.55048 0.9842 0.97255 0.0
C1550 C 0.46806 0.02746 0.97169 0.0
C1551 C 0.55194 0.983 0.0074 0.0
H1552 H 0.48845 0.06203 0.0409 0.0
H1553 H 0.44894 0.97838 0.03759 0.0
H1554 H 0.54097 0.05176 0.00757 0.0
H1555 H 0.51156 0.06673 0.99482 0.0
H1556 H 0.51933 0.07983 0.01786 0.0
H1557 H 0.45587 0.94726 0.01246 0.0
H1558 H 0.463 0.96515 0.99071 0.0
H1559 H 0.49203 0.94938 0.00344 0.0
H1560 H 0.50064 0.01107 0.94255 0.0
H1561 H 0.57102 0.97307 0.97258 0.0
H1562 H 0.46864 0.04762 0.97998 0.0
H1563 H 0.45146 0.01329 0.97799 0.0
H1564 H 0.46132 0.03283 0.95731 0.0
H1565 H 0.55425 0.00225 0.01642 0.0
H1566 H 0.57361 0.97349 0.00507 0.0
H1567 H 0.53857 0.96713 0.01505 0.0
C1568 C 0.26701 0.70372 0.27373 0.0
C1569 C 0.25583 0.71377 0.29059 0.0
C1570 C 0.25834 0.71596 0.25683 0.0
C1571 C 0.23835 0.73902 0.25688 0.0
C1572 C 0.22674 0.749 0.27386 0.0
C1573 C 0.23549 0.73611 0.29053 0.0
C1574 C 0.27087 0.70453 0.23894 0.0
C1575 C 0.20563 0.77377 0.27447 0.0
C1576 C 0.24009 0.78979 0.2157 0.0
C1577 C 0.21617 0.78048 0.20548 0.0
C1578 C 0.24732 0.77669 0.23259 0.0
C1579 C 0.23044 0.75346 0.23924 0.0
C1580 C 0.20619 0.74403 0.229 0.0
C1581 C 0.1992 0.75782 0.21227 0.0
C1582 C 0.27311 0.78759 0.24327 0.0
C1583 C 0.18791 0.71911 0.23559 0.0
H1584 H 0.28264 0.68635 0.27375 0.0
H1585 H 0.22686 0.74398 0.30356 0.0
H1586 H 0.25333 0.69836 0.22927 0.0
H1587 H 0.2837 0.72163 0.23203 0.0
H1588 H 0.28496 0.68549 0.24123 0.0
H1589 H 0.19805 0.77843 0.28878 0.0
H1590 H 0.2159 0.7935 0.26878 0.0
H1591 H 0.18666 0.76894 0.26565 0.0
H1592 H 0.25319 0.80737 0.21048 0.0
H1593 H 0.18079 0.75049 0.20432 0.0
H1594 H 0.28931 0.77015 0.2447 0.0
H1595 H 0.26652 0.79401 0.25748 0.0
H1596 H 0.2835 0.80637 0.23641 0.0
H1597 H 0.20137 0.69943 0.23688 0.0
H1598 H 0.16975 0.71446 0.22601 0.0
H1599 H 0.17903 0.72382 0.24956 0.0
C1600 C 0.49168 0.00902 0.45074 0.0
C1601 C 0.47059 0.98738 0.45071 0.0
C1602 C 0.50435 0.01825 0.46738 0.0
C1603 C 0.49574 0.00544 0.48432 0.0
C1604 C 0.47433 0.9837 0.48437 0.0
C1605 C 0.46196 0.97496 0.46754 0.0
C1606 C 0.52706 0.04155 0.46682 0.0
C1607 C 0.46468 0.96951 0.50219 0.0
C1608 C 0.54616 0.00742 0.52567 0.0
C1609 C 0.53368 0.02913 0.53655 0.0
C1610 C 0.5343 -0.00017 0.50846 0.0
C1611 C 0.50944 0.01437 0.50201 0.0
C1612 C 0.49715 0.03678 0.51274 0.0
C1613 C 0.50942 0.04387 0.52993 0.0
C1614 C 0.54798 0.97581 0.49738 0.0
C1615 C 0.4707 0.05283 0.50624 0.0
H1616 H 0.49836 0.01871 0.43774 0.0
H1617 H 0.44566 0.95822 0.46757 0.0
H1618 H 0.5205 0.0599 0.47575 0.0
H1619 H 0.54766 0.03311 0.47243 0.0
H1620 H 0.5309 0.0497 0.45253 0.0
H1621 H 0.44755 0.95318 0.49985 0.0
H1622 H 0.48326 0.95881 0.509 0.0
H1623 H 0.45641 0.98601 0.51198 0.0
H1624 H 0.56493 0.99598 0.53074 0.0
H1625 H 0.49974 0.0607 0.53831 0.0
H1626 H 0.55349 0.98353 0.48324 0.0
H1627 H 0.53246 0.95779 0.49577 0.0
H1628 H 0.56782 0.96736 0.50405 0.0
H1629 H 0.47448 0.0621 0.49226 0.0
H1630 H 0.46456 0.07052 0.51585 0.0
H1631 H 0.4523 0.03768 0.50505 0.0
C1632 C 0.22011 0.28152 0.77749 0.0
C1633 C 0.23109 0.27335 0.79482 0.0
C1634 C 0.2295 0.26799 0.76118 0.0
C1635 C 0.25019 0.24563 0.7623 0.0
C1636 C 0.26156 0.23747 0.77974 0.0
C1637 C 0.25194 0.25153 0.79582 0.0
C1638 C 0.21705 0.2774 0.74278 0.0
C1639 C 0.28351 0.21358 0.78145 0.0
C1640 C 0.25082 0.19312 0.72203 0.0
C1641 C 0.27389 0.20352 0.71143 0.0
C1642 C 0.24338 0.20615 0.73891 0.0
C1643 C 0.25927 0.23029 0.7452 0.0
C1644 C 0.28304 0.24045 0.73478 0.0
C1645 C 0.29016 0.22682 0.71801 0.0
C1646 C 0.21808 0.19455 0.74978 0.0
C1647 C 0.30037 0.26623 0.74103 0.0
H1648 H 0.20406 0.29845 0.77667 0.0
H1649 H 0.26046 0.24513 0.80921 0.0
H1650 H 0.23462 0.2838 0.73319 0.0
H1651 H 0.20542 0.25915 0.73624 0.0
H1652 H 0.2019 0.2958 0.74426 0.0
H1653 H 0.29073 0.21033 0.796 0.0
H1654 H 0.2742 0.19308 0.77626 0.0
H1655 H 0.30261 0.21847 0.77274 0.0
H1656 H 0.23826 0.17503 0.717 0.0
H1657 H 0.30798 0.23495 0.70981 0.0
H1658 H 0.20083 0.21107 0.75044 0.0
H1659 H 0.22465 0.18973 0.76425 0.0
H1660 H 0.20901 0.17464 0.7435 0.0
H1661 H 0.28641 0.28565 0.7413 0.0
H1662 H 0.31902 0.27057 0.73178 0.0
H1663 H 0.30844 0.26284 0.75536 0.0
C1664 C 0.04969 0.01789 0.97272 0.0
C1665 C 0.03436 0.00933 0.9569 0.0
C1666 C 0.03867 0.01278 0.99056 0.0
C1667 C 0.01157 -0.00088 0.99253 0.0
C1668 C 0.99607 0.99036 0.97659 0.0
C1669 C 0.00774 0.99544 0.95896 0.0
C1670 C 0.05589 0.02215 0.00728 0.0
C1671 C 0.96698 0.97596 0.97815 0.0
C1672 C 0.9906 0.96377 0.03806 0.0
C1673 C 0.97289 0.98493 0.04597 0.0
C1674 C 0.00385 0.96833 0.02081 0.0
C1675 C -0.001 0.99453 0.01123 0.0
C1676 C 0.9813 0.01605 0.01923 0.0
C1677 C 0.96854 0.01102 0.03656 0.0
C1678 C 0.0228 0.94501 0.01275 0.0
C1679 C 0.97546 0.04418 0.00935 0.0
H1680 H 0.07034 0.02852 0.97116 0.0
H1681 H 0.99579 0.98885 0.94675 0.0
H1682 H 0.04358 0.03837 0.01534 0.0
H1683 H 0.05972 0.00347 0.01658 0.0
H1684 H 0.07702 0.03163 0.00338 0.0
H1685 H 0.95784 0.97024 0.96439 0.0
H1686 H 0.96874 0.95604 0.9866 0.0
H1687 H 0.95166 0.99051 0.98537 0.0
H1688 H 0.99412 0.94363 0.04536 0.0
H1689 H 0.95486 0.02743 0.04265 0.0
H1690 H 0.04444 0.95386 0.00954 0.0
H1691 H 0.01347 0.93713 -0.00049 0.0
H1692 H 0.02534 0.9264 0.02232 0.0
H1693 H 0.99604 0.05533 0.00624 0.0
H1694 H 0.96165 0.05889 0.01765 0.0
H1695 H 0.96464 0.0399 0.9959 0.0
C1696 C 0.75078 0.75336 0.7046 0.0
C1697 C 0.7593 0.78234 0.70418 0.0
C1698 C 0.74308 0.74005 0.72134 0.0
C1699 C 0.74341 0.75632 0.73795 0.0
C1700 C 0.75165 0.78571 0.73757 0.0
C1701 C 0.75979 0.79833 0.72067 0.0
C1702 C 0.73491 0.70852 0.72128 0.0
C1703 C 0.7518 0.80381 0.75499 0.0
C1704 C 0.69918 0.72818 0.77833 0.0
C1705 C 0.72055 0.71592 0.78956 0.0
C1706 C 0.70635 0.7417 0.76155 0.0
C1707 C 0.73549 0.74243 0.75577 0.0
C1708 C 0.75709 0.72972 0.76696 0.0
C1709 C 0.74937 0.71682 0.78383 0.0
C1710 C 0.68283 0.75543 0.75008 0.0
C1711 C 0.78832 0.72965 0.76107 0.0
H1712 H 0.75054 0.74093 0.69186 0.0
H1713 H 0.76624 0.82079 0.72032 0.0
H1714 H 0.7495 0.69629 0.7306 0.0
H1715 H 0.71271 0.7058 0.7267 0.0
H1716 H 0.73602 0.69889 0.70718 0.0
H1717 H 0.75795 0.82656 0.75222 0.0
H1718 H 0.73015 0.80352 0.76151 0.0
H1719 H 0.76715 0.79462 0.7652 0.0
H1720 H 0.6769 0.72765 0.78283 0.0
H1721 H 0.7659 0.70724 0.79248 0.0
H1722 H 0.68193 0.74522 0.73617 0.0
H1723 H 0.68761 0.77864 0.74794 0.0
H1724 H 0.66132 0.75343 0.75671 0.0
H1725 H 0.79056 0.71897 0.74736 0.0
H1726 H 0.80237 0.71834 0.77121 0.0
H1727 H 0.79615 0.75211 0.75948 0.0
C1728 C 0.7524 0.24256 0.19913 0.0
C1729 C 0.73008 0.22226 0.20016 0.0
C1730 C 0.76301 0.25593 0.21518 0.0
C1731 C 0.75106 0.24869 0.23263 0.0
C1732 C 0.72883 0.22787 0.23378 0.0
C1733 C 0.71854 0.21494 0.21749 0.0
C1734 C 0.78667 0.27812 0.21344 0.0
C1735 C 0.71567 0.21952 0.25219 0.0
C1736 C 0.79232 0.26507 0.27682 0.0
C1737 C 0.77812 0.28988 0.28312 0.0
C1738 C 0.7841 0.25168 0.26019 0.0
C1739 C 0.7612 0.26347 0.24968 0.0
C1740 C 0.74731 0.28895 0.25573 0.0
C1741 C 0.75595 0.30186 0.27241 0.0
C1742 C 0.79941 0.22455 0.25411 0.0
C1743 C 0.72287 0.3022 0.24483 0.0
H1744 H 0.76138 0.24829 0.18574 0.0
H1745 H 0.70133 0.19919 0.21833 0.0
H1746 H 0.77887 0.29931 0.21853 0.0
H1747 H 0.80531 0.27192 0.22221 0.0
H1748 H 0.79419 0.28071 0.1989 0.0
H1749 H 0.69918 0.20231 0.25074 0.0
H1750 H 0.73269 0.21186 0.26181 0.0
H1751 H 0.70544 0.23864 0.25869 0.0
H1752 H 0.80946 0.25574 0.28508 0.0
H1753 H 0.74493 0.32105 0.27724 0.0
H1754 H 0.80783 0.22716 0.2398 0.0
H1755 H 0.78399 0.20627 0.25388 0.0
H1756 H 0.81759 0.21888 0.26344 0.0
H1757 H 0.72979 0.30649 0.23035 0.0
H1758 H 0.71515 0.3227 0.25106 0.0
H1759 H 0.70455 0.28687 0.24418 0.0
C1760 C 0.79538 0.22341 0.77167 0.0
C1761 C 0.77487 0.21093 0.78345 0.0
C1762 C 0.78698 0.23734 0.75526 0.0
C1763 C 0.75745 0.23821 0.75039 0.0
C1764 C 0.73675 0.22488 0.76199 0.0
C1765 C 0.74569 0.21164 0.77851 0.0
C1766 C 0.8096 0.25171 0.74336 0.0
C1767 C 0.70514 0.22483 0.75703 0.0
C1768 C 0.7309 0.29692 0.71795 0.0
C1769 C 0.73045 0.28241 0.70091 0.0
C1770 C 0.73996 0.28285 0.73417 0.0
C1771 C 0.74814 0.25346 0.73331 0.0
C1772 C 0.74736 0.23863 0.71616 0.0
C1773 C 0.73879 0.25339 0.70011 0.0
C1774 C 0.74101 0.29948 0.75218 0.0
C1775 C 0.75537 0.20713 0.71479 0.0
H1776 H 0.81794 0.22303 0.77555 0.0
H1777 H 0.72983 0.20187 0.78758 0.0
H1778 H 0.80908 0.24271 0.72911 0.0
H1779 H 0.80495 0.27512 0.74224 0.0
H1780 H 0.83166 0.24894 0.74907 0.0
H1781 H 0.69201 0.21231 0.7671 0.0
H1782 H 0.69691 0.24727 0.75663 0.0
H1783 H 0.70203 0.21552 0.74299 0.0
H1784 H 0.72458 0.31941 0.71855 0.0
H1785 H 0.73827 0.24209 0.68694 0.0
H1786 H 0.76312 0.29879 0.758 0.0
H1787 H 0.72648 0.28935 0.76252 0.0
H1788 H 0.73457 0.32238 0.75039 0.0
H1789 H 0.77799 0.20396 0.71931 0.0
H1790 H 0.75302 0.19862 0.70046 0.0
H1791 H 0.74156 0.19419 0.72422 0.0
C1792 C 0.70739 0.75489 0.28152 0.0
C1793 C 0.72768 0.77015 0.29203 0.0
C1794 C 0.71468 0.74354 0.26407 0.0
C1795 C 0.74278 0.74793 0.25698 0.0
C1796 C 0.76328 0.76344 0.26753 0.0
C1797 C 0.75552 0.77422 0.28498 0.0
C1798 C 0.69237 0.72684 0.25326 0.0
C1799 C 0.79336 0.76884 0.26032 0.0
C1800 C 0.77253 0.69935 0.2192 0.0
C1801 C 0.76841 0.71637 0.20335 0.0
C1802 C 0.76368 0.70909 0.23673 0.0
C1803 C 0.75078 0.73662 0.23841 0.0
C1804 C 0.74645 0.75383 0.22243 0.0
C1805 C 0.75516 0.7434 0.20505 0.0
C1806 C 0.76835 0.69004 0.25347 0.0
C1807 C 0.73309 0.78346 0.22372 0.0
H1808 H 0.68588 0.75162 0.28698 0.0
H1809 H 0.77125 0.7861 0.29306 0.0
H1810 H 0.68818 0.73763 0.23979 0.0
H1811 H 0.70055 0.70489 0.25013 0.0
H1812 H 0.67169 0.72485 0.26091 0.0
H1813 H 0.80667 0.78146 0.27022 0.0
H1814 H 0.80433 0.74802 0.25756 0.0
H1815 H 0.79234 0.78073 0.24697 0.0
H1816 H 0.78262 0.67837 0.2179 0.0
H1817 H 0.75199 0.75663 0.19282 0.0
H1818 H 0.74766 0.6866 0.26086 0.0
H1819 H 0.78325 0.70075 0.26333 0.0
H1820 H 0.77749 0.6687 0.24968 0.0
H1821 H 0.71153 0.78206 0.23029 0.0
H1822 H 0.73076 0.79388 0.20992 0.0
H1823 H 0.74658 0.79751 0.23265 0.0
C1824 C 0.53829 0.47699 0.0273 0.0
C1825 C 0.52688 0.49061 0.04302 0.0
C1826 C 0.52696 0.48246 0.00959 0.0
C1827 C 0.50356 0.50179 0.00767 0.0
C1828 C 0.49205 0.51569 0.0235 0.0
C1829 C 0.50395 0.51002 0.041 0.0
C1830 C 0.53991 0.46743 0.99297 0.0
C1831 C 0.46695 0.53628 0.02198 0.0
C1832 C 0.48837 0.5348 0.9605 0.0
C1833 C 0.46608 0.5171 0.954 0.0
C1834 C 0.5009 0.52998 0.97794 0.0
C1835 C 0.4907 0.50707 0.98913 0.0
C1836 C 0.46806 0.48927 0.98269 0.0
C1837 C 0.45608 0.49444 0.96514 0.0
C1838 C 0.52514 0.54928 0.98434 0.0
C1839 C 0.45647 0.46478 0.99432 0.0
H1840 H 0.55608 0.46203 0.02882 0.0
H1841 H 0.49504 0.52055 0.05314 0.0
H1842 H 0.5234 0.45374 0.98617 0.0
H1843 H 0.54709 0.48358 0.9826 0.0
H1844 H 0.55857 0.45365 0.99678 0.0
H1845 H 0.46075 0.54555 0.03563 0.0
H1846 H 0.4724 0.55421 0.01241 0.0
H1847 H 0.44803 0.52494 0.01605 0.0
H1848 H 0.49622 0.55228 0.95188 0.0
H1849 H 0.43883 0.48072 0.96016 0.0
H1850 H 0.54462 0.53618 0.98725 0.0
H1851 H 0.51906 0.56019 0.99747 0.0
H1852 H 0.53073 0.56599 0.97389 0.0
H1853 H 0.47395 0.44919 0.99742 0.0
H1854 H 0.43864 0.45309 0.98733 0.0
H1855 H 0.44849 0.47316 0.0078 0.0
C1856 C 0.03755 0.50416 0.46608 0.0
C1857 C 0.03863 0.4751 0.46086 0.0
C1858 C 0.02534 0.51242 0.48306 0.0
C1859 C 0.01342 0.49111 0.49484 0.0
C1860 C 0.01443 0.4617 0.48961 0.0
C1861 C 0.02733 0.45401 0.47272 0.0
C1862 C 0.02514 0.54393 0.48837 0.0
C1863 C 0.00149 0.43846 0.5017 0.0
C1864 C 0.00281 0.50847 0.54579 0.0
C1865 C 0.97372 0.5165 0.54617 0.0
C1866 C 0.01608 0.50031 0.52913 0.0
C1867 C -0.00033 0.49964 0.51259 0.0
C1868 C 0.97017 0.50736 0.51295 0.0
C1869 C 0.9576 0.51601 0.52975 0.0
C1870 C 0.04772 0.49273 0.52918 0.0
C1871 C 0.95189 0.5064 0.49563 0.0
H1872 H 0.04643 0.52047 0.45694 0.0
H1873 H 0.028 0.43153 0.46862 0.0
H1874 H 0.00263 0.55159 0.48987 0.0
H1875 H 0.03586 0.54689 0.502 0.0
H1876 H 0.03621 0.55765 0.47794 0.0
H1877 H 0.00391 0.41663 0.49554 0.0
H1878 H 0.01188 0.43856 0.51556 0.0
H1879 H 0.97822 0.44279 0.50386 0.0
H1880 H 0.01533 0.509 0.55848 0.0
H1881 H 0.93505 0.52207 0.53007 0.0
H1882 H 0.05955 0.50711 0.51951 0.0
H1883 H 0.0508 0.47032 0.5242 0.0
H1884 H 0.05748 0.49469 0.5432 0.0
H1885 H 0.96065 0.52147 0.48509 0.0
H1886 H 0.92909 0.51224 0.4984 0.0
H1887 H 0.95252 0.48445 0.48951 0.0
C1888 C 0.01318 0.48872 0.03602 0.0
C1889 C 0.03702 0.50726 0.03613 0.0
C1890 C -0.00029 0.48103 0.01933 0.0
C1891 C 0.01051 0.49202 0.00239 0.0
C1892 C 0.03505 0.51015 0.00238 0.0
C1893 C 0.04798 0.51765 0.01929 0.0
C1894 C 0.97349 0.46177 0.01988 0.0
C1895 C 0.04728 0.52208 0.98453 0.0
C1896 C 0.98873 0.45558 0.95738 0.0
C1897 C 0.96728 0.4743 0.95089 0.0
C1898 C 0.00299 0.46101 0.97419 0.0
C1899 C 0.99538 0.48559 0.98474 0.0
C1900 C 0.97341 0.50429 0.97838 0.0
C1901 C 0.95969 0.49847 0.96147 0.0
C1902 C 0.02644 0.4407 0.98052 0.0
C1903 C 0.96455 0.53059 0.98936 0.0
H1904 H 0.00464 0.48064 0.04903 0.0
H1905 H 0.06648 0.53191 0.01933 0.0
H1906 H 0.95452 0.47365 0.01447 0.0
H1907 H 0.97676 0.44274 0.01079 0.0
H1908 H 0.96852 0.45412 0.03414 0.0
H1909 H 0.06734 0.53463 0.98684 0.0
H1910 H 0.052 0.50426 0.97471 0.0
H1911 H 0.03119 0.53632 0.97778 0.0
H1912 H 0.99472 0.43692 0.94918 0.0
H1913 H 0.94307 0.51296 0.9565 0.0
H1914 H 0.0212 0.43198 0.99446 0.0
H1915 H 0.0471 0.45257 0.98178 0.0
H1916 H 0.02953 0.42237 0.9708 0.0
H1917 H 0.95771 0.52415 0.00352 0.0
H1918 H 0.94662 0.54257 0.98267 0.0
H1919 H 0.98317 0.54539 0.9909 0.0
C1920 C 0.53495 0.51079 0.4711 0.0
C1921 C 0.52799 0.4978 0.45414 0.0
C1922 C 0.52168 0.50187 0.48762 0.0
C1923 C 0.50065 0.47977 0.48704 0.0
C1924 C 0.49398 0.46617 0.47 0.0
C1925 C 0.5079 0.47524 0.45374 0.0
C1926 C 0.52964 0.51656 0.5056 0.0
C1927 C 0.47145 0.44276 0.46884 0.0
C1928 C 0.48039 0.44364 0.53247 0.0
C1929 C 0.45604 0.45956 0.53768 0.0
C1930 C 0.49498 0.44968 0.51586 0.0
C1931 C 0.48467 0.47191 0.50415 0.0
C1932 C 0.45953 0.4874 0.50907 0.0
C1933 C 0.44561 0.48115 0.52586 0.0
C1934 C 0.52188 0.43293 0.51113 0.0
C1935 C 0.44767 0.51098 0.49679 0.0
H1936 H 0.55059 0.52814 0.47145 0.0
H1937 H 0.50239 0.46522 0.44062 0.0
H1938 H 0.51075 0.52844 0.51112 0.0
H1939 H 0.53584 0.50028 0.51616 0.0
H1940 H 0.54773 0.53202 0.50386 0.0
H1941 H 0.46975 0.43346 0.45467 0.0
H1942 H 0.47651 0.42516 0.47874 0.0
H1943 H 0.45013 0.45165 0.47282 0.0
H1944 H 0.48858 0.42701 0.54164 0.0
H1945 H 0.42672 0.49343 0.52983 0.0
H1946 H 0.54063 0.44775 0.5107 0.0
H1947 H 0.51985 0.42311 0.49715 0.0
H1948 H 0.52639 0.41556 0.52135 0.0
H1949 H 0.4635 0.52883 0.49574 0.0
H1950 H 0.42705 0.51987 0.50213 0.0
H1951 H 0.44406 0.50264 0.48254 0.0
C1952 C 0.27706 0.09875 0.35073 0.0
C1953 C 0.27536 0.12728 0.35703 0.0
C1954 C 0.29969 0.08074 0.35622 0.0
C1955 C 0.32125 0.09161 0.36822 0.0
C1956 C 0.32015 0.12066 0.3742 0.0
C1957 C 0.29708 0.13817 0.36858 0.0
C1958 C 0.30005 0.04981 0.34963 0.0
C1959 C 0.34293 0.13299 0.38687 0.0
C1960 C 0.35839 0.03471 0.3972 0.0
C1961 C 0.38327 0.02933 0.38675 0.0
C1962 C 0.33853 0.05573 0.39167 0.0
C1963 C 0.34381 0.07186 0.37534 0.0
C1964 C 0.3695 0.0674 0.36516 0.0
C1965 C 0.38894 0.04604 0.37096 0.0
C1966 C 0.3113 0.05979 0.40285 0.0
C1967 C 0.37593 0.08443 0.34779 0.0
H1968 H 0.26034 0.09026 0.34176 0.0
H1969 H 0.2959 0.16029 0.37339 0.0
H1970 H 0.32086 0.04489 0.34277 0.0
H1971 H 0.29799 0.03507 0.3617 0.0
H1972 H 0.28232 0.04509 0.33974 0.0
H1973 H 0.34013 0.15652 0.38911 0.0
H1974 H 0.34205 0.12199 0.40053 0.0
H1975 H 0.36468 0.1291 0.381 0.0
H1976 H 0.35396 0.02191 0.40947 0.0
H1977 H 0.40826 0.04203 0.36291 0.0
H1978 H 0.29239 0.05336 0.3944 0.0
H1979 H 0.30848 0.08283 0.40656 0.0
H1980 H 0.31133 0.04681 0.41582 0.0
H1981 H 0.36033 0.07853 0.33676 0.0
H1982 H 0.39806 0.08039 0.34252 0.0
H1983 H 0.37342 0.10786 0.35046 0.0
C1984 C 0.13672 0.03364 0.59529 0.0
C1985 C 0.11167 0.02741 0.60537 0.0
C1986 C 0.15644 0.05423 0.60164 0.0
C1987 C 0.15084 0.06906 0.61841 0.0
C1988 C 0.12499 0.06377 0.62826 0.0
C1989 C 0.1057 0.04286 0.62164 0.0
C1990 C 0.18387 0.05919 0.5908 0.0
C1991 C 0.11821 0.07941 0.64611 0.0
C1992 C 0.21673 0.0939 0.6448 0.0
C1993 C 0.21848 0.12298 0.63964 0.0
C1994 C 0.19445 0.07631 0.63827 0.0
C1995 C 0.17326 0.08816 0.62639 0.0
C1996 C 0.17447 0.1177 0.62148 0.0
C1997 C 0.19721 0.13478 0.62811 0.0
C1998 C 0.194 0.04484 0.64371 0.0
C1999 C 0.15206 0.13107 0.60897 0.0
H2000 H 0.14137 0.02182 0.58266 0.0
H2001 H 0.08625 0.03821 0.62941 0.0
H2002 H 0.18678 0.0825 0.58792 0.0
H2003 H 0.20262 0.05202 0.59917 0.0
H2004 H 0.18405 0.04732 0.57741 0.0
H2005 H 0.096 0.07495 0.65107 0.0
H2006 H 0.13361 0.07266 0.65705 0.0
H2007 H 0.12075 0.10302 0.64421 0.0
H2008 H 0.23312 0.08469 0.65373 0.0
H2009 H 0.19844 0.15732 0.62418 0.0
H2010 H 0.19621 0.03119 0.63114 0.0
H2011 H 0.1731 0.03934 0.65028 0.0
H2012 H 0.2116 0.03923 0.65351 0.0
H2013 H 0.15315 0.12104 0.59501 0.0
H2014 H 0.15504 0.15472 0.60744 0.0
H2015 H 0.13016 0.1269 0.61453 0.0
C2016 C 0.20632 0.84998 0.86802 0.0
C2017 C 0.22751 0.8617 0.85639 0.0
C2018 C 0.18314 0.86687 0.8742 0.0
C2019 C 0.18146 0.89616 0.86879 0.0
C2020 C 0.2026 0.90793 0.85682 0.0
C2021 C 0.22528 0.89049 0.85068 0.0
C2022 C 0.16076 0.85355 0.88676 0.0
C2023 C 0.20169 0.93918 0.8509 0.0
C2024 C 0.11305 0.94043 0.87241 0.0
C2025 C 0.1184 0.95644 0.88854 0.0
C2026 C 0.13281 0.91964 0.86623 0.0
C2027 C 0.15857 0.91513 0.87633 0.0
C2028 C 0.16356 0.93055 0.89297 0.0
C2029 C 0.14332 0.95093 0.89892 0.0
C2030 C 0.12663 0.90327 0.84856 0.0
C2031 C 0.1909 0.9265 0.90404 0.0
H2032 H 0.20793 0.82765 0.87236 0.0
H2033 H 0.24164 0.89962 0.84169 0.0
H2034 H 0.16147 0.86405 0.90058 0.0
H2035 H 0.13888 0.85717 0.88101 0.0
H2036 H 0.16409 0.83001 0.88863 0.0
H2037 H 0.21938 0.94475 0.84115 0.0
H2038 H 0.18083 0.94405 0.84409 0.0
H2039 H 0.20341 0.95331 0.86328 0.0
H2040 H 0.0937 0.94452 0.86442 0.0
H2041 H 0.1475 0.96323 0.91143 0.0
H2042 H 0.1296 0.87979 0.8508 0.0
H2043 H 0.14206 0.90997 0.83762 0.0
H2044 H 0.10441 0.90713 0.84341 0.0
H2045 H 0.19417 0.90335 0.9073 0.0
H2046 H 0.19066 0.93886 0.91725 0.0
H2047 H 0.20965 0.93368 0.89569 0.0
C2048 C 0.28695 0.85616 0.12117 0.0
C2049 C 0.26775 0.86616 0.13474 0.0
C2050 C 0.30983 0.87352 0.11502 0.0
C2051 C 0.31329 0.9015 0.12254 0.0
C2052 C 0.29408 0.91155 0.13635 0.0
C2053 C 0.27161 0.89371 0.14232 0.0
C2054 C 0.33007 0.86208 0.10037 0.0
C2055 C 0.29695 0.94137 0.1446 0.0
C2056 C 0.3831 0.94363 0.11953 0.0
C2057 C 0.37674 0.96323 0.1053 0.0
C2058 C 0.36314 0.92239 0.12474 0.0
C2059 C 0.33622 0.92097 0.11556 0.0
C2060 C 0.33018 0.94 0.10071 0.0
C2061 C 0.35056 0.96086 0.09573 0.0
C2062 C 0.37039 0.90225 0.14053 0.0
C2063 C 0.30164 0.93922 0.09065 0.0
H2064 H 0.28408 0.8348 0.11535 0.0
H2065 H 0.25681 0.90153 0.15282 0.0
H2066 H 0.32861 0.8756 0.0877 0.0
H2067 H 0.35264 0.86331 0.10536 0.0
H2068 H 0.3252 0.83939 0.09656 0.0
H2069 H 0.28053 0.94566 0.15547 0.0
H2070 H 0.31865 0.9441 0.1508 0.0
H2071 H 0.29466 0.95785 0.13353 0.0
H2072 H 0.40341 0.9453 0.12688 0.0
H2073 H 0.3456 0.97589 0.08466 0.0
H2074 H 0.36615 0.87957 0.13647 0.0
H2075 H 0.35642 0.90715 0.15262 0.0
H2076 H 0.39324 0.9042 0.14493 0.0
H2077 H 0.2969 0.91704 0.08577 0.0
H2078 H 0.30119 0.95402 0.07852 0.0
H2079 H 0.28413 0.94552 0.10032 0.0
C2080 C 0.70292 0.89031 0.64955 0.0
C2081 C 0.71171 0.86738 0.63823 0.0
C2082 C 0.68179 0.90974 0.64359 0.0
C2083 C 0.66904 0.90599 0.62591 0.0
C2084 C 0.67675 0.88203 0.61481 0.0
C2085 C 0.69815 0.863 0.62108 0.0
C2086 C 0.67421 0.93511 0.6558 0.0
C2087 C 0.66334 0.8772 0.59598 0.0
C2088 C 0.6025 0.95099 0.61602 0.0
C2089 C 0.61448 0.97435 0.60639 0.0
C2090 C 0.61985 0.928 0.62201 0.0
C2091 C 0.64981 0.92871 0.61843 0.0
C2092 C 0.66189 0.95207 0.60846 0.0
C2093 C 0.64404 0.97454 0.60248 0.0
C2094 C 0.60625 0.90325 0.63243 0.0
C2095 C 0.69382 0.95372 0.60452 0.0
H2096 H 0.71325 0.89369 0.66287 0.0
H2097 H 0.70479 0.84517 0.61234 0.0
H2098 H 0.68139 0.95539 0.64904 0.0
H2099 H 0.65054 0.93659 0.65764 0.0
H2100 H 0.68445 0.93369 0.6697 0.0
H2101 H 0.66922 0.8559 0.59003 0.0
H2102 H 0.63953 0.87866 0.59689 0.0
H2103 H 0.67063 0.89429 0.58627 0.0
H2104 H 0.5796 0.95072 0.61896 0.0
H2105 H 0.65337 0.99257 0.59503 0.0
H2106 H 0.61461 0.90265 0.64684 0.0
H2107 H 0.61208 0.88246 0.6258 0.0
H2108 H 0.5824 0.90499 0.63296 0.0
H2109 H 0.70595 0.95454 0.61778 0.0
H2110 H 0.69963 0.97297 0.59613 0.0
H2111 H 0.70097 0.93414 0.59697 0.0
C2112 C 0.88043 0.94879 0.37414 0.0
C2113 C 0.87004 0.96955 0.38659 0.0
C2114 C 0.86327 0.92524 0.36889 0.0
C2115 C 0.83503 0.92272 0.37612 0.0
C2116 C 0.82465 0.94339 0.38894 0.0
C2117 C 0.84236 0.96648 0.39409 0.0
C2118 C 0.8751 0.90342 0.35534 0.0
C2119 C 0.79453 0.94159 0.39679 0.0
C2120 C 0.77747 0.88424 0.34848 0.0
C2121 C 0.77424 0.85852 0.3585 0.0
C2122 C 0.79779 0.90494 0.35379 0.0
C2123 C 0.81547 0.89969 0.36941 0.0
C2124 C 0.81306 0.87332 0.37921 0.0
C2125 C 0.7923 0.85304 0.37367 0.0
C2126 C 0.79958 0.93289 0.34306 0.0
C2127 C 0.83181 0.86691 0.39581 0.0
H2128 H 0.90191 0.95102 0.36842 0.0
H2129 H 0.83427 0.98248 0.40374 0.0
H2130 H 0.87273 0.88131 0.36102 0.0
H2131 H 0.86265 0.9043 0.34221 0.0
H2132 H 0.89818 0.90728 0.35211 0.0
H2133 H 0.79019 0.95878 0.40716 0.0
H2134 H 0.77856 0.94355 0.3854 0.0
H2135 H 0.79108 0.92033 0.40349 0.0
H2136 H 0.76359 0.88856 0.33671 0.0
H2137 H 0.78994 0.8331 0.38139 0.0
H2138 H 0.822 0.93676 0.33836 0.0
H2139 H 0.79347 0.95115 0.3522 0.0
H2140 H 0.78522 0.93302 0.33073 0.0
H2141 H 0.85483 0.87023 0.39226 0.0
H2142 H 0.82894 0.8445 0.40094 0.0
H2143 H 0.82652 0.88203 0.40725 0.0
C2144 C 0.76895 0.10786 0.14174 0.0
C2145 C 0.76612 0.13573 0.13445 0.0
C2146 C 0.79186 0.09004 0.13647 0.0
C2147 C 0.81261 0.10047 0.12375 0.0
C2148 C 0.81013 0.12876 0.11653 0.0
C2149 C 0.78674 0.14605 0.12189 0.0
C2150 C 0.79359 0.05986 0.14432 0.0
C2151 C 0.83206 0.14063 0.10307 0.0
C2152 C 0.88249 0.05815 0.12326 0.0
C2153 C 0.87776 0.03932 0.10837 0.0
C2154 C 0.86199 0.07918 0.12795 0.0
C2155 C 0.83618 0.08114 0.11756 0.0
C2156 C 0.8318 0.06284 0.10211 0.0
C2157 C 0.8527 0.0422 0.09767 0.0
C2158 C 0.86747 0.09855 0.14442 0.0
C2159 C 0.80448 0.06418 0.09076 0.0
H2160 H 0.75301 0.09979 0.15144 0.0
H2161 H 0.78467 0.16767 0.11633 0.0
H2162 H 0.79257 0.04387 0.13289 0.0
H2163 H 0.81446 0.05673 0.15154 0.0
H2164 H 0.77589 0.05522 0.15426 0.0
H2165 H 0.82767 0.16345 0.09933 0.0
H2166 H 0.85396 0.13919 0.10915 0.0
H2167 H 0.83211 0.12754 0.09018 0.0
H2168 H 0.90193 0.05609 0.13149 0.0
H2169 H 0.849 0.02776 0.08609 0.0
H2170 H 0.85207 0.09326 0.15569 0.0
H2171 H 0.86387 0.12143 0.14056 0.0
H2172 H 0.88971 0.09621 0.1499 0.0
H2173 H 0.78589 0.05767 0.09949 0.0
H2174 H 0.80531 0.04983 0.07842 0.0
H2175 H 0.80043 0.08657 0.08601 0.0
C2176 C 0.62078 0.0464 0.87123 0.0
C2177 C 0.62544 0.03262 0.88828 0.0
C2178 C 0.64043 0.06684 0.86446 0.0
C2179 C 0.66534 0.0734 0.87497 0.0
C2180 C 0.66966 0.06021 0.89247 0.0
C2181 C 0.64958 0.04004 0.89894 0.0
C2182 C 0.63502 0.08072 0.84583 0.0
C2183 C 0.69604 0.06659 0.90403 0.0
C2184 C 0.73232 0.09852 0.84971 0.0
C2185 C 0.73252 0.12804 0.85383 0.0
C2186 C 0.71035 0.08057 0.85635 0.0
C2187 C 0.68791 0.09254 0.86719 0.0
C2188 C 0.68768 0.12244 0.87109 0.0
C2189 C 0.71015 0.13986 0.86445 0.0
C2190 C 0.71146 0.0487 0.85205 0.0
C2191 C 0.66391 0.13595 0.88245 0.0
H2192 H 0.60205 0.0408 0.863 0.0
H2193 H 0.65324 0.02948 0.91216 0.0
H2194 H 0.63663 0.10452 0.84698 0.0
H2195 H 0.65171 0.07362 0.8358 0.0
H2196 H 0.61351 0.0751 0.84013 0.0
H2197 H 0.69537 0.05571 0.91777 0.0
H2198 H 0.71561 0.0593 0.89654 0.0
H2199 H 0.6982 0.09015 0.90628 0.0
H2200 H 0.74962 0.08931 0.84152 0.0
H2201 H 0.71019 0.16272 0.86756 0.0
H2202 H 0.69141 0.04194 0.8449 0.0
H2203 H 0.71287 0.0362 0.86516 0.0
H2204 H 0.73013 0.04293 0.84316 0.0
H2205 H 0.64266 0.13094 0.87619 0.0
H2206 H 0.6662 0.15974 0.8835 0.0
H2207 H 0.66395 0.12674 0.89666 0.0
C2208 C 0.77279 0.60247 0.84847 0.0
C2209 C 0.76792 0.62877 0.85751 0.0
C2210 C 0.79523 0.58423 0.854 0.0
C2211 C 0.8134 0.59267 0.86881 0.0
C2212 C 0.80905 0.61953 0.8777 0.0
C2213 C 0.78618 0.63723 0.87201 0.0
C2214 C 0.79902 0.55559 0.84431 0.0
C2215 C 0.82822 0.6293 0.89341 0.0
C2216 C 0.84908 0.53133 0.89464 0.0
C2217 C 0.87622 0.53029 0.88613 0.0
C2218 C 0.82873 0.5521 0.88948 0.0
C2219 C 0.83581 0.57248 0.8756 0.0
C2220 C 0.86356 0.57225 0.86744 0.0
C2221 C 0.88345 0.55099 0.87275 0.0
C2222 C 0.79927 0.55152 0.89839 0.0
C2223 C 0.87192 0.5939 0.85275 0.0
H2224 H 0.75871 0.59586 0.83725 0.0
H2225 H 0.78257 0.65767 0.87894 0.0
H2226 H 0.82124 0.55367 0.8388 0.0
H2227 H 0.79585 0.53775 0.85438 0.0
H2228 H 0.78361 0.55269 0.83267 0.0
H2229 H 0.82314 0.65159 0.89803 0.0
H2230 H 0.82573 0.61454 0.90542 0.0
H2231 H 0.85114 0.62843 0.88909 0.0
H2232 H 0.8434 0.51538 0.90502 0.0
H2233 H 0.90448 0.55032 0.86623 0.0
H2234 H 0.78272 0.54664 0.88773 0.0
H2235 H 0.79403 0.57296 0.90432 0.0
H2236 H 0.7977 0.53513 0.9096 0.0
H2237 H 0.8588 0.59034 0.84008 0.0
H2238 H 0.89505 0.59235 0.84894 0.0
H2239 H 0.8674 0.61613 0.85766 0.0
C2240 C 0.72185 0.60965 0.14371 0.0
C2241 C 0.72424 0.63765 0.13657 0.0
C2242 C 0.69897 0.59168 0.13857 0.0
C2243 C 0.67779 0.60212 0.12615 0.0
C2244 C 0.67966 0.63065 0.11924 0.0
C2245 C 0.70303 0.64807 0.12446 0.0
C2246 C 0.69789 0.56127 0.14607 0.0
C2247 C 0.65725 0.64255 0.10614 0.0
C2248 C 0.63876 0.54455 0.09875 0.0
C2249 C 0.61371 0.54067 0.10932 0.0
C2250 C 0.6594 0.56513 0.10378 0.0
C2251 C 0.65469 0.58245 0.11965 0.0
C2252 C 0.62891 0.57943 0.12998 0.0
C2253 C 0.60875 0.55839 0.12475 0.0
C2254 C 0.68675 0.56752 0.09252 0.0
C2255 C 0.62304 0.59783 0.14685 0.0
H2256 H 0.73822 0.60151 0.15308 0.0
H2257 H 0.70474 0.66979 0.11901 0.0
H2258 H 0.67705 0.5574 0.15317 0.0
H2259 H 0.6994 0.54564 0.13444 0.0
H2260 H 0.71562 0.55678 0.15601 0.0
H2261 H 0.66079 0.66575 0.10302 0.0
H2262 H 0.65769 0.63033 0.09291 0.0
H2263 H 0.63542 0.6399 0.11216 0.0
H2264 H 0.64268 0.53092 0.08679 0.0
H2265 H 0.5893 0.55555 0.13287 0.0
H2266 H 0.70548 0.56135 0.10123 0.0
H2267 H 0.69017 0.59013 0.08801 0.0
H2268 H 0.68642 0.55348 0.08003 0.0
H2269 H 0.63868 0.59246 0.15796 0.0
H2270 H 0.60092 0.59461 0.15234 0.0
H2271 H 0.62597 0.62097 0.14343 0.0
C2272 C 0.71716 0.3961 0.34355 0.0
C2273 C 0.72347 0.37028 0.3528 0.0
C2274 C 0.69482 0.41405 0.34963 0.0
C2275 C 0.6784 0.40591 0.36533 0.0
C2276 C 0.68408 0.37943 0.3744 0.0
C2277 C 0.70664 0.36189 0.36802 0.0
C2278 C 0.68941 0.44216 0.33962 0.0
C2279 C 0.66692 0.37008 0.39115 0.0
C2280 C 0.64503 0.46723 0.39248 0.0
C2281 C 0.61662 0.46702 0.38592 0.0
C2282 C 0.66518 0.44707 0.38613 0.0
C2283 C 0.65667 0.42614 0.37294 0.0
C2284 C 0.62787 0.42544 0.36651 0.0
C2285 C 0.60814 0.44599 0.37306 0.0
C2286 C 0.69576 0.44856 0.39325 0.0
C2287 C 0.61807 0.40332 0.3525 0.0
H2288 H 0.73005 0.40261 0.33172 0.0
H2289 H 0.7114 0.34187 0.37516 0.0
H2290 H 0.66645 0.44377 0.33548 0.0
H2291 H 0.69399 0.46049 0.34906 0.0
H2292 H 0.703 0.4445 0.32701 0.0
H2293 H 0.67264 0.34795 0.39577 0.0
H2294 H 0.67086 0.3852 0.4028 0.0
H2295 H 0.64353 0.37077 0.38803 0.0
H2296 H 0.65166 0.48343 0.40245 0.0
H2297 H 0.58615 0.44573 0.36801 0.0
H2298 H 0.71069 0.45305 0.38158 0.0
H2299 H 0.70212 0.42753 0.39934 0.0
H2300 H 0.69862 0.46558 0.40394 0.0
H2301 H 0.62995 0.40636 0.33928 0.0
H2302 H 0.59461 0.40479 0.34961 0.0
H2303 H 0.62301 0.38127 0.35756 0.0
C2304 C 0.89046 0.45474 0.6253 0.0
C2305 C 0.88375 0.47319 0.61051 0.0
C2306 C 0.8711 0.43315 0.63089 0.0
C2307 C 0.84434 0.4304 0.62164 0.0
C2308 C 0.83779 0.4486 0.60644 0.0
C2309 C 0.85768 0.46963 0.60098 0.0
C2310 C 0.87895 0.41377 0.64695 0.0
C2311 C 0.80932 0.44657 0.59637 0.0
C2312 C 0.79677 0.36422 0.62592 0.0
C2313 C 0.77646 0.37356 0.63899 0.0
C2314 C 0.81983 0.38203 0.62068 0.0
C2315 C 0.82222 0.40993 0.62851 0.0
C2316 C 0.80212 0.41917 0.64202 0.0
C2317 C 0.77959 0.40077 0.64719 0.0
C2318 C 0.84116 0.37133 0.60645 0.0
C2319 C 0.80375 0.44891 0.65051 0.0
H2320 H 0.9107 0.45735 0.63261 0.0
H2321 H 0.85241 0.48387 0.58954 0.0
H2322 H 0.86445 0.41815 0.65885 0.0
H2323 H 0.87598 0.39083 0.64303 0.0
H2324 H 0.90156 0.41698 0.65156 0.0
H2325 H 0.80804 0.46163 0.5844 0.0
H2326 H 0.80582 0.4243 0.59124 0.0
H2327 H 0.79148 0.45162 0.6061 0.0
H2328 H 0.79451 0.34308 0.61966 0.0
H2329 H 0.76392 0.40807 0.65732 0.0
H2330 H 0.8635 0.37425 0.61159 0.0
H2331 H 0.83907 0.38415 0.59352 0.0
H2332 H 0.83784 0.34822 0.60301 0.0
H2333 H 0.8253 0.45252 0.65673 0.0
H2334 H 0.78715 0.45229 0.66141 0.0
H2335 H 0.80072 0.46545 0.63955 0.0
C2336 C 0.14899 0.46184 0.09482 0.0
C2337 C 0.12275 0.46667 0.10393 0.0
C2338 C 0.16835 0.44095 0.10124 0.0
C2339 C 0.16116 0.42434 0.11705 0.0
C2340 C 0.13429 0.42845 0.12596 0.0
C2341 C 0.11541 0.44973 0.11933 0.0
C2342 C 0.19691 0.43732 0.09145 0.0
C2343 C 0.12581 0.41087 0.14273 0.0
C2344 C 0.2057 0.3568 0.12481 0.0
C2345 C 0.22585 0.36652 0.13788 0.0
C2346 C 0.1839 0.37514 0.11828 0.0
C2347 C 0.18257 0.40389 0.12482 0.0
C2348 C 0.20265 0.41366 0.13819 0.0
C2349 C 0.22396 0.39478 0.14464 0.0
C2350 C 0.16261 0.36393 0.10419 0.0
C2351 C 0.2021 0.44428 0.14534 0.0
H2352 H 0.15474 0.47488 0.08289 0.0
H2353 H 0.09507 0.45334 0.12634 0.0
H2354 H 0.21473 0.44291 0.10107 0.0
H2355 H 0.19997 0.41452 0.08726 0.0
H2356 H 0.19869 0.45115 0.07891 0.0
H2357 H 0.10333 0.41524 0.1472 0.0
H2358 H 0.12801 0.38752 0.1397 0.0
H2359 H 0.14048 0.41585 0.15445 0.0
H2360 H 0.20702 0.33489 0.11965 0.0
H2361 H 0.23953 0.40237 0.15473 0.0
H2362 H 0.16512 0.37587 0.09094 0.0
H2363 H 0.14026 0.36762 0.10911 0.0
H2364 H 0.16549 0.34055 0.1014 0.0
H2365 H 0.20572 0.45951 0.13369 0.0
H2366 H 0.21877 0.44821 0.15611 0.0
H2367 H 0.18066 0.44928 0.15133 0.0
C2368 C 0.35051 0.4598 0.89679 0.0
C2369 C 0.37756 0.46108 0.88819 0.0
C2370 C 0.33028 0.43885 0.89172 0.0
C2371 C 0.33736 0.41859 0.87777 0.0
C2372 C 0.36501 0.41909 0.86948 0.0
C2373 C 0.38482 0.44045 0.87476 0.0
C2374 C 0.30096 0.43908 0.90081 0.0
C2375 C 0.37333 0.39765 0.85466 0.0
C2376 C 0.28811 0.3535 0.87401 0.0
C2377 C 0.26953 0.36212 0.85972 0.0
C2378 C 0.31093 0.37128 0.87971 0.0
C2379 C 0.31498 0.39834 0.87098 0.0
C2380 C 0.29654 0.4069 0.85635 0.0
C2381 C 0.2741 0.38863 0.85085 0.0
C2382 C 0.33035 0.3614 0.89526 0.0
C2383 C 0.30003 0.43571 0.8468 0.0
H2384 H 0.34482 0.47564 0.90723 0.0
H2385 H 0.40578 0.4413 0.86815 0.0
H2386 H 0.28422 0.44406 0.8903 0.0
H2387 H 0.29593 0.41751 0.90662 0.0
H2388 H 0.29945 0.45526 0.91214 0.0
H2389 H 0.39641 0.39941 0.85074 0.0
H2390 H 0.36902 0.37535 0.85949 0.0
H2391 H 0.36005 0.40128 0.84208 0.0
H2392 H 0.28471 0.33293 0.88083 0.0
H2393 H 0.25981 0.39537 0.83977 0.0
H2394 H 0.3279 0.37596 0.90737 0.0
H2395 H 0.35322 0.36249 0.89084 0.0
H2396 H 0.32548 0.33901 0.89977 0.0
H2397 H 0.2968 0.45337 0.85698 0.0
H2398 H 0.28449 0.43866 0.83523 0.0
H2399 H 0.32219 0.43788 0.84122 0.0
C2400 C 0.38493 0.54327 0.61696 0.0
C2401 C 0.37348 0.52152 0.60565 0.0
C2402 C 0.36808 0.56703 0.62225 0.0
C2403 C 0.33912 0.56879 0.6162 0.0
C2404 C 0.32765 0.5471 0.60454 0.0
C2405 C 0.34502 0.52379 0.59935 0.0
C2406 C 0.38104 0.58994 0.63457 0.0
C2407 C 0.29677 0.54809 0.59794 0.0
C2408 C 0.28381 0.60926 0.64461 0.0
C2409 C 0.27939 0.634 0.63379 0.0
C2410 C 0.30389 0.5883 0.63932 0.0
C2411 C 0.32009 0.5923 0.62289 0.0
C2412 C 0.31651 0.61773 0.61226 0.0
C2413 C 0.29604 0.63829 0.6178 0.0
C2414 C 0.30694 0.56135 0.65095 0.0
C2415 C 0.33366 0.6228 0.59475 0.0
H2416 H 0.40699 0.54164 0.62177 0.0
H2417 H 0.33609 0.50703 0.59058 0.0
H2418 H 0.37804 0.61155 0.62825 0.0
H2419 H 0.36983 0.59012 0.64817 0.0
H2420 H 0.4044 0.58639 0.63702 0.0
H2421 H 0.2915 0.53002 0.58841 0.0
H2422 H 0.28201 0.54708 0.61004 0.0
H2423 H 0.2925 0.56873 0.59065 0.0
H2424 H 0.27103 0.60589 0.65701 0.0
H2425 H 0.29278 0.65748 0.60947 0.0
H2426 H 0.32982 0.55796 0.65481 0.0
H2427 H 0.30003 0.5423 0.64276 0.0
H2428 H 0.29386 0.56228 0.66385 0.0
H2429 H 0.35698 0.61988 0.59751 0.0
H2430 H 0.33015 0.64474 0.58897 0.0
H2431 H 0.32741 0.60672 0.58409 0.0
C2432 C 0.11335 0.54271 0.38267 0.0
C2433 C 0.124 0.52033 0.39379 0.0
C2434 C 0.13138 0.56522 0.37681 0.0
C2435 C 0.16074 0.5651 0.38211 0.0
C2436 C 0.17142 0.54287 0.39368 0.0
C2437 C 0.15287 0.52078 0.39944 0.0
C2438 C 0.11923 0.5887 0.36459 0.0
C2439 C 0.20266 0.54193 0.3995 0.0
C2440 C 0.21531 0.60163 0.35099 0.0
C2441 C 0.22139 0.62689 0.36092 0.0
C2442 C 0.19525 0.5816 0.35762 0.0
C2443 C 0.1808 0.58704 0.37455 0.0
C2444 C 0.18637 0.6128 0.38447 0.0
C2445 C 0.20672 0.63245 0.37754 0.0
C2446 C 0.18995 0.55431 0.34668 0.0
C2447 C 0.17118 0.61934 0.40251 0.0
H2448 H 0.09097 0.54251 0.37838 0.0
H2449 H 0.16117 0.50353 0.40807 0.0
H2450 H 0.1242 0.61021 0.37052 0.0
H2451 H 0.12944 0.58771 0.35068 0.0
H2452 H 0.09553 0.5868 0.36285 0.0
H2453 H 0.2072 0.52397 0.40928 0.0
H2454 H 0.21654 0.53927 0.38708 0.0
H2455 H 0.20886 0.56253 0.40622 0.0
H2456 H 0.22658 0.59726 0.33812 0.0
H2457 H 0.21132 0.65201 0.38522 0.0
H2458 H 0.16673 0.55224 0.34333 0.0
H2459 H 0.19601 0.53526 0.35515 0.0
H2460 H 0.20242 0.55373 0.33352 0.0
H2461 H 0.1475 0.61829 0.40054 0.0
H2462 H 0.17688 0.64095 0.40804 0.0
H2463 H 0.17693 0.60286 0.41304 0.0
loop_
_geom_bond_atom_site_label_1
_geom_bond_atom_site_label_2
_geom_bond_distance
_geom_bond_site_symmetry_2
_ccdc_geom_bond_type
In0 O1 2.294 . S
In0 O2 2.326 . S
In0 O6 2.266 . S
In0 O7 2.326 . S
In0 O8 2.266 . S
In0 O9 2.326 . S
In0 O11 2.294 . S
In0 O12 2.326 . S
O1 In0 2.294 . S
O1 C10 1.240 . S
O2 In0 2.326 . S
O2 C10 1.252 . S
C3 O6 1.252 . S
C3 O7 1.260 . S
C4 O11 1.240 . S
C4 O12 1.252 . S
C5 O8 1.252 . S
C5 O9 1.260 . S
O6 In0 2.266 . S
O6 C3 1.252 . S
O7 In0 2.326 . S
O7 C3 1.260 . S
O8 In0 2.266 . S
O8 C5 1.252 . S
O9 In0 2.326 . S
O9 C5 1.260 . S
C10 O1 1.240 . S
C10 O2 1.252 . S
O11 In0 2.294 . S
O11 C4 1.240 . S
O12 In0 2.326 . S
O12 C4 1.252 . S
In13 O14 2.294 . S
In13 O15 2.326 . S
In13 O19 2.266 . S
In13 O20 2.326 . S
In13 O21 2.266 . S
In13 O22 2.326 . S
In13 O24 2.294 . S
In13 O25 2.326 . S
O14 In13 2.294 . S
O14 C23 1.240 1_565 S
O15 In13 2.326 . S
O15 C23 1.252 1_565 S
C16 O19 1.252 . S
C16 O20 1.260 . S
C17 O24 1.240 . S
C17 O25 1.252 . S
C18 O21 1.252 . S
C18 O22 1.260 . S
O19 In13 2.266 . S
O19 C16 1.252 . S
O20 In13 2.326 . S
O20 C16 1.260 . S
O21 In13 2.266 . S
O21 C18 1.252 . S
O22 In13 2.326 . S
O22 C18 1.260 . S
C23 O14 1.240 1_545 S
C23 O15 1.252 1_545 S
O24 In13 2.294 . S
O24 C17 1.240 . S
O25 In13 2.326 . S
O25 C17 1.252 . S
In26 O27 2.294 . S
In26 O28 2.326 . S
In26 O32 2.266 . S
In26 O33 2.326 . S
In26 O34 2.266 . S
In26 O35 2.326 . S
In26 O37 2.294 . S
In26 O38 2.326 . S
O27 In26 2.294 . S
O27 C36 1.240 . S
O28 In26 2.326 . S
O28 C36 1.252 . S
C29 O32 1.252 . S
C29 O33 1.260 . S
C30 O37 1.240 . S
C30 O38 1.252 . S
C31 O34 1.252 . S
C31 O35 1.260 . S
O32 In26 2.266 . S
O32 C29 1.252 . S
O33 In26 2.326 . S
O33 C29 1.260 . S
O34 In26 2.266 . S
O34 C31 1.252 . S
O35 In26 2.326 . S
O35 C31 1.260 . S
C36 O27 1.240 . S
C36 O28 1.252 . S
O37 In26 2.294 . S
O37 C30 1.240 . S
O38 In26 2.326 . S
O38 C30 1.252 . S
In39 O40 2.294 . S
In39 O41 2.326 . S
In39 O45 2.266 . S
In39 O46 2.326 . S
In39 O47 2.266 . S
In39 O48 2.326 . S
In39 O50 2.294 . S
In39 O51 2.326 . S
O40 In39 2.294 . S
O40 C49 1.240 1_545 S
O41 In39 2.326 . S
O41 C49 1.252 1_545 S
C42 O45 1.252 . S
C42 O46 1.260 . S
C43 O50 1.240 . S
C43 O51 1.252 . S
C44 O47 1.252 . S
C44 O48 1.260 . S
O45 In39 2.266 . S
O45 C42 1.252 . S
O46 In39 2.326 . S
O46 C42 1.260 . S
O47 In39 2.266 . S
O47 C44 1.252 . S
O48 In39 2.326 . S
O48 C44 1.260 . S
C49 O40 1.240 1_565 S
C49 O41 1.252 1_565 S
O50 In39 2.294 . S
O50 C43 1.240 . S
O51 In39 2.326 . S
O51 C43 1.252 . S
In52 O53 2.294 . S
In52 O54 2.326 . S
In52 O58 2.266 . S
In52 O59 2.326 . S
In52 O60 2.266 . S
In52 O61 2.326 . S
In52 O63 2.294 . S
In52 O64 2.326 . S
O53 In52 2.294 . S
O53 C62 1.240 . S
O54 In52 2.326 . S
O54 C62 1.252 . S
C55 O58 1.252 . S
C55 O59 1.260 . S
C56 O63 1.240 . S
C56 O64 1.252 . S
C57 O60 1.252 . S
C57 O61 1.260 . S
O58 In52 2.266 . S
O58 C55 1.252 . S
O59 In52 2.326 . S
O59 C55 1.260 . S
O60 In52 2.266 . S
O60 C57 1.252 . S
O61 In52 2.326 . S
O61 C57 1.260 . S
C62 O53 1.240 . S
C62 O54 1.252 . S
O63 In52 2.294 . S
O63 C56 1.240 . S
O64 In52 2.326 . S
O64 C56 1.252 . S
In65 O66 2.294 . S
In65 O67 2.326 . S
In65 O71 2.266 . S
In65 O72 2.326 . S
In65 O73 2.266 . S
In65 O74 2.326 . S
In65 O76 2.294 . S
In65 O77 2.326 . S
O66 In65 2.294 . S
O66 C75 1.240 1_565 S
O67 In65 2.326 . S
O67 C75 1.252 1_565 S
C68 O71 1.252 . S
C68 O72 1.260 . S
C69 O76 1.240 . S
C69 O77 1.252 . S
C70 O73 1.252 . S
C70 O74 1.260 . S
O71 In65 2.266 . S
O71 C68 1.252 . S
O72 In65 2.326 . S
O72 C68 1.260 . S
O73 In65 2.266 . S
O73 C70 1.252 . S
O74 In65 2.326 . S
O74 C70 1.260 . S
C75 O66 1.240 1_545 S
C75 O67 1.252 1_545 S
O76 In65 2.294 . S
O76 C69 1.240 . S
O77 In65 2.326 . S
O77 C69 1.252 . S
In78 O79 2.294 . S
In78 O80 2.326 . S
In78 O84 2.266 . S
In78 O85 2.326 . S
In78 O86 2.266 . S
In78 O87 2.326 . S
In78 O89 2.294 . S
In78 O90 2.326 . S
O79 In78 2.294 . S
O79 C88 1.240 . S
O80 In78 2.326 . S
O80 C88 1.252 . S
C81 O84 1.252 . S
C81 O85 1.260 . S
C82 O89 1.240 . S
C82 O90 1.252 . S
C83 O86 1.252 . S
C83 O87 1.260 . S
O84 In78 2.266 . S
O84 C81 1.252 . S
O85 In78 2.326 . S
O85 C81 1.260 . S
O86 In78 2.266 . S
O86 C83 1.252 . S
O87 In78 2.326 . S
O87 C83 1.260 . S
C88 O79 1.240 . S
C88 O80 1.252 . S
O89 In78 2.294 . S
O89 C82 1.240 . S
O90 In78 2.326 . S
O90 C82 1.252 . S
In91 O92 2.294 . S
In91 O93 2.326 . S
In91 O97 2.266 . S
In91 O98 2.326 . S
In91 O99 2.266 . S
In91 O100 2.326 . S
In91 O102 2.294 . S
In91 O103 2.326 . S
O92 In91 2.294 . S
O92 C101 1.240 . S
O93 In91 2.326 . S
O93 C101 1.252 . S
C94 O97 1.252 . S
C94 O98 1.260 . S
C95 O102 1.240 1_565 S
C95 O103 1.252 1_565 S
C96 O99 1.252 . S
C96 O100 1.260 . S
O97 In91 2.266 . S
O97 C94 1.252 . S
O98 In91 2.326 . S
O98 C94 1.260 . S
O99 In91 2.266 . S
O99 C96 1.252 . S
O100 In91 2.326 . S
O100 C96 1.260 . S
C101 O92 1.240 . S
C101 O93 1.252 . S
O102 In91 2.294 . S
O102 C95 1.240 1_545 S
O103 In91 2.326 . S
O103 C95 1.252 1_545 S
In104 O105 2.294 . S
In104 O106 2.326 . S
In104 O110 2.266 . S
In104 O111 2.326 . S
In104 O112 2.266 . S
In104 O113 2.326 . S
In104 O115 2.294 . S
In104 O116 2.326 . S
O105 In104 2.294 . S
O105 C114 1.240 . S
O106 In104 2.326 . S
O106 C114 1.252 . S
C107 O110 1.252 . S
C107 O111 1.260 . S
C108 O115 1.240 . S
C108 O116 1.252 . S
C109 O112 1.252 . S
C109 O113 1.260 . S
O110 In104 2.266 . S
O110 C107 1.252 . S
O111 In104 2.326 . S
O111 C107 1.260 . S
O112 In104 2.266 . S
O112 C109 1.252 . S
O113 In104 2.326 . S
O113 C109 1.260 . S
C114 O105 1.240 . S
C114 O106 1.252 . S
O115 In104 2.294 . S
O115 C108 1.240 . S
O116 In104 2.326 . S
O116 C108 1.252 . S
In117 O118 2.294 . S
In117 O119 2.326 . S
In117 O123 2.266 . S
In117 O124 2.326 . S
In117 O125 2.266 . S
In117 O126 2.326 . S
In117 O128 2.294 . S
In117 O129 2.326 . S
O118 In117 2.294 . S
O118 C127 1.240 . S
O119 In117 2.326 . S
O119 C127 1.252 . S
C120 O123 1.252 1_565 S
C120 O124 1.260 1_565 S
C121 O128 1.240 . S
C121 O129 1.252 . S
C122 O125 1.252 . S
C122 O126 1.260 . S
O123 In117 2.266 . S
O123 C120 1.252 1_545 S
O124 In117 2.326 . S
O124 C120 1.260 1_545 S
O125 In117 2.266 . S
O125 C122 1.252 . S
O126 In117 2.326 . S
O126 C122 1.260 . S
C127 O118 1.240 . S
C127 O119 1.252 . S
O128 In117 2.294 . S
O128 C121 1.240 . S
O129 In117 2.326 . S
O129 C121 1.252 . S
In130 O131 2.294 . S
In130 O132 2.326 . S
In130 O136 2.266 . S
In130 O137 2.326 . S
In130 O138 2.266 . S
In130 O139 2.326 . S
In130 O141 2.294 . S
In130 O142 2.326 . S
O131 In130 2.294 . S
O131 C140 1.240 . S
O132 In130 2.326 . S
O132 C140 1.252 . S
C133 O136 1.252 . S
C133 O137 1.260 . S
C134 O141 1.240 . S
C134 O142 1.252 . S
C135 O138 1.252 . S
C135 O139 1.260 . S
O136 In130 2.266 . S
O136 C133 1.252 . S
O137 In130 2.326 . S
O137 C133 1.260 . S
O138 In130 2.266 . S
O138 C135 1.252 . S
O139 In130 2.326 . S
O139 C135 1.260 . S
C140 O131 1.240 . S
C140 O132 1.252 . S
O141 In130 2.294 . S
O141 C134 1.240 . S
O142 In130 2.326 . S
O142 C134 1.252 . S
In143 O144 2.294 . S
In143 O145 2.326 . S
In143 O149 2.266 . S
In143 O150 2.326 . S
In143 O151 2.266 . S
In143 O152 2.326 . S
In143 O154 2.294 . S
In143 O155 2.326 . S
O144 In143 2.294 . S
O144 C153 1.240 . S
O145 In143 2.326 . S
O145 C153 1.252 . S
C146 O149 1.252 1_545 S
C146 O150 1.260 1_545 S
C147 O154 1.240 . S
C147 O155 1.252 . S
C148 O151 1.252 . S
C148 O152 1.260 . S
O149 In143 2.266 . S
O149 C146 1.252 1_565 S
O150 In143 2.326 . S
O150 C146 1.260 1_565 S
O151 In143 2.266 . S
O151 C148 1.252 . S
O152 In143 2.326 . S
O152 C148 1.260 . S
C153 O144 1.240 . S
C153 O145 1.252 . S
O154 In143 2.294 . S
O154 C147 1.240 . S
O155 In143 2.326 . S
O155 C147 1.252 . S
In156 O157 2.294 . S
In156 O158 2.326 . S
In156 O162 2.266 . S
In156 O163 2.326 . S
In156 O164 2.266 . S
In156 O165 2.326 . S
In156 O167 2.294 . S
In156 O168 2.326 . S
O157 In156 2.294 . S
O157 C166 1.240 . S
O158 In156 2.326 . S
O158 C166 1.252 . S
C159 O162 1.252 . S
C159 O163 1.260 . S
C160 O167 1.240 . S
C160 O168 1.252 . S
C161 O164 1.252 . S
C161 O165 1.260 . S
O162 In156 2.266 . S
O162 C159 1.252 . S
O163 In156 2.326 . S
O163 C159 1.260 . S
O164 In156 2.266 . S
O164 C161 1.252 . S
O165 In156 2.326 . S
O165 C161 1.260 . S
C166 O157 1.240 . S
C166 O158 1.252 . S
O167 In156 2.294 . S
O167 C160 1.240 . S
O168 In156 2.326 . S
O168 C160 1.252 . S
In169 O170 2.294 . S
In169 O171 2.326 . S
In169 O175 2.266 . S
In169 O176 2.326 . S
In169 O177 2.266 . S
In169 O178 2.326 . S
In169 O180 2.294 . S
In169 O181 2.326 . S
O170 In169 2.294 . S
O170 C179 1.240 . S
O171 In169 2.326 . S
O171 C179 1.252 . S
C172 O175 1.252 . S
C172 O176 1.260 . S
C173 O180 1.240 . S
C173 O181 1.252 . S
C174 O177 1.252 1_565 S
C174 O178 1.260 1_565 S
O175 In169 2.266 . S
O175 C172 1.252 . S
O176 In169 2.326 . S
O176 C172 1.260 . S
O177 In169 2.266 . S
O177 C174 1.252 1_545 S
O178 In169 2.326 . S
O178 C174 1.260 1_545 S
C179 O170 1.240 . S
C179 O171 1.252 . S
O180 In169 2.294 . S
O180 C173 1.240 . S
O181 In169 2.326 . S
O181 C173 1.252 . S
In182 O183 2.294 . S
In182 O184 2.326 . S
In182 O188 2.266 . S
In182 O189 2.326 . S
In182 O190 2.266 . S
In182 O191 2.326 . S
In182 O193 2.294 . S
In182 O194 2.326 . S
O183 In182 2.294 . S
O183 C192 1.240 . S
O184 In182 2.326 . S
O184 C192 1.252 . S
C185 O188 1.252 . S
C185 O189 1.260 . S
C186 O193 1.240 . S
C186 O194 1.252 . S
C187 O190 1.252 . S
C187 O191 1.260 . S
O188 In182 2.266 . S
O188 C185 1.252 . S
O189 In182 2.326 . S
O189 C185 1.260 . S
O190 In182 2.266 . S
O190 C187 1.252 . S
O191 In182 2.326 . S
O191 C187 1.260 . S
C192 O183 1.240 . S
C192 O184 1.252 . S
O193 In182 2.294 . S
O193 C186 1.240 . S
O194 In182 2.326 . S
O194 C186 1.252 . S
In195 O196 2.294 . S
In195 O197 2.326 . S
In195 O201 2.266 . S
In195 O202 2.326 . S
In195 O203 2.266 . S
In195 O204 2.326 . S
In195 O206 2.294 . S
In195 O207 2.326 . S
O196 In195 2.294 . S
O196 C205 1.240 . S
O197 In195 2.326 . S
O197 C205 1.252 . S
C198 O201 1.252 . S
C198 O202 1.260 . S
C199 O206 1.240 . S
C199 O207 1.252 . S
C200 O203 1.252 1_545 S
C200 O204 1.260 1_545 S
O201 In195 2.266 . S
O201 C198 1.252 . S
O202 In195 2.326 . S
O202 C198 1.260 . S
O203 In195 2.266 . S
O203 C200 1.252 1_565 S
O204 In195 2.326 . S
O204 C200 1.260 1_565 S
C205 O196 1.240 . S
C205 O197 1.252 . S
O206 In195 2.294 . S
O206 C199 1.240 . S
O207 In195 2.326 . S
O207 C199 1.252 . S
In208 O209 2.294 . S
In208 O210 2.326 . S
In208 O214 2.266 . S
In208 O215 2.326 . S
In208 O216 2.266 . S
In208 O217 2.326 . S
In208 O219 2.294 . S
In208 O220 2.326 . S
O209 In208 2.294 . S
O209 C218 1.240 . S
O210 In208 2.326 . S
O210 C218 1.252 . S
C211 O214 1.252 . S
C211 O215 1.260 . S
C212 O219 1.240 . S
C212 O220 1.252 . S
C213 O216 1.252 . S
C213 O217 1.260 . S
O214 In208 2.266 . S
O214 C211 1.252 . S
O215 In208 2.326 . S
O215 C211 1.260 . S
O216 In208 2.266 . S
O216 C213 1.252 . S
O217 In208 2.326 . S
O217 C213 1.260 . S
C218 O209 1.240 . S
C218 O210 1.252 . S
O219 In208 2.294 . S
O219 C212 1.240 . S
O220 In208 2.326 . S
O220 C212 1.252 . S
In221 O222 2.294 . S
In221 O223 2.326 . S
In221 O227 2.266 . S
In221 O228 2.326 . S
In221 O229 2.266 . S
In221 O230 2.326 . S
In221 O232 2.294 . S
In221 O233 2.326 . S
O222 In221 2.294 . S
O222 C231 1.240 . S
O223 In221 2.326 . S
O223 C231 1.252 . S
C224 O227 1.252 . S
C224 O228 1.260 . S
C225 O232 1.240 . S
C225 O233 1.252 . S
C226 O229 1.252 . S
C226 O230 1.260 . S
O227 In221 2.266 . S
O227 C224 1.252 . S
O228 In221 2.326 . S
O228 C224 1.260 . S
O229 In221 2.266 . S
O229 C226 1.252 . S
O230 In221 2.326 . S
O230 C226 1.260 . S
C231 O222 1.240 . S
C231 O223 1.252 . S
O232 In221 2.294 . S
O232 C225 1.240 . S
O233 In221 2.326 . S
O233 C225 1.252 . S
In234 O235 2.294 . S
In234 O236 2.326 . S
In234 O240 2.266 . S
In234 O241 2.326 . S
In234 O242 2.266 . S
In234 O243 2.326 . S
In234 O245 2.294 . S
In234 O246 2.326 . S
O235 In234 2.294 . S
O235 C244 1.240 . S
O236 In234 2.326 . S
O236 C244 1.252 . S
C237 O240 1.252 . S
C237 O241 1.260 . S
C238 O245 1.240 . S
C238 O246 1.252 . S
C239 O242 1.252 . S
C239 O243 1.260 . S
O240 In234 2.266 . S
O240 C237 1.252 . S
O241 In234 2.326 . S
O241 C237 1.260 . S
O242 In234 2.266 . S
O242 C239 1.252 . S
O243 In234 2.326 . S
O243 C239 1.260 . S
C244 O235 1.240 . S
C244 O236 1.252 . S
O245 In234 2.294 . S
O245 C238 1.240 . S
O246 In234 2.326 . S
O246 C238 1.252 . S
In247 O248 2.294 . S
In247 O249 2.326 . S
In247 O253 2.266 . S
In247 O254 2.326 . S
In247 O255 2.266 . S
In247 O256 2.326 . S
In247 O258 2.294 . S
In247 O259 2.326 . S
O248 In247 2.294 . S
O248 C257 1.240 . S
O249 In247 2.326 . S
O249 C257 1.252 . S
C250 O253 1.252 . S
C250 O254 1.260 . S
C251 O258 1.240 . S
C251 O259 1.252 . S
C252 O255 1.252 . S
C252 O256 1.260 . S
O253 In247 2.266 . S
O253 C250 1.252 . S
O254 In247 2.326 . S
O254 C250 1.260 . S
O255 In247 2.266 . S
O255 C252 1.252 . S
O256 In247 2.326 . S
O256 C252 1.260 . S
C257 O248 1.240 . S
C257 O249 1.252 . S
O258 In247 2.294 . S
O258 C251 1.240 . S
O259 In247 2.326 . S
O259 C251 1.252 . S
In260 O261 2.294 . S
In260 O262 2.326 . S
In260 O266 2.266 . S
In260 O267 2.326 . S
In260 O268 2.266 . S
In260 O269 2.326 . S
In260 O271 2.294 . S
In260 O272 2.326 . S
O261 In260 2.294 . S
O261 C270 1.240 . S
O262 In260 2.326 . S
O262 C270 1.252 . S
C263 O266 1.252 . S
C263 O267 1.260 . S
C264 O271 1.240 . S
C264 O272 1.252 . S
C265 O268 1.252 . S
C265 O269 1.260 . S
O266 In260 2.266 . S
O266 C263 1.252 . S
O267 In260 2.326 . S
O267 C263 1.260 . S
O268 In260 2.266 . S
O268 C265 1.252 . S
O269 In260 2.326 . S
O269 C265 1.260 . S
C270 O261 1.240 . S
C270 O262 1.252 . S
O271 In260 2.294 . S
O271 C264 1.240 . S
O272 In260 2.326 . S
O272 C264 1.252 . S
In273 O274 2.294 . S
In273 O275 2.326 . S
In273 O279 2.266 . S
In273 O280 2.326 . S
In273 O281 2.266 . S
In273 O282 2.326 . S
In273 O284 2.294 . S
In273 O285 2.326 . S
O274 In273 2.294 . S
O274 C283 1.240 . S
O275 In273 2.326 . S
O275 C283 1.252 . S
C276 O279 1.252 . S
C276 O280 1.260 . S
C277 O284 1.240 . S
C277 O285 1.252 . S
C278 O281 1.252 . S
C278 O282 1.260 . S
O279 In273 2.266 . S
O279 C276 1.252 . S
O280 In273 2.326 . S
O280 C276 1.260 . S
O281 In273 2.266 . S
O281 C278 1.252 . S
O282 In273 2.326 . S
O282 C278 1.260 . S
C283 O274 1.240 . S
C283 O275 1.252 . S
O284 In273 2.294 . S
O284 C277 1.240 . S
O285 In273 2.326 . S
O285 C277 1.252 . S
In286 O287 2.294 . S
In286 O288 2.326 . S
In286 O292 2.266 . S
In286 O293 2.326 . S
In286 O294 2.266 . S
In286 O295 2.326 . S
In286 O297 2.294 . S
In286 O298 2.326 . S
O287 In286 2.294 . S
O287 C296 1.240 . S
O288 In286 2.326 . S
O288 C296 1.252 . S
C289 O292 1.252 . S
C289 O293 1.260 . S
C290 O297 1.240 . S
C290 O298 1.252 . S
C291 O294 1.252 . S
C291 O295 1.260 . S
O292 In286 2.266 . S
O292 C289 1.252 . S
O293 In286 2.326 . S
O293 C289 1.260 . S
O294 In286 2.266 . S
O294 C291 1.252 . S
O295 In286 2.326 . S
O295 C291 1.260 . S
C296 O287 1.240 . S
C296 O288 1.252 . S
O297 In286 2.294 . S
O297 C290 1.240 . S
O298 In286 2.326 . S
O298 C290 1.252 . S
In299 O300 2.294 . S
In299 O301 2.326 . S
In299 O305 2.266 . S
In299 O306 2.326 . S
In299 O307 2.266 . S
In299 O308 2.326 . S
In299 O310 2.294 . S
In299 O311 2.326 . S
O300 In299 2.294 . S
O300 C309 1.240 . S
O301 In299 2.326 . S
O301 C309 1.252 . S
C302 O305 1.252 . S
C302 O306 1.260 . S
C303 O310 1.240 . S
C303 O311 1.252 . S
C304 O307 1.252 . S
C304 O308 1.260 . S
O305 In299 2.266 . S
O305 C302 1.252 . S
O306 In299 2.326 . S
O306 C302 1.260 . S
O307 In299 2.266 . S
O307 C304 1.252 . S
O308 In299 2.326 . S
O308 C304 1.260 . S
C309 O300 1.240 . S
C309 O301 1.252 . S
O310 In299 2.294 . S
O310 C303 1.240 . S
O311 In299 2.326 . S
O311 C303 1.252 . S
In312 O313 2.294 . S
In312 O314 2.326 . S
In312 O318 2.266 . S
In312 O319 2.326 . S
In312 O320 2.266 . S
In312 O321 2.326 . S
In312 O323 2.294 . S
In312 O324 2.326 . S
O313 In312 2.294 . S
O313 C322 1.240 . S
O314 In312 2.326 . S
O314 C322 1.252 . S
C315 O318 1.252 . S
C315 O319 1.260 . S
C316 O323 1.240 . S
C316 O324 1.252 . S
C317 O320 1.252 . S
C317 O321 1.260 . S
O318 In312 2.266 . S
O318 C315 1.252 . S
O319 In312 2.326 . S
O319 C315 1.260 . S
O320 In312 2.266 . S
O320 C317 1.252 . S
O321 In312 2.326 . S
O321 C317 1.260 . S
C322 O313 1.240 . S
C322 O314 1.252 . S
O323 In312 2.294 . S
O323 C316 1.240 . S
O324 In312 2.326 . S
O324 C316 1.252 . S
In325 O326 2.294 . S
In325 O327 2.326 . S
In325 O331 2.266 . S
In325 O332 2.326 . S
In325 O333 2.266 . S
In325 O334 2.326 . S
In325 O336 2.294 . S
In325 O337 2.326 . S
O326 In325 2.294 . S
O326 C335 1.240 . S
O327 In325 2.326 . S
O327 C335 1.252 . S
C328 O331 1.252 . S
C328 O332 1.260 . S
C329 O336 1.240 . S
C329 O337 1.252 . S
C330 O333 1.252 . S
C330 O334 1.260 . S
O331 In325 2.266 . S
O331 C328 1.252 . S
O332 In325 2.326 . S
O332 C328 1.260 . S
O333 In325 2.266 . S
O333 C330 1.252 . S
O334 In325 2.326 . S
O334 C330 1.260 . S
C335 O326 1.240 . S
C335 O327 1.252 . S
O336 In325 2.294 . S
O336 C329 1.240 . S
O337 In325 2.326 . S
O337 C329 1.252 . S
In338 O339 2.294 . S
In338 O340 2.326 . S
In338 O344 2.266 . S
In338 O345 2.326 . S
In338 O346 2.266 . S
In338 O347 2.326 . S
In338 O349 2.294 . S
In338 O350 2.326 . S
O339 In338 2.294 . S
O339 C348 1.240 . S
O340 In338 2.326 . S
O340 C348 1.252 . S
C341 O344 1.252 . S
C341 O345 1.260 . S
C342 O349 1.240 . S
C342 O350 1.252 . S
C343 O346 1.252 . S
C343 O347 1.260 . S
O344 In338 2.266 . S
O344 C341 1.252 . S
O345 In338 2.326 . S
O345 C341 1.260 . S
O346 In338 2.266 . S
O346 C343 1.252 . S
O347 In338 2.326 . S
O347 C343 1.260 . S
C348 O339 1.240 . S
C348 O340 1.252 . S
O349 In338 2.294 . S
O349 C342 1.240 . S
O350 In338 2.326 . S
O350 C342 1.252 . S
In351 O352 2.294 . S
In351 O353 2.326 . S
In351 O357 2.266 . S
In351 O358 2.326 . S
In351 O359 2.266 . S
In351 O360 2.326 . S
In351 O362 2.294 . S
In351 O363 2.326 . S
O352 In351 2.294 . S
O352 C361 1.240 . S
O353 In351 2.326 . S
O353 C361 1.252 . S
C354 O357 1.252 . S
C354 O358 1.260 . S
C355 O362 1.240 . S
C355 O363 1.252 . S
C356 O359 1.252 . S
C356 O360 1.260 . S
O357 In351 2.266 . S
O357 C354 1.252 . S
O358 In351 2.326 . S
O358 C354 1.260 . S
O359 In351 2.266 . S
O359 C356 1.252 . S
O360 In351 2.326 . S
O360 C356 1.260 . S
C361 O352 1.240 . S
C361 O353 1.252 . S
O362 In351 2.294 . S
O362 C355 1.240 . S
O363 In351 2.326 . S
O363 C355 1.252 . S
In364 O365 2.294 . S
In364 O366 2.326 . S
In364 O370 2.266 . S
In364 O371 2.326 . S
In364 O372 2.266 . S
In364 O373 2.326 . S
In364 O375 2.294 . S
In364 O376 2.326 . S
O365 In364 2.294 . S
O365 C374 1.240 . S
O366 In364 2.326 . S
O366 C374 1.252 . S
C367 O370 1.252 . S
C367 O371 1.260 . S
C368 O375 1.240 . S
C368 O376 1.252 . S
C369 O372 1.252 . S
C369 O373 1.260 . S
O370 In364 2.266 . S
O370 C367 1.252 . S
O371 In364 2.326 . S
O371 C367 1.260 . S
O372 In364 2.266 . S
O372 C369 1.252 . S
O373 In364 2.326 . S
O373 C369 1.260 . S
C374 O365 1.240 . S
C374 O366 1.252 . S
O375 In364 2.294 . S
O375 C368 1.240 . S
O376 In364 2.326 . S
O376 C368 1.252 . S
In377 O378 2.294 . S
In377 O379 2.326 . S
In377 O383 2.266 . S
In377 O384 2.326 . S
In377 O385 2.266 . S
In377 O386 2.326 . S
In377 O388 2.294 . S
In377 O389 2.326 . S
O378 In377 2.294 . S
O378 C387 1.240 . S
O379 In377 2.326 . S
O379 C387 1.252 . S
C380 O383 1.252 . S
C380 O384 1.260 . S
C381 O388 1.240 . S
C381 O389 1.252 . S
C382 O385 1.252 . S
C382 O386 1.260 . S
O383 In377 2.266 . S
O383 C380 1.252 . S
O384 In377 2.326 . S
O384 C380 1.260 . S
O385 In377 2.266 . S
O385 C382 1.252 . S
O386 In377 2.326 . S
O386 C382 1.260 . S
C387 O378 1.240 . S
C387 O379 1.252 . S
O388 In377 2.294 . S
O388 C381 1.240 . S
O389 In377 2.326 . S
O389 C381 1.252 . S
In390 O391 2.294 . S
In390 O392 2.326 . S
In390 O396 2.266 . S
In390 O397 2.326 . S
In390 O398 2.266 . S
In390 O399 2.326 . S
In390 O401 2.294 . S
In390 O402 2.326 . S
O391 In390 2.294 . S
O391 C400 1.240 . S
O392 In390 2.326 . S
O392 C400 1.252 . S
C393 O396 1.252 . S
C393 O397 1.260 . S
C394 O401 1.240 . S
C394 O402 1.252 . S
C395 O398 1.252 . S
C395 O399 1.260 . S
O396 In390 2.266 . S
O396 C393 1.252 . S
O397 In390 2.326 . S
O397 C393 1.260 . S
O398 In390 2.266 . S
O398 C395 1.252 . S
O399 In390 2.326 . S
O399 C395 1.260 . S
C400 O391 1.240 . S
C400 O392 1.252 . S
O401 In390 2.294 . S
O401 C394 1.240 . S
O402 In390 2.326 . S
O402 C394 1.252 . S
In403 O404 2.294 . S
In403 O405 2.326 . S
In403 O409 2.266 . S
In403 O410 2.326 . S
In403 O411 2.266 . S
In403 O412 2.326 . S
In403 O414 2.294 . S
In403 O415 2.326 . S
O404 In403 2.294 . S
O404 C413 1.240 . S
O405 In403 2.326 . S
O405 C413 1.252 . S
C406 O409 1.252 . S
C406 O410 1.260 . S
C407 O414 1.240 . S
C407 O415 1.252 . S
C408 O411 1.252 . S
C408 O412 1.260 . S
O409 In403 2.266 . S
O409 C406 1.252 . S
O410 In403 2.326 . S
O410 C406 1.260 . S
O411 In403 2.266 . S
O411 C408 1.252 . S
O412 In403 2.326 . S
O412 C408 1.260 . S
C413 O404 1.240 . S
C413 O405 1.252 . S
O414 In403 2.294 . S
O414 C407 1.240 . S
O415 In403 2.326 . S
O415 C407 1.252 . S
C416 C417 1.391 . S
C416 C418 1.394 . S
C416 H432 0.931 . S
C417 C416 1.391 . S
C417 C421 1.376 . S
C418 C416 1.394 . S
C418 C419 1.369 . S
C418 C422 1.531 . S
C419 C418 1.369 . S
C419 C420 1.410 . S
C419 C427 1.503 . S
C420 C419 1.410 . S
C420 C421 1.392 . S
C420 C423 1.511 . S
C421 C417 1.376 . S
C421 C420 1.392 . S
C421 H433 0.929 . S
C422 C418 1.531 . S
C422 H434 0.960 . S
C422 H435 0.962 . S
C422 H436 0.960 . S
C423 C420 1.511 . S
C423 H437 0.961 . S
C423 H438 0.961 . S
C423 H439 0.961 . S
C424 C425 1.370 . S
C424 C426 1.363 . S
C424 H440 0.931 . S
C425 C424 1.370 . S
C425 C429 1.408 . S
C426 C424 1.363 . S
C426 C427 1.370 . S
C426 C430 1.524 . S
C427 C419 1.503 . S
C427 C426 1.370 . S
C427 C428 1.403 . S
C428 C427 1.403 . S
C428 C429 1.404 . S
C428 C431 1.539 . S
C429 C425 1.408 . S
C429 C428 1.404 . S
C429 H441 0.930 . S
C430 C426 1.524 . S
C430 H442 0.956 . S
C430 H443 0.961 . S
C430 H444 0.961 . S
C431 C428 1.539 . S
C431 H445 0.958 . S
C431 H446 0.961 . S
C431 H447 0.960 . S
H432 C416 0.931 . S
H433 C421 0.929 . S
H434 C422 0.960 . S
H435 C422 0.962 . S
H436 C422 0.960 . S
H437 C423 0.961 . S
H438 C423 0.961 . S
H439 C423 0.961 . S
H440 C424 0.931 . S
H441 C429 0.930 . S
H442 C430 0.956 . S
H443 C430 0.961 . S
H444 C430 0.961 . S
H445 C431 0.958 . S
H446 C431 0.961 . S
H447 C431 0.960 . S
C448 C449 1.391 . S
C448 C450 1.394 . S
C448 H464 0.931 1_655 S
C449 C448 1.391 . S
C449 C453 1.376 . S
C450 C448 1.394 . S
C450 C451 1.369 . S
C450 C454 1.531 . S
C451 C450 1.369 . S
C451 C452 1.410 . S
C451 C459 1.503 . S
C452 C451 1.410 . S
C452 C453 1.392 . S
C452 C455 1.511 . S
C453 C449 1.376 . S
C453 C452 1.392 . S
C453 H465 0.929 . S
C454 C450 1.531 . S
C454 H466 0.960 . S
C454 H467 0.962 . S
C454 H468 0.960 . S
C455 C452 1.511 . S
C455 H469 0.961 . S
C455 H470 0.961 . S
C455 H471 0.961 . S
C456 C457 1.370 . S
C456 C458 1.363 . S
C456 H472 0.931 . S
C457 C456 1.370 . S
C457 C461 1.408 . S
C458 C456 1.363 . S
C458 C459 1.370 . S
C458 C462 1.524 . S
C459 C451 1.503 . S
C459 C458 1.370 . S
C459 C460 1.403 . S
C460 C459 1.403 . S
C460 C461 1.404 . S
C460 C463 1.539 . S
C461 C457 1.408 . S
C461 C460 1.404 . S
C461 H473 0.930 . S
C462 C458 1.524 . S
C462 H474 0.956 . S
C462 H475 0.961 . S
C462 H476 0.961 . S
C463 C460 1.539 . S
C463 H477 0.958 . S
C463 H478 0.961 . S
C463 H479 0.960 . S
H464 C448 0.931 1_455 S
H465 C453 0.929 . S
H466 C454 0.960 . S
H467 C454 0.962 . S
H468 C454 0.960 . S
H469 C455 0.961 . S
H470 C455 0.961 . S
H471 C455 0.961 . S
H472 C456 0.931 . S
H473 C461 0.930 . S
H474 C462 0.956 . S
H475 C462 0.961 . S
H476 C462 0.961 . S
H477 C463 0.958 . S
H478 C463 0.961 . S
H479 C463 0.960 . S
C480 C481 1.391 . S
C480 C482 1.394 . S
C480 H496 0.931 . S
C481 C480 1.391 . S
C481 C485 1.376 . S
C482 C480 1.394 . S
C482 C483 1.369 . S
C482 C486 1.531 . S
C483 C482 1.369 . S
C483 C484 1.410 . S
C483 C491 1.503 . S
C484 C483 1.410 . S
C484 C485 1.392 . S
C484 C487 1.511 . S
C485 C481 1.376 . S
C485 C484 1.392 . S
C485 H497 0.929 . S
C486 C482 1.531 . S
C486 H498 0.960 . S
C486 H499 0.962 . S
C486 H500 0.960 . S
C487 C484 1.511 . S
C487 H501 0.961 . S
C487 H502 0.961 . S
C487 H503 0.961 . S
C488 C489 1.370 . S
C488 C490 1.363 . S
C488 H504 0.931 . S
C489 C488 1.370 . S
C489 C493 1.408 . S
C490 C488 1.363 . S
C490 C491 1.370 . S
C490 C494 1.524 . S
C491 C483 1.503 . S
C491 C490 1.370 . S
C491 C492 1.403 . S
C492 C491 1.403 . S
C492 C493 1.404 . S
C492 C495 1.539 . S
C493 C489 1.408 . S
C493 C492 1.404 . S
C493 H505 0.930 . S
C494 C490 1.524 . S
C494 H506 0.956 . S
C494 H507 0.961 . S
C494 H508 0.961 . S
C495 C492 1.539 . S
C495 H509 0.958 . S
C495 H510 0.961 . S
C495 H511 0.960 . S
H496 C480 0.931 . S
H497 C485 0.929 . S
H498 C486 0.960 . S
H499 C486 0.962 . S
H500 C486 0.960 . S
H501 C487 0.961 . S
H502 C487 0.961 . S
H503 C487 0.961 . S
H504 C488 0.931 . S
H505 C493 0.930 . S
H506 C494 0.956 . S
H507 C494 0.961 . S
H508 C494 0.961 . S
H509 C495 0.958 . S
H510 C495 0.961 . S
H511 C495 0.960 . S
C512 C513 1.391 . S
C512 C514 1.394 . S
C512 H528 0.931 . S
C513 C512 1.391 . S
C513 C517 1.376 . S
C514 C512 1.394 . S
C514 C515 1.369 . S
C514 C518 1.531 . S
C515 C514 1.369 . S
C515 C516 1.410 . S
C515 C523 1.503 . S
C516 C515 1.410 . S
C516 C517 1.392 . S
C516 C519 1.511 . S
C517 C513 1.376 . S
C517 C516 1.392 . S
C517 H529 0.929 . S
C518 C514 1.531 . S
C518 H530 0.960 . S
C518 H531 0.962 . S
C518 H532 0.960 . S
C519 C516 1.511 . S
C519 H533 0.961 . S
C519 H534 0.961 . S
C519 H535 0.961 . S
C520 C521 1.370 . S
C520 C522 1.363 . S
C520 H536 0.931 . S
C521 C520 1.370 . S
C521 C525 1.408 . S
C522 C520 1.363 . S
C522 C523 1.370 . S
C522 C526 1.524 . S
C523 C515 1.503 . S
C523 C522 1.370 . S
C523 C524 1.403 . S
C524 C523 1.403 . S
C524 C525 1.404 . S
C524 C527 1.539 . S
C525 C521 1.408 . S
C525 C524 1.404 . S
C525 H537 0.930 . S
C526 C522 1.524 . S
C526 H538 0.956 . S
C526 H539 0.961 . S
C526 H540 0.961 . S
C527 C524 1.539 . S
C527 H541 0.958 . S
C527 H542 0.961 . S
C527 H543 0.960 . S
H528 C512 0.931 . S
H529 C517 0.929 . S
H530 C518 0.960 . S
H531 C518 0.962 . S
H532 C518 0.960 . S
H533 C519 0.961 . S
H534 C519 0.961 . S
H535 C519 0.961 . S
H536 C520 0.931 . S
H537 C525 0.930 . S
H538 C526 0.956 . S
H539 C526 0.961 . S
H540 C526 0.961 . S
H541 C527 0.958 . S
H542 C527 0.961 . S
H543 C527 0.960 . S
C544 C545 1.391 . S
C544 C546 1.394 . S
C544 H560 0.931 . S
C545 C544 1.391 . S
C545 C549 1.376 . S
C546 C544 1.394 . S
C546 C547 1.369 . S
C546 C550 1.531 . S
C547 C546 1.369 . S
C547 C548 1.410 . S
C547 C555 1.503 . S
C548 C547 1.410 . S
C548 C549 1.392 . S
C548 C551 1.511 . S
C549 C545 1.376 . S
C549 C548 1.392 . S
C549 H561 0.929 . S
C550 C546 1.531 . S
C550 H562 0.960 . S
C550 H563 0.962 . S
C550 H564 0.960 . S
C551 C548 1.511 . S
C551 H565 0.961 . S
C551 H566 0.961 . S
C551 H567 0.961 . S
C552 C553 1.370 . S
C552 C554 1.363 . S
C552 H568 0.931 . S
C553 C552 1.370 . S
C553 C557 1.408 . S
C554 C552 1.363 . S
C554 C555 1.370 . S
C554 C558 1.524 . S
C555 C547 1.503 . S
C555 C554 1.370 . S
C555 C556 1.403 . S
C556 C555 1.403 . S
C556 C557 1.404 . S
C556 C559 1.539 . S
C557 C553 1.408 . S
C557 C556 1.404 . S
C557 H569 0.930 . S
C558 C554 1.524 . S
C558 H570 0.956 . S
C558 H571 0.961 . S
C558 H572 0.961 . S
C559 C556 1.539 . S
C559 H573 0.958 . S
C559 H574 0.961 . S
C559 H575 0.960 . S
H560 C544 0.931 . S
H561 C549 0.929 . S
H562 C550 0.960 . S
H563 C550 0.962 . S
H564 C550 0.960 . S
H565 C551 0.961 . S
H566 C551 0.961 . S
H567 C551 0.961 . S
H568 C552 0.931 . S
H569 C557 0.930 . S
H570 C558 0.956 . S
H571 C558 0.961 . S
H572 C558 0.961 . S
H573 C559 0.958 . S
H574 C559 0.961 . S
H575 C559 0.960 . S
C576 C577 1.391 . S
C576 C578 1.394 . S
C576 H592 0.931 . S
C577 C576 1.391 . S
C577 C581 1.376 . S
C578 C576 1.394 . S
C578 C579 1.369 . S
C578 C582 1.531 . S
C579 C578 1.369 . S
C579 C580 1.410 . S
C579 C587 1.503 . S
C580 C579 1.410 . S
C580 C581 1.392 . S
C580 C583 1.511 . S
C581 C577 1.376 . S
C581 C580 1.392 . S
C581 H593 0.929 . S
C582 C578 1.531 . S
C582 H594 0.960 . S
C582 H595 0.962 . S
C582 H596 0.960 . S
C583 C580 1.511 . S
C583 H597 0.961 . S
C583 H598 0.961 . S
C583 H599 0.961 . S
C584 C585 1.370 . S
C584 C586 1.363 . S
C584 H600 0.931 . S
C585 C584 1.370 . S
C585 C589 1.408 . S
C586 C584 1.363 . S
C586 C587 1.370 . S
C586 C590 1.524 . S
C587 C579 1.503 . S
C587 C586 1.370 . S
C587 C588 1.403 . S
C588 C587 1.403 . S
C588 C589 1.404 . S
C588 C591 1.539 . S
C589 C585 1.408 . S
C589 C588 1.404 . S
C589 H601 0.930 . S
C590 C586 1.524 . S
C590 H602 0.956 . S
C590 H603 0.961 . S
C590 H604 0.961 . S
C591 C588 1.539 . S
C591 H605 0.958 . S
C591 H606 0.961 . S
C591 H607 0.960 . S
H592 C576 0.931 . S
H593 C581 0.929 . S
H594 C582 0.960 . S
H595 C582 0.962 . S
H596 C582 0.960 . S
H597 C583 0.961 . S
H598 C583 0.961 . S
H599 C583 0.961 . S
H600 C584 0.931 . S
H601 C589 0.930 . S
H602 C590 0.956 . S
H603 C590 0.961 . S
H604 C590 0.961 . S
H605 C591 0.958 . S
H606 C591 0.961 . S
H607 C591 0.960 . S
C608 C609 1.391 . S
C608 C610 1.394 . S
C608 H624 0.931 . S
C609 C608 1.391 . S
C609 C613 1.376 . S
C610 C608 1.394 . S
C610 C611 1.369 . S
C610 C614 1.531 . S
C611 C610 1.369 . S
C611 C612 1.410 . S
C611 C619 1.503 . S
C612 C611 1.410 . S
C612 C613 1.392 . S
C612 C615 1.511 . S
C613 C609 1.376 . S
C613 C612 1.392 . S
C613 H625 0.929 . S
C614 C610 1.531 . S
C614 H626 0.960 . S
C614 H627 0.962 . S
C614 H628 0.960 . S
C615 C612 1.511 . S
C615 H629 0.961 . S
C615 H630 0.961 . S
C615 H631 0.961 . S
C616 C617 1.370 . S
C616 C618 1.363 . S
C616 H632 0.931 . S
C617 C616 1.370 . S
C617 C621 1.408 . S
C618 C616 1.363 . S
C618 C619 1.370 . S
C618 C622 1.524 . S
C619 C611 1.503 . S
C619 C618 1.370 . S
C619 C620 1.403 . S
C620 C619 1.403 . S
C620 C621 1.404 . S
C620 C623 1.539 . S
C621 C617 1.408 . S
C621 C620 1.404 . S
C621 H633 0.930 . S
C622 C618 1.524 . S
C622 H634 0.956 . S
C622 H635 0.961 . S
C622 H636 0.961 . S
C623 C620 1.539 . S
C623 H637 0.958 . S
C623 H638 0.961 . S
C623 H639 0.960 . S
H624 C608 0.931 . S
H625 C613 0.929 . S
H626 C614 0.960 . S
H627 C614 0.962 . S
H628 C614 0.960 . S
H629 C615 0.961 . S
H630 C615 0.961 . S
H631 C615 0.961 . S
H632 C616 0.931 . S
H633 C621 0.930 . S
H634 C622 0.956 . S
H635 C622 0.961 . S
H636 C622 0.961 . S
H637 C623 0.958 . S
H638 C623 0.961 . S
H639 C623 0.960 . S
C640 C641 1.391 . S
C640 C642 1.394 . S
C640 H656 0.931 . S
C641 C640 1.391 . S
C641 C645 1.376 . S
C642 C640 1.394 . S
C642 C643 1.369 . S
C642 C646 1.531 . S
C643 C642 1.369 . S
C643 C644 1.410 . S
C643 C651 1.503 . S
C644 C643 1.410 . S
C644 C645 1.392 . S
C644 C647 1.511 . S
C645 C641 1.376 . S
C645 C644 1.392 . S
C645 H657 0.929 . S
C646 C642 1.531 . S
C646 H658 0.960 . S
C646 H659 0.962 . S
C646 H660 0.960 . S
C647 C644 1.511 . S
C647 H661 0.961 . S
C647 H662 0.961 . S
C647 H663 0.961 . S
C648 C649 1.370 . S
C648 C650 1.363 . S
C648 H664 0.931 . S
C649 C648 1.370 . S
C649 C653 1.408 . S
C650 C648 1.363 . S
C650 C651 1.370 . S
C650 C654 1.524 . S
C651 C643 1.503 . S
C651 C650 1.370 . S
C651 C652 1.403 . S
C652 C651 1.403 . S
C652 C653 1.404 . S
C652 C655 1.539 . S
C653 C649 1.408 . S
C653 C652 1.404 . S
C653 H665 0.930 . S
C654 C650 1.524 . S
C654 H666 0.956 . S
C654 H667 0.961 . S
C654 H668 0.961 . S
C655 C652 1.539 . S
C655 H669 0.958 . S
C655 H670 0.961 . S
C655 H671 0.960 . S
H656 C640 0.931 . S
H657 C645 0.929 . S
H658 C646 0.960 . S
H659 C646 0.962 . S
H660 C646 0.960 . S
H661 C647 0.961 . S
H662 C647 0.961 . S
H663 C647 0.961 . S
H664 C648 0.931 . S
H665 C653 0.930 . S
H666 C654 0.956 . S
H667 C654 0.961 . S
H668 C654 0.961 . S
H669 C655 0.958 . S
H670 C655 0.961 . S
H671 C655 0.960 . S
C672 C673 1.391 . S
C672 C674 1.394 . S
C672 H688 0.931 . S
C673 C672 1.391 . S
C673 C677 1.376 . S
C674 C672 1.394 . S
C674 C675 1.369 . S
C674 C678 1.531 . S
C675 C674 1.369 . S
C675 C676 1.410 . S
C675 C683 1.503 . S
C676 C675 1.410 . S
C676 C677 1.392 . S
C676 C679 1.511 . S
C677 C673 1.376 . S
C677 C676 1.392 . S
C677 H689 0.929 . S
C678 C674 1.531 . S
C678 H690 0.960 . S
C678 H691 0.962 . S
C678 H692 0.960 . S
C679 C676 1.511 . S
C679 H693 0.961 . S
C679 H694 0.961 . S
C679 H695 0.961 . S
C680 C681 1.370 . S
C680 C682 1.363 . S
C680 H696 0.931 . S
C681 C680 1.370 . S
C681 C685 1.408 . S
C682 C680 1.363 . S
C682 C683 1.370 . S
C682 C686 1.524 . S
C683 C675 1.503 . S
C683 C682 1.370 . S
C683 C684 1.403 . S
C684 C683 1.403 . S
C684 C685 1.404 . S
C684 C687 1.539 . S
C685 C681 1.408 . S
C685 C684 1.404 . S
C685 H697 0.930 . S
C686 C682 1.524 . S
C686 H698 0.956 . S
C686 H699 0.961 . S
C686 H700 0.961 . S
C687 C684 1.539 . S
C687 H701 0.958 . S
C687 H702 0.961 . S
C687 H703 0.960 . S
H688 C672 0.931 . S
H689 C677 0.929 . S
H690 C678 0.960 . S
H691 C678 0.962 . S
H692 C678 0.960 . S
H693 C679 0.961 . S
H694 C679 0.961 . S
H695 C679 0.961 . S
H696 C680 0.931 . S
H697 C685 0.930 . S
H698 C686 0.956 . S
H699 C686 0.961 . S
H700 C686 0.961 . S
H701 C687 0.958 . S
H702 C687 0.961 . S
H703 C687 0.960 . S
C704 C705 1.391 . S
C704 C706 1.394 . S
C704 H720 0.931 . S
C705 C704 1.391 . S
C705 C709 1.376 . S
C706 C704 1.394 . S
C706 C707 1.369 . S
C706 C710 1.531 . S
C707 C706 1.369 . S
C707 C708 1.410 . S
C707 C715 1.503 . S
C708 C707 1.410 . S
C708 C709 1.392 . S
C708 C711 1.511 . S
C709 C705 1.376 . S
C709 C708 1.392 . S
C709 H721 0.929 . S
C710 C706 1.531 . S
C710 H722 0.960 . S
C710 H723 0.962 . S
C710 H724 0.960 . S
C711 C708 1.511 . S
C711 H725 0.961 . S
C711 H726 0.961 . S
C711 H727 0.961 . S
C712 C713 1.370 . S
C712 C714 1.363 . S
C712 H728 0.931 . S
C713 C712 1.370 . S
C713 C717 1.408 . S
C714 C712 1.363 . S
C714 C715 1.370 . S
C714 C718 1.524 . S
C715 C707 1.503 . S
C715 C714 1.370 . S
C715 C716 1.403 . S
C716 C715 1.403 . S
C716 C717 1.404 . S
C716 C719 1.539 . S
C717 C713 1.408 . S
C717 C716 1.404 . S
C717 H729 0.930 . S
C718 C714 1.524 . S
C718 H730 0.956 . S
C718 H731 0.961 . S
C718 H732 0.961 . S
C719 C716 1.539 . S
C719 H733 0.958 . S
C719 H734 0.961 . S
C719 H735 0.960 . S
H720 C704 0.931 . S
H721 C709 0.929 . S
H722 C710 0.960 . S
H723 C710 0.962 . S
H724 C710 0.960 . S
H725 C711 0.961 . S
H726 C711 0.961 . S
H727 C711 0.961 . S
H728 C712 0.931 . S
H729 C717 0.930 . S
H730 C718 0.956 . S
H731 C718 0.961 . S
H732 C718 0.961 . S
H733 C719 0.958 . S
H734 C719 0.961 . S
H735 C719 0.960 . S
C736 C737 1.391 . S
C736 C738 1.394 . S
C736 H752 0.931 . S
C737 C736 1.391 . S
C737 C741 1.376 . S
C738 C736 1.394 . S
C738 C739 1.369 . S
C738 C742 1.531 . S
C739 C738 1.369 . S
C739 C740 1.410 . S
C739 C747 1.503 . S
C740 C739 1.410 . S
C740 C741 1.392 . S
C740 C743 1.511 . S
C741 C737 1.376 . S
C741 C740 1.392 . S
C741 H753 0.929 . S
C742 C738 1.531 . S
C742 H754 0.960 . S
C742 H755 0.962 . S
C742 H756 0.960 . S
C743 C740 1.511 . S
C743 H757 0.961 . S
C743 H758 0.961 . S
C743 H759 0.961 . S
C744 C745 1.370 . S
C744 C746 1.363 . S
C744 H760 0.931 . S
C745 C744 1.370 . S
C745 C749 1.408 . S
C746 C744 1.363 . S
C746 C747 1.370 . S
C746 C750 1.524 . S
C747 C739 1.503 . S
C747 C746 1.370 . S
C747 C748 1.403 . S
C748 C747 1.403 . S
C748 C749 1.404 . S
C748 C751 1.539 . S
C749 C745 1.408 . S
C749 C748 1.404 . S
C749 H761 0.930 . S
C750 C746 1.524 . S
C750 H762 0.956 . S
C750 H763 0.961 . S
C750 H764 0.961 . S
C751 C748 1.539 . S
C751 H765 0.958 . S
C751 H766 0.961 . S
C751 H767 0.960 . S
H752 C736 0.931 . S
H753 C741 0.929 . S
H754 C742 0.960 . S
H755 C742 0.962 . S
H756 C742 0.960 . S
H757 C743 0.961 . S
H758 C743 0.961 . S
H759 C743 0.961 . S
H760 C744 0.931 . S
H761 C749 0.930 . S
H762 C750 0.956 . S
H763 C750 0.961 . S
H764 C750 0.961 . S
H765 C751 0.958 . S
H766 C751 0.961 . S
H767 C751 0.960 . S
C768 C769 1.391 . S
C768 C770 1.394 . S
C768 H784 0.931 . S
C769 C768 1.391 . S
C769 C773 1.376 . S
C770 C768 1.394 . S
C770 C771 1.369 . S
C770 C774 1.531 . S
C771 C770 1.369 . S
C771 C772 1.410 . S
C771 C779 1.503 . S
C772 C771 1.410 . S
C772 C773 1.392 . S
C772 C775 1.511 . S
C773 C769 1.376 . S
C773 C772 1.392 . S
C773 H785 0.929 . S
C774 C770 1.531 . S
C774 H786 0.960 . S
C774 H787 0.962 . S
C774 H788 0.960 . S
C775 C772 1.511 . S
C775 H789 0.961 . S
C775 H790 0.961 . S
C775 H791 0.961 . S
C776 C777 1.370 . S
C776 C778 1.363 . S
C776 H792 0.931 . S
C777 C776 1.370 . S
C777 C781 1.408 . S
C778 C776 1.363 . S
C778 C779 1.370 . S
C778 C782 1.524 . S
C779 C771 1.503 . S
C779 C778 1.370 . S
C779 C780 1.403 . S
C780 C779 1.403 . S
C780 C781 1.404 . S
C780 C783 1.539 . S
C781 C777 1.408 . S
C781 C780 1.404 . S
C781 H793 0.930 . S
C782 C778 1.524 . S
C782 H794 0.956 . S
C782 H795 0.961 . S
C782 H796 0.961 . S
C783 C780 1.539 . S
C783 H797 0.958 . S
C783 H798 0.961 . S
C783 H799 0.960 . S
H784 C768 0.931 . S
H785 C773 0.929 . S
H786 C774 0.960 . S
H787 C774 0.962 . S
H788 C774 0.960 . S
H789 C775 0.961 . S
H790 C775 0.961 . S
H791 C775 0.961 . S
H792 C776 0.931 . S
H793 C781 0.930 . S
H794 C782 0.956 . S
H795 C782 0.961 . S
H796 C782 0.961 . S
H797 C783 0.958 . S
H798 C783 0.961 . S
H799 C783 0.960 . S
C800 C801 1.391 . S
C800 C802 1.394 . S
C800 H816 0.931 . S
C801 C800 1.391 . S
C801 C805 1.376 . S
C802 C800 1.394 . S
C802 C803 1.369 . S
C802 C806 1.531 . S
C803 C802 1.369 . S
C803 C804 1.410 . S
C803 C811 1.503 . S
C804 C803 1.410 . S
C804 C805 1.392 . S
C804 C807 1.511 . S
C805 C801 1.376 . S
C805 C804 1.392 . S
C805 H817 0.929 . S
C806 C802 1.531 . S
C806 H818 0.960 . S
C806 H819 0.962 . S
C806 H820 0.960 . S
C807 C804 1.511 . S
C807 H821 0.961 . S
C807 H822 0.961 . S
C807 H823 0.961 . S
C808 C809 1.370 . S
C808 C810 1.363 . S
C808 H824 0.931 . S
C809 C808 1.370 . S
C809 C813 1.408 . S
C810 C808 1.363 . S
C810 C811 1.370 . S
C810 C814 1.524 . S
C811 C803 1.503 . S
C811 C810 1.370 . S
C811 C812 1.403 . S
C812 C811 1.403 . S
C812 C813 1.404 . S
C812 C815 1.539 . S
C813 C809 1.408 . S
C813 C812 1.404 . S
C813 H825 0.930 . S
C814 C810 1.524 . S
C814 H826 0.956 . S
C814 H827 0.961 . S
C814 H828 0.961 . S
C815 C812 1.539 . S
C815 H829 0.958 . S
C815 H830 0.961 . S
C815 H831 0.960 . S
H816 C800 0.931 . S
H817 C805 0.929 . S
H818 C806 0.960 . S
H819 C806 0.962 . S
H820 C806 0.960 . S
H821 C807 0.961 . S
H822 C807 0.961 . S
H823 C807 0.961 . S
H824 C808 0.931 . S
H825 C813 0.930 . S
H826 C814 0.956 . S
H827 C814 0.961 . S
H828 C814 0.961 . S
H829 C815 0.958 . S
H830 C815 0.961 . S
H831 C815 0.960 . S
C832 C833 1.391 . S
C832 C834 1.394 . S
C832 H848 0.931 . S
C833 C832 1.391 . S
C833 C837 1.376 . S
C834 C832 1.394 . S
C834 C835 1.369 . S
C834 C838 1.531 . S
C835 C834 1.369 . S
C835 C836 1.410 . S
C835 C843 1.503 . S
C836 C835 1.410 . S
C836 C837 1.392 . S
C836 C839 1.511 . S
C837 C833 1.376 . S
C837 C836 1.392 . S
C837 H849 0.929 . S
C838 C834 1.531 . S
C838 H850 0.960 . S
C838 H851 0.962 . S
C838 H852 0.960 . S
C839 C836 1.511 . S
C839 H853 0.961 . S
C839 H854 0.961 . S
C839 H855 0.961 . S
C840 C841 1.370 . S
C840 C842 1.363 . S
C840 H856 0.931 . S
C841 C840 1.370 . S
C841 C845 1.408 . S
C842 C840 1.363 . S
C842 C843 1.370 . S
C842 C846 1.524 . S
C843 C835 1.503 . S
C843 C842 1.370 . S
C843 C844 1.403 . S
C844 C843 1.403 . S
C844 C845 1.404 . S
C844 C847 1.539 . S
C845 C841 1.408 . S
C845 C844 1.404 . S
C845 H857 0.930 . S
C846 C842 1.524 . S
C846 H858 0.956 . S
C846 H859 0.961 . S
C846 H860 0.961 . S
C847 C844 1.539 . S
C847 H861 0.958 . S
C847 H862 0.961 . S
C847 H863 0.960 . S
H848 C832 0.931 . S
H849 C837 0.929 . S
H850 C838 0.960 . S
H851 C838 0.962 . S
H852 C838 0.960 . S
H853 C839 0.961 . S
H854 C839 0.961 . S
H855 C839 0.961 . S
H856 C840 0.931 . S
H857 C845 0.930 . S
H858 C846 0.956 . S
H859 C846 0.961 . S
H860 C846 0.961 . S
H861 C847 0.958 . S
H862 C847 0.961 . S
H863 C847 0.960 . S
C864 C865 1.391 . S
C864 C866 1.394 . S
C864 H880 0.931 . S
C865 C864 1.391 . S
C865 C869 1.376 . S
C866 C864 1.394 . S
C866 C867 1.369 . S
C866 C870 1.531 . S
C867 C866 1.369 . S
C867 C868 1.410 . S
C867 C875 1.503 . S
C868 C867 1.410 . S
C868 C869 1.392 . S
C868 C871 1.511 . S
C869 C865 1.376 . S
C869 C868 1.392 . S
C869 H881 0.929 . S
C870 C866 1.531 . S
C870 H882 0.960 . S
C870 H883 0.962 . S
C870 H884 0.960 . S
C871 C868 1.511 . S
C871 H885 0.961 . S
C871 H886 0.961 . S
C871 H887 0.961 . S
C872 C873 1.370 . S
C872 C874 1.363 . S
C872 H888 0.931 . S
C873 C872 1.370 . S
C873 C877 1.408 . S
C874 C872 1.363 . S
C874 C875 1.370 . S
C874 C878 1.524 . S
C875 C867 1.503 . S
C875 C874 1.370 . S
C875 C876 1.403 . S
C876 C875 1.403 . S
C876 C877 1.404 . S
C876 C879 1.539 . S
C877 C873 1.408 . S
C877 C876 1.404 . S
C877 H889 0.930 . S
C878 C874 1.524 . S
C878 H890 0.956 . S
C878 H891 0.961 . S
C878 H892 0.961 . S
C879 C876 1.539 . S
C879 H893 0.958 . S
C879 H894 0.961 . S
C879 H895 0.960 . S
H880 C864 0.931 . S
H881 C869 0.929 . S
H882 C870 0.960 . S
H883 C870 0.962 . S
H884 C870 0.960 . S
H885 C871 0.961 . S
H886 C871 0.961 . S
H887 C871 0.961 . S
H888 C872 0.931 . S
H889 C877 0.930 . S
H890 C878 0.956 . S
H891 C878 0.961 . S
H892 C878 0.961 . S
H893 C879 0.958 . S
H894 C879 0.961 . S
H895 C879 0.960 . S
C896 C897 1.391 . S
C896 C898 1.394 . S
C896 H912 0.931 . S
C897 C896 1.391 . S
C897 C901 1.376 . S
C898 C896 1.394 . S
C898 C899 1.369 . S
C898 C902 1.531 . S
C899 C898 1.369 . S
C899 C900 1.410 . S
C899 C907 1.503 . S
C900 C899 1.410 . S
C900 C901 1.392 . S
C900 C903 1.511 . S
C901 C897 1.376 . S
C901 C900 1.392 . S
C901 H913 0.929 . S
C902 C898 1.531 . S
C902 H914 0.960 . S
C902 H915 0.962 . S
C902 H916 0.960 . S
C903 C900 1.511 . S
C903 H917 0.961 . S
C903 H918 0.961 . S
C903 H919 0.961 . S
C904 C905 1.370 . S
C904 C906 1.363 . S
C904 H920 0.931 . S
C905 C904 1.370 . S
C905 C909 1.408 . S
C906 C904 1.363 . S
C906 C907 1.370 . S
C906 C910 1.524 . S
C907 C899 1.503 . S
C907 C906 1.370 . S
C907 C908 1.403 . S
C908 C907 1.403 . S
C908 C909 1.404 . S
C908 C911 1.539 . S
C909 C905 1.408 . S
C909 C908 1.404 . S
C909 H921 0.930 . S
C910 C906 1.524 . S
C910 H922 0.956 . S
C910 H923 0.961 . S
C910 H924 0.961 . S
C911 C908 1.539 . S
C911 H925 0.958 . S
C911 H926 0.961 . S
C911 H927 0.960 . S
H912 C896 0.931 . S
H913 C901 0.929 . S
H914 C902 0.960 . S
H915 C902 0.962 . S
H916 C902 0.960 . S
H917 C903 0.961 . S
H918 C903 0.961 . S
H919 C903 0.961 . S
H920 C904 0.931 . S
H921 C909 0.930 . S
H922 C910 0.956 . S
H923 C910 0.961 . S
H924 C910 0.961 . S
H925 C911 0.958 . S
H926 C911 0.961 . S
H927 C911 0.960 . S
C928 C929 1.391 . S
C928 C930 1.394 . S
C928 H944 0.931 . S
C929 C928 1.391 . S
C929 C933 1.376 . S
C930 C928 1.394 . S
C930 C931 1.369 . S
C930 C934 1.531 . S
C931 C930 1.369 . S
C931 C932 1.410 . S
C931 C939 1.503 . S
C932 C931 1.410 . S
C932 C933 1.392 . S
C932 C935 1.511 . S
C933 C929 1.376 . S
C933 C932 1.392 . S
C933 H945 0.929 . S
C934 C930 1.531 . S
C934 H946 0.960 . S
C934 H947 0.962 . S
C934 H948 0.960 . S
C935 C932 1.511 . S
C935 H949 0.961 . S
C935 H950 0.961 . S
C935 H951 0.961 . S
C936 C937 1.370 . S
C936 C938 1.363 . S
C936 H952 0.931 . S
C937 C936 1.370 . S
C937 C941 1.408 . S
C938 C936 1.363 . S
C938 C939 1.370 . S
C938 C942 1.524 . S
C939 C931 1.503 . S
C939 C938 1.370 . S
C939 C940 1.403 . S
C940 C939 1.403 . S
C940 C941 1.404 . S
C940 C943 1.539 . S
C941 C937 1.408 . S
C941 C940 1.404 . S
C941 H953 0.930 . S
C942 C938 1.524 . S
C942 H954 0.956 . S
C942 H955 0.961 . S
C942 H956 0.961 . S
C943 C940 1.539 . S
C943 H957 0.958 . S
C943 H958 0.961 . S
C943 H959 0.960 . S
H944 C928 0.931 . S
H945 C933 0.929 . S
H946 C934 0.960 . S
H947 C934 0.962 . S
H948 C934 0.960 . S
H949 C935 0.961 . S
H950 C935 0.961 . S
H951 C935 0.961 . S
H952 C936 0.931 . S
H953 C941 0.930 . S
H954 C942 0.956 . S
H955 C942 0.961 . S
H956 C942 0.961 . S
H957 C943 0.958 . S
H958 C943 0.961 . S
H959 C943 0.960 . S
C960 C961 1.391 . S
C960 C962 1.394 . S
C960 H976 0.931 . S
C961 C960 1.391 . S
C961 C965 1.376 . S
C962 C960 1.394 . S
C962 C963 1.369 . S
C962 C966 1.531 . S
C963 C962 1.369 . S
C963 C964 1.410 . S
C963 C971 1.503 . S
C964 C963 1.410 . S
C964 C965 1.392 . S
C964 C967 1.511 . S
C965 C961 1.376 . S
C965 C964 1.392 . S
C965 H977 0.929 . S
C966 C962 1.531 . S
C966 H978 0.960 . S
C966 H979 0.962 . S
C966 H980 0.960 . S
C967 C964 1.511 . S
C967 H981 0.961 . S
C967 H982 0.961 . S
C967 H983 0.961 . S
C968 C969 1.370 . S
C968 C970 1.363 . S
C968 H984 0.931 . S
C969 C968 1.370 . S
C969 C973 1.408 . S
C970 C968 1.363 . S
C970 C971 1.370 . S
C970 C974 1.524 . S
C971 C963 1.503 . S
C971 C970 1.370 . S
C971 C972 1.403 . S
C972 C971 1.403 . S
C972 C973 1.404 . S
C972 C975 1.539 . S
C973 C969 1.408 . S
C973 C972 1.404 . S
C973 H985 0.930 . S
C974 C970 1.524 . S
C974 H986 0.956 . S
C974 H987 0.961 . S
C974 H988 0.961 . S
C975 C972 1.539 . S
C975 H989 0.958 . S
C975 H990 0.961 . S
C975 H991 0.960 . S
H976 C960 0.931 . S
H977 C965 0.929 . S
H978 C966 0.960 . S
H979 C966 0.962 . S
H980 C966 0.960 . S
H981 C967 0.961 . S
H982 C967 0.961 . S
H983 C967 0.961 . S
H984 C968 0.931 . S
H985 C973 0.930 . S
H986 C974 0.956 . S
H987 C974 0.961 . S
H988 C974 0.961 . S
H989 C975 0.958 . S
H990 C975 0.961 . S
H991 C975 0.960 . S
C992 C993 1.391 . S
C992 C994 1.394 . S
C992 H1008 0.931 . S
C993 C992 1.391 . S
C993 C997 1.376 . S
C994 C992 1.394 . S
C994 C995 1.369 . S
C994 C998 1.531 . S
C995 C994 1.369 . S
C995 C996 1.410 . S
C995 C1003 1.503 . S
C996 C995 1.410 . S
C996 C997 1.392 . S
C996 C999 1.511 . S
C997 C993 1.376 . S
C997 C996 1.392 . S
C997 H1009 0.929 . S
C998 C994 1.531 . S
C998 H1010 0.960 . S
C998 H1011 0.962 . S
C998 H1012 0.960 . S
C999 C996 1.511 . S
C999 H1013 0.961 . S
C999 H1014 0.961 . S
C999 H1015 0.961 . S
C1000 C1001 1.370 . S
C1000 C1002 1.363 . S
C1000 H1016 0.931 . S
C1001 C1000 1.370 . S
C1001 C1005 1.408 . S
C1002 C1000 1.363 . S
C1002 C1003 1.370 . S
C1002 C1006 1.524 . S
C1003 C995 1.503 . S
C1003 C1002 1.370 . S
C1003 C1004 1.403 . S
C1004 C1003 1.403 . S
C1004 C1005 1.404 . S
C1004 C1007 1.539 . S
C1005 C1001 1.408 . S
C1005 C1004 1.404 . S
C1005 H1017 0.930 . S
C1006 C1002 1.524 . S
C1006 H1018 0.956 . S
C1006 H1019 0.961 . S
C1006 H1020 0.961 . S
C1007 C1004 1.539 . S
C1007 H1021 0.958 . S
C1007 H1022 0.961 . S
C1007 H1023 0.960 . S
H1008 C992 0.931 . S
H1009 C997 0.929 . S
H1010 C998 0.960 . S
H1011 C998 0.962 . S
H1012 C998 0.960 . S
H1013 C999 0.961 . S
H1014 C999 0.961 . S
H1015 C999 0.961 . S
H1016 C1000 0.931 . S
H1017 C1005 0.930 . S
H1018 C1006 0.956 . S
H1019 C1006 0.961 . S
H1020 C1006 0.961 . S
H1021 C1007 0.958 . S
H1022 C1007 0.961 . S
H1023 C1007 0.960 . S
C1024 C1025 1.391 . S
C1024 C1026 1.394 . S
C1024 H1040 0.931 . S
C1025 C1024 1.391 . S
C1025 C1029 1.376 . S
C1026 C1024 1.394 . S
C1026 C1027 1.369 . S
C1026 C1030 1.531 . S
C1027 C1026 1.369 . S
C1027 C1028 1.410 . S
C1027 C1035 1.503 . S
C1028 C1027 1.410 . S
C1028 C1029 1.392 . S
C1028 C1031 1.511 . S
C1029 C1025 1.376 . S
C1029 C1028 1.392 . S
C1029 H1041 0.929 . S
C1030 C1026 1.531 . S
C1030 H1042 0.960 . S
C1030 H1043 0.962 . S
C1030 H1044 0.960 . S
C1031 C1028 1.511 . S
C1031 H1045 0.961 . S
C1031 H1046 0.961 . S
C1031 H1047 0.961 . S
C1032 C1033 1.370 . S
C1032 C1034 1.363 . S
C1032 H1048 0.931 . S
C1033 C1032 1.370 . S
C1033 C1037 1.408 . S
C1034 C1032 1.363 . S
C1034 C1035 1.370 . S
C1034 C1038 1.524 . S
C1035 C1027 1.503 . S
C1035 C1034 1.370 . S
C1035 C1036 1.403 . S
C1036 C1035 1.403 . S
C1036 C1037 1.404 . S
C1036 C1039 1.539 . S
C1037 C1033 1.408 . S
C1037 C1036 1.404 . S
C1037 H1049 0.930 . S
C1038 C1034 1.524 . S
C1038 H1050 0.956 . S
C1038 H1051 0.961 . S
C1038 H1052 0.961 . S
C1039 C1036 1.539 . S
C1039 H1053 0.958 . S
C1039 H1054 0.961 . S
C1039 H1055 0.960 . S
H1040 C1024 0.931 . S
H1041 C1029 0.929 . S
H1042 C1030 0.960 . S
H1043 C1030 0.962 . S
H1044 C1030 0.960 . S
H1045 C1031 0.961 . S
H1046 C1031 0.961 . S
H1047 C1031 0.961 . S
H1048 C1032 0.931 . S
H1049 C1037 0.930 . S
H1050 C1038 0.956 . S
H1051 C1038 0.961 . S
H1052 C1038 0.961 . S
H1053 C1039 0.958 . S
H1054 C1039 0.961 . S
H1055 C1039 0.960 . S
C1056 C1057 1.391 . S
C1056 C1058 1.394 . S
C1056 H1072 0.931 . S
C1057 C1056 1.391 . S
C1057 C1061 1.376 . S
C1058 C1056 1.394 . S
C1058 C1059 1.369 . S
C1058 C1062 1.531 . S
C1059 C1058 1.369 . S
C1059 C1060 1.410 . S
C1059 C1067 1.503 . S
C1060 C1059 1.410 . S
C1060 C1061 1.392 . S
C1060 C1063 1.511 . S
C1061 C1057 1.376 . S
C1061 C1060 1.392 . S
C1061 H1073 0.929 . S
C1062 C1058 1.531 . S
C1062 H1074 0.960 . S
C1062 H1075 0.962 . S
C1062 H1076 0.960 . S
C1063 C1060 1.511 . S
C1063 H1077 0.961 . S
C1063 H1078 0.961 . S
C1063 H1079 0.961 . S
C1064 C1065 1.370 . S
C1064 C1066 1.363 . S
C1064 H1080 0.931 . S
C1065 C1064 1.370 . S
C1065 C1069 1.408 . S
C1066 C1064 1.363 . S
C1066 C1067 1.370 . S
C1066 C1070 1.524 . S
C1067 C1059 1.503 . S
C1067 C1066 1.370 . S
C1067 C1068 1.403 . S
C1068 C1067 1.403 . S
C1068 C1069 1.404 . S
C1068 C1071 1.539 . S
C1069 C1065 1.408 . S
C1069 C1068 1.404 . S
C1069 H1081 0.930 . S
C1070 C1066 1.524 . S
C1070 H1082 0.956 . S
C1070 H1083 0.961 . S
C1070 H1084 0.961 . S
C1071 C1068 1.539 . S
C1071 H1085 0.958 . S
C1071 H1086 0.961 . S
C1071 H1087 0.960 . S
H1072 C1056 0.931 . S
H1073 C1061 0.929 . S
H1074 C1062 0.960 . S
H1075 C1062 0.962 . S
H1076 C1062 0.960 . S
H1077 C1063 0.961 . S
H1078 C1063 0.961 . S
H1079 C1063 0.961 . S
H1080 C1064 0.931 . S
H1081 C1069 0.930 . S
H1082 C1070 0.956 . S
H1083 C1070 0.961 . S
H1084 C1070 0.961 . S
H1085 C1071 0.958 . S
H1086 C1071 0.961 . S
H1087 C1071 0.960 . S
C1088 C1089 1.391 . S
C1088 C1090 1.394 . S
C1088 H1104 0.931 . S
C1089 C1088 1.391 . S
C1089 C1093 1.376 . S
C1090 C1088 1.394 . S
C1090 C1091 1.369 . S
C1090 C1094 1.531 . S
C1091 C1090 1.369 . S
C1091 C1092 1.410 . S
C1091 C1099 1.503 . S
C1092 C1091 1.410 . S
C1092 C1093 1.392 . S
C1092 C1095 1.511 . S
C1093 C1089 1.376 . S
C1093 C1092 1.392 . S
C1093 H1105 0.929 . S
C1094 C1090 1.531 . S
C1094 H1106 0.960 . S
C1094 H1107 0.962 . S
C1094 H1108 0.960 . S
C1095 C1092 1.511 . S
C1095 H1109 0.961 . S
C1095 H1110 0.961 . S
C1095 H1111 0.961 . S
C1096 C1097 1.370 . S
C1096 C1098 1.363 . S
C1096 H1112 0.931 . S
C1097 C1096 1.370 . S
C1097 C1101 1.408 . S
C1098 C1096 1.363 . S
C1098 C1099 1.370 . S
C1098 C1102 1.524 . S
C1099 C1091 1.503 . S
C1099 C1098 1.370 . S
C1099 C1100 1.403 . S
C1100 C1099 1.403 . S
C1100 C1101 1.404 . S
C1100 C1103 1.539 . S
C1101 C1097 1.408 . S
C1101 C1100 1.404 . S
C1101 H1113 0.930 1_455 S
C1102 C1098 1.524 . S
C1102 H1114 0.956 . S
C1102 H1115 0.961 . S
C1102 H1116 0.961 . S
C1103 C1100 1.539 . S
C1103 H1117 0.958 . S
C1103 H1118 0.961 . S
C1103 H1119 0.960 . S
H1104 C1088 0.931 . S
H1105 C1093 0.929 . S
H1106 C1094 0.960 . S
H1107 C1094 0.962 . S
H1108 C1094 0.960 . S
H1109 C1095 0.961 . S
H1110 C1095 0.961 . S
H1111 C1095 0.961 . S
H1112 C1096 0.931 . S
H1113 C1101 0.930 1_655 S
H1114 C1102 0.956 . S
H1115 C1102 0.961 . S
H1116 C1102 0.961 . S
H1117 C1103 0.958 . S
H1118 C1103 0.961 . S
H1119 C1103 0.960 . S
C1120 C1121 1.391 . S
C1120 C1122 1.394 . S
C1120 H1136 0.931 . S
C1121 C1120 1.391 . S
C1121 C1125 1.376 . S
C1122 C1120 1.394 . S
C1122 C1123 1.369 . S
C1122 C1126 1.531 . S
C1123 C1122 1.369 . S
C1123 C1124 1.410 . S
C1123 C1131 1.503 . S
C1124 C1123 1.410 . S
C1124 C1125 1.392 . S
C1124 C1127 1.511 . S
C1125 C1121 1.376 . S
C1125 C1124 1.392 . S
C1125 H1137 0.929 . S
C1126 C1122 1.531 . S
C1126 H1138 0.960 . S
C1126 H1139 0.962 . S
C1126 H1140 0.960 . S
C1127 C1124 1.511 . S
C1127 H1141 0.961 . S
C1127 H1142 0.961 . S
C1127 H1143 0.961 . S
C1128 C1129 1.370 . S
C1128 C1130 1.363 . S
C1128 H1144 0.931 . S
C1129 C1128 1.370 . S
C1129 C1133 1.408 . S
C1130 C1128 1.363 . S
C1130 C1131 1.370 . S
C1130 C1134 1.524 . S
C1131 C1123 1.503 . S
C1131 C1130 1.370 . S
C1131 C1132 1.403 . S
C1132 C1131 1.403 . S
C1132 C1133 1.404 . S
C1132 C1135 1.539 . S
C1133 C1129 1.408 . S
C1133 C1132 1.404 . S
C1133 H1145 0.930 . S
C1134 C1130 1.524 . S
C1134 H1146 0.956 . S
C1134 H1147 0.961 . S
C1134 H1148 0.961 . S
C1135 C1132 1.539 . S
C1135 H1149 0.958 . S
C1135 H1150 0.961 . S
C1135 H1151 0.960 . S
H1136 C1120 0.931 . S
H1137 C1125 0.929 . S
H1138 C1126 0.960 . S
H1139 C1126 0.962 . S
H1140 C1126 0.960 . S
H1141 C1127 0.961 . S
H1142 C1127 0.961 . S
H1143 C1127 0.961 . S
H1144 C1128 0.931 . S
H1145 C1133 0.930 . S
H1146 C1134 0.956 . S
H1147 C1134 0.961 . S
H1148 C1134 0.961 . S
H1149 C1135 0.958 . S
H1150 C1135 0.961 . S
H1151 C1135 0.960 . S
C1152 C1153 1.391 . S
C1152 C1154 1.394 . S
C1152 H1168 0.931 . S
C1153 C1152 1.391 . S
C1153 C1157 1.376 . S
C1154 C1152 1.394 . S
C1154 C1155 1.369 . S
C1154 C1158 1.531 . S
C1155 C1154 1.369 . S
C1155 C1156 1.410 . S
C1155 C1163 1.503 . S
C1156 C1155 1.410 . S
C1156 C1157 1.392 . S
C1156 C1159 1.511 . S
C1157 C1153 1.376 . S
C1157 C1156 1.392 . S
C1157 H1169 0.929 . S
C1158 C1154 1.531 . S
C1158 H1170 0.960 . S
C1158 H1171 0.962 . S
C1158 H1172 0.960 . S
C1159 C1156 1.511 . S
C1159 H1173 0.961 . S
C1159 H1174 0.961 . S
C1159 H1175 0.961 . S
C1160 C1161 1.370 . S
C1160 C1162 1.363 . S
C1160 H1176 0.931 . S
C1161 C1160 1.370 . S
C1161 C1165 1.408 . S
C1162 C1160 1.363 . S
C1162 C1163 1.370 . S
C1162 C1166 1.524 . S
C1163 C1155 1.503 . S
C1163 C1162 1.370 . S
C1163 C1164 1.403 . S
C1164 C1163 1.403 . S
C1164 C1165 1.404 . S
C1164 C1167 1.539 . S
C1165 C1161 1.408 . S
C1165 C1164 1.404 . S
C1165 H1177 0.930 . S
C1166 C1162 1.524 . S
C1166 H1178 0.956 . S
C1166 H1179 0.961 . S
C1166 H1180 0.961 . S
C1167 C1164 1.539 . S
C1167 H1181 0.958 . S
C1167 H1182 0.961 . S
C1167 H1183 0.960 . S
H1168 C1152 0.931 . S
H1169 C1157 0.929 . S
H1170 C1158 0.960 . S
H1171 C1158 0.962 . S
H1172 C1158 0.960 . S
H1173 C1159 0.961 . S
H1174 C1159 0.961 . S
H1175 C1159 0.961 . S
H1176 C1160 0.931 . S
H1177 C1165 0.930 . S
H1178 C1166 0.956 . S
H1179 C1166 0.961 . S
H1180 C1166 0.961 . S
H1181 C1167 0.958 . S
H1182 C1167 0.961 . S
H1183 C1167 0.960 . S
C1184 C1185 1.391 . S
C1184 C1186 1.394 . S
C1184 H1200 0.931 . S
C1185 C1184 1.391 . S
C1185 C1189 1.376 . S
C1186 C1184 1.394 . S
C1186 C1187 1.369 . S
C1186 C1190 1.531 . S
C1187 C1186 1.369 . S
C1187 C1188 1.410 . S
C1187 C1195 1.503 . S
C1188 C1187 1.410 . S
C1188 C1189 1.392 . S
C1188 C1191 1.511 . S
C1189 C1185 1.376 . S
C1189 C1188 1.392 . S
C1189 H1201 0.929 . S
C1190 C1186 1.531 . S
C1190 H1202 0.960 . S
C1190 H1203 0.962 . S
C1190 H1204 0.960 . S
C1191 C1188 1.511 . S
C1191 H1205 0.961 . S
C1191 H1206 0.961 . S
C1191 H1207 0.961 . S
C1192 C1193 1.370 . S
C1192 C1194 1.363 . S
C1192 H1208 0.931 . S
C1193 C1192 1.370 . S
C1193 C1197 1.408 . S
C1194 C1192 1.363 . S
C1194 C1195 1.370 . S
C1194 C1198 1.524 . S
C1195 C1187 1.503 . S
C1195 C1194 1.370 . S
C1195 C1196 1.403 . S
C1196 C1195 1.403 . S
C1196 C1197 1.404 . S
C1196 C1199 1.539 . S
C1197 C1193 1.408 . S
C1197 C1196 1.404 . S
C1197 H1209 0.930 . S
C1198 C1194 1.524 . S
C1198 H1210 0.956 . S
C1198 H1211 0.961 . S
C1198 H1212 0.961 . S
C1199 C1196 1.539 . S
C1199 H1213 0.958 . S
C1199 H1214 0.961 . S
C1199 H1215 0.960 . S
H1200 C1184 0.931 . S
H1201 C1189 0.929 . S
H1202 C1190 0.960 . S
H1203 C1190 0.962 . S
H1204 C1190 0.960 . S
H1205 C1191 0.961 . S
H1206 C1191 0.961 . S
H1207 C1191 0.961 . S
H1208 C1192 0.931 . S
H1209 C1197 0.930 . S
H1210 C1198 0.956 . S
H1211 C1198 0.961 . S
H1212 C1198 0.961 . S
H1213 C1199 0.958 . S
H1214 C1199 0.961 . S
H1215 C1199 0.960 . S
C1216 C1217 1.391 . S
C1216 C1218 1.394 . S
C1216 H1232 0.931 . S
C1217 C1216 1.391 . S
C1217 C1221 1.376 . S
C1218 C1216 1.394 . S
C1218 C1219 1.369 . S
C1218 C1222 1.531 . S
C1219 C1218 1.369 . S
C1219 C1220 1.410 . S
C1219 C1227 1.503 . S
C1220 C1219 1.410 . S
C1220 C1221 1.392 . S
C1220 C1223 1.511 . S
C1221 C1217 1.376 . S
C1221 C1220 1.392 . S
C1221 H1233 0.929 . S
C1222 C1218 1.531 . S
C1222 H1234 0.960 . S
C1222 H1235 0.962 . S
C1222 H1236 0.960 . S
C1223 C1220 1.511 . S
C1223 H1237 0.961 . S
C1223 H1238 0.961 . S
C1223 H1239 0.961 . S
C1224 C1225 1.370 . S
C1224 C1226 1.363 . S
C1224 H1240 0.931 . S
C1225 C1224 1.370 . S
C1225 C1229 1.408 . S
C1226 C1224 1.363 . S
C1226 C1227 1.370 . S
C1226 C1230 1.524 . S
C1227 C1219 1.503 . S
C1227 C1226 1.370 . S
C1227 C1228 1.403 . S
C1228 C1227 1.403 . S
C1228 C1229 1.404 . S
C1228 C1231 1.539 . S
C1229 C1225 1.408 . S
C1229 C1228 1.404 . S
C1229 H1241 0.930 . S
C1230 C1226 1.524 . S
C1230 H1242 0.956 . S
C1230 H1243 0.961 . S
C1230 H1244 0.961 . S
C1231 C1228 1.539 . S
C1231 H1245 0.958 . S
C1231 H1246 0.961 . S
C1231 H1247 0.960 . S
H1232 C1216 0.931 . S
H1233 C1221 0.929 . S
H1234 C1222 0.960 . S
H1235 C1222 0.962 . S
H1236 C1222 0.960 . S
H1237 C1223 0.961 . S
H1238 C1223 0.961 . S
H1239 C1223 0.961 . S
H1240 C1224 0.931 . S
H1241 C1229 0.930 . S
H1242 C1230 0.956 . S
H1243 C1230 0.961 . S
H1244 C1230 0.961 . S
H1245 C1231 0.958 . S
H1246 C1231 0.961 . S
H1247 C1231 0.960 . S
C1248 C1249 1.391 . S
C1248 C1250 1.394 . S
C1248 H1264 0.931 . S
C1249 C1248 1.391 . S
C1249 C1253 1.376 . S
C1250 C1248 1.394 . S
C1250 C1251 1.369 . S
C1250 C1254 1.531 . S
C1251 C1250 1.369 . S
C1251 C1252 1.410 . S
C1251 C1259 1.503 . S
C1252 C1251 1.410 . S
C1252 C1253 1.392 . S
C1252 C1255 1.511 . S
C1253 C1249 1.376 . S
C1253 C1252 1.392 . S
C1253 H1265 0.929 . S
C1254 C1250 1.531 . S
C1254 H1266 0.960 . S
C1254 H1267 0.962 . S
C1254 H1268 0.960 . S
C1255 C1252 1.511 . S
C1255 H1269 0.961 . S
C1255 H1270 0.961 . S
C1255 H1271 0.961 . S
C1256 C1257 1.370 . S
C1256 C1258 1.363 . S
C1256 H1272 0.931 . S
C1257 C1256 1.370 . S
C1257 C1261 1.408 . S
C1258 C1256 1.363 . S
C1258 C1259 1.370 . S
C1258 C1262 1.524 . S
C1259 C1251 1.503 . S
C1259 C1258 1.370 . S
C1259 C1260 1.403 . S
C1260 C1259 1.403 . S
C1260 C1261 1.404 . S
C1260 C1263 1.539 . S
C1261 C1257 1.408 . S
C1261 C1260 1.404 . S
C1261 H1273 0.930 . S
C1262 C1258 1.524 . S
C1262 H1274 0.956 . S
C1262 H1275 0.961 . S
C1262 H1276 0.961 . S
C1263 C1260 1.539 . S
C1263 H1277 0.958 . S
C1263 H1278 0.961 . S
C1263 H1279 0.960 . S
H1264 C1248 0.931 . S
H1265 C1253 0.929 . S
H1266 C1254 0.960 . S
H1267 C1254 0.962 . S
H1268 C1254 0.960 . S
H1269 C1255 0.961 . S
H1270 C1255 0.961 . S
H1271 C1255 0.961 . S
H1272 C1256 0.931 . S
H1273 C1261 0.930 . S
H1274 C1262 0.956 . S
H1275 C1262 0.961 . S
H1276 C1262 0.961 . S
H1277 C1263 0.958 . S
H1278 C1263 0.961 . S
H1279 C1263 0.960 . S
C1280 C1281 1.391 . S
C1280 C1282 1.394 . S
C1280 H1296 0.931 . S
C1281 C1280 1.391 . S
C1281 C1285 1.376 . S
C1282 C1280 1.394 . S
C1282 C1283 1.369 . S
C1282 C1286 1.531 . S
C1283 C1282 1.369 . S
C1283 C1284 1.410 . S
C1283 C1291 1.503 . S
C1284 C1283 1.410 . S
C1284 C1285 1.392 . S
C1284 C1287 1.511 . S
C1285 C1281 1.376 . S
C1285 C1284 1.392 . S
C1285 H1297 0.929 . S
C1286 C1282 1.531 . S
C1286 H1298 0.960 . S
C1286 H1299 0.962 . S
C1286 H1300 0.960 . S
C1287 C1284 1.511 . S
C1287 H1301 0.961 . S
C1287 H1302 0.961 . S
C1287 H1303 0.961 . S
C1288 C1289 1.370 . S
C1288 C1290 1.363 . S
C1288 H1304 0.931 . S
C1289 C1288 1.370 . S
C1289 C1293 1.408 . S
C1290 C1288 1.363 . S
C1290 C1291 1.370 . S
C1290 C1294 1.524 . S
C1291 C1283 1.503 . S
C1291 C1290 1.370 . S
C1291 C1292 1.403 . S
C1292 C1291 1.403 . S
C1292 C1293 1.404 . S
C1292 C1295 1.539 . S
C1293 C1289 1.408 . S
C1293 C1292 1.404 . S
C1293 H1305 0.930 . S
C1294 C1290 1.524 . S
C1294 H1306 0.956 . S
C1294 H1307 0.961 . S
C1294 H1308 0.961 . S
C1295 C1292 1.539 . S
C1295 H1309 0.958 . S
C1295 H1310 0.961 . S
C1295 H1311 0.960 . S
H1296 C1280 0.931 . S
H1297 C1285 0.929 . S
H1298 C1286 0.960 . S
H1299 C1286 0.962 . S
H1300 C1286 0.960 . S
H1301 C1287 0.961 . S
H1302 C1287 0.961 . S
H1303 C1287 0.961 . S
H1304 C1288 0.931 . S
H1305 C1293 0.930 . S
H1306 C1294 0.956 . S
H1307 C1294 0.961 . S
H1308 C1294 0.961 . S
H1309 C1295 0.958 . S
H1310 C1295 0.961 . S
H1311 C1295 0.960 . S
C1312 C1313 1.391 . S
C1312 C1314 1.394 . S
C1312 H1328 0.931 . S
C1313 C1312 1.391 . S
C1313 C1317 1.376 . S
C1314 C1312 1.394 . S
C1314 C1315 1.369 . S
C1314 C1318 1.531 . S
C1315 C1314 1.369 . S
C1315 C1316 1.410 . S
C1315 C1323 1.503 . S
C1316 C1315 1.410 . S
C1316 C1317 1.392 . S
C1316 C1319 1.511 . S
C1317 C1313 1.376 . S
C1317 C1316 1.392 . S
C1317 H1329 0.929 . S
C1318 C1314 1.531 . S
C1318 H1330 0.960 . S
C1318 H1331 0.962 . S
C1318 H1332 0.960 . S
C1319 C1316 1.511 . S
C1319 H1333 0.961 . S
C1319 H1334 0.961 . S
C1319 H1335 0.961 . S
C1320 C1321 1.370 . S
C1320 C1322 1.363 . S
C1320 H1336 0.931 . S
C1321 C1320 1.370 . S
C1321 C1325 1.408 . S
C1322 C1320 1.363 . S
C1322 C1323 1.370 . S
C1322 C1326 1.524 . S
C1323 C1315 1.503 . S
C1323 C1322 1.370 . S
C1323 C1324 1.403 . S
C1324 C1323 1.403 . S
C1324 C1325 1.404 . S
C1324 C1327 1.539 . S
C1325 C1321 1.408 . S
C1325 C1324 1.404 . S
C1325 H1337 0.930 . S
C1326 C1322 1.524 . S
C1326 H1338 0.956 . S
C1326 H1339 0.961 . S
C1326 H1340 0.961 . S
C1327 C1324 1.539 . S
C1327 H1341 0.958 . S
C1327 H1342 0.961 . S
C1327 H1343 0.960 . S
H1328 C1312 0.931 . S
H1329 C1317 0.929 . S
H1330 C1318 0.960 . S
H1331 C1318 0.962 . S
H1332 C1318 0.960 . S
H1333 C1319 0.961 . S
H1334 C1319 0.961 . S
H1335 C1319 0.961 . S
H1336 C1320 0.931 . S
H1337 C1325 0.930 . S
H1338 C1326 0.956 . S
H1339 C1326 0.961 . S
H1340 C1326 0.961 . S
H1341 C1327 0.958 . S
H1342 C1327 0.961 . S
H1343 C1327 0.960 . S
C1344 C1345 1.391 . S
C1344 C1346 1.394 . S
C1344 H1360 0.931 . S
C1345 C1344 1.391 . S
C1345 C1349 1.376 . S
C1346 C1344 1.394 . S
C1346 C1347 1.369 . S
C1346 C1350 1.531 . S
C1347 C1346 1.369 . S
C1347 C1348 1.410 . S
C1347 C1355 1.503 . S
C1348 C1347 1.410 . S
C1348 C1349 1.392 . S
C1348 C1351 1.511 . S
C1349 C1345 1.376 . S
C1349 C1348 1.392 . S
C1349 H1361 0.929 . S
C1350 C1346 1.531 . S
C1350 H1362 0.960 . S
C1350 H1363 0.962 . S
C1350 H1364 0.960 . S
C1351 C1348 1.511 . S
C1351 H1365 0.961 . S
C1351 H1366 0.961 . S
C1351 H1367 0.961 . S
C1352 C1353 1.370 . S
C1352 C1354 1.363 . S
C1352 H1368 0.931 . S
C1353 C1352 1.370 . S
C1353 C1357 1.408 . S
C1354 C1352 1.363 . S
C1354 C1355 1.370 . S
C1354 C1358 1.524 . S
C1355 C1347 1.503 . S
C1355 C1354 1.370 . S
C1355 C1356 1.403 . S
C1356 C1355 1.403 . S
C1356 C1357 1.404 . S
C1356 C1359 1.539 . S
C1357 C1353 1.408 . S
C1357 C1356 1.404 . S
C1357 H1369 0.930 . S
C1358 C1354 1.524 . S
C1358 H1370 0.956 . S
C1358 H1371 0.961 . S
C1358 H1372 0.961 . S
C1359 C1356 1.539 . S
C1359 H1373 0.958 . S
C1359 H1374 0.961 . S
C1359 H1375 0.960 . S
H1360 C1344 0.931 . S
H1361 C1349 0.929 . S
H1362 C1350 0.960 . S
H1363 C1350 0.962 . S
H1364 C1350 0.960 . S
H1365 C1351 0.961 . S
H1366 C1351 0.961 . S
H1367 C1351 0.961 . S
H1368 C1352 0.931 . S
H1369 C1357 0.930 . S
H1370 C1358 0.956 . S
H1371 C1358 0.961 . S
H1372 C1358 0.961 . S
H1373 C1359 0.958 . S
H1374 C1359 0.961 . S
H1375 C1359 0.960 . S
C1376 C1377 1.391 . S
C1376 C1378 1.394 . S
C1376 H1392 0.931 . S
C1377 C1376 1.391 . S
C1377 C1381 1.376 . S
C1378 C1376 1.394 . S
C1378 C1379 1.369 . S
C1378 C1382 1.531 . S
C1379 C1378 1.369 . S
C1379 C1380 1.410 . S
C1379 C1387 1.503 . S
C1380 C1379 1.410 . S
C1380 C1381 1.392 . S
C1380 C1383 1.511 . S
C1381 C1377 1.376 . S
C1381 C1380 1.392 . S
C1381 H1393 0.929 . S
C1382 C1378 1.531 . S
C1382 H1394 0.960 . S
C1382 H1395 0.962 . S
C1382 H1396 0.960 . S
C1383 C1380 1.511 . S
C1383 H1397 0.961 . S
C1383 H1398 0.961 . S
C1383 H1399 0.961 . S
C1384 C1385 1.370 . S
C1384 C1386 1.363 . S
C1384 H1400 0.931 . S
C1385 C1384 1.370 . S
C1385 C1389 1.408 . S
C1386 C1384 1.363 . S
C1386 C1387 1.370 . S
C1386 C1390 1.524 . S
C1387 C1379 1.503 . S
C1387 C1386 1.370 . S
C1387 C1388 1.403 . S
C1388 C1387 1.403 . S
C1388 C1389 1.404 . S
C1388 C1391 1.539 . S
C1389 C1385 1.408 . S
C1389 C1388 1.404 . S
C1389 H1401 0.930 . S
C1390 C1386 1.524 . S
C1390 H1402 0.956 . S
C1390 H1403 0.961 . S
C1390 H1404 0.961 . S
C1391 C1388 1.539 . S
C1391 H1405 0.958 . S
C1391 H1406 0.961 . S
C1391 H1407 0.960 . S
H1392 C1376 0.931 . S
H1393 C1381 0.929 . S
H1394 C1382 0.960 . S
H1395 C1382 0.962 . S
H1396 C1382 0.960 . S
H1397 C1383 0.961 . S
H1398 C1383 0.961 . S
H1399 C1383 0.961 . S
H1400 C1384 0.931 . S
H1401 C1389 0.930 . S
H1402 C1390 0.956 . S
H1403 C1390 0.961 . S
H1404 C1390 0.961 . S
H1405 C1391 0.958 . S
H1406 C1391 0.961 . S
H1407 C1391 0.960 . S
C1408 C1409 1.391 . S
C1408 C1410 1.394 . S
C1408 H1424 0.931 . S
C1409 C1408 1.391 . S
C1409 C1413 1.376 . S
C1410 C1408 1.394 . S
C1410 C1411 1.369 . S
C1410 C1414 1.531 . S
C1411 C1410 1.369 . S
C1411 C1412 1.410 . S
C1411 C1419 1.503 . S
C1412 C1411 1.410 . S
C1412 C1413 1.392 . S
C1412 C1415 1.511 . S
C1413 C1409 1.376 . S
C1413 C1412 1.392 . S
C1413 H1425 0.929 . S
C1414 C1410 1.531 . S
C1414 H1426 0.960 . S
C1414 H1427 0.962 . S
C1414 H1428 0.960 . S
C1415 C1412 1.511 . S
C1415 H1429 0.961 . S
C1415 H1430 0.961 . S
C1415 H1431 0.961 . S
C1416 C1417 1.370 . S
C1416 C1418 1.363 . S
C1416 H1432 0.931 . S
C1417 C1416 1.370 . S
C1417 C1421 1.408 . S
C1418 C1416 1.363 . S
C1418 C1419 1.370 . S
C1418 C1422 1.524 . S
C1419 C1411 1.503 . S
C1419 C1418 1.370 . S
C1419 C1420 1.403 . S
C1420 C1419 1.403 . S
C1420 C1421 1.404 . S
C1420 C1423 1.539 . S
C1421 C1417 1.408 . S
C1421 C1420 1.404 . S
C1421 H1433 0.930 . S
C1422 C1418 1.524 . S
C1422 H1434 0.956 . S
C1422 H1435 0.961 . S
C1422 H1436 0.961 . S
C1423 C1420 1.539 . S
C1423 H1437 0.958 . S
C1423 H1438 0.961 . S
C1423 H1439 0.960 . S
H1424 C1408 0.931 . S
H1425 C1413 0.929 . S
H1426 C1414 0.960 . S
H1427 C1414 0.962 . S
H1428 C1414 0.960 . S
H1429 C1415 0.961 . S
H1430 C1415 0.961 . S
H1431 C1415 0.961 . S
H1432 C1416 0.931 . S
H1433 C1421 0.930 . S
H1434 C1422 0.956 . S
H1435 C1422 0.961 . S
H1436 C1422 0.961 . S
H1437 C1423 0.958 . S
H1438 C1423 0.961 . S
H1439 C1423 0.960 . S
C1440 C1441 1.391 . S
C1440 C1442 1.394 . S
C1440 H1456 0.931 . S
C1441 C1440 1.391 . S
C1441 C1445 1.376 . S
C1442 C1440 1.394 . S
C1442 C1443 1.369 . S
C1442 C1446 1.531 . S
C1443 C1442 1.369 . S
C1443 C1444 1.410 . S
C1443 C1451 1.503 . S
C1444 C1443 1.410 . S
C1444 C1445 1.392 . S
C1444 C1447 1.511 . S
C1445 C1441 1.376 . S
C1445 C1444 1.392 . S
C1445 H1457 0.929 . S
C1446 C1442 1.531 . S
C1446 H1458 0.960 . S
C1446 H1459 0.962 . S
C1446 H1460 0.960 . S
C1447 C1444 1.511 . S
C1447 H1461 0.961 . S
C1447 H1462 0.961 . S
C1447 H1463 0.961 . S
C1448 C1449 1.370 . S
C1448 C1450 1.363 . S
C1448 H1464 0.931 . S
C1449 C1448 1.370 . S
C1449 C1453 1.408 . S
C1450 C1448 1.363 . S
C1450 C1451 1.370 . S
C1450 C1454 1.524 . S
C1451 C1443 1.503 . S
C1451 C1450 1.370 . S
C1451 C1452 1.403 . S
C1452 C1451 1.403 . S
C1452 C1453 1.404 . S
C1452 C1455 1.539 . S
C1453 C1449 1.408 . S
C1453 C1452 1.404 . S
C1453 H1465 0.930 . S
C1454 C1450 1.524 . S
C1454 H1466 0.956 . S
C1454 H1467 0.961 . S
C1454 H1468 0.961 . S
C1455 C1452 1.539 . S
C1455 H1469 0.958 . S
C1455 H1470 0.961 . S
C1455 H1471 0.960 . S
H1456 C1440 0.931 . S
H1457 C1445 0.929 . S
H1458 C1446 0.960 . S
H1459 C1446 0.962 . S
H1460 C1446 0.960 . S
H1461 C1447 0.961 . S
H1462 C1447 0.961 . S
H1463 C1447 0.961 . S
H1464 C1448 0.931 . S
H1465 C1453 0.930 . S
H1466 C1454 0.956 . S
H1467 C1454 0.961 . S
H1468 C1454 0.961 . S
H1469 C1455 0.958 . S
H1470 C1455 0.961 . S
H1471 C1455 0.960 . S
C1472 C1473 1.391 1_545 S
C1472 C1474 1.394 . S
C1472 H1488 0.931 . S
C1473 C1472 1.391 1_565 S
C1473 C1477 1.376 . S
C1474 C1472 1.394 . S
C1474 C1475 1.366 . S
C1474 C1478 1.524 1_455 S
C1475 C1474 1.366 . S
C1475 C1476 1.413 1_545 S
C1475 C1483 1.503 1_455 S
C1476 C1475 1.413 1_565 S
C1476 C1477 1.392 . S
C1476 C1479 1.511 . S
C1477 C1473 1.376 . S
C1477 C1476 1.392 . S
C1477 H1489 0.929 . S
C1478 C1474 1.524 1_655 S
C1478 H1490 0.957 1_655 S
C1478 H1491 0.982 . S
C1478 H1492 0.952 1_655 S
C1479 C1476 1.511 . S
C1479 H1493 0.961 . S
C1479 H1494 0.961 . S
C1479 H1495 0.961 . S
C1480 C1481 1.370 . S
C1480 C1482 1.363 1_545 S
C1480 H1496 0.931 1_545 S
C1481 C1480 1.370 . S
C1481 C1485 1.408 1_655 S
C1482 C1480 1.363 1_565 S
C1482 C1483 1.370 1_565 S
C1482 C1486 1.524 . S
C1483 C1475 1.503 1_655 S
C1483 C1482 1.370 1_545 S
C1483 C1484 1.403 1_655 S
C1484 C1483 1.403 1_455 S
C1484 C1485 1.404 . S
C1484 C1487 1.539 . S
C1485 C1481 1.408 1_455 S
C1485 C1484 1.404 . S
C1485 H1497 0.930 . S
C1486 C1482 1.524 . S
C1486 H1498 0.940 1_565 S
C1486 H1499 0.961 . S
C1486 H1500 0.961 . S
C1487 C1484 1.539 . S
C1487 H1501 0.958 . S
C1487 H1502 0.961 . S
C1487 H1503 0.960 . S
H1488 C1472 0.931 . S
H1489 C1477 0.929 . S
H1490 C1478 0.957 1_455 S
H1491 C1478 0.982 . S
H1492 C1478 0.952 1_455 S
H1493 C1479 0.961 . S
H1494 C1479 0.961 . S
H1495 C1479 0.961 . S
H1496 C1480 0.931 1_565 S
H1497 C1485 0.930 . S
H1498 C1486 0.940 1_545 S
H1499 C1486 0.961 . S
H1500 C1486 0.961 . S
H1501 C1487 0.958 . S
H1502 C1487 0.961 . S
H1503 C1487 0.960 . S
C1504 C1505 1.391 . S
C1504 C1506 1.394 . S
C1504 H1520 0.931 . S
C1505 C1504 1.391 . S
C1505 C1509 1.376 . S
C1506 C1504 1.394 . S
C1506 C1507 1.369 . S
C1506 C1510 1.531 . S
C1507 C1506 1.369 . S
C1507 C1508 1.410 . S
C1507 C1515 1.503 . S
C1508 C1507 1.410 . S
C1508 C1509 1.392 . S
C1508 C1511 1.511 . S
C1509 C1505 1.376 . S
C1509 C1508 1.392 . S
C1509 H1521 0.929 . S
C1510 C1506 1.531 . S
C1510 H1522 0.960 . S
C1510 H1523 0.962 . S
C1510 H1524 0.960 . S
C1511 C1508 1.511 . S
C1511 H1525 0.961 . S
C1511 H1526 0.961 . S
C1511 H1527 0.961 . S
C1512 C1513 1.370 . S
C1512 C1514 1.363 . S
C1512 H1528 0.931 . S
C1513 C1512 1.370 . S
C1513 C1517 1.408 . S
C1514 C1512 1.363 . S
C1514 C1515 1.370 . S
C1514 C1518 1.524 . S
C1515 C1507 1.503 . S
C1515 C1514 1.370 . S
C1515 C1516 1.403 . S
C1516 C1515 1.403 . S
C1516 C1517 1.404 . S
C1516 C1519 1.539 . S
C1517 C1513 1.408 . S
C1517 C1516 1.404 . S
C1517 H1529 0.930 . S
C1518 C1514 1.524 . S
C1518 H1530 0.956 . S
C1518 H1531 0.961 . S
C1518 H1532 0.961 . S
C1519 C1516 1.539 . S
C1519 H1533 0.958 . S
C1519 H1534 0.961 . S
C1519 H1535 0.960 . S
H1520 C1504 0.931 . S
H1521 C1509 0.929 . S
H1522 C1510 0.960 . S
H1523 C1510 0.962 . S
H1524 C1510 0.960 . S
H1525 C1511 0.961 . S
H1526 C1511 0.961 . S
H1527 C1511 0.961 . S
H1528 C1512 0.931 . S
H1529 C1517 0.930 . S
H1530 C1518 0.956 . S
H1531 C1518 0.961 . S
H1532 C1518 0.961 . S
H1533 C1519 0.958 . S
H1534 C1519 0.961 . S
H1535 C1519 0.960 . S
C1536 C1537 1.391 . S
C1536 C1538 1.394 . S
C1536 H1552 0.931 . S
C1537 C1536 1.391 . S
C1537 C1541 1.376 1_545 S
C1538 C1536 1.394 . S
C1538 C1539 1.369 . S
C1538 C1542 1.531 1_554 S
C1539 C1538 1.369 . S
C1539 C1540 1.410 1_545 S
C1539 C1547 1.503 1_554 S
C1540 C1539 1.410 1_565 S
C1540 C1541 1.392 . S
C1540 C1543 1.511 . S
C1541 C1537 1.376 1_565 S
C1541 C1540 1.392 . S
C1541 H1553 0.929 . S
C1542 C1538 1.531 1_556 S
C1542 H1554 0.960 . S
C1542 H1555 0.962 . S
C1542 H1556 0.947 1_556 S
C1543 C1540 1.511 . S
C1543 H1557 0.961 . S
C1543 H1558 0.961 . S
C1543 H1559 0.961 . S
C1544 C1545 1.370 . S
C1544 C1546 1.363 . S
C1544 H1560 0.931 . S
C1545 C1544 1.370 . S
C1545 C1549 1.408 1_565 S
C1546 C1544 1.363 . S
C1546 C1547 1.370 1_565 S
C1546 C1550 1.524 . S
C1547 C1539 1.503 1_556 S
C1547 C1546 1.370 1_545 S
C1547 C1548 1.403 . S
C1548 C1547 1.403 . S
C1548 C1549 1.404 . S
C1548 C1551 1.539 . S
C1549 C1545 1.408 1_545 S
C1549 C1548 1.404 . S
C1549 H1561 0.930 . S
C1550 C1546 1.524 . S
C1550 H1562 0.956 . S
C1550 H1563 0.933 1_556 S
C1550 H1564 0.961 . S
C1551 C1548 1.539 . S
C1551 H1565 0.958 . S
C1551 H1566 0.961 . S
C1551 H1567 0.960 1_556 S
H1552 C1536 0.931 . S
H1553 C1541 0.929 . S
H1554 C1542 0.960 . S
H1555 C1542 0.962 . S
H1556 C1542 0.947 1_554 S
H1557 C1543 0.961 . S
H1558 C1543 0.961 . S
H1559 C1543 0.961 . S
H1560 C1544 0.931 . S
H1561 C1549 0.930 . S
H1562 C1550 0.956 . S
H1563 C1550 0.933 1_554 S
H1564 C1550 0.961 . S
H1565 C1551 0.958 . S
H1566 C1551 0.961 . S
H1567 C1551 0.960 1_554 S
C1568 C1569 1.391 . S
C1568 C1570 1.394 . S
C1568 H1584 0.931 . S
C1569 C1568 1.391 . S
C1569 C1573 1.376 . S
C1570 C1568 1.394 . S
C1570 C1571 1.369 . S
C1570 C1574 1.531 . S
C1571 C1570 1.369 . S
C1571 C1572 1.410 . S
C1571 C1579 1.503 . S
C1572 C1571 1.410 . S
C1572 C1573 1.392 . S
C1572 C1575 1.511 . S
C1573 C1569 1.376 . S
C1573 C1572 1.392 . S
C1573 H1585 0.929 . S
C1574 C1570 1.531 . S
C1574 H1586 0.960 . S
C1574 H1587 0.962 . S
C1574 H1588 0.960 . S
C1575 C1572 1.511 . S
C1575 H1589 0.961 . S
C1575 H1590 0.961 . S
C1575 H1591 0.961 . S
C1576 C1577 1.370 . S
C1576 C1578 1.363 . S
C1576 H1592 0.931 . S
C1577 C1576 1.370 . S
C1577 C1581 1.408 . S
C1578 C1576 1.363 . S
C1578 C1579 1.370 . S
C1578 C1582 1.524 . S
C1579 C1571 1.503 . S
C1579 C1578 1.370 . S
C1579 C1580 1.403 . S
C1580 C1579 1.403 . S
C1580 C1581 1.404 . S
C1580 C1583 1.539 . S
C1581 C1577 1.408 . S
C1581 C1580 1.404 . S
C1581 H1593 0.930 . S
C1582 C1578 1.524 . S
C1582 H1594 0.956 . S
C1582 H1595 0.961 . S
C1582 H1596 0.961 . S
C1583 C1580 1.539 . S
C1583 H1597 0.958 . S
C1583 H1598 0.961 . S
C1583 H1599 0.960 . S
H1584 C1568 0.931 . S
H1585 C1573 0.929 . S
H1586 C1574 0.960 . S
H1587 C1574 0.962 . S
H1588 C1574 0.960 . S
H1589 C1575 0.961 . S
H1590 C1575 0.961 . S
H1591 C1575 0.961 . S
H1592 C1576 0.931 . S
H1593 C1581 0.930 . S
H1594 C1582 0.956 . S
H1595 C1582 0.961 . S
H1596 C1582 0.961 . S
H1597 C1583 0.958 . S
H1598 C1583 0.961 . S
H1599 C1583 0.960 . S
C1600 C1601 1.391 1_545 S
C1600 C1602 1.394 . S
C1600 H1616 0.931 . S
C1601 C1600 1.391 1_565 S
C1601 C1605 1.376 . S
C1602 C1600 1.394 . S
C1602 C1603 1.369 . S
C1602 C1606 1.531 . S
C1603 C1602 1.369 . S
C1603 C1604 1.410 1_545 S
C1603 C1611 1.503 . S
C1604 C1603 1.410 1_565 S
C1604 C1605 1.392 . S
C1604 C1607 1.511 . S
C1605 C1601 1.376 . S
C1605 C1604 1.392 . S
C1605 H1617 0.929 . S
C1606 C1602 1.531 . S
C1606 H1618 0.960 . S
C1606 H1619 0.962 . S
C1606 H1620 0.960 . S
C1607 C1604 1.511 . S
C1607 H1621 0.961 . S
C1607 H1622 0.961 . S
C1607 H1623 0.953 1_565 S
C1608 C1609 1.370 1_565 S
C1608 C1610 1.363 . S
C1608 H1624 0.931 . S
C1609 C1608 1.370 1_545 S
C1609 C1613 1.408 . S
C1610 C1608 1.363 . S
C1610 C1611 1.370 1_565 S
C1610 C1614 1.524 . S
C1611 C1603 1.503 . S
C1611 C1610 1.370 1_545 S
C1611 C1612 1.403 . S
C1612 C1611 1.403 . S
C1612 C1613 1.404 . S
C1612 C1615 1.539 . S
C1613 C1609 1.408 . S
C1613 C1612 1.404 . S
C1613 H1625 0.930 . S
C1614 C1610 1.524 . S
C1614 H1626 0.956 . S
C1614 H1627 0.961 . S
C1614 H1628 0.961 . S
C1615 C1612 1.539 . S
C1615 H1629 0.958 . S
C1615 H1630 0.961 . S
C1615 H1631 0.960 . S
H1616 C1600 0.931 . S
H1617 C1605 0.929 . S
H1618 C1606 0.960 . S
H1619 C1606 0.962 . S
H1620 C1606 0.960 . S
H1621 C1607 0.961 . S
H1622 C1607 0.961 . S
H1623 C1607 0.953 1_545 S
H1624 C1608 0.931 . S
H1625 C1613 0.930 . S
H1626 C1614 0.956 . S
H1627 C1614 0.961 . S
H1628 C1614 0.961 . S
H1629 C1615 0.958 . S
H1630 C1615 0.961 . S
H1631 C1615 0.960 . S
C1632 C1633 1.391 . S
C1632 C1634 1.394 . S
C1632 H1648 0.931 . S
C1633 C1632 1.391 . S
C1633 C1637 1.376 . S
C1634 C1632 1.394 . S
C1634 C1635 1.369 . S
C1634 C1638 1.531 . S
C1635 C1634 1.369 . S
C1635 C1636 1.410 . S
C1635 C1643 1.503 . S
C1636 C1635 1.410 . S
C1636 C1637 1.392 . S
C1636 C1639 1.511 . S
C1637 C1633 1.376 . S
C1637 C1636 1.392 . S
C1637 H1649 0.929 . S
C1638 C1634 1.531 . S
C1638 H1650 0.960 . S
C1638 H1651 0.962 . S
C1638 H1652 0.960 . S
C1639 C1636 1.511 . S
C1639 H1653 0.961 . S
C1639 H1654 0.961 . S
C1639 H1655 0.961 . S
C1640 C1641 1.370 . S
C1640 C1642 1.363 . S
C1640 H1656 0.931 . S
C1641 C1640 1.370 . S
C1641 C1645 1.408 . S
C1642 C1640 1.363 . S
C1642 C1643 1.370 . S
C1642 C1646 1.524 . S
C1643 C1635 1.503 . S
C1643 C1642 1.370 . S
C1643 C1644 1.403 . S
C1644 C1643 1.403 . S
C1644 C1645 1.404 . S
C1644 C1647 1.539 . S
C1645 C1641 1.408 . S
C1645 C1644 1.404 . S
C1645 H1657 0.930 . S
C1646 C1642 1.524 . S
C1646 H1658 0.956 . S
C1646 H1659 0.961 . S
C1646 H1660 0.961 . S
C1647 C1644 1.539 . S
C1647 H1661 0.958 . S
C1647 H1662 0.961 . S
C1647 H1663 0.960 . S
H1648 C1632 0.931 . S
H1649 C1637 0.929 . S
H1650 C1638 0.960 . S
H1651 C1638 0.962 . S
H1652 C1638 0.960 . S
H1653 C1639 0.961 . S
H1654 C1639 0.961 . S
H1655 C1639 0.961 . S
H1656 C1640 0.931 . S
H1657 C1645 0.930 . S
H1658 C1646 0.956 . S
H1659 C1646 0.961 . S
H1660 C1646 0.961 . S
H1661 C1647 0.958 . S
H1662 C1647 0.961 . S
H1663 C1647 0.960 . S
C1664 C1665 1.391 . S
C1664 C1666 1.394 . S
C1664 H1680 0.931 . S
C1665 C1664 1.391 . S
C1665 C1669 1.376 . S
C1666 C1664 1.394 . S
C1666 C1667 1.369 . S
C1666 C1670 1.531 1_556 S
C1667 C1666 1.369 . S
C1667 C1668 1.410 1_445 S
C1667 C1675 1.503 1_456 S
C1668 C1667 1.410 1_665 S
C1668 C1669 1.392 1_665 S
C1668 C1671 1.511 . S
C1669 C1665 1.376 . S
C1669 C1668 1.392 1_445 S
C1669 H1681 0.929 1_445 S
C1670 C1666 1.531 1_554 S
C1670 H1682 0.960 . S
C1670 H1683 0.962 . S
C1670 H1684 0.960 . S
C1671 C1668 1.511 . S
C1671 H1685 0.961 . S
C1671 H1686 0.961 . S
C1671 H1687 0.941 1_565 S
C1672 C1673 1.370 . S
C1672 C1674 1.363 . S
C1672 H1688 0.931 . S
C1673 C1672 1.370 . S
C1673 C1677 1.408 1_565 S
C1674 C1672 1.363 . S
C1674 C1675 1.370 1_565 S
C1674 C1678 1.524 1_655 S
C1675 C1667 1.503 1_654 S
C1675 C1674 1.370 1_545 S
C1675 C1676 1.403 . S
C1676 C1675 1.403 . S
C1676 C1677 1.404 . S
C1676 C1679 1.539 . S
C1677 C1673 1.408 1_545 S
C1677 C1676 1.404 . S
C1677 H1689 0.930 . S
C1678 C1674 1.524 1_455 S
C1678 H1690 0.956 . S
C1678 H1691 0.961 1_554 S
C1678 H1692 0.961 . S
C1679 C1676 1.539 . S
C1679 H1693 0.958 . S
C1679 H1694 0.961 . S
C1679 H1695 0.960 1_554 S
H1680 C1664 0.931 . S
H1681 C1669 0.929 1_665 S
H1682 C1670 0.960 . S
H1683 C1670 0.962 . S
H1684 C1670 0.960 . S
H1685 C1671 0.961 . S
H1686 C1671 0.961 . S
H1687 C1671 0.941 1_545 S
H1688 C1672 0.931 . S
H1689 C1677 0.930 . S
H1690 C1678 0.956 . S
H1691 C1678 0.961 1_556 S
H1692 C1678 0.961 . S
H1693 C1679 0.958 . S
H1694 C1679 0.961 . S
H1695 C1679 0.960 1_556 S
C1696 C1697 1.391 . S
C1696 C1698 1.394 . S
C1696 H1712 0.931 . S
C1697 C1696 1.391 . S
C1697 C1701 1.376 . S
C1698 C1696 1.394 . S
C1698 C1699 1.369 . S
C1698 C1702 1.531 . S
C1699 C1698 1.369 . S
C1699 C1700 1.410 . S
C1699 C1707 1.503 . S
C1700 C1699 1.410 . S
C1700 C1701 1.392 . S
C1700 C1703 1.511 . S
C1701 C1697 1.376 . S
C1701 C1700 1.392 . S
C1701 H1713 0.929 . S
C1702 C1698 1.531 . S
C1702 H1714 0.960 . S
C1702 H1715 0.962 . S
C1702 H1716 0.960 . S
C1703 C1700 1.511 . S
C1703 H1717 0.961 . S
C1703 H1718 0.961 . S
C1703 H1719 0.961 . S
C1704 C1705 1.370 . S
C1704 C1706 1.363 . S
C1704 H1720 0.931 . S
C1705 C1704 1.370 . S
C1705 C1709 1.408 . S
C1706 C1704 1.363 . S
C1706 C1707 1.370 . S
C1706 C1710 1.524 . S
C1707 C1699 1.503 . S
C1707 C1706 1.370 . S
C1707 C1708 1.403 . S
C1708 C1707 1.403 . S
C1708 C1709 1.404 . S
C1708 C1711 1.539 . S
C1709 C1705 1.408 . S
C1709 C1708 1.404 . S
C1709 H1721 0.930 . S
C1710 C1706 1.524 . S
C1710 H1722 0.956 . S
C1710 H1723 0.961 . S
C1710 H1724 0.961 . S
C1711 C1708 1.539 . S
C1711 H1725 0.958 . S
C1711 H1726 0.961 . S
C1711 H1727 0.960 . S
H1712 C1696 0.931 . S
H1713 C1701 0.929 . S
H1714 C1702 0.960 . S
H1715 C1702 0.962 . S
H1716 C1702 0.960 . S
H1717 C1703 0.961 . S
H1718 C1703 0.961 . S
H1719 C1703 0.961 . S
H1720 C1704 0.931 . S
H1721 C1709 0.930 . S
H1722 C1710 0.956 . S
H1723 C1710 0.961 . S
H1724 C1710 0.961 . S
H1725 C1711 0.958 . S
H1726 C1711 0.961 . S
H1727 C1711 0.960 . S
C1728 C1729 1.391 . S
C1728 C1730 1.394 . S
C1728 H1744 0.931 . S
C1729 C1728 1.391 . S
C1729 C1733 1.376 . S
C1730 C1728 1.394 . S
C1730 C1731 1.369 . S
C1730 C1734 1.531 . S
C1731 C1730 1.369 . S
C1731 C1732 1.410 . S
C1731 C1739 1.503 . S
C1732 C1731 1.410 . S
C1732 C1733 1.392 . S
C1732 C1735 1.511 . S
C1733 C1729 1.376 . S
C1733 C1732 1.392 . S
C1733 H1745 0.929 . S
C1734 C1730 1.531 . S
C1734 H1746 0.960 . S
C1734 H1747 0.962 . S
C1734 H1748 0.960 . S
C1735 C1732 1.511 . S
C1735 H1749 0.961 . S
C1735 H1750 0.961 . S
C1735 H1751 0.961 . S
C1736 C1737 1.370 . S
C1736 C1738 1.363 . S
C1736 H1752 0.931 . S
C1737 C1736 1.370 . S
C1737 C1741 1.408 . S
C1738 C1736 1.363 . S
C1738 C1739 1.370 . S
C1738 C1742 1.524 . S
C1739 C1731 1.503 . S
C1739 C1738 1.370 . S
C1739 C1740 1.403 . S
C1740 C1739 1.403 . S
C1740 C1741 1.404 . S
C1740 C1743 1.539 . S
C1741 C1737 1.408 . S
C1741 C1740 1.404 . S
C1741 H1753 0.930 . S
C1742 C1738 1.524 . S
C1742 H1754 0.956 . S
C1742 H1755 0.961 . S
C1742 H1756 0.961 . S
C1743 C1740 1.539 . S
C1743 H1757 0.958 . S
C1743 H1758 0.961 . S
C1743 H1759 0.960 . S
H1744 C1728 0.931 . S
H1745 C1733 0.929 . S
H1746 C1734 0.960 . S
H1747 C1734 0.962 . S
H1748 C1734 0.960 . S
H1749 C1735 0.961 . S
H1750 C1735 0.961 . S
H1751 C1735 0.961 . S
H1752 C1736 0.931 . S
H1753 C1741 0.930 . S
H1754 C1742 0.956 . S
H1755 C1742 0.961 . S
H1756 C1742 0.961 . S
H1757 C1743 0.958 . S
H1758 C1743 0.961 . S
H1759 C1743 0.960 . S
C1760 C1761 1.391 . S
C1760 C1762 1.394 . S
C1760 H1776 0.931 . S
C1761 C1760 1.391 . S
C1761 C1765 1.376 . S
C1762 C1760 1.394 . S
C1762 C1763 1.369 . S
C1762 C1766 1.531 . S
C1763 C1762 1.369 . S
C1763 C1764 1.410 . S
C1763 C1771 1.503 . S
C1764 C1763 1.410 . S
C1764 C1765 1.392 . S
C1764 C1767 1.511 . S
C1765 C1761 1.376 . S
C1765 C1764 1.392 . S
C1765 H1777 0.929 . S
C1766 C1762 1.531 . S
C1766 H1778 0.960 . S
C1766 H1779 0.962 . S
C1766 H1780 0.960 . S
C1767 C1764 1.511 . S
C1767 H1781 0.961 . S
C1767 H1782 0.961 . S
C1767 H1783 0.961 . S
C1768 C1769 1.370 . S
C1768 C1770 1.363 . S
C1768 H1784 0.931 . S
C1769 C1768 1.370 . S
C1769 C1773 1.408 . S
C1770 C1768 1.363 . S
C1770 C1771 1.370 . S
C1770 C1774 1.524 . S
C1771 C1763 1.503 . S
C1771 C1770 1.370 . S
C1771 C1772 1.403 . S
C1772 C1771 1.403 . S
C1772 C1773 1.404 . S
C1772 C1775 1.539 . S
C1773 C1769 1.408 . S
C1773 C1772 1.404 . S
C1773 H1785 0.930 . S
C1774 C1770 1.524 . S
C1774 H1786 0.956 . S
C1774 H1787 0.961 . S
C1774 H1788 0.961 . S
C1775 C1772 1.539 . S
C1775 H1789 0.958 . S
C1775 H1790 0.961 . S
C1775 H1791 0.960 . S
H1776 C1760 0.931 . S
H1777 C1765 0.929 . S
H1778 C1766 0.960 . S
H1779 C1766 0.962 . S
H1780 C1766 0.960 . S
H1781 C1767 0.961 . S
H1782 C1767 0.961 . S
H1783 C1767 0.961 . S
H1784 C1768 0.931 . S
H1785 C1773 0.930 . S
H1786 C1774 0.956 . S
H1787 C1774 0.961 . S
H1788 C1774 0.961 . S
H1789 C1775 0.958 . S
H1790 C1775 0.961 . S
H1791 C1775 0.960 . S
C1792 C1793 1.391 . S
C1792 C1794 1.394 . S
C1792 H1808 0.931 . S
C1793 C1792 1.391 . S
C1793 C1797 1.376 . S
C1794 C1792 1.394 . S
C1794 C1795 1.369 . S
C1794 C1798 1.531 . S
C1795 C1794 1.369 . S
C1795 C1796 1.410 . S
C1795 C1803 1.503 . S
C1796 C1795 1.410 . S
C1796 C1797 1.392 . S
C1796 C1799 1.511 . S
C1797 C1793 1.376 . S
C1797 C1796 1.392 . S
C1797 H1809 0.929 . S
C1798 C1794 1.531 . S
C1798 H1810 0.960 . S
C1798 H1811 0.962 . S
C1798 H1812 0.960 . S
C1799 C1796 1.511 . S
C1799 H1813 0.961 . S
C1799 H1814 0.961 . S
C1799 H1815 0.961 . S
C1800 C1801 1.370 . S
C1800 C1802 1.363 . S
C1800 H1816 0.931 . S
C1801 C1800 1.370 . S
C1801 C1805 1.408 . S
C1802 C1800 1.363 . S
C1802 C1803 1.370 . S
C1802 C1806 1.524 . S
C1803 C1795 1.503 . S
C1803 C1802 1.370 . S
C1803 C1804 1.403 . S
C1804 C1803 1.403 . S
C1804 C1805 1.404 . S
C1804 C1807 1.539 . S
C1805 C1801 1.408 . S
C1805 C1804 1.404 . S
C1805 H1817 0.930 . S
C1806 C1802 1.524 . S
C1806 H1818 0.956 . S
C1806 H1819 0.961 . S
C1806 H1820 0.961 . S
C1807 C1804 1.539 . S
C1807 H1821 0.958 . S
C1807 H1822 0.961 . S
C1807 H1823 0.960 . S
H1808 C1792 0.931 . S
H1809 C1797 0.929 . S
H1810 C1798 0.960 . S
H1811 C1798 0.962 . S
H1812 C1798 0.960 . S
H1813 C1799 0.961 . S
H1814 C1799 0.961 . S
H1815 C1799 0.961 . S
H1816 C1800 0.931 . S
H1817 C1805 0.930 . S
H1818 C1806 0.956 . S
H1819 C1806 0.961 . S
H1820 C1806 0.961 . S
H1821 C1807 0.958 . S
H1822 C1807 0.961 . S
H1823 C1807 0.960 . S
C1824 C1825 1.391 . S
C1824 C1826 1.394 . S
C1824 H1840 0.931 . S
C1825 C1824 1.391 . S
C1825 C1829 1.376 . S
C1826 C1824 1.394 . S
C1826 C1827 1.369 . S
C1826 C1830 1.531 1_554 S
C1827 C1826 1.369 . S
C1827 C1828 1.410 . S
C1827 C1835 1.503 1_554 S
C1828 C1827 1.410 . S
C1828 C1829 1.392 . S
C1828 C1831 1.511 . S
C1829 C1825 1.376 . S
C1829 C1828 1.392 . S
C1829 H1841 0.929 . S
C1830 C1826 1.531 1_556 S
C1830 H1842 0.960 . S
C1830 H1843 0.962 . S
C1830 H1844 0.960 . S
C1831 C1828 1.511 . S
C1831 H1845 0.961 . S
C1831 H1846 0.961 . S
C1831 H1847 0.961 . S
C1832 C1833 1.370 . S
C1832 C1834 1.363 . S
C1832 H1848 0.931 . S
C1833 C1832 1.370 . S
C1833 C1837 1.408 . S
C1834 C1832 1.363 . S
C1834 C1835 1.370 . S
C1834 C1838 1.524 . S
C1835 C1827 1.503 1_556 S
C1835 C1834 1.370 . S
C1835 C1836 1.403 . S
C1836 C1835 1.403 . S
C1836 C1837 1.404 . S
C1836 C1839 1.539 . S
C1837 C1833 1.408 . S
C1837 C1836 1.404 . S
C1837 H1849 0.930 . S
C1838 C1834 1.524 . S
C1838 H1850 0.956 . S
C1838 H1851 0.961 1_556 S
C1838 H1852 0.961 . S
C1839 C1836 1.539 . S
C1839 H1853 0.958 . S
C1839 H1854 0.961 . S
C1839 H1855 0.960 . S
H1840 C1824 0.931 . S
H1841 C1829 0.929 . S
H1842 C1830 0.960 . S
H1843 C1830 0.962 . S
H1844 C1830 0.960 . S
H1845 C1831 0.961 . S
H1846 C1831 0.961 . S
H1847 C1831 0.961 . S
H1848 C1832 0.931 . S
H1849 C1837 0.930 . S
H1850 C1838 0.956 . S
H1851 C1838 0.961 1_554 S
H1852 C1838 0.961 . S
H1853 C1839 0.958 . S
H1854 C1839 0.961 . S
H1855 C1839 0.960 . S
C1856 C1857 1.391 . S
C1856 C1858 1.394 . S
C1856 H1872 0.931 . S
C1857 C1856 1.391 . S
C1857 C1861 1.376 . S
C1858 C1856 1.394 . S
C1858 C1859 1.369 . S
C1858 C1862 1.531 . S
C1859 C1858 1.369 . S
C1859 C1860 1.410 1_455 S
C1859 C1867 1.503 1_455 S
C1860 C1859 1.410 1_655 S
C1860 C1861 1.392 1_655 S
C1860 C1863 1.511 . S
C1861 C1857 1.376 . S
C1861 C1860 1.392 1_455 S
C1861 H1873 0.929 1_455 S
C1862 C1858 1.531 . S
C1862 H1874 0.960 . S
C1862 H1875 0.962 . S
C1862 H1876 0.960 . S
C1863 C1860 1.511 . S
C1863 H1877 0.961 . S
C1863 H1878 0.961 . S
C1863 H1879 0.961 . S
C1864 C1865 1.370 . S
C1864 C1866 1.363 1_655 S
C1864 H1880 0.929 1_655 S
C1865 C1864 1.370 . S
C1865 C1869 1.408 . S
C1866 C1864 1.363 1_455 S
C1866 C1867 1.370 1_455 S
C1866 C1870 1.524 . S
C1867 C1859 1.503 1_655 S
C1867 C1866 1.370 1_655 S
C1867 C1868 1.403 . S
C1868 C1867 1.403 . S
C1868 C1869 1.404 . S
C1868 C1871 1.539 . S
C1869 C1865 1.408 . S
C1869 C1868 1.404 . S
C1869 H1881 0.930 . S
C1870 C1866 1.524 . S
C1870 H1882 0.956 . S
C1870 H1883 0.961 . S
C1870 H1884 0.961 . S
C1871 C1868 1.539 . S
C1871 H1885 0.958 . S
C1871 H1886 0.961 . S
C1871 H1887 0.960 . S
H1872 C1856 0.931 . S
H1873 C1861 0.929 1_655 S
H1874 C1862 0.960 . S
H1875 C1862 0.962 . S
H1876 C1862 0.960 . S
H1877 C1863 0.961 . S
H1878 C1863 0.961 . S
H1879 C1863 0.961 . S
H1880 C1864 0.929 1_455 S
H1881 C1869 0.930 . S
H1882 C1870 0.956 . S
H1883 C1870 0.961 . S
H1884 C1870 0.961 . S
H1885 C1871 0.958 . S
H1886 C1871 0.961 . S
H1887 C1871 0.960 . S
C1888 C1889 1.391 . S
C1888 C1890 1.394 1_455 S
C1888 H1904 0.931 1_455 S
C1889 C1888 1.391 . S
C1889 C1893 1.376 . S
C1890 C1888 1.394 1_655 S
C1890 C1891 1.369 1_655 S
C1890 C1894 1.531 . S
C1891 C1890 1.369 1_455 S
C1891 C1892 1.410 . S
C1891 C1899 1.503 1_454 S
C1892 C1891 1.410 . S
C1892 C1893 1.392 . S
C1892 C1895 1.511 1_554 S
C1893 C1889 1.376 . S
C1893 C1892 1.392 . S
C1893 H1905 0.929 . S
C1894 C1890 1.531 . S
C1894 H1906 0.960 . S
C1894 H1907 0.962 . S
C1894 H1908 0.960 . S
C1895 C1892 1.511 1_556 S
C1895 H1909 0.961 . S
C1895 H1910 0.961 . S
C1895 H1911 0.961 . S
C1896 C1897 1.370 . S
C1896 C1898 1.363 1_655 S
C1896 H1912 0.942 . S
C1897 C1896 1.370 . S
C1897 C1901 1.408 . S
C1898 C1896 1.363 1_455 S
C1898 C1899 1.370 1_455 S
C1898 C1902 1.524 . S
C1899 C1891 1.503 1_656 S
C1899 C1898 1.370 1_655 S
C1899 C1900 1.403 . S
C1900 C1899 1.403 . S
C1900 C1901 1.404 . S
C1900 C1903 1.539 . S
C1901 C1897 1.408 . S
C1901 C1900 1.404 . S
C1901 H1913 0.930 . S
C1902 C1898 1.524 . S
C1902 H1914 0.956 . S
C1902 H1915 0.961 . S
C1902 H1916 0.961 . S
C1903 C1900 1.539 . S
C1903 H1917 0.958 1_556 S
C1903 H1918 0.961 . S
C1903 H1919 0.960 1_556 S
H1904 C1888 0.931 1_655 S
H1905 C1893 0.929 . S
H1906 C1894 0.960 . S
H1907 C1894 0.962 . S
H1908 C1894 0.960 . S
H1909 C1895 0.961 . S
H1910 C1895 0.961 . S
H1911 C1895 0.961 . S
H1912 C1896 0.942 . S
H1913 C1901 0.930 . S
H1914 C1902 0.956 . S
H1915 C1902 0.961 . S
H1916 C1902 0.961 . S
H1917 C1903 0.958 1_554 S
H1918 C1903 0.961 . S
H1919 C1903 0.960 1_554 S
C1920 C1921 1.391 . S
C1920 C1922 1.394 . S
C1920 H1936 0.931 . S
C1921 C1920 1.391 . S
C1921 C1925 1.376 . S
C1922 C1920 1.394 . S
C1922 C1923 1.369 . S
C1922 C1926 1.531 . S
C1923 C1922 1.369 . S
C1923 C1924 1.410 . S
C1923 C1931 1.503 . S
C1924 C1923 1.410 . S
C1924 C1925 1.392 . S
C1924 C1927 1.511 . S
C1925 C1921 1.376 . S
C1925 C1924 1.392 . S
C1925 H1937 0.929 . S
C1926 C1922 1.531 . S
C1926 H1938 0.960 . S
C1926 H1939 0.962 . S
C1926 H1940 0.960 . S
C1927 C1924 1.511 . S
C1927 H1941 0.961 . S
C1927 H1942 0.961 . S
C1927 H1943 0.961 . S
C1928 C1929 1.370 . S
C1928 C1930 1.363 . S
C1928 H1944 0.931 . S
C1929 C1928 1.370 . S
C1929 C1933 1.408 . S
C1930 C1928 1.363 . S
C1930 C1931 1.370 . S
C1930 C1934 1.524 . S
C1931 C1923 1.503 . S
C1931 C1930 1.370 . S
C1931 C1932 1.403 . S
C1932 C1931 1.403 . S
C1932 C1933 1.404 . S
C1932 C1935 1.539 . S
C1933 C1929 1.408 . S
C1933 C1932 1.404 . S
C1933 H1945 0.930 . S
C1934 C1930 1.524 . S
C1934 H1946 0.956 . S
C1934 H1947 0.961 . S
C1934 H1948 0.961 . S
C1935 C1932 1.539 . S
C1935 H1949 0.958 . S
C1935 H1950 0.961 . S
C1935 H1951 0.960 . S
H1936 C1920 0.931 . S
H1937 C1925 0.929 . S
H1938 C1926 0.960 . S
H1939 C1926 0.962 . S
H1940 C1926 0.960 . S
H1941 C1927 0.961 . S
H1942 C1927 0.961 . S
H1943 C1927 0.961 . S
H1944 C1928 0.931 . S
H1945 C1933 0.930 . S
H1946 C1934 0.956 . S
H1947 C1934 0.961 . S
H1948 C1934 0.961 . S
H1949 C1935 0.958 . S
H1950 C1935 0.961 . S
H1951 C1935 0.960 . S
C1952 C1953 1.391 . S
C1952 C1954 1.394 . S
C1952 H1968 0.931 . S
C1953 C1952 1.391 . S
C1953 C1957 1.376 . S
C1954 C1952 1.394 . S
C1954 C1955 1.369 . S
C1954 C1958 1.531 . S
C1955 C1954 1.369 . S
C1955 C1956 1.410 . S
C1955 C1963 1.503 . S
C1956 C1955 1.410 . S
C1956 C1957 1.392 . S
C1956 C1959 1.511 . S
C1957 C1953 1.376 . S
C1957 C1956 1.392 . S
C1957 H1969 0.929 . S
C1958 C1954 1.531 . S
C1958 H1970 0.960 . S
C1958 H1971 0.962 . S
C1958 H1972 0.960 . S
C1959 C1956 1.511 . S
C1959 H1973 0.961 . S
C1959 H1974 0.961 . S
C1959 H1975 0.961 . S
C1960 C1961 1.370 . S
C1960 C1962 1.363 . S
C1960 H1976 0.931 . S
C1961 C1960 1.370 . S
C1961 C1965 1.408 . S
C1962 C1960 1.363 . S
C1962 C1963 1.370 . S
C1962 C1966 1.524 . S
C1963 C1955 1.503 . S
C1963 C1962 1.370 . S
C1963 C1964 1.403 . S
C1964 C1963 1.403 . S
C1964 C1965 1.404 . S
C1964 C1967 1.539 . S
C1965 C1961 1.408 . S
C1965 C1964 1.404 . S
C1965 H1977 0.930 . S
C1966 C1962 1.524 . S
C1966 H1978 0.956 . S
C1966 H1979 0.961 . S
C1966 H1980 0.961 . S
C1967 C1964 1.539 . S
C1967 H1981 0.958 . S
C1967 H1982 0.961 . S
C1967 H1983 0.960 . S
H1968 C1952 0.931 . S
H1969 C1957 0.929 . S
H1970 C1958 0.960 . S
H1971 C1958 0.962 . S
H1972 C1958 0.960 . S
H1973 C1959 0.961 . S
H1974 C1959 0.961 . S
H1975 C1959 0.961 . S
H1976 C1960 0.931 . S
H1977 C1965 0.930 . S
H1978 C1966 0.956 . S
H1979 C1966 0.961 . S
H1980 C1966 0.961 . S
H1981 C1967 0.958 . S
H1982 C1967 0.961 . S
H1983 C1967 0.960 . S
C1984 C1985 1.391 . S
C1984 C1986 1.394 . S
C1984 H2000 0.931 . S
C1985 C1984 1.391 . S
C1985 C1989 1.376 . S
C1986 C1984 1.394 . S
C1986 C1987 1.369 . S
C1986 C1990 1.531 . S
C1987 C1986 1.369 . S
C1987 C1988 1.410 . S
C1987 C1995 1.503 . S
C1988 C1987 1.410 . S
C1988 C1989 1.392 . S
C1988 C1991 1.511 . S
C1989 C1985 1.376 . S
C1989 C1988 1.392 . S
C1989 H2001 0.929 . S
C1990 C1986 1.531 . S
C1990 H2002 0.960 . S
C1990 H2003 0.962 . S
C1990 H2004 0.960 . S
C1991 C1988 1.511 . S
C1991 H2005 0.961 . S
C1991 H2006 0.961 . S
C1991 H2007 0.961 . S
C1992 C1993 1.370 . S
C1992 C1994 1.363 . S
C1992 H2008 0.931 . S
C1993 C1992 1.370 . S
C1993 C1997 1.408 . S
C1994 C1992 1.363 . S
C1994 C1995 1.370 . S
C1994 C1998 1.524 . S
C1995 C1987 1.503 . S
C1995 C1994 1.370 . S
C1995 C1996 1.403 . S
C1996 C1995 1.403 . S
C1996 C1997 1.404 . S
C1996 C1999 1.539 . S
C1997 C1993 1.408 . S
C1997 C1996 1.404 . S
C1997 H2009 0.930 . S
C1998 C1994 1.524 . S
C1998 H2010 0.956 . S
C1998 H2011 0.961 . S
C1998 H2012 0.961 . S
C1999 C1996 1.539 . S
C1999 H2013 0.958 . S
C1999 H2014 0.961 . S
C1999 H2015 0.960 . S
H2000 C1984 0.931 . S
H2001 C1989 0.929 . S
H2002 C1990 0.960 . S
H2003 C1990 0.962 . S
H2004 C1990 0.960 . S
H2005 C1991 0.961 . S
H2006 C1991 0.961 . S
H2007 C1991 0.961 . S
H2008 C1992 0.931 . S
H2009 C1997 0.930 . S
H2010 C1998 0.956 . S
H2011 C1998 0.961 . S
H2012 C1998 0.961 . S
H2013 C1999 0.958 . S
H2014 C1999 0.961 . S
H2015 C1999 0.960 . S
C2016 C2017 1.391 . S
C2016 C2018 1.394 . S
C2016 H2032 0.931 . S
C2017 C2016 1.391 . S
C2017 C2021 1.376 . S
C2018 C2016 1.394 . S
C2018 C2019 1.369 . S
C2018 C2022 1.531 . S
C2019 C2018 1.369 . S
C2019 C2020 1.410 . S
C2019 C2027 1.503 . S
C2020 C2019 1.410 . S
C2020 C2021 1.392 . S
C2020 C2023 1.511 . S
C2021 C2017 1.376 . S
C2021 C2020 1.392 . S
C2021 H2033 0.929 . S
C2022 C2018 1.531 . S
C2022 H2034 0.960 . S
C2022 H2035 0.962 . S
C2022 H2036 0.960 . S
C2023 C2020 1.511 . S
C2023 H2037 0.961 . S
C2023 H2038 0.961 . S
C2023 H2039 0.961 . S
C2024 C2025 1.370 . S
C2024 C2026 1.363 . S
C2024 H2040 0.931 . S
C2025 C2024 1.370 . S
C2025 C2029 1.408 . S
C2026 C2024 1.363 . S
C2026 C2027 1.370 . S
C2026 C2030 1.524 . S
C2027 C2019 1.503 . S
C2027 C2026 1.370 . S
C2027 C2028 1.403 . S
C2028 C2027 1.403 . S
C2028 C2029 1.404 . S
C2028 C2031 1.539 . S
C2029 C2025 1.408 . S
C2029 C2028 1.404 . S
C2029 H2041 0.930 1_565 S
C2030 C2026 1.524 . S
C2030 H2042 0.956 . S
C2030 H2043 0.961 . S
C2030 H2044 0.961 . S
C2031 C2028 1.539 . S
C2031 H2045 0.958 . S
C2031 H2046 0.961 . S
C2031 H2047 0.960 . S
H2032 C2016 0.931 . S
H2033 C2021 0.929 . S
H2034 C2022 0.960 . S
H2035 C2022 0.962 . S
H2036 C2022 0.960 . S
H2037 C2023 0.961 . S
H2038 C2023 0.961 . S
H2039 C2023 0.961 . S
H2040 C2024 0.931 . S
H2041 C2029 0.930 1_545 S
H2042 C2030 0.956 . S
H2043 C2030 0.961 . S
H2044 C2030 0.961 . S
H2045 C2031 0.958 . S
H2046 C2031 0.961 . S
H2047 C2031 0.960 . S
C2048 C2049 1.391 . S
C2048 C2050 1.394 . S
C2048 H2064 0.931 . S
C2049 C2048 1.391 . S
C2049 C2053 1.376 . S
C2050 C2048 1.394 . S
C2050 C2051 1.369 . S
C2050 C2054 1.531 . S
C2051 C2050 1.369 . S
C2051 C2052 1.410 . S
C2051 C2059 1.503 . S
C2052 C2051 1.410 . S
C2052 C2053 1.392 . S
C2052 C2055 1.511 . S
C2053 C2049 1.376 . S
C2053 C2052 1.392 . S
C2053 H2065 0.929 . S
C2054 C2050 1.531 . S
C2054 H2066 0.960 . S
C2054 H2067 0.962 . S
C2054 H2068 0.960 . S
C2055 C2052 1.511 . S
C2055 H2069 0.961 . S
C2055 H2070 0.961 . S
C2055 H2071 0.961 . S
C2056 C2057 1.370 . S
C2056 C2058 1.363 . S
C2056 H2072 0.931 . S
C2057 C2056 1.370 . S
C2057 C2061 1.408 . S
C2058 C2056 1.363 . S
C2058 C2059 1.370 . S
C2058 C2062 1.524 . S
C2059 C2051 1.503 . S
C2059 C2058 1.370 . S
C2059 C2060 1.403 . S
C2060 C2059 1.403 . S
C2060 C2061 1.404 . S
C2060 C2063 1.539 . S
C2061 C2057 1.408 . S
C2061 C2060 1.404 . S
C2061 H2073 0.930 1_565 S
C2062 C2058 1.524 . S
C2062 H2074 0.956 . S
C2062 H2075 0.961 . S
C2062 H2076 0.961 . S
C2063 C2060 1.539 . S
C2063 H2077 0.958 . S
C2063 H2078 0.961 . S
C2063 H2079 0.960 . S
H2064 C2048 0.931 . S
H2065 C2053 0.929 . S
H2066 C2054 0.960 . S
H2067 C2054 0.962 . S
H2068 C2054 0.960 . S
H2069 C2055 0.961 . S
H2070 C2055 0.961 . S
H2071 C2055 0.961 . S
H2072 C2056 0.931 . S
H2073 C2061 0.930 1_545 S
H2074 C2062 0.956 . S
H2075 C2062 0.961 . S
H2076 C2062 0.961 . S
H2077 C2063 0.958 . S
H2078 C2063 0.961 . S
H2079 C2063 0.960 . S
C2080 C2081 1.391 . S
C2080 C2082 1.394 . S
C2080 H2096 0.931 . S
C2081 C2080 1.391 . S
C2081 C2085 1.376 . S
C2082 C2080 1.394 . S
C2082 C2083 1.369 . S
C2082 C2086 1.531 . S
C2083 C2082 1.369 . S
C2083 C2084 1.410 . S
C2083 C2091 1.503 . S
C2084 C2083 1.410 . S
C2084 C2085 1.392 . S
C2084 C2087 1.511 . S
C2085 C2081 1.376 . S
C2085 C2084 1.392 . S
C2085 H2097 0.929 . S
C2086 C2082 1.531 . S
C2086 H2098 0.960 . S
C2086 H2099 0.962 . S
C2086 H2100 0.960 . S
C2087 C2084 1.511 . S
C2087 H2101 0.961 . S
C2087 H2102 0.961 . S
C2087 H2103 0.961 . S
C2088 C2089 1.370 . S
C2088 C2090 1.363 . S
C2088 H2104 0.931 . S
C2089 C2088 1.370 . S
C2089 C2093 1.408 . S
C2090 C2088 1.363 . S
C2090 C2091 1.370 . S
C2090 C2094 1.524 . S
C2091 C2083 1.503 . S
C2091 C2090 1.370 . S
C2091 C2092 1.403 . S
C2092 C2091 1.403 . S
C2092 C2093 1.404 . S
C2092 C2095 1.539 . S
C2093 C2089 1.408 . S
C2093 C2092 1.404 . S
C2093 H2105 0.930 1_565 S
C2094 C2090 1.524 . S
C2094 H2106 0.956 . S
C2094 H2107 0.961 . S
C2094 H2108 0.961 . S
C2095 C2092 1.539 . S
C2095 H2109 0.958 . S
C2095 H2110 0.975 . S
C2095 H2111 0.960 . S
H2096 C2080 0.931 . S
H2097 C2085 0.929 . S
H2098 C2086 0.960 . S
H2099 C2086 0.962 . S
H2100 C2086 0.960 . S
H2101 C2087 0.961 . S
H2102 C2087 0.961 . S
H2103 C2087 0.961 . S
H2104 C2088 0.931 . S
H2105 C2093 0.930 1_545 S
H2106 C2094 0.956 . S
H2107 C2094 0.961 . S
H2108 C2094 0.961 . S
H2109 C2095 0.958 . S
H2110 C2095 0.975 . S
H2111 C2095 0.960 . S
C2112 C2113 1.391 . S
C2112 C2114 1.394 . S
C2112 H2128 0.931 . S
C2113 C2112 1.391 . S
C2113 C2117 1.376 . S
C2114 C2112 1.394 . S
C2114 C2115 1.369 . S
C2114 C2118 1.531 . S
C2115 C2114 1.369 . S
C2115 C2116 1.410 . S
C2115 C2123 1.503 . S
C2116 C2115 1.410 . S
C2116 C2117 1.392 . S
C2116 C2119 1.511 . S
C2117 C2113 1.376 . S
C2117 C2116 1.392 . S
C2117 H2129 0.929 1_565 S
C2118 C2114 1.531 . S
C2118 H2130 0.960 . S
C2118 H2131 0.962 . S
C2118 H2132 0.960 . S
C2119 C2116 1.511 . S
C2119 H2133 0.961 . S
C2119 H2134 0.961 . S
C2119 H2135 0.961 . S
C2120 C2121 1.370 . S
C2120 C2122 1.363 . S
C2120 H2136 0.931 . S
C2121 C2120 1.370 . S
C2121 C2125 1.408 . S
C2122 C2120 1.363 . S
C2122 C2123 1.370 . S
C2122 C2126 1.524 . S
C2123 C2115 1.503 . S
C2123 C2122 1.370 . S
C2123 C2124 1.403 . S
C2124 C2123 1.403 . S
C2124 C2125 1.404 . S
C2124 C2127 1.539 . S
C2125 C2121 1.408 . S
C2125 C2124 1.404 . S
C2125 H2137 0.930 . S
C2126 C2122 1.524 . S
C2126 H2138 0.956 . S
C2126 H2139 0.961 . S
C2126 H2140 0.961 . S
C2127 C2124 1.539 . S
C2127 H2141 0.958 . S
C2127 H2142 0.961 . S
C2127 H2143 0.960 . S
H2128 C2112 0.931 . S
H2129 C2117 0.929 1_545 S
H2130 C2118 0.960 . S
H2131 C2118 0.962 . S
H2132 C2118 0.960 . S
H2133 C2119 0.961 . S
H2134 C2119 0.961 . S
H2135 C2119 0.961 . S
H2136 C2120 0.931 . S
H2137 C2125 0.930 . S
H2138 C2126 0.956 . S
H2139 C2126 0.961 . S
H2140 C2126 0.961 . S
H2141 C2127 0.958 . S
H2142 C2127 0.961 . S
H2143 C2127 0.960 . S
C2144 C2145 1.391 . S
C2144 C2146 1.394 . S
C2144 H2160 0.931 . S
C2145 C2144 1.391 . S
C2145 C2149 1.376 . S
C2146 C2144 1.394 . S
C2146 C2147 1.369 . S
C2146 C2150 1.531 . S
C2147 C2146 1.369 . S
C2147 C2148 1.410 . S
C2147 C2155 1.503 . S
C2148 C2147 1.410 . S
C2148 C2149 1.392 . S
C2148 C2151 1.511 . S
C2149 C2145 1.376 . S
C2149 C2148 1.392 . S
C2149 H2161 0.929 . S
C2150 C2146 1.531 . S
C2150 H2162 0.960 . S
C2150 H2163 0.962 . S
C2150 H2164 0.960 . S
C2151 C2148 1.511 . S
C2151 H2165 0.961 . S
C2151 H2166 0.961 . S
C2151 H2167 0.961 . S
C2152 C2153 1.370 . S
C2152 C2154 1.363 . S
C2152 H2168 0.931 . S
C2153 C2152 1.370 . S
C2153 C2157 1.408 . S
C2154 C2152 1.363 . S
C2154 C2155 1.370 . S
C2154 C2158 1.524 . S
C2155 C2147 1.503 . S
C2155 C2154 1.370 . S
C2155 C2156 1.403 . S
C2156 C2155 1.403 . S
C2156 C2157 1.404 . S
C2156 C2159 1.539 . S
C2157 C2153 1.408 . S
C2157 C2156 1.404 . S
C2157 H2169 0.930 . S
C2158 C2154 1.524 . S
C2158 H2170 0.956 . S
C2158 H2171 0.961 . S
C2158 H2172 0.961 . S
C2159 C2156 1.539 . S
C2159 H2173 0.958 . S
C2159 H2174 0.961 . S
C2159 H2175 0.960 . S
H2160 C2144 0.931 . S
H2161 C2149 0.929 . S
H2162 C2150 0.960 . S
H2163 C2150 0.962 . S
H2164 C2150 0.960 . S
H2165 C2151 0.961 . S
H2166 C2151 0.961 . S
H2167 C2151 0.961 . S
H2168 C2152 0.931 . S
H2169 C2157 0.930 . S
H2170 C2158 0.956 . S
H2171 C2158 0.961 . S
H2172 C2158 0.961 . S
H2173 C2159 0.958 . S
H2174 C2159 0.961 . S
H2175 C2159 0.960 . S
C2176 C2177 1.391 . S
C2176 C2178 1.394 . S
C2176 H2192 0.931 . S
C2177 C2176 1.391 . S
C2177 C2181 1.376 . S
C2178 C2176 1.394 . S
C2178 C2179 1.369 . S
C2178 C2182 1.531 . S
C2179 C2178 1.369 . S
C2179 C2180 1.410 . S
C2179 C2187 1.503 . S
C2180 C2179 1.410 . S
C2180 C2181 1.392 . S
C2180 C2183 1.511 . S
C2181 C2177 1.376 . S
C2181 C2180 1.392 . S
C2181 H2193 0.929 . S
C2182 C2178 1.531 . S
C2182 H2194 0.960 . S
C2182 H2195 0.962 . S
C2182 H2196 0.960 . S
C2183 C2180 1.511 . S
C2183 H2197 0.961 . S
C2183 H2198 0.961 . S
C2183 H2199 0.961 . S
C2184 C2185 1.370 . S
C2184 C2186 1.363 . S
C2184 H2200 0.931 . S
C2185 C2184 1.370 . S
C2185 C2189 1.408 . S
C2186 C2184 1.363 . S
C2186 C2187 1.370 . S
C2186 C2190 1.524 . S
C2187 C2179 1.503 . S
C2187 C2186 1.370 . S
C2187 C2188 1.403 . S
C2188 C2187 1.403 . S
C2188 C2189 1.404 . S
C2188 C2191 1.539 . S
C2189 C2185 1.408 . S
C2189 C2188 1.404 . S
C2189 H2201 0.930 . S
C2190 C2186 1.524 . S
C2190 H2202 0.956 . S
C2190 H2203 0.961 . S
C2190 H2204 0.961 . S
C2191 C2188 1.539 . S
C2191 H2205 0.958 . S
C2191 H2206 0.961 . S
C2191 H2207 0.960 . S
H2192 C2176 0.931 . S
H2193 C2181 0.929 . S
H2194 C2182 0.960 . S
H2195 C2182 0.962 . S
H2196 C2182 0.960 . S
H2197 C2183 0.961 . S
H2198 C2183 0.961 . S
H2199 C2183 0.961 . S
H2200 C2184 0.931 . S
H2201 C2189 0.930 . S
H2202 C2190 0.956 . S
H2203 C2190 0.961 . S
H2204 C2190 0.961 . S
H2205 C2191 0.958 . S
H2206 C2191 0.961 . S
H2207 C2191 0.960 . S
C2208 C2209 1.391 . S
C2208 C2210 1.394 . S
C2208 H2224 0.931 . S
C2209 C2208 1.391 . S
C2209 C2213 1.376 . S
C2210 C2208 1.394 . S
C2210 C2211 1.369 . S
C2210 C2214 1.531 . S
C2211 C2210 1.369 . S
C2211 C2212 1.410 . S
C2211 C2219 1.503 . S
C2212 C2211 1.410 . S
C2212 C2213 1.392 . S
C2212 C2215 1.511 . S
C2213 C2209 1.376 . S
C2213 C2212 1.392 . S
C2213 H2225 0.929 . S
C2214 C2210 1.531 . S
C2214 H2226 0.960 . S
C2214 H2227 0.962 . S
C2214 H2228 0.960 . S
C2215 C2212 1.511 . S
C2215 H2229 0.961 . S
C2215 H2230 0.961 . S
C2215 H2231 0.961 . S
C2216 C2217 1.370 . S
C2216 C2218 1.363 . S
C2216 H2232 0.931 . S
C2217 C2216 1.370 . S
C2217 C2221 1.408 . S
C2218 C2216 1.363 . S
C2218 C2219 1.370 . S
C2218 C2222 1.524 . S
C2219 C2211 1.503 . S
C2219 C2218 1.370 . S
C2219 C2220 1.403 . S
C2220 C2219 1.403 . S
C2220 C2221 1.404 . S
C2220 C2223 1.539 . S
C2221 C2217 1.408 . S
C2221 C2220 1.404 . S
C2221 H2233 0.930 . S
C2222 C2218 1.524 . S
C2222 H2234 0.956 . S
C2222 H2235 0.961 . S
C2222 H2236 0.961 . S
C2223 C2220 1.539 . S
C2223 H2237 0.958 . S
C2223 H2238 0.961 . S
C2223 H2239 0.960 . S
H2224 C2208 0.931 . S
H2225 C2213 0.929 . S
H2226 C2214 0.960 . S
H2227 C2214 0.962 . S
H2228 C2214 0.960 . S
H2229 C2215 0.961 . S
H2230 C2215 0.961 . S
H2231 C2215 0.961 . S
H2232 C2216 0.931 . S
H2233 C2221 0.930 . S
H2234 C2222 0.956 . S
H2235 C2222 0.961 . S
H2236 C2222 0.961 . S
H2237 C2223 0.958 . S
H2238 C2223 0.961 . S
H2239 C2223 0.960 . S
C2240 C2241 1.391 . S
C2240 C2242 1.394 . S
C2240 H2256 0.931 . S
C2241 C2240 1.391 . S
C2241 C2245 1.376 . S
C2242 C2240 1.394 . S
C2242 C2243 1.369 . S
C2242 C2246 1.531 . S
C2243 C2242 1.369 . S
C2243 C2244 1.410 . S
C2243 C2251 1.503 . S
C2244 C2243 1.410 . S
C2244 C2245 1.392 . S
C2244 C2247 1.511 . S
C2245 C2241 1.376 . S
C2245 C2244 1.392 . S
C2245 H2257 0.929 . S
C2246 C2242 1.531 . S
C2246 H2258 0.960 . S
C2246 H2259 0.962 . S
C2246 H2260 0.960 . S
C2247 C2244 1.511 . S
C2247 H2261 0.961 . S
C2247 H2262 0.961 . S
C2247 H2263 0.961 . S
C2248 C2249 1.370 . S
C2248 C2250 1.363 . S
C2248 H2264 0.931 . S
C2249 C2248 1.370 . S
C2249 C2253 1.408 . S
C2250 C2248 1.363 . S
C2250 C2251 1.370 . S
C2250 C2254 1.524 . S
C2251 C2243 1.503 . S
C2251 C2250 1.370 . S
C2251 C2252 1.403 . S
C2252 C2251 1.403 . S
C2252 C2253 1.404 . S
C2252 C2255 1.539 . S
C2253 C2249 1.408 . S
C2253 C2252 1.404 . S
C2253 H2265 0.930 . S
C2254 C2250 1.524 . S
C2254 H2266 0.956 . S
C2254 H2267 0.961 . S
C2254 H2268 0.961 . S
C2255 C2252 1.539 . S
C2255 H2269 0.958 . S
C2255 H2270 0.961 . S
C2255 H2271 0.960 . S
H2256 C2240 0.931 . S
H2257 C2245 0.929 . S
H2258 C2246 0.960 . S
H2259 C2246 0.962 . S
H2260 C2246 0.960 . S
H2261 C2247 0.961 . S
H2262 C2247 0.961 . S
H2263 C2247 0.961 . S
H2264 C2248 0.931 . S
H2265 C2253 0.930 . S
H2266 C2254 0.956 . S
H2267 C2254 0.961 . S
H2268 C2254 0.961 . S
H2269 C2255 0.958 . S
H2270 C2255 0.961 . S
H2271 C2255 0.960 . S
C2272 C2273 1.391 . S
C2272 C2274 1.394 . S
C2272 H2288 0.931 . S
C2273 C2272 1.391 . S
C2273 C2277 1.376 . S
C2274 C2272 1.394 . S
C2274 C2275 1.369 . S
C2274 C2278 1.531 . S
C2275 C2274 1.369 . S
C2275 C2276 1.410 . S
C2275 C2283 1.503 . S
C2276 C2275 1.410 . S
C2276 C2277 1.392 . S
C2276 C2279 1.511 . S
C2277 C2273 1.376 . S
C2277 C2276 1.392 . S
C2277 H2289 0.929 . S
C2278 C2274 1.531 . S
C2278 H2290 0.960 . S
C2278 H2291 0.962 . S
C2278 H2292 0.960 . S
C2279 C2276 1.511 . S
C2279 H2293 0.961 . S
C2279 H2294 0.961 . S
C2279 H2295 0.961 . S
C2280 C2281 1.370 . S
C2280 C2282 1.363 . S
C2280 H2296 0.931 . S
C2281 C2280 1.370 . S
C2281 C2285 1.408 . S
C2282 C2280 1.363 . S
C2282 C2283 1.370 . S
C2282 C2286 1.524 . S
C2283 C2275 1.503 . S
C2283 C2282 1.370 . S
C2283 C2284 1.403 . S
C2284 C2283 1.403 . S
C2284 C2285 1.404 . S
C2284 C2287 1.539 . S
C2285 C2281 1.408 . S
C2285 C2284 1.404 . S
C2285 H2297 0.930 . S
C2286 C2282 1.524 . S
C2286 H2298 0.956 . S
C2286 H2299 0.961 . S
C2286 H2300 0.961 . S
C2287 C2284 1.539 . S
C2287 H2301 0.958 . S
C2287 H2302 0.961 . S
C2287 H2303 0.960 . S
H2288 C2272 0.931 . S
H2289 C2277 0.929 . S
H2290 C2278 0.960 . S
H2291 C2278 0.962 . S
H2292 C2278 0.960 . S
H2293 C2279 0.961 . S
H2294 C2279 0.961 . S
H2295 C2279 0.961 . S
H2296 C2280 0.931 . S
H2297 C2285 0.930 . S
H2298 C2286 0.956 . S
H2299 C2286 0.961 . S
H2300 C2286 0.961 . S
H2301 C2287 0.958 . S
H2302 C2287 0.961 . S
H2303 C2287 0.960 . S
C2304 C2305 1.391 . S
C2304 C2306 1.394 . S
C2304 H2320 0.931 . S
C2305 C2304 1.391 . S
C2305 C2309 1.376 . S
C2306 C2304 1.394 . S
C2306 C2307 1.369 . S
C2306 C2310 1.531 . S
C2307 C2306 1.369 . S
C2307 C2308 1.410 . S
C2307 C2315 1.503 . S
C2308 C2307 1.410 . S
C2308 C2309 1.392 . S
C2308 C2311 1.511 . S
C2309 C2305 1.376 . S
C2309 C2308 1.392 . S
C2309 H2321 0.929 . S
C2310 C2306 1.531 . S
C2310 H2322 0.960 . S
C2310 H2323 0.962 . S
C2310 H2324 0.960 . S
C2311 C2308 1.511 . S
C2311 H2325 0.961 . S
C2311 H2326 0.961 . S
C2311 H2327 0.961 . S
C2312 C2313 1.370 . S
C2312 C2314 1.363 . S
C2312 H2328 0.931 . S
C2313 C2312 1.370 . S
C2313 C2317 1.408 . S
C2314 C2312 1.363 . S
C2314 C2315 1.370 . S
C2314 C2318 1.524 . S
C2315 C2307 1.503 . S
C2315 C2314 1.370 . S
C2315 C2316 1.403 . S
C2316 C2315 1.403 . S
C2316 C2317 1.404 . S
C2316 C2319 1.539 . S
C2317 C2313 1.408 . S
C2317 C2316 1.404 . S
C2317 H2329 0.930 . S
C2318 C2314 1.524 . S
C2318 H2330 0.956 . S
C2318 H2331 0.961 . S
C2318 H2332 0.961 . S
C2319 C2316 1.539 . S
C2319 H2333 0.958 . S
C2319 H2334 0.961 . S
C2319 H2335 0.960 . S
H2320 C2304 0.931 . S
H2321 C2309 0.929 . S
H2322 C2310 0.960 . S
H2323 C2310 0.962 . S
H2324 C2310 0.960 . S
H2325 C2311 0.961 . S
H2326 C2311 0.961 . S
H2327 C2311 0.961 . S
H2328 C2312 0.931 . S
H2329 C2317 0.930 . S
H2330 C2318 0.956 . S
H2331 C2318 0.961 . S
H2332 C2318 0.961 . S
H2333 C2319 0.958 . S
H2334 C2319 0.961 . S
H2335 C2319 0.960 . S
C2336 C2337 1.391 . S
C2336 C2338 1.394 . S
C2336 H2352 0.931 . S
C2337 C2336 1.391 . S
C2337 C2341 1.376 . S
C2338 C2336 1.394 . S
C2338 C2339 1.369 . S
C2338 C2342 1.531 . S
C2339 C2338 1.369 . S
C2339 C2340 1.410 . S
C2339 C2347 1.503 . S
C2340 C2339 1.410 . S
C2340 C2341 1.392 . S
C2340 C2343 1.511 . S
C2341 C2337 1.376 . S
C2341 C2340 1.392 . S
C2341 H2353 0.929 . S
C2342 C2338 1.531 . S
C2342 H2354 0.960 . S
C2342 H2355 0.962 . S
C2342 H2356 0.960 . S
C2343 C2340 1.511 . S
C2343 H2357 0.961 . S
C2343 H2358 0.961 . S
C2343 H2359 0.961 . S
C2344 C2345 1.370 . S
C2344 C2346 1.363 . S
C2344 H2360 0.931 . S
C2345 C2344 1.370 . S
C2345 C2349 1.408 . S
C2346 C2344 1.363 . S
C2346 C2347 1.370 . S
C2346 C2350 1.524 . S
C2347 C2339 1.503 . S
C2347 C2346 1.370 . S
C2347 C2348 1.403 . S
C2348 C2347 1.403 . S
C2348 C2349 1.404 . S
C2348 C2351 1.539 . S
C2349 C2345 1.408 . S
C2349 C2348 1.404 . S
C2349 H2361 0.930 . S
C2350 C2346 1.524 . S
C2350 H2362 0.956 . S
C2350 H2363 0.961 . S
C2350 H2364 0.961 . S
C2351 C2348 1.539 . S
C2351 H2365 0.958 . S
C2351 H2366 0.961 . S
C2351 H2367 0.960 . S
H2352 C2336 0.931 . S
H2353 C2341 0.929 . S
H2354 C2342 0.960 . S
H2355 C2342 0.962 . S
H2356 C2342 0.960 . S
H2357 C2343 0.961 . S
H2358 C2343 0.961 . S
H2359 C2343 0.961 . S
H2360 C2344 0.931 . S
H2361 C2349 0.930 . S
H2362 C2350 0.956 . S
H2363 C2350 0.961 . S
H2364 C2350 0.961 . S
H2365 C2351 0.958 . S
H2366 C2351 0.961 . S
H2367 C2351 0.960 . S
C2368 C2369 1.391 . S
C2368 C2370 1.394 . S
C2368 H2384 0.931 . S
C2369 C2368 1.391 . S
C2369 C2373 1.376 . S
C2370 C2368 1.394 . S
C2370 C2371 1.369 . S
C2370 C2374 1.531 . S
C2371 C2370 1.369 . S
C2371 C2372 1.410 . S
C2371 C2379 1.503 . S
C2372 C2371 1.410 . S
C2372 C2373 1.392 . S
C2372 C2375 1.511 . S
C2373 C2369 1.376 . S
C2373 C2372 1.392 . S
C2373 H2385 0.929 . S
C2374 C2370 1.531 . S
C2374 H2386 0.960 . S
C2374 H2387 0.962 . S
C2374 H2388 0.960 . S
C2375 C2372 1.511 . S
C2375 H2389 0.961 . S
C2375 H2390 0.961 . S
C2375 H2391 0.961 . S
C2376 C2377 1.370 . S
C2376 C2378 1.363 . S
C2376 H2392 0.931 . S
C2377 C2376 1.370 . S
C2377 C2381 1.408 . S
C2378 C2376 1.363 . S
C2378 C2379 1.370 . S
C2378 C2382 1.524 . S
C2379 C2371 1.503 . S
C2379 C2378 1.370 . S
C2379 C2380 1.403 . S
C2380 C2379 1.403 . S
C2380 C2381 1.404 . S
C2380 C2383 1.539 . S
C2381 C2377 1.408 . S
C2381 C2380 1.404 . S
C2381 H2393 0.930 . S
C2382 C2378 1.524 . S
C2382 H2394 0.956 . S
C2382 H2395 0.961 . S
C2382 H2396 0.961 . S
C2383 C2380 1.539 . S
C2383 H2397 0.958 . S
C2383 H2398 0.961 . S
C2383 H2399 0.960 . S
H2384 C2368 0.931 . S
H2385 C2373 0.929 . S
H2386 C2374 0.960 . S
H2387 C2374 0.962 . S
H2388 C2374 0.960 . S
H2389 C2375 0.961 . S
H2390 C2375 0.961 . S
H2391 C2375 0.961 . S
H2392 C2376 0.931 . S
H2393 C2381 0.930 . S
H2394 C2382 0.956 . S
H2395 C2382 0.961 . S
H2396 C2382 0.961 . S
H2397 C2383 0.958 . S
H2398 C2383 0.961 . S
H2399 C2383 0.960 . S
C2400 C2401 1.391 . S
C2400 C2402 1.394 . S
C2400 H2416 0.931 . S
C2401 C2400 1.391 . S
C2401 C2405 1.376 . S
C2402 C2400 1.394 . S
C2402 C2403 1.369 . S
C2402 C2406 1.531 . S
C2403 C2402 1.369 . S
C2403 C2404 1.410 . S
C2403 C2411 1.503 . S
C2404 C2403 1.410 . S
C2404 C2405 1.392 . S
C2404 C2407 1.511 . S
C2405 C2401 1.376 . S
C2405 C2404 1.392 . S
C2405 H2417 0.929 . S
C2406 C2402 1.531 . S
C2406 H2418 0.960 . S
C2406 H2419 0.962 . S
C2406 H2420 0.960 . S
C2407 C2404 1.511 . S
C2407 H2421 0.961 . S
C2407 H2422 0.961 . S
C2407 H2423 0.961 . S
C2408 C2409 1.370 . S
C2408 C2410 1.363 . S
C2408 H2424 0.931 . S
C2409 C2408 1.370 . S
C2409 C2413 1.408 . S
C2410 C2408 1.363 . S
C2410 C2411 1.370 . S
C2410 C2414 1.524 . S
C2411 C2403 1.503 . S
C2411 C2410 1.370 . S
C2411 C2412 1.403 . S
C2412 C2411 1.403 . S
C2412 C2413 1.404 . S
C2412 C2415 1.539 . S
C2413 C2409 1.408 . S
C2413 C2412 1.404 . S
C2413 H2425 0.930 . S
C2414 C2410 1.524 . S
C2414 H2426 0.956 . S
C2414 H2427 0.961 . S
C2414 H2428 0.961 . S
C2415 C2412 1.539 . S
C2415 H2429 0.958 . S
C2415 H2430 0.961 . S
C2415 H2431 0.960 . S
H2416 C2400 0.931 . S
H2417 C2405 0.929 . S
H2418 C2406 0.960 . S
H2419 C2406 0.962 . S
H2420 C2406 0.960 . S
H2421 C2407 0.961 . S
H2422 C2407 0.961 . S
H2423 C2407 0.961 . S
H2424 C2408 0.931 . S
H2425 C2413 0.930 . S
H2426 C2414 0.956 . S
H2427 C2414 0.961 . S
H2428 C2414 0.961 . S
H2429 C2415 0.958 . S
H2430 C2415 0.961 . S
H2431 C2415 0.960 . S
C2432 C2433 1.391 . S
C2432 C2434 1.394 . S
C2432 H2448 0.931 . S
C2433 C2432 1.391 . S
C2433 C2437 1.376 . S
C2434 C2432 1.394 . S
C2434 C2435 1.369 . S
C2434 C2438 1.531 . S
C2435 C2434 1.369 . S
C2435 C2436 1.410 . S
C2435 C2443 1.503 . S
C2436 C2435 1.410 . S
C2436 C2437 1.392 . S
C2436 C2439 1.511 . S
C2437 C2433 1.376 . S
C2437 C2436 1.392 . S
C2437 H2449 0.929 . S
C2438 C2434 1.531 . S
C2438 H2450 0.960 . S
C2438 H2451 0.962 . S
C2438 H2452 0.960 . S
C2439 C2436 1.511 . S
C2439 H2453 0.961 . S
C2439 H2454 0.961 . S
C2439 H2455 0.961 . S
C2440 C2441 1.370 . S
C2440 C2442 1.363 . S
C2440 H2456 0.931 . S
C2441 C2440 1.370 . S
C2441 C2445 1.408 . S
C2442 C2440 1.363 . S
C2442 C2443 1.370 . S
C2442 C2446 1.524 . S
C2443 C2435 1.503 . S
C2443 C2442 1.370 . S
C2443 C2444 1.403 . S
C2444 C2443 1.403 . S
C2444 C2445 1.404 . S
C2444 C2447 1.539 . S
C2445 C2441 1.408 . S
C2445 C2444 1.404 . S
C2445 H2457 0.930 . S
C2446 C2442 1.524 . S
C2446 H2458 0.956 . S
C2446 H2459 0.961 . S
C2446 H2460 0.961 . S
C2447 C2444 1.539 . S
C2447 H2461 0.958 . S
C2447 H2462 0.961 . S
C2447 H2463 0.960 . S
H2448 C2432 0.931 . S
H2449 C2437 0.929 . S
H2450 C2438 0.960 . S
H2451 C2438 0.962 . S
H2452 C2438 0.960 . S
H2453 C2439 0.961 . S
H2454 C2439 0.961 . S
H2455 C2439 0.961 . S
H2456 C2440 0.931 . S
H2457 C2445 0.930 . S
H2458 C2446 0.956 . S
H2459 C2446 0.961 . S
H2460 C2446 0.961 . S
H2461 C2447 0.958 . S
H2462 C2447 0.961 . S
H2463 C2447 0.960 . S
C417 C354 1.479 . S
C425 C5 1.489 . S
C449 C16 1.488 1_655 S
C457 C108 1.488 . S
C481 C328 1.491 . S
C489 C29 1.494 . S
C513 C42 1.468 . S
C521 C140 1.481 . S
C545 C55 1.500 . S
C553 C380 1.497 . S
C577 C68 1.467 . S
C585 C192 1.481 . S
C609 C83 1.499 . S
C617 C406 1.496 . S
C641 C96 1.491 1_655 S
C649 C166 1.489 . S
C673 C251 1.500 . S
C681 C107 1.495 . S
C705 C10 1.478 . S
C713 C127 1.482 1_455 S
C737 C225 1.493 . S
C745 C135 1.492 . S
C769 C153 1.485 . S
C777 C30 1.484 . S
C801 C277 1.490 . S
C809 C161 1.490 . S
C833 C88 1.490 . S
C841 C173 1.487 . S
C865 C187 1.503 . S
C873 C309 1.500 . S
C897 C56 1.491 . S
C905 C199 1.488 1_455 S
C929 C211 1.482 . S
C937 C148 1.489 . S
C961 C224 1.492 . S
C969 C316 1.489 . S
C993 C122 1.496 . S
C1001 C237 1.495 . S
C1025 C342 1.477 . S
C1033 C250 1.480 1_455 S
C1057 C172 1.475 . S
C1065 C263 1.487 . S
C1089 C394 1.473 . S
C1097 C276 1.480 1_455 S
C1121 C198 1.478 . S
C1129 C289 1.489 . S
C1153 C304 1.491 . S
C1161 C368 1.489 . S
C1185 C43 1.490 . S
C1193 C315 1.491 . S
C1217 C329 1.486 . S
C1225 C212 1.484 . S
C1249 C341 1.487 . S
C1257 C17 1.493 . S
C1281 C355 1.471 1_655 S
C1289 C238 1.481 . S
C1313 C367 1.495 . S
C1321 C69 1.500 . S
C1345 C381 1.477 1_655 S
C1353 C290 1.486 . S
C1377 C393 1.502 . S
C1385 C101 1.501 . S
C1409 C407 1.477 . S
C1417 C264 1.481 . S
C1441 C317 1.520 . S
C1449 C3 1.533 . S
C1473 C18 1.533 . S
C1481 C121 1.529 . S
C1505 C343 1.521 . S
C1513 C31 1.533 . S
C1537 C44 1.522 . S
C1545 C147 1.534 . S
C1569 C369 1.535 . S
C1577 C57 1.527 . S
C1601 C70 1.538 . S
C1609 C179 1.526 . S
C1633 C395 1.533 . S
C1641 C81 1.527 . S
C1665 C94 1.521 . S
C1673 C205 1.535 . S
C1697 C109 1.518 . S
C1705 C213 1.534 . S
C1729 C133 1.519 . S
C1737 C239 1.534 . S
C1761 C159 1.529 . S
C1769 C265 1.529 . S
C1793 C185 1.522 . S
C1801 C291 1.531 . S
C1825 C226 1.521 . S
C1833 C335 1.535 . S
C1857 C361 1.532 . S
C1865 C252 1.532 . S
C1889 C387 1.517 . S
C1897 C278 1.537 . S
C1921 C302 1.521 . S
C1929 C413 1.535 . S
C1953 C4 1.383 . S
C1961 C75 1.388 . S
C1985 C23 1.384 . S
C1993 C82 1.388 . S
C2017 C36 1.379 . S
C2025 C95 1.384 . S
C2049 C62 1.379 . S
C2057 C49 1.384 . S
C2081 C114 1.380 . S
C2089 C174 1.386 . S
C2113 C120 1.378 . S
C2121 C186 1.387 . S
C2145 C134 1.388 . S
C2153 C200 1.387 . S
C2177 C146 1.389 . S
C2185 C160 1.388 . S
C2209 C218 1.380 . S
C2217 C283 1.387 . S
C2241 C296 1.383 . S
C2249 C231 1.388 . S
C2273 C244 1.386 . S
C2281 C303 1.387 . S
C2305 C257 1.382 . S
C2313 C270 1.384 . S
C2337 C382 1.378 . S
C2345 C322 1.386 . S
C2369 C330 1.378 . S
C2377 C400 1.387 . S
C2401 C408 1.378 . S
C2409 C348 1.388 . S
C2433 C356 1.380 . S
C2441 C374 1.389 . S
