# Generated by pormake.
# Topology wme, (6)-cn, num edge types: 1
# Building blocks:
#     Node 0, Type 0, BuildingBlock: KUMBOL_clean_sbu_0, # of connection points: 6
#     Node 1, Type 0, BuildingBlock: KUMBOL_clean_sbu_0, # of connection points: 6
#     Node 2, Type 0, BuildingBlock: KUMBOL_clean_sbu_0, # of connection points: 6
#     Node 3, Type 0, BuildingBlock: KUMBOL_clean_sbu_0, # of connection points: 6
#     Node 4, Type 0, BuildingBlock: KUMBOL_clean_sbu_0, # of connection points: 6
#     Node 5, Type 0, BuildingBlock: KUMBOL_clean_sbu_0, # of connection points: 6
#     Node 6, Type 0, BuildingBlock: KUMBOL_clean_sbu_0, # of connection points: 6
#     Node 7, Type 0, BuildingBlock: KUMBOL_clean_sbu_0, # of connection points: 6
#     Node 8, Type 0, BuildingBlock: KUMBOL_clean_sbu_0, # of connection points: 6
#     Node 9, Type 0, BuildingBlock: KUMBOL_clean_sbu_0, # of connection points: 6
#     Node 10, Type 0, BuildingBlock: KUMBOL_clean_sbu_0, # of connection points: 6
#     Node 11, Type 0, BuildingBlock: KUMBOL_clean_sbu_0, # of connection points: 6
#     Edge 12, Type (0, 0), BuildingBlock: OJICUG_clean_linker_0, # of connection points: 2
#     Edge 13, Type (0, 0), BuildingBlock: OJICUG_clean_linker_0, # of connection points: 2
#     Edge 14, Type (0, 0), BuildingBlock: OJICUG_clean_linker_0, # of connection points: 2
#     Edge 15, Type (0, 0), BuildingBlock: OJICUG_clean_linker_0, # of connection points: 2
#     Edge 16, Type (0, 0), BuildingBlock: OJICUG_clean_linker_0, # of connection points: 2
#     Edge 17, Type (0, 0), BuildingBlock: OJICUG_clean_linker_0, # of connection points: 2
#     Edge 18, Type (0, 0), BuildingBlock: OJICUG_clean_linker_0, # of connection points: 2
#     Edge 19, Type (0, 0), BuildingBlock: OJICUG_clean_linker_0, # of connection points: 2
#     Edge 20, Type (0, 0), BuildingBlock: OJICUG_clean_linker_0, # of connection points: 2
#     Edge 21, Type (0, 0), BuildingBlock: OJICUG_clean_linker_0, # of connection points: 2
#     Edge 22, Type (0, 0), BuildingBlock: OJICUG_clean_linker_0, # of connection points: 2
#     Edge 23, Type (0, 0), BuildingBlock: OJICUG_clean_linker_0, # of connection points: 2
#     Edge 24, Type (0, 0), BuildingBlock: OJICUG_clean_linker_0, # of connection points: 2
#     Edge 25, Type (0, 0), BuildingBlock: OJICUG_clean_linker_0, # of connection points: 2
#     Edge 26, Type (0, 0), BuildingBlock: OJICUG_clean_linker_0, # of connection points: 2
#     Edge 27, Type (0, 0), BuildingBlock: OJICUG_clean_linker_0, # of connection points: 2
#     Edge 28, Type (0, 0), BuildingBlock: OJICUG_clean_linker_0, # of connection points: 2
#     Edge 29, Type (0, 0), BuildingBlock: OJICUG_clean_linker_0, # of connection points: 2
#     Edge 30, Type (0, 0), BuildingBlock: OJICUG_clean_linker_0, # of connection points: 2
#     Edge 31, Type (0, 0), BuildingBlock: OJICUG_clean_linker_0, # of connection points: 2
#     Edge 32, Type (0, 0), BuildingBlock: OJICUG_clean_linker_0, # of connection points: 2
#     Edge 33, Type (0, 0), BuildingBlock: OJICUG_clean_linker_0, # of connection points: 2
#     Edge 34, Type (0, 0), BuildingBlock: OJICUG_clean_linker_0, # of connection points: 2
#     Edge 35, Type (0, 0), BuildingBlock: OJICUG_clean_linker_0, # of connection points: 2
#     Edge 36, Type (0, 0), BuildingBlock: OJICUG_clean_linker_0, # of connection points: 2
#     Edge 37, Type (0, 0), BuildingBlock: OJICUG_clean_linker_0, # of connection points: 2
#     Edge 38, Type (0, 0), BuildingBlock: OJICUG_clean_linker_0, # of connection points: 2
#     Edge 39, Type (0, 0), BuildingBlock: OJICUG_clean_linker_0, # of connection points: 2
#     Edge 40, Type (0, 0), BuildingBlock: OJICUG_clean_linker_0, # of connection points: 2
#     Edge 41, Type (0, 0), BuildingBlock: OJICUG_clean_linker_0, # of connection points: 2
#     Edge 42, Type (0, 0), BuildingBlock: OJICUG_clean_linker_0, # of connection points: 2
#     Edge 43, Type (0, 0), BuildingBlock: OJICUG_clean_linker_0, # of connection points: 2
#     Edge 44, Type (0, 0), BuildingBlock: OJICUG_clean_linker_0, # of connection points: 2
#     Edge 45, Type (0, 0), BuildingBlock: OJICUG_clean_linker_0, # of connection points: 2
#     Edge 46, Type (0, 0), BuildingBlock: OJICUG_clean_linker_0, # of connection points: 2
#     Edge 47, Type (0, 0), BuildingBlock: OJICUG_clean_linker_0, # of connection points: 2
# Relax obj value: 0.091
# Max RMSD: 0.218
# Mean RMSD: 0.218
data_MOF--net-wme--node1-KUMBOL_clean_sbu_0--edge1-OJICUG_clean_linker_0
_symmetry_space_group_name_H-M    P1
_symmetry_Int_Tables_number       1
_symmetry_cell_setting            triclinic
loop_
_symmetry_equiv_pos_as_xyz
'x, y, z'
_cell_length_a     29.910424
_cell_length_b     29.890241
_cell_length_c     39.68425
_cell_angle_alpha  90.028804
_cell_angle_beta   90.033572
_cell_angle_gamma 119.96711
loop_
_atom_site_label
_atom_site_type_symbol
_atom_site_fract_x
_atom_site_fract_y
_atom_site_fract_z
_atom_type_partial_charge
Gd0 Gd 0.27786 0.30845 0.13307 0.0
Gd1 Gd 0.22249 0.38531 0.10323 0.0
C2 C 0.06435 0.36359 0.12842 0.0
C3 C 1.00747 0.28943 0.09418 0.0
C4 C 0.10007 0.3224 0.09358 0.0
C5 C 0.10682 0.35913 0.1174 0.0
C6 C 0.05009 0.28651 0.08217 0.0
C7 C 1.0147 0.32855 0.11666 0.0
C8 C 0.07313 0.40359 0.15055 0.0
C9 C 0.12332 0.43817 0.161 0.0
N10 N 0.15501 0.39124 0.12925 0.0
C11 C 0.16406 0.43192 0.14959 0.0
H12 H 0.20306 0.45979 0.15702 0.0
C13 C 0.13695 0.28671 0.05752 0.0
N14 N 0.14218 0.32114 0.08201 0.0
C15 C 0.08812 0.24967 0.04597 0.0
C16 C 0.04441 0.24881 0.05891 0.0
H17 H 0.16995 0.28692 0.04694 0.0
H18 H 0.98154 0.33099 0.12511 0.0
H19 H 0.36337 0.3605 0.07011 0.0
H20 H 1.04155 0.40847 0.15939 0.0
H21 H 0.13075 0.46994 0.17756 0.0
H22 H 0.96874 0.26169 0.08622 0.0
H23 H 0.26136 0.26191 0.21107 0.0
H24 H 0.51485 0.44446 0.11234 0.0
H25 H 0.45725 0.41562 0.06256 0.0
H26 H 0.48582 0.40058 0.22953 0.0
H27 H 0.08424 0.22172 0.02716 0.0
H28 H 1.00656 0.21972 0.05017 0.0
H29 H 0.52504 0.43943 0.17494 0.0
H30 H 0.31354 0.27455 0.26234 0.0
N31 N 0.36718 0.35954 0.12344 0.0
C32 C 0.47355 0.42045 0.11575 0.0
C33 C 0.4412 0.40412 0.0876 0.0
C34 C 0.45236 0.40365 0.14783 0.0
C35 C 0.39833 0.37246 0.15083 0.0
C36 C 0.38787 0.37295 0.09193 0.0
N37 N 0.32472 0.31837 0.18269 0.0
C38 C 0.37637 0.35096 0.18148 0.0
C39 C 0.33163 0.29658 0.23987 0.0
C40 C 0.38439 0.33253 0.23973 0.0
C41 C 0.30228 0.28942 0.21082 0.0
C42 C 0.40764 0.35955 0.21008 0.0
H43 H 0.40705 0.33787 0.26224 0.0
O44 O 0.24905 0.22754 0.14655 0.0
O45 O 0.20547 0.30626 0.11673 0.0
O46 O 0.21651 0.38083 0.16077 0.0
O47 O 0.27232 0.35144 0.17859 0.0
O48 O 0.20161 0.26401 0.15986 0.0
O49 O 0.30007 0.26105 0.10406 0.0
O50 O 0.21179 0.41379 0.05509 0.0
O51 O 0.2972 0.38579 0.11022 0.0
O52 O 0.25434 0.29204 0.07906 0.0
O53 O 0.26171 0.36752 0.05891 0.0
O54 O 0.29123 0.44636 0.13083 0.0
O55 O 0.24161 0.46586 0.09721 0.0
C56 C 0.17585 0.27651 0.13965 0.0
C57 C 0.46118 0.39298 0.20775 0.0
C58 C 0.48351 0.41509 0.17666 0.0
C59 C 0.2733 0.2197 0.12214 0.0
C60 C 0.29592 0.1863 0.12861 0.0
C61 C 0.34924 0.2078 0.13288 0.0
C62 C 0.26402 0.13194 0.12792 0.0
C63 C 0.28519 0.09885 0.13056 0.0
C64 C 0.3706 0.1758 0.1356 0.0
C65 C 0.33924 0.12211 0.13403 0.0
C66 C 0.24248 0.37178 0.18462 0.0
C67 C 0.32257 0.42936 0.12513 0.0
C68 C 0.21962 0.45748 0.06784 0.0
C69 C 0.17717 0.4703 0.06395 0.0
C70 C 0.13161 0.43535 0.04695 0.0
C71 C 0.18017 0.51556 0.07823 0.0
C72 C 0.13829 0.52541 0.07517 0.0
C73 C 0.09025 0.44423 0.0445 0.0
C74 C 0.09342 0.48856 0.05838 0.0
C75 C 0.26557 0.32533 0.0546 0.0
H76 H 0.37446 0.24932 0.13344 0.0
H77 H 0.22277 0.11583 0.12523 0.0
H78 H 0.41196 0.19275 0.13829 0.0
H79 H 0.3579 0.0991 0.135 0.0
H80 H 0.12727 0.40026 0.03591 0.0
H81 H 0.21499 0.54308 0.09129 0.0
H82 H 0.05529 0.41632 0.03177 0.0
H83 H 0.06019 0.49373 0.05616 0.0
Gd84 Gd 0.98164 0.26172 0.62763 0.0
Gd85 Gd 0.85091 0.22142 0.60476 0.0
C86 C 0.73464 0.05183 0.62918 0.0
C87 C 0.73094 1.00861 0.57684 0.0
C88 C 0.78885 0.10155 0.58236 0.0
C89 C 0.77214 0.09957 0.61515 0.0
C90 C 0.76745 0.05594 0.5627 0.0
C91 C 0.71496 1.00647 0.61007 0.0
C92 C 0.71682 0.05106 0.66179 0.0
C93 C 0.73382 0.09735 0.6789 0.0
N94 N 0.7911 0.1442 0.63302 0.0
C95 C 0.76957 0.14368 0.66367 0.0
H96 H 0.77766 0.17869 0.67646 0.0
C97 C 0.83449 0.15146 0.53526 0.0
N98 N 0.82376 0.1481 0.56909 0.0
C99 C 0.815 0.10739 0.5151 0.0
C100 C 0.78172 0.05937 0.52894 0.0
H101 H 0.85531 0.18783 0.52248 0.0
H102 H 0.68619 0.96969 0.62045 0.0
H103 H 0.05922 0.30757 0.55895 0.0
H104 H 0.68839 1.01521 0.6734 0.0
H105 H 0.7182 0.0976 0.70345 0.0
H106 H 0.71359 0.97355 0.56203 0.0
H107 H 0.98657 0.29633 0.71083 0.0
H108 H 0.12048 0.47044 0.55383 0.0
H109 H 0.10784 0.38941 0.52839 0.0
H110 H 0.08194 0.51096 0.66281 0.0
H111 H 0.82416 0.11078 0.4885 0.0
H112 H 0.76538 1.02561 0.51292 0.0
H113 H 0.11012 0.51544 0.60409 0.0
H114 H 1.00527 0.37335 0.74311 0.0
N115 N 1.03728 0.33982 0.59919 0.0
C116 C 0.09771 0.43418 0.56696 0.0
C117 C 0.09046 0.38854 0.55247 0.0
C118 C 0.0781 0.43276 0.59916 0.0
C119 C 0.04848 0.38439 0.61509 0.0
C120 C 0.0614 0.34178 0.56952 0.0
N121 N 1.00722 0.33484 0.66317 0.0
C122 C 1.03284 0.38184 0.6481 0.0
C123 C 1.0122 0.37624 0.71621 0.0
C124 C 1.03396 0.42411 0.7003 0.0
C125 C 1.00028 0.33211 0.69739 0.0
C126 C 0.04603 0.42764 0.66605 0.0
H127 H 0.04347 0.45832 0.71497 0.0
O128 O 1.0275 0.25447 0.66782 0.0
O129 O 0.90072 0.19424 0.62723 0.0
O130 O 0.85922 0.23883 0.66109 0.0
O131 O 0.93113 0.23159 0.67343 0.0
O132 O 0.95755 0.18086 0.60954 0.0
O133 O 0.04533 0.24981 0.6155 0.0
O134 O 0.81152 0.23517 0.56337 0.0
O135 O 0.93088 0.29061 0.60501 0.0
O136 O 0.97471 0.24028 0.57405 0.0
O137 O 0.90685 0.25235 0.55872 0.0
O138 O 0.87191 0.29762 0.62756 0.0
O139 O 0.78105 0.22507 0.61374 0.0
C140 C 0.90897 0.15965 0.61572 0.0
C141 C 0.07233 0.47554 0.64958 0.0
C142 C 0.08838 0.4781 0.61617 0.0
C143 C 0.0572 0.24799 0.64671 0.0
C144 C 0.11236 0.27055 0.65412 0.0
C145 C 0.14031 0.31686 0.67204 0.0
C146 C 0.13713 0.24372 0.64309 0.0
C147 C 0.18925 0.262 0.65062 0.0
C148 C 0.19243 0.3356 0.67936 0.0
C149 C 0.21671 0.30822 0.669 0.0
C150 C 0.89027 0.23446 0.68287 0.0
C151 C 0.91975 0.32256 0.61865 0.0
C152 C 0.772 0.22663 0.5819 0.0
C153 C 0.71973 0.18739 0.56989 0.0
C154 C 0.71389 0.15893 0.54044 0.0
C155 C 0.67515 0.17796 0.58804 0.0
C156 C 0.62498 0.14165 0.5764 0.0
C157 C 0.665 0.12243 0.5291 0.0
C158 C 0.62108 0.11425 0.54651 0.0
C159 C 0.94732 0.24669 0.55102 0.0
H160 H 0.12188 0.33822 0.68046 0.0
H161 H 0.1153 0.20768 0.62942 0.0
H162 H 0.214 0.37124 0.69335 0.0
H163 H 0.25696 0.32324 0.67526 0.0
H164 H 0.74703 0.16498 0.52588 0.0
H165 H 0.67999 0.19929 0.61108 0.0
H166 H 0.66104 0.10107 0.50618 0.0
H167 H 0.5841 0.08748 0.53553 0.0
Gd168 Gd 0.7406 0.97092 0.13937 0.0
Gd169 Gd 0.67595 0.84684 0.09186 0.0
C170 C 0.74798 0.7517 0.05592 0.0
C171 C 0.74425 0.75792 0.99523 0.0
C172 C 0.71847 0.80674 0.03151 0.0
C173 C 0.72962 0.78679 0.0596 0.0
C174 C 0.72437 0.79137 -0.00103 0.0
C175 C 0.75679 0.73872 0.02361 0.0
C176 C 0.75309 0.72755 0.08466 0.0
C177 C 0.73785 0.7368 0.11583 0.0
N178 N 0.71706 0.79711 0.09034 0.0
C179 C 0.71929 0.77128 0.11814 0.0
H180 H 0.70682 0.77702 0.14237 0.0
C181 C 0.67423 0.84718 0.00923 0.0
N182 N 0.69457 0.8347 0.0361 0.0
C183 C 0.68104 0.8347 0.97645 0.0
C184 C 0.70618 0.80661 0.97131 0.0
H185 H 0.65266 0.86691 0.01325 0.0
H186 H 0.7705 0.7116 0.02027 0.0
H187 H 0.69756 0.04227 0.10068 0.0
H188 H 0.76679 0.70023 0.08287 0.0
H189 H 0.73959 0.71684 0.13807 0.0
H190 H 0.74745 0.74439 0.97059 0.0
H191 H 0.78476 0.95351 0.21393 0.0
H192 H 0.62676 0.09216 0.17338 0.0
H193 H 0.64955 0.08666 0.11421 0.0
H194 H 0.6692 0.0429 0.27821 0.0
H195 H 0.66546 0.8453 0.95526 0.0
H196 H 0.70898 0.79467 0.94611 0.0
H197 H 0.63405 0.07536 0.23461 0.0
H198 H 0.77562 0.96493 0.27416 0.0
N199 N 0.69904 1.01888 0.15097 0.0
C200 C 0.64729 0.07185 0.16743 0.0
C201 C 0.66006 0.06882 0.13406 0.0
C202 C 0.66323 0.05057 0.19286 0.0
C203 C 0.68988 1.02452 0.18368 0.0
C204 C 0.68686 0.04289 0.12638 0.0
N205 N 0.73748 0.98445 0.19799 0.0
C206 C 0.71009 1.00702 0.20805 0.0
C207 C 0.75702 0.97705 0.25583 0.0
C208 C 0.72675 0.99786 0.26643 0.0
C209 C 0.76219 0.97078 0.22138 0.0
C210 C 0.70361 1.01402 0.24248 0.0
H211 H 0.72171 1.00167 0.29304 0.0
O212 O 0.82277 1.01703 0.1501 0.0
O213 O 0.74898 0.90786 0.11402 0.0
O214 O 0.67817 0.83854 0.1499 0.0
O215 O 0.68086 0.91137 0.17312 0.0
O216 O 0.79251 0.94005 0.15637 0.0
O217 O 0.78766 0.04327 0.11312 0.0
O218 O 0.59998 0.79359 0.07105 0.0
O219 O 0.66691 0.90854 0.11634 0.0
O220 O 0.72734 0.98425 0.08562 0.0
O221 O 0.72801 0.91687 0.05675 0.0
O222 O 0.62047 0.87271 0.07497 0.0
O223 O 0.62342 0.77451 0.11758 0.0
C224 C 0.78275 0.90693 0.13287 0.0
C225 C 0.67498 0.03761 0.25188 0.0
C226 C 0.65489 0.05597 0.22707 0.0
C227 C 0.82984 0.05333 0.12904 0.0
C228 C 0.86395 0.1068 0.14015 0.0
C229 C 0.84365 0.13789 0.15033 0.0
C230 C 0.91781 0.12733 0.13946 0.0
C231 C 0.95201 0.17947 0.14802 0.0
C232 C 0.87674 0.18926 0.15899 0.0
C233 C 0.93014 0.21001 0.15764 0.0
C234 C 0.67183 0.86358 0.17572 0.0
C235 C 0.63163 0.90736 0.09775 0.0
C236 C 0.58895 0.75784 0.09367 0.0
C237 C 0.57114 0.70445 0.08089 0.0
C238 C 0.59628 0.69784 0.05316 0.0
C239 C 0.52919 0.65991 0.09564 0.0
C240 C 0.51337 0.60973 0.08259 0.0
C241 C 0.58271 0.64887 0.04133 0.0
C242 C 0.54203 0.60526 0.05599 0.0
C243 C 0.73594 0.96523 0.05806 0.0
H244 H 0.80233 0.12265 0.15124 0.0
H245 H 0.93256 0.10217 0.13234 0.0
H246 H 0.86095 0.2134 0.16646 0.0
H247 H 0.9537 0.25044 0.16372 0.0
H248 H 0.62619 0.73064 0.04024 0.0
H249 H 0.50818 0.66448 0.11632 0.0
H250 H 0.60342 0.64474 0.02029 0.0
H251 H 0.53251 0.56778 0.04603 0.0
Gd252 Gd 0.82478 0.75259 0.62243 0.0
Gd253 Gd 0.87964 0.67623 0.59251 0.0
C254 C 0.05568 0.76523 0.60386 0.0
C255 C 0.08265 0.82308 0.55584 0.0
C256 C 0.99181 0.75977 0.56398 0.0
C257 C 1.00376 0.74374 0.59356 0.0
C258 C 1.03152 0.79853 0.5442 0.0
C259 C 0.09477 0.80612 0.5855 0.0
C260 C 0.06685 0.74452 0.63205 0.0
C261 C 1.02684 0.70278 0.64882 0.0
N262 N 0.96483 0.70595 0.61173 0.0
C263 C 0.97598 0.68333 0.63793 0.0
H264 H 0.94587 0.64977 0.65054 0.0
C265 C 0.93138 0.74105 0.52067 0.0
N266 N 0.94194 0.73502 0.55343 0.0
C267 C 0.96915 0.7793 0.50019 0.0
C268 C 1.01916 0.80945 0.51245 0.0
H269 H 0.8945 0.71569 0.50933 0.0
H270 H 0.13457 0.8239 0.59361 0.0
H271 H 0.79696 0.8196 0.56589 0.0
H272 H 0.10625 0.7595 0.64047 0.0
H273 H 1.03516 0.68532 0.67002 0.0
H274 H 0.11338 0.85329 0.54113 0.0
H275 H 0.77149 0.67699 0.69258 0.0
H276 H 0.63793 0.72741 0.53847 0.0
H277 H 0.72346 0.80556 0.53038 0.0
H278 H 0.57073 0.59851 0.62467 0.0
H279 H 0.95989 0.78463 0.47467 0.0
H280 H 0.04859 0.83852 0.49636 0.0
H281 H 0.58092 0.65079 0.57434 0.0
H282 H 0.6872 0.60852 0.71114 0.0
N283 N 0.75501 0.74747 0.59128 0.0
C284 C 0.67022 0.73347 0.554 0.0
C285 C 0.71833 0.77746 0.54934 0.0
C286 C 0.66368 0.6994 0.58013 0.0
C287 C 0.70734 0.70813 0.59899 0.0
C288 C 0.76008 0.78484 0.5692 0.0
N289 N 0.74425 0.69073 0.64602 0.0
C290 C 0.70164 0.67926 0.62748 0.0
C291 C 0.69073 0.62778 0.68737 0.0
C292 C 0.64715 0.61376 0.66763 0.0
C293 C 0.73902 0.66679 0.67638 0.0
C294 C 0.65205 0.64012 0.63756 0.0
H295 H 0.60982 0.58341 0.6762 0.0
O296 O 0.80982 0.78588 0.66721 0.0
O297 O 0.89707 0.74802 0.61966 0.0
O298 O 0.88011 0.67195 0.65 0.0
O299 O 0.85187 0.72813 0.66817 0.0
O300 O 0.90419 0.81781 0.60759 0.0
O301 O 0.84903 0.83386 0.62433 0.0
O302 O 0.88082 0.62981 0.55028 0.0
O303 O 0.80386 0.6741 0.59969 0.0
O304 O 0.84002 0.76749 0.56768 0.0
O305 O 0.83179 0.68971 0.55103 0.0
O306 O 0.81195 0.61365 0.61897 0.0
O307 O 0.87612 0.60252 0.60094 0.0
C308 C 0.9297 0.7941 0.61204 0.0
C309 C 0.60892 0.62899 0.6176 0.0
C310 C 0.61474 0.65856 0.58888 0.0
C311 C 0.82886 0.83156 0.6536 0.0
C312 C 0.80047 0.8602 0.65647 0.0
C313 C 0.74964 0.83671 0.66855 0.0
C314 C 0.82547 0.91274 0.64704 0.0
C315 C 0.80053 0.94194 0.65017 0.0
C316 C 0.72462 0.86546 0.67167 0.0
C317 C 0.7499 0.91775 0.66281 0.0
C318 C 0.86793 0.69483 0.67406 0.0
C319 C 0.77986 0.62983 0.61412 0.0
C320 C 0.88291 0.59553 0.56956 0.0
C321 C 0.92341 0.5815 0.56273 0.0
C322 C 0.96754 0.61448 0.54395 0.0
C323 C 0.91856 0.53509 0.5757 0.0
C324 C 0.95695 0.52138 0.56954 0.0
C325 C 1.00546 0.60124 0.53775 0.0
C326 C 1.00026 0.55518 0.55029 0.0
C327 C 0.82968 0.73263 0.54449 0.0
H328 H 0.72931 0.79633 0.67566 0.0
H329 H 0.86484 0.9312 0.63784 0.0
H330 H 0.68548 0.84718 0.68112 0.0
H331 H 0.72971 0.93917 0.66556 0.0
H332 H 0.97285 0.65061 0.53413 0.0
H333 H 0.88463 0.50945 0.59024 0.0
H334 H 1.03928 0.62694 0.5232 0.0
H335 H 1.03068 0.54642 0.54534 0.0
Gd336 Gd 0.08562 0.76781 0.1334 0.0
Gd337 Gd 0.2161 0.82168 0.09654 0.0
C338 C 0.23979 0.87885 0.9876 0.0
C339 C 0.23888 0.80799 0.9571 0.0
C340 C 0.23024 0.80421 0.01829 0.0
C341 C 0.23336 0.85212 0.01814 0.0
C342 C 0.23382 0.78211 0.98764 0.0
C343 C 0.24202 0.85629 0.95711 0.0
C344 C 0.24409 0.92766 0.98862 0.0
C345 C 0.24276 0.94902 0.01961 0.0
N346 N 0.22937 0.87234 0.04798 0.0
C347 C 0.23579 0.92087 0.04917 0.0
H348 H 0.23664 0.93829 0.07291 0.0
C349 C 0.22852 0.73594 0.04926 0.0
N350 N 0.22527 0.77998 0.0483 0.0
C351 C 0.2314 0.71238 0.01955 0.0
C352 C 0.23323 0.73509 0.98857 0.0
H353 H 0.22986 0.71861 0.07265 0.0
H354 H 0.24673 0.87617 0.93346 0.0
H355 H 1.03559 0.65062 0.10015 0.0
H356 H 0.24929 0.94947 0.96571 0.0
H357 H 0.24743 0.98731 0.02078 0.0
H358 H 0.24127 0.79135 0.93337 0.0
H359 H 0.09022 0.83783 0.20069 0.0
H360 H 0.96799 0.53802 0.1786 0.0
H361 H 0.99137 0.55951 0.11855 0.0
H362 H 0.98411 0.64104 0.27575 0.0
H363 H 0.23285 0.67693 0.02065 0.0
H364 H 0.23577 0.71685 0.96561 0.0
H365 H 0.96523 0.56887 0.23732 0.0
H366 H 0.06347 0.82464 0.25977 0.0
N367 N 1.0409 0.6804 0.1494 0.0
C368 C 0.98825 0.57805 0.17068 0.0
C369 C 1.00143 0.59003 0.1368 0.0
C370 C 1.00008 0.6179 0.19375 0.0
C371 C 1.02663 0.66929 0.18207 0.0
C372 C 1.02715 0.64169 0.1265 0.0
N373 N 0.06221 0.75812 0.19085 0.0
C374 C 1.03709 0.70952 0.2035 0.0
C375 C 0.05602 0.79179 0.24444 0.0
C376 C 1.03169 0.74211 0.25812 0.0
C377 C 0.0709 0.79913 0.21062 0.0
C378 C 1.02158 0.70008 0.23752 0.0
H379 H 1.02047 0.73657 0.28441 0.0
O380 O 0.0432 0.80881 0.12405 0.0
O381 O 0.16022 0.83745 0.12014 0.0
O382 O 0.21763 0.83519 0.15402 0.0
O383 O 0.13758 0.77315 0.17582 0.0
O384 O 0.10808 0.85282 0.1417 0.0
O385 O 1.01 0.72957 0.10921 0.0
O386 O 0.2917 0.82929 0.1027 0.0
O387 O 0.14255 0.74779 0.10855 0.0
O388 O 0.09037 0.74308 0.08118 0.0
O389 O 0.15386 0.81903 0.06045 0.0
O390 O 0.2108 0.7511 0.12045 0.0
O391 O 0.28318 0.89677 0.10821 0.0
C392 C 0.15385 0.87408 0.1294 0.0
C393 C 0.99613 0.64912 0.24966 0.0
C394 C 0.98545 0.60806 0.22779 0.0
C395 C 1.00256 0.7688 0.11211 0.0
C396 C 0.95166 0.7588 0.12525 0.0
C397 C 0.9206 0.71335 0.14347 0.0
C398 C 0.93369 0.79437 0.11993 0.0
C399 C 0.88547 0.78436 0.13323 0.0
C400 C 0.87283 0.7029 0.15585 0.0
C401 C 0.85549 0.73784 0.15085 0.0
C402 C 0.1872 0.80719 0.17952 0.0
C403 C 0.1615 0.72123 0.12055 0.0
C404 C 0.31543 0.87912 0.1075 0.0
C405 C 0.36488 0.90917 0.08891 0.0
C406 C 0.36561 0.93155 0.05783 0.0
C407 C 0.41107 0.91238 0.10111 0.0
C408 C 0.45744 0.93636 0.08179 0.0
C409 C 0.41042 0.95517 0.03865 0.0
C410 C 0.45531 0.95682 0.05004 0.0
C411 C 0.10747 0.77755 0.05712 0.0
H412 H 0.93322 0.68568 0.14824 0.0
H413 H 0.95758 0.82998 0.10639 0.0
H414 H 0.8492 0.66763 0.16975 0.0
H415 H 0.81843 0.72855 0.16122 0.0
H416 H 0.33136 0.92998 0.04787 0.0
H417 H 0.4101 0.89557 0.1254 0.0
H418 H 0.41006 0.97131 0.0143 0.0
H419 H 0.48765 0.97312 0.03293 0.0
Gd420 Gd 0.33206 0.08948 0.63631 0.0
Gd421 Gd 0.4096 0.21492 0.59596 0.0
C422 C 0.3441 0.31496 0.55845 0.0
C423 C 0.35758 0.31626 0.4981 0.0
C424 C 0.37717 0.2627 0.53441 0.0
C425 C 0.3619 0.27946 0.56221 0.0
C426 C 0.37543 0.28116 0.50198 0.0
C427 C 0.34165 0.33291 0.52623 0.0
C428 C 0.33209 0.33362 0.58736 0.0
C429 C 0.34078 0.31921 0.61902 0.0
N430 N 0.36827 0.26429 0.59315 0.0
C431 C 0.36005 0.28527 0.62143 0.0
H432 H 0.36839 0.27588 0.64603 0.0
C433 C 0.4187 0.21917 0.51283 0.0
N434 N 0.39762 0.23166 0.53937 0.0
C435 C 0.41571 0.2346 0.48006 0.0
C436 C 0.39392 0.26572 0.47459 0.0
H437 H 0.43777 0.19703 0.51697 0.0
H438 H 0.32845 0.36042 0.52283 0.0
H439 H 0.22999 1.00899 0.59086 0.0
H440 H 0.31802 0.36064 0.58552 0.0
H441 H 0.33354 0.3349 0.64158 0.0
H442 H 0.35619 0.33094 0.47345 0.0
H443 H 0.43664 0.10951 0.68063 0.0
H444 H 0.22898 0.86596 0.58205 0.0
H445 H 0.18806 0.91881 0.57103 0.0
H446 H 0.38397 0.89908 0.63878 0.0
H447 H 0.43148 0.22362 0.45918 0.0
H448 H 0.39309 0.27899 0.44931 0.0
H449 H 0.30357 0.85967 0.60568 0.0
H450 H 0.48211 0.06244 0.6946 0.0
N451 N 0.29586 1.00833 0.61046 0.0
C452 C 0.24844 0.90603 0.58964 0.0
C453 C 0.22497 0.93556 0.58364 0.0
C454 C 0.29573 0.92792 0.60664 0.0
C455 C 0.31826 0.97959 0.61754 0.0
C456 C 0.24896 0.98671 0.5947 0.0
N457 N 0.38072 0.04974 0.64937 0.0
C458 C 0.36254 1.00129 0.63707 0.0
C459 C 0.44849 0.04475 0.67841 0.0
C460 C 0.43075 0.99522 0.66555 0.0
C461 C 0.42242 0.07131 0.67044 0.0
C462 C 0.38682 0.97253 0.64502 0.0
H463 H 0.45069 0.97453 0.67208 0.0
O464 O 0.30839 0.05212 0.68536 0.0
O465 O 0.33927 0.16615 0.62516 0.0
O466 O 0.41255 0.22484 0.65401 0.0
O467 O 0.37798 0.14282 0.67794 0.0
O468 O 0.27135 0.10243 0.61116 0.0
O469 O 0.25357 0.06017 0.65454 0.0
O470 O 0.49177 0.25927 0.58346 0.0
O471 O 0.413 0.15038 0.62226 0.0
O472 O 0.34193 0.0741 0.58309 0.0
O473 O 0.3566 0.15014 0.55696 0.0
O474 O 0.45129 0.17619 0.57656 0.0
O475 O 0.4592 0.29378 0.6147 0.0
C476 C 0.29512 0.15197 0.61331 0.0
C477 C 0.36583 0.92175 0.63295 0.0
C478 C 0.32011 0.89933 0.61406 0.0
C479 C 0.25965 0.03628 0.67987 0.0
C480 C 0.22257 0.97959 0.68186 0.0
C481 C 0.23886 0.94669 0.69546 0.0
C482 C 0.1718 0.95744 0.66845 0.0
C483 C 0.13816 0.9032 0.66851 0.0
C484 C 0.20619 0.89338 0.69532 0.0
C485 C 0.15661 0.87182 0.68193 0.0
C486 C 0.4028 0.19355 0.6804 0.0
C487 C 0.4417 0.1445 0.60109 0.0
C488 C 0.49981 0.30159 0.59818 0.0
C489 C 0.52748 0.35075 0.57842 0.0
C490 C 0.51847 0.3499 0.54373 0.0
C491 C 0.56353 0.39854 0.59367 0.0
C492 C 0.59122 0.44467 0.5741 0.0
C493 C 0.54455 0.39447 0.52445 0.0
C494 C 0.58077 0.44095 0.53919 0.0
C495 C 0.34262 0.09974 0.55604 0.0
H496 H 0.27733 0.96201 0.70575 0.0
H497 H 0.15858 0.98234 0.6581 0.0
H498 H 0.21953 0.86849 0.70548 0.0
H499 H 0.13286 0.83019 0.68188 0.0
H500 H 0.49184 0.31449 0.53122 0.0
H501 H 0.56986 0.39926 0.62055 0.0
H502 H 0.53744 0.39274 0.4976 0.0
H503 H 0.6016 0.47344 0.52251 0.0
Gd504 Gd 0.74127 0.76959 0.36114 0.0
Gd505 Gd 0.66179 0.8211 0.39687 0.0
C506 C 0.68881 0.87406 0.50665 0.0
C507 C 0.61202 0.80729 0.53425 0.0
C508 C 0.62335 0.80275 0.4737 0.0
C509 C 0.66984 0.849 0.47542 0.0
C510 C 0.59377 0.78182 0.50325 0.0
C511 C 0.65961 0.85304 0.53599 0.0
C512 C 0.73699 0.91921 0.50751 0.0
C513 C 0.7634 0.94034 0.47751 0.0
N514 N 0.69743 0.86879 0.44661 0.0
C515 C 0.74224 0.91516 0.44709 0.0
H516 H 0.7619 0.93236 0.42414 0.0
C517 C 0.55938 0.73492 0.4409 0.0
N518 N 0.60677 0.77863 0.44332 0.0
C519 C 0.52919 0.71259 0.46954 0.0
C520 C 0.54657 0.73588 0.50088 0.0
H521 H 0.54331 0.71688 0.41714 0.0
H522 H 0.67357 0.87177 0.56018 0.0
H523 H 0.6736 0.65038 0.39169 0.0
H524 H 0.75404 0.93828 0.53111 0.0
H525 H 0.79996 0.97613 0.47778 0.0
H526 H 0.58985 0.79154 0.55712 0.0
H527 H 0.80685 0.84359 0.2955 0.0
H528 H 0.63851 0.54192 0.31159 0.0
H529 H 0.63108 0.56031 0.37154 0.0
H530 H 0.72836 0.65044 0.21724 0.0
H531 H 0.4921 0.67763 0.46731 0.0
H532 H 0.5229 0.71852 0.52299 0.0
H533 H 0.67535 0.57595 0.254 0.0
H534 H 0.82339 0.83389 0.23638 0.0
N535 N 0.70171 0.68288 0.34343 0.0
C536 C 0.65654 0.58156 0.32026 0.0
C537 C 0.6522 0.59178 0.35408 0.0
C538 C 0.68516 0.62266 0.29823 0.0
C539 C 0.70771 0.67347 0.31087 0.0
C540 C 0.67578 0.64294 0.36535 0.0
N541 N 0.75845 0.76292 0.30391 0.0
C542 C 0.73758 0.71493 0.29044 0.0
C543 C 0.7991 0.79993 0.25113 0.0
C544 C 0.77656 0.75078 0.23666 0.0
C545 C 0.78986 0.80531 0.28496 0.0
C546 C 0.74569 0.70741 0.25643 0.0
H547 H 0.7831 0.74663 0.21035 0.0
O548 O 0.82443 0.80918 0.37082 0.0
O549 O 0.73501 0.83897 0.37439 0.0
O550 O 0.67492 0.8346 0.33932 0.0
O551 O 0.69494 0.77346 0.31817 0.0
O552 O 0.8039 0.8552 0.35502 0.0
O553 O 0.77638 0.73152 0.38824 0.0
O554 O 0.59442 0.82945 0.38878 0.0
O555 O 0.66323 0.74872 0.38388 0.0
O556 O 0.70719 0.74006 0.41188 0.0
O557 O 0.71768 0.81403 0.43481 0.0
O558 O 0.59783 0.75087 0.3716 0.0
O559 O 0.67056 0.89706 0.38718 0.0
C560 C 0.77846 0.87617 0.36626 0.0
C561 C 0.72272 0.65703 0.24335 0.0
C562 C 0.6925 0.61467 0.26426 0.0
C563 C 0.82351 0.76934 0.38451 0.0
C564 C 0.86271 0.75622 0.37251 0.0
C565 C 0.84668 0.7091 0.35586 0.0
C566 C 0.91639 0.79081 0.37714 0.0
C567 C 0.95321 0.7784 0.36457 0.0
C568 C 0.8828 0.69638 0.34413 0.0
C569 C 0.93541 0.73063 0.34828 0.0
C570 C 0.67817 0.80651 0.31408 0.0
C571 C 0.61854 0.72209 0.37095 0.0
C572 C 0.62071 0.8796 0.38604 0.0
C573 C 0.59965 0.90804 0.40509 0.0
C574 C 0.62043 0.92916 0.43664 0.0
C575 C 0.55673 0.91167 0.39285 0.0
C576 C 0.53421 0.93537 0.41247 0.0
C577 C 0.59849 0.95165 0.45626 0.0
C578 C 0.55569 0.954 0.44473 0.0
C579 C 0.72226 0.77214 0.43726 0.0
H580 H 0.80611 0.682 0.35169 0.0
H581 H 0.92935 0.82766 0.38944 0.0
H582 H 0.86996 0.65999 0.3313 0.0
H583 H 0.96244 0.72 0.33819 0.0
H584 H 0.65321 0.92757 0.44655 0.0
H585 H 0.54116 0.89589 0.36826 0.0
H586 H 0.61427 0.96667 0.48096 0.0
H587 H 0.53906 0.96963 0.46199 0.0
Gd588 Gd 1.00776 0.7547 0.86727 0.0
Gd589 Gd 0.87293 0.67983 0.89193 0.0
C590 C 0.74858 0.71195 0.85167 0.0
C591 C 0.75916 0.78226 0.88759 0.0
C592 C 0.81525 0.74563 0.89462 0.0
C593 C 0.79064 0.71216 0.86802 0.0
C594 C 0.79951 0.78094 0.90475 0.0
C595 C 0.73338 0.74749 0.86138 0.0
C596 C 0.72215 0.67521 0.82656 0.0
C597 C 0.7364 0.63845 0.81922 0.0
N598 N 0.80636 0.67841 0.859 0.0
C599 C 0.77783 0.63976 0.83637 0.0
H600 H 0.78755 0.61006 0.83127 0.0
C601 C 0.87703 0.77375 0.93837 0.0
N602 N 0.85432 0.74356 0.91072 0.0
C603 C 0.86329 0.80987 0.94899 0.0
C604 C 0.82496 0.8141 0.93176 0.0
H605 H 0.90543 0.77013 0.95269 0.0
H606 H 0.70161 0.74831 0.84884 0.0
H607 H 1.03729 0.70618 0.9341 0.0
H608 H 0.68973 0.6739 0.81344 0.0
H609 H 0.71508 0.60867 0.80069 0.0
H610 H 0.74768 0.8102 0.89424 0.0
H611 H 1.04054 0.79572 0.78779 0.0
H612 H 0.10761 0.62053 0.89921 0.0
H613 H 0.07597 0.65185 0.94614 0.0
H614 H 0.12703 0.65611 0.7807 0.0
H615 H 0.88207 0.83418 0.97062 0.0
H616 H 0.8145 0.84223 0.93998 0.0
H617 H 0.12565 0.62157 0.83723 0.0
H618 H 0.08043 0.77798 0.73871 0.0
N619 N 0.04539 0.70446 0.88117 0.0
C620 C 0.09049 0.64427 0.89385 0.0
C621 C 0.07282 0.66198 0.92041 0.0
C622 C 0.08774 0.65917 0.86083 0.0
C623 C 0.06513 0.69015 0.85527 0.0
C624 C 0.05076 0.69269 0.91356 0.0
N625 N 0.04685 0.74194 0.81966 0.0
C626 C 0.06596 0.70958 0.8235 0.0
C627 C 0.07625 0.75821 0.76233 0.0
C628 C 0.09339 0.72263 0.7653 0.0
C629 C 0.05385 0.76824 0.79012 0.0
C630 C 0.08933 0.69859 0.79634 0.0
H631 H 0.11105 0.71518 0.7438 0.0
O632 O 0.05959 0.83533 0.85365 0.0
O633 O 0.93655 0.75834 0.8789 0.0
O634 O 0.87874 0.68333 0.83466 0.0
O635 O 0.96433 0.70806 0.82178 0.0
O636 O 0.97826 0.79686 0.83566 0.0
O637 O 0.07696 0.80258 0.89673 0.0
O638 O 0.8294 0.65144 0.93858 0.0
O639 O 0.94745 0.6786 0.89062 0.0
O640 O 0.9938 0.7744 0.91901 0.0
O641 O 0.92613 0.69875 0.93852 0.0
O642 O 0.88277 0.61685 0.86913 0.0
O643 O 0.80797 0.60081 0.89565 0.0
C644 C 0.93843 0.78589 0.85394 0.0
C645 C 0.10941 0.66548 0.80133 0.0
C646 C 0.10861 0.64579 0.83352 0.0
C647 C 0.09142 0.84368 0.87834 0.0
C648 C 0.14727 0.87738 0.87178 0.0
C649 C 0.17932 0.8563 0.86672 0.0
C650 C 0.16914 0.93168 0.87222 0.0
C651 C 0.22306 0.96516 0.8684 0.0
C652 C 0.23241 0.88873 0.86285 0.0
C653 C 0.25418 0.94241 0.86408 0.0
C654 C 0.91548 0.68939 0.81337 0.0
C655 C 0.93036 0.63401 0.87734 0.0
C656 C 0.79343 0.60885 0.92479 0.0
C657 C 0.73878 0.59781 0.92739 0.0
C658 C 0.72863 0.63459 0.9422 0.0
C659 C 0.69649 0.55156 0.91445 0.0
C660 C 0.64504 0.54235 0.91673 0.0
C661 C 0.67846 0.62614 0.94398 0.0
C662 C 0.63715 0.58067 0.93144 0.0
C663 C 0.97113 0.74173 0.94361 0.0
H664 H 0.16342 0.81483 0.86625 0.0
H665 H 0.1438 0.9475 0.87546 0.0
H666 H 0.25705 0.87215 0.85947 0.0
H667 H 0.2957 0.96588 0.86211 0.0
H668 H 0.75958 0.67039 0.95228 0.0
H669 H 0.70355 0.52265 0.90318 0.0
H670 H 0.67146 0.65509 0.95521 0.0
H671 H 0.59878 0.57568 0.93309 0.0
Gd672 Gd 0.28089 0.9731 0.35633 0.0
Gd673 Gd 0.232 0.84944 0.40121 0.0
C674 C 0.06893 0.7416 0.44031 0.0
C675 C 0.08343 0.74117 0.50044 0.0
C676 C 0.15428 0.79714 0.4633 0.0
C677 C 0.12144 0.77917 0.43591 0.0
C678 C 0.13589 0.7773 0.49581 0.0
C679 C 0.04985 0.72387 0.47282 0.0
C680 C 1.03795 0.72031 0.41177 0.0
C681 C 0.06013 0.73442 0.37987 0.0
N682 N 0.1418 0.79472 0.40468 0.0
C683 C 0.11245 0.77109 0.37681 0.0
H684 H 0.12919 0.78071 0.35197 0.0
C685 C 0.24009 0.84263 0.48336 0.0
N686 N 0.2052 0.8299 0.4577 0.0
C687 C 0.22372 0.82435 0.51596 0.0
C688 C 0.17133 0.79186 0.52232 0.0
H689 H 0.2809 0.86561 0.4785 0.0
H690 H 1.00969 0.69513 0.47667 0.0
H691 H 0.38708 0.04535 0.40309 0.0
H692 H 0.99752 0.69137 0.41408 0.0
H693 H 1.03722 0.71662 0.35758 0.0
H694 H 0.06873 0.72536 0.52517 0.0
H695 H 0.22923 0.96074 0.27935 0.0
H696 H 0.51822 0.11394 0.33806 0.0
H697 H 0.48076 0.09885 0.39528 0.0
H698 H 0.44295 0.07166 0.22781 0.0
H699 H 0.25186 0.83389 0.5358 0.0
H700 H 0.15895 0.77651 0.54744 0.0
H701 H 0.50375 0.10304 0.2755 0.0
H702 H 0.25804 0.9814 0.22053 0.0
N703 N 0.37099 1.02716 0.35103 0.0
C704 C 0.47691 0.08981 0.34136 0.0
C705 C 0.45591 0.08145 0.37366 0.0
C706 C 0.44405 0.06887 0.31361 0.0
C707 C 0.39053 0.0378 0.31936 0.0
C708 C 0.40255 0.05052 0.37799 0.0
N709 N 0.30531 0.99375 0.29943 0.0
C710 C 0.35653 1.02071 0.29265 0.0
C711 C 0.28622 0.99263 0.24054 0.0
C712 C 0.33886 1.01822 0.23308 0.0
C713 C 0.27003 0.98104 0.27404 0.0
C714 C 0.37479 0.03339 0.2593 0.0
H715 H 0.35151 1.02703 0.20717 0.0
O716 O 0.23715 1.01082 0.34304 0.0
O717 O 0.21216 0.90673 0.38129 0.0
O718 O 0.22173 0.84138 0.34331 0.0
O719 O 0.28617 0.91832 0.32036 0.0
O720 O 0.19934 0.9333 0.33638 0.0
O721 O 0.29879 0.04589 0.37976 0.0
O722 O 0.26928 0.80512 0.41446 0.0
O723 O 0.30106 0.9149 0.37669 0.0
O724 O 0.29765 0.98742 0.41161 0.0
O725 O 0.23899 0.91152 0.43932 0.0
O726 O 0.3131 0.88624 0.42082 0.0
O727 O 0.20788 0.7741 0.37806 0.0
C728 C 0.17738 0.90119 0.36063 0.0
C729 C 0.42815 0.06193 0.25328 0.0
C730 C 0.46276 0.07971 0.28042 0.0
C731 C 0.26345 0.04995 0.36298 0.0
C732 C 0.27731 0.10114 0.34958 0.0
C733 C 0.32434 0.13137 0.33298 0.0
C734 C 0.24279 0.11994 0.35364 0.0
C735 C 0.2553 0.16923 0.34152 0.0
C736 C 0.33724 0.18025 0.32107 0.0
C737 C 0.30335 0.19921 0.32546 0.0
C738 C 0.25098 0.86907 0.31746 0.0
C739 C 0.33578 0.92028 0.39765 0.0
C740 C 0.23699 0.76425 0.39739 0.0
C741 C 0.21116 0.71399 0.41599 0.0
C742 C 0.20589 0.71444 0.45111 0.0
C743 C 0.19186 0.66555 0.39943 0.0
C744 C 0.16755 0.61849 0.41809 0.0
C745 C 0.1815 0.66886 0.46941 0.0
C746 C 0.16288 0.62158 0.45329 0.0
C747 C 0.27138 0.96268 0.43861 0.0
H748 H 0.35114 0.11734 0.32946 0.0
H749 H 0.20613 0.09589 0.36603 0.0
H750 H 0.3739 0.20381 0.30862 0.0
H751 H 0.31546 0.23794 0.31684 0.0
H752 H 0.22143 0.75017 0.4648 0.0
H753 H 0.1961 0.66467 0.37238 0.0
H754 H 0.17809 0.67025 0.49651 0.0
H755 H 0.14663 0.5875 0.46902 0.0
Gd756 Gd 0.3539 0.29605 0.86321 0.0
Gd757 Gd 0.42949 0.24214 0.90211 0.0
C758 C 0.39281 0.1798 0.00976 0.0
C759 C 0.45934 0.25076 0.04218 0.0
C760 C 0.45722 0.25707 0.98099 0.0
C761 C 0.4138 0.20821 0.97985 0.0
C762 C 0.48075 0.27848 0.01231 0.0
C763 C 0.41557 0.20151 0.0409 0.0
C764 C 0.34963 0.13025 0.00749 0.0
C765 C 0.32897 0.10986 0.97591 0.0
N766 N 0.39144 0.1888 0.94944 0.0
C767 C 0.3508 0.13968 0.94704 0.0
H768 H 0.33635 0.12277 0.92286 0.0
C769 C 0.52247 0.32912 0.95198 0.0
N770 N 0.47695 0.28318 0.95161 0.0
C771 C 0.54683 0.35194 0.98239 0.0
C772 C 0.52555 0.32687 0.01271 0.0
H773 H 0.54136 0.34861 0.92918 0.0
H774 H 0.39983 0.18034 0.06409 0.0
H775 H 0.41873 0.41498 0.89352 0.0
H776 H 0.33255 0.10714 0.02986 0.0
H777 H 0.29656 0.07098 0.97374 0.0
H778 H 0.47674 0.26682 0.0664 0.0
H779 H 0.29765 0.22033 0.79591 0.0
H780 H 0.45953 0.5226 0.81218 0.0
H781 H 0.46239 0.5051 0.87292 0.0
H782 H 0.37967 0.41255 0.71641 0.0
H783 H 0.58239 0.38872 0.98235 0.0
H784 H 0.54469 0.34463 0.03622 0.0
H785 H 0.42792 0.48765 0.75378 0.0
H786 H 0.28914 0.22897 0.73532 0.0
N787 N 0.39484 0.38222 0.84491 0.0
C788 C 0.44107 0.48309 0.82109 0.0
C789 C 0.44288 0.47337 0.85536 0.0
C790 C 0.41457 0.44163 0.79884 0.0
C791 C 0.39133 0.39104 0.8118 0.0
C792 C 0.41882 0.42237 0.86692 0.0
N793 N 0.34235 0.30133 0.80477 0.0
C794 C 0.36375 0.34916 0.79101 0.0
C795 C 0.30945 0.26329 0.75063 0.0
C796 C 0.33182 0.3123 0.73602 0.0
C797 C 0.31438 0.25849 0.78524 0.0
C798 C 0.35919 0.3561 0.7563 0.0
H799 H 0.32818 0.31588 0.70913 0.0
O800 O 0.27005 0.25839 0.86873 0.0
O801 O 0.3579 0.22636 0.87808 0.0
O802 O 0.41758 0.2283 0.84454 0.0
O803 O 0.40521 0.29397 0.8229 0.0
O804 O 0.29065 0.21101 0.85613 0.0
O805 O 0.31779 0.33564 0.88724 0.0
O806 O 0.49846 0.23525 0.89883 0.0
O807 O 0.42978 0.31568 0.88907 0.0
O808 O 0.38098 0.32103 0.916 0.0
O809 O 0.37012 0.2458 0.93789 0.0
O810 O 0.49583 0.31297 0.87938 0.0
O811 O 0.42336 0.16875 0.888 0.0
C812 C 0.31472 0.18976 0.86917 0.0
C813 C 0.38265 0.40635 0.74302 0.0
C814 C 0.41022 0.44908 0.76428 0.0
C815 C 0.27071 0.29856 0.88174 0.0
C816 C 0.2335 0.31291 0.86752 0.0
C817 C 0.25177 0.35824 0.84843 0.0
C818 C 0.17946 0.28135 0.87272 0.0
C819 C 0.1443 0.29503 0.85859 0.0
C820 C 0.21753 0.37241 0.83512 0.0
C821 C 0.16453 0.34136 0.84015 0.0
C822 C 0.41831 0.25812 0.81913 0.0
C823 C 0.47557 0.3421 0.87772 0.0
C824 C 0.47306 0.18628 0.89097 0.0
C825 C 0.49073 0.15261 0.90694 0.0
C826 C 0.45996 0.11524 0.93081 0.0
C827 C 0.53886 0.15739 0.89787 0.0
C828 C 0.55614 0.12547 0.91274 0.0
C829 C 0.47646 0.08347 0.94538 0.0
C830 C 0.52392 0.08843 0.93651 0.0
C831 C 0.36442 0.28707 0.94049 0.0
H832 H 0.29267 0.38293 0.84379 0.0
H833 H 0.16493 0.24589 0.88699 0.0
H834 H 0.23216 0.40766 0.82065 0.0
H835 H 0.13922 0.35379 0.82943 0.0
H836 H 0.423 0.11027 0.93817 0.0
H837 H 0.56304 0.18643 0.87964 0.0
H838 H 0.4522 0.05465 0.96368 0.0
H839 H 0.53515 0.06272 0.94811 0.0
Gd840 Gd 0.07587 0.31744 0.36065 0.0
Gd841 Gd 0.20435 0.37202 0.40617 0.0
C842 C 0.25154 0.25994 0.44881 0.0
C843 C 0.22232 0.25081 0.50678 0.0
C844 C 0.2147 0.31062 0.46906 0.0
C845 C 0.23327 0.29447 0.44282 0.0
C846 C 0.21112 0.29074 0.50175 0.0
C847 C 0.24269 0.23545 0.48028 0.0
C848 C 0.28185 0.2546 0.42405 0.0
C849 C 0.29372 0.28405 0.39461 0.0
N850 N 0.2398 0.31785 0.41254 0.0
C851 C 0.27146 0.31493 0.38895 0.0
H852 H 0.2792 0.33593 0.36554 0.0
C853 C 0.198 0.37511 0.48948 0.0
N854 N 0.20534 0.34983 0.46317 0.0
C855 C 0.19382 0.35669 0.52244 0.0
C856 C 0.19922 0.31353 0.52852 0.0
H857 H 0.19263 0.40773 0.48462 0.0
H858 H 0.25502 0.20756 0.48512 0.0
H859 H 1.01102 0.36567 0.40282 0.0
H860 H 0.29783 0.22949 0.42792 0.0
H861 H 0.31871 0.28177 0.37584 0.0
H862 H 0.21894 0.23421 0.53149 0.0
H863 H 0.08821 0.27435 0.28639 0.0
H864 H 0.96697 0.44567 0.33324 0.0
H865 H 0.97198 0.41942 0.39163 0.0
H866 H 1.00893 0.40169 0.22597 0.0
H867 H 0.18629 0.37562 0.54311 0.0
H868 H 0.19635 0.29959 0.55407 0.0
H869 H 0.98119 0.43905 0.27122 0.0
H870 H 0.07848 0.28661 0.22772 0.0
N871 N 1.03215 0.36425 0.35178 0.0
C872 C 0.98508 0.42269 0.33811 0.0
C873 C 0.98783 0.40794 0.37106 0.0
C874 C 1.00379 0.40567 0.31171 0.0
C875 C 1.02703 0.37591 0.31956 0.0
C876 C 1.01076 0.37783 0.37737 0.0
N877 N 0.06151 0.32447 0.30338 0.0
C878 C 0.04204 0.35494 0.29438 0.0
C879 C 0.06708 0.30581 0.24561 0.0
C880 C 0.04852 0.33837 0.23565 0.0
C881 C 0.07262 0.29868 0.27955 0.0
C882 C 1.03507 0.36303 0.26026 0.0
H883 H 0.04411 0.34362 0.20915 0.0
O884 O 1.02392 0.23526 0.35026 0.0
O885 O 0.13983 0.30622 0.38001 0.0
O886 O 0.21084 0.36659 0.34869 0.0
O887 O 0.14056 0.37111 0.3263 0.0
O888 O 0.09418 0.25593 0.34337 0.0
O889 O 1.00739 0.2718 0.3914 0.0
O890 O 0.26727 0.44323 0.42727 0.0
O891 O 0.14407 0.38579 0.38435 0.0
O892 O 0.07308 0.34029 0.41376 0.0
O893 O 0.13283 0.32439 0.44006 0.0
O894 O 0.19439 0.44065 0.41774 0.0
O895 O 0.2766 0.41644 0.37873 0.0
C896 C 0.13225 0.26712 0.36315 0.0
C897 C 1.01416 0.39455 0.25204 0.0
C898 C 0.99849 0.41587 0.27779 0.0
C899 C 0.99325 0.22873 0.37526 0.0
C900 C 0.93712 0.19157 0.371 0.0
C901 C 0.90166 0.20919 0.37039 0.0
C902 C 0.91844 0.13751 0.36985 0.0
C903 C 0.86459 0.1012 0.36869 0.0
C904 C 0.84882 0.17407 0.36949 0.0
C905 C 0.83044 0.12093 0.36903 0.0
C906 C 0.187 0.37592 0.32343 0.0
C907 C 0.1567 0.42934 0.39741 0.0
C908 C 0.299 0.45069 0.40248 0.0
C909 C 0.35259 0.46392 0.41147 0.0
C910 C 0.36066 0.43093 0.43247 0.0
C911 C 0.39606 0.50932 0.39892 0.0
C912 C 0.44717 0.52147 0.40741 0.0
C913 C 0.41063 0.44208 0.4404 0.0
C914 C 0.45333 0.48652 0.42794 0.0
C915 C 0.08856 0.32504 0.44002 0.0
H916 H 0.91476 0.25015 0.37125 0.0
H917 H 0.94603 0.1241 0.3699 0.0
H918 H 0.82175 0.18812 0.36962 0.0
H919 H 0.78908 0.09544 0.36951 0.0
H920 H 0.32831 0.39645 0.44278 0.0
H921 H 0.38996 0.53541 0.38321 0.0
H922 H 0.41654 0.41623 0.45642 0.0
H923 H 0.4914 0.49334 0.43442 0.0
Gd924 Gd 0.81847 0.09789 0.8719 0.0
Gd925 Gd 0.86192 0.2258 0.9048 0.0
C926 C 1.03725 0.33662 0.90337 0.0
C927 C 0.06049 0.33455 0.96148 0.0
C928 C 0.9713 0.28003 0.94296 0.0
C929 C 0.98518 0.29958 0.9106 0.0
C930 C 1.00861 0.29986 0.96896 0.0
C931 C 0.07492 0.3523 0.92861 0.0
C932 C 0.04982 0.35884 0.8714 0.0
C933 C 1.01065 0.34723 0.84829 0.0
N934 N 0.94766 0.28546 0.88687 0.0
C935 C 0.95963 0.31205 0.85688 0.0
H936 H 0.93049 0.3085 0.83941 0.0
C937 C 0.90516 0.23431 0.98278 0.0
N938 N 0.92077 0.24641 0.94992 0.0
C939 C 0.94054 0.25418 0.00916 0.0
C940 C 0.99236 0.28743 0.00217 0.0
H941 H 0.86501 0.2131 0.98964 0.0
H942 H 0.11494 0.38011 0.92332 0.0
H943 H 0.73036 0.05044 0.93411 0.0
H944 H 0.08923 0.3871 0.86497 0.0
H945 H 1.0195 0.36662 0.82414 0.0
H946 H 0.0895 0.34915 0.98117 0.0
H947 H 0.84035 0.07756 0.79207 0.0
H948 H 0.58015 0.97758 0.88973 0.0
H949 H 0.63585 1.00382 0.94038 0.0
H950 H 0.61523 0.98193 0.77167 0.0
H951 H 0.92713 0.24569 0.03489 0.0
H952 H 1.01925 0.3062 0.0225 0.0
H953 H 0.5729 0.97071 0.82665 0.0
H954 H 0.79118 0.04481 0.73904 0.0
N955 N 0.72871 0.05171 0.88077 0.0
C956 C 0.62174 0.99805 0.88689 0.0
C957 C 0.65302 1.01263 0.91553 0.0
C958 C 0.64448 1.00825 0.85494 0.0
C959 C 0.69882 0.03504 0.85266 0.0
C960 C 0.70672 0.03921 0.91195 0.0
N961 N 0.77479 0.06424 0.82071 0.0
C962 C 0.72257 0.04147 0.82167 0.0
C963 C 0.77141 0.04385 0.762 0.0
C964 C 0.71805 1.02375 0.76196 0.0
C965 C 0.79917 0.06261 0.79197 0.0
C966 C 0.69277 1.02116 0.7922 0.0
H967 H 0.69655 1.00864 0.73877 0.0
O968 O 0.8576 0.05618 0.85763 0.0
O969 O 0.88839 0.17073 0.8902 0.0
O970 O 0.86598 0.22714 0.8473 0.0
O971 O 0.81327 0.14292 0.82876 0.0
O972 O 0.89489 0.13852 0.84505 0.0
O973 O 0.79467 1.02223 0.89333 0.0
O974 O 0.84467 0.26729 0.94332 0.0
O975 O 0.79088 0.14811 0.89704 0.0
O976 O 0.84561 0.10502 0.92496 0.0
O977 O 0.82083 0.16048 0.9455 0.0
O978 O 0.78975 0.21258 0.87906 0.0
O979 O 0.86111 0.29649 0.89255 0.0
C980 C 0.91928 0.17515 0.86668 0.0
C981 C 0.63876 0.99718 0.7941 0.0
C982 C 0.61466 0.99078 0.82542 0.0
C983 C 0.82764 1.01576 0.87551 0.0
C984 C 0.80909 0.9657 0.85867 0.0
C985 C 0.7601 0.93931 0.84382 0.0
C986 C 0.84182 0.94462 0.857 0.0
C987 C 0.82553 0.89629 0.84157 0.0
C988 C 0.7439 0.89219 0.82771 0.0
C989 C 0.77602 0.87071 0.82665 0.0
C990 C 0.84072 0.19281 0.82334 0.0
C991 C 0.76242 0.16344 0.88303 0.0
C992 C 0.85527 0.30638 0.9236 0.0
C993 C 0.89262 0.35965 0.93585 0.0
C994 C 0.92522 0.36661 0.96325 0.0
C995 C 0.89683 0.40416 0.91985 0.0
C996 C 0.93299 0.45466 0.93136 0.0
C997 C 0.96164 0.41595 0.97409 0.0
C998 C 0.96565 0.45948 0.95835 0.0
C999 C 0.8274 0.11964 0.94979 0.0
H1000 H 0.73443 0.95501 0.84469 0.0
H1001 H 0.88008 0.96644 0.86777 0.0
H1002 H 0.70593 0.87181 0.81636 0.0
H1003 H 0.761 0.83329 0.81491 0.0
H1004 H 0.92281 0.33396 0.97646 0.0
H1005 H 0.87137 0.3994 0.89903 0.0
H1006 H 0.98681 0.4205 0.99501 0.0
H1007 H 0.99456 0.49718 0.96743 0.0
C1008 C 0.2364 0.95458 0.14532 0.0
C1009 C 0.18927 0.93075 0.12798 0.0
H1010 H 0.30237 1.0251 0.16053 0.0
C1011 C 0.17315 0.96218 0.1119 0.0
H1012 H 0.24891 0.93176 0.15931 0.0
C1013 C 0.20423 1.01624 0.11216 0.0
C1014 C 0.25177 0.04066 0.12953 0.0
H1015 H 0.13649 0.94478 0.09875 0.0
H1016 H 0.19085 0.03861 0.09847 0.0
C1017 C 0.2671 1.00862 0.1461 0.0
C1018 C 0.2368 0.18697 0.59843 0.0
C1019 C 0.26581 0.17787 0.62244 0.0
H1020 H 0.18966 0.22127 0.58864 0.0
C1021 C 0.26652 0.19337 0.65596 0.0
H1022 H 0.23509 0.17455 0.57258 0.0
C1023 C 0.24131 0.22033 0.66488 0.0
C1024 C 0.21424 0.23169 0.64074 0.0
H1025 H 0.28765 0.18565 0.6751 0.0
H1026 H 0.24263 0.23234 0.6907 0.0
C1027 C 0.21109 0.21368 0.60756 0.0
C1028 C 1.03348 0.18209 0.12546 0.0
C1029 C 1.00982 0.20229 0.14665 0.0
H1030 H 0.10462 0.19029 0.10638 0.0
C1031 C 0.04246 0.24623 0.16595 0.0
H1032 H 1.01073 0.14889 0.1096 0.0
C1033 C 0.09624 0.27017 0.16357 0.0
C1034 C 0.11913 0.25154 0.14134 0.0
H1035 H 1.02651 0.26276 0.1828 0.0
H1036 H 0.12016 0.30453 0.17823 0.0
C1037 C 0.08752 0.2063 0.12307 0.0
C1038 C 0.82814 0.03445 0.6634 0.0
C1039 C 0.82759 0.99775 0.64098 0.0
H1040 H 0.85483 0.11455 0.67331 0.0
C1041 C 0.85348 1.01487 0.61001 0.0
H1042 H 0.80907 1.02234 0.68751 0.0
C1043 C 0.87899 0.06746 0.60163 0.0
C1044 C 0.87887 0.10395 0.62391 0.0
H1045 H 0.85365 0.98751 0.59217 0.0
H1046 H 0.8987 0.07969 0.57763 0.0
C1047 C 0.85408 0.08708 0.65519 0.0
C1048 C 0.84899 0.8338 0.16162 0.0
C1049 C 0.86602 0.82208 0.13167 0.0
H1050 H 0.80832 0.86762 0.18495 0.0
C1051 C 0.85815 0.84154 0.10119 0.0
H1052 H 0.85611 0.82109 0.18549 0.0
C1053 C 0.83097 0.86918 0.10085 0.0
C1054 C 0.81032 0.8768 0.13088 0.0
H1055 H 0.87097 0.83354 0.0776 0.0
H1056 H 0.82519 0.88358 0.07718 0.0
C1057 C 0.82163 0.86046 0.16125 0.0
C1058 C 1.02144 0.86911 0.61153 0.0
C1059 C 0.98301 0.82304 0.62635 0.0
H1060 H 0.10086 0.93001 0.61242 0.0
C1061 C 0.99514 0.80643 0.65625 0.0
H1062 H 1.0131 0.88341 0.58869 0.0
C1063 C 0.04445 0.83368 0.67044 0.0
C1064 C 0.08403 0.87821 0.65482 0.0
H1065 H 0.96674 0.77176 0.6686 0.0
H1066 H 0.05161 0.81915 0.69358 0.0
C1067 C 0.07157 0.89611 0.62536 0.0
C1068 C 0.09332 0.86292 0.39449 0.0
C1069 C 0.12004 0.8716 0.36372 0.0
H1070 H 1.01892 0.82632 0.41919 0.0
C1071 C 0.09114 0.85486 0.33384 0.0
H1072 H 0.11456 0.87683 0.41788 0.0
C1073 C 1.03727 0.82712 0.33452 0.0
C1074 C 1.01017 0.81548 0.36509 0.0
H1075 H 0.11055 0.86223 0.30976 0.0
H1076 H 1.0164 0.81359 0.311 0.0
C1077 C 1.03868 0.83476 0.39518 0.0
C1078 C 0.22504 0.04756 0.8877 0.0
C1079 C 0.24714 1.02326 0.86904 0.0
H1080 H 0.22908 0.11891 0.90208 0.0
C1081 C 0.29286 0.05534 0.85089 0.0
H1082 H 0.19051 1.02506 0.90249 0.0
C1083 C 0.31584 0.10935 0.85176 0.0
C1084 C 0.29369 0.1331 0.87047 0.0
H1085 H 0.31063 0.03892 0.83523 0.0
H1086 H 0.35006 0.13231 0.83692 0.0
C1087 C 0.2475 0.10159 0.88788 0.0
C1088 C 0.19014 0.24942 0.3281 0.0
C1089 C 0.16484 0.24346 0.3589 0.0
H1090 H 0.23756 0.23037 0.29818 0.0
C1091 C 0.16305 0.20725 0.38216 0.0
H1092 H 0.1886 0.27401 0.30867 0.0
C1093 C 0.19015 0.18089 0.3759 0.0
C1094 C 0.21974 0.19056 0.34629 0.0
H1095 H 0.14119 0.19976 0.40527 0.0
H1096 H 0.19008 0.15519 0.39513 0.0
C1097 C 0.21775 0.22389 0.32202 0.0
C1098 C 0.05538 0.25499 0.83319 0.0
C1099 C 0.08662 0.26152 0.86145 0.0
H1100 H 0.97919 0.22409 0.81318 0.0
C1101 C 0.06185 0.23836 0.89205 0.0
H1102 H 0.07265 0.27107 0.80899 0.0
C1103 C 1.0074 0.21111 0.89438 0.0
C1104 C 0.97673 0.20679 0.86623 0.0
H1105 H 0.08448 0.24249 0.91435 0.0
H1106 H 0.98931 0.1936 0.91813 0.0
C1107 C 1.00153 0.22791 0.83553 0.0
C1108 C 0.86938 1.01986 0.38227 0.0
C1109 C 0.84316 0.04322 0.36755 0.0
H1110 H 0.86934 0.94932 0.3933 0.0
C1111 C 0.7951 1.01013 0.35203 0.0
H1112 H 0.90606 0.04306 0.39478 0.0
C1113 C 0.77358 0.95618 0.35185 0.0
C1114 C 0.79926 0.93318 0.36728 0.0
H1115 H 0.77407 1.0259 0.33945 0.0
H1116 H 0.73751 0.93278 0.33876 0.0
C1117 C 0.84803 0.96581 0.38174 0.0
C1118 C 0.91983 0.85422 0.87277 0.0
C1119 C 0.91038 0.81438 0.85028 0.0
H1120 H 0.89992 0.90995 0.88867 0.0
C1121 C 0.87802 0.80563 0.82255 0.0
H1122 H 0.94639 0.863 0.8936 0.0
C1123 C 0.85239 0.83374 0.81877 0.0
C1124 C 0.85841 0.87127 0.84276 0.0
H1125 H 0.87128 0.77602 0.80431 0.0
H1126 H 0.82739 0.82531 0.79715 0.0
C1127 C 0.89386 0.88203 0.86931 0.0
C1128 C 0.16319 0.63972 0.1322 0.0
C1129 C 0.14355 0.66571 0.11288 0.0
H1130 H 0.17759 0.57608 0.13579 0.0
C1131 C 0.12096 0.64416 0.08158 0.0
H1132 H 0.18245 0.65609 0.15591 0.0
C1133 C 0.119 0.59882 0.06977 0.0
C1134 C 0.14013 0.57364 0.08861 0.0
H1135 H 0.10809 0.66428 0.06504 0.0
H1136 H 0.10284 0.58476 0.04501 0.0
C1137 C 0.16153 0.59444 0.12031 0.0
C1138 C 0.57731 0.17663 0.61067 0.0
C1139 C 0.57676 0.13537 0.59302 0.0
H1140 H 0.53317 0.20979 0.62946 0.0
C1141 C 0.52829 0.09047 0.58773 0.0
H1142 H 0.61298 0.21208 0.6155 0.0
C1143 C 0.48225 0.09028 0.59467 0.0
C1144 C 0.48339 0.13359 0.60909 0.0
H1145 H 0.52544 0.0565 0.57595 0.0
H1146 H 0.44603 0.05796 0.58617 0.0
C1147 C 0.53117 0.17532 0.61902 0.0
C1148 C 0.43369 0.52372 0.07117 0.0
C1149 C 0.46604 0.5617 0.09466 0.0
H1150 H 0.36408 0.45199 0.06242 0.0
C1151 C 0.45264 0.55259 0.12899 0.0
H1152 H 0.44169 0.52951 0.04443 0.0
C1153 C 0.40784 0.50722 0.1393 0.0
C1154 C 0.3757 0.46972 0.11563 0.0
H1155 H 0.4765 0.58063 0.14783 0.0
H1156 H 0.39731 0.50219 0.16572 0.0
C1157 C 0.38921 0.47873 0.08146 0.0
C1158 C 0.93497 0.45589 0.61609 0.0
C1159 C 0.95235 0.47226 0.58306 0.0
H1160 H 0.91336 0.39675 0.65344 0.0
C1161 C 0.96527 0.44122 0.56306 0.0
H1162 H 0.9256 0.47903 0.63246 0.0
C1163 C 0.95839 0.39394 0.57521 0.0
C1164 C 0.93938 0.37699 0.60787 0.0
H1165 H 0.97873 0.45243 0.53746 0.0
H1166 H 0.96592 0.36973 0.5586 0.0
C1167 C 0.92869 0.40905 0.62828 0.0
C1168 C 0.59729 0.96408 0.08083 0.0
C1169 C 0.59651 0.92808 0.10372 0.0
H1170 H 0.55868 1.00039 0.05946 0.0
C1171 C 0.55126 0.89859 0.12254 0.0
H1172 H 0.63032 0.98543 0.06453 0.0
C1173 C 0.50688 0.90271 0.11693 0.0
C1174 C 0.50683 0.93752 0.09279 0.0
H1175 H 0.54845 0.86856 0.13919 0.0
H1176 H 0.47201 0.87596 0.13006 0.0
C1177 C 0.55445 0.97069 0.07678 0.0
C1178 C 0.69599 0.5885 0.58082 0.0
C1179 C 0.72503 0.58844 0.60855 0.0
H1180 H 0.62926 0.5458 0.55014 0.0
C1181 C 0.70568 0.54263 0.62755 0.0
H1182 H 0.70979 0.62269 0.56533 0.0
C1183 C 0.66119 0.497 0.6176 0.0
C1184 C 0.63346 0.49563 0.58855 0.0
H1185 H 0.72722 0.54106 0.64905 0.0
H1186 H 0.65079 0.46227 0.63176 0.0
C1187 C 0.65019 0.5433 0.57158 0.0
C1188 C 0.40294 0.9029 0.37294 0.0
C1189 C 0.39076 0.93617 0.39088 0.0
H1190 H 0.45594 0.87487 0.36598 0.0
C1191 C 0.42849 0.97232 0.4126 0.0
H1192 H 0.37381 0.87263 0.3573 0.0
C1193 C 0.47662 0.97563 0.41632 0.0
C1194 C 0.48739 0.93913 0.40126 0.0
H1195 H 0.41971 0.99623 0.42864 0.0
H1196 H 0.5041 1.00546 0.43286 0.0
C1197 C 0.45028 0.90396 0.37826 0.0
C1198 C 0.59973 0.46997 0.87395 0.0
C1199 C 0.59892 0.49312 0.90462 0.0
H1200 H 0.55976 0.40512 0.84061 0.0
C1201 C 0.553 0.46905 0.92378 0.0
H1202 H 0.63394 0.48749 0.85829 0.0
C1203 C 0.51021 0.42226 0.91337 0.0
C1204 C 0.51162 0.39834 0.8832 0.0
H1205 H 0.5509 0.48512 0.94779 0.0
H1206 H 0.47753 0.40298 0.93021 0.0
C1207 C 0.55671 0.42333 0.86343 0.0
C1208 C 0.18036 0.56002 0.37739 0.0
C1209 C 0.15106 0.56618 0.40282 0.0
H1210 H 0.2019 0.50884 0.35385 0.0
C1211 C 0.11142 0.52091 0.41803 0.0
H1212 H 0.2112 0.59338 0.36494 0.0
C1213 C 0.10763 0.47279 0.41259 0.0
C1214 C 0.14045 0.46753 0.38979 0.0
H1215 H 0.08634 0.52318 0.43677 0.0
H1216 H 0.08266 0.44098 0.42887 0.0
C1217 C 0.17469 0.51114 0.37078 0.0
C1218 C 0.67532 0.14533 0.86381 0.0
C1219 C 0.70652 0.14289 0.88947 0.0
H1220 H 0.60373 0.14155 0.85069 0.0
C1221 C 0.6876 0.13387 0.92262 0.0
H1222 H 0.68962 0.154 0.83818 0.0
C1223 C 0.6387 0.12726 0.9299 0.0
C1224 C 0.60766 0.13069 0.90436 0.0
H1225 H 0.71158 0.13415 0.94318 0.0
H1226 H 0.62614 0.12156 0.95591 0.0
C1227 C 0.62649 0.13913 0.87109 0.0
C1228 C 0.53736 0.59691 0.4177 0.0
C1229 C 0.49434 0.57057 0.39607 0.0
H1230 H 0.61082 0.66452 0.42655 0.0
C1231 C 0.49714 0.59197 0.36401 0.0
H1232 H 0.5367 0.58271 0.44289 0.0
C1233 C 0.54054 0.63904 0.3545 0.0
C1234 C 0.58259 0.66595 0.37658 0.0
H1235 H 0.46539 0.57289 0.34642 0.0
H1236 H 0.54005 0.65589 0.33043 0.0
C1237 C 0.58063 0.6438 0.40816 0.0
C1238 C 0.9458 0.58829 0.92486 0.0
C1239 C 0.94194 0.59404 0.89005 0.0
H1240 H 0.94546 0.5404 0.96498 0.0
C1241 C 0.93567 0.55373 0.86861 0.0
H1242 H 0.94809 0.6173 0.94224 0.0
C1243 C 0.93312 0.50869 0.88169 0.0
C1244 C 0.93647 0.50271 0.91663 0.0
H1245 H 0.93074 0.55624 0.84176 0.0
H1246 H 0.92801 0.47838 0.86447 0.0
C1247 C 0.94361 0.54364 0.93791 0.0
C1248 C 0.24909 0.37525 0.28062 0.0
C1249 C 0.20903 0.38494 0.28886 0.0
H1250 H 0.29262 0.36577 0.24139 0.0
C1251 C 0.18594 0.39811 0.26274 0.0
H1252 H 0.26877 0.36626 0.30009 0.0
C1253 C 0.19783 0.3953 0.22908 0.0
C1254 C 0.23486 0.38148 0.22048 0.0
H1255 H 0.15635 0.40788 0.26811 0.0
H1256 H 0.17612 0.4018 0.20997 0.0
C1257 C 0.26216 0.37406 0.24681 0.0
C1258 C 0.89561 0.19927 0.73799 0.0
C1259 C 0.87656 0.22562 0.71891 0.0
H1260 H 0.89924 0.16916 0.78557 0.0
C1261 C 0.84614 0.24323 0.73482 0.0
H1262 H 0.91868 0.18463 0.7266 0.0
C1263 C 0.83533 0.23452 0.76949 0.0
C1264 C 0.8545 0.20777 0.78808 0.0
H1265 H 0.8311 0.26376 0.72061 0.0
H1266 H 0.81137 0.24758 0.78151 0.0
C1267 C 0.88458 0.19041 0.77199 0.0
C1268 C 0.67171 0.80104 0.21825 0.0
C1269 C 0.66305 0.84183 0.21045 0.0
H1270 H 0.68092 0.75655 0.2567 0.0
C1271 C 0.65197 0.86605 0.23711 0.0
H1272 H 0.67946 0.78078 0.19857 0.0
C1273 C 0.6552 0.85378 0.27081 0.0
C1274 C 0.66798 0.81576 0.27866 0.0
H1275 H 0.64339 0.89656 0.23204 0.0
H1276 H 0.64943 0.87535 0.29061 0.0
C1277 C 0.67343 0.78776 0.25186 0.0
C1278 C 0.90711 0.73706 0.72803 0.0
C1279 C 0.88165 0.6914 0.70913 0.0
H1280 H 0.93996 0.77173 0.77525 0.0
C1281 C 0.86849 0.64401 0.72444 0.0
H1282 H 0.91772 0.77412 0.71685 0.0
C1283 C 0.8792 0.6425 0.75878 0.0
C1284 C 0.90469 0.68857 0.77736 0.0
H1285 H 0.8486 0.60836 0.71023 0.0
H1286 H 0.86764 0.60575 0.77075 0.0
C1287 C 0.91958 0.73572 0.76153 0.0
C1288 C 0.17592 0.78887 0.24184 0.0
C1289 C 0.20733 0.81844 0.21476 0.0
H1290 H 0.16462 0.78136 0.29528 0.0
C1291 C 0.25644 0.86033 0.22214 0.0
H1292 H 0.13854 0.75527 0.2373 0.0
C1293 C 0.27209 0.8743 0.25566 0.0
C1294 C 0.23869 0.84749 0.28265 0.0
H1295 H 0.28215 0.88353 0.2021 0.0
H1296 H 0.30968 0.90764 0.26037 0.0
C1297 C 0.19116 0.80342 0.2753 0.0
C1298 C 0.43098 0.27988 0.75721 0.0
C1299 C 0.42495 0.24574 0.78371 0.0
H1300 H 0.42842 0.29048 0.7038 0.0
C1301 C 0.41944 0.19765 0.77543 0.0
H1302 H 0.43668 0.31789 0.76259 0.0
C1303 C 0.41518 0.18221 0.74172 0.0
C1304 C 0.41667 0.21456 0.71529 0.0
H1305 H 0.41584 0.17077 0.79495 0.0
H1306 H 0.40866 0.14383 0.7365 0.0
C1307 C 0.42663 0.2644 0.72339 0.0
C1308 C 0.33918 0.34382 0.97263 0.0
C1309 C 0.3381 0.29611 0.96945 0.0
H1310 H 0.31683 0.39055 0.00141 0.0
C1311 C 0.30991 0.25742 0.99311 0.0
H1312 H 0.3605 0.37472 0.9548 0.0
C1313 C 0.28403 0.26636 0.0194 0.0
C1314 C 0.28606 0.31449 0.02314 0.0
H1315 H 0.30769 0.22019 0.9913 0.0
H1316 H 0.26318 0.23548 0.03732 0.0
C1317 C 0.31361 0.35293 -0.00087 0.0
C1318 C 0.04204 0.25893 0.48482 0.0
C1319 C 0.05108 0.30382 0.46809 0.0
H1320 H 0.99816 0.20284 0.52244 0.0
C1321 C 1.01868 0.3245 0.47506 0.0
H1322 H 0.06513 0.24117 0.47922 0.0
C1323 C 0.97991 0.30243 0.49962 0.0
C1324 C 0.97255 0.25895 0.51754 0.0
H1325 H 1.02434 0.35884 0.46217 0.0
H1326 H 0.95829 0.32141 0.5061 0.0
C1327 C 1.00269 0.23629 0.50884 0.0
C1328 C 0.78878 0.99939 0.00428 0.0
C1329 C 0.75691 1.0025 0.02891 0.0
H1330 H 0.83727 0.03429 0.96147 0.0
C1331 C 0.74961 0.04592 0.02785 0.0
H1332 H 0.79608 0.96736 0.00431 0.0
C1333 C 0.77349 0.08495 0.00332 0.0
C1334 C 0.80581 0.08215 0.97889 0.0
H1335 H 0.7251 0.04994 0.04611 0.0
H1336 H 0.76589 0.11678 0.00316 0.0
C1337 C 0.813 0.0386 0.9799 0.0
C1338 C 0.7634 0.70043 0.49783 0.0
C1339 C 0.80756 0.7408 0.5129 0.0
H1340 H 0.70123 0.67915 0.46277 0.0
C1341 C 0.8239 0.79191 0.50237 0.0
H1342 H 0.74914 0.66089 0.5057 0.0
C1343 C 0.79526 0.80268 0.47898 0.0
C1344 C 0.75014 0.76247 0.46484 0.0
H1345 H 0.85773 0.82406 0.51361 0.0
H1346 H 0.80864 0.84234 0.47179 0.0
C1347 C 0.73532 0.71116 0.47388 0.0
C1348 C 0.99054 0.71364 -0.00101 0.0
C1349 C 1.00148 0.75259 0.97538 0.0
H1350 H 1.01587 0.69066 0.04264 0.0
C1351 C 0.04732 0.80073 0.97946 0.0
H1352 H 0.95629 0.67603 0.99641 0.0
C1353 C 0.08218 0.80902 0.00559 0.0
C1354 C 0.07188 0.76961 0.02862 0.0
H1355 H 0.05726 0.83189 0.96177 0.0
H1356 H 0.11717 0.84617 0.00764 0.0
C1357 C 1.02528 0.72205 0.02525 0.0
C1358 C 0.28721 0.04443 0.46824 0.0
C1359 C 0.28409 0.99553 0.46953 0.0
H1360 H 0.30755 0.11597 0.49404 0.0
C1361 C 0.30254 0.98337 0.49839 0.0
H1362 H 0.27452 0.05569 0.44587 0.0
C1363 C 0.32338 1.01858 0.52508 0.0
C1364 C 0.3252 0.06693 0.52463 0.0
H1365 H 0.3034 0.94774 0.49983 0.0
H1366 H 0.33852 1.00751 0.54625 0.0
C1367 C 0.30693 0.07948 0.49559 0.0
loop_
_geom_bond_atom_site_label_1
_geom_bond_atom_site_label_2
_geom_bond_distance
_geom_bond_site_symmetry_2
_ccdc_geom_bond_type
Gd0 N31 2.661 . S
Gd0 N37 2.601 . S
Gd0 O44 2.545 . S
Gd0 O45 2.606 . S
Gd0 O47 2.429 . S
Gd0 O48 2.545 . S
Gd0 O49 2.412 . S
Gd0 O51 2.362 . S
Gd0 O52 2.324 . S
Gd0 C59 2.828 . S
Gd1 N10 2.661 . S
Gd1 N14 2.601 . S
Gd1 O45 2.362 . S
Gd1 O46 2.324 . S
Gd1 O50 2.545 . S
Gd1 O51 2.606 . S
Gd1 O53 2.429 . S
Gd1 O54 2.545 . S
Gd1 O55 2.412 . S
Gd1 C68 2.828 . S
C2 C5 1.417 1_655 S
C2 C7 1.431 . S
C2 C8 1.412 . S
C3 C6 1.437 1_655 S
C3 C7 1.317 . S
C3 H22 0.929 . S
C4 C5 1.426 . S
C4 C6 1.413 . S
C4 N14 1.359 . S
C5 C2 1.417 1_455 S
C5 C4 1.426 . S
C5 N10 1.350 . S
C6 C3 1.437 1_455 S
C6 C4 1.413 . S
C6 C16 1.391 1_554 S
C7 C2 1.431 . S
C7 C3 1.317 . S
C7 H18 0.930 . S
C8 C2 1.412 . S
C8 C9 1.355 . S
C8 H20 0.930 . S
C9 C8 1.355 . S
C9 C11 1.402 1_655 S
C9 H21 0.930 . S
N10 Gd1 2.661 . S
N10 C5 1.350 . S
N10 C11 1.307 . S
C11 C9 1.402 1_455 S
C11 N10 1.307 . S
C11 H12 0.930 . S
H12 C11 0.930 . S
C13 N14 1.334 . S
C13 C15 1.394 1_554 S
C13 H17 0.925 1_554 S
N14 Gd1 2.601 . S
N14 C4 1.359 . S
N14 C13 1.334 . S
C15 C13 1.394 1_556 S
C15 C16 1.359 . S
C15 H27 0.930 . S
C16 C6 1.391 1_556 S
C16 C15 1.359 . S
C16 H28 0.929 . S
H17 C13 0.925 1_556 S
H18 C7 0.930 . S
H19 C36 0.930 . S
H20 C8 0.930 . S
H21 C9 0.930 . S
H22 C3 0.929 . S
H23 C41 0.930 . S
H24 C32 0.930 . S
H25 C33 0.930 . S
H26 C57 0.929 . S
H27 C15 0.930 . S
H28 C16 0.929 . S
H29 C58 0.930 . S
H30 C39 0.930 . S
N31 Gd0 2.661 . S
N31 C35 1.350 . S
N31 C36 1.307 . S
C32 H24 0.930 . S
C32 C33 1.355 . S
C32 C34 1.412 . S
C33 H25 0.930 . S
C33 C32 1.355 . S
C33 C36 1.402 . S
C34 C32 1.412 . S
C34 C35 1.417 . S
C34 C58 1.431 . S
C35 N31 1.350 . S
C35 C34 1.417 . S
C35 C38 1.426 . S
C36 H19 0.930 . S
C36 N31 1.307 . S
C36 C33 1.402 . S
N37 Gd0 2.601 . S
N37 C38 1.359 . S
N37 C41 1.334 . S
C38 C35 1.426 . S
C38 N37 1.359 . S
C38 C42 1.413 . S
C39 H30 0.930 . S
C39 C40 1.359 . S
C39 C41 1.394 . S
C40 C39 1.359 . S
C40 C42 1.391 . S
C40 H43 0.929 . S
C41 H23 0.930 . S
C41 N37 1.334 . S
C41 C39 1.394 . S
C42 C38 1.413 . S
C42 C40 1.391 . S
C42 C57 1.437 . S
H43 C40 0.929 . S
O44 Gd0 2.545 . S
O44 C59 1.258 . S
O45 Gd0 2.606 . S
O45 Gd1 2.362 . S
O45 C56 1.284 . S
O46 Gd1 2.324 . S
O46 C66 1.254 . S
O47 Gd0 2.429 . S
O47 C66 1.268 . S
O48 Gd0 2.545 . S
O48 C56 1.250 . S
O49 Gd0 2.412 . S
O49 C59 1.252 . S
O50 Gd1 2.545 . S
O50 C68 1.258 . S
O51 Gd0 2.362 . S
O51 Gd1 2.606 . S
O51 C67 1.284 . S
O52 Gd0 2.324 . S
O52 C75 1.254 . S
O53 Gd1 2.429 . S
O53 C75 1.268 . S
O54 Gd1 2.545 . S
O54 C67 1.250 . S
O55 Gd1 2.412 . S
O55 C68 1.252 . S
C56 O45 1.284 . S
C56 O48 1.250 . S
C57 H26 0.929 . S
C57 C42 1.437 . S
C57 C58 1.317 . S
C58 H29 0.930 . S
C58 C34 1.431 . S
C58 C57 1.317 . S
C59 Gd0 2.828 . S
C59 O44 1.258 . S
C59 O49 1.252 . S
C59 C60 1.497 . S
C60 C59 1.497 . S
C60 C61 1.395 . S
C60 C62 1.380 . S
C61 C60 1.395 . S
C61 C64 1.398 . S
C61 H76 0.930 . S
C62 C60 1.380 . S
C62 C63 1.391 . S
C62 H77 0.930 . S
C63 C62 1.391 . S
C63 C65 1.387 . S
C64 C61 1.398 . S
C64 C65 1.380 . S
C64 H78 0.930 . S
C65 C63 1.387 . S
C65 C64 1.380 . S
C65 H79 0.930 . S
C66 O46 1.254 . S
C66 O47 1.268 . S
C67 O51 1.284 . S
C67 O54 1.250 . S
C68 Gd1 2.828 . S
C68 O50 1.258 . S
C68 O55 1.252 . S
C68 C69 1.497 . S
C69 C68 1.497 . S
C69 C70 1.395 . S
C69 C71 1.380 . S
C70 C69 1.395 . S
C70 C73 1.398 . S
C70 H80 0.930 . S
C71 C69 1.380 . S
C71 C72 1.391 . S
C71 H81 0.930 . S
C72 C71 1.391 . S
C72 C74 1.387 . S
C73 C70 1.398 . S
C73 C74 1.380 . S
C73 H82 0.930 . S
C74 C72 1.387 . S
C74 C73 1.380 . S
C74 H83 0.930 . S
C75 O52 1.254 . S
C75 O53 1.268 . S
H76 C61 0.930 . S
H77 C62 0.930 . S
H78 C64 0.930 . S
H79 C65 0.930 . S
H80 C70 0.930 . S
H81 C71 0.930 . S
H82 C73 0.930 . S
H83 C74 0.930 . S
Gd84 N115 2.661 . S
Gd84 N121 2.601 . S
Gd84 O128 2.545 . S
Gd84 O129 2.606 . S
Gd84 O131 2.429 . S
Gd84 O132 2.545 . S
Gd84 O133 2.412 . S
Gd84 O135 2.362 . S
Gd84 O136 2.324 . S
Gd84 C143 2.828 1_655 S
Gd85 N94 2.661 . S
Gd85 N98 2.601 . S
Gd85 O129 2.362 . S
Gd85 O130 2.324 . S
Gd85 O134 2.545 . S
Gd85 O135 2.606 . S
Gd85 O137 2.429 . S
Gd85 O138 2.545 . S
Gd85 O139 2.412 . S
Gd85 C152 2.828 . S
C86 C89 1.417 1_565 S
C86 C91 1.431 . S
C86 C92 1.412 . S
C87 C90 1.437 1_565 S
C87 C91 1.317 . S
C87 H106 0.929 . S
C88 C89 1.426 . S
C88 C90 1.413 . S
C88 N98 1.359 . S
C89 C86 1.417 1_545 S
C89 C88 1.426 . S
C89 N94 1.350 . S
C90 C87 1.437 1_545 S
C90 C88 1.413 . S
C90 C100 1.391 . S
C91 C86 1.431 . S
C91 C87 1.317 . S
C91 H102 0.930 . S
C92 C86 1.412 . S
C92 C93 1.355 . S
C92 H104 0.930 . S
C93 C92 1.355 . S
C93 C95 1.402 1_565 S
C93 H105 0.930 . S
N94 Gd85 2.661 . S
N94 C89 1.350 . S
N94 C95 1.307 . S
C95 C93 1.402 1_545 S
C95 N94 1.307 . S
C95 H96 0.930 . S
H96 C95 0.930 . S
C97 N98 1.334 . S
C97 C99 1.394 . S
C97 H101 0.930 . S
N98 Gd85 2.601 . S
N98 C88 1.359 . S
N98 C97 1.334 . S
C99 C97 1.394 . S
C99 C100 1.359 . S
C99 H111 0.930 . S
C100 C90 1.391 . S
C100 C99 1.359 . S
C100 H112 0.929 . S
H101 C97 0.930 . S
H102 C91 0.930 . S
H103 C120 0.930 . S
H104 C92 0.930 . S
H105 C93 0.930 . S
H106 C87 0.929 . S
H107 C125 0.930 . S
H108 C116 0.930 . S
H109 C117 0.930 . S
H110 C141 0.929 . S
H111 C99 0.930 . S
H112 C100 0.929 . S
H113 C142 0.930 . S
H114 C123 0.930 . S
N115 Gd84 2.661 . S
N115 C119 1.350 . S
N115 C120 1.307 . S
C116 H108 0.930 . S
C116 C117 1.355 1_455 S
C116 C118 1.412 . S
C117 H109 0.930 . S
C117 C116 1.355 1_655 S
C117 C120 1.402 . S
C118 C116 1.412 . S
C118 C119 1.417 1_455 S
C118 C142 1.431 . S
C119 N115 1.350 . S
C119 C118 1.417 1_655 S
C119 C122 1.426 . S
C120 H103 0.930 . S
C120 N115 1.307 . S
C120 C117 1.402 . S
N121 Gd84 2.601 . S
N121 C122 1.359 . S
N121 C125 1.334 . S
C122 C119 1.426 . S
C122 N121 1.359 . S
C122 C126 1.413 1_655 S
C123 H114 0.930 . S
C123 C124 1.359 . S
C123 C125 1.394 . S
C124 C123 1.359 . S
C124 C126 1.391 1_655 S
C124 H127 0.929 1_655 S
C125 H107 0.930 . S
C125 N121 1.334 . S
C125 C123 1.394 . S
C126 C122 1.413 1_455 S
C126 C124 1.391 1_455 S
C126 C141 1.437 . S
H127 C124 0.929 1_455 S
O128 Gd84 2.545 . S
O128 C143 1.258 1_655 S
O129 Gd84 2.606 . S
O129 Gd85 2.362 . S
O129 C140 1.284 . S
O130 Gd85 2.324 . S
O130 C150 1.254 . S
O131 Gd84 2.429 . S
O131 C150 1.268 . S
O132 Gd84 2.545 . S
O132 C140 1.250 . S
O133 Gd84 2.412 . S
O133 C143 1.252 1_655 S
O134 Gd85 2.545 . S
O134 C152 1.258 . S
O135 Gd84 2.362 . S
O135 Gd85 2.606 . S
O135 C151 1.284 . S
O136 Gd84 2.324 . S
O136 C159 1.254 . S
O137 Gd85 2.429 . S
O137 C159 1.268 . S
O138 Gd85 2.545 . S
O138 C151 1.250 . S
O139 Gd85 2.412 . S
O139 C152 1.252 . S
C140 O129 1.284 . S
C140 O132 1.250 . S
C141 H110 0.929 . S
C141 C126 1.437 . S
C141 C142 1.317 . S
C142 H113 0.930 . S
C142 C118 1.431 . S
C142 C141 1.317 . S
C143 Gd84 2.828 1_455 S
C143 O128 1.258 1_455 S
C143 O133 1.252 1_455 S
C143 C144 1.497 . S
C144 C143 1.497 . S
C144 C145 1.395 . S
C144 C146 1.380 . S
C145 C144 1.395 . S
C145 C148 1.398 . S
C145 H160 0.930 . S
C146 C144 1.380 . S
C146 C147 1.391 . S
C146 H161 0.930 . S
C147 C146 1.391 . S
C147 C149 1.387 . S
C148 C145 1.398 . S
C148 C149 1.380 . S
C148 H162 0.930 . S
C149 C147 1.387 . S
C149 C148 1.380 . S
C149 H163 0.930 . S
C150 O130 1.254 . S
C150 O131 1.268 . S
C151 O135 1.284 . S
C151 O138 1.250 . S
C152 Gd85 2.828 . S
C152 O134 1.258 . S
C152 O139 1.252 . S
C152 C153 1.497 . S
C153 C152 1.497 . S
C153 C154 1.395 . S
C153 C155 1.380 . S
C154 C153 1.395 . S
C154 C157 1.398 . S
C154 H164 0.930 . S
C155 C153 1.380 . S
C155 C156 1.391 . S
C155 H165 0.930 . S
C156 C155 1.391 . S
C156 C158 1.387 . S
C157 C154 1.398 . S
C157 C158 1.380 . S
C157 H166 0.930 . S
C158 C156 1.387 . S
C158 C157 1.380 . S
C158 H167 0.930 . S
C159 O136 1.254 . S
C159 O137 1.268 . S
H160 C145 0.930 . S
H161 C146 0.930 . S
H162 C148 0.930 . S
H163 C149 0.930 . S
H164 C154 0.930 . S
H165 C155 0.930 . S
H166 C157 0.930 . S
H167 C158 0.930 . S
Gd168 N199 2.661 . S
Gd168 N205 2.601 . S
Gd168 O212 2.545 . S
Gd168 O213 2.606 . S
Gd168 O215 2.429 . S
Gd168 O216 2.545 . S
Gd168 O217 2.412 . S
Gd168 O219 2.362 . S
Gd168 O220 2.324 . S
Gd168 C227 2.828 1_565 S
Gd169 N178 2.661 . S
Gd169 N182 2.601 . S
Gd169 O213 2.362 . S
Gd169 O214 2.324 . S
Gd169 O218 2.545 . S
Gd169 O219 2.606 . S
Gd169 O221 2.429 . S
Gd169 O222 2.545 . S
Gd169 O223 2.412 . S
Gd169 C236 2.828 . S
C170 C173 1.417 . S
C170 C175 1.431 . S
C170 C176 1.412 . S
C171 C174 1.437 . S
C171 C175 1.317 . S
C171 H190 0.929 . S
C172 C173 1.426 . S
C172 C174 1.413 . S
C172 N182 1.359 . S
C173 C170 1.417 . S
C173 C172 1.426 . S
C173 N178 1.350 . S
C174 C171 1.437 . S
C174 C172 1.413 . S
C174 C184 1.391 1_554 S
C175 C170 1.431 . S
C175 C171 1.317 . S
C175 H186 0.930 . S
C176 C170 1.412 . S
C176 C177 1.355 . S
C176 H188 0.930 . S
C177 C176 1.355 . S
C177 C179 1.402 . S
C177 H189 0.930 . S
N178 Gd169 2.661 . S
N178 C173 1.350 . S
N178 C179 1.307 . S
C179 C177 1.402 . S
C179 N178 1.307 . S
C179 H180 0.930 . S
H180 C179 0.930 . S
C181 N182 1.334 . S
C181 C183 1.394 1_554 S
C181 H185 0.925 1_554 S
N182 Gd169 2.601 . S
N182 C172 1.359 . S
N182 C181 1.334 . S
C183 C181 1.394 1_556 S
C183 C184 1.359 . S
C183 H195 0.930 . S
C184 C174 1.391 1_556 S
C184 C183 1.359 . S
C184 H196 0.929 . S
H185 C181 0.925 1_556 S
H186 C175 0.930 . S
H187 C204 0.930 . S
H188 C176 0.930 . S
H189 C177 0.930 . S
H190 C171 0.929 . S
H191 C209 0.930 . S
H192 C200 0.930 . S
H193 C201 0.930 . S
H194 C225 0.929 . S
H195 C183 0.930 . S
H196 C184 0.929 . S
H197 C226 0.930 . S
H198 C207 0.930 . S
N199 Gd168 2.661 . S
N199 C203 1.350 . S
N199 C204 1.307 . S
C200 H192 0.930 . S
C200 C201 1.355 1_545 S
C200 C202 1.412 . S
C201 H193 0.930 . S
C201 C200 1.355 1_565 S
C201 C204 1.402 . S
C202 C200 1.412 . S
C202 C203 1.417 1_545 S
C202 C226 1.431 . S
C203 N199 1.350 . S
C203 C202 1.417 1_565 S
C203 C206 1.426 . S
C204 H187 0.930 . S
C204 N199 1.307 . S
C204 C201 1.402 . S
N205 Gd168 2.601 . S
N205 C206 1.359 . S
N205 C209 1.334 . S
C206 C203 1.426 . S
C206 N205 1.359 . S
C206 C210 1.413 1_565 S
C207 H198 0.930 . S
C207 C208 1.359 . S
C207 C209 1.394 . S
C208 C207 1.359 . S
C208 C210 1.391 1_565 S
C208 H211 0.929 1_565 S
C209 H191 0.930 . S
C209 N205 1.334 . S
C209 C207 1.394 . S
C210 C206 1.413 1_545 S
C210 C208 1.391 1_545 S
C210 C225 1.437 . S
H211 C208 0.929 1_545 S
O212 Gd168 2.545 . S
O212 C227 1.258 1_565 S
O213 Gd168 2.606 . S
O213 Gd169 2.362 . S
O213 C224 1.284 . S
O214 Gd169 2.324 . S
O214 C234 1.254 . S
O215 Gd168 2.429 . S
O215 C234 1.268 . S
O216 Gd168 2.545 . S
O216 C224 1.250 . S
O217 Gd168 2.412 . S
O217 C227 1.252 1_565 S
O218 Gd169 2.545 . S
O218 C236 1.258 . S
O219 Gd168 2.362 . S
O219 Gd169 2.606 . S
O219 C235 1.284 . S
O220 Gd168 2.324 . S
O220 C243 1.254 . S
O221 Gd169 2.429 . S
O221 C243 1.268 . S
O222 Gd169 2.545 . S
O222 C235 1.250 . S
O223 Gd169 2.412 . S
O223 C236 1.252 . S
C224 O213 1.284 . S
C224 O216 1.250 . S
C225 H194 0.929 . S
C225 C210 1.437 . S
C225 C226 1.317 . S
C226 H197 0.930 . S
C226 C202 1.431 . S
C226 C225 1.317 . S
C227 Gd168 2.828 1_545 S
C227 O212 1.258 1_545 S
C227 O217 1.252 1_545 S
C227 C228 1.497 . S
C228 C227 1.497 . S
C228 C229 1.395 . S
C228 C230 1.380 . S
C229 C228 1.395 . S
C229 C232 1.398 . S
C229 H244 0.930 . S
C230 C228 1.380 . S
C230 C231 1.391 . S
C230 H245 0.930 . S
C231 C230 1.391 . S
C231 C233 1.387 . S
C232 C229 1.398 . S
C232 C233 1.380 . S
C232 H246 0.930 . S
C233 C231 1.387 . S
C233 C232 1.380 . S
C233 H247 0.930 . S
C234 O214 1.254 . S
C234 O215 1.268 . S
C235 O219 1.284 . S
C235 O222 1.250 . S
C236 Gd169 2.828 . S
C236 O218 1.258 . S
C236 O223 1.252 . S
C236 C237 1.497 . S
C237 C236 1.497 . S
C237 C238 1.395 . S
C237 C239 1.380 . S
C238 C237 1.395 . S
C238 C241 1.398 . S
C238 H248 0.930 . S
C239 C237 1.380 . S
C239 C240 1.391 . S
C239 H249 0.930 . S
C240 C239 1.391 . S
C240 C242 1.387 . S
C241 C238 1.398 . S
C241 C242 1.380 . S
C241 H250 0.930 . S
C242 C240 1.387 . S
C242 C241 1.380 . S
C242 H251 0.930 . S
C243 O220 1.254 . S
C243 O221 1.268 . S
H244 C229 0.930 . S
H245 C230 0.930 . S
H246 C232 0.930 . S
H247 C233 0.930 . S
H248 C238 0.930 . S
H249 C239 0.930 . S
H250 C241 0.930 . S
H251 C242 0.930 . S
Gd252 N283 2.661 . S
Gd252 N289 2.601 . S
Gd252 O296 2.545 . S
Gd252 O297 2.606 . S
Gd252 O299 2.429 . S
Gd252 O300 2.545 . S
Gd252 O301 2.412 . S
Gd252 O303 2.362 . S
Gd252 O304 2.324 . S
Gd252 C311 2.828 . S
Gd253 N262 2.661 . S
Gd253 N266 2.601 . S
Gd253 O297 2.362 . S
Gd253 O298 2.324 . S
Gd253 O302 2.545 . S
Gd253 O303 2.606 . S
Gd253 O305 2.429 . S
Gd253 O306 2.545 . S
Gd253 O307 2.412 . S
Gd253 C320 2.828 . S
C254 C257 1.417 1_455 S
C254 C259 1.431 . S
C254 C260 1.412 . S
C255 C258 1.437 1_455 S
C255 C259 1.317 . S
C255 H274 0.929 . S
C256 C257 1.426 . S
C256 C258 1.413 . S
C256 N266 1.359 . S
C257 C254 1.417 1_655 S
C257 C256 1.426 . S
C257 N262 1.350 . S
C258 C255 1.437 1_655 S
C258 C256 1.413 . S
C258 C268 1.391 . S
C259 C254 1.431 . S
C259 C255 1.317 . S
C259 H270 0.930 . S
C260 C254 1.412 . S
C260 C261 1.355 . S
C260 H272 0.930 . S
C261 C260 1.355 . S
C261 C263 1.402 1_455 S
C261 H273 0.930 . S
N262 Gd253 2.661 . S
N262 C257 1.350 . S
N262 C263 1.307 . S
C263 C261 1.402 1_655 S
C263 N262 1.307 . S
C263 H264 0.930 . S
H264 C263 0.930 . S
C265 N266 1.334 . S
C265 C267 1.394 . S
C265 H269 0.930 . S
N266 Gd253 2.601 . S
N266 C256 1.359 . S
N266 C265 1.334 . S
C267 C265 1.394 . S
C267 C268 1.359 . S
C267 H279 0.930 . S
C268 C258 1.391 . S
C268 C267 1.359 . S
C268 H280 0.929 . S
H269 C265 0.930 . S
H270 C259 0.930 . S
H271 C288 0.930 . S
H272 C260 0.930 . S
H273 C261 0.930 . S
H274 C255 0.929 . S
H275 C293 0.930 . S
H276 C284 0.930 . S
H277 C285 0.930 . S
H278 C309 0.929 . S
H279 C267 0.930 . S
H280 C268 0.929 . S
H281 C310 0.930 . S
H282 C291 0.930 . S
N283 Gd252 2.661 . S
N283 C287 1.350 . S
N283 C288 1.307 . S
C284 H276 0.930 . S
C284 C285 1.355 . S
C284 C286 1.412 . S
C285 H277 0.930 . S
C285 C284 1.355 . S
C285 C288 1.402 . S
C286 C284 1.412 . S
C286 C287 1.417 . S
C286 C310 1.431 . S
C287 N283 1.350 . S
C287 C286 1.417 . S
C287 C290 1.426 . S
C288 H271 0.930 . S
C288 N283 1.307 . S
C288 C285 1.402 . S
N289 Gd252 2.601 . S
N289 C290 1.359 . S
N289 C293 1.334 . S
C290 C287 1.426 . S
C290 N289 1.359 . S
C290 C294 1.413 . S
C291 H282 0.930 . S
C291 C292 1.359 . S
C291 C293 1.394 . S
C292 C291 1.359 . S
C292 C294 1.391 . S
C292 H295 0.929 . S
C293 H275 0.930 . S
C293 N289 1.334 . S
C293 C291 1.394 . S
C294 C290 1.413 . S
C294 C292 1.391 . S
C294 C309 1.437 . S
H295 C292 0.929 . S
O296 Gd252 2.545 . S
O296 C311 1.258 . S
O297 Gd252 2.606 . S
O297 Gd253 2.362 . S
O297 C308 1.284 . S
O298 Gd253 2.324 . S
O298 C318 1.254 . S
O299 Gd252 2.429 . S
O299 C318 1.268 . S
O300 Gd252 2.545 . S
O300 C308 1.250 . S
O301 Gd252 2.412 . S
O301 C311 1.252 . S
O302 Gd253 2.545 . S
O302 C320 1.258 . S
O303 Gd252 2.362 . S
O303 Gd253 2.606 . S
O303 C319 1.284 . S
O304 Gd252 2.324 . S
O304 C327 1.254 . S
O305 Gd253 2.429 . S
O305 C327 1.268 . S
O306 Gd253 2.545 . S
O306 C319 1.250 . S
O307 Gd253 2.412 . S
O307 C320 1.252 . S
C308 O297 1.284 . S
C308 O300 1.250 . S
C309 H278 0.929 . S
C309 C294 1.437 . S
C309 C310 1.317 . S
C310 H281 0.930 . S
C310 C286 1.431 . S
C310 C309 1.317 . S
C311 Gd252 2.828 . S
C311 O296 1.258 . S
C311 O301 1.252 . S
C311 C312 1.497 . S
C312 C311 1.497 . S
C312 C313 1.395 . S
C312 C314 1.380 . S
C313 C312 1.395 . S
C313 C316 1.398 . S
C313 H328 0.930 . S
C314 C312 1.380 . S
C314 C315 1.391 . S
C314 H329 0.930 . S
C315 C314 1.391 . S
C315 C317 1.387 . S
C316 C313 1.398 . S
C316 C317 1.380 . S
C316 H330 0.930 . S
C317 C315 1.387 . S
C317 C316 1.380 . S
C317 H331 0.930 . S
C318 O298 1.254 . S
C318 O299 1.268 . S
C319 O303 1.284 . S
C319 O306 1.250 . S
C320 Gd253 2.828 . S
C320 O302 1.258 . S
C320 O307 1.252 . S
C320 C321 1.497 . S
C321 C320 1.497 . S
C321 C322 1.395 . S
C321 C323 1.380 . S
C322 C321 1.395 . S
C322 C325 1.398 . S
C322 H332 0.930 . S
C323 C321 1.380 . S
C323 C324 1.391 . S
C323 H333 0.930 . S
C324 C323 1.391 . S
C324 C326 1.387 . S
C325 C322 1.398 . S
C325 C326 1.380 . S
C325 H334 0.930 . S
C326 C324 1.387 . S
C326 C325 1.380 . S
C326 H335 0.930 . S
C327 O304 1.254 . S
C327 O305 1.268 . S
H328 C313 0.930 . S
H329 C314 0.930 . S
H330 C316 0.930 . S
H331 C317 0.930 . S
H332 C322 0.930 . S
H333 C323 0.930 . S
H334 C325 0.930 . S
H335 C326 0.930 . S
Gd336 N367 2.661 . S
Gd336 N373 2.601 . S
Gd336 O380 2.545 . S
Gd336 O381 2.606 . S
Gd336 O383 2.429 . S
Gd336 O384 2.545 . S
Gd336 O385 2.412 . S
Gd336 O387 2.362 . S
Gd336 O388 2.324 . S
Gd336 C395 2.828 1_455 S
Gd337 N346 2.661 . S
Gd337 N350 2.601 . S
Gd337 O381 2.362 . S
Gd337 O382 2.324 . S
Gd337 O386 2.545 . S
Gd337 O387 2.606 . S
Gd337 O389 2.429 . S
Gd337 O390 2.545 . S
Gd337 O391 2.412 . S
Gd337 C404 2.828 . S
C338 C341 1.417 1_545 S
C338 C343 1.431 . S
C338 C344 1.412 . S
C339 C342 1.437 1_545 S
C339 C343 1.317 . S
C339 H358 0.929 . S
C340 C341 1.426 . S
C340 C342 1.413 . S
C340 N350 1.359 . S
C341 C338 1.417 1_565 S
C341 C340 1.426 . S
C341 N346 1.350 . S
C342 C339 1.437 1_565 S
C342 C340 1.413 . S
C342 C352 1.391 1_554 S
C343 C338 1.431 . S
C343 C339 1.317 . S
C343 H354 0.930 . S
C344 C338 1.412 . S
C344 C345 1.355 . S
C344 H356 0.930 . S
C345 C344 1.355 . S
C345 C347 1.402 1_545 S
C345 H357 0.930 . S
N346 Gd337 2.661 . S
N346 C341 1.350 . S
N346 C347 1.307 . S
C347 C345 1.402 1_565 S
C347 N346 1.307 . S
C347 H348 0.930 . S
H348 C347 0.930 . S
C349 N350 1.334 . S
C349 C351 1.394 1_554 S
C349 H353 0.925 1_554 S
N350 Gd337 2.601 . S
N350 C340 1.359 . S
N350 C349 1.334 . S
C351 C349 1.394 1_556 S
C351 C352 1.359 . S
C351 H363 0.930 . S
C352 C342 1.391 1_556 S
C352 C351 1.359 . S
C352 H364 0.929 . S
H353 C349 0.925 1_556 S
H354 C343 0.930 . S
H355 C372 0.930 . S
H356 C344 0.930 . S
H357 C345 0.930 . S
H358 C339 0.929 . S
H359 C377 0.930 . S
H360 C368 0.930 . S
H361 C369 0.930 . S
H362 C393 0.929 . S
H363 C351 0.930 . S
H364 C352 0.929 . S
H365 C394 0.930 . S
H366 C375 0.930 . S
N367 Gd336 2.661 . S
N367 C371 1.350 . S
N367 C372 1.307 . S
C368 H360 0.930 . S
C368 C369 1.355 1_655 S
C368 C370 1.412 . S
C369 H361 0.930 . S
C369 C368 1.355 1_455 S
C369 C372 1.402 . S
C370 C368 1.412 . S
C370 C371 1.417 1_655 S
C370 C394 1.431 . S
C371 N367 1.350 . S
C371 C370 1.417 1_455 S
C371 C374 1.426 . S
C372 H355 0.930 . S
C372 N367 1.307 . S
C372 C369 1.402 . S
N373 Gd336 2.601 . S
N373 C374 1.359 . S
N373 C377 1.334 . S
C374 C371 1.426 . S
C374 N373 1.359 . S
C374 C378 1.413 1_455 S
C375 H366 0.930 . S
C375 C376 1.359 . S
C375 C377 1.394 . S
C376 C375 1.359 . S
C376 C378 1.391 1_455 S
C376 H379 0.929 1_455 S
C377 H359 0.930 . S
C377 N373 1.334 . S
C377 C375 1.394 . S
C378 C374 1.413 1_655 S
C378 C376 1.391 1_655 S
C378 C393 1.437 . S
H379 C376 0.929 1_655 S
O380 Gd336 2.545 . S
O380 C395 1.258 1_455 S
O381 Gd336 2.606 . S
O381 Gd337 2.362 . S
O381 C392 1.284 . S
O382 Gd337 2.324 . S
O382 C402 1.254 . S
O383 Gd336 2.429 . S
O383 C402 1.268 . S
O384 Gd336 2.545 . S
O384 C392 1.250 . S
O385 Gd336 2.412 . S
O385 C395 1.252 1_455 S
O386 Gd337 2.545 . S
O386 C404 1.258 . S
O387 Gd336 2.362 . S
O387 Gd337 2.606 . S
O387 C403 1.284 . S
O388 Gd336 2.324 . S
O388 C411 1.254 . S
O389 Gd337 2.429 . S
O389 C411 1.268 . S
O390 Gd337 2.545 . S
O390 C403 1.250 . S
O391 Gd337 2.412 . S
O391 C404 1.252 . S
C392 O381 1.284 . S
C392 O384 1.250 . S
C393 H362 0.929 . S
C393 C378 1.437 . S
C393 C394 1.317 . S
C394 H365 0.930 . S
C394 C370 1.431 . S
C394 C393 1.317 . S
C395 Gd336 2.828 1_655 S
C395 O380 1.258 1_655 S
C395 O385 1.252 1_655 S
C395 C396 1.497 . S
C396 C395 1.497 . S
C396 C397 1.395 . S
C396 C398 1.380 . S
C397 C396 1.395 . S
C397 C400 1.398 . S
C397 H412 0.930 . S
C398 C396 1.380 . S
C398 C399 1.391 . S
C398 H413 0.930 . S
C399 C398 1.391 . S
C399 C401 1.387 . S
C400 C397 1.398 . S
C400 C401 1.380 . S
C400 H414 0.930 . S
C401 C399 1.387 . S
C401 C400 1.380 . S
C401 H415 0.930 . S
C402 O382 1.254 . S
C402 O383 1.268 . S
C403 O387 1.284 . S
C403 O390 1.250 . S
C404 Gd337 2.828 . S
C404 O386 1.258 . S
C404 O391 1.252 . S
C404 C405 1.497 . S
C405 C404 1.497 . S
C405 C406 1.395 . S
C405 C407 1.380 . S
C406 C405 1.395 . S
C406 C409 1.398 . S
C406 H416 0.930 . S
C407 C405 1.380 . S
C407 C408 1.391 . S
C407 H417 0.930 . S
C408 C407 1.391 . S
C408 C410 1.387 . S
C409 C406 1.398 . S
C409 C410 1.380 . S
C409 H418 0.930 . S
C410 C408 1.387 . S
C410 C409 1.380 . S
C410 H419 0.930 . S
C411 O388 1.254 . S
C411 O389 1.268 . S
H412 C397 0.930 . S
H413 C398 0.930 . S
H414 C400 0.930 . S
H415 C401 0.930 . S
H416 C406 0.930 . S
H417 C407 0.930 . S
H418 C409 0.930 . S
H419 C410 0.930 . S
Gd420 N451 2.661 . S
Gd420 N457 2.601 . S
Gd420 O464 2.545 . S
Gd420 O465 2.606 . S
Gd420 O467 2.429 . S
Gd420 O468 2.545 . S
Gd420 O469 2.412 . S
Gd420 O471 2.362 . S
Gd420 O472 2.324 . S
Gd420 C479 2.828 1_545 S
Gd421 N430 2.661 . S
Gd421 N434 2.601 . S
Gd421 O465 2.362 . S
Gd421 O466 2.324 . S
Gd421 O470 2.545 . S
Gd421 O471 2.606 . S
Gd421 O473 2.429 . S
Gd421 O474 2.545 . S
Gd421 O475 2.412 . S
Gd421 C488 2.828 . S
C422 C425 1.417 . S
C422 C427 1.431 . S
C422 C428 1.412 . S
C423 C426 1.437 . S
C423 C427 1.317 . S
C423 H442 0.929 . S
C424 C425 1.426 . S
C424 C426 1.413 . S
C424 N434 1.359 . S
C425 C422 1.417 . S
C425 C424 1.426 . S
C425 N430 1.350 . S
C426 C423 1.437 . S
C426 C424 1.413 . S
C426 C436 1.391 . S
C427 C422 1.431 . S
C427 C423 1.317 . S
C427 H438 0.930 . S
C428 C422 1.412 . S
C428 C429 1.355 . S
C428 H440 0.930 . S
C429 C428 1.355 . S
C429 C431 1.402 . S
C429 H441 0.930 . S
N430 Gd421 2.661 . S
N430 C425 1.350 . S
N430 C431 1.307 . S
C431 C429 1.402 . S
C431 N430 1.307 . S
C431 H432 0.930 . S
H432 C431 0.930 . S
C433 N434 1.334 . S
C433 C435 1.394 . S
C433 H437 0.930 . S
N434 Gd421 2.601 . S
N434 C424 1.359 . S
N434 C433 1.334 . S
C435 C433 1.394 . S
C435 C436 1.359 . S
C435 H447 0.930 . S
C436 C426 1.391 . S
C436 C435 1.359 . S
C436 H448 0.929 . S
H437 C433 0.930 . S
H438 C427 0.930 . S
H439 C456 0.930 . S
H440 C428 0.930 . S
H441 C429 0.930 . S
H442 C423 0.929 . S
H443 C461 0.930 . S
H444 C452 0.930 . S
H445 C453 0.930 . S
H446 C477 0.929 . S
H447 C435 0.930 . S
H448 C436 0.929 . S
H449 C478 0.930 . S
H450 C459 0.930 . S
N451 Gd420 2.661 . S
N451 C455 1.350 . S
N451 C456 1.307 . S
C452 H444 0.930 . S
C452 C453 1.355 1_565 S
C452 C454 1.412 . S
C453 H445 0.930 . S
C453 C452 1.355 1_545 S
C453 C456 1.402 . S
C454 C452 1.412 . S
C454 C455 1.417 1_565 S
C454 C478 1.431 . S
C455 N451 1.350 . S
C455 C454 1.417 1_545 S
C455 C458 1.426 . S
C456 H439 0.930 . S
C456 N451 1.307 . S
C456 C453 1.402 . S
N457 Gd420 2.601 . S
N457 C458 1.359 . S
N457 C461 1.334 . S
C458 C455 1.426 . S
C458 N457 1.359 . S
C458 C462 1.413 1_545 S
C459 H450 0.930 . S
C459 C460 1.359 . S
C459 C461 1.394 . S
C460 C459 1.359 . S
C460 C462 1.391 1_545 S
C460 H463 0.929 1_545 S
C461 H443 0.930 . S
C461 N457 1.334 . S
C461 C459 1.394 . S
C462 C458 1.413 1_565 S
C462 C460 1.391 1_565 S
C462 C477 1.437 . S
H463 C460 0.929 1_565 S
O464 Gd420 2.545 . S
O464 C479 1.258 1_545 S
O465 Gd420 2.606 . S
O465 Gd421 2.362 . S
O465 C476 1.284 . S
O466 Gd421 2.324 . S
O466 C486 1.254 . S
O467 Gd420 2.429 . S
O467 C486 1.268 . S
O468 Gd420 2.545 . S
O468 C476 1.250 . S
O469 Gd420 2.412 . S
O469 C479 1.252 1_545 S
O470 Gd421 2.545 . S
O470 C488 1.258 . S
O471 Gd420 2.362 . S
O471 Gd421 2.606 . S
O471 C487 1.284 . S
O472 Gd420 2.324 . S
O472 C495 1.254 . S
O473 Gd421 2.429 . S
O473 C495 1.268 . S
O474 Gd421 2.545 . S
O474 C487 1.250 . S
O475 Gd421 2.412 . S
O475 C488 1.252 . S
C476 O465 1.284 . S
C476 O468 1.250 . S
C477 H446 0.929 . S
C477 C462 1.437 . S
C477 C478 1.317 . S
C478 H449 0.930 . S
C478 C454 1.431 . S
C478 C477 1.317 . S
C479 Gd420 2.828 1_565 S
C479 O464 1.258 1_565 S
C479 O469 1.252 1_565 S
C479 C480 1.497 . S
C480 C479 1.497 . S
C480 C481 1.395 . S
C480 C482 1.380 . S
C481 C480 1.395 . S
C481 C484 1.398 . S
C481 H496 0.930 . S
C482 C480 1.380 . S
C482 C483 1.391 . S
C482 H497 0.930 . S
C483 C482 1.391 . S
C483 C485 1.387 . S
C484 C481 1.398 . S
C484 C485 1.380 . S
C484 H498 0.930 . S
C485 C483 1.387 . S
C485 C484 1.380 . S
C485 H499 0.930 . S
C486 O466 1.254 . S
C486 O467 1.268 . S
C487 O471 1.284 . S
C487 O474 1.250 . S
C488 Gd421 2.828 . S
C488 O470 1.258 . S
C488 O475 1.252 . S
C488 C489 1.497 . S
C489 C488 1.497 . S
C489 C490 1.395 . S
C489 C491 1.380 . S
C490 C489 1.395 . S
C490 C493 1.398 . S
C490 H500 0.930 . S
C491 C489 1.380 . S
C491 C492 1.391 . S
C491 H501 0.930 . S
C492 C491 1.391 . S
C492 C494 1.387 . S
C493 C490 1.398 . S
C493 C494 1.380 . S
C493 H502 0.930 . S
C494 C492 1.387 . S
C494 C493 1.380 . S
C494 H503 0.930 . S
C495 O472 1.254 . S
C495 O473 1.268 . S
H496 C481 0.930 . S
H497 C482 0.930 . S
H498 C484 0.930 . S
H499 C485 0.930 . S
H500 C490 0.930 . S
H501 C491 0.930 . S
H502 C493 0.930 . S
H503 C494 0.930 . S
Gd504 N535 2.661 . S
Gd504 N541 2.601 . S
Gd504 O548 2.545 . S
Gd504 O549 2.606 . S
Gd504 O551 2.429 . S
Gd504 O552 2.545 . S
Gd504 O553 2.412 . S
Gd504 O555 2.362 . S
Gd504 O556 2.324 . S
Gd504 C563 2.828 . S
Gd505 N514 2.661 . S
Gd505 N518 2.601 . S
Gd505 O549 2.362 . S
Gd505 O550 2.324 . S
Gd505 O554 2.545 . S
Gd505 O555 2.606 . S
Gd505 O557 2.429 . S
Gd505 O558 2.545 . S
Gd505 O559 2.412 . S
Gd505 C572 2.828 . S
C506 C509 1.417 1_545 S
C506 C511 1.431 . S
C506 C512 1.412 . S
C507 C510 1.437 1_545 S
C507 C511 1.317 . S
C507 H526 0.929 . S
C508 C509 1.426 . S
C508 C510 1.413 . S
C508 N518 1.359 . S
C509 C506 1.417 1_565 S
C509 C508 1.426 . S
C509 N514 1.350 . S
C510 C507 1.437 1_565 S
C510 C508 1.413 . S
C510 C520 1.391 . S
C511 C506 1.431 . S
C511 C507 1.317 . S
C511 H522 0.930 . S
C512 C506 1.412 . S
C512 C513 1.355 . S
C512 H524 0.930 . S
C513 C512 1.355 . S
C513 C515 1.402 1_545 S
C513 H525 0.930 . S
N514 Gd505 2.661 . S
N514 C509 1.350 . S
N514 C515 1.307 . S
C515 C513 1.402 1_565 S
C515 N514 1.307 . S
C515 H516 0.930 . S
H516 C515 0.930 . S
C517 N518 1.334 . S
C517 C519 1.394 . S
C517 H521 0.930 . S
N518 Gd505 2.601 . S
N518 C508 1.359 . S
N518 C517 1.334 . S
C519 C517 1.394 . S
C519 C520 1.359 . S
C519 H531 0.930 . S
C520 C510 1.391 . S
C520 C519 1.359 . S
C520 H532 0.929 . S
H521 C517 0.930 . S
H522 C511 0.930 . S
H523 C540 0.930 . S
H524 C512 0.930 . S
H525 C513 0.930 . S
H526 C507 0.929 . S
H527 C545 0.930 . S
H528 C536 0.930 . S
H529 C537 0.930 . S
H530 C561 0.929 . S
H531 C519 0.930 . S
H532 C520 0.929 . S
H533 C562 0.930 . S
H534 C543 0.930 . S
N535 Gd504 2.661 . S
N535 C539 1.350 . S
N535 C540 1.307 . S
C536 H528 0.930 . S
C536 C537 1.355 . S
C536 C538 1.412 . S
C537 H529 0.930 . S
C537 C536 1.355 . S
C537 C540 1.402 . S
C538 C536 1.412 . S
C538 C539 1.417 . S
C538 C562 1.431 . S
C539 N535 1.350 . S
C539 C538 1.417 . S
C539 C542 1.426 . S
C540 H523 0.930 . S
C540 N535 1.307 . S
C540 C537 1.402 . S
N541 Gd504 2.601 . S
N541 C542 1.359 . S
N541 C545 1.334 . S
C542 C539 1.426 . S
C542 N541 1.359 . S
C542 C546 1.413 . S
C543 H534 0.930 . S
C543 C544 1.359 . S
C543 C545 1.394 . S
C544 C543 1.359 . S
C544 C546 1.391 . S
C544 H547 0.929 . S
C545 H527 0.930 . S
C545 N541 1.334 . S
C545 C543 1.394 . S
C546 C542 1.413 . S
C546 C544 1.391 . S
C546 C561 1.437 . S
H547 C544 0.929 . S
O548 Gd504 2.545 . S
O548 C563 1.258 . S
O549 Gd504 2.606 . S
O549 Gd505 2.362 . S
O549 C560 1.284 . S
O550 Gd505 2.324 . S
O550 C570 1.254 . S
O551 Gd504 2.429 . S
O551 C570 1.268 . S
O552 Gd504 2.545 . S
O552 C560 1.250 . S
O553 Gd504 2.412 . S
O553 C563 1.252 . S
O554 Gd505 2.545 . S
O554 C572 1.258 . S
O555 Gd504 2.362 . S
O555 Gd505 2.606 . S
O555 C571 1.284 . S
O556 Gd504 2.324 . S
O556 C579 1.254 . S
O557 Gd505 2.429 . S
O557 C579 1.268 . S
O558 Gd505 2.545 . S
O558 C571 1.250 . S
O559 Gd505 2.412 . S
O559 C572 1.252 . S
C560 O549 1.284 . S
C560 O552 1.250 . S
C561 H530 0.929 . S
C561 C546 1.437 . S
C561 C562 1.317 . S
C562 H533 0.930 . S
C562 C538 1.431 . S
C562 C561 1.317 . S
C563 Gd504 2.828 . S
C563 O548 1.258 . S
C563 O553 1.252 . S
C563 C564 1.497 . S
C564 C563 1.497 . S
C564 C565 1.395 . S
C564 C566 1.380 . S
C565 C564 1.395 . S
C565 C568 1.398 . S
C565 H580 0.930 . S
C566 C564 1.380 . S
C566 C567 1.391 . S
C566 H581 0.930 . S
C567 C566 1.391 . S
C567 C569 1.387 . S
C568 C565 1.398 . S
C568 C569 1.380 . S
C568 H582 0.930 . S
C569 C567 1.387 . S
C569 C568 1.380 . S
C569 H583 0.930 . S
C570 O550 1.254 . S
C570 O551 1.268 . S
C571 O555 1.284 . S
C571 O558 1.250 . S
C572 Gd505 2.828 . S
C572 O554 1.258 . S
C572 O559 1.252 . S
C572 C573 1.497 . S
C573 C572 1.497 . S
C573 C574 1.395 . S
C573 C575 1.380 . S
C574 C573 1.395 . S
C574 C577 1.398 . S
C574 H584 0.930 . S
C575 C573 1.380 . S
C575 C576 1.391 . S
C575 H585 0.930 . S
C576 C575 1.391 . S
C576 C578 1.387 . S
C577 C574 1.398 . S
C577 C578 1.380 . S
C577 H586 0.930 . S
C578 C576 1.387 . S
C578 C577 1.380 . S
C578 H587 0.930 . S
C579 O556 1.254 . S
C579 O557 1.268 . S
H580 C565 0.930 . S
H581 C566 0.930 . S
H582 C568 0.930 . S
H583 C569 0.930 . S
H584 C574 0.930 . S
H585 C575 0.930 . S
H586 C577 0.930 . S
H587 C578 0.930 . S
Gd588 N619 2.661 . S
Gd588 N625 2.601 . S
Gd588 O632 2.545 . S
Gd588 O633 2.606 . S
Gd588 O635 2.429 . S
Gd588 O636 2.545 . S
Gd588 O637 2.412 . S
Gd588 O639 2.362 . S
Gd588 O640 2.324 . S
Gd588 C647 2.828 1_655 S
Gd589 N598 2.661 . S
Gd589 N602 2.601 . S
Gd589 O633 2.362 . S
Gd589 O634 2.324 . S
Gd589 O638 2.545 . S
Gd589 O639 2.606 . S
Gd589 O641 2.429 . S
Gd589 O642 2.545 . S
Gd589 O643 2.412 . S
Gd589 C656 2.828 . S
C590 C593 1.417 . S
C590 C595 1.431 . S
C590 C596 1.412 . S
C591 C594 1.437 . S
C591 C595 1.317 . S
C591 H610 0.929 . S
C592 C593 1.426 . S
C592 C594 1.413 . S
C592 N602 1.359 . S
C593 C590 1.417 . S
C593 C592 1.426 . S
C593 N598 1.350 . S
C594 C591 1.437 . S
C594 C592 1.413 . S
C594 C604 1.391 1_556 S
C595 C590 1.431 . S
C595 C591 1.317 . S
C595 H606 0.930 . S
C596 C590 1.412 . S
C596 C597 1.355 . S
C596 H608 0.930 . S
C597 C596 1.355 . S
C597 C599 1.402 . S
C597 H609 0.930 . S
N598 Gd589 2.661 . S
N598 C593 1.350 . S
N598 C599 1.307 . S
C599 C597 1.402 . S
C599 N598 1.307 . S
C599 H600 0.930 . S
H600 C599 0.930 . S
C601 N602 1.334 . S
C601 C603 1.394 1_556 S
C601 H605 0.925 1_556 S
N602 Gd589 2.601 . S
N602 C592 1.359 . S
N602 C601 1.334 . S
C603 C601 1.394 1_554 S
C603 C604 1.359 . S
C603 H615 0.930 . S
C604 C594 1.391 1_554 S
C604 C603 1.359 . S
C604 H616 0.929 . S
H605 C601 0.925 1_554 S
H606 C595 0.930 . S
H607 C624 0.930 . S
H608 C596 0.930 . S
H609 C597 0.930 . S
H610 C591 0.929 . S
H611 C629 0.930 . S
H612 C620 0.930 . S
H613 C621 0.930 . S
H614 C645 0.929 . S
H615 C603 0.930 . S
H616 C604 0.929 . S
H617 C646 0.930 . S
H618 C627 0.930 . S
N619 Gd588 2.661 . S
N619 C623 1.350 . S
N619 C624 1.307 . S
C620 H612 0.930 . S
C620 C621 1.355 1_455 S
C620 C622 1.412 . S
C621 H613 0.930 . S
C621 C620 1.355 1_655 S
C621 C624 1.402 . S
C622 C620 1.412 . S
C622 C623 1.417 1_455 S
C622 C646 1.431 . S
C623 N619 1.350 . S
C623 C622 1.417 1_655 S
C623 C626 1.426 . S
C624 H607 0.930 . S
C624 N619 1.307 . S
C624 C621 1.402 . S
N625 Gd588 2.601 . S
N625 C626 1.359 . S
N625 C629 1.334 . S
C626 C623 1.426 . S
C626 N625 1.359 . S
C626 C630 1.413 1_655 S
C627 H618 0.930 . S
C627 C628 1.359 . S
C627 C629 1.394 . S
C628 C627 1.359 . S
C628 C630 1.391 1_655 S
C628 H631 0.929 1_655 S
C629 H611 0.930 . S
C629 N625 1.334 . S
C629 C627 1.394 . S
C630 C626 1.413 1_455 S
C630 C628 1.391 1_455 S
C630 C645 1.437 . S
H631 C628 0.929 1_455 S
O632 Gd588 2.545 . S
O632 C647 1.258 1_655 S
O633 Gd588 2.606 . S
O633 Gd589 2.362 . S
O633 C644 1.284 . S
O634 Gd589 2.324 . S
O634 C654 1.254 . S
O635 Gd588 2.429 . S
O635 C654 1.268 . S
O636 Gd588 2.545 . S
O636 C644 1.250 . S
O637 Gd588 2.412 . S
O637 C647 1.252 1_655 S
O638 Gd589 2.545 . S
O638 C656 1.258 . S
O639 Gd588 2.362 . S
O639 Gd589 2.606 . S
O639 C655 1.284 . S
O640 Gd588 2.324 . S
O640 C663 1.254 . S
O641 Gd589 2.429 . S
O641 C663 1.268 . S
O642 Gd589 2.545 . S
O642 C655 1.250 . S
O643 Gd589 2.412 . S
O643 C656 1.252 . S
C644 O633 1.284 . S
C644 O636 1.250 . S
C645 H614 0.929 . S
C645 C630 1.437 . S
C645 C646 1.317 . S
C646 H617 0.930 . S
C646 C622 1.431 . S
C646 C645 1.317 . S
C647 Gd588 2.828 1_455 S
C647 O632 1.258 1_455 S
C647 O637 1.252 1_455 S
C647 C648 1.497 . S
C648 C647 1.497 . S
C648 C649 1.395 . S
C648 C650 1.380 . S
C649 C648 1.395 . S
C649 C652 1.398 . S
C649 H664 0.930 . S
C650 C648 1.380 . S
C650 C651 1.391 . S
C650 H665 0.930 . S
C651 C650 1.391 . S
C651 C653 1.387 . S
C652 C649 1.398 . S
C652 C653 1.380 . S
C652 H666 0.930 . S
C653 C651 1.387 . S
C653 C652 1.380 . S
C653 H667 0.930 . S
C654 O634 1.254 . S
C654 O635 1.268 . S
C655 O639 1.284 . S
C655 O642 1.250 . S
C656 Gd589 2.828 . S
C656 O638 1.258 . S
C656 O643 1.252 . S
C656 C657 1.497 . S
C657 C656 1.497 . S
C657 C658 1.395 . S
C657 C659 1.380 . S
C658 C657 1.395 . S
C658 C661 1.398 . S
C658 H668 0.930 . S
C659 C657 1.380 . S
C659 C660 1.391 . S
C659 H669 0.930 . S
C660 C659 1.391 . S
C660 C662 1.387 . S
C661 C658 1.398 . S
C661 C662 1.380 . S
C661 H670 0.930 . S
C662 C660 1.387 . S
C662 C661 1.380 . S
C662 H671 0.930 . S
C663 O640 1.254 . S
C663 O641 1.268 . S
H664 C649 0.930 . S
H665 C650 0.930 . S
H666 C652 0.930 . S
H667 C653 0.930 . S
H668 C658 0.930 . S
H669 C659 0.930 . S
H670 C661 0.930 . S
H671 C662 0.930 . S
Gd672 N703 2.661 . S
Gd672 N709 2.601 . S
Gd672 O716 2.545 . S
Gd672 O717 2.606 . S
Gd672 O719 2.429 . S
Gd672 O720 2.545 . S
Gd672 O721 2.412 . S
Gd672 O723 2.362 . S
Gd672 O724 2.324 . S
Gd672 C731 2.828 1_565 S
Gd673 N682 2.661 . S
Gd673 N686 2.601 . S
Gd673 O717 2.362 . S
Gd673 O718 2.324 . S
Gd673 O722 2.545 . S
Gd673 O723 2.606 . S
Gd673 O725 2.429 . S
Gd673 O726 2.545 . S
Gd673 O727 2.412 . S
Gd673 C740 2.828 . S
C674 C677 1.417 1_655 S
C674 C679 1.431 . S
C674 C680 1.412 . S
C675 C678 1.437 1_655 S
C675 C679 1.317 . S
C675 H694 0.929 . S
C676 C677 1.426 . S
C676 C678 1.413 . S
C676 N686 1.359 . S
C677 C674 1.417 1_455 S
C677 C676 1.426 . S
C677 N682 1.350 . S
C678 C675 1.437 1_455 S
C678 C676 1.413 . S
C678 C688 1.391 . S
C679 C674 1.431 . S
C679 C675 1.317 . S
C679 H690 0.930 . S
C680 C674 1.412 . S
C680 C681 1.355 . S
C680 H692 0.930 . S
C681 C680 1.355 . S
C681 C683 1.402 1_655 S
C681 H693 0.930 . S
N682 Gd673 2.661 . S
N682 C677 1.350 . S
N682 C683 1.307 . S
C683 C681 1.402 1_455 S
C683 N682 1.307 . S
C683 H684 0.930 . S
H684 C683 0.930 . S
C685 N686 1.334 . S
C685 C687 1.394 . S
C685 H689 0.930 . S
N686 Gd673 2.601 . S
N686 C676 1.359 . S
N686 C685 1.334 . S
C687 C685 1.394 . S
C687 C688 1.359 . S
C687 H699 0.930 . S
C688 C678 1.391 . S
C688 C687 1.359 . S
C688 H700 0.929 . S
H689 C685 0.930 . S
H690 C679 0.930 . S
H691 C708 0.930 . S
H692 C680 0.930 . S
H693 C681 0.930 . S
H694 C675 0.929 . S
H695 C713 0.930 . S
H696 C704 0.930 . S
H697 C705 0.930 . S
H698 C729 0.929 . S
H699 C687 0.930 . S
H700 C688 0.929 . S
H701 C730 0.930 . S
H702 C711 0.930 . S
N703 Gd672 2.661 . S
N703 C707 1.350 . S
N703 C708 1.307 . S
C704 H696 0.930 . S
C704 C705 1.355 1_545 S
C704 C706 1.412 . S
C705 H697 0.930 . S
C705 C704 1.355 1_565 S
C705 C708 1.402 . S
C706 C704 1.412 . S
C706 C707 1.417 1_545 S
C706 C730 1.431 . S
C707 N703 1.350 . S
C707 C706 1.417 1_565 S
C707 C710 1.426 . S
C708 H691 0.930 . S
C708 N703 1.307 . S
C708 C705 1.402 . S
N709 Gd672 2.601 . S
N709 C710 1.359 . S
N709 C713 1.334 . S
C710 C707 1.426 . S
C710 N709 1.359 . S
C710 C714 1.413 1_565 S
C711 H702 0.930 . S
C711 C712 1.359 . S
C711 C713 1.394 . S
C712 C711 1.359 . S
C712 C714 1.391 1_565 S
C712 H715 0.929 1_565 S
C713 H695 0.930 . S
C713 N709 1.334 . S
C713 C711 1.394 . S
C714 C710 1.413 1_545 S
C714 C712 1.391 1_545 S
C714 C729 1.437 . S
H715 C712 0.929 1_545 S
O716 Gd672 2.545 . S
O716 C731 1.258 1_565 S
O717 Gd672 2.606 . S
O717 Gd673 2.362 . S
O717 C728 1.284 . S
O718 Gd673 2.324 . S
O718 C738 1.254 . S
O719 Gd672 2.429 . S
O719 C738 1.268 . S
O720 Gd672 2.545 . S
O720 C728 1.250 . S
O721 Gd672 2.412 . S
O721 C731 1.252 1_565 S
O722 Gd673 2.545 . S
O722 C740 1.258 . S
O723 Gd672 2.362 . S
O723 Gd673 2.606 . S
O723 C739 1.284 . S
O724 Gd672 2.324 . S
O724 C747 1.254 . S
O725 Gd673 2.429 . S
O725 C747 1.268 . S
O726 Gd673 2.545 . S
O726 C739 1.250 . S
O727 Gd673 2.412 . S
O727 C740 1.252 . S
C728 O717 1.284 . S
C728 O720 1.250 . S
C729 H698 0.929 . S
C729 C714 1.437 . S
C729 C730 1.317 . S
C730 H701 0.930 . S
C730 C706 1.431 . S
C730 C729 1.317 . S
C731 Gd672 2.828 1_545 S
C731 O716 1.258 1_545 S
C731 O721 1.252 1_545 S
C731 C732 1.497 . S
C732 C731 1.497 . S
C732 C733 1.395 . S
C732 C734 1.380 . S
C733 C732 1.395 . S
C733 C736 1.398 . S
C733 H748 0.930 . S
C734 C732 1.380 . S
C734 C735 1.391 . S
C734 H749 0.930 . S
C735 C734 1.391 . S
C735 C737 1.387 . S
C736 C733 1.398 . S
C736 C737 1.380 . S
C736 H750 0.930 . S
C737 C735 1.387 . S
C737 C736 1.380 . S
C737 H751 0.930 . S
C738 O718 1.254 . S
C738 O719 1.268 . S
C739 O723 1.284 . S
C739 O726 1.250 . S
C740 Gd673 2.828 . S
C740 O722 1.258 . S
C740 O727 1.252 . S
C740 C741 1.497 . S
C741 C740 1.497 . S
C741 C742 1.395 . S
C741 C743 1.380 . S
C742 C741 1.395 . S
C742 C745 1.398 . S
C742 H752 0.930 . S
C743 C741 1.380 . S
C743 C744 1.391 . S
C743 H753 0.930 . S
C744 C743 1.391 . S
C744 C746 1.387 . S
C745 C742 1.398 . S
C745 C746 1.380 . S
C745 H754 0.930 . S
C746 C744 1.387 . S
C746 C745 1.380 . S
C746 H755 0.930 . S
C747 O724 1.254 . S
C747 O725 1.268 . S
H748 C733 0.930 . S
H749 C734 0.930 . S
H750 C736 0.930 . S
H751 C737 0.930 . S
H752 C742 0.930 . S
H753 C743 0.930 . S
H754 C745 0.930 . S
H755 C746 0.930 . S
Gd756 N787 2.661 . S
Gd756 N793 2.601 . S
Gd756 O800 2.545 . S
Gd756 O801 2.606 . S
Gd756 O803 2.429 . S
Gd756 O804 2.545 . S
Gd756 O805 2.412 . S
Gd756 O807 2.362 . S
Gd756 O808 2.324 . S
Gd756 C815 2.828 . S
Gd757 N766 2.661 . S
Gd757 N770 2.601 . S
Gd757 O801 2.362 . S
Gd757 O802 2.324 . S
Gd757 O806 2.545 . S
Gd757 O807 2.606 . S
Gd757 O809 2.429 . S
Gd757 O810 2.545 . S
Gd757 O811 2.412 . S
Gd757 C824 2.828 . S
C758 C761 1.417 1_565 S
C758 C763 1.431 . S
C758 C764 1.412 . S
C759 C762 1.437 1_565 S
C759 C763 1.317 . S
C759 H778 0.929 . S
C760 C761 1.426 . S
C760 C762 1.413 . S
C760 N770 1.359 . S
C761 C758 1.417 1_545 S
C761 C760 1.426 . S
C761 N766 1.350 . S
C762 C759 1.437 1_545 S
C762 C760 1.413 . S
C762 C772 1.391 1_556 S
C763 C758 1.431 . S
C763 C759 1.317 . S
C763 H774 0.930 . S
C764 C758 1.412 . S
C764 C765 1.355 . S
C764 H776 0.930 . S
C765 C764 1.355 . S
C765 C767 1.402 1_565 S
C765 H777 0.930 . S
N766 Gd757 2.661 . S
N766 C761 1.350 . S
N766 C767 1.307 . S
C767 C765 1.402 1_545 S
C767 N766 1.307 . S
C767 H768 0.930 . S
H768 C767 0.930 . S
C769 N770 1.334 . S
C769 C771 1.394 1_556 S
C769 H773 0.925 1_556 S
N770 Gd757 2.601 . S
N770 C760 1.359 . S
N770 C769 1.334 . S
C771 C769 1.394 1_554 S
C771 C772 1.359 . S
C771 H783 0.930 . S
C772 C762 1.391 1_554 S
C772 C771 1.359 . S
C772 H784 0.929 . S
H773 C769 0.925 1_554 S
H774 C763 0.930 . S
H775 C792 0.930 . S
H776 C764 0.930 . S
H777 C765 0.930 . S
H778 C759 0.929 . S
H779 C797 0.930 . S
H780 C788 0.930 . S
H781 C789 0.930 . S
H782 C813 0.929 . S
H783 C771 0.930 . S
H784 C772 0.929 . S
H785 C814 0.930 . S
H786 C795 0.930 . S
N787 Gd756 2.661 . S
N787 C791 1.350 . S
N787 C792 1.307 . S
C788 H780 0.930 . S
C788 C789 1.355 . S
C788 C790 1.412 . S
C789 H781 0.930 . S
C789 C788 1.355 . S
C789 C792 1.402 . S
C790 C788 1.412 . S
C790 C791 1.417 . S
C790 C814 1.431 . S
C791 N787 1.350 . S
C791 C790 1.417 . S
C791 C794 1.426 . S
C792 H775 0.930 . S
C792 N787 1.307 . S
C792 C789 1.402 . S
N793 Gd756 2.601 . S
N793 C794 1.359 . S
N793 C797 1.334 . S
C794 C791 1.426 . S
C794 N793 1.359 . S
C794 C798 1.413 . S
C795 H786 0.930 . S
C795 C796 1.359 . S
C795 C797 1.394 . S
C796 C795 1.359 . S
C796 C798 1.391 . S
C796 H799 0.929 . S
C797 H779 0.930 . S
C797 N793 1.334 . S
C797 C795 1.394 . S
C798 C794 1.413 . S
C798 C796 1.391 . S
C798 C813 1.437 . S
H799 C796 0.929 . S
O800 Gd756 2.545 . S
O800 C815 1.258 . S
O801 Gd756 2.606 . S
O801 Gd757 2.362 . S
O801 C812 1.284 . S
O802 Gd757 2.324 . S
O802 C822 1.254 . S
O803 Gd756 2.429 . S
O803 C822 1.268 . S
O804 Gd756 2.545 . S
O804 C812 1.250 . S
O805 Gd756 2.412 . S
O805 C815 1.252 . S
O806 Gd757 2.545 . S
O806 C824 1.258 . S
O807 Gd756 2.362 . S
O807 Gd757 2.606 . S
O807 C823 1.284 . S
O808 Gd756 2.324 . S
O808 C831 1.254 . S
O809 Gd757 2.429 . S
O809 C831 1.268 . S
O810 Gd757 2.545 . S
O810 C823 1.250 . S
O811 Gd757 2.412 . S
O811 C824 1.252 . S
C812 O801 1.284 . S
C812 O804 1.250 . S
C813 H782 0.929 . S
C813 C798 1.437 . S
C813 C814 1.317 . S
C814 H785 0.930 . S
C814 C790 1.431 . S
C814 C813 1.317 . S
C815 Gd756 2.828 . S
C815 O800 1.258 . S
C815 O805 1.252 . S
C815 C816 1.497 . S
C816 C815 1.497 . S
C816 C817 1.395 . S
C816 C818 1.380 . S
C817 C816 1.395 . S
C817 C820 1.398 . S
C817 H832 0.930 . S
C818 C816 1.380 . S
C818 C819 1.391 . S
C818 H833 0.930 . S
C819 C818 1.391 . S
C819 C821 1.387 . S
C820 C817 1.398 . S
C820 C821 1.380 . S
C820 H834 0.930 . S
C821 C819 1.387 . S
C821 C820 1.380 . S
C821 H835 0.930 . S
C822 O802 1.254 . S
C822 O803 1.268 . S
C823 O807 1.284 . S
C823 O810 1.250 . S
C824 Gd757 2.828 . S
C824 O806 1.258 . S
C824 O811 1.252 . S
C824 C825 1.497 . S
C825 C824 1.497 . S
C825 C826 1.395 . S
C825 C827 1.380 . S
C826 C825 1.395 . S
C826 C829 1.398 . S
C826 H836 0.930 . S
C827 C825 1.380 . S
C827 C828 1.391 . S
C827 H837 0.930 . S
C828 C827 1.391 . S
C828 C830 1.387 . S
C829 C826 1.398 . S
C829 C830 1.380 . S
C829 H838 0.930 . S
C830 C828 1.387 . S
C830 C829 1.380 . S
C830 H839 0.930 . S
C831 O808 1.254 . S
C831 O809 1.268 . S
H832 C817 0.930 . S
H833 C818 0.930 . S
H834 C820 0.930 . S
H835 C821 0.930 . S
H836 C826 0.930 . S
H837 C827 0.930 . S
H838 C829 0.930 . S
H839 C830 0.930 . S
Gd840 N871 2.661 . S
Gd840 N877 2.601 . S
Gd840 O884 2.545 . S
Gd840 O885 2.606 . S
Gd840 O887 2.429 . S
Gd840 O888 2.545 . S
Gd840 O889 2.412 . S
Gd840 O891 2.362 . S
Gd840 O892 2.324 . S
Gd840 C899 2.828 1_455 S
Gd841 N850 2.661 . S
Gd841 N854 2.601 . S
Gd841 O885 2.362 . S
Gd841 O886 2.324 . S
Gd841 O890 2.545 . S
Gd841 O891 2.606 . S
Gd841 O893 2.429 . S
Gd841 O894 2.545 . S
Gd841 O895 2.412 . S
Gd841 C908 2.828 . S
C842 C845 1.417 . S
C842 C847 1.431 . S
C842 C848 1.412 . S
C843 C846 1.437 . S
C843 C847 1.317 . S
C843 H862 0.929 . S
C844 C845 1.426 . S
C844 C846 1.413 . S
C844 N854 1.359 . S
C845 C842 1.417 . S
C845 C844 1.426 . S
C845 N850 1.350 . S
C846 C843 1.437 . S
C846 C844 1.413 . S
C846 C856 1.391 . S
C847 C842 1.431 . S
C847 C843 1.317 . S
C847 H858 0.930 . S
C848 C842 1.412 . S
C848 C849 1.355 . S
C848 H860 0.930 . S
C849 C848 1.355 . S
C849 C851 1.402 . S
C849 H861 0.930 . S
N850 Gd841 2.661 . S
N850 C845 1.350 . S
N850 C851 1.307 . S
C851 C849 1.402 . S
C851 N850 1.307 . S
C851 H852 0.930 . S
H852 C851 0.930 . S
C853 N854 1.334 . S
C853 C855 1.394 . S
C853 H857 0.930 . S
N854 Gd841 2.601 . S
N854 C844 1.359 . S
N854 C853 1.334 . S
C855 C853 1.394 . S
C855 C856 1.359 . S
C855 H867 0.930 . S
C856 C846 1.391 . S
C856 C855 1.359 . S
C856 H868 0.929 . S
H857 C853 0.930 . S
H858 C847 0.930 . S
H859 C876 0.930 . S
H860 C848 0.930 . S
H861 C849 0.930 . S
H862 C843 0.929 . S
H863 C881 0.930 . S
H864 C872 0.930 . S
H865 C873 0.930 . S
H866 C897 0.929 . S
H867 C855 0.930 . S
H868 C856 0.929 . S
H869 C898 0.930 . S
H870 C879 0.930 . S
N871 Gd840 2.661 . S
N871 C875 1.350 . S
N871 C876 1.307 . S
C872 H864 0.930 . S
C872 C873 1.355 1_655 S
C872 C874 1.412 . S
C873 H865 0.930 . S
C873 C872 1.355 1_455 S
C873 C876 1.402 . S
C874 C872 1.412 . S
C874 C875 1.417 1_655 S
C874 C898 1.431 . S
C875 N871 1.350 . S
C875 C874 1.417 1_455 S
C875 C878 1.426 . S
C876 H859 0.930 . S
C876 N871 1.307 . S
C876 C873 1.402 . S
N877 Gd840 2.601 . S
N877 C878 1.359 . S
N877 C881 1.334 . S
C878 C875 1.426 . S
C878 N877 1.359 . S
C878 C882 1.413 1_455 S
C879 H870 0.930 . S
C879 C880 1.359 . S
C879 C881 1.394 . S
C880 C879 1.359 . S
C880 C882 1.391 1_455 S
C880 H883 0.929 1_455 S
C881 H863 0.930 . S
C881 N877 1.334 . S
C881 C879 1.394 . S
C882 C878 1.413 1_655 S
C882 C880 1.391 1_655 S
C882 C897 1.437 . S
H883 C880 0.929 1_655 S
O884 Gd840 2.545 . S
O884 C899 1.258 1_455 S
O885 Gd840 2.606 . S
O885 Gd841 2.362 . S
O885 C896 1.284 . S
O886 Gd841 2.324 . S
O886 C906 1.254 . S
O887 Gd840 2.429 . S
O887 C906 1.268 . S
O888 Gd840 2.545 . S
O888 C896 1.250 . S
O889 Gd840 2.412 . S
O889 C899 1.252 1_455 S
O890 Gd841 2.545 . S
O890 C908 1.258 . S
O891 Gd840 2.362 . S
O891 Gd841 2.606 . S
O891 C907 1.284 . S
O892 Gd840 2.324 . S
O892 C915 1.254 . S
O893 Gd841 2.429 . S
O893 C915 1.268 . S
O894 Gd841 2.545 . S
O894 C907 1.250 . S
O895 Gd841 2.412 . S
O895 C908 1.252 . S
C896 O885 1.284 . S
C896 O888 1.250 . S
C897 H866 0.929 . S
C897 C882 1.437 . S
C897 C898 1.317 . S
C898 H869 0.930 . S
C898 C874 1.431 . S
C898 C897 1.317 . S
C899 Gd840 2.828 1_655 S
C899 O884 1.258 1_655 S
C899 O889 1.252 1_655 S
C899 C900 1.497 . S
C900 C899 1.497 . S
C900 C901 1.395 . S
C900 C902 1.380 . S
C901 C900 1.395 . S
C901 C904 1.398 . S
C901 H916 0.930 . S
C902 C900 1.380 . S
C902 C903 1.391 . S
C902 H917 0.930 . S
C903 C902 1.391 . S
C903 C905 1.387 . S
C904 C901 1.398 . S
C904 C905 1.380 . S
C904 H918 0.930 . S
C905 C903 1.387 . S
C905 C904 1.380 . S
C905 H919 0.930 . S
C906 O886 1.254 . S
C906 O887 1.268 . S
C907 O891 1.284 . S
C907 O894 1.250 . S
C908 Gd841 2.828 . S
C908 O890 1.258 . S
C908 O895 1.252 . S
C908 C909 1.497 . S
C909 C908 1.497 . S
C909 C910 1.395 . S
C909 C911 1.380 . S
C910 C909 1.395 . S
C910 C913 1.398 . S
C910 H920 0.930 . S
C911 C909 1.380 . S
C911 C912 1.391 . S
C911 H921 0.930 . S
C912 C911 1.391 . S
C912 C914 1.387 . S
C913 C910 1.398 . S
C913 C914 1.380 . S
C913 H922 0.930 . S
C914 C912 1.387 . S
C914 C913 1.380 . S
C914 H923 0.930 . S
C915 O892 1.254 . S
C915 O893 1.268 . S
H916 C901 0.930 . S
H917 C902 0.930 . S
H918 C904 0.930 . S
H919 C905 0.930 . S
H920 C910 0.930 . S
H921 C911 0.930 . S
H922 C913 0.930 . S
H923 C914 0.930 . S
Gd924 N955 2.661 . S
Gd924 N961 2.601 . S
Gd924 O968 2.545 . S
Gd924 O969 2.606 . S
Gd924 O971 2.429 . S
Gd924 O972 2.545 . S
Gd924 O973 2.412 . S
Gd924 O975 2.362 . S
Gd924 O976 2.324 . S
Gd924 C983 2.828 1_545 S
Gd925 N934 2.661 . S
Gd925 N938 2.601 . S
Gd925 O969 2.362 . S
Gd925 O970 2.324 . S
Gd925 O974 2.545 . S
Gd925 O975 2.606 . S
Gd925 O977 2.429 . S
Gd925 O978 2.545 . S
Gd925 O979 2.412 . S
Gd925 C992 2.828 . S
C926 C929 1.417 1_455 S
C926 C931 1.431 . S
C926 C932 1.412 . S
C927 C930 1.437 1_455 S
C927 C931 1.317 . S
C927 H946 0.929 . S
C928 C929 1.426 . S
C928 C930 1.413 . S
C928 N938 1.359 . S
C929 C926 1.417 1_655 S
C929 C928 1.426 . S
C929 N934 1.350 . S
C930 C927 1.437 1_655 S
C930 C928 1.413 . S
C930 C940 1.391 1_556 S
C931 C926 1.431 . S
C931 C927 1.317 . S
C931 H942 0.930 . S
C932 C926 1.412 . S
C932 C933 1.355 . S
C932 H944 0.930 . S
C933 C932 1.355 . S
C933 C935 1.402 1_455 S
C933 H945 0.930 . S
N934 Gd925 2.661 . S
N934 C929 1.350 . S
N934 C935 1.307 . S
C935 C933 1.402 1_655 S
C935 N934 1.307 . S
C935 H936 0.930 . S
H936 C935 0.930 . S
C937 N938 1.334 . S
C937 C939 1.394 1_556 S
C937 H941 0.925 1_556 S
N938 Gd925 2.601 . S
N938 C928 1.359 . S
N938 C937 1.334 . S
C939 C937 1.394 1_554 S
C939 C940 1.359 . S
C939 H951 0.930 . S
C940 C930 1.391 1_554 S
C940 C939 1.359 . S
C940 H952 0.929 . S
H941 C937 0.925 1_554 S
H942 C931 0.930 . S
H943 C960 0.930 . S
H944 C932 0.930 . S
H945 C933 0.930 . S
H946 C927 0.929 . S
H947 C965 0.930 . S
H948 C956 0.930 . S
H949 C957 0.930 . S
H950 C981 0.929 . S
H951 C939 0.930 . S
H952 C940 0.929 . S
H953 C982 0.930 . S
H954 C963 0.930 . S
N955 Gd924 2.661 . S
N955 C959 1.350 . S
N955 C960 1.307 . S
C956 H948 0.930 . S
C956 C957 1.355 1_565 S
C956 C958 1.412 . S
C957 H949 0.930 . S
C957 C956 1.355 1_545 S
C957 C960 1.402 . S
C958 C956 1.412 . S
C958 C959 1.417 1_565 S
C958 C982 1.431 . S
C959 N955 1.350 . S
C959 C958 1.417 1_545 S
C959 C962 1.426 . S
C960 H943 0.930 . S
C960 N955 1.307 . S
C960 C957 1.402 . S
N961 Gd924 2.601 . S
N961 C962 1.359 . S
N961 C965 1.334 . S
C962 C959 1.426 . S
C962 N961 1.359 . S
C962 C966 1.413 1_545 S
C963 H954 0.930 . S
C963 C964 1.359 . S
C963 C965 1.394 . S
C964 C963 1.359 . S
C964 C966 1.391 1_545 S
C964 H967 0.929 1_545 S
C965 H947 0.930 . S
C965 N961 1.334 . S
C965 C963 1.394 . S
C966 C962 1.413 1_565 S
C966 C964 1.391 1_565 S
C966 C981 1.437 . S
H967 C964 0.929 1_565 S
O968 Gd924 2.545 . S
O968 C983 1.258 1_545 S
O969 Gd924 2.606 . S
O969 Gd925 2.362 . S
O969 C980 1.284 . S
O970 Gd925 2.324 . S
O970 C990 1.254 . S
O971 Gd924 2.429 . S
O971 C990 1.268 . S
O972 Gd924 2.545 . S
O972 C980 1.250 . S
O973 Gd924 2.412 . S
O973 C983 1.252 1_545 S
O974 Gd925 2.545 . S
O974 C992 1.258 . S
O975 Gd924 2.362 . S
O975 Gd925 2.606 . S
O975 C991 1.284 . S
O976 Gd924 2.324 . S
O976 C999 1.254 . S
O977 Gd925 2.429 . S
O977 C999 1.268 . S
O978 Gd925 2.545 . S
O978 C991 1.250 . S
O979 Gd925 2.412 . S
O979 C992 1.252 . S
C980 O969 1.284 . S
C980 O972 1.250 . S
C981 H950 0.929 . S
C981 C966 1.437 . S
C981 C982 1.317 . S
C982 H953 0.930 . S
C982 C958 1.431 . S
C982 C981 1.317 . S
C983 Gd924 2.828 1_565 S
C983 O968 1.258 1_565 S
C983 O973 1.252 1_565 S
C983 C984 1.497 . S
C984 C983 1.497 . S
C984 C985 1.395 . S
C984 C986 1.380 . S
C985 C984 1.395 . S
C985 C988 1.398 . S
C985 H1000 0.930 . S
C986 C984 1.380 . S
C986 C987 1.391 . S
C986 H1001 0.930 . S
C987 C986 1.391 . S
C987 C989 1.387 . S
C988 C985 1.398 . S
C988 C989 1.380 . S
C988 H1002 0.930 . S
C989 C987 1.387 . S
C989 C988 1.380 . S
C989 H1003 0.930 . S
C990 O970 1.254 . S
C990 O971 1.268 . S
C991 O975 1.284 . S
C991 O978 1.250 . S
C992 Gd925 2.828 . S
C992 O974 1.258 . S
C992 O979 1.252 . S
C992 C993 1.497 . S
C993 C992 1.497 . S
C993 C994 1.395 . S
C993 C995 1.380 . S
C994 C993 1.395 . S
C994 C997 1.398 . S
C994 H1004 0.930 . S
C995 C993 1.380 . S
C995 C996 1.391 . S
C995 H1005 0.930 . S
C996 C995 1.391 . S
C996 C998 1.387 . S
C997 C994 1.398 . S
C997 C998 1.380 . S
C997 H1006 0.930 . S
C998 C996 1.387 . S
C998 C997 1.380 . S
C998 H1007 0.930 . S
C999 O976 1.254 . S
C999 O977 1.268 . S
H1000 C985 0.930 . S
H1001 C986 0.930 . S
H1002 C988 0.930 . S
H1003 C989 0.930 . S
H1004 C994 0.930 . S
H1005 C995 0.930 . S
H1006 C997 0.930 . S
H1007 C998 0.930 . S
C1008 C1009 1.387 . S
C1008 H1012 0.950 . S
C1008 C1017 1.390 1_565 S
C1009 C1008 1.387 . S
C1009 C1011 1.387 . S
H1010 C1017 0.950 . S
C1011 C1009 1.387 . S
C1011 C1013 1.390 1_565 S
C1011 H1015 0.950 . S
H1012 C1008 0.950 . S
C1013 C1011 1.390 1_545 S
C1013 C1014 1.387 . S
C1013 H1016 0.950 . S
C1014 C1013 1.387 . S
C1014 C1017 1.387 . S
H1015 C1011 0.950 . S
H1016 C1013 0.950 . S
C1017 C1008 1.390 1_545 S
C1017 H1010 0.950 . S
C1017 C1014 1.387 . S
C1018 C1019 1.387 . S
C1018 H1022 0.950 . S
C1018 C1027 1.390 . S
C1019 C1018 1.387 . S
C1019 C1021 1.387 . S
H1020 C1027 0.950 . S
C1021 C1019 1.387 . S
C1021 C1023 1.390 . S
C1021 H1025 0.950 . S
H1022 C1018 0.950 . S
C1023 C1021 1.390 . S
C1023 C1024 1.387 . S
C1023 H1026 0.950 . S
C1024 C1023 1.387 . S
C1024 C1027 1.387 . S
H1025 C1021 0.950 . S
H1026 C1023 0.950 . S
C1027 C1018 1.390 . S
C1027 H1020 0.950 . S
C1027 C1024 1.387 . S
C1028 C1029 1.387 . S
C1028 H1032 0.950 . S
C1028 C1037 1.390 1_655 S
C1029 C1028 1.387 . S
C1029 C1031 1.387 . S
H1030 C1037 0.950 . S
C1031 C1029 1.387 . S
C1031 C1033 1.390 1_655 S
C1031 H1035 0.950 . S
H1032 C1028 0.950 . S
C1033 C1031 1.390 1_455 S
C1033 C1034 1.387 . S
C1033 H1036 0.950 . S
C1034 C1033 1.387 . S
C1034 C1037 1.387 . S
H1035 C1031 0.950 . S
H1036 C1033 0.950 . S
C1037 C1028 1.390 1_455 S
C1037 H1030 0.950 . S
C1037 C1034 1.387 . S
C1038 C1039 1.387 . S
C1038 H1042 0.950 . S
C1038 C1047 1.390 1_565 S
C1039 C1038 1.387 . S
C1039 C1041 1.387 . S
H1040 C1047 0.950 . S
C1041 C1039 1.387 . S
C1041 C1043 1.390 1_565 S
C1041 H1045 0.950 . S
H1042 C1038 0.950 . S
C1043 C1041 1.390 1_545 S
C1043 C1044 1.387 . S
C1043 H1046 0.950 . S
C1044 C1043 1.387 . S
C1044 C1047 1.387 . S
H1045 C1041 0.950 . S
H1046 C1043 0.950 . S
C1047 C1038 1.390 1_545 S
C1047 H1040 0.950 . S
C1047 C1044 1.387 . S
C1048 C1049 1.387 . S
C1048 H1052 0.950 . S
C1048 C1057 1.390 . S
C1049 C1048 1.387 . S
C1049 C1051 1.387 . S
H1050 C1057 0.950 . S
C1051 C1049 1.387 . S
C1051 C1053 1.390 . S
C1051 H1055 0.950 . S
H1052 C1048 0.950 . S
C1053 C1051 1.390 . S
C1053 C1054 1.387 . S
C1053 H1056 0.950 . S
C1054 C1053 1.387 . S
C1054 C1057 1.387 . S
H1055 C1051 0.950 . S
H1056 C1053 0.950 . S
C1057 C1048 1.390 . S
C1057 H1050 0.950 . S
C1057 C1054 1.387 . S
C1058 C1059 1.387 . S
C1058 H1062 0.950 . S
C1058 C1067 1.390 1_655 S
C1059 C1058 1.387 . S
C1059 C1061 1.387 . S
H1060 C1067 0.950 . S
C1061 C1059 1.387 . S
C1061 C1063 1.390 1_655 S
C1061 H1065 0.950 . S
H1062 C1058 0.950 . S
C1063 C1061 1.390 1_455 S
C1063 C1064 1.387 . S
C1063 H1066 0.950 . S
C1064 C1063 1.387 . S
C1064 C1067 1.387 . S
H1065 C1061 0.950 . S
H1066 C1063 0.950 . S
C1067 C1058 1.390 1_455 S
C1067 H1060 0.950 . S
C1067 C1064 1.387 . S
C1068 C1069 1.387 . S
C1068 H1072 0.950 . S
C1068 C1077 1.390 1_455 S
C1069 C1068 1.387 . S
C1069 C1071 1.387 . S
H1070 C1077 0.950 . S
C1071 C1069 1.387 . S
C1071 C1073 1.390 1_455 S
C1071 H1075 0.950 . S
H1072 C1068 0.950 . S
C1073 C1071 1.390 1_655 S
C1073 C1074 1.387 . S
C1073 H1076 0.950 . S
C1074 C1073 1.387 . S
C1074 C1077 1.387 . S
H1075 C1071 0.950 . S
H1076 C1073 0.950 . S
C1077 C1068 1.390 1_655 S
C1077 H1070 0.950 . S
C1077 C1074 1.387 . S
C1078 C1079 1.387 . S
C1078 H1082 0.950 . S
C1078 C1087 1.390 1_565 S
C1079 C1078 1.387 . S
C1079 C1081 1.387 . S
H1080 C1087 0.950 . S
C1081 C1079 1.387 . S
C1081 C1083 1.390 1_565 S
C1081 H1085 0.950 . S
H1082 C1078 0.950 . S
C1083 C1081 1.390 1_545 S
C1083 C1084 1.387 . S
C1083 H1086 0.950 . S
C1084 C1083 1.387 . S
C1084 C1087 1.387 . S
H1085 C1081 0.950 . S
H1086 C1083 0.950 . S
C1087 C1078 1.390 1_545 S
C1087 H1080 0.950 . S
C1087 C1084 1.387 . S
C1088 C1089 1.387 . S
C1088 H1092 0.950 . S
C1088 C1097 1.390 . S
C1089 C1088 1.387 . S
C1089 C1091 1.387 . S
H1090 C1097 0.950 . S
C1091 C1089 1.387 . S
C1091 C1093 1.390 . S
C1091 H1095 0.950 . S
H1092 C1088 0.950 . S
C1093 C1091 1.390 . S
C1093 C1094 1.387 . S
C1093 H1096 0.950 . S
C1094 C1093 1.387 . S
C1094 C1097 1.387 . S
H1095 C1091 0.950 . S
H1096 C1093 0.950 . S
C1097 C1088 1.390 . S
C1097 H1090 0.950 . S
C1097 C1094 1.387 . S
C1098 C1099 1.387 . S
C1098 H1102 0.950 . S
C1098 C1107 1.390 1_455 S
C1099 C1098 1.387 . S
C1099 C1101 1.387 . S
H1100 C1107 0.950 . S
C1101 C1099 1.387 . S
C1101 C1103 1.390 1_455 S
C1101 H1105 0.950 . S
H1102 C1098 0.950 . S
C1103 C1101 1.390 1_655 S
C1103 C1104 1.387 . S
C1103 H1106 0.950 . S
C1104 C1103 1.387 . S
C1104 C1107 1.387 . S
H1105 C1101 0.950 . S
H1106 C1103 0.950 . S
C1107 C1098 1.390 1_655 S
C1107 H1100 0.950 . S
C1107 C1104 1.387 . S
C1108 C1109 1.387 . S
C1108 H1112 0.950 . S
C1108 C1117 1.390 1_545 S
C1109 C1108 1.387 . S
C1109 C1111 1.387 . S
H1110 C1117 0.950 . S
C1111 C1109 1.387 . S
C1111 C1113 1.390 1_545 S
C1111 H1115 0.950 . S
H1112 C1108 0.950 . S
C1113 C1111 1.390 1_565 S
C1113 C1114 1.387 . S
C1113 H1116 0.950 . S
C1114 C1113 1.387 . S
C1114 C1117 1.387 . S
H1115 C1111 0.950 . S
H1116 C1113 0.950 . S
C1117 C1108 1.390 1_565 S
C1117 H1110 0.950 . S
C1117 C1114 1.387 . S
C1118 C1119 1.387 . S
C1118 H1122 0.950 . S
C1118 C1127 1.390 . S
C1119 C1118 1.387 . S
C1119 C1121 1.387 . S
H1120 C1127 0.950 . S
C1121 C1119 1.387 . S
C1121 C1123 1.390 . S
C1121 H1125 0.950 . S
H1122 C1118 0.950 . S
C1123 C1121 1.390 . S
C1123 C1124 1.387 . S
C1123 H1126 0.950 . S
C1124 C1123 1.387 . S
C1124 C1127 1.387 . S
H1125 C1121 0.950 . S
H1126 C1123 0.950 . S
C1127 C1118 1.390 . S
C1127 H1120 0.950 . S
C1127 C1124 1.387 . S
C1128 C1129 1.387 . S
C1128 H1132 0.950 . S
C1128 C1137 1.390 . S
C1129 C1128 1.387 . S
C1129 C1131 1.387 . S
H1130 C1137 0.950 . S
C1131 C1129 1.387 . S
C1131 C1133 1.390 . S
C1131 H1135 0.950 . S
H1132 C1128 0.950 . S
C1133 C1131 1.390 . S
C1133 C1134 1.387 . S
C1133 H1136 0.950 . S
C1134 C1133 1.387 . S
C1134 C1137 1.387 . S
H1135 C1131 0.950 . S
H1136 C1133 0.950 . S
C1137 C1128 1.390 . S
C1137 H1130 0.950 . S
C1137 C1134 1.387 . S
C1138 C1139 1.387 . S
C1138 H1142 0.950 . S
C1138 C1147 1.390 . S
C1139 C1138 1.387 . S
C1139 C1141 1.387 . S
H1140 C1147 0.950 . S
C1141 C1139 1.387 . S
C1141 C1143 1.390 . S
C1141 H1145 0.950 . S
H1142 C1138 0.950 . S
C1143 C1141 1.390 . S
C1143 C1144 1.387 . S
C1143 H1146 0.950 . S
C1144 C1143 1.387 . S
C1144 C1147 1.387 . S
H1145 C1141 0.950 . S
H1146 C1143 0.950 . S
C1147 C1138 1.390 . S
C1147 H1140 0.950 . S
C1147 C1144 1.387 . S
C1148 C1149 1.387 . S
C1148 H1152 0.950 . S
C1148 C1157 1.390 . S
C1149 C1148 1.387 . S
C1149 C1151 1.387 . S
H1150 C1157 0.950 . S
C1151 C1149 1.387 . S
C1151 C1153 1.390 . S
C1151 H1155 0.950 . S
H1152 C1148 0.950 . S
C1153 C1151 1.390 . S
C1153 C1154 1.387 . S
C1153 H1156 0.950 . S
C1154 C1153 1.387 . S
C1154 C1157 1.387 . S
H1155 C1151 0.950 . S
H1156 C1153 0.950 . S
C1157 C1148 1.390 . S
C1157 H1150 0.950 . S
C1157 C1154 1.387 . S
C1158 C1159 1.387 . S
C1158 H1162 0.950 . S
C1158 C1167 1.390 . S
C1159 C1158 1.387 . S
C1159 C1161 1.387 . S
H1160 C1167 0.950 . S
C1161 C1159 1.387 . S
C1161 C1163 1.390 . S
C1161 H1165 0.950 . S
H1162 C1158 0.950 . S
C1163 C1161 1.390 . S
C1163 C1164 1.387 . S
C1163 H1166 0.950 . S
C1164 C1163 1.387 . S
C1164 C1167 1.387 . S
H1165 C1161 0.950 . S
H1166 C1163 0.950 . S
C1167 C1158 1.390 . S
C1167 H1160 0.950 . S
C1167 C1164 1.387 . S
C1168 C1169 1.387 . S
C1168 H1172 0.950 . S
C1168 C1177 1.390 . S
C1169 C1168 1.387 . S
C1169 C1171 1.387 . S
H1170 C1177 0.950 . S
C1171 C1169 1.387 . S
C1171 C1173 1.390 . S
C1171 H1175 0.950 . S
H1172 C1168 0.950 . S
C1173 C1171 1.390 . S
C1173 C1174 1.387 . S
C1173 H1176 0.950 . S
C1174 C1173 1.387 . S
C1174 C1177 1.387 . S
H1175 C1171 0.950 . S
H1176 C1173 0.950 . S
C1177 C1168 1.390 . S
C1177 H1170 0.950 . S
C1177 C1174 1.387 . S
C1178 C1179 1.387 . S
C1178 H1182 0.950 . S
C1178 C1187 1.390 . S
C1179 C1178 1.387 . S
C1179 C1181 1.387 . S
H1180 C1187 0.950 . S
C1181 C1179 1.387 . S
C1181 C1183 1.390 . S
C1181 H1185 0.950 . S
H1182 C1178 0.950 . S
C1183 C1181 1.390 . S
C1183 C1184 1.387 . S
C1183 H1186 0.950 . S
C1184 C1183 1.387 . S
C1184 C1187 1.387 . S
H1185 C1181 0.950 . S
H1186 C1183 0.950 . S
C1187 C1178 1.390 . S
C1187 H1180 0.950 . S
C1187 C1184 1.387 . S
C1188 C1189 1.387 . S
C1188 H1192 0.950 . S
C1188 C1197 1.390 . S
C1189 C1188 1.387 . S
C1189 C1191 1.387 . S
H1190 C1197 0.950 . S
C1191 C1189 1.387 . S
C1191 C1193 1.390 . S
C1191 H1195 0.950 . S
H1192 C1188 0.950 . S
C1193 C1191 1.390 . S
C1193 C1194 1.387 . S
C1193 H1196 0.950 . S
C1194 C1193 1.387 . S
C1194 C1197 1.387 . S
H1195 C1191 0.950 . S
H1196 C1193 0.950 . S
C1197 C1188 1.390 . S
C1197 H1190 0.950 . S
C1197 C1194 1.387 . S
C1198 C1199 1.387 . S
C1198 H1202 0.950 . S
C1198 C1207 1.390 . S
C1199 C1198 1.387 . S
C1199 C1201 1.387 . S
H1200 C1207 0.950 . S
C1201 C1199 1.387 . S
C1201 C1203 1.390 . S
C1201 H1205 0.950 . S
H1202 C1198 0.950 . S
C1203 C1201 1.390 . S
C1203 C1204 1.387 . S
C1203 H1206 0.950 . S
C1204 C1203 1.387 . S
C1204 C1207 1.387 . S
H1205 C1201 0.950 . S
H1206 C1203 0.950 . S
C1207 C1198 1.390 . S
C1207 H1200 0.950 . S
C1207 C1204 1.387 . S
C1208 C1209 1.387 . S
C1208 H1212 0.950 . S
C1208 C1217 1.390 . S
C1209 C1208 1.387 . S
C1209 C1211 1.387 . S
H1210 C1217 0.950 . S
C1211 C1209 1.387 . S
C1211 C1213 1.390 . S
C1211 H1215 0.950 . S
H1212 C1208 0.950 . S
C1213 C1211 1.390 . S
C1213 C1214 1.387 . S
C1213 H1216 0.950 . S
C1214 C1213 1.387 . S
C1214 C1217 1.387 . S
H1215 C1211 0.950 . S
H1216 C1213 0.950 . S
C1217 C1208 1.390 . S
C1217 H1210 0.950 . S
C1217 C1214 1.387 . S
C1218 C1219 1.387 . S
C1218 H1222 0.950 . S
C1218 C1227 1.390 . S
C1219 C1218 1.387 . S
C1219 C1221 1.387 . S
H1220 C1227 0.950 . S
C1221 C1219 1.387 . S
C1221 C1223 1.390 . S
C1221 H1225 0.950 . S
H1222 C1218 0.950 . S
C1223 C1221 1.390 . S
C1223 C1224 1.387 . S
C1223 H1226 0.950 . S
C1224 C1223 1.387 . S
C1224 C1227 1.387 . S
H1225 C1221 0.950 . S
H1226 C1223 0.950 . S
C1227 C1218 1.390 . S
C1227 H1220 0.950 . S
C1227 C1224 1.387 . S
C1228 C1229 1.387 . S
C1228 H1232 0.950 . S
C1228 C1237 1.390 . S
C1229 C1228 1.387 . S
C1229 C1231 1.387 . S
H1230 C1237 0.950 . S
C1231 C1229 1.387 . S
C1231 C1233 1.390 . S
C1231 H1235 0.950 . S
H1232 C1228 0.950 . S
C1233 C1231 1.390 . S
C1233 C1234 1.387 . S
C1233 H1236 0.950 . S
C1234 C1233 1.387 . S
C1234 C1237 1.387 . S
H1235 C1231 0.950 . S
H1236 C1233 0.950 . S
C1237 C1228 1.390 . S
C1237 H1230 0.950 . S
C1237 C1234 1.387 . S
C1238 C1239 1.387 . S
C1238 H1242 0.950 . S
C1238 C1247 1.390 . S
C1239 C1238 1.387 . S
C1239 C1241 1.387 . S
H1240 C1247 0.950 . S
C1241 C1239 1.387 . S
C1241 C1243 1.390 . S
C1241 H1245 0.950 . S
H1242 C1238 0.950 . S
C1243 C1241 1.390 . S
C1243 C1244 1.387 . S
C1243 H1246 0.950 . S
C1244 C1243 1.387 . S
C1244 C1247 1.387 . S
H1245 C1241 0.950 . S
H1246 C1243 0.950 . S
C1247 C1238 1.390 . S
C1247 H1240 0.950 . S
C1247 C1244 1.387 . S
C1248 C1249 1.387 . S
C1248 H1252 0.950 . S
C1248 C1257 1.390 . S
C1249 C1248 1.387 . S
C1249 C1251 1.387 . S
H1250 C1257 0.950 . S
C1251 C1249 1.387 . S
C1251 C1253 1.390 . S
C1251 H1255 0.950 . S
H1252 C1248 0.950 . S
C1253 C1251 1.390 . S
C1253 C1254 1.387 . S
C1253 H1256 0.950 . S
C1254 C1253 1.387 . S
C1254 C1257 1.387 . S
H1255 C1251 0.950 . S
H1256 C1253 0.950 . S
C1257 C1248 1.390 . S
C1257 H1250 0.950 . S
C1257 C1254 1.387 . S
C1258 C1259 1.387 . S
C1258 H1262 0.950 . S
C1258 C1267 1.390 . S
C1259 C1258 1.387 . S
C1259 C1261 1.387 . S
H1260 C1267 0.950 . S
C1261 C1259 1.387 . S
C1261 C1263 1.390 . S
C1261 H1265 0.950 . S
H1262 C1258 0.950 . S
C1263 C1261 1.390 . S
C1263 C1264 1.387 . S
C1263 H1266 0.950 . S
C1264 C1263 1.387 . S
C1264 C1267 1.387 . S
H1265 C1261 0.950 . S
H1266 C1263 0.950 . S
C1267 C1258 1.390 . S
C1267 H1260 0.950 . S
C1267 C1264 1.387 . S
C1268 C1269 1.387 . S
C1268 H1272 0.950 . S
C1268 C1277 1.390 . S
C1269 C1268 1.387 . S
C1269 C1271 1.387 . S
H1270 C1277 0.950 . S
C1271 C1269 1.387 . S
C1271 C1273 1.390 . S
C1271 H1275 0.950 . S
H1272 C1268 0.950 . S
C1273 C1271 1.390 . S
C1273 C1274 1.387 . S
C1273 H1276 0.950 . S
C1274 C1273 1.387 . S
C1274 C1277 1.387 . S
H1275 C1271 0.950 . S
H1276 C1273 0.950 . S
C1277 C1268 1.390 . S
C1277 H1270 0.950 . S
C1277 C1274 1.387 . S
C1278 C1279 1.387 . S
C1278 H1282 0.950 . S
C1278 C1287 1.390 . S
C1279 C1278 1.387 . S
C1279 C1281 1.387 . S
H1280 C1287 0.950 . S
C1281 C1279 1.387 . S
C1281 C1283 1.390 . S
C1281 H1285 0.950 . S
H1282 C1278 0.950 . S
C1283 C1281 1.390 . S
C1283 C1284 1.387 . S
C1283 H1286 0.950 . S
C1284 C1283 1.387 . S
C1284 C1287 1.387 . S
H1285 C1281 0.950 . S
H1286 C1283 0.950 . S
C1287 C1278 1.390 . S
C1287 H1280 0.950 . S
C1287 C1284 1.387 . S
C1288 C1289 1.387 . S
C1288 H1292 0.950 . S
C1288 C1297 1.390 . S
C1289 C1288 1.387 . S
C1289 C1291 1.387 . S
H1290 C1297 0.950 . S
C1291 C1289 1.387 . S
C1291 C1293 1.390 . S
C1291 H1295 0.950 . S
H1292 C1288 0.950 . S
C1293 C1291 1.390 . S
C1293 C1294 1.387 . S
C1293 H1296 0.950 . S
C1294 C1293 1.387 . S
C1294 C1297 1.387 . S
H1295 C1291 0.950 . S
H1296 C1293 0.950 . S
C1297 C1288 1.390 . S
C1297 H1290 0.950 . S
C1297 C1294 1.387 . S
C1298 C1299 1.387 . S
C1298 H1302 0.950 . S
C1298 C1307 1.390 . S
C1299 C1298 1.387 . S
C1299 C1301 1.387 . S
H1300 C1307 0.950 . S
C1301 C1299 1.387 . S
C1301 C1303 1.390 . S
C1301 H1305 0.950 . S
H1302 C1298 0.950 . S
C1303 C1301 1.390 . S
C1303 C1304 1.387 . S
C1303 H1306 0.950 . S
C1304 C1303 1.387 . S
C1304 C1307 1.387 . S
H1305 C1301 0.950 . S
H1306 C1303 0.950 . S
C1307 C1298 1.390 . S
C1307 H1300 0.950 . S
C1307 C1304 1.387 . S
C1308 C1309 1.387 . S
C1308 H1312 0.950 . S
C1308 C1317 1.390 . S
C1309 C1308 1.387 . S
C1309 C1311 1.387 1_556 S
H1310 C1317 0.950 . S
C1311 C1309 1.387 1_554 S
C1311 C1313 1.390 . S
C1311 H1315 0.950 . S
H1312 C1308 0.950 . S
C1313 C1311 1.390 . S
C1313 C1314 1.387 . S
C1313 H1316 0.950 . S
C1314 C1313 1.387 . S
C1314 C1317 1.387 1_554 S
H1315 C1311 0.950 . S
H1316 C1313 0.950 . S
C1317 C1308 1.390 . S
C1317 H1310 0.950 . S
C1317 C1314 1.387 1_556 S
C1318 C1319 1.387 . S
C1318 H1322 0.950 . S
C1318 C1327 1.390 1_455 S
C1319 C1318 1.387 . S
C1319 C1321 1.387 . S
H1320 C1327 0.950 . S
C1321 C1319 1.387 . S
C1321 C1323 1.390 1_455 S
C1321 H1325 0.950 . S
H1322 C1318 0.950 . S
C1323 C1321 1.390 1_655 S
C1323 C1324 1.387 . S
C1323 H1326 0.950 . S
C1324 C1323 1.387 . S
C1324 C1327 1.387 . S
H1325 C1321 0.950 . S
H1326 C1323 0.950 . S
C1327 C1318 1.390 1_655 S
C1327 H1320 0.950 . S
C1327 C1324 1.387 . S
C1328 C1329 1.387 . S
C1328 H1332 0.950 . S
C1328 C1337 1.390 1_564 S
C1329 C1328 1.387 . S
C1329 C1331 1.387 . S
H1330 C1337 0.950 . S
C1331 C1329 1.387 . S
C1331 C1333 1.390 1_564 S
C1331 H1335 0.950 . S
H1332 C1328 0.950 . S
C1333 C1331 1.390 1_546 S
C1333 C1334 1.387 . S
C1333 H1336 0.950 . S
C1334 C1333 1.387 . S
C1334 C1337 1.387 . S
H1335 C1331 0.950 . S
H1336 C1333 0.950 . S
C1337 C1328 1.390 1_546 S
C1337 H1330 0.950 . S
C1337 C1334 1.387 . S
C1338 C1339 1.387 . S
C1338 H1342 0.950 . S
C1338 C1347 1.390 . S
C1339 C1338 1.387 . S
C1339 C1341 1.387 . S
H1340 C1347 0.950 . S
C1341 C1339 1.387 . S
C1341 C1343 1.390 . S
C1341 H1345 0.950 . S
H1342 C1338 0.950 . S
C1343 C1341 1.390 . S
C1343 C1344 1.387 . S
C1343 H1346 0.950 . S
C1344 C1343 1.387 . S
C1344 C1347 1.387 . S
H1345 C1341 0.950 . S
H1346 C1343 0.950 . S
C1347 C1338 1.390 . S
C1347 H1340 0.950 . S
C1347 C1344 1.387 . S
C1348 C1349 1.387 1_554 S
C1348 H1352 0.950 . S
C1348 C1357 1.390 1_655 S
C1349 C1348 1.387 1_556 S
C1349 C1351 1.387 . S
H1350 C1357 0.950 . S
C1351 C1349 1.387 . S
C1351 C1353 1.390 1_655 S
C1351 H1355 0.950 . S
H1352 C1348 0.950 . S
C1353 C1351 1.390 1_455 S
C1353 C1354 1.387 1_556 S
C1353 H1356 0.950 . S
C1354 C1353 1.387 1_554 S
C1354 C1357 1.387 . S
H1355 C1351 0.950 . S
H1356 C1353 0.950 . S
C1357 C1348 1.390 1_455 S
C1357 H1350 0.950 . S
C1357 C1354 1.387 . S
C1358 C1359 1.387 . S
C1358 H1362 0.950 . S
C1358 C1367 1.390 1_565 S
C1359 C1358 1.387 . S
C1359 C1361 1.387 . S
H1360 C1367 0.950 . S
C1361 C1359 1.387 . S
C1361 C1363 1.390 1_565 S
C1361 H1365 0.950 . S
H1362 C1358 0.950 . S
C1363 C1361 1.390 1_545 S
C1363 C1364 1.387 . S
C1363 H1366 0.950 . S
C1364 C1363 1.387 . S
C1364 C1367 1.387 . S
H1365 C1361 0.950 . S
H1366 C1363 0.950 . S
C1367 C1358 1.390 1_545 S
C1367 H1360 0.950 . S
C1367 C1364 1.387 . S
C1009 C392 1.398 . S
C1014 C63 1.342 . S
C1019 C476 1.399 . S
C1024 C147 1.344 . S
C1029 C231 1.343 . S
C1034 C56 1.399 . S
C1039 C315 1.343 . S
C1044 C140 1.398 . S
C1049 C399 1.344 . S
C1054 C224 1.397 . S
C1059 C308 1.399 . S
C1064 C483 1.342 . S
C1069 C728 1.399 . S
C1074 C567 1.344 . S
C1079 C651 1.344 . S
C1084 C812 1.399 . S
C1089 C896 1.398 . S
C1094 C735 1.343 . S
C1099 C819 1.345 . S
C1104 C980 1.397 . S
C1109 C903 1.342 . S
C1114 C560 1.400 . S
C1119 C644 1.399 . S
C1124 C987 1.343 . S
C1129 C403 1.391 . S
C1134 C72 1.357 . S
C1139 C156 1.359 . S
C1144 C487 1.390 . S
C1149 C240 1.359 . S
C1154 C67 1.394 . S
C1159 C324 1.357 . S
C1164 C151 1.391 . S
C1169 C235 1.395 . S
C1174 C408 1.357 . S
C1179 C319 1.394 . S
C1184 C492 1.359 . S
C1189 C739 1.390 . S
C1194 C576 1.359 . S
C1199 C660 1.357 . S
C1204 C823 1.391 . S
C1209 C744 1.358 . S
C1214 C907 1.390 . S
C1219 C991 1.391 . S
C1224 C828 1.357 . S
C1229 C912 1.359 . S
C1234 C571 1.394 . S
C1239 C655 1.394 . S
C1244 C996 1.359 . S
C1249 C906 1.887 . S
C1254 C66 1.887 . S
C1259 C150 1.888 . S
C1264 C990 1.886 . S
C1269 C234 1.889 . S
C1274 C570 1.886 . S
C1279 C318 1.887 . S
C1284 C654 1.887 . S
C1289 C402 1.885 . S
C1294 C738 1.888 . S
C1299 C822 1.887 . S
C1304 C486 1.886 . S
C1309 C831 2.098 . S
C1314 C75 2.098 . S
C1319 C915 2.098 . S
C1324 C159 2.096 . S
C1329 C243 2.096 . S
C1334 C999 2.096 . S
C1339 C327 2.099 . S
C1344 C579 2.097 . S
C1349 C663 2.099 . S
C1354 C411 2.097 . S
C1359 C747 2.096 . S
C1364 C495 2.096 . S
