# Generated by pormake.
# Topology crs, (6)-cn, num edge types: 1
# Building blocks:
#     Node 0, Type 0, BuildingBlock: CUKXOW_clean_sbu_0, # of connection points: 6
#     Node 1, Type 0, BuildingBlock: CUKXOW_clean_sbu_0, # of connection points: 6
#     Node 2, Type 0, BuildingBlock: CUKXOW_clean_sbu_0, # of connection points: 6
#     Node 3, Type 0, BuildingBlock: CUKXOW_clean_sbu_0, # of connection points: 6
#     Node 4, Type 0, BuildingBlock: CUKXOW_clean_sbu_0, # of connection points: 6
#     Node 5, Type 0, BuildingBlock: CUKXOW_clean_sbu_0, # of connection points: 6
#     Node 6, Type 0, BuildingBlock: CUKXOW_clean_sbu_0, # of connection points: 6
#     Node 7, Type 0, BuildingBlock: CUKXOW_clean_sbu_0, # of connection points: 6
#     Node 8, Type 0, BuildingBlock: CUKXOW_clean_sbu_0, # of connection points: 6
#     Node 9, Type 0, BuildingBlock: CUKXOW_clean_sbu_0, # of connection points: 6
#     Node 10, Type 0, BuildingBlock: CUKXOW_clean_sbu_0, # of connection points: 6
#     Node 11, Type 0, BuildingBlock: CUKXOW_clean_sbu_0, # of connection points: 6
#     Node 12, Type 0, BuildingBlock: CUKXOW_clean_sbu_0, # of connection points: 6
#     Node 13, Type 0, BuildingBlock: CUKXOW_clean_sbu_0, # of connection points: 6
#     Node 14, Type 0, BuildingBlock: CUKXOW_clean_sbu_0, # of connection points: 6
#     Node 15, Type 0, BuildingBlock: CUKXOW_clean_sbu_0, # of connection points: 6
#     Edge 16, Type (0, 0), BuildingBlock: XUDNAN_clean_linker_2, # of connection points: 2
#     Edge 17, Type (0, 0), BuildingBlock: XUDNAN_clean_linker_2, # of connection points: 2
#     Edge 18, Type (0, 0), BuildingBlock: XUDNAN_clean_linker_2, # of connection points: 2
#     Edge 19, Type (0, 0), BuildingBlock: XUDNAN_clean_linker_2, # of connection points: 2
#     Edge 20, Type (0, 0), BuildingBlock: XUDNAN_clean_linker_2, # of connection points: 2
#     Edge 21, Type (0, 0), BuildingBlock: XUDNAN_clean_linker_2, # of connection points: 2
#     Edge 22, Type (0, 0), BuildingBlock: XUDNAN_clean_linker_2, # of connection points: 2
#     Edge 23, Type (0, 0), BuildingBlock: XUDNAN_clean_linker_2, # of connection points: 2
#     Edge 24, Type (0, 0), BuildingBlock: XUDNAN_clean_linker_2, # of connection points: 2
#     Edge 25, Type (0, 0), BuildingBlock: XUDNAN_clean_linker_2, # of connection points: 2
#     Edge 26, Type (0, 0), BuildingBlock: XUDNAN_clean_linker_2, # of connection points: 2
#     Edge 27, Type (0, 0), BuildingBlock: XUDNAN_clean_linker_2, # of connection points: 2
#     Edge 28, Type (0, 0), BuildingBlock: XUDNAN_clean_linker_2, # of connection points: 2
#     Edge 29, Type (0, 0), BuildingBlock: XUDNAN_clean_linker_2, # of connection points: 2
#     Edge 30, Type (0, 0), BuildingBlock: XUDNAN_clean_linker_2, # of connection points: 2
#     Edge 31, Type (0, 0), BuildingBlock: XUDNAN_clean_linker_2, # of connection points: 2
#     Edge 32, Type (0, 0), BuildingBlock: XUDNAN_clean_linker_2, # of connection points: 2
#     Edge 33, Type (0, 0), BuildingBlock: XUDNAN_clean_linker_2, # of connection points: 2
#     Edge 34, Type (0, 0), BuildingBlock: XUDNAN_clean_linker_2, # of connection points: 2
#     Edge 35, Type (0, 0), BuildingBlock: XUDNAN_clean_linker_2, # of connection points: 2
#     Edge 36, Type (0, 0), BuildingBlock: XUDNAN_clean_linker_2, # of connection points: 2
#     Edge 37, Type (0, 0), BuildingBlock: XUDNAN_clean_linker_2, # of connection points: 2
#     Edge 38, Type (0, 0), BuildingBlock: XUDNAN_clean_linker_2, # of connection points: 2
#     Edge 39, Type (0, 0), BuildingBlock: XUDNAN_clean_linker_2, # of connection points: 2
#     Edge 40, Type (0, 0), BuildingBlock: XUDNAN_clean_linker_2, # of connection points: 2
#     Edge 41, Type (0, 0), BuildingBlock: XUDNAN_clean_linker_2, # of connection points: 2
#     Edge 42, Type (0, 0), BuildingBlock: XUDNAN_clean_linker_2, # of connection points: 2
#     Edge 43, Type (0, 0), BuildingBlock: XUDNAN_clean_linker_2, # of connection points: 2
#     Edge 44, Type (0, 0), BuildingBlock: XUDNAN_clean_linker_2, # of connection points: 2
#     Edge 45, Type (0, 0), BuildingBlock: XUDNAN_clean_linker_2, # of connection points: 2
#     Edge 46, Type (0, 0), BuildingBlock: XUDNAN_clean_linker_2, # of connection points: 2
#     Edge 47, Type (0, 0), BuildingBlock: XUDNAN_clean_linker_2, # of connection points: 2
#     Edge 48, Type (0, 0), BuildingBlock: XUDNAN_clean_linker_2, # of connection points: 2
#     Edge 49, Type (0, 0), BuildingBlock: XUDNAN_clean_linker_2, # of connection points: 2
#     Edge 50, Type (0, 0), BuildingBlock: XUDNAN_clean_linker_2, # of connection points: 2
#     Edge 51, Type (0, 0), BuildingBlock: XUDNAN_clean_linker_2, # of connection points: 2
#     Edge 52, Type (0, 0), BuildingBlock: XUDNAN_clean_linker_2, # of connection points: 2
#     Edge 53, Type (0, 0), BuildingBlock: XUDNAN_clean_linker_2, # of connection points: 2
#     Edge 54, Type (0, 0), BuildingBlock: XUDNAN_clean_linker_2, # of connection points: 2
#     Edge 55, Type (0, 0), BuildingBlock: XUDNAN_clean_linker_2, # of connection points: 2
#     Edge 56, Type (0, 0), BuildingBlock: XUDNAN_clean_linker_2, # of connection points: 2
#     Edge 57, Type (0, 0), BuildingBlock: XUDNAN_clean_linker_2, # of connection points: 2
#     Edge 58, Type (0, 0), BuildingBlock: XUDNAN_clean_linker_2, # of connection points: 2
#     Edge 59, Type (0, 0), BuildingBlock: XUDNAN_clean_linker_2, # of connection points: 2
#     Edge 60, Type (0, 0), BuildingBlock: XUDNAN_clean_linker_2, # of connection points: 2
#     Edge 61, Type (0, 0), BuildingBlock: XUDNAN_clean_linker_2, # of connection points: 2
#     Edge 62, Type (0, 0), BuildingBlock: XUDNAN_clean_linker_2, # of connection points: 2
#     Edge 63, Type (0, 0), BuildingBlock: XUDNAN_clean_linker_2, # of connection points: 2
# Relax obj value: 0.154
# Max RMSD: 0.222
# Mean RMSD: 0.190
data_MOF--net-crs--node1-CUKXOW_clean_sbu_0--edge1-XUDNAN_clean_linker_2
_symmetry_space_group_name_H-M    P1
_symmetry_Int_Tables_number       1
_symmetry_cell_setting            triclinic
loop_
_symmetry_equiv_pos_as_xyz
'x, y, z'
_cell_length_a     38.075648
_cell_length_b     44.491581
_cell_length_c     48.044682
_cell_angle_alpha  95.784176
_cell_angle_beta   94.601832
_cell_angle_gamma 93.156954
loop_
_atom_site_label
_atom_site_type_symbol
_atom_site_fract_x
_atom_site_fract_y
_atom_site_fract_z
_atom_type_partial_charge
Tb0 Tb 0.03188 0.98743 0.97599 0.0
C1 C 0.05876 0.00591 0.03687 0.0
Tb2 Tb 0.99124 0.03376 0.00712 0.0
O3 O 0.07894 0.01875 0.97918 0.0
O4 O 0.02865 0.03512 0.97695 0.0
O5 O 0.05852 0.98412 0.01614 0.0
C6 C 0.97343 0.0821 0.03925 0.0
O7 O 0.03719 0.0284 0.03672 0.0
C8 C 0.9612 0.97868 0.00196 0.0
C9 C 0.96577 0.01347 0.94511 0.0
O10 O 0.96779 0.05413 0.0439 0.0
O11 O 0.98854 0.08295 0.01607 0.0
O12 O 0.94388 0.00308 0.00308 0.0
O13 O 0.99397 0.98601 0.00616 0.0
O14 O 0.96603 0.0363 0.96517 0.0
O15 O 0.9854 0.99021 0.9477 0.0
C16 C 0.04902 0.93991 0.94281 0.0
O17 O 0.05188 0.96788 0.93749 0.0
O18 O 0.0373 0.93867 0.96733 0.0
C19 C 0.06122 0.04289 0.98077 0.0
Tb20 Tb 0.97141 0.24315 0.26026 0.0
C21 C 0.0351 0.2116 0.23845 0.0
Tb22 Tb 0.01491 0.2748 0.22061 0.0
O23 O 0.95172 0.20584 0.22904 0.0
O24 O 0.96672 0.24802 0.21673 0.0
O25 O 0.0182 0.21722 0.26129 0.0
C26 C 0.05662 0.29277 0.18291 0.0
O27 O 0.03312 0.22916 0.21774 0.0
C28 C 0.02506 0.29521 0.27388 0.0
C29 C 0.94324 0.30137 0.23383 0.0
O30 O 0.0224 0.29183 0.18015 0.0
O31 O 0.06721 0.28335 0.2066 0.0
O32 O 0.02603 0.3125 0.25382 0.0
O33 O 0.02025 0.26815 0.26369 0.0
O34 O 0.96806 0.29984 0.21598 0.0
O35 O 0.94096 0.28302 0.25394 0.0
C36 C 0.94157 0.23131 0.30622 0.0
O37 O 0.94307 0.2121 0.28428 0.0
O38 O 0.9566 0.25718 0.30222 0.0
C39 C 0.95818 0.22074 0.20793 0.0
Tb40 Tb 0.71454 0.28611 0.46704 0.0
C41 C 0.69363 0.29125 0.53007 0.0
Tb42 Tb 0.75257 0.2502 0.50907 0.0
O43 O 0.68434 0.24531 0.44643 0.0
O44 O 0.70073 0.24879 0.48919 0.0
O45 O 0.69197 0.30287 0.50566 0.0
C46 C 0.77442 0.20375 0.53505 0.0
O47 O 0.71268 0.26795 0.53495 0.0
C48 C 0.7828 0.3046 0.50556 0.0
C49 C 0.77344 0.24505 0.44666 0.0
O50 O 0.78135 0.23207 0.54421 0.0
O51 O 0.75512 0.20161 0.5114 0.0
O52 O 0.78694 0.29001 0.52757 0.0
O53 O 0.76627 0.28681 0.4864 0.0
O54 O 0.77225 0.2314 0.46986 0.0
O55 O 0.75738 0.27032 0.44325 0.0
C56 C 0.69497 0.33418 0.44217 0.0
O57 O 0.69063 0.3063 0.43077 0.0
O58 O 0.70976 0.33473 0.46746 0.0
C59 C 0.68702 0.23093 0.4687 0.0
Tb60 Tb 0.78808 0.04902 0.72803 0.0
C61 C 0.80848 0.98496 0.74244 0.0
Tb62 Tb 0.75798 0.02402 0.77946 0.0
O63 O 0.84142 0.05212 0.74815 0.0
O64 O 0.79823 0.05618 0.77212 0.0
O65 O 0.8041 0.00288 0.7221 0.0
C66 C 0.74731 0.99781 0.82556 0.0
O67 O 0.79682 0.99127 0.76761 0.0
C68 C 0.71637 0.0174 0.73313 0.0
C69 C 0.73414 0.08642 0.76357 0.0
O70 O 0.73662 0.98691 0.80012 0.0
O71 O 0.76411 0.02406 0.82539 0.0
O72 O 0.70478 0.01796 0.75783 0.0
O73 O 0.74924 0.01631 0.73556 0.0
O74 O 0.73675 0.06851 0.78409 0.0
O75 O 0.74909 0.08126 0.73959 0.0
C76 C 0.7986 0.06976 0.67928 0.0
O77 O 0.80974 0.08338 0.70379 0.0
O78 O 0.7811 0.04455 0.68216 0.0
C79 C 0.83117 0.05406 0.77336 0.0
Tb80 Tb 0.50357 0.76126 0.27691 0.0
C81 C 0.58109 0.74837 0.26547 0.0
Tb82 Tb 0.5419 0.80065 0.23752 0.0
O83 O 0.48237 0.72344 0.24537 0.0
O84 O 0.51188 0.75957 0.23434 0.0
O85 O 0.55681 0.74668 0.28367 0.0
C86 C 0.57876 0.82278 0.19882 0.0
O87 O 0.57847 0.76539 0.24428 0.0
C88 C 0.53331 0.82741 0.28784 0.0
C89 C 0.46107 0.80528 0.24104 0.0
O90 O 0.59176 0.81722 0.22342 0.0
O91 O 0.54506 0.8158 0.19592 0.0
O92 O 0.53557 0.84157 0.2657 0.0
O93 O 0.53979 0.80008 0.28169 0.0
O94 O 0.48722 0.80686 0.22449 0.0
O95 O 0.46324 0.79152 0.26432 0.0
C96 C 0.47563 0.7469 0.32284 0.0
O97 O 0.49031 0.72806 0.30562 0.0
O98 O 0.47676 0.77356 0.31414 0.0
C99 C 0.49631 0.73465 0.22451 0.0
Tb100 Tb 0.22885 0.76833 0.46961 0.0
C101 C 0.2034 0.76991 0.5301 0.0
Tb102 Tb 0.26616 0.73312 0.51134 0.0
O103 O 0.20348 0.72726 0.44605 0.0
O104 O 0.21501 0.72863 0.48922 0.0
O105 O 0.20537 0.78454 0.50765 0.0
C106 C 0.28918 0.68799 0.53903 0.0
O107 O 0.22088 0.74546 0.53361 0.0
C108 C 0.29178 0.79015 0.51278 0.0
C109 C 0.29432 0.73406 0.45183 0.0
O110 O 0.2907 0.71627 0.54903 0.0
O111 O 0.275 0.6852 0.51339 0.0
O112 O 0.29501 0.77407 0.53383 0.0
O113 O 0.2792 0.77266 0.49176 0.0
O114 O 0.2915 0.71818 0.4735 0.0
O115 O 0.27621 0.75839 0.44896 0.0
C116 C 0.20258 0.81269 0.44259 0.0
O117 O 0.20649 0.78549 0.43131 0.0
O118 O 0.2133 0.81482 0.46899 0.0
C119 C 0.20427 0.71152 0.46732 0.0
Tb120 Tb 0.27139 0.52713 0.72804 0.0
C121 C 0.27713 0.45818 0.73683 0.0
Tb122 Tb 0.22507 0.49803 0.77169 0.0
O123 O 0.31951 0.52614 0.75647 0.0
O124 O 0.2701 0.5286 0.77223 0.0
O125 O 0.28132 0.47952 0.71967 0.0
C126 C 0.2103 0.47953 0.82047 0.0
O127 O 0.25929 0.46165 0.75955 0.0
C128 C 0.19548 0.48811 0.71953 0.0
C129 C 0.21213 0.56441 0.7574 0.0
O130 O 0.18679 0.48613 0.80124 0.0
O131 O 0.24154 0.48353 0.81213 0.0
O132 O 0.18262 0.47625 0.74056 0.0
O133 O 0.22323 0.50326 0.72932 0.0
O134 O 0.20702 0.54391 0.7753 0.0
O135 O 0.23349 0.56118 0.73679 0.0
C136 C 0.29146 0.55109 0.68293 0.0
O137 O 0.29653 0.5641 0.70853 0.0
O138 O 0.27537 0.52457 0.68283 0.0
C139 C 0.30237 0.52535 0.77878 0.0
Tb140 Tb 0.02095 0.47081 0.47877 0.0
C141 C 0.04989 0.48942 0.54086 0.0
Tb142 Tb 0.99425 0.52924 0.50915 0.0
O143 O 0.06715 0.49193 0.46112 0.0
O144 O 0.03549 0.51726 0.48518 0.0
O145 O 0.0422 0.4663 0.52119 0.0
C146 C 0.98682 0.57876 0.54337 0.0
O147 O 0.03753 0.51666 0.53864 0.0
C148 C 0.95051 0.48075 0.50341 0.0
C149 C 0.97024 0.51254 0.44525 0.0
O150 O 0.97949 0.55117 0.54846 0.0
O151 O -0.00201 0.57882 0.51844 0.0
O152 O 0.9405 0.50816 0.50372 0.0
O153 O 0.98363 0.48154 0.50821 0.0
O154 O 0.97467 0.53531 0.46577 0.0
O155 O 0.9827 0.48563 0.44788 0.0
C156 C 0.01656 0.41539 0.45166 0.0
O157 O 0.99148 0.43393 0.45221 0.0
O158 O 0.04429 0.42781 0.46707 0.0
C159 C 0.06249 0.51924 0.47199 0.0
Tb160 Tb 0.24205 0.28592 0.98099 0.0
C161 C 0.22469 0.29432 0.04411 0.0
Tb162 Tb 0.27596 0.24615 0.02051 0.0
O163 O 0.21045 0.24766 0.95757 0.0
O164 O 0.22467 0.24693 -7e-05 0.0
O165 O 0.22156 0.30481 0.01927 0.0
C166 C 0.29053 0.20515 0.05562 0.0
O167 O 0.24409 0.2713 0.04935 0.0
C168 C 0.31805 0.29111 0.00806 0.0
C169 C 0.29059 0.23699 0.95765 0.0
O170 O 0.30327 0.23307 0.05885 0.0
O171 O 0.26953 0.2004 0.03279 0.0
O172 O 0.32837 0.26484 0.0134 0.0
O173 O 0.28566 0.29192 0.01185 0.0
O174 O 0.28683 0.22309 0.9804 0.0
O175 O 0.27945 0.2643 0.95505 0.0
C176 C 0.22363 0.33271 0.95404 0.0
O177 O 0.25576 0.32534 0.95951 0.0
O178 O 0.20179 0.3135 0.96339 0.0
C179 C 0.21039 0.23104 0.97828 0.0
Tb180 Tb 0.26 0.01732 0.22191 0.0
C181 C 0.28413 0.95515 0.23596 0.0
Tb182 Tb 0.21843 0.98452 0.26307 0.0
O183 O 0.30363 0.02816 0.25417 0.0
O184 O 0.25194 0.02419 0.26529 0.0
O185 O 0.28081 0.97329 0.21577 0.0
C186 C 0.19819 0.95742 0.30655 0.0
O187 O 0.26619 0.95864 0.25869 0.0
C188 C 0.19301 0.97548 0.2109 0.0
C189 C 0.18913 0.04358 0.24238 0.0
O190 O 0.19558 0.94533 0.28071 0.0
O191 O 0.21222 0.9848 0.30796 0.0
O192 O 0.17352 0.9742 0.23181 0.0
O193 O 0.22505 0.97864 0.21992 0.0
O194 O 0.18767 0.02464 0.26207 0.0
O195 O 0.21398 0.04369 0.22456 0.0
C196 C 0.28389 0.04745 0.18127 0.0
O197 O 0.30137 0.04398 0.20483 0.0
O198 O 0.2529 0.03353 0.1803 0.0
C199 C 0.28373 0.02786 0.27474 0.0
Tb200 Tb 0.46624 0.23577 0.75925 0.0
C201 C 0.54471 0.22372 0.75138 0.0
Tb202 Tb 0.50277 0.27065 0.71953 0.0
O203 O 0.46874 0.19237 0.73439 0.0
O204 O 0.46654 0.23168 0.71429 0.0
O205 O 0.52009 0.22313 0.76937 0.0
C206 C 0.53801 0.29034 0.67858 0.0
O207 O 0.54048 0.23715 0.7281 0.0
C208 C 0.49991 0.30095 0.76964 0.0
C209 C 0.42645 0.28568 0.72869 0.0
O210 O 0.55153 0.2874 0.70367 0.0
O211 O 0.5047 0.28199 0.67636 0.0
O212 O 0.50114 0.3135 0.74651 0.0
O213 O 0.50396 0.27312 0.7642 0.0
O214 O 0.44979 0.28369 0.70981 0.0
O215 O 0.4303 0.27196 0.75192 0.0
C216 C 0.43098 0.21676 0.80046 0.0
O217 O 0.4171 0.22071 0.77568 0.0
O218 O 0.46461 0.22372 0.80217 0.0
C219 C 0.47085 0.2035 0.71069 0.0
Tb220 Tb 0.96777 0.74416 0.76172 0.0
C221 C 0.04267 0.72162 0.75032 0.0
Tb222 Tb 0.00821 0.77491 0.71997 0.0
O223 O 0.95868 0.70288 0.73265 0.0
O224 O 0.96314 0.74503 0.7176 0.0
O225 O 0.01645 0.7205 0.76695 0.0
C226 C 0.03983 0.7844 0.67434 0.0
O227 O 0.04373 0.74013 0.73035 0.0
C228 C 0.01706 0.80225 0.77091 0.0
C229 C 0.93761 0.79966 0.73398 0.0
O230 O 0.03135 0.75814 0.68211 0.0
O231 O 0.03081 0.80562 0.69241 0.0
O232 O 0.02098 0.81598 0.74866 0.0
O233 O 0.01313 0.77419 0.76407 0.0
O234 O 0.95684 0.79234 0.71288 0.0
O235 O 0.94168 0.78685 0.75776 0.0
C236 C 0.93001 0.72851 0.80261 0.0
O237 O 0.96413 0.7328 0.80469 0.0
O238 O 0.91722 0.7334 0.77781 0.0
C239 C 0.96083 0.71702 0.71051 0.0
Tb240 Tb 0.78061 0.53448 0.22492 0.0
C241 C 0.78635 0.4676 0.23522 0.0
Tb242 Tb 0.73696 0.51085 0.26827 0.0
O243 O 0.83023 0.52882 0.24814 0.0
O244 O 0.78545 0.53773 0.2699 0.0
O245 O 0.78642 0.48653 0.21564 0.0
C246 C 0.71331 0.48477 0.31138 0.0
O247 O 0.77262 0.47443 0.25944 0.0
C248 C 0.70388 0.51214 0.21789 0.0
C249 C 0.73375 0.57948 0.2599 0.0
O250 O 0.7072 0.4744 0.28514 0.0
O251 O 0.73253 0.51003 0.31339 0.0
O252 O 0.68838 0.51592 0.24098 0.0
O253 O 0.73501 0.50558 0.22396 0.0
O254 O 0.72507 0.55815 0.27597 0.0
O255 O 0.75403 0.57475 0.23889 0.0
C256 C 0.79718 0.55637 0.17789 0.0
O257 O 0.81944 0.55362 0.19924 0.0
O258 O 0.76585 0.54702 0.18316 0.0
C259 C 0.81732 0.53047 0.27244 0.0
Tb260 Tb 0.73305 0.79157 0.97714 0.0
C261 C 0.71755 0.79599 0.04117 0.0
Tb262 Tb 0.7658 0.74716 0.01659 0.0
O263 O 0.68055 0.76736 0.96644 0.0
O264 O 0.7188 0.75048 -0.00817 0.0
O265 O 0.71937 0.81 0.01821 0.0
C266 C 0.785 0.69945 0.04166 0.0
O267 O 0.7307 0.7694 0.04419 0.0
C268 C 0.80123 0.80031 0.01716 0.0
C269 C 0.77791 0.73955 0.9521 0.0
O270 O 0.80651 0.71935 0.03293 0.0
O271 O 0.75265 0.70651 0.03648 0.0
O272 O 0.80131 0.78403 0.03816 0.0
O273 O 0.78405 0.785 -0.00363 0.0
O274 O 0.77721 0.72646 0.97567 0.0
O275 O 0.76541 0.76642 0.94894 0.0
C276 C 0.72711 0.84238 0.95312 0.0
O277 O 0.72178 0.81524 0.94004 0.0
O278 O 0.73531 0.84077 0.97961 0.0
C279 C 0.68774 0.74486 0.98084 0.0
Tb280 Tb 0.528 0.99297 0.51942 0.0
C281 C 0.51304 0.96798 0.4579 0.0
Tb282 Tb 0.47451 0.02221 0.48925 0.0
O283 O 0.49772 0.94977 0.51553 0.0
O284 O 0.47126 0.98986 0.51862 0.0
O285 O 0.53849 0.97272 0.47845 0.0
C286 C 0.42213 0.03671 0.4541 0.0
O287 O 0.48361 0.98264 0.45912 0.0
C288 C 0.53578 0.05343 0.4952 0.0
C289 C 0.49153 0.04759 0.55206 0.0
O290 O 0.45541 0.03945 0.45064 0.0
O291 O 0.41791 0.02595 0.4778 0.0
O292 O 0.50548 0.06509 0.49614 0.0
O293 O 0.53099 0.02495 0.48932 0.0
O294 O 0.46793 0.04748 0.53012 0.0
O295 O 0.51704 0.02852 0.55172 0.0
C296 C 0.58412 0.9804 0.552 0.0
O297 O 0.55567 0.96306 0.54571 0.0
O298 O 0.58117 0.00479 0.53965 0.0
C299 C 0.46723 0.9612 0.51411 0.0
Tb300 Tb 0.51998 0.49516 0.97794 0.0
C301 C 0.55435 0.51074 0.03939 0.0
Tb302 Tb 0.48456 0.54236 0.01632 0.0
O303 O 0.56586 0.52696 0.97627 0.0
O304 O 0.51609 0.5428 0.98188 0.0
O305 O 0.55243 0.49074 0.01664 0.0
C306 C 0.47802 0.59238 0.05181 0.0
O307 O 0.53269 0.53319 0.04209 0.0
C308 C 0.45602 0.48675 0.01286 0.0
C309 C 0.44696 0.52209 0.95702 0.0
O310 O 0.4665 0.56505 0.05512 0.0
O311 O 0.49192 0.59159 0.02796 0.0
O312 O 0.43862 0.51074 0.01856 0.0
O313 O 0.48833 0.49482 0.01229 0.0
O314 O 0.45106 0.54505 0.97732 0.0
O315 O 0.46789 0.49915 0.95623 0.0
C316 C 0.52829 0.44798 0.93965 0.0
O317 O 0.52709 0.47609 0.9348 0.0
O318 O 0.52631 0.44662 0.96639 0.0
C319 C 0.54844 0.55088 0.98187 0.0
H320 H 0.95563 0.08055 0.0925 0.0
H321 H 0.98186 0.14242 0.03202 0.0
H322 H 0.9784 0.18592 0.06818 0.0
H323 H 0.89494 0.12598 0.12954 0.0
H324 H 0.91044 0.11501 0.16327 0.0
H325 H 0.91265 0.08949 0.13198 0.0
H326 H 0.97996 0.08634 0.14424 0.0
H327 H 0.97791 0.11191 0.17549 0.0
H328 H 0.00811 0.12072 0.15003 0.0
H329 H 0.97449 0.22247 0.11251 0.0
H330 H 0.97053 0.24814 0.16044 0.0
H331 H 0.94849 0.16105 0.19062 0.0
C332 C 0.96003 0.10328 0.08669 0.0
C333 C 0.96856 0.1083 0.05949 0.0
C334 C 0.97493 0.13826 0.05278 0.0
C335 C 0.97309 0.16301 0.07316 0.0
C336 C 0.9651 0.15722 0.10004 0.0
C337 C 0.95874 0.12802 0.10675 0.0
C338 C 0.95261 0.12745 0.13735 0.0
C339 C 0.91545 0.11368 0.14072 0.0
C340 C 0.98136 0.11061 0.15266 0.0
C341 C 0.95608 0.16091 0.14687 0.0
C342 C 0.96336 0.17788 0.12521 0.0
C343 C 0.96861 0.20937 0.12955 0.0
C344 C 0.9664 0.22375 0.15675 0.0
C345 C 0.95909 0.20652 0.17903 0.0
C346 C 0.95377 0.17482 0.17388 0.0
H347 H 0.81755 0.28212 0.4228 0.0
H348 H 0.78774 0.18745 0.42762 0.0
H349 H 0.83232 0.17275 0.3946 0.0
H350 H 0.83178 0.27815 0.3516 0.0
H351 H 0.86971 0.30482 0.35648 0.0
H352 H 0.83642 0.30712 0.38097 0.0
H353 H 0.88427 0.30362 0.42178 0.0
H354 H 0.91784 0.30068 0.39745 0.0
H355 H 0.91184 0.27192 0.42077 0.0
H356 H 0.87553 0.16928 0.35751 0.0
H357 H 0.91606 0.17707 0.32067 0.0
H358 H 0.92066 0.27396 0.3443 0.0
C359 C 0.82036 0.25829 0.41677 0.0
C360 C 0.79911 0.23578 0.42706 0.0
C361 C 0.80386 0.20485 0.41953 0.0
C362 C 0.82908 0.19639 0.40099 0.0
C363 C 0.84969 0.21924 0.3911 0.0
C364 C 0.84588 0.24955 0.39903 0.0
C365 C 0.87107 0.26979 0.38551 0.0
C366 C 0.85104 0.29121 0.36757 0.0
C367 C 0.89784 0.28754 0.4077 0.0
C368 C 0.88855 0.24618 0.3676 0.0
C369 C 0.87607 0.21714 0.37118 0.0
C370 C 0.88608 0.19182 0.35493 0.0
C371 C 0.90896 0.19642 0.33411 0.0
C372 C 0.92151 0.22603 0.3301 0.0
C373 C 0.91189 0.25106 0.34745 0.0
H374 H 0.82104 0.12719 0.67266 0.0
H375 H 0.78313 0.0414 0.62632 0.0
H376 H 0.78018 0.06562 0.58209 0.0
H377 H 0.76591 0.1711 0.63824 0.0
H378 H 0.79694 0.2032 0.6382 0.0
H379 H 0.80212 0.17815 0.66512 0.0
H380 H 0.86573 0.16881 0.65221 0.0
H381 H 0.86088 0.19413 0.62531 0.0
H382 H 0.87314 0.15601 0.61647 0.0
H383 H 0.77249 0.10073 0.54482 0.0
H384 H 0.7623 0.14375 0.51698 0.0
H385 H 0.80666 0.20622 0.58777 0.0
C386 C 0.81318 0.11335 0.65306 0.0
C387 C 0.80202 0.08261 0.65266 0.0
C388 C 0.79143 0.06513 0.62685 0.0
C389 C 0.78994 0.07863 0.60169 0.0
C390 C 0.79982 0.10941 0.60288 0.0
C391 C 0.81169 0.12646 0.62788 0.0
C392 C 0.81739 0.15961 0.62403 0.0
C393 C 0.7942 0.17914 0.64248 0.0
C394 C 0.85662 0.17026 0.62984 0.0
C395 C 0.80533 0.15881 0.59324 0.0
C396 C 0.79577 0.12962 0.58128 0.0
C397 C 0.78068 0.1236 0.55374 0.0
C398 C 0.77488 0.14811 0.53815 0.0
C399 C 0.78404 0.17809 0.55029 0.0
C400 C 0.80004 0.18341 0.57792 0.0
H401 H 0.91041 0.04865 0.93134 0.0
H402 H 0.97521 0.97871 0.89712 0.0
H403 H 0.94465 0.97967 0.85064 0.0
H404 H 0.82922 0.02018 0.88604 0.0
H405 H 0.81526 0.05763 0.88167 0.0
H406 H 0.84031 0.05062 0.91358 0.0
H407 H 0.88715 0.09297 0.90652 0.0
H408 H 0.86233 0.10035 0.87471 0.0
H409 H 0.90795 0.09161 0.87403 0.0
H410 H 0.91416 0.99196 0.80752 0.0
H411 H 0.87938 0.01212 0.76911 0.0
H412 H 0.82942 0.07109 0.82959 0.0
C413 C 0.91778 0.03338 0.91408 0.0
C414 C 0.94517 0.01368 0.91793 0.0
C415 C 0.95416 0.99394 0.89486 0.0
C416 C 0.937 0.99424 0.86826 0.0
C417 C 0.91053 0.01409 0.86504 0.0
C418 C 0.90042 0.03301 0.8872 0.0
C419 C 0.87144 0.05249 0.87733 0.0
C420 C 0.837 0.04477 0.89044 0.0
C421 C 0.88293 0.08636 0.88351 0.0
C422 C 0.86826 0.04242 0.84609 0.0
C423 C 0.89114 0.0202 0.83965 0.0
C424 C 0.89555 0.0089 0.81221 0.0
C425 C 0.87593 0.02064 0.79058 0.0
C426 C 0.85174 0.04288 0.79665 0.0
C427 C 0.8475 0.05374 0.82467 0.0
H428 H 0.04881 0.01186 0.09247 0.0
H429 H 0.1279 0.99765 0.03325 0.0
H430 H 0.17245 0.9912 0.07219 0.0
H431 H 0.10686 0.05089 0.15043 0.0
H432 H 0.08602 0.0323 0.17711 0.0
H433 H 0.06063 0.03899 0.14529 0.0
H434 H 0.04166 0.98221 0.13473 0.0
H435 H 0.06608 0.97476 0.16668 0.0
H436 H 0.07482 0.95481 0.13365 0.0
H437 H 0.20666 0.98239 0.11648 0.0
H438 H 0.22895 0.97204 0.16416 0.0
H439 H 0.12687 0.98999 0.19412 0.0
C440 C 0.07575 0.00812 0.08797 0.0
C441 C 0.08541 0.00551 0.06026 0.0
C442 C 0.12043 -0.00022 0.05462 0.0
C443 C 0.14579 0.99616 0.0765 0.0
C444 C 0.13532 0.99798 0.10366 0.0
C445 C 0.10116 0.00374 0.10949 0.0
C446 C 0.0961 0.00209 0.14016 0.0
C447 C 0.08686 0.03291 0.15411 0.0
C448 C 0.06801 0.97697 0.14401 0.0
C449 C 0.1326 0.99414 0.15053 0.0
C450 C 0.1549 0.99213 0.12919 0.0
C451 C 0.18962 0.98413 0.13347 0.0
C452 C 0.20197 0.9782 0.16046 0.0
C453 C 0.17953 0.98029 0.1825 0.0
C454 C 0.14445 0.98818 0.17747 0.0
H455 H 0.97568 0.40501 0.4027 0.0
H456 H 0.0588 0.36758 0.45292 0.0
H457 H 0.06407 0.32751 0.41395 0.0
H458 H 0.93778 0.33238 0.36122 0.0
H459 H 0.93112 0.35082 0.32972 0.0
H460 H 0.92769 0.37162 0.3635 0.0
H461 H 0.97462 0.41204 0.35229 0.0
H462 H 0.97839 0.39137 0.31867 0.0
H463 H 0.01713 0.40047 0.34283 0.0
H464 H 0.06361 0.29446 0.36809 0.0
H465 H 0.06222 0.27465 0.31783 0.0
H466 H 0.98533 0.33864 0.29648 0.0
C467 C 0.99403 0.38765 0.40586 0.0
C468 C 0.01636 0.38878 0.43089 0.0
C469 C 0.04114 0.36661 0.43397 0.0
C470 C 0.04418 0.34381 0.41202 0.0
C471 C 0.02255 0.3439 0.38714 0.0
C472 C -0.00196 0.36539 0.38393 0.0
C473 C 0.9819 0.3636 0.3539 0.0
C474 C 0.94227 0.35405 0.35199 0.0
C475 C 0.98844 0.39365 0.34119 0.0
C476 C 0.00242 0.33877 0.34042 0.0
C477 C 0.02465 0.32683 0.3601 0.0
C478 C 0.04628 0.30361 0.35253 0.0
C479 C 0.04546 0.2926 0.32407 0.0
C480 C 0.0242 0.30566 0.30366 0.0
C481 C 0.0022 0.32876 0.31189 0.0
H482 H 0.69918 0.28414 0.58588 0.0
H483 H 0.63319 0.32061 0.52113 0.0
H484 H 0.58808 0.33014 0.5545 0.0
H485 H 0.63393 0.24456 0.61359 0.0
H486 H 0.65114 0.25207 0.64984 0.0
H487 H 0.68064 0.25261 0.6225 0.0
H488 H 0.70402 0.30725 0.64148 0.0
H489 H 0.67481 0.30679 0.66919 0.0
H490 H 0.67332 0.3364 0.6462 0.0
H491 H 0.54607 0.32634 0.59154 0.0
H492 H 0.51278 0.31482 0.63183 0.0
H493 H 0.6076 0.28445 0.67343 0.0
C494 C 0.67564 0.29488 0.57896 0.0
C495 C 0.66958 0.3016 0.551 0.0
C496 C 0.63845 0.31549 0.54258 0.0
C497 C 0.61266 0.32096 0.56136 0.0
C498 C 0.61888 0.31303 0.58855 0.0
C499 C 0.64995 0.30091 0.59753 0.0
C500 C 0.64918 0.29244 0.62718 0.0
C501 C 0.65399 0.25841 0.62832 0.0
C502 C 0.67698 0.31189 0.64719 0.0
C503 C 0.61221 0.30037 0.63298 0.0
C504 C 0.59514 0.31228 0.61048 0.0
C505 C 0.55943 0.31793 0.60965 0.0
C506 C 0.54072 0.31118 0.63244 0.0
C507 C 0.55798 0.29932 0.65567 0.0
C508 C 0.59419 0.29433 0.65614 0.0
H509 H 0.72519 0.93914 0.82394 0.0
H510 H 0.76102 0.01811 0.88166 0.0
H511 H 0.75661 0.98726 0.92175 0.0
H512 H 0.66292 0.90606 0.86692 0.0
H513 H 0.67359 0.86794 0.85596 0.0
H514 H 0.67772 0.89686 0.83255 0.0
H515 H 0.74319 0.88535 0.82788 0.0
H516 H 0.73928 0.8564 0.85123 0.0
H517 H 0.7731 0.88673 0.85909 0.0
H518 H 0.7497 0.94658 0.95499 0.0
H519 H 0.74311 0.8997 0.97836 0.0
H520 H 0.71324 0.84822 0.89765 0.0
C521 C 0.7317 0.95011 0.84504 0.0
C522 C 0.7434 0.98091 0.84992 0.0
C523 C 0.75215 0.99442 0.87769 0.0
C524 C 0.74955 0.97713 0.90046 0.0
C525 C 0.73817 0.94657 0.89484 0.0
C526 C 0.72947 0.93326 0.86775 0.0
C527 C 0.71969 0.89982 0.86688 0.0
C528 C 0.68119 0.89224 0.85487 0.0
C529 C 0.74535 0.88098 0.8503 0.0
C530 C 0.72431 0.89616 0.89778 0.0
C531 C 0.73473 0.92335 0.91367 0.0
C532 C 0.74136 0.92525 0.94275 0.0
C533 C 0.73756 0.89859 0.95581 0.0
C534 C 0.7277 0.87055 0.93969 0.0
C535 C 0.72062 0.86945 0.91042 0.0
H536 H 0.22504 0.28149 0.09867 0.0
H537 H 0.17189 0.33295 0.03756 0.0
H538 H 0.12599 0.34372 0.06971 0.0
H539 H 0.15257 0.24531 0.11793 0.0
H540 H 0.1662 0.24637 0.15484 0.0
H541 H 0.19885 0.24773 0.12993 0.0
H542 H 0.22738 0.29795 0.15627 0.0
H543 H 0.19513 0.29652 0.18169 0.0
H544 H 0.20048 0.32952 0.16316 0.0
H545 H 0.07993 0.33953 0.10331 0.0
H546 H 0.04057 0.32589 0.13933 0.0
H547 H 0.12483 0.2797 0.17961 0.0
C548 C 0.20444 0.29591 0.09243 0.0
C549 C 0.20202 0.30625 0.06559 0.0
C550 C 0.17443 0.32481 0.05808 0.0
C551 C 0.14816 0.33109 0.0762 0.0
C552 C 0.15032 0.3192 0.10194 0.0
C553 C 0.17821 0.30262 0.11038 0.0
C554 C 0.17272 0.29017 0.13795 0.0
C555 C 0.17256 0.25535 0.13495 0.0
C556 C 0.20058 0.3044 0.16114 0.0
C557 C 0.13653 0.30089 0.14286 0.0
C558 C 0.12412 0.31779 0.12197 0.0
C559 C 0.08972 0.32716 0.12029 0.0
C560 C 0.06751 0.31914 0.14061 0.0
C561 C 0.08004 0.30216 0.16223 0.0
C562 C 0.11501 0.29331 0.16356 0.0
H563 H 0.68841 0.42602 0.30934 0.0
H564 H 0.71875 0.50643 0.3668 0.0
H565 H 0.70898 0.47729 0.40703 0.0
H566 H 0.62167 0.39159 0.35133 0.0
H567 H 0.63506 0.35391 0.34205 0.0
H568 H 0.63874 0.38213 0.31784 0.0
H569 H 0.70525 0.37326 0.31582 0.0
H570 H 0.70181 0.34513 0.34 0.0
H571 H 0.73371 0.37691 0.34799 0.0
H572 H 0.70272 0.43852 0.44063 0.0
H573 H 0.70256 0.39258 0.46544 0.0
H574 H 0.67744 0.33694 0.38616 0.0
C575 C 0.69199 0.43765 0.33038 0.0
C576 C 0.70384 0.46848 0.33512 0.0
C577 C 0.70931 0.48284 0.36287 0.0
C578 C 0.70372 0.46651 0.38577 0.0
C579 C 0.69272 0.4359 0.38045 0.0
C580 C 0.68691 0.42159 0.35344 0.0
C581 C 0.679 0.38785 0.35347 0.0
C582 C 0.64137 0.37832 0.3404 0.0
C583 C 0.70659 0.36974 0.33844 0.0
C584 C 0.68227 0.38526 0.38473 0.0
C585 C 0.68964 0.41332 0.39992 0.0
C586 C 0.69636 0.41651 0.42901 0.0
C587 C 0.69624 0.3903 0.44291 0.0
C588 C 0.68965 0.36136 0.42767 0.0
C589 C 0.68186 0.35887 0.39831 0.0
H590 H 0.63218 0.02341 0.57816 0.0
H591 H 0.59144 0.93072 0.57998 0.0
H592 H 0.62374 0.92939 0.62648 0.0
H593 H 0.72001 0.01738 0.61733 0.0
H594 H 0.71828 0.0548 0.63539 0.0
H595 H 0.69736 0.04601 0.60032 0.0
H596 H 0.63895 0.06415 0.61855 0.0
H597 H 0.65967 0.07172 0.65374 0.0
H598 H 0.62058 0.04649 0.64675 0.0
H599 H 0.65201 0.94083 0.67521 0.0
H600 H 0.68212 0.96226 0.72117 0.0
H601 H 0.70495 0.0471 0.68726 0.0
C602 C 0.63127 0.00247 0.58786 0.0
C603 C 0.60974 0.97707 0.57563 0.0
C604 C 0.60819 0.95028 0.58911 0.0
C605 C 0.62627 0.94938 0.6155 0.0
C606 C 0.64574 0.97541 0.6278 0.0
C607 C 0.64893 0.00129 0.61424 0.0
C608 C 0.66886 0.02701 0.63298 0.0
C609 C 0.70319 0.03685 0.62075 0.0
C610 C 0.64562 0.05391 0.63831 0.0
C611 C 0.67614 0.01163 0.65927 0.0
C612 C 0.66232 0.98195 0.65593 0.0
C613 C 0.66353 0.96383 0.67796 0.0
C614 C 0.6802 0.97618 0.70393 0.0
C615 C 0.69539 0.00612 0.70727 0.0
C616 C 0.69339 0.02408 0.68485 0.0
H617 H 0.052 0.94211 0.88712 0.0
H618 H 0.04633 0.87966 0.95055 0.0
H619 H 0.03986 0.83648 0.91316 0.0
H620 H 0.9851 0.90355 0.84052 0.0
H621 H 0.00507 0.91203 0.80924 0.0
H622 H 0.01346 0.93743 0.84097 0.0
H623 H 0.08096 0.93303 0.8391 0.0
H624 H 0.0728 0.90789 0.80714 0.0
H625 H 0.09856 0.89614 0.83681 0.0
H626 H 0.03036 0.80061 0.8682 0.0
H627 H 0.01941 0.77516 0.81971 0.0
H628 H 0.02847 0.8623 0.78691 0.0
C629 C 0.05036 0.91931 0.8932 0.0
C630 C 0.05024 0.91399 0.92159 0.0
C631 C 0.04694 0.88398 0.9288 0.0
C632 C 0.04315 0.85944 0.90776 0.0
C633 C 0.0424 0.86554 0.8798 0.0
C634 C 0.04594 0.89478 0.87257 0.0
C635 C 0.04161 0.89568 0.84116 0.0
C636 C 0.00941 0.9132 0.83248 0.0
C637 C 0.07551 0.90896 0.83043 0.0
C638 C 0.03533 0.86231 0.83172 0.0
C639 C 0.0359 0.8452 0.85421 0.0
C640 C 0.03003 0.81379 0.85045 0.0
C641 C 0.02368 0.79956 0.82293 0.0
C642 C 0.02315 0.81688 0.79977 0.0
C643 C 0.02893 0.84856 0.8043 0.0
H644 H 0.13076 0.06295 -0.0069 0.0
H645 H 0.0276 0.09351 0.96894 0.0
H646 H 0.0544 0.14516 0.96709 0.0
H647 H 0.16333 0.13234 0.03761 0.0
H648 H 0.20758 0.12978 0.02721 0.0
H649 H 0.17967 0.09587 0.02758 0.0
H650 H 0.19032 0.08099 0.97546 0.0
H651 H 0.21768 0.11527 0.97524 0.0
H652 H 0.18007 0.10685 0.94982 0.0
H653 H 0.09316 0.19256 0.96449 0.0
H654 H 0.14022 0.23324 0.96466 0.0
H655 H 0.21822 0.1732 -0.00696 0.0
C656 C 0.11382 0.08059 0.98757 0.0
C657 C 0.07706 0.07422 0.98109 0.0
C658 C 0.05575 0.0979 0.97407 0.0
C659 C 0.07079 0.12729 0.9729 0.0
C660 C 0.10718 0.13277 0.97911 0.0
C661 C 0.12838 0.11017 0.98661 0.0
C662 C 0.16673 0.12209 -0.00769 0.0
C663 C 0.18007 0.11989 0.02303 0.0
C664 C 0.19007 0.1053 0.97199 0.0
C665 C 0.16396 0.15485 0.98646 0.0
C666 C 0.12933 0.16044 0.97871 0.0
C667 C 0.12025 0.18852 0.97088 0.0
C668 C 0.14714 0.21146 0.97097 0.0
C669 C 0.18269 0.20645 0.97918 0.0
C670 C 0.19115 0.1778 0.98719 0.0
H671 H 0.67422 0.5951 0.28566 0.0
H672 H 0.76054 0.63204 0.24309 0.0
H673 H 0.73354 0.6811 0.24453 0.0
H674 H 0.60778 0.6294 0.24908 0.0
H675 H 0.58146 0.63706 0.27824 0.0
H676 H 0.60974 0.60596 0.27759 0.0
H677 H 0.64084 0.62774 0.32593 0.0
H678 H 0.61247 0.6589 0.3268 0.0
H679 H 0.65974 0.66615 0.3306 0.0
H680 H 0.69425 0.72375 0.24497 0.0
H681 H 0.64552 0.75806 0.24579 0.0
H682 H 0.5846 0.69466 0.28883 0.0
C683 C 0.68793 0.61379 0.27741 0.0
C684 C 0.71961 0.60976 0.26442 0.0
C685 C 0.73627 0.63455 0.25317 0.0
C686 C 0.72121 0.66258 0.25397 0.0
C687 C 0.6895 0.66561 0.26618 0.0
C688 C 0.6731 0.64202 0.27791 0.0
C689 C 0.63773 0.65065 0.28765 0.0
C690 C 0.6074 0.62951 0.27221 0.0
C691 C 0.63771 0.65088 0.31965 0.0
C692 C 0.6365 0.68243 0.27889 0.0
C693 C 0.66677 0.69063 0.26671 0.0
C694 C 0.6707 0.71787 0.25496 0.0
C695 C 0.64283 0.73716 0.25543 0.0
C696 C 0.61149 0.7292 0.26768 0.0
C697 C 0.60859 0.70167 0.27993 0.0
H698 H 0.35223 0.81415 0.54444 0.0
H699 H 0.27809 0.8316 0.4757 0.0
H700 H 0.31111 0.88025 0.47198 0.0
H701 H 0.37342 0.89157 0.57602 0.0
H702 H 0.41984 0.88626 0.5825 0.0
H703 H 0.38796 0.8547 0.58206 0.0
H704 H 0.41997 0.82435 0.5439 0.0
H705 H 0.45205 0.8557 0.54437 0.0
H706 H 0.42757 0.84058 0.51184 0.0
H707 H 0.35308 0.92793 0.47615 0.0
H708 H 0.40484 0.96523 0.48235 0.0
H709 H 0.45526 0.91337 0.54404 0.0
C710 C 0.3426 0.82851 0.52897 0.0
C711 C 0.31172 0.81957 0.511 0.0
C712 C 0.30091 0.83839 0.49024 0.0
C713 C 0.31963 0.86608 0.48795 0.0
C714 C 0.34987 0.87438 0.50607 0.0
C715 C 0.36173 0.85575 0.52575 0.0
C716 C 0.39709 0.86813 0.54048 0.0
C717 C 0.3944 0.87561 0.57215 0.0
C718 C 0.42587 0.84587 0.5348 0.0
C719 C 0.40317 0.89669 0.52623 0.0
C720 C 0.3753 0.90031 0.50686 0.0
C721 C 0.37503 0.92523 0.49126 0.0
C722 C 0.40434 0.9465 0.49507 0.0
C723 C 0.43379 0.94235 0.51385 0.0
C724 C 0.43292 0.91722 0.5297 0.0
H725 H 0.04519 0.66543 0.77039 0.0
H726 H 0.10964 0.7361 0.73915 0.0
H727 H 0.16087 0.705 0.74198 0.0
H728 H 0.11574 0.63892 0.81835 0.0
H729 H 0.10083 0.59963 0.81017 0.0
H730 H 0.0696 0.62856 0.80871 0.0
H731 H 0.04899 0.60811 0.75725 0.0
H732 H 0.08016 0.57919 0.75853 0.0
H733 H 0.08107 0.60465 0.73166 0.0
H734 H 0.2034 0.66569 0.74372 0.0
H735 H 0.23576 0.61936 0.74443 0.0
H736 H 0.14564 0.57278 0.77488 0.0
C737 C 0.07032 0.67451 0.76477 0.0
C738 C 0.07346 0.70325 0.75466 0.0
C739 C 0.10655 0.71414 0.74688 0.0
C740 C 0.13591 0.69671 0.74854 0.0
C741 C 0.1319 0.66832 0.75801 0.0
C742 C 0.10008 0.65716 0.76606 0.0
C743 C 0.10272 0.62489 0.77347 0.0
C744 C 0.09688 0.62289 0.80453 0.0
C745 C 0.0767 0.60292 0.75407 0.0
C746 C 0.14075 0.61967 0.76785 0.0
C747 C 0.15699 0.6452 0.75911 0.0
C748 C 0.19122 0.64565 0.75091 0.0
C749 C 0.20933 0.61919 0.75129 0.0
C750 C 0.19333 0.59261 0.75994 0.0
C751 C 0.15875 0.593 0.76875 0.0
H752 H 0.84009 0.33302 0.5387 0.0
H753 H 0.77736 0.33601 0.45972 0.0
H754 H 0.81474 0.38012 0.44982 0.0
H755 H 0.85776 0.41295 0.55646 0.0
H756 H 0.90276 0.41005 0.57023 0.0
H757 H 0.87047 0.37917 0.57141 0.0
H758 H 0.9101 0.34279 0.54464 0.0
H759 H 0.94241 0.37364 0.5432 0.0
H760 H 0.92422 0.35154 0.51128 0.0
H761 H 0.85665 0.42592 0.4499 0.0
H762 H 0.90233 0.46837 0.45868 0.0
H763 H 0.94247 0.43292 0.53489 0.0
C764 C 0.83413 0.34311 0.51942 0.0
C765 C 0.80521 0.33149 0.50026 0.0
C766 C 0.79877 0.34492 0.47499 0.0
C767 C 0.82007 0.36987 0.46909 0.0
C768 C 0.84834 0.38079 0.48836 0.0
C769 C 0.85572 0.36765 0.51287 0.0
C770 C 0.88833 0.38339 0.52965 0.0
C771 C 0.87928 0.39721 0.55865 0.0
C772 C 0.91802 0.36153 0.53234 0.0
C773 C 0.89767 0.4078 0.51106 0.0
C774 C 0.87408 0.40595 0.48741 0.0
C775 C 0.87564 0.42725 0.46806 0.0
C776 C 0.90164 0.45124 0.47318 0.0
C777 C 0.92624 0.45341 0.49707 0.0
C778 C 0.92455 0.43119 0.51604 0.0
H779 H 0.31354 0.92028 0.27521 0.0
H780 H 0.30529 0.93163 0.1862 0.0
H781 H 0.34438 0.89031 0.17756 0.0
H782 H 0.40404 0.90751 0.28047 0.0
H783 H 0.40127 0.87944 0.30491 0.0
H784 H 0.36947 0.90785 0.30402 0.0
H785 H 0.31881 0.86567 0.29598 0.0
H786 H 0.3507 0.83721 0.29671 0.0
H787 H 0.31867 0.83669 0.2669 0.0
H788 H 0.3881 0.85182 0.17846 0.0
H789 H 0.43574 0.81841 0.18939 0.0
H790 H 0.41641 0.8305 0.27752 0.0
C791 C 0.31952 0.91366 0.25389 0.0
C792 C 0.30634 0.9292 0.23141 0.0
C793 C 0.3152 0.92023 0.20382 0.0
C794 C 0.3372 0.89659 0.19861 0.0
C795 C 0.35017 0.882 0.22116 0.0
C796 C 0.34178 0.89006 0.24827 0.0
C797 C 0.36161 0.87198 0.26886 0.0
C798 C 0.38551 0.89296 0.29085 0.0
C799 C 0.33591 0.85168 0.28294 0.0
C800 C 0.38311 0.85329 0.24909 0.0
C801 C 0.37568 0.85923 0.22165 0.0
C802 C 0.39384 0.84654 0.19979 0.0
C803 C 0.42088 0.82767 0.20619 0.0
C804 C 0.42944 0.82166 0.2342 0.0
C805 C 0.40981 0.83414 0.25582 0.0
H806 H 0.30394 0.41969 0.77368 0.0
H807 H 0.28899 0.43189 0.68512 0.0
H808 H 0.32028 0.38578 0.67357 0.0
H809 H 0.39147 0.39713 0.77169 0.0
H810 H 0.38785 0.37 0.7969 0.0
H811 H 0.36077 0.40194 0.79823 0.0
H812 H 0.30465 0.36569 0.79499 0.0
H813 H 0.33158 0.33357 0.79355 0.0
H814 H 0.29687 0.33613 0.76624 0.0
H815 H 0.35651 0.34115 0.67149 0.0
H816 H 0.39797 0.30157 0.67902 0.0
H817 H 0.39139 0.31776 0.769 0.0
C818 C 0.30666 0.41227 0.75184 0.0
C819 C 0.29375 0.42925 0.73024 0.0
C820 C 0.29861 0.41924 0.70198 0.0
C821 C 0.31621 0.39299 0.6952 0.0
C822 C 0.32909 0.37702 0.71693 0.0
C823 C 0.32476 0.38627 0.74472 0.0
C824 C 0.34387 0.3663 0.76408 0.0
C825 C 0.37269 0.38496 0.78388 0.0
C826 C 0.31767 0.34942 0.78069 0.0
C827 C 0.35985 0.34463 0.74281 0.0
C828 C 0.35064 0.35116 0.71575 0.0
C829 C 0.36361 0.33558 0.69254 0.0
C830 C 0.38719 0.31313 0.69704 0.0
C831 C 0.39766 0.30634 0.72454 0.0
C832 C 0.38325 0.32197 0.7477 0.0
H833 H 0.1663 0.73265 0.55968 0.0
H834 H 0.18204 0.82659 0.54404 0.0
H835 H 0.13786 0.8408 0.57741 0.0
H836 H 0.07152 0.73367 0.5648 0.0
H837 H 0.07205 0.70838 0.59184 0.0
H838 H 0.10402 0.70575 0.56615 0.0
H839 H 0.15496 0.71244 0.60589 0.0
H840 H 0.12326 0.71484 0.6317 0.0
H841 H 0.15712 0.74483 0.63188 0.0
H842 H 0.0958 0.84475 0.61531 0.0
H843 H 0.05747 0.83786 0.65384 0.0
H844 H 0.0674 0.74087 0.64133 0.0
C845 C 0.16049 0.75622 0.56335 0.0
C846 C 0.1776 0.77868 0.54977 0.0
C847 C 0.16903 0.80919 0.55451 0.0
C848 C 0.14403 0.8174 0.57327 0.0
C849 C 0.12757 0.79463 0.58641 0.0
C850 C 0.13522 0.76463 0.58143 0.0
C851 C 0.11432 0.74447 0.59835 0.0
C852 C 0.08897 0.72173 0.57913 0.0
C853 C 0.13889 0.72821 0.61813 0.0
C854 C 0.09452 0.76796 0.61437 0.0
C855 C 0.10234 0.79675 0.6072 0.0
C856 C 0.08899 0.82229 0.6208 0.0
C857 C 0.06739 0.81822 0.64258 0.0
C858 C 0.05957 0.78888 0.65018 0.0
C859 C 0.07274 0.76351 0.63559 0.0
H860 H 0.1828 0.89718 0.30639 0.0
H861 H 0.19773 0.98136 0.36106 0.0
H862 H 0.1912 0.95308 0.40233 0.0
H863 H 0.12047 0.8564 0.34813 0.0
H864 H 0.14078 0.82114 0.34077 0.0
H865 H 0.13998 0.8484 0.31543 0.0
H866 H 0.20808 0.84834 0.31539 0.0
H867 H 0.20911 0.82125 0.34071 0.0
H868 H 0.23514 0.85666 0.34811 0.0
H869 H 0.19083 0.91544 0.43753 0.0
H870 H 0.19891 0.87127 0.46418 0.0
H871 H 0.1857 0.81169 0.38639 0.0
C872 C 0.18361 0.9097 0.32699 0.0
C873 C 0.1903 0.94135 0.33071 0.0
C874 C 0.19225 0.95705 0.35793 0.0
C875 C 0.18844 0.94121 0.38141 0.0
C876 C 0.1827 0.9098 0.37713 0.0
C877 C 0.18026 0.89421 0.35057 0.0
C878 C 0.17838 0.86034 0.35181 0.0
C879 C 0.14277 0.84572 0.33823 0.0
C880 C 0.20953 0.84582 0.33821 0.0
C881 C 0.18138 0.85927 0.38324 0.0
C882 C 0.18317 0.888 0.39749 0.0
C883 C 0.18879 0.89282 0.42665 0.0
C884 C 0.19339 0.86765 0.44158 0.0
C885 C 0.19265 0.83823 0.42723 0.0
C886 C 0.18581 0.83396 0.39782 0.0
H887 H 0.96549 0.65717 0.69565 0.0
H888 H 0.96339 0.74367 0.66153 0.0
H889 H 0.97252 0.71838 0.61446 0.0
H890 H 0.03151 0.62565 0.65434 0.0
H891 H 0.01033 0.58804 0.65022 0.0
H892 H 0.00497 0.6134 0.68103 0.0
H893 H 0.93687 0.60662 0.6708 0.0
H894 H 0.942 0.58113 0.64006 0.0
H895 H 0.91695 0.61404 0.63705 0.0
H896 H 0.98306 0.68253 0.57097 0.0
H897 H 0.98891 0.63923 0.53492 0.0
H898 H 0.98047 0.57734 0.59858 0.0
C899 C 0.96685 0.67079 0.67826 0.0
C900 C 0.96425 0.70233 0.68213 0.0
C901 C 0.96586 0.71944 0.65891 0.0
C902 C 0.97102 0.70529 0.63218 0.0
C903 C 0.97397 0.67404 0.62914 0.0
C904 C 0.97156 0.65705 0.65158 0.0
C905 C 0.97436 0.6238 0.64293 0.0
C906 C 0.00725 0.61205 0.65802 0.0
C907 C 0.94053 0.60532 0.648 0.0
C908 C 0.97828 0.62455 0.61201 0.0
C909 C 0.97856 0.65367 0.60434 0.0
C910 C 0.98259 0.65962 0.57673 0.0
C911 C 0.98591 0.63503 0.55645 0.0
C912 C 0.98465 0.60512 0.56404 0.0
C913 C 0.98105 0.6 0.59215 0.0
H914 H 0.33009 0.77627 0.42679 0.0
H915 H 0.32484 0.68065 0.43809 0.0
H916 H 0.37558 0.6736 0.40918 0.0
H917 H 0.35022 0.77012 0.35674 0.0
H918 H 0.37981 0.80363 0.36122 0.0
H919 H 0.34428 0.80048 0.38344 0.0
H920 H 0.38927 0.81001 0.42742 0.0
H921 H 0.42505 0.81283 0.40525 0.0
H922 H 0.42561 0.78596 0.43094 0.0
H923 H 0.42399 0.67716 0.37585 0.0
H924 H 0.46545 0.69095 0.34123 0.0
H925 H 0.43978 0.78469 0.3556 0.0
C926 C 0.33942 0.75376 0.42307 0.0
C927 C 0.32344 0.72886 0.43417 0.0
C928 C 0.33682 0.69992 0.42947 0.0
C929 C 0.36561 0.69578 0.41327 0.0
C930 C 0.38087 0.72099 0.40266 0.0
C931 C 0.36829 0.74943 0.40759 0.0
C932 C 0.38862 0.77288 0.3937 0.0
C933 C 0.36429 0.78761 0.37252 0.0
C934 C 0.40831 0.79683 0.41564 0.0
C935 C 0.41391 0.75306 0.37921 0.0
C936 C 0.40937 0.72322 0.3847 0.0
C937 C 0.42819 0.70051 0.37177 0.0
C938 C 0.45163 0.7085 0.35224 0.0
C939 C 0.45572 0.73884 0.34607 0.0
C940 C 0.43738 0.76138 0.36026 0.0
H941 H 0.24844 0.05904 0.13213 0.0
H942 H 0.34367 0.08448 0.18714 0.0
H943 H 0.35816 0.12593 0.1587 0.0
H944 H 0.28654 0.07756 0.06621 0.0
H945 H 0.24588 0.09155 0.05247 0.0
H946 H 0.24484 0.06174 0.07521 0.0
H947 H 0.20787 0.09355 0.10858 0.0
H948 H 0.20878 0.12367 0.08629 0.0
H949 H 0.2244 0.13117 0.12288 0.0
H950 H 0.35776 0.16867 0.12879 0.0
H951 H 0.34554 0.20701 0.09591 0.0
H952 H 0.25234 0.15262 0.05912 0.0
C953 C 0.27279 0.07287 0.13767 0.0
C954 C 0.29503 0.06867 0.16169 0.0
C955 C 0.32645 0.08732 0.16865 0.0
C956 C 0.33486 0.11092 0.15268 0.0
C957 C 0.31183 0.11516 0.12961 0.0
C958 C 0.28177 0.09634 0.12176 0.0
C959 C 0.26064 0.10672 0.09686 0.0
C960 C 0.25942 0.08298 0.07117 0.0
C961 C 0.22322 0.11423 0.1041 0.0
C962 C 0.28282 0.13493 0.09267 0.0
C963 C 0.31228 0.13937 0.11173 0.0
C964 C 0.33524 0.16513 0.11334 0.0
C965 C 0.32802 0.18682 0.09477 0.0
C966 C 0.29829 0.18236 0.07489 0.0
C967 C 0.27561 0.15608 0.07377 0.0
H968 H 0.772 0.74842 0.89665 0.0
H969 H 0.83018 0.70059 0.9579 0.0
H970 H 0.87221 0.68633 0.92323 0.0
H971 H 0.78909 0.69484 0.83292 0.0
H972 H 0.79255 0.72596 0.81179 0.0
H973 H 0.76329 0.72718 0.83953 0.0
H974 H 0.79438 0.7785 0.86108 0.0
H975 H 0.82408 0.77725 0.83384 0.0
H976 H 0.84141 0.78098 0.87014 0.0
H977 H 0.91477 0.68791 0.88667 0.0
H978 H 0.9504 0.69874 0.84749 0.0
H979 H 0.86253 0.74181 0.80862 0.0
C980 C 0.79289 0.73406 0.9024 0.0
C981 C 0.79795 0.72564 0.92985 0.0
C982 C 0.82567 0.70706 0.93683 0.0
C983 C 0.84972 0.69887 0.91731 0.0
C984 C 0.84503 0.7088 0.89078 0.0
C985 C 0.81672 0.72526 0.88301 0.0
C986 C 0.81929 0.73531 0.85408 0.0
C987 C 0.78927 0.71989 0.83335 0.0
C988 C 0.81984 0.77006 0.85487 0.0
C989 C 0.85453 0.72359 0.84757 0.0
C990 C 0.86892 0.70823 0.86892 0.0
C991 C 0.90332 0.69891 0.86933 0.0
C992 C 0.92343 0.70536 0.84723 0.0
C993 C 0.90876 0.7206 0.8251 0.0
C994 C 0.87383 0.72938 0.82505 0.0
H995 H 0.31115 0.61038 0.67974 0.0
H996 H 0.28616 0.52445 0.62909 0.0
H997 H 0.29109 0.5498 0.58598 0.0
H998 H 0.25955 0.65222 0.63823 0.0
H999 H 0.28874 0.68598 0.64273 0.0
H1000 H 0.28942 0.66048 0.66948 0.0
H1001 H 0.35649 0.65542 0.66611 0.0
H1002 H 0.35605 0.68106 0.63934 0.0
H1003 H 0.37253 0.64405 0.63259 0.0
H1004 H 0.2912 0.58511 0.54876 0.0
H1005 H 0.28537 0.62799 0.52011 0.0
H1006 H 0.30964 0.69105 0.59496 0.0
C1007 C 0.30778 0.59682 0.65958 0.0
C1008 C 0.2987 0.56549 0.65759 0.0
C1009 C 0.29347 0.54848 0.63093 0.0
C1010 C 0.29632 0.56266 0.60638 0.0
C1011 C 0.30449 0.59379 0.60896 0.0
C1012 C 0.31027 0.61067 0.63489 0.0
C1013 C 0.31486 0.64417 0.6319 0.0
C1014 C 0.28645 0.66172 0.64644 0.0
C1015 C 0.35221 0.65692 0.64315 0.0
C1016 C 0.30958 0.64358 0.6003 0.0
C1017 C 0.30418 0.61428 0.58742 0.0
C1018 C 0.29603 0.60812 0.55853 0.0
C1019 C 0.29273 0.63257 0.54245 0.0
C1020 C 0.29736 0.66268 0.55538 0.0
C1021 C 0.30657 0.6682 0.58454 0.0
H1022 H 0.35186 0.03257 0.29555 0.0
H1023 H 0.2452 0.03562 0.32063 0.0
H1024 H 0.2685 0.04004 0.37069 0.0
H1025 H 0.38677 0.98999 0.34735 0.0
H1026 H 0.42908 0.01092 0.3522 0.0
H1027 H 0.40343 0.00832 0.31886 0.0
H1028 H 0.40587 0.06698 0.32118 0.0
H1029 H 0.43155 0.06976 0.3546 0.0
H1030 H 0.39097 0.08864 0.35126 0.0
H1031 H 0.30467 0.03946 0.41802 0.0
H1032 H 0.35036 0.03813 0.45786 0.0
H1033 H 0.43196 0.04112 0.40005 0.0
C1034 C 0.33338 0.03436 0.31157 0.0
C1035 C 0.29677 0.03273 0.30446 0.0
C1036 C 0.27335 0.03558 0.32586 0.0
C1037 C 0.28637 0.0385 0.35425 0.0
C1038 C 0.32281 0.03938 0.36058 0.0
C1039 C 0.34591 0.03791 0.33975 0.0
C1040 C 0.38383 0.0394 0.35167 0.0
C1041 C 0.40181 0.01044 0.34195 0.0
C1042 C 0.40425 0.0679 0.34424 0.0
C1043 C 0.37859 0.0414 0.38252 0.0
C1044 C 0.34332 0.04115 0.38746 0.0
C1045 C 0.33239 0.04032 0.41446 0.0
C1046 C 0.35835 0.03955 0.43687 0.0
C1047 C 0.39445 0.04004 0.43189 0.0
C1048 C 0.40452 0.04142 0.4045 0.0
H1049 H 0.79856 0.85515 -0.00536 0.0
H1050 H 0.87036 0.79719 0.0347 0.0
H1051 H 0.92 0.83469 0.0319 0.0
H1052 H 0.85943 0.88646 0.94778 0.0
H1053 H 0.84293 0.92367 0.95259 0.0
H1054 H 0.81429 0.89068 0.95533 0.0
H1055 H 0.8011 0.9134 0.00532 0.0
H1056 H 0.82993 0.94608 0.00214 0.0
H1057 H 0.83739 0.92425 0.03146 0.0
H1058 H 0.96208 0.87899 0.02514 0.0
H1059 H 0.99186 0.92867 0.01943 0.0
H1060 H 0.89212 0.95946 0.98687 0.0
C1061 C 0.82473 0.85016 0.00241 0.0
C1062 C 0.83059 0.82304 0.0146 0.0
C1063 C 0.86525 0.81778 0.02522 0.0
C1064 C 0.89366 0.83889 0.02359 0.0
C1065 C 0.88703 0.8655 0.01161 0.0
C1066 C 0.85333 0.87138 0.00149 0.0
C1067 C 0.85293 0.90274 -0.00842 0.0
C1068 C 0.84173 0.90077 0.95995 0.0
C1069 C 0.82892 0.9228 0.00864 0.0
C1070 C 0.89155 0.91363 -0.00205 0.0
C1071 C 0.9109 0.89159 0.00902 0.0
C1072 C 0.94714 0.89642 0.01655 0.0
C1073 C 0.96389 0.92467 0.01318 0.0
C1074 C 0.94431 0.94794 0.00288 0.0
C1075 C 0.90775 0.94211 -0.0051 0.0
H1076 H 0.64895 0.21092 0.51014 0.0
H1077 H 0.6889 0.18158 0.43066 0.0
H1078 H 0.66118 0.13008 0.4322 0.0
H1079 H 0.65313 0.13907 0.54223 0.0
H1080 H 0.61165 0.14326 0.5574 0.0
H1081 H 0.63892 0.17632 0.55222 0.0
H1082 H 0.58681 0.19649 0.52308 0.0
H1083 H 0.55934 0.16371 0.52838 0.0
H1084 H 0.5651 0.17287 0.49326 0.0
H1085 H 0.62698 0.08181 0.44185 0.0
H1086 H 0.58217 0.04411 0.45469 0.0
H1087 H 0.55951 0.10669 0.52502 0.0
C1088 C 0.65238 0.19341 0.49339 0.0
C1089 C 0.6715 0.19995 0.47047 0.0
C1090 C 0.67454 0.17686 0.44846 0.0
C1091 C 0.65906 0.14753 0.44928 0.0
C1092 C 0.64 0.14176 0.47202 0.0
C1093 C 0.63612 0.16425 0.49345 0.0
C1094 C 0.61082 0.15333 0.51369 0.0
C1095 C 0.62977 0.15297 0.54313 0.0
C1096 C 0.57861 0.17275 0.51464 0.0
C1097 C 0.60061 0.12141 0.50009 0.0
C1098 C 0.6185 0.1148 0.47653 0.0
C1099 C 0.61294 0.08675 0.46032 0.0
C1100 C 0.58766 0.06536 0.46784 0.0
C1101 C 0.56769 0.07245 0.49092 0.0
C1102 C 0.57477 0.10062 0.50744 0.0
H1103 H 0.81625 0.43316 0.27415 0.0
H1104 H 0.79632 0.43812 0.18451 0.0
H1105 H 0.83062 0.39349 0.175 0.0
H1106 H 0.9043 0.41498 0.27214 0.0
H1107 H 0.90399 0.38928 0.29881 0.0
H1108 H 0.87423 0.41934 0.29918 0.0
H1109 H 0.82083 0.38058 0.29842 0.0
H1110 H 0.85043 0.35032 0.29844 0.0
H1111 H 0.81473 0.34923 0.27126 0.0
H1112 H 0.87143 0.35273 0.17474 0.0
H1113 H 0.9156 0.31569 0.18372 0.0
H1114 H 0.90941 0.33524 0.27347 0.0
C1115 C 0.81836 0.42429 0.25255 0.0
C1116 C 0.80346 0.43891 0.23002 0.0
C1117 C 0.80753 0.42723 0.20205 0.0
C1118 C 0.82686 0.40185 0.19643 0.0
C1119 C 0.84195 0.38838 0.21902 0.0
C1120 C 0.83786 0.39896 0.24654 0.0
C1121 C 0.85913 0.38145 0.26681 0.0
C1122 C 0.88706 0.40251 0.28532 0.0
C1123 C 0.83482 0.36437 0.28479 0.0
C1124 C 0.87611 0.35973 0.24628 0.0
C1125 C 0.86568 0.36424 0.21885 0.0
C1126 C 0.87941 0.34859 0.19607 0.0
C1127 C 0.90459 0.32775 0.20138 0.0
C1128 C 0.91555 0.32254 0.22922 0.0
C1129 C 0.90086 0.33846 0.25198 0.0
H1130 H 0.07424 0.57449 0.50579 0.0
H1131 H 0.10162 0.52546 0.42863 0.0
H1132 H 0.14122 0.56864 0.42036 0.0
H1133 H 0.07662 0.64972 0.48195 0.0
H1134 H 0.09699 0.66869 0.51466 0.0
H1135 H 0.06951 0.63437 0.51451 0.0
H1136 H 0.12078 0.61014 0.54094 0.0
H1137 H 0.14841 0.64438 0.54103 0.0
H1138 H 0.16295 0.60873 0.52642 0.0
H1139 H 0.17616 0.61659 0.41894 0.0
H1140 H 0.20698 0.66732 0.42538 0.0
H1141 H 0.16253 0.68613 0.50517 0.0
C1142 C 0.08837 0.57312 0.48707 0.0
C1143 C 0.08459 0.54667 0.46764 0.0
C1144 C 0.104 0.54546 0.44369 0.0
C1145 C 0.12661 0.56989 0.43881 0.0
C1146 C 0.13016 0.59544 0.45831 0.0
C1147 C 0.11189 0.59735 0.48209 0.0
C1148 C 0.12182 0.62746 0.4999 0.0
C1149 C 0.0893 0.64617 0.50292 0.0
C1150 C 0.13954 0.62236 0.52879 0.0
C1151 C 0.14806 0.6421 0.48211 0.0
C1152 C 0.15214 0.62308 0.45817 0.0
C1153 C 0.17351 0.63159 0.43773 0.0
C1154 C 0.19095 0.66044 0.44157 0.0
C1155 C 0.18757 0.68042 0.46586 0.0
C1156 C 0.16615 0.67101 0.48665 0.0
H1157 H 0.67005 0.09154 0.78585 0.0
H1158 H 0.75012 0.14094 0.74613 0.0
H1159 H 0.7122 0.18391 0.74413 0.0
H1160 H 0.59889 0.11243 0.74371 0.0
H1161 H 0.56847 0.11587 0.77056 0.0
H1162 H 0.60379 0.0908 0.77341 0.0
H1163 H 0.62565 0.11828 0.82236 0.0
H1164 H 0.5902 0.14337 0.81972 0.0
H1165 H 0.63527 0.15869 0.82622 0.0
H1166 H 0.66422 0.21816 0.7406 0.0
H1167 H 0.60818 0.24293 0.73618 0.0
H1168 H 0.55717 0.17249 0.77792 0.0
C1169 C 0.67993 0.11188 0.77767 0.0
C1170 C 0.71317 0.11324 0.76652 0.0
C1171 C 0.72484 0.13965 0.75496 0.0
C1172 C 0.70354 0.16417 0.75381 0.0
C1173 C 0.67052 0.16191 0.7642 0.0
C1174 C 0.65865 0.13657 0.77601 0.0
C1175 C 0.62056 0.13896 0.7829 0.0
C1176 C 0.59652 0.11297 0.76667 0.0
C1177 C 0.61777 0.13988 0.8147 0.0
C1178 C 0.61274 0.1692 0.77244 0.0
C1179 C 0.64218 0.18204 0.762 0.0
C1180 C 0.64116 0.20866 0.74916 0.0
C1181 C 0.60914 0.22247 0.74663 0.0
C1182 C 0.5785 0.20975 0.75694 0.0
C1183 C 0.58044 0.18301 0.77044 0.0
H1184 H 0.74981 0.56917 0.13657 0.0
H1185 H 0.86135 0.57871 0.16455 0.0
H1186 H 0.87195 0.61087 0.12651 0.0
H1187 H 0.75935 0.57237 0.05949 0.0
H1188 H 0.721 0.59406 0.05585 0.0
H1189 H 0.72339 0.56669 0.08104 0.0
H1190 H 0.71229 0.60814 0.12059 0.0
H1191 H 0.70978 0.63562 0.0957 0.0
H1192 H 0.74091 0.64226 0.12633 0.0
H1193 H 0.86871 0.6477 0.09043 0.0
H1194 H 0.8518 0.6873 0.06018 0.0
H1195 H 0.74199 0.65524 0.05809 0.0
C1196 C 0.77663 0.57725 0.1341 0.0
C1197 C 0.80486 0.57146 0.15316 0.0
C1198 C 0.8395 0.58283 0.14985 0.0
C1199 C 0.84573 0.60096 0.12829 0.0
C1200 C 0.81702 0.60721 0.11035 0.0
C1201 C 0.78316 0.59554 0.11298 0.0
C1202 C 0.75619 0.6086 0.09359 0.0
C1203 C 0.73898 0.58395 0.07116 0.0
C1204 C 0.72819 0.62461 0.11005 0.0
C1205 C 0.77987 0.63083 0.08085 0.0
C1206 C 0.81498 0.62908 0.0901 0.0
C1207 C 0.84141 0.6489 0.08263 0.0
C1208 C 0.83159 0.67135 0.06559 0.0
C1209 C 0.79565 0.674 0.0568 0.0
C1210 C 0.76966 0.65325 0.06417 0.0
H1211 H 0.91259 0.54708 0.43097 0.0
H1212 H 0.9843 0.48342 0.39615 0.0
H1213 H 0.94961 0.47902 0.35079 0.0
H1214 H 0.83272 0.51167 0.39272 0.0
H1215 H 0.81312 0.54636 0.38558 0.0
H1216 H 0.84323 0.54562 0.41641 0.0
H1217 H 0.88267 0.58915 0.40101 0.0
H1218 H 0.85235 0.59036 0.37041 0.0
H1219 H 0.89841 0.58529 0.3665 0.0
H1220 H 0.90775 0.47847 0.31026 0.0
H1221 H 0.8644 0.48837 0.27234 0.0
H1222 H 0.81796 0.55406 0.32918 0.0
C1223 C 0.92124 0.53275 0.41359 0.0
C1224 C 0.9512 0.51541 0.41738 0.0
C1225 C 0.96138 0.49669 0.3941 0.0
C1226 C 0.94174 0.4939 0.36811 0.0
C1227 C 0.91186 0.51021 0.36525 0.0
C1228 C 0.90178 0.52979 0.38693 0.0
C1229 C 0.86865 0.54502 0.37706 0.0
C1230 C 0.83759 0.53667 0.39396 0.0
C1231 C 0.87596 0.57951 0.37885 0.0
C1232 C 0.86226 0.53099 0.34656 0.0
C1233 C 0.88745 0.51061 0.34072 0.0
C1234 C 0.88802 0.49455 0.31443 0.0
C1235 C 0.86316 0.50032 0.29302 0.0
C1236 C 0.83789 0.52202 0.29771 0.0
C1237 C 0.83675 0.5371 0.32509 0.0
H1238 H 0.17704 0.5307 0.68407 0.0
H1239 H 0.17643 0.43417 0.69002 0.0
H1240 H 0.14209 0.42441 0.64379 0.0
H1241 H 0.08841 0.52959 0.656 0.0
H1242 H 0.09505 0.55854 0.63293 0.0
H1243 H 0.12397 0.55834 0.66445 0.0
H1244 H 0.17826 0.55724 0.63528 0.0
H1245 H 0.14954 0.5578 0.60364 0.0
H1246 H 0.17959 0.52812 0.60651 0.0
H1247 H 0.10511 0.42483 0.59894 0.0
H1248 H 0.06645 0.43497 0.55795 0.0
H1249 H 0.08645 0.53169 0.58117 0.0
C1250 C 0.17058 0.50755 0.67506 0.0
C1251 C 0.18011 0.48303 0.6901 0.0
C1252 C 0.16992 0.4531 0.67847 0.0
C1253 C 0.15036 0.44739 0.65229 0.0
C1254 C 0.14055 0.47193 0.63819 0.0
C1255 C 0.15018 0.50147 0.64909 0.0
C1256 C 0.13339 0.5236 0.63061 0.0
C1257 C 0.10875 0.5437 0.64698 0.0
C1258 C 0.1619 0.54283 0.61827 0.0
C1259 C 0.11261 0.50186 0.60788 0.0
C1260 C 0.11759 0.47221 0.61263 0.0
C1261 C 0.10114 0.44795 0.59491 0.0
C1262 C 0.07912 0.454 0.57161 0.0
C1263 C 0.07322 0.48414 0.56615 0.0
C1264 C 0.09023 0.50839 0.58472 0.0
H1265 H 0.64484 0.80673 0.19087 0.0
H1266 H 0.55832 0.85349 0.15475 0.0
H1267 H 0.59061 0.8593 0.1127 0.0
H1268 H 0.71932 0.84582 0.15842 0.0
H1269 H 0.74058 0.81084 0.15228 0.0
H1270 H 0.71511 0.81717 0.18215 0.0
H1271 H 0.6773 0.76738 0.1657 0.0
H1272 H 0.7023 0.76103 0.13574 0.0
H1273 H 0.65499 0.76228 0.13085 0.0
H1274 H 0.62836 0.85446 0.07284 0.0
H1275 H 0.66581 0.83552 0.03619 0.0
H1276 H 0.72495 0.78756 0.09682 0.0
C1277 C 0.63348 0.81928 0.17455 0.0
C1278 C 0.59969 0.83036 0.17603 0.0
C1279 C 0.58455 0.84536 0.15392 0.0
C1280 C 0.60274 0.84885 0.13013 0.0
C1281 C 0.63568 0.8368 0.12881 0.0
C1282 C 0.65083 0.82213 0.15038 0.0
C1283 C 0.68338 0.80673 0.14193 0.0
C1284 C 0.71656 0.821 0.15976 0.0
C1285 C 0.6792 0.77233 0.14365 0.0
C1286 C 0.68339 0.81401 0.1119 0.0
C1287 C 0.65636 0.83218 0.10503 0.0
C1288 C 0.64992 0.84059 0.07805 0.0
C1289 C 0.6713 0.8297 0.05739 0.0
C1290 C 0.69816 0.81006 0.06377 0.0
C1291 C 0.70459 0.80257 0.09145 0.0
H1292 H 0.64042 0.53399 0.19935 0.0
H1293 H 0.72839 0.48507 0.17058 0.0
H1294 H 0.70013 0.47961 0.12212 0.0
H1295 H 0.57167 0.49165 0.15388 0.0
H1296 H 0.54709 0.52404 0.14717 0.0
H1297 H 0.57414 0.52421 0.17971 0.0
H1298 H 0.60771 0.5738 0.17004 0.0
H1299 H 0.58067 0.57378 0.1375 0.0
H1300 H 0.62809 0.5752 0.13755 0.0
H1301 H 0.66086 0.47704 0.07694 0.0
H1302 H 0.6156 0.48107 0.03782 0.0
H1303 H 0.55438 0.53417 0.09481 0.0
C1304 C 0.65364 0.52214 0.1828 0.0
C1305 C 0.68654 0.50978 0.1888 0.0
C1306 C 0.7032 0.4947 0.16653 0.0
C1307 C 0.68732 0.49144 0.1389 0.0
C1308 C 0.65483 0.50369 0.13364 0.0
C1309 C 0.63834 0.51908 0.15488 0.0
C1310 C 0.60385 0.53062 0.14331 0.0
C1311 C 0.57232 0.5168 0.15682 0.0
C1312 C 0.60517 0.56541 0.14734 0.0
C1313 C 0.60329 0.51886 0.11243 0.0
C1314 C 0.63287 0.50324 0.10735 0.0
C1315 C 0.63772 0.48944 0.08064 0.0
C1316 C 0.61177 0.49174 0.05853 0.0
C1317 C 0.58144 0.50802 0.06307 0.0
C1318 C 0.57738 0.52179 0.09048 0.0
H1319 H 0.38611 0.46645 0.01228 0.0
H1320 H 0.49157 0.43512 0.00826 0.0
H1321 H 0.46702 0.38214 0.00351 0.0
H1322 H 0.35545 0.41022 0.05478 0.0
H1323 H 0.31123 0.40585 0.03781 0.0
H1324 H 0.33666 0.44137 0.03887 0.0
H1325 H 0.32758 0.43885 0.98468 0.0
H1326 H 0.30202 0.40336 0.98352 0.0
H1327 H 0.33997 0.40593 0.96354 0.0
H1328 H 0.43151 0.33264 0.00048 0.0
H1329 H 0.38795 0.28976 0.00149 0.0
H1330 H 0.30472 0.35211 0.00926 0.0
C1331 C 0.40397 0.44839 0.01021 0.0
C1332 C 0.44082 0.45494 0.01003 0.0
C1333 C 0.46329 0.4307 0.00766 0.0
C1334 C 0.44955 0.4005 0.00514 0.0
C1335 C 0.41318 0.39477 0.0053 0.0
C1336 C 0.39064 0.41799 0.00794 0.0
C1337 C 0.35275 0.40547 0.00877 0.0
C1338 C 0.33817 0.41638 0.03673 0.0
C1339 C 0.32919 0.4139 0.98363 0.0
C1340 C 0.35756 0.37163 0.00642 0.0
C1341 C 0.39266 0.36607 0.00422 0.0
C1342 C 0.40398 0.33675 0.00218 0.0
C1343 C 0.37897 0.31251 0.00277 0.0
C1344 C 0.34292 0.3175 0.0055 0.0
C1345 C 0.33205 0.34753 0.00704 0.0
H1346 H 0.06314 0.1776 0.27886 0.0
H1347 H 0.04997 0.18291 0.18883 0.0
H1348 H 0.08303 0.13749 0.18087 0.0
H1349 H 0.15105 0.1558 0.28106 0.0
H1350 H 0.14653 0.12995 0.30731 0.0
H1351 H 0.11887 0.16143 0.30635 0.0
H1352 H 0.0632 0.12461 0.30274 0.0
H1353 H 0.09072 0.09296 0.30364 0.0
H1354 H 0.05727 0.09382 0.27503 0.0
H1355 H 0.12158 0.09626 0.1822 0.0
H1356 H 0.16316 0.05778 0.1922 0.0
H1357 H 0.15263 0.07668 0.28152 0.0
C1358 C 0.06697 0.16891 0.25752 0.0
C1359 C 0.05431 0.18389 0.23447 0.0
C1360 C 0.05991 0.17208 0.20682 0.0
C1361 C 0.0784 0.14613 0.20204 0.0
C1362 C 0.09108 0.1322 0.22512 0.0
C1363 C 0.08567 0.14293 0.25232 0.0
C1364 C 0.10412 0.12426 0.27322 0.0
C1365 C 0.13179 0.14405 0.29316 0.0
C1366 C 0.07721 0.10794 0.28963 0.0
C1367 C 0.12144 0.10197 0.25342 0.0
C1368 C 0.11314 0.10707 0.22582 0.0
C1369 C 0.12768 0.09137 0.20359 0.0
C1370 C 0.15149 0.06978 0.20957 0.0
C1371 C 0.16092 0.06423 0.23762 0.0
C1372 C 0.14524 0.08011 0.25988 0.0
H1373 H 0.26778 0.37478 0.93528 0.0
H1374 H 0.15705 0.34792 0.93828 0.0
H1375 H 0.14055 0.38882 0.90941 0.0
H1376 H 0.25762 0.45763 0.93571 0.0
H1377 H 0.2905 0.46198 0.91114 0.0
H1378 H 0.29422 0.43364 0.9352 0.0
H1379 H 0.29682 0.39169 0.89442 0.0
H1380 H 0.29421 0.41972 0.87005 0.0
H1381 H 0.26256 0.38758 0.86587 0.0
H1382 H 0.13669 0.42787 0.87507 0.0
H1383 H 0.14622 0.46118 0.83761 0.0
H1384 H 0.25926 0.46284 0.85852 0.0
C1385 C 0.24006 0.37799 0.93037 0.0
C1386 C 0.21361 0.35842 0.93892 0.0
C1387 C 0.17762 0.36289 0.9319 0.0
C1388 C 0.16804 0.3861 0.91567 0.0
C1389 C 0.19481 0.40476 0.90706 0.0
C1390 C 0.23011 0.40108 0.91435 0.0
C1391 C 0.25387 0.42208 0.90025 0.0
C1392 C 0.27528 0.44522 0.92189 0.0
C1393 C 0.27826 0.40419 0.88153 0.0
C1394 C 0.22649 0.43723 0.88303 0.0
C1395 C 0.19254 0.42737 0.88748 0.0
C1396 C 0.16312 0.43628 0.87186 0.0
C1397 C 0.1687 0.45516 0.85069 0.0
C1398 C 0.20339 0.4646 0.84548 0.0
C1399 C 0.23242 0.45625 0.8624 0.0
H1400 H 0.28176 0.2435 0.90197 0.0
H1401 H 0.34464 0.1998 0.96353 0.0
H1402 H 0.38418 0.18333 0.92734 0.0
H1403 H 0.29317 0.18597 0.84043 0.0
H1404 H 0.29461 0.21503 0.8169 0.0
H1405 H 0.26835 0.21901 0.8465 0.0
H1406 H 0.30138 0.27099 0.86329 0.0
H1407 H 0.32789 0.26708 0.83401 0.0
H1408 H 0.34886 0.27333 0.86927 0.0
H1409 H 0.42304 0.18145 0.88773 0.0
H1410 H 0.4547 0.18897 0.84565 0.0
H1411 H 0.36377 0.2296 0.80865 0.0
C1412 C 0.30329 0.22972 0.90756 0.0
C1413 C 0.31032 0.22285 0.93536 0.0
C1414 C 0.33873 0.20497 0.94217 0.0
C1415 C 0.3613 0.19557 0.92179 0.0
C1416 C 0.35436 0.2036 0.89468 0.0
C1417 C 0.32553 0.21964 0.88736 0.0
C1418 C 0.32524 0.22721 0.85737 0.0
C1419 C 0.29345 0.21082 0.83923 0.0
C1420 C 0.32591 0.26169 0.85593 0.0
C1421 C 0.35947 0.21446 0.84946 0.0
C1422 C 0.37586 0.20082 0.87121 0.0
C1423 C 0.40997 0.19108 0.87018 0.0
C1424 C 0.42779 0.19556 0.84637 0.0
C1425 C 0.41118 0.20923 0.82395 0.0
C1426 C 0.37644 0.21819 0.82525 0.0
H1427 H 0.42108 0.56658 0.92536 0.0
H1428 H 0.40721 0.47139 0.93708 0.0
H1429 H 0.36586 0.46284 0.89457 0.0
H1430 H 0.3278 0.57416 0.89541 0.0
H1431 H 0.34172 0.59937 0.87073 0.0
H1432 H 0.36693 0.5991 0.9041 0.0
H1433 H 0.42293 0.58889 0.87834 0.0
H1434 H 0.39785 0.58875 0.84492 0.0
H1435 H 0.42235 0.55655 0.85243 0.0
H1436 H 0.33405 0.46241 0.84738 0.0
H1437 H 0.30708 0.47169 0.80089 0.0
H1438 H 0.33693 0.56739 0.81917 0.0
C1439 C 0.40836 0.54423 0.91942 0.0
C1440 C 0.41724 0.51967 0.93467 0.0
C1441 C 0.40082 0.49053 0.92577 0.0
C1442 C 0.37728 0.48542 0.9016 0.0
C1443 C 0.37014 0.50968 0.88635 0.0
C1444 C 0.38461 0.53865 0.89505 0.0
C1445 C 0.37367 0.56022 0.87369 0.0
C1446 C 0.35119 0.58466 0.88677 0.0
C1447 C 0.40614 0.57443 0.86164 0.0
C1448 C 0.35169 0.53867 0.85147 0.0
C1449 C 0.35015 0.50962 0.85931 0.0
C1450 C 0.33406 0.48523 0.84142 0.0
C1451 C 0.31862 0.4907 0.81505 0.0
C1452 C 0.31843 0.52036 0.80697 0.0
C1453 C 0.33561 0.54462 0.8253 0.0
H1454 H 0.70092 0.68562 0.99061 0.0
H1455 H 0.61684 0.74583 0.97729 0.0
H1456 H 0.57249 0.70358 0.97857 0.0
H1457 H 0.65869 0.62293 0.94577 0.0
H1458 H 0.67397 0.5943 0.96702 0.0
H1459 H 0.6995 0.62973 0.96786 0.0
H1460 H 0.6979 0.63771 0.02141 0.0
H1461 H 0.67149 0.60281 0.02122 0.0
H1462 H 0.65616 0.63777 0.0367 0.0
H1463 H 0.53683 0.65468 0.97907 0.0
H1464 H 0.51242 0.60186 0.9775 0.0
H1465 H 0.61851 0.57174 0.98894 0.0
C1466 C 0.67317 0.68992 0.98859 0.0
C1467 C 0.6623 0.71917 0.98425 0.0
C1468 C 0.62575 0.72371 0.98083 0.0
C1469 C 0.60032 0.69983 0.98155 0.0
C1470 C 0.61168 0.6712 0.98539 0.0
C1471 C 0.6472 0.666 0.98876 0.0
C1472 C 0.65196 0.63249 0.99064 0.0
C1473 C 0.67223 0.61908 0.96637 0.0
C1474 C 0.67047 0.62742 0.01923 0.0
C1475 C 0.61373 0.61982 0.98772 0.0
C1476 C 0.59096 0.64265 0.98494 0.0
C1477 C 0.55442 0.63665 0.98145 0.0
C1478 C 0.54074 0.60656 0.98072 0.0
C1479 C 0.56344 0.58269 0.98344 0.0
C1480 C 0.60046 0.58953 0.98695 0.0
H1481 H 0.91271 0.83869 0.77536 0.0
H1482 H 0.90772 0.81577 0.68505 0.0
H1483 H 0.87288 0.8597 0.67801 0.0
H1484 H 0.82321 0.86723 0.77717 0.0
H1485 H 0.83711 0.89746 0.80433 0.0
H1486 H 0.85933 0.86267 0.80272 0.0
H1487 H 0.9191 0.89301 0.80111 0.0
H1488 H 0.897 0.92783 0.80243 0.0
H1489 H 0.92399 0.91795 0.77415 0.0
H1490 H 0.84343 0.90766 0.67992 0.0
H1491 H 0.81661 0.95603 0.69092 0.0
H1492 H 0.83899 0.94895 0.78005 0.0
C1493 C 0.90349 0.84257 0.75419 0.0
C1494 C 0.91279 0.82373 0.73073 0.0
C1495 C 0.90095 0.82989 0.70331 0.0
C1496 C 0.88112 0.8548 0.69906 0.0
C1497 C 0.87325 0.87342 0.72246 0.0
C1498 C 0.88367 0.8676 0.74952 0.0
C1499 C 0.8727 0.89221 0.7708 0.0
C1500 C 0.84653 0.8791 0.78988 0.0
C1501 C 0.90513 0.90872 0.78813 0.0
C1502 C 0.85488 0.91275 0.75133 0.0
C1503 C 0.85566 0.90139 0.72357 0.0
C1504 C 0.84227 0.91669 0.70157 0.0
C1505 C 0.82728 0.94426 0.70806 0.0
C1506 C 0.82555 0.95623 0.73632 0.0
C1507 C 0.83958 0.9402 0.75824 0.0
H1508 H 0.43603 0.18911 0.65712 0.0
H1509 H 0.53023 0.17402 0.70942 0.0
H1510 H 0.54594 0.13493 0.67362 0.0
H1511 H 0.41419 0.11243 0.63415 0.0
H1512 H 0.39862 0.11719 0.59853 0.0
H1513 H 0.39643 0.14757 0.626 0.0
H1514 H 0.43254 0.1838 0.59862 0.0
H1515 H 0.43435 0.15365 0.57082 0.0
H1516 H 0.47458 0.17313 0.58737 0.0
H1517 H 0.54871 0.09403 0.63609 0.0
H1518 H 0.54161 0.05514 0.59616 0.0
H1519 H 0.44533 0.09366 0.5651 0.0
C1520 C 0.46068 0.17841 0.66034 0.0
C1521 C 0.48269 0.18552 0.68574 0.0
C1522 C 0.51368 0.16983 0.68987 0.0
C1523 C 0.52267 0.1473 0.66969 0.0
C1524 C 0.50018 0.14016 0.64533 0.0
C1525 C 0.46999 0.15532 0.64023 0.0
C1526 C 0.44957 0.14127 0.61286 0.0
C1527 C 0.4125 0.12889 0.61822 0.0
C1528 C 0.44765 0.16434 0.59112 0.0
C1529 C 0.47269 0.11561 0.60391 0.0
C1530 C 0.50169 0.11571 0.62315 0.0
C1531 C 0.52635 0.09394 0.62067 0.0
C1532 C 0.52182 0.07166 0.59775 0.0
C1533 C 0.49283 0.07094 0.57707 0.0
C1534 C 0.4678 0.09339 0.58036 0.0
H1535 H 0.49894 0.36229 0.78361 0.0
H1536 H 0.50929 0.27773 0.82026 0.0
H1537 H 0.51801 0.30594 0.86769 0.0
H1538 H 0.56472 0.40639 0.82976 0.0
H1539 H 0.54075 0.44026 0.83174 0.0
H1540 H 0.53408 0.41338 0.80088 0.0
H1541 H 0.46688 0.40901 0.80633 0.0
H1542 H 0.47329 0.43606 0.83711 0.0
H1543 H 0.45159 0.39939 0.83904 0.0
H1544 H 0.52659 0.34396 0.91146 0.0
H1545 H 0.53307 0.38822 0.94758 0.0
H1546 H 0.51828 0.44806 0.88234 0.0
C1547 C 0.5029 0.3497 0.80164 0.0
C1548 C 0.50351 0.31776 0.79822 0.0
C1549 C 0.50869 0.30216 0.82236 0.0
C1550 C 0.51372 0.31802 0.84939 0.0
C1551 C 0.51344 0.34956 0.85203 0.0
C1552 C 0.50797 0.36521 0.82878 0.0
C1553 C 0.50899 0.39909 0.83729 0.0
C1554 C 0.53892 0.41575 0.82414 0.0
C1555 C 0.47306 0.41162 0.82948 0.0
C1556 C 0.5165 0.40015 0.86892 0.0
C1557 C 0.51873 0.37133 0.87704 0.0
C1558 C 0.52498 0.3666 0.90526 0.0
C1559 C 0.52877 0.39188 0.92565 0.0
C1560 C 0.52662 0.4216 0.91781 0.0
C1561 C 0.52054 0.42565 0.889 0.0
H1562 H 0.50718 0.88279 0.30128 0.0
H1563 H 0.54978 0.80635 0.33869 0.0
H1564 H 0.54731 0.83357 0.38603 0.0
H1565 H 0.55201 0.94121 0.34861 0.0
H1566 H 0.51548 0.96528 0.34997 0.0
H1567 H 0.51924 0.93946 0.31915 0.0
H1568 H 0.45672 0.91591 0.32329 0.0
H1569 H 0.45251 0.94142 0.35426 0.0
H1570 H 0.44631 0.90111 0.35544 0.0
H1571 H 0.54617 0.87122 0.42878 0.0
H1572 H 0.54005 0.91395 0.46462 0.0
H1573 H 0.49325 0.96506 0.40053 0.0
C1574 C 0.51569 0.8717 0.31949 0.0
C1575 C 0.52899 0.8425 0.31633 0.0
C1576 C 0.53959 0.82865 0.34061 0.0
C1577 C 0.53832 0.844 0.36757 0.0
C1578 C 0.52574 0.873 0.36996 0.0
C1579 C 0.51395 0.88651 0.3466 0.0
C1580 C 0.50153 0.91784 0.35505 0.0
C1581 C 0.52338 0.94239 0.34245 0.0
C1582 C 0.4619 0.91913 0.34652 0.0
C1583 C 0.50895 0.92017 0.3868 0.0
C1584 C 0.5232 0.89409 0.39484 0.0
C1585 C 0.53452 0.8915 0.42275 0.0
C1586 C 0.53113 0.91602 0.44295 0.0
C1587 C 0.51602 0.9428 0.43546 0.0
C1588 C 0.50445 0.94473 0.40696 0.0
H1589 H 0.4572 0.59482 0.10546 0.0
H1590 H 0.50553 0.64969 0.04753 0.0
H1591 H 0.51446 0.6928 0.08477 0.0
H1592 H 0.4119 0.65495 0.14235 0.0
H1593 H 0.41993 0.64084 0.17601 0.0
H1594 H 0.416 0.61504 0.14436 0.0
H1595 H 0.47722 0.59566 0.15832 0.0
H1596 H 0.48145 0.62151 0.18992 0.0
H1597 H 0.51506 0.62229 0.16559 0.0
H1598 H 0.52083 0.72955 0.12989 0.0
H1599 H 0.52203 0.75644 0.17787 0.0
H1600 H 0.46897 0.67761 0.20575 0.0
C1601 C 0.46916 0.61606 0.1005 0.0
C1602 C 0.48037 0.61897 0.07348 0.0
C1603 C 0.49643 0.64701 0.06798 0.0
C1604 C 0.50171 0.67162 0.08906 0.0
C1605 C 0.49077 0.66792 0.11562 0.0
C1606 C 0.47464 0.64084 0.12131 0.0
C1607 C 0.46615 0.64238 0.15172 0.0
C1608 C 0.42611 0.63805 0.15371 0.0
C1609 C 0.48617 0.61908 0.1673 0.0
C1610 C 0.47996 0.67449 0.16229 0.0
C1611 C 0.4942 0.68891 0.14124 0.0
C1612 C 0.50946 0.71848 0.14642 0.0
C1613 C 0.51006 0.73363 0.17372 0.0
C1614 C 0.49538 0.71926 0.19547 0.0
C1615 C 0.48013 0.68933 0.1895 0.0
loop_
_geom_bond_atom_site_label_1
_geom_bond_atom_site_label_2
_geom_bond_distance
_geom_bond_site_symmetry_2
_ccdc_geom_bond_type
Tb0 O3 2.453 1_565 S
Tb0 O4 2.596 1_566 S
Tb0 O5 2.374 1_556 S
Tb0 O13 2.362 1_455 S
Tb0 O15 2.353 1_465 S
Tb0 O17 2.427 . S
Tb0 O18 2.513 . S
C1 O5 1.251 . S
C1 O7 1.263 1_565 S
Tb2 O4 2.343 1_655 S
Tb2 O7 2.353 1_655 S
Tb2 O10 2.429 . S
Tb2 O11 2.513 . S
Tb2 O12 2.453 1_545 S
Tb2 O13 2.575 1_544 S
Tb2 O14 2.374 1_554 S
O3 Tb0 2.453 1_545 S
O3 C19 1.245 1_556 S
O4 Tb0 2.596 1_544 S
O4 Tb2 2.343 1_455 S
O4 C19 1.259 . S
O5 Tb0 2.374 1_554 S
O5 C1 1.251 . S
C6 O10 1.277 . S
C6 O11 1.246 . S
O7 C1 1.263 1_545 S
O7 Tb2 2.353 1_455 S
C8 O12 1.245 . S
C8 O13 1.246 1_554 S
C9 O14 1.250 . S
C9 O15 1.263 . S
O10 Tb2 2.429 . S
O10 C6 1.277 . S
O11 Tb2 2.513 . S
O11 C6 1.246 . S
O12 Tb2 2.453 1_565 S
O12 C8 1.245 . S
O13 Tb0 2.362 1_655 S
O13 Tb2 2.575 1_566 S
O13 C8 1.246 1_556 S
O14 Tb2 2.374 1_556 S
O14 C9 1.250 . S
O15 Tb0 2.353 1_645 S
O15 C9 1.263 . S
C16 O17 1.275 . S
C16 O18 1.246 . S
O17 Tb0 2.427 . S
O17 C16 1.275 . S
O18 Tb0 2.513 . S
O18 C16 1.246 . S
C19 O3 1.245 1_554 S
C19 O4 1.259 . S
Tb20 O23 2.453 . S
Tb20 O24 2.596 1_655 S
Tb20 O25 2.374 1_655 S
Tb20 O33 2.343 1_655 S
Tb20 O35 2.353 . S
Tb20 O37 2.427 . S
Tb20 O38 2.513 . S
C21 O25 1.251 . S
C21 O27 1.263 . S
Tb22 O24 2.343 . S
Tb22 O27 2.353 . S
Tb22 O30 2.427 . S
Tb22 O31 2.513 . S
Tb22 O32 2.453 . S
Tb22 O33 2.596 . S
Tb22 O34 2.374 1_455 S
O23 Tb20 2.453 . S
O23 C39 1.245 . S
O24 Tb20 2.596 1_455 S
O24 Tb22 2.343 . S
O24 C39 1.259 1_455 S
O25 Tb20 2.374 1_455 S
O25 C21 1.251 . S
C26 O30 1.275 . S
C26 O31 1.246 . S
O27 C21 1.263 . S
O27 Tb22 2.353 . S
C28 O32 1.245 . S
C28 O33 1.259 . S
C29 O34 1.250 . S
C29 O35 1.263 . S
O30 Tb22 2.427 . S
O30 C26 1.275 . S
O31 Tb22 2.513 . S
O31 C26 1.246 . S
O32 Tb22 2.453 . S
O32 C28 1.245 . S
O33 Tb20 2.343 1_455 S
O33 Tb22 2.596 . S
O33 C28 1.259 . S
O34 Tb22 2.374 1_655 S
O34 C29 1.250 . S
O35 Tb20 2.353 . S
O35 C29 1.263 . S
C36 O37 1.275 . S
C36 O38 1.246 . S
O37 Tb20 2.427 . S
O37 C36 1.275 . S
O38 Tb20 2.513 . S
O38 C36 1.246 . S
C39 O23 1.245 . S
C39 O24 1.259 1_655 S
Tb40 O43 2.453 . S
Tb40 O44 2.596 . S
Tb40 O45 2.374 . S
Tb40 O53 2.343 . S
Tb40 O55 2.353 . S
Tb40 O57 2.427 . S
Tb40 O58 2.513 . S
C41 O45 1.251 . S
C41 O47 1.263 . S
Tb42 O44 2.343 . S
Tb42 O47 2.353 . S
Tb42 O50 2.427 . S
Tb42 O51 2.513 . S
Tb42 O52 2.453 . S
Tb42 O53 2.596 . S
Tb42 O54 2.374 . S
O43 Tb40 2.453 . S
O43 C59 1.245 . S
O44 Tb40 2.596 . S
O44 Tb42 2.343 . S
O44 C59 1.259 . S
O45 Tb40 2.374 . S
O45 C41 1.251 . S
C46 O50 1.275 . S
C46 O51 1.246 . S
O47 C41 1.263 . S
O47 Tb42 2.353 . S
C48 O52 1.245 . S
C48 O53 1.259 . S
C49 O54 1.250 . S
C49 O55 1.263 . S
O50 Tb42 2.427 . S
O50 C46 1.275 . S
O51 Tb42 2.513 . S
O51 C46 1.246 . S
O52 Tb42 2.453 . S
O52 C48 1.245 . S
O53 Tb40 2.343 . S
O53 Tb42 2.596 . S
O53 C48 1.259 . S
O54 Tb42 2.374 . S
O54 C49 1.250 . S
O55 Tb40 2.353 . S
O55 C49 1.263 . S
C56 O57 1.275 . S
C56 O58 1.246 . S
O57 Tb40 2.427 . S
O57 C56 1.275 . S
O58 Tb40 2.513 . S
O58 C56 1.246 . S
C59 O43 1.245 . S
C59 O44 1.259 . S
Tb60 O63 2.453 . S
Tb60 O64 2.596 . S
Tb60 O65 2.374 . S
Tb60 O73 2.343 . S
Tb60 O75 2.353 . S
Tb60 O77 2.427 . S
Tb60 O78 2.513 . S
C61 O65 1.251 1_565 S
C61 O67 1.263 . S
Tb62 O64 2.343 1_565 S
Tb62 O67 2.353 . S
Tb62 O70 2.427 . S
Tb62 O71 2.513 . S
Tb62 O72 2.453 . S
Tb62 O73 2.596 1_565 S
Tb62 O74 2.374 1_565 S
O63 Tb60 2.453 . S
O63 C79 1.245 . S
O64 Tb60 2.596 . S
O64 Tb62 2.343 1_545 S
O64 C79 1.259 . S
O65 Tb60 2.374 . S
O65 C61 1.251 1_545 S
C66 O70 1.275 . S
C66 O71 1.246 . S
O67 C61 1.263 . S
O67 Tb62 2.353 . S
C68 O72 1.245 1_545 S
C68 O73 1.259 . S
C69 O74 1.250 . S
C69 O75 1.263 . S
O70 Tb62 2.427 . S
O70 C66 1.275 . S
O71 Tb62 2.513 . S
O71 C66 1.246 . S
O72 Tb62 2.453 . S
O72 C68 1.245 1_565 S
O73 Tb60 2.343 . S
O73 Tb62 2.596 1_545 S
O73 C68 1.259 . S
O74 Tb62 2.374 1_545 S
O74 C69 1.250 . S
O75 Tb60 2.353 . S
O75 C69 1.263 . S
C76 O77 1.275 . S
C76 O78 1.246 . S
O77 Tb60 2.427 . S
O77 C76 1.275 . S
O78 Tb60 2.513 . S
O78 C76 1.246 . S
C79 O63 1.245 . S
C79 O64 1.259 . S
Tb80 O83 2.453 . S
Tb80 O84 2.596 . S
Tb80 O85 2.374 . S
Tb80 O93 2.343 . S
Tb80 O95 2.353 . S
Tb80 O97 2.427 . S
Tb80 O98 2.513 . S
C81 O85 1.251 . S
C81 O87 1.263 . S
Tb82 O84 2.343 . S
Tb82 O87 2.353 . S
Tb82 O90 2.427 . S
Tb82 O91 2.513 . S
Tb82 O92 2.453 . S
Tb82 O93 2.596 . S
Tb82 O94 2.374 . S
O83 Tb80 2.453 . S
O83 C99 1.245 . S
O84 Tb80 2.596 . S
O84 Tb82 2.343 . S
O84 C99 1.259 . S
O85 Tb80 2.374 . S
O85 C81 1.251 . S
C86 O90 1.275 . S
C86 O91 1.246 . S
O87 C81 1.263 . S
O87 Tb82 2.353 . S
C88 O92 1.245 . S
C88 O93 1.259 . S
C89 O94 1.250 . S
C89 O95 1.263 . S
O90 Tb82 2.427 . S
O90 C86 1.275 . S
O91 Tb82 2.513 . S
O91 C86 1.246 . S
O92 Tb82 2.453 . S
O92 C88 1.245 . S
O93 Tb80 2.343 . S
O93 Tb82 2.596 . S
O93 C88 1.259 . S
O94 Tb82 2.374 . S
O94 C89 1.250 . S
O95 Tb80 2.353 . S
O95 C89 1.263 . S
C96 O97 1.275 . S
C96 O98 1.246 . S
O97 Tb80 2.427 . S
O97 C96 1.275 . S
O98 Tb80 2.513 . S
O98 C96 1.246 . S
C99 O83 1.245 . S
C99 O84 1.259 . S
Tb100 O103 2.453 . S
Tb100 O104 2.596 . S
Tb100 O105 2.374 . S
Tb100 O113 2.343 . S
Tb100 O115 2.353 . S
Tb100 O117 2.427 . S
Tb100 O118 2.513 . S
C101 O105 1.251 . S
C101 O107 1.263 . S
Tb102 O104 2.343 . S
Tb102 O107 2.353 . S
Tb102 O110 2.427 . S
Tb102 O111 2.513 . S
Tb102 O112 2.453 . S
Tb102 O113 2.596 . S
Tb102 O114 2.374 . S
O103 Tb100 2.453 . S
O103 C119 1.245 . S
O104 Tb100 2.596 . S
O104 Tb102 2.343 . S
O104 C119 1.259 . S
O105 Tb100 2.374 . S
O105 C101 1.251 . S
C106 O110 1.275 . S
C106 O111 1.246 . S
O107 C101 1.263 . S
O107 Tb102 2.353 . S
C108 O112 1.245 . S
C108 O113 1.259 . S
C109 O114 1.250 . S
C109 O115 1.263 . S
O110 Tb102 2.427 . S
O110 C106 1.275 . S
O111 Tb102 2.513 . S
O111 C106 1.246 . S
O112 Tb102 2.453 . S
O112 C108 1.245 . S
O113 Tb100 2.343 . S
O113 Tb102 2.596 . S
O113 C108 1.259 . S
O114 Tb102 2.374 . S
O114 C109 1.250 . S
O115 Tb100 2.353 . S
O115 C109 1.263 . S
C116 O117 1.275 . S
C116 O118 1.246 . S
O117 Tb100 2.427 . S
O117 C116 1.275 . S
O118 Tb100 2.513 . S
O118 C116 1.246 . S
C119 O103 1.245 . S
C119 O104 1.259 . S
Tb120 O123 2.453 . S
Tb120 O124 2.596 . S
Tb120 O125 2.374 . S
Tb120 O133 2.343 . S
Tb120 O135 2.353 . S
Tb120 O137 2.427 . S
Tb120 O138 2.513 . S
C121 O125 1.251 . S
C121 O127 1.263 . S
Tb122 O124 2.343 . S
Tb122 O127 2.353 . S
Tb122 O130 2.427 . S
Tb122 O131 2.513 . S
Tb122 O132 2.453 . S
Tb122 O133 2.596 . S
Tb122 O134 2.374 . S
O123 Tb120 2.453 . S
O123 C139 1.245 . S
O124 Tb120 2.596 . S
O124 Tb122 2.343 . S
O124 C139 1.259 . S
O125 Tb120 2.374 . S
O125 C121 1.251 . S
C126 O130 1.275 . S
C126 O131 1.246 . S
O127 C121 1.263 . S
O127 Tb122 2.353 . S
C128 O132 1.245 . S
C128 O133 1.259 . S
C129 O134 1.250 . S
C129 O135 1.263 . S
O130 Tb122 2.427 . S
O130 C126 1.275 . S
O131 Tb122 2.513 . S
O131 C126 1.246 . S
O132 Tb122 2.453 . S
O132 C128 1.245 . S
O133 Tb120 2.343 . S
O133 Tb122 2.596 . S
O133 C128 1.259 . S
O134 Tb122 2.374 . S
O134 C129 1.250 . S
O135 Tb120 2.353 . S
O135 C129 1.263 . S
C136 O137 1.275 . S
C136 O138 1.246 . S
O137 Tb120 2.427 . S
O137 C136 1.275 . S
O138 Tb120 2.513 . S
O138 C136 1.246 . S
C139 O123 1.245 . S
C139 O124 1.259 . S
Tb140 O143 2.453 . S
Tb140 O144 2.596 . S
Tb140 O145 2.374 . S
Tb140 O153 2.343 1_455 S
Tb140 O155 2.353 1_455 S
Tb140 O157 2.427 . S
Tb140 O158 2.513 . S
C141 O145 1.251 . S
C141 O147 1.263 . S
Tb142 O144 2.343 1_655 S
Tb142 O147 2.353 1_655 S
Tb142 O150 2.434 . S
Tb142 O151 2.513 . S
Tb142 O152 2.453 . S
Tb142 O153 2.596 . S
Tb142 O154 2.374 . S
O143 Tb140 2.453 . S
O143 C159 1.245 . S
O144 Tb140 2.596 . S
O144 Tb142 2.343 1_455 S
O144 C159 1.259 . S
O145 Tb140 2.374 . S
O145 C141 1.251 . S
C146 O150 1.284 . S
C146 O151 1.246 . S
O147 C141 1.263 . S
O147 Tb142 2.353 1_455 S
C148 O152 1.245 . S
C148 O153 1.259 . S
C149 O154 1.250 . S
C149 O155 1.263 . S
O150 Tb142 2.434 . S
O150 C146 1.284 . S
O151 Tb142 2.513 . S
O151 C146 1.246 . S
O152 Tb142 2.453 . S
O152 C148 1.245 . S
O153 Tb140 2.343 1_655 S
O153 Tb142 2.596 . S
O153 C148 1.259 . S
O154 Tb142 2.374 . S
O154 C149 1.250 . S
O155 Tb140 2.353 1_655 S
O155 C149 1.263 . S
C156 O157 1.275 . S
C156 O158 1.246 . S
O157 Tb140 2.427 . S
O157 C156 1.275 . S
O158 Tb140 2.513 . S
O158 C156 1.246 . S
C159 O143 1.245 . S
C159 O144 1.259 . S
Tb160 O163 2.453 . S
Tb160 O164 2.596 1_556 S
Tb160 O165 2.374 1_556 S
Tb160 O173 2.348 . S
Tb160 O175 2.353 . S
Tb160 O177 2.427 . S
Tb160 O178 2.513 . S
C161 O165 1.251 . S
C161 O167 1.263 . S
Tb162 O164 2.343 . S
Tb162 O167 2.353 . S
Tb162 O170 2.427 . S
Tb162 O171 2.513 . S
Tb162 O172 2.453 . S
Tb162 O173 2.589 1_554 S
Tb162 O174 2.374 1_554 S
O163 Tb160 2.453 . S
O163 C179 1.245 . S
O164 Tb160 2.596 1_554 S
O164 Tb162 2.343 . S
O164 C179 1.259 1_554 S
O165 Tb160 2.374 1_554 S
O165 C161 1.251 . S
C166 O170 1.275 . S
C166 O171 1.246 . S
O167 C161 1.263 . S
O167 Tb162 2.353 . S
C168 O172 1.245 . S
C168 O173 1.256 1_554 S
C169 O174 1.250 . S
C169 O175 1.263 . S
O170 Tb162 2.427 . S
O170 C166 1.275 . S
O171 Tb162 2.513 . S
O171 C166 1.246 . S
O172 Tb162 2.453 . S
O172 C168 1.245 . S
O173 Tb160 2.348 . S
O173 Tb162 2.589 1_556 S
O173 C168 1.256 1_556 S
O174 Tb162 2.374 1_556 S
O174 C169 1.250 . S
O175 Tb160 2.353 . S
O175 C169 1.263 . S
C176 O177 1.275 . S
C176 O178 1.246 . S
O177 Tb160 2.427 . S
O177 C176 1.275 . S
O178 Tb160 2.513 . S
O178 C176 1.246 . S
C179 O163 1.245 . S
C179 O164 1.259 1_556 S
Tb180 O183 2.453 . S
Tb180 O184 2.596 . S
Tb180 O185 2.374 1_545 S
Tb180 O193 2.343 . S
Tb180 O195 2.353 . S
Tb180 O197 2.427 . S
Tb180 O198 2.513 . S
C181 O185 1.251 . S
C181 O187 1.263 . S
Tb182 O184 2.343 1_565 S
Tb182 O187 2.353 . S
Tb182 O190 2.427 . S
Tb182 O191 2.513 . S
Tb182 O192 2.453 . S
Tb182 O193 2.596 1_565 S
Tb182 O194 2.374 1_565 S
O183 Tb180 2.453 . S
O183 C199 1.245 . S
O184 Tb180 2.596 . S
O184 Tb182 2.343 1_545 S
O184 C199 1.259 . S
O185 Tb180 2.374 1_565 S
O185 C181 1.251 . S
C186 O190 1.275 . S
C186 O191 1.246 . S
O187 C181 1.263 . S
O187 Tb182 2.353 . S
C188 O192 1.245 . S
C188 O193 1.259 1_565 S
C189 O194 1.250 . S
C189 O195 1.263 . S
O190 Tb182 2.427 . S
O190 C186 1.275 . S
O191 Tb182 2.513 . S
O191 C186 1.246 . S
O192 Tb182 2.453 . S
O192 C188 1.245 . S
O193 Tb180 2.343 . S
O193 Tb182 2.596 1_545 S
O193 C188 1.259 1_545 S
O194 Tb182 2.374 1_545 S
O194 C189 1.250 . S
O195 Tb180 2.353 . S
O195 C189 1.263 . S
C196 O197 1.275 . S
C196 O198 1.246 . S
O197 Tb180 2.427 . S
O197 C196 1.275 . S
O198 Tb180 2.513 . S
O198 C196 1.246 . S
C199 O183 1.245 . S
C199 O184 1.259 . S
Tb200 O203 2.453 . S
Tb200 O204 2.596 . S
Tb200 O205 2.374 . S
Tb200 O213 2.343 . S
Tb200 O215 2.353 . S
Tb200 O217 2.427 . S
Tb200 O218 2.513 . S
C201 O205 1.251 . S
C201 O207 1.263 . S
Tb202 O204 2.343 . S
Tb202 O207 2.353 . S
Tb202 O210 2.427 . S
Tb202 O211 2.513 . S
Tb202 O212 2.453 . S
Tb202 O213 2.596 . S
Tb202 O214 2.374 . S
O203 Tb200 2.453 . S
O203 C219 1.245 . S
O204 Tb200 2.596 . S
O204 Tb202 2.343 . S
O204 C219 1.259 . S
O205 Tb200 2.374 . S
O205 C201 1.251 . S
C206 O210 1.275 . S
C206 O211 1.246 . S
O207 C201 1.263 . S
O207 Tb202 2.353 . S
C208 O212 1.245 . S
C208 O213 1.259 . S
C209 O214 1.250 . S
C209 O215 1.263 . S
O210 Tb202 2.427 . S
O210 C206 1.275 . S
O211 Tb202 2.513 . S
O211 C206 1.246 . S
O212 Tb202 2.453 . S
O212 C208 1.245 . S
O213 Tb200 2.343 . S
O213 Tb202 2.596 . S
O213 C208 1.259 . S
O214 Tb202 2.374 . S
O214 C209 1.250 . S
O215 Tb200 2.353 . S
O215 C209 1.263 . S
C216 O217 1.275 . S
C216 O218 1.246 . S
O217 Tb200 2.427 . S
O217 C216 1.275 . S
O218 Tb200 2.513 . S
O218 C216 1.246 . S
C219 O203 1.245 . S
C219 O204 1.259 . S
Tb220 O223 2.453 . S
Tb220 O224 2.596 1_655 S
Tb220 O225 2.374 1_655 S
Tb220 O233 2.343 1_655 S
Tb220 O235 2.353 . S
Tb220 O237 2.427 . S
Tb220 O238 2.513 . S
C221 O225 1.251 . S
C221 O227 1.263 . S
Tb222 O224 2.343 . S
Tb222 O227 2.353 . S
Tb222 O230 2.427 . S
Tb222 O231 2.513 . S
Tb222 O232 2.453 . S
Tb222 O233 2.596 . S
Tb222 O234 2.374 1_455 S
O223 Tb220 2.453 . S
O223 C239 1.245 . S
O224 Tb220 2.596 1_455 S
O224 Tb222 2.343 . S
O224 C239 1.259 1_455 S
O225 Tb220 2.374 1_455 S
O225 C221 1.251 . S
C226 O230 1.275 . S
C226 O231 1.246 . S
O227 C221 1.263 . S
O227 Tb222 2.353 . S
C228 O232 1.245 . S
C228 O233 1.259 . S
C229 O234 1.250 . S
C229 O235 1.263 . S
O230 Tb222 2.427 . S
O230 C226 1.275 . S
O231 Tb222 2.513 . S
O231 C226 1.246 . S
O232 Tb222 2.453 . S
O232 C228 1.245 . S
O233 Tb220 2.343 1_455 S
O233 Tb222 2.596 . S
O233 C228 1.259 . S
O234 Tb222 2.374 1_655 S
O234 C229 1.250 . S
O235 Tb220 2.353 . S
O235 C229 1.263 . S
C236 O237 1.275 . S
C236 O238 1.246 . S
O237 Tb220 2.427 . S
O237 C236 1.275 . S
O238 Tb220 2.513 . S
O238 C236 1.246 . S
C239 O223 1.245 . S
C239 O224 1.259 1_655 S
Tb240 O243 2.453 . S
Tb240 O244 2.596 . S
Tb240 O245 2.374 . S
Tb240 O253 2.343 . S
Tb240 O255 2.353 . S
Tb240 O257 2.427 . S
Tb240 O258 2.513 . S
C241 O245 1.251 . S
C241 O247 1.263 . S
Tb242 O244 2.343 . S
Tb242 O247 2.353 . S
Tb242 O250 2.427 . S
Tb242 O251 2.513 . S
Tb242 O252 2.453 . S
Tb242 O253 2.596 . S
Tb242 O254 2.374 . S
O243 Tb240 2.453 . S
O243 C259 1.245 . S
O244 Tb240 2.596 . S
O244 Tb242 2.343 . S
O244 C259 1.259 . S
O245 Tb240 2.374 . S
O245 C241 1.251 . S
C246 O250 1.275 . S
C246 O251 1.246 . S
O247 C241 1.263 . S
O247 Tb242 2.353 . S
C248 O252 1.245 . S
C248 O253 1.259 . S
C249 O254 1.250 . S
C249 O255 1.263 . S
O250 Tb242 2.427 . S
O250 C246 1.275 . S
O251 Tb242 2.513 . S
O251 C246 1.246 . S
O252 Tb242 2.453 . S
O252 C248 1.245 . S
O253 Tb240 2.343 . S
O253 Tb242 2.596 . S
O253 C248 1.259 . S
O254 Tb242 2.374 . S
O254 C249 1.250 . S
O255 Tb240 2.353 . S
O255 C249 1.263 . S
C256 O257 1.275 . S
C256 O258 1.246 . S
O257 Tb240 2.427 . S
O257 C256 1.275 . S
O258 Tb240 2.513 . S
O258 C256 1.246 . S
C259 O243 1.245 . S
C259 O244 1.259 . S
Tb260 O263 2.453 . S
Tb260 O264 2.596 1_556 S
Tb260 O265 2.374 1_556 S
Tb260 O273 2.343 1_556 S
Tb260 O275 2.353 . S
Tb260 O277 2.427 . S
Tb260 O278 2.513 . S
C261 O265 1.251 . S
C261 O267 1.263 . S
Tb262 O264 2.343 . S
Tb262 O267 2.353 . S
Tb262 O270 2.427 . S
Tb262 O271 2.513 . S
Tb262 O272 2.453 . S
Tb262 O273 2.596 . S
Tb262 O274 2.374 1_554 S
O263 Tb260 2.453 . S
O263 C279 1.245 . S
O264 Tb260 2.596 1_554 S
O264 Tb262 2.343 . S
O264 C279 1.259 1_554 S
O265 Tb260 2.374 1_554 S
O265 C261 1.251 . S
C266 O270 1.275 . S
C266 O271 1.246 . S
O267 C261 1.263 . S
O267 Tb262 2.353 . S
C268 O272 1.245 . S
C268 O273 1.259 . S
C269 O274 1.250 . S
C269 O275 1.263 . S
O270 Tb262 2.427 . S
O270 C266 1.275 . S
O271 Tb262 2.513 . S
O271 C266 1.246 . S
O272 Tb262 2.453 . S
O272 C268 1.245 . S
O273 Tb260 2.343 1_554 S
O273 Tb262 2.596 . S
O273 C268 1.259 . S
O274 Tb262 2.374 1_556 S
O274 C269 1.250 . S
O275 Tb260 2.353 . S
O275 C269 1.263 . S
C276 O277 1.275 . S
C276 O278 1.246 . S
O277 Tb260 2.427 . S
O277 C276 1.275 . S
O278 Tb260 2.513 . S
O278 C276 1.246 . S
C279 O263 1.245 . S
C279 O264 1.259 1_556 S
Tb280 O283 2.453 . S
Tb280 O284 2.596 . S
Tb280 O285 2.374 . S
Tb280 O293 2.343 1_565 S
Tb280 O295 2.353 1_565 S
Tb280 O297 2.427 1_565 S
Tb280 O298 2.513 . S
C281 O285 1.251 . S
C281 O287 1.263 . S
Tb282 O284 2.343 1_545 S
Tb282 O287 2.353 1_545 S
Tb282 O290 2.427 . S
Tb282 O291 2.513 . S
Tb282 O292 2.453 . S
Tb282 O293 2.596 . S
Tb282 O294 2.374 . S
O283 Tb280 2.453 . S
O283 C299 1.245 . S
O284 Tb280 2.596 . S
O284 Tb282 2.343 1_565 S
O284 C299 1.259 . S
O285 Tb280 2.374 . S
O285 C281 1.251 . S
C286 O290 1.275 . S
C286 O291 1.246 . S
O287 C281 1.263 . S
O287 Tb282 2.353 1_565 S
C288 O292 1.245 . S
C288 O293 1.259 . S
C289 O294 1.250 . S
C289 O295 1.263 . S
O290 Tb282 2.427 . S
O290 C286 1.275 . S
O291 Tb282 2.513 . S
O291 C286 1.246 . S
O292 Tb282 2.453 . S
O292 C288 1.245 . S
O293 Tb280 2.343 1_545 S
O293 Tb282 2.596 . S
O293 C288 1.259 . S
O294 Tb282 2.374 . S
O294 C289 1.250 . S
O295 Tb280 2.353 1_545 S
O295 C289 1.263 . S
C296 O297 1.275 . S
C296 O298 1.246 1_545 S
O297 Tb280 2.427 1_545 S
O297 C296 1.275 . S
O298 Tb280 2.513 . S
O298 C296 1.246 1_565 S
C299 O283 1.245 . S
C299 O284 1.259 . S
Tb300 O303 2.453 . S
Tb300 O304 2.596 1_556 S
Tb300 O305 2.374 1_556 S
Tb300 O313 2.357 . S
Tb300 O315 2.353 . S
Tb300 O317 2.427 . S
Tb300 O318 2.513 . S
C301 O305 1.251 . S
C301 O307 1.263 . S
Tb302 O304 2.343 . S
Tb302 O307 2.353 . S
Tb302 O310 2.427 . S
Tb302 O311 2.513 . S
Tb302 O312 2.453 . S
Tb302 O313 2.581 1_554 S
Tb302 O314 2.374 1_554 S
O303 Tb300 2.453 . S
O303 C319 1.210 1_556 S
O304 Tb300 2.596 1_554 S
O304 Tb302 2.343 . S
O304 C319 1.277 . S
O305 Tb300 2.374 1_554 S
O305 C301 1.251 . S
C306 O310 1.275 . S
C306 O311 1.246 . S
O307 C301 1.263 . S
O307 Tb302 2.353 . S
C308 O312 1.245 . S
C308 O313 1.250 1_554 S
C309 O314 1.250 . S
C309 O315 1.263 . S
O310 Tb302 2.427 . S
O310 C306 1.275 . S
O311 Tb302 2.513 . S
O311 C306 1.246 . S
O312 Tb302 2.453 . S
O312 C308 1.245 . S
O313 Tb300 2.357 . S
O313 Tb302 2.581 1_556 S
O313 C308 1.250 1_556 S
O314 Tb302 2.374 1_556 S
O314 C309 1.250 . S
O315 Tb300 2.353 . S
O315 C309 1.263 . S
C316 O317 1.275 . S
C316 O318 1.246 . S
O317 Tb300 2.427 . S
O317 C316 1.275 . S
O318 Tb300 2.513 . S
O318 C316 1.246 . S
C319 O303 1.210 1_554 S
C319 O304 1.277 . S
H320 C332 0.930 . S
H321 C334 0.930 . S
H322 C335 0.930 . S
H323 C339 0.959 . S
H324 C339 0.959 . S
H325 C339 0.961 . S
H326 C340 0.960 1_655 S
H327 C340 0.961 1_655 S
H328 C340 0.959 . S
H329 C343 0.929 . S
H330 C344 0.931 . S
H331 C346 0.930 . S
C332 H320 0.930 . S
C332 C333 1.399 . S
C332 C337 1.399 . S
C333 C332 1.399 . S
C333 C334 1.376 1_655 S
C334 H321 0.930 . S
C334 C333 1.376 1_455 S
C334 C335 1.388 . S
C335 H322 0.930 . S
C335 C334 1.388 . S
C335 C336 1.390 . S
C336 C335 1.390 . S
C336 C337 1.394 1_455 S
C336 C342 1.465 . S
C337 C332 1.399 . S
C337 C336 1.394 1_655 S
C337 C338 1.516 . S
C338 C337 1.516 . S
C338 C339 1.502 . S
C338 C340 1.561 1_655 S
C338 C341 1.526 . S
C339 H323 0.959 . S
C339 H324 0.959 . S
C339 H325 0.961 . S
C339 C338 1.502 . S
C340 H326 0.960 1_455 S
C340 H327 0.961 1_455 S
C340 H328 0.959 . S
C340 C338 1.561 1_455 S
C341 C338 1.526 . S
C341 C342 1.396 1_655 S
C341 C346 1.390 . S
C342 C336 1.465 . S
C342 C341 1.396 1_455 S
C342 C343 1.399 . S
C343 H329 0.929 . S
C343 C342 1.399 . S
C343 C344 1.385 . S
C344 H330 0.931 . S
C344 C343 1.385 . S
C344 C345 1.389 . S
C345 C344 1.389 . S
C345 C346 1.387 1_455 S
C346 H331 0.930 . S
C346 C341 1.390 . S
C346 C345 1.387 1_655 S
H347 C359 0.930 . S
H348 C361 0.930 . S
H349 C362 0.930 . S
H350 C366 0.959 . S
H351 C366 0.959 . S
H352 C366 0.961 . S
H353 C367 0.960 . S
H354 C367 0.961 . S
H355 C367 0.959 . S
H356 C370 0.929 . S
H357 C371 0.931 . S
H358 C373 0.930 . S
C359 H347 0.930 . S
C359 C360 1.399 . S
C359 C364 1.399 . S
C360 C359 1.399 . S
C360 C361 1.376 . S
C361 H348 0.930 . S
C361 C360 1.376 . S
C361 C362 1.388 . S
C362 H349 0.930 . S
C362 C361 1.388 . S
C362 C363 1.390 . S
C363 C362 1.390 . S
C363 C364 1.394 . S
C363 C369 1.465 . S
C364 C359 1.399 . S
C364 C363 1.394 . S
C364 C365 1.516 . S
C365 C364 1.516 . S
C365 C366 1.502 . S
C365 C367 1.561 . S
C365 C368 1.526 . S
C366 H350 0.959 . S
C366 H351 0.959 . S
C366 H352 0.961 . S
C366 C365 1.502 . S
C367 H353 0.960 . S
C367 H354 0.961 . S
C367 H355 0.959 . S
C367 C365 1.561 . S
C368 C365 1.526 . S
C368 C369 1.396 . S
C368 C373 1.390 . S
C369 C363 1.465 . S
C369 C368 1.396 . S
C369 C370 1.399 . S
C370 H356 0.929 . S
C370 C369 1.399 . S
C370 C371 1.385 . S
C371 H357 0.931 . S
C371 C370 1.385 . S
C371 C372 1.389 . S
C372 C371 1.389 . S
C372 C373 1.387 . S
C373 H358 0.930 . S
C373 C368 1.390 . S
C373 C372 1.387 . S
H374 C386 0.930 . S
H375 C388 0.930 . S
H376 C389 0.930 . S
H377 C393 0.959 . S
H378 C393 0.959 . S
H379 C393 0.961 . S
H380 C394 0.960 . S
H381 C394 0.961 . S
H382 C394 0.959 . S
H383 C397 0.929 . S
H384 C398 0.931 . S
H385 C400 0.930 . S
C386 H374 0.930 . S
C386 C387 1.399 . S
C386 C391 1.399 . S
C387 C386 1.399 . S
C387 C388 1.376 . S
C388 H375 0.930 . S
C388 C387 1.376 . S
C388 C389 1.388 . S
C389 H376 0.930 . S
C389 C388 1.388 . S
C389 C390 1.390 . S
C390 C389 1.390 . S
C390 C391 1.394 . S
C390 C396 1.465 . S
C391 C386 1.399 . S
C391 C390 1.394 . S
C391 C392 1.516 . S
C392 C391 1.516 . S
C392 C393 1.502 . S
C392 C394 1.561 . S
C392 C395 1.526 . S
C393 H377 0.959 . S
C393 H378 0.959 . S
C393 H379 0.961 . S
C393 C392 1.502 . S
C394 H380 0.960 . S
C394 H381 0.961 . S
C394 H382 0.959 . S
C394 C392 1.561 . S
C395 C392 1.526 . S
C395 C396 1.396 . S
C395 C400 1.390 . S
C396 C390 1.465 . S
C396 C395 1.396 . S
C396 C397 1.399 . S
C397 H383 0.929 . S
C397 C396 1.399 . S
C397 C398 1.385 . S
C398 H384 0.931 . S
C398 C397 1.385 . S
C398 C399 1.389 . S
C399 C398 1.389 . S
C399 C400 1.387 . S
C400 H385 0.930 . S
C400 C395 1.390 . S
C400 C399 1.387 . S
H401 C413 0.930 . S
H402 C415 0.927 1_565 S
H403 C416 0.930 1_565 S
H404 C420 0.959 . S
H405 C420 0.959 . S
H406 C420 0.961 . S
H407 C421 0.960 . S
H408 C421 0.961 . S
H409 C421 0.959 . S
H410 C424 0.929 1_565 S
H411 C425 0.931 1_565 S
H412 C427 0.930 . S
C413 H401 0.930 . S
C413 C414 1.399 . S
C413 C418 1.399 . S
C414 C413 1.399 . S
C414 C415 1.376 . S
C415 H402 0.927 1_545 S
C415 C414 1.376 . S
C415 C416 1.388 . S
C416 H403 0.930 1_545 S
C416 C415 1.388 . S
C416 C417 1.390 . S
C417 C416 1.390 . S
C417 C418 1.394 . S
C417 C423 1.465 . S
C418 C413 1.399 . S
C418 C417 1.394 . S
C418 C419 1.516 . S
C419 C418 1.516 . S
C419 C420 1.502 . S
C419 C421 1.561 . S
C419 C422 1.526 . S
C420 H404 0.959 . S
C420 H405 0.959 . S
C420 H406 0.961 . S
C420 C419 1.502 . S
C421 H407 0.960 . S
C421 H408 0.961 . S
C421 H409 0.959 . S
C421 C419 1.561 . S
C422 C419 1.526 . S
C422 C423 1.396 . S
C422 C427 1.390 . S
C423 C417 1.465 . S
C423 C422 1.396 . S
C423 C424 1.399 . S
C424 H410 0.929 1_545 S
C424 C423 1.399 . S
C424 C425 1.385 . S
C425 H411 0.931 1_545 S
C425 C424 1.385 . S
C425 C426 1.389 . S
C426 C425 1.389 . S
C426 C427 1.387 . S
C427 H412 0.930 . S
C427 C422 1.390 . S
C427 C426 1.387 . S
H428 C440 0.930 . S
H429 C442 0.930 . S
H430 C443 0.930 . S
H431 C447 0.959 . S
H432 C447 0.959 . S
H433 C447 0.961 . S
H434 C448 0.960 . S
H435 C448 0.961 . S
H436 C448 0.959 . S
H437 C451 0.929 . S
H438 C452 0.931 . S
H439 C454 0.930 . S
C440 H428 0.930 . S
C440 C441 1.380 1_565 S
C440 C445 1.399 . S
C441 C440 1.380 1_545 S
C441 C442 1.399 . S
C442 H429 0.930 . S
C442 C441 1.399 . S
C442 C443 1.388 . S
C443 H430 0.930 . S
C443 C442 1.388 . S
C443 C444 1.390 . S
C444 C443 1.390 . S
C444 C445 1.394 1_545 S
C444 C450 1.465 . S
C445 C440 1.399 . S
C445 C444 1.394 1_565 S
C445 C446 1.516 . S
C446 C445 1.516 . S
C446 C447 1.502 . S
C446 C448 1.561 . S
C446 C449 1.526 . S
C447 H431 0.959 . S
C447 H432 0.959 . S
C447 H433 0.961 . S
C447 C446 1.502 . S
C448 H434 0.960 . S
C448 H435 0.961 . S
C448 H436 0.959 . S
C448 C446 1.561 . S
C449 C446 1.526 . S
C449 C450 1.396 1_565 S
C449 C454 1.390 . S
C450 C444 1.465 . S
C450 C449 1.396 1_545 S
C450 C451 1.399 . S
C451 H437 0.929 . S
C451 C450 1.399 . S
C451 C452 1.385 . S
C452 H438 0.931 . S
C452 C451 1.385 . S
C452 C453 1.389 . S
C453 C452 1.389 . S
C453 C454 1.387 1_545 S
C454 H439 0.930 . S
C454 C449 1.390 . S
C454 C453 1.387 1_565 S
H455 C467 0.930 . S
H456 C469 0.930 . S
H457 C470 0.930 . S
H458 C474 0.959 . S
H459 C474 0.959 . S
H460 C474 0.961 . S
H461 C475 0.960 . S
H462 C475 0.961 . S
H463 C475 0.959 . S
H464 C478 0.929 . S
H465 C479 0.931 . S
H466 C481 0.930 . S
C467 H455 0.930 . S
C467 C468 1.399 1_655 S
C467 C472 1.399 1_655 S
C468 C467 1.399 1_455 S
C468 C469 1.376 . S
C469 H456 0.930 . S
C469 C468 1.376 . S
C469 C470 1.388 . S
C470 H457 0.930 . S
C470 C469 1.388 . S
C470 C471 1.390 . S
C471 C470 1.390 . S
C471 C472 1.394 . S
C471 C477 1.465 . S
C472 C467 1.399 1_455 S
C472 C471 1.394 . S
C472 C473 1.516 1_455 S
C473 C472 1.516 1_655 S
C473 C474 1.502 . S
C473 C475 1.561 . S
C473 C476 1.521 1_655 S
C474 H458 0.959 . S
C474 H459 0.959 . S
C474 H460 0.961 . S
C474 C473 1.502 . S
C475 H461 0.960 . S
C475 H462 0.961 . S
C475 H463 0.959 . S
C475 C473 1.561 . S
C476 C473 1.521 1_455 S
C476 C477 1.402 . S
C476 C481 1.388 1_455 S
C477 C471 1.465 . S
C477 C476 1.402 . S
C477 C478 1.399 . S
C478 H464 0.929 . S
C478 C477 1.399 . S
C478 C479 1.385 . S
C479 H465 0.931 . S
C479 C478 1.385 . S
C479 C480 1.389 . S
C480 C479 1.389 . S
C480 C481 1.387 1_455 S
C481 H466 0.930 . S
C481 C476 1.388 1_655 S
C481 C480 1.387 1_655 S
H482 C494 0.930 . S
H483 C496 0.930 . S
H484 C497 0.930 . S
H485 C501 0.959 . S
H486 C501 0.959 . S
H487 C501 0.961 . S
H488 C502 0.960 . S
H489 C502 0.961 . S
H490 C502 0.959 . S
H491 C505 0.929 . S
H492 C506 0.931 . S
H493 C508 0.930 . S
C494 H482 0.930 . S
C494 C495 1.399 . S
C494 C499 1.399 . S
C495 C494 1.399 . S
C495 C496 1.376 . S
C496 H483 0.930 . S
C496 C495 1.376 . S
C496 C497 1.388 . S
C497 H484 0.930 . S
C497 C496 1.388 . S
C497 C498 1.390 . S
C498 C497 1.390 . S
C498 C499 1.394 . S
C498 C504 1.465 . S
C499 C494 1.399 . S
C499 C498 1.394 . S
C499 C500 1.516 . S
C500 C499 1.516 . S
C500 C501 1.502 . S
C500 C502 1.561 . S
C500 C503 1.526 . S
C501 H485 0.959 . S
C501 H486 0.959 . S
C501 H487 0.961 . S
C501 C500 1.502 . S
C502 H488 0.960 . S
C502 H489 0.961 . S
C502 H490 0.959 . S
C502 C500 1.561 . S
C503 C500 1.526 . S
C503 C504 1.396 . S
C503 C508 1.390 . S
C504 C498 1.465 . S
C504 C503 1.396 . S
C504 C505 1.399 . S
C505 H491 0.929 . S
C505 C504 1.399 . S
C505 C506 1.385 . S
C506 H492 0.931 . S
C506 C505 1.385 . S
C506 C507 1.389 . S
C507 C506 1.389 . S
C507 C508 1.387 . S
C508 H493 0.930 . S
C508 C503 1.390 . S
C508 C507 1.387 . S
H509 C521 0.930 . S
H510 C523 0.930 . S
H511 C524 0.930 . S
H512 C528 0.959 . S
H513 C528 0.959 . S
H514 C528 0.961 . S
H515 C529 0.960 . S
H516 C529 0.961 . S
H517 C529 0.959 . S
H518 C532 0.929 . S
H519 C533 0.931 . S
H520 C535 0.930 . S
C521 H509 0.930 . S
C521 C522 1.399 . S
C521 C526 1.399 . S
C522 C521 1.399 . S
C522 C523 1.376 . S
C523 H510 0.930 . S
C523 C522 1.376 . S
C523 C524 1.388 . S
C524 H511 0.930 . S
C524 C523 1.388 . S
C524 C525 1.390 . S
C525 C524 1.390 . S
C525 C526 1.394 . S
C525 C531 1.465 . S
C526 C521 1.399 . S
C526 C525 1.394 . S
C526 C527 1.516 . S
C527 C526 1.516 . S
C527 C528 1.502 . S
C527 C529 1.561 . S
C527 C530 1.526 . S
C528 H512 0.959 . S
C528 H513 0.959 . S
C528 H514 0.961 . S
C528 C527 1.502 . S
C529 H515 0.960 . S
C529 H516 0.961 . S
C529 H517 0.959 . S
C529 C527 1.561 . S
C530 C527 1.526 . S
C530 C531 1.396 . S
C530 C535 1.390 . S
C531 C525 1.465 . S
C531 C530 1.396 . S
C531 C532 1.399 . S
C532 H518 0.929 . S
C532 C531 1.399 . S
C532 C533 1.385 . S
C533 H519 0.931 . S
C533 C532 1.385 . S
C533 C534 1.389 . S
C534 C533 1.389 . S
C534 C535 1.387 . S
C535 H520 0.930 . S
C535 C530 1.390 . S
C535 C534 1.387 . S
H536 C548 0.930 . S
H537 C550 0.930 . S
H538 C551 0.930 . S
H539 C555 0.959 . S
H540 C555 0.959 . S
H541 C555 0.961 . S
H542 C556 0.960 . S
H543 C556 0.961 . S
H544 C556 0.959 . S
H545 C559 0.929 . S
H546 C560 0.931 . S
H547 C562 0.930 . S
C548 H536 0.930 . S
C548 C549 1.399 . S
C548 C553 1.399 . S
C549 C548 1.399 . S
C549 C550 1.376 . S
C550 H537 0.930 . S
C550 C549 1.376 . S
C550 C551 1.388 . S
C551 H538 0.930 . S
C551 C550 1.388 . S
C551 C552 1.390 . S
C552 C551 1.390 . S
C552 C553 1.394 . S
C552 C558 1.465 . S
C553 C548 1.399 . S
C553 C552 1.394 . S
C553 C554 1.516 . S
C554 C553 1.516 . S
C554 C555 1.502 . S
C554 C556 1.561 . S
C554 C557 1.526 . S
C555 H539 0.959 . S
C555 H540 0.959 . S
C555 H541 0.961 . S
C555 C554 1.502 . S
C556 H542 0.960 . S
C556 H543 0.961 . S
C556 H544 0.959 . S
C556 C554 1.561 . S
C557 C554 1.526 . S
C557 C558 1.396 . S
C557 C562 1.390 . S
C558 C552 1.465 . S
C558 C557 1.396 . S
C558 C559 1.399 . S
C559 H545 0.929 . S
C559 C558 1.399 . S
C559 C560 1.385 . S
C560 H546 0.931 . S
C560 C559 1.385 . S
C560 C561 1.389 . S
C561 C560 1.389 . S
C561 C562 1.387 . S
C562 H547 0.930 . S
C562 C557 1.390 . S
C562 C561 1.387 . S
H563 C575 0.930 . S
H564 C577 0.930 . S
H565 C578 0.930 . S
H566 C582 0.959 . S
H567 C582 0.959 . S
H568 C582 0.961 . S
H569 C583 0.960 . S
H570 C583 0.961 . S
H571 C583 0.959 . S
H572 C586 0.929 . S
H573 C587 0.931 . S
H574 C589 0.930 . S
C575 H563 0.930 . S
C575 C576 1.399 . S
C575 C580 1.399 . S
C576 C575 1.399 . S
C576 C577 1.376 . S
C577 H564 0.930 . S
C577 C576 1.376 . S
C577 C578 1.388 . S
C578 H565 0.930 . S
C578 C577 1.388 . S
C578 C579 1.390 . S
C579 C578 1.390 . S
C579 C580 1.394 . S
C579 C585 1.465 . S
C580 C575 1.399 . S
C580 C579 1.394 . S
C580 C581 1.516 . S
C581 C580 1.516 . S
C581 C582 1.502 . S
C581 C583 1.561 . S
C581 C584 1.526 . S
C582 H566 0.959 . S
C582 H567 0.959 . S
C582 H568 0.961 . S
C582 C581 1.502 . S
C583 H569 0.960 . S
C583 H570 0.961 . S
C583 H571 0.959 . S
C583 C581 1.561 . S
C584 C581 1.526 . S
C584 C585 1.396 . S
C584 C589 1.390 . S
C585 C579 1.465 . S
C585 C584 1.396 . S
C585 C586 1.399 . S
C586 H572 0.929 . S
C586 C585 1.399 . S
C586 C587 1.385 . S
C587 H573 0.931 . S
C587 C586 1.385 . S
C587 C588 1.389 . S
C588 C587 1.389 . S
C588 C589 1.387 . S
C589 H574 0.930 . S
C589 C584 1.390 . S
C589 C588 1.387 . S
H590 C602 0.930 . S
H591 C604 0.930 . S
H592 C605 0.930 . S
H593 C609 0.959 . S
H594 C609 0.959 . S
H595 C609 0.961 . S
H596 C610 0.960 . S
H597 C610 0.961 . S
H598 C610 0.959 . S
H599 C613 0.929 . S
H600 C614 0.931 . S
H601 C616 0.930 . S
C602 H590 0.930 . S
C602 C603 1.399 . S
C602 C607 1.399 . S
C603 C602 1.399 . S
C603 C604 1.376 1_545 S
C604 H591 0.930 . S
C604 C603 1.376 1_565 S
C604 C605 1.388 . S
C605 H592 0.930 . S
C605 C604 1.388 . S
C605 C606 1.390 . S
C606 C605 1.390 . S
C606 C607 1.394 1_565 S
C606 C612 1.466 1_565 S
C607 C602 1.399 . S
C607 C606 1.394 1_545 S
C607 C608 1.516 . S
C608 C607 1.516 . S
C608 C609 1.502 . S
C608 C610 1.561 . S
C608 C611 1.526 . S
C609 H593 0.959 . S
C609 H594 0.959 . S
C609 H595 0.961 . S
C609 C608 1.502 . S
C610 H596 0.960 . S
C610 H597 0.961 . S
C610 H598 0.959 . S
C610 C608 1.561 . S
C611 C608 1.526 . S
C611 C612 1.413 . S
C611 C616 1.390 . S
C612 C606 1.466 1_545 S
C612 C611 1.413 . S
C612 C613 1.385 1_545 S
C613 H599 0.929 . S
C613 C612 1.385 1_565 S
C613 C614 1.385 . S
C614 H600 0.931 . S
C614 C613 1.385 . S
C614 C615 1.389 1_565 S
C615 C614 1.389 1_545 S
C615 C616 1.387 . S
C616 H601 0.930 . S
C616 C611 1.390 . S
C616 C615 1.387 . S
H617 C629 0.930 . S
H618 C631 0.930 . S
H619 C632 0.930 . S
H620 C636 0.959 . S
H621 C636 0.959 . S
H622 C636 0.961 . S
H623 C637 0.960 . S
H624 C637 0.961 . S
H625 C637 0.959 . S
H626 C640 0.929 . S
H627 C641 0.931 . S
H628 C643 0.929 1_655 S
C629 H617 0.930 . S
C629 C630 1.399 . S
C629 C634 1.399 . S
C630 C629 1.399 . S
C630 C631 1.376 . S
C631 H618 0.930 . S
C631 C630 1.376 . S
C631 C632 1.388 . S
C632 H619 0.930 . S
C632 C631 1.388 . S
C632 C633 1.390 . S
C633 C632 1.390 . S
C633 C634 1.394 . S
C633 C639 1.465 . S
C634 C629 1.399 . S
C634 C633 1.394 . S
C634 C635 1.516 . S
C635 C634 1.516 . S
C635 C636 1.502 1_455 S
C635 C637 1.561 . S
C635 C638 1.526 . S
C636 H620 0.959 . S
C636 H621 0.959 . S
C636 H622 0.961 . S
C636 C635 1.502 1_655 S
C637 H623 0.960 . S
C637 H624 0.961 . S
C637 H625 0.959 . S
C637 C635 1.561 . S
C638 C635 1.526 . S
C638 C639 1.396 . S
C638 C643 1.390 . S
C639 C633 1.465 . S
C639 C638 1.396 . S
C639 C640 1.399 . S
C640 H626 0.929 . S
C640 C639 1.399 . S
C640 C641 1.385 . S
C641 H627 0.931 . S
C641 C640 1.385 . S
C641 C642 1.389 . S
C642 C641 1.389 . S
C642 C643 1.387 . S
C643 H628 0.929 1_455 S
C643 C638 1.390 . S
C643 C642 1.387 . S
H644 C656 0.930 . S
H645 C658 0.930 . S
H646 C659 0.930 . S
H647 C663 0.959 . S
H648 C663 0.959 . S
H649 C663 0.961 . S
H650 C664 0.960 . S
H651 C664 0.961 . S
H652 C664 0.959 . S
H653 C667 0.929 . S
H654 C668 0.931 . S
H655 C670 0.930 . S
C656 H644 0.930 . S
C656 C657 1.399 . S
C656 C661 1.399 . S
C657 C656 1.399 . S
C657 C658 1.376 1_554 S
C658 H645 0.930 . S
C658 C657 1.376 1_556 S
C658 C659 1.388 . S
C659 H646 0.930 . S
C659 C658 1.388 . S
C659 C660 1.390 . S
C660 C659 1.390 . S
C660 C661 1.394 1_556 S
C660 C666 1.465 . S
C661 C656 1.399 . S
C661 C660 1.394 1_554 S
C661 C662 1.516 . S
C662 C661 1.516 . S
C662 C663 1.502 . S
C662 C664 1.561 . S
C662 C665 1.526 . S
C663 H647 0.959 . S
C663 H648 0.959 . S
C663 H649 0.961 . S
C663 C662 1.502 . S
C664 H650 0.960 . S
C664 H651 0.961 . S
C664 H652 0.959 . S
C664 C662 1.561 . S
C665 C662 1.526 . S
C665 C666 1.396 1_554 S
C665 C670 1.390 . S
C666 C660 1.465 . S
C666 C665 1.396 1_556 S
C666 C667 1.399 . S
C667 H653 0.929 . S
C667 C666 1.399 . S
C667 C668 1.385 . S
C668 H654 0.931 . S
C668 C667 1.385 . S
C668 C669 1.389 . S
C669 C668 1.389 . S
C669 C670 1.387 1_556 S
C670 H655 0.930 . S
C670 C665 1.390 . S
C670 C669 1.387 1_554 S
H671 C683 0.930 . S
H672 C685 0.930 . S
H673 C686 0.930 . S
H674 C690 0.959 . S
H675 C690 0.959 . S
H676 C690 0.961 . S
H677 C691 0.960 . S
H678 C691 0.961 . S
H679 C691 0.959 . S
H680 C694 0.929 . S
H681 C695 0.931 . S
H682 C697 0.930 . S
C683 H671 0.930 . S
C683 C684 1.399 . S
C683 C688 1.399 . S
C684 C683 1.399 . S
C684 C685 1.376 . S
C685 H672 0.930 . S
C685 C684 1.376 . S
C685 C686 1.388 . S
C686 H673 0.930 . S
C686 C685 1.388 . S
C686 C687 1.390 . S
C687 C686 1.390 . S
C687 C688 1.394 . S
C687 C693 1.465 . S
C688 C683 1.399 . S
C688 C687 1.394 . S
C688 C689 1.516 . S
C689 C688 1.516 . S
C689 C690 1.502 . S
C689 C691 1.561 . S
C689 C692 1.526 . S
C690 H674 0.959 . S
C690 H675 0.959 . S
C690 H676 0.961 . S
C690 C689 1.502 . S
C691 H677 0.960 . S
C691 H678 0.961 . S
C691 H679 0.959 . S
C691 C689 1.561 . S
C692 C689 1.526 . S
C692 C693 1.396 . S
C692 C697 1.390 . S
C693 C687 1.465 . S
C693 C692 1.396 . S
C693 C694 1.399 . S
C694 H680 0.929 . S
C694 C693 1.399 . S
C694 C695 1.385 . S
C695 H681 0.931 . S
C695 C694 1.385 . S
C695 C696 1.389 . S
C696 C695 1.389 . S
C696 C697 1.387 . S
C697 H682 0.930 . S
C697 C692 1.390 . S
C697 C696 1.387 . S
H698 C710 0.930 . S
H699 C712 0.930 . S
H700 C713 0.930 . S
H701 C717 0.959 . S
H702 C717 0.959 . S
H703 C717 0.961 . S
H704 C718 0.960 . S
H705 C718 0.961 . S
H706 C718 0.959 . S
H707 C721 0.929 . S
H708 C722 0.931 . S
H709 C724 0.930 . S
C710 H698 0.930 . S
C710 C711 1.399 . S
C710 C715 1.399 . S
C711 C710 1.399 . S
C711 C712 1.376 . S
C712 H699 0.930 . S
C712 C711 1.376 . S
C712 C713 1.388 . S
C713 H700 0.930 . S
C713 C712 1.388 . S
C713 C714 1.390 . S
C714 C713 1.390 . S
C714 C715 1.394 . S
C714 C720 1.465 . S
C715 C710 1.399 . S
C715 C714 1.394 . S
C715 C716 1.516 . S
C716 C715 1.516 . S
C716 C717 1.502 . S
C716 C718 1.561 . S
C716 C719 1.526 . S
C717 H701 0.959 . S
C717 H702 0.959 . S
C717 H703 0.961 . S
C717 C716 1.502 . S
C718 H704 0.960 . S
C718 H705 0.961 . S
C718 H706 0.959 . S
C718 C716 1.561 . S
C719 C716 1.526 . S
C719 C720 1.396 . S
C719 C724 1.390 . S
C720 C714 1.465 . S
C720 C719 1.396 . S
C720 C721 1.399 . S
C721 H707 0.929 . S
C721 C720 1.399 . S
C721 C722 1.385 . S
C722 H708 0.931 . S
C722 C721 1.385 . S
C722 C723 1.389 . S
C723 C722 1.389 . S
C723 C724 1.387 . S
C724 H709 0.930 . S
C724 C719 1.390 . S
C724 C723 1.387 . S
H725 C737 0.930 . S
H726 C739 0.930 . S
H727 C740 0.930 . S
H728 C744 0.959 . S
H729 C744 0.959 . S
H730 C744 0.961 . S
H731 C745 0.960 . S
H732 C745 0.961 . S
H733 C745 0.959 . S
H734 C748 0.929 . S
H735 C749 0.931 . S
H736 C751 0.930 . S
C737 H725 0.930 . S
C737 C738 1.399 . S
C737 C742 1.399 . S
C738 C737 1.399 . S
C738 C739 1.376 . S
C739 H726 0.930 . S
C739 C738 1.376 . S
C739 C740 1.388 . S
C740 H727 0.930 . S
C740 C739 1.388 . S
C740 C741 1.390 . S
C741 C740 1.390 . S
C741 C742 1.394 . S
C741 C747 1.465 . S
C742 C737 1.399 . S
C742 C741 1.394 . S
C742 C743 1.516 . S
C743 C742 1.516 . S
C743 C744 1.502 . S
C743 C745 1.561 . S
C743 C746 1.526 . S
C744 H728 0.959 . S
C744 H729 0.959 . S
C744 H730 0.961 . S
C744 C743 1.502 . S
C745 H731 0.960 . S
C745 H732 0.961 . S
C745 H733 0.959 . S
C745 C743 1.561 . S
C746 C743 1.526 . S
C746 C747 1.396 . S
C746 C751 1.390 . S
C747 C741 1.465 . S
C747 C746 1.396 . S
C747 C748 1.399 . S
C748 H734 0.929 . S
C748 C747 1.399 . S
C748 C749 1.385 . S
C749 H735 0.931 . S
C749 C748 1.385 . S
C749 C750 1.389 . S
C750 C749 1.389 . S
C750 C751 1.387 . S
C751 H736 0.930 . S
C751 C746 1.390 . S
C751 C750 1.387 . S
H752 C764 0.930 . S
H753 C766 0.930 . S
H754 C767 0.930 . S
H755 C771 0.959 . S
H756 C771 0.959 . S
H757 C771 0.961 . S
H758 C772 0.960 . S
H759 C772 0.961 . S
H760 C772 0.959 . S
H761 C775 0.929 . S
H762 C776 0.931 . S
H763 C778 0.930 . S
C764 H752 0.930 . S
C764 C765 1.399 . S
C764 C769 1.399 . S
C765 C764 1.399 . S
C765 C766 1.376 . S
C766 H753 0.930 . S
C766 C765 1.376 . S
C766 C767 1.388 . S
C767 H754 0.930 . S
C767 C766 1.388 . S
C767 C768 1.390 . S
C768 C767 1.390 . S
C768 C769 1.394 . S
C768 C774 1.465 . S
C769 C764 1.399 . S
C769 C768 1.394 . S
C769 C770 1.516 . S
C770 C769 1.516 . S
C770 C771 1.502 . S
C770 C772 1.561 . S
C770 C773 1.526 . S
C771 H755 0.959 . S
C771 H756 0.959 . S
C771 H757 0.961 . S
C771 C770 1.502 . S
C772 H758 0.960 . S
C772 H759 0.961 . S
C772 H760 0.959 . S
C772 C770 1.561 . S
C773 C770 1.526 . S
C773 C774 1.396 . S
C773 C778 1.390 . S
C774 C768 1.465 . S
C774 C773 1.396 . S
C774 C775 1.399 . S
C775 H761 0.929 . S
C775 C774 1.399 . S
C775 C776 1.385 . S
C776 H762 0.931 . S
C776 C775 1.385 . S
C776 C777 1.389 . S
C777 C776 1.389 . S
C777 C778 1.387 . S
C778 H763 0.930 . S
C778 C773 1.390 . S
C778 C777 1.387 . S
H779 C791 0.930 . S
H780 C793 0.930 . S
H781 C794 0.930 . S
H782 C798 0.959 . S
H783 C798 0.959 . S
H784 C798 0.961 . S
H785 C799 0.960 . S
H786 C799 0.961 . S
H787 C799 0.959 . S
H788 C802 0.929 . S
H789 C803 0.931 . S
H790 C805 0.930 . S
C791 H779 0.930 . S
C791 C792 1.399 . S
C791 C796 1.399 . S
C792 C791 1.399 . S
C792 C793 1.376 . S
C793 H780 0.930 . S
C793 C792 1.376 . S
C793 C794 1.388 . S
C794 H781 0.930 . S
C794 C793 1.388 . S
C794 C795 1.390 . S
C795 C794 1.390 . S
C795 C796 1.394 . S
C795 C801 1.465 . S
C796 C791 1.399 . S
C796 C795 1.394 . S
C796 C797 1.516 . S
C797 C796 1.516 . S
C797 C798 1.502 . S
C797 C799 1.561 . S
C797 C800 1.526 . S
C798 H782 0.959 . S
C798 H783 0.959 . S
C798 H784 0.961 . S
C798 C797 1.502 . S
C799 H785 0.960 . S
C799 H786 0.961 . S
C799 H787 0.959 . S
C799 C797 1.561 . S
C800 C797 1.526 . S
C800 C801 1.396 . S
C800 C805 1.390 . S
C801 C795 1.465 . S
C801 C800 1.396 . S
C801 C802 1.399 . S
C802 H788 0.929 . S
C802 C801 1.399 . S
C802 C803 1.385 . S
C803 H789 0.931 . S
C803 C802 1.385 . S
C803 C804 1.389 . S
C804 C803 1.389 . S
C804 C805 1.387 . S
C805 H790 0.930 . S
C805 C800 1.390 . S
C805 C804 1.387 . S
H806 C818 0.930 . S
H807 C820 0.930 . S
H808 C821 0.930 . S
H809 C825 0.959 . S
H810 C825 0.959 . S
H811 C825 0.961 . S
H812 C826 0.960 . S
H813 C826 0.961 . S
H814 C826 0.959 . S
H815 C829 0.929 . S
H816 C830 0.931 . S
H817 C832 0.930 . S
C818 H806 0.930 . S
C818 C819 1.399 . S
C818 C823 1.399 . S
C819 C818 1.399 . S
C819 C820 1.376 . S
C820 H807 0.930 . S
C820 C819 1.376 . S
C820 C821 1.388 . S
C821 H808 0.930 . S
C821 C820 1.388 . S
C821 C822 1.390 . S
C822 C821 1.390 . S
C822 C823 1.394 . S
C822 C828 1.465 . S
C823 C818 1.399 . S
C823 C822 1.394 . S
C823 C824 1.516 . S
C824 C823 1.516 . S
C824 C825 1.502 . S
C824 C826 1.561 . S
C824 C827 1.526 . S
C825 H809 0.959 . S
C825 H810 0.959 . S
C825 H811 0.961 . S
C825 C824 1.502 . S
C826 H812 0.960 . S
C826 H813 0.961 . S
C826 H814 0.959 . S
C826 C824 1.561 . S
C827 C824 1.526 . S
C827 C828 1.396 . S
C827 C832 1.390 . S
C828 C822 1.465 . S
C828 C827 1.396 . S
C828 C829 1.399 . S
C829 H815 0.929 . S
C829 C828 1.399 . S
C829 C830 1.385 . S
C830 H816 0.931 . S
C830 C829 1.385 . S
C830 C831 1.389 . S
C831 C830 1.389 . S
C831 C832 1.387 . S
C832 H817 0.930 . S
C832 C827 1.390 . S
C832 C831 1.387 . S
H833 C845 0.930 . S
H834 C847 0.930 . S
H835 C848 0.930 . S
H836 C852 0.959 . S
H837 C852 0.959 . S
H838 C852 0.961 . S
H839 C853 0.960 . S
H840 C853 0.961 . S
H841 C853 0.959 . S
H842 C856 0.929 . S
H843 C857 0.931 . S
H844 C859 0.930 . S
C845 H833 0.930 . S
C845 C846 1.399 . S
C845 C850 1.399 . S
C846 C845 1.399 . S
C846 C847 1.376 . S
C847 H834 0.930 . S
C847 C846 1.376 . S
C847 C848 1.388 . S
C848 H835 0.930 . S
C848 C847 1.388 . S
C848 C849 1.390 . S
C849 C848 1.390 . S
C849 C850 1.394 . S
C849 C855 1.465 . S
C850 C845 1.399 . S
C850 C849 1.394 . S
C850 C851 1.516 . S
C851 C850 1.516 . S
C851 C852 1.502 . S
C851 C853 1.561 . S
C851 C854 1.526 . S
C852 H836 0.959 . S
C852 H837 0.959 . S
C852 H838 0.961 . S
C852 C851 1.502 . S
C853 H839 0.960 . S
C853 H840 0.961 . S
C853 H841 0.959 . S
C853 C851 1.561 . S
C854 C851 1.526 . S
C854 C855 1.396 . S
C854 C859 1.390 . S
C855 C849 1.465 . S
C855 C854 1.396 . S
C855 C856 1.399 . S
C856 H842 0.929 . S
C856 C855 1.399 . S
C856 C857 1.385 . S
C857 H843 0.931 . S
C857 C856 1.385 . S
C857 C858 1.389 . S
C858 C857 1.389 . S
C858 C859 1.387 . S
C859 H844 0.930 . S
C859 C854 1.390 . S
C859 C858 1.387 . S
H860 C872 0.930 . S
H861 C874 0.930 . S
H862 C875 0.930 . S
H863 C879 0.959 . S
H864 C879 0.959 . S
H865 C879 0.961 . S
H866 C880 0.960 . S
H867 C880 0.961 . S
H868 C880 0.959 . S
H869 C883 0.929 . S
H870 C884 0.931 . S
H871 C886 0.930 . S
C872 H860 0.930 . S
C872 C873 1.399 . S
C872 C877 1.399 . S
C873 C872 1.399 . S
C873 C874 1.376 . S
C874 H861 0.930 . S
C874 C873 1.376 . S
C874 C875 1.388 . S
C875 H862 0.930 . S
C875 C874 1.388 . S
C875 C876 1.390 . S
C876 C875 1.390 . S
C876 C877 1.394 . S
C876 C882 1.465 . S
C877 C872 1.399 . S
C877 C876 1.394 . S
C877 C878 1.516 . S
C878 C877 1.516 . S
C878 C879 1.502 . S
C878 C880 1.561 . S
C878 C881 1.526 . S
C879 H863 0.959 . S
C879 H864 0.959 . S
C879 H865 0.961 . S
C879 C878 1.502 . S
C880 H866 0.960 . S
C880 H867 0.961 . S
C880 H868 0.959 . S
C880 C878 1.561 . S
C881 C878 1.526 . S
C881 C882 1.396 . S
C881 C886 1.390 . S
C882 C876 1.465 . S
C882 C881 1.396 . S
C882 C883 1.399 . S
C883 H869 0.929 . S
C883 C882 1.399 . S
C883 C884 1.385 . S
C884 H870 0.931 . S
C884 C883 1.385 . S
C884 C885 1.389 . S
C885 C884 1.389 . S
C885 C886 1.387 . S
C886 H871 0.930 . S
C886 C881 1.390 . S
C886 C885 1.387 . S
H887 C899 0.930 . S
H888 C901 0.930 . S
H889 C902 0.930 . S
H890 C906 0.959 . S
H891 C906 0.959 . S
H892 C906 0.961 . S
H893 C907 0.960 . S
H894 C907 0.961 . S
H895 C907 0.959 . S
H896 C910 0.929 . S
H897 C911 0.931 . S
H898 C913 0.930 . S
C899 H887 0.930 . S
C899 C900 1.399 . S
C899 C904 1.399 . S
C900 C899 1.399 . S
C900 C901 1.376 1_655 S
C901 H888 0.930 . S
C901 C900 1.376 1_455 S
C901 C902 1.388 . S
C902 H889 0.930 . S
C902 C901 1.388 . S
C902 C903 1.390 . S
C903 C902 1.390 . S
C903 C904 1.394 1_455 S
C903 C909 1.465 . S
C904 C899 1.399 . S
C904 C903 1.394 1_655 S
C904 C905 1.516 . S
C905 C904 1.516 . S
C905 C906 1.502 . S
C905 C907 1.561 . S
C905 C908 1.526 . S
C906 H890 0.959 . S
C906 H891 0.959 . S
C906 H892 0.961 . S
C906 C905 1.502 . S
C907 H893 0.960 . S
C907 H894 0.961 . S
C907 H895 0.959 . S
C907 C905 1.561 . S
C908 C905 1.526 . S
C908 C909 1.396 1_655 S
C908 C913 1.390 . S
C909 C903 1.465 . S
C909 C908 1.396 1_455 S
C909 C910 1.399 . S
C910 H896 0.929 . S
C910 C909 1.399 . S
C910 C911 1.385 . S
C911 H897 0.931 . S
C911 C910 1.385 . S
C911 C912 1.389 1_455 S
C912 C911 1.389 1_655 S
C912 C913 1.387 . S
C913 H898 0.930 . S
C913 C908 1.390 . S
C913 C912 1.387 . S
H914 C926 0.930 . S
H915 C928 0.930 . S
H916 C929 0.930 . S
H917 C933 0.959 . S
H918 C933 0.959 . S
H919 C933 0.961 . S
H920 C934 0.960 . S
H921 C934 0.961 . S
H922 C934 0.959 . S
H923 C937 0.929 . S
H924 C938 0.931 . S
H925 C940 0.930 . S
C926 H914 0.930 . S
C926 C927 1.399 . S
C926 C931 1.399 . S
C927 C926 1.399 . S
C927 C928 1.376 . S
C928 H915 0.930 . S
C928 C927 1.376 . S
C928 C929 1.388 . S
C929 H916 0.930 . S
C929 C928 1.388 . S
C929 C930 1.390 . S
C930 C929 1.390 . S
C930 C931 1.394 . S
C930 C936 1.465 . S
C931 C926 1.399 . S
C931 C930 1.394 . S
C931 C932 1.516 . S
C932 C931 1.516 . S
C932 C933 1.502 . S
C932 C934 1.561 . S
C932 C935 1.526 . S
C933 H917 0.959 . S
C933 H918 0.959 . S
C933 H919 0.961 . S
C933 C932 1.502 . S
C934 H920 0.960 . S
C934 H921 0.961 . S
C934 H922 0.959 . S
C934 C932 1.561 . S
C935 C932 1.526 . S
C935 C936 1.396 . S
C935 C940 1.390 . S
C936 C930 1.465 . S
C936 C935 1.396 . S
C936 C937 1.399 . S
C937 H923 0.929 . S
C937 C936 1.399 . S
C937 C938 1.385 . S
C938 H924 0.931 . S
C938 C937 1.385 . S
C938 C939 1.389 . S
C939 C938 1.389 . S
C939 C940 1.387 . S
C940 H925 0.930 . S
C940 C935 1.390 . S
C940 C939 1.387 . S
H941 C953 0.930 . S
H942 C955 0.930 . S
H943 C956 0.930 . S
H944 C960 0.959 . S
H945 C960 0.959 . S
H946 C960 0.961 . S
H947 C961 0.960 . S
H948 C961 0.961 . S
H949 C961 0.959 . S
H950 C964 0.929 . S
H951 C965 0.931 . S
H952 C967 0.930 . S
C953 H941 0.930 . S
C953 C954 1.399 . S
C953 C958 1.399 . S
C954 C953 1.399 . S
C954 C955 1.376 . S
C955 H942 0.930 . S
C955 C954 1.376 . S
C955 C956 1.388 . S
C956 H943 0.930 . S
C956 C955 1.388 . S
C956 C957 1.390 . S
C957 C956 1.390 . S
C957 C958 1.394 . S
C957 C963 1.465 . S
C958 C953 1.399 . S
C958 C957 1.394 . S
C958 C959 1.516 . S
C959 C958 1.516 . S
C959 C960 1.502 . S
C959 C961 1.561 . S
C959 C962 1.526 . S
C960 H944 0.959 . S
C960 H945 0.959 . S
C960 H946 0.961 . S
C960 C959 1.502 . S
C961 H947 0.960 . S
C961 H948 0.961 . S
C961 H949 0.959 . S
C961 C959 1.561 . S
C962 C959 1.526 . S
C962 C963 1.396 . S
C962 C967 1.390 . S
C963 C957 1.465 . S
C963 C962 1.396 . S
C963 C964 1.399 . S
C964 H950 0.929 . S
C964 C963 1.399 . S
C964 C965 1.385 . S
C965 H951 0.931 . S
C965 C964 1.385 . S
C965 C966 1.389 . S
C966 C965 1.389 . S
C966 C967 1.387 . S
C967 H952 0.930 . S
C967 C962 1.390 . S
C967 C966 1.387 . S
H968 C980 0.930 . S
H969 C982 0.930 . S
H970 C983 0.930 . S
H971 C987 0.959 . S
H972 C987 0.959 . S
H973 C987 0.961 . S
H974 C988 0.960 . S
H975 C988 0.961 . S
H976 C988 0.959 . S
H977 C991 0.929 . S
H978 C992 0.931 . S
H979 C994 0.930 . S
C980 H968 0.930 . S
C980 C981 1.399 . S
C980 C985 1.399 . S
C981 C980 1.399 . S
C981 C982 1.376 . S
C982 H969 0.930 . S
C982 C981 1.376 . S
C982 C983 1.388 . S
C983 H970 0.930 . S
C983 C982 1.388 . S
C983 C984 1.390 . S
C984 C983 1.390 . S
C984 C985 1.394 . S
C984 C990 1.465 . S
C985 C980 1.399 . S
C985 C984 1.394 . S
C985 C986 1.516 . S
C986 C985 1.516 . S
C986 C987 1.502 . S
C986 C988 1.561 . S
C986 C989 1.526 . S
C987 H971 0.959 . S
C987 H972 0.959 . S
C987 H973 0.961 . S
C987 C986 1.502 . S
C988 H974 0.960 . S
C988 H975 0.961 . S
C988 H976 0.959 . S
C988 C986 1.561 . S
C989 C986 1.526 . S
C989 C990 1.396 . S
C989 C994 1.390 . S
C990 C984 1.465 . S
C990 C989 1.396 . S
C990 C991 1.399 . S
C991 H977 0.929 . S
C991 C990 1.399 . S
C991 C992 1.385 . S
C992 H978 0.931 . S
C992 C991 1.385 . S
C992 C993 1.389 . S
C993 C992 1.389 . S
C993 C994 1.387 . S
C994 H979 0.930 . S
C994 C989 1.390 . S
C994 C993 1.387 . S
H995 C1007 0.930 . S
H996 C1009 0.930 . S
H997 C1010 0.930 . S
H998 C1014 0.959 . S
H999 C1014 0.959 . S
H1000 C1014 0.961 . S
H1001 C1015 0.960 . S
H1002 C1015 0.961 . S
H1003 C1015 0.959 . S
H1004 C1018 0.929 . S
H1005 C1019 0.931 . S
H1006 C1021 0.930 . S
C1007 H995 0.930 . S
C1007 C1008 1.399 . S
C1007 C1012 1.399 . S
C1008 C1007 1.399 . S
C1008 C1009 1.376 . S
C1009 H996 0.930 . S
C1009 C1008 1.376 . S
C1009 C1010 1.388 . S
C1010 H997 0.930 . S
C1010 C1009 1.388 . S
C1010 C1011 1.390 . S
C1011 C1010 1.390 . S
C1011 C1012 1.394 . S
C1011 C1017 1.465 . S
C1012 C1007 1.399 . S
C1012 C1011 1.394 . S
C1012 C1013 1.516 . S
C1013 C1012 1.516 . S
C1013 C1014 1.502 . S
C1013 C1015 1.561 . S
C1013 C1016 1.526 . S
C1014 H998 0.959 . S
C1014 H999 0.959 . S
C1014 H1000 0.961 . S
C1014 C1013 1.502 . S
C1015 H1001 0.960 . S
C1015 H1002 0.961 . S
C1015 H1003 0.959 . S
C1015 C1013 1.561 . S
C1016 C1013 1.526 . S
C1016 C1017 1.396 . S
C1016 C1021 1.390 . S
C1017 C1011 1.465 . S
C1017 C1016 1.396 . S
C1017 C1018 1.399 . S
C1018 H1004 0.929 . S
C1018 C1017 1.399 . S
C1018 C1019 1.385 . S
C1019 H1005 0.931 . S
C1019 C1018 1.385 . S
C1019 C1020 1.389 . S
C1020 C1019 1.389 . S
C1020 C1021 1.387 . S
C1021 H1006 0.930 . S
C1021 C1016 1.390 . S
C1021 C1020 1.387 . S
H1022 C1034 0.930 . S
H1023 C1036 0.930 . S
H1024 C1037 0.930 . S
H1025 C1041 0.959 . S
H1026 C1041 0.959 . S
H1027 C1041 0.961 . S
H1028 C1042 0.960 . S
H1029 C1042 0.961 . S
H1030 C1042 0.959 . S
H1031 C1045 0.929 . S
H1032 C1046 0.931 . S
H1033 C1048 0.930 . S
C1034 H1022 0.930 . S
C1034 C1035 1.399 . S
C1034 C1039 1.399 . S
C1035 C1034 1.399 . S
C1035 C1036 1.376 1_545 S
C1036 H1023 0.930 . S
C1036 C1035 1.376 1_565 S
C1036 C1037 1.388 . S
C1037 H1024 0.930 . S
C1037 C1036 1.388 . S
C1037 C1038 1.390 . S
C1038 C1037 1.390 . S
C1038 C1039 1.394 1_565 S
C1038 C1044 1.465 . S
C1039 C1034 1.399 . S
C1039 C1038 1.394 1_545 S
C1039 C1040 1.516 . S
C1040 C1039 1.516 . S
C1040 C1041 1.502 . S
C1040 C1042 1.561 . S
C1040 C1043 1.526 . S
C1041 H1025 0.959 . S
C1041 H1026 0.959 . S
C1041 H1027 0.961 . S
C1041 C1040 1.502 . S
C1042 H1028 0.960 . S
C1042 H1029 0.961 . S
C1042 H1030 0.959 . S
C1042 C1040 1.561 . S
C1043 C1040 1.526 . S
C1043 C1044 1.396 1_545 S
C1043 C1048 1.390 . S
C1044 C1038 1.465 . S
C1044 C1043 1.396 1_565 S
C1044 C1045 1.399 . S
C1045 H1031 0.929 . S
C1045 C1044 1.399 . S
C1045 C1046 1.385 . S
C1046 H1032 0.931 . S
C1046 C1045 1.385 . S
C1046 C1047 1.389 1_565 S
C1047 C1046 1.389 1_545 S
C1047 C1048 1.387 . S
C1048 H1033 0.930 . S
C1048 C1043 1.390 . S
C1048 C1047 1.387 . S
H1049 C1061 0.930 . S
H1050 C1063 0.930 . S
H1051 C1064 0.930 . S
H1052 C1068 0.959 . S
H1053 C1068 0.959 . S
H1054 C1068 0.961 . S
H1055 C1069 0.960 . S
H1056 C1069 0.961 . S
H1057 C1069 0.959 . S
H1058 C1072 0.929 . S
H1059 C1073 0.931 . S
H1060 C1075 0.930 . S
C1061 H1049 0.930 . S
C1061 C1062 1.399 . S
C1061 C1066 1.399 . S
C1062 C1061 1.399 . S
C1062 C1063 1.376 1_554 S
C1063 H1050 0.930 . S
C1063 C1062 1.376 1_556 S
C1063 C1064 1.388 . S
C1064 H1051 0.930 . S
C1064 C1063 1.388 . S
C1064 C1065 1.390 . S
C1065 C1064 1.390 . S
C1065 C1066 1.394 1_556 S
C1065 C1071 1.465 . S
C1066 C1061 1.399 . S
C1066 C1065 1.394 1_554 S
C1066 C1067 1.516 . S
C1067 C1066 1.516 . S
C1067 C1068 1.502 . S
C1067 C1069 1.561 . S
C1067 C1070 1.526 . S
C1068 H1052 0.959 . S
C1068 H1053 0.959 . S
C1068 H1054 0.961 . S
C1068 C1067 1.502 . S
C1069 H1055 0.960 . S
C1069 H1056 0.961 . S
C1069 H1057 0.959 . S
C1069 C1067 1.561 . S
C1070 C1067 1.526 . S
C1070 C1071 1.396 1_554 S
C1070 C1075 1.390 . S
C1071 C1065 1.465 . S
C1071 C1070 1.396 1_556 S
C1071 C1072 1.399 . S
C1072 H1058 0.929 . S
C1072 C1071 1.399 . S
C1072 C1073 1.385 . S
C1073 H1059 0.931 . S
C1073 C1072 1.385 . S
C1073 C1074 1.389 . S
C1074 C1073 1.389 . S
C1074 C1075 1.387 1_556 S
C1075 H1060 0.930 . S
C1075 C1070 1.390 . S
C1075 C1074 1.387 1_554 S
H1076 C1088 0.930 . S
H1077 C1090 0.930 . S
H1078 C1091 0.930 . S
H1079 C1095 0.959 . S
H1080 C1095 0.959 . S
H1081 C1095 0.961 . S
H1082 C1096 0.960 . S
H1083 C1096 0.961 . S
H1084 C1096 0.959 . S
H1085 C1099 0.929 . S
H1086 C1100 0.931 . S
H1087 C1102 0.930 . S
C1088 H1076 0.930 . S
C1088 C1089 1.399 . S
C1088 C1093 1.399 . S
C1089 C1088 1.399 . S
C1089 C1090 1.376 . S
C1090 H1077 0.930 . S
C1090 C1089 1.376 . S
C1090 C1091 1.388 . S
C1091 H1078 0.930 . S
C1091 C1090 1.388 . S
C1091 C1092 1.390 . S
C1092 C1091 1.390 . S
C1092 C1093 1.394 . S
C1092 C1098 1.465 . S
C1093 C1088 1.399 . S
C1093 C1092 1.394 . S
C1093 C1094 1.516 . S
C1094 C1093 1.516 . S
C1094 C1095 1.502 . S
C1094 C1096 1.561 . S
C1094 C1097 1.526 . S
C1095 H1079 0.959 . S
C1095 H1080 0.959 . S
C1095 H1081 0.961 . S
C1095 C1094 1.502 . S
C1096 H1082 0.960 . S
C1096 H1083 0.961 . S
C1096 H1084 0.959 . S
C1096 C1094 1.561 . S
C1097 C1094 1.526 . S
C1097 C1098 1.396 . S
C1097 C1102 1.390 . S
C1098 C1092 1.465 . S
C1098 C1097 1.396 . S
C1098 C1099 1.399 . S
C1099 H1085 0.929 . S
C1099 C1098 1.399 . S
C1099 C1100 1.385 . S
C1100 H1086 0.931 . S
C1100 C1099 1.385 . S
C1100 C1101 1.389 . S
C1101 C1100 1.389 . S
C1101 C1102 1.387 . S
C1102 H1087 0.930 . S
C1102 C1097 1.390 . S
C1102 C1101 1.387 . S
H1103 C1115 0.930 . S
H1104 C1117 0.930 . S
H1105 C1118 0.930 . S
H1106 C1122 0.959 . S
H1107 C1122 0.959 . S
H1108 C1122 0.961 . S
H1109 C1123 0.960 . S
H1110 C1123 0.961 . S
H1111 C1123 0.959 . S
H1112 C1126 0.929 . S
H1113 C1127 0.931 . S
H1114 C1129 0.930 . S
C1115 H1103 0.930 . S
C1115 C1116 1.399 . S
C1115 C1120 1.399 . S
C1116 C1115 1.399 . S
C1116 C1117 1.376 . S
C1117 H1104 0.930 . S
C1117 C1116 1.376 . S
C1117 C1118 1.388 . S
C1118 H1105 0.930 . S
C1118 C1117 1.388 . S
C1118 C1119 1.390 . S
C1119 C1118 1.390 . S
C1119 C1120 1.394 . S
C1119 C1125 1.465 . S
C1120 C1115 1.399 . S
C1120 C1119 1.394 . S
C1120 C1121 1.516 . S
C1121 C1120 1.516 . S
C1121 C1122 1.502 . S
C1121 C1123 1.561 . S
C1121 C1124 1.526 . S
C1122 H1106 0.959 . S
C1122 H1107 0.959 . S
C1122 H1108 0.961 . S
C1122 C1121 1.502 . S
C1123 H1109 0.960 . S
C1123 H1110 0.961 . S
C1123 H1111 0.959 . S
C1123 C1121 1.561 . S
C1124 C1121 1.526 . S
C1124 C1125 1.396 . S
C1124 C1129 1.390 . S
C1125 C1119 1.465 . S
C1125 C1124 1.396 . S
C1125 C1126 1.399 . S
C1126 H1112 0.929 . S
C1126 C1125 1.399 . S
C1126 C1127 1.385 . S
C1127 H1113 0.931 . S
C1127 C1126 1.385 . S
C1127 C1128 1.389 . S
C1128 C1127 1.389 . S
C1128 C1129 1.387 . S
C1129 H1114 0.930 . S
C1129 C1124 1.390 . S
C1129 C1128 1.387 . S
H1130 C1142 0.930 . S
H1131 C1144 0.930 . S
H1132 C1145 0.930 . S
H1133 C1149 0.959 . S
H1134 C1149 0.959 . S
H1135 C1149 0.961 . S
H1136 C1150 0.960 . S
H1137 C1150 0.961 . S
H1138 C1150 0.959 . S
H1139 C1153 0.929 . S
H1140 C1154 0.931 . S
H1141 C1156 0.930 . S
C1142 H1130 0.930 . S
C1142 C1143 1.399 . S
C1142 C1147 1.399 . S
C1143 C1142 1.399 . S
C1143 C1144 1.376 . S
C1144 H1131 0.930 . S
C1144 C1143 1.376 . S
C1144 C1145 1.388 . S
C1145 H1132 0.930 . S
C1145 C1144 1.388 . S
C1145 C1146 1.390 . S
C1146 C1145 1.390 . S
C1146 C1147 1.394 . S
C1146 C1152 1.465 . S
C1147 C1142 1.399 . S
C1147 C1146 1.394 . S
C1147 C1148 1.516 . S
C1148 C1147 1.516 . S
C1148 C1149 1.502 . S
C1148 C1150 1.561 . S
C1148 C1151 1.526 . S
C1149 H1133 0.959 . S
C1149 H1134 0.959 . S
C1149 H1135 0.961 . S
C1149 C1148 1.502 . S
C1150 H1136 0.960 . S
C1150 H1137 0.961 . S
C1150 H1138 0.959 . S
C1150 C1148 1.561 . S
C1151 C1148 1.526 . S
C1151 C1152 1.396 . S
C1151 C1156 1.390 . S
C1152 C1146 1.465 . S
C1152 C1151 1.396 . S
C1152 C1153 1.399 . S
C1153 H1139 0.929 . S
C1153 C1152 1.399 . S
C1153 C1154 1.385 . S
C1154 H1140 0.931 . S
C1154 C1153 1.385 . S
C1154 C1155 1.389 . S
C1155 C1154 1.389 . S
C1155 C1156 1.387 . S
C1156 H1141 0.930 . S
C1156 C1151 1.390 . S
C1156 C1155 1.387 . S
H1157 C1169 0.930 . S
H1158 C1171 0.930 . S
H1159 C1172 0.930 . S
H1160 C1176 0.959 . S
H1161 C1176 0.959 . S
H1162 C1176 0.961 . S
H1163 C1177 0.960 . S
H1164 C1177 0.961 . S
H1165 C1177 0.959 . S
H1166 C1180 0.929 . S
H1167 C1181 0.931 . S
H1168 C1183 0.930 . S
C1169 H1157 0.930 . S
C1169 C1170 1.399 . S
C1169 C1174 1.399 . S
C1170 C1169 1.399 . S
C1170 C1171 1.376 . S
C1171 H1158 0.930 . S
C1171 C1170 1.376 . S
C1171 C1172 1.388 . S
C1172 H1159 0.930 . S
C1172 C1171 1.388 . S
C1172 C1173 1.390 . S
C1173 C1172 1.390 . S
C1173 C1174 1.394 . S
C1173 C1179 1.465 . S
C1174 C1169 1.399 . S
C1174 C1173 1.394 . S
C1174 C1175 1.516 . S
C1175 C1174 1.516 . S
C1175 C1176 1.502 . S
C1175 C1177 1.561 . S
C1175 C1178 1.526 . S
C1176 H1160 0.959 . S
C1176 H1161 0.959 . S
C1176 H1162 0.961 . S
C1176 C1175 1.502 . S
C1177 H1163 0.960 . S
C1177 H1164 0.961 . S
C1177 H1165 0.959 . S
C1177 C1175 1.561 . S
C1178 C1175 1.526 . S
C1178 C1179 1.396 . S
C1178 C1183 1.390 . S
C1179 C1173 1.465 . S
C1179 C1178 1.396 . S
C1179 C1180 1.399 . S
C1180 H1166 0.929 . S
C1180 C1179 1.399 . S
C1180 C1181 1.385 . S
C1181 H1167 0.931 . S
C1181 C1180 1.385 . S
C1181 C1182 1.389 . S
C1182 C1181 1.389 . S
C1182 C1183 1.387 . S
C1183 H1168 0.930 . S
C1183 C1178 1.390 . S
C1183 C1182 1.387 . S
H1184 C1196 0.930 . S
H1185 C1198 0.930 . S
H1186 C1199 0.930 . S
H1187 C1203 0.959 . S
H1188 C1203 0.959 . S
H1189 C1203 0.961 . S
H1190 C1204 0.960 . S
H1191 C1204 0.961 . S
H1192 C1204 0.959 . S
H1193 C1207 0.929 . S
H1194 C1208 0.931 . S
H1195 C1210 0.930 . S
C1196 H1184 0.930 . S
C1196 C1197 1.399 . S
C1196 C1201 1.399 . S
C1197 C1196 1.399 . S
C1197 C1198 1.376 . S
C1198 H1185 0.930 . S
C1198 C1197 1.376 . S
C1198 C1199 1.388 . S
C1199 H1186 0.930 . S
C1199 C1198 1.388 . S
C1199 C1200 1.390 . S
C1200 C1199 1.390 . S
C1200 C1201 1.394 . S
C1200 C1206 1.465 . S
C1201 C1196 1.399 . S
C1201 C1200 1.394 . S
C1201 C1202 1.516 . S
C1202 C1201 1.516 . S
C1202 C1203 1.502 . S
C1202 C1204 1.561 . S
C1202 C1205 1.526 . S
C1203 H1187 0.959 . S
C1203 H1188 0.959 . S
C1203 H1189 0.961 . S
C1203 C1202 1.502 . S
C1204 H1190 0.960 . S
C1204 H1191 0.961 . S
C1204 H1192 0.959 . S
C1204 C1202 1.561 . S
C1205 C1202 1.526 . S
C1205 C1206 1.396 . S
C1205 C1210 1.390 . S
C1206 C1200 1.465 . S
C1206 C1205 1.396 . S
C1206 C1207 1.399 . S
C1207 H1193 0.929 . S
C1207 C1206 1.399 . S
C1207 C1208 1.385 . S
C1208 H1194 0.931 . S
C1208 C1207 1.385 . S
C1208 C1209 1.389 . S
C1209 C1208 1.389 . S
C1209 C1210 1.387 . S
C1210 H1195 0.930 . S
C1210 C1205 1.390 . S
C1210 C1209 1.387 . S
H1211 C1223 0.930 . S
H1212 C1225 0.930 . S
H1213 C1226 0.930 . S
H1214 C1230 0.959 . S
H1215 C1230 0.959 . S
H1216 C1230 0.961 . S
H1217 C1231 0.960 . S
H1218 C1231 0.961 . S
H1219 C1231 0.959 . S
H1220 C1234 0.929 . S
H1221 C1235 0.931 . S
H1222 C1237 0.930 . S
C1223 H1211 0.930 . S
C1223 C1224 1.399 . S
C1223 C1228 1.399 . S
C1224 C1223 1.399 . S
C1224 C1225 1.376 . S
C1225 H1212 0.930 . S
C1225 C1224 1.376 . S
C1225 C1226 1.388 . S
C1226 H1213 0.930 . S
C1226 C1225 1.388 . S
C1226 C1227 1.390 . S
C1227 C1226 1.390 . S
C1227 C1228 1.394 . S
C1227 C1233 1.465 . S
C1228 C1223 1.399 . S
C1228 C1227 1.394 . S
C1228 C1229 1.516 . S
C1229 C1228 1.516 . S
C1229 C1230 1.502 . S
C1229 C1231 1.561 . S
C1229 C1232 1.526 . S
C1230 H1214 0.959 . S
C1230 H1215 0.959 . S
C1230 H1216 0.961 . S
C1230 C1229 1.502 . S
C1231 H1217 0.960 . S
C1231 H1218 0.961 . S
C1231 H1219 0.959 . S
C1231 C1229 1.561 . S
C1232 C1229 1.526 . S
C1232 C1233 1.396 . S
C1232 C1237 1.390 . S
C1233 C1227 1.465 . S
C1233 C1232 1.396 . S
C1233 C1234 1.399 . S
C1234 H1220 0.929 . S
C1234 C1233 1.399 . S
C1234 C1235 1.385 . S
C1235 H1221 0.931 . S
C1235 C1234 1.385 . S
C1235 C1236 1.389 . S
C1236 C1235 1.389 . S
C1236 C1237 1.387 . S
C1237 H1222 0.930 . S
C1237 C1232 1.390 . S
C1237 C1236 1.387 . S
H1238 C1250 0.930 . S
H1239 C1252 0.930 . S
H1240 C1253 0.930 . S
H1241 C1257 0.959 . S
H1242 C1257 0.959 . S
H1243 C1257 0.961 . S
H1244 C1258 0.960 . S
H1245 C1258 0.961 . S
H1246 C1258 0.959 . S
H1247 C1261 0.929 . S
H1248 C1262 0.931 . S
H1249 C1264 0.930 . S
C1250 H1238 0.930 . S
C1250 C1251 1.399 . S
C1250 C1255 1.399 . S
C1251 C1250 1.399 . S
C1251 C1252 1.376 . S
C1252 H1239 0.930 . S
C1252 C1251 1.376 . S
C1252 C1253 1.388 . S
C1253 H1240 0.930 . S
C1253 C1252 1.388 . S
C1253 C1254 1.390 . S
C1254 C1253 1.390 . S
C1254 C1255 1.394 . S
C1254 C1260 1.465 . S
C1255 C1250 1.399 . S
C1255 C1254 1.394 . S
C1255 C1256 1.516 . S
C1256 C1255 1.516 . S
C1256 C1257 1.502 . S
C1256 C1258 1.561 . S
C1256 C1259 1.526 . S
C1257 H1241 0.959 . S
C1257 H1242 0.959 . S
C1257 H1243 0.961 . S
C1257 C1256 1.502 . S
C1258 H1244 0.960 . S
C1258 H1245 0.961 . S
C1258 H1246 0.959 . S
C1258 C1256 1.561 . S
C1259 C1256 1.526 . S
C1259 C1260 1.396 . S
C1259 C1264 1.390 . S
C1260 C1254 1.465 . S
C1260 C1259 1.396 . S
C1260 C1261 1.399 . S
C1261 H1247 0.929 . S
C1261 C1260 1.399 . S
C1261 C1262 1.385 . S
C1262 H1248 0.931 . S
C1262 C1261 1.385 . S
C1262 C1263 1.389 . S
C1263 C1262 1.389 . S
C1263 C1264 1.387 . S
C1264 H1249 0.930 . S
C1264 C1259 1.390 . S
C1264 C1263 1.387 . S
H1265 C1277 0.930 . S
H1266 C1279 0.930 . S
H1267 C1280 0.930 . S
H1268 C1284 0.959 . S
H1269 C1284 0.959 . S
H1270 C1284 0.961 . S
H1271 C1285 0.960 . S
H1272 C1285 0.961 . S
H1273 C1285 0.959 . S
H1274 C1288 0.929 . S
H1275 C1289 0.931 . S
H1276 C1291 0.930 . S
C1277 H1265 0.930 . S
C1277 C1278 1.399 . S
C1277 C1282 1.399 . S
C1278 C1277 1.399 . S
C1278 C1279 1.376 . S
C1279 H1266 0.930 . S
C1279 C1278 1.376 . S
C1279 C1280 1.388 . S
C1280 H1267 0.930 . S
C1280 C1279 1.388 . S
C1280 C1281 1.390 . S
C1281 C1280 1.390 . S
C1281 C1282 1.394 . S
C1281 C1287 1.465 . S
C1282 C1277 1.399 . S
C1282 C1281 1.394 . S
C1282 C1283 1.516 . S
C1283 C1282 1.516 . S
C1283 C1284 1.502 . S
C1283 C1285 1.561 . S
C1283 C1286 1.526 . S
C1284 H1268 0.959 . S
C1284 H1269 0.959 . S
C1284 H1270 0.961 . S
C1284 C1283 1.502 . S
C1285 H1271 0.960 . S
C1285 H1272 0.961 . S
C1285 H1273 0.959 . S
C1285 C1283 1.561 . S
C1286 C1283 1.526 . S
C1286 C1287 1.396 . S
C1286 C1291 1.390 . S
C1287 C1281 1.465 . S
C1287 C1286 1.396 . S
C1287 C1288 1.399 . S
C1288 H1274 0.929 . S
C1288 C1287 1.399 . S
C1288 C1289 1.385 . S
C1289 H1275 0.931 . S
C1289 C1288 1.385 . S
C1289 C1290 1.389 . S
C1290 C1289 1.389 . S
C1290 C1291 1.387 . S
C1291 H1276 0.930 . S
C1291 C1286 1.390 . S
C1291 C1290 1.387 . S
H1292 C1304 0.930 . S
H1293 C1306 0.930 . S
H1294 C1307 0.930 . S
H1295 C1311 0.959 . S
H1296 C1311 0.959 . S
H1297 C1311 0.961 . S
H1298 C1312 0.960 . S
H1299 C1312 0.961 . S
H1300 C1312 0.959 . S
H1301 C1315 0.929 . S
H1302 C1316 0.931 . S
H1303 C1318 0.930 . S
C1304 H1292 0.930 . S
C1304 C1305 1.399 . S
C1304 C1309 1.399 . S
C1305 C1304 1.399 . S
C1305 C1306 1.376 . S
C1306 H1293 0.930 . S
C1306 C1305 1.376 . S
C1306 C1307 1.388 . S
C1307 H1294 0.930 . S
C1307 C1306 1.388 . S
C1307 C1308 1.390 . S
C1308 C1307 1.390 . S
C1308 C1309 1.394 . S
C1308 C1314 1.465 . S
C1309 C1304 1.399 . S
C1309 C1308 1.394 . S
C1309 C1310 1.516 . S
C1310 C1309 1.516 . S
C1310 C1311 1.502 . S
C1310 C1312 1.561 . S
C1310 C1313 1.526 . S
C1311 H1295 0.959 . S
C1311 H1296 0.959 . S
C1311 H1297 0.961 . S
C1311 C1310 1.502 . S
C1312 H1298 0.960 . S
C1312 H1299 0.961 . S
C1312 H1300 0.959 . S
C1312 C1310 1.561 . S
C1313 C1310 1.526 . S
C1313 C1314 1.396 . S
C1313 C1318 1.390 . S
C1314 C1308 1.465 . S
C1314 C1313 1.396 . S
C1314 C1315 1.399 . S
C1315 H1301 0.929 . S
C1315 C1314 1.399 . S
C1315 C1316 1.385 . S
C1316 H1302 0.931 . S
C1316 C1315 1.385 . S
C1316 C1317 1.389 . S
C1317 C1316 1.389 . S
C1317 C1318 1.387 . S
C1318 H1303 0.930 . S
C1318 C1313 1.390 . S
C1318 C1317 1.387 . S
H1319 C1331 0.930 . S
H1320 C1333 0.930 . S
H1321 C1334 0.930 . S
H1322 C1338 0.959 . S
H1323 C1338 0.959 . S
H1324 C1338 0.961 . S
H1325 C1339 0.960 . S
H1326 C1339 0.961 . S
H1327 C1339 0.959 . S
H1328 C1342 0.929 . S
H1329 C1343 0.931 . S
H1330 C1345 0.930 . S
C1331 H1319 0.930 . S
C1331 C1332 1.399 1_556 S
C1331 C1336 1.399 . S
C1332 C1331 1.399 1_554 S
C1332 C1333 1.376 . S
C1333 H1320 0.930 . S
C1333 C1332 1.376 . S
C1333 C1334 1.388 . S
C1334 H1321 0.930 . S
C1334 C1333 1.388 . S
C1334 C1335 1.390 . S
C1335 C1334 1.390 . S
C1335 C1336 1.394 1_554 S
C1335 C1341 1.465 . S
C1336 C1331 1.399 . S
C1336 C1335 1.394 1_556 S
C1336 C1337 1.516 . S
C1337 C1336 1.516 . S
C1337 C1338 1.502 . S
C1337 C1339 1.561 . S
C1337 C1340 1.526 . S
C1338 H1322 0.959 . S
C1338 H1323 0.959 . S
C1338 H1324 0.961 . S
C1338 C1337 1.502 . S
C1339 H1325 0.960 . S
C1339 H1326 0.961 . S
C1339 H1327 0.959 . S
C1339 C1337 1.561 . S
C1340 C1337 1.526 . S
C1340 C1341 1.396 1_556 S
C1340 C1345 1.390 . S
C1341 C1335 1.465 . S
C1341 C1340 1.396 1_554 S
C1341 C1342 1.399 . S
C1342 H1328 0.929 . S
C1342 C1341 1.399 . S
C1342 C1343 1.385 . S
C1343 H1329 0.931 . S
C1343 C1342 1.385 . S
C1343 C1344 1.389 . S
C1344 C1343 1.389 . S
C1344 C1345 1.387 1_554 S
C1345 H1330 0.930 . S
C1345 C1340 1.390 . S
C1345 C1344 1.387 1_556 S
H1346 C1358 0.930 . S
H1347 C1360 0.930 . S
H1348 C1361 0.930 . S
H1349 C1365 0.959 . S
H1350 C1365 0.959 . S
H1351 C1365 0.961 . S
H1352 C1366 0.960 . S
H1353 C1366 0.961 . S
H1354 C1366 0.959 . S
H1355 C1369 0.929 . S
H1356 C1370 0.931 . S
H1357 C1372 0.930 . S
C1358 H1346 0.930 . S
C1358 C1359 1.399 . S
C1358 C1363 1.399 . S
C1359 C1358 1.399 . S
C1359 C1360 1.376 . S
C1360 H1347 0.930 . S
C1360 C1359 1.376 . S
C1360 C1361 1.388 . S
C1361 H1348 0.930 . S
C1361 C1360 1.388 . S
C1361 C1362 1.390 . S
C1362 C1361 1.390 . S
C1362 C1363 1.394 . S
C1362 C1368 1.465 . S
C1363 C1358 1.399 . S
C1363 C1362 1.394 . S
C1363 C1364 1.516 . S
C1364 C1363 1.516 . S
C1364 C1365 1.502 . S
C1364 C1366 1.561 . S
C1364 C1367 1.526 . S
C1365 H1349 0.959 . S
C1365 H1350 0.959 . S
C1365 H1351 0.961 . S
C1365 C1364 1.502 . S
C1366 H1352 0.960 . S
C1366 H1353 0.961 . S
C1366 H1354 0.959 . S
C1366 C1364 1.561 . S
C1367 C1364 1.526 . S
C1367 C1368 1.396 . S
C1367 C1372 1.390 . S
C1368 C1362 1.465 . S
C1368 C1367 1.396 . S
C1368 C1369 1.399 . S
C1369 H1355 0.929 . S
C1369 C1368 1.399 . S
C1369 C1370 1.385 . S
C1370 H1356 0.931 . S
C1370 C1369 1.385 . S
C1370 C1371 1.389 . S
C1371 C1370 1.389 . S
C1371 C1372 1.387 . S
C1372 H1357 0.930 . S
C1372 C1367 1.390 . S
C1372 C1371 1.387 . S
H1373 C1385 0.930 . S
H1374 C1387 0.930 . S
H1375 C1388 0.930 . S
H1376 C1392 0.959 . S
H1377 C1392 0.959 . S
H1378 C1392 0.961 . S
H1379 C1393 0.960 . S
H1380 C1393 0.961 . S
H1381 C1393 0.959 . S
H1382 C1396 0.929 . S
H1383 C1397 0.931 . S
H1384 C1399 0.930 . S
C1385 H1373 0.930 . S
C1385 C1386 1.399 . S
C1385 C1390 1.399 . S
C1386 C1385 1.399 . S
C1386 C1387 1.376 . S
C1387 H1374 0.930 . S
C1387 C1386 1.376 . S
C1387 C1388 1.388 . S
C1388 H1375 0.930 . S
C1388 C1387 1.388 . S
C1388 C1389 1.390 . S
C1389 C1388 1.390 . S
C1389 C1390 1.394 . S
C1389 C1395 1.465 . S
C1390 C1385 1.399 . S
C1390 C1389 1.394 . S
C1390 C1391 1.516 . S
C1391 C1390 1.516 . S
C1391 C1392 1.502 . S
C1391 C1393 1.561 . S
C1391 C1394 1.526 . S
C1392 H1376 0.959 . S
C1392 H1377 0.959 . S
C1392 H1378 0.961 . S
C1392 C1391 1.502 . S
C1393 H1379 0.960 . S
C1393 H1380 0.961 . S
C1393 H1381 0.959 . S
C1393 C1391 1.561 . S
C1394 C1391 1.526 . S
C1394 C1395 1.396 . S
C1394 C1399 1.390 . S
C1395 C1389 1.465 . S
C1395 C1394 1.396 . S
C1395 C1396 1.399 . S
C1396 H1382 0.929 . S
C1396 C1395 1.399 . S
C1396 C1397 1.385 . S
C1397 H1383 0.931 . S
C1397 C1396 1.385 . S
C1397 C1398 1.389 . S
C1398 C1397 1.389 . S
C1398 C1399 1.387 . S
C1399 H1384 0.930 . S
C1399 C1394 1.390 . S
C1399 C1398 1.387 . S
H1400 C1412 0.930 . S
H1401 C1414 0.930 . S
H1402 C1415 0.930 . S
H1403 C1419 0.959 . S
H1404 C1419 0.959 . S
H1405 C1419 0.961 . S
H1406 C1420 0.960 . S
H1407 C1420 0.961 . S
H1408 C1420 0.959 . S
H1409 C1423 0.929 . S
H1410 C1424 0.931 . S
H1411 C1426 0.930 . S
C1412 H1400 0.930 . S
C1412 C1413 1.399 . S
C1412 C1417 1.399 . S
C1413 C1412 1.399 . S
C1413 C1414 1.376 . S
C1414 H1401 0.930 . S
C1414 C1413 1.376 . S
C1414 C1415 1.388 . S
C1415 H1402 0.930 . S
C1415 C1414 1.388 . S
C1415 C1416 1.390 . S
C1416 C1415 1.390 . S
C1416 C1417 1.394 . S
C1416 C1422 1.465 . S
C1417 C1412 1.399 . S
C1417 C1416 1.394 . S
C1417 C1418 1.516 . S
C1418 C1417 1.516 . S
C1418 C1419 1.502 . S
C1418 C1420 1.561 . S
C1418 C1421 1.526 . S
C1419 H1403 0.959 . S
C1419 H1404 0.959 . S
C1419 H1405 0.961 . S
C1419 C1418 1.502 . S
C1420 H1406 0.960 . S
C1420 H1407 0.961 . S
C1420 H1408 0.959 . S
C1420 C1418 1.561 . S
C1421 C1418 1.526 . S
C1421 C1422 1.396 . S
C1421 C1426 1.390 . S
C1422 C1416 1.465 . S
C1422 C1421 1.396 . S
C1422 C1423 1.399 . S
C1423 H1409 0.929 . S
C1423 C1422 1.399 . S
C1423 C1424 1.385 . S
C1424 H1410 0.931 . S
C1424 C1423 1.385 . S
C1424 C1425 1.389 . S
C1425 C1424 1.389 . S
C1425 C1426 1.387 . S
C1426 H1411 0.930 . S
C1426 C1421 1.390 . S
C1426 C1425 1.387 . S
H1427 C1439 0.930 . S
H1428 C1441 0.930 . S
H1429 C1442 0.930 . S
H1430 C1446 0.959 . S
H1431 C1446 0.959 . S
H1432 C1446 0.961 . S
H1433 C1447 0.960 . S
H1434 C1447 0.961 . S
H1435 C1447 0.959 . S
H1436 C1450 0.929 . S
H1437 C1451 0.931 . S
H1438 C1453 0.930 . S
C1439 H1427 0.930 . S
C1439 C1440 1.399 . S
C1439 C1444 1.399 . S
C1440 C1439 1.399 . S
C1440 C1441 1.376 . S
C1441 H1428 0.930 . S
C1441 C1440 1.376 . S
C1441 C1442 1.388 . S
C1442 H1429 0.930 . S
C1442 C1441 1.388 . S
C1442 C1443 1.390 . S
C1443 C1442 1.390 . S
C1443 C1444 1.394 . S
C1443 C1449 1.465 . S
C1444 C1439 1.399 . S
C1444 C1443 1.394 . S
C1444 C1445 1.516 . S
C1445 C1444 1.516 . S
C1445 C1446 1.502 . S
C1445 C1447 1.561 . S
C1445 C1448 1.526 . S
C1446 H1430 0.959 . S
C1446 H1431 0.959 . S
C1446 H1432 0.961 . S
C1446 C1445 1.502 . S
C1447 H1433 0.960 . S
C1447 H1434 0.961 . S
C1447 H1435 0.959 . S
C1447 C1445 1.561 . S
C1448 C1445 1.526 . S
C1448 C1449 1.396 . S
C1448 C1453 1.390 . S
C1449 C1443 1.465 . S
C1449 C1448 1.396 . S
C1449 C1450 1.399 . S
C1450 H1436 0.929 . S
C1450 C1449 1.399 . S
C1450 C1451 1.385 . S
C1451 H1437 0.931 . S
C1451 C1450 1.385 . S
C1451 C1452 1.389 . S
C1452 C1451 1.389 . S
C1452 C1453 1.387 . S
C1453 H1438 0.930 . S
C1453 C1448 1.390 . S
C1453 C1452 1.387 . S
H1454 C1466 0.930 . S
H1455 C1468 0.930 . S
H1456 C1469 0.930 . S
H1457 C1473 0.959 . S
H1458 C1473 0.959 . S
H1459 C1473 0.961 . S
H1460 C1474 0.960 . S
H1461 C1474 0.961 . S
H1462 C1474 0.959 . S
H1463 C1477 0.929 . S
H1464 C1478 0.931 . S
H1465 C1480 0.930 . S
C1466 H1454 0.930 . S
C1466 C1467 1.399 . S
C1466 C1471 1.399 . S
C1467 C1466 1.399 . S
C1467 C1468 1.376 1_554 S
C1468 H1455 0.930 . S
C1468 C1467 1.376 1_556 S
C1468 C1469 1.388 . S
C1469 H1456 0.930 . S
C1469 C1468 1.388 . S
C1469 C1470 1.390 . S
C1470 C1469 1.390 . S
C1470 C1471 1.394 1_556 S
C1470 C1476 1.465 . S
C1471 C1466 1.399 . S
C1471 C1470 1.394 1_554 S
C1471 C1472 1.516 . S
C1472 C1471 1.516 . S
C1472 C1473 1.502 . S
C1472 C1474 1.561 . S
C1472 C1475 1.526 . S
C1473 H1457 0.959 . S
C1473 H1458 0.959 . S
C1473 H1459 0.961 . S
C1473 C1472 1.502 . S
C1474 H1460 0.960 . S
C1474 H1461 0.961 . S
C1474 H1462 0.959 . S
C1474 C1472 1.561 . S
C1475 C1472 1.526 . S
C1475 C1476 1.396 1_554 S
C1475 C1480 1.390 . S
C1476 C1470 1.465 . S
C1476 C1475 1.396 1_556 S
C1476 C1477 1.399 . S
C1477 H1463 0.929 . S
C1477 C1476 1.399 . S
C1477 C1478 1.385 . S
C1478 H1464 0.931 . S
C1478 C1477 1.385 . S
C1478 C1479 1.389 1_556 S
C1479 C1478 1.389 1_554 S
C1479 C1480 1.387 . S
C1480 H1465 0.930 . S
C1480 C1475 1.390 . S
C1480 C1479 1.387 . S
H1481 C1493 0.930 . S
H1482 C1495 0.930 . S
H1483 C1496 0.930 . S
H1484 C1500 0.959 . S
H1485 C1500 0.959 . S
H1486 C1500 0.961 . S
H1487 C1501 0.960 . S
H1488 C1501 0.961 . S
H1489 C1501 0.959 . S
H1490 C1504 0.929 . S
H1491 C1505 0.931 . S
H1492 C1507 0.930 . S
C1493 H1481 0.930 . S
C1493 C1494 1.399 . S
C1493 C1498 1.399 . S
C1494 C1493 1.399 . S
C1494 C1495 1.376 . S
C1495 H1482 0.930 . S
C1495 C1494 1.376 . S
C1495 C1496 1.388 . S
C1496 H1483 0.930 . S
C1496 C1495 1.388 . S
C1496 C1497 1.390 . S
C1497 C1496 1.390 . S
C1497 C1498 1.394 . S
C1497 C1503 1.465 . S
C1498 C1493 1.399 . S
C1498 C1497 1.394 . S
C1498 C1499 1.516 . S
C1499 C1498 1.516 . S
C1499 C1500 1.502 . S
C1499 C1501 1.561 . S
C1499 C1502 1.526 . S
C1500 H1484 0.959 . S
C1500 H1485 0.959 . S
C1500 H1486 0.961 . S
C1500 C1499 1.502 . S
C1501 H1487 0.960 . S
C1501 H1488 0.961 . S
C1501 H1489 0.959 . S
C1501 C1499 1.561 . S
C1502 C1499 1.526 . S
C1502 C1503 1.396 . S
C1502 C1507 1.390 . S
C1503 C1497 1.465 . S
C1503 C1502 1.396 . S
C1503 C1504 1.399 . S
C1504 H1490 0.929 . S
C1504 C1503 1.399 . S
C1504 C1505 1.385 . S
C1505 H1491 0.931 . S
C1505 C1504 1.385 . S
C1505 C1506 1.389 . S
C1506 C1505 1.389 . S
C1506 C1507 1.387 . S
C1507 H1492 0.930 . S
C1507 C1502 1.390 . S
C1507 C1506 1.387 . S
H1508 C1520 0.930 . S
H1509 C1522 0.930 . S
H1510 C1523 0.930 . S
H1511 C1527 0.959 . S
H1512 C1527 0.959 . S
H1513 C1527 0.961 . S
H1514 C1528 0.960 . S
H1515 C1528 0.961 . S
H1516 C1528 0.959 . S
H1517 C1531 0.929 . S
H1518 C1532 0.931 . S
H1519 C1534 0.930 . S
C1520 H1508 0.930 . S
C1520 C1521 1.399 . S
C1520 C1525 1.399 . S
C1521 C1520 1.399 . S
C1521 C1522 1.376 . S
C1522 H1509 0.930 . S
C1522 C1521 1.376 . S
C1522 C1523 1.388 . S
C1523 H1510 0.930 . S
C1523 C1522 1.388 . S
C1523 C1524 1.390 . S
C1524 C1523 1.390 . S
C1524 C1525 1.394 . S
C1524 C1530 1.465 . S
C1525 C1520 1.399 . S
C1525 C1524 1.394 . S
C1525 C1526 1.516 . S
C1526 C1525 1.516 . S
C1526 C1527 1.502 . S
C1526 C1528 1.561 . S
C1526 C1529 1.526 . S
C1527 H1511 0.959 . S
C1527 H1512 0.959 . S
C1527 H1513 0.961 . S
C1527 C1526 1.502 . S
C1528 H1514 0.960 . S
C1528 H1515 0.961 . S
C1528 H1516 0.959 . S
C1528 C1526 1.561 . S
C1529 C1526 1.526 . S
C1529 C1530 1.396 . S
C1529 C1534 1.390 . S
C1530 C1524 1.465 . S
C1530 C1529 1.396 . S
C1530 C1531 1.399 . S
C1531 H1517 0.929 . S
C1531 C1530 1.399 . S
C1531 C1532 1.385 . S
C1532 H1518 0.931 . S
C1532 C1531 1.385 . S
C1532 C1533 1.389 . S
C1533 C1532 1.389 . S
C1533 C1534 1.387 . S
C1534 H1519 0.930 . S
C1534 C1529 1.390 . S
C1534 C1533 1.387 . S
H1535 C1547 0.930 . S
H1536 C1549 0.930 . S
H1537 C1550 0.930 . S
H1538 C1554 0.959 . S
H1539 C1554 0.959 . S
H1540 C1554 0.961 . S
H1541 C1555 0.960 . S
H1542 C1555 0.961 . S
H1543 C1555 0.959 . S
H1544 C1558 0.929 . S
H1545 C1559 0.931 . S
H1546 C1561 0.930 . S
C1547 H1535 0.930 . S
C1547 C1548 1.399 . S
C1547 C1552 1.399 . S
C1548 C1547 1.399 . S
C1548 C1549 1.376 . S
C1549 H1536 0.930 . S
C1549 C1548 1.376 . S
C1549 C1550 1.388 . S
C1550 H1537 0.930 . S
C1550 C1549 1.388 . S
C1550 C1551 1.390 . S
C1551 C1550 1.390 . S
C1551 C1552 1.394 . S
C1551 C1557 1.465 . S
C1552 C1547 1.399 . S
C1552 C1551 1.394 . S
C1552 C1553 1.516 . S
C1553 C1552 1.516 . S
C1553 C1554 1.502 . S
C1553 C1555 1.561 . S
C1553 C1556 1.526 . S
C1554 H1538 0.959 . S
C1554 H1539 0.959 . S
C1554 H1540 0.961 . S
C1554 C1553 1.502 . S
C1555 H1541 0.960 . S
C1555 H1542 0.961 . S
C1555 H1543 0.959 . S
C1555 C1553 1.561 . S
C1556 C1553 1.526 . S
C1556 C1557 1.396 . S
C1556 C1561 1.390 . S
C1557 C1551 1.465 . S
C1557 C1556 1.396 . S
C1557 C1558 1.399 . S
C1558 H1544 0.929 . S
C1558 C1557 1.399 . S
C1558 C1559 1.385 . S
C1559 H1545 0.931 . S
C1559 C1558 1.385 . S
C1559 C1560 1.389 . S
C1560 C1559 1.389 . S
C1560 C1561 1.387 . S
C1561 H1546 0.930 . S
C1561 C1556 1.390 . S
C1561 C1560 1.387 . S
H1562 C1574 0.930 . S
H1563 C1576 0.930 . S
H1564 C1577 0.930 . S
H1565 C1581 0.959 . S
H1566 C1581 0.959 . S
H1567 C1581 0.961 . S
H1568 C1582 0.960 . S
H1569 C1582 0.961 . S
H1570 C1582 0.959 . S
H1571 C1585 0.929 . S
H1572 C1586 0.931 . S
H1573 C1588 0.930 . S
C1574 H1562 0.930 . S
C1574 C1575 1.399 . S
C1574 C1579 1.399 . S
C1575 C1574 1.399 . S
C1575 C1576 1.376 . S
C1576 H1563 0.930 . S
C1576 C1575 1.376 . S
C1576 C1577 1.388 . S
C1577 H1564 0.930 . S
C1577 C1576 1.388 . S
C1577 C1578 1.390 . S
C1578 C1577 1.390 . S
C1578 C1579 1.394 . S
C1578 C1584 1.465 . S
C1579 C1574 1.399 . S
C1579 C1578 1.394 . S
C1579 C1580 1.516 . S
C1580 C1579 1.516 . S
C1580 C1581 1.502 . S
C1580 C1582 1.561 . S
C1580 C1583 1.526 . S
C1581 H1565 0.959 . S
C1581 H1566 0.959 . S
C1581 H1567 0.961 . S
C1581 C1580 1.502 . S
C1582 H1568 0.960 . S
C1582 H1569 0.961 . S
C1582 H1570 0.959 . S
C1582 C1580 1.561 . S
C1583 C1580 1.526 . S
C1583 C1584 1.396 . S
C1583 C1588 1.390 . S
C1584 C1578 1.465 . S
C1584 C1583 1.396 . S
C1584 C1585 1.399 . S
C1585 H1571 0.929 . S
C1585 C1584 1.399 . S
C1585 C1586 1.385 . S
C1586 H1572 0.931 . S
C1586 C1585 1.385 . S
C1586 C1587 1.389 . S
C1587 C1586 1.389 . S
C1587 C1588 1.387 . S
C1588 H1573 0.930 . S
C1588 C1583 1.390 . S
C1588 C1587 1.387 . S
H1589 C1601 0.930 . S
H1590 C1603 0.930 . S
H1591 C1604 0.930 . S
H1592 C1608 0.959 . S
H1593 C1608 0.959 . S
H1594 C1608 0.961 . S
H1595 C1609 0.960 . S
H1596 C1609 0.961 . S
H1597 C1609 0.959 . S
H1598 C1612 0.929 . S
H1599 C1613 0.931 . S
H1600 C1615 0.930 . S
C1601 H1589 0.930 . S
C1601 C1602 1.399 . S
C1601 C1606 1.399 . S
C1602 C1601 1.399 . S
C1602 C1603 1.376 . S
C1603 H1590 0.930 . S
C1603 C1602 1.376 . S
C1603 C1604 1.388 . S
C1604 H1591 0.930 . S
C1604 C1603 1.388 . S
C1604 C1605 1.390 . S
C1605 C1604 1.390 . S
C1605 C1606 1.394 . S
C1605 C1611 1.465 . S
C1606 C1601 1.399 . S
C1606 C1605 1.394 . S
C1606 C1607 1.516 . S
C1607 C1606 1.516 . S
C1607 C1608 1.502 . S
C1607 C1609 1.561 . S
C1607 C1610 1.526 . S
C1608 H1592 0.959 . S
C1608 H1593 0.959 . S
C1608 H1594 0.961 . S
C1608 C1607 1.502 . S
C1609 H1595 0.960 . S
C1609 H1596 0.961 . S
C1609 H1597 0.959 . S
C1609 C1607 1.561 . S
C1610 C1607 1.526 . S
C1610 C1611 1.396 . S
C1610 C1615 1.390 . S
C1611 C1605 1.465 . S
C1611 C1610 1.396 . S
C1611 C1612 1.399 . S
C1612 H1598 0.929 . S
C1612 C1611 1.399 . S
C1612 C1613 1.385 . S
C1613 H1599 0.931 . S
C1613 C1612 1.385 . S
C1613 C1614 1.389 . S
C1614 C1613 1.389 . S
C1614 C1615 1.387 . S
C1615 H1600 0.930 . S
C1615 C1610 1.390 . S
C1615 C1614 1.387 . S
C333 C6 1.160 . S
C345 C39 1.160 1_455 S
C360 C49 0.964 . S
C372 C36 0.910 . S
C387 C76 0.892 . S
C399 C46 0.915 . S
C414 C9 0.990 . S
C426 C79 1.009 . S
C441 C1 1.033 1_545 S
C453 C188 1.049 1_545 S
C468 C156 1.100 . S
C480 C28 1.075 . S
C495 C41 1.131 . S
C507 C206 1.145 . S
C522 C66 0.986 . S
C534 C276 0.992 . S
C549 C161 0.961 . S
C561 C26 0.983 . S
C576 C246 1.047 . S
C588 C56 1.050 . S
C603 C296 1.005 . S
C615 C68 0.990 . S
C630 C16 1.146 . S
C642 C228 1.120 . S
C657 C19 1.183 . S
C669 C179 1.241 . S
C684 C249 1.429 . S
C696 C81 1.459 . S
C711 C108 1.317 . S
C723 C299 1.312 . S
C738 C221 1.361 . S
C750 C129 1.357 . S
C765 C48 1.303 . S
C777 C148 1.311 . S
C792 C181 1.399 . S
C804 C89 1.374 . S
C819 C121 1.420 . S
C831 C209 1.460 . S
C846 C101 0.936 . S
C858 C226 0.888 . S
C873 C186 0.907 . S
C885 C116 0.926 . S
C900 C239 1.148 . S
C912 C146 1.160 . S
C927 C109 1.121 . S
C939 C96 1.107 . S
C954 C196 0.972 . S
C966 C166 0.962 . S
C981 C269 0.938 . S
C993 C236 0.970 . S
C1008 C136 1.040 . S
C1020 C106 1.036 . S
C1035 C199 1.094 . S
C1047 C286 1.087 . S
C1062 C268 1.273 . S
C1074 C8 1.289 1_556 S
C1089 C59 1.268 . S
C1101 C288 1.232 . S
C1116 C241 1.343 . S
C1128 C29 1.348 . S
C1143 C159 1.208 . S
C1155 C119 1.259 . S
C1170 C69 1.395 . S
C1182 C201 1.396 . S
C1197 C256 0.975 . S
C1209 C266 0.950 . S
C1224 C149 1.364 . S
C1236 C259 1.352 . S
C1251 C128 1.289 . S
C1263 C141 1.380 . S
C1278 C86 0.963 . S
C1290 C261 0.973 . S
C1305 C248 1.283 . S
C1317 C301 1.371 . S
C1332 C308 1.269 . S
C1344 C168 1.267 . S
C1359 C21 1.311 . S
C1371 C189 1.310 . S
C1386 C176 0.931 . S
C1398 C126 0.943 . S
C1413 C169 0.951 . S
C1425 C216 0.980 . S
C1440 C309 1.354 . S
C1452 C139 1.355 . S
C1467 C279 1.268 1_554 S
C1479 C319 1.264 . S
C1494 C229 1.307 . S
C1506 C61 1.304 . S
C1521 C219 1.484 . S
C1533 C289 1.499 . S
C1548 C208 1.449 . S
C1560 C316 1.472 . S
C1575 C88 1.466 . S
C1587 C281 1.523 . S
C1602 C306 1.440 . S
C1614 C99 1.458 . S
