# Generated by pormake.
# Topology afi, (4)-cn, num edge types: 1
# Building blocks:
#     Node 0, Type 0, BuildingBlock: AZAVOO_clean_sbu_0, # of connection points: 4
#     Node 1, Type 0, BuildingBlock: AZAVOO_clean_sbu_0, # of connection points: 4
#     Node 2, Type 0, BuildingBlock: AZAVOO_clean_sbu_0, # of connection points: 4
#     Node 3, Type 0, BuildingBlock: AZAVOO_clean_sbu_0, # of connection points: 4
#     Node 4, Type 0, BuildingBlock: AZAVOO_clean_sbu_0, # of connection points: 4
#     Node 5, Type 0, BuildingBlock: AZAVOO_clean_sbu_0, # of connection points: 4
#     Node 6, Type 0, BuildingBlock: AZAVOO_clean_sbu_0, # of connection points: 4
#     Node 7, Type 0, BuildingBlock: AZAVOO_clean_sbu_0, # of connection points: 4
#     Node 8, Type 0, BuildingBlock: AZAVOO_clean_sbu_0, # of connection points: 4
#     Node 9, Type 0, BuildingBlock: AZAVOO_clean_sbu_0, # of connection points: 4
#     Node 10, Type 0, BuildingBlock: AZAVOO_clean_sbu_0, # of connection points: 4
#     Node 11, Type 0, BuildingBlock: AZAVOO_clean_sbu_0, # of connection points: 4
#     Node 12, Type 0, BuildingBlock: AZAVOO_clean_sbu_0, # of connection points: 4
#     Node 13, Type 0, BuildingBlock: AZAVOO_clean_sbu_0, # of connection points: 4
#     Node 14, Type 0, BuildingBlock: AZAVOO_clean_sbu_0, # of connection points: 4
#     Node 15, Type 0, BuildingBlock: AZAVOO_clean_sbu_0, # of connection points: 4
#     Node 16, Type 0, BuildingBlock: AZAVOO_clean_sbu_0, # of connection points: 4
#     Node 17, Type 0, BuildingBlock: AZAVOO_clean_sbu_0, # of connection points: 4
#     Node 18, Type 0, BuildingBlock: AZAVOO_clean_sbu_0, # of connection points: 4
#     Node 19, Type 0, BuildingBlock: AZAVOO_clean_sbu_0, # of connection points: 4
#     Node 20, Type 0, BuildingBlock: AZAVOO_clean_sbu_0, # of connection points: 4
#     Node 21, Type 0, BuildingBlock: AZAVOO_clean_sbu_0, # of connection points: 4
#     Node 22, Type 0, BuildingBlock: AZAVOO_clean_sbu_0, # of connection points: 4
#     Node 23, Type 0, BuildingBlock: AZAVOO_clean_sbu_0, # of connection points: 4
#     Edge 24, Type (0, 0), BuildingBlock: MIFKUJ_clean_linker_0, # of connection points: 2
#     Edge 25, Type (0, 0), BuildingBlock: MIFKUJ_clean_linker_0, # of connection points: 2
#     Edge 26, Type (0, 0), BuildingBlock: MIFKUJ_clean_linker_0, # of connection points: 2
#     Edge 27, Type (0, 0), BuildingBlock: MIFKUJ_clean_linker_0, # of connection points: 2
#     Edge 28, Type (0, 0), BuildingBlock: MIFKUJ_clean_linker_0, # of connection points: 2
#     Edge 29, Type (0, 0), BuildingBlock: MIFKUJ_clean_linker_0, # of connection points: 2
#     Edge 30, Type (0, 0), BuildingBlock: MIFKUJ_clean_linker_0, # of connection points: 2
#     Edge 31, Type (0, 0), BuildingBlock: MIFKUJ_clean_linker_0, # of connection points: 2
#     Edge 32, Type (0, 0), BuildingBlock: MIFKUJ_clean_linker_0, # of connection points: 2
#     Edge 33, Type (0, 0), BuildingBlock: MIFKUJ_clean_linker_0, # of connection points: 2
#     Edge 34, Type (0, 0), BuildingBlock: MIFKUJ_clean_linker_0, # of connection points: 2
#     Edge 35, Type (0, 0), BuildingBlock: MIFKUJ_clean_linker_0, # of connection points: 2
#     Edge 36, Type (0, 0), BuildingBlock: MIFKUJ_clean_linker_0, # of connection points: 2
#     Edge 37, Type (0, 0), BuildingBlock: MIFKUJ_clean_linker_0, # of connection points: 2
#     Edge 38, Type (0, 0), BuildingBlock: MIFKUJ_clean_linker_0, # of connection points: 2
#     Edge 39, Type (0, 0), BuildingBlock: MIFKUJ_clean_linker_0, # of connection points: 2
#     Edge 40, Type (0, 0), BuildingBlock: MIFKUJ_clean_linker_0, # of connection points: 2
#     Edge 41, Type (0, 0), BuildingBlock: MIFKUJ_clean_linker_0, # of connection points: 2
#     Edge 42, Type (0, 0), BuildingBlock: MIFKUJ_clean_linker_0, # of connection points: 2
#     Edge 43, Type (0, 0), BuildingBlock: MIFKUJ_clean_linker_0, # of connection points: 2
#     Edge 44, Type (0, 0), BuildingBlock: MIFKUJ_clean_linker_0, # of connection points: 2
#     Edge 45, Type (0, 0), BuildingBlock: MIFKUJ_clean_linker_0, # of connection points: 2
#     Edge 46, Type (0, 0), BuildingBlock: MIFKUJ_clean_linker_0, # of connection points: 2
#     Edge 47, Type (0, 0), BuildingBlock: MIFKUJ_clean_linker_0, # of connection points: 2
#     Edge 48, Type (0, 0), BuildingBlock: MIFKUJ_clean_linker_0, # of connection points: 2
#     Edge 49, Type (0, 0), BuildingBlock: MIFKUJ_clean_linker_0, # of connection points: 2
#     Edge 50, Type (0, 0), BuildingBlock: MIFKUJ_clean_linker_0, # of connection points: 2
#     Edge 51, Type (0, 0), BuildingBlock: MIFKUJ_clean_linker_0, # of connection points: 2
#     Edge 52, Type (0, 0), BuildingBlock: MIFKUJ_clean_linker_0, # of connection points: 2
#     Edge 53, Type (0, 0), BuildingBlock: MIFKUJ_clean_linker_0, # of connection points: 2
#     Edge 54, Type (0, 0), BuildingBlock: MIFKUJ_clean_linker_0, # of connection points: 2
#     Edge 55, Type (0, 0), BuildingBlock: MIFKUJ_clean_linker_0, # of connection points: 2
#     Edge 56, Type (0, 0), BuildingBlock: MIFKUJ_clean_linker_0, # of connection points: 2
#     Edge 57, Type (0, 0), BuildingBlock: MIFKUJ_clean_linker_0, # of connection points: 2
#     Edge 58, Type (0, 0), BuildingBlock: MIFKUJ_clean_linker_0, # of connection points: 2
#     Edge 59, Type (0, 0), BuildingBlock: MIFKUJ_clean_linker_0, # of connection points: 2
#     Edge 60, Type (0, 0), BuildingBlock: MIFKUJ_clean_linker_0, # of connection points: 2
#     Edge 61, Type (0, 0), BuildingBlock: MIFKUJ_clean_linker_0, # of connection points: 2
#     Edge 62, Type (0, 0), BuildingBlock: MIFKUJ_clean_linker_0, # of connection points: 2
#     Edge 63, Type (0, 0), BuildingBlock: MIFKUJ_clean_linker_0, # of connection points: 2
#     Edge 64, Type (0, 0), BuildingBlock: MIFKUJ_clean_linker_0, # of connection points: 2
#     Edge 65, Type (0, 0), BuildingBlock: MIFKUJ_clean_linker_0, # of connection points: 2
#     Edge 66, Type (0, 0), BuildingBlock: MIFKUJ_clean_linker_0, # of connection points: 2
#     Edge 67, Type (0, 0), BuildingBlock: MIFKUJ_clean_linker_0, # of connection points: 2
#     Edge 68, Type (0, 0), BuildingBlock: MIFKUJ_clean_linker_0, # of connection points: 2
#     Edge 69, Type (0, 0), BuildingBlock: MIFKUJ_clean_linker_0, # of connection points: 2
#     Edge 70, Type (0, 0), BuildingBlock: MIFKUJ_clean_linker_0, # of connection points: 2
#     Edge 71, Type (0, 0), BuildingBlock: MIFKUJ_clean_linker_0, # of connection points: 2
# Relax obj value: 0.097
# Max RMSD: 0.121
# Mean RMSD: 0.121
data_MOF--net-afi--node1-AZAVOO_clean_sbu_0--edge1-MIFKUJ_clean_linker_0
_symmetry_space_group_name_H-M    P1
_symmetry_Int_Tables_number       1
_symmetry_cell_setting            triclinic
loop_
_symmetry_equiv_pos_as_xyz
'x, y, z'
_cell_length_a     84.807619
_cell_length_b     84.795377
_cell_length_c     54.226181
_cell_angle_alpha  90.031905
_cell_angle_beta   89.965066
_cell_angle_gamma 119.97899
loop_
_atom_site_label
_atom_site_type_symbol
_atom_site_fract_x
_atom_site_fract_y
_atom_site_fract_z
_atom_type_partial_charge
Mg0 Mg 0.45287 0.12646 0.17874 0.0
O1 O 0.47464 0.12014 0.1931 0.0
O2 O 0.46666 0.09206 0.18022 0.0
Mg3 Mg 0.44028 0.0804 0.15821 0.0
C4 C 0.47749 0.10671 0.19166 0.0
C5 C 0.46387 0.1662 0.1804 0.0
O6 O 0.44988 0.15856 0.16533 0.0
O7 O 0.46533 0.13093 0.14016 0.0
O8 O 0.45573 0.10213 0.12896 0.0
O9 O 0.43581 0.11346 0.21232 0.0
O10 O 0.43379 0.09899 0.17757 0.0
C11 C 0.46413 0.11918 0.12434 0.0
C12 C 0.42878 0.09834 0.20008 0.0
O13 O 0.47004 0.15644 0.18911 0.0
Mg14 Mg 0.32054 0.44336 0.17287 0.0
O15 O 0.34725 0.46364 0.19215 0.0
O16 O 0.36819 0.45592 0.1828 0.0
Mg17 Mg 0.3556 0.43189 0.15622 0.0
C18 C 0.36336 0.46611 0.1939 0.0
C19 C 0.30606 0.46311 0.20619 0.0
O20 O 0.31323 0.45718 0.22266 0.0
O21 O 0.33216 0.45882 0.13671 0.0
O22 O 0.35283 0.45052 0.12826 0.0
O23 O 0.31353 0.42363 0.20426 0.0
O24 O 0.32875 0.4241 0.17099 0.0
C25 C 0.34466 0.45931 0.12296 0.0
C26 C 0.32254 0.41743 0.19239 0.0
O27 O 0.30764 0.46046 0.18345 0.0
Mg28 Mg 0.88184 0.32588 0.17433 0.0
O29 O 0.88851 0.3531 0.19246 0.0
O30 O 0.91676 0.3739 0.18117 0.0
Mg31 Mg 0.92771 0.36072 0.15479 0.0
C32 C 0.90206 0.36933 0.19297 0.0
C33 C 0.8428 0.29591 0.1815 0.0
O34 O 0.85033 0.28856 0.16802 0.0
O35 O 0.87666 0.33629 0.13795 0.0
O36 O 0.90535 0.35678 0.12786 0.0
O37 O 0.89584 0.31982 0.20516 0.0
O38 O 0.90921 0.33422 0.1708 0.0
C39 C 0.88828 0.34841 0.12339 0.0
C40 C 0.91052 0.32838 0.19208 0.0
O41 O 0.85225 0.31271 0.18689 0.0
Mg42 Mg 0.55812 0.88412 0.1779 0.0
O43 O 0.53624 0.88989 0.19339 0.0
O44 O 0.54463 0.91872 0.184 0.0
Mg45 Mg 0.57095 0.93103 0.16162 0.0
C46 C 0.53359 0.90346 0.19396 0.0
C47 C 0.54973 0.84565 0.18577 0.0
O48 O 0.56679 0.85485 0.17856 0.0
O49 O 0.54594 0.88131 0.13946 0.0
O50 O 0.55545 0.91053 0.13089 0.0
O51 O 0.5748 0.89569 0.21211 0.0
O52 O 0.57738 0.91162 0.17862 0.0
C53 C 0.54713 0.89371 0.12487 0.0
C54 C 0.58205 0.9113 0.20106 0.0
O55 O 0.54065 0.85386 0.18662 0.0
Mg56 Mg 0.66832 0.55465 0.17575 0.0
O57 O 0.64013 0.53247 0.19012 0.0
O58 O 0.61998 0.54051 0.17759 0.0
Mg59 Mg 0.63414 0.56582 0.15386 0.0
C60 C 0.62388 0.52978 0.18911 0.0
C61 C 0.69839 0.54594 0.18006 0.0
O62 O 0.70494 0.56105 0.16719 0.0
O63 O 0.66084 0.54171 0.13754 0.0
O64 O 0.63968 0.54874 0.12625 0.0
O65 O 0.67172 0.5716 0.20901 0.0
O66 O 0.65918 0.57318 0.17409 0.0
C67 C 0.64909 0.54105 0.12222 0.0
C68 C 0.66309 0.57805 0.19676 0.0
O69 O 0.6818 0.53815 0.18665 0.0
Mg70 Mg 0.12196 0.67149 0.17021 0.0
O71 O 0.11704 0.64431 0.18674 0.0
O72 O 0.08919 0.62277 0.17503 0.0
Mg73 Mg 0.07727 0.63525 0.14931 0.0
C74 C 0.10398 0.62781 0.18681 0.0
C75 C 0.16125 0.70186 0.17318 0.0
O76 O 0.1535 0.70787 0.15776 0.0
O77 O 0.12801 0.66331 0.13289 0.0
O78 O 0.1002 0.64102 0.12203 0.0
O79 O 0.10758 0.67524 0.20227 0.0
O80 O 0.09416 0.66144 0.16752 0.0
C81 C 0.11725 0.65093 0.11798 0.0
C82 C 0.09276 0.66606 0.18964 0.0
O83 O 0.15179 0.68586 0.18179 0.0
Mg84 Mg 0.88296 0.55105 0.3083 0.0
O85 O 0.88802 0.52848 0.29298 0.0
O86 O 0.91577 0.53497 0.30552 0.0
Mg87 Mg 0.92746 0.55962 0.33075 0.0
C88 C 0.90109 0.52504 0.2936 0.0
C89 C 0.84969 0.54661 0.28291 0.0
O90 O 0.86255 0.56366 0.2802 0.0
O91 O 0.87624 0.53707 0.34597 0.0
O92 O 0.90404 0.54285 0.3574 0.0
O93 O 0.89811 0.569 0.27628 0.0
O94 O 0.91082 0.56876 0.31165 0.0
C95 C 0.88696 0.53569 0.36125 0.0
C96 C 0.91267 0.57475 0.28947 0.0
O97 O 0.85329 0.53602 0.29519 0.0
Mg98 Mg 0.33456 0.88689 0.31062 0.0
O99 O 0.36236 0.89224 0.29577 0.0
O100 O 0.38363 0.91941 0.31 0.0
Mg101 Mg 0.37034 0.93061 0.33556 0.0
C102 C 0.37892 0.90508 0.29724 0.0
C103 C 0.30799 0.85448 0.28024 0.0
O104 O 0.30476 0.86768 0.2747 0.0
O105 O 0.34099 0.87903 0.34807 0.0
O106 O 0.36279 0.90645 0.36114 0.0
O107 O 0.33242 0.90328 0.27962 0.0
O108 O 0.34473 0.91464 0.31578 0.0
C109 C 0.35272 0.88928 0.36408 0.0
C110 C 0.34085 0.9173 0.29386 0.0
O111 O 0.32039 0.85762 0.29589 0.0
Mg112 Mg 0.44449 0.33429 0.317 0.0
O113 O 0.46479 0.36122 0.29808 0.0
O114 O 0.45703 0.38211 0.30767 0.0
Mg115 Mg 0.43328 0.36945 0.33466 0.0
C116 C 0.4672 0.37732 0.29646 0.0
C117 C 0.45178 0.30692 0.29197 0.0
O118 O 0.43446 0.30139 0.28855 0.0
O119 O 0.46012 0.34542 0.35317 0.0
O120 O 0.45203 0.36622 0.36195 0.0
O121 O 0.4246 0.32771 0.28603 0.0
O122 O 0.42516 0.34259 0.31966 0.0
C123 C 0.46075 0.35795 0.36703 0.0
C124 C 0.41827 0.3364 0.29834 0.0
O125 O 0.46123 0.32117 0.3048 0.0
Mg126 Mg 0.11481 0.4465 0.3183 0.0
O127 O 0.11069 0.46902 0.30094 0.0
O128 O 0.0824 0.46272 0.31019 0.0
Mg129 Mg 0.06868 0.43713 0.33385 0.0
C130 C 0.09779 0.47268 0.29983 0.0
C131 C 0.1503 0.46769 0.28793 0.0
O132 O 0.13789 0.46529 0.27153 0.0
O133 O 0.11832 0.46005 0.35597 0.0
O134 O 0.08958 0.45277 0.36388 0.0
O135 O 0.10287 0.42858 0.28512 0.0
O136 O 0.08686 0.42888 0.31708 0.0
C137 C 0.10634 0.46036 0.36997 0.0
C138 C 0.08717 0.42305 0.2953 0.0
O139 O 0.14529 0.4623 0.30993 0.0
Mg140 Mg 0.66845 0.11742 0.32751 0.0
O141 O 0.6416 0.11243 0.31002 0.0
O142 O 0.61962 0.0855 0.32388 0.0
Mg143 Mg 0.63191 0.07314 0.34933 0.0
C144 C 0.62489 0.0999 0.31104 0.0
C145 C 0.7004 0.15496 0.31783 0.0
O146 O 0.70722 0.14614 0.32948 0.0
O147 O 0.6598 0.12425 0.36415 0.0
O148 O 0.6387 0.09636 0.37635 0.0
O149 O 0.67276 0.10235 0.29668 0.0
O150 O 0.65817 0.08959 0.33119 0.0
C151 C 0.64817 0.11352 0.37994 0.0
C152 C 0.66338 0.08776 0.30966 0.0
O153 O 0.68328 0.14697 0.31451 0.0
Mg154 Mg 0.54108 0.66411 0.31981 0.0
O155 O 0.51853 0.63632 0.30541 0.0
O156 O 0.52526 0.61532 0.31836 0.0
Mg157 Mg 0.55047 0.62888 0.34263 0.0
C158 C 0.51515 0.61985 0.30645 0.0
C159 C 0.53129 0.69401 0.3156 0.0
O160 O 0.54433 0.70023 0.33218 0.0
O161 O 0.52795 0.65747 0.35796 0.0
O162 O 0.53462 0.63622 0.37008 0.0
O163 O 0.5585 0.66669 0.2873 0.0
O164 O 0.55907 0.65433 0.32289 0.0
C165 C 0.52733 0.64605 0.37387 0.0
C166 C 0.56464 0.65821 0.3005 0.0
O167 O 0.52539 0.67804 0.30721 0.0
Mg168 Mg 0.53352 0.86608 0.81937 0.0
O169 O 0.50589 0.8566 0.8012 0.0
O170 O 0.48676 0.82824 0.81402 0.0
Mg171 Mg 0.5028 0.81858 0.83722 0.0
C172 C 0.4901 0.84246 0.80187 0.0
C173 C 0.55818 0.9039 0.7986 0.0
O174 O 0.56783 0.89573 0.79696 0.0
O175 O 0.5221 0.86829 0.85665 0.0
O176 O 0.50538 0.83887 0.86694 0.0
O177 O 0.54259 0.85551 0.78791 0.0
O178 O 0.52856 0.8395 0.82101 0.0
C179 C 0.51198 0.85575 0.87187 0.0
C180 C 0.53578 0.84029 0.79987 0.0
O181 O 0.54246 0.89534 0.80836 0.0
Mg182 Mg 0.66343 0.52637 0.81657 0.0
O183 O 0.64409 0.49768 0.8021 0.0
O184 O 0.65416 0.47901 0.8137 0.0
Mg185 Mg 0.67989 0.49579 0.83658 0.0
C186 C 0.6426 0.48195 0.80261 0.0
C187 C 0.63837 0.53422 0.78339 0.0
O188 O 0.64512 0.5276 0.76726 0.0
O189 O 0.65149 0.51755 0.855 0.0
O190 O 0.6625 0.49943 0.86608 0.0
O191 O 0.68139 0.53264 0.78355 0.0
O192 O 0.68465 0.52088 0.8182 0.0
C193 C 0.65318 0.50718 0.87058 0.0
C194 C 0.68997 0.52625 0.79603 0.0
O195 O 0.64289 0.53514 0.80593 0.0
Mg196 Mg 0.13106 0.66007 0.80862 0.0
O197 O 0.14167 0.64188 0.79345 0.0
O198 O 0.17104 0.65399 0.80329 0.0
Mg199 Mg 0.17918 0.67977 0.8256 0.0
C200 C 0.15657 0.64158 0.79309 0.0
C201 C 0.09757 0.63335 0.77749 0.0
O202 O 0.11025 0.64054 0.76046 0.0
O203 O 0.13007 0.64903 0.84717 0.0
O204 O 0.15976 0.66204 0.85635 0.0
O205 O 0.14062 0.67771 0.77501 0.0
O206 O 0.15712 0.6824 0.80858 0.0
C207 C 0.14298 0.65187 0.86193 0.0
C208 C 0.1559 0.68723 0.78654 0.0
O209 O 0.10188 0.63813 0.79983 0.0
Mg210 Mg 0.45575 0.13445 0.82179 0.0
O211 O 0.48253 0.14372 0.80137 0.0
O212 O 0.50047 0.17365 0.8068 0.0
Mg213 Mg 0.48484 0.18378 0.83011 0.0
C214 C 0.49755 0.15847 0.79797 0.0
C215 C 0.43101 0.09422 0.81215 0.0
O216 O 0.42 0.10088 0.81424 0.0
O217 O 0.4703 0.13696 0.85831 0.0
O218 O 0.48635 0.16728 0.8625 0.0
O219 O 0.44383 0.14091 0.78914 0.0
O220 O 0.45889 0.16022 0.81918 0.0
C221 C 0.48116 0.15124 0.87052 0.0
C222 C 0.45049 0.15706 0.79848 0.0
O223 O 0.44794 0.10483 0.81554 0.0
Mg224 Mg 0.33633 0.47312 0.8206 0.0
O225 O 0.35415 0.50045 0.80175 0.0
O226 O 0.34299 0.5188 0.80986 0.0
Mg227 Mg 0.31721 0.50268 0.83312 0.0
C228 C 0.35487 0.51579 0.79988 0.0
C229 C 0.35097 0.44784 0.80996 0.0
O230 O 0.33344 0.43707 0.81369 0.0
O231 O 0.34865 0.48602 0.85769 0.0
O232 O 0.33463 0.50199 0.86507 0.0
O233 O 0.31776 0.46251 0.78809 0.0
O234 O 0.31399 0.47686 0.81952 0.0
C235 C 0.34528 0.49614 0.87165 0.0
C236 C 0.30846 0.469 0.79849 0.0
O237 O 0.3576 0.46489 0.8126 0.0
Mg238 Mg 0.86725 0.32641 0.82025 0.0
O239 O 0.85646 0.34281 0.80013 0.0
O240 O 0.82729 0.3315 0.81097 0.0
Mg241 Mg 0.81853 0.30596 0.83424 0.0
C242 C 0.84157 0.34313 0.79954 0.0
C243 C 0.90673 0.34291 0.80345 0.0
O244 O 0.90019 0.32529 0.80116 0.0
O245 O 0.86642 0.33951 0.85674 0.0
O246 O 0.8366 0.32438 0.86523 0.0
O247 O 0.85984 0.30682 0.78879 0.0
O248 O 0.84147 0.30377 0.81962 0.0
C249 C 0.85303 0.33585 0.87106 0.0
C250 C 0.84396 0.29787 0.799 0.0
O251 O 0.89641 0.3485 0.81191 0.0
Mg252 Mg 0.11553 0.43774 0.67605 0.0
O253 O 0.13058 0.46655 0.69172 0.0
O254 O 0.16028 0.48003 0.68331 0.0
Mg255 Mg 0.16407 0.45962 0.66002 0.0
C256 C 0.14666 0.48019 0.69308 0.0
C257 C 0.08643 0.43952 0.7081 0.0
O258 O 0.1004 0.44567 0.72317 0.0
O259 O 0.11685 0.45003 0.63806 0.0
O260 O 0.14658 0.46222 0.62994 0.0
O261 O 0.12262 0.42733 0.70969 0.0
O262 O 0.13949 0.43681 0.67594 0.0
C263 C 0.13061 0.45876 0.62387 0.0
C264 C 0.1375 0.43108 0.69827 0.0
O265 O 0.08831 0.43553 0.68608 0.0
Mg266 Mg 0.66439 0.11942 0.68148 0.0
O267 O 0.64788 0.13052 0.70087 0.0
O268 O 0.66349 0.16091 0.69826 0.0
Mg269 Mg 0.69012 0.16943 0.67792 0.0
C270 C 0.64952 0.1461 0.70508 0.0
C271 C 0.64449 0.07816 0.6818 0.0
O272 O 0.66133 0.08297 0.67582 0.0
O273 O 0.65592 0.12565 0.64434 0.0
O274 O 0.67344 0.15601 0.64318 0.0
O275 O 0.68003 0.12177 0.71599 0.0
O276 O 0.68804 0.14363 0.68831 0.0
C277 C 0.66179 0.14093 0.63332 0.0
C278 C 0.69091 0.13837 0.70917 0.0
O279 O 0.64028 0.09052 0.6839 0.0
Mg280 Mg 0.56177 0.67493 0.68124 0.0
O281 O 0.53286 0.66043 0.69691 0.0
O282 O 0.51994 0.67751 0.69099 0.0
Mg283 Mg 0.54037 0.70263 0.66938 0.0
C284 C 0.51943 0.66315 0.69921 0.0
C285 C 0.56115 0.64267 0.709 0.0
O286 O 0.55648 0.65016 0.72664 0.0
O287 O 0.54977 0.66613 0.64261 0.0
O288 O 0.53723 0.68371 0.63733 0.0
O289 O 0.57194 0.69068 0.71648 0.0
O290 O 0.56292 0.69982 0.68394 0.0
C291 C 0.54076 0.67155 0.62968 0.0
C292 C 0.56847 0.70244 0.70637 0.0
O293 O 0.56376 0.64934 0.68739 0.0
Mg294 Mg 0.87899 0.54491 0.66976 0.0
O295 O 0.86741 0.51598 0.68505 0.0
O296 O 0.83815 0.49934 0.67406 0.0
Mg297 Mg 0.8309 0.51758 0.65176 0.0
C298 C 0.85227 0.50102 0.68486 0.0
C299 C 0.91115 0.54911 0.70159 0.0
O300 O 0.89794 0.54325 0.7179 0.0
O301 O 0.8801 0.53467 0.6311 0.0
O302 O 0.85038 0.51844 0.622 0.0
O303 O 0.86934 0.55266 0.7036 0.0
O304 O 0.85312 0.54174 0.66957 0.0
C305 C 0.86708 0.52454 0.61651 0.0
C306 C 0.85405 0.54686 0.69209 0.0
O307 O 0.90774 0.55098 0.67929 0.0
Mg308 Mg 0.32669 0.88248 0.67325 0.0
O309 O 0.34388 0.87088 0.68917 0.0
O310 O 0.33223 0.84217 0.67607 0.0
Mg311 Mg 0.30782 0.83537 0.65162 0.0
C312 C 0.34403 0.8559 0.68826 0.0
C313 C 0.34105 0.92016 0.69493 0.0
O314 O 0.32329 0.91309 0.69426 0.0
O315 O 0.34023 0.88578 0.63559 0.0
O316 O 0.32772 0.85647 0.6244 0.0
O317 O 0.30751 0.87087 0.70515 0.0
O318 O 0.30441 0.8565 0.6699 0.0
C319 C 0.33833 0.87342 0.62037 0.0
C320 C 0.2988 0.85625 0.69198 0.0
O321 O 0.34783 0.91089 0.68637 0.0
Mg322 Mg 0.44058 0.32935 0.66758 0.0
O323 O 0.46779 0.34178 0.68789 0.0
O324 O 0.48108 0.32521 0.68038 0.0
Mg325 Mg 0.46244 0.30233 0.65403 0.0
C326 C 0.48092 0.33865 0.69076 0.0
C327 C 0.42181 0.34953 0.68432 0.0
O328 O 0.40907 0.33234 0.68253 0.0
O329 O 0.45597 0.34184 0.63173 0.0
O330 O 0.46763 0.3237 0.62449 0.0
O331 O 0.42701 0.31031 0.69911 0.0
O332 O 0.43891 0.30412 0.6668 0.0
C333 C 0.46517 0.33687 0.61838 0.0
C334 C 0.43121 0.29939 0.68802 0.0
O335 O 0.43792 0.35399 0.67784 0.0
H336 H 0.40716 0.06625 0.177 0.0
H337 H 0.38946 0.03624 0.19557 0.0
H338 H 0.40543 0.06 0.26806 0.0
H339 H 0.42349 0.0903 0.24944 0.0
H340 H 0.41081 0.03105 0.26129 0.0
H341 H 0.36222 0.04336 0.24944 0.0
H342 H 0.34316 0.05276 0.22658 0.0
H343 H 0.32801 0.00886 0.17536 0.0
H344 H 0.3472 -0.00067 0.19771 0.0
H345 H 0.35419 0.94804 0.32155 0.0
H346 H 0.36653 0.97924 0.30721 0.0
H347 H 0.35407 0.96019 0.2321 0.0
H348 H 0.34157 0.92871 0.24637 0.0
H349 H 0.34591 0.98742 0.2428 0.0
H350 H 0.39596 0.97654 0.25235 0.0
H351 H 0.41486 0.96671 0.27477 0.0
H352 H 0.42749 0.00797 0.32948 0.0
H353 H 0.40837 0.01783 0.30762 0.0
C354 C 0.40684 0.06514 0.19691 0.0
C355 C 0.41682 0.08059 0.21179 0.0
C356 C 0.39658 0.04799 0.20749 0.0
C357 C 0.39602 0.04593 0.23317 0.0
C358 C 0.40566 0.06136 0.24818 0.0
C359 C 0.4159 0.07862 0.23756 0.0
C360 C 0.38637 0.02746 0.244 0.0
C361 C 0.39652 0.02162 0.25771 0.0
C362 C 0.36786 0.01505 0.23864 0.0
C363 C 0.35627 0.02072 0.22516 0.0
C364 C 0.35495 0.03579 0.23319 0.0
C365 C 0.34409 0.04113 0.22034 0.0
C366 C 0.33441 0.03143 0.1995 0.0
C367 C 0.33553 0.01636 0.1915 0.0
C368 C 0.34637 0.01097 0.20427 0.0
C369 C 0.35408 0.95044 0.30196 0.0
C370 C 0.34722 0.93596 0.28501 0.0
C371 C 0.36109 0.96828 0.29383 0.0
C372 C 0.36144 0.972 0.2686 0.0
C373 C 0.35394 0.95755 0.25166 0.0
C374 C 0.34688 0.93962 0.25981 0.0
C375 C 0.37039 0.99106 0.25994 0.0
C376 C 0.36014 0.99695 0.2466 0.0
C377 C 0.38883 0.00352 0.26551 0.0
C378 C 0.40058 0.9978 0.27848 0.0
C379 C 0.40266 0.98343 0.26926 0.0
C380 C 0.41342 0.97786 0.28186 0.0
C381 C 0.42233 0.98668 0.30356 0.0
C382 C 0.42055 0.00113 0.31268 0.0
C383 C 0.40975 0.00672 0.3002 0.0
H384 H 0.43066 0.98235 0.31329 0.0
H385 H 0.32602 0.03559 0.18958 0.0
H386 H 0.4078 0.33366 0.25007 0.0
H387 H 0.38768 0.3436 0.23217 0.0
H388 H 0.37864 0.35891 0.30443 0.0
H389 H 0.39856 0.3489 0.32244 0.0
H390 H 0.34713 0.34253 0.27597 0.0
H391 H 0.40941 0.39057 0.26973 0.0
H392 H 0.44174 0.40379 0.25845 0.0
H393 H 0.427 0.3917 0.18218 0.0
H394 H 0.39451 0.37814 0.19308 0.0
H395 H 0.32254 0.40948 0.24148 0.0
H396 H 0.33519 0.39172 0.25981 0.0
H397 H 0.34679 0.3794 0.18709 0.0
H398 H 0.33438 0.39712 0.1688 0.0
H399 H 0.37626 0.39325 0.21584 0.0
H400 H 0.31345 0.34663 0.22257 0.0
H401 H 0.28132 0.3336 0.23487 0.0
H402 H 0.29713 0.34363 0.31102 0.0
H403 H 0.32939 0.35695 0.29915 0.0
C404 C 0.40135 0.33893 0.26215 0.0
C405 C 0.40497 0.34079 0.28757 0.0
C406 C 0.38988 0.3446 0.25193 0.0
C407 C 0.38186 0.35214 0.267 0.0
C408 C 0.38473 0.35314 0.29252 0.0
C409 C 0.39625 0.34758 0.30272 0.0
C410 C 0.37167 0.36032 0.25602 0.0
C411 C 0.35348 0.3537 0.26294 0.0
C412 C 0.37999 0.37478 0.23892 0.0
C413 C 0.39952 0.38316 0.23225 0.0
C414 C 0.41305 0.39061 0.25057 0.0
C415 C 0.4314 0.39817 0.24425 0.0
C416 C 0.43642 0.39853 0.21962 0.0
C417 C 0.42309 0.39138 0.20126 0.0
C418 C 0.4047 0.38376 0.20749 0.0
C419 C 0.3275 0.4027 0.22946 0.0
C420 C 0.3277 0.40486 0.20376 0.0
C421 C 0.33469 0.39255 0.23992 0.0
C422 C 0.34197 0.38429 0.22477 0.0
C423 C 0.34137 0.38577 0.1991 0.0
C424 C 0.33429 0.39592 0.1887 0.0
C425 C 0.35155 0.37533 0.23548 0.0
C426 C 0.36977 0.38195 0.22867 0.0
C427 C 0.34324 0.36096 0.25276 0.0
C428 C 0.32385 0.35296 0.25994 0.0
C429 C 0.31009 0.3462 0.24192 0.0
C430 C 0.29185 0.33874 0.24882 0.0
C431 C 0.28719 0.33783 0.2737 0.0
C432 C 0.30076 0.34436 0.29175 0.0
C433 C 0.31902 0.35185 0.28495 0.0
H434 H 0.27306 0.33204 0.27901 0.0
H435 H 0.45065 0.40438 0.21477 0.0
H436 H 0.94091 0.33814 0.16525 0.0
H437 H 0.97185 0.34997 0.18026 0.0
H438 H 0.95237 0.34167 0.25531 0.0
H439 H 0.92109 0.32953 0.24027 0.0
H440 H 0.9896 0.38027 0.20606 0.0
H441 H 0.98291 0.33652 0.29189 0.0
H442 H 0.96444 0.30473 0.30598 0.0
H443 H 0.95463 0.2863 0.23084 0.0
H444 H 0.97325 0.31794 0.2163 0.0
H445 H 0.05716 0.42669 0.29411 0.0
H446 H 0.02821 0.40687 0.27402 0.0
H447 H 0.04969 0.37403 0.24502 0.0
H448 H 0.07894 0.39392 0.26567 0.0
H449 H 0.01352 0.35373 0.26684 0.0
H450 H 0.04629 0.4001 0.20654 0.0
H451 H 0.06527 0.4317 0.19205 0.0
H452 H 0.02358 0.4437 0.21319 0.0
H453 H 0.00446 0.41223 0.22815 0.0
C454 C 0.94315 0.33862 0.18497 0.0
C455 C 0.92864 0.33317 0.20164 0.0
C456 C 0.96084 0.34535 0.19349 0.0
C457 C 0.96443 0.34676 0.21886 0.0
C458 C 0.94986 0.34052 0.23562 0.0
C459 C 0.93203 0.33364 0.22705 0.0
C460 C 0.98353 0.35649 0.22753 0.0
C461 C 0.99484 0.37437 0.2192 0.0
C462 C 0.99043 0.34874 0.24446 0.0
C463 C 0.97935 0.32963 0.25301 0.0
C464 C 0.97688 0.32568 0.27837 0.0
C465 C 0.96637 0.30769 0.28644 0.0
C466 C 0.95832 0.29351 0.26932 0.0
C467 C 0.96081 0.2973 0.24408 0.0
C468 C 0.97132 0.31526 0.23592 0.0
C469 C 0.05568 0.41511 0.28386 0.0
C470 C 0.07014 0.4116 0.28183 0.0
C471 C 0.03918 0.40389 0.27216 0.0
C472 C 0.03684 0.38899 0.25815 0.0
C473 C 0.05127 0.38545 0.2559 0.0
C474 C 0.06794 0.39684 0.26748 0.0
C475 C 0.01929 0.37748 0.24563 0.0
C476 C 0.00828 0.3594 0.25337 0.0
C477 C 0.01265 0.38494 0.22794 0.0
C478 C 0.02399 0.40382 0.2186 0.0
C479 C 0.04121 0.4095 0.20824 0.0
C480 C 0.05199 0.42739 0.19993 0.0
C481 C 0.04565 0.43971 0.20174 0.0
C482 C 0.02848 0.43414 0.2118 0.0
C483 C 0.01765 0.41627 0.22016 0.0
H484 H 0.05402 0.45356 0.19532 0.0
H485 H 0.95018 0.2796 0.2756 0.0
H486 H 0.58466 0.91751 0.25086 0.0
H487 H 0.60139 0.94712 0.27165 0.0
H488 H 0.62217 0.97338 0.20151 0.0
H489 H 0.60549 0.94399 0.18069 0.0
H490 H 0.64827 0.98755 0.23901 0.0
H491 H 0.58713 0.97392 0.22272 0.0
H492 H 0.55372 0.95533 0.22359 0.0
H493 H 0.55449 0.9558 0.30278 0.0
H494 H 0.58802 0.97429 0.30234 0.0
H495 H 0.66721 0.0785 0.26248 0.0
H496 H 0.65614 0.04777 0.24611 0.0
H497 H 0.63556 0.02508 0.31805 0.0
H498 H 0.64668 0.05557 0.33453 0.0
H499 H 0.61016 0.00842 0.28169 0.0
H500 H 0.67249 0.02554 0.29661 0.0
H501 H 0.70581 0.04509 0.29355 0.0
H502 H 0.70272 0.03905 0.21479 0.0
H503 H 0.66933 0.01966 0.21735 0.0
C504 C 0.59303 0.92957 0.23997 0.0
C505 C 0.59365 0.92852 0.21417 0.0
C506 C 0.60253 0.94644 0.25183 0.0
C507 C 0.61288 0.9624 0.23804 0.0
C508 C 0.61427 0.96121 0.21245 0.0
C509 C 0.60464 0.94444 0.20059 0.0
C510 C 0.62109 0.98049 0.24989 0.0
C511 C 0.63998 0.99218 0.24827 0.0
C512 C 0.61023 0.9864 0.26208 0.0
C513 C 0.59008 0.97525 0.2625 0.0
C514 C 0.58018 0.96988 0.24032 0.0
C515 C 0.56121 0.95936 0.24074 0.0
C516 C 0.55194 0.9542 0.26322 0.0
C517 C 0.56166 0.95968 0.28536 0.0
C518 C 0.58066 0.9702 0.28505 0.0
C519 C 0.66044 0.06696 0.27482 0.0
C520 C 0.65759 0.06944 0.29971 0.0
C521 C 0.65419 0.04944 0.26548 0.0
C522 C 0.64506 0.03419 0.28092 0.0
C523 C 0.64249 0.03668 0.30583 0.0
C524 C 0.64879 0.05413 0.31517 0.0
C525 C 0.6374 0.01554 0.27094 0.0
C526 C 0.61855 0.00374 0.27278 0.0
C527 C 0.64831 0.00965 0.25876 0.0
C528 C 0.66839 0.02128 0.25716 0.0
C529 C 0.67889 0.02851 0.27862 0.0
C530 C 0.6978 0.03954 0.27698 0.0
C531 C 0.70637 0.04335 0.25399 0.0
C532 C 0.69606 0.0361 0.23259 0.0
C533 C 0.67714 0.02508 0.23412 0.0
H534 H 0.72101 0.05189 0.25275 0.0
H535 H 0.53723 0.94605 0.26346 0.0
H536 H 0.58551 0.64774 0.32572 0.0
H537 H 0.60407 0.63564 0.30898 0.0
H538 H 0.58894 0.6417 0.23515 0.0
H539 H 0.57035 0.654 0.25182 0.0
H540 H 0.58474 0.60668 0.24621 0.0
H541 H 0.62968 0.67044 0.25303 0.0
H542 H 0.64688 0.69978 0.27477 0.0
H543 H 0.66662 0.67547 0.32669 0.0
H544 H 0.64931 0.6459 0.30546 0.0
H545 H 0.64728 0.59554 0.17483 0.0
H546 H 0.6318 0.60976 0.1948 0.0
H547 H 0.64742 0.59964 0.2661 0.0
H548 H 0.66255 0.58471 0.2462 0.0
H549 H 0.65154 0.63597 0.25861 0.0
H550 H 0.60747 0.57291 0.25411 0.0
H551 H 0.58989 0.54264 0.23484 0.0
H552 H 0.56809 0.56426 0.18184 0.0
H553 H 0.58574 0.59475 0.20063 0.0
C554 C 0.58617 0.64656 0.3059 0.0
C555 C 0.57645 0.65175 0.29004 0.0
C556 C 0.59683 0.63973 0.2964 0.0
C557 C 0.59789 0.63786 0.27088 0.0
C558 C 0.58827 0.64309 0.25493 0.0
C559 C 0.57775 0.65016 0.26444 0.0
C560 C 0.60862 0.62993 0.26097 0.0
C561 C 0.59937 0.6132 0.24859 0.0
C562 C 0.62759 0.63813 0.26506 0.0
C563 C 0.63805 0.65591 0.27779 0.0
C564 C 0.63756 0.67131 0.26921 0.0
C565 C 0.64735 0.68799 0.28142 0.0
C566 C 0.6578 0.68948 0.30214 0.0
C567 C 0.6585 0.6743 0.31066 0.0
C568 C 0.64872 0.65758 0.29853 0.0
C569 C 0.64737 0.5962 0.19476 0.0
C570 C 0.65577 0.58861 0.20896 0.0
C571 C 0.63861 0.60444 0.20611 0.0
C572 C 0.6383 0.60548 0.23186 0.0
C573 C 0.64749 0.59884 0.24617 0.0
C574 C 0.65611 0.59035 0.23478 0.0
C575 C 0.62768 0.61292 0.24353 0.0
C576 C 0.63691 0.62947 0.25628 0.0
C577 C 0.60864 0.60443 0.24015 0.0
C578 C 0.59808 0.58616 0.22862 0.0
C579 C 0.59908 0.57126 0.23818 0.0
C580 C 0.58906 0.55405 0.22739 0.0
C581 C 0.57791 0.55154 0.20709 0.0
C582 C 0.57675 0.56624 0.19756 0.0
C583 C 0.58674 0.58348 0.20829 0.0
H584 H 0.57012 0.5382 0.19879 0.0
H585 H 0.66537 0.70241 0.31156 0.0
H586 H 0.06058 0.653 0.16549 0.0
H587 H 0.0302 0.63993 0.18335 0.0
H588 H 0.05337 0.6509 0.25643 0.0
H589 H 0.08399 0.66402 0.2386 0.0
H590 H 0.02489 0.61527 0.24998 0.0
H591 H 0.03662 0.67599 0.23499 0.0
H592 H 0.04556 0.70355 0.21018 0.0
H593 H 0.00143 0.67266 0.16014 0.0
H594 H 0.99238 0.64484 0.18446 0.0
H595 H 0.94463 0.59257 0.31451 0.0
H596 H 0.97522 0.61004 0.29749 0.0
H597 H 0.95295 0.60107 0.22397 0.0
H598 H 0.92208 0.58346 0.24095 0.0
H599 H 0.98108 0.63625 0.23098 0.0
H600 H 0.96967 0.57574 0.24382 0.0
H601 H 0.9602 0.54751 0.26728 0.0
H602 H 0.00337 0.57693 0.31923 0.0
H603 H 0.0129 0.60544 0.29631 0.0
C604 C 0.05924 0.65272 0.18537 0.0
C605 C 0.07463 0.65944 0.20068 0.0
C606 C 0.04188 0.64535 0.19552 0.0
C607 C 0.03958 0.64456 0.22117 0.0
C608 C 0.05492 0.65145 0.23656 0.0
C609 C 0.07236 0.65899 0.22638 0.0
C610 C 0.02105 0.63567 0.23178 0.0
C611 C 0.01541 0.62004 0.24622 0.0
C612 C 0.00854 0.64157 0.22607 0.0
C613 C 0.01393 0.65829 0.21144 0.0
C614 C 0.02892 0.67504 0.21858 0.0
C615 C 0.03398 0.69072 0.20462 0.0
C616 C 0.0241 0.68985 0.18356 0.0
C617 C 0.00909 0.6733 0.17644 0.0
C618 C 0.00397 0.65758 0.19032 0.0
C619 C 0.94619 0.59426 0.29471 0.0
C620 C 0.93098 0.58638 0.27902 0.0
C621 C 0.96369 0.60429 0.28504 0.0
C622 C 0.96632 0.60657 0.25948 0.0
C623 C 0.95115 0.59937 0.24376 0.0
C624 C 0.93357 0.58931 0.25347 0.0
C625 C 0.985 0.61594 0.2493 0.0
C626 C 0.99062 0.63157 0.23486 0.0
C627 C 0.99746 0.60993 0.25477 0.0
C628 C 0.99189 0.59277 0.26848 0.0
C629 C 0.97706 0.57623 0.26036 0.0
C630 C 0.97168 0.56017 0.27355 0.0
C631 C 0.98114 0.56044 0.29477 0.0
C632 C 0.99603 0.57676 0.30281 0.0
C633 C 0.00143 0.59287 0.28972 0.0
H634 H 0.97697 0.54799 0.30496 0.0
H635 H 0.02804 0.702 0.17279 0.0
H636 H 0.54137 0.92447 0.79644 0.0
H637 H 0.55307 0.95445 0.77719 0.0
H638 H 0.60231 0.95452 0.75691 0.0
H639 H 0.59095 0.92493 0.77636 0.0
H640 H 0.61011 0.98659 0.77497 0.0
H641 H 0.56798 0.94458 0.71468 0.0
H642 H 0.53799 0.92012 0.70057 0.0
H643 H 0.51427 0.95316 0.71818 0.0
H644 H 0.54413 0.97778 0.73261 0.0
H645 H 0.65017 0.04927 0.68059 0.0
H646 H 0.63204 0.01977 0.70044 0.0
H647 H 0.59224 0.03459 0.72209 0.0
H648 H 0.61039 0.06436 0.70218 0.0
H649 H 0.57718 0.99672 0.70671 0.0
H650 H 0.62093 0.04009 0.76315 0.0
H651 H 0.65142 0.06422 0.77609 0.0
H652 H 0.67241 0.02796 0.76523 0.0
H653 H 0.64209 0.00369 0.75184 0.0
C654 C 0.55473 0.93094 0.78799 0.0
C655 C 0.56522 0.9223 0.78792 0.0
C656 C 0.56135 0.94802 0.77688 0.0
C657 C 0.5785 0.95666 0.7654 0.0
C658 C 0.58905 0.94814 0.76567 0.0
C659 C 0.5825 0.93117 0.77678 0.0
C660 C 0.58569 0.97457 0.75298 0.0
C661 C 0.60292 0.98874 0.75997 0.0
C662 C 0.57612 0.97759 0.73385 0.0
C663 C 0.55823 0.96293 0.72493 0.0
C664 C 0.55635 0.94658 0.71567 0.0
C665 C 0.53939 0.93271 0.70759 0.0
C666 C 0.52424 0.93508 0.70853 0.0
C667 C 0.52602 0.95135 0.71748 0.0
C668 C 0.54297 0.96528 0.72558 0.0
C669 C 0.63742 0.04621 0.68918 0.0
C670 C 0.63186 0.05929 0.69007 0.0
C671 C 0.62708 0.02932 0.70054 0.0
C672 C 0.61097 0.02514 0.71305 0.0
C673 C 0.60468 0.03761 0.71258 0.0
C674 C 0.61508 0.05462 0.70123 0.0
C675 C 0.60177 0.00843 0.7283 0.0
C676 C 0.58421 0.99459 0.72193 0.0
C677 C 0.61104 0.00562 0.74798 0.0
C678 C 0.62926 0.02012 0.75632 0.0
C679 C 0.63207 0.0373 0.76335 0.0
C680 C 0.64933 0.051 0.77079 0.0
C681 C 0.66385 0.04764 0.77144 0.0
C682 C 0.66115 0.03055 0.76471 0.0
C683 C 0.64393 0.01681 0.75722 0.0
H684 H 0.6772 0.05826 0.7772 0.0
H685 H 0.51113 0.92432 0.70223 0.0
H686 H 0.62976 0.53794 0.73604 0.0
H687 H 0.61332 0.55308 0.72196 0.0
H688 H 0.60483 0.56318 0.79739 0.0
H689 H 0.62128 0.54802 0.81172 0.0
H690 H 0.57405 0.55242 0.76737 0.0
H691 H 0.63834 0.5961 0.7666 0.0
H692 H 0.67045 0.60753 0.75545 0.0
H693 H 0.65683 0.60379 0.6786 0.0
H694 H 0.62457 0.59208 0.6893 0.0
H695 H 0.55923 0.62725 0.75392 0.0
H696 H 0.56883 0.60537 0.76445 0.0
H697 H 0.5816 0.6027 0.68807 0.0
H698 H 0.57233 0.62493 0.67743 0.0
H699 H 0.60897 0.60795 0.7165 0.0
H700 H 0.54502 0.56656 0.71691 0.0
H701 H 0.51287 0.55514 0.72779 0.0
H702 H 0.52528 0.55422 0.80436 0.0
H703 H 0.55757 0.5659 0.79398 0.0
C704 C 0.62425 0.54321 0.74969 0.0
C705 C 0.62699 0.54192 0.77502 0.0
C706 C 0.61487 0.55188 0.74158 0.0
C707 C 0.60804 0.55942 0.75863 0.0
C708 C 0.61003 0.55747 0.78395 0.0
C709 C 0.6195 0.54887 0.79209 0.0
C710 C 0.59976 0.57025 0.75001 0.0
C711 C 0.58169 0.56465 0.75642 0.0
C712 C 0.60963 0.58594 0.73521 0.0
C713 C 0.62902 0.59302 0.72875 0.0
C714 C 0.64217 0.59756 0.74732 0.0
C715 C 0.6604 0.60412 0.74108 0.0
C716 C 0.66567 0.60633 0.71633 0.0
C717 C 0.65272 0.60204 0.69776 0.0
C718 C 0.63447 0.59545 0.70391 0.0
C719 C 0.56386 0.62185 0.73928 0.0
C720 C 0.5651 0.62792 0.71484 0.0
C721 C 0.56926 0.60924 0.74532 0.0
C722 C 0.57582 0.60226 0.72703 0.0
C723 C 0.57658 0.6079 0.70249 0.0
C724 C 0.57123 0.62057 0.69643 0.0
C725 C 0.58317 0.5902 0.73385 0.0
C726 C 0.60117 0.59561 0.72719 0.0
C727 C 0.57318 0.57433 0.74834 0.0
C728 C 0.55376 0.56726 0.75467 0.0
C729 C 0.54093 0.56407 0.73609 0.0
C730 C 0.52267 0.55752 0.74217 0.0
C731 C 0.51704 0.554 0.76676 0.0
C732 C 0.52966 0.55697 0.78532 0.0
C733 C 0.54794 0.56354 0.77934 0.0
H734 H 0.5029 0.54893 0.77142 0.0
H735 H 0.67979 0.61142 0.71154 0.0
H736 H 0.94171 0.56151 0.67288 0.0
H737 H 0.97297 0.57251 0.68672 0.0
H738 H 0.95432 0.56023 0.762 0.0
H739 H 0.9231 0.54929 0.74839 0.0
H740 H 0.98296 0.59442 0.75724 0.0
H741 H 0.96811 0.53437 0.73216 0.0
H742 H 0.95712 0.50823 0.70382 0.0
H743 H -0.00049 0.54097 0.65237 0.0
H744 H 0.01061 0.5674 0.68027 0.0
H745 H 0.06794 0.61563 0.80788 0.0
H746 H 0.03592 0.59806 0.79582 0.0
H747 H 0.05151 0.60664 0.71912 0.0
H748 H 0.08353 0.62384 0.731 0.0
H749 H 0.02392 0.57289 0.72593 0.0
H750 H 0.03741 0.63319 0.74885 0.0
H751 H 0.04841 0.65989 0.7762 0.0
H752 H 0.00845 0.62721 0.83048 0.0
H753 H 0.99737 0.60025 0.80357 0.0
C754 C 0.94424 0.56099 0.69235 0.0
C755 C 0.92991 0.55458 0.70953 0.0
C756 C 0.9621 0.56721 0.70022 0.0
C757 C 0.96596 0.56711 0.72539 0.0
C758 C 0.95164 0.56043 0.7425 0.0
C759 C 0.93379 0.55415 0.73466 0.0
C760 C 0.98502 0.57491 0.73403 0.0
C761 C 0.99182 0.5895 0.75072 0.0
C762 C 0.99671 0.56879 0.72502 0.0
C763 C 0.99009 0.55292 0.70822 0.0
C764 C 0.975 0.53605 0.71472 0.0
C765 C 0.96877 0.52117 0.69875 0.0
C766 C 0.97759 0.52295 0.67628 0.0
C767 C 0.99268 0.53961 0.66977 0.0
C768 C -0.00104 0.55454 0.68566 0.0
C769 C 0.06457 0.61362 0.78844 0.0
C770 C 0.07829 0.6213 0.7704 0.0
C771 C 0.04625 0.60362 0.78158 0.0
C772 C 0.04129 0.60131 0.75655 0.0
C773 C 0.055 0.60829 0.73853 0.0
C774 C 0.07332 0.61818 0.74537 0.0
C775 C 0.02185 0.59241 0.74912 0.0
C776 C 0.015 0.57769 0.7326 0.0
C777 C 0.0101 0.59847 0.75814 0.0
C778 C 0.0167 0.61467 0.77431 0.0
C779 C 0.03107 0.63167 0.7667 0.0
C780 C 0.0373 0.64686 0.78211 0.0
C781 C 0.02917 0.64524 0.8051 0.0
C782 C 0.01476 0.62844 0.81269 0.0
C783 C 0.00849 0.6132 0.79736 0.0
H784 H 0.03401 0.65701 0.817 0.0
H785 H 0.97275 0.51141 0.66394 0.0
H786 H 0.39556 0.06858 0.80444 0.0
H787 H 0.38358 0.0382 0.78727 0.0
H788 H 0.43789 0.04618 0.78329 0.0
H789 H 0.45013 0.07695 0.80025 0.0
H790 H 0.4196 0.03225 0.74082 0.0
H791 H 0.40794 0.01713 0.82577 0.0
H792 H 0.39724 0.01782 0.86782 0.0
H793 H 0.34257 0.99559 0.84101 0.0
H794 H 0.35297 0.99499 0.79872 0.0
H795 H 0.37804 0.93803 0.70285 0.0
H796 H 0.39638 0.96684 0.72491 0.0
H797 H 0.34843 0.97134 0.73617 0.0
H798 H 0.33008 0.94267 0.71451 0.0
H799 H 0.36756 0.97766 0.77823 0.0
H800 H 0.38039 0.99682 0.69274 0.0
H801 H 0.39121 0.99647 0.65062 0.0
H802 H 0.44402 0.011 0.67903 0.0
H803 H 0.43342 0.01122 0.72137 0.0
C804 C 0.405 0.06387 0.80018 0.0
C805 C 0.42381 0.07521 0.80375 0.0
C806 C 0.39809 0.04642 0.79044 0.0
C807 C 0.40981 0.03981 0.78424 0.0
C808 C 0.42861 0.05099 0.78803 0.0
C809 C 0.43556 0.06853 0.79782 0.0
C810 C 0.40227 0.02155 0.77273 0.0
C811 C 0.40849 0.02021 0.74924 0.0
C812 C 0.38763 0.00588 0.78357 0.0
C813 C 0.38127 0.00611 0.80902 0.0
C814 C 0.39366 0.0125 0.8288 0.0
C815 C 0.38764 0.01286 0.85269 0.0
C816 C 0.36925 0.00678 0.85708 0.0
C817 C 0.35682 0.00029 0.83759 0.0
C818 C 0.36276 -9e-05 0.81365 0.0
C819 C 0.37144 0.94523 0.7099 0.0
C820 C 0.35258 0.93804 0.70693 0.0
C821 C 0.38194 0.96169 0.72247 0.0
C822 C 0.37377 0.97125 0.73217 0.0
C823 C 0.35501 0.96416 0.72897 0.0
C824 C 0.34454 0.94778 0.71647 0.0
C825 C 0.38449 0.98852 0.74603 0.0
C826 C 0.37888 0.98963 0.77001 0.0
C827 C 0.3997 0.00393 0.73566 0.0
C828 C 0.40605 0.00381 0.71023 0.0
C829 C 0.39426 -0.00021 0.69002 0.0
C830 C 0.40036 -0.00036 0.66611 0.0
C831 C 0.41827 0.00365 0.66216 0.0
C832 C 0.43014 0.00786 0.68212 0.0
C833 C 0.42409 0.00801 0.70607 0.0
H834 H 0.42297 0.00354 0.64363 0.0
H835 H 0.36462 0.00707 0.87559 0.0
H836 H 0.38683 0.46625 0.79537 0.0
H837 H 0.40407 0.45331 0.77625 0.0
H838 H 0.35741 0.39943 0.7834 0.0
H839 H 0.34032 0.41212 0.80279 0.0
H840 H 0.38767 0.39907 0.79464 0.0
H841 H 0.36767 0.42398 0.72892 0.0
H842 H 0.36585 0.44858 0.70722 0.0
H843 H 0.42405 0.47854 0.6999 0.0
H844 H 0.42622 0.45419 0.72184 0.0
H845 H 0.38929 0.34276 0.7031 0.0
H846 H 0.38266 0.3634 0.72616 0.0
H847 H 0.43792 0.40685 0.71597 0.0
H848 H 0.44482 0.38611 0.69276 0.0
H849 H 0.41021 0.417 0.70897 0.0
H850 H 0.42902 0.38872 0.76907 0.0
H851 H 0.42972 0.36309 0.78945 0.0
H852 H 0.37286 0.33875 0.80669 0.0
H853 H 0.37174 0.36409 0.78608 0.0
C854 C 0.38034 0.45163 0.79312 0.0
C855 C 0.36216 0.44022 0.80046 0.0
C856 C 0.39018 0.44427 0.78208 0.0
C857 C 0.38196 0.42541 0.77811 0.0
C858 C 0.36405 0.41401 0.78626 0.0
C859 C 0.35426 0.42132 0.79729 0.0
C860 C 0.39151 0.41734 0.76472 0.0
C861 C 0.39259 0.403 0.77592 0.0
C862 C 0.39843 0.42281 0.74052 0.0
C863 C 0.39712 0.43739 0.72728 0.0
C864 C 0.38009 0.43588 0.72285 0.0
C865 C 0.37899 0.44976 0.71048 0.0
C866 C 0.39483 0.46514 0.70227 0.0
C867 C 0.4118 0.46664 0.70633 0.0
C868 C 0.41297 0.4528 0.71872 0.0
C869 C 0.40006 0.35673 0.70553 0.0
C870 C 0.41764 0.36275 0.69622 0.0
C871 C 0.39624 0.3685 0.7188 0.0
C872 C 0.40987 0.38655 0.72305 0.0
C873 C 0.42726 0.39291 0.71296 0.0
C874 C 0.43116 0.38105 0.69974 0.0
C875 C 0.40574 0.39838 0.73866 0.0
C876 C 0.40569 0.41338 0.7279 0.0
C877 C 0.39965 0.39348 0.76324 0.0
C878 C 0.40028 0.37827 0.77589 0.0
C879 C 0.41663 0.37784 0.77706 0.0
C880 C 0.41711 0.36337 0.78867 0.0
C881 C 0.40134 0.34929 0.79933 0.0
C882 C 0.38507 0.34967 0.79843 0.0
C883 C 0.38451 0.3641 0.78681 0.0
H884 H 0.40174 0.3381 0.80831 0.0
H885 H 0.39395 0.47587 0.69269 0.0
H886 H 0.05352 0.422 0.68427 0.0
H887 H 0.0234 0.41088 0.70243 0.0
H888 H 0.04822 0.43579 0.77183 0.0
H889 H 0.07834 0.44678 0.75392 0.0
H890 H 0.02381 0.40128 0.77828 0.0
H891 H 0.0251 0.45167 0.73836 0.0
H892 H 0.02921 0.47255 0.70417 0.0
H893 H 0.98581 0.42864 0.66412 0.0
H894 H 0.98159 0.40742 0.69791 0.0
H895 H 0.9241 0.38029 0.80249 0.0
H896 H 0.95522 0.40134 0.78847 0.0
H897 H 0.96271 0.35577 0.7717 0.0
H898 H 0.93191 0.33478 0.78583 0.0
H899 H 0.97181 0.40543 0.74383 0.0
H900 H 0.00522 0.36608 0.7855 0.0
H901 H 0.00149 0.34686 0.82164 0.0
H902 H 0.97678 0.37245 0.86207 0.0
H903 H 0.9806 0.392 0.8263 0.0
C904 C 0.05259 0.4254 0.70326 0.0
C905 C 0.06833 0.43511 0.71772 0.0
C906 C 0.03534 0.4191 0.7136 0.0
C907 C 0.03354 0.42251 0.73851 0.0
C908 C 0.04928 0.43295 0.75261 0.0
C909 C 0.0665 0.43923 0.74231 0.0
C910 C 0.01535 0.41365 0.75046 0.0
C911 C 0.01249 0.40232 0.77082 0.0
C912 C 0.00064 0.41523 0.74104 0.0
C913 C 0.00312 0.42792 0.72062 0.0
C914 C 0.01652 0.44643 0.72217 0.0
C915 C 0.01886 0.45833 0.70288 0.0
C916 C 0.0078 0.45192 0.68196 0.0
C917 C 0.99437 0.43359 0.68032 0.0
C918 C 0.99198 0.42162 0.69956 0.0
C919 C 0.93243 0.37478 0.79593 0.0
C920 C 0.92556 0.35586 0.79543 0.0
C921 C 0.95016 0.38682 0.78783 0.0
C922 C 0.96134 0.38012 0.7793 0.0
C923 C 0.95443 0.36125 0.77857 0.0
C924 C 0.93677 0.34925 0.78662 0.0
C925 C 0.98026 0.39269 0.77108 0.0
C926 C 0.98323 0.40463 0.75141 0.0
C927 C 0.99519 0.39194 0.78138 0.0
C928 C 0.99309 0.38042 0.80314 0.0
C929 C -0.00092 0.36768 0.80215 0.0
C930 C 0.99693 0.35671 0.82256 0.0
C931 C 0.98886 0.3584 0.84411 0.0
C932 C 0.98298 0.37111 0.84533 0.0
C933 C 0.98511 0.38213 0.82498 0.0
H934 H 0.9872 0.34989 0.85989 0.0
H935 H 0.00963 0.46116 0.66705 0.0
H936 H 0.45128 0.18891 0.16755 0.0
H937 H 0.45883 0.2179 0.18601 0.0
H938 H 0.49897 0.21543 0.23218 0.0
H939 H 0.49098 0.1858 0.21415 0.0
H940 H 0.47892 0.22382 0.25909 0.0
H941 H 0.51162 0.24838 0.18547 0.0
H942 H 0.51789 0.25131 0.14081 0.0
H943 H 0.47401 0.26192 0.12875 0.0
H944 H 0.46727 0.25878 0.17328 0.0
H945 H 0.48347 0.30702 0.30388 0.0
H946 H 0.49509 0.28842 0.28481 0.0
H947 H 0.44977 0.26579 0.23428 0.0
H948 H 0.43808 0.28391 0.2532 0.0
H949 H 0.48369 0.27603 0.21164 0.0
H950 H 0.44745 0.24289 0.28445 0.0
H951 H 0.44147 0.23974 0.32922 0.0
H952 H 0.49442 0.24648 0.34238 0.0
H953 H 0.50078 0.24989 0.29766 0.0
C954 C 0.46193 0.1946 0.18134 0.0
C955 C 0.47047 0.18497 0.18942 0.0
C956 C 0.46637 0.21133 0.19179 0.0
C957 C 0.4797 0.21908 0.21027 0.0
C958 C 0.48871 0.20979 0.21786 0.0
C959 C 0.48416 0.19289 0.2075 0.0
C960 C 0.48272 0.23592 0.223 0.0
C961 C 0.48054 0.23549 0.24873 0.0
C962 C 0.48487 0.25123 0.20964 0.0
C963 C 0.48893 0.25331 0.18278 0.0
C964 C 0.50324 0.25125 0.1733 0.0
C965 C 0.50688 0.25295 0.14799 0.0
C966 C 0.49635 0.25679 0.13195 0.0
C967 C 0.48217 0.25896 0.1412 0.0
C968 C 0.47846 0.25727 0.16649 0.0
C969 C 0.47612 0.29817 0.28858 0.0
C970 C 0.4598 0.29681 0.28015 0.0
C971 C 0.48275 0.28758 0.27774 0.0
C972 C 0.47327 0.27576 0.25812 0.0
C973 C 0.45733 0.27489 0.2493 0.0
C974 C 0.4506 0.28517 0.26028 0.0
C975 C 0.47899 0.26336 0.24729 0.0
C976 C 0.4828 0.26466 0.22196 0.0
C977 C 0.47855 0.24897 0.26101 0.0
C978 C 0.47468 0.24689 0.2878 0.0
C979 C 0.45787 0.24386 0.29692 0.0
C980 C 0.4544 0.242 0.32227 0.0
C981 C 0.46758 0.24298 0.33865 0.0
C982 C 0.48424 0.24577 0.32969 0.0
C983 C 0.48778 0.24767 0.30435 0.0
H984 H 0.46487 0.24153 0.35826 0.0
H985 H 0.49918 0.25809 0.11237 0.0
H986 H 0.17847 0.46998 0.3155 0.0
H987 H 0.20809 0.47581 0.30053 0.0
H988 H 0.19466 0.48531 0.22738 0.0
H989 H 0.16494 0.4793 0.24211 0.0
H990 H 0.20525 0.46066 0.22671 0.0
H991 H 0.2283 0.51996 0.26121 0.0
H992 H 0.23302 0.54256 0.29322 0.0
H993 H 0.25906 0.52135 0.33968 0.0
H994 H 0.25427 0.49844 0.30808 0.0
H995 H 0.28823 0.47568 0.17716 0.0
H996 H 0.26502 0.48303 0.19013 0.0
H997 H 0.27304 0.47337 0.26596 0.0
H998 H 0.2965 0.4664 0.25325 0.0
H999 H 0.26623 0.50116 0.26273 0.0
H1000 H 0.23964 0.43981 0.23137 0.0
H1001 H 0.23443 0.41636 0.20043 0.0
H1002 H 0.21438 0.44083 0.14924 0.0
H1003 H 0.2197 0.46458 0.1798 0.0
C1004 C 0.18194 0.47365 0.29633 0.0
C1005 C 0.16925 0.474 0.27996 0.0
C1006 C 0.19893 0.47707 0.28781 0.0
C1007 C 0.20362 0.48103 0.26282 0.0
C1008 C 0.19132 0.48224 0.24672 0.0
C1009 C 0.17433 0.47882 0.2552 0.0
C1010 C 0.22046 0.48202 0.25302 0.0
C1011 C 0.21863 0.46983 0.23423 0.0
C1012 C 0.23786 0.4936 0.26328 0.0
C1013 C 0.24079 0.50738 0.28233 0.0
C1014 C 0.2349 0.52001 0.27833 0.0
C1015 C 0.23762 0.5329 0.29639 0.0
C1016 C 0.2463 0.53337 0.31849 0.0
C1017 C 0.25232 0.52097 0.32255 0.0
C1018 C 0.24963 0.50804 0.30456 0.0
C1019 C 0.28529 0.47543 0.19664 0.0
C1020 C 0.29404 0.47019 0.21413 0.0
C1021 C 0.27198 0.47959 0.20402 0.0
C1022 C 0.26704 0.4784 0.22898 0.0
C1023 C 0.27658 0.47432 0.24661 0.0
C1024 C 0.28995 0.47026 0.23927 0.0
C1025 C 0.25093 0.47978 0.23653 0.0
C1026 C 0.25287 0.49227 0.25496 0.0
C1027 C 0.23355 0.46838 0.22609 0.0
C1028 C 0.23027 0.45408 0.20775 0.0
C1029 C 0.23425 0.44026 0.21345 0.0
C1030 C 0.23125 0.42691 0.19599 0.0
C1031 C 0.22413 0.42714 0.17285 0.0
C1032 C 0.21993 0.44069 0.16715 0.0
C1033 C 0.22293 0.4541 0.18453 0.0
H1034 H 0.22182 0.41679 0.15937 0.0
H1035 H 0.24839 0.54336 0.33245 0.0
H1036 H 0.69143 0.17649 0.29003 0.0
H1037 H 0.71236 0.2044 0.26773 0.0
H1038 H 0.75806 0.20128 0.29685 0.0
H1039 H 0.73742 0.1739 0.31956 0.0
H1040 H 0.76637 0.23525 0.29553 0.0
H1041 H 0.73926 0.18421 0.23866 0.0
H1042 H 0.7137 0.15861 0.217 0.0
H1043 H 0.69745 0.19512 0.1868 0.0
H1044 H 0.72282 0.22091 0.20853 0.0
H1045 H 0.82096 0.25929 0.17607 0.0
H1046 H 0.79352 0.23917 0.19906 0.0
H1047 H 0.79576 0.28552 0.23543 0.0
H1048 H 0.82374 0.30585 0.21286 0.0
H1049 H 0.76048 0.23329 0.20441 0.0
H1050 H 0.78146 0.27357 0.29501 0.0
H1051 H 0.80913 0.29675 0.31634 0.0
H1052 H 0.84105 0.27785 0.27846 0.0
H1053 H 0.81355 0.25446 0.25715 0.0
C1054 C 0.70595 0.18193 0.29195 0.0
C1055 C 0.71274 0.17287 0.3064 0.0
C1056 C 0.71789 0.19784 0.27912 0.0
C1057 C 0.7368 0.20482 0.28031 0.0
C1058 C 0.74356 0.19622 0.29562 0.0
C1059 C 0.73169 0.18046 0.30854 0.0
C1060 C 0.74969 0.22029 0.26454 0.0
C1061 C 0.76494 0.23494 0.27563 0.0
C1062 C 0.74797 0.21988 0.23853 0.0
C1063 C 0.73276 0.20442 0.22545 0.0
C1064 C 0.73015 0.18674 0.22753 0.0
C1065 C 0.71572 0.17221 0.21523 0.0
C1066 C 0.70392 0.17523 0.20061 0.0
C1067 C 0.70657 0.1928 0.19819 0.0
C1068 C 0.72097 0.20737 0.21049 0.0
C1069 C 0.81555 0.26529 0.18873 0.0
C1070 C 0.82471 0.28418 0.19287 0.0
C1071 C 0.79975 0.25373 0.2018 0.0
C1072 C 0.79268 0.26077 0.21927 0.0
C1073 C 0.80114 0.27974 0.22236 0.0
C1074 C 0.81709 0.29135 0.20938 0.0
C1075 C 0.77739 0.24799 0.23537 0.0
C1076 C 0.76166 0.23388 0.22436 0.0
C1077 C 0.77893 0.24859 0.26141 0.0
C1078 C 0.79551 0.26246 0.27428 0.0
C1079 C 0.79439 0.27436 0.29129 0.0
C1080 C 0.81004 0.28753 0.30337 0.0
C1081 C 0.82685 0.28882 0.29868 0.0
C1082 C 0.82804 0.27689 0.282 0.0
C1083 C 0.81244 0.26369 0.26991 0.0
H1084 H 0.83895 0.29903 0.30803 0.0
H1085 H 0.69275 0.16396 0.19109 0.0
H1086 H 0.51557 0.82286 0.20473 0.0
H1087 H 0.50484 0.79316 0.22442 0.0
H1088 H 0.5565 0.79685 0.20894 0.0
H1089 H 0.56701 0.826 0.18876 0.0
H1090 H 0.53088 0.76343 0.20282 0.0
H1091 H 0.54623 0.8097 0.26586 0.0
H1092 H 0.54318 0.83367 0.28742 0.0
H1093 H 0.48685 0.79571 0.30204 0.0
H1094 H 0.48954 0.77156 0.28031 0.0
H1095 H 0.54418 0.72977 0.3265 0.0
H1096 H 0.53962 0.75168 0.3032 0.0
H1097 H 0.50152 0.7087 0.2556 0.0
H1098 H 0.50645 0.68664 0.27851 0.0
H1099 H 0.51366 0.75833 0.29113 0.0
H1100 H 0.5079 0.72523 0.19682 0.0
H1101 H 0.51547 0.70371 0.17674 0.0
H1102 H 0.55988 0.71925 0.22715 0.0
H1103 H 0.55269 0.74099 0.24731 0.0
C1104 C 0.52451 0.81718 0.20522 0.0
C1105 C 0.54221 0.82688 0.19537 0.0
C1106 C 0.51839 0.80025 0.21657 0.0
C1107 C 0.52995 0.79286 0.21849 0.0
C1108 C 0.54729 0.8022 0.20769 0.0
C1109 C 0.55333 0.81897 0.19622 0.0
C1110 C 0.52476 0.77607 0.23297 0.0
C1111 C 0.52684 0.7622 0.22203 0.0
C1112 C 0.51962 0.77444 0.25811 0.0
C1113 C 0.51802 0.78891 0.27122 0.0
C1114 C 0.53317 0.80651 0.27354 0.0
C1115 C 0.53151 0.82012 0.2858 0.0
C1116 C 0.51482 0.81623 0.29602 0.0
C1117 C 0.49976 0.79871 0.29406 0.0
C1118 C 0.50134 0.78506 0.28178 0.0
C1119 C 0.53461 0.72487 0.31131 0.0
C1120 C 0.52592 0.70649 0.30412 0.0
C1121 C 0.53194 0.73744 0.29805 0.0
C1122 C 0.52047 0.73193 0.27736 0.0
C1123 C 0.5107 0.71334 0.27123 0.0
C1124 C 0.51348 0.70073 0.28439 0.0
C1125 C 0.5203 0.74598 0.26114 0.0
C1126 C 0.51716 0.75929 0.27172 0.0
C1127 C 0.52503 0.7474 0.23585 0.0
C1128 C 0.52959 0.73452 0.22375 0.0
C1129 C 0.51929 0.72405 0.20357 0.0
C1130 C 0.52352 0.71183 0.19218 0.0
C1131 C 0.5381 0.71006 0.20073 0.0
C1132 C 0.54854 0.72058 0.22061 0.0
C1133 C 0.54439 0.73284 0.23203 0.0
H1134 H 0.54134 0.70057 0.19191 0.0
H1135 H 0.51356 0.82679 0.3055 0.0
H1136 H 0.73447 0.56097 0.17008 0.0
H1137 H 0.75569 0.55232 0.18643 0.0
H1138 H 0.71194 0.50735 0.22532 0.0
H1139 H 0.69044 0.51632 0.20937 0.0
H1140 H 0.74018 0.52519 0.25491 0.0
H1141 H 0.73296 0.49963 0.17554 0.0
H1142 H 0.73032 0.49785 0.13023 0.0
H1143 H 0.78505 0.54245 0.1235 0.0
H1144 H 0.78794 0.5447 0.16877 0.0
H1145 H 0.81718 0.51511 0.29209 0.0
H1146 H 0.78729 0.50621 0.27378 0.0
H1147 H 0.81196 0.55507 0.22969 0.0
H1148 H 0.84147 0.564 0.24774 0.0
H1149 H 0.78792 0.52433 0.20298 0.0
H1150 H 0.79069 0.55345 0.28263 0.0
H1151 H 0.79289 0.55513 0.32802 0.0
H1152 H 0.74558 0.50195 0.33354 0.0
H1153 H 0.74324 0.49989 0.28814 0.0
C1154 C 0.72923 0.5491 0.18187 0.0
C1155 C 0.71072 0.53934 0.1884 0.0
C1156 C 0.74141 0.54407 0.19109 0.0
C1157 C 0.73541 0.52897 0.20679 0.0
C1158 C 0.71687 0.51897 0.21311 0.0
C1159 C 0.7046 0.52408 0.20393 0.0
C1160 C 0.74895 0.52472 0.21771 0.0
C1161 C 0.75031 0.52446 0.24351 0.0
C1162 C 0.7622 0.52373 0.20293 0.0
C1163 C 0.76064 0.52234 0.17562 0.0
C1164 C 0.74441 0.50912 0.16442 0.0
C1165 C 0.74287 0.50803 0.13872 0.0
C1166 C 0.75751 0.52004 0.124 0.0
C1167 C 0.77373 0.53315 0.13493 0.0
C1168 C 0.77534 0.53431 0.16062 0.0
C1169 C 0.81618 0.52384 0.27836 0.0
C1170 C 0.83166 0.54031 0.27147 0.0
C1171 C 0.79913 0.51876 0.26796 0.0
C1172 C 0.79743 0.53 0.25039 0.0
C1173 C 0.81297 0.54615 0.24312 0.0
C1174 C 0.82984 0.55129 0.25361 0.0
C1175 C 0.77956 0.52576 0.23998 0.0
C1176 C 0.7774 0.5244 0.21428 0.0
C1177 C 0.76552 0.52511 0.25482 0.0
C1178 C 0.76694 0.52642 0.28205 0.0
C1179 C 0.78085 0.54206 0.29354 0.0
C1180 C 0.78211 0.5431 0.31925 0.0
C1181 C 0.76942 0.52863 0.33366 0.0
C1182 C 0.75542 0.51313 0.32237 0.0
C1183 C 0.75412 0.51202 0.29665 0.0
H1184 H 0.77041 0.52946 0.35356 0.0
H1185 H 0.75628 0.51918 0.10411 0.0
H1186 H 0.18362 0.73719 0.16003 0.0
H1187 H 0.21292 0.75878 0.1777 0.0
H1188 H 0.2109 0.71662 0.22439 0.0
H1189 H 0.18108 0.69484 0.20709 0.0
H1190 H 0.21989 0.74593 0.2506 0.0
H1191 H 0.24243 0.7352 0.17659 0.0
H1192 H 0.24428 0.73093 0.13192 0.0
H1193 H 0.2563 0.78574 0.11855 0.0
H1194 H 0.25426 0.79027 0.16309 0.0
H1195 H 0.30479 0.82164 0.29367 0.0
H1196 H 0.2845 0.79165 0.2752 0.0
H1197 H 0.26614 0.81684 0.22212 0.0
H1198 H 0.28615 0.84652 0.24025 0.0
H1199 H 0.27229 0.79091 0.20093 0.0
H1200 H 0.242 0.79764 0.27408 0.0
H1201 H 0.23968 0.8016 0.31877 0.0
H1202 H 0.24277 0.75344 0.33334 0.0
H1203 H 0.24533 0.74933 0.28872 0.0
C1204 C 0.18946 0.73237 0.17381 0.0
C1205 C 0.17996 0.71427 0.18217 0.0
C1206 C 0.20634 0.74475 0.1838 0.0
C1207 C 0.21431 0.7393 0.20215 0.0
C1208 C 0.20508 0.72112 0.21017 0.0
C1209 C 0.18806 0.70868 0.20022 0.0
C1210 C 0.23149 0.75313 0.21412 0.0
C1211 C 0.23157 0.75545 0.23978 0.0
C1212 C 0.24675 0.76563 0.20009 0.0
C1213 C 0.24814 0.76305 0.17323 0.0
C1214 C 0.24537 0.74632 0.16412 0.0
C1215 C 0.24646 0.74385 0.13881 0.0
C1216 C 0.25039 0.75805 0.12241 0.0
C1217 C 0.25327 0.77476 0.13128 0.0
C1218 C 0.25219 0.77729 0.15657 0.0
C1219 C 0.29655 0.82075 0.27791 0.0
C1220 C 0.29696 0.83642 0.26854 0.0
C1221 C 0.28496 0.80364 0.26742 0.0
C1222 C 0.27377 0.80203 0.24734 0.0
C1223 C 0.2747 0.81776 0.23753 0.0
C1224 C 0.28608 0.83473 0.24805 0.0
C1225 C 0.26021 0.78408 0.23707 0.0
C1226 C 0.26085 0.781 0.21175 0.0
C1227 C 0.24567 0.77084 0.2514 0.0
C1228 C 0.2441 0.77332 0.27814 0.0
C1229 C 0.24234 0.78799 0.28684 0.0
C1230 C 0.24095 0.79024 0.31214 0.0
C1231 C 0.24114 0.77781 0.32889 0.0
C1232 C 0.24267 0.76308 0.32036 0.0
C1233 C 0.24409 0.76078 0.29507 0.0
H1234 H 0.24006 0.77958 0.34847 0.0
H1235 H 0.25122 0.75611 0.10282 0.0
H1236 H 0.55855 0.7021 0.75448 0.0
H1237 H 0.55366 0.72529 0.77477 0.0
H1238 H 0.57334 0.75895 0.70974 0.0
H1239 H 0.57778 0.73577 0.68932 0.0
H1240 H 0.58598 0.77818 0.756 0.0
H1241 H 0.53094 0.73345 0.71394 0.0
H1242 H 0.5058 0.70232 0.70586 0.0
H1243 H 0.48865 0.69737 0.78136 0.0
H1244 H 0.51392 0.72838 0.78999 0.0
H1245 H 0.55194 0.83838 0.75723 0.0
H1246 H 0.55782 0.81407 0.7447 0.0
H1247 H 0.52934 0.78298 0.80907 0.0
H1248 H 0.52339 0.80713 0.82172 0.0
H1249 H 0.52144 0.7614 0.76836 0.0
H1250 H 0.57416 0.80642 0.81029 0.0
H1251 H 0.59936 0.83725 0.81971 0.0
H1252 H 0.62112 0.84133 0.74697 0.0
H1253 H 0.59588 0.81061 0.73698 0.0
C1254 C 0.5622 0.71465 0.74484 0.0
C1255 C 0.56851 0.71725 0.72042 0.0
C1256 C 0.55933 0.72779 0.75634 0.0
C1257 C 0.56307 0.74372 0.74362 0.0
C1258 C 0.57042 0.74675 0.71981 0.0
C1259 C 0.57291 0.73352 0.70819 0.0
C1260 C 0.55805 0.75669 0.75402 0.0
C1261 C 0.57189 0.77457 0.75867 0.0
C1262 C 0.53966 0.75176 0.75793 0.0
C1263 C 0.52447 0.73314 0.7527 0.0
C1264 C 0.52194 0.72566 0.72889 0.0
C1265 C 0.50764 0.70804 0.7242 0.0
C1266 C 0.49567 0.69785 0.74311 0.0
C1267 C 0.49796 0.70527 0.76675 0.0
C1268 C 0.51227 0.72285 0.77155 0.0
C1269 C 0.5467 0.82626 0.76853 0.0
C1270 C 0.53724 0.82471 0.7905 0.0
C1271 C 0.55015 0.81244 0.76142 0.0
C1272 C 0.54426 0.79689 0.7762 0.0
C1273 C 0.53405 0.7949 0.79747 0.0
C1274 C 0.53064 0.80873 0.80464 0.0
C1275 C 0.54938 0.78305 0.76994 0.0
C1276 C 0.53556 0.765 0.76604 0.0
C1277 C 0.56781 0.78779 0.76692 0.0
C1278 C 0.58303 0.80628 0.77281 0.0
C1279 C 0.58423 0.81395 0.79623 0.0
C1280 C 0.59854 0.8314 0.80168 0.0
C1281 C 0.61181 0.84126 0.78393 0.0
C1282 C 0.61082 0.83368 0.7607 0.0
C1283 C 0.59652 0.81624 0.75513 0.0
H1284 H 0.62288 0.85476 0.78819 0.0
H1285 H 0.48457 0.68425 0.73946 0.0
H1286 H 0.71494 0.52145 0.82121 0.0
H1287 H 0.74261 0.52308 0.80507 0.0
H1288 H 0.72831 0.53091 0.73163 0.0
H1289 H 0.70062 0.52965 0.74771 0.0
H1290 H 0.74203 0.50421 0.73862 0.0
H1291 H 0.7562 0.56632 0.75636 0.0
H1292 H 0.75731 0.59022 0.78343 0.0
H1293 H 0.79033 0.5813 0.83525 0.0
H1294 H 0.78918 0.55713 0.80862 0.0
H1295 H 0.82249 0.54054 0.67075 0.0
H1296 H 0.79455 0.53491 0.691 0.0
H1297 H 0.82012 0.54209 0.76208 0.0
H1298 H 0.84842 0.5479 0.74176 0.0
H1299 H 0.80072 0.55921 0.75995 0.0
H1300 H 0.7898 0.49992 0.74303 0.0
H1301 H 0.78891 0.47494 0.71865 0.0
H1302 H 0.75013 0.47642 0.66922 0.0
H1303 H 0.75098 0.5016 0.69312 0.0
C1304 C 0.71753 0.52329 0.80156 0.0
C1305 C 0.70566 0.52548 0.78569 0.0
C1306 C 0.73336 0.52425 0.79243 0.0
C1307 C 0.73744 0.52718 0.76725 0.0
C1308 C 0.72528 0.52862 0.75114 0.0
C1309 C 0.70955 0.52795 0.76034 0.0
C1310 C 0.75493 0.52976 0.75801 0.0
C1311 C 0.75488 0.51629 0.743 0.0
C1312 C 0.77164 0.54518 0.76473 0.0
C1313 C 0.77242 0.55978 0.78065 0.0
C1314 C 0.76355 0.56933 0.77364 0.0
C1315 C 0.76422 0.58295 0.78887 0.0
C1316 C 0.77384 0.58724 0.81108 0.0
C1317 C 0.78286 0.57794 0.81806 0.0
C1318 C 0.78221 0.56429 0.8029 0.0
C1319 C 0.8222 0.54084 0.6907 0.0
C1320 C 0.83757 0.54443 0.7047 0.0
C1321 C 0.80618 0.53758 0.70225 0.0
C1322 C 0.80515 0.5377 0.72804 0.0
C1323 C 0.82063 0.5418 0.74214 0.0
C1324 C 0.83675 0.54513 0.73053 0.0
C1325 C 0.78789 0.53384 0.73998 0.0
C1326 C 0.78794 0.54703 0.75563 0.0
C1327 C 0.77121 0.51797 0.73422 0.0
C1328 C 0.77057 0.50276 0.71978 0.0
C1329 C 0.78119 0.49502 0.72685 0.0
C1330 C 0.78067 0.48081 0.71314 0.0
C1331 C 0.7695 0.47413 0.69236 0.0
C1332 C 0.75879 0.48162 0.68531 0.0
C1333 C 0.75926 0.49585 0.69896 0.0
H1334 H 0.76912 0.46312 0.68176 0.0
H1335 H 0.77434 0.5978 0.82285 0.0
H1336 H 0.27299 0.82755 0.66624 0.0
H1337 H 0.24866 0.79874 0.68245 0.0
H1338 H 0.26645 0.81743 0.75668 0.0
H1339 H 0.29082 0.84659 0.74054 0.0
H1340 H 0.26077 0.7813 0.74399 0.0
H1341 H 0.23039 0.81645 0.74045 0.0
H1342 H 0.22042 0.83607 0.72038 0.0
H1343 H 0.19109 0.79468 0.66612 0.0
H1344 H 0.20111 0.7749 0.68567 0.0
H1345 H 0.18658 0.71265 0.80957 0.0
H1346 H 0.21107 0.74075 0.79248 0.0
H1347 H 0.18503 0.72674 0.72115 0.0
H1348 H 0.15999 0.69864 0.73847 0.0
H1349 H 0.19529 0.76055 0.73147 0.0
H1350 H 0.22454 0.72506 0.73375 0.0
H1351 H 0.23479 0.70501 0.75172 0.0
H1352 H 0.26666 0.74601 0.80528 0.0
H1353 H 0.25639 0.76623 0.78786 0.0
C1354 C 0.2717 0.82558 0.68603 0.0
C1355 C 0.28378 0.83927 0.70217 0.0
C1356 C 0.25778 0.80915 0.69522 0.0
C1357 C 0.25581 0.80606 0.7207 0.0
C1358 C 0.26782 0.81966 0.73693 0.0
C1359 C 0.28163 0.83628 0.72773 0.0
C1360 C 0.24135 0.78839 0.73017 0.0
C1361 C 0.24643 0.77681 0.74166 0.0
C1362 C 0.22274 0.78241 0.72613 0.0
C1363 C 0.21666 0.79427 0.71439 0.0
C1364 C 0.22196 0.81159 0.72411 0.0
C1365 C 0.21627 0.82273 0.71285 0.0
C1366 C 0.20517 0.81665 0.69195 0.0
C1367 C 0.1997 0.79939 0.68229 0.0
C1368 C 0.20537 0.7882 0.69347 0.0
C1369 C 0.18615 0.71537 0.79015 0.0
C1370 C 0.1714 0.70338 0.77531 0.0
C1371 C 0.20023 0.73145 0.78038 0.0
C1372 C 0.20005 0.73575 0.75544 0.0
C1373 C 0.18546 0.72366 0.74044 0.0
C1374 C 0.17121 0.70761 0.75031 0.0
C1375 C 0.21462 0.75332 0.74552 0.0
C1376 C 0.2096 0.76493 0.73386 0.0
C1377 C 0.23331 0.75922 0.7491 0.0
C1378 C 0.23955 0.7471 0.75962 0.0
C1379 C 0.23362 0.72975 0.74948 0.0
C1380 C 0.23945 0.71836 0.75955 0.0
C1381 C 0.25133 0.72422 0.77966 0.0
C1382 C 0.25744 0.74149 0.78971 0.0
C1383 C 0.25163 0.75293 0.77973 0.0
H1384 H 0.25584 0.71538 0.78743 0.0
H1385 H 0.20077 0.82529 0.68326 0.0
H1386 H 0.43078 0.29287 0.73746 0.0
H1387 H 0.43197 0.2673 0.75683 0.0
H1388 H 0.42872 0.24375 0.68518 0.0
H1389 H 0.42789 0.26933 0.66573 0.0
H1390 H 0.40679 0.21815 0.7244 0.0
H1391 H 0.46779 0.26688 0.70532 0.0
H1392 H 0.49255 0.29885 0.70679 0.0
H1393 H 0.49301 0.29659 0.78588 0.0
H1394 H 0.46799 0.26466 0.78488 0.0
H1395 H 0.43917 0.15745 0.75124 0.0
H1396 H 0.43462 0.18109 0.73223 0.0
H1397 H 0.45197 0.21232 0.79963 0.0
H1398 H 0.45708 0.18917 0.81832 0.0
H1399 H 0.46608 0.23414 0.76272 0.0
H1400 H 0.40613 0.1859 0.78313 0.0
H1401 H 0.3802 0.15447 0.78319 0.0
H1402 H 0.37651 0.15598 0.70434 0.0
H1403 H 0.40259 0.18736 0.70378 0.0
C1404 C 0.42999 0.28206 0.72594 0.0
C1405 C 0.42939 0.28307 0.70015 0.0
C1406 C 0.43069 0.26753 0.73697 0.0
C1407 C 0.43051 0.25378 0.72233 0.0
C1408 C 0.42884 0.25425 0.69671 0.0
C1409 C 0.42847 0.26889 0.68567 0.0
C1410 C 0.4337 0.23976 0.73341 0.0
C1411 C 0.41976 0.22154 0.73264 0.0
C1412 C 0.45056 0.24439 0.74443 0.0
C1413 C 0.46589 0.26345 0.74504 0.0
C1414 C 0.47307 0.27324 0.72304 0.0
C1415 C 0.48716 0.29136 0.72378 0.0
C1416 C 0.49432 0.29978 0.74642 0.0
C1417 C 0.48743 0.29006 0.76836 0.0
C1418 C 0.4733 0.27195 0.76771 0.0
C1419 C 0.44212 0.16943 0.76189 0.0
C1420 C 0.44849 0.17148 0.78623 0.0
C1421 C 0.43941 0.18286 0.75109 0.0
C1422 C 0.44269 0.19835 0.76466 0.0
C1423 C 0.44937 0.20051 0.7888 0.0
C1424 C 0.45228 0.18725 0.79946 0.0
C1425 C 0.43909 0.21232 0.75393 0.0
C1426 C 0.45303 0.23062 0.75463 0.0
C1427 C 0.42213 0.20775 0.74311 0.0
C1428 C 0.40643 0.1889 0.74339 0.0
C1429 C 0.39988 0.17948 0.76579 0.0
C1430 C 0.38514 0.16168 0.76591 0.0
C1431 C 0.37675 0.15321 0.74378 0.0
C1432 C 0.38304 0.16255 0.72147 0.0
C1433 C 0.39779 0.18034 0.72124 0.0
H1434 H 0.36534 0.13944 0.74392 0.0
H1435 H 0.50522 0.3138 0.74697 0.0
H1436 H 0.1457 0.43602 0.74747 0.0
H1437 H 0.17402 0.44093 0.7668 0.0
H1438 H 0.19218 0.43165 0.69678 0.0
H1439 H 0.16419 0.42701 0.67738 0.0
H1440 H 0.19963 0.41537 0.73845 0.0
H1441 H 0.20644 0.47285 0.71056 0.0
H1442 H 0.19703 0.496 0.70862 0.0
H1443 H 0.20293 0.50299 0.78716 0.0
H1444 H 0.2122 0.47967 0.78957 0.0
H1445 H 0.29442 0.4556 0.75282 0.0
H1446 H 0.26455 0.44845 0.73698 0.0
H1447 H 0.25398 0.46896 0.80412 0.0
H1448 H 0.2839 0.47658 0.81973 0.0
H1449 H 0.24149 0.47864 0.7664 0.0
H1450 H 0.23672 0.42292 0.79468 0.0
H1451 H 0.24501 0.39894 0.79749 0.0
H1452 H 0.23415 0.38764 0.72023 0.0
H1453 H 0.22602 0.41173 0.71688 0.0
C1454 C 0.1556 0.43466 0.73638 0.0
C1455 C 0.1529 0.43127 0.71095 0.0
C1456 C 0.17173 0.43752 0.74738 0.0
C1457 C 0.18514 0.43675 0.7331 0.0
C1458 C 0.18194 0.43227 0.70805 0.0
C1459 C 0.16602 0.42971 0.69701 0.0
C1460 C 0.20318 0.44211 0.74355 0.0
C1461 C 0.20886 0.4292 0.74446 0.0
C1462 C 0.21498 0.46009 0.75173 0.0
C1463 C 0.20982 0.47439 0.75028 0.0
C1464 C 0.20562 0.47924 0.72744 0.0
C1465 C 0.20031 0.4924 0.72625 0.0
C1466 C 0.1993 0.50092 0.74777 0.0
C1467 C 0.20369 0.49635 0.77051 0.0
C1468 C 0.20899 0.48318 0.7718 0.0
C1469 C 0.28582 0.45881 0.76404 0.0
C1470 C 0.29147 0.46658 0.78754 0.0
C1471 C 0.26872 0.4546 0.75506 0.0
C1472 C 0.25689 0.45782 0.76961 0.0
C1473 C 0.26284 0.46629 0.79262 0.0
C1474 C 0.27998 0.47065 0.8015 0.0
C1475 C 0.23812 0.4519 0.76123 0.0
C1476 C 0.23228 0.46474 0.76064 0.0
C1477 C 0.22611 0.43378 0.75353 0.0
C1478 C 0.23093 0.41924 0.75549 0.0
C1479 C 0.23623 0.41541 0.77825 0.0
C1480 C 0.24088 0.40178 0.77995 0.0
C1481 C 0.24015 0.3918 0.75904 0.0
C1482 C 0.23473 0.39539 0.7364 0.0
C1483 C 0.23008 0.40902 0.7346 0.0
H1484 H 0.24375 0.38126 0.76039 0.0
H1485 H 0.19517 0.51109 0.74683 0.0
H1486 H 0.8467 0.27054 0.77707 0.0
H1487 H 0.82157 0.24073 0.76454 0.0
H1488 H 0.78312 0.25818 0.78324 0.0
H1489 H 0.80813 0.28756 0.79662 0.0
H1490 H 0.77184 0.22656 0.80167 0.0
H1491 H 0.79471 0.25318 0.72185 0.0
H1492 H 0.81783 0.26787 0.68922 0.0
H1493 H 0.8266 0.22219 0.68822 0.0
H1494 H 0.80368 0.20732 0.72108 0.0
H1495 H 0.69577 0.17049 0.72573 0.0
H1496 H 0.72305 0.1948 0.74556 0.0
H1497 H 0.74709 0.1604 0.74628 0.0
H1498 H 0.71942 0.13574 0.72695 0.0
H1499 H 0.76736 0.19695 0.72105 0.0
H1500 H 0.73984 0.169 0.79796 0.0
H1501 H 0.71493 0.15509 0.82835 0.0
H1502 H 0.71305 0.2047 0.83216 0.0
H1503 H 0.73777 0.21883 0.8015 0.0
C1504 C 0.83287 0.26802 0.7781 0.0
C1505 C 0.82924 0.28119 0.78795 0.0
C1506 C 0.81853 0.25102 0.77097 0.0
C1507 C 0.80042 0.24718 0.77295 0.0
C1508 C 0.79694 0.26071 0.78184 0.0
C1509 C 0.81122 0.27751 0.78944 0.0
C1510 C 0.78496 0.22896 0.76664 0.0
C1511 C 0.77085 0.22018 0.78395 0.0
C1512 C 0.78386 0.22032 0.74384 0.0
C1513 C 0.79766 0.22925 0.72413 0.0
C1514 C 0.80168 0.24634 0.71481 0.0
C1515 C 0.81473 0.25468 0.69625 0.0
C1516 C 0.82372 0.246 0.68671 0.0
C1517 C 0.81965 0.22892 0.69567 0.0
C1518 C 0.80663 0.22053 0.71425 0.0
C1519 C 0.70672 0.16801 0.73069 0.0
C1520 C 0.70566 0.15139 0.72499 0.0
C1521 C 0.72223 0.18184 0.74199 0.0
C1522 C 0.73699 0.17931 0.74729 0.0
C1523 C 0.73573 0.16248 0.74236 0.0
C1524 C 0.71998 0.14845 0.73153 0.0
C1525 C 0.75421 0.19498 0.75579 0.0
C1526 C 0.76861 0.20326 0.73891 0.0
C1527 C 0.75541 0.20335 0.77873 0.0
C1528 C 0.74059 0.19493 0.79729 0.0
C1529 C 0.73402 0.1769 0.80511 0.0
C1530 C 0.71995 0.16898 0.82243 0.0
C1531 C 0.71239 0.17899 0.83215 0.0
C1532 C 0.71892 0.19696 0.82461 0.0
C1533 C 0.73297 0.20494 0.80729 0.0
H1534 H 0.7015 0.17284 0.84555 0.0
H1535 H 0.83381 0.25248 0.67234 0.0
H1536 H 0.48642 0.15406 0.10731 0.0
H1537 H 0.4977 0.1632 0.0651 0.0
H1538 H 0.47056 0.10675 0.04305 0.0
H1539 H 0.45985 0.09755 0.08489 0.0
H1540 H 0.50175 0.12418 0.02023 0.0
H1541 H 0.45103 0.1344 0.03562 0.0
H1542 H 0.43523 0.1481 0.05737 0.0
H1543 H 0.4789 0.20159 0.0395 0.0
H1544 H 0.49505 0.18818 0.01786 0.0
H1545 H 0.47037 0.12003 0.89742 0.0
H1546 H 0.47598 0.11807 0.94125 0.0
H1547 H 0.51011 0.17646 0.94452 0.0
H1548 H 0.5047 0.17861 0.90088 0.0
H1549 H 0.48214 0.16328 0.97771 0.0
H1550 H 0.52902 0.15106 0.95386 0.0
H1551 H 0.54279 0.1359 0.9308 0.0
H1552 H 0.50448 0.08459 0.96313 0.0
H1553 H 0.49028 0.09938 0.98611 0.0
C1554 C 0.48303 0.14362 0.09349 0.0
C1555 C 0.47207 0.12509 0.09944 0.0
C1556 C 0.48947 0.14885 0.0694 0.0
C1557 C 0.48478 0.13565 0.05085 0.0
C1558 C 0.47443 0.11718 0.05703 0.0
C1559 C 0.46819 0.11195 0.08103 0.0
C1560 C 0.48926 0.14077 0.02459 0.0
C1561 C 0.49748 0.13273 0.01089 0.0
C1562 C 0.48405 0.15225 0.01251 0.0
C1563 C 0.47434 0.16031 0.02543 0.0
C1564 C 0.45731 0.14909 0.03649 0.0
C1565 C 0.44829 0.15679 0.04876 0.0
C1566 C 0.45609 0.17571 0.04989 0.0
C1567 C 0.4729 0.18695 0.03866 0.0
C1568 C 0.48199 0.1793 0.02639 0.0
C1569 C 0.4794 0.13242 0.90731 0.0
C1570 C 0.48684 0.14949 0.8957 0.0
C1571 C 0.48265 0.13127 0.93233 0.0
C1572 C 0.49343 0.14715 0.94607 0.0
C1573 C 0.50172 0.16407 0.93421 0.0
C1574 C 0.49856 0.16524 0.90925 0.0
C1575 C 0.49414 0.14626 0.97324 0.0
C1576 C 0.48685 0.15509 0.98709 0.0
C1577 C 0.49996 0.13529 0.98531 0.0
C1578 C 0.50851 0.12633 0.97161 0.0
C1579 C 0.52343 0.13652 0.95592 0.0
C1580 C 0.53134 0.128 0.94288 0.0
C1581 C 0.5245 0.10929 0.94547 0.0
C1582 C 0.50976 0.09908 0.96114 0.0
C1583 C 0.50179 0.10753 0.97421 0.0
H1584 H 0.53064 0.10272 0.93536 0.0
H1585 H 0.44908 0.18165 0.05941 0.0
H1586 H 0.33535 0.5109 0.90907 0.0
H1587 H 0.3419 0.51114 0.95264 0.0
H1588 H 0.37755 0.48984 0.93638 0.0
H1589 H 0.37043 0.48884 0.89252 0.0
H1590 H 0.35431 0.46972 0.96872 0.0
H1591 H 0.3931 0.53362 0.96228 0.0
H1592 H 0.40257 0.5652 0.95052 0.0
H1593 H 0.36015 0.56362 0.99555 0.0
H1594 H 0.35023 0.53192 0.00732 0.0
H1595 H 0.37346 0.46692 0.09317 0.0
H1596 H 0.3793 0.47973 0.05182 0.0
H1597 H 0.33317 0.48787 0.05776 0.0
H1598 H 0.32708 0.47494 0.0995 0.0
H1599 H 0.36549 0.51678 0.03153 0.0
H1600 H 0.32501 0.45118 0.03265 0.0
H1601 H 0.31649 0.41984 0.04456 0.0
H1602 H 0.36435 0.42575 0.00882 0.0
H1603 H 0.37329 0.45725 -0.00297 0.0
C1604 C 0.34491 0.50662 0.9146 0.0
C1605 C 0.35217 0.49959 0.89729 0.0
C1606 C 0.34877 0.50692 0.93963 0.0
C1607 C 0.3603 0.5006 0.94787 0.0
C1608 C 0.36856 0.49474 0.93046 0.0
C1609 C 0.36449 0.49418 0.90539 0.0
C1610 C 0.36159 0.49772 0.97462 0.0
C1611 C 0.35722 0.48021 0.98234 0.0
C1612 C 0.36491 0.51122 0.99254 0.0
C1613 C 0.37084 0.53032 0.98556 0.0
C1614 C 0.38569 0.53995 0.96954 0.0
C1615 C 0.39116 0.55789 0.9629 0.0
C1616 C 0.38195 0.5664 0.97225 0.0
C1617 C 0.36727 0.557 0.98832 0.0
C1618 C 0.36173 0.53906 0.99501 0.0
C1619 C 0.36464 0.47163 0.08593 0.0
C1620 C 0.34955 0.46956 0.09948 0.0
C1621 C 0.3681 0.47905 0.06232 0.0
C1622 C 0.35655 0.48452 0.05174 0.0
C1623 C 0.34223 0.48371 0.06573 0.0
C1624 C 0.33872 0.47624 0.08948 0.0
C1625 C 0.35815 0.48889 0.02519 0.0
C1626 C 0.36293 0.50654 0.01767 0.0
C1627 C 0.35539 0.47561 0.00733 0.0
C1628 C 0.34992 0.45662 0.0142 0.0
C1629 C 0.33379 0.44584 0.02751 0.0
C1630 C 0.32887 0.42805 0.03421 0.0
C1631 C 0.3399 0.42083 0.02751 0.0
C1632 C 0.35584 0.43137 0.01404 0.0
C1633 C 0.36083 0.44919 0.00733 0.0
H1634 H 0.33607 0.40705 0.03271 0.0
H1635 H 0.3862 0.58029 0.96708 0.0
H1636 H 0.82832 0.32763 0.90803 0.0
H1637 H 0.83438 0.33662 0.95093 0.0
H1638 H 0.89139 0.37139 0.93431 0.0
H1639 H 0.88552 0.36183 0.89111 0.0
H1640 H 0.88813 0.35044 0.97011 0.0
H1641 H 0.86309 0.38842 0.95496 0.0
H1642 H 0.84126 0.39723 0.93948 0.0
H1643 H 0.79973 0.35759 0.98672 0.0
H1644 H 0.82123 0.34834 0.00225 0.0
H1645 H 0.90821 0.37705 0.09286 0.0
H1646 H 0.9011 0.38084 0.0506 0.0
H1647 H 0.84811 0.33297 0.0575 0.0
H1648 H 0.85514 0.32887 0.10013 0.0
H1649 H 0.85118 0.36478 0.02712 0.0
H1650 H 0.87655 0.32456 0.0365 0.0
H1651 H 0.89939 0.31719 0.05223 0.0
H1652 H 0.94176 0.36384 0.01495 0.0
H1653 H 0.91917 0.37164 -0.00068 0.0
C1654 C 0.84214 0.33745 0.91328 0.0
C1655 C 0.85649 0.34382 0.89612 0.0
C1656 C 0.84555 0.34274 0.93791 0.0
C1657 C 0.86332 0.35481 0.9459 0.0
C1658 C 0.87755 0.36204 0.92856 0.0
C1659 C 0.87418 0.35657 0.90387 0.0
C1660 C 0.86723 0.35781 0.97268 0.0
C1661 C 0.88031 0.35402 0.98241 0.0
C1662 C 0.85679 0.36209 0.98892 0.0
C1663 C 0.84377 0.3676 0.97966 0.0
C1664 C 0.84927 0.38148 0.96193 0.0
C1665 C 0.83696 0.38657 0.95316 0.0
C1666 C 0.81912 0.37796 0.96208 0.0
C1667 C 0.81356 0.36425 0.97983 0.0
C1668 C 0.82581 0.3591 0.98865 0.0
C1669 C 0.89488 0.36745 0.08565 0.0
C1670 C 0.88237 0.35239 0.09969 0.0
C1671 C 0.89083 0.36975 0.06153 0.0
C1672 C 0.8742 0.35708 0.05098 0.0
C1673 C 0.86102 0.34289 0.06547 0.0
C1674 C 0.86509 0.34052 0.08974 0.0
C1675 C 0.87181 0.35721 0.02407 0.0
C1676 C 0.85908 0.36151 0.01452 0.0
C1677 C 0.88268 0.35361 0.00785 0.0
C1678 C 0.89622 0.3488 0.01699 0.0
C1679 C 0.89076 0.33333 0.03184 0.0
C1680 C 0.90365 0.32906 0.04071 0.0
C1681 C 0.92202 0.34007 0.03466 0.0
C1682 C 0.92753 0.35534 0.01966 0.0
C1683 C 0.91469 0.35969 0.01079 0.0
H1684 H 0.93198 0.33674 0.04154 0.0
H1685 H 0.8096 0.38192 0.95527 0.0
H1686 H 0.55233 0.91678 0.08685 0.0
H1687 H 0.54044 0.90913 0.04521 0.0
H1688 H 0.51144 0.8521 0.06432 0.0
H1689 H 0.52383 0.85965 0.10622 0.0
H1690 H 0.52858 0.8567 0.02301 0.0
H1691 H 0.48896 0.87667 0.05325 0.0
H1692 H 0.48014 0.89686 0.07438 0.0
H1693 H 0.51084 0.93921 0.02188 0.0
H1694 H 0.52006 0.91937 0.00063 0.0
H1695 H 0.48838 0.83304 0.9067 0.0
H1696 H 0.4886 0.83917 0.95061 0.0
H1697 H 0.52951 0.89524 0.93863 0.0
H1698 H 0.52952 0.88926 0.89442 0.0
H1699 H 0.50216 0.88868 0.9771 0.0
H1700 H 0.54469 0.86915 0.95125 0.0
H1701 H 0.55274 0.84836 0.93014 0.0
H1702 H 0.51478 0.80408 0.97553 0.0
H1703 H 0.5063 0.82458 -0.00335 0.0
C1704 C 0.54329 0.90259 0.08238 0.0
C1705 C 0.53905 0.88881 0.09992 0.0
C1706 C 0.53636 0.89825 0.05853 0.0
C1707 C 0.52476 0.88007 0.05172 0.0
C1708 C 0.52029 0.86624 0.06923 0.0
C1709 C 0.5274 0.87057 0.09314 0.0
C1710 C 0.5186 0.87557 0.02578 0.0
C1711 C 0.5224 0.8634 0.0132 0.0
C1712 C 0.51086 0.88456 0.01276 0.0
C1713 C 0.5053 0.89655 0.02543 0.0
C1714 C 0.49394 0.89033 0.0463 0.0
C1715 C 0.48885 0.90171 0.05829 0.0
C1716 C 0.49495 0.91931 0.0495 0.0
C1717 C 0.50612 0.92557 0.02867 0.0
C1718 C 0.51127 0.91425 0.01662 0.0
C1719 C 0.49717 0.8468 0.91322 0.0
C1720 C 0.50924 0.86059 0.89711 0.0
C1721 C 0.4972 0.85026 0.93834 0.0
C1722 C 0.50926 0.86755 0.94779 0.0
C1723 C 0.52013 0.88179 0.93157 0.0
C1724 C 0.52015 0.87833 0.90634 0.0
C1725 C 0.51233 0.87004 0.97465 0.0
C1726 C 0.50803 0.88183 0.98723 0.0
C1727 C 0.51947 0.86061 0.9878 0.0
C1728 C 0.52471 0.84834 0.97531 0.0
C1729 C 0.53795 0.85495 0.95657 0.0
C1730 C 0.54261 0.84323 0.94463 0.0
C1731 C 0.53423 0.8249 0.95144 0.0
C1732 C 0.52123 0.81827 0.97025 0.0
C1733 C 0.51649 0.82993 0.98221 0.0
H1734 H 0.53786 0.81584 0.94217 0.0
H1735 H 0.491 0.9281 0.05881 0.0
H1736 H 0.61686 0.51928 0.09983 0.0
H1737 H 0.61188 0.5059 0.05867 0.0
H1738 H 0.66996 0.52922 0.0497 0.0
H1739 H 0.67477 0.5415 0.09158 0.0
H1740 H 0.61949 0.52105 0.01833 0.0
H1741 H 0.6814 0.50899 0.0074 0.0
H1742 H 0.69794 0.49769 0.03247 0.0
H1743 H 0.65105 0.46841 0.07886 0.0
H1744 H 0.63413 0.47931 0.05388 0.0
H1745 H 0.64981 0.53274 0.89659 0.0
H1746 H 0.64322 0.53203 0.94043 0.0
H1747 H 0.63285 0.47678 0.9449 0.0
H1748 H 0.64061 0.47794 0.90124 0.0
H1749 H 0.65314 0.49359 0.9798 0.0
H1750 H 0.5982 0.48893 0.95299 0.0
H1751 H 0.57766 0.49568 0.92884 0.0
H1752 H 0.6029 0.5495 0.95965 0.0
H1753 H 0.62378 0.54318 0.98373 0.0
C1754 C 0.62849 0.52115 0.0892 0.0
C1755 C 0.64619 0.53136 0.09872 0.0
C1756 C 0.62566 0.51358 0.06566 0.0
C1757 C 0.6405 0.51645 0.05098 0.0
C1758 C 0.65821 0.52636 0.06079 0.0
C1759 C 0.66099 0.53348 0.08466 0.0
C1760 C 0.63763 0.51053 0.02476 0.0
C1761 C 0.62669 0.51485 0.00998 0.0
C1762 C 0.64649 0.50187 0.01388 0.0
C1763 C 0.65653 0.49508 0.02883 0.0
C1764 C 0.67457 0.50005 0.02286 0.0
C1765 C 0.68403 0.49374 0.03708 0.0
C1766 C 0.67557 0.48238 0.05728 0.0
C1767 C 0.65761 0.47726 0.06326 0.0
C1768 C 0.64809 0.48352 0.04909 0.0
C1769 C 0.64572 0.52031 0.90682 0.0
C1770 C 0.64576 0.50542 0.89562 0.0
C1771 C 0.64186 0.51986 0.93191 0.0
C1772 C 0.63735 0.50427 0.94607 0.0
C1773 C 0.63638 0.489 0.93447 0.0
C1774 C 0.64072 0.48963 0.90952 0.0
C1775 C 0.63548 0.50467 0.97328 0.0
C1776 C 0.64559 0.49939 0.98823 0.0
C1777 C 0.62519 0.51167 0.98449 0.0
C1778 C 0.61263 0.51559 0.97009 0.0
C1779 C 0.59946 0.50225 0.95451 0.0
C1780 C 0.58774 0.50599 0.94084 0.0
C1781 C 0.58899 0.52302 0.94269 0.0
C1782 C 0.60194 0.53632 0.95825 0.0
C1783 C 0.6137 0.53265 0.97194 0.0
H1784 H 0.57991 0.52589 0.93209 0.0
H1785 H 0.68292 0.47752 0.06828 0.0
H1786 H 0.11477 0.64804 0.89009 0.0
H1787 H 0.11157 0.64348 0.93463 0.0
H1788 H 0.15781 0.63513 0.93569 0.0
H1789 H 0.16172 0.64088 0.89128 0.0
H1790 H 0.10568 0.6203 0.96747 0.0
H1791 H 0.18273 0.65292 0.98689 0.0
H1792 H 0.21213 0.67434 0.96749 0.0
H1793 H 0.18677 0.6998 0.92836 0.0
H1794 H 0.15729 0.67869 0.94775 0.0
H1795 H 0.10954 0.61916 0.09598 0.0
H1796 H 0.11637 0.615 0.05343 0.0
H1797 H 0.1457 0.67334 0.04332 0.0
H1798 H 0.13997 0.67746 0.0864 0.0
H1799 H 0.1608 0.66048 0.01654 0.0
H1800 H 0.09837 0.64454 0.02862 0.0
H1801 H 0.06774 0.62791 0.04716 0.0
H1802 H 0.06174 0.57725 0.02162 0.0
H1803 H 0.09245 0.59358 0.00318 0.0
C1804 C 0.12402 0.64487 0.89977 0.0
C1805 C 0.13863 0.64504 0.8874 0.0
C1806 C 0.12219 0.64227 0.92525 0.0
C1807 C 0.13475 0.63944 0.93867 0.0
C1808 C 0.14831 0.63787 0.92588 0.0
C1809 C 0.15045 0.641 0.90051 0.0
C1810 C 0.13442 0.63964 0.96605 0.0
C1811 C 0.11778 0.62898 0.97819 0.0
C1812 C 0.15011 0.65122 0.98012 0.0
C1813 C 0.16779 0.66408 0.96852 0.0
C1814 C 0.18346 0.66312 0.97418 0.0
C1815 C 0.20012 0.6752 0.96319 0.0
C1816 C 0.2013 0.68837 0.94663 0.0
C1817 C 0.18583 0.68955 0.94111 0.0
C1818 C 0.16914 0.67752 0.95208 0.0
C1819 C 0.11786 0.63106 0.08477 0.0
C1820 C 0.12415 0.64861 0.09423 0.0
C1821 C 0.12163 0.62869 0.06044 0.0
C1822 C 0.13104 0.64383 0.04489 0.0
C1823 C 0.13834 0.66142 0.05488 0.0
C1824 C 0.13507 0.6638 0.07947 0.0
C1825 C 0.13198 0.64143 0.01789 0.0
C1826 C 0.14876 0.65159 0.00585 0.0
C1827 C 0.11623 0.63009 0.00378 0.0
C1828 C 0.09777 0.62025 0.01479 0.0
C1829 C 0.09056 0.62984 0.02711 0.0
C1830 C 0.07318 0.62048 0.03757 0.0
C1831 C 0.06282 0.60153 0.03563 0.0
C1832 C 0.0698 0.59192 0.02315 0.0
C1833 C 0.08718 0.60122 0.01269 0.0
H1834 H 0.04937 0.59431 0.04374 0.0
H1835 H 0.21421 0.69769 0.93812 0.0
H1836 H 0.84827 0.49288 0.59135 0.0
H1837 H 0.8512 0.48768 0.5477 0.0
H1838 H 0.89653 0.54255 0.54149 0.0
H1839 H 0.89423 0.54734 0.58549 0.0
H1840 H 0.84488 0.502 0.51185 0.0
H1841 H 0.92287 0.5485 0.49351 0.0
H1842 H 0.95194 0.55651 0.51383 0.0
H1843 H 0.92572 0.50637 0.55448 0.0
H1844 H 0.89656 0.49794 0.53416 0.0
H1845 H 0.86359 0.53907 0.39226 0.0
H1846 H 0.85833 0.5301 0.43566 0.0
H1847 H 0.8896 0.5029 0.42727 0.0
H1848 H 0.89574 0.51286 0.38432 0.0
H1849 H 0.90173 0.52286 0.46406 0.0
H1850 H 0.84186 0.4795 0.44039 0.0
H1851 H 0.81203 0.46729 0.42001 0.0
H1852 H 0.80061 0.50293 0.46306 0.0
H1853 H 0.83049 0.51555 0.48347 0.0
C1854 C 0.85918 0.50362 0.58074 0.0
C1855 C 0.87105 0.5205 0.59166 0.0
C1856 C 0.86078 0.50068 0.5558 0.0
C1857 C 0.87407 0.51469 0.54119 0.0
C1858 C 0.88641 0.53135 0.55238 0.0
C1859 C 0.88509 0.53413 0.57753 0.0
C1860 C 0.87386 0.51255 0.51398 0.0
C1861 C 0.8573 0.50637 0.50141 0.0
C1862 C 0.88992 0.51775 0.50029 0.0
C1863 C 0.90748 0.52265 0.51241 0.0
C1864 C 0.92332 0.53913 0.50668 0.0
C1865 C 0.93981 0.54376 0.51823 0.0
C1866 C 0.94067 0.53198 0.53548 0.0
C1867 C 0.92503 0.51551 0.54117 0.0
C1868 C 0.90851 0.51082 0.52967 0.0
C1869 C 0.86887 0.53074 0.39958 0.0
C1870 C 0.88008 0.52667 0.38514 0.0
C1871 C 0.86584 0.52556 0.42438 0.0
C1872 C 0.87354 0.51575 0.43484 0.0
C1873 C 0.88365 0.51057 0.41976 0.0
C1874 C 0.88705 0.51615 0.39521 0.0
C1875 C 0.87282 0.51275 0.46191 0.0
C1876 C 0.88924 0.51808 0.47447 0.0
C1877 C 0.85651 0.50609 0.47556 0.0
C1878 C 0.83849 0.49855 0.46336 0.0
C1879 C 0.83305 0.48483 0.4454 0.0
C1880 C 0.81612 0.47781 0.43386 0.0
C1881 C 0.80445 0.48435 0.44021 0.0
C1882 C 0.80967 0.49788 0.45816 0.0
C1883 C 0.82659 0.50495 0.46975 0.0
H1884 H 0.79135 0.4789 0.43125 0.0
H1885 H 0.95344 0.53559 0.54441 0.0
H1886 H 0.34089 0.8997 0.58913 0.0
H1887 H 0.34783 0.90176 0.545 0.0
H1888 H 0.36292 0.86036 0.55311 0.0
H1889 H 0.35505 0.85764 0.59688 0.0
H1890 H 0.37366 0.90839 0.51419 0.0
H1891 H 0.34696 0.83107 0.50561 0.0
H1892 H 0.32657 0.80259 0.52778 0.0
H1893 H 0.29686 0.82697 0.55765 0.0
H1894 H 0.31691 0.85549 0.5354 0.0
H1895 H 0.38311 0.89675 0.38957 0.0
H1896 H 0.38482 0.89177 0.43366 0.0
H1897 H 0.32612 0.86203 0.43759 0.0
H1898 H 0.32444 0.86617 0.39318 0.0
H1899 H 0.33878 0.84925 0.47057 0.0
H1900 H 0.35153 0.90906 0.44682 0.0
H1901 H 0.3676 0.93816 0.42424 0.0
H1902 H 0.41791 0.94997 0.45874 0.0
H1903 H 0.40215 0.9208 0.48126 0.0
C1904 C 0.34619 0.89145 0.58156 0.0
C1905 C 0.34727 0.87839 0.59616 0.0
C1906 C 0.35011 0.89257 0.55636 0.0
C1907 C 0.35539 0.88082 0.54563 0.0
C1908 C 0.35836 0.86917 0.56085 0.0
C1909 C 0.35402 0.86774 0.58585 0.0
C1910 C 0.35601 0.87948 0.51841 0.0
C1911 C 0.36618 0.89544 0.50468 0.0
C1912 C 0.34586 0.86263 0.50591 0.0
C1913 C 0.33357 0.84546 0.51908 0.0
C1914 C 0.33603 0.83032 0.51685 0.0
C1915 C 0.32455 0.81418 0.52943 0.0
C1916 C 0.31048 0.813 0.54419 0.0
C1917 C 0.30781 0.82793 0.54629 0.0
C1918 C 0.31923 0.84408 0.53371 0.0
C1919 C 0.37061 0.88856 0.39974 0.0
C1920 C 0.35365 0.88193 0.38819 0.0
C1921 C 0.37158 0.88586 0.42492 0.0
C1922 C 0.3556 0.87708 0.43906 0.0
C1923 C 0.33864 0.86898 0.42708 0.0
C1924 C 0.33767 0.87129 0.40171 0.0
C1925 C 0.35648 0.87815 0.46637 0.0
C1926 C 0.34655 0.86215 0.48011 0.0
C1927 C 0.36624 0.89507 0.47885 0.0
C1928 C 0.37571 0.91267 0.4655 0.0
C1929 C 0.36604 0.91782 0.44947 0.0
C1930 C 0.37509 0.93432 0.43669 0.0
C1931 C 0.39377 0.94588 0.44 0.0
C1932 C 0.40344 0.94098 0.45616 0.0
C1933 C 0.39446 0.92447 0.46893 0.0
H1934 H 0.40076 0.95865 0.4301 0.0
H1935 H 0.30162 0.8005 0.55394 0.0
H1936 H 0.46803 0.3685 0.60027 0.0
H1937 H 0.47628 0.38035 0.55819 0.0
H1938 H 0.48549 0.3361 0.53951 0.0
H1939 H 0.47813 0.32475 0.58142 0.0
H1940 H 0.50832 0.36454 0.51484 0.0
H1941 H 0.44327 0.33403 0.53052 0.0
H1942 H 0.41555 0.32932 0.5519 0.0
H1943 H 0.42785 0.3833 0.53194 0.0
H1944 H 0.45577 0.38838 0.51067 0.0
H1945 H 0.4722 0.33764 0.3929 0.0
H1946 H 0.48221 0.34218 0.43599 0.0
H1947 H 0.48112 0.39247 0.43803 0.0
H1948 H 0.47117 0.3881 0.39522 0.0
H1949 H 0.45839 0.36754 0.47157 0.0
H1950 H 0.52048 0.39384 0.44697 0.0
H1951 H 0.54654 0.39579 0.42415 0.0
H1952 H 0.53818 0.34673 0.45899 0.0
H1953 H 0.51188 0.34432 0.48177 0.0
C1954 C 0.47211 0.3615 0.58727 0.0
C1955 C 0.47212 0.34551 0.59409 0.0
C1956 C 0.47682 0.36827 0.56325 0.0
C1957 C 0.48112 0.35888 0.54554 0.0
C1958 C 0.48221 0.34359 0.55278 0.0
C1959 C 0.47785 0.33703 0.57681 0.0
C1960 C 0.48255 0.36354 0.51897 0.0
C1961 C 0.49742 0.36522 0.50534 0.0
C1962 C 0.46847 0.36471 0.5066 0.0
C1963 C 0.4517 0.36166 0.51931 0.0
C1964 C 0.44011 0.34492 0.53085 0.0
C1965 C 0.42437 0.34219 0.54292 0.0
C1966 C 0.41998 0.35603 0.54335 0.0
C1967 C 0.4313 0.37261 0.53165 0.0
C1968 C 0.44708 0.37543 0.51958 0.0
C1969 C 0.47462 0.34992 0.40231 0.0
C1970 C 0.47053 0.3623 0.39084 0.0
C1971 C 0.4804 0.35254 0.42689 0.0
C1972 C 0.48229 0.36762 0.44018 0.0
C1973 C 0.47966 0.38072 0.42811 0.0
C1974 C 0.4739 0.37813 0.40366 0.0
C1975 C 0.48397 0.36817 0.46735 0.0
C1976 C 0.46956 0.36736 0.48108 0.0
C1977 C 0.49828 0.36744 0.4796 0.0
C1978 C 0.51411 0.36884 0.46597 0.0
C1979 C 0.52409 0.38338 0.44963 0.0
C1980 C 0.53893 0.38459 0.43672 0.0
C1981 C 0.54399 0.37138 0.44009 0.0
C1982 C 0.53424 0.35695 0.4564 0.0
C1983 C 0.51938 0.35568 0.46934 0.0
H1984 H 0.55549 0.37234 0.43008 0.0
H1985 H 0.40779 0.35388 0.55271 0.0
H1986 H 0.15587 0.47333 0.58724 0.0
H1987 H 0.15166 0.48053 0.54542 0.0
H1988 H 0.09604 0.46522 0.56214 0.0
H1989 H 0.09998 0.45732 0.60427 0.0
H1990 H 0.09705 0.4494 0.52218 0.0
H1991 H 0.12952 0.51056 0.54919 0.0
H1992 H 0.15374 0.53787 0.5698 0.0
H1993 H 0.1935 0.53794 0.52069 0.0
H1994 H 0.16957 0.51047 0.5 0.0
H1995 H 0.08619 0.46881 0.40059 0.0
H1996 H 0.09122 0.47592 0.44439 0.0
H1997 H 0.14254 0.47705 0.4401 0.0
H1998 H 0.13764 0.46987 0.39599 0.0
H1999 H 0.14134 0.50348 0.47438 0.0
H2000 H 0.10845 0.43884 0.45349 0.0
H2001 H 0.08375 0.41185 0.43288 0.0
H2002 H 0.04395 0.41959 0.47163 0.0
H2003 H 0.06845 0.44681 0.49219 0.0
C2004 C 0.14276 0.47168 0.58225 0.0
C2005 C 0.1282 0.4646 0.59912 0.0
C2006 C 0.14044 0.47602 0.55829 0.0
C2007 C 0.12363 0.47373 0.55069 0.0
C2008 C 0.10918 0.46719 0.56766 0.0
C2009 C 0.11143 0.46264 0.5917 0.0
C2010 C 0.12075 0.47619 0.52433 0.0
C2011 C 0.10648 0.46146 0.51193 0.0
C2012 C 0.13324 0.49179 0.51077 0.0
C2013 C 0.14773 0.50836 0.52312 0.0
C2014 C 0.14344 0.51631 0.54289 0.0
C2015 C 0.15712 0.53184 0.55457 0.0
C2016 C 0.17515 0.53962 0.54658 0.0
C2017 C 0.17953 0.5319 0.52686 0.0
C2018 C 0.1659 0.51636 0.51511 0.0
C2019 C 0.09875 0.47092 0.40877 0.0
C2020 C 0.11134 0.46836 0.39493 0.0
C2021 C 0.10162 0.47508 0.43379 0.0
C2022 C 0.11709 0.47672 0.44543 0.0
C2023 C 0.1305 0.47581 0.43132 0.0
C2024 C 0.12764 0.47163 0.40618 0.0
C2025 C 0.11792 0.47662 0.4726 0.0
C2026 C 0.13177 0.49169 0.48495 0.0
C2027 C 0.10497 0.46143 0.48626 0.0
C2028 C 0.09026 0.44496 0.47414 0.0
C2029 C 0.09443 0.43486 0.45746 0.0
C2030 C 0.08047 0.41952 0.44581 0.0
C2031 C 0.06229 0.41404 0.45089 0.0
C2032 C 0.05803 0.42387 0.46768 0.0
C2033 C 0.07195 0.43925 0.47934 0.0
H2034 H 0.0515 0.40216 0.44185 0.0
H2035 H 0.18572 0.55164 0.55565 0.0
H2036 H 0.66586 0.14898 0.3966 0.0
H2037 H 0.66464 0.15949 0.43831 0.0
H2038 H 0.62502 0.10455 0.45911 0.0
H2039 H 0.62562 0.09413 0.41771 0.0
H2040 H 0.6176 0.12704 0.48221 0.0
H2041 H 0.67203 0.12271 0.46747 0.0
H2042 H 0.70075 0.13054 0.44619 0.0
H2043 H 0.72246 0.18683 0.4651 0.0
H2044 H 0.69375 0.17933 0.48627 0.0
H2045 H 0.63794 0.11224 0.60436 0.0
H2046 H 0.63204 0.11312 0.56035 0.0
H2047 H 0.66699 0.17144 0.56016 0.0
H2048 H 0.67293 0.1708 0.60396 0.0
H2049 H 0.67681 0.15397 0.52596 0.0
H2050 H 0.62347 0.15511 0.55015 0.0
H2051 H 0.59494 0.14517 0.57313 0.0
H2052 H 0.57105 0.09282 0.53806 0.0
H2053 H 0.59955 0.10232 0.51518 0.0
C2054 C 0.65666 0.13922 0.40996 0.0
C2055 C 0.6461 0.12066 0.40391 0.0
C2056 C 0.65599 0.14524 0.43378 0.0
C2057 C 0.64498 0.13274 0.45196 0.0
C2058 C 0.63362 0.11446 0.44545 0.0
C2059 C 0.63413 0.1085 0.42171 0.0
C2060 C 0.64653 0.13794 0.47833 0.0
C2061 C 0.63055 0.13298 0.4918 0.0
C2062 C 0.66345 0.146 0.49078 0.0
C2063 C 0.68069 0.15051 0.47814 0.0
C2064 C 0.68289 0.13677 0.46693 0.0
C2065 C 0.69917 0.14114 0.45492 0.0
C2066 C 0.7134 0.15918 0.45422 0.0
C2067 C 0.7114 0.17287 0.4656 0.0
C2068 C 0.69514 0.16857 0.4776 0.0
C2069 C 0.64411 0.12529 0.59508 0.0
C2070 C 0.65609 0.1414 0.60766 0.0
C2071 C 0.64065 0.12578 0.56997 0.0
C2072 C 0.64909 0.14237 0.55709 0.0
C2073 C 0.66036 0.15853 0.56981 0.0
C2074 C 0.66374 0.15808 0.59488 0.0
C2075 C 0.64785 0.14256 0.52992 0.0
C2076 C 0.66391 0.14851 0.51633 0.0
C2077 C 0.63098 0.13515 0.51751 0.0
C2078 C 0.61372 0.12941 0.53104 0.0
C2079 C 0.61218 0.14143 0.54746 0.0
C2080 C 0.596 0.13588 0.56045 0.0
C2081 C 0.5812 0.11837 0.55708 0.0
C2082 C 0.58253 0.10638 0.54066 0.0
C2083 C 0.59869 0.11186 0.52764 0.0
H2084 H 0.56869 0.1141 0.56717 0.0
H2085 H 0.72599 0.16254 0.44491 0.0
H2086 H 0.52683 0.67371 0.399 0.0
H2087 H 0.52269 0.67469 0.44359 0.0
H2088 H 0.50761 0.61816 0.44941 0.0
H2089 H 0.5119 0.61711 0.405 0.0
H2090 H 0.48933 0.62996 0.48439 0.0
H2091 H 0.54938 0.64523 0.45395 0.0
H2092 H 0.57622 0.66231 0.42722 0.0
H2093 H 0.58497 0.71269 0.45818 0.0
H2094 H 0.55798 0.69588 0.48483 0.0
H2095 H 0.55289 0.65339 0.60043 0.0
H2096 H 0.545 0.64463 0.55715 0.0
H2097 H 0.5072 0.66464 0.55909 0.0
H2098 H 0.51488 0.67334 0.60212 0.0
H2099 H 0.55077 0.66902 0.52025 0.0
H2100 H 0.47275 0.63976 0.5176 0.0
H2101 H 0.44605 0.62217 0.54439 0.0
H2102 H 0.47369 0.59797 0.58087 0.0
H2103 H 0.50044 0.6152 0.55407 0.0
C2104 C 0.52197 0.66133 0.40965 0.0
C2105 C 0.51998 0.64542 0.3987 0.0
C2106 C 0.51964 0.66191 0.43508 0.0
C2107 C 0.51508 0.64655 0.4497 0.0
C2108 C 0.51114 0.63013 0.43839 0.0
C2109 C 0.5137 0.6296 0.41307 0.0
C2110 C 0.51765 0.64837 0.47668 0.0
C2111 C 0.50269 0.63857 0.49233 0.0
C2112 C 0.5352 0.65924 0.48686 0.0
C2113 C 0.55158 0.66932 0.47117 0.0
C2114 C 0.55696 0.65996 0.45492 0.0
C2115 C 0.5722 0.66958 0.4398 0.0
C2116 C 0.58227 0.68858 0.44095 0.0
C2117 C 0.57715 0.69798 0.45728 0.0
C2118 C 0.56188 0.68841 0.4724 0.0
C2119 C 0.54268 0.65562 0.59175 0.0
C2120 C 0.53465 0.66422 0.60461 0.0
C2121 C 0.53822 0.65066 0.56705 0.0
C2122 C 0.5255 0.65397 0.55501 0.0
C2123 C 0.51691 0.66181 0.56812 0.0
C2124 C 0.52144 0.66689 0.59268 0.0
C2125 C 0.5224 0.65082 0.5282 0.0
C2126 C 0.53733 0.66041 0.51247 0.0
C2127 C 0.50484 0.63967 0.51808 0.0
C2128 C 0.48867 0.62891 0.53395 0.0
C2129 C 0.47309 0.63061 0.53124 0.0
C2130 C 0.45796 0.62072 0.54645 0.0
C2131 C 0.4582 0.609 0.56438 0.0
C2132 C 0.47355 0.6071 0.56705 0.0
C2133 C 0.48871 0.61695 0.55187 0.0
H2134 H 0.44648 0.60138 0.57616 0.0
H2135 H 0.59407 0.69601 0.42924 0.0
H2136 H 0.48994 0.08268 0.18792 0.0
H2137 H 0.5167 0.08455 0.20735 0.0
H2138 H 0.52939 0.13568 0.2409 0.0
H2139 H 0.50246 0.13393 0.22156 0.0
H2140 H 0.55291 0.10947 0.2039 0.0
H2141 H 0.54672 0.13594 0.29896 0.0
H2142 H 0.52326 0.13612 0.32574 0.0
H2143 H 0.48245 0.08616 0.2929 0.0
H2144 H 0.5057 0.08558 0.26617 0.0
H2145 H 0.63015 0.12706 0.27863 0.0
H2146 H 0.60673 0.13099 0.2577 0.0
H2147 H 0.56486 0.08225 0.29256 0.0
H2148 H 0.58798 0.0782 0.3135 0.0
H2149 H 0.55751 0.11008 0.29516 0.0
H2150 H 0.57585 0.08089 0.234 0.0
H2151 H 0.59787 0.07806 0.20731 0.0
H2152 H 0.61191 0.12886 0.17239 0.0
H2153 H 0.59012 0.1321 0.19912 0.0
C2154 C 0.49838 0.09437 0.1994 0.0
C2155 C 0.49396 0.10812 0.20328 0.0
C2156 C 0.51376 0.09545 0.21036 0.0
C2157 C 0.52499 0.11021 0.2256 0.0
C2158 C 0.52082 0.12411 0.22931 0.0
C2159 C 0.50543 0.12309 0.21823 0.0
C2160 C 0.54064 0.11055 0.2382 0.0
C2161 C 0.55402 0.10978 0.22385 0.0
C2162 C 0.54198 0.11078 0.26421 0.0
C2163 C 0.52791 0.11086 0.28038 0.0
C2164 C 0.53274 0.12498 0.29751 0.0
C2165 C 0.51949 0.12515 0.31268 0.0
C2166 C 0.50137 0.1112 0.31095 0.0
C2167 C 0.49648 0.097 0.29414 0.0
C2168 C 0.50969 0.09676 0.27896 0.0
C2169 C 0.61596 0.11716 0.28181 0.0
C2170 C 0.61097 0.10229 0.29772 0.0
C2171 C 0.60261 0.11944 0.26983 0.0
C2172 C 0.58408 0.10691 0.27361 0.0
C2173 C 0.57909 0.09213 0.28951 0.0
C2174 C 0.59236 0.08979 0.30135 0.0
C2175 C 0.56973 0.1089 0.26086 0.0
C2176 C 0.5566 0.11012 0.2752 0.0
C2177 C 0.56848 0.1088 0.23485 0.0
C2178 C 0.58153 0.10684 0.21875 0.0
C2179 C 0.58375 0.09153 0.22077 0.0
C2180 C 0.59616 0.08984 0.20561 0.0
C2181 C 0.60633 0.1033 0.18822 0.0
C2182 C 0.60405 0.11846 0.18591 0.0
C2183 C 0.59167 0.12023 0.20104 0.0
H2184 H 0.61593 0.10197 0.1765 0.0
H2185 H 0.49112 0.11136 0.32269 0.0
H2186 H 0.48487 0.62075 0.29051 0.0
H2187 H 0.45763 0.59595 0.27097 0.0
H2188 H 0.48167 0.56161 0.2741 0.0
H2189 H 0.50874 0.5861 0.29369 0.0
H2190 H 0.46609 0.56132 0.22811 0.0
H2191 H 0.45127 0.55576 0.3153 0.0
H2192 H 0.44694 0.56699 0.35525 0.0
H2193 H 0.40628 0.57666 0.32307 0.0
H2194 H 0.41057 0.56572 0.28281 0.0
H2195 H 0.39667 0.47233 0.20898 0.0
H2196 H 0.42094 0.49978 0.22804 0.0
H2197 H 0.38637 0.52362 0.22883 0.0
H2198 H 0.36173 0.49591 0.21022 0.0
H2199 H 0.40611 0.53191 0.27027 0.0
H2200 H 0.41856 0.53538 0.18424 0.0
H2201 H 0.42264 0.5247 0.14371 0.0
H2202 H 0.46753 0.52028 0.17211 0.0
H2203 H 0.46354 0.53067 0.21293 0.0
C2204 C 0.48437 0.60794 0.28691 0.0
C2205 C 0.49893 0.60536 0.29373 0.0
C2206 C 0.46879 0.59379 0.27586 0.0
C2207 C 0.46766 0.57696 0.27124 0.0
C2208 C 0.48231 0.57451 0.27753 0.0
C2209 C 0.49774 0.58851 0.28882 0.0
C2210 C 0.4512 0.56169 0.26003 0.0
C2211 C 0.45299 0.55481 0.23736 0.0
C2212 C 0.43401 0.55363 0.27179 0.0
C2213 C 0.4314 0.56014 0.29598 0.0
C2214 C 0.44153 0.56044 0.31669 0.0
C2215 C 0.43906 0.56672 0.3394 0.0
C2216 C 0.42639 0.57259 0.34168 0.0
C2217 C 0.41612 0.57215 0.32126 0.0
C2218 C 0.41856 0.5659 0.2985 0.0
C2219 C 0.39413 0.48333 0.21336 0.0
C2220 C 0.37732 0.482 0.2078 0.0
C2221 C 0.40807 0.49906 0.22417 0.0
C2222 C 0.40562 0.51392 0.22928 0.0
C2223 C 0.38859 0.51236 0.22485 0.0
C2224 C 0.37453 0.49651 0.21421 0.0
C2225 C 0.42109 0.5312 0.23857 0.0
C2226 C 0.41913 0.53852 0.26082 0.0
C2227 C 0.43811 0.53982 0.22629 0.0
C2228 C 0.44066 0.53368 0.20171 0.0
C2229 C 0.42922 0.53201 0.18189 0.0
C2230 C 0.43153 0.52603 0.15886 0.0
C2231 C 0.44531 0.52179 0.15535 0.0
C2232 C 0.45685 0.52356 0.17486 0.0
C2233 C 0.45458 0.52952 0.19794 0.0
H2234 H 0.44708 0.51715 0.1375 0.0
H2235 H 0.42449 0.57744 0.35928 0.0
H2236 H 0.92813 0.51799 0.28154 0.0
H2237 H 0.92518 0.49039 0.2633 0.0
H2238 H 0.86695 0.46719 0.25905 0.0
H2239 H 0.86977 0.49497 0.27742 0.0
H2240 H 0.87807 0.44349 0.27952 0.0
H2241 H 0.88966 0.48033 0.20764 0.0
H2242 H 0.90573 0.50828 0.18268 0.0
H2243 H 0.95497 0.50575 0.18712 0.0
H2244 H 0.93926 0.47792 0.21241 0.0
H2245 H 0.87082 0.36853 0.20822 0.0
H2246 H 0.86801 0.39384 0.22486 0.0
H2247 H 0.92648 0.42798 0.22376 0.0
H2248 H 0.92936 0.40296 0.20656 0.0
H2249 H 0.91147 0.44518 0.20352 0.0
H2250 H 0.9014 0.41056 0.27817 0.0
H2251 H 0.88633 0.38326 0.30454 0.0
H2252 H 0.83537 0.38203 0.29623 0.0
H2253 H 0.85011 0.4092 0.26953 0.0
C2254 C 0.91467 0.5071 0.27663 0.0
C2255 C 0.89917 0.50869 0.28094 0.0
C2256 C 0.91303 0.49134 0.26613 0.0
C2257 C 0.89586 0.4768 0.25974 0.0
C2258 C 0.88032 0.4783 0.26386 0.0
C2259 C 0.88197 0.4942 0.27419 0.0
C2260 C 0.89439 0.45999 0.24923 0.0
C2261 C 0.88505 0.44371 0.26264 0.0
C2262 C 0.90384 0.46046 0.22751 0.0
C2263 C 0.9133 0.4771 0.21206 0.0
C2264 C 0.90394 0.4858 0.20343 0.0
C2265 C 0.91299 0.50161 0.1892 0.0
C2266 C 0.93137 0.50881 0.18335 0.0
C2267 C 0.94073 0.50017 0.19167 0.0
C2268 C 0.93176 0.48436 0.20592 0.0
C2269 C 0.88309 0.38135 0.21187 0.0
C2270 C 0.90031 0.38375 0.20596 0.0
C2271 C 0.88146 0.39581 0.22141 0.0
C2272 C 0.89704 0.41283 0.22559 0.0
C2273 C 0.91425 0.41502 0.22051 0.0
C2274 C 0.91588 0.40067 0.21076 0.0
C2275 C 0.89555 0.42869 0.23414 0.0
C2276 C 0.9043 0.44482 0.22028 0.0
C2277 C 0.88568 0.42809 0.25554 0.0
C2278 C 0.87681 0.41178 0.27162 0.0
C2279 C 0.88695 0.40438 0.2818 0.0
C2280 C 0.87847 0.38895 0.29684 0.0
C2281 C 0.85989 0.38088 0.30199 0.0
C2282 C 0.84976 0.38827 0.29218 0.0
C2283 C 0.85817 0.40369 0.27711 0.0
H2284 H 0.85335 0.36893 0.31364 0.0
H2285 H 0.93835 0.52105 0.17234 0.0
H2286 H 0.52668 0.93042 0.20735 0.0
H2287 H 0.49918 0.92729 0.22631 0.0
H2288 H 0.4749 0.86887 0.22572 0.0
H2289 H 0.50273 0.87188 0.20731 0.0
H2290 H 0.45244 0.88345 0.20597 0.0
H2291 H 0.48621 0.88598 0.27762 0.0
H2292 H 0.51296 0.89784 0.30494 0.0
H2293 H 0.51389 0.94879 0.31084 0.0
H2294 H 0.4873 0.93734 0.2832 0.0
H2295 H 0.37695 0.87409 0.27826 0.0
H2296 H 0.40193 0.87089 0.26109 0.0
H2297 H 0.4385 0.9285 0.27075 0.0
H2298 H 0.41385 0.93175 0.28832 0.0
H2299 H 0.45353 0.91012 0.28784 0.0
H2300 H 0.42178 0.90888 0.21339 0.0
H2301 H 0.39528 0.89751 0.18563 0.0
H2302 H 0.39086 0.84481 0.18433 0.0
H2303 H 0.41721 0.85581 0.21236 0.0
C2304 C 0.51562 0.9169 0.21149 0.0
C2305 C 0.51699 0.90142 0.20601 0.0
C2306 C 0.49989 0.91514 0.22227 0.0
C2307 C 0.48508 0.89786 0.22744 0.0
C2308 C 0.48624 0.88232 0.22186 0.0
C2309 C 0.50216 0.88409 0.21146 0.0
C2310 C 0.46837 0.89627 0.23839 0.0
C2311 C 0.4525 0.88893 0.22407 0.0
C2312 C 0.46868 0.90377 0.26177 0.0
C2313 C 0.48482 0.91083 0.27818 0.0
C2314 C 0.49222 0.89978 0.28453 0.0
C2315 C 0.50733 0.90641 0.30013 0.0
C2316 C 0.51509 0.92404 0.30965 0.0
C2317 C 0.50782 0.93511 0.3035 0.0
C2318 C 0.49273 0.92856 0.28787 0.0
C2319 C 0.39028 0.8861 0.27648 0.0
C2320 C 0.39342 0.90316 0.28477 0.0
C2321 C 0.40454 0.88425 0.26664 0.0
C2322 C 0.4221 0.89947 0.2646 0.0
C2323 C 0.42511 0.91655 0.27231 0.0
C2324 C 0.41096 0.91838 0.2823 0.0
C2325 C 0.4376 0.89771 0.25519 0.0
C2326 C 0.45331 0.90442 0.26984 0.0
C2327 C 0.43714 0.88973 0.23205 0.0
C2328 C 0.42132 0.88311 0.2152 0.0
C2329 C 0.41506 0.89482 0.20735 0.0
C2330 C 0.40009 0.88845 0.19153 0.0
C2331 C 0.39136 0.87043 0.18328 0.0
C2332 C 0.39762 0.85875 0.19078 0.0
C2333 C 0.41257 0.86505 0.20662 0.0
H2334 H 0.37977 0.86553 0.17104 0.0
H2335 H 0.52672 0.9291 0.32183 0.0
H2336 H 0.58861 0.52161 0.19374 0.0
H2337 H 0.56334 0.49469 0.21207 0.0
H2338 H 0.59908 0.47379 0.22955 0.0
H2339 H 0.62473 0.50091 0.21101 0.0
H2340 H 0.56527 0.44773 0.20799 0.0
H2341 H 0.58685 0.49115 0.27466 0.0
H2342 H 0.59695 0.52153 0.29235 0.0
H2343 H 0.5447 0.5158 0.27683 0.0
H2344 H 0.53435 0.48547 0.25875 0.0
H2345 H 0.4987 0.37752 0.28486 0.0
H2346 H 0.52624 0.40246 0.26657 0.0
H2347 H 0.49903 0.43368 0.25835 0.0
H2348 H 0.47177 0.40912 0.27753 0.0
H2349 H 0.53058 0.4543 0.27707 0.0
H2350 H 0.50897 0.41318 0.20844 0.0
H2351 H 0.49824 0.38406 0.18662 0.0
H2352 H 0.54894 0.38616 0.20183 0.0
H2353 H 0.55989 0.4152 0.22404 0.0
C2354 C 0.59122 0.51138 0.20153 0.0
C2355 C 0.60877 0.5135 0.20101 0.0
C2356 C 0.57671 0.49598 0.21202 0.0
C2357 C 0.57939 0.48234 0.22232 0.0
C2358 C 0.59679 0.48422 0.2217 0.0
C2359 C 0.61142 0.49975 0.21124 0.0
C2360 C 0.56385 0.46625 0.23383 0.0
C2361 C 0.55784 0.44903 0.22341 0.0
C2362 C 0.55393 0.46816 0.25343 0.0
C2363 C 0.55986 0.48606 0.26526 0.0
C2364 C 0.57752 0.49638 0.27498 0.0
C2365 C 0.5833 0.5136 0.28506 0.0
C2366 C 0.57148 0.5206 0.28568 0.0
C2367 C 0.55383 0.51035 0.27635 0.0
C2368 C 0.54799 0.49313 0.26623 0.0
C2369 C 0.49852 0.3896 0.27883 0.0
C2370 C 0.48307 0.39137 0.28267 0.0
C2371 C 0.51427 0.40385 0.26833 0.0
C2372 C 0.51472 0.41996 0.26094 0.0
C2373 C 0.49908 0.42146 0.26404 0.0
C2374 C 0.48346 0.40737 0.2749 0.0
C2375 C 0.53168 0.43561 0.25103 0.0
C2376 C 0.53802 0.45283 0.2618 0.0
C2377 C 0.54171 0.43372 0.23148 0.0
C2378 C 0.53516 0.41626 0.21814 0.0
C2379 C 0.51777 0.40736 0.20731 0.0
C2380 C 0.51166 0.39088 0.19483 0.0
C2381 C 0.52288 0.38324 0.1929 0.0
C2382 C 0.54025 0.39208 0.20338 0.0
C2383 C 0.54642 0.40856 0.2159 0.0
H2384 H 0.51812 0.37048 0.18323 0.0
H2385 H 0.576 0.53396 0.29339 0.0
H2386 H 0.07709 0.59386 0.19966 0.0
H2387 H 0.08009 0.57018 0.22079 0.0
H2388 H 0.13815 0.6059 0.22608 0.0
H2389 H 0.13529 0.62993 0.20481 0.0
H2390 H 0.12731 0.56997 0.20888 0.0
H2391 H 0.11521 0.59868 0.27636 0.0
H2392 H 0.09905 0.61185 0.29837 0.0
H2393 H 0.04964 0.56013 0.29645 0.0
H2394 H 0.06544 0.5467 0.2741 0.0
H2395 H 0.13032 0.50243 0.28648 0.0
H2396 H 0.13501 0.53103 0.26873 0.0
H2397 H 0.07687 0.5091 0.26634 0.0
H2398 H 0.07211 0.48082 0.28455 0.0
H2399 H 0.09271 0.54178 0.28559 0.0
H2400 H 0.10291 0.51405 0.21399 0.0
H2401 H 0.11785 0.50031 0.1903 0.0
H2402 H 0.16946 0.54929 0.19853 0.0
H2403 H 0.15484 0.56324 0.22255 0.0
C2404 C 0.09053 0.59678 0.20534 0.0
C2405 C 0.10596 0.61382 0.20055 0.0
C2406 C 0.0922 0.58322 0.21749 0.0
C2407 C 0.10932 0.58635 0.22511 0.0
C2408 C 0.12481 0.60328 0.22036 0.0
C2409 C 0.12314 0.61699 0.20834 0.0
C2410 C 0.11075 0.57165 0.23772 0.0
C2411 C 0.12009 0.56401 0.22595 0.0
C2412 C 0.10103 0.56374 0.25971 0.0
C2413 C 0.09151 0.57171 0.27342 0.0
C2414 C 0.10087 0.59014 0.28049 0.0
C2415 C 0.09178 0.59765 0.29305 0.0
C2416 C 0.07332 0.58684 0.29878 0.0
C2417 C 0.06394 0.56849 0.29201 0.0
C2418 C 0.07297 0.56091 0.27942 0.0
C2419 C 0.11854 0.50366 0.28195 0.0
C2420 C 0.10084 0.48939 0.28706 0.0
C2421 C 0.12125 0.52001 0.27178 0.0
C2422 C 0.10628 0.52221 0.2662 0.0
C2423 C 0.08862 0.50778 0.27069 0.0
C2424 C 0.08592 0.49158 0.28105 0.0
C2425 C 0.10878 0.53965 0.25636 0.0
C2426 C 0.10019 0.54786 0.26873 0.0
C2427 C 0.11905 0.54795 0.23482 0.0
C2428 C 0.12783 0.5396 0.22032 0.0
C2429 C 0.11747 0.52183 0.21092 0.0
C2430 C 0.12587 0.51402 0.1974 0.0
C2431 C 0.1446 0.5239 0.19299 0.0
C2432 C 0.15496 0.54164 0.20201 0.0
C2433 C 0.14662 0.54951 0.21556 0.0
H2434 H 0.15108 0.51783 0.18252 0.0
H2435 H 0.0663 0.59268 0.30849 0.0
H2436 H 0.49095 0.85977 0.75903 0.0
H2437 H 0.46584 0.8618 0.74005 0.0
H2438 H 0.43043 0.82994 0.79969 0.0
H2439 H 0.45511 0.82682 0.81759 0.0
H2440 H 0.41198 0.81967 0.76181 0.0
H2441 H 0.45237 0.87908 0.79372 0.0
H2442 H 0.4814 0.90776 0.7993 0.0
H2443 H 0.4822 0.91989 0.7223 0.0
H2444 H 0.45346 0.89107 0.71611 0.0
H2445 H 0.3654 0.87678 0.72642 0.0
H2446 H 0.3897 0.87433 0.74725 0.0
H2447 H 0.38078 0.83032 0.69858 0.0
H2448 H 0.35605 0.83216 0.67852 0.0
H2449 H 0.42069 0.87916 0.73376 0.0
H2450 H 0.38999 0.80071 0.72552 0.0
H2451 H 0.35979 0.77288 0.72535 0.0
H2452 H 0.33739 0.80068 0.76578 0.0
H2453 H 0.36749 0.82859 0.7665 0.0
C2454 C 0.47773 0.85308 0.76789 0.0
C2455 C 0.47491 0.84311 0.78971 0.0
C2456 C 0.46343 0.85439 0.75719 0.0
C2457 C 0.44627 0.84637 0.76868 0.0
C2458 C 0.44347 0.83624 0.79038 0.0
C2459 C 0.45759 0.83446 0.80063 0.0
C2460 C 0.43115 0.84837 0.75818 0.0
C2461 C 0.41394 0.83272 0.75576 0.0
C2462 C 0.43348 0.86544 0.7507 0.0
C2463 C 0.45084 0.88279 0.7544 0.0
C2464 C 0.45883 0.88777 0.77792 0.0
C2465 C 0.47526 0.90406 0.78119 0.0
C2466 C 0.48371 0.91559 0.76114 0.0
C2467 C 0.47573 0.91089 0.73779 0.0
C2468 C 0.45937 0.89458 0.73439 0.0
C2469 C 0.36857 0.86651 0.7203 0.0
C2470 C 0.3587 0.85454 0.70101 0.0
C2471 C 0.38249 0.86516 0.73215 0.0
C2472 C 0.38691 0.85196 0.72476 0.0
C2473 C 0.37732 0.84029 0.7051 0.0
C2474 C 0.36321 0.8414 0.69358 0.0
C2475 C 0.40167 0.85047 0.73733 0.0
C2476 C 0.41879 0.86617 0.74 0.0
C2477 C 0.3991 0.83359 0.74596 0.0
C2478 C 0.38097 0.81679 0.74585 0.0
C2479 C 0.37864 0.80086 0.73446 0.0
C2480 C 0.36153 0.78507 0.73425 0.0
C2481 C 0.34667 0.78503 0.74548 0.0
C2482 C 0.3489 0.80075 0.75702 0.0
C2483 C 0.36597 0.81656 0.7573 0.0
H2484 H 0.33344 0.7728 0.74528 0.0
H2485 H 0.49642 0.9282 0.7637 0.0
H2486 H 0.61265 0.48163 0.78331 0.0
H2487 H 0.58539 0.4557 0.76622 0.0
H2488 H 0.60865 0.42128 0.77833 0.0
H2489 H 0.63605 0.44716 0.79552 0.0
H2490 H 0.59215 0.41633 0.73205 0.0
H2491 H 0.57774 0.41832 0.81721 0.0
H2492 H 0.57509 0.43293 0.85508 0.0
H2493 H 0.53738 0.44507 0.81888 0.0
H2494 H 0.54002 0.43077 0.78065 0.0
H2495 H 0.50962 0.33492 0.70651 0.0
H2496 H 0.53701 0.35753 0.72797 0.0
H2497 H 0.51619 0.39472 0.72855 0.0
H2498 H 0.48858 0.37204 0.70792 0.0
H2499 H 0.53206 0.39672 0.77062 0.0
H2500 H 0.54787 0.39747 0.6851 0.0
H2501 H 0.55084 0.38417 0.64612 0.0
H2502 H 0.58599 0.36824 0.68156 0.0
H2503 H 0.58304 0.38124 0.72086 0.0
C2504 C 0.61206 0.46859 0.78225 0.0
C2505 C 0.62652 0.46647 0.79092 0.0
C2506 C 0.59642 0.45377 0.77257 0.0
C2507 C 0.59494 0.43655 0.77132 0.0
C2508 C 0.60953 0.43446 0.77926 0.0
C2509 C 0.62514 0.44926 0.78911 0.0
C2510 C 0.57806 0.42073 0.76192 0.0
C2511 C 0.57903 0.41182 0.74068 0.0
C2512 C 0.56095 0.41514 0.77296 0.0
C2513 C 0.5592 0.4236 0.796 0.0
C2514 C 0.56899 0.42423 0.81726 0.0
C2515 C 0.56747 0.43244 0.83881 0.0
C2516 C 0.5561 0.43996 0.83937 0.0
C2517 C 0.54619 0.43925 0.81841 0.0
C2518 C 0.54768 0.43108 0.79681 0.0
C2519 C 0.51079 0.34784 0.71142 0.0
C2520 C 0.49694 0.3517 0.70534 0.0
C2521 C 0.52651 0.3608 0.72357 0.0
C2522 C 0.52882 0.37796 0.72946 0.0
C2523 C 0.51475 0.38159 0.72416 0.0
C2524 C 0.49896 0.36859 0.71229 0.0
C2525 C 0.54605 0.39241 0.74046 0.0
C2526 C 0.54517 0.40109 0.76205 0.0
C2527 C 0.56323 0.39791 0.72959 0.0
C2528 C 0.56507 0.39014 0.70597 0.0
C2529 C 0.55612 0.39101 0.68462 0.0
C2530 C 0.55782 0.38355 0.66246 0.0
C2531 C 0.56855 0.37532 0.66138 0.0
C2532 C 0.57765 0.37459 0.68244 0.0
C2533 C 0.57598 0.38201 0.70465 0.0
H2534 H 0.56985 0.36955 0.64421 0.0
H2535 H 0.55495 0.44632 0.85607 0.0
H2536 H 0.1862 0.63775 0.78339 0.0
H2537 H 0.1863 0.61093 0.76698 0.0
H2538 H 0.12779 0.58292 0.7609 0.0
H2539 H 0.1275 0.60964 0.77721 0.0
H2540 H 0.14102 0.56252 0.78448 0.0
H2541 H 0.15259 0.5985 0.71051 0.0
H2542 H 0.16921 0.62612 0.68505 0.0
H2543 H 0.21809 0.62314 0.69198 0.0
H2544 H 0.20181 0.59562 0.71779 0.0
H2545 H 0.12038 0.48682 0.71072 0.0
H2546 H 0.12431 0.51481 0.72875 0.0
H2547 H 0.18261 0.53955 0.72182 0.0
H2548 H 0.17877 0.51166 0.70279 0.0
H2549 H 0.17219 0.56245 0.70704 0.0
H2550 H 0.1611 0.52587 0.77855 0.0
H2551 H 0.14525 0.49837 0.8044 0.0
H2552 H 0.09695 0.50274 0.80365 0.0
H2553 H 0.11242 0.53014 0.7775 0.0
C2554 C 0.17335 0.62594 0.77842 0.0
C2555 C 0.15683 0.62585 0.78165 0.0
C2556 C 0.17345 0.61065 0.769 0.0
C2557 C 0.15706 0.59499 0.76274 0.0
C2558 C 0.14058 0.59489 0.7657 0.0
C2559 C 0.14046 0.61021 0.77491 0.0
C2560 C 0.15698 0.57849 0.75363 0.0
C2561 C 0.14767 0.56242 0.76743 0.0
C2562 C 0.16626 0.57862 0.73188 0.0
C2563 C 0.17603 0.59513 0.71631 0.0
C2564 C 0.16693 0.60383 0.70679 0.0
C2565 C 0.17628 0.61945 0.69226 0.0
C2566 C 0.19471 0.62641 0.68697 0.0
C2567 C 0.20382 0.61775 0.69614 0.0
C2568 C 0.19453 0.60213 0.7107 0.0
C2569 C 0.13409 0.49813 0.71316 0.0
C2570 C 0.14928 0.49693 0.7054 0.0
C2571 C 0.13631 0.51413 0.72361 0.0
C2572 C 0.15377 0.5292 0.72702 0.0
C2573 C 0.169 0.52806 0.71944 0.0
C2574 C 0.16679 0.51208 0.70869 0.0
C2575 C 0.15593 0.54629 0.73767 0.0
C2576 C 0.16567 0.56253 0.72423 0.0
C2577 C 0.14721 0.54636 0.75992 0.0
C2578 C 0.1379 0.53001 0.77592 0.0
C2579 C 0.14706 0.52092 0.78378 0.0
C2580 C 0.13815 0.50535 0.7985 0.0
C2581 C 0.12009 0.4988 0.80562 0.0
C2582 C 0.11093 0.50783 0.79811 0.0
C2583 C 0.11978 0.5234 0.78337 0.0
H2584 H 0.11321 0.48673 0.81701 0.0
H2585 H 0.20193 0.63851 0.67571 0.0
H2586 H 0.61486 0.11811 0.71339 0.0
H2587 H 0.58892 0.12028 0.72881 0.0
H2588 H 0.62336 0.17826 0.73803 0.0
H2589 H 0.6494 0.17627 0.72269 0.0
H2590 H 0.6 0.16196 0.77742 0.0
H2591 H 0.59709 0.16305 0.68897 0.0
H2592 H 0.59634 0.15173 0.64685 0.0
H2593 H 0.54707 0.10214 0.6639 0.0
H2594 H 0.54767 0.11307 0.70627 0.0
H2595 H 0.53227 0.18637 0.78963 0.0
H2596 H 0.55784 0.1842 0.7729 0.0
H2597 H 0.52272 0.12658 0.76118 0.0
H2598 H 0.49697 0.1286 0.77763 0.0
H2599 H 0.54636 0.14251 0.72296 0.0
H2600 H 0.54921 0.14113 0.81128 0.0
H2601 H 0.54991 0.15216 0.85357 0.0
H2602 H 0.59921 0.20186 0.83702 0.0
H2603 H 0.59866 0.19123 0.79449 0.0
C2604 C 0.61699 0.13131 0.71895 0.0
C2605 C 0.6342 0.14704 0.71665 0.0
C2606 C 0.60212 0.13252 0.72762 0.0
C2607 C 0.60421 0.14946 0.73422 0.0
C2608 C 0.62148 0.16507 0.73292 0.0
C2609 C 0.63633 0.1639 0.72409 0.0
C2610 C 0.58829 0.15101 0.74191 0.0
C2611 C 0.58836 0.15792 0.76542 0.0
C2612 C 0.57298 0.14537 0.72638 0.0
C2613 C 0.57254 0.1388 0.70088 0.0
C2614 C 0.58618 0.14967 0.68381 0.0
C2615 C 0.58577 0.14333 0.65987 0.0
C2616 C 0.5717 0.1262 0.65272 0.0
C2617 C 0.55798 0.11539 0.66947 0.0
C2618 C 0.55834 0.12166 0.69345 0.0
C2619 C 0.52989 0.17326 0.78324 0.0
C2620 C 0.51257 0.15762 0.78522 0.0
C2621 C 0.54456 0.17204 0.77377 0.0
C2622 C 0.54222 0.15517 0.76622 0.0
C2623 C 0.52481 0.13971 0.76703 0.0
C2624 C 0.51012 0.1409 0.77649 0.0
C2625 C 0.55808 0.15351 0.75847 0.0
C2626 C 0.558 0.14656 0.73496 0.0
C2627 C 0.57337 0.15906 0.77403 0.0
C2628 C 0.57379 0.16546 0.79963 0.0
C2629 C 0.56012 0.15447 0.8166 0.0
C2630 C 0.5605 0.16064 0.84062 0.0
C2631 C 0.57457 0.17772 0.84796 0.0
C2632 C 0.58831 0.18865 0.8313 0.0
C2633 C 0.58798 0.18255 0.80724 0.0
H2634 H 0.57484 0.18247 0.86657 0.0
H2635 H 0.5714 0.12133 0.63418 0.0
H2636 H 0.38529 0.5161 0.78246 0.0
H2637 H 0.4125 0.54177 0.76489 0.0
H2638 H 0.38776 0.57535 0.77087 0.0
H2639 H 0.36036 0.54972 0.78857 0.0
H2640 H 0.40662 0.57949 0.72566 0.0
H2641 H 0.41658 0.57978 0.81323 0.0
H2642 H 0.41759 0.56603 0.85282 0.0
H2643 H 0.45791 0.55462 0.82355 0.0
H2644 H 0.45693 0.56807 0.78365 0.0
H2645 H 0.48795 0.6638 0.70828 0.0
H2646 H 0.45955 0.63942 0.72548 0.0
H2647 H 0.48377 0.60537 0.73236 0.0
H2648 H 0.51234 0.62982 0.71598 0.0
H2649 H 0.46451 0.60207 0.77177 0.0
H2650 H 0.45448 0.60003 0.68458 0.0
H2651 H 0.45338 0.6122 0.64372 0.0
H2652 H 0.41354 0.62522 0.67035 0.0
H2653 H 0.41457 0.61333 0.71149 0.0
C2654 C 0.3855 0.52887 0.77985 0.0
C2655 C 0.37066 0.53087 0.78713 0.0
C2656 C 0.40111 0.54353 0.76986 0.0
C2657 C 0.40218 0.56047 0.76689 0.0
C2658 C 0.38717 0.56237 0.77312 0.0
C2659 C 0.37156 0.54772 0.78329 0.0
C2660 C 0.4193 0.57635 0.75821 0.0
C2661 C 0.41924 0.58464 0.73587 0.0
C2662 C 0.4358 0.5827 0.77131 0.0
C2663 C 0.43655 0.57479 0.79538 0.0
C2664 C 0.42556 0.57422 0.81518 0.0
C2665 C 0.42614 0.5665 0.83769 0.0
C2666 C 0.43778 0.55942 0.84068 0.0
C2667 C 0.44889 0.56009 0.8212 0.0
C2668 C 0.44833 0.56778 0.79864 0.0
C2669 C 0.4873 0.65118 0.71367 0.0
C2670 C 0.50245 0.64878 0.7107 0.0
C2671 C 0.471 0.63721 0.72332 0.0
C2672 C 0.46943 0.62045 0.72983 0.0
C2673 C 0.48464 0.61816 0.72741 0.0
C2674 C 0.50098 0.63217 0.71797 0.0
C2675 C 0.45195 0.60523 0.73904 0.0
C2676 C 0.45191 0.59703 0.76153 0.0
C2677 C 0.43542 0.59882 0.7259 0.0
C2678 C 0.43475 0.60597 0.70119 0.0
C2679 C 0.44559 0.60562 0.68178 0.0
C2680 C 0.44496 0.61245 0.65856 0.0
C2681 C 0.43344 0.61953 0.65447 0.0
C2682 C 0.42248 0.61976 0.67357 0.0
C2683 C 0.42307 0.61297 0.69683 0.0
H2684 H 0.43296 0.6248 0.63647 0.0
H2685 H 0.43821 0.55344 0.85812 0.0
H2686 H 0.86016 0.36077 0.75799 0.0
H2687 H 0.86109 0.3872 0.73842 0.0
H2688 H 0.82444 0.38696 0.79397 0.0
H2689 H 0.82254 0.35982 0.81246 0.0
H2690 H 0.81591 0.39567 0.7547 0.0
H2691 H 0.87298 0.41703 0.79467 0.0
H2692 H 0.90173 0.41798 0.80522 0.0
H2693 H 0.91925 0.43002 0.72984 0.0
H2694 H 0.89048 0.4289 0.71877 0.0
H2695 H 0.872 0.50042 0.72424 0.0
H2696 H 0.8695 0.47363 0.74496 0.0
H2697 H 0.82842 0.43878 0.69258 0.0
H2698 H 0.83013 0.46543 0.67283 0.0
H2699 H 0.87597 0.44871 0.73343 0.0
H2700 H 0.79867 0.3987 0.71628 0.0
H2701 H 0.7704 0.40005 0.71208 0.0
H2702 H 0.79402 0.44949 0.75431 0.0
H2703 H 0.82231 0.44827 0.75913 0.0
C2704 C 0.85218 0.36629 0.76581 0.0
C2705 C 0.84131 0.35832 0.78673 0.0
C2706 C 0.85282 0.38148 0.75476 0.0
C2707 C 0.8432 0.38942 0.76505 0.0
C2708 C 0.83201 0.38115 0.78565 0.0
C2709 C 0.83094 0.36564 0.79623 0.0
C2710 C 0.84494 0.40645 0.75461 0.0
C2711 C 0.82906 0.40727 0.75011 0.0
C2712 C 0.86211 0.42186 0.74924 0.0
C2713 C 0.8795 0.42271 0.75585 0.0
C2714 C 0.88292 0.41977 0.78032 0.0
C2715 C 0.89922 0.42035 0.78639 0.0
C2716 C 0.91228 0.42401 0.7682 0.0
C2717 C 0.9091 0.42716 0.74391 0.0
C2718 C 0.89281 0.42657 0.73772 0.0
C2719 C 0.86237 0.48701 0.71729 0.0
C2720 C 0.85111 0.48496 0.69713 0.0
C2721 C 0.86099 0.47172 0.72907 0.0
C2722 C 0.84854 0.45412 0.72063 0.0
C2723 C 0.83773 0.45214 0.69995 0.0
C2724 C 0.83877 0.46739 0.68859 0.0
C2725 C 0.84693 0.43784 0.73329 0.0
C2726 C 0.86283 0.43715 0.73815 0.0
C2727 C 0.82984 0.4229 0.74011 0.0
C2728 C 0.81268 0.42347 0.73785 0.0
C2729 C 0.79779 0.40979 0.72481 0.0
C2730 C 0.78177 0.41055 0.7223 0.0
C2731 C 0.78044 0.42488 0.73285 0.0
C2732 C 0.79509 0.43843 0.74608 0.0
C2733 C 0.81112 0.43771 0.7487 0.0
H2734 H 0.76805 0.42546 0.73082 0.0
H2735 H 0.92489 0.42443 0.77294 0.0
loop_
_geom_bond_atom_site_label_1
_geom_bond_atom_site_label_2
_geom_bond_distance
_geom_bond_site_symmetry_2
_ccdc_geom_bond_type
Mg0 O1 2.028 . S
Mg0 O7 1.986 . S
Mg0 O9 2.114 . S
Mg0 O10 2.251 . S
Mg0 O13 2.010 . S
O1 Mg0 2.028 . S
O1 C4 1.250 . S
O2 Mg3 2.028 . S
O2 C4 1.248 . S
Mg3 O2 2.028 . S
Mg3 O8 2.032 . S
Mg3 O10 2.079 . S
C4 O1 1.250 . S
C4 O2 1.248 . S
C5 O6 1.264 . S
C5 O13 1.249 . S
O6 C5 1.264 . S
O7 Mg0 1.986 . S
O7 C11 1.246 . S
O8 Mg3 2.032 . S
O8 C11 1.259 . S
O9 Mg0 2.114 . S
O9 C12 1.252 . S
O10 Mg0 2.251 . S
O10 Mg3 2.079 . S
O10 C12 1.273 . S
C11 O7 1.246 . S
C11 O8 1.259 . S
C12 O9 1.252 . S
C12 O10 1.273 . S
O13 Mg0 2.010 . S
O13 C5 1.249 . S
Mg14 O15 2.028 . S
Mg14 O21 1.986 . S
Mg14 O23 2.114 . S
Mg14 O24 2.251 . S
Mg14 O27 2.010 . S
O15 Mg14 2.028 . S
O15 C18 1.250 . S
O16 Mg17 2.028 . S
O16 C18 1.248 . S
Mg17 O16 2.028 . S
Mg17 O22 2.032 . S
Mg17 O24 2.079 . S
C18 O15 1.250 . S
C18 O16 1.248 . S
C19 O20 1.264 . S
C19 O27 1.249 . S
O20 C19 1.264 . S
O21 Mg14 1.986 . S
O21 C25 1.246 . S
O22 Mg17 2.032 . S
O22 C25 1.259 . S
O23 Mg14 2.114 . S
O23 C26 1.252 . S
O24 Mg14 2.251 . S
O24 Mg17 2.079 . S
O24 C26 1.273 . S
C25 O21 1.246 . S
C25 O22 1.259 . S
C26 O23 1.252 . S
C26 O24 1.273 . S
O27 Mg14 2.010 . S
O27 C19 1.249 . S
Mg28 O29 2.028 . S
Mg28 O35 1.986 . S
Mg28 O37 2.114 . S
Mg28 O38 2.251 . S
Mg28 O41 2.010 . S
O29 Mg28 2.028 . S
O29 C32 1.250 . S
O30 Mg31 2.028 . S
O30 C32 1.248 . S
Mg31 O30 2.028 . S
Mg31 O36 2.032 . S
Mg31 O38 2.079 . S
C32 O29 1.250 . S
C32 O30 1.248 . S
C33 O34 1.264 . S
C33 O41 1.249 . S
O34 C33 1.264 . S
O35 Mg28 1.986 . S
O35 C39 1.246 . S
O36 Mg31 2.032 . S
O36 C39 1.259 . S
O37 Mg28 2.114 . S
O37 C40 1.252 . S
O38 Mg28 2.251 . S
O38 Mg31 2.079 . S
O38 C40 1.273 . S
C39 O35 1.246 . S
C39 O36 1.259 . S
C40 O37 1.252 . S
C40 O38 1.273 . S
O41 Mg28 2.010 . S
O41 C33 1.249 . S
Mg42 O43 2.028 . S
Mg42 O49 1.986 . S
Mg42 O51 2.114 . S
Mg42 O52 2.251 . S
Mg42 O55 2.010 . S
O43 Mg42 2.028 . S
O43 C46 1.250 . S
O44 Mg45 2.028 . S
O44 C46 1.248 . S
Mg45 O44 2.028 . S
Mg45 O50 2.032 . S
Mg45 O52 2.079 . S
C46 O43 1.250 . S
C46 O44 1.248 . S
C47 O48 1.264 . S
C47 O55 1.249 . S
O48 C47 1.264 . S
O49 Mg42 1.986 . S
O49 C53 1.246 . S
O50 Mg45 2.032 . S
O50 C53 1.259 . S
O51 Mg42 2.114 . S
O51 C54 1.252 . S
O52 Mg42 2.251 . S
O52 Mg45 2.079 . S
O52 C54 1.273 . S
C53 O49 1.246 . S
C53 O50 1.259 . S
C54 O51 1.252 . S
C54 O52 1.273 . S
O55 Mg42 2.010 . S
O55 C47 1.249 . S
Mg56 O57 2.028 . S
Mg56 O63 1.986 . S
Mg56 O65 2.114 . S
Mg56 O66 2.251 . S
Mg56 O69 2.010 . S
O57 Mg56 2.028 . S
O57 C60 1.250 . S
O58 Mg59 2.028 . S
O58 C60 1.248 . S
Mg59 O58 2.028 . S
Mg59 O64 2.032 . S
Mg59 O66 2.079 . S
C60 O57 1.250 . S
C60 O58 1.248 . S
C61 O62 1.264 . S
C61 O69 1.249 . S
O62 C61 1.264 . S
O63 Mg56 1.986 . S
O63 C67 1.246 . S
O64 Mg59 2.032 . S
O64 C67 1.259 . S
O65 Mg56 2.114 . S
O65 C68 1.252 . S
O66 Mg56 2.251 . S
O66 Mg59 2.079 . S
O66 C68 1.273 . S
C67 O63 1.246 . S
C67 O64 1.259 . S
C68 O65 1.252 . S
C68 O66 1.273 . S
O69 Mg56 2.010 . S
O69 C61 1.249 . S
Mg70 O71 2.028 . S
Mg70 O77 1.986 . S
Mg70 O79 2.114 . S
Mg70 O80 2.251 . S
Mg70 O83 2.010 . S
O71 Mg70 2.028 . S
O71 C74 1.250 . S
O72 Mg73 2.028 . S
O72 C74 1.248 . S
Mg73 O72 2.028 . S
Mg73 O78 2.032 . S
Mg73 O80 2.079 . S
C74 O71 1.250 . S
C74 O72 1.248 . S
C75 O76 1.264 . S
C75 O83 1.249 . S
O76 C75 1.264 . S
O77 Mg70 1.986 . S
O77 C81 1.246 . S
O78 Mg73 2.032 . S
O78 C81 1.259 . S
O79 Mg70 2.114 . S
O79 C82 1.252 . S
O80 Mg70 2.251 . S
O80 Mg73 2.079 . S
O80 C82 1.273 . S
C81 O77 1.246 . S
C81 O78 1.259 . S
C82 O79 1.252 . S
C82 O80 1.273 . S
O83 Mg70 2.010 . S
O83 C75 1.249 . S
Mg84 O85 2.028 . S
Mg84 O91 1.986 . S
Mg84 O93 2.114 . S
Mg84 O94 2.251 . S
Mg84 O97 2.010 . S
O85 Mg84 2.028 . S
O85 C88 1.250 . S
O86 Mg87 2.028 . S
O86 C88 1.248 . S
Mg87 O86 2.028 . S
Mg87 O92 2.032 . S
Mg87 O94 2.079 . S
C88 O85 1.250 . S
C88 O86 1.248 . S
C89 O90 1.264 . S
C89 O97 1.249 . S
O90 C89 1.264 . S
O91 Mg84 1.986 . S
O91 C95 1.246 . S
O92 Mg87 2.032 . S
O92 C95 1.259 . S
O93 Mg84 2.114 . S
O93 C96 1.252 . S
O94 Mg84 2.251 . S
O94 Mg87 2.079 . S
O94 C96 1.273 . S
C95 O91 1.246 . S
C95 O92 1.259 . S
C96 O93 1.252 . S
C96 O94 1.273 . S
O97 Mg84 2.010 . S
O97 C89 1.249 . S
Mg98 O99 2.028 . S
Mg98 O105 1.986 . S
Mg98 O107 2.114 . S
Mg98 O108 2.251 . S
Mg98 O111 2.010 . S
O99 Mg98 2.028 . S
O99 C102 1.250 . S
O100 Mg101 2.028 . S
O100 C102 1.248 . S
Mg101 O100 2.028 . S
Mg101 O106 2.032 . S
Mg101 O108 2.079 . S
C102 O99 1.250 . S
C102 O100 1.248 . S
C103 O104 1.264 . S
C103 O111 1.249 . S
O104 C103 1.264 . S
O105 Mg98 1.986 . S
O105 C109 1.246 . S
O106 Mg101 2.032 . S
O106 C109 1.259 . S
O107 Mg98 2.114 . S
O107 C110 1.252 . S
O108 Mg98 2.251 . S
O108 Mg101 2.079 . S
O108 C110 1.273 . S
C109 O105 1.246 . S
C109 O106 1.259 . S
C110 O107 1.252 . S
C110 O108 1.273 . S
O111 Mg98 2.010 . S
O111 C103 1.249 . S
Mg112 O113 2.028 . S
Mg112 O119 1.986 . S
Mg112 O121 2.114 . S
Mg112 O122 2.251 . S
Mg112 O125 2.010 . S
O113 Mg112 2.028 . S
O113 C116 1.250 . S
O114 Mg115 2.028 . S
O114 C116 1.248 . S
Mg115 O114 2.028 . S
Mg115 O120 2.032 . S
Mg115 O122 2.079 . S
C116 O113 1.250 . S
C116 O114 1.248 . S
C117 O118 1.264 . S
C117 O125 1.249 . S
O118 C117 1.264 . S
O119 Mg112 1.986 . S
O119 C123 1.246 . S
O120 Mg115 2.032 . S
O120 C123 1.259 . S
O121 Mg112 2.114 . S
O121 C124 1.252 . S
O122 Mg112 2.251 . S
O122 Mg115 2.079 . S
O122 C124 1.273 . S
C123 O119 1.246 . S
C123 O120 1.259 . S
C124 O121 1.252 . S
C124 O122 1.273 . S
O125 Mg112 2.010 . S
O125 C117 1.249 . S
Mg126 O127 2.028 . S
Mg126 O133 1.986 . S
Mg126 O135 2.114 . S
Mg126 O136 2.251 . S
Mg126 O139 2.010 . S
O127 Mg126 2.028 . S
O127 C130 1.250 . S
O128 Mg129 2.028 . S
O128 C130 1.248 . S
Mg129 O128 2.028 . S
Mg129 O134 2.032 . S
Mg129 O136 2.079 . S
C130 O127 1.250 . S
C130 O128 1.248 . S
C131 O132 1.264 . S
C131 O139 1.249 . S
O132 C131 1.264 . S
O133 Mg126 1.986 . S
O133 C137 1.246 . S
O134 Mg129 2.032 . S
O134 C137 1.259 . S
O135 Mg126 2.114 . S
O135 C138 1.252 . S
O136 Mg126 2.251 . S
O136 Mg129 2.079 . S
O136 C138 1.273 . S
C137 O133 1.246 . S
C137 O134 1.259 . S
C138 O135 1.252 . S
C138 O136 1.273 . S
O139 Mg126 2.010 . S
O139 C131 1.249 . S
Mg140 O141 2.028 . S
Mg140 O147 1.986 . S
Mg140 O149 2.114 . S
Mg140 O150 2.251 . S
Mg140 O153 2.010 . S
O141 Mg140 2.028 . S
O141 C144 1.250 . S
O142 Mg143 2.028 . S
O142 C144 1.248 . S
Mg143 O142 2.028 . S
Mg143 O148 2.032 . S
Mg143 O150 2.079 . S
C144 O141 1.250 . S
C144 O142 1.248 . S
C145 O146 1.264 . S
C145 O153 1.249 . S
O146 C145 1.264 . S
O147 Mg140 1.986 . S
O147 C151 1.246 . S
O148 Mg143 2.032 . S
O148 C151 1.259 . S
O149 Mg140 2.114 . S
O149 C152 1.252 . S
O150 Mg140 2.251 . S
O150 Mg143 2.079 . S
O150 C152 1.273 . S
C151 O147 1.246 . S
C151 O148 1.259 . S
C152 O149 1.252 . S
C152 O150 1.273 . S
O153 Mg140 2.010 . S
O153 C145 1.249 . S
Mg154 O155 2.028 . S
Mg154 O161 1.986 . S
Mg154 O163 2.114 . S
Mg154 O164 2.251 . S
Mg154 O167 2.010 . S
O155 Mg154 2.028 . S
O155 C158 1.250 . S
O156 Mg157 2.028 . S
O156 C158 1.248 . S
Mg157 O156 2.028 . S
Mg157 O162 2.032 . S
Mg157 O164 2.079 . S
C158 O155 1.250 . S
C158 O156 1.248 . S
C159 O160 1.264 . S
C159 O167 1.249 . S
O160 C159 1.264 . S
O161 Mg154 1.986 . S
O161 C165 1.246 . S
O162 Mg157 2.032 . S
O162 C165 1.259 . S
O163 Mg154 2.114 . S
O163 C166 1.252 . S
O164 Mg154 2.251 . S
O164 Mg157 2.079 . S
O164 C166 1.273 . S
C165 O161 1.246 . S
C165 O162 1.259 . S
C166 O163 1.252 . S
C166 O164 1.273 . S
O167 Mg154 2.010 . S
O167 C159 1.249 . S
Mg168 O169 2.028 . S
Mg168 O175 1.986 . S
Mg168 O177 2.114 . S
Mg168 O178 2.251 . S
Mg168 O181 2.010 . S
O169 Mg168 2.028 . S
O169 C172 1.250 . S
O170 Mg171 2.028 . S
O170 C172 1.248 . S
Mg171 O170 2.028 . S
Mg171 O176 2.032 . S
Mg171 O178 2.079 . S
C172 O169 1.250 . S
C172 O170 1.248 . S
C173 O174 1.264 . S
C173 O181 1.249 . S
O174 C173 1.264 . S
O175 Mg168 1.986 . S
O175 C179 1.246 . S
O176 Mg171 2.032 . S
O176 C179 1.259 . S
O177 Mg168 2.114 . S
O177 C180 1.252 . S
O178 Mg168 2.251 . S
O178 Mg171 2.079 . S
O178 C180 1.273 . S
C179 O175 1.246 . S
C179 O176 1.259 . S
C180 O177 1.252 . S
C180 O178 1.273 . S
O181 Mg168 2.010 . S
O181 C173 1.249 . S
Mg182 O183 2.028 . S
Mg182 O189 1.986 . S
Mg182 O191 2.114 . S
Mg182 O192 2.251 . S
Mg182 O195 2.010 . S
O183 Mg182 2.028 . S
O183 C186 1.250 . S
O184 Mg185 2.028 . S
O184 C186 1.248 . S
Mg185 O184 2.028 . S
Mg185 O190 2.032 . S
Mg185 O192 2.079 . S
C186 O183 1.250 . S
C186 O184 1.248 . S
C187 O188 1.264 . S
C187 O195 1.249 . S
O188 C187 1.264 . S
O189 Mg182 1.986 . S
O189 C193 1.246 . S
O190 Mg185 2.032 . S
O190 C193 1.259 . S
O191 Mg182 2.114 . S
O191 C194 1.252 . S
O192 Mg182 2.251 . S
O192 Mg185 2.079 . S
O192 C194 1.273 . S
C193 O189 1.246 . S
C193 O190 1.259 . S
C194 O191 1.252 . S
C194 O192 1.273 . S
O195 Mg182 2.010 . S
O195 C187 1.249 . S
Mg196 O197 2.028 . S
Mg196 O203 1.986 . S
Mg196 O205 2.114 . S
Mg196 O206 2.251 . S
Mg196 O209 2.010 . S
O197 Mg196 2.028 . S
O197 C200 1.250 . S
O198 Mg199 2.028 . S
O198 C200 1.248 . S
Mg199 O198 2.028 . S
Mg199 O204 2.032 . S
Mg199 O206 2.079 . S
C200 O197 1.250 . S
C200 O198 1.248 . S
C201 O202 1.264 . S
C201 O209 1.249 . S
O202 C201 1.264 . S
O203 Mg196 1.986 . S
O203 C207 1.246 . S
O204 Mg199 2.032 . S
O204 C207 1.259 . S
O205 Mg196 2.114 . S
O205 C208 1.252 . S
O206 Mg196 2.251 . S
O206 Mg199 2.079 . S
O206 C208 1.273 . S
C207 O203 1.246 . S
C207 O204 1.259 . S
C208 O205 1.252 . S
C208 O206 1.273 . S
O209 Mg196 2.010 . S
O209 C201 1.249 . S
Mg210 O211 2.028 . S
Mg210 O217 1.986 . S
Mg210 O219 2.114 . S
Mg210 O220 2.251 . S
Mg210 O223 2.010 . S
O211 Mg210 2.028 . S
O211 C214 1.250 . S
O212 Mg213 2.028 . S
O212 C214 1.248 . S
Mg213 O212 2.028 . S
Mg213 O218 2.032 . S
Mg213 O220 2.079 . S
C214 O211 1.250 . S
C214 O212 1.248 . S
C215 O216 1.264 . S
C215 O223 1.249 . S
O216 C215 1.264 . S
O217 Mg210 1.986 . S
O217 C221 1.246 . S
O218 Mg213 2.032 . S
O218 C221 1.259 . S
O219 Mg210 2.114 . S
O219 C222 1.252 . S
O220 Mg210 2.251 . S
O220 Mg213 2.079 . S
O220 C222 1.273 . S
C221 O217 1.246 . S
C221 O218 1.259 . S
C222 O219 1.252 . S
C222 O220 1.273 . S
O223 Mg210 2.010 . S
O223 C215 1.249 . S
Mg224 O225 2.028 . S
Mg224 O231 1.986 . S
Mg224 O233 2.114 . S
Mg224 O234 2.251 . S
Mg224 O237 2.010 . S
O225 Mg224 2.028 . S
O225 C228 1.250 . S
O226 Mg227 2.028 . S
O226 C228 1.248 . S
Mg227 O226 2.028 . S
Mg227 O232 2.032 . S
Mg227 O234 2.079 . S
C228 O225 1.250 . S
C228 O226 1.248 . S
C229 O230 1.264 . S
C229 O237 1.249 . S
O230 C229 1.264 . S
O231 Mg224 1.986 . S
O231 C235 1.246 . S
O232 Mg227 2.032 . S
O232 C235 1.259 . S
O233 Mg224 2.114 . S
O233 C236 1.252 . S
O234 Mg224 2.251 . S
O234 Mg227 2.079 . S
O234 C236 1.273 . S
C235 O231 1.246 . S
C235 O232 1.259 . S
C236 O233 1.252 . S
C236 O234 1.273 . S
O237 Mg224 2.010 . S
O237 C229 1.249 . S
Mg238 O239 2.028 . S
Mg238 O245 1.986 . S
Mg238 O247 2.114 . S
Mg238 O248 2.251 . S
Mg238 O251 2.010 . S
O239 Mg238 2.028 . S
O239 C242 1.250 . S
O240 Mg241 2.028 . S
O240 C242 1.248 . S
Mg241 O240 2.028 . S
Mg241 O246 2.032 . S
Mg241 O248 2.079 . S
C242 O239 1.250 . S
C242 O240 1.248 . S
C243 O244 1.264 . S
C243 O251 1.249 . S
O244 C243 1.264 . S
O245 Mg238 1.986 . S
O245 C249 1.246 . S
O246 Mg241 2.032 . S
O246 C249 1.259 . S
O247 Mg238 2.114 . S
O247 C250 1.252 . S
O248 Mg238 2.251 . S
O248 Mg241 2.079 . S
O248 C250 1.273 . S
C249 O245 1.246 . S
C249 O246 1.259 . S
C250 O247 1.252 . S
C250 O248 1.273 . S
O251 Mg238 2.010 . S
O251 C243 1.249 . S
Mg252 O253 2.028 . S
Mg252 O259 1.986 . S
Mg252 O261 2.114 . S
Mg252 O262 2.251 . S
Mg252 O265 2.010 . S
O253 Mg252 2.028 . S
O253 C256 1.250 . S
O254 Mg255 2.028 . S
O254 C256 1.248 . S
Mg255 O254 2.028 . S
Mg255 O260 2.032 . S
Mg255 O262 2.079 . S
C256 O253 1.250 . S
C256 O254 1.248 . S
C257 O258 1.264 . S
C257 O265 1.249 . S
O258 C257 1.264 . S
O259 Mg252 1.986 . S
O259 C263 1.246 . S
O260 Mg255 2.032 . S
O260 C263 1.259 . S
O261 Mg252 2.114 . S
O261 C264 1.252 . S
O262 Mg252 2.251 . S
O262 Mg255 2.079 . S
O262 C264 1.273 . S
C263 O259 1.246 . S
C263 O260 1.259 . S
C264 O261 1.252 . S
C264 O262 1.273 . S
O265 Mg252 2.010 . S
O265 C257 1.249 . S
Mg266 O267 2.028 . S
Mg266 O273 1.986 . S
Mg266 O275 2.114 . S
Mg266 O276 2.251 . S
Mg266 O279 2.010 . S
O267 Mg266 2.028 . S
O267 C270 1.250 . S
O268 Mg269 2.028 . S
O268 C270 1.248 . S
Mg269 O268 2.028 . S
Mg269 O274 2.032 . S
Mg269 O276 2.079 . S
C270 O267 1.250 . S
C270 O268 1.248 . S
C271 O272 1.264 . S
C271 O279 1.249 . S
O272 C271 1.264 . S
O273 Mg266 1.986 . S
O273 C277 1.246 . S
O274 Mg269 2.032 . S
O274 C277 1.259 . S
O275 Mg266 2.114 . S
O275 C278 1.252 . S
O276 Mg266 2.251 . S
O276 Mg269 2.079 . S
O276 C278 1.273 . S
C277 O273 1.246 . S
C277 O274 1.259 . S
C278 O275 1.252 . S
C278 O276 1.273 . S
O279 Mg266 2.010 . S
O279 C271 1.249 . S
Mg280 O281 2.028 . S
Mg280 O287 1.986 . S
Mg280 O289 2.114 . S
Mg280 O290 2.251 . S
Mg280 O293 2.010 . S
O281 Mg280 2.028 . S
O281 C284 1.250 . S
O282 Mg283 2.028 . S
O282 C284 1.248 . S
Mg283 O282 2.028 . S
Mg283 O288 2.032 . S
Mg283 O290 2.079 . S
C284 O281 1.250 . S
C284 O282 1.248 . S
C285 O286 1.264 . S
C285 O293 1.249 . S
O286 C285 1.264 . S
O287 Mg280 1.986 . S
O287 C291 1.246 . S
O288 Mg283 2.032 . S
O288 C291 1.259 . S
O289 Mg280 2.114 . S
O289 C292 1.252 . S
O290 Mg280 2.251 . S
O290 Mg283 2.079 . S
O290 C292 1.273 . S
C291 O287 1.246 . S
C291 O288 1.259 . S
C292 O289 1.252 . S
C292 O290 1.273 . S
O293 Mg280 2.010 . S
O293 C285 1.249 . S
Mg294 O295 2.028 . S
Mg294 O301 1.986 . S
Mg294 O303 2.114 . S
Mg294 O304 2.251 . S
Mg294 O307 2.010 . S
O295 Mg294 2.028 . S
O295 C298 1.250 . S
O296 Mg297 2.028 . S
O296 C298 1.248 . S
Mg297 O296 2.028 . S
Mg297 O302 2.032 . S
Mg297 O304 2.079 . S
C298 O295 1.250 . S
C298 O296 1.248 . S
C299 O300 1.264 . S
C299 O307 1.249 . S
O300 C299 1.264 . S
O301 Mg294 1.986 . S
O301 C305 1.246 . S
O302 Mg297 2.032 . S
O302 C305 1.259 . S
O303 Mg294 2.114 . S
O303 C306 1.252 . S
O304 Mg294 2.251 . S
O304 Mg297 2.079 . S
O304 C306 1.273 . S
C305 O301 1.246 . S
C305 O302 1.259 . S
C306 O303 1.252 . S
C306 O304 1.273 . S
O307 Mg294 2.010 . S
O307 C299 1.249 . S
Mg308 O309 2.028 . S
Mg308 O315 1.986 . S
Mg308 O317 2.114 . S
Mg308 O318 2.251 . S
Mg308 O321 2.010 . S
O309 Mg308 2.028 . S
O309 C312 1.250 . S
O310 Mg311 2.028 . S
O310 C312 1.248 . S
Mg311 O310 2.028 . S
Mg311 O316 2.032 . S
Mg311 O318 2.079 . S
C312 O309 1.250 . S
C312 O310 1.248 . S
C313 O314 1.264 . S
C313 O321 1.249 . S
O314 C313 1.264 . S
O315 Mg308 1.986 . S
O315 C319 1.246 . S
O316 Mg311 2.032 . S
O316 C319 1.259 . S
O317 Mg308 2.114 . S
O317 C320 1.252 . S
O318 Mg308 2.251 . S
O318 Mg311 2.079 . S
O318 C320 1.273 . S
C319 O315 1.246 . S
C319 O316 1.259 . S
C320 O317 1.252 . S
C320 O318 1.273 . S
O321 Mg308 2.010 . S
O321 C313 1.249 . S
Mg322 O323 2.028 . S
Mg322 O329 1.986 . S
Mg322 O331 2.114 . S
Mg322 O332 2.251 . S
Mg322 O335 2.010 . S
O323 Mg322 2.028 . S
O323 C326 1.250 . S
O324 Mg325 2.028 . S
O324 C326 1.248 . S
Mg325 O324 2.028 . S
Mg325 O330 2.032 . S
Mg325 O332 2.079 . S
C326 O323 1.250 . S
C326 O324 1.248 . S
C327 O328 1.264 . S
C327 O335 1.249 . S
O328 C327 1.264 . S
O329 Mg322 1.986 . S
O329 C333 1.246 . S
O330 Mg325 2.032 . S
O330 C333 1.259 . S
O331 Mg322 2.114 . S
O331 C334 1.252 . S
O332 Mg322 2.251 . S
O332 Mg325 2.079 . S
O332 C334 1.273 . S
C333 O329 1.246 . S
C333 O330 1.259 . S
C334 O331 1.252 . S
C334 O332 1.273 . S
O335 Mg322 2.010 . S
O335 C327 1.249 . S
H336 C354 0.951 . S
H337 C356 0.951 . S
H338 C358 0.950 . S
H339 C359 0.950 . S
H340 C361 0.950 . S
H341 C364 0.950 . S
H342 C365 0.950 . S
H343 C367 0.950 . S
H344 C368 0.950 . S
H345 C369 0.951 . S
H346 C371 0.951 . S
H347 C373 0.950 . S
H348 C374 0.950 . S
H349 C376 0.950 . S
H350 C379 0.950 . S
H351 C380 0.950 . S
H352 C382 0.950 . S
H353 C383 0.950 . S
C354 H336 0.951 . S
C354 C355 1.366 . S
C354 C356 1.388 . S
C355 C354 1.366 . S
C355 C359 1.385 . S
C356 H337 0.951 . S
C356 C354 1.388 . S
C356 C357 1.366 . S
C357 C356 1.366 . S
C357 C358 1.414 . S
C357 C360 1.499 . S
C358 H338 0.950 . S
C358 C357 1.414 . S
C358 C359 1.374 . S
C359 H339 0.950 . S
C359 C355 1.385 . S
C359 C358 1.374 . S
C360 C357 1.499 . S
C360 C361 1.373 . S
C360 C362 1.389 . S
C361 H340 0.950 . S
C361 C360 1.373 . S
C361 C377 1.377 1_545 S
C362 C360 1.389 . S
C362 C363 1.524 . S
C362 C376 1.377 1_545 S
C363 C362 1.524 . S
C363 C364 1.397 . S
C363 C368 1.363 1_545 S
C364 H341 0.950 . S
C364 C363 1.397 . S
C364 C365 1.334 . S
C365 H342 0.950 . S
C365 C364 1.334 . S
C365 C366 1.287 . S
C366 C365 1.287 . S
C366 C367 1.524 1_545 S
C366 H385 0.913 . S
C367 H343 0.950 . S
C367 C366 1.524 1_565 S
C367 C368 1.415 . S
C368 H344 0.950 . S
C368 C363 1.363 1_565 S
C368 C367 1.415 . S
C369 H345 0.951 . S
C369 C370 1.366 . S
C369 C371 1.388 . S
C370 C369 1.366 . S
C370 C374 1.385 . S
C371 H346 0.951 . S
C371 C369 1.388 . S
C371 C372 1.366 . S
C372 C371 1.366 . S
C372 C373 1.414 . S
C372 C375 1.499 . S
C373 H347 0.950 . S
C373 C372 1.414 . S
C373 C374 1.374 . S
C374 H348 0.950 . S
C374 C370 1.385 . S
C374 C373 1.374 . S
C375 C372 1.499 . S
C375 C376 1.373 . S
C375 C377 1.389 . S
C376 H349 0.950 . S
C376 C362 1.377 1_565 S
C376 C375 1.373 . S
C377 C361 1.377 1_565 S
C377 C375 1.389 . S
C377 C378 1.524 . S
C378 C377 1.524 . S
C378 C379 1.397 . S
C378 C383 1.363 1_565 S
C379 H350 0.950 . S
C379 C378 1.397 . S
C379 C380 1.334 . S
C380 H351 0.950 . S
C380 C379 1.334 . S
C380 C381 1.287 . S
C381 C380 1.287 . S
C381 C382 1.524 1_565 S
C381 H384 0.999 . S
C382 H352 0.950 . S
C382 C381 1.524 1_545 S
C382 C383 1.415 . S
C383 H353 0.950 . S
C383 C378 1.363 1_545 S
C383 C382 1.415 . S
H384 C381 0.999 . S
H385 C366 0.913 . S
H386 C404 0.951 . S
H387 C406 0.951 . S
H388 C408 0.950 . S
H389 C409 0.950 . S
H390 C411 0.950 . S
H391 C414 0.950 . S
H392 C415 0.950 . S
H393 C417 0.950 . S
H394 C418 0.950 . S
H395 C419 0.951 . S
H396 C421 0.951 . S
H397 C423 0.950 . S
H398 C424 0.950 . S
H399 C426 0.950 . S
H400 C429 0.950 . S
H401 C430 0.950 . S
H402 C432 0.950 . S
H403 C433 0.950 . S
C404 H386 0.951 . S
C404 C405 1.366 . S
C404 C406 1.388 . S
C405 C404 1.366 . S
C405 C409 1.385 . S
C406 H387 0.951 . S
C406 C404 1.388 . S
C406 C407 1.366 . S
C407 C406 1.366 . S
C407 C408 1.414 . S
C407 C410 1.499 . S
C408 H388 0.950 . S
C408 C407 1.414 . S
C408 C409 1.374 . S
C409 H389 0.950 . S
C409 C405 1.385 . S
C409 C408 1.374 . S
C410 C407 1.499 . S
C410 C411 1.373 . S
C410 C412 1.389 . S
C411 H390 0.950 . S
C411 C410 1.373 . S
C411 C427 1.377 . S
C412 C410 1.389 . S
C412 C413 1.524 . S
C412 C426 1.377 . S
C413 C412 1.524 . S
C413 C414 1.397 . S
C413 C418 1.363 . S
C414 H391 0.950 . S
C414 C413 1.397 . S
C414 C415 1.334 . S
C415 H392 0.950 . S
C415 C414 1.334 . S
C415 C416 1.287 . S
C416 C415 1.287 . S
C416 C417 1.524 . S
C416 H435 0.913 . S
C417 H393 0.950 . S
C417 C416 1.524 . S
C417 C418 1.415 . S
C418 H394 0.950 . S
C418 C413 1.363 . S
C418 C417 1.415 . S
C419 H395 0.951 . S
C419 C420 1.366 . S
C419 C421 1.388 . S
C420 C419 1.366 . S
C420 C424 1.385 . S
C421 H396 0.951 . S
C421 C419 1.388 . S
C421 C422 1.366 . S
C422 C421 1.366 . S
C422 C423 1.414 . S
C422 C425 1.499 . S
C423 H397 0.950 . S
C423 C422 1.414 . S
C423 C424 1.374 . S
C424 H398 0.950 . S
C424 C420 1.385 . S
C424 C423 1.374 . S
C425 C422 1.499 . S
C425 C426 1.373 . S
C425 C427 1.389 . S
C426 H399 0.950 . S
C426 C412 1.377 . S
C426 C425 1.373 . S
C427 C411 1.377 . S
C427 C425 1.389 . S
C427 C428 1.524 . S
C428 C427 1.524 . S
C428 C429 1.397 . S
C428 C433 1.363 . S
C429 H400 0.950 . S
C429 C428 1.397 . S
C429 C430 1.334 . S
C430 H401 0.950 . S
C430 C429 1.334 . S
C430 C431 1.287 . S
C431 C430 1.287 . S
C431 C432 1.524 . S
C431 H434 0.999 . S
C432 H402 0.950 . S
C432 C431 1.524 . S
C432 C433 1.415 . S
C433 H403 0.950 . S
C433 C428 1.363 . S
C433 C432 1.415 . S
H434 C431 0.999 . S
H435 C416 0.913 . S
H436 C454 0.951 . S
H437 C456 0.951 . S
H438 C458 0.950 . S
H439 C459 0.950 . S
H440 C461 0.950 . S
H441 C464 0.950 . S
H442 C465 0.950 . S
H443 C467 0.950 . S
H444 C468 0.950 . S
H445 C469 0.951 . S
H446 C471 0.951 . S
H447 C473 0.950 . S
H448 C474 0.950 . S
H449 C476 0.950 . S
H450 C479 0.950 . S
H451 C480 0.950 . S
H452 C482 0.950 . S
H453 C483 0.950 . S
C454 H436 0.951 . S
C454 C455 1.366 . S
C454 C456 1.388 . S
C455 C454 1.366 . S
C455 C459 1.385 . S
C456 H437 0.951 . S
C456 C454 1.388 . S
C456 C457 1.366 . S
C457 C456 1.366 . S
C457 C458 1.414 . S
C457 C460 1.499 . S
C458 H438 0.950 . S
C458 C457 1.414 . S
C458 C459 1.374 . S
C459 H439 0.950 . S
C459 C455 1.385 . S
C459 C458 1.374 . S
C460 C457 1.499 . S
C460 C461 1.373 . S
C460 C462 1.389 . S
C461 H440 0.950 . S
C461 C460 1.373 . S
C461 C477 1.377 1_655 S
C462 C460 1.389 . S
C462 C463 1.524 . S
C462 C476 1.377 1_655 S
C463 C462 1.524 . S
C463 C464 1.397 . S
C463 C468 1.363 . S
C464 H441 0.950 . S
C464 C463 1.397 . S
C464 C465 1.334 . S
C465 H442 0.950 . S
C465 C464 1.334 . S
C465 C466 1.287 . S
C466 C465 1.287 . S
C466 C467 1.524 . S
C466 H485 0.913 . S
C467 H443 0.950 . S
C467 C466 1.524 . S
C467 C468 1.415 . S
C468 H444 0.950 . S
C468 C463 1.363 . S
C468 C467 1.415 . S
C469 H445 0.951 . S
C469 C470 1.366 . S
C469 C471 1.388 . S
C470 C469 1.366 . S
C470 C474 1.385 . S
C471 H446 0.951 . S
C471 C469 1.388 . S
C471 C472 1.366 . S
C472 C471 1.366 . S
C472 C473 1.414 . S
C472 C475 1.499 . S
C473 H447 0.950 . S
C473 C472 1.414 . S
C473 C474 1.374 . S
C474 H448 0.950 . S
C474 C470 1.385 . S
C474 C473 1.374 . S
C475 C472 1.499 . S
C475 C476 1.373 . S
C475 C477 1.389 . S
C476 H449 0.950 . S
C476 C462 1.377 1_455 S
C476 C475 1.373 . S
C477 C461 1.377 1_455 S
C477 C475 1.389 . S
C477 C478 1.524 . S
C478 C477 1.524 . S
C478 C479 1.397 . S
C478 C483 1.363 . S
C479 H450 0.950 . S
C479 C478 1.397 . S
C479 C480 1.334 . S
C480 H451 0.950 . S
C480 C479 1.334 . S
C480 C481 1.287 . S
C481 C480 1.287 . S
C481 C482 1.524 . S
C481 H484 0.999 . S
C482 H452 0.950 . S
C482 C481 1.524 . S
C482 C483 1.415 . S
C483 H453 0.950 . S
C483 C478 1.363 . S
C483 C482 1.415 . S
H484 C481 0.999 . S
H485 C466 0.913 . S
H486 C504 0.951 . S
H487 C506 0.951 . S
H488 C508 0.950 . S
H489 C509 0.950 . S
H490 C511 0.950 . S
H491 C514 0.950 . S
H492 C515 0.950 . S
H493 C517 0.950 . S
H494 C518 0.920 1_545 S
H495 C519 0.951 . S
H496 C521 0.951 . S
H497 C523 0.950 . S
H498 C524 0.950 . S
H499 C526 0.950 . S
H500 C529 0.950 . S
H501 C530 0.950 . S
H502 C532 0.950 . S
H503 C533 0.920 1_565 S
C504 H486 0.951 . S
C504 C505 1.366 . S
C504 C506 1.388 . S
C505 C504 1.366 . S
C505 C509 1.385 . S
C506 H487 0.951 . S
C506 C504 1.388 . S
C506 C507 1.366 . S
C507 C506 1.366 . S
C507 C508 1.414 . S
C507 C510 1.499 . S
C508 H488 0.950 . S
C508 C507 1.414 . S
C508 C509 1.374 . S
C509 H489 0.950 . S
C509 C505 1.385 . S
C509 C508 1.374 . S
C510 C507 1.499 . S
C510 C511 1.373 . S
C510 C512 1.389 . S
C511 H490 0.950 . S
C511 C510 1.373 . S
C511 C527 1.377 1_565 S
C512 C510 1.389 . S
C512 C513 1.524 . S
C512 C526 1.377 1_565 S
C513 C512 1.524 . S
C513 C514 1.397 . S
C513 C518 1.363 . S
C514 H491 0.950 . S
C514 C513 1.397 . S
C514 C515 1.334 . S
C515 H492 0.950 . S
C515 C514 1.334 . S
C515 C516 1.287 . S
C516 C515 1.287 . S
C516 C517 1.524 . S
C516 H535 0.913 . S
C517 H493 0.950 . S
C517 C516 1.524 . S
C517 C518 1.415 . S
C518 H494 0.920 1_565 S
C518 C513 1.363 . S
C518 C517 1.415 . S
C519 H495 0.951 . S
C519 C520 1.366 . S
C519 C521 1.388 . S
C520 C519 1.366 . S
C520 C524 1.385 . S
C521 H496 0.951 . S
C521 C519 1.388 . S
C521 C522 1.366 . S
C522 C521 1.366 . S
C522 C523 1.414 . S
C522 C525 1.499 . S
C523 H497 0.950 . S
C523 C522 1.414 . S
C523 C524 1.374 . S
C524 H498 0.950 . S
C524 C520 1.385 . S
C524 C523 1.374 . S
C525 C522 1.499 . S
C525 C526 1.373 . S
C525 C527 1.389 . S
C526 H499 0.950 . S
C526 C512 1.377 1_545 S
C526 C525 1.373 . S
C527 C511 1.377 1_545 S
C527 C525 1.389 . S
C527 C528 1.524 . S
C528 C527 1.524 . S
C528 C529 1.397 . S
C528 C533 1.363 . S
C529 H500 0.950 . S
C529 C528 1.397 . S
C529 C530 1.334 . S
C530 H501 0.950 . S
C530 C529 1.334 . S
C530 C531 1.287 . S
C531 C530 1.287 . S
C531 C532 1.524 . S
C531 H534 0.999 . S
C532 H502 0.950 . S
C532 C531 1.524 . S
C532 C533 1.415 . S
C533 H503 0.920 1_545 S
C533 C528 1.363 . S
C533 C532 1.415 . S
H534 C531 0.999 . S
H535 C516 0.913 . S
H536 C554 0.951 . S
H537 C556 0.951 . S
H538 C558 0.950 . S
H539 C559 0.950 . S
H540 C561 0.950 . S
H541 C564 0.950 . S
H542 C565 0.950 . S
H543 C567 0.950 . S
H544 C568 0.950 . S
H545 C569 0.951 . S
H546 C571 0.951 . S
H547 C573 0.950 . S
H548 C574 0.950 . S
H549 C576 0.950 . S
H550 C579 0.950 . S
H551 C580 0.950 . S
H552 C582 0.950 . S
H553 C583 0.950 . S
C554 H536 0.951 . S
C554 C555 1.366 . S
C554 C556 1.388 . S
C555 C554 1.366 . S
C555 C559 1.385 . S
C556 H537 0.951 . S
C556 C554 1.388 . S
C556 C557 1.366 . S
C557 C556 1.366 . S
C557 C558 1.414 . S
C557 C560 1.499 . S
C558 H538 0.950 . S
C558 C557 1.414 . S
C558 C559 1.374 . S
C559 H539 0.950 . S
C559 C555 1.385 . S
C559 C558 1.374 . S
C560 C557 1.499 . S
C560 C561 1.373 . S
C560 C562 1.389 . S
C561 H540 0.950 . S
C561 C560 1.373 . S
C561 C577 1.377 . S
C562 C560 1.389 . S
C562 C563 1.524 . S
C562 C576 1.377 . S
C563 C562 1.524 . S
C563 C564 1.397 . S
C563 C568 1.363 . S
C564 H541 0.950 . S
C564 C563 1.397 . S
C564 C565 1.334 . S
C565 H542 0.950 . S
C565 C564 1.334 . S
C565 C566 1.287 . S
C566 C565 1.287 . S
C566 C567 1.524 . S
C566 H585 0.913 . S
C567 H543 0.950 . S
C567 C566 1.524 . S
C567 C568 1.415 . S
C568 H544 0.950 . S
C568 C563 1.363 . S
C568 C567 1.415 . S
C569 H545 0.951 . S
C569 C570 1.366 . S
C569 C571 1.388 . S
C570 C569 1.366 . S
C570 C574 1.385 . S
C571 H546 0.951 . S
C571 C569 1.388 . S
C571 C572 1.366 . S
C572 C571 1.366 . S
C572 C573 1.414 . S
C572 C575 1.499 . S
C573 H547 0.950 . S
C573 C572 1.414 . S
C573 C574 1.374 . S
C574 H548 0.950 . S
C574 C570 1.385 . S
C574 C573 1.374 . S
C575 C572 1.499 . S
C575 C576 1.373 . S
C575 C577 1.389 . S
C576 H549 0.950 . S
C576 C562 1.377 . S
C576 C575 1.373 . S
C577 C561 1.377 . S
C577 C575 1.389 . S
C577 C578 1.524 . S
C578 C577 1.524 . S
C578 C579 1.397 . S
C578 C583 1.363 . S
C579 H550 0.950 . S
C579 C578 1.397 . S
C579 C580 1.334 . S
C580 H551 0.950 . S
C580 C579 1.334 . S
C580 C581 1.287 . S
C581 C580 1.287 . S
C581 C582 1.524 . S
C581 H584 0.999 . S
C582 H552 0.950 . S
C582 C581 1.524 . S
C582 C583 1.415 . S
C583 H553 0.950 . S
C583 C578 1.363 . S
C583 C582 1.415 . S
H584 C581 0.999 . S
H585 C566 0.913 . S
H586 C604 0.951 . S
H587 C606 0.951 . S
H588 C608 0.950 . S
H589 C609 0.950 . S
H590 C611 0.950 . S
H591 C614 0.950 . S
H592 C615 0.950 . S
H593 C617 0.950 . S
H594 C618 0.950 . S
H595 C619 0.951 . S
H596 C621 0.951 . S
H597 C623 0.950 . S
H598 C624 0.950 . S
H599 C626 0.950 . S
H600 C629 0.950 . S
H601 C630 0.950 . S
H602 C632 0.950 . S
H603 C633 0.950 . S
C604 H586 0.951 . S
C604 C605 1.366 . S
C604 C606 1.388 . S
C605 C604 1.366 . S
C605 C609 1.385 . S
C606 H587 0.951 . S
C606 C604 1.388 . S
C606 C607 1.366 . S
C607 C606 1.366 . S
C607 C608 1.414 . S
C607 C610 1.499 . S
C608 H588 0.950 . S
C608 C607 1.414 . S
C608 C609 1.374 . S
C609 H589 0.950 . S
C609 C605 1.385 . S
C609 C608 1.374 . S
C610 C607 1.499 . S
C610 C611 1.373 . S
C610 C612 1.389 . S
C611 H590 0.950 . S
C611 C610 1.373 . S
C611 C627 1.377 1_455 S
C612 C610 1.389 . S
C612 C613 1.524 . S
C612 C626 1.377 1_455 S
C613 C612 1.524 . S
C613 C614 1.397 . S
C613 C618 1.363 1_455 S
C614 H591 0.950 . S
C614 C613 1.397 . S
C614 C615 1.334 . S
C615 H592 0.950 . S
C615 C614 1.334 . S
C615 C616 1.287 . S
C616 C615 1.287 . S
C616 C617 1.524 1_455 S
C616 H635 0.913 . S
C617 H593 0.950 . S
C617 C616 1.524 1_655 S
C617 C618 1.415 . S
C618 H594 0.950 . S
C618 C613 1.363 1_655 S
C618 C617 1.415 . S
C619 H595 0.951 . S
C619 C620 1.366 . S
C619 C621 1.388 . S
C620 C619 1.366 . S
C620 C624 1.385 . S
C621 H596 0.951 . S
C621 C619 1.388 . S
C621 C622 1.366 . S
C622 C621 1.366 . S
C622 C623 1.414 . S
C622 C625 1.499 . S
C623 H597 0.950 . S
C623 C622 1.414 . S
C623 C624 1.374 . S
C624 H598 0.950 . S
C624 C620 1.385 . S
C624 C623 1.374 . S
C625 C622 1.499 . S
C625 C626 1.373 . S
C625 C627 1.389 . S
C626 H599 0.950 . S
C626 C612 1.377 1_655 S
C626 C625 1.373 . S
C627 C611 1.377 1_655 S
C627 C625 1.389 . S
C627 C628 1.524 . S
C628 C627 1.524 . S
C628 C629 1.397 . S
C628 C633 1.363 1_655 S
C629 H600 0.950 . S
C629 C628 1.397 . S
C629 C630 1.334 . S
C630 H601 0.950 . S
C630 C629 1.334 . S
C630 C631 1.287 . S
C631 C630 1.287 . S
C631 C632 1.524 1_655 S
C631 H634 0.999 . S
C632 H602 0.950 . S
C632 C631 1.524 1_455 S
C632 C633 1.415 . S
C633 H603 0.950 . S
C633 C628 1.363 1_455 S
C633 C632 1.415 . S
H634 C631 0.999 . S
H635 C616 0.913 . S
H636 C654 0.951 . S
H637 C656 0.951 . S
H638 C658 0.950 . S
H639 C659 0.950 . S
H640 C661 0.950 . S
H641 C664 0.950 . S
H642 C665 0.950 . S
H643 C667 0.950 . S
H644 C668 0.950 . S
H645 C669 0.951 . S
H646 C671 0.951 . S
H647 C673 0.950 . S
H648 C674 0.950 . S
H649 C676 0.950 . S
H650 C679 0.950 . S
H651 C680 0.950 . S
H652 C682 0.950 . S
H653 C683 0.950 . S
C654 H636 0.951 . S
C654 C655 1.366 . S
C654 C656 1.388 . S
C655 C654 1.366 . S
C655 C659 1.385 . S
C656 H637 0.951 . S
C656 C654 1.388 . S
C656 C657 1.366 . S
C657 C656 1.366 . S
C657 C658 1.414 . S
C657 C660 1.499 . S
C658 H638 0.950 . S
C658 C657 1.414 . S
C658 C659 1.374 . S
C659 H639 0.950 . S
C659 C655 1.385 . S
C659 C658 1.374 . S
C660 C657 1.499 . S
C660 C661 1.373 . S
C660 C662 1.389 . S
C661 H640 0.950 . S
C661 C660 1.373 . S
C661 C677 1.377 1_565 S
C662 C660 1.389 . S
C662 C663 1.524 . S
C662 C676 1.377 1_565 S
C663 C662 1.524 . S
C663 C664 1.397 . S
C663 C668 1.363 . S
C664 H641 0.950 . S
C664 C663 1.397 . S
C664 C665 1.334 . S
C665 H642 0.950 . S
C665 C664 1.334 . S
C665 C666 1.287 . S
C666 C665 1.287 . S
C666 C667 1.524 . S
C666 H685 0.913 . S
C667 H643 0.950 . S
C667 C666 1.524 . S
C667 C668 1.415 . S
C668 H644 0.950 . S
C668 C663 1.363 . S
C668 C667 1.415 . S
C669 H645 0.951 . S
C669 C670 1.366 . S
C669 C671 1.388 . S
C670 C669 1.366 . S
C670 C674 1.385 . S
C671 H646 0.951 . S
C671 C669 1.388 . S
C671 C672 1.366 . S
C672 C671 1.366 . S
C672 C673 1.414 . S
C672 C675 1.499 . S
C673 H647 0.950 . S
C673 C672 1.414 . S
C673 C674 1.374 . S
C674 H648 0.950 . S
C674 C670 1.385 . S
C674 C673 1.374 . S
C675 C672 1.499 . S
C675 C676 1.373 . S
C675 C677 1.389 . S
C676 H649 0.950 . S
C676 C662 1.377 1_545 S
C676 C675 1.373 . S
C677 C661 1.377 1_545 S
C677 C675 1.389 . S
C677 C678 1.524 . S
C678 C677 1.524 . S
C678 C679 1.397 . S
C678 C683 1.363 . S
C679 H650 0.950 . S
C679 C678 1.397 . S
C679 C680 1.334 . S
C680 H651 0.950 . S
C680 C679 1.334 . S
C680 C681 1.287 . S
C681 C680 1.287 . S
C681 C682 1.524 . S
C681 H684 0.999 . S
C682 H652 0.950 . S
C682 C681 1.524 . S
C682 C683 1.415 . S
C683 H653 0.950 . S
C683 C678 1.363 . S
C683 C682 1.415 . S
H684 C681 0.999 . S
H685 C666 0.913 . S
H686 C704 0.951 . S
H687 C706 0.951 . S
H688 C708 0.950 . S
H689 C709 0.950 . S
H690 C711 0.950 . S
H691 C714 0.950 . S
H692 C715 0.950 . S
H693 C717 0.950 . S
H694 C718 0.950 . S
H695 C719 0.951 . S
H696 C721 0.951 . S
H697 C723 0.950 . S
H698 C724 0.950 . S
H699 C726 0.950 . S
H700 C729 0.950 . S
H701 C730 0.950 . S
H702 C732 0.950 . S
H703 C733 0.950 . S
C704 H686 0.951 . S
C704 C705 1.366 . S
C704 C706 1.388 . S
C705 C704 1.366 . S
C705 C709 1.385 . S
C706 H687 0.951 . S
C706 C704 1.388 . S
C706 C707 1.366 . S
C707 C706 1.366 . S
C707 C708 1.414 . S
C707 C710 1.499 . S
C708 H688 0.950 . S
C708 C707 1.414 . S
C708 C709 1.374 . S
C709 H689 0.950 . S
C709 C705 1.385 . S
C709 C708 1.374 . S
C710 C707 1.499 . S
C710 C711 1.373 . S
C710 C712 1.389 . S
C711 H690 0.950 . S
C711 C710 1.373 . S
C711 C727 1.377 . S
C712 C710 1.389 . S
C712 C713 1.524 . S
C712 C726 1.377 . S
C713 C712 1.524 . S
C713 C714 1.397 . S
C713 C718 1.363 . S
C714 H691 0.950 . S
C714 C713 1.397 . S
C714 C715 1.334 . S
C715 H692 0.950 . S
C715 C714 1.334 . S
C715 C716 1.287 . S
C716 C715 1.287 . S
C716 C717 1.524 . S
C716 H735 0.913 . S
C717 H693 0.950 . S
C717 C716 1.524 . S
C717 C718 1.415 . S
C718 H694 0.950 . S
C718 C713 1.363 . S
C718 C717 1.415 . S
C719 H695 0.951 . S
C719 C720 1.366 . S
C719 C721 1.388 . S
C720 C719 1.366 . S
C720 C724 1.385 . S
C721 H696 0.951 . S
C721 C719 1.388 . S
C721 C722 1.366 . S
C722 C721 1.366 . S
C722 C723 1.414 . S
C722 C725 1.499 . S
C723 H697 0.950 . S
C723 C722 1.414 . S
C723 C724 1.374 . S
C724 H698 0.950 . S
C724 C720 1.385 . S
C724 C723 1.374 . S
C725 C722 1.499 . S
C725 C726 1.373 . S
C725 C727 1.389 . S
C726 H699 0.950 . S
C726 C712 1.377 . S
C726 C725 1.373 . S
C727 C711 1.377 . S
C727 C725 1.389 . S
C727 C728 1.524 . S
C728 C727 1.524 . S
C728 C729 1.397 . S
C728 C733 1.363 . S
C729 H700 0.950 . S
C729 C728 1.397 . S
C729 C730 1.334 . S
C730 H701 0.950 . S
C730 C729 1.334 . S
C730 C731 1.287 . S
C731 C730 1.287 . S
C731 C732 1.524 . S
C731 H734 0.999 . S
C732 H702 0.950 . S
C732 C731 1.524 . S
C732 C733 1.415 . S
C733 H703 0.950 . S
C733 C728 1.363 . S
C733 C732 1.415 . S
H734 C731 0.999 . S
H735 C716 0.913 . S
H736 C754 0.951 . S
H737 C756 0.951 . S
H738 C758 0.950 . S
H739 C759 0.950 . S
H740 C761 0.950 . S
H741 C764 0.950 . S
H742 C765 0.950 . S
H743 C767 0.950 1_455 S
H744 C768 0.945 1_455 S
H745 C769 0.951 . S
H746 C771 0.951 . S
H747 C773 0.950 . S
H748 C774 0.950 . S
H749 C776 0.950 . S
H750 C779 0.950 . S
H751 C780 0.950 . S
H752 C782 0.950 1_655 S
H753 C783 0.945 1_655 S
C754 H736 0.951 . S
C754 C755 1.366 . S
C754 C756 1.388 . S
C755 C754 1.366 . S
C755 C759 1.385 . S
C756 H737 0.951 . S
C756 C754 1.388 . S
C756 C757 1.366 . S
C757 C756 1.366 . S
C757 C758 1.414 . S
C757 C760 1.499 . S
C758 H738 0.950 . S
C758 C757 1.414 . S
C758 C759 1.374 . S
C759 H739 0.950 . S
C759 C755 1.385 . S
C759 C758 1.374 . S
C760 C757 1.499 . S
C760 C761 1.373 . S
C760 C762 1.389 . S
C761 H740 0.950 . S
C761 C760 1.373 . S
C761 C777 1.377 1_655 S
C762 C760 1.389 . S
C762 C763 1.524 . S
C762 C776 1.377 1_655 S
C763 C762 1.524 . S
C763 C764 1.397 . S
C763 C768 1.371 . S
C764 H741 0.950 . S
C764 C763 1.397 . S
C764 C765 1.334 . S
C765 H742 0.950 . S
C765 C764 1.334 . S
C765 C766 1.287 . S
C766 C765 1.287 . S
C766 C767 1.524 . S
C766 H785 0.913 . S
C767 H743 0.950 1_655 S
C767 C766 1.524 . S
C767 C768 1.412 . S
C768 H744 0.945 1_655 S
C768 C763 1.371 . S
C768 C767 1.412 . S
C769 H745 0.951 . S
C769 C770 1.366 . S
C769 C771 1.388 . S
C770 C769 1.366 . S
C770 C774 1.385 . S
C771 H746 0.951 . S
C771 C769 1.388 . S
C771 C772 1.366 . S
C772 C771 1.366 . S
C772 C773 1.414 . S
C772 C775 1.499 . S
C773 H747 0.950 . S
C773 C772 1.414 . S
C773 C774 1.374 . S
C774 H748 0.950 . S
C774 C770 1.385 . S
C774 C773 1.374 . S
C775 C772 1.499 . S
C775 C776 1.373 . S
C775 C777 1.389 . S
C776 H749 0.950 . S
C776 C762 1.377 1_455 S
C776 C775 1.373 . S
C777 C761 1.377 1_455 S
C777 C775 1.389 . S
C777 C778 1.524 . S
C778 C777 1.524 . S
C778 C779 1.397 . S
C778 C783 1.371 . S
C779 H750 0.950 . S
C779 C778 1.397 . S
C779 C780 1.334 . S
C780 H751 0.950 . S
C780 C779 1.334 . S
C780 C781 1.287 . S
C781 C780 1.287 . S
C781 C782 1.524 . S
C781 H784 0.999 . S
C782 H752 0.950 1_455 S
C782 C781 1.524 . S
C782 C783 1.412 . S
C783 H753 0.945 1_455 S
C783 C778 1.371 . S
C783 C782 1.412 . S
H784 C781 0.999 . S
H785 C766 0.913 . S
H786 C804 0.951 . S
H787 C806 0.951 . S
H788 C808 0.950 . S
H789 C809 0.950 . S
H790 C811 0.950 . S
H791 C814 0.950 . S
H792 C815 0.950 . S
H793 C817 0.950 . S
H794 C818 0.954 . S
H795 C819 0.951 . S
H796 C821 0.951 . S
H797 C823 0.950 . S
H798 C824 0.950 . S
H799 C826 0.950 . S
H800 C829 0.950 . S
H801 C830 0.950 . S
H802 C832 0.950 . S
H803 C833 0.954 . S
C804 H786 0.951 . S
C804 C805 1.366 . S
C804 C806 1.388 . S
C805 C804 1.366 . S
C805 C809 1.385 . S
C806 H787 0.951 . S
C806 C804 1.388 . S
C806 C807 1.366 . S
C807 C806 1.366 . S
C807 C808 1.414 . S
C807 C810 1.499 . S
C808 H788 0.950 . S
C808 C807 1.414 . S
C808 C809 1.374 . S
C809 H789 0.950 . S
C809 C805 1.385 . S
C809 C808 1.374 . S
C810 C807 1.499 . S
C810 C811 1.373 . S
C810 C812 1.389 . S
C811 H790 0.950 . S
C811 C810 1.373 . S
C811 C827 1.377 1_545 S
C812 C810 1.389 . S
C812 C813 1.524 . S
C812 C826 1.377 1_545 S
C813 C812 1.524 . S
C813 C814 1.397 . S
C813 C818 1.363 . S
C814 H791 0.950 . S
C814 C813 1.397 . S
C814 C815 1.334 . S
C815 H792 0.950 . S
C815 C814 1.334 . S
C815 C816 1.287 . S
C816 C815 1.287 . S
C816 C817 1.524 . S
C816 H835 0.913 . S
C817 H793 0.950 . S
C817 C816 1.524 . S
C817 C818 1.415 . S
C818 H794 0.954 . S
C818 C813 1.363 . S
C818 C817 1.415 . S
C819 H795 0.951 . S
C819 C820 1.366 . S
C819 C821 1.388 . S
C820 C819 1.366 . S
C820 C824 1.385 . S
C821 H796 0.951 . S
C821 C819 1.388 . S
C821 C822 1.366 . S
C822 C821 1.366 . S
C822 C823 1.414 . S
C822 C825 1.499 . S
C823 H797 0.950 . S
C823 C822 1.414 . S
C823 C824 1.374 . S
C824 H798 0.950 . S
C824 C820 1.385 . S
C824 C823 1.374 . S
C825 C822 1.499 . S
C825 C826 1.373 . S
C825 C827 1.389 . S
C826 H799 0.950 . S
C826 C812 1.377 1_565 S
C826 C825 1.373 . S
C827 C811 1.377 1_565 S
C827 C825 1.389 . S
C827 C828 1.524 . S
C828 C827 1.524 . S
C828 C829 1.397 . S
C828 C833 1.363 . S
C829 H800 0.950 . S
C829 C828 1.397 . S
C829 C830 1.334 . S
C830 H801 0.950 . S
C830 C829 1.334 . S
C830 C831 1.287 . S
C831 C830 1.287 . S
C831 C832 1.524 . S
C831 H834 0.999 . S
C832 H802 0.950 . S
C832 C831 1.524 . S
C832 C833 1.415 . S
C833 H803 0.954 . S
C833 C828 1.363 . S
C833 C832 1.415 . S
H834 C831 0.999 . S
H835 C816 0.913 . S
H836 C854 0.951 . S
H837 C856 0.951 . S
H838 C858 0.950 . S
H839 C859 0.950 . S
H840 C861 0.950 . S
H841 C864 0.950 . S
H842 C865 0.950 . S
H843 C867 0.950 . S
H844 C868 0.950 . S
H845 C869 0.951 . S
H846 C871 0.951 . S
H847 C873 0.950 . S
H848 C874 0.950 . S
H849 C876 0.950 . S
H850 C879 0.950 . S
H851 C880 0.950 . S
H852 C882 0.950 . S
H853 C883 0.950 . S
C854 H836 0.951 . S
C854 C855 1.366 . S
C854 C856 1.388 . S
C855 C854 1.366 . S
C855 C859 1.385 . S
C856 H837 0.951 . S
C856 C854 1.388 . S
C856 C857 1.366 . S
C857 C856 1.366 . S
C857 C858 1.414 . S
C857 C860 1.499 . S
C858 H838 0.950 . S
C858 C857 1.414 . S
C858 C859 1.374 . S
C859 H839 0.950 . S
C859 C855 1.385 . S
C859 C858 1.374 . S
C860 C857 1.499 . S
C860 C861 1.373 . S
C860 C862 1.389 . S
C861 H840 0.950 . S
C861 C860 1.373 . S
C861 C877 1.377 . S
C862 C860 1.389 . S
C862 C863 1.524 . S
C862 C876 1.377 . S
C863 C862 1.524 . S
C863 C864 1.397 . S
C863 C868 1.363 . S
C864 H841 0.950 . S
C864 C863 1.397 . S
C864 C865 1.334 . S
C865 H842 0.950 . S
C865 C864 1.334 . S
C865 C866 1.287 . S
C866 C865 1.287 . S
C866 C867 1.524 . S
C866 H885 0.913 . S
C867 H843 0.950 . S
C867 C866 1.524 . S
C867 C868 1.415 . S
C868 H844 0.950 . S
C868 C863 1.363 . S
C868 C867 1.415 . S
C869 H845 0.951 . S
C869 C870 1.366 . S
C869 C871 1.388 . S
C870 C869 1.366 . S
C870 C874 1.385 . S
C871 H846 0.951 . S
C871 C869 1.388 . S
C871 C872 1.366 . S
C872 C871 1.366 . S
C872 C873 1.414 . S
C872 C875 1.499 . S
C873 H847 0.950 . S
C873 C872 1.414 . S
C873 C874 1.374 . S
C874 H848 0.950 . S
C874 C870 1.385 . S
C874 C873 1.374 . S
C875 C872 1.499 . S
C875 C876 1.373 . S
C875 C877 1.389 . S
C876 H849 0.950 . S
C876 C862 1.377 . S
C876 C875 1.373 . S
C877 C861 1.377 . S
C877 C875 1.389 . S
C877 C878 1.524 . S
C878 C877 1.524 . S
C878 C879 1.397 . S
C878 C883 1.363 . S
C879 H850 0.950 . S
C879 C878 1.397 . S
C879 C880 1.334 . S
C880 H851 0.950 . S
C880 C879 1.334 . S
C880 C881 1.287 . S
C881 C880 1.287 . S
C881 C882 1.524 . S
C881 H884 0.999 . S
C882 H852 0.950 . S
C882 C881 1.524 . S
C882 C883 1.415 . S
C883 H853 0.950 . S
C883 C878 1.363 . S
C883 C882 1.415 . S
H884 C881 0.999 . S
H885 C866 0.913 . S
H886 C904 0.951 . S
H887 C906 0.951 . S
H888 C908 0.950 . S
H889 C909 0.950 . S
H890 C911 0.950 . S
H891 C914 0.950 . S
H892 C915 0.950 . S
H893 C917 0.950 . S
H894 C918 0.950 1_655 S
H895 C919 0.951 . S
H896 C921 0.951 . S
H897 C923 0.950 . S
H898 C924 0.950 . S
H899 C926 0.950 . S
H900 C929 0.950 . S
H901 C930 0.950 . S
H902 C932 0.950 . S
H903 C933 0.950 1_455 S
C904 H886 0.951 . S
C904 C905 1.366 . S
C904 C906 1.388 . S
C905 C904 1.366 . S
C905 C909 1.385 . S
C906 H887 0.951 . S
C906 C904 1.388 . S
C906 C907 1.366 . S
C907 C906 1.366 . S
C907 C908 1.414 . S
C907 C910 1.499 . S
C908 H888 0.950 . S
C908 C907 1.414 . S
C908 C909 1.374 . S
C909 H889 0.950 . S
C909 C905 1.385 . S
C909 C908 1.374 . S
C910 C907 1.499 . S
C910 C911 1.373 . S
C910 C912 1.389 . S
C911 H890 0.950 . S
C911 C910 1.373 . S
C911 C927 1.377 1_455 S
C912 C910 1.389 . S
C912 C913 1.524 . S
C912 C926 1.377 1_455 S
C913 C912 1.524 . S
C913 C914 1.397 . S
C913 C918 1.363 . S
C914 H891 0.950 . S
C914 C913 1.397 . S
C914 C915 1.334 . S
C915 H892 0.950 . S
C915 C914 1.334 . S
C915 C916 1.287 . S
C916 C915 1.287 . S
C916 C917 1.524 . S
C916 H935 0.913 . S
C917 H893 0.950 . S
C917 C916 1.524 . S
C917 C918 1.415 . S
C918 H894 0.950 1_455 S
C918 C913 1.363 . S
C918 C917 1.415 . S
C919 H895 0.951 . S
C919 C920 1.366 . S
C919 C921 1.388 . S
C920 C919 1.366 . S
C920 C924 1.385 . S
C921 H896 0.951 . S
C921 C919 1.388 . S
C921 C922 1.366 . S
C922 C921 1.366 . S
C922 C923 1.414 . S
C922 C925 1.499 . S
C923 H897 0.950 . S
C923 C922 1.414 . S
C923 C924 1.374 . S
C924 H898 0.950 . S
C924 C920 1.385 . S
C924 C923 1.374 . S
C925 C922 1.499 . S
C925 C926 1.373 . S
C925 C927 1.389 . S
C926 H899 0.950 . S
C926 C912 1.377 1_655 S
C926 C925 1.373 . S
C927 C911 1.377 1_655 S
C927 C925 1.389 . S
C927 C928 1.524 . S
C928 C927 1.524 . S
C928 C929 1.397 . S
C928 C933 1.363 . S
C929 H900 0.950 . S
C929 C928 1.397 . S
C929 C930 1.334 . S
C930 H901 0.950 . S
C930 C929 1.334 . S
C930 C931 1.287 . S
C931 C930 1.287 . S
C931 C932 1.524 . S
C931 H934 0.999 . S
C932 H902 0.950 . S
C932 C931 1.524 . S
C932 C933 1.415 . S
C933 H903 0.950 1_655 S
C933 C928 1.363 . S
C933 C932 1.415 . S
H934 C931 0.999 . S
H935 C916 0.913 . S
H936 C954 0.951 . S
H937 C956 0.951 . S
H938 C958 0.950 . S
H939 C959 0.950 . S
H940 C961 0.950 . S
H941 C964 0.950 . S
H942 C965 0.950 . S
H943 C967 0.950 . S
H944 C968 0.950 . S
H945 C969 0.951 . S
H946 C971 0.951 . S
H947 C973 0.950 . S
H948 C974 0.950 . S
H949 C976 0.950 . S
H950 C979 0.950 . S
H951 C980 0.950 . S
H952 C982 0.950 . S
H953 C983 0.950 . S
C954 H936 0.951 . S
C954 C955 1.366 . S
C954 C956 1.388 . S
C955 C954 1.366 . S
C955 C959 1.385 . S
C956 H937 0.951 . S
C956 C954 1.388 . S
C956 C957 1.366 . S
C957 C956 1.366 . S
C957 C958 1.414 . S
C957 C960 1.499 . S
C958 H938 0.950 . S
C958 C957 1.414 . S
C958 C959 1.374 . S
C959 H939 0.950 . S
C959 C955 1.385 . S
C959 C958 1.374 . S
C960 C957 1.499 . S
C960 C961 1.373 . S
C960 C962 1.389 . S
C961 H940 0.950 . S
C961 C960 1.373 . S
C961 C977 1.377 . S
C962 C960 1.389 . S
C962 C963 1.524 . S
C962 C976 1.377 . S
C963 C962 1.524 . S
C963 C964 1.397 . S
C963 C968 1.363 . S
C964 H941 0.950 . S
C964 C963 1.397 . S
C964 C965 1.334 . S
C965 H942 0.950 . S
C965 C964 1.334 . S
C965 C966 1.287 . S
C966 C965 1.287 . S
C966 C967 1.524 . S
C966 H985 0.913 . S
C967 H943 0.950 . S
C967 C966 1.524 . S
C967 C968 1.415 . S
C968 H944 0.950 . S
C968 C963 1.363 . S
C968 C967 1.415 . S
C969 H945 0.951 . S
C969 C970 1.366 . S
C969 C971 1.388 . S
C970 C969 1.366 . S
C970 C974 1.385 . S
C971 H946 0.951 . S
C971 C969 1.388 . S
C971 C972 1.366 . S
C972 C971 1.366 . S
C972 C973 1.414 . S
C972 C975 1.499 . S
C973 H947 0.950 . S
C973 C972 1.414 . S
C973 C974 1.374 . S
C974 H948 0.950 . S
C974 C970 1.385 . S
C974 C973 1.374 . S
C975 C972 1.499 . S
C975 C976 1.373 . S
C975 C977 1.389 . S
C976 H949 0.950 . S
C976 C962 1.377 . S
C976 C975 1.373 . S
C977 C961 1.377 . S
C977 C975 1.389 . S
C977 C978 1.524 . S
C978 C977 1.524 . S
C978 C979 1.397 . S
C978 C983 1.363 . S
C979 H950 0.950 . S
C979 C978 1.397 . S
C979 C980 1.334 . S
C980 H951 0.950 . S
C980 C979 1.334 . S
C980 C981 1.287 . S
C981 C980 1.287 . S
C981 C982 1.524 . S
C981 H984 0.999 . S
C982 H952 0.950 . S
C982 C981 1.524 . S
C982 C983 1.415 . S
C983 H953 0.950 . S
C983 C978 1.363 . S
C983 C982 1.415 . S
H984 C981 0.999 . S
H985 C966 0.913 . S
H986 C1004 0.951 . S
H987 C1006 0.951 . S
H988 C1008 0.950 . S
H989 C1009 0.950 . S
H990 C1011 0.950 . S
H991 C1014 0.950 . S
H992 C1015 0.950 . S
H993 C1017 0.950 . S
H994 C1018 0.950 . S
H995 C1019 0.951 . S
H996 C1021 0.951 . S
H997 C1023 0.950 . S
H998 C1024 0.950 . S
H999 C1026 0.950 . S
H1000 C1029 0.950 . S
H1001 C1030 0.950 . S
H1002 C1032 0.950 . S
H1003 C1033 0.950 . S
C1004 H986 0.951 . S
C1004 C1005 1.366 . S
C1004 C1006 1.388 . S
C1005 C1004 1.366 . S
C1005 C1009 1.385 . S
C1006 H987 0.951 . S
C1006 C1004 1.388 . S
C1006 C1007 1.366 . S
C1007 C1006 1.366 . S
C1007 C1008 1.414 . S
C1007 C1010 1.499 . S
C1008 H988 0.950 . S
C1008 C1007 1.414 . S
C1008 C1009 1.374 . S
C1009 H989 0.950 . S
C1009 C1005 1.385 . S
C1009 C1008 1.374 . S
C1010 C1007 1.499 . S
C1010 C1011 1.373 . S
C1010 C1012 1.389 . S
C1011 H990 0.950 . S
C1011 C1010 1.373 . S
C1011 C1027 1.377 . S
C1012 C1010 1.389 . S
C1012 C1013 1.524 . S
C1012 C1026 1.377 . S
C1013 C1012 1.524 . S
C1013 C1014 1.397 . S
C1013 C1018 1.363 . S
C1014 H991 0.950 . S
C1014 C1013 1.397 . S
C1014 C1015 1.334 . S
C1015 H992 0.950 . S
C1015 C1014 1.334 . S
C1015 C1016 1.287 . S
C1016 C1015 1.287 . S
C1016 C1017 1.524 . S
C1016 H1035 0.913 . S
C1017 H993 0.950 . S
C1017 C1016 1.524 . S
C1017 C1018 1.415 . S
C1018 H994 0.950 . S
C1018 C1013 1.363 . S
C1018 C1017 1.415 . S
C1019 H995 0.951 . S
C1019 C1020 1.366 . S
C1019 C1021 1.388 . S
C1020 C1019 1.366 . S
C1020 C1024 1.385 . S
C1021 H996 0.951 . S
C1021 C1019 1.388 . S
C1021 C1022 1.366 . S
C1022 C1021 1.366 . S
C1022 C1023 1.414 . S
C1022 C1025 1.499 . S
C1023 H997 0.950 . S
C1023 C1022 1.414 . S
C1023 C1024 1.374 . S
C1024 H998 0.950 . S
C1024 C1020 1.385 . S
C1024 C1023 1.374 . S
C1025 C1022 1.499 . S
C1025 C1026 1.373 . S
C1025 C1027 1.389 . S
C1026 H999 0.950 . S
C1026 C1012 1.377 . S
C1026 C1025 1.373 . S
C1027 C1011 1.377 . S
C1027 C1025 1.389 . S
C1027 C1028 1.524 . S
C1028 C1027 1.524 . S
C1028 C1029 1.397 . S
C1028 C1033 1.363 . S
C1029 H1000 0.950 . S
C1029 C1028 1.397 . S
C1029 C1030 1.334 . S
C1030 H1001 0.950 . S
C1030 C1029 1.334 . S
C1030 C1031 1.287 . S
C1031 C1030 1.287 . S
C1031 C1032 1.524 . S
C1031 H1034 0.999 . S
C1032 H1002 0.950 . S
C1032 C1031 1.524 . S
C1032 C1033 1.415 . S
C1033 H1003 0.950 . S
C1033 C1028 1.363 . S
C1033 C1032 1.415 . S
H1034 C1031 0.999 . S
H1035 C1016 0.913 . S
H1036 C1054 0.951 . S
H1037 C1056 0.951 . S
H1038 C1058 0.950 . S
H1039 C1059 0.950 . S
H1040 C1061 0.950 . S
H1041 C1064 0.950 . S
H1042 C1065 0.950 . S
H1043 C1067 0.950 . S
H1044 C1068 0.950 . S
H1045 C1069 0.951 . S
H1046 C1071 0.951 . S
H1047 C1073 0.950 . S
H1048 C1074 0.950 . S
H1049 C1076 0.950 . S
H1050 C1079 0.950 . S
H1051 C1080 0.950 . S
H1052 C1082 0.950 . S
H1053 C1083 0.950 . S
C1054 H1036 0.951 . S
C1054 C1055 1.366 . S
C1054 C1056 1.388 . S
C1055 C1054 1.366 . S
C1055 C1059 1.385 . S
C1056 H1037 0.951 . S
C1056 C1054 1.388 . S
C1056 C1057 1.366 . S
C1057 C1056 1.366 . S
C1057 C1058 1.414 . S
C1057 C1060 1.499 . S
C1058 H1038 0.950 . S
C1058 C1057 1.414 . S
C1058 C1059 1.374 . S
C1059 H1039 0.950 . S
C1059 C1055 1.385 . S
C1059 C1058 1.374 . S
C1060 C1057 1.499 . S
C1060 C1061 1.373 . S
C1060 C1062 1.389 . S
C1061 H1040 0.950 . S
C1061 C1060 1.373 . S
C1061 C1077 1.377 . S
C1062 C1060 1.389 . S
C1062 C1063 1.524 . S
C1062 C1076 1.377 . S
C1063 C1062 1.524 . S
C1063 C1064 1.397 . S
C1063 C1068 1.363 . S
C1064 H1041 0.950 . S
C1064 C1063 1.397 . S
C1064 C1065 1.334 . S
C1065 H1042 0.950 . S
C1065 C1064 1.334 . S
C1065 C1066 1.287 . S
C1066 C1065 1.287 . S
C1066 C1067 1.524 . S
C1066 H1085 0.913 . S
C1067 H1043 0.950 . S
C1067 C1066 1.524 . S
C1067 C1068 1.415 . S
C1068 H1044 0.950 . S
C1068 C1063 1.363 . S
C1068 C1067 1.415 . S
C1069 H1045 0.951 . S
C1069 C1070 1.366 . S
C1069 C1071 1.388 . S
C1070 C1069 1.366 . S
C1070 C1074 1.385 . S
C1071 H1046 0.951 . S
C1071 C1069 1.388 . S
C1071 C1072 1.366 . S
C1072 C1071 1.366 . S
C1072 C1073 1.414 . S
C1072 C1075 1.499 . S
C1073 H1047 0.950 . S
C1073 C1072 1.414 . S
C1073 C1074 1.374 . S
C1074 H1048 0.950 . S
C1074 C1070 1.385 . S
C1074 C1073 1.374 . S
C1075 C1072 1.499 . S
C1075 C1076 1.373 . S
C1075 C1077 1.389 . S
C1076 H1049 0.950 . S
C1076 C1062 1.377 . S
C1076 C1075 1.373 . S
C1077 C1061 1.377 . S
C1077 C1075 1.389 . S
C1077 C1078 1.524 . S
C1078 C1077 1.524 . S
C1078 C1079 1.397 . S
C1078 C1083 1.363 . S
C1079 H1050 0.950 . S
C1079 C1078 1.397 . S
C1079 C1080 1.334 . S
C1080 H1051 0.950 . S
C1080 C1079 1.334 . S
C1080 C1081 1.287 . S
C1081 C1080 1.287 . S
C1081 C1082 1.524 . S
C1081 H1084 0.999 . S
C1082 H1052 0.950 . S
C1082 C1081 1.524 . S
C1082 C1083 1.415 . S
C1083 H1053 0.950 . S
C1083 C1078 1.363 . S
C1083 C1082 1.415 . S
H1084 C1081 0.999 . S
H1085 C1066 0.913 . S
H1086 C1104 0.951 . S
H1087 C1106 0.951 . S
H1088 C1108 0.950 . S
H1089 C1109 0.950 . S
H1090 C1111 0.950 . S
H1091 C1114 0.950 . S
H1092 C1115 0.950 . S
H1093 C1117 0.950 . S
H1094 C1118 0.950 . S
H1095 C1119 0.951 . S
H1096 C1121 0.951 . S
H1097 C1123 0.950 . S
H1098 C1124 0.950 . S
H1099 C1126 0.950 . S
H1100 C1129 0.950 . S
H1101 C1130 0.950 . S
H1102 C1132 0.950 . S
H1103 C1133 0.950 . S
C1104 H1086 0.951 . S
C1104 C1105 1.366 . S
C1104 C1106 1.388 . S
C1105 C1104 1.366 . S
C1105 C1109 1.385 . S
C1106 H1087 0.951 . S
C1106 C1104 1.388 . S
C1106 C1107 1.366 . S
C1107 C1106 1.366 . S
C1107 C1108 1.414 . S
C1107 C1110 1.499 . S
C1108 H1088 0.950 . S
C1108 C1107 1.414 . S
C1108 C1109 1.374 . S
C1109 H1089 0.950 . S
C1109 C1105 1.385 . S
C1109 C1108 1.374 . S
C1110 C1107 1.499 . S
C1110 C1111 1.373 . S
C1110 C1112 1.389 . S
C1111 H1090 0.950 . S
C1111 C1110 1.373 . S
C1111 C1127 1.377 . S
C1112 C1110 1.389 . S
C1112 C1113 1.524 . S
C1112 C1126 1.377 . S
C1113 C1112 1.524 . S
C1113 C1114 1.397 . S
C1113 C1118 1.363 . S
C1114 H1091 0.950 . S
C1114 C1113 1.397 . S
C1114 C1115 1.334 . S
C1115 H1092 0.950 . S
C1115 C1114 1.334 . S
C1115 C1116 1.287 . S
C1116 C1115 1.287 . S
C1116 C1117 1.524 . S
C1116 H1135 0.913 . S
C1117 H1093 0.950 . S
C1117 C1116 1.524 . S
C1117 C1118 1.415 . S
C1118 H1094 0.950 . S
C1118 C1113 1.363 . S
C1118 C1117 1.415 . S
C1119 H1095 0.951 . S
C1119 C1120 1.366 . S
C1119 C1121 1.388 . S
C1120 C1119 1.366 . S
C1120 C1124 1.385 . S
C1121 H1096 0.951 . S
C1121 C1119 1.388 . S
C1121 C1122 1.366 . S
C1122 C1121 1.366 . S
C1122 C1123 1.414 . S
C1122 C1125 1.499 . S
C1123 H1097 0.950 . S
C1123 C1122 1.414 . S
C1123 C1124 1.374 . S
C1124 H1098 0.950 . S
C1124 C1120 1.385 . S
C1124 C1123 1.374 . S
C1125 C1122 1.499 . S
C1125 C1126 1.373 . S
C1125 C1127 1.389 . S
C1126 H1099 0.950 . S
C1126 C1112 1.377 . S
C1126 C1125 1.373 . S
C1127 C1111 1.377 . S
C1127 C1125 1.389 . S
C1127 C1128 1.524 . S
C1128 C1127 1.524 . S
C1128 C1129 1.397 . S
C1128 C1133 1.363 . S
C1129 H1100 0.950 . S
C1129 C1128 1.397 . S
C1129 C1130 1.334 . S
C1130 H1101 0.950 . S
C1130 C1129 1.334 . S
C1130 C1131 1.287 . S
C1131 C1130 1.287 . S
C1131 C1132 1.524 . S
C1131 H1134 0.999 . S
C1132 H1102 0.950 . S
C1132 C1131 1.524 . S
C1132 C1133 1.415 . S
C1133 H1103 0.950 . S
C1133 C1128 1.363 . S
C1133 C1132 1.415 . S
H1134 C1131 0.999 . S
H1135 C1116 0.913 . S
H1136 C1154 0.951 . S
H1137 C1156 0.951 . S
H1138 C1158 0.950 . S
H1139 C1159 0.950 . S
H1140 C1161 0.950 . S
H1141 C1164 0.950 . S
H1142 C1165 0.950 . S
H1143 C1167 0.950 . S
H1144 C1168 0.950 . S
H1145 C1169 0.951 . S
H1146 C1171 0.951 . S
H1147 C1173 0.950 . S
H1148 C1174 0.950 . S
H1149 C1176 0.950 . S
H1150 C1179 0.950 . S
H1151 C1180 0.950 . S
H1152 C1182 0.950 . S
H1153 C1183 0.950 . S
C1154 H1136 0.951 . S
C1154 C1155 1.366 . S
C1154 C1156 1.388 . S
C1155 C1154 1.366 . S
C1155 C1159 1.385 . S
C1156 H1137 0.951 . S
C1156 C1154 1.388 . S
C1156 C1157 1.366 . S
C1157 C1156 1.366 . S
C1157 C1158 1.414 . S
C1157 C1160 1.499 . S
C1158 H1138 0.950 . S
C1158 C1157 1.414 . S
C1158 C1159 1.374 . S
C1159 H1139 0.950 . S
C1159 C1155 1.385 . S
C1159 C1158 1.374 . S
C1160 C1157 1.499 . S
C1160 C1161 1.373 . S
C1160 C1162 1.389 . S
C1161 H1140 0.950 . S
C1161 C1160 1.373 . S
C1161 C1177 1.377 . S
C1162 C1160 1.389 . S
C1162 C1163 1.524 . S
C1162 C1176 1.377 . S
C1163 C1162 1.524 . S
C1163 C1164 1.397 . S
C1163 C1168 1.363 . S
C1164 H1141 0.950 . S
C1164 C1163 1.397 . S
C1164 C1165 1.334 . S
C1165 H1142 0.950 . S
C1165 C1164 1.334 . S
C1165 C1166 1.287 . S
C1166 C1165 1.287 . S
C1166 C1167 1.524 . S
C1166 H1185 0.913 . S
C1167 H1143 0.950 . S
C1167 C1166 1.524 . S
C1167 C1168 1.415 . S
C1168 H1144 0.950 . S
C1168 C1163 1.363 . S
C1168 C1167 1.415 . S
C1169 H1145 0.951 . S
C1169 C1170 1.366 . S
C1169 C1171 1.388 . S
C1170 C1169 1.366 . S
C1170 C1174 1.385 . S
C1171 H1146 0.951 . S
C1171 C1169 1.388 . S
C1171 C1172 1.366 . S
C1172 C1171 1.366 . S
C1172 C1173 1.414 . S
C1172 C1175 1.499 . S
C1173 H1147 0.950 . S
C1173 C1172 1.414 . S
C1173 C1174 1.374 . S
C1174 H1148 0.950 . S
C1174 C1170 1.385 . S
C1174 C1173 1.374 . S
C1175 C1172 1.499 . S
C1175 C1176 1.373 . S
C1175 C1177 1.389 . S
C1176 H1149 0.950 . S
C1176 C1162 1.377 . S
C1176 C1175 1.373 . S
C1177 C1161 1.377 . S
C1177 C1175 1.389 . S
C1177 C1178 1.524 . S
C1178 C1177 1.524 . S
C1178 C1179 1.397 . S
C1178 C1183 1.363 . S
C1179 H1150 0.950 . S
C1179 C1178 1.397 . S
C1179 C1180 1.334 . S
C1180 H1151 0.950 . S
C1180 C1179 1.334 . S
C1180 C1181 1.287 . S
C1181 C1180 1.287 . S
C1181 C1182 1.524 . S
C1181 H1184 0.999 . S
C1182 H1152 0.950 . S
C1182 C1181 1.524 . S
C1182 C1183 1.415 . S
C1183 H1153 0.950 . S
C1183 C1178 1.363 . S
C1183 C1182 1.415 . S
H1184 C1181 0.999 . S
H1185 C1166 0.913 . S
H1186 C1204 0.951 . S
H1187 C1206 0.951 . S
H1188 C1208 0.950 . S
H1189 C1209 0.950 . S
H1190 C1211 0.950 . S
H1191 C1214 0.950 . S
H1192 C1215 0.950 . S
H1193 C1217 0.950 . S
H1194 C1218 0.950 . S
H1195 C1219 0.951 . S
H1196 C1221 0.951 . S
H1197 C1223 0.950 . S
H1198 C1224 0.950 . S
H1199 C1226 0.950 . S
H1200 C1229 0.950 . S
H1201 C1230 0.950 . S
H1202 C1232 0.950 . S
H1203 C1233 0.950 . S
C1204 H1186 0.951 . S
C1204 C1205 1.366 . S
C1204 C1206 1.388 . S
C1205 C1204 1.366 . S
C1205 C1209 1.385 . S
C1206 H1187 0.951 . S
C1206 C1204 1.388 . S
C1206 C1207 1.366 . S
C1207 C1206 1.366 . S
C1207 C1208 1.414 . S
C1207 C1210 1.499 . S
C1208 H1188 0.950 . S
C1208 C1207 1.414 . S
C1208 C1209 1.374 . S
C1209 H1189 0.950 . S
C1209 C1205 1.385 . S
C1209 C1208 1.374 . S
C1210 C1207 1.499 . S
C1210 C1211 1.373 . S
C1210 C1212 1.389 . S
C1211 H1190 0.950 . S
C1211 C1210 1.373 . S
C1211 C1227 1.377 . S
C1212 C1210 1.389 . S
C1212 C1213 1.524 . S
C1212 C1226 1.377 . S
C1213 C1212 1.524 . S
C1213 C1214 1.397 . S
C1213 C1218 1.363 . S
C1214 H1191 0.950 . S
C1214 C1213 1.397 . S
C1214 C1215 1.334 . S
C1215 H1192 0.950 . S
C1215 C1214 1.334 . S
C1215 C1216 1.287 . S
C1216 C1215 1.287 . S
C1216 C1217 1.524 . S
C1216 H1235 0.913 . S
C1217 H1193 0.950 . S
C1217 C1216 1.524 . S
C1217 C1218 1.415 . S
C1218 H1194 0.950 . S
C1218 C1213 1.363 . S
C1218 C1217 1.415 . S
C1219 H1195 0.951 . S
C1219 C1220 1.366 . S
C1219 C1221 1.388 . S
C1220 C1219 1.366 . S
C1220 C1224 1.385 . S
C1221 H1196 0.951 . S
C1221 C1219 1.388 . S
C1221 C1222 1.366 . S
C1222 C1221 1.366 . S
C1222 C1223 1.414 . S
C1222 C1225 1.499 . S
C1223 H1197 0.950 . S
C1223 C1222 1.414 . S
C1223 C1224 1.374 . S
C1224 H1198 0.950 . S
C1224 C1220 1.385 . S
C1224 C1223 1.374 . S
C1225 C1222 1.499 . S
C1225 C1226 1.373 . S
C1225 C1227 1.389 . S
C1226 H1199 0.950 . S
C1226 C1212 1.377 . S
C1226 C1225 1.373 . S
C1227 C1211 1.377 . S
C1227 C1225 1.389 . S
C1227 C1228 1.524 . S
C1228 C1227 1.524 . S
C1228 C1229 1.397 . S
C1228 C1233 1.363 . S
C1229 H1200 0.950 . S
C1229 C1228 1.397 . S
C1229 C1230 1.334 . S
C1230 H1201 0.950 . S
C1230 C1229 1.334 . S
C1230 C1231 1.287 . S
C1231 C1230 1.287 . S
C1231 C1232 1.524 . S
C1231 H1234 0.999 . S
C1232 H1202 0.950 . S
C1232 C1231 1.524 . S
C1232 C1233 1.415 . S
C1233 H1203 0.950 . S
C1233 C1228 1.363 . S
C1233 C1232 1.415 . S
H1234 C1231 0.999 . S
H1235 C1216 0.913 . S
H1236 C1254 0.951 . S
H1237 C1256 0.951 . S
H1238 C1258 0.950 . S
H1239 C1259 0.950 . S
H1240 C1261 0.950 . S
H1241 C1264 0.950 . S
H1242 C1265 0.950 . S
H1243 C1267 0.950 . S
H1244 C1268 0.950 . S
H1245 C1269 0.951 . S
H1246 C1271 0.951 . S
H1247 C1273 0.950 . S
H1248 C1274 0.950 . S
H1249 C1276 0.950 . S
H1250 C1279 0.950 . S
H1251 C1280 0.950 . S
H1252 C1282 0.950 . S
H1253 C1283 0.950 . S
C1254 H1236 0.951 . S
C1254 C1255 1.366 . S
C1254 C1256 1.388 . S
C1255 C1254 1.366 . S
C1255 C1259 1.385 . S
C1256 H1237 0.951 . S
C1256 C1254 1.388 . S
C1256 C1257 1.366 . S
C1257 C1256 1.366 . S
C1257 C1258 1.414 . S
C1257 C1260 1.499 . S
C1258 H1238 0.950 . S
C1258 C1257 1.414 . S
C1258 C1259 1.374 . S
C1259 H1239 0.950 . S
C1259 C1255 1.385 . S
C1259 C1258 1.374 . S
C1260 C1257 1.499 . S
C1260 C1261 1.373 . S
C1260 C1262 1.389 . S
C1261 H1240 0.950 . S
C1261 C1260 1.373 . S
C1261 C1277 1.377 . S
C1262 C1260 1.389 . S
C1262 C1263 1.524 . S
C1262 C1276 1.377 . S
C1263 C1262 1.524 . S
C1263 C1264 1.397 . S
C1263 C1268 1.363 . S
C1264 H1241 0.950 . S
C1264 C1263 1.397 . S
C1264 C1265 1.334 . S
C1265 H1242 0.950 . S
C1265 C1264 1.334 . S
C1265 C1266 1.287 . S
C1266 C1265 1.287 . S
C1266 C1267 1.524 . S
C1266 H1285 0.913 . S
C1267 H1243 0.950 . S
C1267 C1266 1.524 . S
C1267 C1268 1.415 . S
C1268 H1244 0.950 . S
C1268 C1263 1.363 . S
C1268 C1267 1.415 . S
C1269 H1245 0.951 . S
C1269 C1270 1.366 . S
C1269 C1271 1.388 . S
C1270 C1269 1.366 . S
C1270 C1274 1.385 . S
C1271 H1246 0.951 . S
C1271 C1269 1.388 . S
C1271 C1272 1.366 . S
C1272 C1271 1.366 . S
C1272 C1273 1.414 . S
C1272 C1275 1.499 . S
C1273 H1247 0.950 . S
C1273 C1272 1.414 . S
C1273 C1274 1.374 . S
C1274 H1248 0.950 . S
C1274 C1270 1.385 . S
C1274 C1273 1.374 . S
C1275 C1272 1.499 . S
C1275 C1276 1.373 . S
C1275 C1277 1.389 . S
C1276 H1249 0.950 . S
C1276 C1262 1.377 . S
C1276 C1275 1.373 . S
C1277 C1261 1.377 . S
C1277 C1275 1.389 . S
C1277 C1278 1.524 . S
C1278 C1277 1.524 . S
C1278 C1279 1.397 . S
C1278 C1283 1.363 . S
C1279 H1250 0.950 . S
C1279 C1278 1.397 . S
C1279 C1280 1.334 . S
C1280 H1251 0.950 . S
C1280 C1279 1.334 . S
C1280 C1281 1.287 . S
C1281 C1280 1.287 . S
C1281 C1282 1.524 . S
C1281 H1284 0.999 . S
C1282 H1252 0.950 . S
C1282 C1281 1.524 . S
C1282 C1283 1.415 . S
C1283 H1253 0.950 . S
C1283 C1278 1.363 . S
C1283 C1282 1.415 . S
H1284 C1281 0.999 . S
H1285 C1266 0.913 . S
H1286 C1304 0.951 . S
H1287 C1306 0.951 . S
H1288 C1308 0.950 . S
H1289 C1309 0.950 . S
H1290 C1311 0.950 . S
H1291 C1314 0.950 . S
H1292 C1315 0.950 . S
H1293 C1317 0.950 . S
H1294 C1318 0.950 . S
H1295 C1319 0.951 . S
H1296 C1321 0.951 . S
H1297 C1323 0.950 . S
H1298 C1324 0.950 . S
H1299 C1326 0.950 . S
H1300 C1329 0.950 . S
H1301 C1330 0.950 . S
H1302 C1332 0.950 . S
H1303 C1333 0.950 . S
C1304 H1286 0.951 . S
C1304 C1305 1.366 . S
C1304 C1306 1.388 . S
C1305 C1304 1.366 . S
C1305 C1309 1.385 . S
C1306 H1287 0.951 . S
C1306 C1304 1.388 . S
C1306 C1307 1.366 . S
C1307 C1306 1.366 . S
C1307 C1308 1.414 . S
C1307 C1310 1.499 . S
C1308 H1288 0.950 . S
C1308 C1307 1.414 . S
C1308 C1309 1.374 . S
C1309 H1289 0.950 . S
C1309 C1305 1.385 . S
C1309 C1308 1.374 . S
C1310 C1307 1.499 . S
C1310 C1311 1.373 . S
C1310 C1312 1.389 . S
C1311 H1290 0.950 . S
C1311 C1310 1.373 . S
C1311 C1327 1.377 . S
C1312 C1310 1.389 . S
C1312 C1313 1.524 . S
C1312 C1326 1.377 . S
C1313 C1312 1.524 . S
C1313 C1314 1.397 . S
C1313 C1318 1.363 . S
C1314 H1291 0.950 . S
C1314 C1313 1.397 . S
C1314 C1315 1.334 . S
C1315 H1292 0.950 . S
C1315 C1314 1.334 . S
C1315 C1316 1.287 . S
C1316 C1315 1.287 . S
C1316 C1317 1.524 . S
C1316 H1335 0.913 . S
C1317 H1293 0.950 . S
C1317 C1316 1.524 . S
C1317 C1318 1.415 . S
C1318 H1294 0.950 . S
C1318 C1313 1.363 . S
C1318 C1317 1.415 . S
C1319 H1295 0.951 . S
C1319 C1320 1.366 . S
C1319 C1321 1.388 . S
C1320 C1319 1.366 . S
C1320 C1324 1.385 . S
C1321 H1296 0.951 . S
C1321 C1319 1.388 . S
C1321 C1322 1.366 . S
C1322 C1321 1.366 . S
C1322 C1323 1.414 . S
C1322 C1325 1.499 . S
C1323 H1297 0.950 . S
C1323 C1322 1.414 . S
C1323 C1324 1.374 . S
C1324 H1298 0.950 . S
C1324 C1320 1.385 . S
C1324 C1323 1.374 . S
C1325 C1322 1.499 . S
C1325 C1326 1.373 . S
C1325 C1327 1.389 . S
C1326 H1299 0.950 . S
C1326 C1312 1.377 . S
C1326 C1325 1.373 . S
C1327 C1311 1.377 . S
C1327 C1325 1.389 . S
C1327 C1328 1.524 . S
C1328 C1327 1.524 . S
C1328 C1329 1.397 . S
C1328 C1333 1.363 . S
C1329 H1300 0.950 . S
C1329 C1328 1.397 . S
C1329 C1330 1.334 . S
C1330 H1301 0.950 . S
C1330 C1329 1.334 . S
C1330 C1331 1.287 . S
C1331 C1330 1.287 . S
C1331 C1332 1.524 . S
C1331 H1334 0.999 . S
C1332 H1302 0.950 . S
C1332 C1331 1.524 . S
C1332 C1333 1.415 . S
C1333 H1303 0.950 . S
C1333 C1328 1.363 . S
C1333 C1332 1.415 . S
H1334 C1331 0.999 . S
H1335 C1316 0.913 . S
H1336 C1354 0.951 . S
H1337 C1356 0.951 . S
H1338 C1358 0.950 . S
H1339 C1359 0.950 . S
H1340 C1361 0.950 . S
H1341 C1364 0.950 . S
H1342 C1365 0.950 . S
H1343 C1367 0.950 . S
H1344 C1368 0.950 . S
H1345 C1369 0.951 . S
H1346 C1371 0.951 . S
H1347 C1373 0.950 . S
H1348 C1374 0.950 . S
H1349 C1376 0.950 . S
H1350 C1379 0.950 . S
H1351 C1380 0.950 . S
H1352 C1382 0.950 . S
H1353 C1383 0.950 . S
C1354 H1336 0.951 . S
C1354 C1355 1.366 . S
C1354 C1356 1.388 . S
C1355 C1354 1.366 . S
C1355 C1359 1.385 . S
C1356 H1337 0.951 . S
C1356 C1354 1.388 . S
C1356 C1357 1.366 . S
C1357 C1356 1.366 . S
C1357 C1358 1.414 . S
C1357 C1360 1.499 . S
C1358 H1338 0.950 . S
C1358 C1357 1.414 . S
C1358 C1359 1.374 . S
C1359 H1339 0.950 . S
C1359 C1355 1.385 . S
C1359 C1358 1.374 . S
C1360 C1357 1.499 . S
C1360 C1361 1.373 . S
C1360 C1362 1.389 . S
C1361 H1340 0.950 . S
C1361 C1360 1.373 . S
C1361 C1377 1.377 . S
C1362 C1360 1.389 . S
C1362 C1363 1.524 . S
C1362 C1376 1.377 . S
C1363 C1362 1.524 . S
C1363 C1364 1.397 . S
C1363 C1368 1.363 . S
C1364 H1341 0.950 . S
C1364 C1363 1.397 . S
C1364 C1365 1.334 . S
C1365 H1342 0.950 . S
C1365 C1364 1.334 . S
C1365 C1366 1.287 . S
C1366 C1365 1.287 . S
C1366 C1367 1.524 . S
C1366 H1385 0.913 . S
C1367 H1343 0.950 . S
C1367 C1366 1.524 . S
C1367 C1368 1.415 . S
C1368 H1344 0.950 . S
C1368 C1363 1.363 . S
C1368 C1367 1.415 . S
C1369 H1345 0.951 . S
C1369 C1370 1.366 . S
C1369 C1371 1.388 . S
C1370 C1369 1.366 . S
C1370 C1374 1.385 . S
C1371 H1346 0.951 . S
C1371 C1369 1.388 . S
C1371 C1372 1.366 . S
C1372 C1371 1.366 . S
C1372 C1373 1.414 . S
C1372 C1375 1.499 . S
C1373 H1347 0.950 . S
C1373 C1372 1.414 . S
C1373 C1374 1.374 . S
C1374 H1348 0.950 . S
C1374 C1370 1.385 . S
C1374 C1373 1.374 . S
C1375 C1372 1.499 . S
C1375 C1376 1.373 . S
C1375 C1377 1.389 . S
C1376 H1349 0.950 . S
C1376 C1362 1.377 . S
C1376 C1375 1.373 . S
C1377 C1361 1.377 . S
C1377 C1375 1.389 . S
C1377 C1378 1.524 . S
C1378 C1377 1.524 . S
C1378 C1379 1.397 . S
C1378 C1383 1.363 . S
C1379 H1350 0.950 . S
C1379 C1378 1.397 . S
C1379 C1380 1.334 . S
C1380 H1351 0.950 . S
C1380 C1379 1.334 . S
C1380 C1381 1.287 . S
C1381 C1380 1.287 . S
C1381 C1382 1.524 . S
C1381 H1384 0.999 . S
C1382 H1352 0.950 . S
C1382 C1381 1.524 . S
C1382 C1383 1.415 . S
C1383 H1353 0.950 . S
C1383 C1378 1.363 . S
C1383 C1382 1.415 . S
H1384 C1381 0.999 . S
H1385 C1366 0.913 . S
H1386 C1404 0.951 . S
H1387 C1406 0.951 . S
H1388 C1408 0.950 . S
H1389 C1409 0.950 . S
H1390 C1411 0.950 . S
H1391 C1414 0.950 . S
H1392 C1415 0.950 . S
H1393 C1417 0.950 . S
H1394 C1418 0.950 . S
H1395 C1419 0.951 . S
H1396 C1421 0.951 . S
H1397 C1423 0.950 . S
H1398 C1424 0.950 . S
H1399 C1426 0.950 . S
H1400 C1429 0.950 . S
H1401 C1430 0.950 . S
H1402 C1432 0.950 . S
H1403 C1433 0.950 . S
C1404 H1386 0.951 . S
C1404 C1405 1.366 . S
C1404 C1406 1.388 . S
C1405 C1404 1.366 . S
C1405 C1409 1.385 . S
C1406 H1387 0.951 . S
C1406 C1404 1.388 . S
C1406 C1407 1.366 . S
C1407 C1406 1.366 . S
C1407 C1408 1.414 . S
C1407 C1410 1.499 . S
C1408 H1388 0.950 . S
C1408 C1407 1.414 . S
C1408 C1409 1.374 . S
C1409 H1389 0.950 . S
C1409 C1405 1.385 . S
C1409 C1408 1.374 . S
C1410 C1407 1.499 . S
C1410 C1411 1.373 . S
C1410 C1412 1.389 . S
C1411 H1390 0.950 . S
C1411 C1410 1.373 . S
C1411 C1427 1.377 . S
C1412 C1410 1.389 . S
C1412 C1413 1.524 . S
C1412 C1426 1.377 . S
C1413 C1412 1.524 . S
C1413 C1414 1.397 . S
C1413 C1418 1.363 . S
C1414 H1391 0.950 . S
C1414 C1413 1.397 . S
C1414 C1415 1.334 . S
C1415 H1392 0.950 . S
C1415 C1414 1.334 . S
C1415 C1416 1.287 . S
C1416 C1415 1.287 . S
C1416 C1417 1.524 . S
C1416 H1435 0.913 . S
C1417 H1393 0.950 . S
C1417 C1416 1.524 . S
C1417 C1418 1.415 . S
C1418 H1394 0.950 . S
C1418 C1413 1.363 . S
C1418 C1417 1.415 . S
C1419 H1395 0.951 . S
C1419 C1420 1.366 . S
C1419 C1421 1.388 . S
C1420 C1419 1.366 . S
C1420 C1424 1.385 . S
C1421 H1396 0.951 . S
C1421 C1419 1.388 . S
C1421 C1422 1.366 . S
C1422 C1421 1.366 . S
C1422 C1423 1.414 . S
C1422 C1425 1.499 . S
C1423 H1397 0.950 . S
C1423 C1422 1.414 . S
C1423 C1424 1.374 . S
C1424 H1398 0.950 . S
C1424 C1420 1.385 . S
C1424 C1423 1.374 . S
C1425 C1422 1.499 . S
C1425 C1426 1.373 . S
C1425 C1427 1.389 . S
C1426 H1399 0.950 . S
C1426 C1412 1.377 . S
C1426 C1425 1.373 . S
C1427 C1411 1.377 . S
C1427 C1425 1.389 . S
C1427 C1428 1.524 . S
C1428 C1427 1.524 . S
C1428 C1429 1.397 . S
C1428 C1433 1.363 . S
C1429 H1400 0.950 . S
C1429 C1428 1.397 . S
C1429 C1430 1.334 . S
C1430 H1401 0.950 . S
C1430 C1429 1.334 . S
C1430 C1431 1.287 . S
C1431 C1430 1.287 . S
C1431 C1432 1.524 . S
C1431 H1434 0.999 . S
C1432 H1402 0.950 . S
C1432 C1431 1.524 . S
C1432 C1433 1.415 . S
C1433 H1403 0.950 . S
C1433 C1428 1.363 . S
C1433 C1432 1.415 . S
H1434 C1431 0.999 . S
H1435 C1416 0.913 . S
H1436 C1454 0.951 . S
H1437 C1456 0.951 . S
H1438 C1458 0.950 . S
H1439 C1459 0.950 . S
H1440 C1461 0.950 . S
H1441 C1464 0.950 . S
H1442 C1465 0.950 . S
H1443 C1467 0.950 . S
H1444 C1468 0.950 . S
H1445 C1469 0.951 . S
H1446 C1471 0.951 . S
H1447 C1473 0.950 . S
H1448 C1474 0.950 . S
H1449 C1476 0.950 . S
H1450 C1479 0.950 . S
H1451 C1480 0.950 . S
H1452 C1482 0.950 . S
H1453 C1483 0.950 . S
C1454 H1436 0.951 . S
C1454 C1455 1.366 . S
C1454 C1456 1.388 . S
C1455 C1454 1.366 . S
C1455 C1459 1.385 . S
C1456 H1437 0.951 . S
C1456 C1454 1.388 . S
C1456 C1457 1.366 . S
C1457 C1456 1.366 . S
C1457 C1458 1.414 . S
C1457 C1460 1.499 . S
C1458 H1438 0.950 . S
C1458 C1457 1.414 . S
C1458 C1459 1.374 . S
C1459 H1439 0.950 . S
C1459 C1455 1.385 . S
C1459 C1458 1.374 . S
C1460 C1457 1.499 . S
C1460 C1461 1.373 . S
C1460 C1462 1.389 . S
C1461 H1440 0.950 . S
C1461 C1460 1.373 . S
C1461 C1477 1.377 . S
C1462 C1460 1.389 . S
C1462 C1463 1.524 . S
C1462 C1476 1.377 . S
C1463 C1462 1.524 . S
C1463 C1464 1.397 . S
C1463 C1468 1.363 . S
C1464 H1441 0.950 . S
C1464 C1463 1.397 . S
C1464 C1465 1.334 . S
C1465 H1442 0.950 . S
C1465 C1464 1.334 . S
C1465 C1466 1.287 . S
C1466 C1465 1.287 . S
C1466 C1467 1.524 . S
C1466 H1485 0.913 . S
C1467 H1443 0.950 . S
C1467 C1466 1.524 . S
C1467 C1468 1.415 . S
C1468 H1444 0.950 . S
C1468 C1463 1.363 . S
C1468 C1467 1.415 . S
C1469 H1445 0.951 . S
C1469 C1470 1.366 . S
C1469 C1471 1.388 . S
C1470 C1469 1.366 . S
C1470 C1474 1.385 . S
C1471 H1446 0.951 . S
C1471 C1469 1.388 . S
C1471 C1472 1.366 . S
C1472 C1471 1.366 . S
C1472 C1473 1.414 . S
C1472 C1475 1.499 . S
C1473 H1447 0.950 . S
C1473 C1472 1.414 . S
C1473 C1474 1.374 . S
C1474 H1448 0.950 . S
C1474 C1470 1.385 . S
C1474 C1473 1.374 . S
C1475 C1472 1.499 . S
C1475 C1476 1.373 . S
C1475 C1477 1.389 . S
C1476 H1449 0.950 . S
C1476 C1462 1.377 . S
C1476 C1475 1.373 . S
C1477 C1461 1.377 . S
C1477 C1475 1.389 . S
C1477 C1478 1.524 . S
C1478 C1477 1.524 . S
C1478 C1479 1.397 . S
C1478 C1483 1.363 . S
C1479 H1450 0.950 . S
C1479 C1478 1.397 . S
C1479 C1480 1.334 . S
C1480 H1451 0.950 . S
C1480 C1479 1.334 . S
C1480 C1481 1.287 . S
C1481 C1480 1.287 . S
C1481 C1482 1.524 . S
C1481 H1484 0.999 . S
C1482 H1452 0.950 . S
C1482 C1481 1.524 . S
C1482 C1483 1.415 . S
C1483 H1453 0.950 . S
C1483 C1478 1.363 . S
C1483 C1482 1.415 . S
H1484 C1481 0.999 . S
H1485 C1466 0.913 . S
H1486 C1504 0.951 . S
H1487 C1506 0.951 . S
H1488 C1508 0.950 . S
H1489 C1509 0.950 . S
H1490 C1511 0.950 . S
H1491 C1514 0.950 . S
H1492 C1515 0.950 . S
H1493 C1517 0.950 . S
H1494 C1518 0.950 . S
H1495 C1519 0.951 . S
H1496 C1521 0.951 . S
H1497 C1523 0.950 . S
H1498 C1524 0.950 . S
H1499 C1526 0.950 . S
H1500 C1529 0.950 . S
H1501 C1530 0.950 . S
H1502 C1532 0.950 . S
H1503 C1533 0.950 . S
C1504 H1486 0.951 . S
C1504 C1505 1.366 . S
C1504 C1506 1.388 . S
C1505 C1504 1.366 . S
C1505 C1509 1.385 . S
C1506 H1487 0.951 . S
C1506 C1504 1.388 . S
C1506 C1507 1.366 . S
C1507 C1506 1.366 . S
C1507 C1508 1.414 . S
C1507 C1510 1.499 . S
C1508 H1488 0.950 . S
C1508 C1507 1.414 . S
C1508 C1509 1.374 . S
C1509 H1489 0.950 . S
C1509 C1505 1.385 . S
C1509 C1508 1.374 . S
C1510 C1507 1.499 . S
C1510 C1511 1.373 . S
C1510 C1512 1.389 . S
C1511 H1490 0.950 . S
C1511 C1510 1.373 . S
C1511 C1527 1.377 . S
C1512 C1510 1.389 . S
C1512 C1513 1.524 . S
C1512 C1526 1.377 . S
C1513 C1512 1.524 . S
C1513 C1514 1.397 . S
C1513 C1518 1.363 . S
C1514 H1491 0.950 . S
C1514 C1513 1.397 . S
C1514 C1515 1.334 . S
C1515 H1492 0.950 . S
C1515 C1514 1.334 . S
C1515 C1516 1.287 . S
C1516 C1515 1.287 . S
C1516 C1517 1.524 . S
C1516 H1535 0.913 . S
C1517 H1493 0.950 . S
C1517 C1516 1.524 . S
C1517 C1518 1.415 . S
C1518 H1494 0.950 . S
C1518 C1513 1.363 . S
C1518 C1517 1.415 . S
C1519 H1495 0.951 . S
C1519 C1520 1.366 . S
C1519 C1521 1.388 . S
C1520 C1519 1.366 . S
C1520 C1524 1.385 . S
C1521 H1496 0.951 . S
C1521 C1519 1.388 . S
C1521 C1522 1.366 . S
C1522 C1521 1.366 . S
C1522 C1523 1.414 . S
C1522 C1525 1.499 . S
C1523 H1497 0.950 . S
C1523 C1522 1.414 . S
C1523 C1524 1.374 . S
C1524 H1498 0.950 . S
C1524 C1520 1.385 . S
C1524 C1523 1.374 . S
C1525 C1522 1.499 . S
C1525 C1526 1.373 . S
C1525 C1527 1.389 . S
C1526 H1499 0.950 . S
C1526 C1512 1.377 . S
C1526 C1525 1.373 . S
C1527 C1511 1.377 . S
C1527 C1525 1.389 . S
C1527 C1528 1.524 . S
C1528 C1527 1.524 . S
C1528 C1529 1.397 . S
C1528 C1533 1.363 . S
C1529 H1500 0.950 . S
C1529 C1528 1.397 . S
C1529 C1530 1.334 . S
C1530 H1501 0.950 . S
C1530 C1529 1.334 . S
C1530 C1531 1.287 . S
C1531 C1530 1.287 . S
C1531 C1532 1.524 . S
C1531 H1534 0.999 . S
C1532 H1502 0.950 . S
C1532 C1531 1.524 . S
C1532 C1533 1.415 . S
C1533 H1503 0.950 . S
C1533 C1528 1.363 . S
C1533 C1532 1.415 . S
H1534 C1531 0.999 . S
H1535 C1516 0.913 . S
H1536 C1554 0.951 . S
H1537 C1556 0.951 . S
H1538 C1558 0.950 . S
H1539 C1559 0.950 . S
H1540 C1561 0.950 . S
H1541 C1564 0.950 . S
H1542 C1565 0.950 . S
H1543 C1567 0.950 . S
H1544 C1568 0.950 . S
H1545 C1569 0.951 . S
H1546 C1571 0.951 . S
H1547 C1573 0.950 . S
H1548 C1574 0.950 . S
H1549 C1576 0.950 . S
H1550 C1579 0.950 . S
H1551 C1580 0.950 . S
H1552 C1582 0.950 . S
H1553 C1583 0.950 . S
C1554 H1536 0.951 . S
C1554 C1555 1.366 . S
C1554 C1556 1.388 . S
C1555 C1554 1.366 . S
C1555 C1559 1.385 . S
C1556 H1537 0.951 . S
C1556 C1554 1.388 . S
C1556 C1557 1.366 . S
C1557 C1556 1.366 . S
C1557 C1558 1.414 . S
C1557 C1560 1.499 . S
C1558 H1538 0.950 . S
C1558 C1557 1.414 . S
C1558 C1559 1.374 . S
C1559 H1539 0.950 . S
C1559 C1555 1.385 . S
C1559 C1558 1.374 . S
C1560 C1557 1.499 . S
C1560 C1561 1.373 . S
C1560 C1562 1.389 . S
C1561 H1540 0.950 . S
C1561 C1560 1.373 . S
C1561 C1577 1.377 1_554 S
C1562 C1560 1.389 . S
C1562 C1563 1.524 . S
C1562 C1576 1.377 1_554 S
C1563 C1562 1.524 . S
C1563 C1564 1.397 . S
C1563 C1568 1.363 . S
C1564 H1541 0.950 . S
C1564 C1563 1.397 . S
C1564 C1565 1.334 . S
C1565 H1542 0.950 . S
C1565 C1564 1.334 . S
C1565 C1566 1.287 . S
C1566 C1565 1.287 . S
C1566 C1567 1.524 . S
C1566 H1585 0.913 . S
C1567 H1543 0.950 . S
C1567 C1566 1.524 . S
C1567 C1568 1.415 . S
C1568 H1544 0.950 . S
C1568 C1563 1.363 . S
C1568 C1567 1.415 . S
C1569 H1545 0.951 . S
C1569 C1570 1.366 . S
C1569 C1571 1.388 . S
C1570 C1569 1.366 . S
C1570 C1574 1.385 . S
C1571 H1546 0.951 . S
C1571 C1569 1.388 . S
C1571 C1572 1.366 . S
C1572 C1571 1.366 . S
C1572 C1573 1.414 . S
C1572 C1575 1.499 . S
C1573 H1547 0.950 . S
C1573 C1572 1.414 . S
C1573 C1574 1.374 . S
C1574 H1548 0.950 . S
C1574 C1570 1.385 . S
C1574 C1573 1.374 . S
C1575 C1572 1.499 . S
C1575 C1576 1.373 . S
C1575 C1577 1.389 . S
C1576 H1549 0.950 . S
C1576 C1562 1.377 1_556 S
C1576 C1575 1.373 . S
C1577 C1561 1.377 1_556 S
C1577 C1575 1.389 . S
C1577 C1578 1.524 . S
C1578 C1577 1.524 . S
C1578 C1579 1.397 . S
C1578 C1583 1.363 . S
C1579 H1550 0.950 . S
C1579 C1578 1.397 . S
C1579 C1580 1.334 . S
C1580 H1551 0.950 . S
C1580 C1579 1.334 . S
C1580 C1581 1.287 . S
C1581 C1580 1.287 . S
C1581 C1582 1.524 . S
C1581 H1584 0.999 . S
C1582 H1552 0.950 . S
C1582 C1581 1.524 . S
C1582 C1583 1.415 . S
C1583 H1553 0.950 . S
C1583 C1578 1.363 . S
C1583 C1582 1.415 . S
H1584 C1581 0.999 . S
H1585 C1566 0.913 . S
H1586 C1604 0.951 . S
H1587 C1606 0.951 . S
H1588 C1608 0.950 . S
H1589 C1609 0.950 . S
H1590 C1611 0.950 . S
H1591 C1614 0.950 . S
H1592 C1615 0.950 . S
H1593 C1617 0.950 . S
H1594 C1618 0.950 . S
H1595 C1619 0.951 . S
H1596 C1621 0.951 . S
H1597 C1623 0.950 . S
H1598 C1624 0.950 . S
H1599 C1626 0.950 . S
H1600 C1629 0.950 . S
H1601 C1630 0.950 . S
H1602 C1632 0.950 . S
H1603 C1633 0.950 . S
C1604 H1586 0.951 . S
C1604 C1605 1.366 . S
C1604 C1606 1.388 . S
C1605 C1604 1.366 . S
C1605 C1609 1.385 . S
C1606 H1587 0.951 . S
C1606 C1604 1.388 . S
C1606 C1607 1.366 . S
C1607 C1606 1.366 . S
C1607 C1608 1.414 . S
C1607 C1610 1.499 . S
C1608 H1588 0.950 . S
C1608 C1607 1.414 . S
C1608 C1609 1.374 . S
C1609 H1589 0.950 . S
C1609 C1605 1.385 . S
C1609 C1608 1.374 . S
C1610 C1607 1.499 . S
C1610 C1611 1.373 . S
C1610 C1612 1.389 . S
C1611 H1590 0.950 . S
C1611 C1610 1.373 . S
C1611 C1627 1.377 1_556 S
C1612 C1610 1.389 . S
C1612 C1613 1.524 . S
C1612 C1626 1.377 1_556 S
C1613 C1612 1.524 . S
C1613 C1614 1.397 . S
C1613 C1618 1.363 . S
C1614 H1591 0.950 . S
C1614 C1613 1.397 . S
C1614 C1615 1.334 . S
C1615 H1592 0.950 . S
C1615 C1614 1.334 . S
C1615 C1616 1.287 . S
C1616 C1615 1.287 . S
C1616 C1617 1.524 . S
C1616 H1635 0.913 . S
C1617 H1593 0.950 . S
C1617 C1616 1.524 . S
C1617 C1618 1.415 . S
C1618 H1594 0.950 . S
C1618 C1613 1.363 . S
C1618 C1617 1.415 . S
C1619 H1595 0.951 . S
C1619 C1620 1.366 . S
C1619 C1621 1.388 . S
C1620 C1619 1.366 . S
C1620 C1624 1.385 . S
C1621 H1596 0.951 . S
C1621 C1619 1.388 . S
C1621 C1622 1.366 . S
C1622 C1621 1.366 . S
C1622 C1623 1.414 . S
C1622 C1625 1.499 . S
C1623 H1597 0.950 . S
C1623 C1622 1.414 . S
C1623 C1624 1.374 . S
C1624 H1598 0.950 . S
C1624 C1620 1.385 . S
C1624 C1623 1.374 . S
C1625 C1622 1.499 . S
C1625 C1626 1.373 . S
C1625 C1627 1.389 . S
C1626 H1599 0.950 . S
C1626 C1612 1.377 1_554 S
C1626 C1625 1.373 . S
C1627 C1611 1.377 1_554 S
C1627 C1625 1.389 . S
C1627 C1628 1.524 . S
C1628 C1627 1.524 . S
C1628 C1629 1.397 . S
C1628 C1633 1.363 . S
C1629 H1600 0.950 . S
C1629 C1628 1.397 . S
C1629 C1630 1.334 . S
C1630 H1601 0.950 . S
C1630 C1629 1.334 . S
C1630 C1631 1.287 . S
C1631 C1630 1.287 . S
C1631 C1632 1.524 . S
C1631 H1634 0.999 . S
C1632 H1602 0.950 . S
C1632 C1631 1.524 . S
C1632 C1633 1.415 . S
C1633 H1603 0.950 . S
C1633 C1628 1.363 . S
C1633 C1632 1.415 . S
H1634 C1631 0.999 . S
H1635 C1616 0.913 . S
H1636 C1654 0.951 . S
H1637 C1656 0.951 . S
H1638 C1658 0.950 . S
H1639 C1659 0.950 . S
H1640 C1661 0.950 . S
H1641 C1664 0.950 . S
H1642 C1665 0.950 . S
H1643 C1667 0.950 . S
H1644 C1668 0.950 . S
H1645 C1669 0.951 . S
H1646 C1671 0.951 . S
H1647 C1673 0.950 . S
H1648 C1674 0.950 . S
H1649 C1676 0.950 . S
H1650 C1679 0.950 . S
H1651 C1680 0.950 . S
H1652 C1682 0.950 . S
H1653 C1683 0.950 . S
C1654 H1636 0.951 . S
C1654 C1655 1.366 . S
C1654 C1656 1.388 . S
C1655 C1654 1.366 . S
C1655 C1659 1.385 . S
C1656 H1637 0.951 . S
C1656 C1654 1.388 . S
C1656 C1657 1.366 . S
C1657 C1656 1.366 . S
C1657 C1658 1.414 . S
C1657 C1660 1.499 . S
C1658 H1638 0.950 . S
C1658 C1657 1.414 . S
C1658 C1659 1.374 . S
C1659 H1639 0.950 . S
C1659 C1655 1.385 . S
C1659 C1658 1.374 . S
C1660 C1657 1.499 . S
C1660 C1661 1.373 . S
C1660 C1662 1.389 . S
C1661 H1640 0.950 . S
C1661 C1660 1.373 . S
C1661 C1677 1.377 1_556 S
C1662 C1660 1.389 . S
C1662 C1663 1.524 . S
C1662 C1676 1.377 1_556 S
C1663 C1662 1.524 . S
C1663 C1664 1.397 . S
C1663 C1668 1.363 . S
C1664 H1641 0.950 . S
C1664 C1663 1.397 . S
C1664 C1665 1.334 . S
C1665 H1642 0.950 . S
C1665 C1664 1.334 . S
C1665 C1666 1.287 . S
C1666 C1665 1.287 . S
C1666 C1667 1.524 . S
C1666 H1685 0.913 . S
C1667 H1643 0.950 . S
C1667 C1666 1.524 . S
C1667 C1668 1.415 . S
C1668 H1644 0.950 . S
C1668 C1663 1.363 . S
C1668 C1667 1.415 . S
C1669 H1645 0.951 . S
C1669 C1670 1.366 . S
C1669 C1671 1.388 . S
C1670 C1669 1.366 . S
C1670 C1674 1.385 . S
C1671 H1646 0.951 . S
C1671 C1669 1.388 . S
C1671 C1672 1.366 . S
C1672 C1671 1.366 . S
C1672 C1673 1.414 . S
C1672 C1675 1.499 . S
C1673 H1647 0.950 . S
C1673 C1672 1.414 . S
C1673 C1674 1.374 . S
C1674 H1648 0.950 . S
C1674 C1670 1.385 . S
C1674 C1673 1.374 . S
C1675 C1672 1.499 . S
C1675 C1676 1.373 . S
C1675 C1677 1.389 . S
C1676 H1649 0.950 . S
C1676 C1662 1.377 1_554 S
C1676 C1675 1.373 . S
C1677 C1661 1.377 1_554 S
C1677 C1675 1.389 . S
C1677 C1678 1.524 . S
C1678 C1677 1.524 . S
C1678 C1679 1.397 . S
C1678 C1683 1.363 . S
C1679 H1650 0.950 . S
C1679 C1678 1.397 . S
C1679 C1680 1.334 . S
C1680 H1651 0.950 . S
C1680 C1679 1.334 . S
C1680 C1681 1.287 . S
C1681 C1680 1.287 . S
C1681 C1682 1.524 . S
C1681 H1684 0.999 . S
C1682 H1652 0.950 . S
C1682 C1681 1.524 . S
C1682 C1683 1.415 . S
C1683 H1653 0.950 . S
C1683 C1678 1.363 . S
C1683 C1682 1.415 . S
H1684 C1681 0.999 . S
H1685 C1666 0.913 . S
H1686 C1704 0.951 . S
H1687 C1706 0.951 . S
H1688 C1708 0.950 . S
H1689 C1709 0.950 . S
H1690 C1711 0.950 . S
H1691 C1714 0.950 . S
H1692 C1715 0.950 . S
H1693 C1717 0.950 . S
H1694 C1718 0.950 . S
H1695 C1719 0.951 . S
H1696 C1721 0.951 . S
H1697 C1723 0.950 . S
H1698 C1724 0.950 . S
H1699 C1726 0.950 . S
H1700 C1729 0.950 . S
H1701 C1730 0.950 . S
H1702 C1732 0.950 . S
H1703 C1733 0.950 . S
C1704 H1686 0.951 . S
C1704 C1705 1.366 . S
C1704 C1706 1.388 . S
C1705 C1704 1.366 . S
C1705 C1709 1.385 . S
C1706 H1687 0.951 . S
C1706 C1704 1.388 . S
C1706 C1707 1.366 . S
C1707 C1706 1.366 . S
C1707 C1708 1.414 . S
C1707 C1710 1.499 . S
C1708 H1688 0.950 . S
C1708 C1707 1.414 . S
C1708 C1709 1.374 . S
C1709 H1689 0.950 . S
C1709 C1705 1.385 . S
C1709 C1708 1.374 . S
C1710 C1707 1.499 . S
C1710 C1711 1.373 . S
C1710 C1712 1.389 . S
C1711 H1690 0.950 . S
C1711 C1710 1.373 . S
C1711 C1727 1.377 1_554 S
C1712 C1710 1.389 . S
C1712 C1713 1.524 . S
C1712 C1726 1.377 1_554 S
C1713 C1712 1.524 . S
C1713 C1714 1.397 . S
C1713 C1718 1.363 . S
C1714 H1691 0.950 . S
C1714 C1713 1.397 . S
C1714 C1715 1.334 . S
C1715 H1692 0.950 . S
C1715 C1714 1.334 . S
C1715 C1716 1.287 . S
C1716 C1715 1.287 . S
C1716 C1717 1.524 . S
C1716 H1735 0.913 . S
C1717 H1693 0.950 . S
C1717 C1716 1.524 . S
C1717 C1718 1.415 . S
C1718 H1694 0.950 . S
C1718 C1713 1.363 . S
C1718 C1717 1.415 . S
C1719 H1695 0.951 . S
C1719 C1720 1.366 . S
C1719 C1721 1.388 . S
C1720 C1719 1.366 . S
C1720 C1724 1.385 . S
C1721 H1696 0.951 . S
C1721 C1719 1.388 . S
C1721 C1722 1.366 . S
C1722 C1721 1.366 . S
C1722 C1723 1.414 . S
C1722 C1725 1.499 . S
C1723 H1697 0.950 . S
C1723 C1722 1.414 . S
C1723 C1724 1.374 . S
C1724 H1698 0.950 . S
C1724 C1720 1.385 . S
C1724 C1723 1.374 . S
C1725 C1722 1.499 . S
C1725 C1726 1.373 . S
C1725 C1727 1.389 . S
C1726 H1699 0.950 . S
C1726 C1712 1.377 1_556 S
C1726 C1725 1.373 . S
C1727 C1711 1.377 1_556 S
C1727 C1725 1.389 . S
C1727 C1728 1.524 . S
C1728 C1727 1.524 . S
C1728 C1729 1.397 . S
C1728 C1733 1.363 . S
C1729 H1700 0.950 . S
C1729 C1728 1.397 . S
C1729 C1730 1.334 . S
C1730 H1701 0.950 . S
C1730 C1729 1.334 . S
C1730 C1731 1.287 . S
C1731 C1730 1.287 . S
C1731 C1732 1.524 . S
C1731 H1734 0.999 . S
C1732 H1702 0.950 . S
C1732 C1731 1.524 . S
C1732 C1733 1.415 . S
C1733 H1703 0.950 . S
C1733 C1728 1.363 . S
C1733 C1732 1.415 . S
H1734 C1731 0.999 . S
H1735 C1716 0.913 . S
H1736 C1754 0.951 . S
H1737 C1756 0.951 . S
H1738 C1758 0.950 . S
H1739 C1759 0.950 . S
H1740 C1761 0.950 . S
H1741 C1764 0.950 . S
H1742 C1765 0.950 . S
H1743 C1767 0.950 . S
H1744 C1768 0.950 . S
H1745 C1769 0.951 . S
H1746 C1771 0.951 . S
H1747 C1773 0.950 . S
H1748 C1774 0.950 . S
H1749 C1776 0.950 . S
H1750 C1779 0.950 . S
H1751 C1780 0.950 . S
H1752 C1782 0.950 . S
H1753 C1783 0.950 . S
C1754 H1736 0.951 . S
C1754 C1755 1.366 . S
C1754 C1756 1.388 . S
C1755 C1754 1.366 . S
C1755 C1759 1.385 . S
C1756 H1737 0.951 . S
C1756 C1754 1.388 . S
C1756 C1757 1.366 . S
C1757 C1756 1.366 . S
C1757 C1758 1.414 . S
C1757 C1760 1.499 . S
C1758 H1738 0.950 . S
C1758 C1757 1.414 . S
C1758 C1759 1.374 . S
C1759 H1739 0.950 . S
C1759 C1755 1.385 . S
C1759 C1758 1.374 . S
C1760 C1757 1.499 . S
C1760 C1761 1.373 . S
C1760 C1762 1.389 . S
C1761 H1740 0.950 . S
C1761 C1760 1.373 . S
C1761 C1777 1.377 1_554 S
C1762 C1760 1.389 . S
C1762 C1763 1.524 . S
C1762 C1776 1.377 1_554 S
C1763 C1762 1.524 . S
C1763 C1764 1.397 . S
C1763 C1768 1.363 . S
C1764 H1741 0.950 . S
C1764 C1763 1.397 . S
C1764 C1765 1.334 . S
C1765 H1742 0.950 . S
C1765 C1764 1.334 . S
C1765 C1766 1.287 . S
C1766 C1765 1.287 . S
C1766 C1767 1.524 . S
C1766 H1785 0.913 . S
C1767 H1743 0.950 . S
C1767 C1766 1.524 . S
C1767 C1768 1.415 . S
C1768 H1744 0.950 . S
C1768 C1763 1.363 . S
C1768 C1767 1.415 . S
C1769 H1745 0.951 . S
C1769 C1770 1.366 . S
C1769 C1771 1.388 . S
C1770 C1769 1.366 . S
C1770 C1774 1.385 . S
C1771 H1746 0.951 . S
C1771 C1769 1.388 . S
C1771 C1772 1.366 . S
C1772 C1771 1.366 . S
C1772 C1773 1.414 . S
C1772 C1775 1.499 . S
C1773 H1747 0.950 . S
C1773 C1772 1.414 . S
C1773 C1774 1.374 . S
C1774 H1748 0.950 . S
C1774 C1770 1.385 . S
C1774 C1773 1.374 . S
C1775 C1772 1.499 . S
C1775 C1776 1.373 . S
C1775 C1777 1.389 . S
C1776 H1749 0.950 . S
C1776 C1762 1.377 1_556 S
C1776 C1775 1.373 . S
C1777 C1761 1.377 1_556 S
C1777 C1775 1.389 . S
C1777 C1778 1.524 . S
C1778 C1777 1.524 . S
C1778 C1779 1.397 . S
C1778 C1783 1.363 . S
C1779 H1750 0.950 . S
C1779 C1778 1.397 . S
C1779 C1780 1.334 . S
C1780 H1751 0.950 . S
C1780 C1779 1.334 . S
C1780 C1781 1.287 . S
C1781 C1780 1.287 . S
C1781 C1782 1.524 . S
C1781 H1784 0.999 . S
C1782 H1752 0.950 . S
C1782 C1781 1.524 . S
C1782 C1783 1.415 . S
C1783 H1753 0.950 . S
C1783 C1778 1.363 . S
C1783 C1782 1.415 . S
H1784 C1781 0.999 . S
H1785 C1766 0.913 . S
H1786 C1804 0.951 . S
H1787 C1806 0.951 . S
H1788 C1808 0.950 . S
H1789 C1809 0.950 . S
H1790 C1811 0.950 . S
H1791 C1814 0.950 . S
H1792 C1815 0.950 . S
H1793 C1817 0.950 . S
H1794 C1818 0.950 . S
H1795 C1819 0.951 . S
H1796 C1821 0.951 . S
H1797 C1823 0.950 . S
H1798 C1824 0.950 . S
H1799 C1826 0.950 . S
H1800 C1829 0.950 . S
H1801 C1830 0.950 . S
H1802 C1832 0.950 . S
H1803 C1833 0.950 . S
C1804 H1786 0.951 . S
C1804 C1805 1.366 . S
C1804 C1806 1.388 . S
C1805 C1804 1.366 . S
C1805 C1809 1.385 . S
C1806 H1787 0.951 . S
C1806 C1804 1.388 . S
C1806 C1807 1.366 . S
C1807 C1806 1.366 . S
C1807 C1808 1.414 . S
C1807 C1810 1.499 . S
C1808 H1788 0.950 . S
C1808 C1807 1.414 . S
C1808 C1809 1.374 . S
C1809 H1789 0.950 . S
C1809 C1805 1.385 . S
C1809 C1808 1.374 . S
C1810 C1807 1.499 . S
C1810 C1811 1.373 . S
C1810 C1812 1.389 . S
C1811 H1790 0.950 . S
C1811 C1810 1.373 . S
C1811 C1827 1.377 1_556 S
C1812 C1810 1.389 . S
C1812 C1813 1.524 . S
C1812 C1826 1.377 1_556 S
C1813 C1812 1.524 . S
C1813 C1814 1.397 . S
C1813 C1818 1.363 . S
C1814 H1791 0.950 . S
C1814 C1813 1.397 . S
C1814 C1815 1.334 . S
C1815 H1792 0.950 . S
C1815 C1814 1.334 . S
C1815 C1816 1.287 . S
C1816 C1815 1.287 . S
C1816 C1817 1.524 . S
C1816 H1835 0.913 . S
C1817 H1793 0.950 . S
C1817 C1816 1.524 . S
C1817 C1818 1.415 . S
C1818 H1794 0.950 . S
C1818 C1813 1.363 . S
C1818 C1817 1.415 . S
C1819 H1795 0.951 . S
C1819 C1820 1.366 . S
C1819 C1821 1.388 . S
C1820 C1819 1.366 . S
C1820 C1824 1.385 . S
C1821 H1796 0.951 . S
C1821 C1819 1.388 . S
C1821 C1822 1.366 . S
C1822 C1821 1.366 . S
C1822 C1823 1.414 . S
C1822 C1825 1.499 . S
C1823 H1797 0.950 . S
C1823 C1822 1.414 . S
C1823 C1824 1.374 . S
C1824 H1798 0.950 . S
C1824 C1820 1.385 . S
C1824 C1823 1.374 . S
C1825 C1822 1.499 . S
C1825 C1826 1.373 . S
C1825 C1827 1.389 . S
C1826 H1799 0.950 . S
C1826 C1812 1.377 1_554 S
C1826 C1825 1.373 . S
C1827 C1811 1.377 1_554 S
C1827 C1825 1.389 . S
C1827 C1828 1.524 . S
C1828 C1827 1.524 . S
C1828 C1829 1.397 . S
C1828 C1833 1.363 . S
C1829 H1800 0.950 . S
C1829 C1828 1.397 . S
C1829 C1830 1.334 . S
C1830 H1801 0.950 . S
C1830 C1829 1.334 . S
C1830 C1831 1.287 . S
C1831 C1830 1.287 . S
C1831 C1832 1.524 . S
C1831 H1834 0.999 . S
C1832 H1802 0.950 . S
C1832 C1831 1.524 . S
C1832 C1833 1.415 . S
C1833 H1803 0.950 . S
C1833 C1828 1.363 . S
C1833 C1832 1.415 . S
H1834 C1831 0.999 . S
H1835 C1816 0.913 . S
H1836 C1854 0.951 . S
H1837 C1856 0.951 . S
H1838 C1858 0.950 . S
H1839 C1859 0.950 . S
H1840 C1861 0.950 . S
H1841 C1864 0.950 . S
H1842 C1865 0.950 . S
H1843 C1867 0.950 . S
H1844 C1868 0.950 . S
H1845 C1869 0.951 . S
H1846 C1871 0.951 . S
H1847 C1873 0.950 . S
H1848 C1874 0.950 . S
H1849 C1876 0.950 . S
H1850 C1879 0.950 . S
H1851 C1880 0.950 . S
H1852 C1882 0.950 . S
H1853 C1883 0.950 . S
C1854 H1836 0.951 . S
C1854 C1855 1.366 . S
C1854 C1856 1.388 . S
C1855 C1854 1.366 . S
C1855 C1859 1.385 . S
C1856 H1837 0.951 . S
C1856 C1854 1.388 . S
C1856 C1857 1.366 . S
C1857 C1856 1.366 . S
C1857 C1858 1.414 . S
C1857 C1860 1.499 . S
C1858 H1838 0.950 . S
C1858 C1857 1.414 . S
C1858 C1859 1.374 . S
C1859 H1839 0.950 . S
C1859 C1855 1.385 . S
C1859 C1858 1.374 . S
C1860 C1857 1.499 . S
C1860 C1861 1.373 . S
C1860 C1862 1.389 . S
C1861 H1840 0.950 . S
C1861 C1860 1.373 . S
C1861 C1877 1.377 . S
C1862 C1860 1.389 . S
C1862 C1863 1.524 . S
C1862 C1876 1.377 . S
C1863 C1862 1.524 . S
C1863 C1864 1.397 . S
C1863 C1868 1.363 . S
C1864 H1841 0.950 . S
C1864 C1863 1.397 . S
C1864 C1865 1.334 . S
C1865 H1842 0.950 . S
C1865 C1864 1.334 . S
C1865 C1866 1.287 . S
C1866 C1865 1.287 . S
C1866 C1867 1.524 . S
C1866 H1885 0.913 . S
C1867 H1843 0.950 . S
C1867 C1866 1.524 . S
C1867 C1868 1.415 . S
C1868 H1844 0.950 . S
C1868 C1863 1.363 . S
C1868 C1867 1.415 . S
C1869 H1845 0.951 . S
C1869 C1870 1.366 . S
C1869 C1871 1.388 . S
C1870 C1869 1.366 . S
C1870 C1874 1.385 . S
C1871 H1846 0.951 . S
C1871 C1869 1.388 . S
C1871 C1872 1.366 . S
C1872 C1871 1.366 . S
C1872 C1873 1.414 . S
C1872 C1875 1.499 . S
C1873 H1847 0.950 . S
C1873 C1872 1.414 . S
C1873 C1874 1.374 . S
C1874 H1848 0.950 . S
C1874 C1870 1.385 . S
C1874 C1873 1.374 . S
C1875 C1872 1.499 . S
C1875 C1876 1.373 . S
C1875 C1877 1.389 . S
C1876 H1849 0.950 . S
C1876 C1862 1.377 . S
C1876 C1875 1.373 . S
C1877 C1861 1.377 . S
C1877 C1875 1.389 . S
C1877 C1878 1.524 . S
C1878 C1877 1.524 . S
C1878 C1879 1.397 . S
C1878 C1883 1.363 . S
C1879 H1850 0.950 . S
C1879 C1878 1.397 . S
C1879 C1880 1.334 . S
C1880 H1851 0.950 . S
C1880 C1879 1.334 . S
C1880 C1881 1.287 . S
C1881 C1880 1.287 . S
C1881 C1882 1.524 . S
C1881 H1884 0.999 . S
C1882 H1852 0.950 . S
C1882 C1881 1.524 . S
C1882 C1883 1.415 . S
C1883 H1853 0.950 . S
C1883 C1878 1.363 . S
C1883 C1882 1.415 . S
H1884 C1881 0.999 . S
H1885 C1866 0.913 . S
H1886 C1904 0.951 . S
H1887 C1906 0.951 . S
H1888 C1908 0.950 . S
H1889 C1909 0.950 . S
H1890 C1911 0.950 . S
H1891 C1914 0.950 . S
H1892 C1915 0.950 . S
H1893 C1917 0.950 . S
H1894 C1918 0.950 . S
H1895 C1919 0.951 . S
H1896 C1921 0.951 . S
H1897 C1923 0.950 . S
H1898 C1924 0.950 . S
H1899 C1926 0.950 . S
H1900 C1929 0.950 . S
H1901 C1930 0.950 . S
H1902 C1932 0.950 . S
H1903 C1933 0.950 . S
C1904 H1886 0.951 . S
C1904 C1905 1.366 . S
C1904 C1906 1.388 . S
C1905 C1904 1.366 . S
C1905 C1909 1.385 . S
C1906 H1887 0.951 . S
C1906 C1904 1.388 . S
C1906 C1907 1.366 . S
C1907 C1906 1.366 . S
C1907 C1908 1.414 . S
C1907 C1910 1.499 . S
C1908 H1888 0.950 . S
C1908 C1907 1.414 . S
C1908 C1909 1.374 . S
C1909 H1889 0.950 . S
C1909 C1905 1.385 . S
C1909 C1908 1.374 . S
C1910 C1907 1.499 . S
C1910 C1911 1.373 . S
C1910 C1912 1.389 . S
C1911 H1890 0.950 . S
C1911 C1910 1.373 . S
C1911 C1927 1.377 . S
C1912 C1910 1.389 . S
C1912 C1913 1.524 . S
C1912 C1926 1.377 . S
C1913 C1912 1.524 . S
C1913 C1914 1.397 . S
C1913 C1918 1.363 . S
C1914 H1891 0.950 . S
C1914 C1913 1.397 . S
C1914 C1915 1.334 . S
C1915 H1892 0.950 . S
C1915 C1914 1.334 . S
C1915 C1916 1.287 . S
C1916 C1915 1.287 . S
C1916 C1917 1.524 . S
C1916 H1935 0.913 . S
C1917 H1893 0.950 . S
C1917 C1916 1.524 . S
C1917 C1918 1.415 . S
C1918 H1894 0.950 . S
C1918 C1913 1.363 . S
C1918 C1917 1.415 . S
C1919 H1895 0.951 . S
C1919 C1920 1.366 . S
C1919 C1921 1.388 . S
C1920 C1919 1.366 . S
C1920 C1924 1.385 . S
C1921 H1896 0.951 . S
C1921 C1919 1.388 . S
C1921 C1922 1.366 . S
C1922 C1921 1.366 . S
C1922 C1923 1.414 . S
C1922 C1925 1.499 . S
C1923 H1897 0.950 . S
C1923 C1922 1.414 . S
C1923 C1924 1.374 . S
C1924 H1898 0.950 . S
C1924 C1920 1.385 . S
C1924 C1923 1.374 . S
C1925 C1922 1.499 . S
C1925 C1926 1.373 . S
C1925 C1927 1.389 . S
C1926 H1899 0.950 . S
C1926 C1912 1.377 . S
C1926 C1925 1.373 . S
C1927 C1911 1.377 . S
C1927 C1925 1.389 . S
C1927 C1928 1.524 . S
C1928 C1927 1.524 . S
C1928 C1929 1.397 . S
C1928 C1933 1.363 . S
C1929 H1900 0.950 . S
C1929 C1928 1.397 . S
C1929 C1930 1.334 . S
C1930 H1901 0.950 . S
C1930 C1929 1.334 . S
C1930 C1931 1.287 . S
C1931 C1930 1.287 . S
C1931 C1932 1.524 . S
C1931 H1934 0.999 . S
C1932 H1902 0.950 . S
C1932 C1931 1.524 . S
C1932 C1933 1.415 . S
C1933 H1903 0.950 . S
C1933 C1928 1.363 . S
C1933 C1932 1.415 . S
H1934 C1931 0.999 . S
H1935 C1916 0.913 . S
H1936 C1954 0.951 . S
H1937 C1956 0.951 . S
H1938 C1958 0.950 . S
H1939 C1959 0.950 . S
H1940 C1961 0.950 . S
H1941 C1964 0.950 . S
H1942 C1965 0.950 . S
H1943 C1967 0.950 . S
H1944 C1968 0.950 . S
H1945 C1969 0.951 . S
H1946 C1971 0.951 . S
H1947 C1973 0.950 . S
H1948 C1974 0.950 . S
H1949 C1976 0.950 . S
H1950 C1979 0.950 . S
H1951 C1980 0.950 . S
H1952 C1982 0.950 . S
H1953 C1983 0.950 . S
C1954 H1936 0.951 . S
C1954 C1955 1.366 . S
C1954 C1956 1.388 . S
C1955 C1954 1.366 . S
C1955 C1959 1.385 . S
C1956 H1937 0.951 . S
C1956 C1954 1.388 . S
C1956 C1957 1.366 . S
C1957 C1956 1.366 . S
C1957 C1958 1.414 . S
C1957 C1960 1.499 . S
C1958 H1938 0.950 . S
C1958 C1957 1.414 . S
C1958 C1959 1.374 . S
C1959 H1939 0.950 . S
C1959 C1955 1.385 . S
C1959 C1958 1.374 . S
C1960 C1957 1.499 . S
C1960 C1961 1.373 . S
C1960 C1962 1.389 . S
C1961 H1940 0.950 . S
C1961 C1960 1.373 . S
C1961 C1977 1.377 . S
C1962 C1960 1.389 . S
C1962 C1963 1.524 . S
C1962 C1976 1.377 . S
C1963 C1962 1.524 . S
C1963 C1964 1.397 . S
C1963 C1968 1.363 . S
C1964 H1941 0.950 . S
C1964 C1963 1.397 . S
C1964 C1965 1.334 . S
C1965 H1942 0.950 . S
C1965 C1964 1.334 . S
C1965 C1966 1.287 . S
C1966 C1965 1.287 . S
C1966 C1967 1.524 . S
C1966 H1985 0.913 . S
C1967 H1943 0.950 . S
C1967 C1966 1.524 . S
C1967 C1968 1.415 . S
C1968 H1944 0.950 . S
C1968 C1963 1.363 . S
C1968 C1967 1.415 . S
C1969 H1945 0.951 . S
C1969 C1970 1.366 . S
C1969 C1971 1.388 . S
C1970 C1969 1.366 . S
C1970 C1974 1.385 . S
C1971 H1946 0.951 . S
C1971 C1969 1.388 . S
C1971 C1972 1.366 . S
C1972 C1971 1.366 . S
C1972 C1973 1.414 . S
C1972 C1975 1.499 . S
C1973 H1947 0.950 . S
C1973 C1972 1.414 . S
C1973 C1974 1.374 . S
C1974 H1948 0.950 . S
C1974 C1970 1.385 . S
C1974 C1973 1.374 . S
C1975 C1972 1.499 . S
C1975 C1976 1.373 . S
C1975 C1977 1.389 . S
C1976 H1949 0.950 . S
C1976 C1962 1.377 . S
C1976 C1975 1.373 . S
C1977 C1961 1.377 . S
C1977 C1975 1.389 . S
C1977 C1978 1.524 . S
C1978 C1977 1.524 . S
C1978 C1979 1.397 . S
C1978 C1983 1.363 . S
C1979 H1950 0.950 . S
C1979 C1978 1.397 . S
C1979 C1980 1.334 . S
C1980 H1951 0.950 . S
C1980 C1979 1.334 . S
C1980 C1981 1.287 . S
C1981 C1980 1.287 . S
C1981 C1982 1.524 . S
C1981 H1984 0.999 . S
C1982 H1952 0.950 . S
C1982 C1981 1.524 . S
C1982 C1983 1.415 . S
C1983 H1953 0.950 . S
C1983 C1978 1.363 . S
C1983 C1982 1.415 . S
H1984 C1981 0.999 . S
H1985 C1966 0.913 . S
H1986 C2004 0.951 . S
H1987 C2006 0.951 . S
H1988 C2008 0.950 . S
H1989 C2009 0.950 . S
H1990 C2011 0.950 . S
H1991 C2014 0.950 . S
H1992 C2015 0.950 . S
H1993 C2017 0.950 . S
H1994 C2018 0.950 . S
H1995 C2019 0.951 . S
H1996 C2021 0.951 . S
H1997 C2023 0.950 . S
H1998 C2024 0.950 . S
H1999 C2026 0.950 . S
H2000 C2029 0.950 . S
H2001 C2030 0.950 . S
H2002 C2032 0.950 . S
H2003 C2033 0.950 . S
C2004 H1986 0.951 . S
C2004 C2005 1.366 . S
C2004 C2006 1.388 . S
C2005 C2004 1.366 . S
C2005 C2009 1.385 . S
C2006 H1987 0.951 . S
C2006 C2004 1.388 . S
C2006 C2007 1.366 . S
C2007 C2006 1.366 . S
C2007 C2008 1.414 . S
C2007 C2010 1.499 . S
C2008 H1988 0.950 . S
C2008 C2007 1.414 . S
C2008 C2009 1.374 . S
C2009 H1989 0.950 . S
C2009 C2005 1.385 . S
C2009 C2008 1.374 . S
C2010 C2007 1.499 . S
C2010 C2011 1.373 . S
C2010 C2012 1.389 . S
C2011 H1990 0.950 . S
C2011 C2010 1.373 . S
C2011 C2027 1.377 . S
C2012 C2010 1.389 . S
C2012 C2013 1.524 . S
C2012 C2026 1.377 . S
C2013 C2012 1.524 . S
C2013 C2014 1.397 . S
C2013 C2018 1.363 . S
C2014 H1991 0.950 . S
C2014 C2013 1.397 . S
C2014 C2015 1.334 . S
C2015 H1992 0.950 . S
C2015 C2014 1.334 . S
C2015 C2016 1.287 . S
C2016 C2015 1.287 . S
C2016 C2017 1.524 . S
C2016 H2035 0.913 . S
C2017 H1993 0.950 . S
C2017 C2016 1.524 . S
C2017 C2018 1.415 . S
C2018 H1994 0.950 . S
C2018 C2013 1.363 . S
C2018 C2017 1.415 . S
C2019 H1995 0.951 . S
C2019 C2020 1.366 . S
C2019 C2021 1.388 . S
C2020 C2019 1.366 . S
C2020 C2024 1.385 . S
C2021 H1996 0.951 . S
C2021 C2019 1.388 . S
C2021 C2022 1.366 . S
C2022 C2021 1.366 . S
C2022 C2023 1.414 . S
C2022 C2025 1.499 . S
C2023 H1997 0.950 . S
C2023 C2022 1.414 . S
C2023 C2024 1.374 . S
C2024 H1998 0.950 . S
C2024 C2020 1.385 . S
C2024 C2023 1.374 . S
C2025 C2022 1.499 . S
C2025 C2026 1.373 . S
C2025 C2027 1.389 . S
C2026 H1999 0.950 . S
C2026 C2012 1.377 . S
C2026 C2025 1.373 . S
C2027 C2011 1.377 . S
C2027 C2025 1.389 . S
C2027 C2028 1.524 . S
C2028 C2027 1.524 . S
C2028 C2029 1.397 . S
C2028 C2033 1.363 . S
C2029 H2000 0.950 . S
C2029 C2028 1.397 . S
C2029 C2030 1.334 . S
C2030 H2001 0.950 . S
C2030 C2029 1.334 . S
C2030 C2031 1.287 . S
C2031 C2030 1.287 . S
C2031 C2032 1.524 . S
C2031 H2034 0.999 . S
C2032 H2002 0.950 . S
C2032 C2031 1.524 . S
C2032 C2033 1.415 . S
C2033 H2003 0.950 . S
C2033 C2028 1.363 . S
C2033 C2032 1.415 . S
H2034 C2031 0.999 . S
H2035 C2016 0.913 . S
H2036 C2054 0.951 . S
H2037 C2056 0.951 . S
H2038 C2058 0.950 . S
H2039 C2059 0.950 . S
H2040 C2061 0.950 . S
H2041 C2064 0.950 . S
H2042 C2065 0.950 . S
H2043 C2067 0.950 . S
H2044 C2068 0.950 . S
H2045 C2069 0.951 . S
H2046 C2071 0.951 . S
H2047 C2073 0.950 . S
H2048 C2074 0.950 . S
H2049 C2076 0.950 . S
H2050 C2079 0.950 . S
H2051 C2080 0.950 . S
H2052 C2082 0.950 . S
H2053 C2083 0.950 . S
C2054 H2036 0.951 . S
C2054 C2055 1.366 . S
C2054 C2056 1.388 . S
C2055 C2054 1.366 . S
C2055 C2059 1.385 . S
C2056 H2037 0.951 . S
C2056 C2054 1.388 . S
C2056 C2057 1.366 . S
C2057 C2056 1.366 . S
C2057 C2058 1.414 . S
C2057 C2060 1.499 . S
C2058 H2038 0.950 . S
C2058 C2057 1.414 . S
C2058 C2059 1.374 . S
C2059 H2039 0.950 . S
C2059 C2055 1.385 . S
C2059 C2058 1.374 . S
C2060 C2057 1.499 . S
C2060 C2061 1.373 . S
C2060 C2062 1.389 . S
C2061 H2040 0.950 . S
C2061 C2060 1.373 . S
C2061 C2077 1.377 . S
C2062 C2060 1.389 . S
C2062 C2063 1.524 . S
C2062 C2076 1.377 . S
C2063 C2062 1.524 . S
C2063 C2064 1.397 . S
C2063 C2068 1.363 . S
C2064 H2041 0.950 . S
C2064 C2063 1.397 . S
C2064 C2065 1.334 . S
C2065 H2042 0.950 . S
C2065 C2064 1.334 . S
C2065 C2066 1.287 . S
C2066 C2065 1.287 . S
C2066 C2067 1.524 . S
C2066 H2085 0.913 . S
C2067 H2043 0.950 . S
C2067 C2066 1.524 . S
C2067 C2068 1.415 . S
C2068 H2044 0.950 . S
C2068 C2063 1.363 . S
C2068 C2067 1.415 . S
C2069 H2045 0.951 . S
C2069 C2070 1.366 . S
C2069 C2071 1.388 . S
C2070 C2069 1.366 . S
C2070 C2074 1.385 . S
C2071 H2046 0.951 . S
C2071 C2069 1.388 . S
C2071 C2072 1.366 . S
C2072 C2071 1.366 . S
C2072 C2073 1.414 . S
C2072 C2075 1.499 . S
C2073 H2047 0.950 . S
C2073 C2072 1.414 . S
C2073 C2074 1.374 . S
C2074 H2048 0.950 . S
C2074 C2070 1.385 . S
C2074 C2073 1.374 . S
C2075 C2072 1.499 . S
C2075 C2076 1.373 . S
C2075 C2077 1.389 . S
C2076 H2049 0.950 . S
C2076 C2062 1.377 . S
C2076 C2075 1.373 . S
C2077 C2061 1.377 . S
C2077 C2075 1.389 . S
C2077 C2078 1.524 . S
C2078 C2077 1.524 . S
C2078 C2079 1.397 . S
C2078 C2083 1.363 . S
C2079 H2050 0.950 . S
C2079 C2078 1.397 . S
C2079 C2080 1.334 . S
C2080 H2051 0.950 . S
C2080 C2079 1.334 . S
C2080 C2081 1.287 . S
C2081 C2080 1.287 . S
C2081 C2082 1.524 . S
C2081 H2084 0.999 . S
C2082 H2052 0.950 . S
C2082 C2081 1.524 . S
C2082 C2083 1.415 . S
C2083 H2053 0.950 . S
C2083 C2078 1.363 . S
C2083 C2082 1.415 . S
H2084 C2081 0.999 . S
H2085 C2066 0.913 . S
H2086 C2104 0.951 . S
H2087 C2106 0.951 . S
H2088 C2108 0.950 . S
H2089 C2109 0.950 . S
H2090 C2111 0.950 . S
H2091 C2114 0.950 . S
H2092 C2115 0.950 . S
H2093 C2117 0.950 . S
H2094 C2118 0.950 . S
H2095 C2119 0.951 . S
H2096 C2121 0.951 . S
H2097 C2123 0.950 . S
H2098 C2124 0.950 . S
H2099 C2126 0.950 . S
H2100 C2129 0.950 . S
H2101 C2130 0.950 . S
H2102 C2132 0.950 . S
H2103 C2133 0.950 . S
C2104 H2086 0.951 . S
C2104 C2105 1.366 . S
C2104 C2106 1.388 . S
C2105 C2104 1.366 . S
C2105 C2109 1.385 . S
C2106 H2087 0.951 . S
C2106 C2104 1.388 . S
C2106 C2107 1.366 . S
C2107 C2106 1.366 . S
C2107 C2108 1.414 . S
C2107 C2110 1.499 . S
C2108 H2088 0.950 . S
C2108 C2107 1.414 . S
C2108 C2109 1.374 . S
C2109 H2089 0.950 . S
C2109 C2105 1.385 . S
C2109 C2108 1.374 . S
C2110 C2107 1.499 . S
C2110 C2111 1.373 . S
C2110 C2112 1.389 . S
C2111 H2090 0.950 . S
C2111 C2110 1.373 . S
C2111 C2127 1.377 . S
C2112 C2110 1.389 . S
C2112 C2113 1.524 . S
C2112 C2126 1.377 . S
C2113 C2112 1.524 . S
C2113 C2114 1.397 . S
C2113 C2118 1.363 . S
C2114 H2091 0.950 . S
C2114 C2113 1.397 . S
C2114 C2115 1.334 . S
C2115 H2092 0.950 . S
C2115 C2114 1.334 . S
C2115 C2116 1.287 . S
C2116 C2115 1.287 . S
C2116 C2117 1.524 . S
C2116 H2135 0.913 . S
C2117 H2093 0.950 . S
C2117 C2116 1.524 . S
C2117 C2118 1.415 . S
C2118 H2094 0.950 . S
C2118 C2113 1.363 . S
C2118 C2117 1.415 . S
C2119 H2095 0.951 . S
C2119 C2120 1.366 . S
C2119 C2121 1.388 . S
C2120 C2119 1.366 . S
C2120 C2124 1.385 . S
C2121 H2096 0.951 . S
C2121 C2119 1.388 . S
C2121 C2122 1.366 . S
C2122 C2121 1.366 . S
C2122 C2123 1.414 . S
C2122 C2125 1.499 . S
C2123 H2097 0.950 . S
C2123 C2122 1.414 . S
C2123 C2124 1.374 . S
C2124 H2098 0.950 . S
C2124 C2120 1.385 . S
C2124 C2123 1.374 . S
C2125 C2122 1.499 . S
C2125 C2126 1.373 . S
C2125 C2127 1.389 . S
C2126 H2099 0.950 . S
C2126 C2112 1.377 . S
C2126 C2125 1.373 . S
C2127 C2111 1.377 . S
C2127 C2125 1.389 . S
C2127 C2128 1.524 . S
C2128 C2127 1.524 . S
C2128 C2129 1.397 . S
C2128 C2133 1.363 . S
C2129 H2100 0.950 . S
C2129 C2128 1.397 . S
C2129 C2130 1.334 . S
C2130 H2101 0.950 . S
C2130 C2129 1.334 . S
C2130 C2131 1.287 . S
C2131 C2130 1.287 . S
C2131 C2132 1.524 . S
C2131 H2134 0.999 . S
C2132 H2102 0.950 . S
C2132 C2131 1.524 . S
C2132 C2133 1.415 . S
C2133 H2103 0.950 . S
C2133 C2128 1.363 . S
C2133 C2132 1.415 . S
H2134 C2131 0.999 . S
H2135 C2116 0.913 . S
H2136 C2154 0.951 . S
H2137 C2156 0.951 . S
H2138 C2158 0.950 . S
H2139 C2159 0.950 . S
H2140 C2161 0.950 . S
H2141 C2164 0.950 . S
H2142 C2165 0.950 . S
H2143 C2167 0.950 . S
H2144 C2168 0.950 . S
H2145 C2169 0.951 . S
H2146 C2171 0.951 . S
H2147 C2173 0.950 . S
H2148 C2174 0.950 . S
H2149 C2176 0.950 . S
H2150 C2179 0.950 . S
H2151 C2180 0.950 . S
H2152 C2182 0.950 . S
H2153 C2183 0.950 . S
C2154 H2136 0.951 . S
C2154 C2155 1.366 . S
C2154 C2156 1.388 . S
C2155 C2154 1.366 . S
C2155 C2159 1.385 . S
C2156 H2137 0.951 . S
C2156 C2154 1.388 . S
C2156 C2157 1.366 . S
C2157 C2156 1.366 . S
C2157 C2158 1.414 . S
C2157 C2160 1.499 . S
C2158 H2138 0.950 . S
C2158 C2157 1.414 . S
C2158 C2159 1.374 . S
C2159 H2139 0.950 . S
C2159 C2155 1.385 . S
C2159 C2158 1.374 . S
C2160 C2157 1.499 . S
C2160 C2161 1.373 . S
C2160 C2162 1.389 . S
C2161 H2140 0.950 . S
C2161 C2160 1.373 . S
C2161 C2177 1.377 . S
C2162 C2160 1.389 . S
C2162 C2163 1.524 . S
C2162 C2176 1.377 . S
C2163 C2162 1.524 . S
C2163 C2164 1.397 . S
C2163 C2168 1.363 . S
C2164 H2141 0.950 . S
C2164 C2163 1.397 . S
C2164 C2165 1.334 . S
C2165 H2142 0.950 . S
C2165 C2164 1.334 . S
C2165 C2166 1.287 . S
C2166 C2165 1.287 . S
C2166 C2167 1.524 . S
C2166 H2185 0.913 . S
C2167 H2143 0.950 . S
C2167 C2166 1.524 . S
C2167 C2168 1.415 . S
C2168 H2144 0.950 . S
C2168 C2163 1.363 . S
C2168 C2167 1.415 . S
C2169 H2145 0.951 . S
C2169 C2170 1.366 . S
C2169 C2171 1.388 . S
C2170 C2169 1.366 . S
C2170 C2174 1.385 . S
C2171 H2146 0.951 . S
C2171 C2169 1.388 . S
C2171 C2172 1.366 . S
C2172 C2171 1.366 . S
C2172 C2173 1.414 . S
C2172 C2175 1.499 . S
C2173 H2147 0.950 . S
C2173 C2172 1.414 . S
C2173 C2174 1.374 . S
C2174 H2148 0.950 . S
C2174 C2170 1.385 . S
C2174 C2173 1.374 . S
C2175 C2172 1.499 . S
C2175 C2176 1.373 . S
C2175 C2177 1.389 . S
C2176 H2149 0.950 . S
C2176 C2162 1.377 . S
C2176 C2175 1.373 . S
C2177 C2161 1.377 . S
C2177 C2175 1.389 . S
C2177 C2178 1.524 . S
C2178 C2177 1.524 . S
C2178 C2179 1.397 . S
C2178 C2183 1.363 . S
C2179 H2150 0.950 . S
C2179 C2178 1.397 . S
C2179 C2180 1.334 . S
C2180 H2151 0.950 . S
C2180 C2179 1.334 . S
C2180 C2181 1.287 . S
C2181 C2180 1.287 . S
C2181 C2182 1.524 . S
C2181 H2184 0.999 . S
C2182 H2152 0.950 . S
C2182 C2181 1.524 . S
C2182 C2183 1.415 . S
C2183 H2153 0.950 . S
C2183 C2178 1.363 . S
C2183 C2182 1.415 . S
H2184 C2181 0.999 . S
H2185 C2166 0.913 . S
H2186 C2204 0.951 . S
H2187 C2206 0.951 . S
H2188 C2208 0.950 . S
H2189 C2209 0.950 . S
H2190 C2211 0.950 . S
H2191 C2214 0.950 . S
H2192 C2215 0.950 . S
H2193 C2217 0.950 . S
H2194 C2218 0.950 . S
H2195 C2219 0.951 . S
H2196 C2221 0.951 . S
H2197 C2223 0.950 . S
H2198 C2224 0.950 . S
H2199 C2226 0.950 . S
H2200 C2229 0.950 . S
H2201 C2230 0.950 . S
H2202 C2232 0.950 . S
H2203 C2233 0.950 . S
C2204 H2186 0.951 . S
C2204 C2205 1.366 . S
C2204 C2206 1.388 . S
C2205 C2204 1.366 . S
C2205 C2209 1.385 . S
C2206 H2187 0.951 . S
C2206 C2204 1.388 . S
C2206 C2207 1.366 . S
C2207 C2206 1.366 . S
C2207 C2208 1.414 . S
C2207 C2210 1.499 . S
C2208 H2188 0.950 . S
C2208 C2207 1.414 . S
C2208 C2209 1.374 . S
C2209 H2189 0.950 . S
C2209 C2205 1.385 . S
C2209 C2208 1.374 . S
C2210 C2207 1.499 . S
C2210 C2211 1.373 . S
C2210 C2212 1.389 . S
C2211 H2190 0.950 . S
C2211 C2210 1.373 . S
C2211 C2227 1.377 . S
C2212 C2210 1.389 . S
C2212 C2213 1.524 . S
C2212 C2226 1.377 . S
C2213 C2212 1.524 . S
C2213 C2214 1.397 . S
C2213 C2218 1.363 . S
C2214 H2191 0.950 . S
C2214 C2213 1.397 . S
C2214 C2215 1.334 . S
C2215 H2192 0.950 . S
C2215 C2214 1.334 . S
C2215 C2216 1.287 . S
C2216 C2215 1.287 . S
C2216 C2217 1.524 . S
C2216 H2235 0.913 . S
C2217 H2193 0.950 . S
C2217 C2216 1.524 . S
C2217 C2218 1.415 . S
C2218 H2194 0.950 . S
C2218 C2213 1.363 . S
C2218 C2217 1.415 . S
C2219 H2195 0.951 . S
C2219 C2220 1.366 . S
C2219 C2221 1.388 . S
C2220 C2219 1.366 . S
C2220 C2224 1.385 . S
C2221 H2196 0.951 . S
C2221 C2219 1.388 . S
C2221 C2222 1.366 . S
C2222 C2221 1.366 . S
C2222 C2223 1.414 . S
C2222 C2225 1.499 . S
C2223 H2197 0.950 . S
C2223 C2222 1.414 . S
C2223 C2224 1.374 . S
C2224 H2198 0.950 . S
C2224 C2220 1.385 . S
C2224 C2223 1.374 . S
C2225 C2222 1.499 . S
C2225 C2226 1.373 . S
C2225 C2227 1.389 . S
C2226 H2199 0.950 . S
C2226 C2212 1.377 . S
C2226 C2225 1.373 . S
C2227 C2211 1.377 . S
C2227 C2225 1.389 . S
C2227 C2228 1.524 . S
C2228 C2227 1.524 . S
C2228 C2229 1.397 . S
C2228 C2233 1.363 . S
C2229 H2200 0.950 . S
C2229 C2228 1.397 . S
C2229 C2230 1.334 . S
C2230 H2201 0.950 . S
C2230 C2229 1.334 . S
C2230 C2231 1.287 . S
C2231 C2230 1.287 . S
C2231 C2232 1.524 . S
C2231 H2234 0.999 . S
C2232 H2202 0.950 . S
C2232 C2231 1.524 . S
C2232 C2233 1.415 . S
C2233 H2203 0.950 . S
C2233 C2228 1.363 . S
C2233 C2232 1.415 . S
H2234 C2231 0.999 . S
H2235 C2216 0.913 . S
H2236 C2254 0.951 . S
H2237 C2256 0.951 . S
H2238 C2258 0.950 . S
H2239 C2259 0.950 . S
H2240 C2261 0.950 . S
H2241 C2264 0.950 . S
H2242 C2265 0.950 . S
H2243 C2267 0.950 . S
H2244 C2268 0.950 . S
H2245 C2269 0.951 . S
H2246 C2271 0.951 . S
H2247 C2273 0.950 . S
H2248 C2274 0.950 . S
H2249 C2276 0.950 . S
H2250 C2279 0.950 . S
H2251 C2280 0.950 . S
H2252 C2282 0.950 . S
H2253 C2283 0.950 . S
C2254 H2236 0.951 . S
C2254 C2255 1.366 . S
C2254 C2256 1.388 . S
C2255 C2254 1.366 . S
C2255 C2259 1.385 . S
C2256 H2237 0.951 . S
C2256 C2254 1.388 . S
C2256 C2257 1.366 . S
C2257 C2256 1.366 . S
C2257 C2258 1.414 . S
C2257 C2260 1.499 . S
C2258 H2238 0.950 . S
C2258 C2257 1.414 . S
C2258 C2259 1.374 . S
C2259 H2239 0.950 . S
C2259 C2255 1.385 . S
C2259 C2258 1.374 . S
C2260 C2257 1.499 . S
C2260 C2261 1.373 . S
C2260 C2262 1.389 . S
C2261 H2240 0.950 . S
C2261 C2260 1.373 . S
C2261 C2277 1.377 . S
C2262 C2260 1.389 . S
C2262 C2263 1.524 . S
C2262 C2276 1.377 . S
C2263 C2262 1.524 . S
C2263 C2264 1.397 . S
C2263 C2268 1.363 . S
C2264 H2241 0.950 . S
C2264 C2263 1.397 . S
C2264 C2265 1.334 . S
C2265 H2242 0.950 . S
C2265 C2264 1.334 . S
C2265 C2266 1.287 . S
C2266 C2265 1.287 . S
C2266 C2267 1.524 . S
C2266 H2285 0.913 . S
C2267 H2243 0.950 . S
C2267 C2266 1.524 . S
C2267 C2268 1.415 . S
C2268 H2244 0.950 . S
C2268 C2263 1.363 . S
C2268 C2267 1.415 . S
C2269 H2245 0.951 . S
C2269 C2270 1.366 . S
C2269 C2271 1.388 . S
C2270 C2269 1.366 . S
C2270 C2274 1.385 . S
C2271 H2246 0.951 . S
C2271 C2269 1.388 . S
C2271 C2272 1.366 . S
C2272 C2271 1.366 . S
C2272 C2273 1.414 . S
C2272 C2275 1.499 . S
C2273 H2247 0.950 . S
C2273 C2272 1.414 . S
C2273 C2274 1.374 . S
C2274 H2248 0.950 . S
C2274 C2270 1.385 . S
C2274 C2273 1.374 . S
C2275 C2272 1.499 . S
C2275 C2276 1.373 . S
C2275 C2277 1.389 . S
C2276 H2249 0.950 . S
C2276 C2262 1.377 . S
C2276 C2275 1.373 . S
C2277 C2261 1.377 . S
C2277 C2275 1.389 . S
C2277 C2278 1.524 . S
C2278 C2277 1.524 . S
C2278 C2279 1.397 . S
C2278 C2283 1.363 . S
C2279 H2250 0.950 . S
C2279 C2278 1.397 . S
C2279 C2280 1.334 . S
C2280 H2251 0.950 . S
C2280 C2279 1.334 . S
C2280 C2281 1.287 . S
C2281 C2280 1.287 . S
C2281 C2282 1.524 . S
C2281 H2284 0.999 . S
C2282 H2252 0.950 . S
C2282 C2281 1.524 . S
C2282 C2283 1.415 . S
C2283 H2253 0.950 . S
C2283 C2278 1.363 . S
C2283 C2282 1.415 . S
H2284 C2281 0.999 . S
H2285 C2266 0.913 . S
H2286 C2304 0.951 . S
H2287 C2306 0.951 . S
H2288 C2308 0.950 . S
H2289 C2309 0.950 . S
H2290 C2311 0.950 . S
H2291 C2314 0.950 . S
H2292 C2315 0.950 . S
H2293 C2317 0.950 . S
H2294 C2318 0.950 . S
H2295 C2319 0.951 . S
H2296 C2321 0.951 . S
H2297 C2323 0.950 . S
H2298 C2324 0.950 . S
H2299 C2326 0.950 . S
H2300 C2329 0.950 . S
H2301 C2330 0.950 . S
H2302 C2332 0.950 . S
H2303 C2333 0.950 . S
C2304 H2286 0.951 . S
C2304 C2305 1.366 . S
C2304 C2306 1.388 . S
C2305 C2304 1.366 . S
C2305 C2309 1.385 . S
C2306 H2287 0.951 . S
C2306 C2304 1.388 . S
C2306 C2307 1.366 . S
C2307 C2306 1.366 . S
C2307 C2308 1.414 . S
C2307 C2310 1.499 . S
C2308 H2288 0.950 . S
C2308 C2307 1.414 . S
C2308 C2309 1.374 . S
C2309 H2289 0.950 . S
C2309 C2305 1.385 . S
C2309 C2308 1.374 . S
C2310 C2307 1.499 . S
C2310 C2311 1.373 . S
C2310 C2312 1.389 . S
C2311 H2290 0.950 . S
C2311 C2310 1.373 . S
C2311 C2327 1.377 . S
C2312 C2310 1.389 . S
C2312 C2313 1.524 . S
C2312 C2326 1.377 . S
C2313 C2312 1.524 . S
C2313 C2314 1.397 . S
C2313 C2318 1.363 . S
C2314 H2291 0.950 . S
C2314 C2313 1.397 . S
C2314 C2315 1.334 . S
C2315 H2292 0.950 . S
C2315 C2314 1.334 . S
C2315 C2316 1.287 . S
C2316 C2315 1.287 . S
C2316 C2317 1.524 . S
C2316 H2335 0.913 . S
C2317 H2293 0.950 . S
C2317 C2316 1.524 . S
C2317 C2318 1.415 . S
C2318 H2294 0.950 . S
C2318 C2313 1.363 . S
C2318 C2317 1.415 . S
C2319 H2295 0.951 . S
C2319 C2320 1.366 . S
C2319 C2321 1.388 . S
C2320 C2319 1.366 . S
C2320 C2324 1.385 . S
C2321 H2296 0.951 . S
C2321 C2319 1.388 . S
C2321 C2322 1.366 . S
C2322 C2321 1.366 . S
C2322 C2323 1.414 . S
C2322 C2325 1.499 . S
C2323 H2297 0.950 . S
C2323 C2322 1.414 . S
C2323 C2324 1.374 . S
C2324 H2298 0.950 . S
C2324 C2320 1.385 . S
C2324 C2323 1.374 . S
C2325 C2322 1.499 . S
C2325 C2326 1.373 . S
C2325 C2327 1.389 . S
C2326 H2299 0.950 . S
C2326 C2312 1.377 . S
C2326 C2325 1.373 . S
C2327 C2311 1.377 . S
C2327 C2325 1.389 . S
C2327 C2328 1.524 . S
C2328 C2327 1.524 . S
C2328 C2329 1.397 . S
C2328 C2333 1.363 . S
C2329 H2300 0.950 . S
C2329 C2328 1.397 . S
C2329 C2330 1.334 . S
C2330 H2301 0.950 . S
C2330 C2329 1.334 . S
C2330 C2331 1.287 . S
C2331 C2330 1.287 . S
C2331 C2332 1.524 . S
C2331 H2334 0.999 . S
C2332 H2302 0.950 . S
C2332 C2331 1.524 . S
C2332 C2333 1.415 . S
C2333 H2303 0.950 . S
C2333 C2328 1.363 . S
C2333 C2332 1.415 . S
H2334 C2331 0.999 . S
H2335 C2316 0.913 . S
H2336 C2354 0.951 . S
H2337 C2356 0.951 . S
H2338 C2358 0.950 . S
H2339 C2359 0.950 . S
H2340 C2361 0.950 . S
H2341 C2364 0.950 . S
H2342 C2365 0.950 . S
H2343 C2367 0.950 . S
H2344 C2368 0.950 . S
H2345 C2369 0.951 . S
H2346 C2371 0.951 . S
H2347 C2373 0.950 . S
H2348 C2374 0.950 . S
H2349 C2376 0.950 . S
H2350 C2379 0.950 . S
H2351 C2380 0.950 . S
H2352 C2382 0.950 . S
H2353 C2383 0.950 . S
C2354 H2336 0.951 . S
C2354 C2355 1.366 . S
C2354 C2356 1.388 . S
C2355 C2354 1.366 . S
C2355 C2359 1.385 . S
C2356 H2337 0.951 . S
C2356 C2354 1.388 . S
C2356 C2357 1.366 . S
C2357 C2356 1.366 . S
C2357 C2358 1.414 . S
C2357 C2360 1.499 . S
C2358 H2338 0.950 . S
C2358 C2357 1.414 . S
C2358 C2359 1.374 . S
C2359 H2339 0.950 . S
C2359 C2355 1.385 . S
C2359 C2358 1.374 . S
C2360 C2357 1.499 . S
C2360 C2361 1.373 . S
C2360 C2362 1.389 . S
C2361 H2340 0.950 . S
C2361 C2360 1.373 . S
C2361 C2377 1.377 . S
C2362 C2360 1.389 . S
C2362 C2363 1.524 . S
C2362 C2376 1.377 . S
C2363 C2362 1.524 . S
C2363 C2364 1.397 . S
C2363 C2368 1.363 . S
C2364 H2341 0.950 . S
C2364 C2363 1.397 . S
C2364 C2365 1.334 . S
C2365 H2342 0.950 . S
C2365 C2364 1.334 . S
C2365 C2366 1.287 . S
C2366 C2365 1.287 . S
C2366 C2367 1.524 . S
C2366 H2385 0.913 . S
C2367 H2343 0.950 . S
C2367 C2366 1.524 . S
C2367 C2368 1.415 . S
C2368 H2344 0.950 . S
C2368 C2363 1.363 . S
C2368 C2367 1.415 . S
C2369 H2345 0.951 . S
C2369 C2370 1.366 . S
C2369 C2371 1.388 . S
C2370 C2369 1.366 . S
C2370 C2374 1.385 . S
C2371 H2346 0.951 . S
C2371 C2369 1.388 . S
C2371 C2372 1.366 . S
C2372 C2371 1.366 . S
C2372 C2373 1.414 . S
C2372 C2375 1.499 . S
C2373 H2347 0.950 . S
C2373 C2372 1.414 . S
C2373 C2374 1.374 . S
C2374 H2348 0.950 . S
C2374 C2370 1.385 . S
C2374 C2373 1.374 . S
C2375 C2372 1.499 . S
C2375 C2376 1.373 . S
C2375 C2377 1.389 . S
C2376 H2349 0.950 . S
C2376 C2362 1.377 . S
C2376 C2375 1.373 . S
C2377 C2361 1.377 . S
C2377 C2375 1.389 . S
C2377 C2378 1.524 . S
C2378 C2377 1.524 . S
C2378 C2379 1.397 . S
C2378 C2383 1.363 . S
C2379 H2350 0.950 . S
C2379 C2378 1.397 . S
C2379 C2380 1.334 . S
C2380 H2351 0.950 . S
C2380 C2379 1.334 . S
C2380 C2381 1.287 . S
C2381 C2380 1.287 . S
C2381 C2382 1.524 . S
C2381 H2384 0.999 . S
C2382 H2352 0.950 . S
C2382 C2381 1.524 . S
C2382 C2383 1.415 . S
C2383 H2353 0.950 . S
C2383 C2378 1.363 . S
C2383 C2382 1.415 . S
H2384 C2381 0.999 . S
H2385 C2366 0.913 . S
H2386 C2404 0.951 . S
H2387 C2406 0.951 . S
H2388 C2408 0.950 . S
H2389 C2409 0.950 . S
H2390 C2411 0.950 . S
H2391 C2414 0.950 . S
H2392 C2415 0.950 . S
H2393 C2417 0.950 . S
H2394 C2418 0.950 . S
H2395 C2419 0.951 . S
H2396 C2421 0.951 . S
H2397 C2423 0.950 . S
H2398 C2424 0.950 . S
H2399 C2426 0.950 . S
H2400 C2429 0.950 . S
H2401 C2430 0.950 . S
H2402 C2432 0.950 . S
H2403 C2433 0.950 . S
C2404 H2386 0.951 . S
C2404 C2405 1.366 . S
C2404 C2406 1.388 . S
C2405 C2404 1.366 . S
C2405 C2409 1.385 . S
C2406 H2387 0.951 . S
C2406 C2404 1.388 . S
C2406 C2407 1.366 . S
C2407 C2406 1.366 . S
C2407 C2408 1.414 . S
C2407 C2410 1.499 . S
C2408 H2388 0.950 . S
C2408 C2407 1.414 . S
C2408 C2409 1.374 . S
C2409 H2389 0.950 . S
C2409 C2405 1.385 . S
C2409 C2408 1.374 . S
C2410 C2407 1.499 . S
C2410 C2411 1.373 . S
C2410 C2412 1.389 . S
C2411 H2390 0.950 . S
C2411 C2410 1.373 . S
C2411 C2427 1.377 . S
C2412 C2410 1.389 . S
C2412 C2413 1.524 . S
C2412 C2426 1.377 . S
C2413 C2412 1.524 . S
C2413 C2414 1.397 . S
C2413 C2418 1.363 . S
C2414 H2391 0.950 . S
C2414 C2413 1.397 . S
C2414 C2415 1.334 . S
C2415 H2392 0.950 . S
C2415 C2414 1.334 . S
C2415 C2416 1.287 . S
C2416 C2415 1.287 . S
C2416 C2417 1.524 . S
C2416 H2435 0.913 . S
C2417 H2393 0.950 . S
C2417 C2416 1.524 . S
C2417 C2418 1.415 . S
C2418 H2394 0.950 . S
C2418 C2413 1.363 . S
C2418 C2417 1.415 . S
C2419 H2395 0.951 . S
C2419 C2420 1.366 . S
C2419 C2421 1.388 . S
C2420 C2419 1.366 . S
C2420 C2424 1.385 . S
C2421 H2396 0.951 . S
C2421 C2419 1.388 . S
C2421 C2422 1.366 . S
C2422 C2421 1.366 . S
C2422 C2423 1.414 . S
C2422 C2425 1.499 . S
C2423 H2397 0.950 . S
C2423 C2422 1.414 . S
C2423 C2424 1.374 . S
C2424 H2398 0.950 . S
C2424 C2420 1.385 . S
C2424 C2423 1.374 . S
C2425 C2422 1.499 . S
C2425 C2426 1.373 . S
C2425 C2427 1.389 . S
C2426 H2399 0.950 . S
C2426 C2412 1.377 . S
C2426 C2425 1.373 . S
C2427 C2411 1.377 . S
C2427 C2425 1.389 . S
C2427 C2428 1.524 . S
C2428 C2427 1.524 . S
C2428 C2429 1.397 . S
C2428 C2433 1.363 . S
C2429 H2400 0.950 . S
C2429 C2428 1.397 . S
C2429 C2430 1.334 . S
C2430 H2401 0.950 . S
C2430 C2429 1.334 . S
C2430 C2431 1.287 . S
C2431 C2430 1.287 . S
C2431 C2432 1.524 . S
C2431 H2434 0.999 . S
C2432 H2402 0.950 . S
C2432 C2431 1.524 . S
C2432 C2433 1.415 . S
C2433 H2403 0.950 . S
C2433 C2428 1.363 . S
C2433 C2432 1.415 . S
H2434 C2431 0.999 . S
H2435 C2416 0.913 . S
H2436 C2454 0.951 . S
H2437 C2456 0.951 . S
H2438 C2458 0.950 . S
H2439 C2459 0.950 . S
H2440 C2461 0.950 . S
H2441 C2464 0.950 . S
H2442 C2465 0.950 . S
H2443 C2467 0.950 . S
H2444 C2468 0.950 . S
H2445 C2469 0.951 . S
H2446 C2471 0.951 . S
H2447 C2473 0.950 . S
H2448 C2474 0.950 . S
H2449 C2476 0.950 . S
H2450 C2479 0.950 . S
H2451 C2480 0.950 . S
H2452 C2482 0.950 . S
H2453 C2483 0.950 . S
C2454 H2436 0.951 . S
C2454 C2455 1.366 . S
C2454 C2456 1.388 . S
C2455 C2454 1.366 . S
C2455 C2459 1.385 . S
C2456 H2437 0.951 . S
C2456 C2454 1.388 . S
C2456 C2457 1.366 . S
C2457 C2456 1.366 . S
C2457 C2458 1.414 . S
C2457 C2460 1.499 . S
C2458 H2438 0.950 . S
C2458 C2457 1.414 . S
C2458 C2459 1.374 . S
C2459 H2439 0.950 . S
C2459 C2455 1.385 . S
C2459 C2458 1.374 . S
C2460 C2457 1.499 . S
C2460 C2461 1.373 . S
C2460 C2462 1.389 . S
C2461 H2440 0.950 . S
C2461 C2460 1.373 . S
C2461 C2477 1.377 . S
C2462 C2460 1.389 . S
C2462 C2463 1.524 . S
C2462 C2476 1.377 . S
C2463 C2462 1.524 . S
C2463 C2464 1.397 . S
C2463 C2468 1.363 . S
C2464 H2441 0.950 . S
C2464 C2463 1.397 . S
C2464 C2465 1.334 . S
C2465 H2442 0.950 . S
C2465 C2464 1.334 . S
C2465 C2466 1.287 . S
C2466 C2465 1.287 . S
C2466 C2467 1.524 . S
C2466 H2485 0.913 . S
C2467 H2443 0.950 . S
C2467 C2466 1.524 . S
C2467 C2468 1.415 . S
C2468 H2444 0.950 . S
C2468 C2463 1.363 . S
C2468 C2467 1.415 . S
C2469 H2445 0.951 . S
C2469 C2470 1.366 . S
C2469 C2471 1.388 . S
C2470 C2469 1.366 . S
C2470 C2474 1.385 . S
C2471 H2446 0.951 . S
C2471 C2469 1.388 . S
C2471 C2472 1.366 . S
C2472 C2471 1.366 . S
C2472 C2473 1.414 . S
C2472 C2475 1.499 . S
C2473 H2447 0.950 . S
C2473 C2472 1.414 . S
C2473 C2474 1.374 . S
C2474 H2448 0.950 . S
C2474 C2470 1.385 . S
C2474 C2473 1.374 . S
C2475 C2472 1.499 . S
C2475 C2476 1.373 . S
C2475 C2477 1.389 . S
C2476 H2449 0.950 . S
C2476 C2462 1.377 . S
C2476 C2475 1.373 . S
C2477 C2461 1.377 . S
C2477 C2475 1.389 . S
C2477 C2478 1.524 . S
C2478 C2477 1.524 . S
C2478 C2479 1.397 . S
C2478 C2483 1.363 . S
C2479 H2450 0.950 . S
C2479 C2478 1.397 . S
C2479 C2480 1.334 . S
C2480 H2451 0.950 . S
C2480 C2479 1.334 . S
C2480 C2481 1.287 . S
C2481 C2480 1.287 . S
C2481 C2482 1.524 . S
C2481 H2484 0.999 . S
C2482 H2452 0.950 . S
C2482 C2481 1.524 . S
C2482 C2483 1.415 . S
C2483 H2453 0.950 . S
C2483 C2478 1.363 . S
C2483 C2482 1.415 . S
H2484 C2481 0.999 . S
H2485 C2466 0.913 . S
H2486 C2504 0.951 . S
H2487 C2506 0.951 . S
H2488 C2508 0.950 . S
H2489 C2509 0.950 . S
H2490 C2511 0.950 . S
H2491 C2514 0.950 . S
H2492 C2515 0.950 . S
H2493 C2517 0.950 . S
H2494 C2518 0.950 . S
H2495 C2519 0.951 . S
H2496 C2521 0.951 . S
H2497 C2523 0.950 . S
H2498 C2524 0.950 . S
H2499 C2526 0.950 . S
H2500 C2529 0.950 . S
H2501 C2530 0.950 . S
H2502 C2532 0.950 . S
H2503 C2533 0.950 . S
C2504 H2486 0.951 . S
C2504 C2505 1.366 . S
C2504 C2506 1.388 . S
C2505 C2504 1.366 . S
C2505 C2509 1.385 . S
C2506 H2487 0.951 . S
C2506 C2504 1.388 . S
C2506 C2507 1.366 . S
C2507 C2506 1.366 . S
C2507 C2508 1.414 . S
C2507 C2510 1.499 . S
C2508 H2488 0.950 . S
C2508 C2507 1.414 . S
C2508 C2509 1.374 . S
C2509 H2489 0.950 . S
C2509 C2505 1.385 . S
C2509 C2508 1.374 . S
C2510 C2507 1.499 . S
C2510 C2511 1.373 . S
C2510 C2512 1.389 . S
C2511 H2490 0.950 . S
C2511 C2510 1.373 . S
C2511 C2527 1.377 . S
C2512 C2510 1.389 . S
C2512 C2513 1.524 . S
C2512 C2526 1.377 . S
C2513 C2512 1.524 . S
C2513 C2514 1.397 . S
C2513 C2518 1.363 . S
C2514 H2491 0.950 . S
C2514 C2513 1.397 . S
C2514 C2515 1.334 . S
C2515 H2492 0.950 . S
C2515 C2514 1.334 . S
C2515 C2516 1.287 . S
C2516 C2515 1.287 . S
C2516 C2517 1.524 . S
C2516 H2535 0.913 . S
C2517 H2493 0.950 . S
C2517 C2516 1.524 . S
C2517 C2518 1.415 . S
C2518 H2494 0.950 . S
C2518 C2513 1.363 . S
C2518 C2517 1.415 . S
C2519 H2495 0.951 . S
C2519 C2520 1.366 . S
C2519 C2521 1.388 . S
C2520 C2519 1.366 . S
C2520 C2524 1.385 . S
C2521 H2496 0.951 . S
C2521 C2519 1.388 . S
C2521 C2522 1.366 . S
C2522 C2521 1.366 . S
C2522 C2523 1.414 . S
C2522 C2525 1.499 . S
C2523 H2497 0.950 . S
C2523 C2522 1.414 . S
C2523 C2524 1.374 . S
C2524 H2498 0.950 . S
C2524 C2520 1.385 . S
C2524 C2523 1.374 . S
C2525 C2522 1.499 . S
C2525 C2526 1.373 . S
C2525 C2527 1.389 . S
C2526 H2499 0.950 . S
C2526 C2512 1.377 . S
C2526 C2525 1.373 . S
C2527 C2511 1.377 . S
C2527 C2525 1.389 . S
C2527 C2528 1.524 . S
C2528 C2527 1.524 . S
C2528 C2529 1.397 . S
C2528 C2533 1.363 . S
C2529 H2500 0.950 . S
C2529 C2528 1.397 . S
C2529 C2530 1.334 . S
C2530 H2501 0.950 . S
C2530 C2529 1.334 . S
C2530 C2531 1.287 . S
C2531 C2530 1.287 . S
C2531 C2532 1.524 . S
C2531 H2534 0.999 . S
C2532 H2502 0.950 . S
C2532 C2531 1.524 . S
C2532 C2533 1.415 . S
C2533 H2503 0.950 . S
C2533 C2528 1.363 . S
C2533 C2532 1.415 . S
H2534 C2531 0.999 . S
H2535 C2516 0.913 . S
H2536 C2554 0.951 . S
H2537 C2556 0.951 . S
H2538 C2558 0.950 . S
H2539 C2559 0.950 . S
H2540 C2561 0.950 . S
H2541 C2564 0.950 . S
H2542 C2565 0.950 . S
H2543 C2567 0.950 . S
H2544 C2568 0.950 . S
H2545 C2569 0.951 . S
H2546 C2571 0.951 . S
H2547 C2573 0.950 . S
H2548 C2574 0.950 . S
H2549 C2576 0.950 . S
H2550 C2579 0.950 . S
H2551 C2580 0.950 . S
H2552 C2582 0.950 . S
H2553 C2583 0.950 . S
C2554 H2536 0.951 . S
C2554 C2555 1.366 . S
C2554 C2556 1.388 . S
C2555 C2554 1.366 . S
C2555 C2559 1.385 . S
C2556 H2537 0.951 . S
C2556 C2554 1.388 . S
C2556 C2557 1.366 . S
C2557 C2556 1.366 . S
C2557 C2558 1.414 . S
C2557 C2560 1.499 . S
C2558 H2538 0.950 . S
C2558 C2557 1.414 . S
C2558 C2559 1.374 . S
C2559 H2539 0.950 . S
C2559 C2555 1.385 . S
C2559 C2558 1.374 . S
C2560 C2557 1.499 . S
C2560 C2561 1.373 . S
C2560 C2562 1.389 . S
C2561 H2540 0.950 . S
C2561 C2560 1.373 . S
C2561 C2577 1.377 . S
C2562 C2560 1.389 . S
C2562 C2563 1.524 . S
C2562 C2576 1.377 . S
C2563 C2562 1.524 . S
C2563 C2564 1.397 . S
C2563 C2568 1.363 . S
C2564 H2541 0.950 . S
C2564 C2563 1.397 . S
C2564 C2565 1.334 . S
C2565 H2542 0.950 . S
C2565 C2564 1.334 . S
C2565 C2566 1.287 . S
C2566 C2565 1.287 . S
C2566 C2567 1.524 . S
C2566 H2585 0.913 . S
C2567 H2543 0.950 . S
C2567 C2566 1.524 . S
C2567 C2568 1.415 . S
C2568 H2544 0.950 . S
C2568 C2563 1.363 . S
C2568 C2567 1.415 . S
C2569 H2545 0.951 . S
C2569 C2570 1.366 . S
C2569 C2571 1.388 . S
C2570 C2569 1.366 . S
C2570 C2574 1.385 . S
C2571 H2546 0.951 . S
C2571 C2569 1.388 . S
C2571 C2572 1.366 . S
C2572 C2571 1.366 . S
C2572 C2573 1.414 . S
C2572 C2575 1.499 . S
C2573 H2547 0.950 . S
C2573 C2572 1.414 . S
C2573 C2574 1.374 . S
C2574 H2548 0.950 . S
C2574 C2570 1.385 . S
C2574 C2573 1.374 . S
C2575 C2572 1.499 . S
C2575 C2576 1.373 . S
C2575 C2577 1.389 . S
C2576 H2549 0.950 . S
C2576 C2562 1.377 . S
C2576 C2575 1.373 . S
C2577 C2561 1.377 . S
C2577 C2575 1.389 . S
C2577 C2578 1.524 . S
C2578 C2577 1.524 . S
C2578 C2579 1.397 . S
C2578 C2583 1.363 . S
C2579 H2550 0.950 . S
C2579 C2578 1.397 . S
C2579 C2580 1.334 . S
C2580 H2551 0.950 . S
C2580 C2579 1.334 . S
C2580 C2581 1.287 . S
C2581 C2580 1.287 . S
C2581 C2582 1.524 . S
C2581 H2584 0.999 . S
C2582 H2552 0.950 . S
C2582 C2581 1.524 . S
C2582 C2583 1.415 . S
C2583 H2553 0.950 . S
C2583 C2578 1.363 . S
C2583 C2582 1.415 . S
H2584 C2581 0.999 . S
H2585 C2566 0.913 . S
H2586 C2604 0.951 . S
H2587 C2606 0.951 . S
H2588 C2608 0.950 . S
H2589 C2609 0.950 . S
H2590 C2611 0.950 . S
H2591 C2614 0.950 . S
H2592 C2615 0.950 . S
H2593 C2617 0.950 . S
H2594 C2618 0.950 . S
H2595 C2619 0.951 . S
H2596 C2621 0.951 . S
H2597 C2623 0.950 . S
H2598 C2624 0.950 . S
H2599 C2626 0.950 . S
H2600 C2629 0.950 . S
H2601 C2630 0.950 . S
H2602 C2632 0.950 . S
H2603 C2633 0.950 . S
C2604 H2586 0.951 . S
C2604 C2605 1.366 . S
C2604 C2606 1.388 . S
C2605 C2604 1.366 . S
C2605 C2609 1.385 . S
C2606 H2587 0.951 . S
C2606 C2604 1.388 . S
C2606 C2607 1.366 . S
C2607 C2606 1.366 . S
C2607 C2608 1.414 . S
C2607 C2610 1.499 . S
C2608 H2588 0.950 . S
C2608 C2607 1.414 . S
C2608 C2609 1.374 . S
C2609 H2589 0.950 . S
C2609 C2605 1.385 . S
C2609 C2608 1.374 . S
C2610 C2607 1.499 . S
C2610 C2611 1.373 . S
C2610 C2612 1.389 . S
C2611 H2590 0.950 . S
C2611 C2610 1.373 . S
C2611 C2627 1.377 . S
C2612 C2610 1.389 . S
C2612 C2613 1.524 . S
C2612 C2626 1.377 . S
C2613 C2612 1.524 . S
C2613 C2614 1.397 . S
C2613 C2618 1.363 . S
C2614 H2591 0.950 . S
C2614 C2613 1.397 . S
C2614 C2615 1.334 . S
C2615 H2592 0.950 . S
C2615 C2614 1.334 . S
C2615 C2616 1.287 . S
C2616 C2615 1.287 . S
C2616 C2617 1.524 . S
C2616 H2635 0.913 . S
C2617 H2593 0.950 . S
C2617 C2616 1.524 . S
C2617 C2618 1.415 . S
C2618 H2594 0.950 . S
C2618 C2613 1.363 . S
C2618 C2617 1.415 . S
C2619 H2595 0.951 . S
C2619 C2620 1.366 . S
C2619 C2621 1.388 . S
C2620 C2619 1.366 . S
C2620 C2624 1.385 . S
C2621 H2596 0.951 . S
C2621 C2619 1.388 . S
C2621 C2622 1.366 . S
C2622 C2621 1.366 . S
C2622 C2623 1.414 . S
C2622 C2625 1.499 . S
C2623 H2597 0.950 . S
C2623 C2622 1.414 . S
C2623 C2624 1.374 . S
C2624 H2598 0.950 . S
C2624 C2620 1.385 . S
C2624 C2623 1.374 . S
C2625 C2622 1.499 . S
C2625 C2626 1.373 . S
C2625 C2627 1.389 . S
C2626 H2599 0.950 . S
C2626 C2612 1.377 . S
C2626 C2625 1.373 . S
C2627 C2611 1.377 . S
C2627 C2625 1.389 . S
C2627 C2628 1.524 . S
C2628 C2627 1.524 . S
C2628 C2629 1.397 . S
C2628 C2633 1.363 . S
C2629 H2600 0.950 . S
C2629 C2628 1.397 . S
C2629 C2630 1.334 . S
C2630 H2601 0.950 . S
C2630 C2629 1.334 . S
C2630 C2631 1.287 . S
C2631 C2630 1.287 . S
C2631 C2632 1.524 . S
C2631 H2634 0.999 . S
C2632 H2602 0.950 . S
C2632 C2631 1.524 . S
C2632 C2633 1.415 . S
C2633 H2603 0.950 . S
C2633 C2628 1.363 . S
C2633 C2632 1.415 . S
H2634 C2631 0.999 . S
H2635 C2616 0.913 . S
H2636 C2654 0.951 . S
H2637 C2656 0.951 . S
H2638 C2658 0.950 . S
H2639 C2659 0.950 . S
H2640 C2661 0.950 . S
H2641 C2664 0.950 . S
H2642 C2665 0.950 . S
H2643 C2667 0.950 . S
H2644 C2668 0.950 . S
H2645 C2669 0.951 . S
H2646 C2671 0.951 . S
H2647 C2673 0.950 . S
H2648 C2674 0.950 . S
H2649 C2676 0.950 . S
H2650 C2679 0.950 . S
H2651 C2680 0.950 . S
H2652 C2682 0.950 . S
H2653 C2683 0.950 . S
C2654 H2636 0.951 . S
C2654 C2655 1.366 . S
C2654 C2656 1.388 . S
C2655 C2654 1.366 . S
C2655 C2659 1.385 . S
C2656 H2637 0.951 . S
C2656 C2654 1.388 . S
C2656 C2657 1.366 . S
C2657 C2656 1.366 . S
C2657 C2658 1.414 . S
C2657 C2660 1.499 . S
C2658 H2638 0.950 . S
C2658 C2657 1.414 . S
C2658 C2659 1.374 . S
C2659 H2639 0.950 . S
C2659 C2655 1.385 . S
C2659 C2658 1.374 . S
C2660 C2657 1.499 . S
C2660 C2661 1.373 . S
C2660 C2662 1.389 . S
C2661 H2640 0.950 . S
C2661 C2660 1.373 . S
C2661 C2677 1.377 . S
C2662 C2660 1.389 . S
C2662 C2663 1.524 . S
C2662 C2676 1.377 . S
C2663 C2662 1.524 . S
C2663 C2664 1.397 . S
C2663 C2668 1.363 . S
C2664 H2641 0.950 . S
C2664 C2663 1.397 . S
C2664 C2665 1.334 . S
C2665 H2642 0.950 . S
C2665 C2664 1.334 . S
C2665 C2666 1.287 . S
C2666 C2665 1.287 . S
C2666 C2667 1.524 . S
C2666 H2685 0.913 . S
C2667 H2643 0.950 . S
C2667 C2666 1.524 . S
C2667 C2668 1.415 . S
C2668 H2644 0.950 . S
C2668 C2663 1.363 . S
C2668 C2667 1.415 . S
C2669 H2645 0.951 . S
C2669 C2670 1.366 . S
C2669 C2671 1.388 . S
C2670 C2669 1.366 . S
C2670 C2674 1.385 . S
C2671 H2646 0.951 . S
C2671 C2669 1.388 . S
C2671 C2672 1.366 . S
C2672 C2671 1.366 . S
C2672 C2673 1.414 . S
C2672 C2675 1.499 . S
C2673 H2647 0.950 . S
C2673 C2672 1.414 . S
C2673 C2674 1.374 . S
C2674 H2648 0.950 . S
C2674 C2670 1.385 . S
C2674 C2673 1.374 . S
C2675 C2672 1.499 . S
C2675 C2676 1.373 . S
C2675 C2677 1.389 . S
C2676 H2649 0.950 . S
C2676 C2662 1.377 . S
C2676 C2675 1.373 . S
C2677 C2661 1.377 . S
C2677 C2675 1.389 . S
C2677 C2678 1.524 . S
C2678 C2677 1.524 . S
C2678 C2679 1.397 . S
C2678 C2683 1.363 . S
C2679 H2650 0.950 . S
C2679 C2678 1.397 . S
C2679 C2680 1.334 . S
C2680 H2651 0.950 . S
C2680 C2679 1.334 . S
C2680 C2681 1.287 . S
C2681 C2680 1.287 . S
C2681 C2682 1.524 . S
C2681 H2684 0.999 . S
C2682 H2652 0.950 . S
C2682 C2681 1.524 . S
C2682 C2683 1.415 . S
C2683 H2653 0.950 . S
C2683 C2678 1.363 . S
C2683 C2682 1.415 . S
H2684 C2681 0.999 . S
H2685 C2666 0.913 . S
H2686 C2704 0.951 . S
H2687 C2706 0.951 . S
H2688 C2708 0.950 . S
H2689 C2709 0.950 . S
H2690 C2711 0.950 . S
H2691 C2714 0.950 . S
H2692 C2715 0.950 . S
H2693 C2717 0.950 . S
H2694 C2718 0.950 . S
H2695 C2719 0.951 . S
H2696 C2721 0.951 . S
H2697 C2723 0.950 . S
H2698 C2724 0.950 . S
H2699 C2726 0.950 . S
H2700 C2729 0.950 . S
H2701 C2730 0.950 . S
H2702 C2732 0.950 . S
H2703 C2733 0.950 . S
C2704 H2686 0.951 . S
C2704 C2705 1.366 . S
C2704 C2706 1.388 . S
C2705 C2704 1.366 . S
C2705 C2709 1.385 . S
C2706 H2687 0.951 . S
C2706 C2704 1.388 . S
C2706 C2707 1.366 . S
C2707 C2706 1.366 . S
C2707 C2708 1.414 . S
C2707 C2710 1.499 . S
C2708 H2688 0.950 . S
C2708 C2707 1.414 . S
C2708 C2709 1.374 . S
C2709 H2689 0.950 . S
C2709 C2705 1.385 . S
C2709 C2708 1.374 . S
C2710 C2707 1.499 . S
C2710 C2711 1.373 . S
C2710 C2712 1.389 . S
C2711 H2690 0.950 . S
C2711 C2710 1.373 . S
C2711 C2727 1.377 . S
C2712 C2710 1.389 . S
C2712 C2713 1.524 . S
C2712 C2726 1.377 . S
C2713 C2712 1.524 . S
C2713 C2714 1.397 . S
C2713 C2718 1.363 . S
C2714 H2691 0.950 . S
C2714 C2713 1.397 . S
C2714 C2715 1.334 . S
C2715 H2692 0.950 . S
C2715 C2714 1.334 . S
C2715 C2716 1.287 . S
C2716 C2715 1.287 . S
C2716 C2717 1.524 . S
C2716 H2735 0.913 . S
C2717 H2693 0.950 . S
C2717 C2716 1.524 . S
C2717 C2718 1.415 . S
C2718 H2694 0.950 . S
C2718 C2713 1.363 . S
C2718 C2717 1.415 . S
C2719 H2695 0.951 . S
C2719 C2720 1.366 . S
C2719 C2721 1.388 . S
C2720 C2719 1.366 . S
C2720 C2724 1.385 . S
C2721 H2696 0.951 . S
C2721 C2719 1.388 . S
C2721 C2722 1.366 . S
C2722 C2721 1.366 . S
C2722 C2723 1.414 . S
C2722 C2725 1.499 . S
C2723 H2697 0.950 . S
C2723 C2722 1.414 . S
C2723 C2724 1.374 . S
C2724 H2698 0.950 . S
C2724 C2720 1.385 . S
C2724 C2723 1.374 . S
C2725 C2722 1.499 . S
C2725 C2726 1.373 . S
C2725 C2727 1.389 . S
C2726 H2699 0.950 . S
C2726 C2712 1.377 . S
C2726 C2725 1.373 . S
C2727 C2711 1.377 . S
C2727 C2725 1.389 . S
C2727 C2728 1.524 . S
C2728 C2727 1.524 . S
C2728 C2729 1.397 . S
C2728 C2733 1.363 . S
C2729 H2700 0.950 . S
C2729 C2728 1.397 . S
C2729 C2730 1.334 . S
C2730 H2701 0.950 . S
C2730 C2729 1.334 . S
C2730 C2731 1.287 . S
C2731 C2730 1.287 . S
C2731 C2732 1.524 . S
C2731 H2734 0.999 . S
C2732 H2702 0.950 . S
C2732 C2731 1.524 . S
C2732 C2733 1.415 . S
C2733 H2703 0.950 . S
C2733 C2728 1.363 . S
C2733 C2732 1.415 . S
H2734 C2731 0.999 . S
H2735 C2716 0.913 . S
C355 C12 1.365 . S
C370 C110 1.365 . S
C405 C124 1.366 . S
C420 C26 1.365 . S
C455 C40 1.365 . S
C470 C138 1.365 . S
C505 C54 1.365 . S
C520 C152 1.365 . S
C555 C166 1.365 . S
C570 C68 1.365 . S
C605 C82 1.365 . S
C620 C96 1.365 . S
C655 C173 1.009 . S
C670 C271 1.010 . S
C705 C187 1.011 . S
C720 C285 1.009 . S
C755 C299 1.009 . S
C770 C201 1.011 . S
C805 C215 1.011 . S
C820 C313 1.010 . S
C855 C229 1.010 . S
C870 C327 1.009 . S
C905 C257 1.009 . S
C920 C243 1.011 . S
C955 C5 0.878 . S
C970 C117 0.879 . S
C1005 C131 0.876 . S
C1020 C19 0.879 . S
C1055 C145 0.877 . S
C1070 C33 0.877 . S
C1105 C47 0.876 . S
C1120 C159 0.878 . S
C1155 C61 0.879 . S
C1170 C89 0.878 . S
C1205 C75 0.879 . S
C1220 C103 0.878 . S
C1255 C292 1.253 . S
C1270 C180 1.253 . S
C1305 C194 1.253 . S
C1320 C306 1.253 . S
C1355 C320 1.253 . S
C1370 C208 1.253 . S
C1405 C334 1.253 . S
C1420 C222 1.253 . S
C1455 C264 1.253 . S
C1470 C236 1.253 . S
C1505 C250 1.253 . S
C1520 C278 1.253 . S
C1555 C11 1.488 . S
C1570 C221 1.493 . S
C1605 C235 1.493 . S
C1620 C25 1.488 . S
C1655 C249 1.493 . S
C1670 C39 1.488 . S
C1705 C53 1.489 . S
C1720 C179 1.493 . S
C1755 C67 1.488 . S
C1770 C193 1.493 . S
C1805 C207 1.493 . S
C1820 C81 1.489 . S
C1855 C305 1.493 . S
C1870 C95 1.488 . S
C1905 C319 1.493 . S
C1920 C109 1.489 . S
C1955 C333 1.493 . S
C1970 C123 1.488 . S
C2005 C263 1.493 . S
C2020 C137 1.489 . S
C2055 C151 1.488 . S
C2070 C277 1.493 . S
C2105 C165 1.488 . S
C2120 C291 1.493 . S
C2155 C4 1.446 . S
C2170 C144 1.447 . S
C2205 C158 1.447 . S
C2220 C18 1.447 . S
C2255 C88 1.447 . S
C2270 C32 1.447 . S
C2305 C46 1.446 . S
C2320 C102 1.447 . S
C2355 C60 1.447 . S
C2370 C116 1.446 . S
C2405 C74 1.447 . S
C2420 C130 1.446 . S
C2455 C172 1.489 . S
C2470 C312 1.490 . S
C2505 C186 1.489 . S
C2520 C326 1.490 . S
C2555 C200 1.489 . S
C2570 C256 1.489 . S
C2605 C270 1.490 . S
C2620 C214 1.489 . S
C2655 C228 1.489 . S
C2670 C284 1.490 . S
C2705 C242 1.489 . S
C2720 C298 1.490 . S
