# Generated by pormake.
# Topology wlg, (5)-cn, num edge types: 1
# Building blocks:
#     Node 0, Type 0, BuildingBlock: BEQFEK_clean_sbu_0, # of connection points: 5
#     Node 1, Type 0, BuildingBlock: BEQFEK_clean_sbu_0, # of connection points: 5
#     Node 2, Type 0, BuildingBlock: BEQFEK_clean_sbu_0, # of connection points: 5
#     Node 3, Type 0, BuildingBlock: BEQFEK_clean_sbu_0, # of connection points: 5
#     Node 4, Type 0, BuildingBlock: BEQFEK_clean_sbu_0, # of connection points: 5
#     Node 5, Type 0, BuildingBlock: BEQFEK_clean_sbu_0, # of connection points: 5
#     Node 6, Type 0, BuildingBlock: BEQFEK_clean_sbu_0, # of connection points: 5
#     Node 7, Type 0, BuildingBlock: BEQFEK_clean_sbu_0, # of connection points: 5
#     Node 8, Type 0, BuildingBlock: BEQFEK_clean_sbu_0, # of connection points: 5
#     Node 9, Type 0, BuildingBlock: BEQFEK_clean_sbu_0, # of connection points: 5
#     Node 10, Type 0, BuildingBlock: BEQFEK_clean_sbu_0, # of connection points: 5
#     Node 11, Type 0, BuildingBlock: BEQFEK_clean_sbu_0, # of connection points: 5
#     Node 12, Type 0, BuildingBlock: BEQFEK_clean_sbu_0, # of connection points: 5
#     Node 13, Type 0, BuildingBlock: BEQFEK_clean_sbu_0, # of connection points: 5
#     Node 14, Type 0, BuildingBlock: BEQFEK_clean_sbu_0, # of connection points: 5
#     Node 15, Type 0, BuildingBlock: BEQFEK_clean_sbu_0, # of connection points: 5
#     Node 16, Type 0, BuildingBlock: BEQFEK_clean_sbu_0, # of connection points: 5
#     Node 17, Type 0, BuildingBlock: BEQFEK_clean_sbu_0, # of connection points: 5
#     Node 18, Type 0, BuildingBlock: BEQFEK_clean_sbu_0, # of connection points: 5
#     Node 19, Type 0, BuildingBlock: BEQFEK_clean_sbu_0, # of connection points: 5
#     Node 20, Type 0, BuildingBlock: BEQFEK_clean_sbu_0, # of connection points: 5
#     Node 21, Type 0, BuildingBlock: BEQFEK_clean_sbu_0, # of connection points: 5
#     Node 22, Type 0, BuildingBlock: BEQFEK_clean_sbu_0, # of connection points: 5
#     Node 23, Type 0, BuildingBlock: BEQFEK_clean_sbu_0, # of connection points: 5
#     Node 24, Type 0, BuildingBlock: BEQFEK_clean_sbu_0, # of connection points: 5
#     Node 25, Type 0, BuildingBlock: BEQFEK_clean_sbu_0, # of connection points: 5
#     Node 26, Type 0, BuildingBlock: BEQFEK_clean_sbu_0, # of connection points: 5
#     Node 27, Type 0, BuildingBlock: BEQFEK_clean_sbu_0, # of connection points: 5
#     Node 28, Type 0, BuildingBlock: BEQFEK_clean_sbu_0, # of connection points: 5
#     Node 29, Type 0, BuildingBlock: BEQFEK_clean_sbu_0, # of connection points: 5
#     Node 30, Type 0, BuildingBlock: BEQFEK_clean_sbu_0, # of connection points: 5
#     Node 31, Type 0, BuildingBlock: BEQFEK_clean_sbu_0, # of connection points: 5
#     Node 32, Type 0, BuildingBlock: BEQFEK_clean_sbu_0, # of connection points: 5
#     Node 33, Type 0, BuildingBlock: BEQFEK_clean_sbu_0, # of connection points: 5
#     Node 34, Type 0, BuildingBlock: BEQFEK_clean_sbu_0, # of connection points: 5
#     Node 35, Type 0, BuildingBlock: BEQFEK_clean_sbu_0, # of connection points: 5
#     Edge 36, Type (0, 0), BuildingBlock: XIVTED_clean_linker_0, # of connection points: 2
#     Edge 37, Type (0, 0), BuildingBlock: XIVTED_clean_linker_0, # of connection points: 2
#     Edge 38, Type (0, 0), BuildingBlock: XIVTED_clean_linker_0, # of connection points: 2
#     Edge 39, Type (0, 0), BuildingBlock: XIVTED_clean_linker_0, # of connection points: 2
#     Edge 40, Type (0, 0), BuildingBlock: XIVTED_clean_linker_0, # of connection points: 2
#     Edge 41, Type (0, 0), BuildingBlock: XIVTED_clean_linker_0, # of connection points: 2
#     Edge 42, Type (0, 0), BuildingBlock: XIVTED_clean_linker_0, # of connection points: 2
#     Edge 43, Type (0, 0), BuildingBlock: XIVTED_clean_linker_0, # of connection points: 2
#     Edge 44, Type (0, 0), BuildingBlock: XIVTED_clean_linker_0, # of connection points: 2
#     Edge 45, Type (0, 0), BuildingBlock: XIVTED_clean_linker_0, # of connection points: 2
#     Edge 46, Type (0, 0), BuildingBlock: XIVTED_clean_linker_0, # of connection points: 2
#     Edge 47, Type (0, 0), BuildingBlock: XIVTED_clean_linker_0, # of connection points: 2
#     Edge 48, Type (0, 0), BuildingBlock: XIVTED_clean_linker_0, # of connection points: 2
#     Edge 49, Type (0, 0), BuildingBlock: XIVTED_clean_linker_0, # of connection points: 2
#     Edge 50, Type (0, 0), BuildingBlock: XIVTED_clean_linker_0, # of connection points: 2
#     Edge 51, Type (0, 0), BuildingBlock: XIVTED_clean_linker_0, # of connection points: 2
#     Edge 52, Type (0, 0), BuildingBlock: XIVTED_clean_linker_0, # of connection points: 2
#     Edge 53, Type (0, 0), BuildingBlock: XIVTED_clean_linker_0, # of connection points: 2
#     Edge 54, Type (0, 0), BuildingBlock: XIVTED_clean_linker_0, # of connection points: 2
#     Edge 55, Type (0, 0), BuildingBlock: XIVTED_clean_linker_0, # of connection points: 2
#     Edge 56, Type (0, 0), BuildingBlock: XIVTED_clean_linker_0, # of connection points: 2
#     Edge 57, Type (0, 0), BuildingBlock: XIVTED_clean_linker_0, # of connection points: 2
#     Edge 58, Type (0, 0), BuildingBlock: XIVTED_clean_linker_0, # of connection points: 2
#     Edge 59, Type (0, 0), BuildingBlock: XIVTED_clean_linker_0, # of connection points: 2
#     Edge 60, Type (0, 0), BuildingBlock: XIVTED_clean_linker_0, # of connection points: 2
#     Edge 61, Type (0, 0), BuildingBlock: XIVTED_clean_linker_0, # of connection points: 2
#     Edge 62, Type (0, 0), BuildingBlock: XIVTED_clean_linker_0, # of connection points: 2
#     Edge 63, Type (0, 0), BuildingBlock: XIVTED_clean_linker_0, # of connection points: 2
#     Edge 64, Type (0, 0), BuildingBlock: XIVTED_clean_linker_0, # of connection points: 2
#     Edge 65, Type (0, 0), BuildingBlock: XIVTED_clean_linker_0, # of connection points: 2
#     Edge 66, Type (0, 0), BuildingBlock: XIVTED_clean_linker_0, # of connection points: 2
#     Edge 67, Type (0, 0), BuildingBlock: XIVTED_clean_linker_0, # of connection points: 2
#     Edge 68, Type (0, 0), BuildingBlock: XIVTED_clean_linker_0, # of connection points: 2
#     Edge 69, Type (0, 0), BuildingBlock: XIVTED_clean_linker_0, # of connection points: 2
#     Edge 70, Type (0, 0), BuildingBlock: XIVTED_clean_linker_0, # of connection points: 2
#     Edge 71, Type (0, 0), BuildingBlock: XIVTED_clean_linker_0, # of connection points: 2
#     Edge 72, Type (0, 0), BuildingBlock: XIVTED_clean_linker_0, # of connection points: 2
#     Edge 73, Type (0, 0), BuildingBlock: XIVTED_clean_linker_0, # of connection points: 2
#     Edge 74, Type (0, 0), BuildingBlock: XIVTED_clean_linker_0, # of connection points: 2
#     Edge 75, Type (0, 0), BuildingBlock: XIVTED_clean_linker_0, # of connection points: 2
#     Edge 76, Type (0, 0), BuildingBlock: XIVTED_clean_linker_0, # of connection points: 2
#     Edge 77, Type (0, 0), BuildingBlock: XIVTED_clean_linker_0, # of connection points: 2
#     Edge 78, Type (0, 0), BuildingBlock: XIVTED_clean_linker_0, # of connection points: 2
#     Edge 79, Type (0, 0), BuildingBlock: XIVTED_clean_linker_0, # of connection points: 2
#     Edge 80, Type (0, 0), BuildingBlock: XIVTED_clean_linker_0, # of connection points: 2
#     Edge 81, Type (0, 0), BuildingBlock: XIVTED_clean_linker_0, # of connection points: 2
#     Edge 82, Type (0, 0), BuildingBlock: XIVTED_clean_linker_0, # of connection points: 2
#     Edge 83, Type (0, 0), BuildingBlock: XIVTED_clean_linker_0, # of connection points: 2
#     Edge 84, Type (0, 0), BuildingBlock: XIVTED_clean_linker_0, # of connection points: 2
#     Edge 85, Type (0, 0), BuildingBlock: XIVTED_clean_linker_0, # of connection points: 2
#     Edge 86, Type (0, 0), BuildingBlock: XIVTED_clean_linker_0, # of connection points: 2
#     Edge 87, Type (0, 0), BuildingBlock: XIVTED_clean_linker_0, # of connection points: 2
#     Edge 88, Type (0, 0), BuildingBlock: XIVTED_clean_linker_0, # of connection points: 2
#     Edge 89, Type (0, 0), BuildingBlock: XIVTED_clean_linker_0, # of connection points: 2
#     Edge 90, Type (0, 0), BuildingBlock: XIVTED_clean_linker_0, # of connection points: 2
#     Edge 91, Type (0, 0), BuildingBlock: XIVTED_clean_linker_0, # of connection points: 2
#     Edge 92, Type (0, 0), BuildingBlock: XIVTED_clean_linker_0, # of connection points: 2
#     Edge 93, Type (0, 0), BuildingBlock: XIVTED_clean_linker_0, # of connection points: 2
#     Edge 94, Type (0, 0), BuildingBlock: XIVTED_clean_linker_0, # of connection points: 2
#     Edge 95, Type (0, 0), BuildingBlock: XIVTED_clean_linker_0, # of connection points: 2
#     Edge 96, Type (0, 0), BuildingBlock: XIVTED_clean_linker_0, # of connection points: 2
#     Edge 97, Type (0, 0), BuildingBlock: XIVTED_clean_linker_0, # of connection points: 2
#     Edge 98, Type (0, 0), BuildingBlock: XIVTED_clean_linker_0, # of connection points: 2
#     Edge 99, Type (0, 0), BuildingBlock: XIVTED_clean_linker_0, # of connection points: 2
#     Edge 100, Type (0, 0), BuildingBlock: XIVTED_clean_linker_0, # of connection points: 2
#     Edge 101, Type (0, 0), BuildingBlock: XIVTED_clean_linker_0, # of connection points: 2
#     Edge 102, Type (0, 0), BuildingBlock: XIVTED_clean_linker_0, # of connection points: 2
#     Edge 103, Type (0, 0), BuildingBlock: XIVTED_clean_linker_0, # of connection points: 2
#     Edge 104, Type (0, 0), BuildingBlock: XIVTED_clean_linker_0, # of connection points: 2
#     Edge 105, Type (0, 0), BuildingBlock: XIVTED_clean_linker_0, # of connection points: 2
#     Edge 106, Type (0, 0), BuildingBlock: XIVTED_clean_linker_0, # of connection points: 2
#     Edge 107, Type (0, 0), BuildingBlock: XIVTED_clean_linker_0, # of connection points: 2
#     Edge 108, Type (0, 0), BuildingBlock: XIVTED_clean_linker_0, # of connection points: 2
#     Edge 109, Type (0, 0), BuildingBlock: XIVTED_clean_linker_0, # of connection points: 2
#     Edge 110, Type (0, 0), BuildingBlock: XIVTED_clean_linker_0, # of connection points: 2
#     Edge 111, Type (0, 0), BuildingBlock: XIVTED_clean_linker_0, # of connection points: 2
#     Edge 112, Type (0, 0), BuildingBlock: XIVTED_clean_linker_0, # of connection points: 2
#     Edge 113, Type (0, 0), BuildingBlock: XIVTED_clean_linker_0, # of connection points: 2
#     Edge 114, Type (0, 0), BuildingBlock: XIVTED_clean_linker_0, # of connection points: 2
#     Edge 115, Type (0, 0), BuildingBlock: XIVTED_clean_linker_0, # of connection points: 2
#     Edge 116, Type (0, 0), BuildingBlock: XIVTED_clean_linker_0, # of connection points: 2
#     Edge 117, Type (0, 0), BuildingBlock: XIVTED_clean_linker_0, # of connection points: 2
#     Edge 118, Type (0, 0), BuildingBlock: XIVTED_clean_linker_0, # of connection points: 2
#     Edge 119, Type (0, 0), BuildingBlock: XIVTED_clean_linker_0, # of connection points: 2
#     Edge 120, Type (0, 0), BuildingBlock: XIVTED_clean_linker_0, # of connection points: 2
#     Edge 121, Type (0, 0), BuildingBlock: XIVTED_clean_linker_0, # of connection points: 2
#     Edge 122, Type (0, 0), BuildingBlock: XIVTED_clean_linker_0, # of connection points: 2
#     Edge 123, Type (0, 0), BuildingBlock: XIVTED_clean_linker_0, # of connection points: 2
#     Edge 124, Type (0, 0), BuildingBlock: XIVTED_clean_linker_0, # of connection points: 2
#     Edge 125, Type (0, 0), BuildingBlock: XIVTED_clean_linker_0, # of connection points: 2
# Relax obj value: 0.281
# Max RMSD: 0.180
# Mean RMSD: 0.180
data_MOF--net-wlg--node1-BEQFEK_clean_sbu_0--edge1-XIVTED_clean_linker_0
_symmetry_space_group_name_H-M    P1
_symmetry_Int_Tables_number       1
_symmetry_cell_setting            triclinic
loop_
_symmetry_equiv_pos_as_xyz
'x, y, z'
_cell_length_a     56.145782
_cell_length_b     56.130212
_cell_length_c     70.466684
_cell_angle_alpha  90.020183
_cell_angle_beta   89.919133
_cell_angle_gamma 120.0177
loop_
_atom_site_label
_atom_site_type_symbol
_atom_site_fract_x
_atom_site_fract_y
_atom_site_fract_z
_atom_type_partial_charge
Co0 Co 0.96358 0.17029 0.14145 0.0
Co1 Co 0.01617 0.16485 0.13799 0.0
C2 C 0.95987 0.11955 0.12589 0.0
O3 O 0.94876 0.13388 0.1298 0.0
O4 O 0.98546 0.12888 0.12863 0.0
C5 C 0.91064 0.16465 0.13571 0.0
O6 O 0.90796 0.14656 0.12283 0.0
C7 C 0.05417 0.15004 0.12059 0.0
C8 C 0.08996 0.16988 0.13975 0.0
C9 C 0.07945 0.15224 0.12435 0.0
N10 N 0.04976 0.16518 0.13337 0.0
N11 N 0.07142 0.17734 0.14462 0.0
C12 C 0.03452 0.13409 0.10502 0.0
H13 H 0.02342 0.14477 0.10031 0.0
H14 H 0.04552 0.13147 0.09281 0.0
H15 H 0.01915 0.11349 0.11041 0.0
C16 C -0.00173 0.22068 0.11917 0.0
N17 N -0.00618 0.19732 0.1276 0.0
N18 N 0.0161 0.19528 0.12616 0.0
C19 C 0.03564 0.21751 0.11689 0.0
C20 C 0.025 0.23443 0.11216 0.0
C21 C 0.97706 0.22931 0.11777 0.0
H22 H 0.95682 0.21124 0.11423 0.0
H23 H 0.98258 0.24543 0.10682 0.0
H24 H 0.97512 0.23732 0.13174 0.0
O25 O 0.97411 0.16821 0.1678 0.0
O26 O 0.01267 0.16652 0.16595 0.0
H27 H 0.07302 0.2224 0.12834 0.0
H28 H 0.07812 0.2441 0.10817 0.0
C29 C 0.06459 0.22348 0.11436 0.0
H30 H 0.06464 0.20752 0.10508 0.0
H31 H 0.07298 0.1897 0.15615 0.0
O32 O 0.93354 0.17862 0.14413 0.0
C33 C -0.00614 0.16709 0.17571 0.0
Co34 Co 0.81197 0.7817 0.14046 0.0
Co35 Co 0.82149 0.84145 0.1381 0.0
C36 C 0.86497 0.82825 0.12618 0.0
O37 O 0.84964 0.80298 0.13027 0.0
O38 O 0.85663 0.84541 0.12841 0.0
C39 C 0.81581 0.73372 0.13337 0.0
O40 O 0.8345 0.74936 0.12087 0.0
C41 C 0.83849 0.89588 0.12249 0.0
C42 C 0.81827 0.91115 0.14194 0.0
C43 C 0.83656 0.91897 0.12686 0.0
N44 N 0.82262 0.87566 0.13466 0.0
N45 N 0.81023 0.88476 0.14607 0.0
C46 C 0.85443 0.89263 0.10668 0.0
H47 H 0.84372 0.87102 0.10159 0.0
H48 H 0.85715 0.90668 0.09475 0.0
H49 H 0.87498 0.89766 0.11199 0.0
C50 C 0.76375 0.76982 0.1172 0.0
N51 N 0.78705 0.78747 0.12626 0.0
N52 N 0.79049 0.81243 0.12545 0.0
C53 C 0.76928 0.81141 0.11581 0.0
C54 C 0.75166 0.78438 0.11025 0.0
C55 C 0.75235 0.73935 0.11683 0.0
H56 H 0.75149 0.73181 0.13151 0.0
H57 H 0.76641 0.73476 0.10854 0.0
H58 H 0.73147 0.72823 0.11054 0.0
O59 O 0.81163 0.79195 0.16705 0.0
O60 O 0.81978 0.83489 0.16604 0.0
H61 H 0.76241 0.84346 0.12566 0.0
H62 H 0.74868 0.83078 0.10224 0.0
C63 C 0.76603 0.83585 0.11204 0.0
H64 H 0.78528 0.85258 0.10575 0.0
H65 H 0.79716 0.87333 0.15715 0.0
O66 O 0.80197 0.74281 0.14179 0.0
C67 C 0.81538 0.81363 0.17536 0.0
Co68 Co 0.19722 0.02308 0.14684 0.0
Co69 Co 0.13959 0.97025 0.14253 0.0
C70 C 0.15114 0.02565 0.12821 0.0
O71 O 0.17614 0.037 0.13334 0.0
O72 O 0.13468 0.00011 0.13107 0.0
C73 C 0.24522 0.07457 0.13876 0.0
O74 O 0.23092 0.07491 0.12413 0.0
C75 C 0.0877 0.93053 0.12491 0.0
C76 C 0.07189 0.89569 0.14496 0.0
C77 C 0.06482 0.90514 0.12895 0.0
N78 N 0.10696 0.93603 0.13815 0.0
N79 N 0.0976 0.9149 0.14991 0.0
C80 C 0.09172 0.94915 0.10854 0.0
H81 H 0.11368 0.9603 0.10421 0.0
H82 H 0.07873 0.93729 0.09632 0.0
H83 H 0.08598 0.96456 0.11293 0.0
C84 C 0.21452 0.9881 0.12661 0.0
N85 N 0.19508 0.99241 0.13434 0.0
N86 N 0.1709 0.97004 0.13248 0.0
C87 C 0.17421 0.95065 0.12357 0.0
C88 C 0.20196 0.96148 0.11956 0.0
C89 C 0.24459 0.00883 0.12681 0.0
H90 H 0.25089 0.0169 0.14143 0.0
H91 H 0.24845 0.02639 0.11754 0.0
H92 H 0.25722 -0.00011 0.12187 0.0
O93 O 0.18326 0.01387 0.17301 0.0
O94 O 0.14298 0.97545 0.1705 0.0
H95 H 0.14182 0.91087 0.13175 0.0
H96 H 0.15816 0.91118 0.10953 0.0
C97 C 0.1511 0.92266 0.11854 0.0
H98 H 0.13496 0.92468 0.11086 0.0
H99 H 0.10824 0.91417 0.16181 0.0
O100 O 0.23527 0.05352 0.14941 0.0
C101 C 0.16165 0.99448 0.18053 0.0
Co102 Co 0.16716 0.96712 0.35572 0.0
Co103 Co 0.16116 0.01931 0.36031 0.0
C104 C 0.11771 0.96318 0.37399 0.0
O105 O 0.13189 0.95232 0.36902 0.0
O106 O 0.12639 0.98866 0.37123 0.0
C107 C 0.16251 0.91451 0.36096 0.0
O108 O 0.14493 0.91157 0.37434 0.0
C109 C 0.14687 0.05763 0.37786 0.0
C110 C 0.16661 0.09325 0.35849 0.0
C111 C 0.14903 0.08289 0.37396 0.0
N112 N 0.16185 0.05305 0.36504 0.0
N113 N 0.17405 0.07465 0.35371 0.0
C114 C 0.13134 0.03829 0.3937 0.0
H115 H 0.14223 0.0274 0.39842 0.0
H116 H 0.12893 0.04951 0.40585 0.0
H117 H 0.11068 0.02274 0.38858 0.0
C118 C 0.219 0.00253 0.37605 0.0
N119 N 0.19506 -0.00218 0.36851 0.0
N120 N 0.19274 0.01988 0.37053 0.0
C121 C 0.21532 0.03949 0.3794 0.0
C122 C 0.23269 0.02912 0.38318 0.0
C123 C 0.22907 0.98239 0.37525 0.0
H124 H 0.22793 0.97527 0.36041 0.0
H125 H 0.21537 0.96414 0.38399 0.0
H126 H 0.25053 0.99146 0.38039 0.0
O127 O 0.16255 0.97677 0.32971 0.0
O128 O 0.16022 0.01493 0.33226 0.0
H129 H 0.22287 0.07928 0.37115 0.0
H130 H 0.23806 0.07882 0.39368 0.0
C131 C 0.21987 0.06737 0.38438 0.0
H132 H 0.2014 0.06522 0.39171 0.0
H133 H 0.18632 0.07609 0.34215 0.0
O134 O 0.17579 0.93742 0.35243 0.0
C135 C 0.16027 -0.00388 0.3222 0.0
Co136 Co 0.01969 0.20239 0.35217 0.0
Co137 Co 0.96788 0.14348 0.35522 0.0
C138 C 0.02374 0.1563 0.3695 0.0
O139 O 0.03448 0.18153 0.36501 0.0
O140 O -0.0016 0.13936 0.36632 0.0
C141 C 0.07227 0.25043 0.35788 0.0
O142 O 0.07563 0.23501 0.37037 0.0
C143 C 0.92899 0.08918 0.37072 0.0
C144 C 0.89462 0.07456 0.3504 0.0
C145 C 0.90411 0.06628 0.36576 0.0
N146 N 0.93416 0.10972 0.35862 0.0
N147 N 0.91332 0.10097 0.34668 0.0
C148 C 0.94756 0.09175 0.38674 0.0
H149 H 0.96332 0.08701 0.38149 0.0
H150 H 0.95821 0.11313 0.39227 0.0
H151 H 0.93577 0.07718 0.39834 0.0
C152 C 0.98299 0.21676 0.37324 0.0
N153 N 0.98827 0.19831 0.36494 0.0
N154 N 0.96637 0.17365 0.36623 0.0
C155 C 0.94627 0.17566 0.37526 0.0
C156 C 0.95613 0.20311 0.38 0.0
C157 C 0.00379 0.24667 0.37516 0.0
H158 H 0.02408 0.24912 0.37888 0.0
H159 H -0.00227 0.25671 0.38621 0.0
H160 H 0.00593 0.25703 0.36134 0.0
O161 O 0.01105 0.1896 0.32568 0.0
O162 O 0.9734 0.14861 0.32738 0.0
H163 H 0.90938 0.14225 0.36398 0.0
H164 H 0.90367 0.15845 0.38412 0.0
C165 C 0.9177 0.15199 0.37792 0.0
H166 H 0.91835 0.13636 0.38721 0.0
H167 H 0.91249 0.1126 0.33542 0.0
O168 O 0.04913 0.24119 0.34974 0.0
C169 C -0.00785 0.16814 0.31771 0.0
Co170 Co 0.78595 0.81254 0.3511 0.0
Co171 Co 0.84492 0.82091 0.35515 0.0
C172 C 0.83262 0.86574 0.36488 0.0
O173 O 0.80744 0.85061 0.36053 0.0
O174 O 0.84942 0.85683 0.36355 0.0
C175 C 0.7383 0.81641 0.35874 0.0
O176 O 0.75364 0.83342 0.37216 0.0
C177 C 0.89709 0.83675 0.37351 0.0
C178 C 0.9146 0.81739 0.35524 0.0
C179 C 0.92052 0.83485 0.37065 0.0
N180 N 0.87849 0.82163 0.36023 0.0
N181 N 0.88888 0.80973 0.34951 0.0
C182 C 0.89188 0.85189 0.38895 0.0
H183 H 0.86974 0.84085 0.39281 0.0
H184 H 0.90448 0.85409 0.40166 0.0
H185 H 0.89737 0.87267 0.3838 0.0
C186 C 0.77224 0.76516 0.37595 0.0
N187 N 0.79047 0.78784 0.3665 0.0
N188 N 0.81515 0.79075 0.36795 0.0
C189 C 0.81336 0.76976 0.37835 0.0
C190 C 0.78612 0.7529 0.38379 0.0
C191 C 0.7419 0.75447 0.37603 0.0
H192 H 0.73461 0.75306 0.36123 0.0
H193 H 0.73769 0.76925 0.3837 0.0
H194 H 0.73032 0.73395 0.38284 0.0
O195 O 0.7969 0.81072 0.32489 0.0
O196 O 0.8395 0.81808 0.32707 0.0
H197 H 0.84592 0.76293 0.36962 0.0
H198 H 0.83131 0.7482 0.39253 0.0
C199 C 0.83728 0.76601 0.38296 0.0
H200 H 0.85357 0.78488 0.3899 0.0
H201 H 0.87883 0.79726 0.33786 0.0
O202 O 0.74746 0.80353 0.34921 0.0
C203 C 0.81869 0.81366 0.3172 0.0
Co204 Co 0.02282 0.81885 0.85548 0.0
Co205 Co 0.97055 0.82496 0.86071 0.0
C206 C 0.02677 0.8687 0.87372 0.0
O207 O 0.03766 0.85478 0.86815 0.0
O208 O 0.00106 0.85959 0.87182 0.0
C209 C 0.0764 0.82534 0.85937 0.0
O210 O 0.07998 0.84427 0.8718 0.0
C211 C 0.93222 0.84495 0.86913 0.0
C212 C 0.89182 0.80844 0.86315 0.0
C213 C 0.90413 0.83558 0.86907 0.0
N214 N 0.93616 0.82397 0.86433 0.0
N215 N 0.91193 0.80237 0.86041 0.0
C216 C 0.95503 0.87422 0.87035 0.0
H217 H 0.97191 0.8777 0.86054 0.0
H218 H 0.963 0.87854 0.88508 0.0
H219 H 0.94798 0.8888 0.8664 0.0
C220 C 0.98861 0.76788 0.87711 0.0
N221 N -0.00765 0.79112 0.86887 0.0
N222 N 0.97069 0.79384 0.87204 0.0
C223 C 0.95283 0.77267 0.88307 0.0
C224 C 0.96341 0.7553 0.88635 0.0
C225 C 0.00948 0.75874 0.87673 0.0
H226 H 0.02957 0.77582 0.88166 0.0
H227 H 0.00336 0.74047 0.88586 0.0
H228 H 0.01221 0.75387 0.8619 0.0
O229 O 0.01293 0.82259 0.82949 0.0
O230 O 0.97524 0.82553 0.83257 0.0
H231 H 0.90965 0.75654 0.87977 0.0
H232 H 0.91993 0.75759 0.90382 0.0
C233 C 0.92601 0.76888 0.8902 0.0
H234 H 0.92741 0.78909 0.89228 0.0
H235 H 0.90918 0.7838 0.85515 0.0
O236 O 0.05279 0.81049 0.85206 0.0
C237 C -0.00642 0.82501 0.82224 0.0
Co238 Co 0.16771 0.20421 0.86057 0.0
Co239 Co 0.16051 0.14534 0.86209 0.0
C240 C 0.11486 0.15579 0.8732 0.0
O241 O 0.12972 0.18136 0.86982 0.0
O242 O 0.12419 0.13945 0.87091 0.0
C243 C 0.16146 0.25085 0.86793 0.0
O244 O 0.14205 0.23425 0.87969 0.0
C245 C 0.14522 0.09123 0.87745 0.0
C246 C 0.16714 0.07748 0.85832 0.0
C247 C 0.14856 0.0689 0.87326 0.0
N248 N 0.16064 0.11173 0.86534 0.0
N249 N 0.174 0.10354 0.8541 0.0
C250 C 0.1285 0.09365 0.89308 0.0
H251 H 0.13846 0.11523 0.89821 0.0
H252 H 0.1261 0.07976 0.90505 0.0
H253 H 0.10785 0.08798 0.88757 0.0
C254 C 0.21596 0.21724 0.8841 0.0
N255 N 0.19283 0.19913 0.87507 0.0
N256 N 0.19041 0.17458 0.87551 0.0
C257 C 0.21217 0.17634 0.88486 0.0
C258 C 0.22907 0.20343 0.89062 0.0
C259 C 0.22653 0.24757 0.88446 0.0
H260 H 0.22788 0.2551 0.86972 0.0
H261 H 0.2117 0.25157 0.89227 0.0
H262 H 0.24706 0.25915 0.89121 0.0
O263 O 0.16978 0.19529 0.83389 0.0
O264 O 0.16346 0.15298 0.83427 0.0
H265 H 0.22109 0.1462 0.87387 0.0
H266 H 0.2346 0.1582 0.89743 0.0
C267 C 0.21698 0.15269 0.88779 0.0
H268 H 0.19823 0.13505 0.89388 0.0
H269 H 0.18705 0.11539 0.84312 0.0
O270 O 0.17635 0.24274 0.85982 0.0
C271 C 0.16742 0.17433 0.82527 0.0
Co272 Co 0.77874 0.96441 0.84666 0.0
Co273 Co 0.83798 0.01515 0.85058 0.0
C274 C 0.82465 0.95807 0.86191 0.0
O275 O 0.79959 0.94832 0.85741 0.0
O276 O 0.84194 0.98364 0.8601 0.0
C277 C 0.73091 0.91356 0.8552 0.0
O278 O 0.74604 0.91318 0.86928 0.0
C279 C 0.89109 0.0525 0.86798 0.0
C280 C 0.90805 0.088 0.84845 0.0
C281 C 0.91455 0.07752 0.86417 0.0
N282 N 0.87192 0.04821 0.85493 0.0
N283 N 0.88206 0.06968 0.84343 0.0
C284 C 0.88656 0.03306 0.88389 0.0
H285 H 0.89212 0.01769 0.87905 0.0
H286 H 0.86454 0.02196 0.88809 0.0
H287 H 0.89953 0.04423 0.8963 0.0
C288 C 0.76511 -0.00013 0.86981 0.0
N289 N 0.78334 -0.00521 0.86098 0.0
N290 N 0.80812 0.01641 0.86252 0.0
C291 C 0.8064 0.0362 0.87223 0.0
C292 C 0.779 0.02639 0.87717 0.0
C293 C 0.7351 0.97926 0.8715 0.0
H294 H 0.73244 0.95889 0.87524 0.0
H295 H 0.72493 0.98526 0.88249 0.0
H296 H 0.72503 0.97729 0.85759 0.0
O297 O 0.79094 0.97494 0.8203 0.0
O298 O 0.83268 0.01151 0.82255 0.0
H299 H 0.84048 0.07308 0.8614 0.0
H300 H 0.82379 0.07869 0.88131 0.0
C301 C 0.83021 0.0646 0.87519 0.0
H302 H 0.84538 0.06355 0.88472 0.0
H303 H 0.87162 0.07132 0.83173 0.0
O304 O 0.74017 0.93479 0.84475 0.0
C305 C 0.81268 0.99386 0.8126 0.0
Co306 Co 0.81839 0.0277 0.63586 0.0
Co307 Co 0.82266 0.97436 0.63327 0.0
C308 C 0.86881 0.03009 0.6208 0.0
O309 O 0.85474 0.04165 0.62419 0.0
O310 O 0.85904 0.00451 0.62395 0.0
C311 C 0.82679 0.08205 0.632 0.0
O312 O 0.84734 0.08599 0.62099 0.0
C313 C 0.83715 0.93542 0.6171 0.0
C314 C 0.81502 0.89945 0.63593 0.0
C315 C 0.83385 0.90974 0.62115 0.0
N316 N 0.82154 0.94028 0.62918 0.0
N317 N 0.80799 0.91851 0.64021 0.0
C318 C 0.85432 0.95492 0.60176 0.0
H319 H 0.8747 0.96999 0.60763 0.0
H320 H 0.84435 0.9664 0.59643 0.0
H321 H 0.85735 0.94373 0.58986 0.0
C322 C 0.76731 0.99294 0.61443 0.0
N323 N 0.79091 -0.00265 0.62243 0.0
N324 N 0.7925 0.97479 0.62128 0.0
C325 C 0.76976 0.95514 0.61257 0.0
C326 C 0.75303 0.96598 0.60796 0.0
C327 C 0.75775 0.0135 0.61472 0.0
H328 H 0.75737 0.0198 0.62959 0.0
H329 H 0.77267 0.03215 0.60679 0.0
H330 H 0.73698 0.00516 0.60845 0.0
O331 O 0.82027 0.01763 0.66236 0.0
O332 O 0.82085 0.97846 0.66117 0.0
H333 H 0.76002 0.91549 0.62281 0.0
H334 H 0.74598 0.91495 0.59962 0.0
C335 C 0.76401 0.92646 0.60905 0.0
H336 H 0.78228 0.92712 0.60246 0.0
H337 H 0.79493 0.91718 0.65121 0.0
O338 O 0.81049 0.05806 0.63827 0.0
C339 C 0.82078 -0.00224 0.67061 0.0
Co340 Co 0.9607 0.78898 0.64685 0.0
Co341 Co 0.01353 0.84713 0.64236 0.0
C342 C 0.95807 0.83492 0.62768 0.0
O343 O 0.94677 0.81012 0.63334 0.0
O344 O 0.98368 0.85147 0.6302 0.0
C345 C 0.90766 0.74141 0.64118 0.0
O346 O 0.90486 0.75654 0.62814 0.0
C347 C 0.05298 0.90522 0.63361 0.0
C348 C 0.09252 0.90894 0.64219 0.0
C349 C 0.08106 0.9238 0.63478 0.0
N350 N 0.04831 0.88035 0.63929 0.0
N351 N 0.072 0.88289 0.64471 0.0
C352 C 0.03053 0.91178 0.63043 0.0
H353 H 0.01321 0.89957 0.64026 0.0
H354 H 0.02308 0.90645 0.61561 0.0
H355 H 0.0376 0.93381 0.63299 0.0
C356 C -0.00454 0.77176 0.62656 0.0
N357 N 0.99162 0.79145 0.63435 0.0
N358 N 0.01369 0.81569 0.63164 0.0
C359 C 0.03211 0.8121 0.62149 0.0
C360 C 0.02129 0.78409 0.61821 0.0
C361 C 0.97411 0.74187 0.62645 0.0
H362 H 0.95453 0.73939 0.62086 0.0
H363 H 0.98038 0.72959 0.6176 0.0
H364 H 0.97031 0.73396 0.64122 0.0
O365 O 0.96946 0.80249 0.67298 0.0
O366 O 0.00753 0.84295 0.67037 0.0
H367 H 0.0748 0.83891 0.62694 0.0
H368 H 0.06737 0.82948 0.6026 0.0
C369 C 0.05979 0.83489 0.61545 0.0
H370 H 0.05888 0.8538 0.61252 0.0
H371 H 0.07404 0.8671 0.65085 0.0
O372 O 0.93052 0.75068 0.64972 0.0
C373 C 0.98868 0.82415 0.68047 0.0
Co374 Co 0.20536 0.18104 0.65047 0.0
Co375 Co 0.1453 0.16957 0.64494 0.0
C376 C 0.16005 0.12626 0.63707 0.0
O377 O 0.18469 0.1424 0.64219 0.0
O378 O 0.14236 0.13412 0.63691 0.0
C379 C 0.25297 0.17759 0.6429 0.0
O380 O 0.23759 0.16126 0.62921 0.0
C381 C 0.09205 0.15126 0.6269 0.0
C382 C 0.07436 0.1708 0.64483 0.0
C383 C 0.06834 0.15268 0.62983 0.0
N384 N 0.11093 0.16735 0.63976 0.0
N385 N 0.10035 0.17924 0.6503 0.0
C386 C 0.09705 0.13534 0.61197 0.0
H387 H 0.09173 0.11491 0.61775 0.0
H388 H 0.1191 0.14624 0.60786 0.0
H389 H 0.08413 0.13231 0.59928 0.0
C390 C 0.21767 0.22743 0.62486 0.0
N391 N 0.19985 0.20442 0.63419 0.0
N392 N 0.17477 0.20031 0.6322 0.0
C393 C 0.17588 0.22088 0.62161 0.0
C394 C 0.20319 0.23886 0.61665 0.0
C395 C 0.24797 0.23799 0.6239 0.0
H396 H 0.25169 0.22065 0.62132 0.0
H397 H 0.25791 0.25342 0.61243 0.0
H398 H 0.25743 0.24746 0.63772 0.0
O399 O 0.19392 0.18354 0.67636 0.0
O400 O 0.15033 0.17278 0.67309 0.0
H401 H 0.1415 0.2237 0.63172 0.0
H402 H 0.15739 0.24423 0.61094 0.0
C403 C 0.15157 0.22444 0.61803 0.0
H404 H 0.13646 0.20716 0.60913 0.0
H405 H 0.11052 0.19235 0.66166 0.0
O406 O 0.24409 0.19056 0.65265 0.0
C407 C 0.1712 0.17897 0.68346 0.0
Co408 Co 0.63039 0.51106 0.48297 0.0
Co409 Co 0.68031 0.50117 0.47747 0.0
C410 C 0.6231 0.45878 0.46622 0.0
O411 O 0.61391 0.47414 0.47185 0.0
O412 O 0.64864 0.46664 0.4672 0.0
C413 C 0.57999 0.50883 0.47422 0.0
O414 O 0.58024 0.49433 0.45967 0.0
C415 C 0.71685 0.47889 0.46899 0.0
C416 C 0.75783 0.51436 0.47535 0.0
C417 C 0.74472 0.48725 0.46929 0.0
N418 N 0.71384 0.50042 0.4739 0.0
N419 N 0.7384 0.52139 0.47798 0.0
C420 C 0.69324 0.45007 0.46726 0.0
H421 H 0.67689 0.44669 0.47754 0.0
H422 H 0.68472 0.4469 0.45269 0.0
H423 H 0.69955 0.43463 0.47022 0.0
C424 C 0.66577 0.56029 0.46015 0.0
N425 N 0.66087 0.53684 0.46867 0.0
N426 N 0.68156 0.53256 0.46544 0.0
C427 C 0.69995 0.55295 0.45412 0.0
C428 C 0.69074 0.5714 0.45069 0.0
C429 C 0.64628 0.57116 0.46068 0.0
H430 H 0.62613 0.55538 0.45489 0.0
H431 H 0.6539 0.59032 0.45227 0.0
H432 H 0.64296 0.57503 0.47563 0.0
O433 O 0.64076 0.50886 0.50905 0.0
O434 O 0.67628 0.50224 0.50564 0.0
H435 H 0.74277 0.5671 0.45744 0.0
H436 H 0.7326 0.56619 0.43335 0.0
C437 C 0.72616 0.55518 0.44707 0.0
H438 H 0.72365 0.53445 0.44523 0.0
H439 H 0.74181 0.54022 0.48322 0.0
O440 O 0.60078 0.5201 0.48509 0.0
C441 C 0.65939 0.5051 0.51614 0.0
Co442 Co 0.47984 0.12092 0.47511 0.0
Co443 Co 0.48796 0.18012 0.47018 0.0
C444 C 0.53199 0.16753 0.45929 0.0
O445 O 0.51745 0.14278 0.46486 0.0
O446 O 0.52298 0.18429 0.46018 0.0
C447 C 0.48495 0.07357 0.46808 0.0
O448 O 0.5027 0.08924 0.4551 0.0
C449 C 0.50844 0.23856 0.46141 0.0
C450 C 0.47217 0.24279 0.46759 0.0
C451 C 0.49917 0.25736 0.46133 0.0
N452 N 0.48752 0.21382 0.46664 0.0
N453 N 0.46607 0.21666 0.47066 0.0
C454 C 0.53759 0.24478 0.45976 0.0
H455 H 0.54149 0.23232 0.47014 0.0
H456 H 0.5411 0.23959 0.44522 0.0
H457 H 0.55246 0.26672 0.46269 0.0
C458 C 0.43143 0.10605 0.45146 0.0
N459 N 0.45438 0.12499 0.46022 0.0
N460 N 0.45754 0.14964 0.45753 0.0
C461 C 0.43687 0.14705 0.44629 0.0
C462 C 0.41942 0.1193 0.4424 0.0
C463 C 0.42145 0.07583 0.45179 0.0
H464 H 0.43822 0.07226 0.44697 0.0
H465 H 0.40331 0.06414 0.44249 0.0
H466 H 0.41612 0.06816 0.46658 0.0
O467 O 0.47865 0.13191 0.50122 0.0
O468 O 0.48655 0.17461 0.49835 0.0
H469 H 0.42096 0.17412 0.45062 0.0
H470 H 0.42195 0.16579 0.42628 0.0
C471 C 0.43322 0.17044 0.43989 0.0
H472 H 0.45349 0.18928 0.43804 0.0
H473 H 0.44751 0.20097 0.47606 0.0
O474 O 0.47138 0.08243 0.47715 0.0
C475 C 0.48218 0.15409 0.50856 0.0
Co476 Co 0.86729 0.35203 0.48272 0.0
Co477 Co 0.80759 0.30319 0.47676 0.0
C478 C 0.82107 0.36095 0.47025 0.0
O479 O 0.84579 0.36955 0.47525 0.0
O480 O 0.80361 0.33533 0.46963 0.0
C481 C 0.91441 0.40331 0.47457 0.0
O482 O 0.8988 0.40376 0.46086 0.0
C483 C 0.75398 0.26722 0.45957 0.0
C484 C 0.73913 0.229 0.47617 0.0
C485 C 0.73135 0.24115 0.46221 0.0
N486 N 0.77387 0.27042 0.47164 0.0
N487 N 0.76503 0.24737 0.48134 0.0
C488 C 0.75732 0.28852 0.44541 0.0
H489 H 0.77911 0.30061 0.44078 0.0
H490 H 0.74394 0.27885 0.43288 0.0
H491 H 0.7516 0.30281 0.45216 0.0
C492 C 0.88013 0.31955 0.45597 0.0
N493 N 0.86218 0.32401 0.46579 0.0
N494 N 0.83713 0.30316 0.46334 0.0
C495 C 0.83836 0.28468 0.45175 0.0
C496 C 0.86565 0.29445 0.44671 0.0
C497 C 0.91068 0.33794 0.45695 0.0
H498 H 0.91696 0.3441 0.47189 0.0
H499 H 0.91658 0.3569 0.44866 0.0
H500 H 0.92178 0.32776 0.45127 0.0
O501 O 0.85655 0.33718 0.50841 0.0
O502 O 0.81306 0.30424 0.50484 0.0
H503 H 0.80545 0.24422 0.45791 0.0
H504 H 0.81914 0.24815 0.43414 0.0
C505 C 0.81384 0.25831 0.44557 0.0
H506 H 0.79766 0.26246 0.44035 0.0
H507 H 0.77634 0.24453 0.49192 0.0
O508 O 0.90576 0.38176 0.48461 0.0
C509 C 0.83392 0.31858 0.51532 0.0
Co510 Co 0.83656 0.29333 0.69278 0.0
Co511 Co 0.82815 0.34434 0.69341 0.0
C512 C 0.7843 0.28854 0.70679 0.0
O513 O 0.79922 0.27795 0.70327 0.0
O514 O 0.793 0.31394 0.70371 0.0
C515 C 0.83161 0.24081 0.69942 0.0
O516 O 0.81115 0.23679 0.71056 0.0
C517 C 0.81335 0.38314 0.70928 0.0
C518 C 0.8305 0.41669 0.68816 0.0
C519 C 0.81464 0.40774 0.70451 0.0
N520 N 0.82732 0.37761 0.69621 0.0
N521 N 0.83786 0.39792 0.68374 0.0
C522 C 0.79968 0.36535 0.72618 0.0
H523 H 0.81098 0.35475 0.73062 0.0
H524 H 0.79876 0.37775 0.73814 0.0
H525 H 0.77844 0.34947 0.72236 0.0
C526 C 0.88555 0.33072 0.715 0.0
N527 N 0.86204 0.32474 0.70615 0.0
N528 N 0.85913 0.34659 0.70612 0.0
C529 C 0.88097 0.36739 0.7149 0.0
C530 C 0.8985 0.35801 0.72076 0.0
C531 C 0.89524 0.3105 0.71774 0.0
H532 H 0.8776 0.29015 0.72169 0.0
H533 H 0.9112 0.31735 0.72894 0.0
H534 H 0.90385 0.30808 0.70417 0.0
O535 O 0.83639 0.30255 0.66591 0.0
O536 O 0.82944 0.33813 0.66569 0.0
H537 H 0.88416 0.40303 0.70151 0.0
H538 H 0.90667 0.41076 0.72162 0.0
C539 C 0.88601 0.39618 0.71592 0.0
H540 H 0.87006 0.39655 0.72503 0.0
H541 H 0.84919 0.39845 0.67184 0.0
O542 O 0.84654 0.26434 0.692 0.0
C543 C 0.83311 0.32035 0.65698 0.0
Co544 Co 0.68995 0.53363 0.69261 0.0
Co545 Co 0.63765 0.4752 0.69543 0.0
C546 C 0.69366 0.48653 0.70828 0.0
O547 O 0.70467 0.51197 0.70434 0.0
O548 O 0.66814 0.47009 0.70536 0.0
C549 C 0.74255 0.58128 0.69908 0.0
O550 O 0.74544 0.56566 0.71167 0.0
C551 C 0.59882 0.42143 0.7114 0.0
C552 C 0.56412 0.40654 0.69134 0.0
C553 C 0.57378 0.39852 0.70674 0.0
N554 N 0.60389 0.4417 0.69909 0.0
N555 N 0.58286 0.43282 0.68731 0.0
C556 C 0.6176 0.42434 0.72737 0.0
H557 H 0.62851 0.4459 0.73257 0.0
H558 H 0.60593 0.41017 0.73918 0.0
H559 H 0.63319 0.41929 0.72219 0.0
C560 C 0.65426 0.54837 0.71461 0.0
N561 N 0.65915 0.52979 0.7061 0.0
N562 N 0.63703 0.50529 0.70731 0.0
C563 C 0.61718 0.50752 0.71652 0.0
C564 C 0.62744 0.53497 0.72144 0.0
C565 C 0.6752 0.57827 0.71632 0.0
H566 H 0.6954 0.58061 0.72019 0.0
H567 H 0.66919 0.5886 0.72718 0.0
H568 H 0.67752 0.58839 0.70237 0.0
O569 O 0.68042 0.52167 0.66604 0.0
O570 O 0.64226 0.48105 0.66759 0.0
H571 H 0.58004 0.47496 0.70483 0.0
H572 H 0.57461 0.49087 0.72529 0.0
C573 C 0.58836 0.48419 0.7189 0.0
H574 H 0.58854 0.46809 0.72792 0.0
H575 H 0.58192 0.44426 0.67597 0.0
O576 O 0.71973 0.57222 0.69055 0.0
C577 C 0.66103 0.50066 0.65798 0.0
Co578 Co 0.45031 0.14697 0.68589 0.0
Co579 Co 0.5095 0.15514 0.68714 0.0
C580 C 0.49763 0.19862 0.70111 0.0
O581 O 0.47229 0.18389 0.69705 0.0
O582 O 0.51442 0.19004 0.69806 0.0
C583 C 0.40322 0.15114 0.69537 0.0
O584 O 0.41929 0.16786 0.70865 0.0
C585 C 0.56222 0.16851 0.70366 0.0
C586 C 0.57882 0.15138 0.68266 0.0
C587 C 0.58532 0.16663 0.69926 0.0
N588 N 0.54322 0.15539 0.69016 0.0
N589 N 0.5531 0.14488 0.67775 0.0
C590 C 0.55777 0.18187 0.72061 0.0
H591 H 0.53574 0.17059 0.72477 0.0
H592 H 0.57066 0.18236 0.7327 0.0
H593 H 0.5634 0.20326 0.71696 0.0
C594 C 0.43768 0.09703 0.70757 0.0
N595 N 0.45548 0.12076 0.69898 0.0
N596 N 0.48025 0.12372 0.69929 0.0
C597 C 0.47897 0.10175 0.70806 0.0
C598 C 0.4519 0.08405 0.71356 0.0
C599 C 0.4077 0.08728 0.70999 0.0
H600 H 0.39716 0.07958 0.69616 0.0
H601 H 0.40497 0.10472 0.71441 0.0
H602 H 0.3981 0.07065 0.72073 0.0
O603 O 0.4603 0.14793 0.65902 0.0
O604 O 0.50288 0.15502 0.65935 0.0
H605 H 0.51195 0.09881 0.6953 0.0
H606 H 0.49654 0.07613 0.71527 0.0
C607 C 0.50276 0.09683 0.70955 0.0
H608 H 0.5187 0.11273 0.71887 0.0
H609 H 0.54265 0.13407 0.66563 0.0
O610 O 0.41168 0.13811 0.68528 0.0
C611 C 0.48175 0.15163 0.65036 0.0
Co612 Co 0.69032 0.14896 0.18739 0.0
Co613 Co 0.6399 0.15782 0.19363 0.0
C614 C 0.69697 0.20016 0.2054 0.0
O615 O 0.70656 0.18526 0.19947 0.0
O616 O 0.67137 0.19202 0.20434 0.0
C617 C 0.74194 0.15179 0.1935 0.0
O618 O 0.74455 0.16874 0.20725 0.0
C619 C 0.60333 0.17993 0.20193 0.0
C620 C 0.56212 0.14347 0.19819 0.0
C621 C 0.57538 0.17119 0.20279 0.0
N622 N 0.60629 0.15812 0.19784 0.0
N623 N 0.58157 0.13653 0.19526 0.0
C624 C 0.62673 0.20899 0.2017 0.0
H625 H 0.64306 0.21095 0.1919 0.0
H626 H 0.63539 0.21479 0.21621 0.0
H627 H 0.61996 0.22347 0.1969 0.0
C628 C 0.65526 0.09858 0.20916 0.0
N629 N 0.65984 0.12225 0.20116 0.0
N630 N 0.63896 0.1261 0.20475 0.0
C631 C 0.62078 0.10516 0.21579 0.0
C632 C 0.63032 0.08692 0.21864 0.0
C633 C 0.67405 0.08703 0.20696 0.0
H634 H 0.68072 0.08887 0.19195 0.0
H635 H 0.69266 0.09922 0.21576 0.0
H636 H 0.66395 0.06513 0.21134 0.0
O637 O 0.68011 0.15262 0.16159 0.0
O638 O 0.6439 0.15804 0.16536 0.0
H639 H 0.57768 0.09106 0.21646 0.0
H640 H 0.59264 0.0936 0.23929 0.0
C641 C 0.5962 0.10372 0.22521 0.0
H642 H 0.59912 0.12461 0.22713 0.0
H643 H 0.57797 0.11732 0.19078 0.0
O644 O 0.71954 0.13958 0.1843 0.0
C645 C 0.6613 0.15626 0.15471 0.0
Co646 Co 0.83634 0.53774 0.19283 0.0
Co647 Co 0.82774 0.47822 0.19544 0.0
C648 C 0.78371 0.49028 0.20743 0.0
O649 O 0.79863 0.51544 0.20286 0.0
O650 O 0.7925 0.47341 0.20566 0.0
C651 C 0.83047 0.58466 0.19979 0.0
O652 O 0.81143 0.56846 0.21191 0.0
C653 C 0.80821 0.41983 0.20374 0.0
C654 C 0.84489 0.41656 0.19694 0.0
C655 C 0.81816 0.40158 0.20367 0.0
N656 N 0.82852 0.44465 0.1981 0.0
N657 N 0.8502 0.44239 0.19372 0.0
C658 C 0.77901 0.41308 0.20626 0.0
H659 H 0.77417 0.425 0.19599 0.0
H660 H 0.77623 0.41867 0.22087 0.0
H661 H 0.76432 0.39096 0.20379 0.0
C662 C 0.88491 0.55089 0.21591 0.0
N663 N 0.86179 0.53268 0.20691 0.0
N664 N 0.85828 0.50775 0.20864 0.0
C665 C 0.8789 0.50938 0.21946 0.0
C666 C 0.89658 0.53673 0.22415 0.0
C667 C 0.89637 0.58136 0.21529 0.0
H668 H 0.89524 0.58775 0.20058 0.0
H669 H 0.88364 0.58673 0.22444 0.0
H670 H 0.91804 0.59283 0.22017 0.0
O671 O 0.83729 0.52818 0.16637 0.0
O672 O 0.82936 0.48534 0.1674 0.0
H673 H 0.89292 0.48054 0.21622 0.0
H674 H 0.89182 0.49015 0.24031 0.0
C675 C 0.88091 0.4853 0.22649 0.0
H676 H 0.86013 0.46709 0.22825 0.0
H677 H 0.86849 0.4584 0.18822 0.0
O678 O 0.84518 0.57631 0.19171 0.0
C679 C 0.83375 0.5066 0.15806 0.0
Co680 Co 0.45094 0.30013 0.18096 0.0
Co681 Co 0.50926 0.35207 0.18543 0.0
C682 C 0.49748 0.29555 0.19703 0.0
O683 O 0.47238 0.28502 0.19235 0.0
O684 O 0.51417 0.32125 0.19516 0.0
C685 C 0.4034 0.24844 0.18878 0.0
O686 O 0.41842 0.24773 0.20281 0.0
C687 C 0.56139 0.39049 0.20349 0.0
C688 C 0.578 0.42604 0.18402 0.0
C689 C 0.58451 0.41589 0.19992 0.0
N690 N 0.54245 0.3857 0.19015 0.0
N691 N 0.55234 0.4072 0.17869 0.0
C692 C 0.55694 0.37115 0.21946 0.0
H693 H 0.53484 0.35965 0.22343 0.0
H694 H 0.56952 0.38248 0.23197 0.0
H695 H 0.56302 0.35609 0.2148 0.0
C696 C 0.43517 0.33459 0.20347 0.0
N697 N 0.45413 0.3302 0.19502 0.0
N698 N 0.47856 0.35222 0.1969 0.0
C699 C 0.47589 0.37153 0.20653 0.0
C700 C 0.44824 0.36101 0.21099 0.0
C701 C 0.40527 0.31346 0.20461 0.0
H702 H 0.40296 0.29337 0.20877 0.0
H703 H 0.39424 0.31925 0.21505 0.0
H704 H 0.39583 0.31099 0.19039 0.0
O705 O 0.46384 0.31078 0.15471 0.0
O706 O 0.50479 0.34835 0.15734 0.0
H707 H 0.50951 0.40919 0.19623 0.0
H708 H 0.49202 0.41361 0.21618 0.0
C709 C 0.49911 0.40013 0.2099 0.0
H710 H 0.51439 0.39933 0.21945 0.0
H711 H 0.54202 0.40852 0.1668 0.0
O712 O 0.41268 0.26993 0.17859 0.0
C713 C 0.48547 0.33018 0.14721 0.0
Co714 Co 0.48507 0.36012 0.97171 0.0
Co715 Co 0.49135 0.30786 0.96701 0.0
C716 C 0.53541 0.36435 0.95429 0.0
O717 O 0.52118 0.37512 0.95939 0.0
O718 O 0.52637 0.33867 0.95639 0.0
C719 C 0.49045 0.4132 0.9667 0.0
O720 O 0.50901 0.41662 0.95398 0.0
C721 C 0.5112 0.26949 0.9578 0.0
C722 C 0.47506 0.22917 0.96462 0.0
C723 C 0.50183 0.24139 0.95789 0.0
N724 N 0.49053 0.2735 0.96336 0.0
N725 N 0.46918 0.24932 0.96777 0.0
C726 C 0.54034 0.29232 0.95578 0.0
H727 H 0.54458 0.30882 0.96614 0.0
H728 H 0.54348 0.30088 0.94121 0.0
H729 H 0.55522 0.28522 0.95849 0.0
C730 C 0.43394 0.32538 0.95062 0.0
N731 N 0.45763 0.32959 0.95834 0.0
N732 N 0.46034 0.30788 0.95537 0.0
C733 C 0.43865 0.28949 0.94497 0.0
C734 C 0.42099 0.29978 0.94196 0.0
C735 C 0.42428 0.34584 0.95141 0.0
H736 H 0.4201 0.34869 0.96639 0.0
H737 H 0.4408 0.36598 0.94607 0.0
H738 H 0.40547 0.33921 0.94279 0.0
O739 O 0.48826 0.35018 0.99779 0.0
O740 O 0.49096 0.31228 0.99518 0.0
H741 H 0.42248 0.24649 0.94943 0.0
H742 H 0.42234 0.25552 0.92516 0.0
C743 C 0.43433 0.26222 0.93849 0.0
H744 H 0.45436 0.26337 0.93603 0.0
H745 H 0.4509 0.24664 0.97356 0.0
O746 O 0.47647 0.38994 0.97472 0.0
C747 C 0.49027 0.33073 0.0053 0.0
Co748 Co 0.63112 0.11782 0.98021 0.0
Co749 Co 0.68112 0.17732 0.97444 0.0
C750 C 0.6244 0.16263 0.96235 0.0
O751 O 0.61504 0.13818 0.96831 0.0
O752 O 0.64994 0.18029 0.96342 0.0
C753 C 0.58093 0.06932 0.97133 0.0
O754 O 0.5813 0.08365 0.95648 0.0
C755 C 0.71815 0.23608 0.96679 0.0
C756 C 0.75912 0.24058 0.97133 0.0
C757 C 0.74614 0.25522 0.96653 0.0
N758 N 0.71491 0.2112 0.97081 0.0
N759 N 0.73947 0.21415 0.97381 0.0
C760 C 0.69482 0.24183 0.96638 0.0
H761 H 0.67825 0.22768 0.97614 0.0
H762 H 0.68643 0.23855 0.95177 0.0
H763 H 0.70152 0.26322 0.97083 0.0
C764 C 0.66656 0.10331 0.95798 0.0
N765 N 0.66182 0.122 0.96649 0.0
N766 N 0.6825 0.14692 0.9631 0.0
C767 C 0.70072 0.14475 0.95173 0.0
C768 C 0.69141 0.11709 0.94838 0.0
C769 C 0.64785 0.07287 0.95955 0.0
H770 H 0.63987 0.06743 0.97425 0.0
H771 H 0.63006 0.06655 0.94991 0.0
H772 H 0.65856 0.06146 0.95569 0.0
O773 O 0.64077 0.13092 0.00625 0.0
O774 O 0.67636 0.17299 0.00262 0.0
H775 H 0.74361 0.17451 0.9509 0.0
H776 H 0.72844 0.16233 0.92806 0.0
C777 C 0.72489 0.1684 0.94232 0.0
H778 H 0.72149 0.18613 0.94081 0.0
H779 H 0.74278 0.19831 0.97822 0.0
O780 O 0.60147 0.07931 0.98243 0.0
C781 C 0.65919 0.15355 0.01321 0.0
Co782 Co 0.8689 0.51177 0.98328 0.0
Co783 Co 0.80974 0.50269 0.97768 0.0
C784 C 0.82244 0.4579 0.96971 0.0
O785 O 0.84729 0.47335 0.97472 0.0
O786 O 0.80543 0.46663 0.96975 0.0
C787 C 0.91624 0.50757 0.97552 0.0
O788 O 0.90085 0.49124 0.96183 0.0
C789 C 0.75715 0.48642 0.95937 0.0
C790 C 0.74084 0.50777 0.97676 0.0
C791 C 0.73414 0.48921 0.96196 0.0
N792 N 0.77621 0.50211 0.97225 0.0
N793 N 0.76651 0.51514 0.98244 0.0
C794 C 0.76153 0.46993 0.94454 0.0
H795 H 0.75532 0.44929 0.95034 0.0
H796 H 0.78362 0.48007 0.9406 0.0
H797 H 0.74901 0.46747 0.93173 0.0
C798 C 0.88312 0.55853 0.95772 0.0
N799 N 0.86462 0.53589 0.96709 0.0
N800 N 0.83992 0.53273 0.96496 0.0
C801 C 0.84198 0.55352 0.95415 0.0
C802 C 0.86942 0.5705 0.94918 0.0
C803 C 0.9135 0.56958 0.95849 0.0
H804 H 0.91996 0.57054 0.97348 0.0
H805 H 0.91842 0.55528 0.95085 0.0
H806 H 0.92525 0.59036 0.95207 0.0
O807 O 0.85757 0.51443 0.00912 0.0
O808 O 0.81458 0.50567 0.00589 0.0
H809 H 0.80958 0.56115 0.96178 0.0
H810 H 0.82429 0.57422 0.93861 0.0
C811 C 0.81817 0.55706 0.94881 0.0
H812 H 0.80181 0.53776 0.94235 0.0
H813 H 0.77703 0.52831 0.9937 0.0
O814 O 0.90727 0.52031 0.98543 0.0
C815 C 0.83521 0.51085 0.01625 0.0
Co816 Co 0.29364 0.83987 0.80621 0.0
Co817 Co 0.34416 0.83055 0.80585 0.0
C818 C 0.28848 0.7873 0.79216 0.0
O819 O 0.27817 0.80249 0.79564 0.0
O820 O 0.31376 0.79562 0.79538 0.0
C821 C 0.24177 0.83571 0.79798 0.0
O822 O 0.23849 0.81592 0.78644 0.0
C823 C 0.38285 0.81401 0.792 0.0
C824 C 0.41708 0.83439 0.81237 0.0
C825 C 0.40769 0.81622 0.79721 0.0
N826 N 0.37754 0.82964 0.80374 0.0
N827 N 0.39828 0.84211 0.81572 0.0
C828 C 0.36477 0.79808 0.77575 0.0
H829 H 0.35398 0.8086 0.77011 0.0
H830 H 0.37698 0.79569 0.76427 0.0
H831 H 0.34913 0.77739 0.78079 0.0
C832 C 0.33158 0.88831 0.78348 0.0
N833 N 0.32547 0.86521 0.79301 0.0
N834 N 0.34693 0.86164 0.79289 0.0
C835 C 0.36749 0.88249 0.78317 0.0
C836 C 0.35843 0.90007 0.77688 0.0
C837 C 0.31249 0.89958 0.78193 0.0
H838 H 0.30384 0.89943 0.79612 0.0
H839 H 0.2951 0.88607 0.77249 0.0
H840 H 0.32299 0.92088 0.77628 0.0
O841 O 0.30206 0.83927 0.83318 0.0
O842 O 0.33725 0.83174 0.83351 0.0
H843 H 0.40616 0.88892 0.79318 0.0
H844 H 0.40743 0.90179 0.76943 0.0
C845 C 0.39491 0.88497 0.77956 0.0
H846 H 0.39191 0.86531 0.77373 0.0
H847 H 0.39911 0.85507 0.82664 0.0
O848 O 0.26468 0.84995 0.80634 0.0
C849 C 0.31951 0.83554 0.84218 0.0
Co850 Co 0.14736 0.45285 0.81061 0.0
Co851 Co 0.15476 0.51162 0.80678 0.0
C852 C 0.19779 0.49844 0.79316 0.0
O853 O 0.18312 0.47329 0.79779 0.0
O854 O 0.1895 0.51553 0.79607 0.0
C855 C 0.1509 0.40436 0.80463 0.0
O856 O 0.16868 0.41903 0.79136 0.0
C857 C 0.16933 0.56459 0.78971 0.0
C858 C 0.14923 0.58008 0.8091 0.0
C859 C 0.16671 0.58744 0.79357 0.0
N860 N 0.15462 0.54501 0.80258 0.0
N861 N 0.14229 0.55421 0.81396 0.0
C862 C 0.18475 0.56085 0.77375 0.0
H863 H 0.17405 0.53899 0.76918 0.0
H864 H 0.1867 0.57419 0.76153 0.0
H865 H 0.2056 0.56633 0.7787 0.0
C866 C 0.0965 0.43816 0.78938 0.0
N867 N 0.12019 0.4567 0.79763 0.0
N868 N 0.12328 0.48142 0.7958 0.0
C869 C 0.10157 0.47941 0.78626 0.0
C870 C 0.08388 0.45192 0.78189 0.0
C871 C 0.08574 0.40779 0.78967 0.0
H872 H 0.08723 0.40128 0.80427 0.0
H873 H 0.09873 0.40303 0.78031 0.0
H874 H 0.06405 0.39598 0.78488 0.0
O875 O 0.15145 0.46613 0.83689 0.0
O876 O 0.1548 0.50709 0.83477 0.0
H877 H 0.09488 0.51243 0.7939 0.0
H878 H 0.08109 0.49757 0.77092 0.0
C879 C 0.09843 0.50349 0.7809 0.0
H880 H 0.11767 0.51951 0.77415 0.0
H881 H 0.13002 0.54324 0.82548 0.0
O882 O 0.13794 0.41422 0.81331 0.0
C883 C 0.15399 0.48771 0.84464 0.0
Co884 Co 0.52919 0.6863 0.81292 0.0
Co885 Co 0.47128 0.63404 0.80854 0.0
C886 C 0.48253 0.69045 0.79693 0.0
O887 O 0.50778 0.70136 0.8013 0.0
O888 O 0.46615 0.66476 0.79918 0.0
C889 C 0.57681 0.73759 0.8045 0.0
O890 O 0.56219 0.73752 0.78994 0.0
C891 C 0.41939 0.59639 0.79025 0.0
C892 C 0.40241 0.56025 0.80919 0.0
C893 C 0.39605 0.57108 0.79359 0.0
N894 N 0.43826 0.60052 0.80348 0.0
N895 N 0.4282 0.57863 0.81458 0.0
C896 C 0.42422 0.61614 0.77448 0.0
H897 H 0.4463 0.62725 0.77045 0.0
H898 H 0.41146 0.60522 0.76193 0.0
H899 H 0.41869 0.63152 0.77935 0.0
C900 C 0.54544 0.65214 0.7905 0.0
N901 N 0.52637 0.65638 0.79892 0.0
N902 N 0.502 0.63431 0.79693 0.0
C903 C 0.50478 0.61522 0.78713 0.0
C904 C 0.53242 0.62589 0.78273 0.0
C905 C 0.57567 0.67225 0.79116 0.0
H906 H 0.58167 0.68015 0.80584 0.0
H907 H 0.58033 0.68999 0.78184 0.0
H908 H 0.58799 0.66283 0.78653 0.0
O909 O 0.5162 0.6755 0.83914 0.0
O910 O 0.47574 0.63727 0.83662 0.0
H911 H 0.47258 0.57512 0.79492 0.0
H912 H 0.48779 0.57647 0.77198 0.0
C913 C 0.48131 0.58756 0.78186 0.0
H914 H 0.46492 0.59006 0.77502 0.0
H915 H 0.43845 0.5768 0.82633 0.0
O916 O 0.56726 0.71666 0.81525 0.0
C917 C 0.4949 0.65574 0.8467 0.0
Co918 Co 0.50017 0.62889 0.02263 0.0
Co919 Co 0.49377 0.68115 0.02644 0.0
C920 C 0.45072 0.62555 0.04103 0.0
O921 O 0.46469 0.61454 0.0358 0.0
O922 O 0.45949 0.65106 0.0383 0.0
C923 C 0.495 0.57593 0.02825 0.0
O924 O 0.47621 0.5725 0.04077 0.0
C925 C 0.47421 0.72007 0.03422 0.0
C926 C 0.50999 0.75978 0.02577 0.0
C927 C 0.48342 0.74806 0.03278 0.0
N928 N 0.49479 0.71569 0.02905 0.0
N929 N 0.51594 0.73948 0.02371 0.0
C930 C 0.44521 0.69736 0.03715 0.0
H931 H 0.44277 0.68993 0.052 0.0
H932 H 0.43013 0.70417 0.03429 0.0
H933 H 0.44059 0.68009 0.02741 0.0
C934 C 0.55181 0.6647 0.04291 0.0
N935 N 0.52807 0.66017 0.03512 0.0
N936 N 0.5253 0.68192 0.03768 0.0
C937 C 0.54704 0.70072 0.04783 0.0
C938 C 0.56474 0.69057 0.05117 0.0
C939 C 0.56132 0.64409 0.04287 0.0
H940 H 0.54474 0.62426 0.04858 0.0
H941 H 0.58015 0.65103 0.05152 0.0
H942 H 0.56539 0.64047 0.02804 0.0
O943 O 0.4958 0.6373 0.99633 0.0
O944 O 0.49278 0.67505 0.99849 0.0
H945 H 0.5627 0.74347 0.04259 0.0
H946 H 0.56351 0.73548 0.06701 0.0
C947 C 0.55122 0.72813 0.05384 0.0
H948 H 0.53115 0.72688 0.05631 0.0
H949 H 0.53406 0.74172 0.01794 0.0
O950 O 0.50896 0.59912 0.02014 0.0
C951 C 0.49324 0.65631 0.98861 0.0
Co952 Co 0.35107 0.87305 0.01544 0.0
Co953 Co 0.30204 0.81358 0.02293 0.0
C954 C 0.35972 0.82706 0.02908 0.0
O955 O 0.36828 0.85132 0.02301 0.0
O956 O 0.33412 0.80994 0.03062 0.0
C957 C 0.40279 0.91964 0.02312 0.0
O958 O 0.40265 0.90416 0.03715 0.0
C959 C 0.26577 0.75519 0.0327 0.0
C960 C 0.22448 0.75043 0.02951 0.0
C961 C 0.23785 0.73619 0.03436 0.0
N962 N 0.26867 0.77971 0.02792 0.0
N963 N 0.24389 0.77656 0.02569 0.0
C964 C 0.28905 0.74934 0.03252 0.0
H965 H 0.304 0.76163 0.02127 0.0
H966 H 0.29962 0.75509 0.04645 0.0
H967 H 0.28184 0.72736 0.02963 0.0
C968 C 0.32023 0.88766 0.04214 0.0
N969 N 0.32366 0.86882 0.03267 0.0
N970 N 0.30304 0.844 0.03642 0.0
C971 C 0.28624 0.84641 0.04909 0.0
C972 C 0.29634 0.87419 0.05282 0.0
C973 C 0.33966 0.91801 0.04084 0.0
H974 H 0.36054 0.92248 0.04496 0.0
H975 H 0.33344 0.92981 0.05024 0.0
H976 H 0.34069 0.92479 0.02592 0.0
O977 O 0.33556 0.86203 0.99012 0.0
O978 O 0.30305 0.81858 0.99464 0.0
H979 H 0.24297 0.81859 0.04761 0.0
H980 H 0.25576 0.82753 0.07128 0.0
C981 C 0.26049 0.82279 0.05699 0.0
H982 H 0.26258 0.80424 0.05802 0.0
H983 H 0.2402 0.79206 0.02104 0.0
O984 O 0.38137 0.91125 0.01299 0.0
C985 C 0.31688 0.83911 0.98374 0.0
Co986 Co 0.11708 0.48201 0.01996 0.0
Co987 Co 0.17611 0.49043 0.02487 0.0
C988 C 0.16287 0.53452 0.03519 0.0
O989 O 0.13782 0.51914 0.03065 0.0
O990 O 0.18011 0.52614 0.03372 0.0
C991 C 0.06889 0.48478 0.02781 0.0
O992 O 0.08361 0.50044 0.04197 0.0
C993 C 0.22886 0.50635 0.04279 0.0
C994 C 0.24511 0.48568 0.02463 0.0
C995 C 0.25193 0.50382 0.03972 0.0
N996 N 0.20966 0.49095 0.0299 0.0
N997 N 0.21932 0.4783 0.01925 0.0
C998 C 0.22452 0.52232 0.05805 0.0
H999 H 0.20248 0.51188 0.06217 0.0
H1000 H 0.23728 0.52457 0.07068 0.0
H1001 H 0.23041 0.54305 0.05259 0.0
C1002 C 0.10267 0.43282 0.04317 0.0
N1003 N 0.12119 0.45625 0.03458 0.0
N1004 N 0.14598 0.45967 0.03681 0.0
C1005 C 0.144 0.43839 0.04695 0.0
C1006 C 0.11649 0.42067 0.05132 0.0
C1007 C 0.07224 0.42149 0.04223 0.0
H1008 H 0.06624 0.42271 0.02742 0.0
H1009 H 0.06675 0.43427 0.05121 0.0
H1010 H 0.06058 0.39981 0.0471 0.0
O1011 O 0.12993 0.48355 0.99387 0.0
O1012 O 0.17144 0.48831 0.99673 0.0
H1013 H 0.17684 0.43127 0.03962 0.0
H1014 H 0.16216 0.41839 0.06282 0.0
C1015 C 0.16807 0.43537 0.0525 0.0
H1016 H 0.1842 0.45484 0.05891 0.0
H1017 H 0.20872 0.46546 0.00788 0.0
O1018 O 0.07859 0.47301 0.01758 0.0
C1019 C 0.15176 0.48612 0.98649 0.0
Co1020 Co 0.3504 0.47956 0.51438 0.0
Co1021 Co 0.29918 0.48742 0.5194 0.0
C1022 C 0.35586 0.53105 0.53112 0.0
O1023 O 0.36587 0.51629 0.52571 0.0
O1024 O 0.33019 0.52242 0.5298 0.0
C1025 C 0.40141 0.48297 0.52333 0.0
O1026 O 0.40086 0.49723 0.53794 0.0
C1027 C 0.26152 0.50806 0.52846 0.0
C1028 C 0.22077 0.47163 0.52316 0.0
C1029 C 0.23348 0.49883 0.52902 0.0
N1030 N 0.26511 0.48699 0.52328 0.0
N1031 N 0.24066 0.46542 0.51983 0.0
C1032 C 0.28455 0.5372 0.52992 0.0
H1033 H 0.30075 0.54102 0.51938 0.0
H1034 H 0.2935 0.54074 0.54437 0.0
H1035 H 0.27744 0.55207 0.52715 0.0
C1036 C 0.31598 0.43 0.53727 0.0
N1037 N 0.32009 0.453 0.52843 0.0
N1038 N 0.29878 0.4564 0.53134 0.0
C1039 C 0.2807 0.43581 0.54266 0.0
C1040 C 0.29084 0.41828 0.54655 0.0
C1041 C 0.33547 0.41917 0.53618 0.0
H1042 H 0.34339 0.42131 0.52148 0.0
H1043 H 0.35323 0.43154 0.54565 0.0
H1044 H 0.32544 0.39724 0.5405 0.0
O1045 O 0.3401 0.48169 0.48825 0.0
O1046 O 0.30349 0.48666 0.49117 0.0
H1047 H 0.23763 0.42172 0.54189 0.0
H1048 H 0.25102 0.42381 0.56528 0.0
C1049 C 0.25551 0.43414 0.55123 0.0
H1050 H 0.25828 0.45499 0.553 0.0
H1051 H 0.23757 0.44664 0.51472 0.0
O1052 O 0.38074 0.47162 0.51236 0.0
C1053 C 0.32112 0.48466 0.4809 0.0
Co1054 Co 0.50458 0.86954 0.51733 0.0
Co1055 Co 0.49494 0.81044 0.52557 0.0
C1056 C 0.45062 0.8239 0.53218 0.0
O1057 O 0.46602 0.84807 0.52583 0.0
O1058 O 0.45932 0.80694 0.53363 0.0
C1059 C 0.49923 0.91683 0.52271 0.0
O1060 O 0.4819 0.90169 0.53606 0.0
C1061 C 0.47282 0.75194 0.53512 0.0
C1062 C 0.50945 0.74734 0.53197 0.0
C1063 C 0.48172 0.73289 0.53652 0.0
N1064 N 0.49457 0.77666 0.53078 0.0
N1065 N 0.51626 0.77358 0.52857 0.0
C1066 C 0.44369 0.74602 0.53453 0.0
H1067 H 0.44149 0.75898 0.52362 0.0
H1068 H 0.43815 0.75078 0.54858 0.0
H1069 H 0.42915 0.72423 0.53093 0.0
C1070 C 0.55169 0.88559 0.54255 0.0
N1071 N 0.52869 0.86614 0.53412 0.0
N1072 N 0.52496 0.8416 0.53823 0.0
C1073 C 0.54528 0.84489 0.55015 0.0
C1074 C 0.5632 0.8729 0.5529 0.0
C1075 C 0.56252 0.91582 0.54036 0.0
H1076 H 0.56803 0.9217 0.52527 0.0
H1077 H 0.54617 0.92053 0.54424 0.0
H1078 H 0.58073 0.92818 0.54947 0.0
O1079 O 0.50798 0.85739 0.49213 0.0
O1080 O 0.49805 0.81436 0.49718 0.0
H1081 H 0.56171 0.81787 0.54883 0.0
H1082 H 0.55806 0.82732 0.57241 0.0
C1083 C 0.54827 0.82189 0.55824 0.0
H1084 H 0.52788 0.80308 0.55967 0.0
H1085 H 0.53548 0.78914 0.52402 0.0
O1086 O 0.5129 0.90782 0.51394 0.0
C1087 C 0.50399 0.83442 0.48601 0.0
Co1088 Co 0.1096 0.63234 0.51889 0.0
Co1089 Co 0.16974 0.681 0.52466 0.0
C1090 C 0.15557 0.62329 0.53199 0.0
O1091 O 0.13104 0.61483 0.52656 0.0
O1092 O 0.17308 0.64888 0.53279 0.0
C1093 C 0.06242 0.5812 0.52746 0.0
O1094 O 0.07815 0.58075 0.54107 0.0
C1095 C 0.22859 0.71736 0.53309 0.0
C1096 C 0.23353 0.75855 0.52861 0.0
C1097 C 0.24783 0.74532 0.53365 0.0
N1098 N 0.20394 0.71436 0.52863 0.0
N1099 N 0.20717 0.73907 0.5257 0.0
C1100 C 0.23413 0.6939 0.53376 0.0
H1101 H 0.22159 0.67837 0.52291 0.0
H1102 H 0.2284 0.68411 0.54797 0.0
H1103 H 0.25603 0.70072 0.53089 0.0
C1104 C 0.0969 0.66534 0.54496 0.0
N1105 N 0.11504 0.66086 0.53541 0.0
N1106 N 0.14018 0.68143 0.53829 0.0
C1107 C 0.13869 0.69939 0.55033 0.0
C1108 C 0.11128 0.68995 0.55473 0.0
C1109 C 0.06636 0.64739 0.54336 0.0
H1110 H 0.06065 0.64174 0.52828 0.0
H1111 H 0.05982 0.62814 0.55145 0.0
H1112 H 0.05533 0.6577 0.54892 0.0
O1113 O 0.11988 0.64639 0.49314 0.0
O1114 O 0.16364 0.67869 0.49651 0.0
H1115 H 0.16812 0.74233 0.54912 0.0
H1116 H 0.15782 0.72915 0.57269 0.0
C1117 C 0.16286 0.72444 0.55843 0.0
H1118 H 0.18081 0.72135 0.5596 0.0
H1119 H 0.19152 0.74259 0.52115 0.0
O1120 O 0.07104 0.60268 0.51734 0.0
C1121 C 0.14264 0.66448 0.48612 0.0
Co1122 Co 0.14612 0.69508 0.30975 0.0
Co1123 Co 0.15588 0.64498 0.30712 0.0
C1124 C 0.20005 0.70209 0.29705 0.0
O1125 O 0.18441 0.71166 0.30109 0.0
O1126 O 0.19162 0.67644 0.29832 0.0
C1127 C 0.15043 0.74695 0.30218 0.0
O1128 O 0.16952 0.7498 0.2901 0.0
C1129 C 0.17241 0.60745 0.29096 0.0
C1130 C 0.15182 0.57155 0.31005 0.0
C1131 C 0.16982 0.582 0.29482 0.0
N1132 N 0.15703 0.61195 0.30348 0.0
N1133 N 0.14454 0.59029 0.31474 0.0
C1134 C 0.1887 0.62704 0.27543 0.0
H1135 H 0.17844 0.63854 0.27071 0.0
H1136 H 0.19113 0.61594 0.26321 0.0
H1137 H 0.20937 0.64205 0.28091 0.0
C1138 C 0.09828 0.65897 0.28625 0.0
N1139 N 0.12195 0.66487 0.29483 0.0
N1140 N 0.12529 0.64331 0.29404 0.0
C1141 C 0.10357 0.62276 0.28497 0.0
C1142 C 0.08561 0.63199 0.27983 0.0
C1143 C 0.08778 0.67872 0.28486 0.0
H1144 H 0.10486 0.69937 0.28087 0.0
H1145 H 0.07111 0.67192 0.27419 0.0
H1146 H 0.0799 0.68045 0.29894 0.0
O1147 O 0.14413 0.68345 0.3362 0.0
O1148 O 0.1529 0.64906 0.33502 0.0
H1149 H 0.09855 0.58613 0.29789 0.0
H1150 H 0.07892 0.57994 0.27644 0.0
C1151 C 0.0987 0.59407 0.28345 0.0
H1152 H 0.11583 0.59435 0.27539 0.0
H1153 H 0.13172 0.58867 0.326 0.0
O1154 O 0.13638 0.7242 0.31078 0.0
C1155 C 0.14776 0.66537 0.34441 0.0
Co1156 Co 0.2926 0.45409 0.3043 0.0
Co1157 Co 0.34587 0.51181 0.30134 0.0
C1158 C 0.29039 0.50222 0.28884 0.0
O1159 O 0.27876 0.4767 0.29268 0.0
O1160 O 0.31604 0.51804 0.29165 0.0
C1161 C 0.23869 0.40772 0.29882 0.0
O1162 O 0.23557 0.42409 0.28706 0.0
C1163 C 0.38546 0.56498 0.28507 0.0
C1164 C 0.42065 0.57913 0.30461 0.0
C1165 C 0.41098 0.58746 0.28936 0.0
N1166 N 0.3801 0.54472 0.29746 0.0
N1167 N 0.40143 0.55311 0.30891 0.0
C1168 C 0.36665 0.56227 0.26916 0.0
H1169 H 0.35504 0.54059 0.26426 0.0
H1170 H 0.37843 0.57589 0.25714 0.0
H1171 H 0.35166 0.56817 0.27429 0.0
C1172 C 0.32729 0.438 0.28219 0.0
N1173 N 0.32305 0.45697 0.29079 0.0
N1174 N 0.34543 0.48124 0.28937 0.0
C1175 C 0.36471 0.47849 0.27979 0.0
C1176 C 0.35389 0.45098 0.27494 0.0
C1177 C 0.30675 0.40786 0.28217 0.0
H1178 H 0.29876 0.40118 0.29677 0.0
H1179 H 0.28911 0.40406 0.27304 0.0
H1180 H 0.3158 0.39546 0.27698 0.0
O1181 O 0.30242 0.46603 0.33084 0.0
O1182 O 0.34124 0.5061 0.32926 0.0
H1183 H 0.40489 0.50959 0.28831 0.0
H1184 H 0.40369 0.49575 0.2649 0.0
C1185 C 0.39268 0.50193 0.27508 0.0
H1186 H 0.39074 0.519 0.26882 0.0
H1187 H 0.40231 0.54155 0.32019 0.0
O1188 O 0.26203 0.41581 0.30638 0.0
C1189 C 0.32213 0.4868 0.33889 0.0
Co1190 Co 0.53838 0.8384 0.30924 0.0
Co1191 Co 0.47941 0.83123 0.30736 0.0
C1192 C 0.49096 0.7877 0.29288 0.0
O1193 O 0.51609 0.80184 0.29767 0.0
O1194 O 0.47438 0.79667 0.29554 0.0
C1195 C 0.58532 0.83323 0.30081 0.0
O1196 O 0.56928 0.81553 0.28796 0.0
C1197 C 0.42104 0.81256 0.29965 0.0
C1198 C 0.41759 0.8482 0.30919 0.0
C1199 C 0.40264 0.82223 0.30125 0.0
N1200 N 0.44591 0.83239 0.3056 0.0
N1201 N 0.44353 0.85341 0.31162 0.0
C1202 C 0.41437 0.78367 0.29567 0.0
H1203 H 0.42608 0.77788 0.30544 0.0
H1204 H 0.4203 0.78234 0.28085 0.0
H1205 H 0.39223 0.76869 0.29776 0.0
C1206 C 0.55269 0.88859 0.28781 0.0
N1207 N 0.53405 0.86524 0.29637 0.0
N1208 N 0.50945 0.86263 0.29505 0.0
C1209 C 0.51176 0.88425 0.28503 0.0
C1210 C 0.53931 0.90159 0.28042 0.0
C1211 C 0.58267 0.89774 0.28647 0.0
H1212 H 0.58514 0.88058 0.28097 0.0
H1213 H 0.5938 0.91578 0.27696 0.0
H1214 H 0.59188 0.90299 0.30086 0.0
O1215 O 0.52837 0.83703 0.33593 0.0
O1216 O 0.48606 0.83046 0.33521 0.0
H1217 H 0.48503 0.89946 0.29271 0.0
H1218 H 0.49253 0.90205 0.26793 0.0
C1219 C 0.4883 0.88885 0.28057 0.0
H1220 H 0.46933 0.86892 0.27801 0.0
H1221 H 0.45945 0.87104 0.31787 0.0
O1222 O 0.57681 0.84686 0.31014 0.0
C1223 C 0.50685 0.83336 0.34441 0.0
H1224 H 0.13308 0.16683 0.11894 0.0
H1225 H 0.09776 0.01124 0.11997 0.0
H1226 H 0.05077 0.09732 0.11544 0.0
H1227 H 0.18059 0.08047 0.11945 0.0
H1228 H 0.08051 0.04234 0.11263 0.0
H1229 H 0.15128 0.13581 0.11373 0.0
C1230 C 0.11886 0.14515 0.11658 0.0
C1231 C 0.0904 0.13474 0.11742 0.0
C1232 C 0.1025 0.05068 0.11383 0.0
C1233 C 0.11093 0.09901 0.1119 0.0
C1234 C 0.11238 0.03287 0.11796 0.0
C1235 C 0.14064 0.04325 0.12064 0.0
C1236 C 0.12099 0.07912 0.11255 0.0
C1237 C 0.15859 0.07155 0.11783 0.0
C1238 C 0.12922 0.12744 0.11363 0.0
C1239 C 0.07283 0.10646 0.11443 0.0
N1240 N 0.14843 0.08853 0.11423 0.0
N1241 N 0.08338 0.08955 0.11207 0.0
H1242 H 0.89139 0.94524 0.11745 0.0
H1243 H 0.90496 0.09343 0.11729 0.0
H1244 H 0.82231 0.95849 0.12272 0.0
H1245 H 0.97379 0.07947 0.12107 0.0
H1246 H 0.87445 0.04427 0.11224 0.0
H1247 H 0.9213 0.99408 0.11149 0.0
C1248 C 0.88225 0.9582 0.1167 0.0
C1249 C 0.85413 0.94762 0.12028 0.0
C1250 C 0.89629 0.05203 0.11392 0.0
C1251 C 0.88867 0.00399 0.11425 0.0
C1252 C 0.91378 0.08013 0.11679 0.0
C1253 C 0.94203 0.09064 0.11986 0.0
C1254 C 0.90707 0.03424 0.11414 0.0
C1255 C 0.95221 0.07237 0.11885 0.0
C1256 C 0.89951 0.98627 0.11357 0.0
C1257 C 0.84386 0.96582 0.11999 0.0
N1258 N 0.93469 0.04503 0.11629 0.0
N1259 N 0.86116 0.99317 0.11717 0.0
H1260 H 0.0385 0.93219 0.11606 0.0
H1261 H 0.89066 0.79801 0.12127 0.0
H1262 H 0.02585 0.85085 0.12632 0.0
H1263 H 0.90523 0.88108 0.11805 0.0
H1264 H 0.9397 0.81564 0.11618 0.0
H1265 H 0.98994 0.9123 0.10929 0.0
C1266 C 0.02581 0.91005 0.11621 0.0
C1267 C 0.0365 0.89314 0.12149 0.0
C1268 C 0.93207 0.82995 0.11632 0.0
C1269 C 0.9802 0.87025 0.11467 0.0
C1270 C 0.90404 0.81992 0.11921 0.0
C1271 C 0.89377 0.83814 0.12035 0.0
C1272 C 0.94996 0.85839 0.11455 0.0
C1273 C 0.91213 0.86626 0.11742 0.0
C1274 C -0.00218 0.89869 0.11263 0.0
C1275 C 0.01846 0.86462 0.12229 0.0
N1276 N 0.93935 0.87553 0.11486 0.0
N1277 N 0.99111 0.85407 0.11913 0.0
H1278 H 0.09448 0.05401 0.38416 0.0
H1279 H 0.07829 0.18667 0.37895 0.0
H1280 H 0.16283 0.13662 0.37777 0.0
H1281 H 0.01073 0.10302 0.37657 0.0
H1282 H 0.10938 0.16937 0.38616 0.0
H1283 H 0.06414 0.07248 0.3895 0.0
C1284 C 0.10341 0.0761 0.38459 0.0
C1285 C 0.13144 0.09382 0.38078 0.0
C1286 C 0.08768 0.15483 0.38434 0.0
C1287 C 0.09629 0.11509 0.38599 0.0
C1288 C 0.06986 0.16467 0.38021 0.0
C1289 C 0.04182 0.14625 0.37685 0.0
C1290 C 0.07744 0.12636 0.38509 0.0
C1291 C 0.03213 0.118 0.37893 0.0
C1292 C 0.08587 0.08664 0.38735 0.0
C1293 C 0.14136 0.12225 0.38067 0.0
N1294 N 0.04997 0.10891 0.38268 0.0
N1295 N 0.12375 0.13202 0.38302 0.0
H1296 H 0.85016 0.02663 0.36851 0.0
H1297 H 0.88562 0.90597 0.37272 0.0
H1298 H 0.93216 0.03953 0.37512 0.0
H1299 H 0.80282 0.89197 0.36898 0.0
H1300 H 0.90239 0.95474 0.37796 0.0
H1301 H 0.83171 0.97717 0.37285 0.0
C1302 C 0.86423 0.01913 0.37133 0.0
C1303 C 0.8927 0.03732 0.37175 0.0
C1304 C 0.8805 0.94096 0.37622 0.0
C1305 C 0.87189 0.9808 0.3763 0.0
C1306 C 0.87089 0.91302 0.37326 0.0
C1307 C 0.84278 0.89479 0.37023 0.0
C1308 C 0.86192 0.95083 0.37596 0.0
C1309 C 0.82471 0.90527 0.37106 0.0
C1310 C 0.85372 0.99092 0.37377 0.0
C1311 C 0.91006 0.02652 0.37524 0.0
N1312 N 0.83463 0.93262 0.37363 0.0
N1313 N 0.89939 -0.00104 0.37718 0.0
H1314 H 0.95947 0.82051 0.37746 0.0
H1315 H 0.07778 0.97648 0.3816 0.0
H1316 H 0.94539 0.88923 0.38081 0.0
H1317 H 0.09278 0.90817 0.38215 0.0
H1318 H 0.02921 0.94458 0.38752 0.0
H1319 H 0.00799 0.85162 0.38492 0.0
C1320 C 0.96645 0.842 0.38024 0.0
C1321 C 0.94828 0.85219 0.3787 0.0
C1322 C 0.04319 0.93659 0.38667 0.0
C1323 C 0.00374 0.888 0.38684 0.0
C1324 C 0.07103 0.95488 0.38335 0.0
C1325 C 0.0894 0.94502 0.38105 0.0
C1326 C 0.03359 0.90819 0.38744 0.0
C1327 C 0.07933 0.91671 0.38349 0.0
C1328 C -0.00588 0.85975 0.38449 0.0
C1329 C 0.95836 0.88023 0.38231 0.0
N1330 N 0.05203 0.89924 0.38623 0.0
N1331 N 0.98547 0.89719 0.38595 0.0
H1332 H 0.79533 0.90196 0.86049 0.0
H1333 H 0.91812 0.87914 0.89341 0.0
H1334 H 0.87511 0.9696 0.87594 0.0
H1335 H 0.85668 0.82728 0.85258 0.0
H1336 H 0.89716 0.9083 0.89489 0.0
H1337 H 0.81236 0.8702 0.8658 0.0
C1338 C 0.81633 0.91018 0.86526 0.0
C1339 C 0.83395 0.93864 0.86754 0.0
C1340 C 0.88832 0.89047 0.88566 0.0
C1341 C 0.85337 0.90219 0.87374 0.0
C1342 C 0.9004 0.87401 0.88462 0.0
C1343 C 0.88993 0.85151 0.87213 0.0
C1344 C 0.86509 0.88382 0.8746 0.0
C1345 C 0.86581 0.84476 0.86208 0.0
C1346 C 0.82601 0.89198 0.86822 0.0
C1347 C 0.8609 0.94792 0.87383 0.0
N1348 N 0.85431 0.86099 0.86342 0.0
N1349 N 0.86987 0.92973 0.87664 0.0
H1350 H 0.01223 0.90615 0.88604 0.0
H1351 H 0.16564 0.03149 0.8772 0.0
H1352 H 0.08298 0.89658 0.87665 0.0
H1353 H 0.09396 0.04028 0.88335 0.0
H1354 H 0.13682 0.98208 0.88307 0.0
H1355 H 0.04291 0.95513 0.89158 0.0
C1356 C 0.03418 0.91421 0.88538 0.0
C1357 C 0.04493 0.89723 0.88045 0.0
C1358 C 0.12753 -0.00505 0.88356 0.0
C1359 C 0.08029 0.95345 0.88667 0.0
C1360 C 0.14398 0.02314 0.88022 0.0
C1361 C 0.13232 0.04015 0.88002 0.0
C1362 C 0.09912 0.98364 0.88643 0.0
C1363 C 0.1041 0.02826 0.88389 0.0
C1364 C 0.05174 0.94224 0.88854 0.0
C1365 C 0.07367 0.90888 0.88012 0.0
N1366 N 0.08844 0.00072 0.88673 0.0
N1367 N 0.09033 0.93632 0.88289 0.0
H1368 H 0.08785 0.18446 0.87922 0.0
H1369 H 0.9402 0.04922 0.87573 0.0
H1370 H 0.07466 0.10178 0.8779 0.0
H1371 H 0.95347 0.13138 0.86893 0.0
H1372 H 0.98854 0.06845 0.88359 0.0
H1373 H 0.03835 0.16559 0.88231 0.0
C1374 C 0.07463 0.16233 0.87985 0.0
C1375 C 0.08549 0.14468 0.87803 0.0
C1376 C 0.9808 0.08232 0.88076 0.0
C1377 C 0.02869 0.12298 0.88148 0.0
C1378 C 0.953 0.07133 0.87653 0.0
C1379 C 0.94261 0.08873 0.87194 0.0
C1380 C -0.00154 0.11092 0.88019 0.0
C1381 C 0.96066 0.11725 0.87241 0.0
C1382 C 0.04633 0.15159 0.88159 0.0
C1383 C 0.06728 0.1162 0.87912 0.0
N1384 N 0.98776 0.12747 0.8763 0.0
N1385 N 0.03975 0.10624 0.88056 0.0
H1386 H 0.97303 0.8874 0.61617 0.0
H1387 H 0.81811 0.85561 0.61676 0.0
H1388 H 0.90249 0.80583 0.6215 0.0
H1389 H 0.88907 0.93701 0.61288 0.0
H1390 H 0.84823 0.83615 0.61241 0.0
H1391 H 0.94231 0.90499 0.60857 0.0
C1392 C 0.95116 0.8731 0.61549 0.0
C1393 C 0.94038 0.84518 0.61989 0.0
C1394 C 0.85711 0.85828 0.61206 0.0
C1395 C 0.90497 0.86523 0.61132 0.0
C1396 C 0.83992 0.86936 0.61451 0.0
C1397 C 0.85098 0.89796 0.61494 0.0
C1398 C 0.88565 0.87596 0.61035 0.0
C1399 C 0.87941 0.91489 0.61212 0.0
C1400 C 0.93357 0.88317 0.61116 0.0
C1401 C 0.91178 0.8276 0.61852 0.0
N1402 N 0.89577 0.90363 0.61018 0.0
N1403 N 0.89506 0.83798 0.61464 0.0
H1404 H 0.0707 0.95295 0.60776 0.0
H1405 H 0.18827 0.09941 0.64465 0.0
H1406 H 0.12613 0.96318 0.65345 0.0
H1407 H 0.11254 0.08692 0.61991 0.0
H1408 H 0.17194 0.05038 0.64093 0.0
H1409 H 0.09218 0.00307 0.60542 0.0
C1410 C 0.08722 0.9657 0.6174 0.0
C1411 C 0.0958 0.95388 0.63143 0.0
C1412 C 0.15904 0.05847 0.63617 0.0
C1413 C 0.12124 0.01104 0.62817 0.0
C1414 C 0.16834 0.08646 0.63821 0.0
C1415 C 0.15155 0.09727 0.63281 0.0
C1416 C 0.13294 0.04118 0.62845 0.0
C1417 C 0.12598 0.07944 0.6245 0.0
C1418 C 0.09961 0.99425 0.61591 0.0
C1419 C 0.11847 0.97141 0.64271 0.0
N1420 N 0.11738 0.0522 0.62263 0.0
N1421 N 0.13027 -0.00086 0.64095 0.0
H1422 H 0.89574 0.08459 0.61091 0.0
H1423 H 0.04324 0.09788 0.62045 0.0
H1424 H 0.90879 0.01562 0.61847 0.0
H1425 H 0.02948 0.16689 0.62241 0.0
H1426 H -0.00485 0.06792 0.61213 0.0
H1427 H 0.94527 0.11483 0.60757 0.0
C1428 C 0.90894 0.07568 0.61157 0.0
C1429 C 0.89803 0.04751 0.61527 0.0
C1430 C 0.00275 0.08971 0.61399 0.0
C1431 C 0.95486 0.08216 0.61154 0.0
C1432 C 0.03039 0.10697 0.6185 0.0
C1433 C 0.04054 0.13507 0.62187 0.0
C1434 C 0.98503 0.10054 0.61304 0.0
C1435 C 0.02246 0.14534 0.61991 0.0
C1436 C 0.93725 0.09301 0.60968 0.0
C1437 C 0.9162 0.03717 0.61573 0.0
N1438 N -0.00447 0.12804 0.61577 0.0
N1439 N 0.94375 0.05456 0.61415 0.0
H1440 H 0.73041 0.44466 0.44403 0.0
H1441 H 0.8497 0.41619 0.47735 0.0
H1442 H 0.79064 0.4929 0.48659 0.0
H1443 H 0.77242 0.35238 0.45479 0.0
H1444 H 0.83329 0.44886 0.47428 0.0
H1445 H 0.75058 0.41487 0.44171 0.0
C1446 C 0.74767 0.44883 0.45303 0.0
C1447 C 0.75811 0.47056 0.46615 0.0
C1448 C 0.82003 0.42774 0.46988 0.0
C1449 C 0.78201 0.43744 0.46286 0.0
C1450 C 0.82938 0.40906 0.47155 0.0
C1451 C 0.81226 0.38134 0.46653 0.0
C1452 C 0.79349 0.41879 0.46294 0.0
C1453 C 0.78617 0.37342 0.45904 0.0
C1454 C 0.75931 0.432 0.45154 0.0
C1455 C 0.78159 0.47604 0.47656 0.0
N1456 N 0.77752 0.39205 0.45753 0.0
N1457 N 0.79264 0.45947 0.47479 0.0
H1458 H 0.56709 0.43271 0.46867 0.0
H1459 H 0.54162 0.28584 0.43594 0.0
H1460 H 0.63331 0.4197 0.45067 0.0
H1461 H 0.49175 0.29723 0.47758 0.0
H1462 H 0.57082 0.3359 0.43347 0.0
H1463 H 0.53468 0.38401 0.4636 0.0
C1464 C 0.57484 0.41975 0.46338 0.0
C1465 C 0.60312 0.43029 0.4604 0.0
C1466 C 0.55341 0.32733 0.44308 0.0
C1467 C 0.56593 0.37449 0.45452 0.0
C1468 C 0.53694 0.29882 0.44469 0.0
C1469 C 0.51503 0.28736 0.4577 0.0
C1470 C 0.54735 0.3444 0.45413 0.0
C1471 C 0.5088 0.30517 0.46769 0.0
C1472 C 0.55627 0.39192 0.46057 0.0
C1473 C 0.61179 0.41242 0.45342 0.0
N1474 N 0.52503 0.33283 0.46582 0.0
N1475 N 0.59325 0.38528 0.45083 0.0
H1476 H 0.69354 0.18741 0.45554 0.0
H1477 H 0.57064 0.21941 0.44762 0.0
H1478 H 0.70383 0.26889 0.454 0.0
H1479 H 0.55904 0.1383 0.45724 0.0
H1480 H 0.61954 0.23677 0.44256 0.0
H1481 H 0.64444 0.16819 0.44915 0.0
C1482 C 0.68562 0.20128 0.45341 0.0
C1483 C 0.70296 0.22982 0.45506 0.0
C1484 C 0.60623 0.2151 0.44557 0.0
C1485 C 0.64686 0.20806 0.44802 0.0
C1486 C 0.57825 0.20516 0.44846 0.0
C1487 C 0.56073 0.17748 0.45329 0.0
C1488 C 0.61681 0.19725 0.44756 0.0
C1489 C 0.57181 0.15991 0.45386 0.0
C1490 C 0.65762 0.19032 0.44978 0.0
C1491 C 0.69161 0.24687 0.4523 0.0
N1492 N 0.59921 0.17017 0.45129 0.0
N1493 N 0.66425 0.2357 0.4491 0.0
H1494 H 0.76136 0.38035 0.71745 0.0
H1495 H 0.74886 0.51552 0.71596 0.0
H1496 H 0.82979 0.46189 0.70736 0.0
H1497 H 0.67962 0.43271 0.7143 0.0
H1498 H 0.77938 0.49686 0.72084 0.0
H1499 H 0.73245 0.40011 0.72457 0.0
C1500 C 0.77063 0.40249 0.71738 0.0
C1501 C 0.7982 0.41955 0.71204 0.0
C1502 C 0.75745 0.4828 0.71969 0.0
C1503 C 0.76478 0.44223 0.71946 0.0
C1504 C 0.73996 0.49342 0.71692 0.0
C1505 C 0.71158 0.47564 0.71443 0.0
C1506 C 0.74653 0.45421 0.71998 0.0
C1507 C 0.7013 0.44722 0.71603 0.0
C1508 C 0.75394 0.41375 0.7212 0.0
C1509 C 0.80863 0.44804 0.71143 0.0
N1510 N 0.71881 0.43738 0.71848 0.0
N1511 N 0.79185 0.4585 0.71493 0.0
H1512 H 0.60177 0.37185 0.71668 0.0
H1513 H 0.46782 0.22391 0.7091 0.0
H1514 H 0.51982 0.35892 0.70949 0.0
H1515 H 0.55094 0.23833 0.7087 0.0
H1516 H 0.48569 0.27246 0.71618 0.0
H1517 H 0.58253 0.32269 0.72115 0.0
C1518 C 0.57966 0.35888 0.71673 0.0
C1519 C 0.56235 0.36966 0.71297 0.0
C1520 C 0.49998 0.26492 0.71478 0.0
C1521 C 0.54021 0.31293 0.71722 0.0
C1522 C 0.48981 0.23717 0.71074 0.0
C1523 C 0.50794 0.22703 0.70801 0.0
C1524 C 0.52849 0.28274 0.71608 0.0
C1525 C 0.53619 0.2452 0.71052 0.0
C1526 C 0.56868 0.33062 0.71899 0.0
C1527 C 0.53388 0.35144 0.71237 0.0
N1528 N 0.54561 0.27223 0.7142 0.0
N1529 N 0.5237 0.32392 0.71428 0.0
H1530 H 0.62295 0.14984 0.70286 0.0
H1531 H 0.74529 0.30277 0.71515 0.0
H1532 H 0.61175 0.21942 0.71293 0.0
H1533 H 0.75711 0.23257 0.71145 0.0
H1534 H 0.69618 0.27169 0.71953 0.0
H1535 H 0.6717 0.17855 0.71078 0.0
C1536 C 0.63062 0.17097 0.70719 0.0
C1537 C 0.61321 0.18215 0.70743 0.0
C1538 C 0.70955 0.26306 0.71805 0.0
C1539 C 0.66893 0.21528 0.7161 0.0
C1540 C 0.73768 0.28086 0.71558 0.0
C1541 C 0.75538 0.27032 0.71262 0.0
C1542 C 0.69896 0.2345 0.7173 0.0
C1543 C 0.74424 0.24167 0.71342 0.0
C1544 C 0.65842 0.18735 0.71171 0.0
C1545 C 0.62416 0.20967 0.713 0.0
N1546 N 0.71668 0.22474 0.71537 0.0
N1547 N 0.65139 0.22538 0.71687 0.0
H1548 H 0.54934 0.30891 0.2092 0.0
H1549 H 0.52622 0.16123 0.18843 0.0
H1550 H 0.46895 0.23936 0.19761 0.0
H1551 H 0.59254 0.21804 0.2245 0.0
H1552 H 0.50545 0.19027 0.19092 0.0
H1553 H 0.56671 0.27716 0.21428 0.0
C1554 C 0.53525 0.28703 0.208 0.0
C1555 C 0.5077 0.27688 0.20279 0.0
C1556 C 0.52454 0.19636 0.19832 0.0
C1557 C 0.52755 0.24058 0.20824 0.0
C1558 C 0.53645 0.17981 0.19689 0.0
C1559 C 0.56179 0.18778 0.20561 0.0
C1560 C 0.53815 0.22119 0.20843 0.0
C1561 C 0.57379 0.21183 0.21667 0.0
C1562 C 0.54518 0.26893 0.21091 0.0
C1563 C 0.4904 0.24823 0.20145 0.0
N1564 N 0.56212 0.22799 0.2175 0.0
N1565 N 0.50071 0.23114 0.20386 0.0
H1566 H 0.8266 0.36206 0.18802 0.0
H1567 H 0.68581 0.2383 0.22136 0.0
H1568 H 0.77723 0.37332 0.23015 0.0
H1569 H 0.75294 0.22749 0.20225 0.0
H1570 H 0.71813 0.28761 0.22504 0.0
H1571 H 0.79962 0.31246 0.19311 0.0
C1572 C 0.81011 0.35412 0.19837 0.0
C1573 C 0.80337 0.37178 0.20805 0.0
C1574 C 0.72578 0.27429 0.22037 0.0
C1575 C 0.77236 0.31505 0.2139 0.0
C1576 C 0.70735 0.24617 0.21822 0.0
C1577 C 0.71655 0.22878 0.21116 0.0
C1578 C 0.75343 0.28504 0.21512 0.0
C1579 C 0.7448 0.2401 0.20753 0.0
C1580 C 0.79476 0.32581 0.2013 0.0
C1581 C 0.78215 0.36036 0.22159 0.0
N1582 N 0.76213 0.26759 0.20921 0.0
N1583 N 0.76699 0.33263 0.22385 0.0
H1584 H 0.74442 0.43781 0.21767 0.0
H1585 H 0.62253 0.47001 0.20472 0.0
H1586 H 0.7567 0.5195 0.20978 0.0
H1587 H 0.6109 0.38855 0.21195 0.0
H1588 H 0.6713 0.48938 0.21229 0.0
H1589 H 0.69526 0.42034 0.2216 0.0
C1590 C 0.73689 0.45216 0.217 0.0
C1591 C 0.75474 0.48009 0.21299 0.0
C1592 C 0.65792 0.46726 0.21265 0.0
C1593 C 0.69834 0.46017 0.21737 0.0
C1594 C 0.6301 0.45623 0.20836 0.0
C1595 C 0.6125 0.42764 0.20792 0.0
C1596 C 0.66831 0.44953 0.21621 0.0
C1597 C 0.62338 0.41068 0.2126 0.0
C1598 C 0.70876 0.44215 0.21925 0.0
C1599 C 0.74374 0.49774 0.21257 0.0
N1600 N 0.65063 0.42188 0.21632 0.0
N1601 N 0.71622 0.48742 0.21444 0.0
H1602 H 0.54377 0.25486 0.93209 0.0
H1603 H 0.56833 0.13274 0.96431 0.0
H1604 H 0.49433 0.19405 0.97411 0.0
H1605 H 0.635 0.21196 0.94668 0.0
H1606 H 0.53618 0.14934 0.95923 0.0
H1607 H 0.5726 0.23364 0.92933 0.0
C1608 C 0.53911 0.23723 0.94087 0.0
C1609 C 0.51745 0.22704 0.95408 0.0
C1610 C 0.55782 0.16294 0.95626 0.0
C1611 C 0.54929 0.20185 0.95013 0.0
C1612 C 0.57623 0.1535 0.95908 0.0
C1613 C 0.60457 0.17117 0.95624 0.0
C1614 C 0.56768 0.19012 0.95035 0.0
C1615 C 0.61343 0.19778 0.94931 0.0
C1616 C 0.55536 0.22498 0.93909 0.0
C1617 C 0.5112 0.20299 0.96408 0.0
N1618 N 0.59504 0.20655 0.94674 0.0
N1619 N 0.52719 0.19133 0.96201 0.0
H1620 H 0.79373 0.29434 0.98284 0.0
H1621 H 0.77274 0.41892 0.95485 0.0
H1622 H 0.73074 0.28493 0.94353 0.0
H1623 H 0.85036 0.43012 0.97485 0.0
H1624 H 0.75609 0.36976 0.95108 0.0
H1625 H 0.81449 0.34423 0.98052 0.0
C1626 C 0.78427 0.30275 0.97369 0.0
C1627 C 0.75985 0.28541 0.96394 0.0
C1628 C 0.77688 0.38309 0.95607 0.0
C1629 C 0.78343 0.34247 0.96127 0.0
C1630 C 0.78637 0.41115 0.95827 0.0
C1631 C 0.81289 0.4287 0.96533 0.0
C1632 C 0.79388 0.37246 0.96126 0.0
C1633 C 0.8297 0.41741 0.96944 0.0
C1634 C 0.79614 0.33124 0.97237 0.0
C1635 C 0.74877 0.29748 0.95205 0.0
N1636 N 0.81979 0.38997 0.96758 0.0
N1637 N 0.76039 0.3253 0.95127 0.0
H1638 H 0.69649 0.50518 0.95481 0.0
H1639 H 0.57442 0.35051 0.94461 0.0
H1640 H 0.70752 0.43451 0.95212 0.0
H1641 H 0.56235 0.42038 0.95003 0.0
H1642 H 0.62359 0.38189 0.94055 0.0
H1643 H 0.64793 0.47548 0.94676 0.0
C1644 C 0.68886 0.48355 0.95209 0.0
C1645 C 0.70623 0.47244 0.95392 0.0
C1646 C 0.61013 0.39036 0.94237 0.0
C1647 C 0.65066 0.43823 0.94503 0.0
C1648 C 0.58197 0.37239 0.94466 0.0
C1649 C 0.56419 0.38272 0.94811 0.0
C1650 C 0.62064 0.41889 0.94363 0.0
C1651 C 0.57527 0.41139 0.94774 0.0
C1652 C 0.66115 0.4666 0.94751 0.0
C1653 C 0.69525 0.44424 0.95037 0.0
N1654 N 0.60281 0.42846 0.94587 0.0
N1655 N 0.66812 0.42809 0.94631 0.0
H1656 H 0.46186 0.83137 0.79422 0.0
H1657 H 0.42895 0.67628 0.78982 0.0
H1658 H 0.38027 0.76143 0.78792 0.0
H1659 H 0.51142 0.74612 0.79094 0.0
H1660 H 0.41118 0.70748 0.78475 0.0
H1661 H 0.48095 0.80106 0.78911 0.0
C1662 C 0.44801 0.80976 0.79134 0.0
C1663 C 0.41947 0.79903 0.7912 0.0
C1664 C 0.43321 0.71597 0.78584 0.0
C1665 C 0.44101 0.76413 0.78572 0.0
C1666 C 0.44339 0.6981 0.78867 0.0
C1667 C 0.47171 0.70854 0.79102 0.0
C1668 C 0.45144 0.74452 0.78557 0.0
C1669 C 0.48939 0.73711 0.78944 0.0
C1670 C 0.45888 0.79246 0.78843 0.0
C1671 C 0.40239 0.77084 0.7876 0.0
N1672 N 0.47893 0.75411 0.78707 0.0
N1673 N 0.41342 0.75434 0.7852 0.0
H1674 H 0.2329 0.76137 0.78555 0.0
H1675 H 0.22067 0.61411 0.7819 0.0
H1676 H 0.30192 0.74749 0.7848 0.0
H1677 H 0.15118 0.62611 0.78998 0.0
H1678 H 0.24944 0.66277 0.77526 0.0
H1679 H 0.20209 0.71234 0.77996 0.0
C1680 C 0.24168 0.74815 0.78392 0.0
C1681 C 0.27011 0.7586 0.78593 0.0
C1682 C 0.22777 0.65473 0.77809 0.0
C1683 C 0.23487 0.70243 0.77957 0.0
C1684 C 0.21112 0.6267 0.7816 0.0
C1685 C 0.18326 0.61582 0.78623 0.0
C1686 C 0.21667 0.67217 0.77955 0.0
C1687 C 0.17256 0.63368 0.78646 0.0
C1688 C 0.22403 0.72013 0.78075 0.0
C1689 C 0.28022 0.74044 0.78351 0.0
N1690 N 0.18935 0.66105 0.78338 0.0
N1691 N 0.2626 0.71322 0.78068 0.0
H1692 H 0.22208 0.46782 0.78477 0.0
H1693 H 0.37111 0.60019 0.78227 0.0
H1694 H 0.23822 0.55154 0.78577 0.0
H1695 H 0.3563 0.51744 0.78898 0.0
H1696 H 0.32276 0.58189 0.77539 0.0
H1697 H 0.27073 0.48495 0.77853 0.0
C1698 C 0.23573 0.4898 0.78339 0.0
C1699 C 0.22606 0.5083 0.78613 0.0
C1700 C 0.33013 0.56766 0.77794 0.0
C1701 C 0.28184 0.528 0.77904 0.0
C1702 C 0.35799 0.57812 0.78159 0.0
C1703 C 0.36798 0.5603 0.78595 0.0
C1704 C 0.31197 0.5392 0.77897 0.0
C1705 C 0.34944 0.53188 0.7857 0.0
C1706 C 0.26353 0.49954 0.77982 0.0
C1707 C 0.24471 0.53651 0.78392 0.0
N1708 N 0.32225 0.5222 0.78249 0.0
N1709 N 0.27177 0.54551 0.78076 0.0
H1710 H 0.41444 0.85429 0.02029 0.0
H1711 H 0.44318 0.73758 0.05926 0.0
H1712 H 0.35147 0.7799 0.04687 0.0
H1713 H 0.48889 0.7925 0.01336 0.0
H1714 H 0.41424 0.75878 0.06089 0.0
H1715 H 0.44687 0.8377 0.02403 0.0
C1716 C 0.40746 0.83458 0.0271 0.0
C1717 C 0.38004 0.81827 0.03306 0.0
C1718 C 0.43065 0.76615 0.0505 0.0
C1719 C 0.41721 0.79934 0.03744 0.0
C1720 C 0.44698 0.75392 0.04942 0.0
C1721 C 0.46768 0.76249 0.03558 0.0
C1722 C 0.43558 0.78758 0.038 0.0
C1723 C 0.47281 0.78489 0.02399 0.0
C1724 C 0.426 0.82513 0.02916 0.0
C1725 C 0.37229 0.79298 0.04185 0.0
N1726 N 0.45672 0.79653 0.02536 0.0
N1727 N 0.39078 0.78421 0.04372 0.0
H1728 H 0.21412 0.57436 0.04739 0.0
H1729 H 0.18867 0.69573 0.02087 0.0
H1730 H 0.1333 0.56108 0.03407 0.0
H1731 H 0.25531 0.70862 0.05783 0.0
H1732 H 0.16829 0.64615 0.02518 0.0
H1733 H 0.2305 0.62352 0.05103 0.0
C1734 C 0.19973 0.58164 0.0455 0.0
C1735 C 0.17237 0.56353 0.04021 0.0
C1736 C 0.18735 0.65984 0.03239 0.0
C1737 C 0.19107 0.61973 0.04405 0.0
C1738 C 0.19902 0.68815 0.02992 0.0
C1739 C 0.22435 0.70631 0.03834 0.0
C1740 C 0.2012 0.64961 0.04327 0.0
C1741 C 0.23653 0.69532 0.05023 0.0
C1742 C 0.20908 0.60971 0.0476 0.0
C1743 C 0.15463 0.57423 0.038 0.0
N1744 N 0.22511 0.66763 0.05206 0.0
N1745 N 0.1644 0.60166 0.03962 0.0
H1746 H 0.42493 0.57014 0.04812 0.0
H1747 H 0.27816 0.55816 0.05064 0.0
H1748 H 0.41182 0.6396 0.05045 0.0
H1749 H 0.29045 0.48849 0.04503 0.0
H1750 H 0.32658 0.58716 0.05794 0.0
H1751 H 0.37611 0.53955 0.05422 0.0
C1752 C 0.41192 0.57907 0.0502 0.0
C1753 C 0.42248 0.60754 0.04831 0.0
C1754 C 0.31863 0.56541 0.05554 0.0
C1755 C 0.3664 0.57247 0.05518 0.0
C1756 C 0.29073 0.54864 0.05163 0.0
C1757 C 0.28003 0.52065 0.04745 0.0
C1758 C 0.33612 0.55429 0.05494 0.0
C1759 C 0.29787 0.50997 0.04813 0.0
C1760 C 0.38398 0.56152 0.05367 0.0
C1761 C 0.4046 0.61783 0.05144 0.0
N1762 N 0.32511 0.52686 0.05157 0.0
N1763 N 0.37737 0.60027 0.05442 0.0
H1764 H 0.1266 0.56797 0.52513 0.0
H1765 H 0.24808 0.54075 0.55482 0.0
H1766 H 0.20432 0.63176 0.54717 0.0
H1767 H 0.18616 0.49215 0.51332 0.0
H1768 H 0.22722 0.56972 0.55855 0.0
H1769 H 0.14317 0.53537 0.52755 0.0
C1770 C 0.14704 0.5751 0.53071 0.0
C1771 C 0.16426 0.60281 0.53572 0.0
C1772 C 0.21823 0.55268 0.54865 0.0
C1773 C 0.18323 0.56544 0.53854 0.0
C1774 C 0.23027 0.53632 0.54636 0.0
C1775 C 0.21956 0.51477 0.53309 0.0
C1776 C 0.19492 0.54698 0.53797 0.0
C1777 C 0.19542 0.5089 0.52341 0.0
C1778 C 0.15648 0.55645 0.532 0.0
C1779 C 0.19048 0.61072 0.54293 0.0
N1780 N 0.18402 0.52508 0.52592 0.0
N1781 N 0.19924 0.59214 0.54404 0.0
H1782 H 0.34371 0.56951 0.54534 0.0
H1783 H 0.49139 0.69342 0.52225 0.0
H1784 H 0.41201 0.55826 0.53016 0.0
H1785 H 0.43534 0.70365 0.55874 0.0
H1786 H 0.46224 0.64365 0.52501 0.0
H1787 H 0.37605 0.61853 0.5504 0.0
C1788 C 0.36546 0.57721 0.54329 0.0
C1789 C 0.37504 0.55975 0.53704 0.0
C1790 C 0.45633 0.65678 0.53246 0.0
C1791 C 0.41204 0.61576 0.54262 0.0
C1792 C 0.47296 0.68522 0.53088 0.0
C1793 C 0.46521 0.70276 0.53962 0.0
C1794 C 0.43165 0.64574 0.54277 0.0
C1795 C 0.44136 0.69092 0.55092 0.0
C1796 C 0.38391 0.60518 0.54623 0.0
C1797 C 0.40355 0.5709 0.5348 0.0
N1798 N 0.42512 0.66311 0.55189 0.0
N1799 N 0.42096 0.59824 0.5373 0.0
H1800 H 0.27621 0.72995 0.55795 0.0
H1801 H 0.42339 0.85201 0.52547 0.0
H1802 H 0.28785 0.79254 0.51745 0.0
H1803 H 0.41125 0.77528 0.54828 0.0
H1804 H 0.37428 0.83499 0.52885 0.0
H1805 H 0.32623 0.75077 0.56044 0.0
C1806 C 0.28926 0.74788 0.54942 0.0
C1807 C 0.27787 0.75885 0.53684 0.0
C1808 C 0.38241 0.82197 0.53324 0.0
C1809 C 0.33493 0.78341 0.5403 0.0
C1810 C 0.41049 0.83168 0.53139 0.0
C1811 C 0.42148 0.81489 0.53636 0.0
C1812 C 0.36513 0.79535 0.54024 0.0
C1813 C 0.40366 0.7888 0.54405 0.0
C1814 C 0.31776 0.75989 0.55102 0.0
C1815 C 0.29575 0.78309 0.52705 0.0
N1816 N 0.37629 0.77975 0.54566 0.0
N1817 N 0.3234 0.79444 0.52887 0.0
H1818 H 0.30625 0.5565 0.2828 0.0
H1819 H 0.15299 0.52789 0.28908 0.0
H1820 H 0.23484 0.47502 0.28221 0.0
H1821 H 0.22444 0.60892 0.28497 0.0
H1822 H 0.18203 0.50793 0.28197 0.0
H1823 H 0.27634 0.57591 0.27857 0.0
C1824 C 0.28436 0.54262 0.28142 0.0
C1825 C 0.2731 0.51406 0.2831 0.0
C1826 C 0.19125 0.5301 0.2822 0.0
C1827 C 0.23856 0.53624 0.27863 0.0
C1828 C 0.17468 0.54147 0.28626 0.0
C1829 C 0.18622 0.57009 0.28739 0.0
C1830 C 0.21969 0.54751 0.27964 0.0
C1831 C 0.21446 0.58679 0.28376 0.0
C1832 C 0.26722 0.55375 0.27907 0.0
C1833 C 0.24448 0.49718 0.28123 0.0
N1834 N 0.23026 0.57524 0.28027 0.0
N1835 N 0.22818 0.50853 0.27938 0.0
H1836 H 0.52008 0.76117 0.28678 0.0
H1837 H 0.38432 0.61523 0.27873 0.0
H1838 H 0.43807 0.74926 0.28295 0.0
H1839 H 0.46535 0.62598 0.28651 0.0
H1840 H 0.40476 0.66428 0.27338 0.0
H1841 H 0.50153 0.71245 0.28008 0.0
C1842 C 0.4982 0.74844 0.28429 0.0
C1843 C 0.48053 0.75932 0.28583 0.0
C1844 C 0.41817 0.6559 0.27585 0.0
C1845 C 0.45917 0.70336 0.27824 0.0
C1846 C 0.40648 0.62765 0.27863 0.0
C1847 C 0.42316 0.61627 0.2828 0.0
C1848 C 0.44673 0.67304 0.27757 0.0
C1849 C 0.45174 0.63391 0.28333 0.0
C1850 C 0.48764 0.72056 0.28048 0.0
C1851 C 0.45244 0.74179 0.28222 0.0
N1852 N 0.46262 0.66146 0.28096 0.0
N1853 N 0.44258 0.71461 0.27884 0.0
H1854 H 0.23875 0.69135 0.28164 0.0
H1855 H 0.36325 0.8284 0.31946 0.0
H1856 H 0.22825 0.75742 0.30346 0.0
H1857 H 0.37396 0.78396 0.27336 0.0
H1858 H 0.31352 0.80158 0.3148 0.0
H1859 H 0.28835 0.72336 0.27932 0.0
C1860 C 0.24679 0.71259 0.28573 0.0
C1861 C 0.22934 0.72161 0.29295 0.0
C1862 C 0.32679 0.79776 0.30567 0.0
C1863 C 0.28591 0.75809 0.29058 0.0
C1864 C 0.35516 0.81302 0.30834 0.0
C1865 C 0.37273 0.80759 0.29733 0.0
C1866 C 0.31591 0.77678 0.292 0.0
C1867 C 0.36112 0.78778 0.28288 0.0
C1868 C 0.27505 0.73085 0.28434 0.0
C1869 C 0.24089 0.74949 0.2979 0.0
N1870 N 0.33336 0.77268 0.28086 0.0
N1871 N 0.2685 0.76662 0.29693 0.0
H1872 H 0.94923 0.13487 0.29435 0.0
H1873 H 0.038 0.18048 0.19898 0.0
H1874 H 0.03543 0.19651 0.29354 0.0
H1875 H 0.95067 0.15068 0.20004 0.0
H1876 H 0.03786 0.17918 0.23382 0.0
H1877 H 0.9499 0.13303 0.25961 0.0
C1878 C 0.96831 0.14789 0.28688 0.0
C1879 C -0.00774 0.16603 0.29682 0.0
C1880 C 0.01877 0.1729 0.22635 0.0
C1881 C -0.00679 0.16378 0.25723 0.0
C1882 C 0.01882 0.17355 0.20653 0.0
C1883 C -0.00564 0.16588 0.19664 0.0
C1884 C -0.00599 0.16401 0.23626 0.0
C1885 C 0.97006 0.15706 0.20711 0.0
C1886 C 0.96865 0.14689 0.26709 0.0
C1887 C 0.01643 0.18244 0.28642 0.0
N1888 N 0.97047 0.15626 0.22635 0.0
N1889 N 0.01632 0.18087 0.26718 0.0
H1890 H 0.86292 0.84312 0.29373 0.0
H1891 H 0.78512 0.77053 0.19891 0.0
H1892 H 0.77645 0.78258 0.2933 0.0
H1893 H 0.84571 0.85702 0.19927 0.0
H1894 H 0.78675 0.77019 0.23361 0.0
H1895 H 0.86237 0.84393 0.25877 0.0
C1896 C 0.84397 0.82977 0.28627 0.0
C1897 C 0.81969 0.81276 0.29632 0.0
C1898 C 0.79962 0.78923 0.22607 0.0
C1899 C 0.81901 0.81344 0.25672 0.0
C1900 C 0.79872 0.78946 0.20633 0.0
C1901 C 0.81519 0.81389 0.19628 0.0
C1902 C 0.81763 0.81342 0.23581 0.0
C1903 C 0.83249 0.83785 0.20655 0.0
C1904 C 0.84363 0.83045 0.26643 0.0
C1905 C 0.79558 0.79606 0.28605 0.0
N1906 N 0.83351 0.83697 0.22583 0.0
N1907 N 0.79589 0.79666 0.2668 0.0
H1908 H 0.12812 0.95105 0.20359 0.0
H1909 H 0.17149 0.03987 0.29906 0.0
H1910 H 0.1876 0.03792 0.2048 0.0
H1911 H 0.14273 0.95271 0.29797 0.0
H1912 H 0.1691 0.03958 0.26427 0.0
H1913 H 0.12492 0.95153 0.23829 0.0
C1914 C 0.14035 0.97023 0.21113 0.0
C1915 C 0.15837 0.99441 0.20134 0.0
C1916 C 0.16322 0.02054 0.27172 0.0
C1917 C 0.15455 -0.00485 0.24084 0.0
C1918 C 0.16449 0.02068 0.29152 0.0
C1919 C 0.15758 -0.00365 0.30137 0.0
C1920 C 0.15452 -0.00417 0.2618 0.0
C1921 C 0.14858 0.97201 0.29092 0.0
C1922 C 0.13856 0.97047 0.23089 0.0
C1923 C 0.17371 0.01872 0.21181 0.0
N1924 N 0.14728 0.97236 0.2717 0.0
N1925 N 0.17143 0.01848 0.231 0.0
H1926 H 0.94535 0.79814 0.70484 0.0
H1927 H 0.03647 0.842 0.79758 0.0
H1928 H 0.0324 0.85677 0.70354 0.0
H1929 H 0.94959 0.81425 0.79948 0.0
H1930 H 0.03533 0.84474 0.76305 0.0
H1931 H 0.94626 0.80101 0.73946 0.0
C1932 C 0.96466 0.81169 0.71185 0.0
C1933 C 0.9889 0.82712 0.70131 0.0
C1934 C 0.01656 0.83825 0.77103 0.0
C1935 C 0.99006 0.83027 0.7409 0.0
C1936 C 0.01712 0.83649 0.79072 0.0
C1937 C -0.00699 0.82769 0.80141 0.0
C1938 C 0.99161 0.83065 0.76187 0.0
C1939 C 0.96862 0.8211 0.79178 0.0
C1940 C 0.9651 0.81341 0.73159 0.0
C1941 C 0.01326 0.84452 0.71112 0.0
N1942 N 0.96846 0.8224 0.7725 0.0
N1943 N 0.01329 0.84537 0.73041 0.0
H1944 H 0.19699 0.21894 0.80273 0.0
H1945 H 0.12648 0.14692 0.70585 0.0
H1946 H 0.14024 0.13151 0.80036 0.0
H1947 H 0.21132 0.21169 0.70835 0.0
H1948 H 0.12534 0.14518 0.74076 0.0
H1949 H 0.19706 0.22062 0.76801 0.0
C1950 C 0.18459 0.20009 0.79487 0.0
C1951 C 0.1687 0.17501 0.80436 0.0
C1952 C 0.1441 0.15982 0.73358 0.0
C1953 C 0.16818 0.17698 0.76481 0.0
C1954 C 0.14469 0.16102 0.71375 0.0
C1955 C 0.16904 0.17949 0.70429 0.0
C1956 C 0.16779 0.17769 0.74388 0.0
C1957 C 0.19218 0.19711 0.71514 0.0
C1958 C 0.18467 0.20109 0.77512 0.0
C1959 C 0.15297 0.15119 0.79353 0.0
N1960 N 0.19095 0.19591 0.73438 0.0
N1961 N 0.15287 0.15279 0.77426 0.0
H1962 H 0.7834 0.95163 0.78801 0.0
H1963 H 0.83767 0.04143 0.69458 0.0
H1964 H 0.84702 0.0371 0.78958 0.0
H1965 H 0.80543 0.95364 0.69431 0.0
H1966 H 0.83727 0.04072 0.72927 0.0
H1967 H 0.78698 0.95242 0.75346 0.0
C1968 C 0.79808 0.97061 0.78108 0.0
C1969 C 0.81488 0.9944 0.79169 0.0
C1970 C 0.83044 0.02166 0.7216 0.0
C1971 C 0.81892 -0.00462 0.75214 0.0
C1972 C 0.83051 0.02199 0.70183 0.0
C1973 C 0.82145 -0.0025 0.69156 0.0
C1974 C 0.82074 -0.00339 0.73119 0.0
C1975 C 0.81261 0.97297 0.70168 0.0
C1976 C 0.80022 0.97096 0.76138 0.0
C1977 C 0.8337 0.01832 0.78195 0.0
N1978 N 0.8122 0.97309 0.72097 0.0
N1979 N 0.83505 0.01828 0.76267 0.0
H1980 H 0.70339 0.51434 0.53838 0.0
H1981 H 0.6171 0.46952 0.63478 0.0
H1982 H 0.61753 0.49071 0.54125 0.0
H1983 H 0.70416 0.52824 0.63358 0.0
H1984 H 0.61697 0.46885 0.59999 0.0
H1985 H 0.70405 0.51149 0.57318 0.0
C1986 C 0.6847 0.50845 0.54631 0.0
C1987 C 0.66045 0.503 0.53697 0.0
C1988 C 0.63608 0.4818 0.6074 0.0
C1989 C 0.66096 0.49928 0.57648 0.0
C1990 C 0.63619 0.48213 0.62721 0.0
C1991 C 0.66062 0.49915 0.63705 0.0
C1992 C 0.66066 0.49819 0.59742 0.0
C1993 C 0.6848 0.51506 0.62653 0.0
C1994 C 0.68511 0.5069 0.5661 0.0
C1995 C 0.63677 0.49541 0.5479 0.0
N1996 N 0.68423 0.51414 0.60727 0.0
N1997 N 0.63759 0.49366 0.56706 0.0
H1998 H 0.43797 0.1241 0.62685 0.0
H1999 H 0.51313 0.1985 0.53155 0.0
H2000 H 0.52549 0.18074 0.62638 0.0
H2001 H 0.44982 0.11299 0.53283 0.0
H2002 H 0.51366 0.19871 0.56654 0.0
H2003 H 0.43775 0.126 0.59216 0.0
C2004 C 0.45713 0.13696 0.61942 0.0
C2005 C 0.48183 0.15216 0.62943 0.0
C2006 C 0.49963 0.18002 0.55906 0.0
C2007 C 0.48153 0.15487 0.58991 0.0
C2008 C 0.49915 0.17994 0.5392 0.0
C2009 C 0.48143 0.15568 0.5294 0.0
C2010 C 0.48174 0.15589 0.56899 0.0
C2011 C 0.46387 0.13207 0.5399 0.0
C2012 C 0.45697 0.13799 0.59969 0.0
C2013 C 0.50609 0.1685 0.61913 0.0
N2014 N 0.46432 0.13281 0.55914 0.0
N2015 N 0.50532 0.16965 0.59986 0.0
H2016 H 0.86082 0.30329 0.63423 0.0
H2017 H 0.78937 0.30568 0.53789 0.0
H2018 H 0.80526 0.33541 0.63226 0.0
H2019 H 0.87382 0.32445 0.53984 0.0
H2020 H 0.78843 0.30562 0.57282 0.0
H2021 H 0.85967 0.3006 0.59955 0.0
C2022 C 0.84837 0.30977 0.62648 0.0
C2023 C 0.83323 0.31975 0.63606 0.0
C2024 C 0.80703 0.30954 0.56551 0.0
C2025 C 0.83138 0.31609 0.59656 0.0
C2026 C 0.80751 0.30931 0.54568 0.0
C2027 C 0.83172 0.31509 0.53607 0.0
C2028 C 0.8307 0.31489 0.57565 0.0
C2029 C 0.85479 0.32 0.54676 0.0
C2030 C 0.84777 0.30824 0.60674 0.0
C2031 C 0.81744 0.32786 0.62535 0.0
N2032 N 0.85368 0.31964 0.566 0.0
N2033 N 0.81671 0.32563 0.6061 0.0
H2034 H 0.61685 0.14508 0.13234 0.0
H2035 H 0.70273 0.18896 0.03549 0.0
H2036 H 0.70393 0.17393 0.12989 0.0
H2037 H 0.61687 0.12665 0.03813 0.0
H2038 H 0.70308 0.19275 0.07024 0.0
H2039 H 0.6162 0.14738 0.09752 0.0
C2040 C 0.63582 0.15211 0.1245 0.0
C2041 C 0.6604 0.159 0.13394 0.0
C2042 C 0.68418 0.17837 0.06312 0.0
C2043 C 0.65988 0.16206 0.09441 0.0
C2044 C 0.68396 0.17625 0.04336 0.0
C2045 C 0.65984 0.15723 0.03398 0.0
C2046 C 0.65998 0.16177 0.07345 0.0
C2047 C 0.63602 0.1413 0.04483 0.0
C2048 C 0.63542 0.15334 0.10469 0.0
C2049 C 0.68445 0.16805 0.12313 0.0
N2050 N 0.63667 0.14395 0.064 0.0
N2051 N 0.6836 0.16934 0.10393 0.0
H2052 H 0.86478 0.55015 0.13519 0.0
H2053 H 0.79027 0.47984 0.03881 0.0
H2054 H 0.80408 0.46374 0.13348 0.0
H2055 H 0.87598 0.54244 0.04098 0.0
H2056 H 0.78954 0.47781 0.07376 0.0
H2057 H 0.86407 0.5516 0.10055 0.0
C2058 C 0.85136 0.53145 0.12748 0.0
C2059 C 0.83457 0.50674 0.13715 0.0
C2060 C 0.8084 0.49203 0.06649 0.0
C2061 C 0.83321 0.50847 0.09761 0.0
C2062 C 0.80875 0.49342 0.04665 0.0
C2063 C 0.83322 0.51137 0.03709 0.0
C2064 C 0.83247 0.5092 0.07668 0.0
C2065 C 0.85673 0.52829 0.04784 0.0
C2066 C 0.85098 0.53231 0.10776 0.0
C2067 C 0.81754 0.48311 0.12649 0.0
N2068 N 0.85574 0.52692 0.06707 0.0
N2069 N 0.81705 0.4846 0.10721 0.0
H2070 H 0.47705 0.28634 0.02839 0.0
H2071 H 0.51966 0.3738 0.12445 0.0
H2072 H 0.50763 0.37383 0.02973 0.0
H2073 H 0.45803 0.28763 0.12247 0.0
H2074 H 0.52318 0.37379 0.08973 0.0
H2075 H 0.47784 0.28613 0.06326 0.0
C2076 C 0.48413 0.30549 0.036 0.0
C2077 C 0.49203 0.33008 0.02619 0.0
C2078 C 0.50895 0.35491 0.09696 0.0
C2079 C 0.49327 0.33003 0.06584 0.0
C2080 C 0.50696 0.3549 0.11673 0.0
C2081 C 0.48834 0.33076 0.12633 0.0
C2082 C 0.49258 0.33051 0.08681 0.0
C2083 C 0.47243 0.30679 0.11563 0.0
C2084 C 0.48447 0.30534 0.05584 0.0
C2085 C 0.50104 0.35434 0.03674 0.0
N2086 N 0.47497 0.30725 0.09644 0.0
N2087 N 0.50146 0.35372 0.05598 0.0
H2088 H 0.33634 0.80901 0.86681 0.0
H2089 H 0.31836 0.8772 0.95938 0.0
H2090 H 0.29988 0.86085 0.86512 0.0
H2091 H 0.30708 0.79539 0.96122 0.0
H2092 H 0.31746 0.87514 0.92467 0.0
H2093 H 0.33238 0.80751 0.90162 0.0
C2094 C 0.32768 0.82019 0.87377 0.0
C2095 C 0.31848 0.83514 0.86312 0.0
C2096 C 0.31488 0.85753 0.93268 0.0
C2097 C 0.31408 0.83359 0.90264 0.0
C2098 C 0.31538 0.85868 0.95242 0.0
C2099 C 0.31265 0.83637 0.96307 0.0
C2100 C 0.31246 0.83423 0.92353 0.0
C2101 C 0.30896 0.81288 0.95344 0.0
C2102 C 0.3252 0.8191 0.89354 0.0
C2103 C 0.30718 0.84904 0.87279 0.0
N2104 N 0.3094 0.81256 0.93413 0.0
N2105 N 0.30555 0.84816 0.89202 0.0
H2106 H 0.14301 0.52027 0.86784 0.0
H2107 H 0.1851 0.47524 0.96384 0.0
H2108 H 0.16994 0.46047 0.86891 0.0
H2109 H 0.12464 0.50127 0.96169 0.0
H2110 H 0.18798 0.4777 0.92901 0.0
H2111 H 0.14465 0.52176 0.90263 0.0
C2112 C 0.14944 0.50763 0.87538 0.0
C2113 C 0.15609 0.49003 0.86552 0.0
C2114 C 0.17415 0.48289 0.93625 0.0
C2115 C 0.15831 0.49188 0.90511 0.0
C2116 C 0.17255 0.48155 0.95606 0.0
C2117 C 0.15442 0.4878 0.96562 0.0
C2118 C 0.15796 0.4911 0.92607 0.0
C2119 C 0.13865 0.49594 0.95487 0.0
C2120 C 0.15028 0.50841 0.89518 0.0
C2121 C 0.16433 0.47409 0.87598 0.0
N2122 N 0.14086 0.49746 0.93568 0.0
N2123 N 0.16526 0.47543 0.89523 0.0
H2124 H 0.50382 0.69968 0.9653 0.0
H2125 H 0.46245 0.61155 0.86961 0.0
H2126 H 0.47717 0.61298 0.96442 0.0
H2127 H 0.52118 0.6986 0.8713 0.0
H2128 H 0.45961 0.61148 0.9044 0.0
H2129 H 0.50202 0.69932 0.93051 0.0
C2130 C 0.4974 0.68056 0.95781 0.0
C2131 C 0.49088 0.65639 0.96773 0.0
C2132 C 0.47305 0.63055 0.89708 0.0
C2133 C 0.48853 0.65579 0.92812 0.0
C2134 C 0.47463 0.63062 0.87728 0.0
C2135 C 0.49227 0.65506 0.86759 0.0
C2136 C 0.48879 0.65518 0.90715 0.0
C2137 C 0.50756 0.67922 0.87821 0.0
C2138 C 0.49648 0.68039 0.938 0.0
C2139 C 0.48267 0.63216 0.95731 0.0
N2140 N 0.50541 0.6787 0.89741 0.0
N2141 N 0.48168 0.63245 0.93806 0.0
H2142 H 0.27727 0.47414 0.45798 0.0
H2143 H 0.36575 0.51819 0.36234 0.0
H2144 H 0.36377 0.50012 0.45633 0.0
H2145 H 0.27866 0.45957 0.36308 0.0
H2146 H 0.36524 0.51958 0.39711 0.0
H2147 H 0.27732 0.47643 0.42313 0.0
C2148 C 0.29625 0.48045 0.45031 0.0
C2149 C 0.32048 0.48669 0.46002 0.0
C2150 C 0.34627 0.50648 0.3896 0.0
C2151 C 0.32076 0.48972 0.42043 0.0
C2152 C 0.34653 0.50572 0.3698 0.0
C2153 C 0.32227 0.48855 0.35982 0.0
C2154 C 0.32149 0.49034 0.39945 0.0
C2155 C 0.29791 0.47286 0.37022 0.0
C2156 C 0.29624 0.48166 0.43048 0.0
C2157 C 0.34454 0.4948 0.44941 0.0
N2158 N 0.29811 0.47418 0.38947 0.0
N2159 N 0.34409 0.49617 0.4302 0.0
H2160 H 0.47085 0.78988 0.46376 0.0
H2161 H 0.55074 0.8582 0.36809 0.0
H2162 H 0.54029 0.87237 0.46148 0.0
H2163 H 0.46239 0.80638 0.36831 0.0
H2164 H 0.55063 0.85625 0.40272 0.0
H2165 H 0.47103 0.78816 0.42878 0.0
C2166 C 0.48638 0.80737 0.4559 0.0
C2167 C 0.5056 0.83131 0.46539 0.0
C2168 C 0.53129 0.84529 0.39516 0.0
C2169 C 0.506 0.8294 0.42583 0.0
C2170 C 0.5313 0.84635 0.37544 0.0
C2171 C 0.5065 0.83257 0.36535 0.0
C2172 C 0.50637 0.82987 0.4049 0.0
C2173 C 0.48191 0.81753 0.3756 0.0
C2174 C 0.48629 0.80647 0.43604 0.0
C2175 C 0.5251 0.85358 0.45464 0.0
N2176 N 0.48246 0.8164 0.39489 0.0
N2177 N 0.5249 0.85205 0.43543 0.0
H2178 H 0.17532 0.64914 0.3685 0.0
H2179 H 0.10274 0.65918 0.46189 0.0
H2180 H 0.11847 0.67974 0.36778 0.0
H2181 H 0.18655 0.67591 0.46321 0.0
H2182 H 0.10427 0.65954 0.42719 0.0
H2183 H 0.17558 0.65095 0.4034 0.0
C2184 C 0.16271 0.65595 0.37569 0.0
C2185 C 0.14683 0.66428 0.36532 0.0
C2186 C 0.12238 0.66334 0.43508 0.0
C2187 C 0.14697 0.66627 0.40489 0.0
C2188 C 0.12154 0.66315 0.45483 0.0
C2189 C 0.14461 0.66766 0.46534 0.0
C2190 C 0.14621 0.66734 0.4258 0.0
C2191 C 0.16845 0.67263 0.45555 0.0
C2192 C 0.16309 0.65724 0.39551 0.0
C2193 C 0.13107 0.67322 0.37527 0.0
N2194 N 0.16854 0.67198 0.43624 0.0
N2195 N 0.13137 0.67378 0.39452 0.0
H2196 H 0.08219 0.40384 0.08186 0.0
H2197 H 0.05488 0.2496 0.07929 0.0
H2198 H 0.12287 0.37683 0.04272 0.0
H2199 H 0.02784 0.28161 0.12491 0.0
H2200 H 0.07857 0.29551 0.06484 0.0
H2201 H 0.06041 0.3585 0.09709 0.0
C2202 C 0.08655 0.38829 0.07656 0.0
C2203 C 0.10428 0.39388 0.06111 0.0
C2204 C 0.06751 0.29251 0.07803 0.0
C2205 C 0.07951 0.34213 0.07827 0.0
C2206 C 0.05409 0.26638 0.08628 0.0
C2207 C 0.03947 0.26196 0.10327 0.0
C2208 C 0.06607 0.31425 0.08681 0.0
C2209 C 0.03869 0.28419 0.11167 0.0
C2210 C 0.07421 0.3625 0.08524 0.0
C2211 C 0.10942 0.37324 0.05473 0.0
N2212 N 0.05175 0.30938 0.10333 0.0
N2213 N 0.09698 0.34817 0.06328 0.0
H2214 H 0.6126 0.70084 0.0346 0.0
H2215 H 0.70724 0.78785 0.12189 0.0
H2216 H 0.57976 0.71287 0.08672 0.0
H2217 H 0.73509 0.75467 0.07758 0.0
H2218 H 0.66149 0.76585 0.1072 0.0
H2219 H 0.65885 0.72522 0.04837 0.0
C2220 C 0.61524 0.70871 0.04895 0.0
C2221 C 0.59255 0.70519 0.05952 0.0
C2222 C 0.67763 0.76347 0.10065 0.0
C2223 C 0.64516 0.7332 0.07527 0.0
C2224 C 0.70368 0.77614 0.10894 0.0
C2225 C 0.72471 0.77295 0.10085 0.0
C2226 C 0.67277 0.74775 0.08409 0.0
C2227 C 0.71923 0.75745 0.0842 0.0
C2228 C 0.64155 0.72262 0.05678 0.0
C2229 C 0.59688 0.71574 0.078 0.0
N2230 N 0.69375 0.7454 0.07634 0.0
N2231 N 0.62273 0.72938 0.0853 0.0
H2232 H 0.20141 0.91453 0.13016 0.0
H2233 H 0.28194 0.90984 0.03823 0.0
H2234 H 0.23259 0.97779 0.08732 0.0
H2235 H 0.27918 0.8675 0.08992 0.0
H2236 H 0.25872 0.93109 0.05453 0.0
H2237 H 0.22447 0.89268 0.11407 0.0
C2238 C 0.21307 0.92367 0.11731 0.0
C2239 C 0.21525 0.94786 0.10995 0.0
C2240 C 0.26316 0.91712 0.06231 0.0
C2241 C 0.24136 0.92319 0.09155 0.0
C2242 C 0.2764 0.90505 0.05304 0.0
C2243 C 0.28226 0.88684 0.06277 0.0
C2244 C 0.25546 0.91066 0.0814 0.0
C2245 C 0.27451 0.88106 0.08187 0.0
C2246 C 0.22627 0.91135 0.10822 0.0
C2247 C 0.23059 0.95915 0.09338 0.0
N2248 N 0.26136 0.89287 0.09059 0.0
N2249 N 0.24299 0.94663 0.08466 0.0
H2250 H 0.27757 0.0767 0.3716 0.0
H2251 H 0.37115 0.08204 0.45854 0.0
H2252 H 0.2497 0.01373 0.41455 0.0
H2253 H 0.40535 0.12678 0.40656 0.0
H2254 H 0.32528 0.06031 0.4443 0.0
H2255 H 0.32358 0.09941 0.386 0.0
C2256 C 0.28123 0.06783 0.38414 0.0
C2257 C 0.2601 0.04344 0.39199 0.0
C2258 C 0.3428 0.07492 0.436 0.0
C2259 C 0.31219 0.06905 0.40845 0.0
C2260 C 0.3689 0.08725 0.4441 0.0
C2261 C 0.39186 0.10631 0.4337 0.0
C2262 C 0.33965 0.08189 0.41742 0.0
C2263 C 0.388 0.11257 0.41512 0.0
C2264 C 0.30739 0.08063 0.39227 0.0
C2265 C 0.26564 0.03251 0.40812 0.0
N2266 N 0.36231 0.10045 0.40755 0.0
N2267 N 0.29118 0.04545 0.41589 0.0
H2268 H 0.89955 0.31364 0.41599 0.0
H2269 H 0.92651 0.1867 0.41293 0.0
H2270 H 0.85823 0.24326 0.45287 0.0
H2271 H 0.95228 0.24741 0.36848 0.0
H2272 H 0.90262 0.20787 0.42853 0.0
H2273 H 0.92063 0.29067 0.39903 0.0
C2274 C 0.89486 0.29326 0.4204 0.0
C2275 C 0.87718 0.2802 0.43573 0.0
C2276 C 0.91339 0.2165 0.41532 0.0
C2277 C 0.9012 0.25391 0.41664 0.0
C2278 C 0.92691 0.20438 0.40641 0.0
C2279 C 0.94125 0.21535 0.38942 0.0
C2280 C 0.91449 0.23992 0.40724 0.0
C2281 C 0.94161 0.23852 0.38168 0.0
C2282 C 0.9068 0.28014 0.41074 0.0
C2283 C 0.87163 0.25383 0.44097 0.0
N2284 N 0.92851 0.25012 0.39068 0.0
N2285 N 0.88374 0.24158 0.43151 0.0
H2286 H 0.7873 0.70663 0.37385 0.0
H2287 H 0.70491 0.62135 0.46557 0.0
H2288 H 0.7572 0.73959 0.41682 0.0
H2289 H 0.70961 0.58248 0.41406 0.0
H2290 H 0.72935 0.66618 0.4497 0.0
H2291 H 0.7647 0.66209 0.39035 0.0
C2292 C 0.7761 0.70444 0.38687 0.0
C2293 C 0.77401 0.72656 0.3941 0.0
C2294 C 0.72512 0.64786 0.44188 0.0
C2295 C 0.74824 0.67608 0.41293 0.0
C2296 C 0.71118 0.62235 0.45091 0.0
C2297 C 0.70554 0.59838 0.44111 0.0
C2298 C 0.73366 0.64935 0.42297 0.0
C2299 C 0.71412 0.60063 0.42219 0.0
C2300 C 0.76311 0.67909 0.39619 0.0
C2301 C 0.75916 0.72286 0.41088 0.0
N2302 N 0.72787 0.62573 0.41372 0.0
N2303 N 0.74686 0.69806 0.41979 0.0
H2304 H 0.94446 0.74342 0.92291 0.0
H2305 H 0.90056 0.58473 0.91709 0.0
H2306 H 0.95232 0.70603 0.87164 0.0
H2307 H 0.86712 0.61633 0.95863 0.0
H2308 H 0.92369 0.62996 0.90153 0.0
H2309 H 0.92015 0.69787 0.93785 0.0
C2310 C 0.94077 0.72553 0.91476 0.0
C2311 C 0.94982 0.72826 0.89594 0.0
C2312 C 0.91115 0.62695 0.91397 0.0
C2313 C 0.92287 0.67639 0.913 0.0
C2314 C 0.89801 0.60124 0.9228 0.0
C2315 C 0.88192 0.59701 0.93902 0.0
C2316 C 0.90847 0.64861 0.92164 0.0
C2317 C 0.87923 0.61889 0.94603 0.0
C2318 C 0.92706 0.69962 0.92329 0.0
C2319 C 0.94551 0.70466 0.88619 0.0
N2320 N 0.89255 0.64388 0.93737 0.0
N2321 N 0.93236 0.67967 0.89484 0.0
H2322 H 0.24679 0.2329 0.92334 0.0
H2323 H 0.40457 0.27778 0.90644 0.0
H2324 H 0.27393 0.20245 0.87687 0.0
H2325 H 0.37371 0.28908 0.95969 0.0
H2326 H 0.35731 0.25253 0.89433 0.0
H2327 H 0.29369 0.25607 0.93614 0.0
C2328 C 0.2627 0.231 0.91596 0.0
C2329 C 0.25671 0.2158 0.89914 0.0
C2330 C 0.36086 0.26041 0.9087 0.0
C2331 C 0.31023 0.24233 0.91342 0.0
C2332 C 0.38776 0.27466 0.91561 0.0
C2333 C 0.39283 0.28511 0.93413 0.0
C2334 C 0.33901 0.25694 0.92035 0.0
C2335 C 0.37053 0.2813 0.9453 0.0
C2336 C 0.28938 0.24416 0.92321 0.0
C2337 C 0.27785 0.21388 0.88998 0.0
N2338 N 0.34456 0.26756 0.93824 0.0
N2339 N 0.30378 0.22717 0.89717 0.0
H2340 H 0.74403 0.12763 0.95216 0.0
H2341 H 0.73482 0.03069 0.8661 0.0
H2342 H 0.67014 0.07959 0.91962 0.0
H2343 H 0.79569 0.0556 0.91031 0.0
H2344 H 0.71373 0.05361 0.88301 0.0
H2345 H 0.76646 0.10674 0.93428 0.0
C2346 C 0.73264 0.11278 0.94115 0.0
C2347 C 0.70525 0.10514 0.93734 0.0
C2348 C 0.73172 0.05409 0.889 0.0
C2349 C 0.73061 0.08132 0.91689 0.0
C2350 C 0.74369 0.04098 0.8794 0.0
C2351 C 0.76689 0.04118 0.88692 0.0
C2352 C 0.74324 0.06777 0.90613 0.0
C2353 C 0.77792 0.0552 0.904 0.0
C2354 C 0.74535 0.10078 0.93105 0.0
C2355 C 0.69124 0.08575 0.92305 0.0
N2356 N 0.76601 0.06799 0.91305 0.0
N2357 N 0.7041 0.07452 0.91329 0.0
H2358 H 0.6111 0.90738 0.53508 0.0
H2359 H 0.70802 0.92053 0.622 0.0
H2360 H 0.57871 0.869 0.58923 0.0
H2361 H 0.73483 0.97858 0.57583 0.0
H2362 H 0.66129 0.8972 0.60876 0.0
H2363 H 0.65755 0.92991 0.54838 0.0
C2364 C 0.61385 0.90373 0.5498 0.0
C2365 C 0.59118 0.88625 0.56108 0.0
C2366 C 0.67739 0.91504 0.60153 0.0
C2367 C 0.64416 0.91159 0.57632 0.0
C2368 C 0.70398 0.9282 0.60901 0.0
C2369 C 0.72506 0.95137 0.5999 0.0
C2370 C 0.67207 0.92499 0.58473 0.0
C2371 C 0.71897 0.96076 0.58322 0.0
C2372 C 0.64031 0.91653 0.55736 0.0
C2373 C 0.59576 0.88194 0.57999 0.0
N2374 N 0.69302 0.94746 0.5761 0.0
N2375 N 0.6218 0.89448 0.58704 0.0
H2376 H 0.02925 0.74413 0.63346 0.0
H2377 H 0.12015 0.74126 0.54747 0.0
H2378 H 0.04339 0.79194 0.58254 0.0
H2379 H 0.07604 0.67201 0.58494 0.0
H2380 H 0.09862 0.7647 0.56327 0.0
H2381 H 0.05202 0.7212 0.61861 0.0
C2382 C 0.03725 0.74982 0.61917 0.0
C2383 C 0.03489 0.77019 0.60927 0.0
C2384 C 0.09373 0.74442 0.56807 0.0
C2385 C 0.06114 0.74448 0.59238 0.0
C2386 C 0.10613 0.73118 0.55919 0.0
C2387 C 0.09976 0.70479 0.565 0.0
C2388 C 0.07516 0.73126 0.58303 0.0
C2389 C 0.08132 0.69238 0.58008 0.0
C2390 C 0.05022 0.7368 0.61074 0.0
C2391 C 0.04553 0.77688 0.59082 0.0
N2392 N 0.06967 0.70577 0.58866 0.0
N2393 N 0.05838 0.76418 0.58298 0.0
H2394 H 0.18681 0.2497 0.58274 0.0
H2395 H 0.31228 0.40377 0.57611 0.0
H2396 H 0.24592 0.28845 0.62769 0.0
H2397 H 0.23919 0.37451 0.54209 0.0
H2398 H 0.29017 0.36019 0.59368 0.0
H2399 H 0.20725 0.29403 0.56606 0.0
C2400 C 0.20397 0.26761 0.58913 0.0
C2401 C 0.21477 0.2655 0.60656 0.0
C2402 C 0.27891 0.36333 0.58243 0.0
C2403 C 0.23852 0.31594 0.58751 0.0
C2404 C 0.29155 0.38809 0.57239 0.0
C2405 C 0.27748 0.39253 0.55768 0.0
C2406 C 0.25214 0.34279 0.57753 0.0
C2407 C 0.2506 0.37179 0.55344 0.0
C2408 C 0.21566 0.29282 0.57961 0.0
C2409 C 0.23725 0.28917 0.61414 0.0
N2410 N 0.23883 0.34768 0.56322 0.0
N2411 N 0.24849 0.31337 0.60452 0.0
H2412 H 0.06802 0.41881 0.75084 0.0
H2413 H 0.91347 0.39058 0.75235 0.0
H2414 H 0.03967 0.45764 0.79054 0.0
H2415 H 0.94602 0.36161 0.70829 0.0
H2416 H 0.95939 0.41551 0.7667 0.0
H2417 H 0.02313 0.39737 0.73517 0.0
C2418 C 0.05224 0.42279 0.75618 0.0
C2419 C 0.0573 0.43985 0.77193 0.0
C2420 C 0.95651 0.40378 0.75385 0.0
C2421 C 0.00606 0.41555 0.75424 0.0
C2422 C 0.93039 0.38968 0.74567 0.0
C2423 C 0.92611 0.37401 0.72924 0.0
C2424 C 0.97835 0.40201 0.74553 0.0
C2425 C 0.9485 0.37321 0.72114 0.0
C2426 C 0.0267 0.41068 0.74725 0.0
C2427 C 0.03643 0.44465 0.77833 0.0
N2428 N 0.97364 0.38692 0.72941 0.0
N2429 N 0.0116 0.43242 0.76951 0.0
H2430 H 0.59755 0.51949 0.75429 0.0
H2431 H 0.56636 0.64393 0.752 0.0
H2432 H 0.62381 0.57898 0.70901 0.0
H2433 H 0.52813 0.57664 0.79166 0.0
H2434 H 0.58914 0.62141 0.73673 0.0
H2435 H 0.57321 0.54088 0.76896 0.0
C2436 C 0.59803 0.53699 0.74743 0.0
C2437 C 0.6126 0.54754 0.73046 0.0
C2438 C 0.57568 0.61147 0.74872 0.0
C2439 C 0.58525 0.57229 0.74716 0.0
C2440 C 0.56277 0.62434 0.75742 0.0
C2441 C 0.54541 0.612 0.77301 0.0
C2442 C 0.57131 0.58617 0.75579 0.0
C2443 C 0.54126 0.58663 0.77954 0.0
C2444 C 0.58424 0.54923 0.75579 0.0
C2445 C 0.61298 0.57044 0.72221 0.0
N2446 N 0.55422 0.57456 0.77094 0.0
N2447 N 0.59955 0.5821 0.73066 0.0
H2448 H 0.34384 0.91422 0.74384 0.0
H2449 H 0.46881 0.06962 0.7457 0.0
H2450 H 0.4079 0.94469 0.786 0.0
H2451 H 0.40852 0.03615 0.701 0.0
H2452 H 0.44786 0.02384 0.76033 0.0
H2453 H 0.36809 0.95858 0.72747 0.0
C2454 C 0.36314 0.93032 0.74954 0.0
C2455 C 0.37395 0.92603 0.76623 0.0
C2456 C 0.43928 0.02647 0.74727 0.0
C2457 C 0.40177 0.97675 0.74776 0.0
C2458 C 0.45126 0.05252 0.73894 0.0
C2459 C 0.44021 0.05651 0.72223 0.0
C2460 C 0.41604 0.00438 0.73883 0.0
C2461 C 0.41738 0.03389 0.71404 0.0
C2462 C 0.37701 0.95558 0.74022 0.0
C2463 C 0.39905 0.94731 0.77308 0.0
N2464 N 0.40597 0.0088 0.72246 0.0
N2465 N 0.41207 0.97189 0.76387 0.0
H2466 H 0.57877 0.04462 0.21182 0.0
H2467 H 0.58002 0.94934 0.29522 0.0
H2468 H 0.64956 0.06858 0.24739 0.0
H2469 H 0.52838 0.91639 0.24587 0.0
H2470 H 0.60209 -0.00484 0.28066 0.0
H2471 H 0.55575 -0.00069 0.2272 0.0
C2472 C 0.58931 0.04031 0.22299 0.0
C2473 C 0.61601 0.0601 0.22839 0.0
C2474 C 0.58585 0.97791 0.27307 0.0
C2475 C 0.59 0.0087 0.24598 0.0
C2476 C 0.5733 0.95185 0.28133 0.0
C2477 C 0.55221 0.92925 0.27177 0.0
C2478 C 0.57699 0.98138 0.2552 0.0
C2479 C 0.54413 0.93347 0.25387 0.0
C2480 C 0.57631 0.0145 0.23164 0.0
C2481 C 0.62899 0.05365 0.24281 0.0
N2482 N 0.55646 0.95911 0.24617 0.0
N2483 N 0.61581 0.02847 0.25119 0.0
H2484 H 0.91463 0.5717 0.2544 0.0
H2485 H 0.06877 0.6002 0.24782 0.0
H2486 H 0.93921 0.52849 0.21568 0.0
H2487 H 0.03857 0.62692 0.29473 0.0
H2488 H 0.02181 0.57459 0.23515 0.0
H2489 H 0.96044 0.59334 0.26886 0.0
C2490 C 0.92972 0.56672 0.24905 0.0
C2491 C 0.92337 0.54844 0.23387 0.0
C2492 C 0.02545 0.58596 0.24826 0.0
C2493 C 0.97564 0.57305 0.25013 0.0
C2494 C 0.05217 0.60048 0.25548 0.0
C2495 C 0.05741 0.61571 0.27224 0.0
C2496 C 0.00398 0.58696 0.25784 0.0
C2497 C 0.03536 0.6157 0.28159 0.0
C2498 C 0.95578 0.57897 0.2573 0.0
C2499 C 0.94341 0.54241 0.22746 0.0
N2500 N 0.00962 0.60168 0.27421 0.0
N2501 N 0.96878 0.55488 0.23552 0.0
H2502 H 0.46239 0.38876 0.24473 0.0
H2503 H 0.33681 0.41839 0.24351 0.0
H2504 H 0.40455 0.36528 0.19864 0.0
H2505 H 0.40264 0.45447 0.2843 0.0
H2506 H 0.36013 0.39679 0.22767 0.0
H2507 H 0.43993 0.41149 0.26025 0.0
C2508 C 0.44504 0.38856 0.23786 0.0
C2509 C 0.43524 0.37519 0.22043 0.0
C2510 C 0.36956 0.40949 0.24005 0.0
C2511 C 0.40926 0.40071 0.23811 0.0
C2512 C 0.35621 0.42169 0.24909 0.0
C2513 C 0.36793 0.43817 0.26514 0.0
C2514 C 0.39472 0.41367 0.24723 0.0
C2515 C 0.39311 0.44202 0.27184 0.0
C2516 C 0.43218 0.40142 0.24672 0.0
C2517 C 0.41252 0.37516 0.21219 0.0
N2518 N 0.40566 0.42979 0.26289 0.0
N2519 N 0.40024 0.38766 0.22112 0.0
H2520 H 0.90838 0.19698 0.16391 0.0
H2521 H 0.74401 0.12007 0.16478 0.0
H2522 H 0.85708 0.13264 0.12451 0.0
H2523 H 0.79534 0.18241 0.20537 0.0
H2524 H 0.78517 0.12399 0.15006 0.0
H2525 H 0.86717 0.19279 0.17871 0.0
C2526 C 0.88846 0.18218 0.15822 0.0
C2527 C 0.88617 0.16503 0.14299 0.0
C2528 C 0.78743 0.1367 0.16225 0.0
C2529 C 0.83889 0.15989 0.16006 0.0
C2530 C 0.76393 0.13437 0.17074 0.0
C2531 C 0.76625 0.15106 0.18628 0.0
C2532 C 0.81346 0.15591 0.1693 0.0
C2533 C 0.79257 0.16917 0.1934 0.0
C2534 C 0.86492 0.17967 0.16678 0.0
C2535 C 0.85982 0.14624 0.13623 0.0
N2536 N 0.81517 0.17124 0.18477 0.0
N2537 N 0.83719 0.14407 0.14489 0.0
H2538 H 0.79543 0.6037 0.20863 0.0
H2539 H 0.84973 0.71355 0.12402 0.0
H2540 H 0.86458 0.62049 0.17278 0.0
H2541 H 0.78198 0.69854 0.16079 0.0
H2542 H 0.85433 0.67818 0.141 0.0
H2543 H 0.79053 0.63886 0.19157 0.0
C2544 C 0.80984 0.61505 0.19737 0.0
C2545 C 0.83032 0.609 0.19204 0.0
C2546 C 0.83834 0.68251 0.14528 0.0
C2547 C 0.8245 0.64887 0.17224 0.0
C2548 C 0.83554 0.70254 0.13547 0.0
C2549 C 0.81558 0.70917 0.14108 0.0
C2550 C 0.82106 0.66904 0.1608 0.0
C2551 C 0.79778 0.69422 0.15604 0.0
C2552 C 0.80688 0.63496 0.18752 0.0
C2553 C 0.84839 0.62435 0.17731 0.0
N2554 N 0.80108 0.675 0.16547 0.0
N2555 N 0.84492 0.64343 0.16783 0.0
H2556 H 0.38034 0.19725 0.20485 0.0
H2557 H 0.26856 0.12569 0.1225 0.0
H2558 H 0.36981 0.24185 0.15877 0.0
H2559 H 0.27832 0.08132 0.16908 0.0
H2560 H 0.30635 0.16841 0.13519 0.0
H2561 H 0.34248 0.15459 0.19221 0.0
C2562 C 0.36988 0.19813 0.19219 0.0
C2563 C 0.37834 0.22314 0.1828 0.0
C2564 C 0.30029 0.1493 0.14258 0.0
C2565 C 0.33526 0.17436 0.16811 0.0
C2566 C 0.27884 0.12488 0.13527 0.0
C2567 C 0.27019 0.09992 0.14479 0.0
C2568 C 0.31316 0.14874 0.15952 0.0
C2569 C 0.28423 0.10011 0.16131 0.0
C2570 C 0.34836 0.17373 0.18491 0.0
C2571 C 0.36404 0.22302 0.16644 0.0
N2572 N 0.30493 0.12417 0.1682 0.0
N2573 N 0.3433 0.19898 0.15956 0.0
H2574 H 0.19515 0.91305 0.33266 0.0
H2575 H 0.11528 0.7487 0.3283 0.0
H2576 H 0.12997 0.86061 0.37125 0.0
H2577 H 0.18354 0.80073 0.29168 0.0
H2578 H 0.11873 0.78964 0.34296 0.0
H2579 H 0.19084 0.87223 0.31712 0.0
C2580 C 0.18013 0.89295 0.33801 0.0
C2581 C 0.16282 0.89023 0.35325 0.0
C2582 C 0.13285 0.79212 0.33164 0.0
C2583 C 0.15752 0.84344 0.33533 0.0
C2584 C 0.13078 0.76874 0.32316 0.0
C2585 C 0.14931 0.77129 0.30883 0.0
C2586 C 0.15361 0.81826 0.32577 0.0
C2587 C 0.16889 0.79778 0.30272 0.0
C2588 C 0.17758 0.86965 0.32904 0.0
C2589 C 0.14375 0.86369 0.35956 0.0
N2590 N 0.17066 0.82026 0.31133 0.0
N2591 N 0.14151 0.84131 0.3505 0.0
H2592 H 0.23741 0.37119 0.32508 0.0
H2593 H 0.07312 0.28595 0.33091 0.0
H2594 H 0.18456 0.38769 0.28968 0.0
H2595 H 0.12629 0.27197 0.36779 0.0
H2596 H 0.11364 0.32358 0.31581 0.0
H2597 H 0.1968 0.33383 0.34022 0.0
C2598 C 0.21726 0.36677 0.32033 0.0
C2599 C 0.21439 0.3827 0.30614 0.0
C2600 C 0.11644 0.31239 0.32728 0.0
C2601 C 0.1678 0.34015 0.32362 0.0
C2602 C 0.09331 0.29099 0.33599 0.0
C2603 C 0.09631 0.27568 0.35058 0.0
C2604 C 0.14278 0.31848 0.33316 0.0
C2605 C 0.12298 0.28317 0.35658 0.0
C2606 C 0.19407 0.34553 0.32908 0.0
C2607 C 0.18776 0.37599 0.30058 0.0
N2608 N 0.14519 0.30393 0.34776 0.0
N2609 N 0.16548 0.3553 0.3094 0.0
H2610 H 0.71768 0.84872 0.37117 0.0
H2611 H 0.60534 0.80032 0.28853 0.0
H2612 H 0.70331 0.78546 0.33037 0.0
H2613 H 0.62127 0.86498 0.3285 0.0
H2614 H 0.6418 0.79512 0.30329 0.0
H2615 H 0.6814 0.85402 0.35624 0.0
C2616 C 0.70665 0.83567 0.35924 0.0
C2617 C 0.71365 0.81674 0.35194 0.0
C2618 C 0.63742 0.81056 0.30875 0.0
C2619 C 0.67246 0.82302 0.33459 0.0
C2620 C 0.61675 0.81369 0.30023 0.0
C2621 C 0.61012 0.83298 0.30738 0.0
C2622 C 0.65149 0.82681 0.32453 0.0
C2623 C 0.62557 0.84973 0.32259 0.0
C2624 C 0.68609 0.83888 0.35062 0.0
C2625 C 0.69869 0.80042 0.33642 0.0
N2626 N 0.64541 0.84611 0.33074 0.0
N2627 N 0.67891 0.80407 0.32819 0.0
H2628 H 0.24088 0.87252 0.823 0.0
H2629 H 0.07684 0.79111 0.83184 0.0
H2630 H 0.18762 0.80184 0.78874 0.0
H2631 H 0.13076 0.85946 0.86767 0.0
H2632 H 0.11703 0.79512 0.81544 0.0
H2633 H 0.20048 0.86968 0.83814 0.0
C2634 C 0.22067 0.85662 0.81846 0.0
C2635 C 0.21764 0.83723 0.80469 0.0
C2636 C 0.12007 0.80916 0.82695 0.0
C2637 C 0.17128 0.83362 0.8222 0.0
C2638 C 0.09714 0.80677 0.83641 0.0
C2639 C 0.10044 0.82503 0.85113 0.0
C2640 C 0.14648 0.82998 0.83222 0.0
C2641 C 0.12722 0.84493 0.85641 0.0
C2642 C 0.1976 0.8549 0.82722 0.0
C2643 C 0.19094 0.81716 0.79934 0.0
N2644 N 0.14921 0.84696 0.8469 0.0
N2645 N 0.16878 0.81573 0.80823 0.0
H2646 H 0.12725 0.27061 0.87758 0.0
H2647 H 0.18292 0.38245 0.79424 0.0
H2648 H 0.19607 0.28729 0.8414 0.0
H2649 H 0.11813 0.37046 0.83296 0.0
H2650 H 0.18655 0.34606 0.81055 0.0
H2651 H 0.12353 0.30718 0.86154 0.0
C2652 C 0.14183 0.28221 0.86646 0.0
C2653 C 0.16188 0.27575 0.86074 0.0
C2654 C 0.17144 0.3513 0.81542 0.0
C2655 C 0.15741 0.31724 0.84211 0.0
C2656 C 0.1692 0.37193 0.806 0.0
C2657 C 0.15031 0.37963 0.81232 0.0
C2658 C 0.15466 0.33828 0.83124 0.0
C2659 C 0.13309 0.36529 0.82767 0.0
C2660 C 0.13956 0.30295 0.85721 0.0
C2661 C 0.18019 0.29145 0.84622 0.0
N2662 N 0.13579 0.3454 0.83668 0.0
N2663 N 0.17737 0.31132 0.83731 0.0
H2664 H 0.70853 0.86257 0.87149 0.0
H2665 H 0.59883 0.78864 0.7883 0.0
H2666 H 0.69728 0.90617 0.82504 0.0
H2667 H 0.61018 0.74525 0.83483 0.0
H2668 H 0.63543 0.83192 0.80123 0.0
H2669 H 0.67168 0.81943 0.85866 0.0
C2670 C 0.69809 0.86313 0.85872 0.0
C2671 C 0.70611 0.888 0.84926 0.0
C2672 C 0.62999 0.8129 0.80856 0.0
C2673 C 0.66422 0.83867 0.83434 0.0
C2674 C 0.60923 0.78817 0.8011 0.0
C2675 C 0.60134 0.76331 0.81055 0.0
C2676 C 0.64291 0.81275 0.82558 0.0
C2677 C 0.61551 0.76394 0.82711 0.0
C2678 C 0.67717 0.83846 0.85133 0.0
C2679 C 0.69185 0.88746 0.83277 0.0
N2680 N 0.6355 0.78829 0.83415 0.0
N2681 N 0.67171 0.86315 0.82576 0.0
H2682 H 0.86253 0.13676 0.62569 0.0
H2683 H 0.79739 0.18614 0.70707 0.0
H2684 H 0.79024 0.08148 0.65798 0.0
H2685 H 0.86907 0.24146 0.67427 0.0
H2686 H 0.79568 0.1473 0.69023 0.0
H2687 H 0.86521 0.17544 0.64333 0.0
C2688 C 0.84701 0.13277 0.63631 0.0
C2689 C 0.82619 0.10582 0.64041 0.0
C2690 C 0.81189 0.16793 0.68682 0.0
C2691 C 0.82942 0.14996 0.66088 0.0
C2692 C 0.81302 0.19012 0.69654 0.0
C2693 C 0.83326 0.21711 0.69196 0.0
C2694 C 0.83113 0.17281 0.67241 0.0
C2695 C 0.85298 0.221 0.67818 0.0
C2696 C 0.84868 0.15486 0.64649 0.0
C2697 C 0.80669 0.1019 0.65437 0.0
N2698 N 0.85128 0.1991 0.66878 0.0
N2699 N 0.80887 0.12373 0.66418 0.0
H2700 H 0.85417 0.71892 0.62957 0.0
H2701 H 0.79599 0.60378 0.71082 0.0
H2702 H 0.90573 0.70699 0.66937 0.0
H2703 H 0.74444 0.61635 0.67141 0.0
H2704 H 0.83645 0.6422 0.69623 0.0
H2705 H 0.81371 0.6808 0.64438 0.0
C2706 C 0.85702 0.7081 0.64128 0.0
C2707 C 0.88337 0.71624 0.64829 0.0
C2708 C 0.81627 0.63664 0.69085 0.0
C2709 C 0.83714 0.67285 0.66547 0.0
C2710 C 0.79314 0.61482 0.69925 0.0
C2711 C 0.76679 0.60674 0.69226 0.0
C2712 C 0.81302 0.65046 0.67533 0.0
C2713 C 0.76436 0.62179 0.67723 0.0
C2714 C 0.83389 0.68645 0.64982 0.0
C2715 C 0.8858 0.70149 0.66353 0.0
N2716 N 0.78719 0.64282 0.66919 0.0
N2717 N 0.86297 0.68059 0.67167 0.0
H2718 H 0.36683 0.12111 0.66736 0.0
H2719 H 0.28765 0.20621 0.67213 0.0
H2720 H 0.38397 0.18397 0.70916 0.0
H2721 H 0.27302 0.14547 0.62919 0.0
H2722 H 0.32309 0.19852 0.68591 0.0
H2723 H 0.33098 0.12848 0.65405 0.0
C2724 C 0.36282 0.13623 0.67391 0.0
C2725 C 0.37857 0.1521 0.68933 0.0
C2726 C 0.31224 0.18699 0.67341 0.0
C2727 C 0.33781 0.16092 0.67396 0.0
C2728 C 0.29212 0.1915 0.66545 0.0
C2729 C 0.27725 0.17636 0.64953 0.0
C2730 C 0.31748 0.16715 0.66542 0.0
C2731 C 0.28393 0.15758 0.64148 0.0
C2732 C 0.34246 0.14056 0.66621 0.0
C2733 C 0.37239 0.17132 0.69725 0.0
N2734 N 0.30344 0.15338 0.64959 0.0
N2735 N 0.35261 0.17534 0.68938 0.0
H2736 H 0.45176 0.51131 0.54054 0.0
H2737 H 0.52975 0.48134 0.45685 0.0
H2738 H 0.41059 0.45906 0.49246 0.0
H2739 H 0.57106 0.53266 0.50528 0.0
H2740 H 0.486 0.47401 0.46928 0.0
H2741 H 0.49566 0.51894 0.52809 0.0
C2742 C 0.45189 0.50117 0.52749 0.0
C2743 C 0.42746 0.48462 0.51749 0.0
C2744 C 0.50465 0.48699 0.47714 0.0
C2745 C 0.47767 0.49361 0.50301 0.0
C2746 C 0.52969 0.49135 0.46998 0.0
C2747 C 0.5541 0.50753 0.48008 0.0
C2748 C 0.50402 0.49887 0.49455 0.0
C2749 C 0.55274 0.51996 0.49703 0.0
C2750 C 0.47699 0.50569 0.52032 0.0
C2751 C 0.42891 0.47205 0.50063 0.0
N2752 N 0.52809 0.51523 0.50379 0.0
N2753 N 0.4536 0.47694 0.49387 0.0
H2754 H 0.45239 0.03766 0.49564 0.0
H2755 H 0.53066 0.9515 0.4942 0.0
H2756 H 0.517 0.0525 0.45589 0.0
H2757 H 0.46724 0.93804 0.53464 0.0
H2758 H 0.5261 0.98867 0.48001 0.0
H2759 H 0.45651 3e-05 0.50939 0.0
C2760 C 0.46724 0.03282 0.48965 0.0
C2761 C 0.48449 0.04837 0.47465 0.0
C2762 C 0.51327 0.97767 0.49204 0.0
C2763 C 0.48955 0.00551 0.49051 0.0
C2764 C 0.51597 0.95654 0.50023 0.0
C2765 C 0.49924 0.94157 0.51561 0.0
C2766 C 0.49366 0.98385 0.49925 0.0
C2767 C 0.48056 0.94902 0.52281 0.0
C2768 C 0.46969 0.01141 0.4976 0.0
C2769 C 0.50331 0.04111 0.46746 0.0
N2770 N 0.47818 0.96955 0.5145 0.0
N2771 N 0.50546 0.0203 0.47554 0.0
H2772 H 0.94973 0.41011 0.50348 0.0
H2773 H 0.02678 0.57439 0.49877 0.0
H2774 H 0.93346 0.45535 0.46082 0.0
H2775 H 0.04336 0.52918 0.54127 0.0
H2776 H 0.99164 0.53094 0.48517 0.0
H2777 H 0.98472 0.45355 0.51718 0.0
C2778 C 0.95375 0.42918 0.49684 0.0
C2779 C 0.93853 0.4291 0.48103 0.0
C2780 C 0.00284 0.53052 0.49754 0.0
C2781 C 0.97827 0.4789 0.49684 0.0
C2782 C 0.02279 0.55533 0.5054 0.0
C2783 C 0.03816 0.55542 0.52112 0.0
C2784 C -0.00176 0.5056 0.50543 0.0
C2785 C 0.03206 0.5301 0.52913 0.0
C2786 C 0.97362 0.45398 0.50476 0.0
C2787 C 0.94466 0.45443 0.47302 0.0
N2788 N 0.01269 0.50619 0.52111 0.0
N2789 N 0.96395 0.47832 0.4811 0.0
H2790 H 0.52202 0.46722 0.95629 0.0
H2791 H 0.46353 0.52195 0.03881 0.0
H2792 H 0.45709 0.41394 0.99477 0.0
H2793 H 0.52879 0.57518 0.00053 0.0
H2794 H 0.46155 0.4821 0.0233 0.0
H2795 H 0.52423 0.50705 0.97199 0.0
C2796 C 0.50801 0.46387 0.96789 0.0
C2797 C 0.48943 0.4372 0.97427 0.0
C2798 C 0.4764 0.50251 0.01836 0.0
C2799 C 0.49213 0.48271 0.99248 0.0
C2800 C 0.47768 0.52529 0.0273 0.0
C2801 C 0.49625 0.55195 0.0209 0.0
C2802 C 0.49381 0.50642 0.0029 0.0
C2803 C 0.51406 0.55501 0.0059 0.0
C2804 C 0.50941 0.48664 0.97694 0.0
C2805 C 0.4718 0.43412 0.9894 0.0
N2806 N 0.51228 0.5325 0.99734 0.0
N2807 N 0.47369 0.45662 0.99805 0.0
H2808 H 0.53029 0.04703 0.95454 0.0
H2809 H 0.45376 0.94029 0.03907 0.0
H2810 H 0.57244 0.03647 0.00219 0.0
H2811 H 0.41141 0.95292 0.99246 0.0
H2812 H 0.49749 0.97556 0.02579 0.0
H2813 H 0.48662 0.01119 0.96755 0.0
C2814 C 0.53042 0.03693 0.9676 0.0
C2815 C 0.55504 0.04489 0.97735 0.0
C2816 C 0.47862 0.97071 0.01852 0.0
C2817 C 0.50511 0.00418 0.99247 0.0
C2818 C 0.45361 0.9507 0.02617 0.0
C2819 C 0.42889 0.94356 0.01683 0.0
C2820 C 0.4789 0.98363 0.00139 0.0
C2821 C 0.42997 0.95772 0.00013 0.0
C2822 C 0.50545 0.01661 0.9751 0.0
C2823 C 0.55394 0.03109 0.99424 0.0
N2824 N 0.45459 0.97697 0.99289 0.0
N2825 N 0.52936 0.01153 0.00132 0.0
H2826 H 0.03464 0.45608 0.99846 0.0
H2827 H 0.9512 0.53683 0.0044 0.0
H2828 H 0.04745 0.51546 0.04203 0.0
H2829 H 0.93683 0.47594 0.96164 0.0
H2830 H 0.98745 0.53019 0.01783 0.0
H2831 H -0.00168 0.46261 0.985 0.0
C2832 C 0.0296 0.47026 0.00534 0.0
C2833 C 0.04421 0.48537 0.02135 0.0
C2834 C 0.97647 0.51838 0.00545 0.0
C2835 C 0.00292 0.49323 0.00583 0.0
C2836 C 0.95587 0.52229 0.99769 0.0
C2837 C 0.94084 0.50679 0.98193 0.0
C2838 C 0.98208 0.49882 0.99741 0.0
C2839 C 0.94785 0.48829 0.97382 0.0
C2840 C 0.00896 0.4741 0.99757 0.0
C2841 C 0.03675 0.5034 0.02967 0.0
N2842 N 0.96787 0.48469 0.98173 0.0
N2843 N 0.01673 0.50697 0.02173 0.0
loop_
_geom_bond_atom_site_label_1
_geom_bond_atom_site_label_2
_geom_bond_distance
_geom_bond_site_symmetry_2
_ccdc_geom_bond_type
Co0 O3 1.970 . S
Co0 N17 2.010 . S
Co0 O25 1.967 . S
Co0 O32 1.920 . S
Co1 O4 1.966 1_455 S
Co1 N10 2.022 . S
Co1 N18 1.993 . S
Co1 O26 1.941 . S
C2 O3 1.258 . S
C2 O4 1.263 . S
O3 Co0 1.970 . S
O3 C2 1.258 . S
O4 Co1 1.966 1_655 S
O4 C2 1.263 . S
C5 O6 1.235 . S
C5 O32 1.289 . S
O6 C5 1.235 . S
C7 C9 1.400 . S
C7 N10 1.351 . S
C7 C12 1.501 . S
C8 C9 1.387 . S
C8 N11 1.341 . S
C9 C7 1.400 . S
C9 C8 1.387 . S
N10 Co1 2.022 . S
N10 C7 1.351 . S
N10 N11 1.365 . S
N11 C8 1.341 . S
N11 N10 1.365 . S
N11 H31 0.862 . S
C12 C7 1.501 . S
C12 H13 0.961 . S
C12 H14 0.961 . S
C12 H15 0.960 . S
H13 C12 0.961 . S
H14 C12 0.961 . S
H15 C12 0.960 . S
C16 N17 1.351 1_455 S
C16 C20 1.401 . S
C16 C21 1.499 1_455 S
N17 Co0 2.010 . S
N17 C16 1.351 1_655 S
N17 N18 1.349 1_655 S
N18 Co1 1.993 . S
N18 N17 1.349 1_455 S
N18 C19 1.346 . S
C19 N18 1.346 . S
C19 C20 1.396 . S
C19 C29 1.510 . S
C20 C16 1.401 . S
C20 C19 1.396 . S
C21 C16 1.499 1_655 S
C21 H22 0.959 . S
C21 H23 0.960 . S
C21 H24 0.961 . S
H22 C21 0.959 . S
H23 C21 0.960 . S
H24 C21 0.961 . S
O25 Co0 1.967 . S
O25 C33 1.218 1_655 S
O26 Co1 1.941 . S
O26 C33 1.308 . S
H27 C29 0.959 . S
H28 C29 0.961 . S
C29 C19 1.510 . S
C29 H27 0.959 . S
C29 H28 0.961 . S
C29 H30 0.960 . S
H30 C29 0.960 . S
H31 N11 0.862 . S
O32 Co0 1.920 . S
O32 C5 1.289 . S
C33 O25 1.218 1_455 S
C33 O26 1.308 . S
Co34 O37 1.970 . S
Co34 N51 1.989 . S
Co34 O59 1.967 . S
Co34 O66 1.920 . S
Co35 O38 1.966 . S
Co35 N44 2.022 . S
Co35 N52 1.993 . S
Co35 O60 1.941 . S
C36 O37 1.258 . S
C36 O38 1.263 . S
O37 Co34 1.970 . S
O37 C36 1.258 . S
O38 Co35 1.966 . S
O38 C36 1.263 . S
C39 O40 1.235 . S
C39 O66 1.289 . S
O40 C39 1.235 . S
C41 C43 1.400 . S
C41 N44 1.351 . S
C41 C46 1.501 . S
C42 C43 1.387 . S
C42 N45 1.341 . S
C43 C41 1.400 . S
C43 C42 1.387 . S
N44 Co35 2.022 . S
N44 C41 1.351 . S
N44 N45 1.365 . S
N45 C42 1.341 . S
N45 N44 1.365 . S
N45 H65 0.862 . S
C46 C41 1.501 . S
C46 H47 0.961 . S
C46 H48 0.961 . S
C46 H49 0.960 . S
H47 C46 0.961 . S
H48 C46 0.961 . S
H49 C46 0.960 . S
C50 N51 1.342 . S
C50 C54 1.401 . S
C50 C55 1.499 . S
N51 Co34 1.989 . S
N51 C50 1.342 . S
N51 N52 1.388 . S
N52 Co35 1.993 . S
N52 N51 1.388 . S
N52 C53 1.346 . S
C53 N52 1.346 . S
C53 C54 1.396 . S
C53 C63 1.510 . S
C54 C50 1.401 . S
C54 C53 1.396 . S
C55 C50 1.499 . S
C55 H56 0.959 . S
C55 H57 0.960 . S
C55 H58 0.961 . S
H56 C55 0.959 . S
H57 C55 0.960 . S
H58 C55 0.961 . S
O59 Co34 1.967 . S
O59 C67 1.258 . S
O60 Co35 1.941 . S
O60 C67 1.266 . S
H61 C63 0.959 . S
H62 C63 0.961 . S
C63 C53 1.510 . S
C63 H61 0.959 . S
C63 H62 0.961 . S
C63 H64 0.960 . S
H64 C63 0.960 . S
H65 N45 0.862 . S
O66 Co34 1.920 . S
O66 C39 1.289 . S
C67 O59 1.258 . S
C67 O60 1.266 . S
Co68 O71 1.970 . S
Co68 N85 2.021 . S
Co68 O93 1.967 . S
Co68 O100 1.920 . S
Co69 O72 1.966 1_565 S
Co69 N78 2.022 . S
Co69 N86 1.993 . S
Co69 O94 1.941 . S
C70 O71 1.258 . S
C70 O72 1.263 . S
O71 Co68 1.970 . S
O71 C70 1.258 . S
O72 Co69 1.966 1_545 S
O72 C70 1.263 . S
C73 O74 1.235 . S
C73 O100 1.289 . S
O74 C73 1.235 . S
C75 C77 1.400 . S
C75 N78 1.351 . S
C75 C80 1.501 . S
C76 C77 1.387 . S
C76 N79 1.341 . S
C77 C75 1.400 . S
C77 C76 1.387 . S
N78 Co69 2.022 . S
N78 C75 1.351 . S
N78 N79 1.365 . S
N79 C76 1.341 . S
N79 N78 1.365 . S
N79 H99 0.862 . S
C80 C75 1.501 . S
C80 H81 0.961 . S
C80 H82 0.961 . S
C80 H83 0.960 . S
H81 C80 0.961 . S
H82 C80 0.961 . S
H83 C80 0.960 . S
C84 N85 1.318 1_565 S
C84 C88 1.401 . S
C84 C89 1.499 1_565 S
N85 Co68 2.021 . S
N85 C84 1.318 1_545 S
N85 N86 1.375 1_545 S
N86 Co69 1.993 . S
N86 N85 1.375 1_565 S
N86 C87 1.346 . S
C87 N86 1.346 . S
C87 C88 1.396 . S
C87 C97 1.510 . S
C88 C84 1.401 . S
C88 C87 1.396 . S
C89 C84 1.499 1_545 S
C89 H90 0.959 . S
C89 H91 0.960 . S
C89 H92 0.961 . S
H90 C89 0.959 . S
H91 C89 0.960 . S
H92 C89 0.961 . S
O93 Co68 1.967 . S
O93 C101 1.236 1_545 S
O94 Co69 1.941 . S
O94 C101 1.286 . S
H95 C97 0.959 . S
H96 C97 0.961 . S
C97 C87 1.510 . S
C97 H95 0.959 . S
C97 H96 0.961 . S
C97 H98 0.960 . S
H98 C97 0.960 . S
H99 N79 0.862 . S
O100 Co68 1.920 . S
O100 C73 1.289 . S
C101 O93 1.236 1_565 S
C101 O94 1.286 . S
Co102 O105 1.970 . S
Co102 N119 2.010 . S
Co102 O127 1.967 . S
Co102 O134 1.920 . S
Co103 O106 1.966 1_545 S
Co103 N112 2.022 . S
Co103 N120 1.993 . S
Co103 O128 1.941 . S
C104 O105 1.258 . S
C104 O106 1.263 . S
O105 Co102 1.970 . S
O105 C104 1.258 . S
O106 Co103 1.966 1_565 S
O106 C104 1.263 . S
C107 O108 1.235 . S
C107 O134 1.289 . S
O108 C107 1.235 . S
C109 C111 1.400 . S
C109 N112 1.351 . S
C109 C114 1.501 . S
C110 C111 1.387 . S
C110 N113 1.341 . S
C111 C109 1.400 . S
C111 C110 1.387 . S
N112 Co103 2.022 . S
N112 C109 1.351 . S
N112 N113 1.365 . S
N113 C110 1.341 . S
N113 N112 1.365 . S
N113 H133 0.862 . S
C114 C109 1.501 . S
C114 H115 0.961 . S
C114 H116 0.961 . S
C114 H117 0.960 . S
H115 C114 0.961 . S
H116 C114 0.961 . S
H117 C114 0.960 . S
C118 N119 1.351 1_545 S
C118 C122 1.401 . S
C118 C123 1.499 1_545 S
N119 Co102 2.010 . S
N119 C118 1.351 1_565 S
N119 N120 1.349 1_565 S
N120 Co103 1.993 . S
N120 N119 1.349 1_545 S
N120 C121 1.346 . S
C121 N120 1.346 . S
C121 C122 1.396 . S
C121 C131 1.510 . S
C122 C118 1.401 . S
C122 C121 1.396 . S
C123 C118 1.499 1_565 S
C123 H124 0.959 . S
C123 H125 0.960 . S
C123 H126 0.961 . S
H124 C123 0.959 . S
H125 C123 0.960 . S
H126 C123 0.961 . S
O127 Co102 1.967 . S
O127 C135 1.218 1_565 S
O128 Co103 1.941 . S
O128 C135 1.308 . S
H129 C131 0.959 . S
H130 C131 0.961 . S
C131 C121 1.510 . S
C131 H129 0.959 . S
C131 H130 0.961 . S
C131 H132 0.960 . S
H132 C131 0.960 . S
H133 N113 0.862 . S
O134 Co102 1.920 . S
O134 C107 1.289 . S
C135 O127 1.218 1_545 S
C135 O128 1.308 . S
Co136 O139 1.970 . S
Co136 N153 2.021 . S
Co136 O161 1.967 . S
Co136 O168 1.920 . S
Co137 O140 1.966 1_655 S
Co137 N146 2.022 . S
Co137 N154 1.993 . S
Co137 O162 1.941 . S
C138 O139 1.258 . S
C138 O140 1.263 . S
O139 Co136 1.970 . S
O139 C138 1.258 . S
O140 Co137 1.966 1_455 S
O140 C138 1.263 . S
C141 O142 1.235 . S
C141 O168 1.289 . S
O142 C141 1.235 . S
C143 C145 1.400 . S
C143 N146 1.351 . S
C143 C148 1.501 . S
C144 C145 1.387 . S
C144 N147 1.341 . S
C145 C143 1.400 . S
C145 C144 1.387 . S
N146 Co137 2.022 . S
N146 C143 1.351 . S
N146 N147 1.365 . S
N147 C144 1.341 . S
N147 N146 1.365 . S
N147 H167 0.862 . S
C148 C143 1.501 . S
C148 H149 0.961 . S
C148 H150 0.961 . S
C148 H151 0.960 . S
H149 C148 0.961 . S
H150 C148 0.961 . S
H151 C148 0.960 . S
C152 N153 1.318 1_655 S
C152 C156 1.401 . S
C152 C157 1.499 1_655 S
N153 Co136 2.021 . S
N153 C152 1.318 1_455 S
N153 N154 1.375 1_455 S
N154 Co137 1.993 . S
N154 N153 1.375 1_655 S
N154 C155 1.346 . S
C155 N154 1.346 . S
C155 C156 1.396 . S
C155 C165 1.510 . S
C156 C152 1.401 . S
C156 C155 1.396 . S
C157 C152 1.499 1_455 S
C157 H158 0.959 . S
C157 H159 0.960 . S
C157 H160 0.961 . S
H158 C157 0.959 . S
H159 C157 0.960 . S
H160 C157 0.961 . S
O161 Co136 1.967 . S
O161 C169 1.236 1_455 S
O162 Co137 1.941 . S
O162 C169 1.286 . S
H163 C165 0.959 . S
H164 C165 0.961 . S
C165 C155 1.510 . S
C165 H163 0.959 . S
C165 H164 0.961 . S
C165 H166 0.960 . S
H166 C165 0.960 . S
H167 N147 0.862 . S
O168 Co136 1.920 . S
O168 C141 1.289 . S
C169 O161 1.236 1_655 S
C169 O162 1.286 . S
Co170 O173 1.970 . S
Co170 N187 1.989 . S
Co170 O195 1.967 . S
Co170 O202 1.920 . S
Co171 O174 1.966 . S
Co171 N180 2.022 . S
Co171 N188 1.993 . S
Co171 O196 1.941 . S
C172 O173 1.258 . S
C172 O174 1.263 . S
O173 Co170 1.970 . S
O173 C172 1.258 . S
O174 Co171 1.966 . S
O174 C172 1.263 . S
C175 O176 1.235 . S
C175 O202 1.289 . S
O176 C175 1.235 . S
C177 C179 1.400 . S
C177 N180 1.351 . S
C177 C182 1.501 . S
C178 C179 1.387 . S
C178 N181 1.341 . S
C179 C177 1.400 . S
C179 C178 1.387 . S
N180 Co171 2.022 . S
N180 C177 1.351 . S
N180 N181 1.365 . S
N181 C178 1.341 . S
N181 N180 1.365 . S
N181 H201 0.862 . S
C182 C177 1.501 . S
C182 H183 0.961 . S
C182 H184 0.961 . S
C182 H185 0.960 . S
H183 C182 0.961 . S
H184 C182 0.961 . S
H185 C182 0.960 . S
C186 N187 1.342 . S
C186 C190 1.401 . S
C186 C191 1.499 . S
N187 Co170 1.989 . S
N187 C186 1.342 . S
N187 N188 1.388 . S
N188 Co171 1.993 . S
N188 N187 1.388 . S
N188 C189 1.346 . S
C189 N188 1.346 . S
C189 C190 1.396 . S
C189 C199 1.510 . S
C190 C186 1.401 . S
C190 C189 1.396 . S
C191 C186 1.499 . S
C191 H192 0.959 . S
C191 H193 0.960 . S
C191 H194 0.961 . S
H192 C191 0.959 . S
H193 C191 0.960 . S
H194 C191 0.961 . S
O195 Co170 1.967 . S
O195 C203 1.258 . S
O196 Co171 1.941 . S
O196 C203 1.266 . S
H197 C199 0.959 . S
H198 C199 0.961 . S
C199 C189 1.510 . S
C199 H197 0.959 . S
C199 H198 0.961 . S
C199 H200 0.960 . S
H200 C199 0.960 . S
H201 N181 0.862 . S
O202 Co170 1.920 . S
O202 C175 1.289 . S
C203 O195 1.258 . S
C203 O196 1.266 . S
Co204 O207 1.970 . S
Co204 N221 2.010 . S
Co204 O229 1.967 . S
Co204 O236 1.920 . S
Co205 O208 1.966 1_655 S
Co205 N214 2.022 . S
Co205 N222 1.993 . S
Co205 O230 1.941 . S
C206 O207 1.258 . S
C206 O208 1.263 . S
O207 Co204 1.970 . S
O207 C206 1.258 . S
O208 Co205 1.966 1_455 S
O208 C206 1.263 . S
C209 O210 1.235 . S
C209 O236 1.289 . S
O210 C209 1.235 . S
C211 C213 1.400 . S
C211 N214 1.351 . S
C211 C216 1.501 . S
C212 C213 1.387 . S
C212 N215 1.341 . S
C213 C211 1.400 . S
C213 C212 1.387 . S
N214 Co205 2.022 . S
N214 C211 1.351 . S
N214 N215 1.365 . S
N215 C212 1.341 . S
N215 N214 1.365 . S
N215 H235 0.862 . S
C216 C211 1.501 . S
C216 H217 0.961 . S
C216 H218 0.961 . S
C216 H219 0.960 . S
H217 C216 0.961 . S
H218 C216 0.961 . S
H219 C216 0.960 . S
C220 N221 1.351 1_655 S
C220 C224 1.401 . S
C220 C225 1.499 1_655 S
N221 Co204 2.010 . S
N221 C220 1.351 1_455 S
N221 N222 1.349 1_455 S
N222 Co205 1.993 . S
N222 N221 1.349 1_655 S
N222 C223 1.346 . S
C223 N222 1.346 . S
C223 C224 1.396 . S
C223 C233 1.510 . S
C224 C220 1.401 . S
C224 C223 1.396 . S
C225 C220 1.499 1_455 S
C225 H226 0.959 . S
C225 H227 0.960 . S
C225 H228 0.961 . S
H226 C225 0.959 . S
H227 C225 0.960 . S
H228 C225 0.961 . S
O229 Co204 1.967 . S
O229 C237 1.218 1_455 S
O230 Co205 1.941 . S
O230 C237 1.308 . S
H231 C233 0.959 . S
H232 C233 0.961 . S
C233 C223 1.510 . S
C233 H231 0.959 . S
C233 H232 0.961 . S
C233 H234 0.960 . S
H234 C233 0.960 . S
H235 N215 0.862 . S
O236 Co204 1.920 . S
O236 C209 1.289 . S
C237 O229 1.218 1_655 S
C237 O230 1.308 . S
Co238 O241 1.970 . S
Co238 N255 1.989 . S
Co238 O263 1.967 . S
Co238 O270 1.920 . S
Co239 O242 1.966 . S
Co239 N248 2.022 . S
Co239 N256 1.993 . S
Co239 O264 1.941 . S
C240 O241 1.258 . S
C240 O242 1.263 . S
O241 Co238 1.970 . S
O241 C240 1.258 . S
O242 Co239 1.966 . S
O242 C240 1.263 . S
C243 O244 1.235 . S
C243 O270 1.289 . S
O244 C243 1.235 . S
C245 C247 1.400 . S
C245 N248 1.351 . S
C245 C250 1.501 . S
C246 C247 1.387 . S
C246 N249 1.341 . S
C247 C245 1.400 . S
C247 C246 1.387 . S
N248 Co239 2.022 . S
N248 C245 1.351 . S
N248 N249 1.365 . S
N249 C246 1.341 . S
N249 N248 1.365 . S
N249 H269 0.862 . S
C250 C245 1.501 . S
C250 H251 0.961 . S
C250 H252 0.961 . S
C250 H253 0.960 . S
H251 C250 0.961 . S
H252 C250 0.961 . S
H253 C250 0.960 . S
C254 N255 1.342 . S
C254 C258 1.401 . S
C254 C259 1.499 . S
N255 Co238 1.989 . S
N255 C254 1.342 . S
N255 N256 1.388 . S
N256 Co239 1.993 . S
N256 N255 1.388 . S
N256 C257 1.346 . S
C257 N256 1.346 . S
C257 C258 1.396 . S
C257 C267 1.510 . S
C258 C254 1.401 . S
C258 C257 1.396 . S
C259 C254 1.499 . S
C259 H260 0.959 . S
C259 H261 0.960 . S
C259 H262 0.961 . S
H260 C259 0.959 . S
H261 C259 0.960 . S
H262 C259 0.961 . S
O263 Co238 1.967 . S
O263 C271 1.258 . S
O264 Co239 1.941 . S
O264 C271 1.266 . S
H265 C267 0.959 . S
H266 C267 0.961 . S
C267 C257 1.510 . S
C267 H265 0.959 . S
C267 H266 0.961 . S
C267 H268 0.960 . S
H268 C267 0.960 . S
H269 N249 0.862 . S
O270 Co238 1.920 . S
O270 C243 1.289 . S
C271 O263 1.258 . S
C271 O264 1.266 . S
Co272 O275 1.970 . S
Co272 N289 2.021 . S
Co272 O297 1.967 . S
Co272 O304 1.920 . S
Co273 O276 1.966 1_545 S
Co273 N282 2.022 . S
Co273 N290 1.993 . S
Co273 O298 1.941 . S
C274 O275 1.258 . S
C274 O276 1.263 . S
O275 Co272 1.970 . S
O275 C274 1.258 . S
O276 Co273 1.966 1_565 S
O276 C274 1.263 . S
C277 O278 1.235 . S
C277 O304 1.289 . S
O278 C277 1.235 . S
C279 C281 1.400 . S
C279 N282 1.351 . S
C279 C284 1.501 . S
C280 C281 1.387 . S
C280 N283 1.341 . S
C281 C279 1.400 . S
C281 C280 1.387 . S
N282 Co273 2.022 . S
N282 C279 1.351 . S
N282 N283 1.365 . S
N283 C280 1.341 . S
N283 N282 1.365 . S
N283 H303 0.862 . S
C284 C279 1.501 . S
C284 H285 0.961 . S
C284 H286 0.961 . S
C284 H287 0.960 . S
H285 C284 0.961 . S
H286 C284 0.961 . S
H287 C284 0.960 . S
C288 N289 1.318 1_545 S
C288 C292 1.401 . S
C288 C293 1.499 1_545 S
N289 Co272 2.021 . S
N289 C288 1.318 1_565 S
N289 N290 1.375 1_565 S
N290 Co273 1.993 . S
N290 N289 1.375 1_545 S
N290 C291 1.346 . S
C291 N290 1.346 . S
C291 C292 1.396 . S
C291 C301 1.510 . S
C292 C288 1.401 . S
C292 C291 1.396 . S
C293 C288 1.499 1_565 S
C293 H294 0.959 . S
C293 H295 0.960 . S
C293 H296 0.961 . S
H294 C293 0.959 . S
H295 C293 0.960 . S
H296 C293 0.961 . S
O297 Co272 1.967 . S
O297 C305 1.236 1_565 S
O298 Co273 1.941 . S
O298 C305 1.286 . S
H299 C301 0.959 . S
H300 C301 0.961 . S
C301 C291 1.510 . S
C301 H299 0.959 . S
C301 H300 0.961 . S
C301 H302 0.960 . S
H302 C301 0.960 . S
H303 N283 0.862 . S
O304 Co272 1.920 . S
O304 C277 1.289 . S
C305 O297 1.236 1_545 S
C305 O298 1.286 . S
Co306 O309 1.970 . S
Co306 N323 2.010 . S
Co306 O331 1.967 . S
Co306 O338 1.920 . S
Co307 O310 1.966 1_565 S
Co307 N316 2.022 . S
Co307 N324 1.993 . S
Co307 O332 1.941 . S
C308 O309 1.258 . S
C308 O310 1.263 . S
O309 Co306 1.970 . S
O309 C308 1.258 . S
O310 Co307 1.966 1_545 S
O310 C308 1.263 . S
C311 O312 1.235 . S
C311 O338 1.289 . S
O312 C311 1.235 . S
C313 C315 1.400 . S
C313 N316 1.351 . S
C313 C318 1.501 . S
C314 C315 1.387 . S
C314 N317 1.341 . S
C315 C313 1.400 . S
C315 C314 1.387 . S
N316 Co307 2.022 . S
N316 C313 1.351 . S
N316 N317 1.365 . S
N317 C314 1.341 . S
N317 N316 1.365 . S
N317 H337 0.862 . S
C318 C313 1.501 . S
C318 H319 0.961 . S
C318 H320 0.961 . S
C318 H321 0.960 . S
H319 C318 0.961 . S
H320 C318 0.961 . S
H321 C318 0.960 . S
C322 N323 1.351 1_565 S
C322 C326 1.401 . S
C322 C327 1.499 1_565 S
N323 Co306 2.010 . S
N323 C322 1.351 1_545 S
N323 N324 1.349 1_545 S
N324 Co307 1.993 . S
N324 N323 1.349 1_565 S
N324 C325 1.346 . S
C325 N324 1.346 . S
C325 C326 1.396 . S
C325 C335 1.510 . S
C326 C322 1.401 . S
C326 C325 1.396 . S
C327 C322 1.499 1_545 S
C327 H328 0.959 . S
C327 H329 0.960 . S
C327 H330 0.961 . S
H328 C327 0.959 . S
H329 C327 0.960 . S
H330 C327 0.961 . S
O331 Co306 1.967 . S
O331 C339 1.218 1_545 S
O332 Co307 1.941 . S
O332 C339 1.308 . S
H333 C335 0.959 . S
H334 C335 0.961 . S
C335 C325 1.510 . S
C335 H333 0.959 . S
C335 H334 0.961 . S
C335 H336 0.960 . S
H336 C335 0.960 . S
H337 N317 0.862 . S
O338 Co306 1.920 . S
O338 C311 1.289 . S
C339 O331 1.218 1_565 S
C339 O332 1.308 . S
Co340 O343 1.970 . S
Co340 N357 2.021 . S
Co340 O365 1.967 . S
Co340 O372 1.920 . S
Co341 O344 1.966 1_455 S
Co341 N350 2.022 . S
Co341 N358 1.993 . S
Co341 O366 1.941 . S
C342 O343 1.258 . S
C342 O344 1.263 . S
O343 Co340 1.970 . S
O343 C342 1.258 . S
O344 Co341 1.966 1_655 S
O344 C342 1.263 . S
C345 O346 1.235 . S
C345 O372 1.289 . S
O346 C345 1.235 . S
C347 C349 1.400 . S
C347 N350 1.351 . S
C347 C352 1.501 . S
C348 C349 1.387 . S
C348 N351 1.341 . S
C349 C347 1.400 . S
C349 C348 1.387 . S
N350 Co341 2.022 . S
N350 C347 1.351 . S
N350 N351 1.365 . S
N351 C348 1.341 . S
N351 N350 1.365 . S
N351 H371 0.862 . S
C352 C347 1.501 . S
C352 H353 0.961 . S
C352 H354 0.961 . S
C352 H355 0.960 . S
H353 C352 0.961 . S
H354 C352 0.961 . S
H355 C352 0.960 . S
C356 N357 1.318 1_455 S
C356 C360 1.401 . S
C356 C361 1.499 1_455 S
N357 Co340 2.021 . S
N357 C356 1.318 1_655 S
N357 N358 1.375 1_655 S
N358 Co341 1.993 . S
N358 N357 1.375 1_455 S
N358 C359 1.346 . S
C359 N358 1.346 . S
C359 C360 1.396 . S
C359 C369 1.510 . S
C360 C356 1.401 . S
C360 C359 1.396 . S
C361 C356 1.499 1_655 S
C361 H362 0.959 . S
C361 H363 0.960 . S
C361 H364 0.961 . S
H362 C361 0.959 . S
H363 C361 0.960 . S
H364 C361 0.961 . S
O365 Co340 1.967 . S
O365 C373 1.236 1_655 S
O366 Co341 1.941 . S
O366 C373 1.286 . S
H367 C369 0.959 . S
H368 C369 0.961 . S
C369 C359 1.510 . S
C369 H367 0.959 . S
C369 H368 0.961 . S
C369 H370 0.960 . S
H370 C369 0.960 . S
H371 N351 0.862 . S
O372 Co340 1.920 . S
O372 C345 1.289 . S
C373 O365 1.236 1_455 S
C373 O366 1.286 . S
Co374 O377 1.970 . S
Co374 N391 1.989 . S
Co374 O399 1.967 . S
Co374 O406 1.920 . S
Co375 O378 1.966 . S
Co375 N384 2.022 . S
Co375 N392 1.993 . S
Co375 O400 1.941 . S
C376 O377 1.258 . S
C376 O378 1.263 . S
O377 Co374 1.970 . S
O377 C376 1.258 . S
O378 Co375 1.966 . S
O378 C376 1.263 . S
C379 O380 1.235 . S
C379 O406 1.289 . S
O380 C379 1.235 . S
C381 C383 1.400 . S
C381 N384 1.351 . S
C381 C386 1.501 . S
C382 C383 1.387 . S
C382 N385 1.341 . S
C383 C381 1.400 . S
C383 C382 1.387 . S
N384 Co375 2.022 . S
N384 C381 1.351 . S
N384 N385 1.365 . S
N385 C382 1.341 . S
N385 N384 1.365 . S
N385 H405 0.862 . S
C386 C381 1.501 . S
C386 H387 0.961 . S
C386 H388 0.961 . S
C386 H389 0.960 . S
H387 C386 0.961 . S
H388 C386 0.961 . S
H389 C386 0.960 . S
C390 N391 1.342 . S
C390 C394 1.401 . S
C390 C395 1.499 . S
N391 Co374 1.989 . S
N391 C390 1.342 . S
N391 N392 1.388 . S
N392 Co375 1.993 . S
N392 N391 1.388 . S
N392 C393 1.346 . S
C393 N392 1.346 . S
C393 C394 1.396 . S
C393 C403 1.510 . S
C394 C390 1.401 . S
C394 C393 1.396 . S
C395 C390 1.499 . S
C395 H396 0.959 . S
C395 H397 0.960 . S
C395 H398 0.961 . S
H396 C395 0.959 . S
H397 C395 0.960 . S
H398 C395 0.961 . S
O399 Co374 1.967 . S
O399 C407 1.258 . S
O400 Co375 1.941 . S
O400 C407 1.266 . S
H401 C403 0.959 . S
H402 C403 0.961 . S
C403 C393 1.510 . S
C403 H401 0.959 . S
C403 H402 0.961 . S
C403 H404 0.960 . S
H404 C403 0.960 . S
H405 N385 0.862 . S
O406 Co374 1.920 . S
O406 C379 1.289 . S
C407 O399 1.258 . S
C407 O400 1.266 . S
Co408 O411 1.970 . S
Co408 N425 1.989 . S
Co408 O433 1.967 . S
Co408 O440 1.920 . S
Co409 O412 1.966 . S
Co409 N418 2.022 . S
Co409 N426 1.993 . S
Co409 O434 1.941 . S
C410 O411 1.258 . S
C410 O412 1.263 . S
O411 Co408 1.970 . S
O411 C410 1.258 . S
O412 Co409 1.966 . S
O412 C410 1.263 . S
C413 O414 1.235 . S
C413 O440 1.289 . S
O414 C413 1.235 . S
C415 C417 1.400 . S
C415 N418 1.351 . S
C415 C420 1.501 . S
C416 C417 1.387 . S
C416 N419 1.341 . S
C417 C415 1.400 . S
C417 C416 1.387 . S
N418 Co409 2.022 . S
N418 C415 1.351 . S
N418 N419 1.365 . S
N419 C416 1.341 . S
N419 N418 1.365 . S
N419 H439 0.862 . S
C420 C415 1.501 . S
C420 H421 0.961 . S
C420 H422 0.961 . S
C420 H423 0.960 . S
H421 C420 0.961 . S
H422 C420 0.961 . S
H423 C420 0.960 . S
C424 N425 1.342 . S
C424 C428 1.401 . S
C424 C429 1.499 . S
N425 Co408 1.989 . S
N425 C424 1.342 . S
N425 N426 1.388 . S
N426 Co409 1.993 . S
N426 N425 1.388 . S
N426 C427 1.346 . S
C427 N426 1.346 . S
C427 C428 1.396 . S
C427 C437 1.510 . S
C428 C424 1.401 . S
C428 C427 1.396 . S
C429 C424 1.499 . S
C429 H430 0.959 . S
C429 H431 0.960 . S
C429 H432 0.961 . S
H430 C429 0.959 . S
H431 C429 0.960 . S
H432 C429 0.961 . S
O433 Co408 1.967 . S
O433 C441 1.258 . S
O434 Co409 1.941 . S
O434 C441 1.266 . S
H435 C437 0.959 . S
H436 C437 0.961 . S
C437 C427 1.510 . S
C437 H435 0.959 . S
C437 H436 0.961 . S
C437 H438 0.960 . S
H438 C437 0.960 . S
H439 N419 0.862 . S
O440 Co408 1.920 . S
O440 C413 1.289 . S
C441 O433 1.258 . S
C441 O434 1.266 . S
Co442 O445 1.970 . S
Co442 N459 1.989 . S
Co442 O467 1.967 . S
Co442 O474 1.920 . S
Co443 O446 1.966 . S
Co443 N452 2.022 . S
Co443 N460 1.993 . S
Co443 O468 1.941 . S
C444 O445 1.258 . S
C444 O446 1.263 . S
O445 Co442 1.970 . S
O445 C444 1.258 . S
O446 Co443 1.966 . S
O446 C444 1.263 . S
C447 O448 1.235 . S
C447 O474 1.289 . S
O448 C447 1.235 . S
C449 C451 1.400 . S
C449 N452 1.351 . S
C449 C454 1.501 . S
C450 C451 1.387 . S
C450 N453 1.341 . S
C451 C449 1.400 . S
C451 C450 1.387 . S
N452 Co443 2.022 . S
N452 C449 1.351 . S
N452 N453 1.365 . S
N453 C450 1.341 . S
N453 N452 1.365 . S
N453 H473 0.862 . S
C454 C449 1.501 . S
C454 H455 0.961 . S
C454 H456 0.961 . S
C454 H457 0.960 . S
H455 C454 0.961 . S
H456 C454 0.961 . S
H457 C454 0.960 . S
C458 N459 1.342 . S
C458 C462 1.401 . S
C458 C463 1.499 . S
N459 Co442 1.989 . S
N459 C458 1.342 . S
N459 N460 1.388 . S
N460 Co443 1.993 . S
N460 N459 1.388 . S
N460 C461 1.346 . S
C461 N460 1.346 . S
C461 C462 1.396 . S
C461 C471 1.510 . S
C462 C458 1.401 . S
C462 C461 1.396 . S
C463 C458 1.499 . S
C463 H464 0.959 . S
C463 H465 0.960 . S
C463 H466 0.961 . S
H464 C463 0.959 . S
H465 C463 0.960 . S
H466 C463 0.961 . S
O467 Co442 1.967 . S
O467 C475 1.258 . S
O468 Co443 1.941 . S
O468 C475 1.266 . S
H469 C471 0.959 . S
H470 C471 0.961 . S
C471 C461 1.510 . S
C471 H469 0.959 . S
C471 H470 0.961 . S
C471 H472 0.960 . S
H472 C471 0.960 . S
H473 N453 0.862 . S
O474 Co442 1.920 . S
O474 C447 1.289 . S
C475 O467 1.258 . S
C475 O468 1.266 . S
Co476 O479 1.970 . S
Co476 N493 1.989 . S
Co476 O501 1.967 . S
Co476 O508 1.920 . S
Co477 O480 1.966 . S
Co477 N486 2.022 . S
Co477 N494 1.993 . S
Co477 O502 1.941 . S
C478 O479 1.258 . S
C478 O480 1.263 . S
O479 Co476 1.970 . S
O479 C478 1.258 . S
O480 Co477 1.966 . S
O480 C478 1.263 . S
C481 O482 1.235 . S
C481 O508 1.289 . S
O482 C481 1.235 . S
C483 C485 1.400 . S
C483 N486 1.351 . S
C483 C488 1.501 . S
C484 C485 1.387 . S
C484 N487 1.341 . S
C485 C483 1.400 . S
C485 C484 1.387 . S
N486 Co477 2.022 . S
N486 C483 1.351 . S
N486 N487 1.365 . S
N487 C484 1.341 . S
N487 N486 1.365 . S
N487 H507 0.862 . S
C488 C483 1.501 . S
C488 H489 0.961 . S
C488 H490 0.961 . S
C488 H491 0.960 . S
H489 C488 0.961 . S
H490 C488 0.961 . S
H491 C488 0.960 . S
C492 N493 1.342 . S
C492 C496 1.401 . S
C492 C497 1.499 . S
N493 Co476 1.989 . S
N493 C492 1.342 . S
N493 N494 1.388 . S
N494 Co477 1.993 . S
N494 N493 1.388 . S
N494 C495 1.346 . S
C495 N494 1.346 . S
C495 C496 1.396 . S
C495 C505 1.510 . S
C496 C492 1.401 . S
C496 C495 1.396 . S
C497 C492 1.499 . S
C497 H498 0.959 . S
C497 H499 0.960 . S
C497 H500 0.961 . S
H498 C497 0.959 . S
H499 C497 0.960 . S
H500 C497 0.961 . S
O501 Co476 1.967 . S
O501 C509 1.258 . S
O502 Co477 1.941 . S
O502 C509 1.266 . S
H503 C505 0.959 . S
H504 C505 0.961 . S
C505 C495 1.510 . S
C505 H503 0.959 . S
C505 H504 0.961 . S
C505 H506 0.960 . S
H506 C505 0.960 . S
H507 N487 0.862 . S
O508 Co476 1.920 . S
O508 C481 1.289 . S
C509 O501 1.258 . S
C509 O502 1.266 . S
Co510 O513 1.970 . S
Co510 N527 1.989 . S
Co510 O535 1.967 . S
Co510 O542 1.920 . S
Co511 O514 1.966 . S
Co511 N520 2.022 . S
Co511 N528 1.993 . S
Co511 O536 1.941 . S
C512 O513 1.258 . S
C512 O514 1.263 . S
O513 Co510 1.970 . S
O513 C512 1.258 . S
O514 Co511 1.966 . S
O514 C512 1.263 . S
C515 O516 1.235 . S
C515 O542 1.289 . S
O516 C515 1.235 . S
C517 C519 1.400 . S
C517 N520 1.351 . S
C517 C522 1.501 . S
C518 C519 1.387 . S
C518 N521 1.341 . S
C519 C517 1.400 . S
C519 C518 1.387 . S
N520 Co511 2.022 . S
N520 C517 1.351 . S
N520 N521 1.365 . S
N521 C518 1.341 . S
N521 N520 1.365 . S
N521 H541 0.862 . S
C522 C517 1.501 . S
C522 H523 0.961 . S
C522 H524 0.961 . S
C522 H525 0.960 . S
H523 C522 0.961 . S
H524 C522 0.961 . S
H525 C522 0.960 . S
C526 N527 1.342 . S
C526 C530 1.401 . S
C526 C531 1.499 . S
N527 Co510 1.989 . S
N527 C526 1.342 . S
N527 N528 1.388 . S
N528 Co511 1.993 . S
N528 N527 1.388 . S
N528 C529 1.346 . S
C529 N528 1.346 . S
C529 C530 1.396 . S
C529 C539 1.510 . S
C530 C526 1.401 . S
C530 C529 1.396 . S
C531 C526 1.499 . S
C531 H532 0.959 . S
C531 H533 0.960 . S
C531 H534 0.961 . S
H532 C531 0.959 . S
H533 C531 0.960 . S
H534 C531 0.961 . S
O535 Co510 1.967 . S
O535 C543 1.258 . S
O536 Co511 1.941 . S
O536 C543 1.266 . S
H537 C539 0.959 . S
H538 C539 0.961 . S
C539 C529 1.510 . S
C539 H537 0.959 . S
C539 H538 0.961 . S
C539 H540 0.960 . S
H540 C539 0.960 . S
H541 N521 0.862 . S
O542 Co510 1.920 . S
O542 C515 1.289 . S
C543 O535 1.258 . S
C543 O536 1.266 . S
Co544 O547 1.970 . S
Co544 N561 1.989 . S
Co544 O569 1.967 . S
Co544 O576 1.920 . S
Co545 O548 1.966 . S
Co545 N554 2.022 . S
Co545 N562 1.993 . S
Co545 O570 1.941 . S
C546 O547 1.258 . S
C546 O548 1.263 . S
O547 Co544 1.970 . S
O547 C546 1.258 . S
O548 Co545 1.966 . S
O548 C546 1.263 . S
C549 O550 1.235 . S
C549 O576 1.289 . S
O550 C549 1.235 . S
C551 C553 1.400 . S
C551 N554 1.351 . S
C551 C556 1.501 . S
C552 C553 1.387 . S
C552 N555 1.341 . S
C553 C551 1.400 . S
C553 C552 1.387 . S
N554 Co545 2.022 . S
N554 C551 1.351 . S
N554 N555 1.365 . S
N555 C552 1.341 . S
N555 N554 1.365 . S
N555 H575 0.862 . S
C556 C551 1.501 . S
C556 H557 0.961 . S
C556 H558 0.961 . S
C556 H559 0.960 . S
H557 C556 0.961 . S
H558 C556 0.961 . S
H559 C556 0.960 . S
C560 N561 1.342 . S
C560 C564 1.401 . S
C560 C565 1.499 . S
N561 Co544 1.989 . S
N561 C560 1.342 . S
N561 N562 1.388 . S
N562 Co545 1.993 . S
N562 N561 1.388 . S
N562 C563 1.346 . S
C563 N562 1.346 . S
C563 C564 1.396 . S
C563 C573 1.510 . S
C564 C560 1.401 . S
C564 C563 1.396 . S
C565 C560 1.499 . S
C565 H566 0.959 . S
C565 H567 0.960 . S
C565 H568 0.961 . S
H566 C565 0.959 . S
H567 C565 0.960 . S
H568 C565 0.961 . S
O569 Co544 1.967 . S
O569 C577 1.258 . S
O570 Co545 1.941 . S
O570 C577 1.266 . S
H571 C573 0.959 . S
H572 C573 0.961 . S
C573 C563 1.510 . S
C573 H571 0.959 . S
C573 H572 0.961 . S
C573 H574 0.960 . S
H574 C573 0.960 . S
H575 N555 0.862 . S
O576 Co544 1.920 . S
O576 C549 1.289 . S
C577 O569 1.258 . S
C577 O570 1.266 . S
Co578 O581 1.970 . S
Co578 N595 1.989 . S
Co578 O603 1.967 . S
Co578 O610 1.920 . S
Co579 O582 1.966 . S
Co579 N588 2.022 . S
Co579 N596 1.993 . S
Co579 O604 1.941 . S
C580 O581 1.258 . S
C580 O582 1.263 . S
O581 Co578 1.970 . S
O581 C580 1.258 . S
O582 Co579 1.966 . S
O582 C580 1.263 . S
C583 O584 1.235 . S
C583 O610 1.289 . S
O584 C583 1.235 . S
C585 C587 1.400 . S
C585 N588 1.351 . S
C585 C590 1.501 . S
C586 C587 1.387 . S
C586 N589 1.341 . S
C587 C585 1.400 . S
C587 C586 1.387 . S
N588 Co579 2.022 . S
N588 C585 1.351 . S
N588 N589 1.365 . S
N589 C586 1.341 . S
N589 N588 1.365 . S
N589 H609 0.862 . S
C590 C585 1.501 . S
C590 H591 0.961 . S
C590 H592 0.961 . S
C590 H593 0.960 . S
H591 C590 0.961 . S
H592 C590 0.961 . S
H593 C590 0.960 . S
C594 N595 1.342 . S
C594 C598 1.401 . S
C594 C599 1.499 . S
N595 Co578 1.989 . S
N595 C594 1.342 . S
N595 N596 1.388 . S
N596 Co579 1.993 . S
N596 N595 1.388 . S
N596 C597 1.346 . S
C597 N596 1.346 . S
C597 C598 1.396 . S
C597 C607 1.510 . S
C598 C594 1.401 . S
C598 C597 1.396 . S
C599 C594 1.499 . S
C599 H600 0.959 . S
C599 H601 0.960 . S
C599 H602 0.961 . S
H600 C599 0.959 . S
H601 C599 0.960 . S
H602 C599 0.961 . S
O603 Co578 1.967 . S
O603 C611 1.258 . S
O604 Co579 1.941 . S
O604 C611 1.266 . S
H605 C607 0.959 . S
H606 C607 0.961 . S
C607 C597 1.510 . S
C607 H605 0.959 . S
C607 H606 0.961 . S
C607 H608 0.960 . S
H608 C607 0.960 . S
H609 N589 0.862 . S
O610 Co578 1.920 . S
O610 C583 1.289 . S
C611 O603 1.258 . S
C611 O604 1.266 . S
Co612 O615 1.970 . S
Co612 N629 1.989 . S
Co612 O637 1.967 . S
Co612 O644 1.920 . S
Co613 O616 1.966 . S
Co613 N622 2.022 . S
Co613 N630 1.993 . S
Co613 O638 1.941 . S
C614 O615 1.258 . S
C614 O616 1.263 . S
O615 Co612 1.970 . S
O615 C614 1.258 . S
O616 Co613 1.966 . S
O616 C614 1.263 . S
C617 O618 1.235 . S
C617 O644 1.289 . S
O618 C617 1.235 . S
C619 C621 1.400 . S
C619 N622 1.351 . S
C619 C624 1.501 . S
C620 C621 1.387 . S
C620 N623 1.341 . S
C621 C619 1.400 . S
C621 C620 1.387 . S
N622 Co613 2.022 . S
N622 C619 1.351 . S
N622 N623 1.365 . S
N623 C620 1.341 . S
N623 N622 1.365 . S
N623 H643 0.862 . S
C624 C619 1.501 . S
C624 H625 0.961 . S
C624 H626 0.961 . S
C624 H627 0.960 . S
H625 C624 0.961 . S
H626 C624 0.961 . S
H627 C624 0.960 . S
C628 N629 1.342 . S
C628 C632 1.401 . S
C628 C633 1.499 . S
N629 Co612 1.989 . S
N629 C628 1.342 . S
N629 N630 1.388 . S
N630 Co613 1.993 . S
N630 N629 1.388 . S
N630 C631 1.346 . S
C631 N630 1.346 . S
C631 C632 1.396 . S
C631 C641 1.510 . S
C632 C628 1.401 . S
C632 C631 1.396 . S
C633 C628 1.499 . S
C633 H634 0.959 . S
C633 H635 0.960 . S
C633 H636 0.961 . S
H634 C633 0.959 . S
H635 C633 0.960 . S
H636 C633 0.961 . S
O637 Co612 1.967 . S
O637 C645 1.258 . S
O638 Co613 1.941 . S
O638 C645 1.266 . S
H639 C641 0.959 . S
H640 C641 0.961 . S
C641 C631 1.510 . S
C641 H639 0.959 . S
C641 H640 0.961 . S
C641 H642 0.960 . S
H642 C641 0.960 . S
H643 N623 0.862 . S
O644 Co612 1.920 . S
O644 C617 1.289 . S
C645 O637 1.258 . S
C645 O638 1.266 . S
Co646 O649 1.970 . S
Co646 N663 1.989 . S
Co646 O671 1.967 . S
Co646 O678 1.920 . S
Co647 O650 1.966 . S
Co647 N656 2.022 . S
Co647 N664 1.993 . S
Co647 O672 1.941 . S
C648 O649 1.258 . S
C648 O650 1.263 . S
O649 Co646 1.970 . S
O649 C648 1.258 . S
O650 Co647 1.966 . S
O650 C648 1.263 . S
C651 O652 1.235 . S
C651 O678 1.289 . S
O652 C651 1.235 . S
C653 C655 1.400 . S
C653 N656 1.351 . S
C653 C658 1.501 . S
C654 C655 1.387 . S
C654 N657 1.341 . S
C655 C653 1.400 . S
C655 C654 1.387 . S
N656 Co647 2.022 . S
N656 C653 1.351 . S
N656 N657 1.365 . S
N657 C654 1.341 . S
N657 N656 1.365 . S
N657 H677 0.862 . S
C658 C653 1.501 . S
C658 H659 0.961 . S
C658 H660 0.961 . S
C658 H661 0.960 . S
H659 C658 0.961 . S
H660 C658 0.961 . S
H661 C658 0.960 . S
C662 N663 1.342 . S
C662 C666 1.401 . S
C662 C667 1.499 . S
N663 Co646 1.989 . S
N663 C662 1.342 . S
N663 N664 1.388 . S
N664 Co647 1.993 . S
N664 N663 1.388 . S
N664 C665 1.346 . S
C665 N664 1.346 . S
C665 C666 1.396 . S
C665 C675 1.510 . S
C666 C662 1.401 . S
C666 C665 1.396 . S
C667 C662 1.499 . S
C667 H668 0.959 . S
C667 H669 0.960 . S
C667 H670 0.961 . S
H668 C667 0.959 . S
H669 C667 0.960 . S
H670 C667 0.961 . S
O671 Co646 1.967 . S
O671 C679 1.258 . S
O672 Co647 1.941 . S
O672 C679 1.266 . S
H673 C675 0.959 . S
H674 C675 0.961 . S
C675 C665 1.510 . S
C675 H673 0.959 . S
C675 H674 0.961 . S
C675 H676 0.960 . S
H676 C675 0.960 . S
H677 N657 0.862 . S
O678 Co646 1.920 . S
O678 C651 1.289 . S
C679 O671 1.258 . S
C679 O672 1.266 . S
Co680 O683 1.970 . S
Co680 N697 1.989 . S
Co680 O705 1.967 . S
Co680 O712 1.920 . S
Co681 O684 1.966 . S
Co681 N690 2.022 . S
Co681 N698 1.993 . S
Co681 O706 1.941 . S
C682 O683 1.258 . S
C682 O684 1.263 . S
O683 Co680 1.970 . S
O683 C682 1.258 . S
O684 Co681 1.966 . S
O684 C682 1.263 . S
C685 O686 1.235 . S
C685 O712 1.289 . S
O686 C685 1.235 . S
C687 C689 1.400 . S
C687 N690 1.351 . S
C687 C692 1.501 . S
C688 C689 1.387 . S
C688 N691 1.341 . S
C689 C687 1.400 . S
C689 C688 1.387 . S
N690 Co681 2.022 . S
N690 C687 1.351 . S
N690 N691 1.365 . S
N691 C688 1.341 . S
N691 N690 1.365 . S
N691 H711 0.862 . S
C692 C687 1.501 . S
C692 H693 0.961 . S
C692 H694 0.961 . S
C692 H695 0.960 . S
H693 C692 0.961 . S
H694 C692 0.961 . S
H695 C692 0.960 . S
C696 N697 1.342 . S
C696 C700 1.401 . S
C696 C701 1.499 . S
N697 Co680 1.989 . S
N697 C696 1.342 . S
N697 N698 1.388 . S
N698 Co681 1.993 . S
N698 N697 1.388 . S
N698 C699 1.346 . S
C699 N698 1.346 . S
C699 C700 1.396 . S
C699 C709 1.510 . S
C700 C696 1.401 . S
C700 C699 1.396 . S
C701 C696 1.499 . S
C701 H702 0.959 . S
C701 H703 0.960 . S
C701 H704 0.961 . S
H702 C701 0.959 . S
H703 C701 0.960 . S
H704 C701 0.961 . S
O705 Co680 1.967 . S
O705 C713 1.258 . S
O706 Co681 1.941 . S
O706 C713 1.266 . S
H707 C709 0.959 . S
H708 C709 0.961 . S
C709 C699 1.510 . S
C709 H707 0.959 . S
C709 H708 0.961 . S
C709 H710 0.960 . S
H710 C709 0.960 . S
H711 N691 0.862 . S
O712 Co680 1.920 . S
O712 C685 1.289 . S
C713 O705 1.258 . S
C713 O706 1.266 . S
Co714 O717 1.970 . S
Co714 N731 1.989 . S
Co714 O739 1.967 1_556 S
Co714 O746 1.920 . S
Co715 O718 1.966 . S
Co715 N724 2.022 . S
Co715 N732 1.993 . S
Co715 O740 1.941 1_556 S
C716 O717 1.258 . S
C716 O718 1.263 . S
O717 Co714 1.970 . S
O717 C716 1.258 . S
O718 Co715 1.966 . S
O718 C716 1.263 . S
C719 O720 1.235 . S
C719 O746 1.289 . S
O720 C719 1.235 . S
C721 C723 1.400 . S
C721 N724 1.351 . S
C721 C726 1.501 . S
C722 C723 1.387 . S
C722 N725 1.341 . S
C723 C721 1.400 . S
C723 C722 1.387 . S
N724 Co715 2.022 . S
N724 C721 1.351 . S
N724 N725 1.365 . S
N725 C722 1.341 . S
N725 N724 1.365 . S
N725 H745 0.862 . S
C726 C721 1.501 . S
C726 H727 0.961 . S
C726 H728 0.961 . S
C726 H729 0.960 . S
H727 C726 0.961 . S
H728 C726 0.961 . S
H729 C726 0.960 . S
C730 N731 1.342 . S
C730 C734 1.401 . S
C730 C735 1.499 . S
N731 Co714 1.989 . S
N731 C730 1.342 . S
N731 N732 1.388 . S
N732 Co715 1.993 . S
N732 N731 1.388 . S
N732 C733 1.346 . S
C733 N732 1.346 . S
C733 C734 1.396 . S
C733 C743 1.510 . S
C734 C730 1.401 . S
C734 C733 1.396 . S
C735 C730 1.499 . S
C735 H736 0.959 . S
C735 H737 0.960 . S
C735 H738 0.961 . S
H736 C735 0.959 . S
H737 C735 0.960 . S
H738 C735 0.961 . S
O739 Co714 1.967 1_554 S
O739 C747 1.258 . S
O740 Co715 1.941 1_554 S
O740 C747 1.266 . S
H741 C743 0.959 . S
H742 C743 0.961 . S
C743 C733 1.510 . S
C743 H741 0.959 . S
C743 H742 0.961 . S
C743 H744 0.960 . S
H744 C743 0.960 . S
H745 N725 0.862 . S
O746 Co714 1.920 . S
O746 C719 1.289 . S
C747 O739 1.258 . S
C747 O740 1.266 . S
Co748 O751 1.970 . S
Co748 N765 1.989 . S
Co748 O773 1.967 1_556 S
Co748 O780 1.920 . S
Co749 O752 1.966 . S
Co749 N758 2.022 . S
Co749 N766 1.993 . S
Co749 O774 1.941 1_556 S
C750 O751 1.258 . S
C750 O752 1.263 . S
O751 Co748 1.970 . S
O751 C750 1.258 . S
O752 Co749 1.966 . S
O752 C750 1.263 . S
C753 O754 1.235 . S
C753 O780 1.289 . S
O754 C753 1.235 . S
C755 C757 1.400 . S
C755 N758 1.351 . S
C755 C760 1.501 . S
C756 C757 1.387 . S
C756 N759 1.341 . S
C757 C755 1.400 . S
C757 C756 1.387 . S
N758 Co749 2.022 . S
N758 C755 1.351 . S
N758 N759 1.365 . S
N759 C756 1.341 . S
N759 N758 1.365 . S
N759 H779 0.862 . S
C760 C755 1.501 . S
C760 H761 0.961 . S
C760 H762 0.961 . S
C760 H763 0.960 . S
H761 C760 0.961 . S
H762 C760 0.961 . S
H763 C760 0.960 . S
C764 N765 1.342 . S
C764 C768 1.401 . S
C764 C769 1.499 . S
N765 Co748 1.989 . S
N765 C764 1.342 . S
N765 N766 1.388 . S
N766 Co749 1.993 . S
N766 N765 1.388 . S
N766 C767 1.346 . S
C767 N766 1.346 . S
C767 C768 1.396 . S
C767 C777 1.510 . S
C768 C764 1.401 . S
C768 C767 1.396 . S
C769 C764 1.499 . S
C769 H770 0.959 . S
C769 H771 0.960 . S
C769 H772 0.961 . S
H770 C769 0.959 . S
H771 C769 0.960 . S
H772 C769 0.961 . S
O773 Co748 1.967 1_554 S
O773 C781 1.258 . S
O774 Co749 1.941 1_554 S
O774 C781 1.266 . S
H775 C777 0.959 . S
H776 C777 0.961 . S
C777 C767 1.510 . S
C777 H775 0.959 . S
C777 H776 0.961 . S
C777 H778 0.960 . S
H778 C777 0.960 . S
H779 N759 0.862 . S
O780 Co748 1.920 . S
O780 C753 1.289 . S
C781 O773 1.258 . S
C781 O774 1.266 . S
Co782 O785 1.970 . S
Co782 N799 1.989 . S
Co782 O807 1.967 1_556 S
Co782 O814 1.920 . S
Co783 O786 1.966 . S
Co783 N792 2.022 . S
Co783 N800 1.993 . S
Co783 O808 1.941 1_556 S
C784 O785 1.258 . S
C784 O786 1.263 . S
O785 Co782 1.970 . S
O785 C784 1.258 . S
O786 Co783 1.966 . S
O786 C784 1.263 . S
C787 O788 1.235 . S
C787 O814 1.289 . S
O788 C787 1.235 . S
C789 C791 1.400 . S
C789 N792 1.351 . S
C789 C794 1.501 . S
C790 C791 1.387 . S
C790 N793 1.341 . S
C791 C789 1.400 . S
C791 C790 1.387 . S
N792 Co783 2.022 . S
N792 C789 1.351 . S
N792 N793 1.365 . S
N793 C790 1.341 . S
N793 N792 1.365 . S
N793 H813 0.862 . S
C794 C789 1.501 . S
C794 H795 0.961 . S
C794 H796 0.961 . S
C794 H797 0.960 . S
H795 C794 0.961 . S
H796 C794 0.961 . S
H797 C794 0.960 . S
C798 N799 1.342 . S
C798 C802 1.401 . S
C798 C803 1.499 . S
N799 Co782 1.989 . S
N799 C798 1.342 . S
N799 N800 1.388 . S
N800 Co783 1.993 . S
N800 N799 1.388 . S
N800 C801 1.346 . S
C801 N800 1.346 . S
C801 C802 1.396 . S
C801 C811 1.510 . S
C802 C798 1.401 . S
C802 C801 1.396 . S
C803 C798 1.499 . S
C803 H804 0.959 . S
C803 H805 0.960 . S
C803 H806 0.961 . S
H804 C803 0.959 . S
H805 C803 0.960 . S
H806 C803 0.961 . S
O807 Co782 1.967 1_554 S
O807 C815 1.258 . S
O808 Co783 1.941 1_554 S
O808 C815 1.266 . S
H809 C811 0.959 . S
H810 C811 0.961 . S
C811 C801 1.510 . S
C811 H809 0.959 . S
C811 H810 0.961 . S
C811 H812 0.960 . S
H812 C811 0.960 . S
H813 N793 0.862 . S
O814 Co782 1.920 . S
O814 C787 1.289 . S
C815 O807 1.258 . S
C815 O808 1.266 . S
Co816 O819 1.970 . S
Co816 N833 1.989 . S
Co816 O841 1.967 . S
Co816 O848 1.920 . S
Co817 O820 1.966 . S
Co817 N826 2.022 . S
Co817 N834 1.993 . S
Co817 O842 1.941 . S
C818 O819 1.258 . S
C818 O820 1.263 . S
O819 Co816 1.970 . S
O819 C818 1.258 . S
O820 Co817 1.966 . S
O820 C818 1.263 . S
C821 O822 1.235 . S
C821 O848 1.289 . S
O822 C821 1.235 . S
C823 C825 1.400 . S
C823 N826 1.351 . S
C823 C828 1.501 . S
C824 C825 1.387 . S
C824 N827 1.341 . S
C825 C823 1.400 . S
C825 C824 1.387 . S
N826 Co817 2.022 . S
N826 C823 1.351 . S
N826 N827 1.365 . S
N827 C824 1.341 . S
N827 N826 1.365 . S
N827 H847 0.862 . S
C828 C823 1.501 . S
C828 H829 0.961 . S
C828 H830 0.961 . S
C828 H831 0.960 . S
H829 C828 0.961 . S
H830 C828 0.961 . S
H831 C828 0.960 . S
C832 N833 1.342 . S
C832 C836 1.401 . S
C832 C837 1.499 . S
N833 Co816 1.989 . S
N833 C832 1.342 . S
N833 N834 1.388 . S
N834 Co817 1.993 . S
N834 N833 1.388 . S
N834 C835 1.346 . S
C835 N834 1.346 . S
C835 C836 1.396 . S
C835 C845 1.510 . S
C836 C832 1.401 . S
C836 C835 1.396 . S
C837 C832 1.499 . S
C837 H838 0.959 . S
C837 H839 0.960 . S
C837 H840 0.961 . S
H838 C837 0.959 . S
H839 C837 0.960 . S
H840 C837 0.961 . S
O841 Co816 1.967 . S
O841 C849 1.258 . S
O842 Co817 1.941 . S
O842 C849 1.266 . S
H843 C845 0.959 . S
H844 C845 0.961 . S
C845 C835 1.510 . S
C845 H843 0.959 . S
C845 H844 0.961 . S
C845 H846 0.960 . S
H846 C845 0.960 . S
H847 N827 0.862 . S
O848 Co816 1.920 . S
O848 C821 1.289 . S
C849 O841 1.258 . S
C849 O842 1.266 . S
Co850 O853 1.970 . S
Co850 N867 1.989 . S
Co850 O875 1.967 . S
Co850 O882 1.920 . S
Co851 O854 1.966 . S
Co851 N860 2.022 . S
Co851 N868 1.993 . S
Co851 O876 1.941 . S
C852 O853 1.258 . S
C852 O854 1.263 . S
O853 Co850 1.970 . S
O853 C852 1.258 . S
O854 Co851 1.966 . S
O854 C852 1.263 . S
C855 O856 1.235 . S
C855 O882 1.289 . S
O856 C855 1.235 . S
C857 C859 1.400 . S
C857 N860 1.351 . S
C857 C862 1.501 . S
C858 C859 1.387 . S
C858 N861 1.341 . S
C859 C857 1.400 . S
C859 C858 1.387 . S
N860 Co851 2.022 . S
N860 C857 1.351 . S
N860 N861 1.365 . S
N861 C858 1.341 . S
N861 N860 1.365 . S
N861 H881 0.862 . S
C862 C857 1.501 . S
C862 H863 0.961 . S
C862 H864 0.961 . S
C862 H865 0.960 . S
H863 C862 0.961 . S
H864 C862 0.961 . S
H865 C862 0.960 . S
C866 N867 1.342 . S
C866 C870 1.401 . S
C866 C871 1.499 . S
N867 Co850 1.989 . S
N867 C866 1.342 . S
N867 N868 1.388 . S
N868 Co851 1.993 . S
N868 N867 1.388 . S
N868 C869 1.346 . S
C869 N868 1.346 . S
C869 C870 1.396 . S
C869 C879 1.510 . S
C870 C866 1.401 . S
C870 C869 1.396 . S
C871 C866 1.499 . S
C871 H872 0.959 . S
C871 H873 0.960 . S
C871 H874 0.961 . S
H872 C871 0.959 . S
H873 C871 0.960 . S
H874 C871 0.961 . S
O875 Co850 1.967 . S
O875 C883 1.258 . S
O876 Co851 1.941 . S
O876 C883 1.266 . S
H877 C879 0.959 . S
H878 C879 0.961 . S
C879 C869 1.510 . S
C879 H877 0.959 . S
C879 H878 0.961 . S
C879 H880 0.960 . S
H880 C879 0.960 . S
H881 N861 0.862 . S
O882 Co850 1.920 . S
O882 C855 1.289 . S
C883 O875 1.258 . S
C883 O876 1.266 . S
Co884 O887 1.970 . S
Co884 N901 1.989 . S
Co884 O909 1.967 . S
Co884 O916 1.920 . S
Co885 O888 1.966 . S
Co885 N894 2.022 . S
Co885 N902 1.993 . S
Co885 O910 1.941 . S
C886 O887 1.258 . S
C886 O888 1.263 . S
O887 Co884 1.970 . S
O887 C886 1.258 . S
O888 Co885 1.966 . S
O888 C886 1.263 . S
C889 O890 1.235 . S
C889 O916 1.289 . S
O890 C889 1.235 . S
C891 C893 1.400 . S
C891 N894 1.351 . S
C891 C896 1.501 . S
C892 C893 1.387 . S
C892 N895 1.341 . S
C893 C891 1.400 . S
C893 C892 1.387 . S
N894 Co885 2.022 . S
N894 C891 1.351 . S
N894 N895 1.365 . S
N895 C892 1.341 . S
N895 N894 1.365 . S
N895 H915 0.862 . S
C896 C891 1.501 . S
C896 H897 0.961 . S
C896 H898 0.961 . S
C896 H899 0.960 . S
H897 C896 0.961 . S
H898 C896 0.961 . S
H899 C896 0.960 . S
C900 N901 1.342 . S
C900 C904 1.401 . S
C900 C905 1.499 . S
N901 Co884 1.989 . S
N901 C900 1.342 . S
N901 N902 1.388 . S
N902 Co885 1.993 . S
N902 N901 1.388 . S
N902 C903 1.346 . S
C903 N902 1.346 . S
C903 C904 1.396 . S
C903 C913 1.510 . S
C904 C900 1.401 . S
C904 C903 1.396 . S
C905 C900 1.499 . S
C905 H906 0.959 . S
C905 H907 0.960 . S
C905 H908 0.961 . S
H906 C905 0.959 . S
H907 C905 0.960 . S
H908 C905 0.961 . S
O909 Co884 1.967 . S
O909 C917 1.258 . S
O910 Co885 1.941 . S
O910 C917 1.266 . S
H911 C913 0.959 . S
H912 C913 0.961 . S
C913 C903 1.510 . S
C913 H911 0.959 . S
C913 H912 0.961 . S
C913 H914 0.960 . S
H914 C913 0.960 . S
H915 N895 0.862 . S
O916 Co884 1.920 . S
O916 C889 1.289 . S
C917 O909 1.258 . S
C917 O910 1.266 . S
Co918 O921 1.970 . S
Co918 N935 1.989 . S
Co918 O943 1.967 1_554 S
Co918 O950 1.920 . S
Co919 O922 1.966 . S
Co919 N928 2.022 . S
Co919 N936 1.993 . S
Co919 O944 1.941 1_554 S
C920 O921 1.258 . S
C920 O922 1.263 . S
O921 Co918 1.970 . S
O921 C920 1.258 . S
O922 Co919 1.966 . S
O922 C920 1.263 . S
C923 O924 1.235 . S
C923 O950 1.289 . S
O924 C923 1.235 . S
C925 C927 1.400 . S
C925 N928 1.351 . S
C925 C930 1.501 . S
C926 C927 1.387 . S
C926 N929 1.341 . S
C927 C925 1.400 . S
C927 C926 1.387 . S
N928 Co919 2.022 . S
N928 C925 1.351 . S
N928 N929 1.365 . S
N929 C926 1.341 . S
N929 N928 1.365 . S
N929 H949 0.862 . S
C930 C925 1.501 . S
C930 H931 0.961 . S
C930 H932 0.961 . S
C930 H933 0.960 . S
H931 C930 0.961 . S
H932 C930 0.961 . S
H933 C930 0.960 . S
C934 N935 1.342 . S
C934 C938 1.401 . S
C934 C939 1.499 . S
N935 Co918 1.989 . S
N935 C934 1.342 . S
N935 N936 1.388 . S
N936 Co919 1.993 . S
N936 N935 1.388 . S
N936 C937 1.346 . S
C937 N936 1.346 . S
C937 C938 1.396 . S
C937 C947 1.510 . S
C938 C934 1.401 . S
C938 C937 1.396 . S
C939 C934 1.499 . S
C939 H940 0.959 . S
C939 H941 0.960 . S
C939 H942 0.961 . S
H940 C939 0.959 . S
H941 C939 0.960 . S
H942 C939 0.961 . S
O943 Co918 1.967 1_556 S
O943 C951 1.258 . S
O944 Co919 1.941 1_556 S
O944 C951 1.266 . S
H945 C947 0.959 . S
H946 C947 0.961 . S
C947 C937 1.510 . S
C947 H945 0.959 . S
C947 H946 0.961 . S
C947 H948 0.960 . S
H948 C947 0.960 . S
H949 N929 0.862 . S
O950 Co918 1.920 . S
O950 C923 1.289 . S
C951 O943 1.258 . S
C951 O944 1.266 . S
Co952 O955 1.970 . S
Co952 N969 1.989 . S
Co952 O977 1.967 1_554 S
Co952 O984 1.920 . S
Co953 O956 1.966 . S
Co953 N962 2.022 . S
Co953 N970 1.993 . S
Co953 O978 1.941 1_554 S
C954 O955 1.258 . S
C954 O956 1.263 . S
O955 Co952 1.970 . S
O955 C954 1.258 . S
O956 Co953 1.966 . S
O956 C954 1.263 . S
C957 O958 1.235 . S
C957 O984 1.289 . S
O958 C957 1.235 . S
C959 C961 1.400 . S
C959 N962 1.351 . S
C959 C964 1.501 . S
C960 C961 1.387 . S
C960 N963 1.341 . S
C961 C959 1.400 . S
C961 C960 1.387 . S
N962 Co953 2.022 . S
N962 C959 1.351 . S
N962 N963 1.365 . S
N963 C960 1.341 . S
N963 N962 1.365 . S
N963 H983 0.862 . S
C964 C959 1.501 . S
C964 H965 0.961 . S
C964 H966 0.961 . S
C964 H967 0.960 . S
H965 C964 0.961 . S
H966 C964 0.961 . S
H967 C964 0.960 . S
C968 N969 1.342 . S
C968 C972 1.401 . S
C968 C973 1.499 . S
N969 Co952 1.989 . S
N969 C968 1.342 . S
N969 N970 1.388 . S
N970 Co953 1.993 . S
N970 N969 1.388 . S
N970 C971 1.346 . S
C971 N970 1.346 . S
C971 C972 1.396 . S
C971 C981 1.510 . S
C972 C968 1.401 . S
C972 C971 1.396 . S
C973 C968 1.499 . S
C973 H974 0.959 . S
C973 H975 0.960 . S
C973 H976 0.961 . S
H974 C973 0.959 . S
H975 C973 0.960 . S
H976 C973 0.961 . S
O977 Co952 1.967 1_556 S
O977 C985 1.258 . S
O978 Co953 1.941 1_556 S
O978 C985 1.266 . S
H979 C981 0.959 . S
H980 C981 0.961 . S
C981 C971 1.510 . S
C981 H979 0.959 . S
C981 H980 0.961 . S
C981 H982 0.960 . S
H982 C981 0.960 . S
H983 N963 0.862 . S
O984 Co952 1.920 . S
O984 C957 1.289 . S
C985 O977 1.258 . S
C985 O978 1.266 . S
Co986 O989 1.970 . S
Co986 N1003 1.989 . S
Co986 O1011 1.967 1_554 S
Co986 O1018 1.920 . S
Co987 O990 1.966 . S
Co987 N996 2.022 . S
Co987 N1004 1.993 . S
Co987 O1012 1.941 1_554 S
C988 O989 1.258 . S
C988 O990 1.263 . S
O989 Co986 1.970 . S
O989 C988 1.258 . S
O990 Co987 1.966 . S
O990 C988 1.263 . S
C991 O992 1.235 . S
C991 O1018 1.289 . S
O992 C991 1.235 . S
C993 C995 1.400 . S
C993 N996 1.351 . S
C993 C998 1.501 . S
C994 C995 1.387 . S
C994 N997 1.341 . S
C995 C993 1.400 . S
C995 C994 1.387 . S
N996 Co987 2.022 . S
N996 C993 1.351 . S
N996 N997 1.365 . S
N997 C994 1.341 . S
N997 N996 1.365 . S
N997 H1017 0.862 . S
C998 C993 1.501 . S
C998 H999 0.961 . S
C998 H1000 0.961 . S
C998 H1001 0.960 . S
H999 C998 0.961 . S
H1000 C998 0.961 . S
H1001 C998 0.960 . S
C1002 N1003 1.342 . S
C1002 C1006 1.401 . S
C1002 C1007 1.499 . S
N1003 Co986 1.989 . S
N1003 C1002 1.342 . S
N1003 N1004 1.388 . S
N1004 Co987 1.993 . S
N1004 N1003 1.388 . S
N1004 C1005 1.346 . S
C1005 N1004 1.346 . S
C1005 C1006 1.396 . S
C1005 C1015 1.510 . S
C1006 C1002 1.401 . S
C1006 C1005 1.396 . S
C1007 C1002 1.499 . S
C1007 H1008 0.959 . S
C1007 H1009 0.960 . S
C1007 H1010 0.961 . S
H1008 C1007 0.959 . S
H1009 C1007 0.960 . S
H1010 C1007 0.961 . S
O1011 Co986 1.967 1_556 S
O1011 C1019 1.258 . S
O1012 Co987 1.941 1_556 S
O1012 C1019 1.266 . S
H1013 C1015 0.959 . S
H1014 C1015 0.961 . S
C1015 C1005 1.510 . S
C1015 H1013 0.959 . S
C1015 H1014 0.961 . S
C1015 H1016 0.960 . S
H1016 C1015 0.960 . S
H1017 N997 0.862 . S
O1018 Co986 1.920 . S
O1018 C991 1.289 . S
C1019 O1011 1.258 . S
C1019 O1012 1.266 . S
Co1020 O1023 1.970 . S
Co1020 N1037 1.989 . S
Co1020 O1045 1.967 . S
Co1020 O1052 1.920 . S
Co1021 O1024 1.966 . S
Co1021 N1030 2.022 . S
Co1021 N1038 1.993 . S
Co1021 O1046 1.941 . S
C1022 O1023 1.258 . S
C1022 O1024 1.263 . S
O1023 Co1020 1.970 . S
O1023 C1022 1.258 . S
O1024 Co1021 1.966 . S
O1024 C1022 1.263 . S
C1025 O1026 1.235 . S
C1025 O1052 1.289 . S
O1026 C1025 1.235 . S
C1027 C1029 1.400 . S
C1027 N1030 1.351 . S
C1027 C1032 1.501 . S
C1028 C1029 1.387 . S
C1028 N1031 1.341 . S
C1029 C1027 1.400 . S
C1029 C1028 1.387 . S
N1030 Co1021 2.022 . S
N1030 C1027 1.351 . S
N1030 N1031 1.365 . S
N1031 C1028 1.341 . S
N1031 N1030 1.365 . S
N1031 H1051 0.862 . S
C1032 C1027 1.501 . S
C1032 H1033 0.961 . S
C1032 H1034 0.961 . S
C1032 H1035 0.960 . S
H1033 C1032 0.961 . S
H1034 C1032 0.961 . S
H1035 C1032 0.960 . S
C1036 N1037 1.342 . S
C1036 C1040 1.401 . S
C1036 C1041 1.499 . S
N1037 Co1020 1.989 . S
N1037 C1036 1.342 . S
N1037 N1038 1.388 . S
N1038 Co1021 1.993 . S
N1038 N1037 1.388 . S
N1038 C1039 1.346 . S
C1039 N1038 1.346 . S
C1039 C1040 1.396 . S
C1039 C1049 1.510 . S
C1040 C1036 1.401 . S
C1040 C1039 1.396 . S
C1041 C1036 1.499 . S
C1041 H1042 0.959 . S
C1041 H1043 0.960 . S
C1041 H1044 0.961 . S
H1042 C1041 0.959 . S
H1043 C1041 0.960 . S
H1044 C1041 0.961 . S
O1045 Co1020 1.967 . S
O1045 C1053 1.258 . S
O1046 Co1021 1.941 . S
O1046 C1053 1.266 . S
H1047 C1049 0.959 . S
H1048 C1049 0.961 . S
C1049 C1039 1.510 . S
C1049 H1047 0.959 . S
C1049 H1048 0.961 . S
C1049 H1050 0.960 . S
H1050 C1049 0.960 . S
H1051 N1031 0.862 . S
O1052 Co1020 1.920 . S
O1052 C1025 1.289 . S
C1053 O1045 1.258 . S
C1053 O1046 1.266 . S
Co1054 O1057 1.970 . S
Co1054 N1071 1.989 . S
Co1054 O1079 1.967 . S
Co1054 O1086 1.920 . S
Co1055 O1058 1.966 . S
Co1055 N1064 2.022 . S
Co1055 N1072 1.993 . S
Co1055 O1080 1.941 . S
C1056 O1057 1.258 . S
C1056 O1058 1.263 . S
O1057 Co1054 1.970 . S
O1057 C1056 1.258 . S
O1058 Co1055 1.966 . S
O1058 C1056 1.263 . S
C1059 O1060 1.235 . S
C1059 O1086 1.289 . S
O1060 C1059 1.235 . S
C1061 C1063 1.400 . S
C1061 N1064 1.351 . S
C1061 C1066 1.501 . S
C1062 C1063 1.387 . S
C1062 N1065 1.341 . S
C1063 C1061 1.400 . S
C1063 C1062 1.387 . S
N1064 Co1055 2.022 . S
N1064 C1061 1.351 . S
N1064 N1065 1.365 . S
N1065 C1062 1.341 . S
N1065 N1064 1.365 . S
N1065 H1085 0.862 . S
C1066 C1061 1.501 . S
C1066 H1067 0.961 . S
C1066 H1068 0.961 . S
C1066 H1069 0.960 . S
H1067 C1066 0.961 . S
H1068 C1066 0.961 . S
H1069 C1066 0.960 . S
C1070 N1071 1.342 . S
C1070 C1074 1.401 . S
C1070 C1075 1.499 . S
N1071 Co1054 1.989 . S
N1071 C1070 1.342 . S
N1071 N1072 1.388 . S
N1072 Co1055 1.993 . S
N1072 N1071 1.388 . S
N1072 C1073 1.346 . S
C1073 N1072 1.346 . S
C1073 C1074 1.396 . S
C1073 C1083 1.510 . S
C1074 C1070 1.401 . S
C1074 C1073 1.396 . S
C1075 C1070 1.499 . S
C1075 H1076 0.959 . S
C1075 H1077 0.960 . S
C1075 H1078 0.961 . S
H1076 C1075 0.959 . S
H1077 C1075 0.960 . S
H1078 C1075 0.961 . S
O1079 Co1054 1.967 . S
O1079 C1087 1.258 . S
O1080 Co1055 1.941 . S
O1080 C1087 1.266 . S
H1081 C1083 0.959 . S
H1082 C1083 0.961 . S
C1083 C1073 1.510 . S
C1083 H1081 0.959 . S
C1083 H1082 0.961 . S
C1083 H1084 0.960 . S
H1084 C1083 0.960 . S
H1085 N1065 0.862 . S
O1086 Co1054 1.920 . S
O1086 C1059 1.289 . S
C1087 O1079 1.258 . S
C1087 O1080 1.266 . S
Co1088 O1091 1.970 . S
Co1088 N1105 1.989 . S
Co1088 O1113 1.967 . S
Co1088 O1120 1.920 . S
Co1089 O1092 1.966 . S
Co1089 N1098 2.022 . S
Co1089 N1106 1.993 . S
Co1089 O1114 1.941 . S
C1090 O1091 1.258 . S
C1090 O1092 1.263 . S
O1091 Co1088 1.970 . S
O1091 C1090 1.258 . S
O1092 Co1089 1.966 . S
O1092 C1090 1.263 . S
C1093 O1094 1.235 . S
C1093 O1120 1.289 . S
O1094 C1093 1.235 . S
C1095 C1097 1.400 . S
C1095 N1098 1.351 . S
C1095 C1100 1.501 . S
C1096 C1097 1.387 . S
C1096 N1099 1.341 . S
C1097 C1095 1.400 . S
C1097 C1096 1.387 . S
N1098 Co1089 2.022 . S
N1098 C1095 1.351 . S
N1098 N1099 1.365 . S
N1099 C1096 1.341 . S
N1099 N1098 1.365 . S
N1099 H1119 0.862 . S
C1100 C1095 1.501 . S
C1100 H1101 0.961 . S
C1100 H1102 0.961 . S
C1100 H1103 0.960 . S
H1101 C1100 0.961 . S
H1102 C1100 0.961 . S
H1103 C1100 0.960 . S
C1104 N1105 1.342 . S
C1104 C1108 1.401 . S
C1104 C1109 1.499 . S
N1105 Co1088 1.989 . S
N1105 C1104 1.342 . S
N1105 N1106 1.388 . S
N1106 Co1089 1.993 . S
N1106 N1105 1.388 . S
N1106 C1107 1.346 . S
C1107 N1106 1.346 . S
C1107 C1108 1.396 . S
C1107 C1117 1.510 . S
C1108 C1104 1.401 . S
C1108 C1107 1.396 . S
C1109 C1104 1.499 . S
C1109 H1110 0.959 . S
C1109 H1111 0.960 . S
C1109 H1112 0.961 . S
H1110 C1109 0.959 . S
H1111 C1109 0.960 . S
H1112 C1109 0.961 . S
O1113 Co1088 1.967 . S
O1113 C1121 1.258 . S
O1114 Co1089 1.941 . S
O1114 C1121 1.266 . S
H1115 C1117 0.959 . S
H1116 C1117 0.961 . S
C1117 C1107 1.510 . S
C1117 H1115 0.959 . S
C1117 H1116 0.961 . S
C1117 H1118 0.960 . S
H1118 C1117 0.960 . S
H1119 N1099 0.862 . S
O1120 Co1088 1.920 . S
O1120 C1093 1.289 . S
C1121 O1113 1.258 . S
C1121 O1114 1.266 . S
Co1122 O1125 1.970 . S
Co1122 N1139 1.989 . S
Co1122 O1147 1.967 . S
Co1122 O1154 1.920 . S
Co1123 O1126 1.966 . S
Co1123 N1132 2.022 . S
Co1123 N1140 1.993 . S
Co1123 O1148 1.941 . S
C1124 O1125 1.258 . S
C1124 O1126 1.263 . S
O1125 Co1122 1.970 . S
O1125 C1124 1.258 . S
O1126 Co1123 1.966 . S
O1126 C1124 1.263 . S
C1127 O1128 1.235 . S
C1127 O1154 1.289 . S
O1128 C1127 1.235 . S
C1129 C1131 1.400 . S
C1129 N1132 1.351 . S
C1129 C1134 1.501 . S
C1130 C1131 1.387 . S
C1130 N1133 1.341 . S
C1131 C1129 1.400 . S
C1131 C1130 1.387 . S
N1132 Co1123 2.022 . S
N1132 C1129 1.351 . S
N1132 N1133 1.365 . S
N1133 C1130 1.341 . S
N1133 N1132 1.365 . S
N1133 H1153 0.862 . S
C1134 C1129 1.501 . S
C1134 H1135 0.961 . S
C1134 H1136 0.961 . S
C1134 H1137 0.960 . S
H1135 C1134 0.961 . S
H1136 C1134 0.961 . S
H1137 C1134 0.960 . S
C1138 N1139 1.342 . S
C1138 C1142 1.401 . S
C1138 C1143 1.499 . S
N1139 Co1122 1.989 . S
N1139 C1138 1.342 . S
N1139 N1140 1.388 . S
N1140 Co1123 1.993 . S
N1140 N1139 1.388 . S
N1140 C1141 1.346 . S
C1141 N1140 1.346 . S
C1141 C1142 1.396 . S
C1141 C1151 1.510 . S
C1142 C1138 1.401 . S
C1142 C1141 1.396 . S
C1143 C1138 1.499 . S
C1143 H1144 0.959 . S
C1143 H1145 0.960 . S
C1143 H1146 0.961 . S
H1144 C1143 0.959 . S
H1145 C1143 0.960 . S
H1146 C1143 0.961 . S
O1147 Co1122 1.967 . S
O1147 C1155 1.258 . S
O1148 Co1123 1.941 . S
O1148 C1155 1.266 . S
H1149 C1151 0.959 . S
H1150 C1151 0.961 . S
C1151 C1141 1.510 . S
C1151 H1149 0.959 . S
C1151 H1150 0.961 . S
C1151 H1152 0.960 . S
H1152 C1151 0.960 . S
H1153 N1133 0.862 . S
O1154 Co1122 1.920 . S
O1154 C1127 1.289 . S
C1155 O1147 1.258 . S
C1155 O1148 1.266 . S
Co1156 O1159 1.970 . S
Co1156 N1173 1.989 . S
Co1156 O1181 1.967 . S
Co1156 O1188 1.920 . S
Co1157 O1160 1.966 . S
Co1157 N1166 2.022 . S
Co1157 N1174 1.993 . S
Co1157 O1182 1.941 . S
C1158 O1159 1.258 . S
C1158 O1160 1.263 . S
O1159 Co1156 1.970 . S
O1159 C1158 1.258 . S
O1160 Co1157 1.966 . S
O1160 C1158 1.263 . S
C1161 O1162 1.235 . S
C1161 O1188 1.289 . S
O1162 C1161 1.235 . S
C1163 C1165 1.400 . S
C1163 N1166 1.351 . S
C1163 C1168 1.501 . S
C1164 C1165 1.387 . S
C1164 N1167 1.341 . S
C1165 C1163 1.400 . S
C1165 C1164 1.387 . S
N1166 Co1157 2.022 . S
N1166 C1163 1.351 . S
N1166 N1167 1.365 . S
N1167 C1164 1.341 . S
N1167 N1166 1.365 . S
N1167 H1187 0.862 . S
C1168 C1163 1.501 . S
C1168 H1169 0.961 . S
C1168 H1170 0.961 . S
C1168 H1171 0.960 . S
H1169 C1168 0.961 . S
H1170 C1168 0.961 . S
H1171 C1168 0.960 . S
C1172 N1173 1.342 . S
C1172 C1176 1.401 . S
C1172 C1177 1.499 . S
N1173 Co1156 1.989 . S
N1173 C1172 1.342 . S
N1173 N1174 1.388 . S
N1174 Co1157 1.993 . S
N1174 N1173 1.388 . S
N1174 C1175 1.346 . S
C1175 N1174 1.346 . S
C1175 C1176 1.396 . S
C1175 C1185 1.510 . S
C1176 C1172 1.401 . S
C1176 C1175 1.396 . S
C1177 C1172 1.499 . S
C1177 H1178 0.959 . S
C1177 H1179 0.960 . S
C1177 H1180 0.961 . S
H1178 C1177 0.959 . S
H1179 C1177 0.960 . S
H1180 C1177 0.961 . S
O1181 Co1156 1.967 . S
O1181 C1189 1.258 . S
O1182 Co1157 1.941 . S
O1182 C1189 1.266 . S
H1183 C1185 0.959 . S
H1184 C1185 0.961 . S
C1185 C1175 1.510 . S
C1185 H1183 0.959 . S
C1185 H1184 0.961 . S
C1185 H1186 0.960 . S
H1186 C1185 0.960 . S
H1187 N1167 0.862 . S
O1188 Co1156 1.920 . S
O1188 C1161 1.289 . S
C1189 O1181 1.258 . S
C1189 O1182 1.266 . S
Co1190 O1193 1.970 . S
Co1190 N1207 1.989 . S
Co1190 O1215 1.967 . S
Co1190 O1222 1.920 . S
Co1191 O1194 1.966 . S
Co1191 N1200 2.022 . S
Co1191 N1208 1.993 . S
Co1191 O1216 1.941 . S
C1192 O1193 1.258 . S
C1192 O1194 1.263 . S
O1193 Co1190 1.970 . S
O1193 C1192 1.258 . S
O1194 Co1191 1.966 . S
O1194 C1192 1.263 . S
C1195 O1196 1.235 . S
C1195 O1222 1.289 . S
O1196 C1195 1.235 . S
C1197 C1199 1.400 . S
C1197 N1200 1.351 . S
C1197 C1202 1.501 . S
C1198 C1199 1.387 . S
C1198 N1201 1.341 . S
C1199 C1197 1.400 . S
C1199 C1198 1.387 . S
N1200 Co1191 2.022 . S
N1200 C1197 1.351 . S
N1200 N1201 1.365 . S
N1201 C1198 1.341 . S
N1201 N1200 1.365 . S
N1201 H1221 0.862 . S
C1202 C1197 1.501 . S
C1202 H1203 0.961 . S
C1202 H1204 0.961 . S
C1202 H1205 0.960 . S
H1203 C1202 0.961 . S
H1204 C1202 0.961 . S
H1205 C1202 0.960 . S
C1206 N1207 1.342 . S
C1206 C1210 1.401 . S
C1206 C1211 1.499 . S
N1207 Co1190 1.989 . S
N1207 C1206 1.342 . S
N1207 N1208 1.388 . S
N1208 Co1191 1.993 . S
N1208 N1207 1.388 . S
N1208 C1209 1.346 . S
C1209 N1208 1.346 . S
C1209 C1210 1.396 . S
C1209 C1219 1.510 . S
C1210 C1206 1.401 . S
C1210 C1209 1.396 . S
C1211 C1206 1.499 . S
C1211 H1212 0.959 . S
C1211 H1213 0.960 . S
C1211 H1214 0.961 . S
H1212 C1211 0.959 . S
H1213 C1211 0.960 . S
H1214 C1211 0.961 . S
O1215 Co1190 1.967 . S
O1215 C1223 1.258 . S
O1216 Co1191 1.941 . S
O1216 C1223 1.266 . S
H1217 C1219 0.959 . S
H1218 C1219 0.961 . S
C1219 C1209 1.510 . S
C1219 H1217 0.959 . S
C1219 H1218 0.961 . S
C1219 H1220 0.960 . S
H1220 C1219 0.960 . S
H1221 N1201 0.862 . S
O1222 Co1190 1.920 . S
O1222 C1195 1.289 . S
C1223 O1215 1.258 . S
C1223 O1216 1.266 . S
H1224 C1230 0.930 . S
H1225 C1234 0.930 . S
H1226 C1239 0.929 . S
H1227 C1237 0.929 . S
H1228 C1232 0.929 . S
H1229 C1238 0.929 . S
C1230 H1224 0.930 . S
C1230 C1231 1.367 . S
C1230 C1238 1.378 . S
C1231 C1230 1.367 . S
C1231 C1239 1.433 . S
C1232 H1228 0.929 . S
C1232 C1234 1.378 . S
C1232 C1236 1.350 . S
C1233 C1236 1.463 . S
C1233 C1238 1.350 . S
C1233 N1241 1.427 . S
C1234 H1225 0.930 . S
C1234 C1232 1.378 . S
C1234 C1235 1.367 . S
C1235 C1234 1.367 . S
C1235 C1237 1.433 . S
C1236 C1232 1.350 . S
C1236 C1233 1.463 . S
C1236 N1240 1.427 . S
C1237 H1227 0.929 . S
C1237 C1235 1.433 . S
C1237 N1240 1.384 . S
C1238 H1229 0.929 . S
C1238 C1230 1.378 . S
C1238 C1233 1.350 . S
C1239 H1226 0.929 . S
C1239 C1231 1.433 . S
C1239 N1241 1.384 . S
N1240 C1236 1.427 . S
N1240 C1237 1.384 . S
N1241 C1233 1.427 . S
N1241 C1239 1.384 . S
H1242 C1248 0.930 . S
H1243 C1252 0.930 . S
H1244 C1257 0.929 . S
H1245 C1255 0.929 . S
H1246 C1250 0.929 . S
H1247 C1256 0.929 . S
C1248 H1242 0.930 . S
C1248 C1249 1.367 . S
C1248 C1256 1.378 . S
C1249 C1248 1.367 . S
C1249 C1257 1.433 . S
C1250 H1246 0.929 . S
C1250 C1252 1.378 . S
C1250 C1254 1.350 . S
C1251 C1254 1.463 . S
C1251 C1256 1.350 1_545 S
C1251 N1259 1.421 . S
C1252 H1243 0.930 . S
C1252 C1250 1.378 . S
C1252 C1253 1.367 . S
C1253 C1252 1.367 . S
C1253 C1255 1.433 . S
C1254 C1250 1.350 . S
C1254 C1251 1.463 . S
C1254 N1258 1.427 . S
C1255 H1245 0.929 . S
C1255 C1253 1.433 . S
C1255 N1258 1.384 . S
C1256 H1247 0.929 . S
C1256 C1248 1.378 . S
C1256 C1251 1.350 1_565 S
C1257 H1244 0.929 . S
C1257 C1249 1.433 . S
C1257 N1259 1.347 1_565 S
N1258 C1254 1.427 . S
N1258 C1255 1.384 . S
N1259 C1251 1.421 . S
N1259 C1257 1.347 1_545 S
H1260 C1266 0.930 . S
H1261 C1270 0.930 . S
H1262 C1275 0.929 . S
H1263 C1273 0.929 . S
H1264 C1268 0.929 . S
H1265 C1274 0.951 . S
C1266 H1260 0.930 . S
C1266 C1267 1.367 . S
C1266 C1274 1.378 . S
C1267 C1266 1.367 . S
C1267 C1275 1.433 . S
C1268 H1264 0.929 . S
C1268 C1270 1.378 . S
C1268 C1272 1.350 . S
C1269 C1272 1.463 . S
C1269 C1274 1.350 1_655 S
C1269 N1277 1.427 1_655 S
C1270 H1261 0.930 . S
C1270 C1268 1.378 . S
C1270 C1271 1.367 . S
C1271 C1270 1.367 . S
C1271 C1273 1.433 . S
C1272 C1268 1.350 . S
C1272 C1269 1.463 . S
C1272 N1276 1.427 . S
C1273 H1263 0.929 . S
C1273 C1271 1.433 . S
C1273 N1276 1.384 . S
C1274 H1265 0.951 . S
C1274 C1266 1.378 . S
C1274 C1269 1.350 1_455 S
C1275 H1262 0.929 . S
C1275 C1267 1.433 . S
C1275 N1277 1.384 . S
N1276 C1272 1.427 . S
N1276 C1273 1.384 . S
N1277 C1269 1.427 1_455 S
N1277 C1275 1.384 . S
H1278 C1284 0.930 . S
H1279 C1288 0.930 . S
H1280 C1293 0.929 . S
H1281 C1291 0.929 . S
H1282 C1286 0.929 . S
H1283 C1292 0.929 . S
C1284 H1278 0.930 . S
C1284 C1285 1.367 . S
C1284 C1292 1.378 . S
C1285 C1284 1.367 . S
C1285 C1293 1.433 . S
C1286 H1282 0.929 . S
C1286 C1288 1.378 . S
C1286 C1290 1.350 . S
C1287 C1290 1.463 . S
C1287 C1292 1.350 . S
C1287 N1295 1.427 . S
C1288 H1279 0.930 . S
C1288 C1286 1.378 . S
C1288 C1289 1.367 . S
C1289 C1288 1.367 . S
C1289 C1291 1.433 . S
C1290 C1286 1.350 . S
C1290 C1287 1.463 . S
C1290 N1294 1.427 . S
C1291 H1281 0.929 . S
C1291 C1289 1.433 . S
C1291 N1294 1.384 . S
C1292 H1283 0.929 . S
C1292 C1284 1.378 . S
C1292 C1287 1.350 . S
C1293 H1280 0.929 . S
C1293 C1285 1.433 . S
C1293 N1295 1.384 . S
N1294 C1290 1.427 . S
N1294 C1291 1.384 . S
N1295 C1287 1.427 . S
N1295 C1293 1.384 . S
H1296 C1302 0.930 . S
H1297 C1306 0.930 . S
H1298 C1311 0.929 . S
H1299 C1309 0.929 . S
H1300 C1304 0.929 . S
H1301 C1310 0.928 1_565 S
C1302 H1296 0.930 . S
C1302 C1303 1.367 . S
C1302 C1310 1.379 . S
C1303 C1302 1.367 . S
C1303 C1311 1.433 . S
C1304 H1300 0.929 . S
C1304 C1306 1.378 . S
C1304 C1308 1.350 . S
C1305 C1308 1.463 . S
C1305 C1310 1.350 1_565 S
C1305 N1313 1.427 1_565 S
C1306 H1297 0.930 . S
C1306 C1304 1.378 . S
C1306 C1307 1.367 . S
C1307 C1306 1.367 . S
C1307 C1309 1.433 . S
C1308 C1304 1.350 . S
C1308 C1305 1.463 . S
C1308 N1312 1.427 . S
C1309 H1299 0.929 . S
C1309 C1307 1.433 . S
C1309 N1312 1.384 . S
C1310 H1301 0.928 1_545 S
C1310 C1302 1.379 . S
C1310 C1305 1.350 1_545 S
C1311 H1298 0.929 . S
C1311 C1303 1.433 . S
C1311 N1313 1.384 . S
N1312 C1308 1.427 . S
N1312 C1309 1.384 . S
N1313 C1305 1.427 1_545 S
N1313 C1311 1.384 . S
H1314 C1320 0.930 . S
H1315 C1324 0.930 . S
H1316 C1329 0.929 . S
H1317 C1327 0.929 . S
H1318 C1322 0.929 . S
H1319 C1328 0.929 1_455 S
C1320 H1314 0.930 . S
C1320 C1321 1.367 . S
C1320 C1328 1.378 . S
C1321 C1320 1.367 . S
C1321 C1329 1.433 . S
C1322 H1318 0.929 . S
C1322 C1324 1.378 . S
C1322 C1326 1.350 . S
C1323 C1326 1.463 . S
C1323 C1328 1.350 1_455 S
C1323 N1331 1.427 1_455 S
C1324 H1315 0.930 . S
C1324 C1322 1.378 . S
C1324 C1325 1.367 . S
C1325 C1324 1.367 . S
C1325 C1327 1.433 . S
C1326 C1322 1.350 . S
C1326 C1323 1.463 . S
C1326 N1330 1.427 . S
C1327 H1317 0.929 . S
C1327 C1325 1.433 . S
C1327 N1330 1.384 . S
C1328 H1319 0.929 1_655 S
C1328 C1320 1.378 . S
C1328 C1323 1.350 1_655 S
C1329 H1316 0.929 . S
C1329 C1321 1.433 . S
C1329 N1331 1.384 . S
N1330 C1326 1.427 . S
N1330 C1327 1.384 . S
N1331 C1323 1.427 1_655 S
N1331 C1329 1.384 . S
H1332 C1338 0.930 . S
H1333 C1342 0.930 . S
H1334 C1347 0.929 . S
H1335 C1345 0.929 . S
H1336 C1340 0.929 . S
H1337 C1346 0.929 . S
C1338 H1332 0.930 . S
C1338 C1339 1.367 . S
C1338 C1346 1.378 . S
C1339 C1338 1.367 . S
C1339 C1347 1.433 . S
C1340 H1336 0.929 . S
C1340 C1342 1.378 . S
C1340 C1344 1.350 . S
C1341 C1344 1.463 . S
C1341 C1346 1.350 . S
C1341 N1349 1.427 . S
C1342 H1333 0.930 . S
C1342 C1340 1.378 . S
C1342 C1343 1.367 . S
C1343 C1342 1.367 . S
C1343 C1345 1.433 . S
C1344 C1340 1.350 . S
C1344 C1341 1.463 . S
C1344 N1348 1.427 . S
C1345 H1335 0.929 . S
C1345 C1343 1.433 . S
C1345 N1348 1.384 . S
C1346 H1337 0.929 . S
C1346 C1338 1.378 . S
C1346 C1341 1.350 . S
C1347 H1334 0.929 . S
C1347 C1339 1.433 . S
C1347 N1349 1.384 . S
N1348 C1344 1.427 . S
N1348 C1345 1.384 . S
N1349 C1341 1.427 . S
N1349 C1347 1.384 . S
H1350 C1356 0.930 . S
H1351 C1360 0.930 . S
H1352 C1365 0.929 . S
H1353 C1363 0.929 . S
H1354 C1358 0.953 . S
H1355 C1364 0.929 . S
C1356 H1350 0.930 . S
C1356 C1357 1.367 . S
C1356 C1364 1.378 . S
C1357 C1356 1.367 . S
C1357 C1365 1.433 . S
C1358 H1354 0.953 . S
C1358 C1360 1.353 1_565 S
C1358 C1362 1.351 . S
C1359 C1362 1.463 . S
C1359 C1364 1.350 . S
C1359 N1367 1.427 . S
C1360 H1351 0.930 . S
C1360 C1358 1.353 1_545 S
C1360 C1361 1.367 . S
C1361 C1360 1.367 . S
C1361 C1363 1.433 . S
C1362 C1358 1.351 . S
C1362 C1359 1.463 . S
C1362 N1366 1.427 1_565 S
C1363 H1353 0.929 . S
C1363 C1361 1.433 . S
C1363 N1366 1.384 . S
C1364 H1355 0.929 . S
C1364 C1356 1.378 . S
C1364 C1359 1.350 . S
C1365 H1352 0.929 . S
C1365 C1357 1.433 . S
C1365 N1367 1.384 . S
N1366 C1362 1.427 1_545 S
N1366 C1363 1.384 . S
N1367 C1359 1.427 . S
N1367 C1365 1.384 . S
H1368 C1374 0.930 . S
H1369 C1378 0.930 . S
H1370 C1383 0.929 . S
H1371 C1381 0.929 . S
H1372 C1376 0.929 . S
H1373 C1382 0.929 . S
C1374 H1368 0.930 . S
C1374 C1375 1.367 . S
C1374 C1382 1.378 . S
C1375 C1374 1.367 . S
C1375 C1383 1.433 . S
C1376 H1372 0.929 . S
C1376 C1378 1.378 . S
C1376 C1380 1.350 1_655 S
C1377 C1380 1.463 . S
C1377 C1382 1.350 . S
C1377 N1385 1.427 . S
C1378 H1369 0.930 . S
C1378 C1376 1.378 . S
C1378 C1379 1.367 . S
C1379 C1378 1.367 . S
C1379 C1381 1.433 . S
C1380 C1376 1.350 1_455 S
C1380 C1377 1.463 . S
C1380 N1384 1.428 . S
C1381 H1371 0.929 . S
C1381 C1379 1.433 . S
C1381 N1384 1.382 1_655 S
C1382 H1373 0.929 . S
C1382 C1374 1.378 . S
C1382 C1377 1.350 . S
C1383 H1370 0.929 . S
C1383 C1375 1.433 . S
C1383 N1385 1.384 . S
N1384 C1380 1.428 . S
N1384 C1381 1.382 1_455 S
N1385 C1377 1.427 . S
N1385 C1383 1.384 . S
H1386 C1392 0.930 . S
H1387 C1396 0.930 . S
H1388 C1401 0.929 . S
H1389 C1399 0.929 . S
H1390 C1394 0.929 . S
H1391 C1400 0.929 . S
C1392 H1386 0.930 . S
C1392 C1393 1.367 . S
C1392 C1400 1.378 . S
C1393 C1392 1.367 . S
C1393 C1401 1.433 . S
C1394 H1390 0.929 . S
C1394 C1396 1.378 . S
C1394 C1398 1.350 . S
C1395 C1398 1.463 . S
C1395 C1400 1.350 . S
C1395 N1403 1.427 . S
C1396 H1387 0.930 . S
C1396 C1394 1.378 . S
C1396 C1397 1.367 . S
C1397 C1396 1.367 . S
C1397 C1399 1.433 . S
C1398 C1394 1.350 . S
C1398 C1395 1.463 . S
C1398 N1402 1.427 . S
C1399 H1389 0.929 . S
C1399 C1397 1.433 . S
C1399 N1402 1.384 . S
C1400 H1391 0.929 . S
C1400 C1392 1.378 . S
C1400 C1395 1.350 . S
C1401 H1388 0.929 . S
C1401 C1393 1.433 . S
C1401 N1403 1.384 . S
N1402 C1398 1.427 . S
N1402 C1399 1.384 . S
N1403 C1395 1.427 . S
N1403 C1401 1.384 . S
H1404 C1410 0.930 . S
H1405 C1414 0.930 . S
H1406 C1419 0.929 . S
H1407 C1417 0.929 . S
H1408 C1412 0.929 . S
H1409 C1418 0.929 1_545 S
C1410 H1404 0.930 . S
C1410 C1411 1.367 . S
C1410 C1418 1.378 . S
C1411 C1410 1.367 . S
C1411 C1419 1.433 . S
C1412 H1408 0.929 . S
C1412 C1414 1.378 . S
C1412 C1416 1.350 . S
C1413 C1416 1.463 . S
C1413 C1418 1.350 1_545 S
C1413 N1421 1.427 1_545 S
C1414 H1405 0.930 . S
C1414 C1412 1.378 . S
C1414 C1415 1.367 . S
C1415 C1414 1.367 . S
C1415 C1417 1.433 . S
C1416 C1412 1.350 . S
C1416 C1413 1.463 . S
C1416 N1420 1.427 . S
C1417 H1407 0.929 . S
C1417 C1415 1.433 . S
C1417 N1420 1.384 . S
C1418 H1409 0.929 1_565 S
C1418 C1410 1.378 . S
C1418 C1413 1.350 1_565 S
C1419 H1406 0.929 . S
C1419 C1411 1.433 . S
C1419 N1421 1.384 . S
N1420 C1416 1.427 . S
N1420 C1417 1.384 . S
N1421 C1413 1.427 1_565 S
N1421 C1419 1.384 . S
H1422 C1428 0.930 . S
H1423 C1432 0.930 . S
H1424 C1437 0.929 . S
H1425 C1435 0.929 . S
H1426 C1430 0.929 . S
H1427 C1436 0.929 . S
C1428 H1422 0.930 . S
C1428 C1429 1.367 . S
C1428 C1436 1.378 . S
C1429 C1428 1.367 . S
C1429 C1437 1.433 . S
C1430 H1426 0.929 . S
C1430 C1432 1.378 . S
C1430 C1434 1.350 1_455 S
C1431 C1434 1.463 . S
C1431 C1436 1.350 . S
C1431 N1439 1.427 . S
C1432 H1423 0.930 . S
C1432 C1430 1.378 . S
C1432 C1433 1.367 . S
C1433 C1432 1.367 . S
C1433 C1435 1.433 . S
C1434 C1430 1.350 1_655 S
C1434 C1431 1.463 . S
C1434 N1438 1.428 . S
C1435 H1425 0.929 . S
C1435 C1433 1.433 . S
C1435 N1438 1.370 1_455 S
C1436 H1427 0.929 . S
C1436 C1428 1.378 . S
C1436 C1431 1.350 . S
C1437 H1424 0.929 . S
C1437 C1429 1.433 . S
C1437 N1439 1.384 . S
N1438 C1434 1.428 . S
N1438 C1435 1.370 1_655 S
N1439 C1431 1.427 . S
N1439 C1437 1.384 . S
H1440 C1446 0.930 . S
H1441 C1450 0.930 . S
H1442 C1455 0.929 . S
H1443 C1453 0.929 . S
H1444 C1448 0.929 . S
H1445 C1454 0.929 . S
C1446 H1440 0.930 . S
C1446 C1447 1.367 . S
C1446 C1454 1.378 . S
C1447 C1446 1.367 . S
C1447 C1455 1.433 . S
C1448 H1444 0.929 . S
C1448 C1450 1.378 . S
C1448 C1452 1.350 . S
C1449 C1452 1.463 . S
C1449 C1454 1.350 . S
C1449 N1457 1.427 . S
C1450 H1441 0.930 . S
C1450 C1448 1.378 . S
C1450 C1451 1.367 . S
C1451 C1450 1.367 . S
C1451 C1453 1.433 . S
C1452 C1448 1.350 . S
C1452 C1449 1.463 . S
C1452 N1456 1.427 . S
C1453 H1443 0.929 . S
C1453 C1451 1.433 . S
C1453 N1456 1.384 . S
C1454 H1445 0.929 . S
C1454 C1446 1.378 . S
C1454 C1449 1.350 . S
C1455 H1442 0.929 . S
C1455 C1447 1.433 . S
C1455 N1457 1.384 . S
N1456 C1452 1.427 . S
N1456 C1453 1.384 . S
N1457 C1449 1.427 . S
N1457 C1455 1.384 . S
H1458 C1464 0.930 . S
H1459 C1468 0.930 . S
H1460 C1473 0.929 . S
H1461 C1471 0.929 . S
H1462 C1466 0.929 . S
H1463 C1472 0.929 . S
C1464 H1458 0.930 . S
C1464 C1465 1.367 . S
C1464 C1472 1.378 . S
C1465 C1464 1.367 . S
C1465 C1473 1.433 . S
C1466 H1462 0.929 . S
C1466 C1468 1.378 . S
C1466 C1470 1.350 . S
C1467 C1470 1.463 . S
C1467 C1472 1.350 . S
C1467 N1475 1.427 . S
C1468 H1459 0.930 . S
C1468 C1466 1.378 . S
C1468 C1469 1.367 . S
C1469 C1468 1.367 . S
C1469 C1471 1.433 . S
C1470 C1466 1.350 . S
C1470 C1467 1.463 . S
C1470 N1474 1.427 . S
C1471 H1461 0.929 . S
C1471 C1469 1.433 . S
C1471 N1474 1.384 . S
C1472 H1463 0.929 . S
C1472 C1464 1.378 . S
C1472 C1467 1.350 . S
C1473 H1460 0.929 . S
C1473 C1465 1.433 . S
C1473 N1475 1.384 . S
N1474 C1470 1.427 . S
N1474 C1471 1.384 . S
N1475 C1467 1.427 . S
N1475 C1473 1.384 . S
H1476 C1482 0.930 . S
H1477 C1486 0.930 . S
H1478 C1491 0.929 . S
H1479 C1489 0.929 . S
H1480 C1484 0.929 . S
H1481 C1490 0.929 . S
C1482 H1476 0.930 . S
C1482 C1483 1.367 . S
C1482 C1490 1.378 . S
C1483 C1482 1.367 . S
C1483 C1491 1.433 . S
C1484 H1480 0.929 . S
C1484 C1486 1.378 . S
C1484 C1488 1.350 . S
C1485 C1488 1.463 . S
C1485 C1490 1.350 . S
C1485 N1493 1.427 . S
C1486 H1477 0.930 . S
C1486 C1484 1.378 . S
C1486 C1487 1.367 . S
C1487 C1486 1.367 . S
C1487 C1489 1.433 . S
C1488 C1484 1.350 . S
C1488 C1485 1.463 . S
C1488 N1492 1.427 . S
C1489 H1479 0.929 . S
C1489 C1487 1.433 . S
C1489 N1492 1.384 . S
C1490 H1481 0.929 . S
C1490 C1482 1.378 . S
C1490 C1485 1.350 . S
C1491 H1478 0.929 . S
C1491 C1483 1.433 . S
C1491 N1493 1.384 . S
N1492 C1488 1.427 . S
N1492 C1489 1.384 . S
N1493 C1485 1.427 . S
N1493 C1491 1.384 . S
H1494 C1500 0.930 . S
H1495 C1504 0.930 . S
H1496 C1509 0.929 . S
H1497 C1507 0.929 . S
H1498 C1502 0.929 . S
H1499 C1508 0.929 . S
C1500 H1494 0.930 . S
C1500 C1501 1.367 . S
C1500 C1508 1.378 . S
C1501 C1500 1.367 . S
C1501 C1509 1.433 . S
C1502 H1498 0.929 . S
C1502 C1504 1.378 . S
C1502 C1506 1.350 . S
C1503 C1506 1.463 . S
C1503 C1508 1.350 . S
C1503 N1511 1.427 . S
C1504 H1495 0.930 . S
C1504 C1502 1.378 . S
C1504 C1505 1.367 . S
C1505 C1504 1.367 . S
C1505 C1507 1.433 . S
C1506 C1502 1.350 . S
C1506 C1503 1.463 . S
C1506 N1510 1.427 . S
C1507 H1497 0.929 . S
C1507 C1505 1.433 . S
C1507 N1510 1.384 . S
C1508 H1499 0.929 . S
C1508 C1500 1.378 . S
C1508 C1503 1.350 . S
C1509 H1496 0.929 . S
C1509 C1501 1.433 . S
C1509 N1511 1.384 . S
N1510 C1506 1.427 . S
N1510 C1507 1.384 . S
N1511 C1503 1.427 . S
N1511 C1509 1.384 . S
H1512 C1518 0.930 . S
H1513 C1522 0.930 . S
H1514 C1527 0.929 . S
H1515 C1525 0.929 . S
H1516 C1520 0.929 . S
H1517 C1526 0.929 . S
C1518 H1512 0.930 . S
C1518 C1519 1.367 . S
C1518 C1526 1.378 . S
C1519 C1518 1.367 . S
C1519 C1527 1.433 . S
C1520 H1516 0.929 . S
C1520 C1522 1.378 . S
C1520 C1524 1.350 . S
C1521 C1524 1.463 . S
C1521 C1526 1.350 . S
C1521 N1529 1.427 . S
C1522 H1513 0.930 . S
C1522 C1520 1.378 . S
C1522 C1523 1.367 . S
C1523 C1522 1.367 . S
C1523 C1525 1.433 . S
C1524 C1520 1.350 . S
C1524 C1521 1.463 . S
C1524 N1528 1.427 . S
C1525 H1515 0.929 . S
C1525 C1523 1.433 . S
C1525 N1528 1.384 . S
C1526 H1517 0.929 . S
C1526 C1518 1.378 . S
C1526 C1521 1.350 . S
C1527 H1514 0.929 . S
C1527 C1519 1.433 . S
C1527 N1529 1.384 . S
N1528 C1524 1.427 . S
N1528 C1525 1.384 . S
N1529 C1521 1.427 . S
N1529 C1527 1.384 . S
H1530 C1536 0.930 . S
H1531 C1540 0.930 . S
H1532 C1545 0.929 . S
H1533 C1543 0.929 . S
H1534 C1538 0.929 . S
H1535 C1544 0.929 . S
C1536 H1530 0.930 . S
C1536 C1537 1.367 . S
C1536 C1544 1.378 . S
C1537 C1536 1.367 . S
C1537 C1545 1.433 . S
C1538 H1534 0.929 . S
C1538 C1540 1.378 . S
C1538 C1542 1.350 . S
C1539 C1542 1.463 . S
C1539 C1544 1.350 . S
C1539 N1547 1.427 . S
C1540 H1531 0.930 . S
C1540 C1538 1.378 . S
C1540 C1541 1.367 . S
C1541 C1540 1.367 . S
C1541 C1543 1.433 . S
C1542 C1538 1.350 . S
C1542 C1539 1.463 . S
C1542 N1546 1.427 . S
C1543 H1533 0.929 . S
C1543 C1541 1.433 . S
C1543 N1546 1.384 . S
C1544 H1535 0.929 . S
C1544 C1536 1.378 . S
C1544 C1539 1.350 . S
C1545 H1532 0.929 . S
C1545 C1537 1.433 . S
C1545 N1547 1.384 . S
N1546 C1542 1.427 . S
N1546 C1543 1.384 . S
N1547 C1539 1.427 . S
N1547 C1545 1.384 . S
H1548 C1554 0.930 . S
H1549 C1558 0.930 . S
H1550 C1563 0.929 . S
H1551 C1561 0.929 . S
H1552 C1556 0.929 . S
H1553 C1562 0.929 . S
C1554 H1548 0.930 . S
C1554 C1555 1.367 . S
C1554 C1562 1.378 . S
C1555 C1554 1.367 . S
C1555 C1563 1.433 . S
C1556 H1552 0.929 . S
C1556 C1558 1.378 . S
C1556 C1560 1.350 . S
C1557 C1560 1.463 . S
C1557 C1562 1.350 . S
C1557 N1565 1.427 . S
C1558 H1549 0.930 . S
C1558 C1556 1.378 . S
C1558 C1559 1.367 . S
C1559 C1558 1.367 . S
C1559 C1561 1.433 . S
C1560 C1556 1.350 . S
C1560 C1557 1.463 . S
C1560 N1564 1.427 . S
C1561 H1551 0.929 . S
C1561 C1559 1.433 . S
C1561 N1564 1.384 . S
C1562 H1553 0.929 . S
C1562 C1554 1.378 . S
C1562 C1557 1.350 . S
C1563 H1550 0.929 . S
C1563 C1555 1.433 . S
C1563 N1565 1.384 . S
N1564 C1560 1.427 . S
N1564 C1561 1.384 . S
N1565 C1557 1.427 . S
N1565 C1563 1.384 . S
H1566 C1572 0.930 . S
H1567 C1576 0.930 . S
H1568 C1581 0.929 . S
H1569 C1579 0.929 . S
H1570 C1574 0.929 . S
H1571 C1580 0.929 . S
C1572 H1566 0.930 . S
C1572 C1573 1.367 . S
C1572 C1580 1.378 . S
C1573 C1572 1.367 . S
C1573 C1581 1.433 . S
C1574 H1570 0.929 . S
C1574 C1576 1.378 . S
C1574 C1578 1.350 . S
C1575 C1578 1.463 . S
C1575 C1580 1.350 . S
C1575 N1583 1.427 . S
C1576 H1567 0.930 . S
C1576 C1574 1.378 . S
C1576 C1577 1.367 . S
C1577 C1576 1.367 . S
C1577 C1579 1.433 . S
C1578 C1574 1.350 . S
C1578 C1575 1.463 . S
C1578 N1582 1.427 . S
C1579 H1569 0.929 . S
C1579 C1577 1.433 . S
C1579 N1582 1.384 . S
C1580 H1571 0.929 . S
C1580 C1572 1.378 . S
C1580 C1575 1.350 . S
C1581 H1568 0.929 . S
C1581 C1573 1.433 . S
C1581 N1583 1.384 . S
N1582 C1578 1.427 . S
N1582 C1579 1.384 . S
N1583 C1575 1.427 . S
N1583 C1581 1.384 . S
H1584 C1590 0.930 . S
H1585 C1594 0.930 . S
H1586 C1599 0.929 . S
H1587 C1597 0.929 . S
H1588 C1592 0.929 . S
H1589 C1598 0.929 . S
C1590 H1584 0.930 . S
C1590 C1591 1.367 . S
C1590 C1598 1.378 . S
C1591 C1590 1.367 . S
C1591 C1599 1.433 . S
C1592 H1588 0.929 . S
C1592 C1594 1.378 . S
C1592 C1596 1.350 . S
C1593 C1596 1.463 . S
C1593 C1598 1.350 . S
C1593 N1601 1.427 . S
C1594 H1585 0.930 . S
C1594 C1592 1.378 . S
C1594 C1595 1.367 . S
C1595 C1594 1.367 . S
C1595 C1597 1.433 . S
C1596 C1592 1.350 . S
C1596 C1593 1.463 . S
C1596 N1600 1.427 . S
C1597 H1587 0.929 . S
C1597 C1595 1.433 . S
C1597 N1600 1.384 . S
C1598 H1589 0.929 . S
C1598 C1590 1.378 . S
C1598 C1593 1.350 . S
C1599 H1586 0.929 . S
C1599 C1591 1.433 . S
C1599 N1601 1.384 . S
N1600 C1596 1.427 . S
N1600 C1597 1.384 . S
N1601 C1593 1.427 . S
N1601 C1599 1.384 . S
H1602 C1608 0.930 . S
H1603 C1612 0.901 1_554 S
H1604 C1617 0.929 . S
H1605 C1615 0.929 . S
H1606 C1610 0.929 . S
H1607 C1616 0.929 . S
C1608 H1602 0.930 . S
C1608 C1609 1.367 . S
C1608 C1616 1.378 . S
C1609 C1608 1.367 . S
C1609 C1617 1.433 . S
C1610 H1606 0.929 . S
C1610 C1612 1.378 . S
C1610 C1614 1.350 . S
C1611 C1614 1.463 . S
C1611 C1616 1.350 . S
C1611 N1619 1.427 . S
C1612 H1603 0.901 1_556 S
C1612 C1610 1.378 . S
C1612 C1613 1.367 . S
C1613 C1612 1.367 . S
C1613 C1615 1.433 . S
C1614 C1610 1.350 . S
C1614 C1611 1.463 . S
C1614 N1618 1.427 . S
C1615 H1605 0.929 . S
C1615 C1613 1.433 . S
C1615 N1618 1.384 . S
C1616 H1607 0.929 . S
C1616 C1608 1.378 . S
C1616 C1611 1.350 . S
C1617 H1604 0.929 . S
C1617 C1609 1.433 . S
C1617 N1619 1.384 . S
N1618 C1614 1.427 . S
N1618 C1615 1.384 . S
N1619 C1611 1.427 . S
N1619 C1617 1.384 . S
H1620 C1626 0.930 . S
H1621 C1630 0.930 . S
H1622 C1635 0.929 . S
H1623 C1633 0.876 1_554 S
H1624 C1628 0.929 . S
H1625 C1634 0.929 . S
C1626 H1620 0.930 . S
C1626 C1627 1.367 . S
C1626 C1634 1.378 . S
C1627 C1626 1.367 . S
C1627 C1635 1.433 . S
C1628 H1624 0.929 . S
C1628 C1630 1.378 . S
C1628 C1632 1.350 . S
C1629 C1632 1.463 . S
C1629 C1634 1.350 . S
C1629 N1637 1.427 . S
C1630 H1621 0.930 . S
C1630 C1628 1.378 . S
C1630 C1631 1.367 . S
C1631 C1630 1.367 . S
C1631 C1633 1.433 . S
C1632 C1628 1.350 . S
C1632 C1629 1.463 . S
C1632 N1636 1.427 . S
C1633 H1623 0.876 1_556 S
C1633 C1631 1.433 . S
C1633 N1636 1.384 . S
C1634 H1625 0.929 . S
C1634 C1626 1.378 . S
C1634 C1629 1.350 . S
C1635 H1622 0.929 . S
C1635 C1627 1.433 . S
C1635 N1637 1.384 . S
N1636 C1632 1.427 . S
N1636 C1633 1.384 . S
N1637 C1629 1.427 . S
N1637 C1635 1.384 . S
H1638 C1644 0.930 . S
H1639 C1648 0.930 1_554 S
H1640 C1653 0.929 . S
H1641 C1651 0.929 . S
H1642 C1646 0.929 . S
H1643 C1652 0.929 . S
C1644 H1638 0.930 . S
C1644 C1645 1.367 . S
C1644 C1652 1.378 . S
C1645 C1644 1.367 . S
C1645 C1653 1.433 . S
C1646 H1642 0.929 . S
C1646 C1648 1.378 . S
C1646 C1650 1.350 . S
C1647 C1650 1.463 . S
C1647 C1652 1.350 . S
C1647 N1655 1.427 . S
C1648 H1639 0.930 1_556 S
C1648 C1646 1.378 . S
C1648 C1649 1.367 . S
C1649 C1648 1.367 . S
C1649 C1651 1.433 . S
C1650 C1646 1.350 . S
C1650 C1647 1.463 . S
C1650 N1654 1.427 . S
C1651 H1641 0.929 . S
C1651 C1649 1.433 . S
C1651 N1654 1.384 . S
C1652 H1643 0.929 . S
C1652 C1644 1.378 . S
C1652 C1647 1.350 . S
C1653 H1640 0.929 . S
C1653 C1645 1.433 . S
C1653 N1655 1.384 . S
N1654 C1650 1.427 . S
N1654 C1651 1.384 . S
N1655 C1647 1.427 . S
N1655 C1653 1.384 . S
H1656 C1662 0.930 . S
H1657 C1666 0.930 . S
H1658 C1671 0.929 . S
H1659 C1669 0.929 . S
H1660 C1664 0.929 . S
H1661 C1670 0.929 . S
C1662 H1656 0.930 . S
C1662 C1663 1.367 . S
C1662 C1670 1.378 . S
C1663 C1662 1.367 . S
C1663 C1671 1.433 . S
C1664 H1660 0.929 . S
C1664 C1666 1.378 . S
C1664 C1668 1.350 . S
C1665 C1668 1.463 . S
C1665 C1670 1.350 . S
C1665 N1673 1.427 . S
C1666 H1657 0.930 . S
C1666 C1664 1.378 . S
C1666 C1667 1.367 . S
C1667 C1666 1.367 . S
C1667 C1669 1.433 . S
C1668 C1664 1.350 . S
C1668 C1665 1.463 . S
C1668 N1672 1.427 . S
C1669 H1659 0.929 . S
C1669 C1667 1.433 . S
C1669 N1672 1.384 . S
C1670 H1661 0.929 . S
C1670 C1662 1.378 . S
C1670 C1665 1.350 . S
C1671 H1658 0.929 . S
C1671 C1663 1.433 . S
C1671 N1673 1.384 . S
N1672 C1668 1.427 . S
N1672 C1669 1.384 . S
N1673 C1665 1.427 . S
N1673 C1671 1.384 . S
H1674 C1680 0.930 . S
H1675 C1684 0.930 . S
H1676 C1689 0.929 . S
H1677 C1687 0.929 . S
H1678 C1682 0.929 . S
H1679 C1688 0.929 . S
C1680 H1674 0.930 . S
C1680 C1681 1.367 . S
C1680 C1688 1.378 . S
C1681 C1680 1.367 . S
C1681 C1689 1.433 . S
C1682 H1678 0.929 . S
C1682 C1684 1.378 . S
C1682 C1686 1.350 . S
C1683 C1686 1.463 . S
C1683 C1688 1.350 . S
C1683 N1691 1.427 . S
C1684 H1675 0.930 . S
C1684 C1682 1.378 . S
C1684 C1685 1.367 . S
C1685 C1684 1.367 . S
C1685 C1687 1.433 . S
C1686 C1682 1.350 . S
C1686 C1683 1.463 . S
C1686 N1690 1.427 . S
C1687 H1677 0.929 . S
C1687 C1685 1.433 . S
C1687 N1690 1.384 . S
C1688 H1679 0.929 . S
C1688 C1680 1.378 . S
C1688 C1683 1.350 . S
C1689 H1676 0.929 . S
C1689 C1681 1.433 . S
C1689 N1691 1.384 . S
N1690 C1686 1.427 . S
N1690 C1687 1.384 . S
N1691 C1683 1.427 . S
N1691 C1689 1.384 . S
H1692 C1698 0.930 . S
H1693 C1702 0.930 . S
H1694 C1707 0.929 . S
H1695 C1705 0.929 . S
H1696 C1700 0.929 . S
H1697 C1706 0.929 . S
C1698 H1692 0.930 . S
C1698 C1699 1.367 . S
C1698 C1706 1.378 . S
C1699 C1698 1.367 . S
C1699 C1707 1.433 . S
C1700 H1696 0.929 . S
C1700 C1702 1.378 . S
C1700 C1704 1.350 . S
C1701 C1704 1.463 . S
C1701 C1706 1.350 . S
C1701 N1709 1.427 . S
C1702 H1693 0.930 . S
C1702 C1700 1.378 . S
C1702 C1703 1.367 . S
C1703 C1702 1.367 . S
C1703 C1705 1.433 . S
C1704 C1700 1.350 . S
C1704 C1701 1.463 . S
C1704 N1708 1.427 . S
C1705 H1695 0.929 . S
C1705 C1703 1.433 . S
C1705 N1708 1.384 . S
C1706 H1697 0.929 . S
C1706 C1698 1.378 . S
C1706 C1701 1.350 . S
C1707 H1694 0.929 . S
C1707 C1699 1.433 . S
C1707 N1709 1.384 . S
N1708 C1704 1.427 . S
N1708 C1705 1.384 . S
N1709 C1701 1.427 . S
N1709 C1707 1.384 . S
H1710 C1716 0.930 1_556 S
H1711 C1720 0.930 . S
H1712 C1725 0.929 . S
H1713 C1723 0.929 . S
H1714 C1718 0.929 . S
H1715 C1724 0.929 . S
C1716 H1710 0.930 1_554 S
C1716 C1717 1.367 . S
C1716 C1724 1.378 . S
C1717 C1716 1.367 . S
C1717 C1725 1.433 . S
C1718 H1714 0.929 . S
C1718 C1720 1.378 . S
C1718 C1722 1.350 . S
C1719 C1722 1.463 . S
C1719 C1724 1.350 . S
C1719 N1727 1.427 . S
C1720 H1711 0.930 . S
C1720 C1718 1.378 . S
C1720 C1721 1.367 . S
C1721 C1720 1.367 . S
C1721 C1723 1.433 . S
C1722 C1718 1.350 . S
C1722 C1719 1.463 . S
C1722 N1726 1.427 . S
C1723 H1713 0.929 . S
C1723 C1721 1.433 . S
C1723 N1726 1.384 . S
C1724 H1715 0.929 . S
C1724 C1716 1.378 . S
C1724 C1719 1.350 . S
C1725 H1712 0.929 . S
C1725 C1717 1.433 . S
C1725 N1727 1.384 . S
N1726 C1722 1.427 . S
N1726 C1723 1.384 . S
N1727 C1719 1.427 . S
N1727 C1725 1.384 . S
H1728 C1734 0.930 . S
H1729 C1738 0.930 . S
H1730 C1743 0.956 . S
H1731 C1741 0.929 . S
H1732 C1736 0.929 . S
H1733 C1742 0.929 . S
C1734 H1728 0.930 . S
C1734 C1735 1.367 . S
C1734 C1742 1.378 . S
C1735 C1734 1.367 . S
C1735 C1743 1.433 . S
C1736 H1732 0.929 . S
C1736 C1738 1.378 . S
C1736 C1740 1.350 . S
C1737 C1740 1.463 . S
C1737 C1742 1.350 . S
C1737 N1745 1.427 . S
C1738 H1729 0.930 . S
C1738 C1736 1.378 . S
C1738 C1739 1.367 . S
C1739 C1738 1.367 . S
C1739 C1741 1.433 . S
C1740 C1736 1.350 . S
C1740 C1737 1.463 . S
C1740 N1744 1.427 . S
C1741 H1731 0.929 . S
C1741 C1739 1.433 . S
C1741 N1744 1.384 . S
C1742 H1733 0.929 . S
C1742 C1734 1.378 . S
C1742 C1737 1.350 . S
C1743 H1730 0.956 . S
C1743 C1735 1.433 . S
C1743 N1745 1.384 . S
N1744 C1740 1.427 . S
N1744 C1741 1.384 . S
N1745 C1737 1.427 . S
N1745 C1743 1.384 . S
H1746 C1752 0.930 . S
H1747 C1756 0.930 . S
H1748 C1761 0.929 . S
H1749 C1759 0.929 . S
H1750 C1754 0.929 . S
H1751 C1760 0.929 . S
C1752 H1746 0.930 . S
C1752 C1753 1.367 . S
C1752 C1760 1.378 . S
C1753 C1752 1.367 . S
C1753 C1761 1.433 . S
C1754 H1750 0.929 . S
C1754 C1756 1.378 . S
C1754 C1758 1.350 . S
C1755 C1758 1.463 . S
C1755 C1760 1.350 . S
C1755 N1763 1.427 . S
C1756 H1747 0.930 . S
C1756 C1754 1.378 . S
C1756 C1757 1.367 . S
C1757 C1756 1.367 . S
C1757 C1759 1.433 . S
C1758 C1754 1.350 . S
C1758 C1755 1.463 . S
C1758 N1762 1.427 . S
C1759 H1749 0.929 . S
C1759 C1757 1.433 . S
C1759 N1762 1.384 . S
C1760 H1751 0.929 . S
C1760 C1752 1.378 . S
C1760 C1755 1.350 . S
C1761 H1748 0.929 . S
C1761 C1753 1.433 . S
C1761 N1763 1.384 . S
N1762 C1758 1.427 . S
N1762 C1759 1.384 . S
N1763 C1755 1.427 . S
N1763 C1761 1.384 . S
H1764 C1770 0.930 . S
H1765 C1774 0.930 . S
H1766 C1779 0.929 . S
H1767 C1777 0.929 . S
H1768 C1772 0.929 . S
H1769 C1778 0.929 . S
C1770 H1764 0.930 . S
C1770 C1771 1.367 . S
C1770 C1778 1.378 . S
C1771 C1770 1.367 . S
C1771 C1779 1.433 . S
C1772 H1768 0.929 . S
C1772 C1774 1.378 . S
C1772 C1776 1.350 . S
C1773 C1776 1.463 . S
C1773 C1778 1.350 . S
C1773 N1781 1.427 . S
C1774 H1765 0.930 . S
C1774 C1772 1.378 . S
C1774 C1775 1.367 . S
C1775 C1774 1.367 . S
C1775 C1777 1.433 . S
C1776 C1772 1.350 . S
C1776 C1773 1.463 . S
C1776 N1780 1.427 . S
C1777 H1767 0.929 . S
C1777 C1775 1.433 . S
C1777 N1780 1.384 . S
C1778 H1769 0.929 . S
C1778 C1770 1.378 . S
C1778 C1773 1.350 . S
C1779 H1766 0.929 . S
C1779 C1771 1.433 . S
C1779 N1781 1.384 . S
N1780 C1776 1.427 . S
N1780 C1777 1.384 . S
N1781 C1773 1.427 . S
N1781 C1779 1.384 . S
H1782 C1788 0.930 . S
H1783 C1792 0.930 . S
H1784 C1797 0.929 . S
H1785 C1795 0.929 . S
H1786 C1790 0.929 . S
H1787 C1796 0.929 . S
C1788 H1782 0.930 . S
C1788 C1789 1.367 . S
C1788 C1796 1.378 . S
C1789 C1788 1.367 . S
C1789 C1797 1.433 . S
C1790 H1786 0.929 . S
C1790 C1792 1.378 . S
C1790 C1794 1.350 . S
C1791 C1794 1.463 . S
C1791 C1796 1.350 . S
C1791 N1799 1.427 . S
C1792 H1783 0.930 . S
C1792 C1790 1.378 . S
C1792 C1793 1.367 . S
C1793 C1792 1.367 . S
C1793 C1795 1.433 . S
C1794 C1790 1.350 . S
C1794 C1791 1.463 . S
C1794 N1798 1.427 . S
C1795 H1785 0.929 . S
C1795 C1793 1.433 . S
C1795 N1798 1.384 . S
C1796 H1787 0.929 . S
C1796 C1788 1.378 . S
C1796 C1791 1.350 . S
C1797 H1784 0.929 . S
C1797 C1789 1.433 . S
C1797 N1799 1.384 . S
N1798 C1794 1.427 . S
N1798 C1795 1.384 . S
N1799 C1791 1.427 . S
N1799 C1797 1.384 . S
H1800 C1806 0.930 . S
H1801 C1810 0.930 . S
H1802 C1815 0.929 . S
H1803 C1813 0.929 . S
H1804 C1808 0.929 . S
H1805 C1814 0.929 . S
C1806 H1800 0.930 . S
C1806 C1807 1.367 . S
C1806 C1814 1.378 . S
C1807 C1806 1.367 . S
C1807 C1815 1.433 . S
C1808 H1804 0.929 . S
C1808 C1810 1.378 . S
C1808 C1812 1.350 . S
C1809 C1812 1.463 . S
C1809 C1814 1.350 . S
C1809 N1817 1.427 . S
C1810 H1801 0.930 . S
C1810 C1808 1.378 . S
C1810 C1811 1.367 . S
C1811 C1810 1.367 . S
C1811 C1813 1.433 . S
C1812 C1808 1.350 . S
C1812 C1809 1.463 . S
C1812 N1816 1.427 . S
C1813 H1803 0.929 . S
C1813 C1811 1.433 . S
C1813 N1816 1.384 . S
C1814 H1805 0.929 . S
C1814 C1806 1.378 . S
C1814 C1809 1.350 . S
C1815 H1802 0.929 . S
C1815 C1807 1.433 . S
C1815 N1817 1.384 . S
N1816 C1812 1.427 . S
N1816 C1813 1.384 . S
N1817 C1809 1.427 . S
N1817 C1815 1.384 . S
H1818 C1824 0.930 . S
H1819 C1828 0.930 . S
H1820 C1833 0.929 . S
H1821 C1831 0.929 . S
H1822 C1826 0.929 . S
H1823 C1832 0.929 . S
C1824 H1818 0.930 . S
C1824 C1825 1.367 . S
C1824 C1832 1.378 . S
C1825 C1824 1.367 . S
C1825 C1833 1.433 . S
C1826 H1822 0.929 . S
C1826 C1828 1.378 . S
C1826 C1830 1.350 . S
C1827 C1830 1.463 . S
C1827 C1832 1.350 . S
C1827 N1835 1.427 . S
C1828 H1819 0.930 . S
C1828 C1826 1.378 . S
C1828 C1829 1.367 . S
C1829 C1828 1.367 . S
C1829 C1831 1.433 . S
C1830 C1826 1.350 . S
C1830 C1827 1.463 . S
C1830 N1834 1.427 . S
C1831 H1821 0.929 . S
C1831 C1829 1.433 . S
C1831 N1834 1.384 . S
C1832 H1823 0.929 . S
C1832 C1824 1.378 . S
C1832 C1827 1.350 . S
C1833 H1820 0.929 . S
C1833 C1825 1.433 . S
C1833 N1835 1.384 . S
N1834 C1830 1.427 . S
N1834 C1831 1.384 . S
N1835 C1827 1.427 . S
N1835 C1833 1.384 . S
H1836 C1842 0.930 . S
H1837 C1846 0.930 . S
H1838 C1851 0.929 . S
H1839 C1849 0.929 . S
H1840 C1844 0.929 . S
H1841 C1850 0.929 . S
C1842 H1836 0.930 . S
C1842 C1843 1.367 . S
C1842 C1850 1.378 . S
C1843 C1842 1.367 . S
C1843 C1851 1.433 . S
C1844 H1840 0.929 . S
C1844 C1846 1.378 . S
C1844 C1848 1.350 . S
C1845 C1848 1.463 . S
C1845 C1850 1.350 . S
C1845 N1853 1.427 . S
C1846 H1837 0.930 . S
C1846 C1844 1.378 . S
C1846 C1847 1.367 . S
C1847 C1846 1.367 . S
C1847 C1849 1.433 . S
C1848 C1844 1.350 . S
C1848 C1845 1.463 . S
C1848 N1852 1.427 . S
C1849 H1839 0.929 . S
C1849 C1847 1.433 . S
C1849 N1852 1.384 . S
C1850 H1841 0.929 . S
C1850 C1842 1.378 . S
C1850 C1845 1.350 . S
C1851 H1838 0.929 . S
C1851 C1843 1.433 . S
C1851 N1853 1.384 . S
N1852 C1848 1.427 . S
N1852 C1849 1.384 . S
N1853 C1845 1.427 . S
N1853 C1851 1.384 . S
H1854 C1860 0.930 . S
H1855 C1864 0.930 . S
H1856 C1869 0.929 . S
H1857 C1867 0.929 . S
H1858 C1862 0.929 . S
H1859 C1868 0.929 . S
C1860 H1854 0.930 . S
C1860 C1861 1.367 . S
C1860 C1868 1.378 . S
C1861 C1860 1.367 . S
C1861 C1869 1.433 . S
C1862 H1858 0.929 . S
C1862 C1864 1.378 . S
C1862 C1866 1.350 . S
C1863 C1866 1.463 . S
C1863 C1868 1.350 . S
C1863 N1871 1.427 . S
C1864 H1855 0.930 . S
C1864 C1862 1.378 . S
C1864 C1865 1.367 . S
C1865 C1864 1.367 . S
C1865 C1867 1.433 . S
C1866 C1862 1.350 . S
C1866 C1863 1.463 . S
C1866 N1870 1.427 . S
C1867 H1857 0.929 . S
C1867 C1865 1.433 . S
C1867 N1870 1.384 . S
C1868 H1859 0.929 . S
C1868 C1860 1.378 . S
C1868 C1863 1.350 . S
C1869 H1856 0.929 . S
C1869 C1861 1.433 . S
C1869 N1871 1.384 . S
N1870 C1866 1.427 . S
N1870 C1867 1.384 . S
N1871 C1863 1.427 . S
N1871 C1869 1.384 . S
H1872 C1878 0.930 . S
H1873 C1882 0.930 . S
H1874 C1887 0.929 . S
H1875 C1885 0.929 . S
H1876 C1880 0.929 . S
H1877 C1886 0.929 . S
C1878 H1872 0.930 . S
C1878 C1879 1.367 . S
C1878 C1886 1.378 . S
C1879 C1878 1.367 . S
C1879 C1887 1.433 1_655 S
C1880 H1876 0.929 . S
C1880 C1882 1.378 . S
C1880 C1884 1.357 . S
C1881 C1884 1.463 1_655 S
C1881 C1886 1.359 . S
C1881 N1889 1.420 1_655 S
C1882 H1873 0.930 . S
C1882 C1880 1.378 . S
C1882 C1883 1.367 . S
C1883 C1882 1.367 . S
C1883 C1885 1.433 1_455 S
C1884 C1880 1.357 . S
C1884 C1881 1.463 1_455 S
C1884 N1888 1.422 1_455 S
C1885 H1875 0.929 . S
C1885 C1883 1.433 1_655 S
C1885 N1888 1.384 . S
C1886 H1877 0.929 . S
C1886 C1878 1.378 . S
C1886 C1881 1.359 . S
C1887 H1874 0.929 . S
C1887 C1879 1.433 1_455 S
C1887 N1889 1.384 . S
N1888 C1884 1.422 1_655 S
N1888 C1885 1.384 . S
N1889 C1881 1.420 1_455 S
N1889 C1887 1.384 . S
H1890 C1896 0.930 . S
H1891 C1900 0.930 . S
H1892 C1905 0.929 . S
H1893 C1903 0.929 . S
H1894 C1898 0.929 . S
H1895 C1904 0.929 . S
C1896 H1890 0.930 . S
C1896 C1897 1.367 . S
C1896 C1904 1.378 . S
C1897 C1896 1.367 . S
C1897 C1905 1.433 . S
C1898 H1894 0.929 . S
C1898 C1900 1.378 . S
C1898 C1902 1.350 . S
C1899 C1902 1.463 . S
C1899 C1904 1.350 . S
C1899 N1907 1.427 . S
C1900 H1891 0.930 . S
C1900 C1898 1.378 . S
C1900 C1901 1.367 . S
C1901 C1900 1.367 . S
C1901 C1903 1.433 . S
C1902 C1898 1.350 . S
C1902 C1899 1.463 . S
C1902 N1906 1.427 . S
C1903 H1893 0.929 . S
C1903 C1901 1.433 . S
C1903 N1906 1.384 . S
C1904 H1895 0.929 . S
C1904 C1896 1.378 . S
C1904 C1899 1.350 . S
C1905 H1892 0.929 . S
C1905 C1897 1.433 . S
C1905 N1907 1.384 . S
N1906 C1902 1.427 . S
N1906 C1903 1.384 . S
N1907 C1899 1.427 . S
N1907 C1905 1.384 . S
H1908 C1914 0.930 . S
H1909 C1918 0.930 . S
H1910 C1923 0.929 . S
H1911 C1921 0.929 . S
H1912 C1916 0.929 . S
H1913 C1922 0.929 . S
C1914 H1908 0.930 . S
C1914 C1915 1.367 . S
C1914 C1922 1.378 . S
C1915 C1914 1.367 . S
C1915 C1923 1.433 1_565 S
C1916 H1912 0.929 . S
C1916 C1918 1.378 . S
C1916 C1920 1.390 . S
C1917 C1920 1.460 1_565 S
C1917 C1922 1.350 . S
C1917 N1925 1.427 1_565 S
C1918 H1909 0.930 . S
C1918 C1916 1.378 . S
C1918 C1919 1.367 . S
C1919 C1918 1.367 . S
C1919 C1921 1.433 1_545 S
C1920 C1916 1.390 . S
C1920 C1917 1.460 1_545 S
C1920 N1924 1.387 1_545 S
C1921 H1911 0.929 . S
C1921 C1919 1.433 1_565 S
C1921 N1924 1.384 . S
C1922 H1913 0.929 . S
C1922 C1914 1.378 . S
C1922 C1917 1.350 . S
C1923 H1910 0.929 . S
C1923 C1915 1.433 1_545 S
C1923 N1925 1.384 . S
N1924 C1920 1.387 1_565 S
N1924 C1921 1.384 . S
N1925 C1917 1.427 1_545 S
N1925 C1923 1.384 . S
H1926 C1932 0.930 . S
H1927 C1936 0.930 . S
H1928 C1941 0.929 . S
H1929 C1939 0.929 . S
H1930 C1934 0.929 . S
H1931 C1940 0.929 . S
C1932 H1926 0.930 . S
C1932 C1933 1.327 1_655 S
C1932 C1940 1.378 . S
C1933 C1932 1.327 1_455 S
C1933 C1941 1.473 . S
C1934 H1930 0.929 . S
C1934 C1936 1.378 . S
C1934 C1938 1.362 . S
C1935 C1938 1.462 1_655 S
C1935 C1940 1.353 . S
C1935 N1943 1.424 1_655 S
C1936 H1927 0.930 . S
C1936 C1934 1.378 . S
C1936 C1937 1.337 1_455 S
C1937 C1936 1.337 1_655 S
C1937 C1939 1.464 . S
C1938 C1934 1.362 . S
C1938 C1935 1.462 1_455 S
C1938 N1942 1.414 1_455 S
C1939 H1929 0.929 . S
C1939 C1937 1.464 . S
C1939 N1942 1.384 . S
C1940 H1931 0.929 . S
C1940 C1932 1.378 . S
C1940 C1935 1.353 . S
C1941 H1928 0.929 . S
C1941 C1933 1.473 . S
C1941 N1943 1.384 . S
N1942 C1938 1.414 1_655 S
N1942 C1939 1.384 . S
N1943 C1935 1.424 1_455 S
N1943 C1941 1.384 . S
H1944 C1950 0.930 . S
H1945 C1954 0.930 . S
H1946 C1959 0.929 . S
H1947 C1957 0.929 . S
H1948 C1952 0.929 . S
H1949 C1958 0.929 . S
C1950 H1944 0.930 . S
C1950 C1951 1.367 . S
C1950 C1958 1.378 . S
C1951 C1950 1.367 . S
C1951 C1959 1.433 . S
C1952 H1948 0.929 . S
C1952 C1954 1.378 . S
C1952 C1956 1.350 . S
C1953 C1956 1.463 . S
C1953 C1958 1.350 . S
C1953 N1961 1.427 . S
C1954 H1945 0.930 . S
C1954 C1952 1.378 . S
C1954 C1955 1.367 . S
C1955 C1954 1.367 . S
C1955 C1957 1.433 . S
C1956 C1952 1.350 . S
C1956 C1953 1.463 . S
C1956 N1960 1.427 . S
C1957 H1947 0.929 . S
C1957 C1955 1.433 . S
C1957 N1960 1.384 . S
C1958 H1949 0.929 . S
C1958 C1950 1.378 . S
C1958 C1953 1.350 . S
C1959 H1946 0.929 . S
C1959 C1951 1.433 . S
C1959 N1961 1.384 . S
N1960 C1956 1.427 . S
N1960 C1957 1.384 . S
N1961 C1953 1.427 . S
N1961 C1959 1.384 . S
H1962 C1968 0.930 . S
H1963 C1972 0.930 . S
H1964 C1977 0.929 . S
H1965 C1975 0.929 . S
H1966 C1970 0.929 . S
H1967 C1976 0.929 . S
C1968 H1962 0.930 . S
C1968 C1969 1.348 1_565 S
C1968 C1976 1.378 . S
C1969 C1968 1.348 1_545 S
C1969 C1977 1.453 . S
C1970 H1966 0.929 . S
C1970 C1972 1.378 . S
C1970 C1974 1.363 . S
C1971 C1974 1.462 1_565 S
C1971 C1976 1.358 . S
C1971 N1979 1.419 1_565 S
C1972 H1963 0.930 . S
C1972 C1970 1.378 . S
C1972 C1973 1.353 1_545 S
C1973 C1972 1.353 1_565 S
C1973 C1975 1.447 . S
C1974 C1970 1.363 . S
C1974 C1971 1.462 1_545 S
C1974 N1978 1.414 1_545 S
C1975 H1965 0.929 . S
C1975 C1973 1.447 . S
C1975 N1978 1.384 . S
C1976 H1967 0.929 . S
C1976 C1968 1.378 . S
C1976 C1971 1.358 . S
C1977 H1964 0.929 . S
C1977 C1969 1.453 . S
C1977 N1979 1.384 . S
N1978 C1974 1.414 1_565 S
N1978 C1975 1.384 . S
N1979 C1971 1.419 1_545 S
N1979 C1977 1.384 . S
H1980 C1986 0.930 . S
H1981 C1990 0.930 . S
H1982 C1995 0.929 . S
H1983 C1993 0.929 . S
H1984 C1988 0.929 . S
H1985 C1994 0.929 . S
C1986 H1980 0.930 . S
C1986 C1987 1.367 . S
C1986 C1994 1.378 . S
C1987 C1986 1.367 . S
C1987 C1995 1.433 . S
C1988 H1984 0.929 . S
C1988 C1990 1.378 . S
C1988 C1992 1.350 . S
C1989 C1992 1.463 . S
C1989 C1994 1.350 . S
C1989 N1997 1.427 . S
C1990 H1981 0.930 . S
C1990 C1988 1.378 . S
C1990 C1991 1.367 . S
C1991 C1990 1.367 . S
C1991 C1993 1.433 . S
C1992 C1988 1.350 . S
C1992 C1989 1.463 . S
C1992 N1996 1.427 . S
C1993 H1983 0.929 . S
C1993 C1991 1.433 . S
C1993 N1996 1.384 . S
C1994 H1985 0.929 . S
C1994 C1986 1.378 . S
C1994 C1989 1.350 . S
C1995 H1982 0.929 . S
C1995 C1987 1.433 . S
C1995 N1997 1.384 . S
N1996 C1992 1.427 . S
N1996 C1993 1.384 . S
N1997 C1989 1.427 . S
N1997 C1995 1.384 . S
H1998 C2004 0.930 . S
H1999 C2008 0.930 . S
H2000 C2013 0.929 . S
H2001 C2011 0.929 . S
H2002 C2006 0.929 . S
H2003 C2012 0.929 . S
C2004 H1998 0.930 . S
C2004 C2005 1.367 . S
C2004 C2012 1.378 . S
C2005 C2004 1.367 . S
C2005 C2013 1.433 . S
C2006 H2002 0.929 . S
C2006 C2008 1.378 . S
C2006 C2010 1.350 . S
C2007 C2010 1.463 . S
C2007 C2012 1.350 . S
C2007 N2015 1.427 . S
C2008 H1999 0.930 . S
C2008 C2006 1.378 . S
C2008 C2009 1.367 . S
C2009 C2008 1.367 . S
C2009 C2011 1.433 . S
C2010 C2006 1.350 . S
C2010 C2007 1.463 . S
C2010 N2014 1.427 . S
C2011 H2001 0.929 . S
C2011 C2009 1.433 . S
C2011 N2014 1.384 . S
C2012 H2003 0.929 . S
C2012 C2004 1.378 . S
C2012 C2007 1.350 . S
C2013 H2000 0.929 . S
C2013 C2005 1.433 . S
C2013 N2015 1.384 . S
N2014 C2010 1.427 . S
N2014 C2011 1.384 . S
N2015 C2007 1.427 . S
N2015 C2013 1.384 . S
H2016 C2022 0.930 . S
H2017 C2026 0.930 . S
H2018 C2031 0.929 . S
H2019 C2029 0.929 . S
H2020 C2024 0.929 . S
H2021 C2030 0.929 . S
C2022 H2016 0.930 . S
C2022 C2023 1.367 . S
C2022 C2030 1.378 . S
C2023 C2022 1.367 . S
C2023 C2031 1.433 . S
C2024 H2020 0.929 . S
C2024 C2026 1.378 . S
C2024 C2028 1.350 . S
C2025 C2028 1.463 . S
C2025 C2030 1.350 . S
C2025 N2033 1.427 . S
C2026 H2017 0.930 . S
C2026 C2024 1.378 . S
C2026 C2027 1.367 . S
C2027 C2026 1.367 . S
C2027 C2029 1.433 . S
C2028 C2024 1.350 . S
C2028 C2025 1.463 . S
C2028 N2032 1.427 . S
C2029 H2019 0.929 . S
C2029 C2027 1.433 . S
C2029 N2032 1.384 . S
C2030 H2021 0.929 . S
C2030 C2022 1.378 . S
C2030 C2025 1.350 . S
C2031 H2018 0.929 . S
C2031 C2023 1.433 . S
C2031 N2033 1.384 . S
N2032 C2028 1.427 . S
N2032 C2029 1.384 . S
N2033 C2025 1.427 . S
N2033 C2031 1.384 . S
H2034 C2040 0.930 . S
H2035 C2044 0.930 . S
H2036 C2049 0.929 . S
H2037 C2047 0.929 . S
H2038 C2042 0.929 . S
H2039 C2048 0.929 . S
C2040 H2034 0.930 . S
C2040 C2041 1.367 . S
C2040 C2048 1.378 . S
C2041 C2040 1.367 . S
C2041 C2049 1.433 . S
C2042 H2038 0.929 . S
C2042 C2044 1.378 . S
C2042 C2046 1.350 . S
C2043 C2046 1.463 . S
C2043 C2048 1.350 . S
C2043 N2051 1.427 . S
C2044 H2035 0.930 . S
C2044 C2042 1.378 . S
C2044 C2045 1.367 . S
C2045 C2044 1.367 . S
C2045 C2047 1.433 . S
C2046 C2042 1.350 . S
C2046 C2043 1.463 . S
C2046 N2050 1.427 . S
C2047 H2037 0.929 . S
C2047 C2045 1.433 . S
C2047 N2050 1.384 . S
C2048 H2039 0.929 . S
C2048 C2040 1.378 . S
C2048 C2043 1.350 . S
C2049 H2036 0.929 . S
C2049 C2041 1.433 . S
C2049 N2051 1.384 . S
N2050 C2046 1.427 . S
N2050 C2047 1.384 . S
N2051 C2043 1.427 . S
N2051 C2049 1.384 . S
H2052 C2058 0.930 . S
H2053 C2062 0.930 . S
H2054 C2067 0.929 . S
H2055 C2065 0.929 . S
H2056 C2060 0.929 . S
H2057 C2066 0.929 . S
C2058 H2052 0.930 . S
C2058 C2059 1.367 . S
C2058 C2066 1.378 . S
C2059 C2058 1.367 . S
C2059 C2067 1.433 . S
C2060 H2056 0.929 . S
C2060 C2062 1.378 . S
C2060 C2064 1.350 . S
C2061 C2064 1.463 . S
C2061 C2066 1.350 . S
C2061 N2069 1.427 . S
C2062 H2053 0.930 . S
C2062 C2060 1.378 . S
C2062 C2063 1.367 . S
C2063 C2062 1.367 . S
C2063 C2065 1.433 . S
C2064 C2060 1.350 . S
C2064 C2061 1.463 . S
C2064 N2068 1.427 . S
C2065 H2055 0.929 . S
C2065 C2063 1.433 . S
C2065 N2068 1.384 . S
C2066 H2057 0.929 . S
C2066 C2058 1.378 . S
C2066 C2061 1.350 . S
C2067 H2054 0.929 . S
C2067 C2059 1.433 . S
C2067 N2069 1.384 . S
N2068 C2064 1.427 . S
N2068 C2065 1.384 . S
N2069 C2061 1.427 . S
N2069 C2067 1.384 . S
H2070 C2076 0.930 . S
H2071 C2080 0.930 . S
H2072 C2085 0.929 . S
H2073 C2083 0.929 . S
H2074 C2078 0.929 . S
H2075 C2084 0.929 . S
C2076 H2070 0.930 . S
C2076 C2077 1.367 . S
C2076 C2084 1.378 . S
C2077 C2076 1.367 . S
C2077 C2085 1.433 . S
C2078 H2074 0.929 . S
C2078 C2080 1.378 . S
C2078 C2082 1.350 . S
C2079 C2082 1.463 . S
C2079 C2084 1.350 . S
C2079 N2087 1.427 . S
C2080 H2071 0.930 . S
C2080 C2078 1.378 . S
C2080 C2081 1.367 . S
C2081 C2080 1.367 . S
C2081 C2083 1.433 . S
C2082 C2078 1.350 . S
C2082 C2079 1.463 . S
C2082 N2086 1.427 . S
C2083 H2073 0.929 . S
C2083 C2081 1.433 . S
C2083 N2086 1.384 . S
C2084 H2075 0.929 . S
C2084 C2076 1.378 . S
C2084 C2079 1.350 . S
C2085 H2072 0.929 . S
C2085 C2077 1.433 . S
C2085 N2087 1.384 . S
N2086 C2082 1.427 . S
N2086 C2083 1.384 . S
N2087 C2079 1.427 . S
N2087 C2085 1.384 . S
H2088 C2094 0.930 . S
H2089 C2098 0.930 . S
H2090 C2103 0.929 . S
H2091 C2101 0.929 . S
H2092 C2096 0.929 . S
H2093 C2102 0.929 . S
C2094 H2088 0.930 . S
C2094 C2095 1.367 . S
C2094 C2102 1.378 . S
C2095 C2094 1.367 . S
C2095 C2103 1.433 . S
C2096 H2092 0.929 . S
C2096 C2098 1.378 . S
C2096 C2100 1.350 . S
C2097 C2100 1.463 . S
C2097 C2102 1.350 . S
C2097 N2105 1.427 . S
C2098 H2089 0.930 . S
C2098 C2096 1.378 . S
C2098 C2099 1.367 . S
C2099 C2098 1.367 . S
C2099 C2101 1.433 . S
C2100 C2096 1.350 . S
C2100 C2097 1.463 . S
C2100 N2104 1.427 . S
C2101 H2091 0.929 . S
C2101 C2099 1.433 . S
C2101 N2104 1.384 . S
C2102 H2093 0.929 . S
C2102 C2094 1.378 . S
C2102 C2097 1.350 . S
C2103 H2090 0.929 . S
C2103 C2095 1.433 . S
C2103 N2105 1.384 . S
N2104 C2100 1.427 . S
N2104 C2101 1.384 . S
N2105 C2097 1.427 . S
N2105 C2103 1.384 . S
H2106 C2112 0.930 . S
H2107 C2116 0.930 . S
H2108 C2121 0.929 . S
H2109 C2119 0.929 . S
H2110 C2114 0.929 . S
H2111 C2120 0.929 . S
C2112 H2106 0.930 . S
C2112 C2113 1.367 . S
C2112 C2120 1.378 . S
C2113 C2112 1.367 . S
C2113 C2121 1.433 . S
C2114 H2110 0.929 . S
C2114 C2116 1.378 . S
C2114 C2118 1.350 . S
C2115 C2118 1.463 . S
C2115 C2120 1.350 . S
C2115 N2123 1.427 . S
C2116 H2107 0.930 . S
C2116 C2114 1.378 . S
C2116 C2117 1.367 . S
C2117 C2116 1.367 . S
C2117 C2119 1.433 . S
C2118 C2114 1.350 . S
C2118 C2115 1.463 . S
C2118 N2122 1.427 . S
C2119 H2109 0.929 . S
C2119 C2117 1.433 . S
C2119 N2122 1.384 . S
C2120 H2111 0.929 . S
C2120 C2112 1.378 . S
C2120 C2115 1.350 . S
C2121 H2108 0.929 . S
C2121 C2113 1.433 . S
C2121 N2123 1.384 . S
N2122 C2118 1.427 . S
N2122 C2119 1.384 . S
N2123 C2115 1.427 . S
N2123 C2121 1.384 . S
H2124 C2130 0.930 . S
H2125 C2134 0.930 . S
H2126 C2139 0.929 . S
H2127 C2137 0.929 . S
H2128 C2132 0.929 . S
H2129 C2138 0.929 . S
C2130 H2124 0.930 . S
C2130 C2131 1.367 . S
C2130 C2138 1.378 . S
C2131 C2130 1.367 . S
C2131 C2139 1.433 . S
C2132 H2128 0.929 . S
C2132 C2134 1.378 . S
C2132 C2136 1.350 . S
C2133 C2136 1.463 . S
C2133 C2138 1.350 . S
C2133 N2141 1.427 . S
C2134 H2125 0.930 . S
C2134 C2132 1.378 . S
C2134 C2135 1.367 . S
C2135 C2134 1.367 . S
C2135 C2137 1.433 . S
C2136 C2132 1.350 . S
C2136 C2133 1.463 . S
C2136 N2140 1.427 . S
C2137 H2127 0.929 . S
C2137 C2135 1.433 . S
C2137 N2140 1.384 . S
C2138 H2129 0.929 . S
C2138 C2130 1.378 . S
C2138 C2133 1.350 . S
C2139 H2126 0.929 . S
C2139 C2131 1.433 . S
C2139 N2141 1.384 . S
N2140 C2136 1.427 . S
N2140 C2137 1.384 . S
N2141 C2133 1.427 . S
N2141 C2139 1.384 . S
H2142 C2148 0.930 . S
H2143 C2152 0.930 . S
H2144 C2157 0.929 . S
H2145 C2155 0.929 . S
H2146 C2150 0.929 . S
H2147 C2156 0.929 . S
C2148 H2142 0.930 . S
C2148 C2149 1.367 . S
C2148 C2156 1.378 . S
C2149 C2148 1.367 . S
C2149 C2157 1.433 . S
C2150 H2146 0.929 . S
C2150 C2152 1.378 . S
C2150 C2154 1.350 . S
C2151 C2154 1.463 . S
C2151 C2156 1.350 . S
C2151 N2159 1.427 . S
C2152 H2143 0.930 . S
C2152 C2150 1.378 . S
C2152 C2153 1.367 . S
C2153 C2152 1.367 . S
C2153 C2155 1.433 . S
C2154 C2150 1.350 . S
C2154 C2151 1.463 . S
C2154 N2158 1.427 . S
C2155 H2145 0.929 . S
C2155 C2153 1.433 . S
C2155 N2158 1.384 . S
C2156 H2147 0.929 . S
C2156 C2148 1.378 . S
C2156 C2151 1.350 . S
C2157 H2144 0.929 . S
C2157 C2149 1.433 . S
C2157 N2159 1.384 . S
N2158 C2154 1.427 . S
N2158 C2155 1.384 . S
N2159 C2151 1.427 . S
N2159 C2157 1.384 . S
H2160 C2166 0.930 . S
H2161 C2170 0.930 . S
H2162 C2175 0.929 . S
H2163 C2173 0.929 . S
H2164 C2168 0.929 . S
H2165 C2174 0.929 . S
C2166 H2160 0.930 . S
C2166 C2167 1.367 . S
C2166 C2174 1.378 . S
C2167 C2166 1.367 . S
C2167 C2175 1.433 . S
C2168 H2164 0.929 . S
C2168 C2170 1.378 . S
C2168 C2172 1.350 . S
C2169 C2172 1.463 . S
C2169 C2174 1.350 . S
C2169 N2177 1.427 . S
C2170 H2161 0.930 . S
C2170 C2168 1.378 . S
C2170 C2171 1.367 . S
C2171 C2170 1.367 . S
C2171 C2173 1.433 . S
C2172 C2168 1.350 . S
C2172 C2169 1.463 . S
C2172 N2176 1.427 . S
C2173 H2163 0.929 . S
C2173 C2171 1.433 . S
C2173 N2176 1.384 . S
C2174 H2165 0.929 . S
C2174 C2166 1.378 . S
C2174 C2169 1.350 . S
C2175 H2162 0.929 . S
C2175 C2167 1.433 . S
C2175 N2177 1.384 . S
N2176 C2172 1.427 . S
N2176 C2173 1.384 . S
N2177 C2169 1.427 . S
N2177 C2175 1.384 . S
H2178 C2184 0.930 . S
H2179 C2188 0.930 . S
H2180 C2193 0.929 . S
H2181 C2191 0.929 . S
H2182 C2186 0.929 . S
H2183 C2192 0.929 . S
C2184 H2178 0.930 . S
C2184 C2185 1.367 . S
C2184 C2192 1.378 . S
C2185 C2184 1.367 . S
C2185 C2193 1.433 . S
C2186 H2182 0.929 . S
C2186 C2188 1.378 . S
C2186 C2190 1.350 . S
C2187 C2190 1.463 . S
C2187 C2192 1.350 . S
C2187 N2195 1.427 . S
C2188 H2179 0.930 . S
C2188 C2186 1.378 . S
C2188 C2189 1.367 . S
C2189 C2188 1.367 . S
C2189 C2191 1.433 . S
C2190 C2186 1.350 . S
C2190 C2187 1.463 . S
C2190 N2194 1.427 . S
C2191 H2181 0.929 . S
C2191 C2189 1.433 . S
C2191 N2194 1.384 . S
C2192 H2183 0.929 . S
C2192 C2184 1.378 . S
C2192 C2187 1.350 . S
C2193 H2180 0.929 . S
C2193 C2185 1.433 . S
C2193 N2195 1.384 . S
N2194 C2190 1.427 . S
N2194 C2191 1.384 . S
N2195 C2187 1.427 . S
N2195 C2193 1.384 . S
H2196 C2202 0.930 . S
H2197 C2206 0.930 . S
H2198 C2211 0.929 . S
H2199 C2209 0.929 . S
H2200 C2204 0.929 . S
H2201 C2210 0.929 . S
C2202 H2196 0.930 . S
C2202 C2203 1.367 . S
C2202 C2210 1.378 . S
C2203 C2202 1.367 . S
C2203 C2211 1.433 . S
C2204 H2200 0.929 . S
C2204 C2206 1.378 . S
C2204 C2208 1.350 . S
C2205 C2208 1.463 . S
C2205 C2210 1.350 . S
C2205 N2213 1.427 . S
C2206 H2197 0.930 . S
C2206 C2204 1.378 . S
C2206 C2207 1.367 . S
C2207 C2206 1.367 . S
C2207 C2209 1.433 . S
C2208 C2204 1.350 . S
C2208 C2205 1.463 . S
C2208 N2212 1.427 . S
C2209 H2199 0.929 . S
C2209 C2207 1.433 . S
C2209 N2212 1.384 . S
C2210 H2201 0.929 . S
C2210 C2202 1.378 . S
C2210 C2205 1.350 . S
C2211 H2198 0.929 . S
C2211 C2203 1.433 . S
C2211 N2213 1.384 . S
N2212 C2208 1.427 . S
N2212 C2209 1.384 . S
N2213 C2205 1.427 . S
N2213 C2211 1.384 . S
H2214 C2220 0.930 . S
H2215 C2224 0.930 . S
H2216 C2229 0.929 . S
H2217 C2227 0.929 . S
H2218 C2222 0.929 . S
H2219 C2228 0.929 . S
C2220 H2214 0.930 . S
C2220 C2221 1.367 . S
C2220 C2228 1.378 . S
C2221 C2220 1.367 . S
C2221 C2229 1.433 . S
C2222 H2218 0.929 . S
C2222 C2224 1.378 . S
C2222 C2226 1.350 . S
C2223 C2226 1.463 . S
C2223 C2228 1.350 . S
C2223 N2231 1.427 . S
C2224 H2215 0.930 . S
C2224 C2222 1.378 . S
C2224 C2225 1.367 . S
C2225 C2224 1.367 . S
C2225 C2227 1.433 . S
C2226 C2222 1.350 . S
C2226 C2223 1.463 . S
C2226 N2230 1.427 . S
C2227 H2217 0.929 . S
C2227 C2225 1.433 . S
C2227 N2230 1.384 . S
C2228 H2219 0.929 . S
C2228 C2220 1.378 . S
C2228 C2223 1.350 . S
C2229 H2216 0.929 . S
C2229 C2221 1.433 . S
C2229 N2231 1.384 . S
N2230 C2226 1.427 . S
N2230 C2227 1.384 . S
N2231 C2223 1.427 . S
N2231 C2229 1.384 . S
H2232 C2238 0.930 . S
H2233 C2242 0.930 . S
H2234 C2247 0.929 . S
H2235 C2245 0.929 . S
H2236 C2240 0.929 . S
H2237 C2246 0.929 . S
C2238 H2232 0.930 . S
C2238 C2239 1.367 . S
C2238 C2246 1.378 . S
C2239 C2238 1.367 . S
C2239 C2247 1.433 . S
C2240 H2236 0.929 . S
C2240 C2242 1.378 . S
C2240 C2244 1.350 . S
C2241 C2244 1.463 . S
C2241 C2246 1.350 . S
C2241 N2249 1.427 . S
C2242 H2233 0.930 . S
C2242 C2240 1.378 . S
C2242 C2243 1.367 . S
C2243 C2242 1.367 . S
C2243 C2245 1.433 . S
C2244 C2240 1.350 . S
C2244 C2241 1.463 . S
C2244 N2248 1.427 . S
C2245 H2235 0.929 . S
C2245 C2243 1.433 . S
C2245 N2248 1.384 . S
C2246 H2237 0.929 . S
C2246 C2238 1.378 . S
C2246 C2241 1.350 . S
C2247 H2234 0.929 . S
C2247 C2239 1.433 . S
C2247 N2249 1.384 . S
N2248 C2244 1.427 . S
N2248 C2245 1.384 . S
N2249 C2241 1.427 . S
N2249 C2247 1.384 . S
H2250 C2256 0.930 . S
H2251 C2260 0.930 . S
H2252 C2265 0.929 . S
H2253 C2263 0.929 . S
H2254 C2258 0.929 . S
H2255 C2264 0.929 . S
C2256 H2250 0.930 . S
C2256 C2257 1.367 . S
C2256 C2264 1.378 . S
C2257 C2256 1.367 . S
C2257 C2265 1.433 . S
C2258 H2254 0.929 . S
C2258 C2260 1.378 . S
C2258 C2262 1.350 . S
C2259 C2262 1.463 . S
C2259 C2264 1.350 . S
C2259 N2267 1.427 . S
C2260 H2251 0.930 . S
C2260 C2258 1.378 . S
C2260 C2261 1.367 . S
C2261 C2260 1.367 . S
C2261 C2263 1.433 . S
C2262 C2258 1.350 . S
C2262 C2259 1.463 . S
C2262 N2266 1.427 . S
C2263 H2253 0.929 . S
C2263 C2261 1.433 . S
C2263 N2266 1.384 . S
C2264 H2255 0.929 . S
C2264 C2256 1.378 . S
C2264 C2259 1.350 . S
C2265 H2252 0.929 . S
C2265 C2257 1.433 . S
C2265 N2267 1.384 . S
N2266 C2262 1.427 . S
N2266 C2263 1.384 . S
N2267 C2259 1.427 . S
N2267 C2265 1.384 . S
H2268 C2274 0.930 . S
H2269 C2278 0.930 . S
H2270 C2283 0.929 . S
H2271 C2281 0.929 . S
H2272 C2276 0.929 . S
H2273 C2282 0.929 . S
C2274 H2268 0.930 . S
C2274 C2275 1.367 . S
C2274 C2282 1.378 . S
C2275 C2274 1.367 . S
C2275 C2283 1.433 . S
C2276 H2272 0.929 . S
C2276 C2278 1.378 . S
C2276 C2280 1.350 . S
C2277 C2280 1.463 . S
C2277 C2282 1.350 . S
C2277 N2285 1.427 . S
C2278 H2269 0.930 . S
C2278 C2276 1.378 . S
C2278 C2279 1.367 . S
C2279 C2278 1.367 . S
C2279 C2281 1.433 . S
C2280 C2276 1.350 . S
C2280 C2277 1.463 . S
C2280 N2284 1.427 . S
C2281 H2271 0.929 . S
C2281 C2279 1.433 . S
C2281 N2284 1.384 . S
C2282 H2273 0.929 . S
C2282 C2274 1.378 . S
C2282 C2277 1.350 . S
C2283 H2270 0.929 . S
C2283 C2275 1.433 . S
C2283 N2285 1.384 . S
N2284 C2280 1.427 . S
N2284 C2281 1.384 . S
N2285 C2277 1.427 . S
N2285 C2283 1.384 . S
H2286 C2292 0.930 . S
H2287 C2296 0.930 . S
H2288 C2301 0.929 . S
H2289 C2299 0.929 . S
H2290 C2294 0.929 . S
H2291 C2300 0.929 . S
C2292 H2286 0.930 . S
C2292 C2293 1.367 . S
C2292 C2300 1.378 . S
C2293 C2292 1.367 . S
C2293 C2301 1.433 . S
C2294 H2290 0.929 . S
C2294 C2296 1.378 . S
C2294 C2298 1.350 . S
C2295 C2298 1.463 . S
C2295 C2300 1.350 . S
C2295 N2303 1.427 . S
C2296 H2287 0.930 . S
C2296 C2294 1.378 . S
C2296 C2297 1.367 . S
C2297 C2296 1.367 . S
C2297 C2299 1.433 . S
C2298 C2294 1.350 . S
C2298 C2295 1.463 . S
C2298 N2302 1.427 . S
C2299 H2289 0.929 . S
C2299 C2297 1.433 . S
C2299 N2302 1.384 . S
C2300 H2291 0.929 . S
C2300 C2292 1.378 . S
C2300 C2295 1.350 . S
C2301 H2288 0.929 . S
C2301 C2293 1.433 . S
C2301 N2303 1.384 . S
N2302 C2298 1.427 . S
N2302 C2299 1.384 . S
N2303 C2295 1.427 . S
N2303 C2301 1.384 . S
H2304 C2310 0.930 . S
H2305 C2314 0.930 . S
H2306 C2319 0.929 . S
H2307 C2317 0.929 . S
H2308 C2312 0.929 . S
H2309 C2318 0.929 . S
C2310 H2304 0.930 . S
C2310 C2311 1.367 . S
C2310 C2318 1.378 . S
C2311 C2310 1.367 . S
C2311 C2319 1.433 . S
C2312 H2308 0.929 . S
C2312 C2314 1.378 . S
C2312 C2316 1.350 . S
C2313 C2316 1.463 . S
C2313 C2318 1.350 . S
C2313 N2321 1.427 . S
C2314 H2305 0.930 . S
C2314 C2312 1.378 . S
C2314 C2315 1.367 . S
C2315 C2314 1.367 . S
C2315 C2317 1.433 . S
C2316 C2312 1.350 . S
C2316 C2313 1.463 . S
C2316 N2320 1.427 . S
C2317 H2307 0.929 . S
C2317 C2315 1.433 . S
C2317 N2320 1.384 . S
C2318 H2309 0.929 . S
C2318 C2310 1.378 . S
C2318 C2313 1.350 . S
C2319 H2306 0.929 . S
C2319 C2311 1.433 . S
C2319 N2321 1.384 . S
N2320 C2316 1.427 . S
N2320 C2317 1.384 . S
N2321 C2313 1.427 . S
N2321 C2319 1.384 . S
H2322 C2328 0.930 . S
H2323 C2332 0.930 . S
H2324 C2337 0.929 . S
H2325 C2335 0.929 . S
H2326 C2330 0.929 . S
H2327 C2336 0.929 . S
C2328 H2322 0.930 . S
C2328 C2329 1.367 . S
C2328 C2336 1.378 . S
C2329 C2328 1.367 . S
C2329 C2337 1.433 . S
C2330 H2326 0.929 . S
C2330 C2332 1.378 . S
C2330 C2334 1.350 . S
C2331 C2334 1.463 . S
C2331 C2336 1.350 . S
C2331 N2339 1.427 . S
C2332 H2323 0.930 . S
C2332 C2330 1.378 . S
C2332 C2333 1.367 . S
C2333 C2332 1.367 . S
C2333 C2335 1.433 . S
C2334 C2330 1.350 . S
C2334 C2331 1.463 . S
C2334 N2338 1.427 . S
C2335 H2325 0.929 . S
C2335 C2333 1.433 . S
C2335 N2338 1.384 . S
C2336 H2327 0.929 . S
C2336 C2328 1.378 . S
C2336 C2331 1.350 . S
C2337 H2324 0.929 . S
C2337 C2329 1.433 . S
C2337 N2339 1.384 . S
N2338 C2334 1.427 . S
N2338 C2335 1.384 . S
N2339 C2331 1.427 . S
N2339 C2337 1.384 . S
H2340 C2346 0.930 . S
H2341 C2350 0.930 . S
H2342 C2355 0.929 . S
H2343 C2353 0.929 . S
H2344 C2348 0.929 . S
H2345 C2354 0.929 . S
C2346 H2340 0.930 . S
C2346 C2347 1.367 . S
C2346 C2354 1.378 . S
C2347 C2346 1.367 . S
C2347 C2355 1.433 . S
C2348 H2344 0.929 . S
C2348 C2350 1.378 . S
C2348 C2352 1.350 . S
C2349 C2352 1.463 . S
C2349 C2354 1.350 . S
C2349 N2357 1.427 . S
C2350 H2341 0.930 . S
C2350 C2348 1.378 . S
C2350 C2351 1.367 . S
C2351 C2350 1.367 . S
C2351 C2353 1.433 . S
C2352 C2348 1.350 . S
C2352 C2349 1.463 . S
C2352 N2356 1.427 . S
C2353 H2343 0.929 . S
C2353 C2351 1.433 . S
C2353 N2356 1.384 . S
C2354 H2345 0.929 . S
C2354 C2346 1.378 . S
C2354 C2349 1.350 . S
C2355 H2342 0.929 . S
C2355 C2347 1.433 . S
C2355 N2357 1.384 . S
N2356 C2352 1.427 . S
N2356 C2353 1.384 . S
N2357 C2349 1.427 . S
N2357 C2355 1.384 . S
H2358 C2364 0.930 . S
H2359 C2368 0.930 . S
H2360 C2373 0.929 . S
H2361 C2371 0.929 . S
H2362 C2366 0.929 . S
H2363 C2372 0.929 . S
C2364 H2358 0.930 . S
C2364 C2365 1.367 . S
C2364 C2372 1.378 . S
C2365 C2364 1.367 . S
C2365 C2373 1.433 . S
C2366 H2362 0.929 . S
C2366 C2368 1.378 . S
C2366 C2370 1.350 . S
C2367 C2370 1.463 . S
C2367 C2372 1.350 . S
C2367 N2375 1.427 . S
C2368 H2359 0.930 . S
C2368 C2366 1.378 . S
C2368 C2369 1.367 . S
C2369 C2368 1.367 . S
C2369 C2371 1.433 . S
C2370 C2366 1.350 . S
C2370 C2367 1.463 . S
C2370 N2374 1.427 . S
C2371 H2361 0.929 . S
C2371 C2369 1.433 . S
C2371 N2374 1.384 . S
C2372 H2363 0.929 . S
C2372 C2364 1.378 . S
C2372 C2367 1.350 . S
C2373 H2360 0.929 . S
C2373 C2365 1.433 . S
C2373 N2375 1.384 . S
N2374 C2370 1.427 . S
N2374 C2371 1.384 . S
N2375 C2367 1.427 . S
N2375 C2373 1.384 . S
H2376 C2382 0.930 . S
H2377 C2386 0.930 . S
H2378 C2391 0.929 . S
H2379 C2389 0.929 . S
H2380 C2384 0.929 . S
H2381 C2390 0.929 . S
C2382 H2376 0.930 . S
C2382 C2383 1.367 . S
C2382 C2390 1.378 . S
C2383 C2382 1.367 . S
C2383 C2391 1.433 . S
C2384 H2380 0.929 . S
C2384 C2386 1.378 . S
C2384 C2388 1.350 . S
C2385 C2388 1.463 . S
C2385 C2390 1.350 . S
C2385 N2393 1.427 . S
C2386 H2377 0.930 . S
C2386 C2384 1.378 . S
C2386 C2387 1.367 . S
C2387 C2386 1.367 . S
C2387 C2389 1.433 . S
C2388 C2384 1.350 . S
C2388 C2385 1.463 . S
C2388 N2392 1.427 . S
C2389 H2379 0.929 . S
C2389 C2387 1.433 . S
C2389 N2392 1.384 . S
C2390 H2381 0.929 . S
C2390 C2382 1.378 . S
C2390 C2385 1.350 . S
C2391 H2378 0.929 . S
C2391 C2383 1.433 . S
C2391 N2393 1.384 . S
N2392 C2388 1.427 . S
N2392 C2389 1.384 . S
N2393 C2385 1.427 . S
N2393 C2391 1.384 . S
H2394 C2400 0.930 . S
H2395 C2404 0.930 . S
H2396 C2409 0.929 . S
H2397 C2407 0.929 . S
H2398 C2402 0.929 . S
H2399 C2408 0.929 . S
C2400 H2394 0.930 . S
C2400 C2401 1.367 . S
C2400 C2408 1.378 . S
C2401 C2400 1.367 . S
C2401 C2409 1.433 . S
C2402 H2398 0.929 . S
C2402 C2404 1.378 . S
C2402 C2406 1.350 . S
C2403 C2406 1.463 . S
C2403 C2408 1.350 . S
C2403 N2411 1.427 . S
C2404 H2395 0.930 . S
C2404 C2402 1.378 . S
C2404 C2405 1.367 . S
C2405 C2404 1.367 . S
C2405 C2407 1.433 . S
C2406 C2402 1.350 . S
C2406 C2403 1.463 . S
C2406 N2410 1.427 . S
C2407 H2397 0.929 . S
C2407 C2405 1.433 . S
C2407 N2410 1.384 . S
C2408 H2399 0.929 . S
C2408 C2400 1.378 . S
C2408 C2403 1.350 . S
C2409 H2396 0.929 . S
C2409 C2401 1.433 . S
C2409 N2411 1.384 . S
N2410 C2406 1.427 . S
N2410 C2407 1.384 . S
N2411 C2403 1.427 . S
N2411 C2409 1.384 . S
H2412 C2418 0.930 . S
H2413 C2422 0.930 . S
H2414 C2427 0.929 . S
H2415 C2425 0.929 . S
H2416 C2420 0.929 . S
H2417 C2426 0.929 . S
C2418 H2412 0.930 . S
C2418 C2419 1.367 . S
C2418 C2426 1.378 . S
C2419 C2418 1.367 . S
C2419 C2427 1.433 . S
C2420 H2416 0.929 . S
C2420 C2422 1.378 . S
C2420 C2424 1.350 . S
C2421 C2424 1.463 1_455 S
C2421 C2426 1.350 . S
C2421 N2429 1.427 . S
C2422 H2413 0.930 . S
C2422 C2420 1.378 . S
C2422 C2423 1.367 . S
C2423 C2422 1.367 . S
C2423 C2425 1.433 . S
C2424 C2420 1.350 . S
C2424 C2421 1.463 1_655 S
C2424 N2428 1.427 . S
C2425 H2415 0.929 . S
C2425 C2423 1.433 . S
C2425 N2428 1.384 . S
C2426 H2417 0.929 . S
C2426 C2418 1.378 . S
C2426 C2421 1.350 . S
C2427 H2414 0.929 . S
C2427 C2419 1.433 . S
C2427 N2429 1.384 . S
N2428 C2424 1.427 . S
N2428 C2425 1.384 . S
N2429 C2421 1.427 . S
N2429 C2427 1.384 . S
H2430 C2436 0.930 . S
H2431 C2440 0.930 . S
H2432 C2445 0.929 . S
H2433 C2443 0.929 . S
H2434 C2438 0.929 . S
H2435 C2444 0.929 . S
C2436 H2430 0.930 . S
C2436 C2437 1.367 . S
C2436 C2444 1.378 . S
C2437 C2436 1.367 . S
C2437 C2445 1.433 . S
C2438 H2434 0.929 . S
C2438 C2440 1.378 . S
C2438 C2442 1.350 . S
C2439 C2442 1.463 . S
C2439 C2444 1.350 . S
C2439 N2447 1.427 . S
C2440 H2431 0.930 . S
C2440 C2438 1.378 . S
C2440 C2441 1.367 . S
C2441 C2440 1.367 . S
C2441 C2443 1.433 . S
C2442 C2438 1.350 . S
C2442 C2439 1.463 . S
C2442 N2446 1.427 . S
C2443 H2433 0.929 . S
C2443 C2441 1.433 . S
C2443 N2446 1.384 . S
C2444 H2435 0.929 . S
C2444 C2436 1.378 . S
C2444 C2439 1.350 . S
C2445 H2432 0.929 . S
C2445 C2437 1.433 . S
C2445 N2447 1.384 . S
N2446 C2442 1.427 . S
N2446 C2443 1.384 . S
N2447 C2439 1.427 . S
N2447 C2445 1.384 . S
H2448 C2454 0.930 . S
H2449 C2458 0.930 . S
H2450 C2463 0.929 . S
H2451 C2461 0.929 . S
H2452 C2456 0.929 . S
H2453 C2462 0.929 . S
C2454 H2448 0.930 . S
C2454 C2455 1.367 . S
C2454 C2462 1.378 . S
C2455 C2454 1.367 . S
C2455 C2463 1.433 . S
C2456 H2452 0.929 . S
C2456 C2458 1.378 . S
C2456 C2460 1.350 . S
C2457 C2460 1.463 1_565 S
C2457 C2462 1.350 . S
C2457 N2465 1.427 . S
C2458 H2449 0.930 . S
C2458 C2456 1.378 . S
C2458 C2459 1.367 . S
C2459 C2458 1.367 . S
C2459 C2461 1.433 . S
C2460 C2456 1.350 . S
C2460 C2457 1.463 1_545 S
C2460 N2464 1.427 . S
C2461 H2451 0.929 . S
C2461 C2459 1.433 . S
C2461 N2464 1.384 . S
C2462 H2453 0.929 . S
C2462 C2454 1.378 . S
C2462 C2457 1.350 . S
C2463 H2450 0.929 . S
C2463 C2455 1.433 . S
C2463 N2465 1.384 . S
N2464 C2460 1.427 . S
N2464 C2461 1.384 . S
N2465 C2457 1.427 . S
N2465 C2463 1.384 . S
H2466 C2472 0.930 . S
H2467 C2476 0.930 . S
H2468 C2481 0.929 . S
H2469 C2479 0.929 . S
H2470 C2474 0.929 . S
H2471 C2480 0.929 . S
C2472 H2466 0.930 . S
C2472 C2473 1.367 . S
C2472 C2480 1.378 . S
C2473 C2472 1.367 . S
C2473 C2481 1.433 . S
C2474 H2470 0.929 . S
C2474 C2476 1.378 . S
C2474 C2478 1.350 . S
C2475 C2478 1.463 1_545 S
C2475 C2480 1.350 . S
C2475 N2483 1.427 . S
C2476 H2467 0.930 . S
C2476 C2474 1.378 . S
C2476 C2477 1.367 . S
C2477 C2476 1.367 . S
C2477 C2479 1.433 . S
C2478 C2474 1.350 . S
C2478 C2475 1.463 1_565 S
C2478 N2482 1.427 . S
C2479 H2469 0.929 . S
C2479 C2477 1.433 . S
C2479 N2482 1.384 . S
C2480 H2471 0.929 . S
C2480 C2472 1.378 . S
C2480 C2475 1.350 . S
C2481 H2468 0.929 . S
C2481 C2473 1.433 . S
C2481 N2483 1.384 . S
N2482 C2478 1.427 . S
N2482 C2479 1.384 . S
N2483 C2475 1.427 . S
N2483 C2481 1.384 . S
H2484 C2490 0.930 . S
H2485 C2494 0.930 . S
H2486 C2499 0.929 . S
H2487 C2497 0.929 . S
H2488 C2492 0.929 . S
H2489 C2498 0.929 . S
C2490 H2484 0.930 . S
C2490 C2491 1.367 . S
C2490 C2498 1.378 . S
C2491 C2490 1.367 . S
C2491 C2499 1.433 . S
C2492 H2488 0.929 . S
C2492 C2494 1.378 . S
C2492 C2496 1.350 . S
C2493 C2496 1.463 1_655 S
C2493 C2498 1.350 . S
C2493 N2501 1.427 . S
C2494 H2485 0.930 . S
C2494 C2492 1.378 . S
C2494 C2495 1.367 . S
C2495 C2494 1.367 . S
C2495 C2497 1.433 . S
C2496 C2492 1.350 . S
C2496 C2493 1.463 1_455 S
C2496 N2500 1.427 . S
C2497 H2487 0.929 . S
C2497 C2495 1.433 . S
C2497 N2500 1.384 . S
C2498 H2489 0.929 . S
C2498 C2490 1.378 . S
C2498 C2493 1.350 . S
C2499 H2486 0.929 . S
C2499 C2491 1.433 . S
C2499 N2501 1.384 . S
N2500 C2496 1.427 . S
N2500 C2497 1.384 . S
N2501 C2493 1.427 . S
N2501 C2499 1.384 . S
H2502 C2508 0.930 . S
H2503 C2512 0.930 . S
H2504 C2517 0.929 . S
H2505 C2515 0.929 . S
H2506 C2510 0.929 . S
H2507 C2516 0.929 . S
C2508 H2502 0.930 . S
C2508 C2509 1.367 . S
C2508 C2516 1.378 . S
C2509 C2508 1.367 . S
C2509 C2517 1.433 . S
C2510 H2506 0.929 . S
C2510 C2512 1.378 . S
C2510 C2514 1.350 . S
C2511 C2514 1.463 . S
C2511 C2516 1.350 . S
C2511 N2519 1.427 . S
C2512 H2503 0.930 . S
C2512 C2510 1.378 . S
C2512 C2513 1.367 . S
C2513 C2512 1.367 . S
C2513 C2515 1.433 . S
C2514 C2510 1.350 . S
C2514 C2511 1.463 . S
C2514 N2518 1.427 . S
C2515 H2505 0.929 . S
C2515 C2513 1.433 . S
C2515 N2518 1.384 . S
C2516 H2507 0.929 . S
C2516 C2508 1.378 . S
C2516 C2511 1.350 . S
C2517 H2504 0.929 . S
C2517 C2509 1.433 . S
C2517 N2519 1.384 . S
N2518 C2514 1.427 . S
N2518 C2515 1.384 . S
N2519 C2511 1.427 . S
N2519 C2517 1.384 . S
H2520 C2526 0.930 . S
H2521 C2530 0.930 . S
H2522 C2535 0.929 . S
H2523 C2533 0.929 . S
H2524 C2528 0.929 . S
H2525 C2534 0.929 . S
C2526 H2520 0.930 . S
C2526 C2527 1.367 . S
C2526 C2534 1.378 . S
C2527 C2526 1.367 . S
C2527 C2535 1.433 . S
C2528 H2524 0.929 . S
C2528 C2530 1.378 . S
C2528 C2532 1.350 . S
C2529 C2532 1.463 . S
C2529 C2534 1.350 . S
C2529 N2537 1.427 . S
C2530 H2521 0.930 . S
C2530 C2528 1.378 . S
C2530 C2531 1.367 . S
C2531 C2530 1.367 . S
C2531 C2533 1.433 . S
C2532 C2528 1.350 . S
C2532 C2529 1.463 . S
C2532 N2536 1.427 . S
C2533 H2523 0.929 . S
C2533 C2531 1.433 . S
C2533 N2536 1.384 . S
C2534 H2525 0.929 . S
C2534 C2526 1.378 . S
C2534 C2529 1.350 . S
C2535 H2522 0.929 . S
C2535 C2527 1.433 . S
C2535 N2537 1.384 . S
N2536 C2532 1.427 . S
N2536 C2533 1.384 . S
N2537 C2529 1.427 . S
N2537 C2535 1.384 . S
H2538 C2544 0.930 . S
H2539 C2548 0.930 . S
H2540 C2553 0.929 . S
H2541 C2551 0.929 . S
H2542 C2546 0.929 . S
H2543 C2552 0.929 . S
C2544 H2538 0.930 . S
C2544 C2545 1.367 . S
C2544 C2552 1.378 . S
C2545 C2544 1.367 . S
C2545 C2553 1.433 . S
C2546 H2542 0.929 . S
C2546 C2548 1.378 . S
C2546 C2550 1.350 . S
C2547 C2550 1.463 . S
C2547 C2552 1.350 . S
C2547 N2555 1.427 . S
C2548 H2539 0.930 . S
C2548 C2546 1.378 . S
C2548 C2549 1.367 . S
C2549 C2548 1.367 . S
C2549 C2551 1.433 . S
C2550 C2546 1.350 . S
C2550 C2547 1.463 . S
C2550 N2554 1.427 . S
C2551 H2541 0.929 . S
C2551 C2549 1.433 . S
C2551 N2554 1.384 . S
C2552 H2543 0.929 . S
C2552 C2544 1.378 . S
C2552 C2547 1.350 . S
C2553 H2540 0.929 . S
C2553 C2545 1.433 . S
C2553 N2555 1.384 . S
N2554 C2550 1.427 . S
N2554 C2551 1.384 . S
N2555 C2547 1.427 . S
N2555 C2553 1.384 . S
H2556 C2562 0.930 . S
H2557 C2566 0.930 . S
H2558 C2571 0.929 . S
H2559 C2569 0.929 . S
H2560 C2564 0.929 . S
H2561 C2570 0.929 . S
C2562 H2556 0.930 . S
C2562 C2563 1.367 . S
C2562 C2570 1.378 . S
C2563 C2562 1.367 . S
C2563 C2571 1.433 . S
C2564 H2560 0.929 . S
C2564 C2566 1.378 . S
C2564 C2568 1.350 . S
C2565 C2568 1.463 . S
C2565 C2570 1.350 . S
C2565 N2573 1.427 . S
C2566 H2557 0.930 . S
C2566 C2564 1.378 . S
C2566 C2567 1.367 . S
C2567 C2566 1.367 . S
C2567 C2569 1.433 . S
C2568 C2564 1.350 . S
C2568 C2565 1.463 . S
C2568 N2572 1.427 . S
C2569 H2559 0.929 . S
C2569 C2567 1.433 . S
C2569 N2572 1.384 . S
C2570 H2561 0.929 . S
C2570 C2562 1.378 . S
C2570 C2565 1.350 . S
C2571 H2558 0.929 . S
C2571 C2563 1.433 . S
C2571 N2573 1.384 . S
N2572 C2568 1.427 . S
N2572 C2569 1.384 . S
N2573 C2565 1.427 . S
N2573 C2571 1.384 . S
H2574 C2580 0.930 . S
H2575 C2584 0.930 . S
H2576 C2589 0.929 . S
H2577 C2587 0.929 . S
H2578 C2582 0.929 . S
H2579 C2588 0.929 . S
C2580 H2574 0.930 . S
C2580 C2581 1.367 . S
C2580 C2588 1.378 . S
C2581 C2580 1.367 . S
C2581 C2589 1.433 . S
C2582 H2578 0.929 . S
C2582 C2584 1.378 . S
C2582 C2586 1.350 . S
C2583 C2586 1.463 . S
C2583 C2588 1.350 . S
C2583 N2591 1.427 . S
C2584 H2575 0.930 . S
C2584 C2582 1.378 . S
C2584 C2585 1.367 . S
C2585 C2584 1.367 . S
C2585 C2587 1.433 . S
C2586 C2582 1.350 . S
C2586 C2583 1.463 . S
C2586 N2590 1.427 . S
C2587 H2577 0.929 . S
C2587 C2585 1.433 . S
C2587 N2590 1.384 . S
C2588 H2579 0.929 . S
C2588 C2580 1.378 . S
C2588 C2583 1.350 . S
C2589 H2576 0.929 . S
C2589 C2581 1.433 . S
C2589 N2591 1.384 . S
N2590 C2586 1.427 . S
N2590 C2587 1.384 . S
N2591 C2583 1.427 . S
N2591 C2589 1.384 . S
H2592 C2598 0.930 . S
H2593 C2602 0.930 . S
H2594 C2607 0.929 . S
H2595 C2605 0.929 . S
H2596 C2600 0.929 . S
H2597 C2606 0.929 . S
C2598 H2592 0.930 . S
C2598 C2599 1.367 . S
C2598 C2606 1.378 . S
C2599 C2598 1.367 . S
C2599 C2607 1.433 . S
C2600 H2596 0.929 . S
C2600 C2602 1.378 . S
C2600 C2604 1.350 . S
C2601 C2604 1.463 . S
C2601 C2606 1.350 . S
C2601 N2609 1.427 . S
C2602 H2593 0.930 . S
C2602 C2600 1.378 . S
C2602 C2603 1.367 . S
C2603 C2602 1.367 . S
C2603 C2605 1.433 . S
C2604 C2600 1.350 . S
C2604 C2601 1.463 . S
C2604 N2608 1.427 . S
C2605 H2595 0.929 . S
C2605 C2603 1.433 . S
C2605 N2608 1.384 . S
C2606 H2597 0.929 . S
C2606 C2598 1.378 . S
C2606 C2601 1.350 . S
C2607 H2594 0.929 . S
C2607 C2599 1.433 . S
C2607 N2609 1.384 . S
N2608 C2604 1.427 . S
N2608 C2605 1.384 . S
N2609 C2601 1.427 . S
N2609 C2607 1.384 . S
H2610 C2616 0.930 . S
H2611 C2620 0.930 . S
H2612 C2625 0.929 . S
H2613 C2623 0.929 . S
H2614 C2618 0.929 . S
H2615 C2624 0.929 . S
C2616 H2610 0.930 . S
C2616 C2617 1.367 . S
C2616 C2624 1.378 . S
C2617 C2616 1.367 . S
C2617 C2625 1.433 . S
C2618 H2614 0.929 . S
C2618 C2620 1.378 . S
C2618 C2622 1.350 . S
C2619 C2622 1.463 . S
C2619 C2624 1.350 . S
C2619 N2627 1.427 . S
C2620 H2611 0.930 . S
C2620 C2618 1.378 . S
C2620 C2621 1.367 . S
C2621 C2620 1.367 . S
C2621 C2623 1.433 . S
C2622 C2618 1.350 . S
C2622 C2619 1.463 . S
C2622 N2626 1.427 . S
C2623 H2613 0.929 . S
C2623 C2621 1.433 . S
C2623 N2626 1.384 . S
C2624 H2615 0.929 . S
C2624 C2616 1.378 . S
C2624 C2619 1.350 . S
C2625 H2612 0.929 . S
C2625 C2617 1.433 . S
C2625 N2627 1.384 . S
N2626 C2622 1.427 . S
N2626 C2623 1.384 . S
N2627 C2619 1.427 . S
N2627 C2625 1.384 . S
H2628 C2634 0.930 . S
H2629 C2638 0.930 . S
H2630 C2643 0.929 . S
H2631 C2641 0.929 . S
H2632 C2636 0.929 . S
H2633 C2642 0.929 . S
C2634 H2628 0.930 . S
C2634 C2635 1.367 . S
C2634 C2642 1.378 . S
C2635 C2634 1.367 . S
C2635 C2643 1.433 . S
C2636 H2632 0.929 . S
C2636 C2638 1.378 . S
C2636 C2640 1.350 . S
C2637 C2640 1.463 . S
C2637 C2642 1.350 . S
C2637 N2645 1.427 . S
C2638 H2629 0.930 . S
C2638 C2636 1.378 . S
C2638 C2639 1.367 . S
C2639 C2638 1.367 . S
C2639 C2641 1.433 . S
C2640 C2636 1.350 . S
C2640 C2637 1.463 . S
C2640 N2644 1.427 . S
C2641 H2631 0.929 . S
C2641 C2639 1.433 . S
C2641 N2644 1.384 . S
C2642 H2633 0.929 . S
C2642 C2634 1.378 . S
C2642 C2637 1.350 . S
C2643 H2630 0.929 . S
C2643 C2635 1.433 . S
C2643 N2645 1.384 . S
N2644 C2640 1.427 . S
N2644 C2641 1.384 . S
N2645 C2637 1.427 . S
N2645 C2643 1.384 . S
H2646 C2652 0.930 . S
H2647 C2656 0.930 . S
H2648 C2661 0.929 . S
H2649 C2659 0.929 . S
H2650 C2654 0.929 . S
H2651 C2660 0.929 . S
C2652 H2646 0.930 . S
C2652 C2653 1.367 . S
C2652 C2660 1.378 . S
C2653 C2652 1.367 . S
C2653 C2661 1.433 . S
C2654 H2650 0.929 . S
C2654 C2656 1.378 . S
C2654 C2658 1.350 . S
C2655 C2658 1.463 . S
C2655 C2660 1.350 . S
C2655 N2663 1.427 . S
C2656 H2647 0.930 . S
C2656 C2654 1.378 . S
C2656 C2657 1.367 . S
C2657 C2656 1.367 . S
C2657 C2659 1.433 . S
C2658 C2654 1.350 . S
C2658 C2655 1.463 . S
C2658 N2662 1.427 . S
C2659 H2649 0.929 . S
C2659 C2657 1.433 . S
C2659 N2662 1.384 . S
C2660 H2651 0.929 . S
C2660 C2652 1.378 . S
C2660 C2655 1.350 . S
C2661 H2648 0.929 . S
C2661 C2653 1.433 . S
C2661 N2663 1.384 . S
N2662 C2658 1.427 . S
N2662 C2659 1.384 . S
N2663 C2655 1.427 . S
N2663 C2661 1.384 . S
H2664 C2670 0.930 . S
H2665 C2674 0.930 . S
H2666 C2679 0.929 . S
H2667 C2677 0.929 . S
H2668 C2672 0.929 . S
H2669 C2678 0.929 . S
C2670 H2664 0.930 . S
C2670 C2671 1.367 . S
C2670 C2678 1.378 . S
C2671 C2670 1.367 . S
C2671 C2679 1.433 . S
C2672 H2668 0.929 . S
C2672 C2674 1.378 . S
C2672 C2676 1.350 . S
C2673 C2676 1.463 . S
C2673 C2678 1.350 . S
C2673 N2681 1.427 . S
C2674 H2665 0.930 . S
C2674 C2672 1.378 . S
C2674 C2675 1.367 . S
C2675 C2674 1.367 . S
C2675 C2677 1.433 . S
C2676 C2672 1.350 . S
C2676 C2673 1.463 . S
C2676 N2680 1.427 . S
C2677 H2667 0.929 . S
C2677 C2675 1.433 . S
C2677 N2680 1.384 . S
C2678 H2669 0.929 . S
C2678 C2670 1.378 . S
C2678 C2673 1.350 . S
C2679 H2666 0.929 . S
C2679 C2671 1.433 . S
C2679 N2681 1.384 . S
N2680 C2676 1.427 . S
N2680 C2677 1.384 . S
N2681 C2673 1.427 . S
N2681 C2679 1.384 . S
H2682 C2688 0.930 . S
H2683 C2692 0.930 . S
H2684 C2697 0.929 . S
H2685 C2695 0.929 . S
H2686 C2690 0.929 . S
H2687 C2696 0.929 . S
C2688 H2682 0.930 . S
C2688 C2689 1.367 . S
C2688 C2696 1.378 . S
C2689 C2688 1.367 . S
C2689 C2697 1.433 . S
C2690 H2686 0.929 . S
C2690 C2692 1.378 . S
C2690 C2694 1.350 . S
C2691 C2694 1.463 . S
C2691 C2696 1.350 . S
C2691 N2699 1.427 . S
C2692 H2683 0.930 . S
C2692 C2690 1.378 . S
C2692 C2693 1.367 . S
C2693 C2692 1.367 . S
C2693 C2695 1.433 . S
C2694 C2690 1.350 . S
C2694 C2691 1.463 . S
C2694 N2698 1.427 . S
C2695 H2685 0.929 . S
C2695 C2693 1.433 . S
C2695 N2698 1.384 . S
C2696 H2687 0.929 . S
C2696 C2688 1.378 . S
C2696 C2691 1.350 . S
C2697 H2684 0.929 . S
C2697 C2689 1.433 . S
C2697 N2699 1.384 . S
N2698 C2694 1.427 . S
N2698 C2695 1.384 . S
N2699 C2691 1.427 . S
N2699 C2697 1.384 . S
H2700 C2706 0.930 . S
H2701 C2710 0.930 . S
H2702 C2715 0.929 . S
H2703 C2713 0.929 . S
H2704 C2708 0.929 . S
H2705 C2714 0.929 . S
C2706 H2700 0.930 . S
C2706 C2707 1.367 . S
C2706 C2714 1.378 . S
C2707 C2706 1.367 . S
C2707 C2715 1.433 . S
C2708 H2704 0.929 . S
C2708 C2710 1.378 . S
C2708 C2712 1.350 . S
C2709 C2712 1.463 . S
C2709 C2714 1.350 . S
C2709 N2717 1.427 . S
C2710 H2701 0.930 . S
C2710 C2708 1.378 . S
C2710 C2711 1.367 . S
C2711 C2710 1.367 . S
C2711 C2713 1.433 . S
C2712 C2708 1.350 . S
C2712 C2709 1.463 . S
C2712 N2716 1.427 . S
C2713 H2703 0.929 . S
C2713 C2711 1.433 . S
C2713 N2716 1.384 . S
C2714 H2705 0.929 . S
C2714 C2706 1.378 . S
C2714 C2709 1.350 . S
C2715 H2702 0.929 . S
C2715 C2707 1.433 . S
C2715 N2717 1.384 . S
N2716 C2712 1.427 . S
N2716 C2713 1.384 . S
N2717 C2709 1.427 . S
N2717 C2715 1.384 . S
H2718 C2724 0.930 . S
H2719 C2728 0.930 . S
H2720 C2733 0.929 . S
H2721 C2731 0.929 . S
H2722 C2726 0.929 . S
H2723 C2732 0.929 . S
C2724 H2718 0.930 . S
C2724 C2725 1.367 . S
C2724 C2732 1.378 . S
C2725 C2724 1.367 . S
C2725 C2733 1.433 . S
C2726 H2722 0.929 . S
C2726 C2728 1.378 . S
C2726 C2730 1.350 . S
C2727 C2730 1.463 . S
C2727 C2732 1.350 . S
C2727 N2735 1.427 . S
C2728 H2719 0.930 . S
C2728 C2726 1.378 . S
C2728 C2729 1.367 . S
C2729 C2728 1.367 . S
C2729 C2731 1.433 . S
C2730 C2726 1.350 . S
C2730 C2727 1.463 . S
C2730 N2734 1.427 . S
C2731 H2721 0.929 . S
C2731 C2729 1.433 . S
C2731 N2734 1.384 . S
C2732 H2723 0.929 . S
C2732 C2724 1.378 . S
C2732 C2727 1.350 . S
C2733 H2720 0.929 . S
C2733 C2725 1.433 . S
C2733 N2735 1.384 . S
N2734 C2730 1.427 . S
N2734 C2731 1.384 . S
N2735 C2727 1.427 . S
N2735 C2733 1.384 . S
H2736 C2742 0.930 . S
H2737 C2746 0.930 . S
H2738 C2751 0.929 . S
H2739 C2749 0.929 . S
H2740 C2744 0.929 . S
H2741 C2750 0.929 . S
C2742 H2736 0.930 . S
C2742 C2743 1.367 . S
C2742 C2750 1.378 . S
C2743 C2742 1.367 . S
C2743 C2751 1.433 . S
C2744 H2740 0.929 . S
C2744 C2746 1.378 . S
C2744 C2748 1.350 . S
C2745 C2748 1.463 . S
C2745 C2750 1.350 . S
C2745 N2753 1.427 . S
C2746 H2737 0.930 . S
C2746 C2744 1.378 . S
C2746 C2747 1.367 . S
C2747 C2746 1.367 . S
C2747 C2749 1.433 . S
C2748 C2744 1.350 . S
C2748 C2745 1.463 . S
C2748 N2752 1.427 . S
C2749 H2739 0.929 . S
C2749 C2747 1.433 . S
C2749 N2752 1.384 . S
C2750 H2741 0.929 . S
C2750 C2742 1.378 . S
C2750 C2745 1.350 . S
C2751 H2738 0.929 . S
C2751 C2743 1.433 . S
C2751 N2753 1.384 . S
N2752 C2748 1.427 . S
N2752 C2749 1.384 . S
N2753 C2745 1.427 . S
N2753 C2751 1.384 . S
H2754 C2760 0.930 . S
H2755 C2764 0.930 . S
H2756 C2769 0.929 . S
H2757 C2767 0.929 . S
H2758 C2762 0.929 . S
H2759 C2768 0.929 . S
C2760 H2754 0.930 . S
C2760 C2761 1.367 . S
C2760 C2768 1.378 . S
C2761 C2760 1.367 . S
C2761 C2769 1.433 . S
C2762 H2758 0.929 . S
C2762 C2764 1.378 . S
C2762 C2766 1.350 . S
C2763 C2766 1.463 1_545 S
C2763 C2768 1.350 . S
C2763 N2771 1.427 . S
C2764 H2755 0.930 . S
C2764 C2762 1.378 . S
C2764 C2765 1.367 . S
C2765 C2764 1.367 . S
C2765 C2767 1.433 . S
C2766 C2762 1.350 . S
C2766 C2763 1.463 1_565 S
C2766 N2770 1.427 . S
C2767 H2757 0.929 . S
C2767 C2765 1.433 . S
C2767 N2770 1.384 . S
C2768 H2759 0.929 . S
C2768 C2760 1.378 . S
C2768 C2763 1.350 . S
C2769 H2756 0.929 . S
C2769 C2761 1.433 . S
C2769 N2771 1.384 . S
N2770 C2766 1.427 . S
N2770 C2767 1.384 . S
N2771 C2763 1.427 . S
N2771 C2769 1.384 . S
H2772 C2778 0.930 . S
H2773 C2782 0.930 . S
H2774 C2787 0.929 . S
H2775 C2785 0.929 . S
H2776 C2780 0.929 . S
H2777 C2786 0.929 . S
C2778 H2772 0.930 . S
C2778 C2779 1.367 . S
C2778 C2786 1.378 . S
C2779 C2778 1.367 . S
C2779 C2787 1.433 . S
C2780 H2776 0.929 . S
C2780 C2782 1.378 . S
C2780 C2784 1.350 . S
C2781 C2784 1.463 1_655 S
C2781 C2786 1.350 . S
C2781 N2789 1.427 . S
C2782 H2773 0.930 . S
C2782 C2780 1.378 . S
C2782 C2783 1.367 . S
C2783 C2782 1.367 . S
C2783 C2785 1.433 . S
C2784 C2780 1.350 . S
C2784 C2781 1.463 1_455 S
C2784 N2788 1.427 . S
C2785 H2775 0.929 . S
C2785 C2783 1.433 . S
C2785 N2788 1.384 . S
C2786 H2777 0.929 . S
C2786 C2778 1.378 . S
C2786 C2781 1.350 . S
C2787 H2774 0.929 . S
C2787 C2779 1.433 . S
C2787 N2789 1.384 . S
N2788 C2784 1.427 . S
N2788 C2785 1.384 . S
N2789 C2781 1.427 . S
N2789 C2787 1.384 . S
H2790 C2796 0.930 . S
H2791 C2800 0.930 . S
H2792 C2805 0.929 1_554 S
H2793 C2803 0.929 1_556 S
H2794 C2798 0.929 . S
H2795 C2804 0.929 . S
C2796 H2790 0.930 . S
C2796 C2797 1.367 . S
C2796 C2804 1.378 . S
C2797 C2796 1.367 . S
C2797 C2805 1.433 . S
C2798 H2794 0.929 . S
C2798 C2800 1.378 . S
C2798 C2802 1.350 . S
C2799 C2802 1.463 1_556 S
C2799 C2804 1.350 . S
C2799 N2807 1.427 1_556 S
C2800 H2791 0.930 . S
C2800 C2798 1.378 . S
C2800 C2801 1.367 . S
C2801 C2800 1.367 . S
C2801 C2803 1.433 . S
C2802 C2798 1.350 . S
C2802 C2799 1.463 1_554 S
C2802 N2806 1.427 1_554 S
C2803 H2793 0.929 1_554 S
C2803 C2801 1.433 . S
C2803 N2806 1.384 1_554 S
C2804 H2795 0.929 . S
C2804 C2796 1.378 . S
C2804 C2799 1.350 . S
C2805 H2792 0.929 1_556 S
C2805 C2797 1.433 . S
C2805 N2807 1.384 1_556 S
N2806 C2802 1.427 1_556 S
N2806 C2803 1.384 1_556 S
N2807 C2799 1.427 1_554 S
N2807 C2805 1.384 1_554 S
H2808 C2814 0.930 . S
H2809 C2818 0.930 . S
H2810 C2823 0.929 . S
H2811 C2821 0.929 . S
H2812 C2816 0.929 . S
H2813 C2822 0.929 . S
C2814 H2808 0.930 . S
C2814 C2815 1.367 . S
C2814 C2822 1.378 . S
C2815 C2814 1.367 . S
C2815 C2823 1.433 . S
C2816 H2812 0.929 . S
C2816 C2818 1.378 . S
C2816 C2820 1.350 . S
C2817 C2820 1.463 1_546 S
C2817 C2822 1.350 . S
C2817 N2825 1.427 . S
C2818 H2809 0.930 . S
C2818 C2816 1.378 . S
C2818 C2819 1.367 . S
C2819 C2818 1.367 . S
C2819 C2821 1.433 . S
C2820 C2816 1.350 . S
C2820 C2817 1.463 1_564 S
C2820 N2824 1.427 . S
C2821 H2811 0.929 . S
C2821 C2819 1.433 . S
C2821 N2824 1.384 . S
C2822 H2813 0.929 . S
C2822 C2814 1.378 . S
C2822 C2817 1.350 . S
C2823 H2810 0.929 . S
C2823 C2815 1.433 . S
C2823 N2825 1.384 . S
N2824 C2820 1.427 . S
N2824 C2821 1.384 . S
N2825 C2817 1.427 . S
N2825 C2823 1.384 . S
H2826 C2832 0.938 . S
H2827 C2836 0.938 . S
H2828 C2841 0.929 . S
H2829 C2839 0.929 . S
H2830 C2834 0.929 . S
H2831 C2840 0.929 . S
C2832 H2826 0.938 . S
C2832 C2833 1.355 1_556 S
C2832 C2840 1.383 . S
C2833 C2832 1.355 1_554 S
C2833 C2841 1.433 . S
C2834 H2830 0.929 . S
C2834 C2836 1.383 . S
C2834 C2838 1.350 1_554 S
C2835 C2838 1.463 1_454 S
C2835 C2840 1.350 1_554 S
C2835 N2843 1.427 . S
C2836 H2827 0.938 . S
C2836 C2834 1.383 . S
C2836 C2837 1.355 1_554 S
C2837 C2836 1.355 1_556 S
C2837 C2839 1.433 . S
C2838 C2834 1.350 1_556 S
C2838 C2835 1.463 1_656 S
C2838 N2842 1.427 . S
C2839 H2829 0.929 . S
C2839 C2837 1.433 . S
C2839 N2842 1.384 . S
C2840 H2831 0.929 . S
C2840 C2832 1.383 . S
C2840 C2835 1.350 1_556 S
C2841 H2828 0.929 . S
C2841 C2833 1.433 . S
C2841 N2843 1.384 . S
N2842 C2838 1.427 . S
N2842 C2839 1.384 . S
N2843 C2835 1.427 . S
N2843 C2841 1.384 . S
C1231 C9 1.281 . S
C1235 C70 1.407 . S
C1249 C43 1.264 . S
C1253 C2 1.404 . S
C1267 C77 1.270 . S
C1271 C36 1.398 . S
C1285 C111 1.280 . S
C1289 C138 1.405 . S
C1303 C145 1.281 . S
C1307 C172 1.400 . S
C1321 C179 1.274 . S
C1325 C104 1.408 . S
C1339 C274 1.406 . S
C1343 C213 1.286 . S
C1357 C206 1.408 . S
C1361 C247 1.288 . S
C1375 C240 1.395 . S
C1379 C281 1.256 . S
C1393 C342 1.407 . S
C1397 C315 1.287 . S
C1411 C349 1.277 . S
C1415 C376 1.399 . S
C1429 C308 1.404 . S
C1433 C383 1.263 . S
C1447 C417 1.282 . S
C1451 C478 1.402 . S
C1465 C410 1.401 . S
C1469 C451 1.279 . S
C1483 C485 1.274 . S
C1487 C444 1.402 . S
C1501 C519 1.260 . S
C1505 C546 1.399 . S
C1519 C553 1.258 . S
C1523 C580 1.399 . S
C1537 C587 1.277 . S
C1541 C512 1.402 . S
C1555 C682 1.401 . S
C1559 C621 1.262 . S
C1573 C655 1.262 . S
C1577 C614 1.400 . S
C1591 C648 1.404 . S
C1595 C689 1.282 . S
C1609 C723 1.281 . S
C1613 C750 1.401 . S
C1627 C757 1.258 . S
C1631 C784 1.398 . S
C1645 C791 1.283 . S
C1649 C716 1.403 . S
C1663 C825 1.277 . S
C1667 C886 1.404 . S
C1681 C818 1.399 . S
C1685 C859 1.272 . S
C1699 C852 1.401 . S
C1703 C893 1.276 . S
C1717 C954 1.402 . S
C1721 C927 1.282 . S
C1735 C988 1.398 . S
C1739 C961 1.259 . S
C1753 C920 1.399 . S
C1757 C995 1.272 . S
C1771 C1090 1.402 . S
C1775 C1029 1.281 . S
C1789 C1022 1.398 . S
C1793 C1063 1.258 . S
C1807 C1097 1.282 . S
C1811 C1056 1.402 . S
C1825 C1158 1.403 . S
C1829 C1131 1.273 . S
C1843 C1192 1.399 . S
C1847 C1165 1.258 . S
C1861 C1124 1.399 . S
C1865 C1199 1.258 . S
C1879 C169 1.172 . S
C1883 C33 1.171 . S
C1897 C203 1.172 . S
C1901 C67 1.176 . S
C1915 C101 1.176 . S
C1919 C135 1.170 . S
C1933 C373 1.167 . S
C1937 C237 1.170 . S
C1951 C271 1.177 . S
C1955 C407 1.173 . S
C1969 C305 1.170 . S
C1973 C339 1.167 . S
C1987 C441 1.175 . S
C1991 C577 1.176 . S
C2005 C611 1.177 . S
C2009 C475 1.173 . S
C2023 C543 1.176 . S
C2027 C509 1.172 . S
C2041 C645 1.174 . S
C2045 C781 1.176 . S
C2059 C679 1.177 . S
C2063 C815 1.173 . S
C2077 C747 1.176 . S
C2081 C713 1.176 . S
C2095 C849 1.172 . S
C2099 C985 1.176 . S
C2113 C883 1.174 . S
C2117 C1019 1.177 . S
C2131 C951 1.177 . S
C2135 C917 1.175 . S
C2149 C1053 1.176 . S
C2153 C1189 1.175 . S
C2167 C1087 1.173 . S
C2171 C1223 1.177 . S
C2185 C1155 1.172 . S
C2189 C1121 1.176 . S
C2203 C1006 1.833 . S
C2207 C20 1.834 . S
C2221 C938 1.833 . S
C2225 C54 1.835 . S
C2239 C88 1.829 . S
C2243 C972 1.824 . S
C2257 C122 1.832 . S
C2261 C462 1.832 . S
C2275 C496 1.830 . S
C2279 C156 1.826 . S
C2293 C190 1.835 . S
C2297 C428 1.833 . S
C2311 C224 1.834 . S
C2315 C802 1.833 . S
C2329 C258 1.836 . S
C2333 C734 1.836 . S
C2347 C768 1.830 . S
C2351 C292 1.824 . S
C2365 C1074 1.832 . S
C2369 C326 1.832 . S
C2383 C360 1.828 . S
C2387 C1108 1.825 . S
C2401 C394 1.836 . S
C2405 C1040 1.834 . S
C2419 C870 1.838 . S
C2423 C530 1.839 . S
C2437 C564 1.841 . S
C2441 C904 1.839 . S
C2455 C836 1.838 . S
C2459 C598 1.838 . S
C2473 C632 1.837 . S
C2477 C1210 1.836 . S
C2491 C666 1.837 . S
C2495 C1142 1.839 . S
C2509 C700 1.841 . S
C2513 C1176 1.839 . S
C2527 C5 1.503 . S
C2531 C617 1.508 . S
C2545 C651 1.486 . S
C2549 C39 1.486 . S
C2563 C685 1.501 . S
C2567 C73 1.504 . S
C2581 C107 1.504 . S
C2585 C1127 1.509 . S
C2599 C1161 1.502 . S
C2603 C141 1.504 . S
C2617 C175 1.495 . S
C2621 C1195 1.495 . S
C2635 C821 1.506 . S
C2639 C209 1.511 . S
C2653 C243 1.486 . S
C2657 C855 1.486 . S
C2671 C277 1.499 . S
C2675 C889 1.502 . S
C2689 C311 1.496 . S
C2693 C515 1.502 . S
C2707 C345 1.491 . S
C2711 C549 1.494 . S
C2725 C583 1.486 . S
C2729 C379 1.486 . S
C2743 C1025 1.497 . S
C2747 C413 1.497 . S
C2761 C447 1.492 . S
C2765 C1059 1.492 . S
C2779 C481 1.495 . S
C2783 C1093 1.495 . S
C2797 C719 1.497 . S
C2801 C923 1.497 . S
C2815 C753 1.488 . S
C2819 C957 1.488 . S
C2833 C991 1.496 . S
C2837 C787 1.496 . S
