# Generated by pormake.
# Topology neb, (4)-cn, num edge types: 1
# Building blocks:
#     Node 0, Type 0, BuildingBlock: UXUYUI_clean_sbu_0, # of connection points: 4
#     Node 1, Type 0, BuildingBlock: UXUYUI_clean_sbu_0, # of connection points: 4
#     Node 2, Type 0, BuildingBlock: UXUYUI_clean_sbu_0, # of connection points: 4
#     Node 3, Type 0, BuildingBlock: UXUYUI_clean_sbu_0, # of connection points: 4
#     Node 4, Type 0, BuildingBlock: UXUYUI_clean_sbu_0, # of connection points: 4
#     Node 5, Type 0, BuildingBlock: UXUYUI_clean_sbu_0, # of connection points: 4
#     Node 6, Type 0, BuildingBlock: UXUYUI_clean_sbu_0, # of connection points: 4
#     Node 7, Type 0, BuildingBlock: UXUYUI_clean_sbu_0, # of connection points: 4
#     Node 8, Type 0, BuildingBlock: UXUYUI_clean_sbu_0, # of connection points: 4
#     Node 9, Type 0, BuildingBlock: UXUYUI_clean_sbu_0, # of connection points: 4
#     Node 10, Type 0, BuildingBlock: UXUYUI_clean_sbu_0, # of connection points: 4
#     Node 11, Type 0, BuildingBlock: UXUYUI_clean_sbu_0, # of connection points: 4
#     Node 12, Type 0, BuildingBlock: UXUYUI_clean_sbu_0, # of connection points: 4
#     Node 13, Type 0, BuildingBlock: UXUYUI_clean_sbu_0, # of connection points: 4
#     Node 14, Type 0, BuildingBlock: UXUYUI_clean_sbu_0, # of connection points: 4
#     Node 15, Type 0, BuildingBlock: UXUYUI_clean_sbu_0, # of connection points: 4
#     Edge 16, Type (0, 0), BuildingBlock: ZUJKAS_clean_linker_0, # of connection points: 2
#     Edge 17, Type (0, 0), BuildingBlock: ZUJKAS_clean_linker_0, # of connection points: 2
#     Edge 18, Type (0, 0), BuildingBlock: ZUJKAS_clean_linker_0, # of connection points: 2
#     Edge 19, Type (0, 0), BuildingBlock: ZUJKAS_clean_linker_0, # of connection points: 2
#     Edge 20, Type (0, 0), BuildingBlock: ZUJKAS_clean_linker_0, # of connection points: 2
#     Edge 21, Type (0, 0), BuildingBlock: ZUJKAS_clean_linker_0, # of connection points: 2
#     Edge 22, Type (0, 0), BuildingBlock: ZUJKAS_clean_linker_0, # of connection points: 2
#     Edge 23, Type (0, 0), BuildingBlock: ZUJKAS_clean_linker_0, # of connection points: 2
#     Edge 24, Type (0, 0), BuildingBlock: ZUJKAS_clean_linker_0, # of connection points: 2
#     Edge 25, Type (0, 0), BuildingBlock: ZUJKAS_clean_linker_0, # of connection points: 2
#     Edge 26, Type (0, 0), BuildingBlock: ZUJKAS_clean_linker_0, # of connection points: 2
#     Edge 27, Type (0, 0), BuildingBlock: ZUJKAS_clean_linker_0, # of connection points: 2
#     Edge 28, Type (0, 0), BuildingBlock: ZUJKAS_clean_linker_0, # of connection points: 2
#     Edge 29, Type (0, 0), BuildingBlock: ZUJKAS_clean_linker_0, # of connection points: 2
#     Edge 30, Type (0, 0), BuildingBlock: ZUJKAS_clean_linker_0, # of connection points: 2
#     Edge 31, Type (0, 0), BuildingBlock: ZUJKAS_clean_linker_0, # of connection points: 2
#     Edge 32, Type (0, 0), BuildingBlock: ZUJKAS_clean_linker_0, # of connection points: 2
#     Edge 33, Type (0, 0), BuildingBlock: ZUJKAS_clean_linker_0, # of connection points: 2
#     Edge 34, Type (0, 0), BuildingBlock: ZUJKAS_clean_linker_0, # of connection points: 2
#     Edge 35, Type (0, 0), BuildingBlock: ZUJKAS_clean_linker_0, # of connection points: 2
#     Edge 36, Type (0, 0), BuildingBlock: ZUJKAS_clean_linker_0, # of connection points: 2
#     Edge 37, Type (0, 0), BuildingBlock: ZUJKAS_clean_linker_0, # of connection points: 2
#     Edge 38, Type (0, 0), BuildingBlock: ZUJKAS_clean_linker_0, # of connection points: 2
#     Edge 39, Type (0, 0), BuildingBlock: ZUJKAS_clean_linker_0, # of connection points: 2
#     Edge 40, Type (0, 0), BuildingBlock: ZUJKAS_clean_linker_0, # of connection points: 2
#     Edge 41, Type (0, 0), BuildingBlock: ZUJKAS_clean_linker_0, # of connection points: 2
#     Edge 42, Type (0, 0), BuildingBlock: ZUJKAS_clean_linker_0, # of connection points: 2
#     Edge 43, Type (0, 0), BuildingBlock: ZUJKAS_clean_linker_0, # of connection points: 2
#     Edge 44, Type (0, 0), BuildingBlock: ZUJKAS_clean_linker_0, # of connection points: 2
#     Edge 45, Type (0, 0), BuildingBlock: ZUJKAS_clean_linker_0, # of connection points: 2
#     Edge 46, Type (0, 0), BuildingBlock: ZUJKAS_clean_linker_0, # of connection points: 2
#     Edge 47, Type (0, 0), BuildingBlock: ZUJKAS_clean_linker_0, # of connection points: 2
# Relax obj value: 0.156
# Max RMSD: 0.184
# Mean RMSD: 0.183
data_MOF--net-neb--node1-UXUYUI_clean_sbu_0--edge1-ZUJKAS_clean_linker_0
_symmetry_space_group_name_H-M    P1
_symmetry_Int_Tables_number       1
_symmetry_cell_setting            triclinic
loop_
_symmetry_equiv_pos_as_xyz
'x, y, z'
_cell_length_a     80.691831
_cell_length_b     38.180444
_cell_length_c     129.69663
_cell_angle_alpha  89.989315
_cell_angle_beta   90.0043
_cell_angle_gamma 90.00161
loop_
_atom_site_label
_atom_site_type_symbol
_atom_site_fract_x
_atom_site_fract_y
_atom_site_fract_z
_atom_type_partial_charge
Li0 Li 0.10973 0.11082 0.44694 0.0
Li1 Li 0.1381 0.1333 0.4477 0.0
Li2 Li 0.11816 0.15459 0.43534 0.0
Li3 Li 0.12925 0.09513 0.43365 0.0
C4 C 0.11134 0.19211 0.45155 0.0
N5 N 0.09986 0.26019 0.45288 0.0
C6 C 0.12144 0.2184 0.45563 0.0
C7 C 0.09527 0.20037 0.44832 0.0
C8 C 0.11544 0.25268 0.4562 0.0
C9 C 0.08973 0.23495 0.449 0.0
C10 C 0.13217 0.0702 0.45824 0.0
C11 C 0.14055 0.02452 0.46999 0.0
N12 N 0.13491 0.04399 0.47803 0.0
C13 C 0.12644 0.08975 0.46663 0.0
C14 C 0.13926 0.03729 0.45992 0.0
C15 C 0.12793 0.07603 0.47658 0.0
C16 C 0.08999 0.05676 0.45493 0.0
N17 N 0.09191 0.09212 0.45485 0.0
C18 C 0.06853 0.09931 0.46593 0.0
C19 C 0.08161 0.11346 0.46025 0.0
C20 C 0.0661 0.06285 0.46606 0.0
C21 C 0.07707 0.0415 0.46048 0.0
H22 H 0.09852 0.04042 0.45067 0.0
H23 H 0.08354 0.14144 0.46015 0.0
C24 C 0.16308 0.17994 0.45297 0.0
N25 N 0.15706 0.14779 0.45549 0.0
C26 C 0.17683 0.19361 0.4581 0.0
C27 C 0.17837 0.14036 0.46811 0.0
C28 C 0.16463 0.12764 0.46275 0.0
C29 C 0.18456 0.17388 0.46586 0.0
H30 H 0.15707 0.19508 0.44699 0.0
H31 H 0.16019 0.10163 0.46439 0.0
C32 C 0.09173 0.09288 0.43101 0.0
N33 N 0.06263 0.05475 0.43016 0.0
C34 C 0.09212 0.05712 0.4287 0.0
C35 C 0.0765 0.1093 0.43277 0.0
C36 C 0.07729 0.0383 0.42832 0.0
C37 C 0.06194 0.08955 0.43235 0.0
C38 C 0.15757 0.13436 0.43023 0.0
C39 C 0.1657 0.15701 0.42346 0.0
C40 C 0.16609 0.10581 0.43442 0.0
C41 C 0.18228 0.15069 0.42096 0.0
C42 C 0.18265 0.1004 0.43173 0.0
N43 N 0.19033 0.12276 0.42511 0.0
C44 C 0.12356 0.22166 0.42744 0.0
C45 C 0.09876 0.19514 0.42148 0.0
C46 C 0.12091 0.25064 0.42111 0.0
N47 N 0.11263 0.19462 0.42743 0.0
C48 C 0.09558 0.22369 0.41505 0.0
C49 C 0.10689 0.25165 0.41469 0.0
H50 H 0.13452 0.22031 0.43223 0.0
H51 H 0.09042 0.17302 0.42154 0.0
C52 C 0.13883 0.02738 0.42698 0.0
N53 N 0.13617 0.06104 0.42402 0.0
C54 C 0.14286 0.002 0.41965 0.0
C55 C 0.14172 0.04672 0.40645 0.0
C56 C 0.13768 0.07118 0.41403 0.0
C57 C 0.14416 0.01149 0.4092 0.0
H58 H 0.13745 0.02015 0.43499 0.0
H59 H 0.13539 0.09818 0.41194 0.0
O60 O 0.11708 0.15846 0.45078 0.0
O61 O 0.1306 0.08265 0.44838 0.0
O62 O 0.10617 0.11159 0.43164 0.0
O63 O 0.14137 0.14045 0.43279 0.0
H64 H 0.13374 0.21243 0.45841 0.0
H65 H 0.08726 0.18039 0.44518 0.0
H66 H 0.12317 0.27329 0.45931 0.0
H67 H 0.07739 0.24174 0.44642 0.0
H68 H 0.14604 -0.00089 0.4714 0.0
H69 H 0.12092 0.11525 0.46554 0.0
H70 H 0.14374 0.02178 0.45353 0.0
H71 H 0.12356 0.09088 0.48314 0.0
H72 H 0.06029 0.11674 0.47007 0.0
H73 H 0.07582 0.01326 0.46051 0.0
H74 H 0.18118 0.21961 0.45613 0.0
H75 H 0.18421 0.12397 0.47388 0.0
H76 H 0.10375 0.04391 0.42732 0.0
H77 H 0.07591 0.13691 0.43455 0.0
H78 H 0.07743 0.01057 0.42661 0.0
H79 H 0.0501 0.10188 0.43378 0.0
H80 H 0.15927 0.17927 0.42018 0.0
H81 H 0.16003 0.08805 0.43971 0.0
H82 H 0.18874 0.16802 0.41572 0.0
H83 H 0.1894 0.07843 0.43491 0.0
H84 H 0.12983 0.27182 0.42114 0.0
H85 H 0.08474 0.22326 0.41013 0.0
H86 H 0.14479 0.9752 0.42211 0.0
H87 H 0.14236 0.05509 0.39848 0.0
Li88 Li 0.12993 0.15519 0.80992 0.0
Li89 Li 0.11725 0.09704 0.8105 0.0
Li90 Li 0.13743 0.11243 0.79724 0.0
Li91 Li 0.10951 0.13708 0.79705 0.0
C92 C 0.15523 0.09191 0.81299 0.0
N93 N 0.18444 0.05418 0.81315 0.0
C94 C 0.15498 0.05589 0.81491 0.0
C95 C 0.17034 0.10878 0.81121 0.0
C96 C 0.16989 0.03728 0.81496 0.0
C97 C 0.18497 0.08922 0.8113 0.0
C98 C 0.09632 0.13755 0.82022 0.0
C99 C 0.07205 0.11125 0.82783 0.0
N100 N 0.07689 0.12313 0.83724 0.0
C101 C 0.10104 0.1496 0.82997 0.0
C102 C 0.08168 0.11833 0.81913 0.0
C103 C 0.09104 0.14202 0.83848 0.0
C104 C 0.12698 0.22192 0.81871 0.0
N105 N 0.13671 0.1929 0.81845 0.0
C106 C 0.15362 0.21525 0.83207 0.0
C107 C 0.14993 0.18922 0.82485 0.0
C108 C 0.14349 0.24511 0.83272 0.0
C109 C 0.13023 0.24859 0.82577 0.0
H110 H 0.11635 0.22377 0.81366 0.0
H111 H 0.15722 0.1655 0.82464 0.0
C112 C 0.10125 0.03344 0.81653 0.0
N113 N 0.11024 0.0615 0.81973 0.0
C114 C 0.09666 0.00746 0.82357 0.0
C115 C 0.1106 0.04001 0.83701 0.0
C116 C 0.11502 0.06512 0.82972 0.0
C117 C 0.10136 0.01062 0.83396 0.0
H118 H 0.09778 0.03108 0.80851 0.0
H119 H 0.12241 0.08747 0.83198 0.0
C120 C 0.13537 0.19574 0.79408 0.0
N121 N 0.14403 0.26574 0.7937 0.0
C122 C 0.12358 0.2211 0.7915 0.0
C123 C 0.15158 0.20595 0.79641 0.0
C124 C 0.12821 0.25636 0.79135 0.0
C125 C 0.1557 0.24148 0.7962 0.0
C126 C 0.10676 0.0765 0.78752 0.0
C127 C 0.11387 0.07351 0.77773 0.0
C128 C 0.08986 0.06982 0.78882 0.0
C129 C 0.1039 0.06406 0.76938 0.0
C130 C 0.0803 0.06053 0.78026 0.0
N131 N 0.08746 0.05787 0.7708 0.0
C132 C 0.15662 0.05859 0.78867 0.0
C133 C 0.16575 0.11566 0.78422 0.0
C134 C 0.16978 0.04362 0.78326 0.0
N135 N 0.15498 0.09397 0.78913 0.0
C136 C 0.17907 0.10181 0.77869 0.0
C137 C 0.18127 0.06532 0.77822 0.0
H138 H 0.14776 0.04202 0.79259 0.0
H139 H 0.1641 0.14368 0.78469 0.0
C140 C 0.07779 0.165 0.79324 0.0
N141 N 0.09185 0.15341 0.7886 0.0
C142 C 0.06473 0.17806 0.78734 0.0
C143 C 0.08087 0.16711 0.77197 0.0
C144 C 0.0937 0.15457 0.77819 0.0
C145 C 0.06618 0.1792 0.77656 0.0
H146 H 0.07676 0.16446 0.80154 0.0
H147 H 0.1052 0.14603 0.77473 0.0
O148 O 0.14074 0.11045 0.81264 0.0
O149 O 0.10612 0.144 0.81182 0.0
O150 O 0.13103 0.16113 0.79442 0.0
O151 O 0.11626 0.08617 0.79577 0.0
H152 H 0.1434 0.04235 0.81622 0.0
H153 H 0.17073 0.13659 0.80962 0.0
H154 H 0.16988 0.00936 0.81638 0.0
H155 H 0.19673 0.10189 0.80985 0.0
H156 H 0.06075 0.0962 0.8271 0.0
H157 H 0.11238 0.16427 0.83099 0.0
H158 H 0.07791 0.10859 0.81165 0.0
H159 H 0.09458 0.15103 0.84607 0.0
H160 H 0.16379 0.21123 0.83738 0.0
H161 H 0.12221 0.27132 0.82594 0.0
H162 H 0.08952 0.98519 0.82092 0.0
H163 H 0.11476 0.04311 0.84489 0.0
H164 H 0.11097 0.21371 0.7897 0.0
H165 H 0.16081 0.1867 0.79852 0.0
H166 H 0.1192 0.27628 0.78941 0.0
H167 H 0.16817 0.24978 0.79806 0.0
H168 H 0.12691 0.07876 0.77657 0.0
H169 H 0.08414 0.07221 0.79633 0.0
H170 H 0.10922 0.06179 0.76175 0.0
H171 H 0.06718 0.05552 0.78114 0.0
H172 H 0.17086 0.01537 0.78296 0.0
H173 H 0.18771 0.11948 0.77498 0.0
H174 H 0.05357 0.187 0.79116 0.0
H175 H 0.08257 0.16804 0.76369 0.0
Li176 Li 0.88812 0.88613 0.54722 0.0
Li177 Li 0.86927 0.90336 0.5603 0.0
Li178 Li 0.88044 0.84475 0.56021 0.0
Li179 Li 0.85888 0.86287 0.54731 0.0
C180 C 0.90781 0.90382 0.56187 0.0
N181 N 0.93875 0.93445 0.56036 0.0
C182 C 0.90952 0.94015 0.56274 0.0
C183 C 0.92186 0.88308 0.56029 0.0
C184 C 0.92527 0.95512 0.56195 0.0
C185 C 0.93738 0.89906 0.55952 0.0
C186 C 0.85827 0.94254 0.54435 0.0
C187 C 0.83335 0.97425 0.54002 0.0
N188 N 0.84107 0.00483 0.54245 0.0
C189 C 0.86595 0.97431 0.54679 0.0
C190 C 0.84183 0.94249 0.54093 0.0
C191 C 0.85704 0.0055 0.54579 0.0
C192 C 0.91514 0.87634 0.53343 0.0
N193 N 0.90564 0.90071 0.53828 0.0
C194 C 0.92188 0.94705 0.53114 0.0
C195 C 0.90861 0.93551 0.53712 0.0
C196 C 0.93212 0.92252 0.5262 0.0
C197 C 0.92853 0.88672 0.52732 0.0
H198 H 0.91246 0.84884 0.53441 0.0
H199 H 0.90087 0.95436 0.54098 0.0
C200 C 0.87284 0.94233 0.57827 0.0
N201 N 0.86283 0.93922 0.5699 0.0
C202 C 0.86951 0.96727 0.58583 0.0
C203 C 0.84524 0.98483 0.57624 0.0
C204 C 0.84893 0.95913 0.56892 0.0
C205 C 0.85572 0.98946 0.58479 0.0
H206 H 0.88341 0.9252 0.57912 0.0
H207 H 0.84065 0.95512 0.5625 0.0
C208 C 0.88396 0.80246 0.54425 0.0
N209 N 0.89109 0.73171 0.54339 0.0
C210 C 0.87168 0.77849 0.54143 0.0
C211 C 0.89991 0.79045 0.54656 0.0
C212 C 0.87552 0.74283 0.54105 0.0
C213 C 0.90325 0.75458 0.54611 0.0
C214 C 0.8476 0.86609 0.57072 0.0
C215 C 0.85394 0.86081 0.58062 0.0
C216 C 0.83181 0.88051 0.56947 0.0
C217 C 0.84436 0.87026 0.58915 0.0
C218 C 0.82262 0.8896 0.5782 0.0
N219 N 0.82903 0.88436 0.58777 0.0
C220 C 0.89983 0.81099 0.57545 0.0
C221 C 0.87754 0.7774 0.56881 0.0
C222 C 0.90391 0.78427 0.58235 0.0
N223 N 0.88687 0.80703 0.56886 0.0
C224 C 0.88129 0.74988 0.57548 0.0
C225 C 0.89454 0.75328 0.58243 0.0
H226 H 0.90676 0.83519 0.57552 0.0
H227 H 0.867 0.77543 0.56369 0.0
C228 C 0.84122 0.85079 0.52893 0.0
N229 N 0.84077 0.84703 0.53934 0.0
C230 C 0.82822 0.83807 0.52288 0.0
C231 C 0.81461 0.81803 0.53841 0.0
C232 C 0.8279 0.83093 0.54415 0.0
C233 C 0.8147 0.82142 0.52763 0.0
H234 H 0.85171 0.86352 0.52534 0.0
H235 H 0.82807 0.82765 0.55243 0.0
O236 O 0.89245 0.88872 0.56237 0.0
O237 O 0.86683 0.9117 0.54511 0.0
O238 O 0.88038 0.83745 0.54479 0.0
O239 O 0.85698 0.85793 0.56228 0.0
H240 H 0.89879 0.95669 0.56385 0.0
H241 H 0.92077 0.85497 0.55953 0.0
H242 H 0.92676 0.9832 0.56255 0.0
H243 H 0.94834 0.88333 0.55822 0.0
H244 H 0.82063 0.97458 0.5374 0.0
H245 H 0.8785 0.97489 0.54967 0.0
H246 H 0.83565 0.91824 0.53902 0.0
H247 H 0.8628 0.03022 0.54773 0.0
H248 H 0.92405 0.97492 0.53035 0.0
H249 H 0.93617 0.86694 0.52368 0.0
H250 H 0.87764 0.96893 0.59245 0.0
H251 H 0.83443 0.00117 0.5751 0.0
H252 H 0.85928 0.78724 0.5396 0.0
H253 H 0.90954 0.80856 0.54882 0.0
H254 H 0.86611 0.72399 0.53892 0.0
H255 H 0.9155 0.74492 0.54795 0.0
H256 H 0.86619 0.84991 0.58171 0.0
H257 H 0.82682 0.88521 0.56185 0.0
H258 H 0.84913 0.86651 0.59687 0.0
H259 H 0.81042 0.90101 0.57736 0.0
H260 H 0.9142 0.78788 0.58761 0.0
H261 H 0.87356 0.72669 0.57545 0.0
H262 H 0.82871 0.84141 0.51459 0.0
H263 H 0.80455 0.80485 0.54236 0.0
Li264 Li 0.87887 0.90611 0.18442 0.0
Li265 Li 0.85894 0.88539 0.19757 0.0
Li266 Li 0.88718 0.86255 0.19691 0.0
Li267 Li 0.86793 0.84806 0.18383 0.0
C268 C 0.87693 0.94468 0.20301 0.0
N269 N 0.86999 0.01182 0.20969 0.0
C270 C 0.86408 0.96382 0.19847 0.0
C271 C 0.8862 0.95965 0.21097 0.0
C272 C 0.86078 0.99772 0.20195 0.0
C273 C 0.88252 0.99365 0.21422 0.0
C274 C 0.8428 0.88216 0.17634 0.0
C275 C 0.81823 0.84755 0.17343 0.0
N276 N 0.81797 0.8584 0.16344 0.0
C277 C 0.84223 0.89315 0.16607 0.0
C278 C 0.83066 0.85931 0.18007 0.0
C279 C 0.8296 0.88077 0.15966 0.0
C280 C 0.88566 0.93648 0.1656 0.0
N281 N 0.8863 0.94347 0.17586 0.0
C282 C 0.89716 0.00062 0.17254 0.0
C283 C 0.89232 0.97445 0.17944 0.0
C284 C 0.89612 0.99447 0.16189 0.0
C285 C 0.8905 0.9617 0.15844 0.0
H286 H 0.88131 0.9112 0.16299 0.0
H287 H 0.89342 0.97901 0.18762 0.0
C288 C 0.84385 0.89835 0.21679 0.0
N289 N 0.84148 0.89967 0.20642 0.0
C290 C 0.83151 0.91029 0.22349 0.0
C291 C 0.81451 0.92423 0.20868 0.0
C292 C 0.82727 0.91262 0.20229 0.0
C293 C 0.81659 0.92322 0.21941 0.0
H294 H 0.85541 0.88839 0.21984 0.0
H295 H 0.8259 0.91448 0.19402 0.0
C296 C 0.90725 0.87057 0.17971 0.0
N297 N 0.93982 0.88721 0.17532 0.0
C298 C 0.91548 0.85391 0.1716 0.0
C299 C 0.91557 0.89578 0.18557 0.0
C300 C 0.93196 0.86266 0.16951 0.0
C301 C 0.93204 0.9038 0.18324 0.0
C302 C 0.86971 0.8016 0.20062 0.0
C303 C 0.88099 0.78354 0.1944 0.0
C304 C 0.86227 0.78448 0.20894 0.0
C305 C 0.88461 0.74857 0.19661 0.0
C306 C 0.86622 0.74947 0.21089 0.0
N307 N 0.87722 0.73239 0.20474 0.0
C308 C 0.90573 0.85497 0.21524 0.0
C309 C 0.91637 0.82363 0.20091 0.0
C310 C 0.91848 0.84232 0.22151 0.0
N311 N 0.90495 0.8455 0.20515 0.0
C312 C 0.92937 0.81065 0.20686 0.0
C313 C 0.93053 0.81995 0.2173 0.0
H314 H 0.8964 0.87226 0.2184 0.0
H315 H 0.91535 0.81598 0.19292 0.0
C316 C 0.86723 0.81749 0.16444 0.0
N317 N 0.86137 0.81314 0.17417 0.0
C318 C 0.86331 0.79334 0.15677 0.0
C319 C 0.84737 0.76058 0.16927 0.0
C320 C 0.85146 0.78563 0.1767 0.0
C321 C 0.85338 0.76427 0.15917 0.0
H322 H 0.87502 0.83976 0.16267 0.0
H323 H 0.84676 0.78311 0.18447 0.0
O324 O 0.88028 0.9112 0.19989 0.0
O325 O 0.85529 0.89326 0.18269 0.0
O326 O 0.89108 0.86227 0.18176 0.0
O327 O 0.86602 0.83598 0.19871 0.0
H328 H 0.85676 0.95275 0.19229 0.0
H329 H 0.89614 0.9451 0.2146 0.0
H330 H 0.85089 0.01284 0.19849 0.0
H331 H 0.88962 0.00558 0.22037 0.0
H332 H 0.80884 0.82965 0.17619 0.0
H333 H 0.85142 0.91103 0.16306 0.0
H334 H 0.83101 0.85029 0.18799 0.0
H335 H 0.82905 0.88895 0.15168 0.0
H336 H 0.90172 0.02534 0.1755 0.0
H337 H 0.88945 0.95594 0.15029 0.0
H338 H 0.83352 0.90919 0.23174 0.0
H339 H 0.80329 0.93462 0.20527 0.0
H340 H 0.90919 0.8344 0.16698 0.0
H341 H 0.90945 0.90904 0.19187 0.0
H342 H 0.93848 0.84994 0.16326 0.0
H343 H 0.93863 0.92322 0.18771 0.0
H344 H 0.88687 0.79631 0.18792 0.0
H345 H 0.85354 0.79815 0.21384 0.0
H346 H 0.89331 0.73428 0.19186 0.0
H347 H 0.86055 0.73589 0.21731 0.0
H348 H 0.919 0.8502 0.22953 0.0
H349 H 0.93826 0.79301 0.20337 0.0
H350 H 0.86835 0.79691 0.1491 0.0
H351 H 0.83956 0.73866 0.17139 0.0
Li352 Li 0.13865 0.6371 0.94737 0.0
Li353 Li 0.11036 0.61438 0.94699 0.0
Li354 Li 0.1313 0.59358 0.93484 0.0
Li355 Li 0.11966 0.65252 0.93348 0.0
C356 C 0.13526 0.55454 0.95128 0.0
N357 N 0.14323 0.48435 0.95278 0.0
C358 C 0.12306 0.53001 0.95382 0.0
C359 C 0.15153 0.5434 0.94957 0.0
C360 C 0.12734 0.49463 0.95453 0.0
C361 C 0.1553 0.50779 0.95034 0.0
C362 C 0.10799 0.67538 0.9561 0.0
C363 C 0.08131 0.69266 0.96277 0.0
N364 N 0.08803 0.69561 0.97235 0.0
C365 C 0.11464 0.67866 0.96601 0.0
C366 C 0.09121 0.68256 0.95445 0.0
C367 C 0.10434 0.68892 0.97412 0.0
C368 C 0.15846 0.69035 0.9557 0.0
N369 N 0.15592 0.65516 0.9558 0.0
C370 C 0.17871 0.64697 0.9673 0.0
C371 C 0.16559 0.63343 0.96151 0.0
C372 C 0.18188 0.68316 0.96715 0.0
C373 C 0.1715 0.70496 0.96129 0.0
H374 H 0.15042 0.707 0.95117 0.0
H375 H 0.16321 0.60559 0.96151 0.0
C376 C 0.07794 0.58921 0.95017 0.0
N377 N 0.09197 0.59971 0.95507 0.0
C378 C 0.06449 0.57663 0.95581 0.0
C379 C 0.08013 0.586 0.97147 0.0
C380 C 0.09334 0.59819 0.96551 0.0
C381 C 0.06551 0.57476 0.96661 0.0
H382 H 0.07729 0.59005 0.94186 0.0
H383 H 0.1048 0.60593 0.96918 0.0
C384 C 0.15797 0.65408 0.93188 0.0
N385 N 0.18809 0.68851 0.93203 0.0
C386 C 0.15875 0.68983 0.92959 0.0
C387 C 0.17252 0.63579 0.93417 0.0
C388 C 0.1741 0.70676 0.92971 0.0
C389 C 0.18762 0.65369 0.93424 0.0
C390 C 0.09902 0.6129 0.92339 0.0
C391 C 0.10456 0.60011 0.9139 0.0
C392 C 0.08457 0.63307 0.92382 0.0
C393 C 0.09558 0.60786 0.90498 0.0
C394 C 0.07596 0.64031 0.91473 0.0
N395 N 0.0816 0.62766 0.90557 0.0
C396 C 0.12777 0.52594 0.92694 0.0
C397 C 0.15139 0.556 0.92062 0.0
C398 C 0.13089 0.49778 0.92039 0.0
N399 N 0.13792 0.55431 0.92689 0.0
C400 C 0.15492 0.52847 0.91387 0.0
C401 C 0.14441 0.49911 0.91357 0.0
H402 H 0.11694 0.5257 0.93185 0.0
H403 H 0.15902 0.57927 0.92057 0.0
C404 C 0.10442 0.71575 0.92661 0.0
N405 N 0.11387 0.68783 0.92384 0.0
C406 C 0.10071 0.74178 0.9194 0.0
C407 C 0.11647 0.70965 0.90667 0.0
C408 C 0.11987 0.68431 0.91411 0.0
C409 C 0.10688 0.73903 0.90929 0.0
H410 H 0.09997 0.71804 0.93443 0.0
H411 H 0.12742 0.66185 0.91217 0.0
O412 O 0.13128 0.58923 0.9504 0.0
O413 O 0.11781 0.66489 0.94808 0.0
O414 O 0.14302 0.63721 0.93205 0.0
O415 O 0.10785 0.60631 0.93219 0.0
H416 H 0.1104 0.5381 0.95513 0.0
H417 H 0.1611 0.56199 0.94753 0.0
H418 H 0.11802 0.47534 0.95644 0.0
H419 H 0.16782 0.49877 0.94896 0.0
H420 H 0.06828 0.69805 0.96162 0.0
H421 H 0.12758 0.67305 0.96744 0.0
H422 H 0.08583 0.67985 0.94685 0.0
H423 H 0.10931 0.69144 0.98183 0.0
H424 H 0.18648 0.62926 0.97168 0.0
H425 H 0.17338 0.73304 0.96108 0.0
H426 H 0.05341 0.56841 0.95177 0.0
H427 H 0.08151 0.58448 0.97977 0.0
H428 H 0.1476 0.70446 0.92788 0.0
H429 H 0.17212 0.60818 0.93601 0.0
H430 H 0.17487 0.73445 0.92802 0.0
H431 H 0.19896 0.63993 0.93607 0.0
H432 H 0.11577 0.58469 0.91339 0.0
H433 H 0.0802 0.64347 0.93109 0.0
H434 H 0.09976 0.59826 0.89758 0.0
H435 H 0.06484 0.65609 0.91494 0.0
H436 H 0.12258 0.47552 0.92052 0.0
H437 H 0.16532 0.53088 0.90865 0.0
H438 H 0.09346 0.76424 0.92178 0.0
H439 H 0.12132 0.70627 0.89895 0.0
Li440 Li 0.12836 0.65589 0.3091 0.0
Li441 Li 0.11702 0.5968 0.31086 0.0
Li442 Li 0.13631 0.61146 0.29702 0.0
Li443 Li 0.10789 0.63328 0.29689 0.0
C444 C 0.15507 0.59538 0.31268 0.0
N445 N 0.18488 0.5598 0.31274 0.0
C446 C 0.15547 0.55952 0.31483 0.0
C447 C 0.16984 0.6132 0.31062 0.0
C448 C 0.17067 0.542 0.31483 0.0
C449 C 0.18478 0.59472 0.31066 0.0
C450 C 0.09555 0.63741 0.32021 0.0
C451 C 0.07212 0.61063 0.32865 0.0
N452 N 0.07696 0.62521 0.33774 0.0
C453 C 0.10025 0.65224 0.32962 0.0
C454 C 0.08132 0.61657 0.3197 0.0
C455 C 0.09069 0.64573 0.33839 0.0
C456 C 0.12465 0.72449 0.31644 0.0
N457 N 0.13464 0.69588 0.31683 0.0
C458 C 0.15144 0.72254 0.3298 0.0
C459 C 0.14791 0.69445 0.32327 0.0
C460 C 0.14115 0.75226 0.32972 0.0
C461 C 0.12778 0.75324 0.32278 0.0
H462 H 0.11399 0.72457 0.31139 0.0
H463 H 0.1554 0.67102 0.32359 0.0
C464 C 0.10286 0.53291 0.31821 0.0
N465 N 0.11112 0.56264 0.32082 0.0
C466 C 0.09899 0.50811 0.32577 0.0
C467 C 0.11212 0.54523 0.33848 0.0
C468 C 0.11587 0.56906 0.33068 0.0
C469 C 0.10364 0.51421 0.33605 0.0
H470 H 0.09942 0.52832 0.31028 0.0
H471 H 0.12269 0.59268 0.33247 0.0
C472 C 0.13234 0.69364 0.29242 0.0
N473 N 0.13955 0.76408 0.29046 0.0
C474 C 0.12006 0.71714 0.28927 0.0
C475 C 0.1483 0.70594 0.29453 0.0
C476 C 0.12395 0.75266 0.28832 0.0
C477 C 0.15169 0.74166 0.29352 0.0
C478 C 0.10596 0.57076 0.2885 0.0
C479 C 0.11257 0.56665 0.27861 0.0
C480 C 0.08932 0.56263 0.2903 0.0
C481 C 0.10236 0.55461 0.27066 0.0
C482 C 0.07952 0.55075 0.28214 0.0
N483 N 0.08618 0.54702 0.27257 0.0
C484 C 0.15596 0.55812 0.28842 0.0
C485 C 0.1643 0.61557 0.28383 0.0
C486 C 0.16905 0.54377 0.2828 0.0
N487 N 0.15391 0.59342 0.28887 0.0
C488 C 0.17758 0.60237 0.27813 0.0
C489 C 0.18012 0.56599 0.27757 0.0
H490 H 0.14743 0.54115 0.29247 0.0
H491 H 0.16235 0.6435 0.28429 0.0
C492 C 0.07555 0.65782 0.29316 0.0
N493 N 0.08961 0.64641 0.28849 0.0
C494 C 0.06216 0.66938 0.28727 0.0
C495 C 0.07796 0.65713 0.27185 0.0
C496 C 0.0911 0.64606 0.27805 0.0
C497 C 0.06325 0.66924 0.27645 0.0
H498 H 0.07485 0.65871 0.30147 0.0
H499 H 0.10257 0.63758 0.27455 0.0
O500 O 0.14028 0.61281 0.31237 0.0
O501 O 0.10493 0.64284 0.31157 0.0
O502 O 0.12872 0.65883 0.29351 0.0
O503 O 0.11569 0.5829 0.29635 0.0
H504 H 0.14415 0.54526 0.31637 0.0
H505 H 0.16973 0.6409 0.30885 0.0
H506 H 0.17116 0.51421 0.31643 0.0
H507 H 0.19629 0.60811 0.309 0.0
H508 H 0.06115 0.59436 0.32839 0.0
H509 H 0.11126 0.66826 0.33018 0.0
H510 H 0.07755 0.60474 0.3125 0.0
H511 H 0.09424 0.65689 0.34574 0.0
H512 H 0.1617 0.72037 0.33515 0.0
H513 H 0.11963 0.77572 0.32236 0.0
H514 H 0.09244 0.48448 0.3236 0.0
H515 H 0.1162 0.55061 0.34628 0.0
H516 H 0.10763 0.70816 0.28763 0.0
H517 H 0.1579 0.6882 0.29711 0.0
H518 H 0.11456 0.77116 0.28592 0.0
H519 H 0.16395 0.75157 0.2952 0.0
H520 H 0.12539 0.57303 0.27705 0.0
H521 H 0.08399 0.56584 0.29789 0.0
H522 H 0.10729 0.55145 0.26296 0.0
H523 H 0.06659 0.54457 0.28341 0.0
H524 H 0.17037 0.51557 0.28246 0.0
H525 H 0.1859 0.62051 0.27434 0.0
H526 H 0.05125 0.67922 0.29117 0.0
H527 H 0.07934 0.65629 0.26355 0.0
Li528 Li 0.88899 0.38575 0.0467 0.0
Li529 Li 0.86775 0.40411 0.05968 0.0
Li530 Li 0.87921 0.34584 0.0601 0.0
Li531 Li 0.85987 0.3616 0.04709 0.0
C532 C 0.90144 0.38398 0.06972 0.0
N533 N 0.92154 0.36694 0.08621 0.0
C534 C 0.89603 0.39009 0.0798 0.0
C535 C 0.91707 0.36933 0.06802 0.0
C536 C 0.90638 0.38125 0.08804 0.0
C537 C 0.92705 0.36088 0.07646 0.0
C538 C 0.86331 0.44519 0.04396 0.0
C539 C 0.84333 0.49179 0.04573 0.0
N540 N 0.8555 0.51566 0.04391 0.0
C541 C 0.8756 0.47017 0.04207 0.0
C542 C 0.84702 0.45605 0.04576 0.0
C543 C 0.87141 0.50567 0.04209 0.0
C544 C 0.90627 0.39755 0.0281 0.0
N545 N 0.90675 0.40204 0.03849 0.0
C546 C 0.93222 0.43356 0.03726 0.0
C547 C 0.91932 0.41965 0.04313 0.0
C548 C 0.93208 0.42962 0.02649 0.0
C549 C 0.9189 0.41115 0.02192 0.0
H550 H 0.89597 0.38379 0.02463 0.0
H551 H 0.91921 0.42332 0.0514 0.0
C552 C 0.84763 0.44346 0.07366 0.0
N553 N 0.86192 0.4428 0.06811 0.0
C554 C 0.84451 0.47101 0.08047 0.0
C555 C 0.87084 0.49653 0.0757 0.0
C556 C 0.87341 0.46865 0.06895 0.0
C557 C 0.85634 0.4977 0.08167 0.0
H558 H 0.8389 0.42215 0.07303 0.0
H559 H 0.88476 0.46712 0.06454 0.0
C560 C 0.89016 0.30606 0.0442 0.0
N561 N 0.90792 0.24449 0.04233 0.0
C562 C 0.88274 0.27399 0.04662 0.0
C563 C 0.90661 0.30679 0.04082 0.0
C564 C 0.89194 0.24316 0.04563 0.0
C565 C 0.91538 0.27538 0.03992 0.0
C566 C 0.84071 0.34445 0.06226 0.0
C567 C 0.83926 0.30849 0.06412 0.0
C568 C 0.82649 0.36417 0.0602 0.0
C569 C 0.82361 0.29289 0.06389 0.0
C570 C 0.81106 0.34758 0.06001 0.0
N571 N 0.80995 0.31259 0.06185 0.0
C572 C 0.87652 0.30928 0.07852 0.0
C573 C 0.89975 0.29039 0.06887 0.0
C574 C 0.8799 0.28478 0.0862 0.0
N575 N 0.88609 0.31099 0.06992 0.0
C576 C 0.90354 0.26522 0.07633 0.0
C577 C 0.89335 0.26176 0.08506 0.0
H578 H 0.86619 0.32702 0.07943 0.0
H579 H 0.90775 0.29339 0.06226 0.0
C580 C 0.83371 0.36833 0.03246 0.0
N581 N 0.84235 0.34536 0.03839 0.0
C582 C 0.82054 0.35663 0.02635 0.0
C583 C 0.82553 0.29787 0.03253 0.0
C584 C 0.83865 0.31065 0.03842 0.0
C585 C 0.81624 0.32093 0.02638 0.0
H586 H 0.83703 0.39575 0.03246 0.0
H587 H 0.84567 0.2929 0.04317 0.0
O588 O 0.89131 0.39155 0.06158 0.0
O589 O 0.86726 0.41035 0.04424 0.0
O590 O 0.88131 0.33653 0.04495 0.0
O591 O 0.85597 0.36016 0.06232 0.0
H592 H 0.8839 0.40116 0.08124 0.0
H593 H 0.92133 0.36401 0.06026 0.0
H594 H 0.90233 0.38566 0.09588 0.0
H595 H 0.93913 0.34932 0.07527 0.0
H596 H 0.8308 0.50056 0.04718 0.0
H597 H 0.88828 0.4623 0.04068 0.0
H598 H 0.83736 0.43711 0.04727 0.0
H599 H 0.88081 0.52529 0.04068 0.0
H600 H 0.9422 0.44722 0.04113 0.0
H601 H 0.91816 0.40791 0.01363 0.0
H602 H 0.83328 0.47072 0.08505 0.0
H603 H 0.8802 0.51675 0.07632 0.0
H604 H 0.87017 0.2729 0.04944 0.0
H605 H 0.91258 0.3313 0.03894 0.0
H606 H 0.88639 0.2182 0.04754 0.0
H607 H 0.92812 0.27558 0.03733 0.0
H608 H 0.85012 0.2926 0.06553 0.0
H609 H 0.82736 0.39189 0.05862 0.0
H610 H 0.82233 0.26508 0.06526 0.0
H611 H 0.79998 0.3625 0.05837 0.0
H612 H 0.87204 0.28394 0.09296 0.0
H613 H 0.91411 0.24824 0.07515 0.0
H614 H 0.81392 0.37531 0.02161 0.0
H615 H 0.82255 0.27026 0.03296 0.0
Li616 Li 0.86653 0.3438 0.68449 0.0
Li617 Li 0.88736 0.35988 0.69653 0.0
Li618 Li 0.85956 0.38377 0.69805 0.0
Li619 Li 0.87786 0.40176 0.68389 0.0
C620 C 0.87004 0.29999 0.70168 0.0
N621 N 0.87764 0.23108 0.70616 0.0
C622 C 0.88065 0.28106 0.69524 0.0
C623 C 0.86331 0.2839 0.7104 0.0
C624 C 0.88434 0.24625 0.69763 0.0
C625 C 0.86729 0.24903 0.71253 0.0
C626 C 0.90539 0.36462 0.67827 0.0
C627 C 0.93092 0.39675 0.6803 0.0
N628 N 0.93734 0.37963 0.67202 0.0
C629 C 0.91223 0.3474 0.66977 0.0
C630 C 0.91479 0.38955 0.68358 0.0
C631 C 0.92841 0.35533 0.66674 0.0
C632 C 0.86236 0.31292 0.66541 0.0
N633 N 0.85846 0.30834 0.67551 0.0
C634 C 0.8447 0.25445 0.67173 0.0
C635 C 0.84951 0.28024 0.67876 0.0
C636 C 0.84884 0.25824 0.66127 0.0
C637 C 0.85755 0.28817 0.65811 0.0
H638 H 0.86938 0.33572 0.66307 0.0
H639 H 0.84627 0.27761 0.68681 0.0
C640 C 0.90732 0.35375 0.71425 0.0
N641 N 0.90582 0.34339 0.70427 0.0
C642 C 0.92036 0.34126 0.72031 0.0
C643 C 0.9301 0.30792 0.70567 0.0
C644 C 0.91684 0.32086 0.69993 0.0
C645 C 0.93197 0.31792 0.71604 0.0
H646 H 0.89825 0.3714 0.71752 0.0
H647 H 0.9153 0.31266 0.69202 0.0
C648 C 0.83951 0.37783 0.67909 0.0
N649 N 0.81034 0.35385 0.67045 0.0
C650 C 0.83531 0.38712 0.669 0.0
C651 C 0.82885 0.35643 0.6848 0.0
C652 C 0.82051 0.3747 0.66477 0.0
C653 C 0.81417 0.34457 0.68029 0.0
C654 C 0.87821 0.44336 0.70183 0.0
C655 C 0.86616 0.46305 0.69669 0.0
C656 C 0.8871 0.45842 0.70994 0.0
C657 C 0.86323 0.49758 0.69975 0.0
C658 C 0.88381 0.49304 0.71277 0.0
N659 N 0.87204 0.51174 0.70766 0.0
C660 C 0.84408 0.39184 0.71747 0.0
C661 C 0.83067 0.42049 0.70356 0.0
C662 C 0.83226 0.40465 0.72439 0.0
N663 N 0.84305 0.39997 0.70729 0.0
C664 C 0.81859 0.43371 0.71017 0.0
C665 C 0.81931 0.42601 0.72076 0.0
H666 H 0.85418 0.37569 0.72021 0.0
H667 H 0.83023 0.42678 0.69544 0.0
C668 C 0.87937 0.4328 0.66469 0.0
N669 N 0.88425 0.43775 0.6746 0.0
C670 C 0.88333 0.45736 0.65714 0.0
C671 C 0.89781 0.49122 0.67006 0.0
C672 C 0.89354 0.46592 0.67738 0.0
C673 C 0.89259 0.48719 0.65978 0.0
H674 H 0.87242 0.4096 0.66267 0.0
H675 H 0.89773 0.46871 0.68525 0.0
O676 O 0.86632 0.33424 0.6996 0.0
O677 O 0.8895 0.35717 0.68124 0.0
O678 O 0.85418 0.3888 0.6833 0.0
O679 O 0.88121 0.40934 0.6991 0.0
H680 H 0.88596 0.293 0.68844 0.0
H681 H 0.8551 0.29825 0.71548 0.0
H682 H 0.89253 0.2313 0.69271 0.0
H683 H 0.86217 0.23623 0.71926 0.0
H684 H 0.93833 0.41596 0.68434 0.0
H685 H 0.90509 0.3281 0.66557 0.0
H686 H 0.90974 0.4032 0.69017 0.0
H687 H 0.93387 0.34217 0.66018 0.0
H688 H 0.83788 0.23178 0.67441 0.0
H689 H 0.86109 0.29181 0.65012 0.0
H690 H 0.92115 0.34929 0.7283 0.0
H691 H 0.93885 0.29041 0.702 0.0
H692 H 0.84336 0.40372 0.66448 0.0
H693 H 0.83201 0.34864 0.69258 0.0
H694 H 0.81712 0.38162 0.65696 0.0
H695 H 0.80586 0.32784 0.6846 0.0
H696 H 0.85917 0.45193 0.69038 0.0
H697 H 0.89643 0.44348 0.71402 0.0
H698 H 0.85395 0.51312 0.69583 0.0
H699 H 0.8906 0.50504 0.71903 0.0
H700 H 0.83342 0.39839 0.7325 0.0
H701 H 0.80871 0.44959 0.70699 0.0
H702 H 0.87892 0.45326 0.64934 0.0
H703 H 0.90523 0.51348 0.67239 0.0
Li704 Li 0.60722 0.11562 0.94678 0.0
Li705 Li 0.63734 0.1394 0.9469 0.0
Li706 Li 0.6171 0.15601 0.93374 0.0
Li707 Li 0.62776 0.09941 0.93367 0.0
C708 C 0.60833 0.19634 0.94954 0.0
N709 N 0.59373 0.26171 0.95032 0.0
C710 C 0.61787 0.22641 0.94796 0.0
C711 C 0.59139 0.19948 0.95159 0.0
C712 C 0.61025 0.25923 0.94835 0.0
C713 C 0.58424 0.23279 0.95195 0.0
C714 C 0.63486 0.05736 0.94907 0.0
C715 C 0.65759 0.01654 0.95016 0.0
N716 N 0.64679 0.98958 0.94878 0.0
C717 C 0.62397 0.02928 0.94772 0.0
C718 C 0.65179 0.05102 0.95033 0.0
C719 C 0.63025 0.99519 0.94757 0.0
C720 C 0.57937 0.07453 0.95098 0.0
N721 N 0.58953 0.09931 0.95504 0.0
C722 C 0.5743 0.09918 0.97082 0.0
C723 C 0.58734 0.11167 0.96476 0.0
C724 C 0.56347 0.07377 0.9668 0.0
C725 C 0.56615 0.06142 0.95673 0.0
H726 H 0.58156 0.06492 0.94325 0.0
H727 H 0.59571 0.13128 0.96779 0.0
C728 C 0.66253 0.18563 0.95248 0.0
N729 N 0.65474 0.15569 0.9554 0.0
C730 C 0.67531 0.19941 0.95847 0.0
C731 C 0.67196 0.15102 0.97033 0.0
C732 C 0.65911 0.13831 0.96414 0.0
C733 C 0.68017 0.18205 0.96752 0.0
H734 H 0.65885 0.19867 0.94544 0.0
H735 H 0.65259 0.11468 0.9663 0.0
C736 C 0.59279 0.12197 0.92473 0.0
N737 N 0.56955 0.14275 0.91033 0.0
C738 C 0.59718 0.12496 0.91434 0.0
C739 C 0.57654 0.12927 0.92779 0.0
C740 C 0.58527 0.13562 0.90719 0.0
C741 C 0.56498 0.13977 0.92039 0.0
C742 C 0.65347 0.13388 0.92578 0.0
C743 C 0.65103 0.12993 0.91517 0.0
C744 C 0.66921 0.12821 0.92998 0.0
C745 C 0.66435 0.12002 0.90894 0.0
C746 C 0.68222 0.11842 0.92348 0.0
N747 N 0.67954 0.11451 0.91319 0.0
C748 C 0.62273 0.20669 0.91856 0.0
C749 C 0.59529 0.20856 0.92503 0.0
C750 C 0.61908 0.23275 0.91139 0.0
N751 N 0.61083 0.19463 0.92506 0.0
C752 C 0.59113 0.23496 0.91803 0.0
C753 C 0.60305 0.2469 0.91098 0.0
H754 H 0.63506 0.19586 0.91884 0.0
H755 H 0.58602 0.1988 0.93029 0.0
C756 C 0.62126 0.04634 0.91944 0.0
N757 N 0.63383 0.06053 0.92502 0.0
C758 C 0.62438 0.01977 0.91235 0.0
C759 C 0.65327 0.02131 0.91721 0.0
C760 C 0.64956 0.04795 0.92423 0.0
C761 C 0.64061 0.00739 0.911 0.0
H762 H 0.60876 0.05582 0.92042 0.0
H763 H 0.65933 0.05891 0.92891 0.0
O764 O 0.61552 0.16396 0.94908 0.0
O765 O 0.62898 0.09092 0.94904 0.0
O766 O 0.60432 0.11176 0.93186 0.0
O767 O 0.64059 0.14375 0.932 0.0
H768 H 0.63098 0.2244 0.94633 0.0
H769 H 0.58381 0.17646 0.95277 0.0
H770 H 0.61745 0.28272 0.94707 0.0
H771 H 0.57113 0.23563 0.95347 0.0
H772 H 0.67067 0.01123 0.95106 0.0
H773 H 0.61084 0.03381 0.94669 0.0
H774 H 0.6604 0.07252 0.95129 0.0
H775 H 0.62199 0.97319 0.94647 0.0
H776 H 0.57259 0.10957 0.97852 0.0
H777 H 0.55827 0.04145 0.95339 0.0
H778 H 0.68148 0.22314 0.95597 0.0
H779 H 0.67526 0.13704 0.9773 0.0
H780 H 0.60969 0.11932 0.91185 0.0
H781 H 0.57295 0.1274 0.9358 0.0
H782 H 0.58853 0.13826 0.89913 0.0
H783 H 0.55238 0.14572 0.92265 0.0
H784 H 0.63895 0.13427 0.91179 0.0
H785 H 0.67134 0.13092 0.93816 0.0
H786 H 0.66261 0.11668 0.90073 0.0
H787 H 0.69444 0.11378 0.92663 0.0
H788 H 0.62872 0.24179 0.90623 0.0
H789 H 0.57861 0.24522 0.91795 0.0
H790 H 0.61416 0.00908 0.90794 0.0
H791 H 0.66595 0.01243 0.91644 0.0
Li792 Li 0.62861 0.14883 0.31131 0.0
Li793 Li 0.61576 0.09104 0.30987 0.0
Li794 Li 0.63768 0.10949 0.29799 0.0
Li795 Li 0.60987 0.13472 0.29711 0.0
C796 C 0.64833 0.10718 0.32162 0.0
N797 N 0.66616 0.11993 0.33941 0.0
C798 C 0.64237 0.09549 0.33114 0.0
C799 C 0.6634 0.12516 0.32114 0.0
C800 C 0.65157 0.10222 0.34005 0.0
C801 C 0.67221 0.13143 0.33023 0.0
C802 C 0.59042 0.15454 0.31218 0.0
C803 C 0.56093 0.15766 0.30931 0.0
N804 N 0.56133 0.19259 0.31136 0.0
C805 C 0.59054 0.19044 0.3143 0.0
C806 C 0.5755 0.13795 0.30971 0.0
C807 C 0.5757 0.20921 0.31384 0.0
C808 C 0.6443 0.21143 0.31838 0.0
N809 N 0.6347 0.1836 0.32102 0.0
C810 C 0.63191 0.20499 0.33822 0.0
C811 C 0.62852 0.17994 0.3307 0.0
C812 C 0.64158 0.23438 0.33572 0.0
C813 C 0.64795 0.23727 0.32566 0.0
H814 H 0.64885 0.21391 0.31058 0.0
H815 H 0.6208 0.15764 0.33254 0.0
C816 C 0.61695 0.02329 0.31832 0.0
N817 N 0.60783 0.05319 0.31796 0.0
C818 C 0.61267 0.99649 0.32513 0.0
C819 C 0.58967 0.03174 0.33106 0.0
C820 C 0.59432 0.05775 0.32407 0.0
C821 C 0.59905 0.00084 0.33175 0.0
H822 H 0.62791 0.02084 0.31358 0.0
H823 H 0.58751 0.08211 0.32379 0.0
C824 C 0.64172 0.17158 0.28909 0.0
N825 N 0.66292 0.19327 0.27363 0.0
C826 C 0.6357 0.1772 0.27912 0.0
C827 C 0.65849 0.17721 0.29122 0.0
C828 C 0.64663 0.18814 0.27141 0.0
C829 C 0.66902 0.18808 0.28329 0.0
C830 C 0.61198 0.05156 0.29357 0.0
C831 C 0.6239 0.02623 0.29121 0.0
C832 C 0.59554 0.04145 0.29522 0.0
C833 C 0.61917 0.99108 0.29061 0.0
C834 C 0.59132 0.00603 0.29457 0.0
N835 N 0.60312 0.9818 0.2923 0.0
C836 C 0.66897 0.07808 0.29545 0.0
C837 C 0.65613 0.09543 0.27981 0.0
C838 C 0.68252 0.06464 0.29007 0.0
N839 N 0.65619 0.09323 0.29028 0.0
C840 C 0.66958 0.08291 0.27413 0.0
C841 C 0.68293 0.06711 0.27928 0.0
H842 H 0.66853 0.07597 0.30375 0.0
H843 H 0.64558 0.10661 0.27588 0.0
C844 C 0.59149 0.18914 0.28805 0.0
N845 N 0.5933 0.15376 0.28834 0.0
C846 C 0.57884 0.20423 0.28221 0.0
C847 C 0.57047 0.14622 0.27684 0.0
C848 C 0.58324 0.13225 0.28282 0.0
C849 C 0.56805 0.18267 0.27656 0.0
H850 H 0.59978 0.20558 0.29247 0.0
H851 H 0.58501 0.10423 0.28317 0.0
O852 O 0.63933 0.10156 0.31284 0.0
O853 O 0.60488 0.13586 0.31234 0.0
O854 O 0.63125 0.16061 0.29673 0.0
O855 O 0.6164 0.08605 0.29433 0.0
H856 H 0.63069 0.08172 0.33167 0.0
H857 H 0.66815 0.13447 0.31384 0.0
H858 H 0.64707 0.09348 0.34747 0.0
H859 H 0.68384 0.14549 0.32998 0.0
H860 H 0.54931 0.14522 0.30733 0.0
H861 H 0.60199 0.20377 0.31614 0.0
H862 H 0.57521 0.11024 0.30798 0.0
H863 H 0.57561 0.23704 0.3154 0.0
H864 H 0.62692 0.20145 0.3459 0.0
H865 H 0.65526 0.25974 0.32336 0.0
H866 H 0.62042 0.97337 0.32556 0.0
H867 H 0.57907 0.03604 0.33602 0.0
H868 H 0.62278 0.17285 0.27733 0.0
H869 H 0.66337 0.17284 0.29888 0.0
H870 H 0.64216 0.19245 0.26365 0.0
H871 H 0.68205 0.1923 0.2848 0.0
H872 H 0.63667 0.03355 0.28991 0.0
H873 H 0.58619 0.06068 0.29713 0.0
H874 H 0.62827 0.97118 0.28883 0.0
H875 H 0.57867 0.99781 0.29591 0.0
H876 H 0.6926 0.05257 0.29429 0.0
H877 H 0.66937 0.08475 0.2658 0.0
H878 H 0.57757 0.23246 0.2821 0.0
H879 H 0.56235 0.12865 0.27266 0.0
Li880 Li 0.35988 0.86134 0.0479 0.0
Li881 Li 0.37916 0.84507 0.06087 0.0
Li882 Li 0.36749 0.90259 0.06116 0.0
Li883 Li 0.38772 0.88573 0.04781 0.0
C884 C 0.3394 0.86452 0.06499 0.0
N885 N 0.30644 0.87815 0.06917 0.0
C886 C 0.33104 0.84525 0.07253 0.0
C887 C 0.33099 0.89077 0.05958 0.0
C888 C 0.31438 0.85252 0.07453 0.0
C889 C 0.31434 0.89724 0.06181 0.0
C890 C 0.37821 0.802 0.04333 0.0
C891 C 0.38222 0.75241 0.03209 0.0
N892 N 0.37185 0.73314 0.0381 0.0
C893 C 0.36759 0.78169 0.0494 0.0
C894 C 0.38559 0.78727 0.03461 0.0
C895 C 0.36453 0.74695 0.04663 0.0
C896 C 0.34065 0.85917 0.02972 0.0
N897 N 0.34237 0.84521 0.0393 0.0
C898 C 0.31931 0.80714 0.0365 0.0
C899 C 0.332 0.81977 0.04278 0.0
C900 C 0.31722 0.82097 0.02656 0.0
C901 C 0.32802 0.84748 0.02319 0.0
H902 H 0.34914 0.87925 0.02714 0.0
H903 H 0.33357 0.80917 0.05045 0.0
C904 C 0.3795 0.80955 0.07952 0.0
N905 N 0.38636 0.80914 0.06997 0.0
C906 C 0.38387 0.78421 0.08676 0.0
C907 C 0.40245 0.75864 0.07422 0.0
C908 C 0.39773 0.78459 0.06721 0.0
C909 C 0.39543 0.75817 0.08414 0.0
H910 H 0.37055 0.82956 0.08149 0.0
H911 H 0.40311 0.78516 0.05957 0.0
C912 C 0.36935 0.94529 0.04338 0.0
N913 N 0.376 0.014 0.03811 0.0
C914 C 0.38086 0.96474 0.04906 0.0
C915 C 0.36123 0.96079 0.03503 0.0
C916 C 0.38405 -0.00057 0.04627 0.0
C917 C 0.36476 0.99556 0.03249 0.0
C918 C 0.40498 0.87945 0.06797 0.0
C919 C 0.40671 0.88633 0.0785 0.0
C920 C 0.41731 0.86069 0.06279 0.0
C921 C 0.42075 0.87419 0.08369 0.0
C922 C 0.43117 0.84902 0.06826 0.0
N923 N 0.43258 0.85593 0.0785 0.0
C924 C 0.36261 0.93012 0.08052 0.0
C925 C 0.35278 0.96845 0.06752 0.0
C926 C 0.35866 0.95438 0.08816 0.0
N927 N 0.36005 0.93786 0.07043 0.0
C928 C 0.34872 0.99367 0.07491 0.0
C929 C 0.35197 0.98703 0.08539 0.0
H930 H 0.36783 0.90503 0.08262 0.0
H931 H 0.35032 0.97358 0.05947 0.0
C932 C 0.40615 0.8922 0.0294 0.0
N933 N 0.40537 0.90213 0.03945 0.0
C934 C 0.41891 0.90453 0.02308 0.0
C935 C 0.42974 0.93702 0.0376 0.0
C936 C 0.41682 0.92404 0.04362 0.0
C937 C 0.43094 0.9273 0.02718 0.0
H938 H 0.39683 0.87474 0.0263 0.0
H939 H 0.41584 0.93165 0.05163 0.0
O940 O 0.35572 0.85754 0.063 0.0
O941 O 0.38139 0.83616 0.04583 0.0
O942 O 0.36616 0.91107 0.04583 0.0
O943 O 0.39112 0.89027 0.06279 0.0
H944 H 0.33738 0.82485 0.07678 0.0
H945 H 0.33719 0.90598 0.05371 0.0
H946 H 0.30776 0.83778 0.08034 0.0
H947 H 0.30768 0.91745 0.05768 0.0
H948 H 0.38785 0.74068 0.02535 0.0
H949 H 0.36176 0.79259 0.05618 0.0
H950 H 0.39384 0.80266 0.02983 0.0
H951 H 0.35633 0.73096 0.05126 0.0
H952 H 0.31112 0.78702 0.03944 0.0
H953 H 0.3269 0.85861 0.01554 0.0
H954 H 0.37796 0.78457 0.09426 0.0
H955 H 0.41153 0.73928 0.07192 0.0
H956 H 0.38718 0.95334 0.05559 0.0
H957 H 0.35231 0.94608 0.03055 0.0
H958 H 0.3929 0.01478 0.0506 0.0
H959 H 0.35857 0.00789 0.02604 0.0
H960 H 0.39733 0.90086 0.08263 0.0
H961 H 0.41606 0.85465 0.05468 0.0
H962 H 0.42224 0.87925 0.09184 0.0
H963 H 0.44076 0.83429 0.06436 0.0
H964 H 0.36091 0.94767 0.09615 0.0
H965 H 0.34355 0.01843 0.07242 0.0
H966 H 0.41945 0.89607 0.01512 0.0
H967 H 0.43855 0.95494 0.04104 0.0
Li968 Li 0.37868 0.90437 0.68493 0.0
Li969 Li 0.35874 0.88324 0.69766 0.0
Li970 Li 0.3871 0.861 0.69724 0.0
Li971 Li 0.36712 0.84522 0.68388 0.0
C972 C 0.38373 0.94351 0.70114 0.0
N973 N 0.3916 0.01385 0.70219 0.0
C974 C 0.37157 0.96806 0.70373 0.0
C975 C 0.39991 0.95471 0.69914 0.0
C976 C 0.3758 0.00351 0.70422 0.0
C977 C 0.40363 0.99039 0.69969 0.0
C978 C 0.34538 0.88512 0.67448 0.0
C979 C 0.32194 0.85674 0.66652 0.0
N980 N 0.3261 0.87152 0.65733 0.0
C981 C 0.3494 0.9001 0.66497 0.0
C982 C 0.3315 0.86336 0.67528 0.0
C983 C 0.3395 0.8929 0.65639 0.0
C984 C 0.39852 0.94212 0.67068 0.0
N985 N 0.38493 0.94369 0.67685 0.0
C986 C 0.37815 0.00054 0.67045 0.0
C987 C 0.37481 0.97213 0.67688 0.0
C988 C 0.39192 -0.00054 0.66382 0.0
C989 C 0.4023 0.96992 0.66409 0.0
H990 H 0.40615 0.91887 0.67066 0.0
H991 H 0.36393 0.97235 0.68174 0.0
C992 C 0.34344 0.90083 0.71665 0.0
N993 N 0.34093 0.89725 0.70633 0.0
C994 C 0.33062 0.91248 0.72302 0.0
C995 C 0.31295 0.91671 0.70801 0.0
C996 C 0.32608 0.90493 0.70195 0.0
C997 C 0.31515 0.92086 0.71869 0.0
H998 H 0.3555 0.89516 0.71989 0.0
H999 H 0.32449 0.9024 0.69373 0.0
C1000 C 0.40517 0.84364 0.6812 0.0
N1001 N 0.43509 0.80858 0.68037 0.0
C1002 C 0.40562 0.80814 0.67857 0.0
C1003 C 0.41993 0.86135 0.68334 0.0
C1004 C 0.42088 0.79088 0.6782 0.0
C1005 C 0.43493 0.84314 0.68291 0.0
C1006 C 0.35725 0.82244 0.70683 0.0
C1007 C 0.36441 0.82101 0.71663 0.0
C1008 C 0.34056 0.81357 0.70556 0.0
C1009 C 0.3547 0.81091 0.72504 0.0
C1010 C 0.33126 0.80368 0.71417 0.0
N1011 N 0.33847 0.80257 0.72365 0.0
C1012 C 0.41457 0.86515 0.71092 0.0
C1013 C 0.40779 0.80817 0.70502 0.0
C1014 C 0.42794 0.85195 0.71655 0.0
N1015 N 0.40494 0.84323 0.70525 0.0
C1016 C 0.42107 0.79387 0.71047 0.0
C1017 C 0.4314 0.81585 0.71633 0.0
H1018 H 0.41187 0.89285 0.71108 0.0
H1019 H 0.39981 0.79137 0.7005 0.0
C1020 C 0.36424 0.81493 0.66436 0.0
N1021 N 0.36076 0.8096 0.67449 0.0
C1022 C 0.36025 0.78949 0.65707 0.0
C1023 C 0.34957 0.75306 0.67081 0.0
C1024 C 0.35357 0.77948 0.67784 0.0
C1025 C 0.35293 0.75797 0.66028 0.0
H1026 H 0.3703 0.83886 0.66197 0.0
H1027 H 0.35117 0.77579 0.68596 0.0
O1028 O 0.37979 0.90875 0.70046 0.0
O1029 O 0.35507 0.89138 0.68294 0.0
O1030 O 0.39033 0.86083 0.68181 0.0
O1031 O 0.36645 0.83291 0.69853 0.0
H1032 H 0.35897 0.95991 0.70525 0.0
H1033 H 0.40944 0.9361 0.69704 0.0
H1034 H 0.3665 0.02281 0.70617 0.0
H1035 H 0.41607 -0.00055 0.69809 0.0
H1036 H 0.31124 0.83975 0.66701 0.0
H1037 H 0.36014 0.91681 0.66418 0.0
H1038 H 0.3283 0.85125 0.68256 0.0
H1039 H 0.3425 0.9042 0.64898 0.0
H1040 H 0.3699 0.02291 0.67057 0.0
H1041 H 0.41289 0.96772 0.659 0.0
H1042 H 0.33292 0.91577 0.73119 0.0
H1043 H 0.30119 0.92254 0.70437 0.0
H1044 H 0.39432 0.79396 0.67694 0.0
H1045 H 0.41979 0.88875 0.68546 0.0
H1046 H 0.42142 0.76338 0.67623 0.0
H1047 H 0.44643 0.85645 0.68463 0.0
H1048 H 0.37728 0.82797 0.71776 0.0
H1049 H 0.33481 0.81472 0.69804 0.0
H1050 H 0.36006 0.80984 0.73268 0.0
H1051 H 0.31831 0.79697 0.71332 0.0
H1052 H 0.43536 0.8698 0.72111 0.0
H1053 H 0.42334 0.76598 0.70997 0.0
H1054 H 0.36332 0.79398 0.64905 0.0
H1055 H 0.34395 0.72906 0.67357 0.0
Li1056 Li 0.60984 0.61131 0.447 0.0
Li1057 Li 0.63768 0.63626 0.44707 0.0
Li1058 Li 0.61713 0.65417 0.43424 0.0
Li1059 Li 0.62999 0.5962 0.43367 0.0
C1060 C 0.61156 0.69449 0.45025 0.0
N1061 N 0.60238 0.76415 0.451 0.0
C1062 C 0.62318 0.72009 0.4529 0.0
C1063 C 0.59525 0.70428 0.44804 0.0
C1064 C 0.6183 0.75518 0.45323 0.0
C1065 C 0.59086 0.73965 0.44844 0.0
C1066 C 0.64062 0.57604 0.45667 0.0
C1067 C 0.66713 0.56057 0.46394 0.0
N1068 N 0.66002 0.55838 0.47343 0.0
C1069 C 0.63356 0.57352 0.46648 0.0
C1070 C 0.65752 0.56937 0.45537 0.0
C1071 C 0.64358 0.56457 0.47486 0.0
C1072 C 0.59034 0.55762 0.4555 0.0
N1073 N 0.59242 0.59293 0.45523 0.0
C1074 C 0.56906 0.60127 0.46626 0.0
C1075 C 0.58223 0.6148 0.46053 0.0
C1076 C 0.56639 0.56491 0.46651 0.0
C1077 C 0.57727 0.54297 0.46106 0.0
H1078 H 0.59879 0.54088 0.45129 0.0
H1079 H 0.58426 0.64275 0.46025 0.0
C1080 C 0.66972 0.66249 0.451 0.0
N1081 N 0.65529 0.65256 0.45553 0.0
C1082 C 0.68277 0.67519 0.45698 0.0
C1083 C 0.66582 0.66745 0.47218 0.0
C1084 C 0.65306 0.65504 0.46589 0.0
C1085 C 0.68094 0.6778 0.46773 0.0
H1086 H 0.67103 0.66101 0.44273 0.0
H1087 H 0.64133 0.6475 0.46926 0.0
C1088 C 0.59195 0.59069 0.43125 0.0
N1089 N 0.56273 0.55299 0.43103 0.0
C1090 C 0.59219 0.55475 0.42921 0.0
C1091 C 0.57686 0.60751 0.43311 0.0
C1092 C 0.57727 0.53615 0.42913 0.0
C1093 C 0.56222 0.58796 0.43299 0.0
C1094 C 0.65061 0.63709 0.42379 0.0
C1095 C 0.64584 0.64984 0.41413 0.0
C1096 C 0.66515 0.61742 0.42472 0.0
C1097 C 0.65567 0.64247 0.40553 0.0
C1098 C 0.67461 0.61056 0.41593 0.0
N1099 N 0.66972 0.62312 0.4066 0.0
C1100 C 0.61866 0.72202 0.4258 0.0
C1101 C 0.59701 0.6866 0.41916 0.0
C1102 C 0.61458 0.74898 0.419 0.0
N1103 N 0.60987 0.69165 0.42575 0.0
C1104 C 0.59261 0.71273 0.41214 0.0
C1105 C 0.60156 0.74428 0.41195 0.0
H1106 H 0.62914 0.72487 0.43093 0.0
H1107 H 0.59047 0.66191 0.41913 0.0
C1108 C 0.64581 0.53241 0.42776 0.0
N1109 N 0.637 0.56061 0.42447 0.0
C1110 C 0.65034 0.50618 0.4208 0.0
C1111 C 0.63678 0.53884 0.40722 0.0
C1112 C 0.6324 0.56419 0.41445 0.0
C1113 C 0.64578 0.50924 0.41038 0.0
H1114 H 0.64913 0.53008 0.43581 0.0
H1115 H 0.62515 0.58665 0.41211 0.0
O1116 O 0.61614 0.66004 0.44975 0.0
O1117 O 0.63107 0.5853 0.4484 0.0
O1118 O 0.60645 0.60922 0.43161 0.0
O1119 O 0.64098 0.64338 0.43228 0.0
H1120 H 0.63587 0.71303 0.4546 0.0
H1121 H 0.58613 0.68483 0.44589 0.0
H1122 H 0.62717 0.77529 0.45524 0.0
H1123 H 0.57831 0.74762 0.44668 0.0
H1124 H 0.68025 0.55558 0.46306 0.0
H1125 H 0.62051 0.57876 0.46764 0.0
H1126 H 0.6632 0.57142 0.44784 0.0
H1127 H 0.6383 0.56267 0.48251 0.0
H1128 H 0.56089 0.61909 0.47031 0.0
H1129 H 0.57579 0.51478 0.46118 0.0
H1130 H 0.69405 0.68356 0.45319 0.0
H1131 H 0.66389 0.66874 0.48043 0.0
H1132 H 0.60376 0.54127 0.42782 0.0
H1133 H 0.57647 0.63527 0.43477 0.0
H1134 H 0.57727 0.50829 0.42762 0.0
H1135 H 0.55047 0.60058 0.4345 0.0
H1136 H 0.6346 0.66494 0.41325 0.0
H1137 H 0.66895 0.60711 0.43212 0.0
H1138 H 0.65209 0.65203 0.398 0.0
H1139 H 0.68583 0.59516 0.41652 0.0
H1140 H 0.62197 0.77266 0.41897 0.0
H1141 H 0.58249 0.70816 0.40683 0.0
H1142 H 0.6573 0.48376 0.42353 0.0
H1143 H 0.63273 0.54187 0.39931 0.0
Li1144 Li 0.61776 0.59681 0.81025 0.0
Li1145 Li 0.63009 0.65527 0.80962 0.0
Li1146 Li 0.61031 0.63598 0.79648 0.0
Li1147 Li 0.63837 0.61219 0.79724 0.0
C1148 C 0.59604 0.63754 0.81939 0.0
N1149 N 0.57561 0.62424 0.83604 0.0
C1150 C 0.6 0.65083 0.82912 0.0
C1151 C 0.58163 0.61767 0.81811 0.0
C1152 C 0.58952 0.64379 0.83744 0.0
C1153 C 0.57149 0.61116 0.82663 0.0
C1154 C 0.65552 0.59233 0.81326 0.0
C1155 C 0.68532 0.58954 0.81213 0.0
N1156 N 0.68466 0.5544 0.81381 0.0
C1157 C 0.65513 0.55621 0.815 0.0
C1158 C 0.67073 0.6092 0.81185 0.0
C1159 C 0.67 0.5375 0.81525 0.0
C1160 C 0.60245 0.53249 0.81634 0.0
N1161 N 0.61058 0.56167 0.81957 0.0
C1162 C 0.60966 0.54222 0.83705 0.0
C1163 C 0.61436 0.56679 0.82967 0.0
C1164 C 0.60129 0.51174 0.83397 0.0
C1165 C 0.5977 0.50692 0.82347 0.0
H1166 H 0.59982 0.52891 0.80824 0.0
H1167 H 0.62114 0.58995 0.83196 0.0
C1168 C 0.62651 0.72242 0.81808 0.0
N1169 N 0.63633 0.69352 0.81811 0.0
C1170 C 0.62951 0.7497 0.82497 0.0
C1171 C 0.6528 0.71712 0.83175 0.0
C1172 C 0.64935 0.69046 0.82469 0.0
C1173 C 0.64262 0.74697 0.83206 0.0
H1174 H 0.61605 0.72379 0.81288 0.0
H1175 H 0.65671 0.66683 0.82471 0.0
C1176 C 0.6082 0.57468 0.78727 0.0
N1177 N 0.58943 0.55421 0.77051 0.0
C1178 C 0.61551 0.57168 0.77755 0.0
C1179 C 0.59136 0.56708 0.78849 0.0
C1180 C 0.60581 0.56129 0.76916 0.0
C1181 C 0.58208 0.55687 0.77991 0.0
C1182 C 0.63578 0.69538 0.79371 0.0
C1183 C 0.62394 0.72002 0.79067 0.0
C1184 C 0.6517 0.70652 0.79644 0.0
C1185 C 0.6282 0.75548 0.79045 0.0
C1186 C 0.65546 0.74221 0.79615 0.0
N1187 N 0.64374 0.76575 0.79318 0.0
C1188 C 0.5787 0.66338 0.79222 0.0
C1189 C 0.59486 0.65196 0.77733 0.0
C1190 C 0.56579 0.67628 0.78616 0.0
N1191 N 0.59283 0.65144 0.78774 0.0
C1192 C 0.58218 0.66433 0.77096 0.0
C1193 C 0.56745 0.67692 0.77539 0.0
H1194 H 0.57753 0.66338 0.80051 0.0
H1195 H 0.60641 0.64321 0.77399 0.0
C1196 C 0.65777 0.55859 0.78863 0.0
N1197 N 0.65642 0.59394 0.78951 0.0
C1198 C 0.6713 0.54383 0.78354 0.0
C1199 C 0.68169 0.60216 0.78025 0.0
C1200 C 0.66792 0.61579 0.78537 0.0
C1201 C 0.68357 0.56568 0.77931 0.0
H1202 H 0.64838 0.54189 0.79199 0.0
H1203 H 0.66653 0.64378 0.78619 0.0
O1204 O 0.60631 0.64352 0.81118 0.0
O1205 O 0.64107 0.61096 0.81269 0.0
O1206 O 0.61743 0.5852 0.79555 0.0
O1207 O 0.63178 0.66059 0.79411 0.0
H1208 H 0.61114 0.66604 0.83029 0.0
H1209 H 0.57841 0.60704 0.81064 0.0
H1210 H 0.59248 0.65376 0.84503 0.0
H1211 H 0.56036 0.59563 0.82576 0.0
H1212 H 0.69717 0.6022 0.81097 0.0
H1213 H 0.64347 0.54268 0.81602 0.0
H1214 H 0.67124 0.63708 0.81038 0.0
H1215 H 0.66989 0.50951 0.81654 0.0
H1216 H 0.61294 0.54657 0.84504 0.0
H1217 H 0.59129 0.4837 0.82081 0.0
H1218 H 0.62147 0.7724 0.82488 0.0
H1219 H 0.66286 0.71369 0.83717 0.0
H1220 H 0.6285 0.57766 0.77645 0.0
H1221 H 0.5855 0.56941 0.79595 0.0
H1222 H 0.61129 0.559 0.76158 0.0
H1223 H 0.56902 0.55112 0.78073 0.0
H1224 H 0.61155 0.71193 0.78856 0.0
H1225 H 0.66095 0.68787 0.79895 0.0
H1226 H 0.61915 0.77484 0.78814 0.0
H1227 H 0.66768 0.75122 0.79832 0.0
H1228 H 0.5546 0.6856 0.78988 0.0
H1229 H 0.58402 0.66486 0.76269 0.0
H1230 H 0.67208 0.51561 0.78287 0.0
H1231 H 0.69092 0.62002 0.77722 0.0
Li1232 Li 0.38905 0.38283 0.54707 0.0
Li1233 Li 0.36979 0.39886 0.56014 0.0
Li1234 Li 0.38097 0.34169 0.56048 0.0
Li1235 Li 0.36023 0.35884 0.54726 0.0
C1236 C 0.40965 0.37863 0.56376 0.0
N1237 N 0.44274 0.36387 0.56718 0.0
C1238 C 0.41875 0.39831 0.57087 0.0
C1239 C 0.41742 0.35147 0.55837 0.0
C1240 C 0.43545 0.39044 0.57249 0.0
C1241 C 0.43414 0.3444 0.56022 0.0
C1242 C 0.36257 0.44076 0.54362 0.0
C1243 C 0.3416 0.48212 0.53841 0.0
N1244 N 0.35204 0.5089 0.5408 0.0
C1245 C 0.37313 0.46864 0.54596 0.0
C1246 C 0.3467 0.44746 0.53976 0.0
C1247 C 0.36755 0.50293 0.54451 0.0
C1248 C 0.40936 0.38314 0.52925 0.0
N1249 N 0.40645 0.39882 0.53848 0.0
C1250 C 0.42854 0.43931 0.53566 0.0
C1251 C 0.41574 0.42631 0.54178 0.0
C1252 C 0.43185 0.42376 0.52607 0.0
C1253 C 0.42213 0.39519 0.52289 0.0
H1254 H 0.40169 0.36145 0.52681 0.0
H1255 H 0.4132 0.43814 0.54919 0.0
C1256 C 0.37293 0.43669 0.57815 0.0
N1257 N 0.36366 0.43569 0.56941 0.0
C1258 C 0.37007 0.46228 0.5856 0.0
C1259 C 0.3478 0.48498 0.57509 0.0
C1260 C 0.35104 0.45873 0.56786 0.0
C1261 C 0.35753 0.48723 0.58406 0.0
H1262 H 0.38253 0.4174 0.57936 0.0
H1263 H 0.34344 0.45684 0.56104 0.0
C1264 C 0.37843 0.29905 0.54262 0.0
N1265 N 0.37115 0.23076 0.53721 0.0
C1266 C 0.36665 0.28001 0.54821 0.0
C1267 C 0.3865 0.28333 0.53429 0.0
C1268 C 0.36314 0.24553 0.54535 0.0
C1269 C 0.38266 0.24877 0.53168 0.0
C1270 C 0.34411 0.36682 0.56784 0.0
C1271 C 0.34374 0.36326 0.57856 0.0
C1272 C 0.33108 0.38385 0.5628 0.0
C1273 C 0.33037 0.37699 0.58408 0.0
C1274 C 0.31791 0.39714 0.56859 0.0
N1275 N 0.31784 0.39351 0.57902 0.0
C1276 C 0.38719 0.31475 0.57981 0.0
C1277 C 0.3952 0.27513 0.56666 0.0
C1278 C 0.3917 0.29078 0.58741 0.0
N1279 N 0.38861 0.30629 0.56968 0.0
C1280 C 0.39979 0.25021 0.57402 0.0
C1281 C 0.39786 0.25778 0.58456 0.0
H1282 H 0.38244 0.34018 0.58196 0.0
H1283 H 0.39687 0.26946 0.55857 0.0
C1284 C 0.34234 0.3523 0.52871 0.0
N1285 N 0.34261 0.34291 0.53881 0.0
C1286 C 0.32984 0.33983 0.52222 0.0
C1287 C 0.31821 0.30831 0.53669 0.0
C1288 C 0.33087 0.32149 0.54289 0.0
C1289 C 0.31762 0.31733 0.52619 0.0
H1290 H 0.35194 0.3692 0.52569 0.0
H1291 H 0.33142 0.31441 0.55096 0.0
O1292 O 0.39328 0.3863 0.5621 0.0
O1293 O 0.36775 0.40701 0.54497 0.0
O1294 O 0.38191 0.33306 0.54515 0.0
O1295 O 0.35728 0.35433 0.5623 0.0
H1296 H 0.41297 0.41955 0.57507 0.0
H1297 H 0.41069 0.33596 0.55281 0.0
H1298 H 0.44263 0.40548 0.57797 0.0
H1299 H 0.44029 0.32345 0.55611 0.0
H1300 H 0.32934 0.48774 0.53547 0.0
H1301 H 0.3854 0.46386 0.549 0.0
H1302 H 0.3384 0.42612 0.53789 0.0
H1303 H 0.37555 0.5248 0.54635 0.0
H1304 H 0.43589 0.46105 0.53846 0.0
H1305 H 0.42419 0.38268 0.51551 0.0
H1306 H 0.37759 0.46235 0.59252 0.0
H1307 H 0.33799 0.50363 0.57358 0.0
H1308 H 0.36037 0.29157 0.55473 0.0
H1309 H 0.39565 0.29768 0.52989 0.0
H1310 H 0.35407 0.23051 0.5496 0.0
H1311 H 0.38881 0.23629 0.52525 0.0
H1312 H 0.35367 0.35012 0.5826 0.0
H1313 H 0.33127 0.38734 0.55453 0.0
H1314 H 0.32995 0.37453 0.59238 0.0
H1315 H 0.3078 0.41057 0.56479 0.0
H1316 H 0.38994 0.2977 0.59544 0.0
H1317 H 0.4048 0.22533 0.57151 0.0
H1318 H 0.32993 0.34714 0.51416 0.0
H1319 H 0.30892 0.29141 0.54009 0.0
Li1320 Li 0.38025 0.40402 0.18439 0.0
Li1321 Li 0.35949 0.38874 0.19743 0.0
Li1322 Li 0.38807 0.36289 0.19752 0.0
Li1323 Li 0.36778 0.34364 0.18472 0.0
C1324 C 0.38651 0.44638 0.20009 0.0
N1325 N 0.39698 0.51524 0.20077 0.0
C1326 C 0.37548 0.47288 0.20295 0.0
C1327 C 0.40291 0.45485 0.1977 0.0
C1328 C 0.38101 0.50755 0.20322 0.0
C1329 C 0.40795 0.48983 0.19804 0.0
C1330 C 0.34134 0.39504 0.17833 0.0
C1331 C 0.3137 0.37444 0.17462 0.0
N1332 N 0.30998 0.40599 0.17034 0.0
C1333 C 0.33731 0.42708 0.17375 0.0
C1334 C 0.32949 0.36835 0.17865 0.0
C1335 C 0.32137 0.43219 0.16982 0.0
C1336 C 0.3995 0.43336 0.16837 0.0
N1337 N 0.3874 0.44028 0.17536 0.0
C1338 C 0.38395 0.49805 0.16863 0.0
C1339 C 0.3797 0.47191 0.17566 0.0
C1340 C 0.39618 0.49147 0.16116 0.0
C1341 C 0.40415 0.45874 0.16118 0.0
H1342 H 0.40531 0.40786 0.16823 0.0
H1343 H 0.36997 0.47657 0.18122 0.0
C1344 C 0.33976 0.39291 0.21534 0.0
N1345 N 0.34179 0.40609 0.20569 0.0
C1346 C 0.32682 0.40477 0.22159 0.0
C1347 C 0.31855 0.4441 0.20792 0.0
C1348 C 0.33166 0.43155 0.20196 0.0
C1349 C 0.31594 0.43057 0.21786 0.0
H1350 H 0.34815 0.37302 0.21817 0.0
H1351 H 0.33388 0.44251 0.19442 0.0
C1352 C 0.40603 0.34127 0.18165 0.0
N1353 N 0.43613 0.3069 0.18076 0.0
C1354 C 0.40662 0.3055 0.1794 0.0
C1355 C 0.42077 0.35966 0.18332 0.0
C1356 C 0.42196 0.28857 0.17901 0.0
C1357 C 0.43586 0.34179 0.18288 0.0
C1358 C 0.35633 0.313 0.20347 0.0
C1359 C 0.36312 0.28332 0.20817 0.0
C1360 C 0.33913 0.31598 0.20257 0.0
C1361 C 0.35261 0.25675 0.21165 0.0
C1362 C 0.32903 0.28888 0.20616 0.0
N1363 N 0.33592 0.26004 0.21057 0.0
C1364 C 0.41458 0.36972 0.21176 0.0
C1365 C 0.40956 0.31201 0.20581 0.0
C1366 C 0.42802 0.35814 0.21763 0.0
N1367 N 0.40577 0.34668 0.20595 0.0
C1368 C 0.42289 0.29929 0.21155 0.0
C1369 C 0.43239 0.3225 0.21753 0.0
H1370 H 0.41127 0.39713 0.21177 0.0
H1371 H 0.40234 0.29426 0.20113 0.0
C1372 C 0.35639 0.31432 0.16631 0.0
N1373 N 0.36064 0.30613 0.17616 0.0
C1374 C 0.35197 0.28801 0.15937 0.0
C1375 C 0.35645 0.24524 0.17283 0.0
C1376 C 0.36075 0.27241 0.17952 0.0
C1377 C 0.35212 0.25287 0.16258 0.0
H1378 H 0.35674 0.34133 0.1638 0.0
H1379 H 0.3646 0.26643 0.18729 0.0
O1380 O 0.38127 0.41232 0.19968 0.0
O1381 O 0.35694 0.38961 0.18218 0.0
O1382 O 0.39111 0.35816 0.18225 0.0
O1383 O 0.3665 0.33924 0.20003 0.0
H1384 H 0.36278 0.4668 0.20491 0.0
H1385 H 0.41162 0.43467 0.19551 0.0
H1386 H 0.37258 0.52835 0.20537 0.0
H1387 H 0.42058 0.49678 0.19614 0.0
H1388 H 0.30442 0.354 0.17485 0.0
H1389 H 0.34634 0.4479 0.17328 0.0
H1390 H 0.33249 0.34298 0.18181 0.0
H1391 H 0.31807 0.45696 0.16633 0.0
H1392 H 0.37729 0.52266 0.1688 0.0
H1393 H 0.41374 0.45266 0.15562 0.0
H1394 H 0.32521 0.39353 0.22919 0.0
H1395 H 0.3107 0.46458 0.20483 0.0
H1396 H 0.39535 0.29088 0.17805 0.0
H1397 H 0.42055 0.38738 0.18501 0.0
H1398 H 0.42258 0.26085 0.17734 0.0
H1399 H 0.44735 0.35564 0.18423 0.0
H1400 H 0.37638 0.28071 0.20909 0.0
H1401 H 0.33359 0.33916 0.19929 0.0
H1402 H 0.35772 0.23355 0.21523 0.0
H1403 H 0.3157 0.29087 0.20548 0.0
H1404 H 0.43508 0.377 0.22206 0.0
H1405 H 0.42565 0.27155 0.21135 0.0
H1406 H 0.349 0.29503 0.1515 0.0
H1407 H 0.35668 0.21851 0.17563 0.0
H1408 H 0.29973 0.3519 0.51141 0.0
H1409 H 0.27762 0.32817 0.5005 0.0
H1410 H 0.28341 0.22711 0.51489 0.0
H1411 H 0.30574 0.25036 0.52567 0.0
H1412 H 0.28124 0.22587 0.49278 0.0
H1413 H 0.23054 0.30246 0.51111 0.0
H1414 H 0.24804 0.32745 0.50669 0.0
H1415 H 0.25058 0.29684 0.51708 0.0
C1416 C 0.29638 0.32456 0.51219 0.0
C1417 C 0.3044 0.30304 0.51944 0.0
C1418 C 0.28367 0.31114 0.50602 0.0
C1419 C 0.27878 0.27604 0.507 0.0
C1420 C 0.28696 0.25434 0.51408 0.0
H1421 H 0.19011 0.17063 0.48661 0.0
H1422 H 0.21346 0.19516 0.49625 0.0
C1423 C 0.29962 0.26773 0.52027 0.0
C1424 C 0.26508 0.26181 0.50068 0.0
H1425 H 0.22336 0.26767 0.49672 0.0
C1426 C 0.26858 0.23503 0.4936 0.0
C1427 C 0.24859 0.27364 0.50189 0.0
C1428 C 0.2441 0.30148 0.50966 0.0
C1429 C 0.25598 0.21982 0.48763 0.0
C1430 C 0.23953 0.23195 0.48875 0.0
C1431 C 0.23603 0.25863 0.49586 0.0
C1432 C 0.22567 0.21663 0.48281 0.0
C1433 C 0.26028 0.1904 0.48034 0.0
C1434 C 0.22481 0.22078 0.47208 0.0
C1435 C 0.21151 0.20675 0.46655 0.0
C1436 C 0.19885 0.18832 0.47167 0.0
C1437 C 0.19979 0.18426 0.48243 0.0
C1438 C 0.21304 0.19843 0.48795 0.0
H1439 H 0.27278 0.17944 0.48191 0.0
H1440 H 0.25101 0.16897 0.4809 0.0
H1441 H 0.26012 0.20041 0.47231 0.0
H1442 H 0.23436 0.23512 0.468 0.0
H1443 H 0.21119 0.21011 0.45826 0.0
H1444 H 0.94227 0.89825 0.50736 0.0
H1445 H 0.96573 0.91902 0.49702 0.0
H1446 H 0.97757 0.99481 0.52055 0.0
H1447 H 0.95443 0.97373 0.53101 0.0
H1448 H 0.97063 0.98826 0.48965 0.0
H1449 H 0.02209 0.94547 0.5151 0.0
H1450 H 0.0013 0.92837 0.51626 0.0
H1451 H 0.00635 0.97059 0.52152 0.0
C1452 C 0.95002 0.919 0.51039 0.0
C1453 C 0.94652 0.93436 0.52 0.0
C1454 C 0.96334 0.93094 0.50446 0.0
C1455 C 0.97347 0.95813 0.50809 0.0
C1456 C 0.97005 0.97342 0.51769 0.0
H1457 H 0.0554 0.08084 0.48536 0.0
H1458 H 0.03259 0.05487 0.49518 0.0
C1459 C 0.95672 0.9616 0.5236 0.0
C1460 C 0.98723 0.9716 0.50168 0.0
H1461 H 0.02908 0.98453 0.50148 0.0
C1462 C 0.98344 0.98719 0.49217 0.0
C1463 C 0.00389 0.9702 0.50504 0.0
C1464 C 0.00873 0.95248 0.51499 0.0
C1465 C 0.99584 0.00238 0.48604 0.0
C1466 C 0.01248 0.00134 0.48946 0.0
C1467 C 0.0163 0.98535 0.49891 0.0
C1468 C 0.02611 0.01714 0.48341 0.0
C1469 C 0.99098 0.02032 0.47613 0.0
C1470 C 0.03007 0.0043 0.47358 0.0
C1471 C 0.04301 0.01922 0.46793 0.0
C1472 C 0.05228 0.04714 0.47203 0.0
C1473 C 0.04834 0.05974 0.48192 0.0
C1474 C 0.0354 0.04478 0.48757 0.0
H1475 H 0.97749 0.02613 0.47585 0.0
H1476 H 0.99794 0.04518 0.47512 0.0
H1477 H 0.99399 0.00294 0.46953 0.0
H1478 H 0.02321 0.98261 0.4703 0.0
H1479 H 0.04566 0.00909 0.4603 0.0
H1480 H 0.30554 0.89885 0.73791 0.0
H1481 H 0.28278 0.92181 0.74846 0.0
H1482 H 0.27135 0.99722 0.72475 0.0
H1483 H 0.29404 0.97466 0.71421 0.0
H1484 H 0.27769 0.99021 0.75589 0.0
H1485 H 0.22673 0.94908 0.72986 0.0
H1486 H 0.24753 0.93205 0.72874 0.0
H1487 H 0.24251 0.97446 0.72358 0.0
C1488 C 0.29821 0.92042 0.73497 0.0
C1489 C 0.30149 0.93473 0.72518 0.0
C1490 C 0.28519 0.93339 0.74098 0.0
C1491 C 0.27521 0.96076 0.73729 0.0
C1492 C 0.27864 0.9755 0.72762 0.0
H1493 H 0.19337 0.08501 0.75939 0.0
H1494 H 0.21662 0.05932 0.74992 0.0
C1495 C 0.29161 0.96255 0.72161 0.0
C1496 C 0.26137 0.97446 0.74361 0.0
H1497 H 0.21959 0.98849 0.74336 0.0
C1498 C 0.26496 0.9896 0.75321 0.0
C1499 C 0.24479 0.97355 0.74007 0.0
C1500 C 0.24009 0.95612 0.73004 0.0
C1501 C 0.25244 0.00484 0.75924 0.0
C1502 C 0.23591 0.00445 0.75562 0.0
C1503 C 0.2323 0.98889 0.74608 0.0
C1504 C 0.22217 0.02038 0.76154 0.0
C1505 C 0.25705 0.02212 0.76931 0.0
C1506 C 0.21756 0.0068 0.77117 0.0
C1507 C 0.20432 0.02148 0.77661 0.0
C1508 C 0.19544 0.04995 0.77249 0.0
C1509 C 0.2001 0.06342 0.76283 0.0
C1510 C 0.21331 0.04866 0.75738 0.0
H1511 H 0.27058 0.02714 0.76986 0.0
H1512 H 0.25035 0.04732 0.77026 0.0
H1513 H 0.25348 0.00469 0.77578 0.0
H1514 H 0.22409 0.98464 0.77443 0.0
H1515 H 0.20112 0.01071 0.78407 0.0
H1516 H 0.04829 0.23883 0.77987 0.0
H1517 H 0.02549 0.26202 0.76942 0.0
H1518 H 0.03048 0.17529 0.74838 0.0
H1519 H 0.0533 0.15178 0.75881 0.0
H1520 H 0.02757 0.27556 0.74573 0.0
H1521 H 0.97966 0.18067 0.75904 0.0
H1522 H 0.99759 0.19148 0.76677 0.0
H1523 H -0.00017 0.16404 0.75564 0.0
C1524 C 0.04447 0.22459 0.77305 0.0
C1525 C 0.05252 0.19343 0.77016 0.0
C1526 C 0.03152 0.23795 0.76708 0.0
C1527 C 0.02631 0.22019 0.7582 0.0
C1528 C 0.03434 0.1892 0.75525 0.0
H1529 H 0.94476 0.25144 0.71582 0.0
H1530 H 0.96808 0.22872 0.72576 0.0
C1531 C 0.04739 0.17595 0.76117 0.0
C1532 C 0.0125 0.23424 0.75199 0.0
H1533 H 0.97167 0.22146 0.74636 0.0
C1534 C 0.01532 0.26386 0.74585 0.0
C1535 C 0.99665 0.21864 0.75217 0.0
C1536 C 0.99309 0.18702 0.75878 0.0
C1537 C 0.00266 0.27815 0.73974 0.0
C1538 C 0.98666 0.26291 0.74003 0.0
C1539 C 0.98391 0.23317 0.74617 0.0
C1540 C 0.97264 0.27715 0.73395 0.0
C1541 C 0.00665 0.30887 0.73285 0.0
C1542 C 0.96731 0.31183 0.73533 0.0
C1543 C 0.95412 0.32511 0.72954 0.0
C1544 C 0.94587 0.3038 0.72233 0.0
C1545 C 0.95104 0.26883 0.72113 0.0
C1546 C 0.96429 0.25568 0.72688 0.0
H1547 H 0.02016 0.31079 0.73129 0.0
H1548 H 0.0 0.30692 0.72537 0.0
H1549 H 0.00275 0.33344 0.73671 0.0
H1550 H 0.97332 0.32864 0.74092 0.0
H1551 H 0.95055 0.35219 0.73062 0.0
H1552 H 0.78147 0.82669 0.53142 0.0
H1553 H 0.7587 0.80161 0.52133 0.0
H1554 H 0.79386 0.75924 0.49963 0.0
H1555 H 0.81671 0.78381 0.50974 0.0
H1556 H 0.75176 0.81384 0.49936 0.0
H1557 H 0.76442 0.67432 0.5089 0.0
H1558 H 0.77234 0.71014 0.51655 0.0
H1559 H 0.78183 0.69954 0.50443 0.0
C1560 C 0.78435 0.81183 0.52453 0.0
C1561 C 0.80087 0.80709 0.52138 0.0
C1562 C 0.77134 0.7977 0.51877 0.0
C1563 C 0.77465 0.7783 0.50982 0.0
C1564 C 0.7911 0.77381 0.50659 0.0
H1565 H 0.71425 0.66575 0.46574 0.0
H1566 H 0.73677 0.69112 0.47589 0.0
C1567 C 0.80411 0.78811 0.51231 0.0
C1568 C 0.76087 0.76307 0.50381 0.0
H1569 H 0.74354 0.68539 0.49653 0.0
C1570 C 0.74989 0.78577 0.49875 0.0
C1571 C 0.75858 0.72648 0.50304 0.0
C1572 C 0.76981 0.70107 0.50857 0.0
C1573 C 0.73678 0.77279 0.49276 0.0
C1574 C 0.73439 0.73614 0.49204 0.0
C1575 C 0.74539 0.71346 0.49712 0.0
C1576 C 0.72065 0.72075 0.48597 0.0
C1577 C 0.72589 0.79841 0.48705 0.0
C1578 C 0.7041 0.72857 0.48837 0.0
C1579 C 0.6912 0.71445 0.48251 0.0
C1580 C 0.6946 0.69193 0.47419 0.0
C1581 C 0.7112 0.6835 0.47197 0.0
C1582 C 0.72409 0.69776 0.47781 0.0
H1583 H 0.73204 0.82426 0.4861 0.0
H1584 H 0.72252 0.78827 0.47931 0.0
H1585 H 0.7143 0.80257 0.49149 0.0
H1586 H 0.70116 0.74566 0.49478 0.0
H1587 H 0.67859 0.72171 0.48439 0.0
H1588 H 0.70117 0.09919 0.26431 0.0
H1589 H 0.72442 0.07462 0.25455 0.0
H1590 H 0.71926 0.97707 0.27106 0.0
H1591 H 0.69644 0.00205 0.28109 0.0
H1592 H 0.75075 0.99392 0.26945 0.0
H1593 H 0.72158 0.00762 0.23101 0.0
H1594 H 0.72327 0.04874 0.23759 0.0
H1595 H 0.71026 0.01473 0.2428 0.0
C1596 C 0.70501 0.07247 0.26581 0.0
C1597 C 0.69701 0.05242 0.2734 0.0
C1598 C 0.71821 0.05839 0.2602 0.0
C1599 C 0.72336 0.02372 0.26191 0.0
C1600 C 0.71547 0.00382 0.26958 0.0
H1601 H 0.78391 0.90572 0.21896 0.0
H1602 H 0.76163 0.92879 0.22981 0.0
C1603 C 0.70246 0.01809 0.27531 0.0
C1604 C 0.73709 0.00821 0.25581 0.0
H1605 H 0.75019 0.99257 0.23122 0.0
C1606 C 0.75059 0.99345 0.26108 0.0
C1607 C 0.73676 0.00708 0.2449 0.0
C1608 C 0.72211 0.02005 0.23875 0.0
C1609 C 0.76383 0.97788 0.25577 0.0
C1610 C 0.76384 0.97814 0.24485 0.0
C1611 C 0.75027 0.99266 0.23958 0.0
C1612 C 0.77759 0.96299 0.23869 0.0
C1613 C 0.77743 0.96055 0.26192 0.0
C1614 C 0.79399 0.97446 0.24008 0.0
C1615 C 0.80676 0.96084 0.234 0.0
C1616 C 0.80328 0.93616 0.22627 0.0
C1617 C 0.78689 0.92483 0.22485 0.0
C1618 C 0.77418 0.938 0.23104 0.0
H1619 H 0.77306 0.95297 0.26974 0.0
H1620 H 0.78217 0.93679 0.25797 0.0
H1621 H 0.78784 0.97924 0.2629 0.0
H1622 H 0.79688 0.99446 0.24571 0.0
H1623 H 0.81928 0.97036 0.23512 0.0
H1624 H 0.92849 0.79199 0.23667 0.0
H1625 H 0.95103 0.76662 0.24695 0.0
H1626 H 0.98575 0.7904 0.22268 0.0
H1627 H 0.96336 0.81596 0.21238 0.0
H1628 H 0.97357 0.70882 0.23941 0.0
H1629 H 0.00579 0.83228 0.2503 0.0
H1630 H 0.98421 0.83121 0.24657 0.0
H1631 H 9e-05 0.82738 0.23696 0.0
C1632 C 0.94097 0.79218 0.23359 0.0
C1633 C 0.94419 0.80595 0.22374 0.0
C1634 C 0.95378 0.77754 0.23943 0.0
C1635 C 0.97 0.77691 0.23557 0.0
C1636 C 0.9733 0.79095 0.2258 0.0
H1637 H 0.06512 0.70869 0.25883 0.0
H1638 H 0.04228 0.73255 0.24867 0.0
C1639 C 0.9605 0.80531 0.21992 0.0
C1640 C 0.98346 0.7606 0.24161 0.0
H1641 H 0.01905 0.7792 0.2547 0.0
C1642 C 0.98349 0.72411 0.24281 0.0
C1643 C 0.99639 0.78075 0.24593 0.0
C1644 C 0.99667 0.82013 0.24497 0.0
C1645 C 0.99636 0.70704 0.24809 0.0
C1646 C 0.00926 0.72722 0.2525 0.0
C1647 C 0.00915 0.76379 0.25131 0.0
C1648 C 0.02301 0.71103 0.2584 0.0
C1649 C 0.99623 0.66756 0.24863 0.0
C1650 C 0.01977 0.69098 0.26723 0.0
C1651 C 0.03279 0.6768 0.27297 0.0
C1652 C 0.04936 0.68282 0.27006 0.0
C1653 C 0.05254 0.70296 0.26119 0.0
C1654 C 0.0395 0.71691 0.25543 0.0
H1655 H 0.98849 0.65596 0.24242 0.0
H1656 H 0.00896 0.65673 0.24801 0.0
H1657 H 0.99092 0.65926 0.25614 0.0
H1658 H 0.00715 0.68672 0.2698 0.0
H1659 H 0.02987 0.66117 0.27969 0.0
H1660 H 0.30825 0.7529 0.02328 0.0
H1661 H 0.28556 0.73101 0.01253 0.0
H1662 H 0.2733 0.83679 0.00373 0.0
H1663 H 0.29588 0.85899 0.01457 0.0
H1664 H 0.24581 0.79329 0.01086 0.0
H1665 H 0.28364 0.72997 0.98028 0.0
H1666 H 0.28926 0.71906 0.99331 0.0
H1667 H 0.29187 0.76317 0.98879 0.0
C1668 C 0.30071 0.77151 0.01906 0.0
C1669 C 0.30383 0.80767 0.01976 0.0
C1670 C 0.28786 0.75894 0.01287 0.0
C1671 C 0.2779 0.78229 0.00728 0.0
C1672 C 0.28095 0.81839 0.00795 0.0
H1673 H 0.20427 0.73201 0.96061 0.0
H1674 H 0.2274 0.75717 0.97035 0.0
C1675 C 0.29388 0.83099 0.01409 0.0
C1676 C 0.26394 0.76901 0.00101 0.0
H1677 H 0.25472 0.71852 0.98006 0.0
C1678 C 0.24773 0.77708 0.0041 0.0
C1679 C 0.26655 0.7481 0.99217 0.0
C1680 C 0.28376 0.73971 0.98835 0.0
C1681 C 0.23399 0.76408 -0.00132 0.0
C1682 C 0.23659 0.74238 0.99 0.0
C1683 C 0.25281 0.73496 0.98678 0.0
C1684 C 0.2226 0.72714 0.98417 0.0
C1685 C 0.21678 0.77377 0.00222 0.0
C1686 C 0.2124 0.7017 0.98871 0.0
C1687 C 0.19921 0.68726 0.98317 0.0
C1688 C 0.19598 0.69813 0.97301 0.0
C1689 C 0.20632 0.72348 0.96847 0.0
C1690 C 0.21957 0.73772 0.97399 0.0
H1691 H 0.21692 0.79624 0.00766 0.0
H1692 H 0.2088 0.78052 0.99554 0.0
H1693 H 0.21112 0.75102 0.00622 0.0
H1694 H 0.21468 0.69296 0.99653 0.0
H1695 H 0.1914 0.66793 0.98688 0.0
H1696 H 0.05248 0.60008 0.98461 0.0
H1697 H 0.02964 0.5753 0.99474 0.0
H1698 H 0.02418 0.49225 0.97248 0.0
H1699 H 0.0471 0.51649 0.96239 0.0
H1700 H 0.99575 0.56088 0.98739 0.0
H1701 H 0.02921 0.44229 0.00106 0.0
H1702 H 0.03985 0.48057 0.99623 0.0
H1703 H 0.03014 0.45068 0.98742 0.0
C1704 C 0.04648 0.5764 0.98192 0.0
C1705 C 0.05159 0.56019 0.97272 0.0
C1706 C 0.03341 0.56241 0.98768 0.0
C1707 C 0.02538 0.53181 0.98439 0.0
C1708 C 0.03036 0.51569 0.97519 0.0
H1709 H 0.94719 0.40125 0.00949 0.0
H1710 H 0.9692 0.42708 -0.00102 0.0
C1711 C 0.04335 0.52974 0.9694 0.0
C1712 C 0.01164 0.51689 0.99051 0.0
H1713 H 0.00062 0.44576 0.00488 0.0
C1714 C 0.99679 0.53579 0.99125 0.0
C1715 C 0.01308 0.48408 0.99547 0.0
C1716 C 0.02895 0.46322 0.99511 0.0
C1717 C 0.98317 0.52243 0.99672 0.0
C1718 C 0.98464 0.48969 0.00177 0.0
C1719 C -0.00048 0.47082 0.001 0.0
C1720 C 0.97097 0.47465 0.00797 0.0
C1721 C 0.96723 0.5431 0.99684 0.0
C1722 C 0.96476 0.49273 0.01656 0.0
C1723 C 0.95207 0.47823 0.02251 0.0
C1724 C 0.94547 0.44513 0.02007 0.0
C1725 C 0.95182 0.42698 0.0115 0.0
C1726 C 0.96447 0.44159 0.00552 0.0
H1727 H 0.96662 0.56193 0.99032 0.0
H1728 H 0.95629 0.52552 0.99644 0.0
H1729 H 0.96649 0.55833 0.00411 0.0
H1730 H 0.96982 0.51795 0.01871 0.0
H1731 H 0.94737 0.4931 0.02899 0.0
H1732 H 0.28411 0.44372 0.2118 0.0
H1733 H 0.26131 0.46647 0.22229 0.0
H1734 H 0.29327 0.46856 0.24893 0.0
H1735 H 0.31626 0.44649 0.23845 0.0
H1736 H 0.24737 0.43673 0.2407 0.0
H1737 H 0.27401 0.56936 0.247 0.0
H1738 H 0.28133 0.54032 0.237 0.0
H1739 H 0.28738 0.53325 0.25016 0.0
C1740 C 0.28633 0.44931 0.21987 0.0
C1741 C 0.30201 0.44352 0.22428 0.0
C1742 C 0.27327 0.46207 0.22586 0.0
C1743 C 0.27568 0.46953 0.23633 0.0
C1744 C 0.29124 0.46337 0.24081 0.0
H1745 H 0.20017 0.51069 0.28268 0.0
H1746 H 0.22321 0.48646 0.2727 0.0
C1747 C 0.3043 0.45047 0.23484 0.0
C1748 C 0.26186 0.48364 0.24257 0.0
H1749 H 0.24919 0.55596 0.25588 0.0
C1750 C 0.24775 0.46276 0.24404 0.0
C1751 C 0.26238 0.51775 0.2468 0.0
C1752 C 0.27701 0.54169 0.24512 0.0
C1753 C 0.23414 0.47503 0.24973 0.0
C1754 C 0.23478 0.50891 0.25411 0.0
C1755 C 0.24883 0.5299 0.25256 0.0
C1756 C 0.2208 0.52336 0.26013 0.0
C1757 C 0.21907 0.45196 0.25087 0.0
C1758 C 0.21201 0.55241 0.25642 0.0
C1759 C 0.19879 0.5662 0.26206 0.0
C1760 C 0.19419 0.55132 0.27157 0.0
C1761 C 0.20318 0.52237 0.27531 0.0
C1762 C 0.21637 0.50854 0.26963 0.0
H1763 H 0.21918 0.42984 0.2453 0.0
H1764 H 0.21879 0.44089 0.25878 0.0
H1765 H 0.20754 0.46735 0.24972 0.0
H1766 H 0.21528 0.56419 0.2491 0.0
H1767 H 0.19202 0.5882 0.2589 0.0
H1768 H 0.68499 0.24995 0.97343 0.0
H1769 H 0.70804 0.2738 0.98355 0.0
H1770 H 0.72909 0.17044 0.98624 0.0
H1771 H 0.70611 0.14632 0.9761 0.0
H1772 H 0.71959 0.24529 0.0051 0.0
H1773 H 0.76558 0.24122 0.97308 0.0
H1774 H 0.74353 0.24378 0.97075 0.0
H1775 H 0.75255 0.20348 0.97507 0.0
C1776 C 0.69456 0.23232 0.97615 0.0
C1777 C 0.6938 0.19629 0.97395 0.0
C1778 C 0.70764 0.24595 0.98196 0.0
C1779 C 0.72023 0.22385 0.98555 0.0
C1780 C 0.71946 0.18785 0.98348 0.0
H1781 H 0.81414 0.25894 0.0158 0.0
H1782 H 0.79047 0.23581 0.00629 0.0
C1783 C 0.70631 0.17413 0.97774 0.0
C1784 C 0.73429 0.23852 0.99142 0.0
H1785 H 0.77518 0.25988 0.98932 0.0
C1786 C 0.73176 0.2486 0.00169 0.0
C1787 C 0.75008 0.24254 0.98689 0.0
C1788 C 0.75322 0.23241 0.97582 0.0
C1789 C 0.74478 0.26217 0.00765 0.0
C1790 C 0.7606 0.26663 0.00309 0.0
C1791 C 0.76306 0.25655 0.99279 0.0
C1792 C 0.77487 0.28103 0.00892 0.0
C1793 C 0.74158 0.27062 0.01884 0.0
C1794 C 0.77407 0.3144 0.01344 0.0
C1795 C 0.78751 0.3275 0.01905 0.0
C1796 C 0.80211 0.30766 0.02012 0.0
C1797 C 0.80299 0.27464 0.01533 0.0
C1798 C 0.78951 0.26147 0.00981 0.0
H1799 H 0.73051 0.25656 0.02182 0.0
H1800 H 0.7524 0.26367 0.02372 0.0
H1801 H 0.73925 0.29913 0.01964 0.0
H1802 H 0.76305 0.33033 0.01264 0.0
H1803 H 0.78633 0.35291 0.02268 0.0
H1804 H 0.69901 0.58967 0.76186 0.0
H1805 H 0.72317 0.56465 0.75317 0.0
H1806 H 0.72534 0.4822 0.77584 0.0
H1807 H 0.70144 0.50746 0.78476 0.0
H1808 H 0.75615 0.54912 0.76264 0.0
H1809 H 0.72341 0.4326 0.74674 0.0
H1810 H 0.71251 0.47149 0.75085 0.0
H1811 H 0.72072 0.44171 0.76025 0.0
C1812 C 0.70471 0.56643 0.76508 0.0
C1813 C 0.69823 0.55052 0.774 0.0
C1814 C 0.71845 0.5521 0.76007 0.0
C1815 C 0.72588 0.52147 0.76383 0.0
C1816 C 0.71959 0.50561 0.77275 0.0
H1817 H 0.80448 0.39314 0.73716 0.0
H1818 H 0.78296 0.41644 0.74855 0.0
C1819 C 0.7059 0.52001 0.7778 0.0
C1820 C 0.74026 0.50622 0.75839 0.0
H1821 H 0.75197 0.43736 0.7433 0.0
C1822 C 0.75529 0.52464 0.75843 0.0
C1823 C 0.73907 0.47419 0.75299 0.0
C1824 C 0.72306 0.45379 0.7526 0.0
C1825 C 0.76923 0.51185 0.75317 0.0
C1826 C 0.76792 0.48028 0.7475 0.0
C1827 C 0.75294 0.46155 0.74764 0.0
C1828 C 0.78167 0.46695 0.74102 0.0
C1829 C 0.78526 0.53209 0.75383 0.0
C1830 C 0.78806 0.48757 0.733 0.0
C1831 C 0.80047 0.47451 0.72656 0.0
C1832 C 0.80661 0.44032 0.72792 0.0
C1833 C 0.80021 0.41973 0.73599 0.0
C1834 C 0.78783 0.43291 0.74246 0.0
H1835 H 0.78573 0.54852 0.7609 0.0
H1836 H 0.79614 0.51428 0.75381 0.0
H1837 H 0.78624 0.54982 0.74708 0.0
H1838 H 0.78325 0.51361 0.73159 0.0
H1839 H 0.80524 0.49125 0.72051 0.0
H1840 H 0.53167 0.06095 0.96056 0.0
H1841 H 0.5089 0.03674 0.97078 0.0
H1842 H 0.54101 0.03062 0.99731 0.0
H1843 H 0.56383 0.05489 0.98715 0.0
H1844 H 0.50728 0.97282 0.98069 0.0
H1845 H 0.50069 0.08158 0.00876 0.0
H1846 H 0.51238 0.08593 0.99696 0.0
H1847 H 0.52134 0.0643 0.00795 0.0
C1848 C 0.53388 0.05442 0.96857 0.0
C1849 C 0.54953 0.05993 0.97306 0.0
C1850 C 0.52085 0.04072 0.9744 0.0
C1851 C 0.5232 0.03237 0.98484 0.0
C1852 C 0.53882 0.03768 0.98933 0.0
H1853 H 0.46351 0.93643 0.03245 0.0
H1854 H 0.48568 0.96136 0.0219 0.0
C1855 C 0.55185 0.05151 0.98352 0.0
C1856 C 0.50945 0.01703 0.99091 0.0
H1857 H 0.48584 0.02925 0.01246 0.0
C1858 C 0.50251 0.98524 0.9876 0.0
C1859 C 0.50327 0.03334 -8e-05 0.0
C1860 C 0.50968 0.06834 0.00357 0.0
C1861 C 0.48976 0.96892 0.99318 0.0
C1862 C 0.48371 0.98507 0.00224 0.0
C1863 C 0.49058 0.01692 0.00552 0.0
C1864 C 0.47028 0.96928 0.00846 0.0
C1865 C 0.48313 0.93417 0.9895 0.0
C1866 C 0.45427 0.96567 0.00439 0.0
C1867 C 0.44152 0.95166 0.01041 0.0
C1868 C 0.44457 0.94115 0.02064 0.0
C1869 C 0.46068 0.94469 0.02465 0.0
C1870 C 0.47339 0.95876 0.01863 0.0
H1871 H 0.49153 0.92163 0.9838 0.0
H1872 H 0.48129 0.91594 0.99607 0.0
H1873 H 0.47093 0.93831 0.98573 0.0
H1874 H 0.45157 0.97424 0.9966 0.0
H1875 H 0.42921 0.94984 0.00714 0.0
H1876 H 0.44165 0.3413 0.23708 0.0
H1877 H 0.46532 0.31962 0.24702 0.0
H1878 H 0.47887 0.25184 0.2218 0.0
H1879 H 0.45562 0.2742 0.21168 0.0
H1880 H 0.47174 0.25109 0.25307 0.0
H1881 H 0.52236 0.30184 0.22827 0.0
H1882 H 0.50124 0.317 0.22719 0.0
H1883 H 0.50731 0.27608 0.22146 0.0
C1884 C 0.44982 0.32217 0.23359 0.0
C1885 C 0.44678 0.30956 0.22358 0.0
C1886 C 0.46327 0.30966 0.2393 0.0
C1887 C 0.47398 0.28451 0.23508 0.0
C1888 C 0.47094 0.27174 0.22512 0.0
H1889 H 0.55778 0.16465 0.25716 0.0
H1890 H 0.5347 0.18958 0.24733 0.0
C1891 C 0.45752 0.28423 0.2194 0.0
C1892 C 0.48799 0.27071 0.24124 0.0
H1893 H 0.53007 0.26126 0.24135 0.0
C1894 C 0.48451 0.25352 0.25056 0.0
C1895 C 0.50462 0.27391 0.23792 0.0
C1896 C 0.50917 0.29349 0.22821 0.0
C1897 C 0.4972 0.23872 0.25654 0.0
C1898 C 0.5138 0.24165 0.25317 0.0
C1899 C 0.51731 0.259 0.24388 0.0
C1900 C 0.52772 0.22673 0.25915 0.0
C1901 C 0.49272 0.21935 0.26629 0.0
C1902 C 0.53152 0.23968 0.26899 0.0
C1903 C 0.54465 0.22545 0.27463 0.0
C1904 C 0.55425 0.19807 0.27051 0.0
C1905 C 0.55049 0.1854 0.2606 0.0
C1906 C 0.53738 0.19973 0.25495 0.0
H1907 H 0.47933 0.21259 0.26656 0.0
H1908 H 0.50008 0.1949 0.26702 0.0
H1909 H 0.49555 0.23616 0.27305 0.0
H1910 H 0.52434 0.26085 0.2723 0.0
H1911 H 0.54715 0.23558 0.28227 0.0
H1912 H 0.43286 0.75386 0.72699 0.0
H1913 H 0.45634 0.72976 0.7365 0.0
H1914 H 0.48546 0.82084 0.72886 0.0
H1915 H 0.46231 0.84441 0.71889 0.0
H1916 H 0.50296 0.76033 0.72649 0.0
H1917 H 0.47189 0.76199 0.76462 0.0
H1918 H 0.46069 0.73773 0.75504 0.0
H1919 H 0.46348 0.78419 0.75351 0.0
C1920 C 0.4443 0.76865 0.72723 0.0
C1921 C 0.44564 0.8012 0.7222 0.0
C1922 C 0.45765 0.75501 0.73279 0.0
C1923 C 0.47254 0.77381 0.73356 0.0
C1924 C 0.47403 0.80604 0.72844 0.0
H1925 H 0.55 0.73718 0.77844 0.0
H1926 H 0.52748 0.76073 0.76791 0.0
C1927 C 0.46072 0.81962 0.72282 0.0
C1928 C 0.48663 0.75978 0.73962 0.0
H1929 H 0.49774 0.73242 0.7637 0.0
C1930 C 0.50185 0.75431 0.73463 0.0
C1931 C 0.48521 0.75241 0.75028 0.0
C1932 C 0.46949 0.75969 0.75621 0.0
C1933 C 0.51567 0.7413 0.73999 0.0
C1934 C 0.51408 0.73282 0.75057 0.0
C1935 C 0.49889 0.73862 0.75557 0.0
C1936 C 0.52809 0.71875 0.7567 0.0
C1937 C 0.5319 0.73754 0.73433 0.0
C1938 C 0.53587 0.68722 0.75393 0.0
C1939 C 0.54882 0.67381 0.75991 0.0
C1940 C 0.55401 0.69141 0.76887 0.0
C1941 C 0.54614 0.72286 0.77164 0.0
C1942 C 0.53332 0.73639 0.76562 0.0
H1943 H 0.53226 0.75407 0.72728 0.0
H1944 H 0.54252 0.74481 0.73934 0.0
H1945 H 0.5335 0.70986 0.73191 0.0
H1946 H 0.53177 0.67271 0.74722 0.0
H1947 H 0.55452 0.64928 0.75767 0.0
H1948 H 0.45501 0.38637 0.51526 0.0
H1949 H 0.47773 0.40939 0.5047 0.0
H1950 H 0.46204 0.51487 0.51143 0.0
H1951 H 0.43917 0.49213 0.52187 0.0
H1952 H 0.46934 0.49999 0.48988 0.0
H1953 H 0.51954 0.45975 0.51681 0.0
H1954 H 0.505 0.42619 0.51322 0.0
H1955 H 0.49811 0.46287 0.52074 0.0
C1956 C 0.45633 0.41445 0.51442 0.0
C1957 C 0.44537 0.43746 0.51944 0.0
C1958 C 0.46937 0.42753 0.50846 0.0
C1959 C 0.47163 0.46379 0.5074 0.0
C1960 C 0.46053 0.4868 0.51222 0.0
H1961 H 0.55595 0.58277 0.48586 0.0
H1962 H 0.53262 0.55812 0.49553 0.0
C1963 C 0.44755 0.47377 0.51822 0.0
C1964 C 0.48561 0.47787 0.50131 0.0
H1965 H 0.52778 0.48499 0.50098 0.0
C1966 C 0.48213 0.49668 0.49227 0.0
C1967 C 0.50222 0.47376 0.50455 0.0
C1968 C 0.50654 0.45479 0.5144 0.0
C1969 C 0.4949 0.51131 0.48632 0.0
C1970 C 0.51153 0.50676 0.48948 0.0
C1971 C 0.51499 0.48819 0.49856 0.0
C1972 C 0.52551 0.52166 0.48356 0.0
C1973 C 0.49053 0.53205 0.4768 0.0
C1974 C 0.52926 0.50905 0.47368 0.0
C1975 C 0.54255 0.52306 0.46814 0.0
C1976 C 0.55231 0.54994 0.4724 0.0
C1977 C 0.54853 0.56239 0.48233 0.0
C1978 C 0.53529 0.54823 0.48788 0.0
H1979 H 0.47717 0.53906 0.47658 0.0
H1980 H 0.49799 0.55645 0.47639 0.0
H1981 H 0.49338 0.51617 0.46985 0.0
H1982 H 0.52194 0.48827 0.47027 0.0
H1983 H 0.54509 0.51314 0.46048 0.0
H1984 H 0.17054 0.7808 0.33638 0.0
H1985 H 0.1744 0.82621 0.34953 0.0
H1986 H 0.12144 0.83417 0.35323 0.0
H1987 H 0.11744 0.78852 0.34032 0.0
H1988 H 0.13902 0.90008 0.35127 0.0
H1989 H 0.16551 0.8111 0.38104 0.0
H1990 H 0.17497 0.81024 0.36848 0.0
H1991 H 0.15409 0.79499 0.37005 0.0
C1992 C 0.15972 0.7921 0.34003 0.0
C1993 C 0.14368 0.78101 0.33728 0.0
C1994 C 0.16196 0.81805 0.34752 0.0
C1995 C 0.1482 0.83325 0.35238 0.0
C1996 C 0.13221 0.82275 0.34953 0.0
H1997 H 0.13059 0.94608 0.40793 0.0
H1998 H 0.13368 0.90352 0.394 0.0
C1999 C 0.12995 0.79681 0.3421 0.0
C2000 C 0.1503 0.8599 0.36054 0.0
H2001 H 0.16231 0.87042 0.38558 0.0
C2002 C 0.14426 0.89379 0.35874 0.0
C2003 C 0.15701 0.85132 0.37029 0.0
C2004 C 0.16319 0.81491 0.37267 0.0
C2005 C 0.14448 0.91931 0.36652 0.0
C2006 C 0.15109 0.91069 0.3763 0.0
C2007 C 0.15738 0.87694 0.37804 0.0
C2008 C 0.15043 0.93558 0.38503 0.0
C2009 C 0.13705 0.95483 0.36435 0.0
C2010 C 0.15915 0.96735 0.38469 0.0
C2011 C 0.15746 0.99172 0.39267 0.0
C2012 C 0.14709 0.98461 0.40113 0.0
C2013 C 0.13883 0.95221 0.40159 0.0
C2014 C 0.14052 0.92792 0.39361 0.0
H2015 H 0.12963 0.95497 0.35713 0.0
H2016 H 0.12898 0.96329 0.37082 0.0
H2017 H 0.14715 0.97435 0.36352 0.0
H2018 H 0.1671 0.97345 0.37821 0.0
H2019 H 0.16419 0.01621 0.39217 0.0
H2020 H 0.0783 0.28711 0.40998 0.0
H2021 H 0.07472 0.33369 0.39715 0.0
H2022 H 0.1267 0.32763 0.38961 0.0
H2023 H 0.13039 0.28142 0.40241 0.0
H2024 H 0.11595 0.39515 0.39197 0.0
H2025 H 0.07401 0.32088 0.36592 0.0
H2026 H 0.06702 0.32459 0.37903 0.0
H2027 H 0.0855 0.30017 0.37619 0.0
C2028 C 0.08893 0.29567 0.40555 0.0
C2029 C 0.10463 0.28064 0.40721 0.0
C2030 C 0.08686 0.32218 0.39821 0.0
C2031 C 0.1004 0.33375 0.39233 0.0
C2032 C 0.11609 0.31908 0.39407 0.0
H2033 H 0.10855 0.44358 0.335 0.0
H2034 H 0.10594 0.40088 0.34898 0.0
C2035 C 0.11819 0.29279 0.40142 0.0
C2036 C 0.09844 0.3613 0.38439 0.0
H2037 H 0.07994 0.3794 0.36131 0.0
C2038 C 0.108 0.39184 0.38529 0.0
C2039 C 0.08819 0.35666 0.37564 0.0
C2040 C 0.07819 0.32371 0.37405 0.0
C2041 C 0.10783 0.41767 0.3776 0.0
C2042 C 0.09749 0.41318 0.36889 0.0
C2043 C 0.08774 0.38287 0.36805 0.0
C2044 C 0.09748 0.43861 0.36026 0.0
C2045 C 0.11922 0.44882 0.3787 0.0
C2046 C 0.09311 0.47373 0.3619 0.0
C2047 C 0.09468 0.49819 0.35395 0.0
C2048 C 0.10042 0.48781 0.34418 0.0
C2049 C 0.104 0.45229 0.34242 0.0
C2050 C 0.10255 0.42791 0.3504 0.0
H2051 H 0.12909 0.44411 0.38451 0.0
H2052 H 0.12518 0.45534 0.37123 0.0
H2053 H 0.11192 0.47187 0.38125 0.0
H2054 H 0.08879 0.48236 0.36939 0.0
H2055 H 0.09157 0.52531 0.35546 0.0
H2056 H 0.1728 0.27194 0.84009 0.0
H2057 H 0.17654 0.31261 0.85456 0.0
H2058 H 0.12355 0.31804 0.85855 0.0
H2059 H 0.11971 0.27685 0.84439 0.0
H2060 H 0.16404 0.38145 0.85713 0.0
H2061 H 0.14045 0.292 0.88737 0.0
H2062 H 0.1465 0.27685 0.87473 0.0
H2063 H 0.12646 0.29641 0.87669 0.0
C2064 C 0.16196 0.28165 0.8441 0.0
C2065 C 0.14596 0.27113 0.84109 0.0
C2066 C 0.16412 0.30496 0.85232 0.0
C2067 C 0.15033 0.3178 0.85772 0.0
C2068 C 0.13437 0.3079 0.8546 0.0
H2069 H 0.12061 0.46521 0.90242 0.0
H2070 H 0.12439 0.42009 0.88934 0.0
C2071 C 0.13219 0.28471 0.84641 0.0
C2072 C 0.15242 0.34201 0.86653 0.0
H2073 H 0.14162 0.35299 0.89176 0.0
C2074 C 0.15942 0.37511 0.86476 0.0
C2075 C 0.14647 0.33346 0.87647 0.0
C2076 C 0.1397 0.29761 0.87898 0.0
C2077 C 0.15974 0.40067 0.87254 0.0
C2078 C 0.15301 0.39264 0.88233 0.0
C2079 C 0.14668 0.35905 0.88422 0.0
C2080 C 0.15113 0.41954 0.89043 0.0
C2081 C 0.16647 0.43661 0.87013 0.0
C2082 C 0.16495 0.43387 0.89545 0.0
C2083 C 0.16284 0.45951 0.90305 0.0
C2084 C 0.14685 0.47113 0.90575 0.0
C2085 C 0.13307 0.45643 0.9007 0.0
C2086 C 0.1352 0.43081 0.89316 0.0
H2087 H 0.16918 0.43998 0.86179 0.0
H2088 H 0.15752 0.45709 0.87256 0.0
H2089 H 0.17813 0.44081 0.87451 0.0
H2090 H 0.17733 0.42511 0.89352 0.0
H2091 H 0.17369 0.47002 0.90687 0.0
H2092 H 0.12899 0.76664 0.8956 0.0
H2093 H 0.12436 0.81355 0.88314 0.0
H2094 H 0.07368 0.82298 0.89332 0.0
H2095 H 0.07808 0.77521 0.90568 0.0
H2096 H 0.07788 0.82314 0.87142 0.0
H2097 H 0.11953 0.91778 0.89092 0.0
H2098 H 0.12909 0.8762 0.88838 0.0
H2099 H 0.11192 0.87873 0.89718 0.0
C2100 C 0.1168 0.77839 0.89513 0.0
C2101 C 0.1039 0.76723 0.90164 0.0
C2102 C 0.11423 0.80544 0.88808 0.0
C2103 C 0.09876 0.82202 0.88743 0.0
C2104 C 0.08574 0.81062 0.89377 0.0
H2105 H 0.09008 0.01865 0.85368 0.0
H2106 H 0.08662 0.9731 0.86678 0.0
C2107 C 0.08831 0.78353 0.90086 0.0
C2108 C 0.09631 0.85127 0.88012 0.0
H2109 H 0.11141 0.93178 0.87372 0.0
C2110 C 0.08506 0.84709 0.87196 0.0
C2111 C 0.1055 0.88266 0.88096 0.0
C2112 C 0.11707 0.88936 0.88989 0.0
C2113 C 0.08328 0.873 0.86435 0.0
C2114 C 0.09318 0.90353 0.86488 0.0
C2115 C 0.10392 0.90824 0.87328 0.0
C2116 C 0.09323 0.93037 0.85662 0.0
C2117 C 0.07084 0.86743 0.85582 0.0
C2118 C 0.09792 0.9214 0.84654 0.0
C2119 C 0.0999 0.94736 0.83905 0.0
C2120 C 0.09742 0.98279 0.84154 0.0
C2121 C 0.09225 0.99159 0.85157 0.0
C2122 C 0.0902 0.96561 0.85904 0.0
H2123 H 0.06091 0.84896 0.8582 0.0
H2124 H 0.06506 0.89254 0.85343 0.0
H2125 H 0.07723 0.85598 0.84903 0.0
H2126 H 0.10073 0.89448 0.84457 0.0
H2127 H 0.10412 0.93984 0.83143 0.0
H2128 H 0.85535 0.18863 0.66311 0.0
H2129 H 0.85272 0.14368 0.64977 0.0
H2130 H 0.83091 0.21967 0.6292 0.0
H2131 H 0.83409 0.26502 0.64243 0.0
H2132 H 0.82788 0.11518 0.63887 0.0
H2133 H 0.87005 0.18762 0.61261 0.0
H2134 H 0.86685 0.20052 0.62582 0.0
H2135 H 0.85184 0.21175 0.6161 0.0
C2136 C 0.84979 0.19557 0.65579 0.0
C2137 C 0.84508 0.23028 0.65374 0.0
C2138 C 0.8483 0.16992 0.64817 0.0
C2139 C 0.84197 0.17851 0.6384 0.0
C2140 C 0.83628 0.2127 0.63657 0.0
H2141 H 0.82569 0.01326 0.59211 0.0
H2142 H 0.82085 0.06002 0.60463 0.0
C2143 C 0.83801 0.2385 0.64414 0.0
C2144 C 0.84223 0.15205 0.63003 0.0
H2145 H 0.85839 0.13542 0.60622 0.0
C2146 C 0.8345 0.11959 0.63171 0.0
C2147 C 0.85106 0.15774 0.62075 0.0
C2148 C 0.86056 0.19113 0.61872 0.0
C2149 C 0.83559 0.09244 0.62443 0.0
C2150 C 0.84425 0.09833 0.6151 0.0
C2151 C 0.85167 0.13104 0.61335 0.0
C2152 C 0.84687 0.07031 0.60735 0.0
C2153 C 0.82806 0.05733 0.62702 0.0
C2154 C 0.86307 0.06138 0.60444 0.0
C2155 C 0.86587 0.03542 0.59709 0.0
C2156 C 0.85253 0.01746 0.59253 0.0
C2157 C 0.83627 0.02664 0.5954 0.0
C2158 C 0.83347 0.05303 0.60268 0.0
H2159 H 0.82572 0.05454 0.63542 0.0
H2160 H 0.81601 0.05467 0.62297 0.0
H2161 H 0.83624 0.03558 0.6245 0.0
H2162 H 0.87361 0.07454 0.60787 0.0
H2163 H 0.87854 0.02975 0.59491 0.0
H2164 H 0.89203 0.55855 0.66198 0.0
H2165 H 0.89591 0.60279 0.64853 0.0
H2166 H 0.90514 0.52139 0.62624 0.0
H2167 H 0.90167 0.47695 0.63965 0.0
H2168 H 0.92457 0.61244 0.63328 0.0
H2169 H 0.86323 0.57988 0.61606 0.0
H2170 H 0.86852 0.56867 0.62918 0.0
H2171 H 0.87706 0.54399 0.61868 0.0
C2172 C 0.89522 0.55005 0.65427 0.0
C2173 C 0.89637 0.51418 0.65187 0.0
C2174 C 0.89737 0.57535 0.6466 0.0
C2175 C 0.90063 0.56521 0.63641 0.0
C2176 C 0.90244 0.52961 0.63405 0.0
H2177 H 0.89605 0.6827 0.5791 0.0
H2178 H 0.89956 0.63642 0.59199 0.0
C2179 C 0.90035 0.5043 0.64171 0.0
C2180 C 0.90119 0.59174 0.62814 0.0
H2181 H 0.87907 0.62308 0.60773 0.0
C2182 C 0.91467 0.61483 0.62766 0.0
C2183 C 0.88827 0.59451 0.62084 0.0
C2184 C 0.87336 0.57066 0.62119 0.0
C2185 C 0.91563 0.64069 0.61998 0.0
C2186 C 0.90252 0.64392 0.61277 0.0
C2187 C 0.88912 0.62051 0.61323 0.0
C2188 C 0.90206 0.67202 0.60489 0.0
C2189 C 0.93076 0.66385 0.61955 0.0
C2190 C 0.90237 0.70737 0.60785 0.0
C2191 C 0.90046 0.73381 0.6005 0.0
C2192 C 0.89795 0.72534 0.59007 0.0
C2193 C 0.89786 0.68995 0.5871 0.0
C2194 C 0.89991 0.66354 0.59444 0.0
H2195 H 0.9416 0.65116 0.62329 0.0
H2196 H 0.93408 0.6705 0.61148 0.0
H2197 H 0.92817 0.68855 0.62376 0.0
H2198 H 0.90353 0.71455 0.6159 0.0
H2199 H 0.90031 0.76084 0.60304 0.0
H2200 H 0.87919 0.52239 0.09529 0.0
H2201 H 0.87564 0.56827 0.10821 0.0
H2202 H 0.82485 0.58217 0.09865 0.0
H2203 H 0.8283 0.53586 0.08572 0.0
H2204 H 0.86774 0.63681 0.10528 0.0
H2205 H 0.82041 0.57168 0.12979 0.0
H2206 H 0.83205 0.54848 0.12007 0.0
H2207 H 0.81487 0.57575 0.11643 0.0
C2208 C 0.86728 0.53531 0.0959 0.0
C2209 C 0.85403 0.52563 0.08948 0.0
C2210 C 0.86525 0.5614 0.10332 0.0
C2211 C 0.84993 0.57834 0.10447 0.0
C2212 C 0.83667 0.5689 0.09804 0.0
H2213 H 0.84386 0.77443 0.13917 0.0
H2214 H 0.84107 0.73006 0.12564 0.0
C2215 C 0.83867 0.54256 0.09064 0.0
C2216 C 0.8482 0.60657 0.11223 0.0
H2217 H 0.82772 0.62978 0.13424 0.0
C2218 C 0.85895 0.63536 0.11159 0.0
C2219 C 0.83681 0.60438 0.12051 0.0
C2220 C 0.82547 0.57329 0.12184 0.0
C2221 C 0.85881 0.66186 0.11907 0.0
C2222 C 0.84729 0.65994 0.12728 0.0
C2223 C 0.83641 0.63132 0.12788 0.0
C2224 C 0.84707 0.68641 0.13562 0.0
C2225 C 0.87143 0.69095 0.11831 0.0
C2226 C 0.85057 0.67636 0.1458 0.0
C2227 C 0.85201 0.70159 0.15355 0.0
C2228 C 0.85 0.73729 0.15123 0.0
C2229 C 0.84575 0.74713 0.14113 0.0
C2230 C 0.84418 0.72187 0.1334 0.0
H2231 H 0.88183 0.68397 0.11308 0.0
H2232 H 0.86537 0.71478 0.11518 0.0
H2233 H 0.87661 0.69742 0.12601 0.0
H2234 H 0.8528 0.64911 0.14767 0.0
H2235 H 0.85538 0.69327 0.16125 0.0
H2236 H 0.88681 0.06306 0.16264 0.0
H2237 H 0.89065 0.1077 0.14934 0.0
H2238 H 0.91825 0.03399 0.13089 0.0
H2239 H 0.91425 0.989 0.14413 0.0
H2240 H 0.91789 0.13781 0.13997 0.0
H2241 H 0.88039 0.06162 0.11185 0.0
H2242 H 0.88146 0.05025 0.12533 0.0
H2243 H 0.89822 0.03907 0.11681 0.0
C2244 C 0.89392 0.05652 0.15582 0.0
C2245 C 0.90008 0.02246 0.15436 0.0
C2246 C 0.89608 0.08202 0.14822 0.0
C2247 C 0.90446 0.07394 0.13905 0.0
C2248 C 0.9114 0.0405 0.13781 0.0
H2249 H 0.92321 0.23787 0.09256 0.0
H2250 H 0.92773 0.19132 0.10526 0.0
C2251 C 0.90913 0.01488 0.14537 0.0
C2252 C 0.90504 0.10001 0.1306 0.0
H2253 H 0.89132 0.11529 0.10612 0.0
C2254 C 0.9122 0.13288 0.13253 0.0
C2255 C 0.89744 0.09353 0.12096 0.0
C2256 C 0.88881 0.05935 0.1186 0.0
C2257 C 0.91166 0.15974 0.12514 0.0
C2258 C 0.90403 0.15323 0.11551 0.0
C2259 C 0.89724 0.12009 0.1135 0.0
C2260 C 0.90164 0.18114 0.10771 0.0
C2261 C 0.9186 0.19525 0.12787 0.0
C2262 C 0.88552 0.19013 0.10468 0.0
C2263 C 0.8829 0.21614 0.09732 0.0
C2264 C 0.89637 0.2339 0.09284 0.0
C2265 C 0.91256 0.22461 0.09582 0.0
C2266 C 0.91517 0.19833 0.10317 0.0
H2267 H 0.92071 0.19804 0.1363 0.0
H2268 H 0.93067 0.19887 0.12391 0.0
H2269 H 0.91014 0.21645 0.12529 0.0
H2270 H 0.8749 0.17702 0.10804 0.0
H2271 H 0.87029 0.22204 0.09505 0.0
H2272 H 0.61873 0.77994 0.84333 0.0
H2273 H 0.62241 0.82354 0.85688 0.0
H2274 H 0.67544 0.81766 0.85312 0.0
H2275 H 0.67185 0.77459 0.83927 0.0
H2276 H 0.64014 0.81532 0.87549 0.0
H2277 H 0.66522 0.92365 0.85136 0.0
H2278 H 0.65476 0.88624 0.84587 0.0
H2279 H 0.67568 0.88217 0.85042 0.0
C2280 C 0.63118 0.78832 0.84524 0.0
C2281 C 0.64499 0.77404 0.84015 0.0
C2282 C 0.63326 0.81299 0.85306 0.0
C2283 C 0.64918 0.824 0.85594 0.0
C2284 C 0.66304 0.8098 0.85092 0.0
H2285 H 0.66103 0.95002 0.91243 0.0
H2286 H 0.66575 0.90486 0.89929 0.0
C2287 C 0.66097 0.78503 0.84307 0.0
C2288 C 0.65105 0.85 0.86431 0.0
H2289 H 0.66202 0.93478 0.8691 0.0
C2290 C 0.64509 0.84135 0.87415 0.0
C2291 C 0.65743 0.88391 0.86247 0.0
C2292 C 0.66355 0.89483 0.85195 0.0
C2293 C 0.64488 0.86606 0.88215 0.0
C2294 C 0.65105 0.90014 0.88027 0.0
C2295 C 0.65743 0.90851 0.87051 0.0
C2296 C 0.64941 0.92841 0.88801 0.0
C2297 C 0.63736 0.85601 0.89239 0.0
C2298 C 0.6391 0.95705 0.88588 0.0
C2299 C 0.6365 0.98289 0.8933 0.0
C2300 C 0.64418 0.98064 0.90301 0.0
C2301 C 0.65496 0.95248 0.90502 0.0
C2302 C 0.65755 0.92655 0.89756 0.0
H2303 H 0.63045 0.83088 0.89195 0.0
H2304 H 0.64736 0.85301 0.89819 0.0
H2305 H 0.62879 0.87674 0.89514 0.0
H2306 H 0.63277 0.95904 0.87854 0.0
H2307 H 0.62841 0.00462 0.89143 0.0
H2308 H 0.58617 0.30839 0.91371 0.0
H2309 H 0.58096 0.3541 0.90078 0.0
H2310 H 0.60559 0.2915 0.87774 0.0
H2311 H 0.61069 0.24576 0.89054 0.0
H2312 H 0.60716 0.38826 0.88942 0.0
H2313 H 0.56184 0.32304 0.8636 0.0
H2314 H 0.56543 0.30899 0.87672 0.0
H2315 H 0.57972 0.29703 0.8667 0.0
C2316 C 0.59021 0.3042 0.90584 0.0
C2317 C 0.59889 0.27364 0.90312 0.0
C2318 C 0.58727 0.33029 0.89849 0.0
C2319 C 0.59272 0.32591 0.8883 0.0
C2320 C 0.60105 0.2951 0.88553 0.0
H2321 H 0.6065 0.44131 0.83258 0.0
H2322 H 0.6024 0.39735 0.84609 0.0
C2323 C 0.60411 0.26919 0.89287 0.0
C2324 C 0.59101 0.35458 0.88071 0.0
H2325 H 0.57526 0.37408 0.85698 0.0
C2326 C 0.59998 0.38549 0.88239 0.0
C2327 C 0.58174 0.35059 0.87155 0.0
C2328 C 0.57151 0.31825 0.86954 0.0
C2329 C 0.60055 0.41202 0.87492 0.0
C2330 C 0.59151 0.40781 0.86564 0.0
C2331 C 0.58215 0.37725 0.8641 0.0
C2332 C 0.59242 0.43395 0.85722 0.0
C2333 C 0.61147 0.44347 0.87683 0.0
C2334 C 0.58767 0.46885 0.85889 0.0
C2335 C 0.59013 0.49401 0.85122 0.0
C2336 C 0.59711 0.48457 0.84169 0.0
C2337 C 0.60102 0.44927 0.83984 0.0
C2338 C 0.59872 0.42419 0.84755 0.0
H2339 H 0.62061 0.43857 0.88307 0.0
H2340 H 0.61831 0.45094 0.86973 0.0
H2341 H 0.60365 0.46599 0.87919 0.0
H2342 H 0.58238 0.47676 0.8662 0.0
H2343 H 0.58675 0.52096 0.85279 0.0
H2344 H 0.67009 0.27172 0.33938 0.0
H2345 H 0.67408 0.31926 0.35184 0.0
H2346 H 0.62352 0.30751 0.36204 0.0
H2347 H 0.61924 0.26107 0.34941 0.0
H2348 H 0.63226 0.37617 0.35792 0.0
H2349 H 0.67861 0.31168 0.38335 0.0
H2350 H 0.68379 0.31301 0.36987 0.0
H2351 H 0.66632 0.28765 0.37411 0.0
C2352 C 0.65982 0.27936 0.34426 0.0
C2353 C 0.64437 0.26247 0.34344 0.0
C2354 C 0.66218 0.30624 0.35145 0.0
C2355 C 0.64916 0.31652 0.35795 0.0
C2356 C 0.63376 0.29976 0.35713 0.0
H2357 H 0.64239 0.4387 0.41314 0.0
H2358 H 0.64533 0.39272 0.40012 0.0
C2359 C 0.63138 0.27303 0.34997 0.0
C2360 C 0.65121 0.34564 0.36537 0.0
H2361 H 0.67149 0.37023 0.38732 0.0
C2362 C 0.6409 0.375 0.36431 0.0
C2363 C 0.66241 0.3438 0.37374 0.0
C2364 C 0.67334 0.31226 0.37543 0.0
C2365 C 0.64128 0.40241 0.37149 0.0
C2366 C 0.65254 0.40071 0.37984 0.0
C2367 C 0.663 0.37154 0.38085 0.0
C2368 C 0.65281 0.42803 0.38793 0.0
C2369 C 0.62918 0.43231 0.37028 0.0
C2370 C 0.65658 0.4629 0.38546 0.0
C2371 C 0.65486 0.4892 0.39286 0.0
C2372 C 0.64951 0.481 0.40289 0.0
C2373 C 0.64663 0.44578 0.40549 0.0
C2374 C 0.64827 0.41952 0.39807 0.0
H2375 H 0.61897 0.42573 0.36487 0.0
H2376 H 0.62369 0.43963 0.37783 0.0
H2377 H 0.6358 0.4555 0.36718 0.0
H2378 H 0.66044 0.46987 0.37772 0.0
H2379 H 0.65744 0.51606 0.39069 0.0
H2380 H 0.5965 0.73434 0.39136 0.0
H2381 H 0.59326 0.77917 0.37804 0.0
H2382 H 0.5954 0.85983 0.40129 0.0
H2383 H 0.59894 0.81508 0.41465 0.0
H2384 H 0.57041 0.83086 0.37463 0.0
H2385 H 0.63246 0.88844 0.38203 0.0
H2386 H 0.62604 0.84725 0.38754 0.0
H2387 H 0.61927 0.88788 0.39316 0.0
C2388 C 0.59608 0.76162 0.39365 0.0
C2389 C 0.5981 0.77128 0.40403 0.0
C2390 C 0.59427 0.78719 0.38602 0.0
C2391 C 0.59443 0.82283 0.38865 0.0
C2392 C 0.59569 0.83249 0.39907 0.0
H2393 H 0.59215 0.01301 0.35202 0.0
H2394 H 0.58912 0.96977 0.36582 0.0
C2395 C 0.59766 0.80695 0.40668 0.0
C2396 C 0.59376 0.8498 0.38044 0.0
H2397 H 0.61535 0.91821 0.37008 0.0
C2398 C 0.58023 0.84996 0.37363 0.0
C2399 C 0.60666 0.87453 0.37911 0.0
C2400 C 0.62201 0.87441 0.38577 0.0
C2401 C 0.57918 0.87446 0.36558 0.0
C2402 C 0.59202 0.89923 0.36432 0.0
C2403 C 0.60548 0.89924 0.37115 0.0
C2404 C 0.59203 0.92494 0.3558 0.0
C2405 C 0.56434 0.87396 0.35851 0.0
C2406 C 0.59455 0.9139 0.34561 0.0
C2407 C 0.59633 0.93852 0.33771 0.0
C2408 C 0.59556 0.97456 0.33989 0.0
C2409 C 0.59256 0.98544 0.35008 0.0
C2410 C 0.59091 0.96082 0.35797 0.0
H2411 H 0.55408 0.8578 0.36168 0.0
H2412 H 0.55972 0.90097 0.35715 0.0
H2413 H 0.56803 0.86283 0.35095 0.0
H2414 H 0.59566 0.88628 0.34382 0.0
H2415 H 0.59856 0.92941 0.32992 0.0
H2416 H 0.32795 0.25048 0.14772 0.0
H2417 H 0.32349 0.20462 0.13479 0.0
H2418 H 0.36419 0.14551 0.14752 0.0
H2419 H 0.36874 0.19106 0.1604 0.0
H2420 H 0.34549 0.1823 0.12005 0.0
H2421 H 0.32822 0.07156 0.14538 0.0
H2422 H 0.32821 0.11643 0.14978 0.0
H2423 H 0.34724 0.09187 0.14931 0.0
C2424 C 0.33589 0.22761 0.14778 0.0
C2425 C 0.34864 0.22431 0.15512 0.0
C2426 C 0.33327 0.2014 0.14043 0.0
C2427 C 0.34331 0.17138 0.14031 0.0
C2428 C 0.35599 0.16798 0.14765 0.0
H2429 H 0.37143 0.00273 0.10198 0.0
H2430 H 0.36691 0.04762 0.11505 0.0
C2431 C 0.35859 0.19407 0.155 0.0
C2432 C 0.34135 0.14462 0.13214 0.0
H2433 H 0.33756 0.05653 0.12831 0.0
C2434 C 0.34344 0.15488 0.12182 0.0
C2435 C 0.33862 0.10889 0.13448 0.0
C2436 C 0.33527 0.09656 0.14533 0.0
C2437 C 0.34381 0.13006 0.11384 0.0
C2438 C 0.34188 0.09421 0.11626 0.0
C2439 C 0.33911 0.08409 0.12651 0.0
C2440 C 0.34404 0.06659 0.10839 0.0
C2441 C 0.34705 0.1421 0.10294 0.0
C2442 C 0.33256 0.06225 0.10037 0.0
C2443 C 0.33502 0.0363 0.0929 0.0
C2444 C 0.349 0.01427 0.09337 0.0
C2445 C 0.36039 0.01874 0.10148 0.0
C2446 C 0.35788 0.04452 0.10893 0.0
H2447 H 0.35052 0.17023 0.10257 0.0
H2448 H 0.35713 0.12633 0.09941 0.0
H2449 H 0.33571 0.13819 0.09824 0.0
H2450 H 0.3217 0.07884 0.09991 0.0
H2451 H 0.32591 0.03327 0.08684 0.0
H2452 H 0.39907 0.56263 0.16336 0.0
H2453 H 0.4023 0.60629 0.14967 0.0
H2454 H 0.40516 0.52381 0.12704 0.0
H2455 H 0.40143 0.48005 0.1406 0.0
H2456 H 0.42755 0.61573 0.1342 0.0
H2457 H 0.36573 0.58489 0.11755 0.0
H2458 H 0.3719 0.57051 0.13023 0.0
H2459 H 0.37945 0.54815 0.11899 0.0
C2460 C 0.40038 0.55379 0.15547 0.0
C2461 C 0.39984 0.51787 0.15306 0.0
C2462 C 0.40234 0.57874 0.14768 0.0
C2463 C 0.40373 0.56823 0.13736 0.0
C2464 C 0.40389 0.53242 0.13496 0.0
H2465 H 0.39915 0.68811 0.08036 0.0
H2466 H 0.40358 0.64134 0.09296 0.0
C2467 C 0.40192 0.50745 0.14274 0.0
C2468 C 0.4042 0.59479 0.12906 0.0
H2469 H 0.38194 0.62652 0.10873 0.0
C2470 C 0.41762 0.6181 0.1286 0.0
C2471 C 0.3912 0.59773 0.12179 0.0
C2472 C 0.37617 0.57423 0.12217 0.0
C2473 C 0.41843 0.64428 0.12101 0.0
C2474 C 0.40532 0.64748 0.11383 0.0
C2475 C 0.39202 0.62387 0.11422 0.0
C2476 C 0.40465 0.67608 0.10612 0.0
C2477 C 0.43336 0.66804 0.12068 0.0
C2478 C 0.40393 0.71112 0.10934 0.0
C2479 C 0.4015 0.73789 0.10216 0.0
C2480 C 0.3996 0.73011 0.09163 0.0
C2481 C 0.40077 0.69503 0.08839 0.0
C2482 C 0.40321 0.66827 0.09559 0.0
H2483 H 0.44422 0.65593 0.12455 0.0
H2484 H 0.43679 0.67461 0.11262 0.0
H2485 H 0.43042 0.69278 0.12479 0.0
H2486 H 0.40469 0.7177 0.11745 0.0
H2487 H 0.40083 0.76467 0.10488 0.0
H2488 H 0.36066 0.6887 0.66199 0.0
H2489 H 0.35811 0.64345 0.64872 0.0
H2490 H 0.33518 0.71824 0.62826 0.0
H2491 H 0.33803 0.7638 0.64145 0.0
H2492 H 0.33216 0.61491 0.63806 0.0
H2493 H 0.37461 0.68558 0.61152 0.0
H2494 H 0.37183 0.6984 0.62478 0.0
H2495 H 0.35665 0.71025 0.61524 0.0
C2496 C 0.35488 0.69534 0.65471 0.0
C2497 C 0.3497 0.7298 0.65269 0.0
C2498 C 0.35345 0.66952 0.64714 0.0
C2499 C 0.34677 0.67768 0.63744 0.0
C2500 C 0.34077 0.71162 0.6356 0.0
H2501 H 0.32803 0.51521 0.59077 0.0
H2502 H 0.32406 0.56225 0.60337 0.0
C2503 C 0.34236 0.73756 0.64313 0.0
C2504 C 0.34681 0.651 0.62914 0.0
H2505 H 0.36267 0.63333 0.60531 0.0
C2506 C 0.33876 0.61893 0.63088 0.0
C2507 C 0.35562 0.65622 0.61983 0.0
C2508 C 0.3653 0.68931 0.61774 0.0
C2509 C 0.33943 0.59175 0.62359 0.0
C2510 C 0.3481 0.59715 0.61424 0.0
C2511 C 0.35594 0.62939 0.61245 0.0
C2512 C 0.35022 0.56899 0.60649 0.0
C2513 C 0.33141 0.55711 0.62614 0.0
C2514 C 0.36624 0.55794 0.60384 0.0
C2515 C 0.36855 0.53161 0.59654 0.0
C2516 C 0.35488 0.51564 0.59172 0.0
C2517 C 0.33882 0.52706 0.5943 0.0
C2518 C 0.33652 0.55363 0.60159 0.0
H2519 H 0.32873 0.55462 0.63451 0.0
H2520 H 0.3195 0.55493 0.62191 0.0
H2521 H 0.33944 0.53493 0.62376 0.0
H2522 H 0.37699 0.56963 0.60747 0.0
H2523 H 0.3811 0.52403 0.59459 0.0
H2524 H 0.41361 0.2671 0.60306 0.0
H2525 H 0.41695 0.2242 0.61694 0.0
H2526 H 0.39332 0.14561 0.59811 0.0
H2527 H 0.38996 0.18825 0.58422 0.0
H2528 H 0.39171 0.1915 0.62691 0.0
H2529 H 0.43308 0.09262 0.60927 0.0
H2530 H 0.43043 0.13593 0.60392 0.0
H2531 H 0.41541 0.10218 0.60136 0.0
C2532 C 0.40927 0.24057 0.60185 0.0
C2533 C 0.4015 0.23105 0.59255 0.0
C2534 C 0.41125 0.21608 0.60976 0.0
C2535 C 0.40558 0.18161 0.60851 0.0
C2536 C 0.39817 0.17181 0.59915 0.0
H2537 H 0.36896 0.0346 0.65232 0.0
H2538 H 0.37376 0.08062 0.63962 0.0
C2539 C 0.39624 0.19625 0.59122 0.0
C2540 C 0.40598 0.15677 0.61728 0.0
H2541 H 0.41766 0.07408 0.62417 0.0
C2542 C 0.39759 0.16601 0.62636 0.0
C2543 C 0.41382 0.12371 0.61661 0.0
C2544 C 0.42384 0.11313 0.6073 0.0
C2545 C 0.39619 0.14248 0.63462 0.0
C2546 C 0.40313 0.10864 0.63369 0.0
C2547 C 0.41219 0.09993 0.62481 0.0
C2548 C 0.40038 0.08136 0.64161 0.0
C2549 C 0.38715 0.15395 0.64423 0.0
C2550 C 0.4138 0.06607 0.64681 0.0
C2551 C 0.41109 0.03975 0.65412 0.0
C2552 C 0.39491 0.02814 0.6563 0.0
C2553 C 0.38153 0.04346 0.65101 0.0
C2554 C 0.38425 0.06973 0.64373 0.0
H2555 H 0.38691 0.18295 0.64494 0.0
H2556 H 0.37414 0.14461 0.64386 0.0
H2557 H 0.393 0.14278 0.65125 0.0
H2558 H 0.42635 0.07462 0.64523 0.0
H2559 H 0.42165 0.02864 0.65811 0.0
loop_
_geom_bond_atom_site_label_1
_geom_bond_atom_site_label_2
_geom_bond_distance
_geom_bond_site_symmetry_2
_ccdc_geom_bond_type
Li0 N17 1.990 . S
Li0 O60 1.956 . S
Li0 O61 1.970 . S
Li0 O62 1.961 . S
Li1 N25 1.990 . S
Li1 O60 1.970 . S
Li1 O61 1.956 . S
Li1 O63 1.961 . S
Li2 N47 1.990 . S
Li2 O60 1.961 . S
Li2 O62 1.956 . S
Li2 O63 1.970 . S
Li3 N53 1.990 . S
Li3 O61 1.961 . S
Li3 O62 1.970 . S
Li3 O63 1.956 . S
C4 C6 1.348 . S
C4 C7 1.356 . S
C4 O60 1.325 . S
N5 C8 1.314 . S
N5 C9 1.279 . S
C6 C4 1.348 . S
C6 C8 1.353 . S
C6 H64 0.929 . S
C7 C4 1.356 . S
C7 C9 1.358 . S
C7 H65 0.930 . S
C8 N5 1.314 . S
C8 C6 1.353 . S
C8 H66 0.930 . S
C9 N5 1.279 . S
C9 C7 1.358 . S
C9 H67 0.930 . S
C10 C13 1.348 . S
C10 C14 1.356 . S
C10 O61 1.325 . S
C11 N12 1.279 . S
C11 C14 1.358 . S
C11 H68 0.930 1_545 S
N12 C11 1.279 . S
N12 C15 1.314 . S
C13 C10 1.348 . S
C13 C15 1.353 . S
C13 H69 0.929 . S
C14 C10 1.356 . S
C14 C11 1.358 . S
C14 H70 0.930 . S
C15 N12 1.314 . S
C15 C13 1.353 . S
C15 H71 0.930 . S
C16 N17 1.314 . S
C16 C21 1.353 . S
C16 H22 0.930 . S
N17 Li0 1.990 . S
N17 C16 1.314 . S
N17 C19 1.279 . S
C18 C19 1.358 . S
C18 C20 1.356 . S
C18 H72 0.930 . S
C19 N17 1.279 . S
C19 C18 1.358 . S
C19 H23 0.930 . S
C20 C18 1.356 . S
C20 C21 1.348 . S
C21 C16 1.353 . S
C21 C20 1.348 . S
C21 H73 0.929 . S
H22 C16 0.930 . S
H23 C19 0.930 . S
C24 N25 1.314 . S
C24 C26 1.353 . S
C24 H30 0.930 . S
N25 Li1 1.990 . S
N25 C24 1.314 . S
N25 C28 1.279 . S
C26 C24 1.353 . S
C26 C29 1.348 . S
C26 H74 0.929 . S
C27 C28 1.358 . S
C27 C29 1.356 . S
C27 H75 0.930 . S
C28 N25 1.279 . S
C28 C27 1.358 . S
C28 H31 0.930 . S
C29 C26 1.348 . S
C29 C27 1.356 . S
H30 C24 0.930 . S
H31 C28 0.930 . S
C32 C34 1.348 . S
C32 C35 1.356 . S
C32 O62 1.325 . S
N33 C36 1.314 . S
N33 C37 1.279 . S
C34 C32 1.348 . S
C34 C36 1.353 . S
C34 H76 0.929 . S
C35 C32 1.356 . S
C35 C37 1.358 . S
C35 H77 0.930 . S
C36 N33 1.314 . S
C36 C34 1.353 . S
C36 H78 0.930 . S
C37 N33 1.279 . S
C37 C35 1.358 . S
C37 H79 0.930 . S
C38 C39 1.348 . S
C38 C40 1.356 . S
C38 O63 1.325 . S
C39 C38 1.348 . S
C39 C41 1.353 . S
C39 H80 0.929 . S
C40 C38 1.356 . S
C40 C42 1.358 . S
C40 H81 0.930 . S
C41 C39 1.353 . S
C41 N43 1.314 . S
C41 H82 0.930 . S
C42 C40 1.358 . S
C42 N43 1.279 . S
C42 H83 0.930 . S
N43 C41 1.314 . S
N43 C42 1.279 . S
C44 C46 1.353 . S
C44 N47 1.314 . S
C44 H50 0.930 . S
C45 N47 1.279 . S
C45 C48 1.358 . S
C45 H51 0.930 . S
C46 C44 1.353 . S
C46 C49 1.348 . S
C46 H84 0.929 . S
N47 Li2 1.990 . S
N47 C44 1.314 . S
N47 C45 1.279 . S
C48 C45 1.358 . S
C48 C49 1.356 . S
C48 H85 0.930 . S
C49 C46 1.348 . S
C49 C48 1.356 . S
H50 C44 0.930 . S
H51 C45 0.930 . S
C52 N53 1.314 . S
C52 C54 1.353 1_545 S
C52 H58 0.930 . S
N53 Li3 1.990 . S
N53 C52 1.314 . S
N53 C56 1.279 . S
C54 C52 1.353 1_565 S
C54 C57 1.348 . S
C54 H86 0.929 . S
C55 C56 1.358 . S
C55 C57 1.356 1_545 S
C55 H87 0.930 . S
C56 N53 1.279 . S
C56 C55 1.358 . S
C56 H59 0.930 . S
C57 C54 1.348 . S
C57 C55 1.356 1_565 S
H58 C52 0.930 . S
H59 C56 0.930 . S
O60 Li0 1.956 . S
O60 Li1 1.970 . S
O60 Li2 1.961 . S
O60 C4 1.325 . S
O61 Li0 1.970 . S
O61 Li1 1.956 . S
O61 Li3 1.961 . S
O61 C10 1.325 . S
O62 Li0 1.961 . S
O62 Li2 1.956 . S
O62 Li3 1.970 . S
O62 C32 1.325 . S
O63 Li1 1.961 . S
O63 Li2 1.970 . S
O63 Li3 1.956 . S
O63 C38 1.325 . S
H64 C6 0.929 . S
H65 C7 0.930 . S
H66 C8 0.930 . S
H67 C9 0.930 . S
H68 C11 0.930 1_565 S
H69 C13 0.929 . S
H70 C14 0.930 . S
H71 C15 0.930 . S
H72 C18 0.930 . S
H73 C21 0.929 . S
H74 C26 0.929 . S
H75 C27 0.930 . S
H76 C34 0.929 . S
H77 C35 0.930 . S
H78 C36 0.930 . S
H79 C37 0.930 . S
H80 C39 0.929 . S
H81 C40 0.930 . S
H82 C41 0.930 . S
H83 C42 0.930 . S
H84 C46 0.929 . S
H85 C48 0.930 . S
H86 C54 0.929 . S
H87 C55 0.930 . S
Li88 N105 1.990 . S
Li88 O148 1.956 . S
Li88 O149 1.970 . S
Li88 O150 1.961 . S
Li89 N113 1.990 . S
Li89 O148 1.970 . S
Li89 O149 1.956 . S
Li89 O151 1.961 . S
Li90 N135 1.990 . S
Li90 O148 1.961 . S
Li90 O150 1.956 . S
Li90 O151 1.970 . S
Li91 N141 1.990 . S
Li91 O149 1.961 . S
Li91 O150 1.970 . S
Li91 O151 1.956 . S
C92 C94 1.348 . S
C92 C95 1.356 . S
C92 O148 1.325 . S
N93 C96 1.314 . S
N93 C97 1.279 . S
C94 C92 1.348 . S
C94 C96 1.353 . S
C94 H152 0.929 . S
C95 C92 1.356 . S
C95 C97 1.358 . S
C95 H153 0.930 . S
C96 N93 1.314 . S
C96 C94 1.353 . S
C96 H154 0.930 . S
C97 N93 1.279 . S
C97 C95 1.358 . S
C97 H155 0.930 . S
C98 C101 1.348 . S
C98 C102 1.356 . S
C98 O149 1.325 . S
C99 N100 1.279 . S
C99 C102 1.358 . S
C99 H156 0.930 . S
N100 C99 1.279 . S
N100 C103 1.314 . S
C101 C98 1.348 . S
C101 C103 1.353 . S
C101 H157 0.929 . S
C102 C98 1.356 . S
C102 C99 1.358 . S
C102 H158 0.930 . S
C103 N100 1.314 . S
C103 C101 1.353 . S
C103 H159 0.930 . S
C104 N105 1.314 . S
C104 C109 1.353 . S
C104 H110 0.930 . S
N105 Li88 1.990 . S
N105 C104 1.314 . S
N105 C107 1.279 . S
C106 C107 1.358 . S
C106 C108 1.356 . S
C106 H160 0.930 . S
C107 N105 1.279 . S
C107 C106 1.358 . S
C107 H111 0.930 . S
C108 C106 1.356 . S
C108 C109 1.348 . S
C109 C104 1.353 . S
C109 C108 1.348 . S
C109 H161 0.929 . S
H110 C104 0.930 . S
H111 C107 0.930 . S
C112 N113 1.314 . S
C112 C114 1.353 1_545 S
C112 H118 0.930 . S
N113 Li89 1.990 . S
N113 C112 1.314 . S
N113 C116 1.279 . S
C114 C112 1.353 1_565 S
C114 C117 1.348 . S
C114 H162 0.929 . S
C115 C116 1.358 . S
C115 C117 1.356 1_545 S
C115 H163 0.930 . S
C116 N113 1.279 . S
C116 C115 1.358 . S
C116 H119 0.930 . S
C117 C114 1.348 . S
C117 C115 1.356 1_565 S
H118 C112 0.930 . S
H119 C116 0.930 . S
C120 C122 1.348 . S
C120 C123 1.356 . S
C120 O150 1.325 . S
N121 C124 1.314 . S
N121 C125 1.279 . S
C122 C120 1.348 . S
C122 C124 1.353 . S
C122 H164 0.929 . S
C123 C120 1.356 . S
C123 C125 1.358 . S
C123 H165 0.930 . S
C124 N121 1.314 . S
C124 C122 1.353 . S
C124 H166 0.930 . S
C125 N121 1.279 . S
C125 C123 1.358 . S
C125 H167 0.930 . S
C126 C127 1.348 . S
C126 C128 1.356 . S
C126 O151 1.325 . S
C127 C126 1.348 . S
C127 C129 1.353 . S
C127 H168 0.929 . S
C128 C126 1.356 . S
C128 C130 1.358 . S
C128 H169 0.930 . S
C129 C127 1.353 . S
C129 N131 1.314 . S
C129 H170 0.930 . S
C130 C128 1.358 . S
C130 N131 1.279 . S
C130 H171 0.930 1_545 S
N131 C129 1.314 . S
N131 C130 1.279 . S
C132 C134 1.353 . S
C132 N135 1.314 . S
C132 H138 0.930 . S
C133 N135 1.279 . S
C133 C136 1.358 . S
C133 H139 0.930 . S
C134 C132 1.353 . S
C134 C137 1.348 . S
C134 H172 0.929 . S
N135 Li90 1.990 . S
N135 C132 1.314 . S
N135 C133 1.279 . S
C136 C133 1.358 . S
C136 C137 1.356 . S
C136 H173 0.930 . S
C137 C134 1.348 . S
C137 C136 1.356 . S
H138 C132 0.930 . S
H139 C133 0.930 . S
C140 N141 1.314 . S
C140 C142 1.353 . S
C140 H146 0.930 . S
N141 Li91 1.990 . S
N141 C140 1.314 . S
N141 C144 1.279 . S
C142 C140 1.353 . S
C142 C145 1.348 . S
C142 H174 0.929 . S
C143 C144 1.358 . S
C143 C145 1.356 . S
C143 H175 0.930 . S
C144 N141 1.279 . S
C144 C143 1.358 . S
C144 H147 0.930 . S
C145 C142 1.348 . S
C145 C143 1.356 . S
H146 C140 0.930 . S
H147 C144 0.930 . S
O148 Li88 1.956 . S
O148 Li89 1.970 . S
O148 Li90 1.961 . S
O148 C92 1.325 . S
O149 Li88 1.970 . S
O149 Li89 1.956 . S
O149 Li91 1.961 . S
O149 C98 1.325 . S
O150 Li88 1.961 . S
O150 Li90 1.956 . S
O150 Li91 1.970 . S
O150 C120 1.325 . S
O151 Li89 1.961 . S
O151 Li90 1.970 . S
O151 Li91 1.956 . S
O151 C126 1.325 . S
H152 C94 0.929 . S
H153 C95 0.930 . S
H154 C96 0.930 . S
H155 C97 0.930 . S
H156 C99 0.930 . S
H157 C101 0.929 . S
H158 C102 0.930 . S
H159 C103 0.930 . S
H160 C106 0.930 . S
H161 C109 0.929 . S
H162 C114 0.929 . S
H163 C115 0.930 . S
H164 C122 0.929 . S
H165 C123 0.930 . S
H166 C124 0.930 . S
H167 C125 0.930 . S
H168 C127 0.929 . S
H169 C128 0.930 . S
H170 C129 0.930 . S
H171 C130 0.930 1_565 S
H172 C134 0.929 . S
H173 C136 0.930 . S
H174 C142 0.929 . S
H175 C143 0.930 . S
Li176 N193 1.990 . S
Li176 O236 1.956 . S
Li176 O237 1.970 . S
Li176 O238 1.961 . S
Li177 N201 1.990 . S
Li177 O236 1.970 . S
Li177 O237 1.956 . S
Li177 O239 1.961 . S
Li178 N223 1.990 . S
Li178 O236 1.961 . S
Li178 O238 1.956 . S
Li178 O239 1.970 . S
Li179 N229 1.990 . S
Li179 O237 1.961 . S
Li179 O238 1.970 . S
Li179 O239 1.956 . S
C180 C182 1.348 . S
C180 C183 1.356 . S
C180 O236 1.325 . S
N181 C184 1.314 . S
N181 C185 1.279 . S
C182 C180 1.348 . S
C182 C184 1.353 . S
C182 H240 0.929 . S
C183 C180 1.356 . S
C183 C185 1.358 . S
C183 H241 0.930 . S
C184 N181 1.314 . S
C184 C182 1.353 . S
C184 H242 0.930 . S
C185 N181 1.279 . S
C185 C183 1.358 . S
C185 H243 0.930 . S
C186 C189 1.348 . S
C186 C190 1.356 . S
C186 O237 1.325 . S
C187 N188 1.280 1_565 S
C187 C190 1.358 . S
C187 H244 0.930 . S
N188 C187 1.280 1_545 S
N188 C191 1.315 1_545 S
C189 C186 1.348 . S
C189 C191 1.353 . S
C189 H245 0.929 . S
C190 C186 1.356 . S
C190 C187 1.358 . S
C190 H246 0.930 . S
C191 N188 1.315 1_565 S
C191 C189 1.353 . S
C191 H247 0.930 . S
C192 N193 1.314 . S
C192 C197 1.353 . S
C192 H198 0.930 . S
N193 Li176 1.990 . S
N193 C192 1.314 . S
N193 C195 1.279 . S
C194 C195 1.358 . S
C194 C196 1.356 . S
C194 H248 0.930 . S
C195 N193 1.279 . S
C195 C194 1.358 . S
C195 H199 0.930 . S
C196 C194 1.356 . S
C196 C197 1.348 . S
C197 C192 1.353 . S
C197 C196 1.348 . S
C197 H249 0.929 . S
H198 C192 0.930 . S
H199 C195 0.930 . S
C200 N201 1.314 . S
C200 C202 1.353 . S
C200 H206 0.930 . S
N201 Li177 1.990 . S
N201 C200 1.314 . S
N201 C204 1.279 . S
C202 C200 1.353 . S
C202 C205 1.348 1_565 S
C202 H250 0.929 . S
C203 C204 1.358 1_545 S
C203 C205 1.356 . S
C203 H251 0.930 . S
C204 N201 1.279 . S
C204 C203 1.358 1_565 S
C204 H207 0.930 . S
C205 C202 1.348 1_545 S
C205 C203 1.356 . S
H206 C200 0.930 . S
H207 C204 0.930 . S
C208 C210 1.348 . S
C208 C211 1.356 . S
C208 O238 1.325 . S
N209 C212 1.314 . S
N209 C213 1.279 . S
C210 C208 1.348 . S
C210 C212 1.353 . S
C210 H252 0.929 . S
C211 C208 1.356 . S
C211 C213 1.358 . S
C211 H253 0.930 . S
C212 N209 1.314 . S
C212 C210 1.353 . S
C212 H254 0.930 . S
C213 N209 1.279 . S
C213 C211 1.358 . S
C213 H255 0.930 . S
C214 C215 1.348 . S
C214 C216 1.356 . S
C214 O239 1.325 . S
C215 C214 1.348 . S
C215 C217 1.353 . S
C215 H256 0.929 . S
C216 C214 1.356 . S
C216 C218 1.358 . S
C216 H257 0.930 . S
C217 C215 1.353 . S
C217 N219 1.314 . S
C217 H258 0.930 . S
C218 C216 1.358 . S
C218 N219 1.279 . S
C218 H259 0.930 . S
N219 C217 1.314 . S
N219 C218 1.279 . S
C220 C222 1.353 . S
C220 N223 1.314 . S
C220 H226 0.930 . S
C221 N223 1.279 . S
C221 C224 1.358 . S
C221 H227 0.930 . S
C222 C220 1.353 . S
C222 C225 1.348 . S
C222 H260 0.929 . S
N223 Li178 1.990 . S
N223 C220 1.314 . S
N223 C221 1.279 . S
C224 C221 1.358 . S
C224 C225 1.356 . S
C224 H261 0.930 . S
C225 C222 1.348 . S
C225 C224 1.356 . S
H226 C220 0.930 . S
H227 C221 0.930 . S
C228 N229 1.314 . S
C228 C230 1.353 . S
C228 H234 0.930 . S
N229 Li179 1.990 . S
N229 C228 1.314 . S
N229 C232 1.279 . S
C230 C228 1.353 . S
C230 C233 1.348 . S
C230 H262 0.929 . S
C231 C232 1.358 . S
C231 C233 1.356 . S
C231 H263 0.930 . S
C232 N229 1.279 . S
C232 C231 1.358 . S
C232 H235 0.930 . S
C233 C230 1.348 . S
C233 C231 1.356 . S
H234 C228 0.930 . S
H235 C232 0.930 . S
O236 Li176 1.956 . S
O236 Li177 1.970 . S
O236 Li178 1.961 . S
O236 C180 1.325 . S
O237 Li176 1.970 . S
O237 Li177 1.956 . S
O237 Li179 1.961 . S
O237 C186 1.325 . S
O238 Li176 1.961 . S
O238 Li178 1.956 . S
O238 Li179 1.970 . S
O238 C208 1.325 . S
O239 Li177 1.961 . S
O239 Li178 1.970 . S
O239 Li179 1.956 . S
O239 C214 1.325 . S
H240 C182 0.929 . S
H241 C183 0.930 . S
H242 C184 0.930 . S
H243 C185 0.930 . S
H244 C187 0.930 . S
H245 C189 0.929 . S
H246 C190 0.930 . S
H247 C191 0.930 . S
H248 C194 0.930 . S
H249 C197 0.929 . S
H250 C202 0.929 . S
H251 C203 0.930 . S
H252 C210 0.929 . S
H253 C211 0.930 . S
H254 C212 0.930 . S
H255 C213 0.930 . S
H256 C215 0.929 . S
H257 C216 0.930 . S
H258 C217 0.930 . S
H259 C218 0.930 . S
H260 C222 0.929 . S
H261 C224 0.930 . S
H262 C230 0.929 . S
H263 C231 0.930 . S
Li264 N281 1.990 . S
Li264 O324 1.956 . S
Li264 O325 1.970 . S
Li264 O326 1.961 . S
Li265 N289 1.990 . S
Li265 O324 1.970 . S
Li265 O325 1.956 . S
Li265 O327 1.961 . S
Li266 N311 1.990 . S
Li266 O324 1.961 . S
Li266 O326 1.956 . S
Li266 O327 1.970 . S
Li267 N317 1.990 . S
Li267 O325 1.961 . S
Li267 O326 1.970 . S
Li267 O327 1.956 . S
C268 C270 1.348 . S
C268 C271 1.356 . S
C268 O324 1.325 . S
N269 C272 1.315 1_545 S
N269 C273 1.280 1_545 S
C270 C268 1.348 . S
C270 C272 1.353 . S
C270 H328 0.929 . S
C271 C268 1.356 . S
C271 C273 1.358 . S
C271 H329 0.930 . S
C272 N269 1.315 1_565 S
C272 C270 1.353 . S
C272 H330 0.930 . S
C273 N269 1.280 1_565 S
C273 C271 1.358 . S
C273 H331 0.930 . S
C274 C277 1.348 . S
C274 C278 1.356 . S
C274 O325 1.325 . S
C275 N276 1.279 . S
C275 C278 1.358 . S
C275 H332 0.930 . S
N276 C275 1.279 . S
N276 C279 1.314 . S
C277 C274 1.348 . S
C277 C279 1.353 . S
C277 H333 0.929 . S
C278 C274 1.356 . S
C278 C275 1.358 . S
C278 H334 0.930 . S
C279 N276 1.314 . S
C279 C277 1.353 . S
C279 H335 0.930 . S
C280 N281 1.314 . S
C280 C285 1.353 . S
C280 H286 0.930 . S
N281 Li264 1.990 . S
N281 C280 1.314 . S
N281 C283 1.279 . S
C282 C283 1.358 1_545 S
C282 C284 1.356 . S
C282 H336 0.930 . S
C283 N281 1.279 . S
C283 C282 1.358 1_565 S
C283 H287 0.930 . S
C284 C282 1.356 . S
C284 C285 1.348 1_545 S
C285 C280 1.353 . S
C285 C284 1.348 1_565 S
C285 H337 0.929 . S
H286 C280 0.930 . S
H287 C283 0.930 . S
C288 N289 1.314 . S
C288 C290 1.353 . S
C288 H294 0.930 . S
N289 Li265 1.990 . S
N289 C288 1.314 . S
N289 C292 1.279 . S
C290 C288 1.353 . S
C290 C293 1.348 . S
C290 H338 0.929 . S
C291 C292 1.358 . S
C291 C293 1.356 . S
C291 H339 0.930 . S
C292 N289 1.279 . S
C292 C291 1.358 . S
C292 H295 0.930 . S
C293 C290 1.348 . S
C293 C291 1.356 . S
H294 C288 0.930 . S
H295 C292 0.930 . S
C296 C298 1.348 . S
C296 C299 1.356 . S
C296 O326 1.325 . S
N297 C300 1.314 . S
N297 C301 1.279 . S
C298 C296 1.348 . S
C298 C300 1.353 . S
C298 H340 0.929 . S
C299 C296 1.356 . S
C299 C301 1.358 . S
C299 H341 0.930 . S
C300 N297 1.314 . S
C300 C298 1.353 . S
C300 H342 0.930 . S
C301 N297 1.279 . S
C301 C299 1.358 . S
C301 H343 0.930 . S
C302 C303 1.348 . S
C302 C304 1.356 . S
C302 O327 1.325 . S
C303 C302 1.348 . S
C303 C305 1.353 . S
C303 H344 0.929 . S
C304 C302 1.356 . S
C304 C306 1.358 . S
C304 H345 0.930 . S
C305 C303 1.353 . S
C305 N307 1.314 . S
C305 H346 0.930 . S
C306 C304 1.358 . S
C306 N307 1.279 . S
C306 H347 0.930 . S
N307 C305 1.314 . S
N307 C306 1.279 . S
C308 C310 1.353 . S
C308 N311 1.314 . S
C308 H314 0.930 . S
C309 N311 1.279 . S
C309 C312 1.358 . S
C309 H315 0.930 . S
C310 C308 1.353 . S
C310 C313 1.348 . S
C310 H348 0.929 . S
N311 Li266 1.990 . S
N311 C308 1.314 . S
N311 C309 1.279 . S
C312 C309 1.358 . S
C312 C313 1.356 . S
C312 H349 0.930 . S
C313 C310 1.348 . S
C313 C312 1.356 . S
H314 C308 0.930 . S
H315 C309 0.930 . S
C316 N317 1.314 . S
C316 C318 1.353 . S
C316 H322 0.930 . S
N317 Li267 1.990 . S
N317 C316 1.314 . S
N317 C320 1.279 . S
C318 C316 1.353 . S
C318 C321 1.348 . S
C318 H350 0.929 . S
C319 C320 1.358 . S
C319 C321 1.356 . S
C319 H351 0.930 . S
C320 N317 1.279 . S
C320 C319 1.358 . S
C320 H323 0.930 . S
C321 C318 1.348 . S
C321 C319 1.356 . S
H322 C316 0.930 . S
H323 C320 0.930 . S
O324 Li264 1.956 . S
O324 Li265 1.970 . S
O324 Li266 1.961 . S
O324 C268 1.325 . S
O325 Li264 1.970 . S
O325 Li265 1.956 . S
O325 Li267 1.961 . S
O325 C274 1.325 . S
O326 Li264 1.961 . S
O326 Li266 1.956 . S
O326 Li267 1.970 . S
O326 C296 1.325 . S
O327 Li265 1.961 . S
O327 Li266 1.970 . S
O327 Li267 1.956 . S
O327 C302 1.325 . S
H328 C270 0.929 . S
H329 C271 0.930 . S
H330 C272 0.930 . S
H331 C273 0.930 . S
H332 C275 0.930 . S
H333 C277 0.929 . S
H334 C278 0.930 . S
H335 C279 0.930 . S
H336 C282 0.930 . S
H337 C285 0.929 . S
H338 C290 0.929 . S
H339 C291 0.930 . S
H340 C298 0.929 . S
H341 C299 0.930 . S
H342 C300 0.930 . S
H343 C301 0.930 . S
H344 C303 0.929 . S
H345 C304 0.930 . S
H346 C305 0.930 . S
H347 C306 0.930 . S
H348 C310 0.929 . S
H349 C312 0.930 . S
H350 C318 0.929 . S
H351 C319 0.930 . S
Li352 N369 1.990 . S
Li352 O412 1.956 . S
Li352 O413 1.970 . S
Li352 O414 1.961 . S
Li353 N377 1.990 . S
Li353 O412 1.970 . S
Li353 O413 1.956 . S
Li353 O415 1.961 . S
Li354 N399 1.990 . S
Li354 O412 1.961 . S
Li354 O414 1.956 . S
Li354 O415 1.970 . S
Li355 N405 1.990 . S
Li355 O413 1.961 . S
Li355 O414 1.970 . S
Li355 O415 1.956 . S
C356 C358 1.348 . S
C356 C359 1.356 . S
C356 O412 1.325 . S
N357 C360 1.314 . S
N357 C361 1.279 . S
C358 C356 1.348 . S
C358 C360 1.353 . S
C358 H416 0.929 . S
C359 C356 1.356 . S
C359 C361 1.358 . S
C359 H417 0.930 . S
C360 N357 1.314 . S
C360 C358 1.353 . S
C360 H418 0.930 . S
C361 N357 1.279 . S
C361 C359 1.358 . S
C361 H419 0.930 . S
C362 C365 1.348 . S
C362 C366 1.356 . S
C362 O413 1.325 . S
C363 N364 1.279 . S
C363 C366 1.358 . S
C363 H420 0.930 . S
N364 C363 1.279 . S
N364 C367 1.314 . S
C365 C362 1.348 . S
C365 C367 1.353 . S
C365 H421 0.929 . S
C366 C362 1.356 . S
C366 C363 1.358 . S
C366 H422 0.930 . S
C367 N364 1.314 . S
C367 C365 1.353 . S
C367 H423 0.930 . S
C368 N369 1.314 . S
C368 C373 1.353 . S
C368 H374 0.930 . S
N369 Li352 1.990 . S
N369 C368 1.314 . S
N369 C371 1.279 . S
C370 C371 1.358 . S
C370 C372 1.356 . S
C370 H424 0.930 . S
C371 N369 1.279 . S
C371 C370 1.358 . S
C371 H375 0.930 . S
C372 C370 1.356 . S
C372 C373 1.348 . S
C373 C368 1.353 . S
C373 C372 1.348 . S
C373 H425 0.929 . S
H374 C368 0.930 . S
H375 C371 0.930 . S
C376 N377 1.314 . S
C376 C378 1.353 . S
C376 H382 0.930 . S
N377 Li353 1.990 . S
N377 C376 1.314 . S
N377 C380 1.279 . S
C378 C376 1.353 . S
C378 C381 1.348 . S
C378 H426 0.929 . S
C379 C380 1.358 . S
C379 C381 1.356 . S
C379 H427 0.930 . S
C380 N377 1.279 . S
C380 C379 1.358 . S
C380 H383 0.930 . S
C381 C378 1.348 . S
C381 C379 1.356 . S
H382 C376 0.930 . S
H383 C380 0.930 . S
C384 C386 1.348 . S
C384 C387 1.356 . S
C384 O414 1.325 . S
N385 C388 1.314 . S
N385 C389 1.279 . S
C386 C384 1.348 . S
C386 C388 1.353 . S
C386 H428 0.929 . S
C387 C384 1.356 . S
C387 C389 1.358 . S
C387 H429 0.930 . S
C388 N385 1.314 . S
C388 C386 1.353 . S
C388 H430 0.930 . S
C389 N385 1.279 . S
C389 C387 1.358 . S
C389 H431 0.930 . S
C390 C391 1.348 . S
C390 C392 1.356 . S
C390 O415 1.325 . S
C391 C390 1.348 . S
C391 C393 1.353 . S
C391 H432 0.929 . S
C392 C390 1.356 . S
C392 C394 1.358 . S
C392 H433 0.930 . S
C393 C391 1.353 . S
C393 N395 1.314 . S
C393 H434 0.930 . S
C394 C392 1.358 . S
C394 N395 1.279 . S
C394 H435 0.930 . S
N395 C393 1.314 . S
N395 C394 1.279 . S
C396 C398 1.353 . S
C396 N399 1.314 . S
C396 H402 0.930 . S
C397 N399 1.279 . S
C397 C400 1.358 . S
C397 H403 0.930 . S
C398 C396 1.353 . S
C398 C401 1.348 . S
C398 H436 0.929 . S
N399 Li354 1.990 . S
N399 C396 1.314 . S
N399 C397 1.279 . S
C400 C397 1.358 . S
C400 C401 1.356 . S
C400 H437 0.930 . S
C401 C398 1.348 . S
C401 C400 1.356 . S
H402 C396 0.930 . S
H403 C397 0.930 . S
C404 N405 1.314 . S
C404 C406 1.353 . S
C404 H410 0.930 . S
N405 Li355 1.990 . S
N405 C404 1.314 . S
N405 C408 1.279 . S
C406 C404 1.353 . S
C406 C409 1.348 . S
C406 H438 0.929 . S
C407 C408 1.358 . S
C407 C409 1.356 . S
C407 H439 0.930 . S
C408 N405 1.279 . S
C408 C407 1.358 . S
C408 H411 0.930 . S
C409 C406 1.348 . S
C409 C407 1.356 . S
H410 C404 0.930 . S
H411 C408 0.930 . S
O412 Li352 1.956 . S
O412 Li353 1.970 . S
O412 Li354 1.961 . S
O412 C356 1.325 . S
O413 Li352 1.970 . S
O413 Li353 1.956 . S
O413 Li355 1.961 . S
O413 C362 1.325 . S
O414 Li352 1.961 . S
O414 Li354 1.956 . S
O414 Li355 1.970 . S
O414 C384 1.325 . S
O415 Li353 1.961 . S
O415 Li354 1.970 . S
O415 Li355 1.956 . S
O415 C390 1.325 . S
H416 C358 0.929 . S
H417 C359 0.930 . S
H418 C360 0.930 . S
H419 C361 0.930 . S
H420 C363 0.930 . S
H421 C365 0.929 . S
H422 C366 0.930 . S
H423 C367 0.930 . S
H424 C370 0.930 . S
H425 C373 0.929 . S
H426 C378 0.929 . S
H427 C379 0.930 . S
H428 C386 0.929 . S
H429 C387 0.930 . S
H430 C388 0.930 . S
H431 C389 0.930 . S
H432 C391 0.929 . S
H433 C392 0.930 . S
H434 C393 0.930 . S
H435 C394 0.930 . S
H436 C398 0.929 . S
H437 C400 0.930 . S
H438 C406 0.929 . S
H439 C407 0.930 . S
Li440 N457 1.990 . S
Li440 O500 1.956 . S
Li440 O501 1.970 . S
Li440 O502 1.961 . S
Li441 N465 1.990 . S
Li441 O500 1.970 . S
Li441 O501 1.956 . S
Li441 O503 1.961 . S
Li442 N487 1.990 . S
Li442 O500 1.961 . S
Li442 O502 1.956 . S
Li442 O503 1.970 . S
Li443 N493 1.990 . S
Li443 O501 1.961 . S
Li443 O502 1.970 . S
Li443 O503 1.956 . S
C444 C446 1.348 . S
C444 C447 1.356 . S
C444 O500 1.325 . S
N445 C448 1.314 . S
N445 C449 1.279 . S
C446 C444 1.348 . S
C446 C448 1.353 . S
C446 H504 0.929 . S
C447 C444 1.356 . S
C447 C449 1.358 . S
C447 H505 0.930 . S
C448 N445 1.314 . S
C448 C446 1.353 . S
C448 H506 0.930 . S
C449 N445 1.279 . S
C449 C447 1.358 . S
C449 H507 0.930 . S
C450 C453 1.348 . S
C450 C454 1.356 . S
C450 O501 1.325 . S
C451 N452 1.279 . S
C451 C454 1.358 . S
C451 H508 0.930 . S
N452 C451 1.279 . S
N452 C455 1.314 . S
C453 C450 1.348 . S
C453 C455 1.353 . S
C453 H509 0.929 . S
C454 C450 1.356 . S
C454 C451 1.358 . S
C454 H510 0.930 . S
C455 N452 1.314 . S
C455 C453 1.353 . S
C455 H511 0.930 . S
C456 N457 1.314 . S
C456 C461 1.353 . S
C456 H462 0.930 . S
N457 Li440 1.990 . S
N457 C456 1.314 . S
N457 C459 1.279 . S
C458 C459 1.358 . S
C458 C460 1.356 . S
C458 H512 0.930 . S
C459 N457 1.279 . S
C459 C458 1.358 . S
C459 H463 0.930 . S
C460 C458 1.356 . S
C460 C461 1.348 . S
C461 C456 1.353 . S
C461 C460 1.348 . S
C461 H513 0.929 . S
H462 C456 0.930 . S
H463 C459 0.930 . S
C464 N465 1.314 . S
C464 C466 1.353 . S
C464 H470 0.930 . S
N465 Li441 1.990 . S
N465 C464 1.314 . S
N465 C468 1.279 . S
C466 C464 1.353 . S
C466 C469 1.348 . S
C466 H514 0.929 . S
C467 C468 1.358 . S
C467 C469 1.356 . S
C467 H515 0.930 . S
C468 N465 1.279 . S
C468 C467 1.358 . S
C468 H471 0.930 . S
C469 C466 1.348 . S
C469 C467 1.356 . S
H470 C464 0.930 . S
H471 C468 0.930 . S
C472 C474 1.348 . S
C472 C475 1.356 . S
C472 O502 1.325 . S
N473 C476 1.314 . S
N473 C477 1.279 . S
C474 C472 1.348 . S
C474 C476 1.353 . S
C474 H516 0.929 . S
C475 C472 1.356 . S
C475 C477 1.358 . S
C475 H517 0.930 . S
C476 N473 1.314 . S
C476 C474 1.353 . S
C476 H518 0.930 . S
C477 N473 1.279 . S
C477 C475 1.358 . S
C477 H519 0.930 . S
C478 C479 1.348 . S
C478 C480 1.356 . S
C478 O503 1.325 . S
C479 C478 1.348 . S
C479 C481 1.353 . S
C479 H520 0.929 . S
C480 C478 1.356 . S
C480 C482 1.358 . S
C480 H521 0.930 . S
C481 C479 1.353 . S
C481 N483 1.314 . S
C481 H522 0.930 . S
C482 C480 1.358 . S
C482 N483 1.279 . S
C482 H523 0.930 . S
N483 C481 1.314 . S
N483 C482 1.279 . S
C484 C486 1.353 . S
C484 N487 1.314 . S
C484 H490 0.930 . S
C485 N487 1.279 . S
C485 C488 1.358 . S
C485 H491 0.930 . S
C486 C484 1.353 . S
C486 C489 1.348 . S
C486 H524 0.929 . S
N487 Li442 1.990 . S
N487 C484 1.314 . S
N487 C485 1.279 . S
C488 C485 1.358 . S
C488 C489 1.356 . S
C488 H525 0.930 . S
C489 C486 1.348 . S
C489 C488 1.356 . S
H490 C484 0.930 . S
H491 C485 0.930 . S
C492 N493 1.314 . S
C492 C494 1.353 . S
C492 H498 0.930 . S
N493 Li443 1.990 . S
N493 C492 1.314 . S
N493 C496 1.279 . S
C494 C492 1.353 . S
C494 C497 1.348 . S
C494 H526 0.929 . S
C495 C496 1.358 . S
C495 C497 1.356 . S
C495 H527 0.930 . S
C496 N493 1.279 . S
C496 C495 1.358 . S
C496 H499 0.930 . S
C497 C494 1.348 . S
C497 C495 1.356 . S
H498 C492 0.930 . S
H499 C496 0.930 . S
O500 Li440 1.956 . S
O500 Li441 1.970 . S
O500 Li442 1.961 . S
O500 C444 1.325 . S
O501 Li440 1.970 . S
O501 Li441 1.956 . S
O501 Li443 1.961 . S
O501 C450 1.325 . S
O502 Li440 1.961 . S
O502 Li442 1.956 . S
O502 Li443 1.970 . S
O502 C472 1.325 . S
O503 Li441 1.961 . S
O503 Li442 1.970 . S
O503 Li443 1.956 . S
O503 C478 1.325 . S
H504 C446 0.929 . S
H505 C447 0.930 . S
H506 C448 0.930 . S
H507 C449 0.930 . S
H508 C451 0.930 . S
H509 C453 0.929 . S
H510 C454 0.930 . S
H511 C455 0.930 . S
H512 C458 0.930 . S
H513 C461 0.929 . S
H514 C466 0.929 . S
H515 C467 0.930 . S
H516 C474 0.929 . S
H517 C475 0.930 . S
H518 C476 0.930 . S
H519 C477 0.930 . S
H520 C479 0.929 . S
H521 C480 0.930 . S
H522 C481 0.930 . S
H523 C482 0.930 . S
H524 C486 0.929 . S
H525 C488 0.930 . S
H526 C494 0.929 . S
H527 C495 0.930 . S
Li528 N545 1.990 . S
Li528 O588 1.956 . S
Li528 O589 1.970 . S
Li528 O590 1.961 . S
Li529 N553 1.990 . S
Li529 O588 1.970 . S
Li529 O589 1.956 . S
Li529 O591 1.961 . S
Li530 N575 1.990 . S
Li530 O588 1.961 . S
Li530 O590 1.956 . S
Li530 O591 1.970 . S
Li531 N581 1.990 . S
Li531 O589 1.961 . S
Li531 O590 1.970 . S
Li531 O591 1.956 . S
C532 C534 1.348 . S
C532 C535 1.356 . S
C532 O588 1.325 . S
N533 C536 1.314 . S
N533 C537 1.279 . S
C534 C532 1.348 . S
C534 C536 1.353 . S
C534 H592 0.929 . S
C535 C532 1.356 . S
C535 C537 1.358 . S
C535 H593 0.930 . S
C536 N533 1.314 . S
C536 C534 1.353 . S
C536 H594 0.930 . S
C537 N533 1.279 . S
C537 C535 1.358 . S
C537 H595 0.930 . S
C538 C541 1.348 . S
C538 C542 1.356 . S
C538 O589 1.325 . S
C539 N540 1.279 . S
C539 C542 1.358 . S
C539 H596 0.930 . S
N540 C539 1.279 . S
N540 C543 1.314 . S
C541 C538 1.348 . S
C541 C543 1.353 . S
C541 H597 0.929 . S
C542 C538 1.356 . S
C542 C539 1.358 . S
C542 H598 0.930 . S
C543 N540 1.314 . S
C543 C541 1.353 . S
C543 H599 0.930 . S
C544 N545 1.314 . S
C544 C549 1.353 . S
C544 H550 0.930 . S
N545 Li528 1.990 . S
N545 C544 1.314 . S
N545 C547 1.279 . S
C546 C547 1.358 . S
C546 C548 1.356 . S
C546 H600 0.930 . S
C547 N545 1.279 . S
C547 C546 1.358 . S
C547 H551 0.930 . S
C548 C546 1.356 . S
C548 C549 1.348 . S
C549 C544 1.353 . S
C549 C548 1.348 . S
C549 H601 0.929 . S
H550 C544 0.930 . S
H551 C547 0.930 . S
C552 N553 1.314 . S
C552 C554 1.353 . S
C552 H558 0.930 . S
N553 Li529 1.990 . S
N553 C552 1.314 . S
N553 C556 1.279 . S
C554 C552 1.353 . S
C554 C557 1.348 . S
C554 H602 0.929 . S
C555 C556 1.358 . S
C555 C557 1.356 . S
C555 H603 0.930 . S
C556 N553 1.279 . S
C556 C555 1.358 . S
C556 H559 0.930 . S
C557 C554 1.348 . S
C557 C555 1.356 . S
H558 C552 0.930 . S
H559 C556 0.930 . S
C560 C562 1.348 . S
C560 C563 1.356 . S
C560 O590 1.325 . S
N561 C564 1.314 . S
N561 C565 1.279 . S
C562 C560 1.348 . S
C562 C564 1.353 . S
C562 H604 0.929 . S
C563 C560 1.356 . S
C563 C565 1.358 . S
C563 H605 0.930 . S
C564 N561 1.314 . S
C564 C562 1.353 . S
C564 H606 0.930 . S
C565 N561 1.279 . S
C565 C563 1.358 . S
C565 H607 0.930 . S
C566 C567 1.348 . S
C566 C568 1.356 . S
C566 O591 1.325 . S
C567 C566 1.348 . S
C567 C569 1.353 . S
C567 H608 0.929 . S
C568 C566 1.356 . S
C568 C570 1.358 . S
C568 H609 0.930 . S
C569 C567 1.353 . S
C569 N571 1.314 . S
C569 H610 0.930 . S
C570 C568 1.358 . S
C570 N571 1.279 . S
C570 H611 0.930 . S
N571 C569 1.314 . S
N571 C570 1.279 . S
C572 C574 1.353 . S
C572 N575 1.314 . S
C572 H578 0.930 . S
C573 N575 1.279 . S
C573 C576 1.358 . S
C573 H579 0.930 . S
C574 C572 1.353 . S
C574 C577 1.348 . S
C574 H612 0.929 . S
N575 Li530 1.990 . S
N575 C572 1.314 . S
N575 C573 1.279 . S
C576 C573 1.358 . S
C576 C577 1.356 . S
C576 H613 0.930 . S
C577 C574 1.348 . S
C577 C576 1.356 . S
H578 C572 0.930 . S
H579 C573 0.930 . S
C580 N581 1.314 . S
C580 C582 1.353 . S
C580 H586 0.930 . S
N581 Li531 1.990 . S
N581 C580 1.314 . S
N581 C584 1.279 . S
C582 C580 1.353 . S
C582 C585 1.348 . S
C582 H614 0.929 . S
C583 C584 1.358 . S
C583 C585 1.356 . S
C583 H615 0.930 . S
C584 N581 1.279 . S
C584 C583 1.358 . S
C584 H587 0.930 . S
C585 C582 1.348 . S
C585 C583 1.356 . S
H586 C580 0.930 . S
H587 C584 0.930 . S
O588 Li528 1.956 . S
O588 Li529 1.970 . S
O588 Li530 1.961 . S
O588 C532 1.325 . S
O589 Li528 1.970 . S
O589 Li529 1.956 . S
O589 Li531 1.961 . S
O589 C538 1.325 . S
O590 Li528 1.961 . S
O590 Li530 1.956 . S
O590 Li531 1.970 . S
O590 C560 1.325 . S
O591 Li529 1.961 . S
O591 Li530 1.970 . S
O591 Li531 1.956 . S
O591 C566 1.325 . S
H592 C534 0.929 . S
H593 C535 0.930 . S
H594 C536 0.930 . S
H595 C537 0.930 . S
H596 C539 0.930 . S
H597 C541 0.929 . S
H598 C542 0.930 . S
H599 C543 0.930 . S
H600 C546 0.930 . S
H601 C549 0.929 . S
H602 C554 0.929 . S
H603 C555 0.930 . S
H604 C562 0.929 . S
H605 C563 0.930 . S
H606 C564 0.930 . S
H607 C565 0.930 . S
H608 C567 0.929 . S
H609 C568 0.930 . S
H610 C569 0.930 . S
H611 C570 0.930 . S
H612 C574 0.929 . S
H613 C576 0.930 . S
H614 C582 0.929 . S
H615 C583 0.930 . S
Li616 N633 1.990 . S
Li616 O676 1.956 . S
Li616 O677 1.970 . S
Li616 O678 1.961 . S
Li617 N641 1.990 . S
Li617 O676 1.970 . S
Li617 O677 1.956 . S
Li617 O679 1.961 . S
Li618 N663 1.990 . S
Li618 O676 1.961 . S
Li618 O678 1.956 . S
Li618 O679 1.970 . S
Li619 N669 1.990 . S
Li619 O677 1.961 . S
Li619 O678 1.970 . S
Li619 O679 1.956 . S
C620 C622 1.348 . S
C620 C623 1.356 . S
C620 O676 1.325 . S
N621 C624 1.314 . S
N621 C625 1.279 . S
C622 C620 1.348 . S
C622 C624 1.353 . S
C622 H680 0.929 . S
C623 C620 1.356 . S
C623 C625 1.358 . S
C623 H681 0.930 . S
C624 N621 1.314 . S
C624 C622 1.353 . S
C624 H682 0.930 . S
C625 N621 1.279 . S
C625 C623 1.358 . S
C625 H683 0.930 . S
C626 C629 1.348 . S
C626 C630 1.356 . S
C626 O677 1.325 . S
C627 N628 1.279 . S
C627 C630 1.358 . S
C627 H684 0.930 . S
N628 C627 1.279 . S
N628 C631 1.314 . S
C629 C626 1.348 . S
C629 C631 1.353 . S
C629 H685 0.929 . S
C630 C626 1.356 . S
C630 C627 1.358 . S
C630 H686 0.930 . S
C631 N628 1.314 . S
C631 C629 1.353 . S
C631 H687 0.930 . S
C632 N633 1.314 . S
C632 C637 1.353 . S
C632 H638 0.930 . S
N633 Li616 1.990 . S
N633 C632 1.314 . S
N633 C635 1.279 . S
C634 C635 1.358 . S
C634 C636 1.356 . S
C634 H688 0.930 . S
C635 N633 1.279 . S
C635 C634 1.358 . S
C635 H639 0.930 . S
C636 C634 1.356 . S
C636 C637 1.348 . S
C637 C632 1.353 . S
C637 C636 1.348 . S
C637 H689 0.929 . S
H638 C632 0.930 . S
H639 C635 0.930 . S
C640 N641 1.314 . S
C640 C642 1.353 . S
C640 H646 0.930 . S
N641 Li617 1.990 . S
N641 C640 1.314 . S
N641 C644 1.279 . S
C642 C640 1.353 . S
C642 C645 1.348 . S
C642 H690 0.929 . S
C643 C644 1.358 . S
C643 C645 1.356 . S
C643 H691 0.930 . S
C644 N641 1.279 . S
C644 C643 1.358 . S
C644 H647 0.930 . S
C645 C642 1.348 . S
C645 C643 1.356 . S
H646 C640 0.930 . S
H647 C644 0.930 . S
C648 C650 1.348 . S
C648 C651 1.356 . S
C648 O678 1.325 . S
N649 C652 1.314 . S
N649 C653 1.279 . S
C650 C648 1.348 . S
C650 C652 1.353 . S
C650 H692 0.929 . S
C651 C648 1.356 . S
C651 C653 1.358 . S
C651 H693 0.930 . S
C652 N649 1.314 . S
C652 C650 1.353 . S
C652 H694 0.930 . S
C653 N649 1.279 . S
C653 C651 1.358 . S
C653 H695 0.930 . S
C654 C655 1.348 . S
C654 C656 1.356 . S
C654 O679 1.325 . S
C655 C654 1.348 . S
C655 C657 1.353 . S
C655 H696 0.929 . S
C656 C654 1.356 . S
C656 C658 1.358 . S
C656 H697 0.930 . S
C657 C655 1.353 . S
C657 N659 1.314 . S
C657 H698 0.930 . S
C658 C656 1.358 . S
C658 N659 1.279 . S
C658 H699 0.930 . S
N659 C657 1.314 . S
N659 C658 1.279 . S
C660 C662 1.353 . S
C660 N663 1.314 . S
C660 H666 0.930 . S
C661 N663 1.279 . S
C661 C664 1.358 . S
C661 H667 0.930 . S
C662 C660 1.353 . S
C662 C665 1.348 . S
C662 H700 0.929 . S
N663 Li618 1.990 . S
N663 C660 1.314 . S
N663 C661 1.279 . S
C664 C661 1.358 . S
C664 C665 1.356 . S
C664 H701 0.930 . S
C665 C662 1.348 . S
C665 C664 1.356 . S
H666 C660 0.930 . S
H667 C661 0.930 . S
C668 N669 1.314 . S
C668 C670 1.353 . S
C668 H674 0.930 . S
N669 Li619 1.990 . S
N669 C668 1.314 . S
N669 C672 1.279 . S
C670 C668 1.353 . S
C670 C673 1.348 . S
C670 H702 0.929 . S
C671 C672 1.358 . S
C671 C673 1.356 . S
C671 H703 0.930 . S
C672 N669 1.279 . S
C672 C671 1.358 . S
C672 H675 0.930 . S
C673 C670 1.348 . S
C673 C671 1.356 . S
H674 C668 0.930 . S
H675 C672 0.930 . S
O676 Li616 1.956 . S
O676 Li617 1.970 . S
O676 Li618 1.961 . S
O676 C620 1.325 . S
O677 Li616 1.970 . S
O677 Li617 1.956 . S
O677 Li619 1.961 . S
O677 C626 1.325 . S
O678 Li616 1.961 . S
O678 Li618 1.956 . S
O678 Li619 1.970 . S
O678 C648 1.325 . S
O679 Li617 1.961 . S
O679 Li618 1.970 . S
O679 Li619 1.956 . S
O679 C654 1.325 . S
H680 C622 0.929 . S
H681 C623 0.930 . S
H682 C624 0.930 . S
H683 C625 0.930 . S
H684 C627 0.930 . S
H685 C629 0.929 . S
H686 C630 0.930 . S
H687 C631 0.930 . S
H688 C634 0.930 . S
H689 C637 0.929 . S
H690 C642 0.929 . S
H691 C643 0.930 . S
H692 C650 0.929 . S
H693 C651 0.930 . S
H694 C652 0.930 . S
H695 C653 0.930 . S
H696 C655 0.929 . S
H697 C656 0.930 . S
H698 C657 0.930 . S
H699 C658 0.930 . S
H700 C662 0.929 . S
H701 C664 0.930 . S
H702 C670 0.929 . S
H703 C671 0.930 . S
Li704 N721 1.990 . S
Li704 O764 1.956 . S
Li704 O765 1.970 . S
Li704 O766 1.961 . S
Li705 N729 1.990 . S
Li705 O764 1.970 . S
Li705 O765 1.956 . S
Li705 O767 1.961 . S
Li706 N751 1.990 . S
Li706 O764 1.961 . S
Li706 O766 1.956 . S
Li706 O767 1.970 . S
Li707 N757 1.990 . S
Li707 O765 1.961 . S
Li707 O766 1.970 . S
Li707 O767 1.956 . S
C708 C710 1.348 . S
C708 C711 1.356 . S
C708 O764 1.325 . S
N709 C712 1.314 . S
N709 C713 1.279 . S
C710 C708 1.348 . S
C710 C712 1.353 . S
C710 H768 0.929 . S
C711 C708 1.356 . S
C711 C713 1.358 . S
C711 H769 0.930 . S
C712 N709 1.314 . S
C712 C710 1.353 . S
C712 H770 0.930 . S
C713 N709 1.279 . S
C713 C711 1.358 . S
C713 H771 0.930 . S
C714 C717 1.348 . S
C714 C718 1.356 . S
C714 O765 1.325 . S
C715 N716 1.279 . S
C715 C718 1.358 . S
C715 H772 0.930 1_545 S
N716 C715 1.279 . S
N716 C719 1.314 . S
C717 C714 1.348 . S
C717 C719 1.353 . S
C717 H773 0.929 . S
C718 C714 1.356 . S
C718 C715 1.358 . S
C718 H774 0.930 . S
C719 N716 1.314 . S
C719 C717 1.353 . S
C719 H775 0.930 . S
C720 N721 1.314 . S
C720 C725 1.353 . S
C720 H726 0.930 . S
N721 Li704 1.990 . S
N721 C720 1.314 . S
N721 C723 1.279 . S
C722 C723 1.358 . S
C722 C724 1.356 . S
C722 H776 0.930 . S
C723 N721 1.279 . S
C723 C722 1.358 . S
C723 H727 0.930 . S
C724 C722 1.356 . S
C724 C725 1.348 . S
C725 C720 1.353 . S
C725 C724 1.348 . S
C725 H777 0.929 . S
H726 C720 0.930 . S
H727 C723 0.930 . S
C728 N729 1.314 . S
C728 C730 1.353 . S
C728 H734 0.930 . S
N729 Li705 1.990 . S
N729 C728 1.314 . S
N729 C732 1.279 . S
C730 C728 1.353 . S
C730 C733 1.348 . S
C730 H778 0.929 . S
C731 C732 1.358 . S
C731 C733 1.356 . S
C731 H779 0.930 . S
C732 N729 1.279 . S
C732 C731 1.358 . S
C732 H735 0.930 . S
C733 C730 1.348 . S
C733 C731 1.356 . S
H734 C728 0.930 . S
H735 C732 0.930 . S
C736 C738 1.348 . S
C736 C739 1.356 . S
C736 O766 1.325 . S
N737 C740 1.314 . S
N737 C741 1.279 . S
C738 C736 1.348 . S
C738 C740 1.353 . S
C738 H780 0.929 . S
C739 C736 1.356 . S
C739 C741 1.358 . S
C739 H781 0.930 . S
C740 N737 1.314 . S
C740 C738 1.353 . S
C740 H782 0.930 . S
C741 N737 1.279 . S
C741 C739 1.358 . S
C741 H783 0.930 . S
C742 C743 1.348 . S
C742 C744 1.356 . S
C742 O767 1.325 . S
C743 C742 1.348 . S
C743 C745 1.353 . S
C743 H784 0.929 . S
C744 C742 1.356 . S
C744 C746 1.358 . S
C744 H785 0.930 . S
C745 C743 1.353 . S
C745 N747 1.314 . S
C745 H786 0.930 . S
C746 C744 1.358 . S
C746 N747 1.279 . S
C746 H787 0.930 . S
N747 C745 1.314 . S
N747 C746 1.279 . S
C748 C750 1.353 . S
C748 N751 1.314 . S
C748 H754 0.930 . S
C749 N751 1.279 . S
C749 C752 1.358 . S
C749 H755 0.930 . S
C750 C748 1.353 . S
C750 C753 1.348 . S
C750 H788 0.929 . S
N751 Li706 1.990 . S
N751 C748 1.314 . S
N751 C749 1.279 . S
C752 C749 1.358 . S
C752 C753 1.356 . S
C752 H789 0.930 . S
C753 C750 1.348 . S
C753 C752 1.356 . S
H754 C748 0.930 . S
H755 C749 0.930 . S
C756 N757 1.314 . S
C756 C758 1.353 1_545 S
C756 H762 0.930 . S
N757 Li707 1.990 . S
N757 C756 1.314 . S
N757 C760 1.279 . S
C758 C756 1.353 1_565 S
C758 C761 1.348 . S
C758 H790 0.929 . S
C759 C760 1.358 . S
C759 C761 1.356 1_545 S
C759 H791 0.930 . S
C760 N757 1.279 . S
C760 C759 1.358 . S
C760 H763 0.930 . S
C761 C758 1.348 . S
C761 C759 1.356 1_565 S
H762 C756 0.930 . S
H763 C760 0.930 . S
O764 Li704 1.956 . S
O764 Li705 1.970 . S
O764 Li706 1.961 . S
O764 C708 1.325 . S
O765 Li704 1.970 . S
O765 Li705 1.956 . S
O765 Li707 1.961 . S
O765 C714 1.325 . S
O766 Li704 1.961 . S
O766 Li706 1.956 . S
O766 Li707 1.970 . S
O766 C736 1.325 . S
O767 Li705 1.961 . S
O767 Li706 1.970 . S
O767 Li707 1.956 . S
O767 C742 1.325 . S
H768 C710 0.929 . S
H769 C711 0.930 . S
H770 C712 0.930 . S
H771 C713 0.930 . S
H772 C715 0.930 1_565 S
H773 C717 0.929 . S
H774 C718 0.930 . S
H775 C719 0.930 . S
H776 C722 0.930 . S
H777 C725 0.929 . S
H778 C730 0.929 . S
H779 C731 0.930 . S
H780 C738 0.929 . S
H781 C739 0.930 . S
H782 C740 0.930 . S
H783 C741 0.930 . S
H784 C743 0.929 . S
H785 C744 0.930 . S
H786 C745 0.930 . S
H787 C746 0.930 . S
H788 C750 0.929 . S
H789 C752 0.930 . S
H790 C758 0.929 . S
H791 C759 0.930 . S
Li792 N809 1.990 . S
Li792 O852 1.956 . S
Li792 O853 1.970 . S
Li792 O854 1.961 . S
Li793 N817 1.990 . S
Li793 O852 1.970 . S
Li793 O853 1.956 . S
Li793 O855 1.961 . S
Li794 N839 1.990 . S
Li794 O852 1.961 . S
Li794 O854 1.956 . S
Li794 O855 1.970 . S
Li795 N845 1.990 . S
Li795 O853 1.961 . S
Li795 O854 1.970 . S
Li795 O855 1.956 . S
C796 C798 1.348 . S
C796 C799 1.356 . S
C796 O852 1.325 . S
N797 C800 1.314 . S
N797 C801 1.279 . S
C798 C796 1.348 . S
C798 C800 1.353 . S
C798 H856 0.929 . S
C799 C796 1.356 . S
C799 C801 1.358 . S
C799 H857 0.930 . S
C800 N797 1.314 . S
C800 C798 1.353 . S
C800 H858 0.930 . S
C801 N797 1.279 . S
C801 C799 1.358 . S
C801 H859 0.930 . S
C802 C805 1.348 . S
C802 C806 1.356 . S
C802 O853 1.325 . S
C803 N804 1.279 . S
C803 C806 1.358 . S
C803 H860 0.930 . S
N804 C803 1.279 . S
N804 C807 1.314 . S
C805 C802 1.348 . S
C805 C807 1.353 . S
C805 H861 0.929 . S
C806 C802 1.356 . S
C806 C803 1.358 . S
C806 H862 0.930 . S
C807 N804 1.314 . S
C807 C805 1.353 . S
C807 H863 0.930 . S
C808 N809 1.314 . S
C808 C813 1.353 . S
C808 H814 0.930 . S
N809 Li792 1.990 . S
N809 C808 1.314 . S
N809 C811 1.279 . S
C810 C811 1.358 . S
C810 C812 1.356 . S
C810 H864 0.930 . S
C811 N809 1.279 . S
C811 C810 1.358 . S
C811 H815 0.930 . S
C812 C810 1.356 . S
C812 C813 1.348 . S
C813 C808 1.353 . S
C813 C812 1.348 . S
C813 H865 0.929 . S
H814 C808 0.930 . S
H815 C811 0.930 . S
C816 N817 1.314 . S
C816 C818 1.353 1_545 S
C816 H822 0.930 . S
N817 Li793 1.990 . S
N817 C816 1.314 . S
N817 C820 1.279 . S
C818 C816 1.353 1_565 S
C818 C821 1.348 . S
C818 H866 0.929 . S
C819 C820 1.358 . S
C819 C821 1.356 1_545 S
C819 H867 0.930 . S
C820 N817 1.279 . S
C820 C819 1.358 . S
C820 H823 0.930 . S
C821 C818 1.348 . S
C821 C819 1.356 1_565 S
H822 C816 0.930 . S
H823 C820 0.930 . S
C824 C826 1.348 . S
C824 C827 1.356 . S
C824 O854 1.325 . S
N825 C828 1.314 . S
N825 C829 1.279 . S
C826 C824 1.348 . S
C826 C828 1.353 . S
C826 H868 0.929 . S
C827 C824 1.356 . S
C827 C829 1.358 . S
C827 H869 0.930 . S
C828 N825 1.314 . S
C828 C826 1.353 . S
C828 H870 0.930 . S
C829 N825 1.279 . S
C829 C827 1.358 . S
C829 H871 0.930 . S
C830 C831 1.348 . S
C830 C832 1.356 . S
C830 O855 1.325 . S
C831 C830 1.348 . S
C831 C833 1.353 . S
C831 H872 0.929 . S
C832 C830 1.356 . S
C832 C834 1.358 . S
C832 H873 0.930 . S
C833 C831 1.353 . S
C833 N835 1.314 . S
C833 H874 0.930 . S
C834 C832 1.358 . S
C834 N835 1.279 . S
C834 H875 0.930 1_545 S
N835 C833 1.314 . S
N835 C834 1.279 . S
C836 C838 1.353 . S
C836 N839 1.314 . S
C836 H842 0.930 . S
C837 N839 1.279 . S
C837 C840 1.358 . S
C837 H843 0.930 . S
C838 C836 1.353 . S
C838 C841 1.348 . S
C838 H876 0.929 . S
N839 Li794 1.990 . S
N839 C836 1.314 . S
N839 C837 1.279 . S
C840 C837 1.358 . S
C840 C841 1.356 . S
C840 H877 0.930 . S
C841 C838 1.348 . S
C841 C840 1.356 . S
H842 C836 0.930 . S
H843 C837 0.930 . S
C844 N845 1.314 . S
C844 C846 1.353 . S
C844 H850 0.930 . S
N845 Li795 1.990 . S
N845 C844 1.314 . S
N845 C848 1.279 . S
C846 C844 1.353 . S
C846 C849 1.348 . S
C846 H878 0.929 . S
C847 C848 1.358 . S
C847 C849 1.356 . S
C847 H879 0.930 . S
C848 N845 1.279 . S
C848 C847 1.358 . S
C848 H851 0.930 . S
C849 C846 1.348 . S
C849 C847 1.356 . S
H850 C844 0.930 . S
H851 C848 0.930 . S
O852 Li792 1.956 . S
O852 Li793 1.970 . S
O852 Li794 1.961 . S
O852 C796 1.325 . S
O853 Li792 1.970 . S
O853 Li793 1.956 . S
O853 Li795 1.961 . S
O853 C802 1.325 . S
O854 Li792 1.961 . S
O854 Li794 1.956 . S
O854 Li795 1.970 . S
O854 C824 1.325 . S
O855 Li793 1.961 . S
O855 Li794 1.970 . S
O855 Li795 1.956 . S
O855 C830 1.325 . S
H856 C798 0.929 . S
H857 C799 0.930 . S
H858 C800 0.930 . S
H859 C801 0.930 . S
H860 C803 0.930 . S
H861 C805 0.929 . S
H862 C806 0.930 . S
H863 C807 0.930 . S
H864 C810 0.930 . S
H865 C813 0.929 . S
H866 C818 0.929 . S
H867 C819 0.930 . S
H868 C826 0.929 . S
H869 C827 0.930 . S
H870 C828 0.930 . S
H871 C829 0.930 . S
H872 C831 0.929 . S
H873 C832 0.930 . S
H874 C833 0.930 . S
H875 C834 0.930 1_565 S
H876 C838 0.929 . S
H877 C840 0.930 . S
H878 C846 0.929 . S
H879 C847 0.930 . S
Li880 N897 1.990 . S
Li880 O940 1.956 . S
Li880 O941 1.970 . S
Li880 O942 1.961 . S
Li881 N905 1.990 . S
Li881 O940 1.970 . S
Li881 O941 1.956 . S
Li881 O943 1.961 . S
Li882 N927 1.990 . S
Li882 O940 1.961 . S
Li882 O942 1.956 . S
Li882 O943 1.970 . S
Li883 N933 1.990 . S
Li883 O941 1.961 . S
Li883 O942 1.970 . S
Li883 O943 1.956 . S
C884 C886 1.348 . S
C884 C887 1.356 . S
C884 O940 1.325 . S
N885 C888 1.314 . S
N885 C889 1.279 . S
C886 C884 1.348 . S
C886 C888 1.353 . S
C886 H944 0.929 . S
C887 C884 1.356 . S
C887 C889 1.358 . S
C887 H945 0.930 . S
C888 N885 1.314 . S
C888 C886 1.353 . S
C888 H946 0.930 . S
C889 N885 1.279 . S
C889 C887 1.358 . S
C889 H947 0.930 . S
C890 C893 1.348 . S
C890 C894 1.356 . S
C890 O941 1.325 . S
C891 N892 1.279 . S
C891 C894 1.358 . S
C891 H948 0.930 . S
N892 C891 1.279 . S
N892 C895 1.314 . S
C893 C890 1.348 . S
C893 C895 1.353 . S
C893 H949 0.929 . S
C894 C890 1.356 . S
C894 C891 1.358 . S
C894 H950 0.930 . S
C895 N892 1.314 . S
C895 C893 1.353 . S
C895 H951 0.930 . S
C896 N897 1.314 . S
C896 C901 1.353 . S
C896 H902 0.930 . S
N897 Li880 1.990 . S
N897 C896 1.314 . S
N897 C899 1.279 . S
C898 C899 1.358 . S
C898 C900 1.356 . S
C898 H952 0.930 . S
C899 N897 1.279 . S
C899 C898 1.358 . S
C899 H903 0.930 . S
C900 C898 1.356 . S
C900 C901 1.348 . S
C901 C896 1.353 . S
C901 C900 1.348 . S
C901 H953 0.929 . S
H902 C896 0.930 . S
H903 C899 0.930 . S
C904 N905 1.314 . S
C904 C906 1.353 . S
C904 H910 0.930 . S
N905 Li881 1.990 . S
N905 C904 1.314 . S
N905 C908 1.279 . S
C906 C904 1.353 . S
C906 C909 1.348 . S
C906 H954 0.929 . S
C907 C908 1.358 . S
C907 C909 1.356 . S
C907 H955 0.930 . S
C908 N905 1.279 . S
C908 C907 1.358 . S
C908 H911 0.930 . S
C909 C906 1.348 . S
C909 C907 1.356 . S
H910 C904 0.930 . S
H911 C908 0.930 . S
C912 C914 1.348 . S
C912 C915 1.356 . S
C912 O942 1.325 . S
N913 C916 1.315 1_545 S
N913 C917 1.280 1_545 S
C914 C912 1.348 . S
C914 C916 1.353 . S
C914 H956 0.929 . S
C915 C912 1.356 . S
C915 C917 1.358 . S
C915 H957 0.930 . S
C916 N913 1.315 1_565 S
C916 C914 1.353 . S
C916 H958 0.930 . S
C917 N913 1.280 1_565 S
C917 C915 1.358 . S
C917 H959 0.930 . S
C918 C919 1.348 . S
C918 C920 1.356 . S
C918 O943 1.325 . S
C919 C918 1.348 . S
C919 C921 1.353 . S
C919 H960 0.929 . S
C920 C918 1.356 . S
C920 C922 1.358 . S
C920 H961 0.930 . S
C921 C919 1.353 . S
C921 N923 1.314 . S
C921 H962 0.930 . S
C922 C920 1.358 . S
C922 N923 1.279 . S
C922 H963 0.930 . S
N923 C921 1.314 . S
N923 C922 1.279 . S
C924 C926 1.353 . S
C924 N927 1.314 . S
C924 H930 0.930 . S
C925 N927 1.279 . S
C925 C928 1.358 1_565 S
C925 H931 0.930 . S
C926 C924 1.353 . S
C926 C929 1.348 1_565 S
C926 H964 0.929 . S
N927 Li882 1.990 . S
N927 C924 1.314 . S
N927 C925 1.279 . S
C928 C925 1.358 1_545 S
C928 C929 1.356 . S
C928 H965 0.930 . S
C929 C926 1.348 1_545 S
C929 C928 1.356 . S
H930 C924 0.930 . S
H931 C925 0.930 . S
C932 N933 1.314 . S
C932 C934 1.353 . S
C932 H938 0.930 . S
N933 Li883 1.990 . S
N933 C932 1.314 . S
N933 C936 1.279 . S
C934 C932 1.353 . S
C934 C937 1.348 . S
C934 H966 0.929 . S
C935 C936 1.358 . S
C935 C937 1.356 . S
C935 H967 0.930 . S
C936 N933 1.279 . S
C936 C935 1.358 . S
C936 H939 0.930 . S
C937 C934 1.348 . S
C937 C935 1.356 . S
H938 C932 0.930 . S
H939 C936 0.930 . S
O940 Li880 1.956 . S
O940 Li881 1.970 . S
O940 Li882 1.961 . S
O940 C884 1.325 . S
O941 Li880 1.970 . S
O941 Li881 1.956 . S
O941 Li883 1.961 . S
O941 C890 1.325 . S
O942 Li880 1.961 . S
O942 Li882 1.956 . S
O942 Li883 1.970 . S
O942 C912 1.325 . S
O943 Li881 1.961 . S
O943 Li882 1.970 . S
O943 Li883 1.956 . S
O943 C918 1.325 . S
H944 C886 0.929 . S
H945 C887 0.930 . S
H946 C888 0.930 . S
H947 C889 0.930 . S
H948 C891 0.930 . S
H949 C893 0.929 . S
H950 C894 0.930 . S
H951 C895 0.930 . S
H952 C898 0.930 . S
H953 C901 0.929 . S
H954 C906 0.929 . S
H955 C907 0.930 . S
H956 C914 0.929 . S
H957 C915 0.930 . S
H958 C916 0.930 . S
H959 C917 0.930 . S
H960 C919 0.929 . S
H961 C920 0.930 . S
H962 C921 0.930 . S
H963 C922 0.930 . S
H964 C926 0.929 . S
H965 C928 0.930 . S
H966 C934 0.929 . S
H967 C935 0.930 . S
Li968 N985 1.990 . S
Li968 O1028 1.956 . S
Li968 O1029 1.970 . S
Li968 O1030 1.961 . S
Li969 N993 1.990 . S
Li969 O1028 1.970 . S
Li969 O1029 1.956 . S
Li969 O1031 1.961 . S
Li970 N1015 1.990 . S
Li970 O1028 1.961 . S
Li970 O1030 1.956 . S
Li970 O1031 1.970 . S
Li971 N1021 1.990 . S
Li971 O1029 1.961 . S
Li971 O1030 1.970 . S
Li971 O1031 1.956 . S
C972 C974 1.348 . S
C972 C975 1.356 . S
C972 O1028 1.325 . S
N973 C976 1.315 1_545 S
N973 C977 1.280 1_545 S
C974 C972 1.348 . S
C974 C976 1.353 . S
C974 H1032 0.929 . S
C975 C972 1.356 . S
C975 C977 1.358 . S
C975 H1033 0.930 . S
C976 N973 1.315 1_565 S
C976 C974 1.353 . S
C976 H1034 0.930 . S
C977 N973 1.280 1_565 S
C977 C975 1.358 . S
C977 H1035 0.930 . S
C978 C981 1.348 . S
C978 C982 1.356 . S
C978 O1029 1.325 . S
C979 N980 1.279 . S
C979 C982 1.358 . S
C979 H1036 0.930 . S
N980 C979 1.279 . S
N980 C983 1.314 . S
C981 C978 1.348 . S
C981 C983 1.353 . S
C981 H1037 0.929 . S
C982 C978 1.356 . S
C982 C979 1.358 . S
C982 H1038 0.930 . S
C983 N980 1.314 . S
C983 C981 1.353 . S
C983 H1039 0.930 . S
C984 N985 1.314 . S
C984 C989 1.353 . S
C984 H990 0.930 . S
N985 Li968 1.990 . S
N985 C984 1.314 . S
N985 C987 1.279 . S
C986 C987 1.358 1_545 S
C986 C988 1.356 . S
C986 H1040 0.930 . S
C987 N985 1.279 . S
C987 C986 1.358 1_565 S
C987 H991 0.930 . S
C988 C986 1.356 . S
C988 C989 1.348 1_545 S
C989 C984 1.353 . S
C989 C988 1.348 1_565 S
C989 H1041 0.929 . S
H990 C984 0.930 . S
H991 C987 0.930 . S
C992 N993 1.314 . S
C992 C994 1.353 . S
C992 H998 0.930 . S
N993 Li969 1.990 . S
N993 C992 1.314 . S
N993 C996 1.279 . S
C994 C992 1.353 . S
C994 C997 1.348 . S
C994 H1042 0.929 . S
C995 C996 1.358 . S
C995 C997 1.356 . S
C995 H1043 0.930 . S
C996 N993 1.279 . S
C996 C995 1.358 . S
C996 H999 0.930 . S
C997 C994 1.348 . S
C997 C995 1.356 . S
H998 C992 0.930 . S
H999 C996 0.930 . S
C1000 C1002 1.348 . S
C1000 C1003 1.356 . S
C1000 O1030 1.325 . S
N1001 C1004 1.314 . S
N1001 C1005 1.279 . S
C1002 C1000 1.348 . S
C1002 C1004 1.353 . S
C1002 H1044 0.929 . S
C1003 C1000 1.356 . S
C1003 C1005 1.358 . S
C1003 H1045 0.930 . S
C1004 N1001 1.314 . S
C1004 C1002 1.353 . S
C1004 H1046 0.930 . S
C1005 N1001 1.279 . S
C1005 C1003 1.358 . S
C1005 H1047 0.930 . S
C1006 C1007 1.348 . S
C1006 C1008 1.356 . S
C1006 O1031 1.325 . S
C1007 C1006 1.348 . S
C1007 C1009 1.353 . S
C1007 H1048 0.929 . S
C1008 C1006 1.356 . S
C1008 C1010 1.358 . S
C1008 H1049 0.930 . S
C1009 C1007 1.353 . S
C1009 N1011 1.314 . S
C1009 H1050 0.930 . S
C1010 C1008 1.358 . S
C1010 N1011 1.279 . S
C1010 H1051 0.930 . S
N1011 C1009 1.314 . S
N1011 C1010 1.279 . S
C1012 C1014 1.353 . S
C1012 N1015 1.314 . S
C1012 H1018 0.930 . S
C1013 N1015 1.279 . S
C1013 C1016 1.358 . S
C1013 H1019 0.930 . S
C1014 C1012 1.353 . S
C1014 C1017 1.348 . S
C1014 H1052 0.929 . S
N1015 Li970 1.990 . S
N1015 C1012 1.314 . S
N1015 C1013 1.279 . S
C1016 C1013 1.358 . S
C1016 C1017 1.356 . S
C1016 H1053 0.930 . S
C1017 C1014 1.348 . S
C1017 C1016 1.356 . S
H1018 C1012 0.930 . S
H1019 C1013 0.930 . S
C1020 N1021 1.314 . S
C1020 C1022 1.353 . S
C1020 H1026 0.930 . S
N1021 Li971 1.990 . S
N1021 C1020 1.314 . S
N1021 C1024 1.279 . S
C1022 C1020 1.353 . S
C1022 C1025 1.348 . S
C1022 H1054 0.929 . S
C1023 C1024 1.358 . S
C1023 C1025 1.356 . S
C1023 H1055 0.930 . S
C1024 N1021 1.279 . S
C1024 C1023 1.358 . S
C1024 H1027 0.930 . S
C1025 C1022 1.348 . S
C1025 C1023 1.356 . S
H1026 C1020 0.930 . S
H1027 C1024 0.930 . S
O1028 Li968 1.956 . S
O1028 Li969 1.970 . S
O1028 Li970 1.961 . S
O1028 C972 1.325 . S
O1029 Li968 1.970 . S
O1029 Li969 1.956 . S
O1029 Li971 1.961 . S
O1029 C978 1.325 . S
O1030 Li968 1.961 . S
O1030 Li970 1.956 . S
O1030 Li971 1.970 . S
O1030 C1000 1.325 . S
O1031 Li969 1.961 . S
O1031 Li970 1.970 . S
O1031 Li971 1.956 . S
O1031 C1006 1.325 . S
H1032 C974 0.929 . S
H1033 C975 0.930 . S
H1034 C976 0.930 . S
H1035 C977 0.930 . S
H1036 C979 0.930 . S
H1037 C981 0.929 . S
H1038 C982 0.930 . S
H1039 C983 0.930 . S
H1040 C986 0.930 . S
H1041 C989 0.929 . S
H1042 C994 0.929 . S
H1043 C995 0.930 . S
H1044 C1002 0.929 . S
H1045 C1003 0.930 . S
H1046 C1004 0.930 . S
H1047 C1005 0.930 . S
H1048 C1007 0.929 . S
H1049 C1008 0.930 . S
H1050 C1009 0.930 . S
H1051 C1010 0.930 . S
H1052 C1014 0.929 . S
H1053 C1016 0.930 . S
H1054 C1022 0.929 . S
H1055 C1023 0.930 . S
Li1056 N1073 1.990 . S
Li1056 O1116 1.956 . S
Li1056 O1117 1.970 . S
Li1056 O1118 1.961 . S
Li1057 N1081 1.990 . S
Li1057 O1116 1.970 . S
Li1057 O1117 1.956 . S
Li1057 O1119 1.961 . S
Li1058 N1103 1.990 . S
Li1058 O1116 1.961 . S
Li1058 O1118 1.956 . S
Li1058 O1119 1.970 . S
Li1059 N1109 1.990 . S
Li1059 O1117 1.961 . S
Li1059 O1118 1.970 . S
Li1059 O1119 1.956 . S
C1060 C1062 1.348 . S
C1060 C1063 1.356 . S
C1060 O1116 1.325 . S
N1061 C1064 1.314 . S
N1061 C1065 1.279 . S
C1062 C1060 1.348 . S
C1062 C1064 1.353 . S
C1062 H1120 0.929 . S
C1063 C1060 1.356 . S
C1063 C1065 1.358 . S
C1063 H1121 0.930 . S
C1064 N1061 1.314 . S
C1064 C1062 1.353 . S
C1064 H1122 0.930 . S
C1065 N1061 1.279 . S
C1065 C1063 1.358 . S
C1065 H1123 0.930 . S
C1066 C1069 1.348 . S
C1066 C1070 1.356 . S
C1066 O1117 1.325 . S
C1067 N1068 1.279 . S
C1067 C1070 1.358 . S
C1067 H1124 0.930 . S
N1068 C1067 1.279 . S
N1068 C1071 1.314 . S
C1069 C1066 1.348 . S
C1069 C1071 1.353 . S
C1069 H1125 0.929 . S
C1070 C1066 1.356 . S
C1070 C1067 1.358 . S
C1070 H1126 0.930 . S
C1071 N1068 1.314 . S
C1071 C1069 1.353 . S
C1071 H1127 0.930 . S
C1072 N1073 1.314 . S
C1072 C1077 1.353 . S
C1072 H1078 0.930 . S
N1073 Li1056 1.990 . S
N1073 C1072 1.314 . S
N1073 C1075 1.279 . S
C1074 C1075 1.358 . S
C1074 C1076 1.356 . S
C1074 H1128 0.930 . S
C1075 N1073 1.279 . S
C1075 C1074 1.358 . S
C1075 H1079 0.930 . S
C1076 C1074 1.356 . S
C1076 C1077 1.348 . S
C1077 C1072 1.353 . S
C1077 C1076 1.348 . S
C1077 H1129 0.929 . S
H1078 C1072 0.930 . S
H1079 C1075 0.930 . S
C1080 N1081 1.314 . S
C1080 C1082 1.353 . S
C1080 H1086 0.930 . S
N1081 Li1057 1.990 . S
N1081 C1080 1.314 . S
N1081 C1084 1.279 . S
C1082 C1080 1.353 . S
C1082 C1085 1.348 . S
C1082 H1130 0.929 . S
C1083 C1084 1.358 . S
C1083 C1085 1.356 . S
C1083 H1131 0.930 . S
C1084 N1081 1.279 . S
C1084 C1083 1.358 . S
C1084 H1087 0.930 . S
C1085 C1082 1.348 . S
C1085 C1083 1.356 . S
H1086 C1080 0.930 . S
H1087 C1084 0.930 . S
C1088 C1090 1.348 . S
C1088 C1091 1.356 . S
C1088 O1118 1.325 . S
N1089 C1092 1.314 . S
N1089 C1093 1.279 . S
C1090 C1088 1.348 . S
C1090 C1092 1.353 . S
C1090 H1132 0.929 . S
C1091 C1088 1.356 . S
C1091 C1093 1.358 . S
C1091 H1133 0.930 . S
C1092 N1089 1.314 . S
C1092 C1090 1.353 . S
C1092 H1134 0.930 . S
C1093 N1089 1.279 . S
C1093 C1091 1.358 . S
C1093 H1135 0.930 . S
C1094 C1095 1.348 . S
C1094 C1096 1.356 . S
C1094 O1119 1.325 . S
C1095 C1094 1.348 . S
C1095 C1097 1.353 . S
C1095 H1136 0.929 . S
C1096 C1094 1.356 . S
C1096 C1098 1.358 . S
C1096 H1137 0.930 . S
C1097 C1095 1.353 . S
C1097 N1099 1.314 . S
C1097 H1138 0.930 . S
C1098 C1096 1.358 . S
C1098 N1099 1.279 . S
C1098 H1139 0.930 . S
N1099 C1097 1.314 . S
N1099 C1098 1.279 . S
C1100 C1102 1.353 . S
C1100 N1103 1.314 . S
C1100 H1106 0.930 . S
C1101 N1103 1.279 . S
C1101 C1104 1.358 . S
C1101 H1107 0.930 . S
C1102 C1100 1.353 . S
C1102 C1105 1.348 . S
C1102 H1140 0.929 . S
N1103 Li1058 1.990 . S
N1103 C1100 1.314 . S
N1103 C1101 1.279 . S
C1104 C1101 1.358 . S
C1104 C1105 1.356 . S
C1104 H1141 0.930 . S
C1105 C1102 1.348 . S
C1105 C1104 1.356 . S
H1106 C1100 0.930 . S
H1107 C1101 0.930 . S
C1108 N1109 1.314 . S
C1108 C1110 1.353 . S
C1108 H1114 0.930 . S
N1109 Li1059 1.990 . S
N1109 C1108 1.314 . S
N1109 C1112 1.279 . S
C1110 C1108 1.353 . S
C1110 C1113 1.348 . S
C1110 H1142 0.929 . S
C1111 C1112 1.358 . S
C1111 C1113 1.356 . S
C1111 H1143 0.930 . S
C1112 N1109 1.279 . S
C1112 C1111 1.358 . S
C1112 H1115 0.930 . S
C1113 C1110 1.348 . S
C1113 C1111 1.356 . S
H1114 C1108 0.930 . S
H1115 C1112 0.930 . S
O1116 Li1056 1.956 . S
O1116 Li1057 1.970 . S
O1116 Li1058 1.961 . S
O1116 C1060 1.325 . S
O1117 Li1056 1.970 . S
O1117 Li1057 1.956 . S
O1117 Li1059 1.961 . S
O1117 C1066 1.325 . S
O1118 Li1056 1.961 . S
O1118 Li1058 1.956 . S
O1118 Li1059 1.970 . S
O1118 C1088 1.325 . S
O1119 Li1057 1.961 . S
O1119 Li1058 1.970 . S
O1119 Li1059 1.956 . S
O1119 C1094 1.325 . S
H1120 C1062 0.929 . S
H1121 C1063 0.930 . S
H1122 C1064 0.930 . S
H1123 C1065 0.930 . S
H1124 C1067 0.930 . S
H1125 C1069 0.929 . S
H1126 C1070 0.930 . S
H1127 C1071 0.930 . S
H1128 C1074 0.930 . S
H1129 C1077 0.929 . S
H1130 C1082 0.929 . S
H1131 C1083 0.930 . S
H1132 C1090 0.929 . S
H1133 C1091 0.930 . S
H1134 C1092 0.930 . S
H1135 C1093 0.930 . S
H1136 C1095 0.929 . S
H1137 C1096 0.930 . S
H1138 C1097 0.930 . S
H1139 C1098 0.930 . S
H1140 C1102 0.929 . S
H1141 C1104 0.930 . S
H1142 C1110 0.929 . S
H1143 C1111 0.930 . S
Li1144 N1161 1.990 . S
Li1144 O1204 1.956 . S
Li1144 O1205 1.970 . S
Li1144 O1206 1.961 . S
Li1145 N1169 1.990 . S
Li1145 O1204 1.970 . S
Li1145 O1205 1.956 . S
Li1145 O1207 1.961 . S
Li1146 N1191 1.990 . S
Li1146 O1204 1.961 . S
Li1146 O1206 1.956 . S
Li1146 O1207 1.970 . S
Li1147 N1197 1.990 . S
Li1147 O1205 1.961 . S
Li1147 O1206 1.970 . S
Li1147 O1207 1.956 . S
C1148 C1150 1.348 . S
C1148 C1151 1.356 . S
C1148 O1204 1.325 . S
N1149 C1152 1.314 . S
N1149 C1153 1.279 . S
C1150 C1148 1.348 . S
C1150 C1152 1.353 . S
C1150 H1208 0.929 . S
C1151 C1148 1.356 . S
C1151 C1153 1.358 . S
C1151 H1209 0.930 . S
C1152 N1149 1.314 . S
C1152 C1150 1.353 . S
C1152 H1210 0.930 . S
C1153 N1149 1.279 . S
C1153 C1151 1.358 . S
C1153 H1211 0.930 . S
C1154 C1157 1.348 . S
C1154 C1158 1.356 . S
C1154 O1205 1.325 . S
C1155 N1156 1.279 . S
C1155 C1158 1.358 . S
C1155 H1212 0.930 . S
N1156 C1155 1.279 . S
N1156 C1159 1.314 . S
C1157 C1154 1.348 . S
C1157 C1159 1.353 . S
C1157 H1213 0.929 . S
C1158 C1154 1.356 . S
C1158 C1155 1.358 . S
C1158 H1214 0.930 . S
C1159 N1156 1.314 . S
C1159 C1157 1.353 . S
C1159 H1215 0.930 . S
C1160 N1161 1.314 . S
C1160 C1165 1.353 . S
C1160 H1166 0.930 . S
N1161 Li1144 1.990 . S
N1161 C1160 1.314 . S
N1161 C1163 1.279 . S
C1162 C1163 1.358 . S
C1162 C1164 1.356 . S
C1162 H1216 0.930 . S
C1163 N1161 1.279 . S
C1163 C1162 1.358 . S
C1163 H1167 0.930 . S
C1164 C1162 1.356 . S
C1164 C1165 1.348 . S
C1165 C1160 1.353 . S
C1165 C1164 1.348 . S
C1165 H1217 0.929 . S
H1166 C1160 0.930 . S
H1167 C1163 0.930 . S
C1168 N1169 1.314 . S
C1168 C1170 1.353 . S
C1168 H1174 0.930 . S
N1169 Li1145 1.990 . S
N1169 C1168 1.314 . S
N1169 C1172 1.279 . S
C1170 C1168 1.353 . S
C1170 C1173 1.348 . S
C1170 H1218 0.929 . S
C1171 C1172 1.358 . S
C1171 C1173 1.356 . S
C1171 H1219 0.930 . S
C1172 N1169 1.279 . S
C1172 C1171 1.358 . S
C1172 H1175 0.930 . S
C1173 C1170 1.348 . S
C1173 C1171 1.356 . S
H1174 C1168 0.930 . S
H1175 C1172 0.930 . S
C1176 C1178 1.348 . S
C1176 C1179 1.356 . S
C1176 O1206 1.325 . S
N1177 C1180 1.314 . S
N1177 C1181 1.279 . S
C1178 C1176 1.348 . S
C1178 C1180 1.353 . S
C1178 H1220 0.929 . S
C1179 C1176 1.356 . S
C1179 C1181 1.358 . S
C1179 H1221 0.930 . S
C1180 N1177 1.314 . S
C1180 C1178 1.353 . S
C1180 H1222 0.930 . S
C1181 N1177 1.279 . S
C1181 C1179 1.358 . S
C1181 H1223 0.930 . S
C1182 C1183 1.348 . S
C1182 C1184 1.356 . S
C1182 O1207 1.325 . S
C1183 C1182 1.348 . S
C1183 C1185 1.353 . S
C1183 H1224 0.929 . S
C1184 C1182 1.356 . S
C1184 C1186 1.358 . S
C1184 H1225 0.930 . S
C1185 C1183 1.353 . S
C1185 N1187 1.314 . S
C1185 H1226 0.930 . S
C1186 C1184 1.358 . S
C1186 N1187 1.279 . S
C1186 H1227 0.930 . S
N1187 C1185 1.314 . S
N1187 C1186 1.279 . S
C1188 C1190 1.353 . S
C1188 N1191 1.314 . S
C1188 H1194 0.930 . S
C1189 N1191 1.279 . S
C1189 C1192 1.358 . S
C1189 H1195 0.930 . S
C1190 C1188 1.353 . S
C1190 C1193 1.348 . S
C1190 H1228 0.929 . S
N1191 Li1146 1.990 . S
N1191 C1188 1.314 . S
N1191 C1189 1.279 . S
C1192 C1189 1.358 . S
C1192 C1193 1.356 . S
C1192 H1229 0.930 . S
C1193 C1190 1.348 . S
C1193 C1192 1.356 . S
H1194 C1188 0.930 . S
H1195 C1189 0.930 . S
C1196 N1197 1.314 . S
C1196 C1198 1.353 . S
C1196 H1202 0.930 . S
N1197 Li1147 1.990 . S
N1197 C1196 1.314 . S
N1197 C1200 1.279 . S
C1198 C1196 1.353 . S
C1198 C1201 1.348 . S
C1198 H1230 0.929 . S
C1199 C1200 1.358 . S
C1199 C1201 1.356 . S
C1199 H1231 0.930 . S
C1200 N1197 1.279 . S
C1200 C1199 1.358 . S
C1200 H1203 0.930 . S
C1201 C1198 1.348 . S
C1201 C1199 1.356 . S
H1202 C1196 0.930 . S
H1203 C1200 0.930 . S
O1204 Li1144 1.956 . S
O1204 Li1145 1.970 . S
O1204 Li1146 1.961 . S
O1204 C1148 1.325 . S
O1205 Li1144 1.970 . S
O1205 Li1145 1.956 . S
O1205 Li1147 1.961 . S
O1205 C1154 1.325 . S
O1206 Li1144 1.961 . S
O1206 Li1146 1.956 . S
O1206 Li1147 1.970 . S
O1206 C1176 1.325 . S
O1207 Li1145 1.961 . S
O1207 Li1146 1.970 . S
O1207 Li1147 1.956 . S
O1207 C1182 1.325 . S
H1208 C1150 0.929 . S
H1209 C1151 0.930 . S
H1210 C1152 0.930 . S
H1211 C1153 0.930 . S
H1212 C1155 0.930 . S
H1213 C1157 0.929 . S
H1214 C1158 0.930 . S
H1215 C1159 0.930 . S
H1216 C1162 0.930 . S
H1217 C1165 0.929 . S
H1218 C1170 0.929 . S
H1219 C1171 0.930 . S
H1220 C1178 0.929 . S
H1221 C1179 0.930 . S
H1222 C1180 0.930 . S
H1223 C1181 0.930 . S
H1224 C1183 0.929 . S
H1225 C1184 0.930 . S
H1226 C1185 0.930 . S
H1227 C1186 0.930 . S
H1228 C1190 0.929 . S
H1229 C1192 0.930 . S
H1230 C1198 0.929 . S
H1231 C1199 0.930 . S
Li1232 N1249 1.990 . S
Li1232 O1292 1.956 . S
Li1232 O1293 1.970 . S
Li1232 O1294 1.961 . S
Li1233 N1257 1.990 . S
Li1233 O1292 1.970 . S
Li1233 O1293 1.956 . S
Li1233 O1295 1.961 . S
Li1234 N1279 1.990 . S
Li1234 O1292 1.961 . S
Li1234 O1294 1.956 . S
Li1234 O1295 1.970 . S
Li1235 N1285 1.990 . S
Li1235 O1293 1.961 . S
Li1235 O1294 1.970 . S
Li1235 O1295 1.956 . S
C1236 C1238 1.348 . S
C1236 C1239 1.356 . S
C1236 O1292 1.325 . S
N1237 C1240 1.314 . S
N1237 C1241 1.279 . S
C1238 C1236 1.348 . S
C1238 C1240 1.353 . S
C1238 H1296 0.929 . S
C1239 C1236 1.356 . S
C1239 C1241 1.358 . S
C1239 H1297 0.930 . S
C1240 N1237 1.314 . S
C1240 C1238 1.353 . S
C1240 H1298 0.930 . S
C1241 N1237 1.279 . S
C1241 C1239 1.358 . S
C1241 H1299 0.930 . S
C1242 C1245 1.348 . S
C1242 C1246 1.356 . S
C1242 O1293 1.325 . S
C1243 N1244 1.279 . S
C1243 C1246 1.358 . S
C1243 H1300 0.930 . S
N1244 C1243 1.279 . S
N1244 C1247 1.314 . S
C1245 C1242 1.348 . S
C1245 C1247 1.353 . S
C1245 H1301 0.929 . S
C1246 C1242 1.356 . S
C1246 C1243 1.358 . S
C1246 H1302 0.930 . S
C1247 N1244 1.314 . S
C1247 C1245 1.353 . S
C1247 H1303 0.930 . S
C1248 N1249 1.314 . S
C1248 C1253 1.353 . S
C1248 H1254 0.930 . S
N1249 Li1232 1.990 . S
N1249 C1248 1.314 . S
N1249 C1251 1.279 . S
C1250 C1251 1.358 . S
C1250 C1252 1.356 . S
C1250 H1304 0.930 . S
C1251 N1249 1.279 . S
C1251 C1250 1.358 . S
C1251 H1255 0.930 . S
C1252 C1250 1.356 . S
C1252 C1253 1.348 . S
C1253 C1248 1.353 . S
C1253 C1252 1.348 . S
C1253 H1305 0.929 . S
H1254 C1248 0.930 . S
H1255 C1251 0.930 . S
C1256 N1257 1.314 . S
C1256 C1258 1.353 . S
C1256 H1262 0.930 . S
N1257 Li1233 1.990 . S
N1257 C1256 1.314 . S
N1257 C1260 1.279 . S
C1258 C1256 1.353 . S
C1258 C1261 1.348 . S
C1258 H1306 0.929 . S
C1259 C1260 1.358 . S
C1259 C1261 1.356 . S
C1259 H1307 0.930 . S
C1260 N1257 1.279 . S
C1260 C1259 1.358 . S
C1260 H1263 0.930 . S
C1261 C1258 1.348 . S
C1261 C1259 1.356 . S
H1262 C1256 0.930 . S
H1263 C1260 0.930 . S
C1264 C1266 1.348 . S
C1264 C1267 1.356 . S
C1264 O1294 1.325 . S
N1265 C1268 1.314 . S
N1265 C1269 1.279 . S
C1266 C1264 1.348 . S
C1266 C1268 1.353 . S
C1266 H1308 0.929 . S
C1267 C1264 1.356 . S
C1267 C1269 1.358 . S
C1267 H1309 0.930 . S
C1268 N1265 1.314 . S
C1268 C1266 1.353 . S
C1268 H1310 0.930 . S
C1269 N1265 1.279 . S
C1269 C1267 1.358 . S
C1269 H1311 0.930 . S
C1270 C1271 1.348 . S
C1270 C1272 1.356 . S
C1270 O1295 1.325 . S
C1271 C1270 1.348 . S
C1271 C1273 1.353 . S
C1271 H1312 0.929 . S
C1272 C1270 1.356 . S
C1272 C1274 1.358 . S
C1272 H1313 0.930 . S
C1273 C1271 1.353 . S
C1273 N1275 1.314 . S
C1273 H1314 0.930 . S
C1274 C1272 1.358 . S
C1274 N1275 1.279 . S
C1274 H1315 0.930 . S
N1275 C1273 1.314 . S
N1275 C1274 1.279 . S
C1276 C1278 1.353 . S
C1276 N1279 1.314 . S
C1276 H1282 0.930 . S
C1277 N1279 1.279 . S
C1277 C1280 1.358 . S
C1277 H1283 0.930 . S
C1278 C1276 1.353 . S
C1278 C1281 1.348 . S
C1278 H1316 0.929 . S
N1279 Li1234 1.990 . S
N1279 C1276 1.314 . S
N1279 C1277 1.279 . S
C1280 C1277 1.358 . S
C1280 C1281 1.356 . S
C1280 H1317 0.930 . S
C1281 C1278 1.348 . S
C1281 C1280 1.356 . S
H1282 C1276 0.930 . S
H1283 C1277 0.930 . S
C1284 N1285 1.314 . S
C1284 C1286 1.353 . S
C1284 H1290 0.930 . S
N1285 Li1235 1.990 . S
N1285 C1284 1.314 . S
N1285 C1288 1.279 . S
C1286 C1284 1.353 . S
C1286 C1289 1.348 . S
C1286 H1318 0.929 . S
C1287 C1288 1.358 . S
C1287 C1289 1.356 . S
C1287 H1319 0.930 . S
C1288 N1285 1.279 . S
C1288 C1287 1.358 . S
C1288 H1291 0.930 . S
C1289 C1286 1.348 . S
C1289 C1287 1.356 . S
H1290 C1284 0.930 . S
H1291 C1288 0.930 . S
O1292 Li1232 1.956 . S
O1292 Li1233 1.970 . S
O1292 Li1234 1.961 . S
O1292 C1236 1.325 . S
O1293 Li1232 1.970 . S
O1293 Li1233 1.956 . S
O1293 Li1235 1.961 . S
O1293 C1242 1.325 . S
O1294 Li1232 1.961 . S
O1294 Li1234 1.956 . S
O1294 Li1235 1.970 . S
O1294 C1264 1.325 . S
O1295 Li1233 1.961 . S
O1295 Li1234 1.970 . S
O1295 Li1235 1.956 . S
O1295 C1270 1.325 . S
H1296 C1238 0.929 . S
H1297 C1239 0.930 . S
H1298 C1240 0.930 . S
H1299 C1241 0.930 . S
H1300 C1243 0.930 . S
H1301 C1245 0.929 . S
H1302 C1246 0.930 . S
H1303 C1247 0.930 . S
H1304 C1250 0.930 . S
H1305 C1253 0.929 . S
H1306 C1258 0.929 . S
H1307 C1259 0.930 . S
H1308 C1266 0.929 . S
H1309 C1267 0.930 . S
H1310 C1268 0.930 . S
H1311 C1269 0.930 . S
H1312 C1271 0.929 . S
H1313 C1272 0.930 . S
H1314 C1273 0.930 . S
H1315 C1274 0.930 . S
H1316 C1278 0.929 . S
H1317 C1280 0.930 . S
H1318 C1286 0.929 . S
H1319 C1287 0.930 . S
Li1320 N1337 1.990 . S
Li1320 O1380 1.956 . S
Li1320 O1381 1.970 . S
Li1320 O1382 1.961 . S
Li1321 N1345 1.990 . S
Li1321 O1380 1.970 . S
Li1321 O1381 1.956 . S
Li1321 O1383 1.961 . S
Li1322 N1367 1.990 . S
Li1322 O1380 1.961 . S
Li1322 O1382 1.956 . S
Li1322 O1383 1.970 . S
Li1323 N1373 1.990 . S
Li1323 O1381 1.961 . S
Li1323 O1382 1.970 . S
Li1323 O1383 1.956 . S
C1324 C1326 1.348 . S
C1324 C1327 1.356 . S
C1324 O1380 1.325 . S
N1325 C1328 1.314 . S
N1325 C1329 1.279 . S
C1326 C1324 1.348 . S
C1326 C1328 1.353 . S
C1326 H1384 0.929 . S
C1327 C1324 1.356 . S
C1327 C1329 1.358 . S
C1327 H1385 0.930 . S
C1328 N1325 1.314 . S
C1328 C1326 1.353 . S
C1328 H1386 0.930 . S
C1329 N1325 1.279 . S
C1329 C1327 1.358 . S
C1329 H1387 0.930 . S
C1330 C1333 1.348 . S
C1330 C1334 1.356 . S
C1330 O1381 1.325 . S
C1331 N1332 1.279 . S
C1331 C1334 1.358 . S
C1331 H1388 0.930 . S
N1332 C1331 1.279 . S
N1332 C1335 1.314 . S
C1333 C1330 1.348 . S
C1333 C1335 1.353 . S
C1333 H1389 0.929 . S
C1334 C1330 1.356 . S
C1334 C1331 1.358 . S
C1334 H1390 0.930 . S
C1335 N1332 1.314 . S
C1335 C1333 1.353 . S
C1335 H1391 0.930 . S
C1336 N1337 1.314 . S
C1336 C1341 1.353 . S
C1336 H1342 0.930 . S
N1337 Li1320 1.990 . S
N1337 C1336 1.314 . S
N1337 C1339 1.279 . S
C1338 C1339 1.358 . S
C1338 C1340 1.356 . S
C1338 H1392 0.930 . S
C1339 N1337 1.279 . S
C1339 C1338 1.358 . S
C1339 H1343 0.930 . S
C1340 C1338 1.356 . S
C1340 C1341 1.348 . S
C1341 C1336 1.353 . S
C1341 C1340 1.348 . S
C1341 H1393 0.929 . S
H1342 C1336 0.930 . S
H1343 C1339 0.930 . S
C1344 N1345 1.314 . S
C1344 C1346 1.353 . S
C1344 H1350 0.930 . S
N1345 Li1321 1.990 . S
N1345 C1344 1.314 . S
N1345 C1348 1.279 . S
C1346 C1344 1.353 . S
C1346 C1349 1.348 . S
C1346 H1394 0.929 . S
C1347 C1348 1.358 . S
C1347 C1349 1.356 . S
C1347 H1395 0.930 . S
C1348 N1345 1.279 . S
C1348 C1347 1.358 . S
C1348 H1351 0.930 . S
C1349 C1346 1.348 . S
C1349 C1347 1.356 . S
H1350 C1344 0.930 . S
H1351 C1348 0.930 . S
C1352 C1354 1.348 . S
C1352 C1355 1.356 . S
C1352 O1382 1.325 . S
N1353 C1356 1.314 . S
N1353 C1357 1.279 . S
C1354 C1352 1.348 . S
C1354 C1356 1.353 . S
C1354 H1396 0.929 . S
C1355 C1352 1.356 . S
C1355 C1357 1.358 . S
C1355 H1397 0.930 . S
C1356 N1353 1.314 . S
C1356 C1354 1.353 . S
C1356 H1398 0.930 . S
C1357 N1353 1.279 . S
C1357 C1355 1.358 . S
C1357 H1399 0.930 . S
C1358 C1359 1.348 . S
C1358 C1360 1.356 . S
C1358 O1383 1.325 . S
C1359 C1358 1.348 . S
C1359 C1361 1.353 . S
C1359 H1400 0.929 . S
C1360 C1358 1.356 . S
C1360 C1362 1.358 . S
C1360 H1401 0.930 . S
C1361 C1359 1.353 . S
C1361 N1363 1.314 . S
C1361 H1402 0.930 . S
C1362 C1360 1.358 . S
C1362 N1363 1.279 . S
C1362 H1403 0.930 . S
N1363 C1361 1.314 . S
N1363 C1362 1.279 . S
C1364 C1366 1.353 . S
C1364 N1367 1.314 . S
C1364 H1370 0.930 . S
C1365 N1367 1.279 . S
C1365 C1368 1.358 . S
C1365 H1371 0.930 . S
C1366 C1364 1.353 . S
C1366 C1369 1.348 . S
C1366 H1404 0.929 . S
N1367 Li1322 1.990 . S
N1367 C1364 1.314 . S
N1367 C1365 1.279 . S
C1368 C1365 1.358 . S
C1368 C1369 1.356 . S
C1368 H1405 0.930 . S
C1369 C1366 1.348 . S
C1369 C1368 1.356 . S
H1370 C1364 0.930 . S
H1371 C1365 0.930 . S
C1372 N1373 1.314 . S
C1372 C1374 1.353 . S
C1372 H1378 0.930 . S
N1373 Li1323 1.990 . S
N1373 C1372 1.314 . S
N1373 C1376 1.279 . S
C1374 C1372 1.353 . S
C1374 C1377 1.348 . S
C1374 H1406 0.929 . S
C1375 C1376 1.358 . S
C1375 C1377 1.356 . S
C1375 H1407 0.930 . S
C1376 N1373 1.279 . S
C1376 C1375 1.358 . S
C1376 H1379 0.930 . S
C1377 C1374 1.348 . S
C1377 C1375 1.356 . S
H1378 C1372 0.930 . S
H1379 C1376 0.930 . S
O1380 Li1320 1.956 . S
O1380 Li1321 1.970 . S
O1380 Li1322 1.961 . S
O1380 C1324 1.325 . S
O1381 Li1320 1.970 . S
O1381 Li1321 1.956 . S
O1381 Li1323 1.961 . S
O1381 C1330 1.325 . S
O1382 Li1320 1.961 . S
O1382 Li1322 1.956 . S
O1382 Li1323 1.970 . S
O1382 C1352 1.325 . S
O1383 Li1321 1.961 . S
O1383 Li1322 1.970 . S
O1383 Li1323 1.956 . S
O1383 C1358 1.325 . S
H1384 C1326 0.929 . S
H1385 C1327 0.930 . S
H1386 C1328 0.930 . S
H1387 C1329 0.930 . S
H1388 C1331 0.930 . S
H1389 C1333 0.929 . S
H1390 C1334 0.930 . S
H1391 C1335 0.930 . S
H1392 C1338 0.930 . S
H1393 C1341 0.929 . S
H1394 C1346 0.929 . S
H1395 C1347 0.930 . S
H1396 C1354 0.929 . S
H1397 C1355 0.930 . S
H1398 C1356 0.930 . S
H1399 C1357 0.930 . S
H1400 C1359 0.929 . S
H1401 C1360 0.930 . S
H1402 C1361 0.930 . S
H1403 C1362 0.930 . S
H1404 C1366 0.929 . S
H1405 C1368 0.930 . S
H1406 C1374 0.929 . S
H1407 C1375 0.930 . S
H1408 C1416 0.929 . S
H1409 C1418 0.930 . S
H1410 C1420 0.930 . S
H1411 C1423 0.929 . S
H1412 C1426 0.930 . S
H1413 C1428 0.960 . S
H1414 C1428 0.960 . S
H1415 C1428 0.960 . S
C1416 H1408 0.929 . S
C1416 C1417 1.377 . S
C1416 C1418 1.384 . S
C1417 C1416 1.377 . S
C1417 C1423 1.390 . S
C1418 H1409 0.930 . S
C1418 C1416 1.384 . S
C1418 C1419 1.372 . S
C1419 C1418 1.372 . S
C1419 C1420 1.400 . S
C1419 C1424 1.490 . S
C1420 H1410 0.930 . S
C1420 C1419 1.400 . S
C1420 C1423 1.386 . S
H1421 C1437 0.930 . S
H1422 C1438 0.931 . S
C1423 H1411 0.929 . S
C1423 C1417 1.390 . S
C1423 C1420 1.386 . S
C1424 C1419 1.490 . S
C1424 C1426 1.395 . S
C1424 C1427 1.403 . S
H1425 C1431 0.930 . S
C1426 H1412 0.930 . S
C1426 C1424 1.395 . S
C1426 C1429 1.403 . S
C1427 C1424 1.403 . S
C1427 C1428 1.524 . S
C1427 C1431 1.400 . S
C1428 H1413 0.960 . S
C1428 H1414 0.960 . S
C1428 H1415 0.960 . S
C1428 C1427 1.524 . S
C1429 C1426 1.403 . S
C1429 C1430 1.392 . S
C1429 C1433 1.495 . S
C1430 C1429 1.392 . S
C1430 C1431 1.385 . S
C1430 C1432 1.478 . S
C1431 H1425 0.930 . S
C1431 C1427 1.400 . S
C1431 C1430 1.385 . S
C1432 C1430 1.478 . S
C1432 C1434 1.381 . S
C1432 C1438 1.383 . S
C1433 C1429 1.495 . S
C1433 H1439 0.959 . S
C1433 H1440 0.961 . S
C1433 H1441 0.960 . S
C1434 C1432 1.381 . S
C1434 C1435 1.394 . S
C1434 H1442 0.930 . S
C1435 C1434 1.394 . S
C1435 C1436 1.383 . S
C1435 H1443 0.929 . S
C1436 C1435 1.383 . S
C1436 C1437 1.377 . S
C1437 H1421 0.930 . S
C1437 C1436 1.377 . S
C1437 C1438 1.379 . S
C1438 H1422 0.931 . S
C1438 C1432 1.383 . S
C1438 C1437 1.379 . S
H1439 C1433 0.959 . S
H1440 C1433 0.961 . S
H1441 C1433 0.960 . S
H1442 C1434 0.930 . S
H1443 C1435 0.929 . S
H1444 C1452 0.929 . S
H1445 C1454 0.930 . S
H1446 C1456 0.930 . S
H1447 C1459 0.929 . S
H1448 C1462 0.930 . S
H1449 C1464 0.960 . S
H1450 C1464 0.960 . S
H1451 C1464 0.960 . S
C1452 H1444 0.929 . S
C1452 C1453 1.377 . S
C1452 C1454 1.384 . S
C1453 C1452 1.377 . S
C1453 C1459 1.390 . S
C1454 H1445 0.930 . S
C1454 C1452 1.384 . S
C1454 C1455 1.372 . S
C1455 C1454 1.372 . S
C1455 C1456 1.400 . S
C1455 C1460 1.490 . S
C1456 H1446 0.930 . S
C1456 C1455 1.400 . S
C1456 C1459 1.386 . S
H1457 C1473 0.930 . S
H1458 C1474 0.931 . S
C1459 H1447 0.929 . S
C1459 C1453 1.390 . S
C1459 C1456 1.386 . S
C1460 C1455 1.490 . S
C1460 C1462 1.395 1_565 S
C1460 C1463 1.403 1_655 S
H1461 C1467 0.930 . S
C1462 H1448 0.930 . S
C1462 C1460 1.395 1_545 S
C1462 C1465 1.403 . S
C1463 C1460 1.403 1_455 S
C1463 C1464 1.524 . S
C1463 C1467 1.400 . S
C1464 H1449 0.960 . S
C1464 H1450 0.960 . S
C1464 H1451 0.960 . S
C1464 C1463 1.524 . S
C1465 C1462 1.403 . S
C1465 C1466 1.392 1_655 S
C1465 C1469 1.495 . S
C1466 C1465 1.392 1_455 S
C1466 C1467 1.385 1_545 S
C1466 C1468 1.478 . S
C1467 H1461 0.930 . S
C1467 C1463 1.400 . S
C1467 C1466 1.385 1_565 S
C1468 C1466 1.478 . S
C1468 C1470 1.381 . S
C1468 C1474 1.383 . S
C1469 C1465 1.495 . S
C1469 H1475 0.959 . S
C1469 H1476 0.961 . S
C1469 H1477 0.960 . S
C1470 C1468 1.381 . S
C1470 C1471 1.394 . S
C1470 H1478 0.930 . S
C1471 C1470 1.394 . S
C1471 C1472 1.383 . S
C1471 H1479 0.929 . S
C1472 C1471 1.383 . S
C1472 C1473 1.377 . S
C1473 H1457 0.930 . S
C1473 C1472 1.377 . S
C1473 C1474 1.379 . S
C1474 H1458 0.931 . S
C1474 C1468 1.383 . S
C1474 C1473 1.379 . S
H1475 C1469 0.959 . S
H1476 C1469 0.961 . S
H1477 C1469 0.960 . S
H1478 C1470 0.930 . S
H1479 C1471 0.929 . S
H1480 C1488 0.929 . S
H1481 C1490 0.930 . S
H1482 C1492 0.930 . S
H1483 C1495 0.929 . S
H1484 C1498 0.930 . S
H1485 C1500 0.960 . S
H1486 C1500 0.960 . S
H1487 C1500 0.960 . S
C1488 H1480 0.929 . S
C1488 C1489 1.377 . S
C1488 C1490 1.384 . S
C1489 C1488 1.377 . S
C1489 C1495 1.390 . S
C1490 H1481 0.930 . S
C1490 C1488 1.384 . S
C1490 C1491 1.372 . S
C1491 C1490 1.372 . S
C1491 C1492 1.400 . S
C1491 C1496 1.490 . S
C1492 H1482 0.930 . S
C1492 C1491 1.400 . S
C1492 C1495 1.386 . S
H1493 C1509 0.930 . S
H1494 C1510 0.931 . S
C1495 H1483 0.929 . S
C1495 C1489 1.390 . S
C1495 C1492 1.386 . S
C1496 C1491 1.490 . S
C1496 C1498 1.395 1_565 S
C1496 C1499 1.403 . S
H1497 C1503 0.931 . S
C1498 H1484 0.930 . S
C1498 C1496 1.395 1_545 S
C1498 C1501 1.403 . S
C1499 C1496 1.403 . S
C1499 C1500 1.524 . S
C1499 C1503 1.413 . S
C1500 H1485 0.960 . S
C1500 H1486 0.960 . S
C1500 H1487 0.960 . S
C1500 C1499 1.524 . S
C1501 C1498 1.403 . S
C1501 C1502 1.392 . S
C1501 C1505 1.495 . S
C1502 C1501 1.392 . S
C1502 C1503 1.372 1_545 S
C1502 C1504 1.478 . S
C1503 H1497 0.931 . S
C1503 C1499 1.413 . S
C1503 C1502 1.372 1_565 S
C1504 C1502 1.478 . S
C1504 C1506 1.381 . S
C1504 C1510 1.383 . S
C1505 C1501 1.495 . S
C1505 H1511 0.959 . S
C1505 H1512 0.961 . S
C1505 H1513 0.960 . S
C1506 C1504 1.381 . S
C1506 C1507 1.394 . S
C1506 H1514 0.930 . S
C1507 C1506 1.394 . S
C1507 C1508 1.383 . S
C1507 H1515 0.929 . S
C1508 C1507 1.383 . S
C1508 C1509 1.377 . S
C1509 H1493 0.930 . S
C1509 C1508 1.377 . S
C1509 C1510 1.379 . S
C1510 H1494 0.931 . S
C1510 C1504 1.383 . S
C1510 C1509 1.379 . S
H1511 C1505 0.959 . S
H1512 C1505 0.961 . S
H1513 C1505 0.960 . S
H1514 C1506 0.930 . S
H1515 C1507 0.929 . S
H1516 C1524 0.929 . S
H1517 C1526 0.930 . S
H1518 C1528 0.930 . S
H1519 C1531 0.929 . S
H1520 C1534 0.930 . S
H1521 C1536 0.960 . S
H1522 C1536 0.960 . S
H1523 C1536 0.960 . S
C1524 H1516 0.929 . S
C1524 C1525 1.377 . S
C1524 C1526 1.384 . S
C1525 C1524 1.377 . S
C1525 C1531 1.390 . S
C1526 H1517 0.930 . S
C1526 C1524 1.384 . S
C1526 C1527 1.372 . S
C1527 C1526 1.372 . S
C1527 C1528 1.400 . S
C1527 C1532 1.490 . S
C1528 H1518 0.930 . S
C1528 C1527 1.400 . S
C1528 C1531 1.386 . S
H1529 C1545 0.930 . S
H1530 C1546 0.931 . S
C1531 H1519 0.929 . S
C1531 C1525 1.390 . S
C1531 C1528 1.386 . S
C1532 C1527 1.490 . S
C1532 C1534 1.395 . S
C1532 C1535 1.403 1_455 S
H1533 C1539 0.930 . S
C1534 H1520 0.930 . S
C1534 C1532 1.395 . S
C1534 C1537 1.403 . S
C1535 C1532 1.403 1_655 S
C1535 C1536 1.524 . S
C1535 C1539 1.400 . S
C1536 H1521 0.960 . S
C1536 H1522 0.960 . S
C1536 H1523 0.960 . S
C1536 C1535 1.524 . S
C1537 C1534 1.403 . S
C1537 C1538 1.392 1_455 S
C1537 C1541 1.495 . S
C1538 C1537 1.392 1_655 S
C1538 C1539 1.385 . S
C1538 C1540 1.478 . S
C1539 H1533 0.930 . S
C1539 C1535 1.400 . S
C1539 C1538 1.385 . S
C1540 C1538 1.478 . S
C1540 C1542 1.381 . S
C1540 C1546 1.383 . S
C1541 C1537 1.495 . S
C1541 H1547 0.959 . S
C1541 H1548 0.961 . S
C1541 H1549 0.960 . S
C1542 C1540 1.381 . S
C1542 C1543 1.394 . S
C1542 H1550 0.930 . S
C1543 C1542 1.394 . S
C1543 C1544 1.383 . S
C1543 H1551 0.929 . S
C1544 C1543 1.383 . S
C1544 C1545 1.377 . S
C1545 H1529 0.930 . S
C1545 C1544 1.377 . S
C1545 C1546 1.379 . S
C1546 H1530 0.931 . S
C1546 C1540 1.383 . S
C1546 C1545 1.379 . S
H1547 C1541 0.959 . S
H1548 C1541 0.961 . S
H1549 C1541 0.960 . S
H1550 C1542 0.930 . S
H1551 C1543 0.929 . S
H1552 C1560 0.929 . S
H1553 C1562 0.930 . S
H1554 C1564 0.930 . S
H1555 C1567 0.929 . S
H1556 C1570 0.930 . S
H1557 C1572 0.960 . S
H1558 C1572 0.960 . S
H1559 C1572 0.960 . S
C1560 H1552 0.929 . S
C1560 C1561 1.377 . S
C1560 C1562 1.384 . S
C1561 C1560 1.377 . S
C1561 C1567 1.390 . S
C1562 H1553 0.930 . S
C1562 C1560 1.384 . S
C1562 C1563 1.372 . S
C1563 C1562 1.372 . S
C1563 C1564 1.400 . S
C1563 C1568 1.490 . S
C1564 H1554 0.930 . S
C1564 C1563 1.400 . S
C1564 C1567 1.386 . S
H1565 C1581 0.930 . S
H1566 C1582 0.931 . S
C1567 H1555 0.929 . S
C1567 C1561 1.390 . S
C1567 C1564 1.386 . S
C1568 C1563 1.490 . S
C1568 C1570 1.395 . S
C1568 C1571 1.403 . S
H1569 C1575 0.930 . S
C1570 H1556 0.930 . S
C1570 C1568 1.395 . S
C1570 C1573 1.403 . S
C1571 C1568 1.403 . S
C1571 C1572 1.524 . S
C1571 C1575 1.400 . S
C1572 H1557 0.960 . S
C1572 H1558 0.960 . S
C1572 H1559 0.960 . S
C1572 C1571 1.524 . S
C1573 C1570 1.403 . S
C1573 C1574 1.392 . S
C1573 C1577 1.495 . S
C1574 C1573 1.392 . S
C1574 C1575 1.385 . S
C1574 C1576 1.478 . S
C1575 H1569 0.930 . S
C1575 C1571 1.400 . S
C1575 C1574 1.385 . S
C1576 C1574 1.478 . S
C1576 C1578 1.381 . S
C1576 C1582 1.383 . S
C1577 C1573 1.495 . S
C1577 H1583 0.959 . S
C1577 H1584 0.961 . S
C1577 H1585 0.960 . S
C1578 C1576 1.381 . S
C1578 C1579 1.394 . S
C1578 H1586 0.930 . S
C1579 C1578 1.394 . S
C1579 C1580 1.383 . S
C1579 H1587 0.929 . S
C1580 C1579 1.383 . S
C1580 C1581 1.377 . S
C1581 H1565 0.930 . S
C1581 C1580 1.377 . S
C1581 C1582 1.379 . S
C1582 H1566 0.931 . S
C1582 C1576 1.383 . S
C1582 C1581 1.379 . S
H1583 C1577 0.959 . S
H1584 C1577 0.961 . S
H1585 C1577 0.960 . S
H1586 C1578 0.930 . S
H1587 C1579 0.929 . S
H1588 C1596 0.929 . S
H1589 C1598 0.930 . S
H1590 C1600 0.930 . S
H1591 C1603 0.929 . S
H1592 C1606 0.930 . S
H1593 C1608 0.960 . S
H1594 C1608 0.960 . S
H1595 C1608 0.960 . S
C1596 H1588 0.929 . S
C1596 C1597 1.377 . S
C1596 C1598 1.384 . S
C1597 C1596 1.377 . S
C1597 C1603 1.390 . S
C1598 H1589 0.930 . S
C1598 C1596 1.384 . S
C1598 C1599 1.372 . S
C1599 C1598 1.372 . S
C1599 C1600 1.400 . S
C1599 C1604 1.490 . S
C1600 H1590 0.930 . S
C1600 C1599 1.400 . S
C1600 C1603 1.386 . S
H1601 C1617 0.930 . S
H1602 C1618 0.931 . S
C1603 H1591 0.929 . S
C1603 C1597 1.390 . S
C1603 C1600 1.386 . S
C1604 C1599 1.490 . S
C1604 C1606 1.395 . S
C1604 C1607 1.403 . S
H1605 C1611 0.930 . S
C1606 H1592 0.930 . S
C1606 C1604 1.395 . S
C1606 C1609 1.403 1_545 S
C1607 C1604 1.403 . S
C1607 C1608 1.524 . S
C1607 C1611 1.400 1_545 S
C1608 H1593 0.960 . S
C1608 H1594 0.960 . S
C1608 H1595 0.960 . S
C1608 C1607 1.524 . S
C1609 C1606 1.403 1_565 S
C1609 C1610 1.392 . S
C1609 C1613 1.495 . S
C1610 C1609 1.392 . S
C1610 C1611 1.385 . S
C1610 C1612 1.478 . S
C1611 H1605 0.930 . S
C1611 C1607 1.400 1_565 S
C1611 C1610 1.385 . S
C1612 C1610 1.478 . S
C1612 C1614 1.381 . S
C1612 C1618 1.383 . S
C1613 C1609 1.495 . S
C1613 H1619 0.959 . S
C1613 H1620 0.961 . S
C1613 H1621 0.960 . S
C1614 C1612 1.381 . S
C1614 C1615 1.394 . S
C1614 H1622 0.930 . S
C1615 C1614 1.394 . S
C1615 C1616 1.383 . S
C1615 H1623 0.929 . S
C1616 C1615 1.383 . S
C1616 C1617 1.377 . S
C1617 H1601 0.930 . S
C1617 C1616 1.377 . S
C1617 C1618 1.379 . S
C1618 H1602 0.931 . S
C1618 C1612 1.383 . S
C1618 C1617 1.379 . S
H1619 C1613 0.959 . S
H1620 C1613 0.961 . S
H1621 C1613 0.960 . S
H1622 C1614 0.930 . S
H1623 C1615 0.929 . S
H1624 C1632 0.929 . S
H1625 C1634 0.930 . S
H1626 C1636 0.930 . S
H1627 C1639 0.929 . S
H1628 C1642 0.930 . S
H1629 C1644 0.960 . S
H1630 C1644 0.960 . S
H1631 C1644 0.960 . S
C1632 H1624 0.929 . S
C1632 C1633 1.377 . S
C1632 C1634 1.384 . S
C1633 C1632 1.377 . S
C1633 C1639 1.390 . S
C1634 H1625 0.930 . S
C1634 C1632 1.384 . S
C1634 C1635 1.372 . S
C1635 C1634 1.372 . S
C1635 C1636 1.400 . S
C1635 C1640 1.490 . S
C1636 H1626 0.930 . S
C1636 C1635 1.400 . S
C1636 C1639 1.386 . S
H1637 C1653 0.930 . S
H1638 C1654 0.931 . S
C1639 H1627 0.929 . S
C1639 C1633 1.390 . S
C1639 C1636 1.386 . S
C1640 C1635 1.490 . S
C1640 C1642 1.395 . S
C1640 C1643 1.403 1_655 S
H1641 C1647 0.930 . S
C1642 H1628 0.930 . S
C1642 C1640 1.395 . S
C1642 C1645 1.403 . S
C1643 C1640 1.403 1_455 S
C1643 C1644 1.524 . S
C1643 C1647 1.400 . S
C1644 H1629 0.960 . S
C1644 H1630 0.960 . S
C1644 H1631 0.960 . S
C1644 C1643 1.524 . S
C1645 C1642 1.403 . S
C1645 C1646 1.392 1_655 S
C1645 C1649 1.495 . S
C1646 C1645 1.392 1_455 S
C1646 C1647 1.385 . S
C1646 C1648 1.478 . S
C1647 H1641 0.930 . S
C1647 C1643 1.400 . S
C1647 C1646 1.385 . S
C1648 C1646 1.478 . S
C1648 C1650 1.381 . S
C1648 C1654 1.383 . S
C1649 C1645 1.495 . S
C1649 H1655 0.959 . S
C1649 H1656 0.961 . S
C1649 H1657 0.960 . S
C1650 C1648 1.381 . S
C1650 C1651 1.394 . S
C1650 H1658 0.930 . S
C1651 C1650 1.394 . S
C1651 C1652 1.383 . S
C1651 H1659 0.929 . S
C1652 C1651 1.383 . S
C1652 C1653 1.377 . S
C1653 H1637 0.930 . S
C1653 C1652 1.377 . S
C1653 C1654 1.379 . S
C1654 H1638 0.931 . S
C1654 C1648 1.383 . S
C1654 C1653 1.379 . S
H1655 C1649 0.959 . S
H1656 C1649 0.961 . S
H1657 C1649 0.960 . S
H1658 C1650 0.930 . S
H1659 C1651 0.929 . S
H1660 C1668 0.929 . S
H1661 C1670 0.930 . S
H1662 C1672 0.878 1_556 S
H1663 C1675 0.929 . S
H1664 C1678 0.930 . S
H1665 C1680 0.960 . S
H1666 C1680 0.890 1_554 S
H1667 C1680 0.960 . S
C1668 H1660 0.929 . S
C1668 C1669 1.377 . S
C1668 C1670 1.384 . S
C1669 C1668 1.377 . S
C1669 C1675 1.390 . S
C1670 H1661 0.930 . S
C1670 C1668 1.384 . S
C1670 C1671 1.372 . S
C1671 C1670 1.372 . S
C1671 C1672 1.400 . S
C1671 C1676 1.490 . S
C1672 H1662 0.878 1_554 S
C1672 C1671 1.400 . S
C1672 C1675 1.386 . S
H1673 C1689 0.930 . S
H1674 C1690 0.931 . S
C1675 H1663 0.929 . S
C1675 C1669 1.390 . S
C1675 C1672 1.386 . S
C1676 C1671 1.490 . S
C1676 C1678 1.395 . S
C1676 C1679 1.403 1_554 S
H1677 C1683 0.930 . S
C1678 H1664 0.930 . S
C1678 C1676 1.395 . S
C1678 C1681 1.403 . S
C1679 C1676 1.403 1_556 S
C1679 C1680 1.524 . S
C1679 C1683 1.400 . S
C1680 H1665 0.960 . S
C1680 H1666 0.890 1_556 S
C1680 H1667 0.960 . S
C1680 C1679 1.524 . S
C1681 C1678 1.403 . S
C1681 C1682 1.392 1_554 S
C1681 C1685 1.495 . S
C1682 C1681 1.392 1_556 S
C1682 C1683 1.385 . S
C1682 C1684 1.478 . S
C1683 H1677 0.930 . S
C1683 C1679 1.400 . S
C1683 C1682 1.385 . S
C1684 C1682 1.478 . S
C1684 C1686 1.381 . S
C1684 C1690 1.383 . S
C1685 C1681 1.495 . S
C1685 H1691 0.959 . S
C1685 H1692 0.909 1_554 S
C1685 H1693 0.960 . S
C1686 C1684 1.381 . S
C1686 C1687 1.394 . S
C1686 H1694 0.999 . S
C1687 C1686 1.394 . S
C1687 C1688 1.383 . S
C1687 H1695 0.929 . S
C1688 C1687 1.383 . S
C1688 C1689 1.377 . S
C1689 H1673 0.930 . S
C1689 C1688 1.377 . S
C1689 C1690 1.379 . S
C1690 H1674 0.931 . S
C1690 C1684 1.383 . S
C1690 C1689 1.379 . S
H1691 C1685 0.959 . S
H1692 C1685 0.909 1_556 S
H1693 C1685 0.960 . S
H1694 C1686 0.999 . S
H1695 C1687 0.929 . S
H1696 C1704 0.929 . S
H1697 C1706 0.930 . S
H1698 C1708 0.930 . S
H1699 C1711 0.929 . S
H1700 C1714 0.930 . S
H1701 C1716 0.960 . S
H1702 C1716 0.960 . S
H1703 C1716 0.960 1_556 S
C1704 H1696 0.929 . S
C1704 C1705 1.377 . S
C1704 C1706 1.384 . S
C1705 C1704 1.377 . S
C1705 C1711 1.390 . S
C1706 H1697 0.930 . S
C1706 C1704 1.384 . S
C1706 C1707 1.372 . S
C1707 C1706 1.372 . S
C1707 C1708 1.400 . S
C1707 C1712 1.490 . S
C1708 H1698 0.930 . S
C1708 C1707 1.400 . S
C1708 C1711 1.386 . S
H1709 C1725 0.930 . S
H1710 C1726 0.931 . S
C1711 H1699 0.929 . S
C1711 C1705 1.390 . S
C1711 C1708 1.386 . S
C1712 C1707 1.490 . S
C1712 C1714 1.395 1_455 S
C1712 C1715 1.405 . S
H1713 C1719 0.930 . S
C1714 H1700 0.930 . S
C1714 C1712 1.395 1_655 S
C1714 C1717 1.403 . S
C1715 C1712 1.405 . S
C1715 C1716 1.523 1_556 S
C1715 C1719 1.398 1_556 S
C1716 H1701 0.960 . S
C1716 H1702 0.960 . S
C1716 H1703 0.960 1_554 S
C1716 C1715 1.523 1_554 S
C1717 C1714 1.403 . S
C1717 C1718 1.392 1_556 S
C1717 C1721 1.495 . S
C1718 C1717 1.392 1_554 S
C1718 C1719 1.385 1_655 S
C1718 C1720 1.478 . S
C1719 H1713 0.930 . S
C1719 C1715 1.398 1_554 S
C1719 C1718 1.385 1_455 S
C1720 C1718 1.478 . S
C1720 C1722 1.381 . S
C1720 C1726 1.383 . S
C1721 C1717 1.495 . S
C1721 H1727 0.959 . S
C1721 H1728 0.961 . S
C1721 H1729 0.960 1_556 S
C1722 C1720 1.381 . S
C1722 C1723 1.394 . S
C1722 H1730 0.930 . S
C1723 C1722 1.394 . S
C1723 C1724 1.383 . S
C1723 H1731 0.929 . S
C1724 C1723 1.383 . S
C1724 C1725 1.377 . S
C1725 H1709 0.930 . S
C1725 C1724 1.377 . S
C1725 C1726 1.379 . S
C1726 H1710 0.931 . S
C1726 C1720 1.383 . S
C1726 C1725 1.379 . S
H1727 C1721 0.959 . S
H1728 C1721 0.961 . S
H1729 C1721 0.960 1_554 S
H1730 C1722 0.930 . S
H1731 C1723 0.929 . S
H1732 C1740 0.929 . S
H1733 C1742 0.930 . S
H1734 C1744 0.930 . S
H1735 C1747 0.929 . S
H1736 C1750 0.930 . S
H1737 C1752 0.960 . S
H1738 C1752 0.960 . S
H1739 C1752 0.960 . S
C1740 H1732 0.929 . S
C1740 C1741 1.377 . S
C1740 C1742 1.384 . S
C1741 C1740 1.377 . S
C1741 C1747 1.390 . S
C1742 H1733 0.930 . S
C1742 C1740 1.384 . S
C1742 C1743 1.372 . S
C1743 C1742 1.372 . S
C1743 C1744 1.400 . S
C1743 C1748 1.490 . S
C1744 H1734 0.930 . S
C1744 C1743 1.400 . S
C1744 C1747 1.386 . S
H1745 C1761 0.930 . S
H1746 C1762 0.931 . S
C1747 H1735 0.929 . S
C1747 C1741 1.390 . S
C1747 C1744 1.386 . S
C1748 C1743 1.490 . S
C1748 C1750 1.395 . S
C1748 C1751 1.403 . S
H1749 C1755 0.930 . S
C1750 H1736 0.930 . S
C1750 C1748 1.395 . S
C1750 C1753 1.403 . S
C1751 C1748 1.403 . S
C1751 C1752 1.524 . S
C1751 C1755 1.400 . S
C1752 H1737 0.960 . S
C1752 H1738 0.960 . S
C1752 H1739 0.960 . S
C1752 C1751 1.524 . S
C1753 C1750 1.403 . S
C1753 C1754 1.392 . S
C1753 C1757 1.495 . S
C1754 C1753 1.392 . S
C1754 C1755 1.385 . S
C1754 C1756 1.478 . S
C1755 H1749 0.930 . S
C1755 C1751 1.400 . S
C1755 C1754 1.385 . S
C1756 C1754 1.478 . S
C1756 C1758 1.381 . S
C1756 C1762 1.383 . S
C1757 C1753 1.495 . S
C1757 H1763 0.959 . S
C1757 H1764 0.961 . S
C1757 H1765 0.960 . S
C1758 C1756 1.381 . S
C1758 C1759 1.394 . S
C1758 H1766 0.930 . S
C1759 C1758 1.394 . S
C1759 C1760 1.383 . S
C1759 H1767 0.929 . S
C1760 C1759 1.383 . S
C1760 C1761 1.377 . S
C1761 H1745 0.930 . S
C1761 C1760 1.377 . S
C1761 C1762 1.379 . S
C1762 H1746 0.931 . S
C1762 C1756 1.383 . S
C1762 C1761 1.379 . S
H1763 C1757 0.959 . S
H1764 C1757 0.961 . S
H1765 C1757 0.960 . S
H1766 C1758 0.930 . S
H1767 C1759 0.929 . S
H1768 C1776 0.929 . S
H1769 C1778 0.930 . S
H1770 C1780 0.930 . S
H1771 C1783 0.929 . S
H1772 C1786 0.930 . S
H1773 C1788 0.960 . S
H1774 C1788 0.960 . S
H1775 C1788 0.960 . S
C1776 H1768 0.929 . S
C1776 C1777 1.377 . S
C1776 C1778 1.384 . S
C1777 C1776 1.377 . S
C1777 C1783 1.390 . S
C1778 H1769 0.930 . S
C1778 C1776 1.384 . S
C1778 C1779 1.372 . S
C1779 C1778 1.372 . S
C1779 C1780 1.400 . S
C1779 C1784 1.490 . S
C1780 H1770 0.930 . S
C1780 C1779 1.400 . S
C1780 C1783 1.386 . S
H1781 C1797 0.930 . S
H1782 C1798 0.931 . S
C1783 H1771 0.929 . S
C1783 C1777 1.390 . S
C1783 C1780 1.386 . S
C1784 C1779 1.490 . S
C1784 C1786 1.395 . S
C1784 C1787 1.403 . S
H1785 C1791 0.927 1_554 S
C1786 H1772 0.930 . S
C1786 C1784 1.395 . S
C1786 C1789 1.403 1_556 S
C1787 C1784 1.403 . S
C1787 C1788 1.524 . S
C1787 C1791 1.395 . S
C1788 H1773 0.960 . S
C1788 H1774 0.960 . S
C1788 H1775 0.960 . S
C1788 C1787 1.524 . S
C1789 C1786 1.403 1_554 S
C1789 C1790 1.392 . S
C1789 C1793 1.495 . S
C1790 C1789 1.392 . S
C1790 C1791 1.389 1_554 S
C1790 C1792 1.478 . S
C1791 H1785 0.927 1_556 S
C1791 C1787 1.395 . S
C1791 C1790 1.389 1_556 S
C1792 C1790 1.478 . S
C1792 C1794 1.381 . S
C1792 C1798 1.383 . S
C1793 C1789 1.495 . S
C1793 H1799 0.959 . S
C1793 H1800 0.961 . S
C1793 H1801 0.960 . S
C1794 C1792 1.381 . S
C1794 C1795 1.394 . S
C1794 H1802 0.930 . S
C1795 C1794 1.394 . S
C1795 C1796 1.383 . S
C1795 H1803 0.929 . S
C1796 C1795 1.383 . S
C1796 C1797 1.377 . S
C1797 H1781 0.930 . S
C1797 C1796 1.377 . S
C1797 C1798 1.379 . S
C1798 H1782 0.931 . S
C1798 C1792 1.383 . S
C1798 C1797 1.379 . S
H1799 C1793 0.959 . S
H1800 C1793 0.961 . S
H1801 C1793 0.960 . S
H1802 C1794 0.930 . S
H1803 C1795 0.929 . S
H1804 C1812 0.929 . S
H1805 C1814 0.930 . S
H1806 C1816 0.930 . S
H1807 C1819 0.929 . S
H1808 C1822 0.930 . S
H1809 C1824 0.960 . S
H1810 C1824 0.960 . S
H1811 C1824 0.960 . S
C1812 H1804 0.929 . S
C1812 C1813 1.377 . S
C1812 C1814 1.384 . S
C1813 C1812 1.377 . S
C1813 C1819 1.390 . S
C1814 H1805 0.930 . S
C1814 C1812 1.384 . S
C1814 C1815 1.372 . S
C1815 C1814 1.372 . S
C1815 C1816 1.400 . S
C1815 C1820 1.490 . S
C1816 H1806 0.930 . S
C1816 C1815 1.400 . S
C1816 C1819 1.386 . S
H1817 C1833 0.930 . S
H1818 C1834 0.931 . S
C1819 H1807 0.929 . S
C1819 C1813 1.390 . S
C1819 C1816 1.386 . S
C1820 C1815 1.490 . S
C1820 C1822 1.395 . S
C1820 C1823 1.403 . S
H1821 C1827 0.930 . S
C1822 H1808 0.930 . S
C1822 C1820 1.395 . S
C1822 C1825 1.403 . S
C1823 C1820 1.403 . S
C1823 C1824 1.524 . S
C1823 C1827 1.400 . S
C1824 H1809 0.960 . S
C1824 H1810 0.960 . S
C1824 H1811 0.960 . S
C1824 C1823 1.524 . S
C1825 C1822 1.403 . S
C1825 C1826 1.392 . S
C1825 C1829 1.495 . S
C1826 C1825 1.392 . S
C1826 C1827 1.385 . S
C1826 C1828 1.478 . S
C1827 H1821 0.930 . S
C1827 C1823 1.400 . S
C1827 C1826 1.385 . S
C1828 C1826 1.478 . S
C1828 C1830 1.381 . S
C1828 C1834 1.383 . S
C1829 C1825 1.495 . S
C1829 H1835 0.959 . S
C1829 H1836 0.961 . S
C1829 H1837 0.960 . S
C1830 C1828 1.381 . S
C1830 C1831 1.394 . S
C1830 H1838 0.930 . S
C1831 C1830 1.394 . S
C1831 C1832 1.383 . S
C1831 H1839 0.929 . S
C1832 C1831 1.383 . S
C1832 C1833 1.377 . S
C1833 H1817 0.930 . S
C1833 C1832 1.377 . S
C1833 C1834 1.379 . S
C1834 H1818 0.931 . S
C1834 C1828 1.383 . S
C1834 C1833 1.379 . S
H1835 C1829 0.959 . S
H1836 C1829 0.961 . S
H1837 C1829 0.960 . S
H1838 C1830 0.930 . S
H1839 C1831 0.929 . S
H1840 C1848 0.929 . S
H1841 C1850 0.930 . S
H1842 C1852 0.930 . S
H1843 C1855 0.929 . S
H1844 C1858 0.930 . S
H1845 C1860 0.960 . S
H1846 C1860 0.960 . S
H1847 C1860 0.960 . S
C1848 H1840 0.929 . S
C1848 C1849 1.377 . S
C1848 C1850 1.384 . S
C1849 C1848 1.377 . S
C1849 C1855 1.390 . S
C1850 H1841 0.930 . S
C1850 C1848 1.384 . S
C1850 C1851 1.372 . S
C1851 C1850 1.372 . S
C1851 C1852 1.400 . S
C1851 C1856 1.490 . S
C1852 H1842 0.930 . S
C1852 C1851 1.400 . S
C1852 C1855 1.386 . S
H1853 C1869 0.930 . S
H1854 C1870 0.931 . S
C1855 H1843 0.929 . S
C1855 C1849 1.390 . S
C1855 C1852 1.386 . S
C1856 C1851 1.490 . S
C1856 C1858 1.385 1_545 S
C1856 C1859 1.403 1_556 S
H1857 C1863 0.931 . S
C1858 H1844 0.930 . S
C1858 C1856 1.385 1_565 S
C1858 C1861 1.413 . S
C1859 C1856 1.403 1_554 S
C1859 C1860 1.524 . S
C1859 C1863 1.383 1_545 S
C1860 H1845 0.960 . S
C1860 H1846 0.960 . S
C1860 H1847 0.960 . S
C1860 C1859 1.524 . S
C1861 C1858 1.413 . S
C1861 C1862 1.392 1_556 S
C1861 C1865 1.495 . S
C1862 C1861 1.392 1_554 S
C1862 C1863 1.402 . S
C1862 C1864 1.478 . S
C1863 H1857 0.931 . S
C1863 C1859 1.383 1_565 S
C1863 C1862 1.402 . S
C1864 C1862 1.478 . S
C1864 C1866 1.381 . S
C1864 C1870 1.383 . S
C1865 C1861 1.495 . S
C1865 H1871 0.959 . S
C1865 H1872 0.961 . S
C1865 H1873 0.960 . S
C1866 C1864 1.381 . S
C1866 C1867 1.394 . S
C1866 H1874 0.930 . S
C1867 C1866 1.394 . S
C1867 C1868 1.383 . S
C1867 H1875 0.929 . S
C1868 C1867 1.383 . S
C1868 C1869 1.377 . S
C1869 H1853 0.930 . S
C1869 C1868 1.377 . S
C1869 C1870 1.379 . S
C1870 H1854 0.931 . S
C1870 C1864 1.383 . S
C1870 C1869 1.379 . S
H1871 C1865 0.959 . S
H1872 C1865 0.961 . S
H1873 C1865 0.960 . S
H1874 C1866 0.930 . S
H1875 C1867 0.929 . S
H1876 C1884 0.929 . S
H1877 C1886 0.930 . S
H1878 C1888 0.930 . S
H1879 C1891 0.929 . S
H1880 C1894 0.930 . S
H1881 C1896 0.960 . S
H1882 C1896 0.960 . S
H1883 C1896 0.960 . S
C1884 H1876 0.929 . S
C1884 C1885 1.377 . S
C1884 C1886 1.384 . S
C1885 C1884 1.377 . S
C1885 C1891 1.390 . S
C1886 H1877 0.930 . S
C1886 C1884 1.384 . S
C1886 C1887 1.372 . S
C1887 C1886 1.372 . S
C1887 C1888 1.400 . S
C1887 C1892 1.490 . S
C1888 H1878 0.930 . S
C1888 C1887 1.400 . S
C1888 C1891 1.386 . S
H1889 C1905 0.930 . S
H1890 C1906 0.931 . S
C1891 H1879 0.929 . S
C1891 C1885 1.390 . S
C1891 C1888 1.386 . S
C1892 C1887 1.490 . S
C1892 C1894 1.395 . S
C1892 C1895 1.403 . S
H1893 C1899 0.930 . S
C1894 H1880 0.930 . S
C1894 C1892 1.395 . S
C1894 C1897 1.403 . S
C1895 C1892 1.403 . S
C1895 C1896 1.524 . S
C1895 C1899 1.400 . S
C1896 H1881 0.960 . S
C1896 H1882 0.960 . S
C1896 H1883 0.960 . S
C1896 C1895 1.524 . S
C1897 C1894 1.403 . S
C1897 C1898 1.392 . S
C1897 C1901 1.495 . S
C1898 C1897 1.392 . S
C1898 C1899 1.385 . S
C1898 C1900 1.478 . S
C1899 H1893 0.930 . S
C1899 C1895 1.400 . S
C1899 C1898 1.385 . S
C1900 C1898 1.478 . S
C1900 C1902 1.381 . S
C1900 C1906 1.383 . S
C1901 C1897 1.495 . S
C1901 H1907 0.959 . S
C1901 H1908 0.961 . S
C1901 H1909 0.960 . S
C1902 C1900 1.381 . S
C1902 C1903 1.394 . S
C1902 H1910 0.930 . S
C1903 C1902 1.394 . S
C1903 C1904 1.383 . S
C1903 H1911 0.929 . S
C1904 C1903 1.383 . S
C1904 C1905 1.377 . S
C1905 H1889 0.930 . S
C1905 C1904 1.377 . S
C1905 C1906 1.379 . S
C1906 H1890 0.931 . S
C1906 C1900 1.383 . S
C1906 C1905 1.379 . S
H1907 C1901 0.959 . S
H1908 C1901 0.961 . S
H1909 C1901 0.960 . S
H1910 C1902 0.930 . S
H1911 C1903 0.929 . S
H1912 C1920 0.929 . S
H1913 C1922 0.930 . S
H1914 C1924 0.930 . S
H1915 C1927 0.929 . S
H1916 C1930 0.930 . S
H1917 C1932 0.960 . S
H1918 C1932 0.960 . S
H1919 C1932 0.960 . S
C1920 H1912 0.929 . S
C1920 C1921 1.377 . S
C1920 C1922 1.384 . S
C1921 C1920 1.377 . S
C1921 C1927 1.390 . S
C1922 H1913 0.930 . S
C1922 C1920 1.384 . S
C1922 C1923 1.372 . S
C1923 C1922 1.372 . S
C1923 C1924 1.400 . S
C1923 C1928 1.490 . S
C1924 H1914 0.930 . S
C1924 C1923 1.400 . S
C1924 C1927 1.386 . S
H1925 C1941 0.930 . S
H1926 C1942 0.931 . S
C1927 H1915 0.929 . S
C1927 C1921 1.390 . S
C1927 C1924 1.386 . S
C1928 C1923 1.490 . S
C1928 C1930 1.395 . S
C1928 C1931 1.403 . S
H1929 C1935 0.930 . S
C1930 H1916 0.930 . S
C1930 C1928 1.395 . S
C1930 C1933 1.403 . S
C1931 C1928 1.403 . S
C1931 C1932 1.524 . S
C1931 C1935 1.400 . S
C1932 H1917 0.960 . S
C1932 H1918 0.960 . S
C1932 H1919 0.960 . S
C1932 C1931 1.524 . S
C1933 C1930 1.403 . S
C1933 C1934 1.392 . S
C1933 C1937 1.495 . S
C1934 C1933 1.392 . S
C1934 C1935 1.385 . S
C1934 C1936 1.478 . S
C1935 H1929 0.930 . S
C1935 C1931 1.400 . S
C1935 C1934 1.385 . S
C1936 C1934 1.478 . S
C1936 C1938 1.381 . S
C1936 C1942 1.383 . S
C1937 C1933 1.495 . S
C1937 H1943 0.959 . S
C1937 H1944 0.961 . S
C1937 H1945 0.960 . S
C1938 C1936 1.381 . S
C1938 C1939 1.394 . S
C1938 H1946 0.930 . S
C1939 C1938 1.394 . S
C1939 C1940 1.383 . S
C1939 H1947 0.929 . S
C1940 C1939 1.383 . S
C1940 C1941 1.377 . S
C1941 H1925 0.930 . S
C1941 C1940 1.377 . S
C1941 C1942 1.379 . S
C1942 H1926 0.931 . S
C1942 C1936 1.383 . S
C1942 C1941 1.379 . S
H1943 C1937 0.959 . S
H1944 C1937 0.961 . S
H1945 C1937 0.960 . S
H1946 C1938 0.930 . S
H1947 C1939 0.929 . S
H1948 C1956 0.929 . S
H1949 C1958 0.930 . S
H1950 C1960 0.930 . S
H1951 C1963 0.929 . S
H1952 C1966 0.930 . S
H1953 C1968 0.960 . S
H1954 C1968 0.960 . S
H1955 C1968 0.960 . S
C1956 H1948 0.929 . S
C1956 C1957 1.377 . S
C1956 C1958 1.384 . S
C1957 C1956 1.377 . S
C1957 C1963 1.390 . S
C1958 H1949 0.930 . S
C1958 C1956 1.384 . S
C1958 C1959 1.372 . S
C1959 C1958 1.372 . S
C1959 C1960 1.400 . S
C1959 C1964 1.490 . S
C1960 H1950 0.930 . S
C1960 C1959 1.400 . S
C1960 C1963 1.386 . S
H1961 C1977 0.930 . S
H1962 C1978 0.931 . S
C1963 H1951 0.929 . S
C1963 C1957 1.390 . S
C1963 C1960 1.386 . S
C1964 C1959 1.490 . S
C1964 C1966 1.395 . S
C1964 C1967 1.403 . S
H1965 C1971 0.930 . S
C1966 H1952 0.930 . S
C1966 C1964 1.395 . S
C1966 C1969 1.403 . S
C1967 C1964 1.403 . S
C1967 C1968 1.524 . S
C1967 C1971 1.400 . S
C1968 H1953 0.960 . S
C1968 H1954 0.960 . S
C1968 H1955 0.960 . S
C1968 C1967 1.524 . S
C1969 C1966 1.403 . S
C1969 C1970 1.392 . S
C1969 C1973 1.495 . S
C1970 C1969 1.392 . S
C1970 C1971 1.385 . S
C1970 C1972 1.478 . S
C1971 H1965 0.930 . S
C1971 C1967 1.400 . S
C1971 C1970 1.385 . S
C1972 C1970 1.478 . S
C1972 C1974 1.381 . S
C1972 C1978 1.383 . S
C1973 C1969 1.495 . S
C1973 H1979 0.959 . S
C1973 H1980 0.961 . S
C1973 H1981 0.960 . S
C1974 C1972 1.381 . S
C1974 C1975 1.394 . S
C1974 H1982 0.930 . S
C1975 C1974 1.394 . S
C1975 C1976 1.383 . S
C1975 H1983 0.929 . S
C1976 C1975 1.383 . S
C1976 C1977 1.377 . S
C1977 H1961 0.930 . S
C1977 C1976 1.377 . S
C1977 C1978 1.379 . S
C1978 H1962 0.931 . S
C1978 C1972 1.383 . S
C1978 C1977 1.379 . S
H1979 C1973 0.959 . S
H1980 C1973 0.961 . S
H1981 C1973 0.960 . S
H1982 C1974 0.930 . S
H1983 C1975 0.929 . S
H1984 C1992 0.929 . S
H1985 C1994 0.930 . S
H1986 C1996 0.930 . S
H1987 C1999 0.929 . S
H1988 C2002 0.930 . S
H1989 C2004 0.960 . S
H1990 C2004 0.960 . S
H1991 C2004 0.960 . S
C1992 H1984 0.929 . S
C1992 C1993 1.377 . S
C1992 C1994 1.384 . S
C1993 C1992 1.377 . S
C1993 C1999 1.390 . S
C1994 H1985 0.930 . S
C1994 C1992 1.384 . S
C1994 C1995 1.372 . S
C1995 C1994 1.372 . S
C1995 C1996 1.400 . S
C1995 C2000 1.490 . S
C1996 H1986 0.930 . S
C1996 C1995 1.400 . S
C1996 C1999 1.386 . S
H1997 C2013 0.930 . S
H1998 C2014 0.931 . S
C1999 H1987 0.929 . S
C1999 C1993 1.390 . S
C1999 C1996 1.386 . S
C2000 C1995 1.490 . S
C2000 C2002 1.395 . S
C2000 C2003 1.403 . S
H2001 C2007 0.930 . S
C2002 H1988 0.930 . S
C2002 C2000 1.395 . S
C2002 C2005 1.403 . S
C2003 C2000 1.403 . S
C2003 C2004 1.524 . S
C2003 C2007 1.400 . S
C2004 H1989 0.960 . S
C2004 H1990 0.960 . S
C2004 H1991 0.960 . S
C2004 C2003 1.524 . S
C2005 C2002 1.403 . S
C2005 C2006 1.392 . S
C2005 C2009 1.495 . S
C2006 C2005 1.392 . S
C2006 C2007 1.385 . S
C2006 C2008 1.478 . S
C2007 H2001 0.930 . S
C2007 C2003 1.400 . S
C2007 C2006 1.385 . S
C2008 C2006 1.478 . S
C2008 C2010 1.381 . S
C2008 C2014 1.383 . S
C2009 C2005 1.495 . S
C2009 H2015 0.959 . S
C2009 H2016 0.961 . S
C2009 H2017 0.960 . S
C2010 C2008 1.381 . S
C2010 C2011 1.394 . S
C2010 H2018 0.930 . S
C2011 C2010 1.394 . S
C2011 C2012 1.383 . S
C2011 H2019 0.929 . S
C2012 C2011 1.383 . S
C2012 C2013 1.377 . S
C2013 H1997 0.930 . S
C2013 C2012 1.377 . S
C2013 C2014 1.379 . S
C2014 H1998 0.931 . S
C2014 C2008 1.383 . S
C2014 C2013 1.379 . S
H2015 C2009 0.959 . S
H2016 C2009 0.961 . S
H2017 C2009 0.960 . S
H2018 C2010 0.930 . S
H2019 C2011 0.929 . S
H2020 C2028 0.929 . S
H2021 C2030 0.930 . S
H2022 C2032 0.930 . S
H2023 C2035 0.929 . S
H2024 C2038 0.930 . S
H2025 C2040 0.960 . S
H2026 C2040 0.960 . S
H2027 C2040 0.960 . S
C2028 H2020 0.929 . S
C2028 C2029 1.377 . S
C2028 C2030 1.384 . S
C2029 C2028 1.377 . S
C2029 C2035 1.390 . S
C2030 H2021 0.930 . S
C2030 C2028 1.384 . S
C2030 C2031 1.372 . S
C2031 C2030 1.372 . S
C2031 C2032 1.400 . S
C2031 C2036 1.490 . S
C2032 H2022 0.930 . S
C2032 C2031 1.400 . S
C2032 C2035 1.386 . S
H2033 C2049 0.930 . S
H2034 C2050 0.931 . S
C2035 H2023 0.929 . S
C2035 C2029 1.390 . S
C2035 C2032 1.386 . S
C2036 C2031 1.490 . S
C2036 C2038 1.395 . S
C2036 C2039 1.403 . S
H2037 C2043 0.930 . S
C2038 H2024 0.930 . S
C2038 C2036 1.395 . S
C2038 C2041 1.403 . S
C2039 C2036 1.403 . S
C2039 C2040 1.524 . S
C2039 C2043 1.400 . S
C2040 H2025 0.960 . S
C2040 H2026 0.960 . S
C2040 H2027 0.960 . S
C2040 C2039 1.524 . S
C2041 C2038 1.403 . S
C2041 C2042 1.392 . S
C2041 C2045 1.495 . S
C2042 C2041 1.392 . S
C2042 C2043 1.385 . S
C2042 C2044 1.478 . S
C2043 H2037 0.930 . S
C2043 C2039 1.400 . S
C2043 C2042 1.385 . S
C2044 C2042 1.478 . S
C2044 C2046 1.381 . S
C2044 C2050 1.383 . S
C2045 C2041 1.495 . S
C2045 H2051 0.959 . S
C2045 H2052 0.961 . S
C2045 H2053 0.960 . S
C2046 C2044 1.381 . S
C2046 C2047 1.394 . S
C2046 H2054 0.930 . S
C2047 C2046 1.394 . S
C2047 C2048 1.383 . S
C2047 H2055 0.929 . S
C2048 C2047 1.383 . S
C2048 C2049 1.377 . S
C2049 H2033 0.930 . S
C2049 C2048 1.377 . S
C2049 C2050 1.379 . S
C2050 H2034 0.931 . S
C2050 C2044 1.383 . S
C2050 C2049 1.379 . S
H2051 C2045 0.959 . S
H2052 C2045 0.961 . S
H2053 C2045 0.960 . S
H2054 C2046 0.930 . S
H2055 C2047 0.929 . S
H2056 C2064 0.929 . S
H2057 C2066 0.930 . S
H2058 C2068 0.930 . S
H2059 C2071 0.929 . S
H2060 C2074 0.930 . S
H2061 C2076 0.960 . S
H2062 C2076 0.960 . S
H2063 C2076 0.960 . S
C2064 H2056 0.929 . S
C2064 C2065 1.377 . S
C2064 C2066 1.384 . S
C2065 C2064 1.377 . S
C2065 C2071 1.390 . S
C2066 H2057 0.930 . S
C2066 C2064 1.384 . S
C2066 C2067 1.372 . S
C2067 C2066 1.372 . S
C2067 C2068 1.400 . S
C2067 C2072 1.490 . S
C2068 H2058 0.930 . S
C2068 C2067 1.400 . S
C2068 C2071 1.386 . S
H2069 C2085 0.930 . S
H2070 C2086 0.931 . S
C2071 H2059 0.929 . S
C2071 C2065 1.390 . S
C2071 C2068 1.386 . S
C2072 C2067 1.490 . S
C2072 C2074 1.395 . S
C2072 C2075 1.403 . S
H2073 C2079 0.930 . S
C2074 H2060 0.930 . S
C2074 C2072 1.395 . S
C2074 C2077 1.403 . S
C2075 C2072 1.403 . S
C2075 C2076 1.524 . S
C2075 C2079 1.400 . S
C2076 H2061 0.960 . S
C2076 H2062 0.960 . S
C2076 H2063 0.960 . S
C2076 C2075 1.524 . S
C2077 C2074 1.403 . S
C2077 C2078 1.392 . S
C2077 C2081 1.495 . S
C2078 C2077 1.392 . S
C2078 C2079 1.385 . S
C2078 C2080 1.478 . S
C2079 H2073 0.930 . S
C2079 C2075 1.400 . S
C2079 C2078 1.385 . S
C2080 C2078 1.478 . S
C2080 C2082 1.381 . S
C2080 C2086 1.383 . S
C2081 C2077 1.495 . S
C2081 H2087 0.959 . S
C2081 H2088 0.961 . S
C2081 H2089 0.960 . S
C2082 C2080 1.381 . S
C2082 C2083 1.394 . S
C2082 H2090 0.930 . S
C2083 C2082 1.394 . S
C2083 C2084 1.383 . S
C2083 H2091 0.929 . S
C2084 C2083 1.383 . S
C2084 C2085 1.377 . S
C2085 H2069 0.930 . S
C2085 C2084 1.377 . S
C2085 C2086 1.379 . S
C2086 H2070 0.931 . S
C2086 C2080 1.383 . S
C2086 C2085 1.379 . S
H2087 C2081 0.959 . S
H2088 C2081 0.961 . S
H2089 C2081 0.960 . S
H2090 C2082 0.930 . S
H2091 C2083 0.929 . S
H2092 C2100 0.929 . S
H2093 C2102 0.930 . S
H2094 C2104 0.930 . S
H2095 C2107 0.929 . S
H2096 C2110 0.930 . S
H2097 C2112 0.960 . S
H2098 C2112 0.960 . S
H2099 C2112 0.960 . S
C2100 H2092 0.929 . S
C2100 C2101 1.377 . S
C2100 C2102 1.384 . S
C2101 C2100 1.377 . S
C2101 C2107 1.390 . S
C2102 H2093 0.930 . S
C2102 C2100 1.384 . S
C2102 C2103 1.372 . S
C2103 C2102 1.372 . S
C2103 C2104 1.400 . S
C2103 C2108 1.490 . S
C2104 H2094 0.930 . S
C2104 C2103 1.400 . S
C2104 C2107 1.386 . S
H2105 C2121 0.930 . S
H2106 C2122 0.931 . S
C2107 H2095 0.929 . S
C2107 C2101 1.390 . S
C2107 C2104 1.386 . S
C2108 C2103 1.490 . S
C2108 C2110 1.395 . S
C2108 C2111 1.403 . S
H2109 C2115 0.930 . S
C2110 H2096 0.930 . S
C2110 C2108 1.395 . S
C2110 C2113 1.403 . S
C2111 C2108 1.403 . S
C2111 C2112 1.524 . S
C2111 C2115 1.400 . S
C2112 H2097 0.960 . S
C2112 H2098 0.960 . S
C2112 H2099 0.960 . S
C2112 C2111 1.524 . S
C2113 C2110 1.403 . S
C2113 C2114 1.392 . S
C2113 C2117 1.495 . S
C2114 C2113 1.392 . S
C2114 C2115 1.385 . S
C2114 C2116 1.478 . S
C2115 H2109 0.930 . S
C2115 C2111 1.400 . S
C2115 C2114 1.385 . S
C2116 C2114 1.478 . S
C2116 C2118 1.381 . S
C2116 C2122 1.383 . S
C2117 C2113 1.495 . S
C2117 H2123 0.959 . S
C2117 H2124 0.961 . S
C2117 H2125 0.960 . S
C2118 C2116 1.381 . S
C2118 C2119 1.394 . S
C2118 H2126 0.930 . S
C2119 C2118 1.394 . S
C2119 C2120 1.383 . S
C2119 H2127 0.929 . S
C2120 C2119 1.383 . S
C2120 C2121 1.377 . S
C2121 H2105 0.930 . S
C2121 C2120 1.377 . S
C2121 C2122 1.379 . S
C2122 H2106 0.931 . S
C2122 C2116 1.383 . S
C2122 C2121 1.379 . S
H2123 C2117 0.959 . S
H2124 C2117 0.961 . S
H2125 C2117 0.960 . S
H2126 C2118 0.930 . S
H2127 C2119 0.929 . S
H2128 C2136 0.929 . S
H2129 C2138 0.930 . S
H2130 C2140 0.930 . S
H2131 C2143 0.929 . S
H2132 C2146 0.930 . S
H2133 C2148 0.960 . S
H2134 C2148 0.960 . S
H2135 C2148 0.960 . S
C2136 H2128 0.929 . S
C2136 C2137 1.377 . S
C2136 C2138 1.384 . S
C2137 C2136 1.377 . S
C2137 C2143 1.390 . S
C2138 H2129 0.930 . S
C2138 C2136 1.384 . S
C2138 C2139 1.372 . S
C2139 C2138 1.372 . S
C2139 C2140 1.400 . S
C2139 C2144 1.490 . S
C2140 H2130 0.930 . S
C2140 C2139 1.400 . S
C2140 C2143 1.386 . S
H2141 C2157 0.930 . S
H2142 C2158 0.931 . S
C2143 H2131 0.929 . S
C2143 C2137 1.390 . S
C2143 C2140 1.386 . S
C2144 C2139 1.490 . S
C2144 C2146 1.395 . S
C2144 C2147 1.403 . S
H2145 C2151 0.930 . S
C2146 H2132 0.930 . S
C2146 C2144 1.395 . S
C2146 C2149 1.403 . S
C2147 C2144 1.403 . S
C2147 C2148 1.524 . S
C2147 C2151 1.400 . S
C2148 H2133 0.960 . S
C2148 H2134 0.960 . S
C2148 H2135 0.960 . S
C2148 C2147 1.524 . S
C2149 C2146 1.403 . S
C2149 C2150 1.392 . S
C2149 C2153 1.495 . S
C2150 C2149 1.392 . S
C2150 C2151 1.385 . S
C2150 C2152 1.478 . S
C2151 H2145 0.930 . S
C2151 C2147 1.400 . S
C2151 C2150 1.385 . S
C2152 C2150 1.478 . S
C2152 C2154 1.381 . S
C2152 C2158 1.383 . S
C2153 C2149 1.495 . S
C2153 H2159 0.959 . S
C2153 H2160 0.961 . S
C2153 H2161 0.960 . S
C2154 C2152 1.381 . S
C2154 C2155 1.394 . S
C2154 H2162 0.930 . S
C2155 C2154 1.394 . S
C2155 C2156 1.383 . S
C2155 H2163 0.929 1_545 S
C2156 C2155 1.383 . S
C2156 C2157 1.377 . S
C2157 H2141 0.930 . S
C2157 C2156 1.377 . S
C2157 C2158 1.379 . S
C2158 H2142 0.931 . S
C2158 C2152 1.383 . S
C2158 C2157 1.379 . S
H2159 C2153 0.959 . S
H2160 C2153 0.961 . S
H2161 C2153 0.960 . S
H2162 C2154 0.930 . S
H2163 C2155 0.929 1_565 S
H2164 C2172 0.929 . S
H2165 C2174 0.930 . S
H2166 C2176 0.930 . S
H2167 C2179 0.929 . S
H2168 C2182 0.930 . S
H2169 C2184 0.960 . S
H2170 C2184 0.960 . S
H2171 C2184 0.960 . S
C2172 H2164 0.929 . S
C2172 C2173 1.377 . S
C2172 C2174 1.384 . S
C2173 C2172 1.377 . S
C2173 C2179 1.390 . S
C2174 H2165 0.930 . S
C2174 C2172 1.384 . S
C2174 C2175 1.372 . S
C2175 C2174 1.372 . S
C2175 C2176 1.400 . S
C2175 C2180 1.490 . S
C2176 H2166 0.930 . S
C2176 C2175 1.400 . S
C2176 C2179 1.386 . S
H2177 C2193 0.930 . S
H2178 C2194 0.931 . S
C2179 H2167 0.929 . S
C2179 C2173 1.390 . S
C2179 C2176 1.386 . S
C2180 C2175 1.490 . S
C2180 C2182 1.395 . S
C2180 C2183 1.403 . S
H2181 C2187 0.930 . S
C2182 H2168 0.930 . S
C2182 C2180 1.395 . S
C2182 C2185 1.403 . S
C2183 C2180 1.403 . S
C2183 C2184 1.524 . S
C2183 C2187 1.400 . S
C2184 H2169 0.960 . S
C2184 H2170 0.960 . S
C2184 H2171 0.960 . S
C2184 C2183 1.524 . S
C2185 C2182 1.403 . S
C2185 C2186 1.392 . S
C2185 C2189 1.495 . S
C2186 C2185 1.392 . S
C2186 C2187 1.385 . S
C2186 C2188 1.478 . S
C2187 H2181 0.930 . S
C2187 C2183 1.400 . S
C2187 C2186 1.385 . S
C2188 C2186 1.478 . S
C2188 C2190 1.381 . S
C2188 C2194 1.383 . S
C2189 C2185 1.495 . S
C2189 H2195 0.959 . S
C2189 H2196 0.961 . S
C2189 H2197 0.960 . S
C2190 C2188 1.381 . S
C2190 C2191 1.394 . S
C2190 H2198 0.930 . S
C2191 C2190 1.394 . S
C2191 C2192 1.383 . S
C2191 H2199 0.929 . S
C2192 C2191 1.383 . S
C2192 C2193 1.377 . S
C2193 H2177 0.930 . S
C2193 C2192 1.377 . S
C2193 C2194 1.379 . S
C2194 H2178 0.931 . S
C2194 C2188 1.383 . S
C2194 C2193 1.379 . S
H2195 C2189 0.959 . S
H2196 C2189 0.961 . S
H2197 C2189 0.960 . S
H2198 C2190 0.930 . S
H2199 C2191 0.929 . S
H2200 C2208 0.929 . S
H2201 C2210 0.930 . S
H2202 C2212 0.930 . S
H2203 C2215 0.929 . S
H2204 C2218 0.930 . S
H2205 C2220 0.960 . S
H2206 C2220 0.960 . S
H2207 C2220 0.960 . S
C2208 H2200 0.929 . S
C2208 C2209 1.377 . S
C2208 C2210 1.384 . S
C2209 C2208 1.377 . S
C2209 C2215 1.390 . S
C2210 H2201 0.930 . S
C2210 C2208 1.384 . S
C2210 C2211 1.372 . S
C2211 C2210 1.372 . S
C2211 C2212 1.400 . S
C2211 C2216 1.490 . S
C2212 H2202 0.930 . S
C2212 C2211 1.400 . S
C2212 C2215 1.386 . S
H2213 C2229 0.930 . S
H2214 C2230 0.931 . S
C2215 H2203 0.929 . S
C2215 C2209 1.390 . S
C2215 C2212 1.386 . S
C2216 C2211 1.490 . S
C2216 C2218 1.395 . S
C2216 C2219 1.403 . S
H2217 C2223 0.930 . S
C2218 H2204 0.930 . S
C2218 C2216 1.395 . S
C2218 C2221 1.403 . S
C2219 C2216 1.403 . S
C2219 C2220 1.524 . S
C2219 C2223 1.400 . S
C2220 H2205 0.960 . S
C2220 H2206 0.960 . S
C2220 H2207 0.960 . S
C2220 C2219 1.524 . S
C2221 C2218 1.403 . S
C2221 C2222 1.392 . S
C2221 C2225 1.495 . S
C2222 C2221 1.392 . S
C2222 C2223 1.385 . S
C2222 C2224 1.478 . S
C2223 H2217 0.930 . S
C2223 C2219 1.400 . S
C2223 C2222 1.385 . S
C2224 C2222 1.478 . S
C2224 C2226 1.381 . S
C2224 C2230 1.383 . S
C2225 C2221 1.495 . S
C2225 H2231 0.959 . S
C2225 H2232 0.961 . S
C2225 H2233 0.960 . S
C2226 C2224 1.381 . S
C2226 C2227 1.394 . S
C2226 H2234 0.930 . S
C2227 C2226 1.394 . S
C2227 C2228 1.383 . S
C2227 H2235 0.929 . S
C2228 C2227 1.383 . S
C2228 C2229 1.377 . S
C2229 H2213 0.930 . S
C2229 C2228 1.377 . S
C2229 C2230 1.379 . S
C2230 H2214 0.931 . S
C2230 C2224 1.383 . S
C2230 C2229 1.379 . S
H2231 C2225 0.959 . S
H2232 C2225 0.961 . S
H2233 C2225 0.960 . S
H2234 C2226 0.930 . S
H2235 C2227 0.929 . S
H2236 C2244 0.929 . S
H2237 C2246 0.930 . S
H2238 C2248 0.930 . S
H2239 C2251 0.929 1_565 S
H2240 C2254 0.930 . S
H2241 C2256 0.960 . S
H2242 C2256 0.960 . S
H2243 C2256 0.960 . S
C2244 H2236 0.929 . S
C2244 C2245 1.377 . S
C2244 C2246 1.384 . S
C2245 C2244 1.377 . S
C2245 C2251 1.390 . S
C2246 H2237 0.930 . S
C2246 C2244 1.384 . S
C2246 C2247 1.372 . S
C2247 C2246 1.372 . S
C2247 C2248 1.400 . S
C2247 C2252 1.490 . S
C2248 H2238 0.930 . S
C2248 C2247 1.400 . S
C2248 C2251 1.386 . S
H2249 C2265 0.930 . S
H2250 C2266 0.931 . S
C2251 H2239 0.929 1_545 S
C2251 C2245 1.390 . S
C2251 C2248 1.386 . S
C2252 C2247 1.490 . S
C2252 C2254 1.395 . S
C2252 C2255 1.403 . S
H2253 C2259 0.930 . S
C2254 H2240 0.930 . S
C2254 C2252 1.395 . S
C2254 C2257 1.403 . S
C2255 C2252 1.403 . S
C2255 C2256 1.524 . S
C2255 C2259 1.400 . S
C2256 H2241 0.960 . S
C2256 H2242 0.960 . S
C2256 H2243 0.960 . S
C2256 C2255 1.524 . S
C2257 C2254 1.403 . S
C2257 C2258 1.392 . S
C2257 C2261 1.495 . S
C2258 C2257 1.392 . S
C2258 C2259 1.385 . S
C2258 C2260 1.478 . S
C2259 H2253 0.930 . S
C2259 C2255 1.400 . S
C2259 C2258 1.385 . S
C2260 C2258 1.478 . S
C2260 C2262 1.381 . S
C2260 C2266 1.383 . S
C2261 C2257 1.495 . S
C2261 H2267 0.959 . S
C2261 H2268 0.961 . S
C2261 H2269 0.960 . S
C2262 C2260 1.381 . S
C2262 C2263 1.394 . S
C2262 H2270 0.930 . S
C2263 C2262 1.394 . S
C2263 C2264 1.383 . S
C2263 H2271 0.929 . S
C2264 C2263 1.383 . S
C2264 C2265 1.377 . S
C2265 H2249 0.930 . S
C2265 C2264 1.377 . S
C2265 C2266 1.379 . S
C2266 H2250 0.931 . S
C2266 C2260 1.383 . S
C2266 C2265 1.379 . S
H2267 C2261 0.959 . S
H2268 C2261 0.961 . S
H2269 C2261 0.960 . S
H2270 C2262 0.930 . S
H2271 C2263 0.929 . S
H2272 C2280 0.929 . S
H2273 C2282 0.930 . S
H2274 C2284 0.930 . S
H2275 C2287 0.929 . S
H2276 C2290 0.930 . S
H2277 C2292 0.960 . S
H2278 C2292 0.960 . S
H2279 C2292 0.960 . S
C2280 H2272 0.929 . S
C2280 C2281 1.377 . S
C2280 C2282 1.384 . S
C2281 C2280 1.377 . S
C2281 C2287 1.390 . S
C2282 H2273 0.930 . S
C2282 C2280 1.384 . S
C2282 C2283 1.372 . S
C2283 C2282 1.372 . S
C2283 C2284 1.400 . S
C2283 C2288 1.490 . S
C2284 H2274 0.930 . S
C2284 C2283 1.400 . S
C2284 C2287 1.386 . S
H2285 C2301 0.930 . S
H2286 C2302 0.931 . S
C2287 H2275 0.929 . S
C2287 C2281 1.390 . S
C2287 C2284 1.386 . S
C2288 C2283 1.490 . S
C2288 C2290 1.395 . S
C2288 C2291 1.403 . S
H2289 C2295 0.930 . S
C2290 H2276 0.930 . S
C2290 C2288 1.395 . S
C2290 C2293 1.403 . S
C2291 C2288 1.403 . S
C2291 C2292 1.524 . S
C2291 C2295 1.400 . S
C2292 H2277 0.960 . S
C2292 H2278 0.960 . S
C2292 H2279 0.960 . S
C2292 C2291 1.524 . S
C2293 C2290 1.403 . S
C2293 C2294 1.392 . S
C2293 C2297 1.495 . S
C2294 C2293 1.392 . S
C2294 C2295 1.385 . S
C2294 C2296 1.478 . S
C2295 H2289 0.930 . S
C2295 C2291 1.400 . S
C2295 C2294 1.385 . S
C2296 C2294 1.478 . S
C2296 C2298 1.381 . S
C2296 C2302 1.383 . S
C2297 C2293 1.495 . S
C2297 H2303 0.959 . S
C2297 H2304 0.961 . S
C2297 H2305 0.960 . S
C2298 C2296 1.381 . S
C2298 C2299 1.394 . S
C2298 H2306 0.930 . S
C2299 C2298 1.394 . S
C2299 C2300 1.383 . S
C2299 H2307 0.929 . S
C2300 C2299 1.383 . S
C2300 C2301 1.377 . S
C2301 H2285 0.930 . S
C2301 C2300 1.377 . S
C2301 C2302 1.379 . S
C2302 H2286 0.931 . S
C2302 C2296 1.383 . S
C2302 C2301 1.379 . S
H2303 C2297 0.959 . S
H2304 C2297 0.961 . S
H2305 C2297 0.960 . S
H2306 C2298 0.930 . S
H2307 C2299 0.929 . S
H2308 C2316 0.929 . S
H2309 C2318 0.930 . S
H2310 C2320 0.930 . S
H2311 C2323 0.929 . S
H2312 C2326 0.930 . S
H2313 C2328 0.960 . S
H2314 C2328 0.960 . S
H2315 C2328 0.960 . S
C2316 H2308 0.929 . S
C2316 C2317 1.377 . S
C2316 C2318 1.384 . S
C2317 C2316 1.377 . S
C2317 C2323 1.390 . S
C2318 H2309 0.930 . S
C2318 C2316 1.384 . S
C2318 C2319 1.372 . S
C2319 C2318 1.372 . S
C2319 C2320 1.400 . S
C2319 C2324 1.490 . S
C2320 H2310 0.930 . S
C2320 C2319 1.400 . S
C2320 C2323 1.386 . S
H2321 C2337 0.930 . S
H2322 C2338 0.931 . S
C2323 H2311 0.929 . S
C2323 C2317 1.390 . S
C2323 C2320 1.386 . S
C2324 C2319 1.490 . S
C2324 C2326 1.395 . S
C2324 C2327 1.403 . S
H2325 C2331 0.930 . S
C2326 H2312 0.930 . S
C2326 C2324 1.395 . S
C2326 C2329 1.403 . S
C2327 C2324 1.403 . S
C2327 C2328 1.524 . S
C2327 C2331 1.400 . S
C2328 H2313 0.960 . S
C2328 H2314 0.960 . S
C2328 H2315 0.960 . S
C2328 C2327 1.524 . S
C2329 C2326 1.403 . S
C2329 C2330 1.392 . S
C2329 C2333 1.495 . S
C2330 C2329 1.392 . S
C2330 C2331 1.385 . S
C2330 C2332 1.478 . S
C2331 H2325 0.930 . S
C2331 C2327 1.400 . S
C2331 C2330 1.385 . S
C2332 C2330 1.478 . S
C2332 C2334 1.381 . S
C2332 C2338 1.383 . S
C2333 C2329 1.495 . S
C2333 H2339 0.959 . S
C2333 H2340 0.961 . S
C2333 H2341 0.960 . S
C2334 C2332 1.381 . S
C2334 C2335 1.394 . S
C2334 H2342 0.930 . S
C2335 C2334 1.394 . S
C2335 C2336 1.383 . S
C2335 H2343 0.929 . S
C2336 C2335 1.383 . S
C2336 C2337 1.377 . S
C2337 H2321 0.930 . S
C2337 C2336 1.377 . S
C2337 C2338 1.379 . S
C2338 H2322 0.931 . S
C2338 C2332 1.383 . S
C2338 C2337 1.379 . S
H2339 C2333 0.959 . S
H2340 C2333 0.961 . S
H2341 C2333 0.960 . S
H2342 C2334 0.930 . S
H2343 C2335 0.929 . S
H2344 C2352 0.929 . S
H2345 C2354 0.930 . S
H2346 C2356 0.930 . S
H2347 C2359 0.929 . S
H2348 C2362 0.930 . S
H2349 C2364 0.960 . S
H2350 C2364 0.960 . S
H2351 C2364 0.960 . S
C2352 H2344 0.929 . S
C2352 C2353 1.377 . S
C2352 C2354 1.384 . S
C2353 C2352 1.377 . S
C2353 C2359 1.390 . S
C2354 H2345 0.930 . S
C2354 C2352 1.384 . S
C2354 C2355 1.372 . S
C2355 C2354 1.372 . S
C2355 C2356 1.400 . S
C2355 C2360 1.490 . S
C2356 H2346 0.930 . S
C2356 C2355 1.400 . S
C2356 C2359 1.386 . S
H2357 C2373 0.930 . S
H2358 C2374 0.931 . S
C2359 H2347 0.929 . S
C2359 C2353 1.390 . S
C2359 C2356 1.386 . S
C2360 C2355 1.490 . S
C2360 C2362 1.395 . S
C2360 C2363 1.403 . S
H2361 C2367 0.930 . S
C2362 H2348 0.930 . S
C2362 C2360 1.395 . S
C2362 C2365 1.403 . S
C2363 C2360 1.403 . S
C2363 C2364 1.524 . S
C2363 C2367 1.400 . S
C2364 H2349 0.960 . S
C2364 H2350 0.960 . S
C2364 H2351 0.960 . S
C2364 C2363 1.524 . S
C2365 C2362 1.403 . S
C2365 C2366 1.392 . S
C2365 C2369 1.495 . S
C2366 C2365 1.392 . S
C2366 C2367 1.385 . S
C2366 C2368 1.478 . S
C2367 H2361 0.930 . S
C2367 C2363 1.400 . S
C2367 C2366 1.385 . S
C2368 C2366 1.478 . S
C2368 C2370 1.381 . S
C2368 C2374 1.383 . S
C2369 C2365 1.495 . S
C2369 H2375 0.959 . S
C2369 H2376 0.961 . S
C2369 H2377 0.960 . S
C2370 C2368 1.381 . S
C2370 C2371 1.394 . S
C2370 H2378 0.930 . S
C2371 C2370 1.394 . S
C2371 C2372 1.383 . S
C2371 H2379 0.929 . S
C2372 C2371 1.383 . S
C2372 C2373 1.377 . S
C2373 H2357 0.930 . S
C2373 C2372 1.377 . S
C2373 C2374 1.379 . S
C2374 H2358 0.931 . S
C2374 C2368 1.383 . S
C2374 C2373 1.379 . S
H2375 C2369 0.959 . S
H2376 C2369 0.961 . S
H2377 C2369 0.960 . S
H2378 C2370 0.930 . S
H2379 C2371 0.929 . S
H2380 C2388 0.929 . S
H2381 C2390 0.930 . S
H2382 C2392 0.930 . S
H2383 C2395 0.929 . S
H2384 C2398 0.930 . S
H2385 C2400 0.960 . S
H2386 C2400 0.960 . S
H2387 C2400 0.960 . S
C2388 H2380 0.929 . S
C2388 C2389 1.377 . S
C2388 C2390 1.384 . S
C2389 C2388 1.377 . S
C2389 C2395 1.390 . S
C2390 H2381 0.930 . S
C2390 C2388 1.384 . S
C2390 C2391 1.372 . S
C2391 C2390 1.372 . S
C2391 C2392 1.400 . S
C2391 C2396 1.490 . S
C2392 H2382 0.930 . S
C2392 C2391 1.400 . S
C2392 C2395 1.386 . S
H2393 C2409 0.930 1_545 S
H2394 C2410 0.931 . S
C2395 H2383 0.929 . S
C2395 C2389 1.390 . S
C2395 C2392 1.386 . S
C2396 C2391 1.490 . S
C2396 C2398 1.395 . S
C2396 C2399 1.403 . S
H2397 C2403 0.930 . S
C2398 H2384 0.930 . S
C2398 C2396 1.395 . S
C2398 C2401 1.403 . S
C2399 C2396 1.403 . S
C2399 C2400 1.524 . S
C2399 C2403 1.400 . S
C2400 H2385 0.960 . S
C2400 H2386 0.960 . S
C2400 H2387 0.960 . S
C2400 C2399 1.524 . S
C2401 C2398 1.403 . S
C2401 C2402 1.392 . S
C2401 C2405 1.495 . S
C2402 C2401 1.392 . S
C2402 C2403 1.385 . S
C2402 C2404 1.478 . S
C2403 H2397 0.930 . S
C2403 C2399 1.400 . S
C2403 C2402 1.385 . S
C2404 C2402 1.478 . S
C2404 C2406 1.381 . S
C2404 C2410 1.383 . S
C2405 C2401 1.495 . S
C2405 H2411 0.959 . S
C2405 H2412 0.961 . S
C2405 H2413 0.960 . S
C2406 C2404 1.381 . S
C2406 C2407 1.394 . S
C2406 H2414 0.930 . S
C2407 C2406 1.394 . S
C2407 C2408 1.383 . S
C2407 H2415 0.929 . S
C2408 C2407 1.383 . S
C2408 C2409 1.377 . S
C2409 H2393 0.930 1_565 S
C2409 C2408 1.377 . S
C2409 C2410 1.379 . S
C2410 H2394 0.931 . S
C2410 C2404 1.383 . S
C2410 C2409 1.379 . S
H2411 C2405 0.959 . S
H2412 C2405 0.961 . S
H2413 C2405 0.960 . S
H2414 C2406 0.930 . S
H2415 C2407 0.929 . S
H2416 C2424 0.929 . S
H2417 C2426 0.930 . S
H2418 C2428 0.930 . S
H2419 C2431 0.929 . S
H2420 C2434 0.930 . S
H2421 C2436 0.960 . S
H2422 C2436 0.960 . S
H2423 C2436 0.960 . S
C2424 H2416 0.929 . S
C2424 C2425 1.377 . S
C2424 C2426 1.384 . S
C2425 C2424 1.377 . S
C2425 C2431 1.390 . S
C2426 H2417 0.930 . S
C2426 C2424 1.384 . S
C2426 C2427 1.372 . S
C2427 C2426 1.372 . S
C2427 C2428 1.400 . S
C2427 C2432 1.490 . S
C2428 H2418 0.930 . S
C2428 C2427 1.400 . S
C2428 C2431 1.386 . S
H2429 C2445 0.930 . S
H2430 C2446 0.931 . S
C2431 H2419 0.929 . S
C2431 C2425 1.390 . S
C2431 C2428 1.386 . S
C2432 C2427 1.490 . S
C2432 C2434 1.395 . S
C2432 C2435 1.403 . S
H2433 C2439 0.930 . S
C2434 H2420 0.930 . S
C2434 C2432 1.395 . S
C2434 C2437 1.403 . S
C2435 C2432 1.403 . S
C2435 C2436 1.524 . S
C2435 C2439 1.400 . S
C2436 H2421 0.960 . S
C2436 H2422 0.960 . S
C2436 H2423 0.960 . S
C2436 C2435 1.524 . S
C2437 C2434 1.403 . S
C2437 C2438 1.392 . S
C2437 C2441 1.495 . S
C2438 C2437 1.392 . S
C2438 C2439 1.385 . S
C2438 C2440 1.478 . S
C2439 H2433 0.930 . S
C2439 C2435 1.400 . S
C2439 C2438 1.385 . S
C2440 C2438 1.478 . S
C2440 C2442 1.381 . S
C2440 C2446 1.383 . S
C2441 C2437 1.495 . S
C2441 H2447 0.959 . S
C2441 H2448 0.961 . S
C2441 H2449 0.960 . S
C2442 C2440 1.381 . S
C2442 C2443 1.394 . S
C2442 H2450 0.930 . S
C2443 C2442 1.394 . S
C2443 C2444 1.383 . S
C2443 H2451 0.929 . S
C2444 C2443 1.383 . S
C2444 C2445 1.377 . S
C2445 H2429 0.930 . S
C2445 C2444 1.377 . S
C2445 C2446 1.379 . S
C2446 H2430 0.931 . S
C2446 C2440 1.383 . S
C2446 C2445 1.379 . S
H2447 C2441 0.959 . S
H2448 C2441 0.961 . S
H2449 C2441 0.960 . S
H2450 C2442 0.930 . S
H2451 C2443 0.929 . S
H2452 C2460 0.929 . S
H2453 C2462 0.930 . S
H2454 C2464 0.930 . S
H2455 C2467 0.929 . S
H2456 C2470 0.930 . S
H2457 C2472 0.960 . S
H2458 C2472 0.960 . S
H2459 C2472 0.960 . S
C2460 H2452 0.929 . S
C2460 C2461 1.377 . S
C2460 C2462 1.384 . S
C2461 C2460 1.377 . S
C2461 C2467 1.390 . S
C2462 H2453 0.930 . S
C2462 C2460 1.384 . S
C2462 C2463 1.372 . S
C2463 C2462 1.372 . S
C2463 C2464 1.400 . S
C2463 C2468 1.490 . S
C2464 H2454 0.930 . S
C2464 C2463 1.400 . S
C2464 C2467 1.386 . S
H2465 C2481 0.930 . S
H2466 C2482 0.931 . S
C2467 H2455 0.929 . S
C2467 C2461 1.390 . S
C2467 C2464 1.386 . S
C2468 C2463 1.490 . S
C2468 C2470 1.395 . S
C2468 C2471 1.403 . S
H2469 C2475 0.930 . S
C2470 H2456 0.930 . S
C2470 C2468 1.395 . S
C2470 C2473 1.403 . S
C2471 C2468 1.403 . S
C2471 C2472 1.524 . S
C2471 C2475 1.400 . S
C2472 H2457 0.960 . S
C2472 H2458 0.960 . S
C2472 H2459 0.960 . S
C2472 C2471 1.524 . S
C2473 C2470 1.403 . S
C2473 C2474 1.392 . S
C2473 C2477 1.495 . S
C2474 C2473 1.392 . S
C2474 C2475 1.385 . S
C2474 C2476 1.478 . S
C2475 H2469 0.930 . S
C2475 C2471 1.400 . S
C2475 C2474 1.385 . S
C2476 C2474 1.478 . S
C2476 C2478 1.381 . S
C2476 C2482 1.383 . S
C2477 C2473 1.495 . S
C2477 H2483 0.959 . S
C2477 H2484 0.961 . S
C2477 H2485 0.960 . S
C2478 C2476 1.381 . S
C2478 C2479 1.394 . S
C2478 H2486 0.930 . S
C2479 C2478 1.394 . S
C2479 C2480 1.383 . S
C2479 H2487 0.929 . S
C2480 C2479 1.383 . S
C2480 C2481 1.377 . S
C2481 H2465 0.930 . S
C2481 C2480 1.377 . S
C2481 C2482 1.379 . S
C2482 H2466 0.931 . S
C2482 C2476 1.383 . S
C2482 C2481 1.379 . S
H2483 C2477 0.959 . S
H2484 C2477 0.961 . S
H2485 C2477 0.960 . S
H2486 C2478 0.930 . S
H2487 C2479 0.929 . S
H2488 C2496 0.929 . S
H2489 C2498 0.930 . S
H2490 C2500 0.930 . S
H2491 C2503 0.929 . S
H2492 C2506 0.930 . S
H2493 C2508 0.960 . S
H2494 C2508 0.960 . S
H2495 C2508 0.960 . S
C2496 H2488 0.929 . S
C2496 C2497 1.377 . S
C2496 C2498 1.384 . S
C2497 C2496 1.377 . S
C2497 C2503 1.390 . S
C2498 H2489 0.930 . S
C2498 C2496 1.384 . S
C2498 C2499 1.372 . S
C2499 C2498 1.372 . S
C2499 C2500 1.400 . S
C2499 C2504 1.490 . S
C2500 H2490 0.930 . S
C2500 C2499 1.400 . S
C2500 C2503 1.386 . S
H2501 C2517 0.930 . S
H2502 C2518 0.931 . S
C2503 H2491 0.929 . S
C2503 C2497 1.390 . S
C2503 C2500 1.386 . S
C2504 C2499 1.490 . S
C2504 C2506 1.395 . S
C2504 C2507 1.403 . S
H2505 C2511 0.930 . S
C2506 H2492 0.930 . S
C2506 C2504 1.395 . S
C2506 C2509 1.403 . S
C2507 C2504 1.403 . S
C2507 C2508 1.524 . S
C2507 C2511 1.400 . S
C2508 H2493 0.960 . S
C2508 H2494 0.960 . S
C2508 H2495 0.960 . S
C2508 C2507 1.524 . S
C2509 C2506 1.403 . S
C2509 C2510 1.392 . S
C2509 C2513 1.495 . S
C2510 C2509 1.392 . S
C2510 C2511 1.385 . S
C2510 C2512 1.478 . S
C2511 H2505 0.930 . S
C2511 C2507 1.400 . S
C2511 C2510 1.385 . S
C2512 C2510 1.478 . S
C2512 C2514 1.381 . S
C2512 C2518 1.383 . S
C2513 C2509 1.495 . S
C2513 H2519 0.959 . S
C2513 H2520 0.961 . S
C2513 H2521 0.960 . S
C2514 C2512 1.381 . S
C2514 C2515 1.394 . S
C2514 H2522 0.930 . S
C2515 C2514 1.394 . S
C2515 C2516 1.383 . S
C2515 H2523 0.929 . S
C2516 C2515 1.383 . S
C2516 C2517 1.377 . S
C2517 H2501 0.930 . S
C2517 C2516 1.377 . S
C2517 C2518 1.379 . S
C2518 H2502 0.931 . S
C2518 C2512 1.383 . S
C2518 C2517 1.379 . S
H2519 C2513 0.959 . S
H2520 C2513 0.961 . S
H2521 C2513 0.960 . S
H2522 C2514 0.930 . S
H2523 C2515 0.929 . S
H2524 C2532 0.929 . S
H2525 C2534 0.930 . S
H2526 C2536 0.930 . S
H2527 C2539 0.929 . S
H2528 C2542 0.930 . S
H2529 C2544 0.960 . S
H2530 C2544 0.960 . S
H2531 C2544 0.960 . S
C2532 H2524 0.929 . S
C2532 C2533 1.377 . S
C2532 C2534 1.384 . S
C2533 C2532 1.377 . S
C2533 C2539 1.390 . S
C2534 H2525 0.930 . S
C2534 C2532 1.384 . S
C2534 C2535 1.372 . S
C2535 C2534 1.372 . S
C2535 C2536 1.400 . S
C2535 C2540 1.490 . S
C2536 H2526 0.930 . S
C2536 C2535 1.400 . S
C2536 C2539 1.386 . S
H2537 C2553 0.930 . S
H2538 C2554 0.931 . S
C2539 H2527 0.929 . S
C2539 C2533 1.390 . S
C2539 C2536 1.386 . S
C2540 C2535 1.490 . S
C2540 C2542 1.395 . S
C2540 C2543 1.403 . S
H2541 C2547 0.930 . S
C2542 H2528 0.930 . S
C2542 C2540 1.395 . S
C2542 C2545 1.403 . S
C2543 C2540 1.403 . S
C2543 C2544 1.524 . S
C2543 C2547 1.400 . S
C2544 H2529 0.960 . S
C2544 H2530 0.960 . S
C2544 H2531 0.960 . S
C2544 C2543 1.524 . S
C2545 C2542 1.403 . S
C2545 C2546 1.392 . S
C2545 C2549 1.495 . S
C2546 C2545 1.392 . S
C2546 C2547 1.385 . S
C2546 C2548 1.478 . S
C2547 H2541 0.930 . S
C2547 C2543 1.400 . S
C2547 C2546 1.385 . S
C2548 C2546 1.478 . S
C2548 C2550 1.381 . S
C2548 C2554 1.383 . S
C2549 C2545 1.495 . S
C2549 H2555 0.959 . S
C2549 H2556 0.961 . S
C2549 H2557 0.960 . S
C2550 C2548 1.381 . S
C2550 C2551 1.394 . S
C2550 H2558 0.930 . S
C2551 C2550 1.394 . S
C2551 C2552 1.383 . S
C2551 H2559 0.929 . S
C2552 C2551 1.383 . S
C2552 C2553 1.377 . S
C2553 H2537 0.930 . S
C2553 C2552 1.377 . S
C2553 C2554 1.379 . S
C2554 H2538 0.931 . S
C2554 C2548 1.383 . S
C2554 C2553 1.379 . S
H2555 C2549 0.959 . S
H2556 C2549 0.961 . S
H2557 C2549 0.960 . S
H2558 C2550 0.930 . S
H2559 C2551 0.929 . S
C1417 C1289 1.641 . S
C1436 C29 1.647 . S
C1453 C196 1.641 . S
C1472 C20 1.648 . S
C1489 C997 1.641 . S
C1508 C137 1.646 . S
C1525 C145 1.640 . S
C1544 C645 1.647 . S
C1561 C233 1.637 . S
C1580 C1085 1.623 . S
C1597 C841 1.643 . S
C1616 C293 1.637 . S
C1633 C313 1.640 . S
C1652 C497 1.650 . S
C1669 C900 1.635 . S
C1688 C372 1.627 . S
C1705 C381 1.641 . S
C1724 C548 1.624 . S
C1741 C1349 1.635 . S
C1760 C489 1.623 . S
C1777 C733 1.639 . S
C1796 C585 1.645 . S
C1813 C1201 1.638 . S
C1832 C665 1.619 . S
C1849 C724 1.643 . S
C1868 C937 1.641 . S
C1885 C1369 1.641 . S
C1904 C849 1.649 . S
C1921 C1017 1.636 . S
C1940 C1193 1.642 . S
C1957 C1252 1.641 . S
C1976 C1076 1.644 . S
C1993 C460 0.791 . S
C2012 C57 0.770 . S
C2029 C49 0.792 . S
C2048 C469 0.769 . S
C2065 C108 0.789 . S
C2084 C401 0.780 . S
C2101 C409 0.788 . S
C2120 C117 0.814 . S
C2137 C636 0.800 . S
C2156 C205 0.797 . S
C2173 C673 0.800 . S
C2192 C225 0.799 . S
C2209 C557 0.798 . S
C2228 C321 0.783 . S
C2245 C284 0.801 . S
C2264 C577 0.802 . S
C2281 C1173 0.794 . S
C2300 C761 0.794 . S
C2317 C753 0.792 . S
C2336 C1164 0.768 . S
C2353 C812 0.793 . S
C2372 C1113 0.767 . S
C2389 C1105 0.786 . S
C2408 C821 0.812 . S
C2425 C1377 0.806 . S
C2444 C929 0.814 . S
C2461 C1340 0.804 . S
C2480 C909 0.815 . S
C2497 C1025 0.798 . S
C2516 C1261 0.780 . S
C2533 C1281 0.807 . S
C2552 C988 0.824 . S
