# Generated by pormake.
# Topology cag, (4)-cn, num edge types: 1
# Building blocks:
#     Node 0, Type 0, BuildingBlock: TATPOV_clean_sbu_0, # of connection points: 4
#     Node 1, Type 0, BuildingBlock: TATPOV_clean_sbu_0, # of connection points: 4
#     Node 2, Type 0, BuildingBlock: TATPOV_clean_sbu_0, # of connection points: 4
#     Node 3, Type 0, BuildingBlock: TATPOV_clean_sbu_0, # of connection points: 4
#     Node 4, Type 0, BuildingBlock: TATPOV_clean_sbu_0, # of connection points: 4
#     Node 5, Type 0, BuildingBlock: TATPOV_clean_sbu_0, # of connection points: 4
#     Node 6, Type 0, BuildingBlock: TATPOV_clean_sbu_0, # of connection points: 4
#     Node 7, Type 0, BuildingBlock: TATPOV_clean_sbu_0, # of connection points: 4
#     Node 8, Type 0, BuildingBlock: TATPOV_clean_sbu_0, # of connection points: 4
#     Node 9, Type 0, BuildingBlock: TATPOV_clean_sbu_0, # of connection points: 4
#     Node 10, Type 0, BuildingBlock: TATPOV_clean_sbu_0, # of connection points: 4
#     Node 11, Type 0, BuildingBlock: TATPOV_clean_sbu_0, # of connection points: 4
#     Node 12, Type 0, BuildingBlock: TATPOV_clean_sbu_0, # of connection points: 4
#     Node 13, Type 0, BuildingBlock: TATPOV_clean_sbu_0, # of connection points: 4
#     Node 14, Type 0, BuildingBlock: TATPOV_clean_sbu_0, # of connection points: 4
#     Node 15, Type 0, BuildingBlock: TATPOV_clean_sbu_0, # of connection points: 4
#     Edge 16, Type (0, 0), BuildingBlock: AJUNOK_clean_linker_0, # of connection points: 2
#     Edge 17, Type (0, 0), BuildingBlock: AJUNOK_clean_linker_0, # of connection points: 2
#     Edge 18, Type (0, 0), BuildingBlock: AJUNOK_clean_linker_0, # of connection points: 2
#     Edge 19, Type (0, 0), BuildingBlock: AJUNOK_clean_linker_0, # of connection points: 2
#     Edge 20, Type (0, 0), BuildingBlock: AJUNOK_clean_linker_0, # of connection points: 2
#     Edge 21, Type (0, 0), BuildingBlock: AJUNOK_clean_linker_0, # of connection points: 2
#     Edge 22, Type (0, 0), BuildingBlock: AJUNOK_clean_linker_0, # of connection points: 2
#     Edge 23, Type (0, 0), BuildingBlock: AJUNOK_clean_linker_0, # of connection points: 2
#     Edge 24, Type (0, 0), BuildingBlock: AJUNOK_clean_linker_0, # of connection points: 2
#     Edge 25, Type (0, 0), BuildingBlock: AJUNOK_clean_linker_0, # of connection points: 2
#     Edge 26, Type (0, 0), BuildingBlock: AJUNOK_clean_linker_0, # of connection points: 2
#     Edge 27, Type (0, 0), BuildingBlock: AJUNOK_clean_linker_0, # of connection points: 2
#     Edge 28, Type (0, 0), BuildingBlock: AJUNOK_clean_linker_0, # of connection points: 2
#     Edge 29, Type (0, 0), BuildingBlock: AJUNOK_clean_linker_0, # of connection points: 2
#     Edge 30, Type (0, 0), BuildingBlock: AJUNOK_clean_linker_0, # of connection points: 2
#     Edge 31, Type (0, 0), BuildingBlock: AJUNOK_clean_linker_0, # of connection points: 2
#     Edge 32, Type (0, 0), BuildingBlock: AJUNOK_clean_linker_0, # of connection points: 2
#     Edge 33, Type (0, 0), BuildingBlock: AJUNOK_clean_linker_0, # of connection points: 2
#     Edge 34, Type (0, 0), BuildingBlock: AJUNOK_clean_linker_0, # of connection points: 2
#     Edge 35, Type (0, 0), BuildingBlock: AJUNOK_clean_linker_0, # of connection points: 2
#     Edge 36, Type (0, 0), BuildingBlock: AJUNOK_clean_linker_0, # of connection points: 2
#     Edge 37, Type (0, 0), BuildingBlock: AJUNOK_clean_linker_0, # of connection points: 2
#     Edge 38, Type (0, 0), BuildingBlock: AJUNOK_clean_linker_0, # of connection points: 2
#     Edge 39, Type (0, 0), BuildingBlock: AJUNOK_clean_linker_0, # of connection points: 2
#     Edge 40, Type (0, 0), BuildingBlock: AJUNOK_clean_linker_0, # of connection points: 2
#     Edge 41, Type (0, 0), BuildingBlock: AJUNOK_clean_linker_0, # of connection points: 2
#     Edge 42, Type (0, 0), BuildingBlock: AJUNOK_clean_linker_0, # of connection points: 2
#     Edge 43, Type (0, 0), BuildingBlock: AJUNOK_clean_linker_0, # of connection points: 2
#     Edge 44, Type (0, 0), BuildingBlock: AJUNOK_clean_linker_0, # of connection points: 2
#     Edge 45, Type (0, 0), BuildingBlock: AJUNOK_clean_linker_0, # of connection points: 2
#     Edge 46, Type (0, 0), BuildingBlock: AJUNOK_clean_linker_0, # of connection points: 2
#     Edge 47, Type (0, 0), BuildingBlock: AJUNOK_clean_linker_0, # of connection points: 2
# Relax obj value: 0.025
# Max RMSD: 0.073
# Mean RMSD: 0.062
data_MOF--net-cag--node1-TATPOV_clean_sbu_0--edge1-AJUNOK_clean_linker_0
_symmetry_space_group_name_H-M    P1
_symmetry_Int_Tables_number       1
_symmetry_cell_setting            triclinic
loop_
_symmetry_equiv_pos_as_xyz
'x, y, z'
_cell_length_a     32.24457
_cell_length_b     35.949542
_cell_length_c     32.147936
_cell_angle_alpha  90.04223
_cell_angle_beta   90.153513
_cell_angle_gamma 90.000579
loop_
_atom_site_label
_atom_site_type_symbol
_atom_site_fract_x
_atom_site_fract_y
_atom_site_fract_z
_atom_type_partial_charge
Zn0 Zn 0.32291 0.13603 0.00867 0.0
Zn1 Zn 0.28245 0.13044 0.08125 0.0
O2 O 0.34289 0.14128 0.09829 0.0
O3 O 0.37614 0.14761 0.03913 0.0
O4 O 0.25395 0.12642 0.13693 0.0
O5 O 0.28461 0.17674 0.99146 0.0
O6 O 0.25125 0.17299 0.05101 0.0
C7 C 0.37634 0.14751 0.07852 0.0
C8 C 0.2861 0.06417 0.02083 0.0
O9 O 0.27457 0.07856 0.05518 0.0
O10 O 0.30716 0.0831 0.99527 0.0
C11 C 0.27148 0.10826 0.16602 0.0
O12 O 0.30688 0.0915 0.15865 0.0
C13 C 0.25575 0.18754 0.01513 0.0
Zn14 Zn 0.15791 0.8372 0.50958 0.0
Zn15 Zn 0.1973 0.84405 0.5827 0.0
O16 O 0.13596 0.83656 0.5979 0.0
O17 O 0.10345 0.82879 0.53831 0.0
O18 O 0.22317 0.84729 0.64008 0.0
O19 O 0.19364 0.79419 0.49483 0.0
O20 O 0.22756 0.7999 0.55398 0.0
C21 C 0.10266 0.83057 0.5776 0.0
C22 C 0.19747 0.90845 0.52018 0.0
O23 O 0.20769 0.89517 0.55554 0.0
O24 O 0.17646 0.88909 0.49484 0.0
C25 C 0.21854 0.87643 0.66208 0.0
O26 O 0.19851 0.90494 0.64624 0.0
C27 C 0.22216 0.78352 0.51913 0.0
Zn28 Zn 0.32707 0.83795 0.98952 0.0
Zn29 Zn 0.28759 0.84503 0.91629 0.0
O30 O 0.34909 0.83986 0.90117 0.0
O31 O 0.38204 0.83334 0.96066 0.0
O32 O 0.26205 0.84851 0.85888 0.0
O33 O 0.29408 0.79259 0.00197 0.0
O34 O 0.25914 0.79933 0.94349 0.0
C35 C 0.38275 0.83568 0.9214 0.0
C36 C 0.28458 0.90805 0.98049 0.0
O37 O 0.27553 0.89535 0.94452 0.0
O38 O 0.30548 0.88856 0.00577 0.0
C39 C 0.27042 0.87634 0.83596 0.0
O40 O 0.29372 0.90313 0.8511 0.0
C41 C 0.26605 0.78169 0.97724 0.0
Zn42 Zn 0.16301 0.13765 0.49446 0.0
Zn43 Zn 0.2014 0.13075 0.42025 0.0
O44 O 0.14068 0.1422 0.40565 0.0
O45 O 0.10895 0.14951 0.46556 0.0
O46 O 0.22728 0.12557 0.36324 0.0
O47 O 0.20231 0.17852 0.50898 0.0
O48 O 0.2338 0.17364 0.44856 0.0
C49 C 0.10793 0.14919 0.4262 0.0
C50 C 0.19834 0.06512 0.48156 0.0
O51 O 0.20916 0.07916 0.44683 0.0
O52 O 0.17848 0.08453 0.50768 0.0
C53 C 0.20632 0.11013 0.33441 0.0
O54 O 0.16968 0.09625 0.34304 0.0
C55 C 0.23021 0.18917 0.48407 0.0
Zn56 Zn 0.60159 0.93435 0.8444 0.0
Zn57 Zn 0.6364 0.87913 0.89106 0.0
O58 O 0.57683 0.86196 0.88238 0.0
O59 O 0.54737 0.90564 0.84463 0.0
O60 O 0.663 0.83588 0.91974 0.0
O61 O 0.6441 0.92572 0.79917 0.0
O62 O 0.67389 0.88484 0.84057 0.0
C63 C 0.54502 0.87502 0.86395 0.0
C64 C 0.63091 0.95627 0.92753 0.0
O65 O 0.6402 0.92206 0.9314 0.0
O66 O 0.6153 0.96826 0.89382 0.0
C67 C 0.66152 0.8268 0.95788 0.0
O68 O 0.64082 0.84771 0.98414 0.0
C69 C 0.67325 0.90313 0.80676 0.0
Zn70 Zn 0.88508 0.06693 0.34779 0.0
Zn71 Zn 0.85212 0.12482 0.39037 0.0
O72 O 0.91228 0.13983 0.38289 0.0
O73 O 0.93969 0.09537 0.34496 0.0
O74 O 0.82684 0.16906 0.41807 0.0
O75 O 0.83997 0.07145 0.30429 0.0
O76 O 0.81521 0.11946 0.33877 0.0
C77 C 0.94351 0.12576 0.36465 0.0
C78 C 0.85743 0.04915 0.43161 0.0
O79 O 0.84673 0.0832 0.43272 0.0
O80 O 0.87385 0.03565 0.39914 0.0
C81 C 0.83186 0.17947 0.45553 0.0
O82 O 0.8556 0.15985 0.48049 0.0
C83 C 0.81339 0.09713 0.30811 0.0
Zn84 Zn 0.60008 0.0675 0.15695 0.0
Zn85 Zn 0.63232 0.12644 0.11589 0.0
O86 O 0.57167 0.14062 0.12298 0.0
O87 O 0.54513 0.09527 0.16029 0.0
O88 O 0.65758 0.17125 0.08923 0.0
O89 O 0.64477 0.07162 0.20082 0.0
O90 O 0.6689 0.12063 0.16775 0.0
C91 C 0.54079 0.12586 0.14119 0.0
C92 C 0.62888 0.05118 0.07319 0.0
O93 O 0.63897 0.08539 0.07286 0.0
O94 O 0.61218 0.03704 0.10515 0.0
C95 C 0.65285 0.18173 0.05178 0.0
O96 O 0.62927 0.16212 0.02662 0.0
C97 C 0.67095 0.09771 0.19782 0.0
Zn98 Zn 0.88633 0.92825 0.65817 0.0
Zn99 Zn 0.84959 0.8748 0.61039 0.0
O100 O 0.90824 0.85527 0.61842 0.0
O101 O 0.93933 0.89759 0.6568 0.0
O102 O 0.82037 0.83401 0.57995 0.0
O103 O 0.84317 0.92066 0.70317 0.0
O104 O 0.81221 0.88138 0.66067 0.0
C105 C 0.94063 0.86724 0.63671 0.0
C106 C 0.85806 0.95231 0.5756 0.0
O107 O 0.8478 0.9184 0.57114 0.0
O108 O 0.87392 0.96353 0.60955 0.0
C109 C 0.82751 0.82267 0.54322 0.0
O110 O 0.8573 0.83822 0.52154 0.0
C111 C 0.813 0.89943 0.69466 0.0
Zn112 Zn 0.83174 0.6534 0.00637 0.0
Zn113 Zn 0.79188 0.64559 0.07957 0.0
O114 O 0.8527 0.65562 0.0957 0.0
O115 O 0.88527 0.66443 0.03651 0.0
O116 O 0.76298 0.64053 0.13537 0.0
O117 O 0.79295 0.69408 0.99047 0.0
O118 O 0.76025 0.68861 0.05024 0.0
C119 C 0.88588 0.66272 0.07583 0.0
C120 C 0.79584 0.58081 0.01715 0.0
O121 O 0.78454 0.59416 0.05211 0.0
O122 O 0.81639 0.60056 0.99195 0.0
C123 C 0.78199 0.62857 0.16745 0.0
O124 O 0.82107 0.61876 0.16425 0.0
C125 C 0.76418 0.70401 0.01471 0.0
Zn126 Zn 0.66038 0.34953 0.51 0.0
Zn127 Zn 0.70033 0.35698 0.58252 0.0
O128 O 0.6395 0.34549 0.59838 0.0
O129 O 0.60688 0.33744 0.53896 0.0
O130 O 0.72822 0.36103 0.6391 0.0
O131 O 0.69919 0.30955 0.49282 0.0
O132 O 0.73299 0.31507 0.55214 0.0
C133 C 0.60629 0.33841 0.5783 0.0
C134 C 0.69555 0.42228 0.52119 0.0
O135 O 0.70709 0.40907 0.55619 0.0
O136 O 0.67507 0.40237 0.49597 0.0
C137 C 0.70948 0.37832 0.66805 0.0
O138 O 0.6743 0.39511 0.65967 0.0
C139 C 0.72875 0.30001 0.51639 0.0
Zn140 Zn 0.82663 0.35016 0.99474 0.0
Zn141 Zn 0.78579 0.35598 0.92203 0.0
O142 O 0.84536 0.34223 0.90537 0.0
O143 O 0.87893 0.33569 0.96445 0.0
O144 O 0.75755 0.3601 0.86592 0.0
O145 O 0.78623 0.31163 0.0132 0.0
O146 O 0.7525 0.31555 0.95369 0.0
C147 C 0.8787 0.33505 0.92507 0.0
C148 C 0.79406 0.42339 0.98048 0.0
O149 O 0.78129 0.40876 0.94664 0.0
O150 O 0.81412 0.40407 0.0066 0.0
C151 C 0.77595 0.37702 0.83649 0.0
O152 O 0.81203 0.39267 0.84375 0.0
C153 C 0.75653 0.3016 0.98999 0.0
Zn154 Zn 0.65582 0.6505 0.49142 0.0
Zn155 Zn 0.69536 0.64336 0.418 0.0
O156 O 0.63421 0.65208 0.4023 0.0
O157 O 0.60166 0.65981 0.46171 0.0
O158 O 0.72329 0.63942 0.3617 0.0
O159 O 0.69294 0.69285 0.50636 0.0
O160 O 0.72591 0.68707 0.44691 0.0
C161 C 0.60093 0.65828 0.42238 0.0
C162 C 0.69366 0.57856 0.4802 0.0
O163 O 0.70441 0.59221 0.44524 0.0
O164 O 0.67315 0.59803 0.50575 0.0
C165 C 0.70423 0.62515 0.33084 0.0
O166 O 0.66704 0.61119 0.33645 0.0
C167 C 0.72128 0.70334 0.48188 0.0
Zn168 Zn 0.09787 0.4171 0.84039 0.0
Zn169 Zn 0.1323 0.36319 0.88849 0.0
O170 O 0.07289 0.34571 0.88012 0.0
O171 O 0.04386 0.38797 0.84011 0.0
O172 O 0.15881 0.32032 0.9176 0.0
O173 O 0.14143 0.40921 0.79585 0.0
O174 O 0.17076 0.36932 0.8387 0.0
C175 C 0.04127 0.35812 0.86087 0.0
C176 C 0.1249 0.4401 0.92425 0.0
O177 O 0.13486 0.40611 0.92875 0.0
O178 O 0.10992 0.45153 0.89 0.0
C179 C 0.15557 0.31082 0.95548 0.0
O180 O 0.13314 0.33112 0.98091 0.0
C181 C 0.17096 0.3874 0.80474 0.0
Zn182 Zn 0.38625 0.55754 0.34524 0.0
Zn183 Zn 0.348 0.6139 0.38662 0.0
O184 O 0.40656 0.63356 0.37979 0.0
O185 O 0.43816 0.59009 0.34368 0.0
O186 O 0.31816 0.65465 0.41632 0.0
O187 O 0.34123 0.55975 0.30123 0.0
O188 O 0.3125 0.60676 0.33441 0.0
C189 C 0.43912 0.62117 0.36239 0.0
C190 C 0.35827 0.53812 0.42788 0.0
O191 O 0.34545 0.57155 0.42812 0.0
O192 O 0.37647 0.52513 0.39612 0.0
C193 C 0.328 0.66701 0.45207 0.0
O194 O 0.36066 0.65337 0.47121 0.0
C195 C 0.31279 0.58388 0.3042 0.0
Zn196 Zn 0.09824 0.55859 0.15116 0.0
Zn197 Zn 0.13733 0.61337 0.10821 0.0
O198 O 0.07985 0.63533 0.11571 0.0
O199 O 0.04778 0.59295 0.15297 0.0
O200 O 0.16922 0.65202 0.07737 0.0
O201 O 0.14396 0.56015 0.19447 0.0
O202 O 0.17322 0.60613 0.1601 0.0
C203 C 0.04735 0.62391 0.13404 0.0
C204 C 0.12354 0.5372 0.06841 0.0
O205 O 0.13727 0.57032 0.06741 0.0
O206 O 0.10581 0.52499 0.1008 0.0
C207 C 0.15933 0.66617 0.04253 0.0
O208 O 0.12394 0.65703 0.02495 0.0
C209 C 0.17288 0.58372 0.19069 0.0
Zn210 Zn 0.38306 0.42164 0.65691 0.0
Zn211 Zn 0.35046 0.36616 0.61002 0.0
O212 O 0.41034 0.34948 0.61841 0.0
O213 O 0.43773 0.39387 0.65675 0.0
O214 O 0.32434 0.32339 0.58019 0.0
O215 O 0.34062 0.41272 0.702 0.0
O216 O 0.31218 0.37123 0.66036 0.0
C217 C 0.44146 0.36347 0.63715 0.0
C218 C 0.35534 0.44345 0.57368 0.0
O219 O 0.34684 0.40909 0.56969 0.0
O220 O 0.36972 0.45581 0.60777 0.0
C221 C 0.33078 0.31307 0.54295 0.0
O222 O 0.35733 0.33153 0.51992 0.0
C223 C 0.31206 0.38961 0.69419 0.0
C224 C 0.20807 0.24155 0.02806 0.0
C225 C 0.22739 0.21697 0.00012 0.0
C226 C 0.18401 0.27147 0.01353 0.0
C227 C 0.17834 0.27763 0.97061 0.0
H228 H 0.21263 0.23839 0.06126 0.0
H229 H 0.1707 0.29038 0.03608 0.0
S230 S 0.21766 0.21781 0.88498 0.0
N231 N 0.23594 0.19855 0.92781 0.0
N232 N 0.19082 0.25427 0.90058 0.0
C233 C 0.19592 0.25206 0.94253 0.0
C234 C 0.22042 0.22187 0.95726 0.0
C235 C 0.26334 0.70464 0.45327 0.0
C236 C 0.30166 0.69586 0.47173 0.0
C237 C 0.2378 0.73224 0.46968 0.0
C238 C 0.24929 0.75257 0.50533 0.0
H239 H 0.25281 0.69021 0.42559 0.0
H240 H 0.20882 0.73785 0.45375 0.0
S241 S 0.34611 0.73988 0.56642 0.0
N242 N 0.34966 0.70907 0.52845 0.0
N243 N 0.30139 0.7614 0.55936 0.0
C244 C 0.28715 0.74366 0.52483 0.0
C245 C 0.31338 0.71526 0.50801 0.0
C246 C 0.19878 0.74655 0.97677 0.0
C247 C 0.24046 0.74937 0.98943 0.0
C248 C 0.17279 0.7188 0.99308 0.0
C249 C 0.18771 0.69307 0.02255 0.0
H250 H 0.18569 0.76681 0.95554 0.0
H251 H 0.14051 0.71839 0.98369 0.0
S252 S 0.29626 0.68499 0.06042 0.0
N253 N 0.29662 0.72146 0.0293 0.0
N254 N 0.24807 0.66958 0.05983 0.0
C255 C 0.22996 0.69435 0.03347 0.0
C256 C 0.25626 0.72242 0.01692 0.0
C257 C 0.28127 0.26091 0.55334 0.0
C258 C 0.3074 0.28074 0.52633 0.0
C259 C 0.25724 0.23123 0.53922 0.0
C260 C 0.25811 0.21979 0.49737 0.0
H261 H 0.2789 0.26843 0.58588 0.0
H262 H 0.23757 0.2173 0.5616 0.0
S263 S 0.32222 0.26154 0.4138 0.0
N264 N 0.33358 0.28628 0.45562 0.0
N265 N 0.28812 0.2301 0.42896 0.0
C266 C 0.2847 0.23877 0.46995 0.0
C267 C 0.30935 0.26931 0.48444 0.0
C268 C 0.71649 0.75777 0.02904 0.0
C269 C 0.73508 0.73322 0.00059 0.0
C270 C 0.69185 0.78757 0.01516 0.0
C271 C 0.68478 0.79361 0.97241 0.0
H272 H 0.72213 0.75471 0.06209 0.0
H273 H 0.67918 0.8065 0.03807 0.0
S274 S 0.72172 0.73365 0.88582 0.0
N275 N 0.74144 0.71461 0.92813 0.0
N276 N 0.69517 0.77004 0.90211 0.0
C277 C 0.70158 0.76799 0.94389 0.0
C278 C 0.72671 0.73795 0.95797 0.0
C279 C 0.80355 0.21825 0.51403 0.0
C280 C 0.80895 0.2124 0.47102 0.0
C281 C 0.77868 0.24748 0.52889 0.0
C282 C 0.75831 0.27165 0.5012 0.0
H283 H 0.81752 0.19947 0.53636 0.0
H284 H 0.77422 0.25032 0.56213 0.0
S285 S 0.76731 0.2717 0.38602 0.0
N286 N 0.79536 0.23582 0.40125 0.0
N287 N 0.74877 0.2903 0.42905 0.0
C288 C 0.76522 0.26722 0.45828 0.0
C289 C 0.7905 0.23772 0.44322 0.0
C290 C 0.70537 0.24992 0.97829 0.0
C291 C 0.72702 0.27343 0.00577 0.0
C292 C 0.6804 0.22088 0.99334 0.0
C293 C 0.6761 0.2145 0.03636 0.0
H294 H 0.70884 0.25313 0.94498 0.0
H295 H 0.66539 0.20268 0.97105 0.0
S296 S 0.72169 0.27178 0.1212 0.0
N297 N 0.73921 0.29077 0.07799 0.0
N298 N 0.69242 0.23661 0.10614 0.0
C299 C 0.69596 0.2391 0.06407 0.0
C300 C 0.72137 0.26844 0.04881 0.0
C301 C 0.76927 0.77772 0.55006 0.0
C302 C 0.80148 0.79241 0.52566 0.0
C303 C 0.74375 0.74931 0.53529 0.0
C304 C 0.7491 0.73402 0.49535 0.0
H305 H 0.76348 0.78817 0.58113 0.0
H306 H 0.71963 0.73922 0.55578 0.0
S307 S 0.82873 0.76262 0.4185 0.0
N308 N 0.83733 0.78967 0.45916 0.0
N309 N 0.78909 0.73591 0.43126 0.0
C310 C 0.78111 0.7484 0.47033 0.0
C311 C 0.80731 0.77762 0.48549 0.0
C312 C 0.27819 0.0124 0.96966 0.0
C313 C 0.27769 0.02459 0.01131 0.0
C314 C 0.27698 0.97447 0.95971 0.0
C315 C 0.27601 0.94732 0.99111 0.0
H316 H 0.28107 0.03227 0.94451 0.0
H317 H 0.27955 0.9664 0.92734 0.0
S318 S 0.26894 0.96459 0.10471 0.0
N319 N 0.27166 0.00651 0.08394 0.0
N320 N 0.2702 0.93514 0.06528 0.0
C321 C 0.27279 0.95913 0.03273 0.0
C322 C 0.27337 -0.0022 0.04283 0.0
C323 C 0.20546 0.97474 0.54173 0.0
C324 C 0.20584 0.94783 0.51002 0.0
C325 C 0.20504 0.01277 0.53223 0.0
C326 C 0.20576 0.02529 0.49071 0.0
H327 H 0.20294 0.96643 0.57402 0.0
H328 H 0.20269 0.03249 0.55761 0.0
S329 S 0.2129 0.96583 0.39659 0.0
N330 N 0.21112 0.93612 0.4357 0.0
N331 N 0.21111 0.00762 0.41784 0.0
C332 C 0.20931 -0.00135 0.45886 0.0
C333 C 0.20909 0.95991 0.46853 0.0
C334 C 0.63546 0.96616 0.00411 0.0
C335 C 0.63511 0.98133 0.96379 0.0
C336 C 0.63471 0.98905 0.03928 0.0
C337 C 0.63425 0.02802 0.03556 0.0
H338 H 0.63469 0.93631 0.00868 0.0
H339 H 0.63371 0.97602 0.06964 0.0
S340 S 0.63708 0.08172 0.93699 0.0
N341 N 0.63696 0.03775 0.92209 0.0
N342 N 0.63614 0.08088 0.98832 0.0
C343 C 0.63596 0.04362 0.99546 0.0
C344 C 0.63617 0.02026 0.95955 0.0
C345 C 0.85295 0.98658 0.46452 0.0
C346 C 0.85319 0.02549 0.46893 0.0
C347 C 0.85303 0.96325 0.49928 0.0
C348 C 0.85403 0.9779 0.53987 0.0
H349 H 0.85336 0.97395 0.43391 0.0
H350 H 0.85373 0.93346 0.49418 0.0
S351 S 0.85235 0.07791 0.56849 0.0
N352 N 0.8522 0.07774 0.51714 0.0
N353 N 0.85295 0.03376 0.58261 0.0
C354 C 0.85303 0.01676 0.54483 0.0
C355 C 0.85237 0.04058 0.50934 0.0
C356 C 0.78856 0.4765 0.03022 0.0
C357 C 0.788 0.4635 0.98888 0.0
C358 C 0.78843 0.51464 0.03922 0.0
C359 C 0.78859 0.54118 0.00716 0.0
H360 H 0.79023 0.45705 0.0559 0.0
H361 H 0.79044 0.52331 0.07144 0.0
S362 S 0.78316 0.52182 0.89384 0.0
N363 N 0.78411 0.48027 0.9157 0.0
N364 N 0.78471 0.552 0.93256 0.0
C365 C 0.786 0.52862 0.96575 0.0
C366 C 0.78543 0.48976 0.95661 0.0
C367 C 0.70115 0.48901 0.54199 0.0
C368 C 0.70278 0.46176 0.51071 0.0
C369 C 0.70024 0.52693 0.53187 0.0
C370 C 0.70168 0.53896 0.49018 0.0
H371 H 0.69814 0.481 0.57433 0.0
H372 H 0.69695 0.54691 0.55689 0.0
S373 S 0.71201 0.47845 0.3972 0.0
N374 N 0.70992 0.44923 0.43674 0.0
N375 N 0.70895 0.52047 0.41773 0.0
C376 C 0.70638 0.51199 0.45885 0.0
C377 C 0.70667 0.47339 0.46912 0.0
C378 C 0.12544 0.47433 0.0356 0.0
C379 C 0.12689 0.5132 0.03122 0.0
C380 C 0.1263 0.45095 0.00081 0.0
C381 C 0.12787 0.46556 0.96025 0.0
H382 H 0.12334 0.4618 0.06617 0.0
H383 H 0.12442 0.42119 0.00579 0.0
S384 S 0.13372 0.56545 0.93186 0.0
N385 N 0.13154 0.56535 0.98316 0.0
N386 N 0.13244 0.52131 0.91768 0.0
C387 C 0.13011 0.50437 0.95539 0.0
C388 C 0.12986 0.52821 0.9909 0.0
C389 C 0.35526 0.47579 0.46174 0.0
C390 C 0.35367 0.51473 0.46538 0.0
C391 C 0.35402 0.45297 0.49694 0.0
C392 C 0.35189 0.46824 0.53719 0.0
H393 H 0.35797 0.46277 0.43146 0.0
H394 H 0.35625 0.42316 0.49253 0.0
S395 S 0.34478 0.56854 0.56362 0.0
N396 N 0.34778 0.56762 0.51238 0.0
N397 N 0.34613 0.52464 0.57863 0.0
C398 C 0.34916 0.5071 0.54128 0.0
C399 C 0.34982 0.53037 0.50535 0.0
C400 C 0.49142 0.15986 0.09533 0.0
C401 C 0.49854 0.14002 0.13239 0.0
C402 C 0.45126 0.16458 0.07963 0.0
C403 C 0.4166 0.15023 0.1007 0.0
H404 H 0.51714 0.16927 0.07645 0.0
H405 H 0.44762 0.17778 0.04955 0.0
S406 S 0.41797 0.10363 0.20375 0.0
N407 N 0.46734 0.11114 0.19308 0.0
N408 N 0.39163 0.12085 0.16409 0.0
C409 C 0.42295 0.13408 0.14011 0.0
C410 C 0.464 0.12873 0.15581 0.0
C411 C 0.0172 0.8632 0.64853 0.0
C412 C 0.98138 0.84948 0.62856 0.0
C413 C 0.05691 0.85416 0.63411 0.0
C414 C 0.06216 0.83139 0.59895 0.0
H415 H 0.01465 0.88297 0.67384 0.0
H416 H 0.08341 0.86745 0.64864 0.0
S417 S 0.97926 0.7818 0.54112 0.0
N418 N 0.95431 0.80675 0.57616 0.0
N419 N 0.02898 0.79044 0.54878 0.0
C420 C 0.02696 0.81452 0.58134 0.0
C421 C 0.98653 0.82333 0.59629 0.0
C422 C 0.45908 0.8253 0.92048 0.0
C423 C 0.42327 0.83834 0.90015 0.0
C424 C 0.49866 0.83461 0.9062 0.0
C425 C 0.50395 0.85784 0.87139 0.0
H426 H 0.45657 0.80936 0.94896 0.0
H427 H 0.52512 0.82567 0.92447 0.0
S428 S 0.42029 0.89376 0.80279 0.0
N429 N 0.39562 0.87121 0.83997 0.0
N430 N 0.47017 0.88919 0.81342 0.0
C431 C 0.4685 0.86829 0.84859 0.0
C432 C 0.4281 0.85839 0.86288 0.0
C433 C 0.06048 0.13045 0.36853 0.0
C434 C 0.06752 0.15167 0.40463 0.0
C435 C 0.02021 0.12481 0.35331 0.0
C436 C 0.98562 0.14059 0.37334 0.0
H437 H 0.08577 0.1157 0.35377 0.0
H438 H 0.01603 0.106 0.32729 0.0
S439 S 0.98904 0.2056 0.46329 0.0
N440 N 0.03783 0.19344 0.45593 0.0
N441 N 0.96218 0.18371 0.42699 0.0
C442 C 0.99291 0.16535 0.40663 0.0
C443 C 0.03387 0.17059 0.42245 0.0
C444 C 0.97125 0.62996 0.14707 0.0
C445 C 0.00711 0.64296 0.12681 0.0
C446 C 0.93158 0.6396 0.13285 0.0
C447 C 0.92634 0.66228 0.0976 0.0
H448 H 0.97368 0.61012 0.1723 0.0
H449 H 0.90507 0.62661 0.14747 0.0
S450 S 0.0096 0.71065 0.03952 0.0
N451 N 0.03443 0.68535 0.07443 0.0
N452 N 0.9598 0.70278 0.0474 0.0
C453 C 0.96168 0.67873 0.07996 0.0
C454 C 0.00211 0.66931 0.09471 0.0
C455 C 0.53113 0.3219 0.57837 0.0
C456 C 0.56572 0.33626 0.59983 0.0
C457 C 0.49076 0.32761 0.59298 0.0
C458 C 0.48344 0.34834 0.62937 0.0
H459 H 0.53503 0.30803 0.5487 0.0
H460 H 0.46515 0.31823 0.57378 0.0
S461 S 0.5633 0.38548 0.70137 0.0
N462 N 0.59005 0.36695 0.66285 0.0
N463 N 0.51409 0.37811 0.68994 0.0
C464 C 0.51778 0.35955 0.65329 0.0
C465 C 0.55897 0.35337 0.63864 0.0
C466 C -0.00618 0.32435 0.9086 0.0
C467 C -8e-05 0.34245 0.8703 0.0
C468 C 0.95395 0.31914 0.92461 0.0
C469 C 0.91866 0.33131 0.90269 0.0
H470 H 0.01999 0.31698 0.92812 0.0
H471 H 0.95103 0.30765 0.95562 0.0
S472 S 0.91772 0.37132 0.79619 0.0
N473 N 0.96739 0.36636 0.8075 0.0
N474 N 0.89225 0.3556 0.83704 0.0
C475 C 0.92417 0.3451 0.86206 0.0
C476 C 0.96489 0.35096 0.84602 0.0
C477 C 0.55527 0.63503 0.36532 0.0
C478 C 0.56046 0.65763 0.40068 0.0
C479 C 0.51561 0.62584 0.35065 0.0
C480 C 0.47973 0.6393 0.37051 0.0
H481 H 0.58179 0.62189 0.35083 0.0
H482 H 0.51313 0.60614 0.32525 0.0
S483 S 0.47728 0.70648 0.45844 0.0
N484 N 0.52705 0.69813 0.45096 0.0
N485 N 0.45247 0.68165 0.42306 0.0
C486 C 0.48476 0.66537 0.40294 0.0
C487 C 0.52516 0.67427 0.41818 0.0
C488 C 0.2806 0.10607 0.24313 0.0
C489 C 0.25392 0.10798 0.20846 0.0
C490 C 0.26503 0.10708 0.28382 0.0
C491 C 0.22215 0.10904 0.29127 0.0
H492 H 0.31388 0.10452 0.23884 0.0
H493 H 0.2867 0.10595 0.30959 0.0
S494 S 0.13915 0.11388 0.2112 0.0
N495 N 0.18261 0.11189 0.18423 0.0
N496 N 0.15319 0.11269 0.26062 0.0
C497 C 0.19509 0.11041 0.25687 0.0
C498 C 0.21102 0.1102 0.21548 0.0
C499 C 0.24801 0.84385 0.77069 0.0
C500 C 0.25671 0.87726 0.79185 0.0
C501 C 0.23662 0.8438 0.72852 0.0
C502 C 0.23267 0.8772 0.70605 0.0
H503 H 0.25058 0.81741 0.78664 0.0
H504 H 0.23019 0.81736 0.71365 0.0
S505 S 0.25171 0.97227 0.74698 0.0
N506 N 0.26079 0.94467 0.787 0.0
N507 N 0.23855 0.94462 0.7081 0.0
C508 C 0.24105 0.91082 0.72687 0.0
C509 C 0.25331 0.91084 0.76964 0.0
C510 C 0.74894 0.89824 0.79306 0.0
C511 C 0.70812 0.89975 0.77761 0.0
C512 C 0.78292 0.8979 0.76601 0.0
C513 C 0.77706 0.89782 0.72271 0.0
H514 H 0.75468 0.89856 0.82628 0.0
H515 H 0.81396 0.89772 0.77902 0.0
S516 S 0.67627 0.89986 0.66681 0.0
N517 N 0.66361 0.90053 0.71655 0.0
N518 N 0.72745 0.89837 0.66555 0.0
C519 C 0.73635 0.89815 0.7069 0.0
C520 C 0.70184 0.89954 0.73443 0.0
C521 C 0.75989 0.06523 0.26533 0.0
C522 C 0.77775 0.09864 0.27932 0.0
C523 C 0.7246 0.06536 0.23994 0.0
C524 C 0.70654 0.09893 0.22669 0.0
H525 H 0.77278 0.03869 0.27475 0.0
H526 H 0.71187 0.03893 0.22992 0.0
S527 S 0.74191 0.194 0.25405 0.0
N528 N 0.77473 0.1662 0.27847 0.0
N529 N 0.70922 0.16648 0.22904 0.0
C530 C 0.72437 0.13259 0.23997 0.0
C531 C 0.75974 0.13244 0.2668 0.0
C532 C 0.7665 0.6275 0.28456 0.0
C533 C 0.72318 0.6253 0.28884 0.0
C534 C 0.78514 0.62801 0.24519 0.0
C535 C 0.76118 0.6271 0.20852 0.0
H536 H 0.78626 0.62858 0.31184 0.0
H537 H 0.81864 0.62972 0.24357 0.0
S538 S 0.64639 0.62156 0.2026 0.0
N539 N 0.65673 0.62204 0.25293 0.0
N540 N 0.69176 0.62372 0.17904 0.0
C541 C 0.7178 0.62503 0.21232 0.0
C542 C 0.69883 0.6239 0.25243 0.0
C543 C 0.76881 0.37904 0.71851 0.0
C544 C 0.72585 0.3781 0.71112 0.0
C545 C 0.7847 0.37931 0.75923 0.0
C546 C 0.75821 0.37761 0.79396 0.0
H547 H 0.79029 0.3801 0.69268 0.0
H548 H 0.81802 0.38025 0.76348 0.0
S549 S 0.64335 0.37349 0.79125 0.0
N550 N 0.65715 0.37508 0.74186 0.0
N551 N 0.687 0.37453 0.81819 0.0
C552 C 0.71525 0.37614 0.78694 0.0
C553 C 0.69907 0.3767 0.74557 0.0
C554 C 0.23616 0.38489 0.70703 0.0
C555 C 0.27682 0.38603 0.72291 0.0
C556 C 0.20186 0.38502 0.73372 0.0
C557 C 0.20722 0.38505 0.7771 0.0
H558 H 0.23079 0.38526 0.67374 0.0
H559 H 0.17097 0.38521 0.72036 0.0
S560 S 0.30741 0.38606 0.83408 0.0
N561 N 0.32063 0.38647 0.78447 0.0
N562 N 0.2562 0.38512 0.83478 0.0
C563 C 0.24775 0.38487 0.79333 0.0
C564 C 0.28259 0.38581 0.76617 0.0
C565 C 0.26026 0.61706 0.26056 0.0
C566 C 0.27788 0.58352 0.2745 0.0
C567 C 0.2263 0.61702 0.23315 0.0
C568 C 0.20801 0.58344 0.22012 0.0
H569 H 0.27311 0.64347 0.2705 0.0
H570 H 0.21392 0.64339 0.22256 0.0
S571 S 0.24205 0.48824 0.24854 0.0
N572 N 0.27466 0.51597 0.27328 0.0
N573 N 0.20996 0.51591 0.22307 0.0
C574 C 0.22504 0.54978 0.23429 0.0
C575 C 0.26024 0.54981 0.26116 0.0
loop_
_geom_bond_atom_site_label_1
_geom_bond_atom_site_label_2
_geom_bond_distance
_geom_bond_site_symmetry_2
_ccdc_geom_bond_type
Zn0 O3 2.031 . S
Zn0 O5 2.049 1_554 S
Zn0 O10 2.067 . S
Zn1 O2 1.962 . S
Zn1 O4 1.986 . S
Zn1 O6 1.996 . S
Zn1 O9 1.943 . S
O2 Zn1 1.962 . S
O2 C7 1.254 . S
O3 Zn0 2.031 . S
O3 C7 1.269 . S
O4 Zn1 1.986 . S
O4 C11 1.262 . S
O5 Zn0 2.049 1_556 S
O5 C13 1.260 1_556 S
O6 Zn1 1.996 . S
O6 C13 1.257 . S
C7 O2 1.254 . S
C7 O3 1.269 . S
C8 O9 1.249 . S
C8 O10 1.270 . S
O9 Zn1 1.943 . S
O9 C8 1.249 . S
O10 Zn0 2.067 . S
O10 C8 1.270 . S
C11 O4 1.262 . S
C11 O12 1.232 . S
O12 C11 1.232 . S
C13 O5 1.260 1_554 S
C13 O6 1.257 . S
Zn14 O17 2.031 . S
Zn14 O19 2.049 . S
Zn14 O24 2.067 . S
Zn15 O16 1.962 . S
Zn15 O18 1.986 . S
Zn15 O20 1.996 . S
Zn15 O23 1.943 . S
O16 Zn15 1.962 . S
O16 C21 1.254 . S
O17 Zn14 2.031 . S
O17 C21 1.269 . S
O18 Zn15 1.986 . S
O18 C25 1.262 . S
O19 Zn14 2.049 . S
O19 C27 1.260 . S
O20 Zn15 1.996 . S
O20 C27 1.257 . S
C21 O16 1.254 . S
C21 O17 1.269 . S
C22 O23 1.249 . S
C22 O24 1.270 . S
O23 Zn15 1.943 . S
O23 C22 1.249 . S
O24 Zn14 2.067 . S
O24 C22 1.270 . S
C25 O18 1.262 . S
C25 O26 1.232 . S
O26 C25 1.232 . S
C27 O19 1.260 . S
C27 O20 1.257 . S
Zn28 O31 2.031 . S
Zn28 O33 2.049 1_556 S
Zn28 O38 2.067 . S
Zn29 O30 1.962 . S
Zn29 O32 1.986 . S
Zn29 O34 1.996 . S
Zn29 O37 1.943 . S
O30 Zn29 1.962 . S
O30 C35 1.254 . S
O31 Zn28 2.031 . S
O31 C35 1.269 . S
O32 Zn29 1.986 . S
O32 C39 1.262 . S
O33 Zn28 2.049 1_554 S
O33 C41 1.260 1_554 S
O34 Zn29 1.996 . S
O34 C41 1.257 . S
C35 O30 1.254 . S
C35 O31 1.269 . S
C36 O37 1.249 . S
C36 O38 1.270 . S
O37 Zn29 1.943 . S
O37 C36 1.249 . S
O38 Zn28 2.067 . S
O38 C36 1.270 . S
C39 O32 1.262 . S
C39 O40 1.232 . S
O40 C39 1.232 . S
C41 O33 1.260 1_556 S
C41 O34 1.257 . S
Zn42 O45 2.031 . S
Zn42 O47 2.049 . S
Zn42 O52 2.067 . S
Zn43 O44 1.962 . S
Zn43 O46 1.986 . S
Zn43 O48 1.996 . S
Zn43 O51 1.943 . S
O44 Zn43 1.962 . S
O44 C49 1.254 . S
O45 Zn42 2.031 . S
O45 C49 1.269 . S
O46 Zn43 1.986 . S
O46 C53 1.262 . S
O47 Zn42 2.049 . S
O47 C55 1.260 . S
O48 Zn43 1.996 . S
O48 C55 1.257 . S
C49 O44 1.254 . S
C49 O45 1.269 . S
C50 O51 1.249 . S
C50 O52 1.270 . S
O51 Zn43 1.943 . S
O51 C50 1.249 . S
O52 Zn42 2.067 . S
O52 C50 1.270 . S
C53 O46 1.262 . S
C53 O54 1.232 . S
O54 C53 1.232 . S
C55 O47 1.260 . S
C55 O48 1.257 . S
Zn56 O59 2.031 . S
Zn56 O61 2.049 . S
Zn56 O66 2.067 . S
Zn57 O58 1.962 . S
Zn57 O60 1.986 . S
Zn57 O62 1.996 . S
Zn57 O65 1.943 . S
O58 Zn57 1.962 . S
O58 C63 1.254 . S
O59 Zn56 2.031 . S
O59 C63 1.269 . S
O60 Zn57 1.986 . S
O60 C67 1.262 . S
O61 Zn56 2.049 . S
O61 C69 1.260 . S
O62 Zn57 1.996 . S
O62 C69 1.257 . S
C63 O58 1.254 . S
C63 O59 1.269 . S
C64 O65 1.249 . S
C64 O66 1.270 . S
O65 Zn57 1.943 . S
O65 C64 1.249 . S
O66 Zn56 2.067 . S
O66 C64 1.270 . S
C67 O60 1.262 . S
C67 O68 1.232 . S
O68 C67 1.232 . S
C69 O61 1.260 . S
C69 O62 1.257 . S
Zn70 O73 2.031 . S
Zn70 O75 2.049 . S
Zn70 O80 2.067 . S
Zn71 O72 1.962 . S
Zn71 O74 1.986 . S
Zn71 O76 1.996 . S
Zn71 O79 1.943 . S
O72 Zn71 1.962 . S
O72 C77 1.254 . S
O73 Zn70 2.031 . S
O73 C77 1.269 . S
O74 Zn71 1.986 . S
O74 C81 1.262 . S
O75 Zn70 2.049 . S
O75 C83 1.260 . S
O76 Zn71 1.996 . S
O76 C83 1.257 . S
C77 O72 1.254 . S
C77 O73 1.269 . S
C78 O79 1.249 . S
C78 O80 1.270 . S
O79 Zn71 1.943 . S
O79 C78 1.249 . S
O80 Zn70 2.067 . S
O80 C78 1.270 . S
C81 O74 1.262 . S
C81 O82 1.232 . S
O82 C81 1.232 . S
C83 O75 1.260 . S
C83 O76 1.257 . S
Zn84 O87 2.031 . S
Zn84 O89 2.049 . S
Zn84 O94 2.067 . S
Zn85 O86 1.962 . S
Zn85 O88 1.986 . S
Zn85 O90 1.996 . S
Zn85 O93 1.943 . S
O86 Zn85 1.962 . S
O86 C91 1.254 . S
O87 Zn84 2.031 . S
O87 C91 1.269 . S
O88 Zn85 1.986 . S
O88 C95 1.262 . S
O89 Zn84 2.049 . S
O89 C97 1.260 . S
O90 Zn85 1.996 . S
O90 C97 1.257 . S
C91 O86 1.254 . S
C91 O87 1.269 . S
C92 O93 1.249 . S
C92 O94 1.270 . S
O93 Zn85 1.943 . S
O93 C92 1.249 . S
O94 Zn84 2.067 . S
O94 C92 1.270 . S
C95 O88 1.262 . S
C95 O96 1.232 . S
O96 C95 1.232 . S
C97 O89 1.260 . S
C97 O90 1.257 . S
Zn98 O101 2.031 . S
Zn98 O103 2.049 . S
Zn98 O108 2.067 . S
Zn99 O100 1.962 . S
Zn99 O102 1.986 . S
Zn99 O104 1.996 . S
Zn99 O107 1.943 . S
O100 Zn99 1.962 . S
O100 C105 1.254 . S
O101 Zn98 2.031 . S
O101 C105 1.269 . S
O102 Zn99 1.986 . S
O102 C109 1.262 . S
O103 Zn98 2.049 . S
O103 C111 1.260 . S
O104 Zn99 1.996 . S
O104 C111 1.257 . S
C105 O100 1.254 . S
C105 O101 1.269 . S
C106 O107 1.249 . S
C106 O108 1.270 . S
O107 Zn99 1.943 . S
O107 C106 1.249 . S
O108 Zn98 2.067 . S
O108 C106 1.270 . S
C109 O102 1.262 . S
C109 O110 1.232 . S
O110 C109 1.232 . S
C111 O103 1.260 . S
C111 O104 1.257 . S
Zn112 O115 2.031 . S
Zn112 O117 2.049 1_554 S
Zn112 O122 2.067 . S
Zn113 O114 1.962 . S
Zn113 O116 1.986 . S
Zn113 O118 1.996 . S
Zn113 O121 1.943 . S
O114 Zn113 1.962 . S
O114 C119 1.254 . S
O115 Zn112 2.031 . S
O115 C119 1.269 . S
O116 Zn113 1.986 . S
O116 C123 1.262 . S
O117 Zn112 2.049 1_556 S
O117 C125 1.260 1_556 S
O118 Zn113 1.996 . S
O118 C125 1.257 . S
C119 O114 1.254 . S
C119 O115 1.269 . S
C120 O121 1.249 . S
C120 O122 1.270 . S
O121 Zn113 1.943 . S
O121 C120 1.249 . S
O122 Zn112 2.067 . S
O122 C120 1.270 . S
C123 O116 1.262 . S
C123 O124 1.232 . S
O124 C123 1.232 . S
C125 O117 1.260 1_554 S
C125 O118 1.257 . S
Zn126 O129 2.031 . S
Zn126 O131 2.049 . S
Zn126 O136 2.067 . S
Zn127 O128 1.962 . S
Zn127 O130 1.986 . S
Zn127 O132 1.996 . S
Zn127 O135 1.943 . S
O128 Zn127 1.962 . S
O128 C133 1.254 . S
O129 Zn126 2.031 . S
O129 C133 1.269 . S
O130 Zn127 1.986 . S
O130 C137 1.262 . S
O131 Zn126 2.049 . S
O131 C139 1.260 . S
O132 Zn127 1.996 . S
O132 C139 1.257 . S
C133 O128 1.254 . S
C133 O129 1.269 . S
C134 O135 1.249 . S
C134 O136 1.270 . S
O135 Zn127 1.943 . S
O135 C134 1.249 . S
O136 Zn126 2.067 . S
O136 C134 1.270 . S
C137 O130 1.262 . S
C137 O138 1.232 . S
O138 C137 1.232 . S
C139 O131 1.260 . S
C139 O132 1.257 . S
Zn140 O143 2.031 . S
Zn140 O145 2.049 1_556 S
Zn140 O150 2.067 . S
Zn141 O142 1.962 . S
Zn141 O144 1.986 . S
Zn141 O146 1.996 . S
Zn141 O149 1.943 . S
O142 Zn141 1.962 . S
O142 C147 1.254 . S
O143 Zn140 2.031 . S
O143 C147 1.269 . S
O144 Zn141 1.986 . S
O144 C151 1.262 . S
O145 Zn140 2.049 1_554 S
O145 C153 1.260 1_554 S
O146 Zn141 1.996 . S
O146 C153 1.257 . S
C147 O142 1.254 . S
C147 O143 1.269 . S
C148 O149 1.249 . S
C148 O150 1.270 . S
O149 Zn141 1.943 . S
O149 C148 1.249 . S
O150 Zn140 2.067 . S
O150 C148 1.270 . S
C151 O144 1.262 . S
C151 O152 1.232 . S
O152 C151 1.232 . S
C153 O145 1.260 1_556 S
C153 O146 1.257 . S
Zn154 O157 2.031 . S
Zn154 O159 2.049 . S
Zn154 O164 2.067 . S
Zn155 O156 1.962 . S
Zn155 O158 1.986 . S
Zn155 O160 1.996 . S
Zn155 O163 1.943 . S
O156 Zn155 1.962 . S
O156 C161 1.254 . S
O157 Zn154 2.031 . S
O157 C161 1.269 . S
O158 Zn155 1.986 . S
O158 C165 1.262 . S
O159 Zn154 2.049 . S
O159 C167 1.260 . S
O160 Zn155 1.996 . S
O160 C167 1.257 . S
C161 O156 1.254 . S
C161 O157 1.269 . S
C162 O163 1.249 . S
C162 O164 1.270 . S
O163 Zn155 1.943 . S
O163 C162 1.249 . S
O164 Zn154 2.067 . S
O164 C162 1.270 . S
C165 O158 1.262 . S
C165 O166 1.232 . S
O166 C165 1.232 . S
C167 O159 1.260 . S
C167 O160 1.257 . S
Zn168 O171 2.031 . S
Zn168 O173 2.049 . S
Zn168 O178 2.067 . S
Zn169 O170 1.962 . S
Zn169 O172 1.986 . S
Zn169 O174 1.996 . S
Zn169 O177 1.943 . S
O170 Zn169 1.962 . S
O170 C175 1.254 . S
O171 Zn168 2.031 . S
O171 C175 1.269 . S
O172 Zn169 1.986 . S
O172 C179 1.262 . S
O173 Zn168 2.049 . S
O173 C181 1.260 . S
O174 Zn169 1.996 . S
O174 C181 1.257 . S
C175 O170 1.254 . S
C175 O171 1.269 . S
C176 O177 1.249 . S
C176 O178 1.270 . S
O177 Zn169 1.943 . S
O177 C176 1.249 . S
O178 Zn168 2.067 . S
O178 C176 1.270 . S
C179 O172 1.262 . S
C179 O180 1.232 . S
O180 C179 1.232 . S
C181 O173 1.260 . S
C181 O174 1.257 . S
Zn182 O185 2.031 . S
Zn182 O187 2.049 . S
Zn182 O192 2.067 . S
Zn183 O184 1.962 . S
Zn183 O186 1.986 . S
Zn183 O188 1.996 . S
Zn183 O191 1.943 . S
O184 Zn183 1.962 . S
O184 C189 1.254 . S
O185 Zn182 2.031 . S
O185 C189 1.269 . S
O186 Zn183 1.986 . S
O186 C193 1.262 . S
O187 Zn182 2.049 . S
O187 C195 1.260 . S
O188 Zn183 1.996 . S
O188 C195 1.257 . S
C189 O184 1.254 . S
C189 O185 1.269 . S
C190 O191 1.249 . S
C190 O192 1.270 . S
O191 Zn183 1.943 . S
O191 C190 1.249 . S
O192 Zn182 2.067 . S
O192 C190 1.270 . S
C193 O186 1.262 . S
C193 O194 1.232 . S
O194 C193 1.232 . S
C195 O187 1.260 . S
C195 O188 1.257 . S
Zn196 O199 2.031 . S
Zn196 O201 2.049 . S
Zn196 O206 2.067 . S
Zn197 O198 1.962 . S
Zn197 O200 1.986 . S
Zn197 O202 1.996 . S
Zn197 O205 1.943 . S
O198 Zn197 1.962 . S
O198 C203 1.254 . S
O199 Zn196 2.031 . S
O199 C203 1.269 . S
O200 Zn197 1.986 . S
O200 C207 1.262 . S
O201 Zn196 2.049 . S
O201 C209 1.260 . S
O202 Zn197 1.996 . S
O202 C209 1.257 . S
C203 O198 1.254 . S
C203 O199 1.269 . S
C204 O205 1.249 . S
C204 O206 1.270 . S
O205 Zn197 1.943 . S
O205 C204 1.249 . S
O206 Zn196 2.067 . S
O206 C204 1.270 . S
C207 O200 1.262 . S
C207 O208 1.232 . S
O208 C207 1.232 . S
C209 O201 1.260 . S
C209 O202 1.257 . S
Zn210 O213 2.031 . S
Zn210 O215 2.049 . S
Zn210 O220 2.067 . S
Zn211 O212 1.962 . S
Zn211 O214 1.986 . S
Zn211 O216 1.996 . S
Zn211 O219 1.943 . S
O212 Zn211 1.962 . S
O212 C217 1.254 . S
O213 Zn210 2.031 . S
O213 C217 1.269 . S
O214 Zn211 1.986 . S
O214 C221 1.262 . S
O215 Zn210 2.049 . S
O215 C223 1.260 . S
O216 Zn211 1.996 . S
O216 C223 1.257 . S
C217 O212 1.254 . S
C217 O213 1.269 . S
C218 O219 1.249 . S
C218 O220 1.270 . S
O219 Zn211 1.943 . S
O219 C218 1.249 . S
O220 Zn210 2.067 . S
O220 C218 1.270 . S
C221 O214 1.262 . S
C221 O222 1.232 . S
O222 C221 1.232 . S
C223 O215 1.260 . S
C223 O216 1.257 . S
C224 C225 1.369 . S
C224 C226 1.419 . S
C224 H228 0.930 . S
C225 C224 1.369 . S
C225 C234 1.429 1_554 S
C226 C224 1.419 . S
C226 C227 1.363 1_554 S
C226 H229 0.929 . S
C227 C226 1.363 1_556 S
C227 C233 1.428 . S
H228 C224 0.930 . S
H229 C226 0.929 . S
S230 N231 1.613 . S
S230 N232 1.610 . S
N231 S230 1.613 . S
N231 C234 1.350 . S
N232 S230 1.610 . S
N232 C233 1.351 . S
C233 C227 1.428 . S
C233 N232 1.351 . S
C233 C234 1.434 . S
C234 C225 1.429 1_556 S
C234 N231 1.350 . S
C234 C233 1.434 . S
C235 C236 1.369 . S
C235 C237 1.419 . S
C235 H239 0.930 . S
C236 C235 1.369 . S
C236 C245 1.429 . S
C237 C235 1.419 . S
C237 C238 1.363 . S
C237 H240 0.929 . S
C238 C237 1.363 . S
C238 C244 1.428 . S
H239 C235 0.930 . S
H240 C237 0.929 . S
S241 N242 1.613 . S
S241 N243 1.610 . S
N242 S241 1.613 . S
N242 C245 1.350 . S
N243 S241 1.610 . S
N243 C244 1.351 . S
C244 C238 1.428 . S
C244 N243 1.351 . S
C244 C245 1.434 . S
C245 C236 1.429 . S
C245 N242 1.350 . S
C245 C244 1.434 . S
C246 C247 1.369 . S
C246 C248 1.419 . S
C246 H250 0.930 . S
C247 C246 1.369 . S
C247 C256 1.429 1_556 S
C248 C246 1.419 . S
C248 C249 1.363 1_556 S
C248 H251 0.929 . S
C249 C248 1.363 1_554 S
C249 C255 1.428 . S
H250 C246 0.930 . S
H251 C248 0.929 . S
S252 N253 1.613 . S
S252 N254 1.610 . S
N253 S252 1.613 . S
N253 C256 1.350 . S
N254 S252 1.610 . S
N254 C255 1.351 . S
C255 C249 1.428 . S
C255 N254 1.351 . S
C255 C256 1.434 . S
C256 C247 1.429 1_554 S
C256 N253 1.350 . S
C256 C255 1.434 . S
C257 C258 1.369 . S
C257 C259 1.419 . S
C257 H261 0.930 . S
C258 C257 1.369 . S
C258 C267 1.429 . S
C259 C257 1.419 . S
C259 C260 1.363 . S
C259 H262 0.929 . S
C260 C259 1.363 . S
C260 C266 1.428 . S
H261 C257 0.930 . S
H262 C259 0.929 . S
S263 N264 1.613 . S
S263 N265 1.610 . S
N264 S263 1.613 . S
N264 C267 1.350 . S
N265 S263 1.610 . S
N265 C266 1.351 . S
C266 C260 1.428 . S
C266 N265 1.351 . S
C266 C267 1.434 . S
C267 C258 1.429 . S
C267 N264 1.350 . S
C267 C266 1.434 . S
C268 C269 1.369 . S
C268 C270 1.419 . S
C268 H272 0.930 . S
C269 C268 1.369 . S
C269 C278 1.429 1_554 S
C270 C268 1.419 . S
C270 C271 1.363 1_554 S
C270 H273 0.929 . S
C271 C270 1.363 1_556 S
C271 C277 1.428 . S
H272 C268 0.930 . S
H273 C270 0.929 . S
S274 N275 1.613 . S
S274 N276 1.610 . S
N275 S274 1.613 . S
N275 C278 1.350 . S
N276 S274 1.610 . S
N276 C277 1.351 . S
C277 C271 1.428 . S
C277 N276 1.351 . S
C277 C278 1.434 . S
C278 C269 1.429 1_556 S
C278 N275 1.350 . S
C278 C277 1.434 . S
C279 C280 1.369 . S
C279 C281 1.419 . S
C279 H283 0.930 . S
C280 C279 1.369 . S
C280 C289 1.429 . S
C281 C279 1.419 . S
C281 C282 1.363 . S
C281 H284 0.929 . S
C282 C281 1.363 . S
C282 C288 1.428 . S
H283 C279 0.930 . S
H284 C281 0.929 . S
S285 N286 1.613 . S
S285 N287 1.610 . S
N286 S285 1.613 . S
N286 C289 1.350 . S
N287 S285 1.610 . S
N287 C288 1.351 . S
C288 C282 1.428 . S
C288 N287 1.351 . S
C288 C289 1.434 . S
C289 C280 1.429 . S
C289 N286 1.350 . S
C289 C288 1.434 . S
C290 C291 1.369 . S
C290 C292 1.419 . S
C290 H294 0.930 . S
C291 C290 1.369 . S
C291 C300 1.429 1_556 S
C292 C290 1.419 . S
C292 C293 1.363 1_556 S
C292 H295 0.929 . S
C293 C292 1.363 1_554 S
C293 C299 1.428 . S
H294 C290 0.930 . S
H295 C292 0.929 . S
S296 N297 1.613 . S
S296 N298 1.610 . S
N297 S296 1.613 . S
N297 C300 1.350 . S
N298 S296 1.610 . S
N298 C299 1.351 . S
C299 C293 1.428 . S
C299 N298 1.351 . S
C299 C300 1.434 . S
C300 C291 1.429 1_554 S
C300 N297 1.350 . S
C300 C299 1.434 . S
C301 C302 1.369 . S
C301 C303 1.419 . S
C301 H305 0.930 . S
C302 C301 1.369 . S
C302 C311 1.429 . S
C303 C301 1.419 . S
C303 C304 1.363 . S
C303 H306 0.929 . S
C304 C303 1.363 . S
C304 C310 1.428 . S
H305 C301 0.930 . S
H306 C303 0.929 . S
S307 N308 1.613 . S
S307 N309 1.610 . S
N308 S307 1.613 . S
N308 C311 1.350 . S
N309 S307 1.610 . S
N309 C310 1.351 . S
C310 C304 1.428 . S
C310 N309 1.351 . S
C310 C311 1.434 . S
C311 C302 1.429 . S
C311 N308 1.350 . S
C311 C310 1.434 . S
C312 C313 1.369 1_556 S
C312 C314 1.419 1_545 S
C312 H316 0.930 . S
C313 C312 1.369 1_554 S
C313 C322 1.429 . S
C314 C312 1.419 1_565 S
C314 C315 1.363 . S
C314 H317 0.929 . S
C315 C314 1.363 . S
C315 C321 1.428 1_556 S
H316 C312 0.930 . S
H317 C314 0.929 . S
S318 N319 1.613 . S
S318 N320 1.610 . S
N319 S318 1.613 . S
N319 C322 1.350 1_565 S
N320 S318 1.610 . S
N320 C321 1.351 . S
C321 C315 1.428 1_554 S
C321 N320 1.351 . S
C321 C322 1.434 1_565 S
C322 C313 1.429 . S
C322 N319 1.350 1_545 S
C322 C321 1.434 1_545 S
C323 C324 1.369 . S
C323 C325 1.419 1_565 S
C323 H327 0.930 . S
C324 C323 1.369 . S
C324 C333 1.429 . S
C325 C323 1.419 1_545 S
C325 C326 1.363 . S
C325 H328 0.929 . S
C326 C325 1.363 . S
C326 C332 1.428 . S
H327 C323 0.930 . S
H328 C325 0.929 . S
S329 N330 1.613 . S
S329 N331 1.610 1_565 S
N330 S329 1.613 . S
N330 C333 1.350 . S
N331 S329 1.610 1_545 S
N331 C332 1.351 . S
C332 C326 1.428 . S
C332 N331 1.351 . S
C332 C333 1.434 1_545 S
C333 C324 1.429 . S
C333 N330 1.350 . S
C333 C332 1.434 1_565 S
C334 C335 1.369 1_554 S
C334 C336 1.419 . S
C334 H338 0.930 . S
C335 C334 1.369 1_556 S
C335 C344 1.429 1_565 S
C336 C334 1.419 . S
C336 C337 1.363 1_565 S
C336 H339 0.929 . S
C337 C336 1.363 1_545 S
C337 C343 1.428 1_554 S
H338 C334 0.930 . S
H339 C336 0.929 . S
S340 N341 1.613 . S
S340 N342 1.610 . S
N341 S340 1.613 . S
N341 C344 1.350 . S
N342 S340 1.610 . S
N342 C343 1.351 . S
C343 C337 1.428 1_556 S
C343 N342 1.351 . S
C343 C344 1.434 . S
C344 C335 1.429 1_545 S
C344 N341 1.350 . S
C344 C343 1.434 . S
C345 C346 1.366 1_565 S
C345 C347 1.421 . S
C345 H349 0.930 . S
C346 C345 1.366 1_545 S
C346 C355 1.429 . S
C347 C345 1.421 . S
C347 C348 1.363 . S
C347 H350 0.929 . S
C348 C347 1.363 . S
C348 C354 1.428 1_565 S
H349 C345 0.930 . S
H350 C347 0.929 . S
S351 N352 1.613 . S
S351 N353 1.610 . S
N352 S351 1.613 . S
N352 C355 1.350 . S
N353 S351 1.610 . S
N353 C354 1.351 . S
C354 C348 1.428 1_545 S
C354 N353 1.351 . S
C354 C355 1.434 . S
C355 C346 1.429 . S
C355 N352 1.350 . S
C355 C354 1.434 . S
C356 C357 1.369 1_554 S
C356 C358 1.419 . S
C356 H360 0.930 . S
C357 C356 1.369 1_556 S
C357 C366 1.429 . S
C358 C356 1.419 . S
C358 C359 1.363 . S
C358 H361 0.929 . S
C359 C358 1.363 . S
C359 C365 1.428 1_554 S
H360 C356 0.930 . S
H361 C358 0.929 . S
S362 N363 1.613 . S
S362 N364 1.610 . S
N363 S362 1.613 . S
N363 C366 1.350 . S
N364 S362 1.610 . S
N364 C365 1.351 . S
C365 C359 1.428 1_556 S
C365 N364 1.351 . S
C365 C366 1.434 . S
C366 C357 1.429 . S
C366 N363 1.350 . S
C366 C365 1.434 . S
C367 C368 1.369 . S
C367 C369 1.419 . S
C367 H371 0.930 . S
C368 C367 1.369 . S
C368 C377 1.429 . S
C369 C367 1.419 . S
C369 C370 1.363 . S
C369 H372 0.929 . S
C370 C369 1.363 . S
C370 C376 1.428 . S
H371 C367 0.930 . S
H372 C369 0.929 . S
S373 N374 1.613 . S
S373 N375 1.610 . S
N374 S373 1.613 . S
N374 C377 1.350 . S
N375 S373 1.610 . S
N375 C376 1.351 . S
C376 C370 1.428 . S
C376 N375 1.351 . S
C376 C377 1.434 . S
C377 C368 1.429 . S
C377 N374 1.350 . S
C377 C376 1.434 . S
C378 C379 1.369 . S
C378 C380 1.419 . S
C378 H382 0.930 . S
C379 C378 1.369 . S
C379 C388 1.429 1_554 S
C380 C378 1.419 . S
C380 C381 1.363 1_554 S
C380 H383 0.929 . S
C381 C380 1.363 1_556 S
C381 C387 1.428 . S
H382 C378 0.930 . S
H383 C380 0.929 . S
S384 N385 1.613 . S
S384 N386 1.610 . S
N385 S384 1.613 . S
N385 C388 1.350 . S
N386 S384 1.610 . S
N386 C387 1.351 . S
C387 C381 1.428 . S
C387 N386 1.351 . S
C387 C388 1.434 . S
C388 C379 1.429 1_556 S
C388 N385 1.350 . S
C388 C387 1.434 . S
C389 C390 1.369 . S
C389 C391 1.419 . S
C389 H393 0.930 . S
C390 C389 1.369 . S
C390 C399 1.429 . S
C391 C389 1.419 . S
C391 C392 1.363 . S
C391 H394 0.929 . S
C392 C391 1.363 . S
C392 C398 1.428 . S
H393 C389 0.930 . S
H394 C391 0.929 . S
S395 N396 1.613 . S
S395 N397 1.610 . S
N396 S395 1.613 . S
N396 C399 1.350 . S
N397 S395 1.610 . S
N397 C398 1.351 . S
C398 C392 1.428 . S
C398 N397 1.351 . S
C398 C399 1.434 . S
C399 C390 1.429 . S
C399 N396 1.350 . S
C399 C398 1.434 . S
C400 C401 1.369 . S
C400 C402 1.419 . S
C400 H404 0.930 . S
C401 C400 1.369 . S
C401 C410 1.429 . S
C402 C400 1.419 . S
C402 C403 1.363 . S
C402 H405 0.929 . S
C403 C402 1.363 . S
C403 C409 1.428 . S
H404 C400 0.930 . S
H405 C402 0.929 . S
S406 N407 1.613 . S
S406 N408 1.610 . S
N407 S406 1.613 . S
N407 C410 1.350 . S
N408 S406 1.610 . S
N408 C409 1.351 . S
C409 C403 1.428 . S
C409 N408 1.351 . S
C409 C410 1.434 . S
C410 C401 1.429 . S
C410 N407 1.350 . S
C410 C409 1.434 . S
C411 C412 1.369 . S
C411 C413 1.419 1_655 S
C411 H415 0.930 . S
C412 C411 1.369 . S
C412 C421 1.429 . S
C413 C411 1.419 1_455 S
C413 C414 1.363 . S
C413 H416 0.929 . S
C414 C413 1.363 . S
C414 C420 1.428 . S
H415 C411 0.930 . S
H416 C413 0.929 . S
S417 N418 1.613 1_455 S
S417 N419 1.610 . S
N418 S417 1.613 1_655 S
N418 C421 1.350 . S
N419 S417 1.610 . S
N419 C420 1.351 . S
C420 C414 1.428 . S
C420 N419 1.351 . S
C420 C421 1.434 1_455 S
C421 C412 1.429 . S
C421 N418 1.350 . S
C421 C420 1.434 1_655 S
C422 C423 1.369 . S
C422 C424 1.419 . S
C422 H426 0.930 . S
C423 C422 1.369 . S
C423 C432 1.429 . S
C424 C422 1.419 . S
C424 C425 1.363 . S
C424 H427 0.929 . S
C425 C424 1.363 . S
C425 C431 1.428 . S
H426 C422 0.930 . S
H427 C424 0.929 . S
S428 N429 1.613 . S
S428 N430 1.610 . S
N429 S428 1.613 . S
N429 C432 1.350 . S
N430 S428 1.610 . S
N430 C431 1.351 . S
C431 C425 1.428 . S
C431 N430 1.351 . S
C431 C432 1.434 . S
C432 C423 1.429 . S
C432 N429 1.350 . S
C432 C431 1.434 . S
C433 C434 1.369 . S
C433 C435 1.419 1_455 S
C433 H437 0.930 . S
C434 C433 1.369 . S
C434 C443 1.429 . S
C435 C433 1.419 1_655 S
C435 C436 1.363 . S
C435 H438 0.929 . S
C436 C435 1.363 . S
C436 C442 1.428 . S
H437 C433 0.930 . S
H438 C435 0.929 . S
S439 N440 1.613 . S
S439 N441 1.610 1_455 S
N440 S439 1.613 . S
N440 C443 1.350 . S
N441 S439 1.610 1_655 S
N441 C442 1.351 . S
C442 C436 1.428 . S
C442 N441 1.351 . S
C442 C443 1.434 1_655 S
C443 C434 1.429 . S
C443 N440 1.350 . S
C443 C442 1.434 1_455 S
C444 C445 1.369 . S
C444 C446 1.419 1_455 S
C444 H448 0.930 . S
C445 C444 1.369 . S
C445 C454 1.429 . S
C446 C444 1.419 1_655 S
C446 C447 1.363 . S
C446 H449 0.929 . S
C447 C446 1.363 . S
C447 C453 1.428 . S
H448 C444 0.930 . S
H449 C446 0.929 . S
S450 N451 1.613 1_655 S
S450 N452 1.610 . S
N451 S450 1.613 1_455 S
N451 C454 1.350 . S
N452 S450 1.610 . S
N452 C453 1.351 . S
C453 C447 1.428 . S
C453 N452 1.351 . S
C453 C454 1.434 1_655 S
C454 C445 1.429 . S
C454 N451 1.350 . S
C454 C453 1.434 1_455 S
C455 C456 1.369 . S
C455 C457 1.419 . S
C455 H459 0.930 . S
C456 C455 1.369 . S
C456 C465 1.429 . S
C457 C455 1.419 . S
C457 C458 1.363 . S
C457 H460 0.929 . S
C458 C457 1.363 . S
C458 C464 1.428 . S
H459 C455 0.930 . S
H460 C457 0.929 . S
S461 N462 1.613 . S
S461 N463 1.610 . S
N462 S461 1.613 . S
N462 C465 1.350 . S
N463 S461 1.610 . S
N463 C464 1.351 . S
C464 C458 1.428 . S
C464 N463 1.351 . S
C464 C465 1.434 . S
C465 C456 1.429 . S
C465 N462 1.350 . S
C465 C464 1.434 . S
C466 C467 1.369 . S
C466 C468 1.419 1_455 S
C466 H470 0.930 . S
C467 C466 1.369 . S
C467 C476 1.429 . S
C468 C466 1.419 1_655 S
C468 C469 1.363 . S
C468 H471 0.929 . S
C469 C468 1.363 . S
C469 C475 1.428 . S
H470 C466 0.930 . S
H471 C468 0.929 . S
S472 N473 1.613 . S
S472 N474 1.610 1_455 S
N473 S472 1.613 . S
N473 C476 1.350 . S
N474 S472 1.610 1_655 S
N474 C475 1.351 . S
C475 C469 1.428 . S
C475 N474 1.351 . S
C475 C476 1.434 1_655 S
C476 C467 1.429 . S
C476 N473 1.350 . S
C476 C475 1.434 1_455 S
C477 C478 1.369 . S
C477 C479 1.419 . S
C477 H481 0.930 . S
C478 C477 1.369 . S
C478 C487 1.429 . S
C479 C477 1.419 . S
C479 C480 1.363 . S
C479 H482 0.929 . S
C480 C479 1.363 . S
C480 C486 1.428 . S
H481 C477 0.930 . S
H482 C479 0.929 . S
S483 N484 1.613 . S
S483 N485 1.610 . S
N484 S483 1.613 . S
N484 C487 1.350 . S
N485 S483 1.610 . S
N485 C486 1.351 . S
C486 C480 1.428 . S
C486 N485 1.351 . S
C486 C487 1.434 . S
C487 C478 1.429 . S
C487 N484 1.350 . S
C487 C486 1.434 . S
C488 C489 1.369 . S
C488 C490 1.419 . S
C488 H492 0.930 . S
C489 C488 1.369 . S
C489 C498 1.429 . S
C490 C488 1.419 . S
C490 C491 1.363 . S
C490 H493 0.929 . S
C491 C490 1.363 . S
C491 C497 1.428 . S
H492 C488 0.930 . S
H493 C490 0.929 . S
S494 N495 1.613 . S
S494 N496 1.610 . S
N495 S494 1.613 . S
N495 C498 1.350 . S
N496 S494 1.610 . S
N496 C497 1.351 . S
C497 C491 1.428 . S
C497 N496 1.351 . S
C497 C498 1.434 . S
C498 C489 1.429 . S
C498 N495 1.350 . S
C498 C497 1.434 . S
C499 C500 1.369 . S
C499 C501 1.419 . S
C499 H503 0.930 . S
C500 C499 1.369 . S
C500 C509 1.429 . S
C501 C499 1.419 . S
C501 C502 1.363 . S
C501 H504 0.929 . S
C502 C501 1.363 . S
C502 C508 1.428 . S
H503 C499 0.930 . S
H504 C501 0.929 . S
S505 N506 1.613 . S
S505 N507 1.610 . S
N506 S505 1.613 . S
N506 C509 1.350 . S
N507 S505 1.610 . S
N507 C508 1.351 . S
C508 C502 1.428 . S
C508 N507 1.351 . S
C508 C509 1.434 . S
C509 C500 1.429 . S
C509 N506 1.350 . S
C509 C508 1.434 . S
C510 C511 1.369 . S
C510 C512 1.419 . S
C510 H514 0.930 . S
C511 C510 1.369 . S
C511 C520 1.429 . S
C512 C510 1.419 . S
C512 C513 1.363 . S
C512 H515 0.929 . S
C513 C512 1.363 . S
C513 C519 1.428 . S
H514 C510 0.930 . S
H515 C512 0.929 . S
S516 N517 1.613 . S
S516 N518 1.610 . S
N517 S516 1.613 . S
N517 C520 1.350 . S
N518 S516 1.610 . S
N518 C519 1.351 . S
C519 C513 1.428 . S
C519 N518 1.351 . S
C519 C520 1.434 . S
C520 C511 1.429 . S
C520 N517 1.350 . S
C520 C519 1.434 . S
C521 C522 1.369 . S
C521 C523 1.419 . S
C521 H525 0.930 . S
C522 C521 1.369 . S
C522 C531 1.429 . S
C523 C521 1.419 . S
C523 C524 1.363 . S
C523 H526 0.929 . S
C524 C523 1.363 . S
C524 C530 1.428 . S
H525 C521 0.930 . S
H526 C523 0.929 . S
S527 N528 1.613 . S
S527 N529 1.610 . S
N528 S527 1.613 . S
N528 C531 1.350 . S
N529 S527 1.610 . S
N529 C530 1.351 . S
C530 C524 1.428 . S
C530 N529 1.351 . S
C530 C531 1.434 . S
C531 C522 1.429 . S
C531 N528 1.350 . S
C531 C530 1.434 . S
C532 C533 1.369 . S
C532 C534 1.419 . S
C532 H536 0.930 . S
C533 C532 1.369 . S
C533 C542 1.429 . S
C534 C532 1.419 . S
C534 C535 1.363 . S
C534 H537 0.929 . S
C535 C534 1.363 . S
C535 C541 1.428 . S
H536 C532 0.930 . S
H537 C534 0.929 . S
S538 N539 1.613 . S
S538 N540 1.610 . S
N539 S538 1.613 . S
N539 C542 1.350 . S
N540 S538 1.610 . S
N540 C541 1.351 . S
C541 C535 1.428 . S
C541 N540 1.351 . S
C541 C542 1.434 . S
C542 C533 1.429 . S
C542 N539 1.350 . S
C542 C541 1.434 . S
C543 C544 1.369 . S
C543 C545 1.419 . S
C543 H547 0.930 . S
C544 C543 1.369 . S
C544 C553 1.429 . S
C545 C543 1.419 . S
C545 C546 1.363 . S
C545 H548 0.929 . S
C546 C545 1.363 . S
C546 C552 1.428 . S
H547 C543 0.930 . S
H548 C545 0.929 . S
S549 N550 1.613 . S
S549 N551 1.610 . S
N550 S549 1.613 . S
N550 C553 1.350 . S
N551 S549 1.610 . S
N551 C552 1.351 . S
C552 C546 1.428 . S
C552 N551 1.351 . S
C552 C553 1.434 . S
C553 C544 1.429 . S
C553 N550 1.350 . S
C553 C552 1.434 . S
C554 C555 1.369 . S
C554 C556 1.419 . S
C554 H558 0.930 . S
C555 C554 1.369 . S
C555 C564 1.429 . S
C556 C554 1.419 . S
C556 C557 1.363 . S
C556 H559 0.929 . S
C557 C556 1.363 . S
C557 C563 1.428 . S
H558 C554 0.930 . S
H559 C556 0.929 . S
S560 N561 1.613 . S
S560 N562 1.610 . S
N561 S560 1.613 . S
N561 C564 1.350 . S
N562 S560 1.610 . S
N562 C563 1.351 . S
C563 C557 1.428 . S
C563 N562 1.351 . S
C563 C564 1.434 . S
C564 C555 1.429 . S
C564 N561 1.350 . S
C564 C563 1.434 . S
C565 C566 1.369 . S
C565 C567 1.419 . S
C565 H569 0.930 . S
C566 C565 1.369 . S
C566 C575 1.429 . S
C567 C565 1.419 . S
C567 C568 1.363 . S
C567 H570 0.929 . S
C568 C567 1.363 . S
C568 C574 1.428 . S
H569 C565 0.930 . S
H570 C567 0.929 . S
S571 N572 1.613 . S
S571 N573 1.610 . S
N572 S571 1.613 . S
N572 C575 1.350 . S
N573 S571 1.610 . S
N573 C574 1.351 . S
C574 C568 1.428 . S
C574 N573 1.351 . S
C574 C575 1.434 . S
C575 C566 1.429 . S
C575 N572 1.350 . S
C575 C574 1.434 . S
C225 C13 1.364 . S
C227 C179 1.455 . S
C236 C193 1.453 . S
C238 C27 1.372 . S
C247 C41 1.363 . S
C249 C207 1.456 . S
C258 C221 1.456 . S
C260 C55 1.367 . S
C269 C125 1.367 . S
C271 C67 1.454 . S
C280 C81 1.453 . S
C282 C139 1.371 . S
C291 C153 1.368 . S
C293 C95 1.454 . S
C302 C109 1.456 . S
C304 C167 1.369 . S
C313 C8 1.396 . S
C315 C36 1.390 . S
C324 C22 1.389 . S
C326 C50 1.394 . S
C335 C64 1.531 . S
C337 C92 1.534 . S
C346 C78 1.535 . S
C348 C106 1.532 . S
C357 C148 1.395 . S
C359 C120 1.390 . S
C368 C134 1.389 . S
C370 C162 1.395 . S
C379 C204 1.535 . S
C381 C176 1.532 . S
C390 C190 1.535 . S
C392 C218 1.532 . S
C401 C91 1.494 . S
C403 C7 1.497 . S
C412 C105 1.496 . S
C414 C21 1.495 . S
C423 C35 1.496 . S
C425 C63 1.496 . S
C434 C49 1.494 . S
C436 C77 1.497 . S
C445 C203 1.495 . S
C447 C119 1.496 . S
C456 C133 1.497 . S
C458 C217 1.494 . S
C467 C175 1.495 . S
C469 C147 1.495 . S
C478 C161 1.493 . S
C480 C189 1.497 . S
C489 C11 1.370 . S
C491 C53 1.367 . S
C500 C39 1.369 . S
C502 C25 1.368 . S
C511 C69 1.433 . S
C513 C111 1.441 . S
C522 C83 1.444 . S
C524 C97 1.440 . S
C533 C165 1.367 . S
C535 C123 1.370 . S
C544 C137 1.367 . S
C546 C151 1.369 . S
C555 C223 1.434 . S
C557 C181 1.443 . S
C566 C195 1.433 . S
C568 C209 1.438 . S
