# Generated by pormake.
# Topology nbo, (4)-cn, num edge types: 1
# Building blocks:
#     Node 0, Type 0, BuildingBlock: MUDLON_clean_sbu_0, # of connection points: 4
#     Node 1, Type 0, BuildingBlock: MUDLON_clean_sbu_0, # of connection points: 4
#     Node 2, Type 0, BuildingBlock: MUDLON_clean_sbu_0, # of connection points: 4
#     Node 3, Type 0, BuildingBlock: MUDLON_clean_sbu_0, # of connection points: 4
#     Node 4, Type 0, BuildingBlock: MUDLON_clean_sbu_0, # of connection points: 4
#     Node 5, Type 0, BuildingBlock: MUDLON_clean_sbu_0, # of connection points: 4
#     Edge 6, Type (0, 0), BuildingBlock: TEMPAE_clean_linker_10, # of connection points: 2
#     Edge 7, Type (0, 0), BuildingBlock: TEMPAE_clean_linker_10, # of connection points: 2
#     Edge 8, Type (0, 0), BuildingBlock: TEMPAE_clean_linker_10, # of connection points: 2
#     Edge 9, Type (0, 0), BuildingBlock: TEMPAE_clean_linker_10, # of connection points: 2
#     Edge 10, Type (0, 0), BuildingBlock: TEMPAE_clean_linker_10, # of connection points: 2
#     Edge 11, Type (0, 0), BuildingBlock: TEMPAE_clean_linker_10, # of connection points: 2
#     Edge 12, Type (0, 0), BuildingBlock: TEMPAE_clean_linker_10, # of connection points: 2
#     Edge 13, Type (0, 0), BuildingBlock: TEMPAE_clean_linker_10, # of connection points: 2
#     Edge 14, Type (0, 0), BuildingBlock: TEMPAE_clean_linker_10, # of connection points: 2
#     Edge 15, Type (0, 0), BuildingBlock: TEMPAE_clean_linker_10, # of connection points: 2
#     Edge 16, Type (0, 0), BuildingBlock: TEMPAE_clean_linker_10, # of connection points: 2
#     Edge 17, Type (0, 0), BuildingBlock: TEMPAE_clean_linker_10, # of connection points: 2
# Relax obj value: 0.000
# Max RMSD: 0.009
# Mean RMSD: 0.009
data_MOF--net-nbo--node1-MUDLON_clean_sbu_0--edge1-TEMPAE_clean_linker_10
_symmetry_space_group_name_H-M    P1
_symmetry_Int_Tables_number       1
_symmetry_cell_setting            triclinic
loop_
_symmetry_equiv_pos_as_xyz
'x, y, z'
_cell_length_a     31.139613
_cell_length_b     31.059826
_cell_length_c     31.119881
_cell_angle_alpha  91.149914
_cell_angle_beta   90.981642
_cell_angle_gamma 91.162076
loop_
_atom_site_label
_atom_site_type_symbol
_atom_site_fract_x
_atom_site_fract_y
_atom_site_fract_z
_atom_type_partial_charge
Mg0 Mg 0.08847 0.08792 0.53761 0.0
C1 C 0.11116 0.18276 0.56625 0.0
O2 O 0.13595 0.16149 0.59262 0.0
C3 C 0.06496 0.98837 0.51795 0.0
O4 O 0.0349 1.00435 0.49321 0.0
C5 C 0.99346 0.09584 0.50569 0.0
O6 O 0.01467 0.10744 0.47151 0.0
O7 O 0.01462 0.08585 0.53927 0.0
O8 O 0.08742 0.1617 0.53919 0.0
O9 O 0.16203 0.08984 0.5344 0.0
C10 C 0.18192 0.11383 0.50832 0.0
O11 O 0.15969 0.13857 0.48283 0.0
O12 O 0.0905 0.01391 0.5388 0.0
Mg13 Mg 0.51429 0.96845 0.96672 0.0
C14 C 0.52859 0.06877 0.94892 0.0
O15 O 0.55895 0.05492 0.92364 0.0
C16 C 0.48623 0.87465 0.94352 0.0
O17 O 0.45624 0.89684 0.92434 0.0
C18 C 0.53596 0.94624 0.87041 0.0
O19 O 0.56209 0.92008 0.89004 0.0
O20 O 0.51205 0.97042 0.89277 0.0
O21 O 0.50654 0.04167 0.96984 0.0
O22 O 0.51936 0.9659 0.04088 0.0
C23 C 0.53797 0.9955 0.06368 0.0
O24 O 0.55413 0.02941 0.04471 0.0
O25 O 0.51643 0.89488 0.96384 0.0
Mg26 Mg 0.95826 0.5437 0.08708 0.0
C27 C 0.05065 0.50832 0.0997 0.0
O28 O 0.02761 0.47914 0.1195 0.0
C29 C 0.8644 0.51013 0.08404 0.0
O30 O 0.88594 0.47525 0.07496 0.0
C31 C 0.97014 0.52091 0.9881 0.0
O32 O 0.99195 0.48876 1.0036 0.0
O33 O 0.95274 0.5472 0.01397 0.0
O34 O 0.03163 0.53994 0.08296 0.0
O35 O 0.96352 0.5444 0.16022 0.0
C36 C 0.94457 0.51763 0.18419 0.0
O37 O 0.92114 0.48617 0.16654 0.0
O38 O 0.88512 0.54534 0.09101 0.0
Mg39 Mg 0.45535 0.47286 0.02387 0.0
C40 C 0.44061 0.56184 1.00428 0.0
O41 O 0.42912 0.55703 0.04436 0.0
C42 C 0.48162 0.38314 0.01625 0.0
O43 O 0.49344 0.39549 0.05539 0.0
C44 C 0.36288 0.461 0.03494 0.0
O45 O 0.36986 0.44804 0.99525 0.0
O46 O 0.39506 0.47249 0.05854 0.0
O47 O 0.45244 0.5288 0.98312 0.0
O48 O 0.51546 0.48497 0.05933 0.0
C49 C 0.54539 0.49128 0.03265 0.0
O50 O 0.53541 0.48996 0.99142 0.0
O51 O 0.46293 0.41012 0.9924 0.0
Mg52 Mg 0.02718 0.58361 0.58761 0.0
C53 C 0.06633 0.66548 0.54918 0.0
O54 O 0.06662 0.64149 0.51395 0.0
C55 C 0.05109 0.49621 0.60772 0.0
O56 O 0.01123 0.49985 0.62023 0.0
C57 C 0.01314 0.55092 0.49956 0.0
O58 O 0.05304 0.5413 0.50898 0.0
O59 O 0.99123 0.57017 0.52799 0.0
O60 O 0.05468 0.64861 0.58415 0.0
O61 O 0.9908 0.58172 0.64661 0.0
C62 C 0.01247 0.5956 0.67922 0.0
O63 O 0.05076 0.61272 0.67307 0.0
O64 O 0.07029 0.52933 0.59322 0.0
Mg65 Mg 0.5812 0.02627 0.47333 0.0
C66 C 0.67468 0.03024 0.48356 0.0
O67 O 0.66403 0.98912 0.48471 0.0
C68 C 0.4922 0.05289 0.45714 0.0
O69 O 0.49588 0.01756 0.43374 0.0
C70 C 0.60224 0.99706 0.38144 0.0
O71 O 0.63857 0.01771 0.39057 0.0
O72 O 0.5746 0.99263 0.41078 0.0
O73 O 0.64486 0.05725 0.4784 0.0
O74 O 0.57812 0.98757 0.53094 0.0
C75 C 0.54298 0.97712 0.54863 0.0
O76 O 0.50652 0.98393 0.52828 0.0
O77 O 0.52526 0.06762 0.47769 0.0
C78 C 0.07981 0.25304 0.54481 0.0
C79 C 0.10961 0.23043 0.56947 0.0
C80 C 0.07579 0.29778 0.55009 0.0
C81 C 0.10229 0.32052 0.58067 0.0
C82 C 0.13376 0.2982 0.60423 0.0
C83 C 0.13698 0.25342 0.59843 0.0
C84 C 0.04181 0.3204 0.52431 0.0
C85 C 0.16281 0.3213 0.6369 0.0
C86 C 0.1018 0.44304 0.5756 0.0
C87 C 0.06974 0.45281 0.60514 0.0
C88 C 0.11403 0.40015 0.56822 0.0
C89 C 0.09381 0.36656 0.5911 0.0
C90 C 0.06315 0.3767 0.62259 0.0
C91 C 0.05149 0.41961 0.62914 0.0
C92 C 0.14696 0.3906 0.53452 0.0
C93 C 0.04109 0.34199 0.64803 0.0
H94 H 0.0587 0.23563 0.52218 0.0
H95 H 0.16042 0.23632 0.61734 0.0
H96 H 0.0166 0.33224 0.54611 0.0
H97 H 0.05599 0.34885 0.50839 0.0
H98 H 0.02632 0.2989 0.49937 0.0
H99 H 0.18863 0.30034 0.64906 0.0
H100 H 0.17779 0.35033 0.62275 0.0
H101 H 0.14359 0.33231 0.66458 0.0
H102 H 0.11582 0.46855 0.55677 0.0
H103 H 0.02692 0.42702 0.65227 0.0
H104 H 0.13107 0.37375 0.50658 0.0
H105 H 0.17171 0.36885 0.54734 0.0
H106 H 0.16309 0.42036 0.52307 0.0
H107 H 0.02124 0.32087 0.62605 0.0
H108 H 0.01999 0.35549 0.67315 0.0
H109 H 0.06524 0.32148 0.66374 0.0
C110 C 0.92236 0.08385 0.54113 0.0
C111 C 0.94581 0.09182 0.5039 0.0
C112 C 0.87747 0.07776 0.53918 0.0
C113 C 0.8555 0.07911 0.49898 0.0
C114 C 0.87888 0.08822 0.46149 0.0
C115 C 0.92362 0.09469 0.46444 0.0
C116 C 0.85369 0.06861 0.57997 0.0
C117 C 0.85686 0.08943 0.41792 0.0
C118 C 0.75246 0.01235 0.4852 0.0
C119 C 0.72068 0.0437 0.48736 0.0
C120 C 0.79624 0.02355 0.48894 0.0
C121 C 0.80885 0.06725 0.49548 0.0
C122 C 0.777 0.09917 0.49791 0.0
C123 C 0.73325 0.08705 0.49356 0.0
C124 C 0.82905 0.9885 0.48563 0.0
C125 C 0.78918 0.14604 0.50525 0.0
H126 H 0.93915 0.08188 0.57181 0.0
H127 H 0.94137 0.10084 0.43547 0.0
H128 H 0.82606 0.09037 0.58317 0.0
H129 H 0.8406 0.03511 0.57867 0.0
H130 H 0.8747 0.07258 0.60905 0.0
H131 H 0.87908 0.09966 0.39233 0.0
H132 H 0.84352 0.05696 0.40918 0.0
H133 H 0.82955 0.11179 0.4188 0.0
H134 H 0.74318 0.97877 0.48023 0.0
H135 H 0.70892 0.11144 0.49544 0.0
H136 H 0.84897 0.98802 0.5155 0.0
H137 H 0.85099 0.99508 0.45871 0.0
H138 H 0.81396 0.95608 0.48025 0.0
H139 H 0.80829 0.1501 0.53554 0.0
H140 H 0.76063 0.16682 0.50715 0.0
H141 H 0.8097 0.15738 0.47879 0.0
C142 C 0.05876 0.74002 0.58006 0.0
C143 C 0.07304 0.71285 0.54689 0.0
C144 C 0.05981 0.785 0.57605 0.0
C145 C 0.07622 0.80342 0.53827 0.0
C146 C 0.09252 0.77627 0.50554 0.0
C147 C 0.09041 0.73132 0.51008 0.0
C148 C 0.04167 0.81273 0.6115 0.0
C149 C 0.11103 0.79465 0.46514 0.0
C150 C 0.03536 0.91327 0.50684 0.0
C151 C 0.06847 0.94102 0.52231 0.0
C152 C 0.0376 0.86849 0.51172 0.0
C153 C 0.0741 0.85086 0.53208 0.0
C154 C 0.10796 0.87862 0.54715 0.0
C155 C 0.10462 0.92336 0.54236 0.0
C156 C 1.00056 0.84008 0.49561 0.0
C157 C 0.14765 0.86106 0.56849 0.0
H158 H 0.04509 0.7261 0.60855 0.0
H159 H 0.1017 0.7106 0.48439 0.0
H160 H 0.06566 0.83766 0.6224 0.0
H161 H 0.01316 0.82976 0.59914 0.0
H162 H 0.03194 0.79362 0.63966 0.0
H163 H 0.12565 0.76954 0.44445 0.0
H164 H 0.08533 0.81032 0.44633 0.0
H165 H 0.13583 0.81975 0.4734 0.0
H166 H 1.00725 0.92658 0.49145 0.0
H167 H 0.13048 0.94452 0.5542 0.0
H168 H 0.98697 0.82179 0.52265 0.0
H169 H 0.01202 0.8162 0.47166 0.0
H170 H 0.9745 0.8588 0.48052 0.0
H171 H 0.13875 0.84405 0.59815 0.0
H172 H 0.17177 0.88678 0.5771 0.0
H173 H 0.16273 0.83718 0.5468 0.0
C174 C 0.41412 0.05394 0.4387 0.0
C175 C 0.44887 0.07071 0.46349 0.0
C176 C 0.37185 0.06554 0.44723 0.0
C177 C 0.36388 0.09501 0.48129 0.0
C178 C 0.39888 0.11369 0.50525 0.0
C179 C 0.44107 0.10124 0.49612 0.0
C180 C 0.33555 0.04485 0.42081 0.0
C181 C 0.39164 0.14559 0.54148 0.0
C182 C 0.25143 0.14013 0.47776 0.0
C183 C 0.22935 0.11213 0.50495 0.0
C184 C 0.29583 0.13657 0.47158 0.0
C185 C 0.31864 0.10403 0.49283 0.0
C186 C 0.29687 0.07688 0.52173 0.0
C187 C 0.25255 0.08134 0.52754 0.0
C188 C 0.31791 0.1664 0.44083 0.0
C189 C 0.31996 0.04164 0.54491 0.0
H190 H 0.41978 0.03058 0.41318 0.0
H191 H 0.46771 0.11434 0.51545 0.0
H192 H 0.31495 0.02498 0.44175 0.0
H193 H 0.31504 0.06993 0.40676 0.0
H194 H 0.34729 0.02395 0.3943 0.0
H195 H 0.42221 0.16036 0.55414 0.0
H196 H 0.37034 0.17155 0.53056 0.0
H197 H 0.37528 0.12913 0.56816 0.0
H198 H 0.23389 0.16432 0.46049 0.0
H199 H 0.23585 0.05971 0.54879 0.0
H200 H 0.32707 0.14798 0.4116 0.0
H201 H 0.34788 0.18028 0.45567 0.0
H202 H 0.297 0.19315 0.43092 0.0
H203 H 0.33026 0.01687 0.52126 0.0
H204 H 0.29938 0.02572 0.56897 0.0
H205 H 0.34933 0.05483 0.56148 0.0
C206 C 0.62296 0.98286 0.30522 0.0
C207 C 0.59072 0.98648 0.33591 0.0
C208 C 0.61273 0.97941 0.26111 0.0
C209 C 0.56921 0.98056 0.2472 0.0
C210 C 0.53641 0.98231 0.27815 0.0
C211 C 0.54754 0.9848 0.32215 0.0
C212 C 0.64869 0.97659 0.2293 0.0
C213 C 0.48967 0.98427 0.26478 0.0
C214 C 0.55146 0.02818 0.13683 0.0
C215 C 0.54316 0.99139 0.11093 0.0
C216 C 0.55866 0.02508 0.18131 0.0
C217 C 0.5585 0.98406 0.20043 0.0
C218 C 0.54964 0.94676 0.17455 0.0
C219 C 0.54163 0.9509 0.13016 0.0
C220 C 0.56708 0.06577 0.20778 0.0
C221 C 0.54989 0.90243 0.19353 0.0
H222 H 0.65638 0.98387 0.31564 0.0
H223 H 0.52241 0.98789 0.34563 0.0
H224 H 0.64196 0.95017 0.20545 0.0
H225 H 0.65107 1.00704 0.21137 0.0
H226 H 0.68021 0.971 0.24526 0.0
H227 H 0.46792 0.98146 0.29256 0.0
H228 H 0.48372 0.01537 0.24899 0.0
H229 H 0.48131 0.95823 0.24101 0.0
H230 H 0.55236 0.0596 0.12227 0.0
H231 H 0.53548 0.9223 0.11029 0.0
H232 H 0.60014 0.06568 0.22162 0.0
H233 H 0.54458 0.06731 0.23501 0.0
H234 H 0.56352 0.09527 0.18853 0.0
H235 H 0.58244 0.89581 0.20657 0.0
H236 H 0.54078 0.8768 0.16948 0.0
H237 H 0.52739 0.9007 0.22072 0.0
C238 C 0.97343 0.55645 0.24998 0.0
C239 C 0.94905 0.52214 0.23155 0.0
C240 C 0.97918 0.56065 0.29464 0.0
C241 C 0.96016 0.52977 0.32165 0.0
C242 C 0.93457 0.49569 0.3034 0.0
C243 C 0.92932 0.49226 0.25852 0.0
C244 C 1.00678 0.59745 0.31284 0.0
C245 C 0.91381 0.46216 0.3312 0.0
C246 C 0.01986 0.51639 0.42725 0.0
C247 C 0.99619 0.54205 0.45548 0.0
C248 C 1.00741 0.51078 0.38404 0.0
C249 C 0.9703 0.53134 0.36852 0.0
C250 C 0.94511 0.55578 0.3972 0.0
C251 C 0.95835 0.56084 0.44049 0.0
C252 C 0.03509 0.4843 0.3546 0.0
C253 C 0.90523 0.578 0.38176 0.0
H254 H 0.98859 0.57986 0.22945 0.0
H255 H 0.91024 0.46578 0.24458 0.0
H256 H 0.98907 0.61551 0.33777 0.0
H257 H 0.03595 0.58458 0.32856 0.0
H258 H 0.01698 0.62024 0.28773 0.0
H259 H 0.89203 0.43983 0.31241 0.0
H260 H 0.93902 0.44299 0.34704 0.0
H261 H 0.89522 0.47788 0.35702 0.0
H262 H 0.0489 0.50134 0.43866 0.0
H263 H 0.93989 0.58064 0.46216 0.0
H264 H 0.04981 0.5054 0.33029 0.0
H265 H 0.01523 0.45946 0.33698 0.0
H266 H 0.06122 0.46804 0.37233 0.0
H267 H 0.91433 0.60414 0.35968 0.0
H268 H 0.88695 0.59219 0.40873 0.0
H269 H 0.88386 0.55502 0.36338 0.0
C270 C 0.50544 0.94868 0.61316 0.0
C271 C 0.54286 0.96532 0.59461 0.0
C272 C 0.50334 0.94239 0.65771 0.0
C273 C 0.53919 0.95388 0.68446 0.0
C274 C 0.57741 0.96962 0.66576 0.0
C275 C 0.57893 0.9747 0.62107 0.0
C276 C 0.46236 0.92454 0.67628 0.0
C277 C 0.61617 0.9828 0.69315 0.0
C278 C 0.52014 0.98402 0.80169 0.0
C279 C 0.53494 0.9476 0.82283 0.0
C280 C 0.5211 0.98636 0.75665 0.0
C281 C 0.53635 0.95106 0.73212 0.0
C282 C 0.55018 0.91375 0.75329 0.0
C283 C 0.54975 0.91266 0.79839 0.0
C284 C 0.50677 0.02704 0.73538 0.0
C285 C 0.56577 0.8751 0.72832 0.0
H286 H 0.47748 0.94122 0.59293 0.0
H287 H 0.60789 0.98789 0.60711 0.0
H288 H 0.46944 0.89681 0.697 0.0
H289 H 0.44742 0.94949 0.69682 0.0
H290 H 0.43872 0.9139 0.65091 0.0
H291 H 0.64382 0.99335 0.67357 0.0
H292 H 0.60774 1.00965 0.7153 0.0
H293 H 0.62634 0.95562 0.71326 0.0
H294 H 0.50886 0.01119 0.82044 0.0
H295 H 0.56087 0.88425 0.81454 0.0
H296 H 0.48032 0.01953 0.71194 0.0
H297 H 0.53375 0.0413 0.71723 0.0
H298 H 0.49556 0.05148 0.75897 0.0
H299 H 0.54116 0.86434 0.704 0.0
H300 H 0.57306 0.84767 0.74943 0.0
H301 H 0.59523 0.88394 0.71072 0.0
C302 C 0.02182 0.6057 0.75848 0.0
C303 C 0.99833 0.58742 0.7236 0.0
C304 C 0.01286 0.59445 0.80083 0.0
C305 C 0.97951 0.56413 0.80865 0.0
C306 C 0.95447 0.5468 0.77375 0.0
C307 C 0.96416 0.55868 0.73155 0.0
C308 C 0.04018 0.61393 0.83711 0.0
C309 C 0.91852 0.51454 0.78086 0.0
C310 C 0.99403 0.50464 0.91312 0.0
C311 C 0.96878 0.52879 0.94123 0.0
C312 C 0.99629 0.5146 0.86938 0.0
C313 C 0.97255 0.54941 0.85329 0.0
C314 C 0.9454 0.57256 0.88104 0.0
C315 C 0.94393 0.56207 0.92469 0.0
C316 C 0.02565 0.48912 0.84083 0.0
C317 C 0.91933 0.60963 0.86506 0.0
H318 H 0.04811 0.62813 0.75267 0.0
H319 H 0.94595 0.54431 0.70476 0.0
H320 H 0.01953 0.62924 0.8615 0.0
H321 H 0.05819 0.58823 0.85334 0.0
H322 H 0.0636 0.63847 0.82577 0.0
H323 H 0.89975 0.50696 0.75089 0.0
H324 H 0.93202 0.48424 0.79303 0.0
H325 H 0.89642 0.52691 0.8056 0.0
H326 H 0.01321 0.47878 0.92553 0.0
H327 H 0.924 0.58068 0.94605 0.0
H328 H 0.05266 0.51017 0.83059 0.0
H329 H 1.00812 0.47762 0.81133 0.0
H330 H 0.03915 0.4609 0.85732 0.0
H331 H 0.94118 0.63675 0.85676 0.0
H332 H 0.89643 0.62134 0.88944 0.0
H333 H 0.90103 0.59996 0.8354 0.0
C334 C 0.12228 0.53271 0.07204 0.0
C335 C 0.09772 0.50311 0.09527 0.0
C336 C 0.16635 0.52663 0.06562 0.0
C337 C 0.18641 0.49005 0.08279 0.0
C338 C 0.16209 0.46074 0.1073 0.0
C339 C 0.1181 0.46762 0.11324 0.0
C340 C 0.19115 0.55867 0.03933 0.0
C341 C 0.1822 0.42134 0.12611 0.0
C342 C 0.28387 0.44944 0.0238 0.0
C343 C 0.31807 0.46582 0.0496 0.0
C344 C 0.24103 0.45654 0.03468 0.0
C345 C 0.23193 0.48076 0.07232 0.0
C346 C 0.26622 0.49659 0.09912 0.0
C347 C 0.30894 0.48885 0.0875 0.0
C348 C 0.20549 0.4388 1.00533 0.0
C349 C 0.25779 0.52253 0.13951 0.0
H350 H 0.10691 0.5603 0.05814 0.0
H351 H 0.09952 0.44464 0.13141 0.0
H352 H 0.22035 0.57026 0.0573 0.0
H353 H 0.20191 0.54279 0.00924 0.0
H354 H 0.17166 0.5869 0.03073 0.0
H355 H 0.15973 0.40335 0.14689 0.0
H356 H 0.19242 0.39942 0.09979 0.0
H357 H 0.21137 0.43065 0.14536 0.0
H358 H 0.29054 0.43145 0.99455 0.0
H359 H 0.33514 0.50177 0.10752 0.0
H360 H 0.18661 0.46564 0.99229 0.0
H361 H 0.18313 0.41816 0.02364 0.0
H362 H 0.21793 0.41952 0.97796 0.0
H363 H 0.24145 0.55272 0.13111 0.0
H364 H 0.28781 0.53099 0.15783 0.0
H365 H 0.23597 0.50425 0.16064 0.0
C366 C 0.51608 0.3122 0.02633 0.0
C367 C 0.48955 0.33834 1.00148 0.0
C368 C 0.52274 0.26906 0.01467 0.0
C369 C 0.50217 0.25131 0.9773 0.0
C370 C 0.476 0.27766 0.9515 0.0
C371 C 0.47012 0.321 0.96381 0.0
C372 C 0.55116 0.24224 0.04293 0.0
C373 C 0.45341 0.25979 0.91152 0.0
C374 C 0.5475 0.14614 0.93482 0.0
C375 C 0.5205 0.11555 0.9539 0.0
C376 C 0.54113 0.19052 0.94098 0.0
C377 C 0.50682 0.20464 0.96664 0.0
C378 C 0.47873 0.17392 0.98492 0.0
C379 C 0.48598 0.12982 0.97846 0.0
C380 C 0.57194 0.22227 0.92117 0.0
C381 C 0.44167 0.18761 0.01237 0.0
H382 H 0.53156 0.32537 0.0553 0.0
H383 H 0.44957 0.34098 0.94447 0.0
H384 H 0.53196 0.21555 0.05669 0.0
H385 H 0.57685 0.2275 0.02361 0.0
H386 H 0.5664 0.26144 0.06979 0.0
H387 H 0.43594 0.28494 0.8938 0.0
H388 H 0.47693 0.24488 0.88968 0.0
H389 H 0.43009 0.23412 0.92034 0.0
H390 H 0.57419 0.13547 0.91571 0.0
H391 H 0.46474 0.10649 0.99313 0.0
H392 H 0.59025 0.24016 0.94695 0.0
H393 H 0.55401 0.24629 0.90247 0.0
H394 H 0.59512 0.20626 0.89966 0.0
H395 H 0.45416 0.20419 0.04207 0.0
H396 H 0.421 0.15988 0.0217 0.0
H397 H 0.42156 0.21086 0.99493 0.0
C398 C 0.79455 0.46934 0.07619 0.0
C399 C 0.81677 0.50845 0.08454 0.0
C400 C 0.74954 0.46752 0.0733 0.0
C401 C 0.72606 0.50572 0.0789 0.0
C402 C 0.74814 0.54496 0.0893 0.0
C403 C 0.79327 0.54588 0.09195 0.0
C404 C 0.72725 0.42501 0.0621 0.0
C405 C 0.72425 0.58634 0.09565 0.0
C406 C 0.62149 0.50816 0.01521 0.0
C407 C 0.59093 0.49801 0.04626 0.0
C408 C 0.66528 0.51185 0.02582 0.0
C409 C 0.67915 0.50534 0.06867 0.0
C410 C 0.64846 0.49639 0.10059 0.0
C411 C 0.60458 0.4928 0.08899 0.0
C412 C 0.69686 0.5215 0.99075 0.0
C413 C 0.66211 0.48946 0.14665 0.0
H414 H 0.81236 0.44016 0.07079 0.0
H415 H 0.81013 0.57618 0.09876 0.0
H416 H 0.70086 0.41859 0.08473 0.0
H417 H 0.71268 0.42639 0.02938 0.0
H418 H 0.74966 0.39765 0.06285 0.0
H419 H 0.74549 0.6129 0.10855 0.0
H420 H 0.71032 0.59634 0.06444 0.0
H421 H 0.69722 0.58154 0.11793 0.0
H422 H 0.61131 0.5126 0.98215 0.0
H423 H 0.58116 0.48502 0.11315 0.0
H424 H 0.71872 0.49402 0.98653 0.0
H425 H 0.71701 0.55022 0.99984 0.0
H426 H 0.68066 0.52744 0.9594 0.0
H427 H 0.68136 0.45988 0.14861 0.0
H428 H 0.63421 0.48612 0.16819 0.0
H429 H 0.68289 0.51673 0.15858 0.0
C430 C 0.4694 0.6144 0.95095 0.0
C431 C 0.44445 0.6058 0.98701 0.0
C432 C 0.47742 0.65703 0.93827 0.0
C433 C 0.45995 0.6916 0.96219 0.0
C434 C 0.43329 0.68286 0.99747 0.0
C435 C 0.42591 0.64016 0.00941 0.0
C436 C 0.50584 0.66514 0.90036 0.0
C437 C 0.41373 0.71872 0.02366 0.0
C438 C 0.51145 0.80328 0.96908 0.0
C439 C 0.48288 0.82698 0.94401 0.0
C440 C 0.50572 0.75863 0.97337 0.0
C441 C 0.47066 0.73714 0.95199 0.0
C442 C 0.44314 0.76049 0.92479 0.0
C443 C 0.44953 0.80513 0.92119 0.0
C444 C 0.53585 0.73486 1.00263 0.0
C445 C 0.40558 0.73874 0.90125 0.0
H446 H 0.48396 0.588 0.93361 0.0
H447 H 0.40631 0.63377 0.03711 0.0
H448 H 0.49001 0.68709 0.87759 0.0
H449 H 0.53623 0.68124 0.91162 0.0
H450 H 0.51377 0.63487 0.88288 0.0
H451 H 0.39225 0.70639 0.04898 0.0
H452 H 0.43959 0.73886 0.03933 0.0
H453 H 0.39496 0.73993 1.00247 0.0
H454 H 0.53748 0.81983 0.9866 0.0
H455 H 0.42754 0.82308 0.90137 0.0
H456 H 0.54773 0.70557 0.9861 0.0
H457 H 0.51832 0.72423 0.03143 0.0
H458 H 0.56389 0.75521 0.01344 0.0
H459 H 0.41592 0.70901 0.88438 0.0
H460 H 0.39046 0.76016 0.87743 0.0
H461 H 0.38092 0.72909 0.92472 0.0
loop_
_geom_bond_atom_site_label_1
_geom_bond_atom_site_label_2
_geom_bond_distance
_geom_bond_site_symmetry_2
_ccdc_geom_bond_type
Mg0 O7 2.141 1_455 S
Mg0 O8 2.048 . S
Mg0 O9 2.048 . S
Mg0 O12 2.141 1_545 S
C1 O2 1.313 . S
C1 O8 1.195 . S
O2 C1 1.313 . S
C3 O4 1.245 . S
C3 O12 1.289 . S
O4 C3 1.245 . S
C5 O6 1.245 . S
C5 O7 1.289 . S
O6 C5 1.245 . S
O7 Mg0 2.141 1_655 S
O7 C5 1.289 . S
O8 Mg0 2.048 . S
O8 C1 1.195 . S
O9 Mg0 2.048 . S
O9 C10 1.195 . S
C10 O9 1.195 . S
C10 O11 1.313 . S
O11 C10 1.313 . S
O12 Mg0 2.141 1_565 S
O12 C3 1.289 . S
Mg13 O20 2.141 1_554 S
Mg13 O21 2.048 . S
Mg13 O22 2.048 . S
Mg13 O25 2.141 1_545 S
C14 O15 1.313 . S
C14 O21 1.195 . S
O15 C14 1.313 . S
C16 O17 1.245 . S
C16 O25 1.289 . S
O17 C16 1.245 . S
C18 O19 1.245 . S
C18 O20 1.289 . S
O19 C18 1.245 . S
O20 Mg13 2.141 1_556 S
O20 C18 1.289 . S
O21 Mg13 2.048 . S
O21 C14 1.195 . S
O22 Mg13 2.048 . S
O22 C23 1.195 . S
C23 O22 1.195 . S
C23 O24 1.313 . S
O24 C23 1.313 . S
O25 Mg13 2.141 1_565 S
O25 C16 1.289 . S
Mg26 O33 2.141 1_554 S
Mg26 O34 2.048 . S
Mg26 O35 2.048 . S
Mg26 O38 2.141 1_455 S
C27 O28 1.313 . S
C27 O34 1.195 . S
O28 C27 1.313 . S
C29 O30 1.245 . S
C29 O38 1.289 . S
O30 C29 1.245 . S
C31 O32 1.245 . S
C31 O33 1.289 . S
O32 C31 1.245 . S
O33 Mg26 2.141 1_556 S
O33 C31 1.289 . S
O34 Mg26 2.048 . S
O34 C27 1.195 . S
O35 Mg26 2.048 . S
O35 C36 1.195 . S
C36 O35 1.195 . S
C36 O37 1.313 . S
O37 C36 1.313 . S
O38 Mg26 2.141 1_655 S
O38 C29 1.289 . S
Mg39 O46 2.141 . S
Mg39 O47 2.048 . S
Mg39 O48 2.048 . S
Mg39 O51 2.141 . S
C40 O41 1.313 1_554 S
C40 O47 1.195 . S
O41 C40 1.313 1_556 S
C42 O43 1.245 1_554 S
C42 O51 1.289 . S
O43 C42 1.245 1_556 S
C44 O45 1.245 1_554 S
C44 O46 1.289 . S
O45 C44 1.245 1_556 S
O46 Mg39 2.141 . S
O46 C44 1.289 . S
O47 Mg39 2.048 . S
O47 C40 1.195 . S
O48 Mg39 2.048 . S
O48 C49 1.195 . S
C49 O48 1.195 . S
C49 O50 1.313 1_554 S
O50 C49 1.313 1_556 S
O51 Mg39 2.141 . S
O51 C42 1.289 . S
Mg52 O59 2.141 . S
Mg52 O60 2.048 . S
Mg52 O61 2.048 . S
Mg52 O64 2.141 . S
C53 O54 1.313 . S
C53 O60 1.195 1_455 S
O54 C53 1.313 . S
C55 O56 1.245 . S
C55 O64 1.289 1_455 S
O56 C55 1.245 . S
C57 O58 1.245 . S
C57 O59 1.289 1_455 S
O58 C57 1.245 . S
O59 Mg52 2.141 . S
O59 C57 1.289 1_655 S
O60 Mg52 2.048 . S
O60 C53 1.195 1_655 S
O61 Mg52 2.048 . S
O61 C62 1.195 1_655 S
C62 O61 1.195 1_455 S
C62 O63 1.313 . S
O63 C62 1.313 . S
O64 Mg52 2.141 . S
O64 C55 1.289 1_655 S
Mg65 O72 2.141 . S
Mg65 O73 2.048 . S
Mg65 O74 2.048 . S
Mg65 O77 2.141 . S
C66 O67 1.313 1_545 S
C66 O73 1.195 . S
O67 C66 1.313 1_565 S
C68 O69 1.245 1_545 S
C68 O77 1.289 . S
O69 C68 1.245 1_565 S
C70 O71 1.245 1_545 S
C70 O72 1.289 . S
O71 C70 1.245 1_565 S
O72 Mg65 2.141 . S
O72 C70 1.289 . S
O73 Mg65 2.048 . S
O73 C66 1.195 . S
O74 Mg65 2.048 . S
O74 C75 1.195 . S
C75 O74 1.195 . S
C75 O76 1.313 1_545 S
O76 C75 1.313 1_565 S
O77 Mg65 2.141 . S
O77 C68 1.289 . S
C78 C79 1.391 1_655 S
C78 C80 1.394 . S
C78 H94 0.931 . S
C79 C78 1.391 1_455 S
C79 C83 1.376 . S
C80 C78 1.394 . S
C80 C81 1.369 1_655 S
C80 C84 1.531 . S
C81 C80 1.369 1_455 S
C81 C82 1.410 . S
C81 C89 1.503 . S
C82 C81 1.410 . S
C82 C83 1.392 . S
C82 C85 1.511 . S
C83 C79 1.376 . S
C83 C82 1.392 . S
C83 H95 0.929 . S
C84 C80 1.531 . S
C84 H96 0.960 . S
C84 H97 0.962 . S
C84 H98 0.960 . S
C85 C82 1.511 . S
C85 H99 0.961 . S
C85 H100 0.961 . S
C85 H101 0.961 . S
C86 C87 1.370 1_655 S
C86 C88 1.363 . S
C86 H102 0.931 . S
C87 C86 1.370 1_455 S
C87 C91 1.408 . S
C88 C86 1.363 . S
C88 C89 1.370 1_655 S
C88 C92 1.524 . S
C89 C81 1.503 . S
C89 C88 1.370 1_455 S
C89 C90 1.403 . S
C90 C89 1.403 . S
C90 C91 1.404 . S
C90 C93 1.539 . S
C91 C87 1.408 . S
C91 C90 1.404 . S
C91 H103 0.930 . S
C92 C88 1.524 . S
C92 H104 0.956 . S
C92 H105 0.961 . S
C92 H106 0.961 . S
C93 C90 1.539 . S
C93 H107 0.958 . S
C93 H108 0.961 . S
C93 H109 0.960 . S
H94 C78 0.931 . S
H95 C83 0.929 . S
H96 C84 0.960 . S
H97 C84 0.962 . S
H98 C84 0.960 . S
H99 C85 0.961 . S
H100 C85 0.961 . S
H101 C85 0.961 . S
H102 C86 0.931 . S
H103 C91 0.930 . S
H104 C92 0.956 . S
H105 C92 0.961 . S
H106 C92 0.961 . S
H107 C93 0.958 . S
H108 C93 0.961 . S
H109 C93 0.960 . S
C110 C111 1.391 . S
C110 C112 1.394 . S
C110 H126 0.931 . S
C111 C110 1.391 . S
C111 C115 1.376 . S
C112 C110 1.394 . S
C112 C113 1.369 . S
C112 C116 1.531 . S
C113 C112 1.369 . S
C113 C114 1.410 . S
C113 C121 1.503 . S
C114 C113 1.410 . S
C114 C115 1.392 . S
C114 C117 1.511 . S
C115 C111 1.376 . S
C115 C114 1.392 . S
C115 H127 0.929 . S
C116 C112 1.531 . S
C116 H128 0.960 . S
C116 H129 0.962 . S
C116 H130 0.960 . S
C117 C114 1.511 . S
C117 H131 0.961 . S
C117 H132 0.961 . S
C117 H133 0.961 . S
C118 C119 1.370 1_565 S
C118 C120 1.363 . S
C118 H134 0.931 . S
C119 C118 1.370 1_545 S
C119 C123 1.408 . S
C120 C118 1.363 . S
C120 C121 1.370 1_565 S
C120 C124 1.524 . S
C121 C113 1.503 . S
C121 C120 1.370 1_545 S
C121 C122 1.403 . S
C122 C121 1.403 . S
C122 C123 1.404 . S
C122 C125 1.539 . S
C123 C119 1.408 . S
C123 C122 1.404 . S
C123 H135 0.930 . S
C124 C120 1.524 . S
C124 H136 0.956 . S
C124 H137 0.961 . S
C124 H138 0.961 . S
C125 C122 1.539 . S
C125 H139 0.958 . S
C125 H140 0.961 . S
C125 H141 0.960 . S
H126 C110 0.931 . S
H127 C115 0.929 . S
H128 C116 0.960 . S
H129 C116 0.962 . S
H130 C116 0.960 . S
H131 C117 0.961 . S
H132 C117 0.961 . S
H133 C117 0.961 . S
H134 C118 0.931 . S
H135 C123 0.930 . S
H136 C124 0.956 . S
H137 C124 0.961 . S
H138 C124 0.961 . S
H139 C125 0.958 . S
H140 C125 0.961 . S
H141 C125 0.960 . S
C142 C143 1.391 1_655 S
C142 C144 1.394 . S
C142 H158 0.931 . S
C143 C142 1.391 1_455 S
C143 C147 1.376 . S
C144 C142 1.394 . S
C144 C145 1.369 1_655 S
C144 C148 1.531 . S
C145 C144 1.369 1_455 S
C145 C146 1.410 . S
C145 C153 1.503 . S
C146 C145 1.410 . S
C146 C147 1.392 . S
C146 C149 1.511 . S
C147 C143 1.376 . S
C147 C146 1.392 . S
C147 H159 0.929 . S
C148 C144 1.531 . S
C148 H160 0.960 . S
C148 H161 0.962 . S
C148 H162 0.960 . S
C149 C146 1.511 . S
C149 H163 0.961 . S
C149 H164 0.961 . S
C149 H165 0.961 . S
C150 C151 1.370 . S
C150 C152 1.363 . S
C150 H166 0.931 . S
C151 C150 1.370 . S
C151 C155 1.408 1_455 S
C152 C150 1.363 . S
C152 C153 1.370 . S
C152 C156 1.524 . S
C153 C145 1.503 . S
C153 C152 1.370 . S
C153 C154 1.403 1_455 S
C154 C153 1.403 1_655 S
C154 C155 1.404 . S
C154 C157 1.539 . S
C155 C151 1.408 1_655 S
C155 C154 1.404 . S
C155 H167 0.930 . S
C156 C152 1.524 . S
C156 H168 0.956 . S
C156 H169 0.961 . S
C156 H170 0.961 . S
C157 C154 1.539 . S
C157 H171 0.958 . S
C157 H172 0.961 . S
C157 H173 0.960 . S
H158 C142 0.931 . S
H159 C147 0.929 . S
H160 C148 0.960 . S
H161 C148 0.962 . S
H162 C148 0.960 . S
H163 C149 0.961 . S
H164 C149 0.961 . S
H165 C149 0.961 . S
H166 C150 0.931 . S
H167 C155 0.930 . S
H168 C156 0.956 . S
H169 C156 0.961 . S
H170 C156 0.961 . S
H171 C157 0.958 . S
H172 C157 0.961 . S
H173 C157 0.960 . S
C174 C175 1.398 . S
C174 C176 1.394 . S
C174 H190 0.923 1_545 S
C175 C174 1.398 . S
C175 C179 1.376 . S
C176 C174 1.394 . S
C176 C177 1.369 . S
C176 C180 1.531 1_545 S
C177 C176 1.369 . S
C177 C178 1.410 . S
C177 C185 1.503 . S
C178 C177 1.410 . S
C178 C179 1.392 . S
C178 C181 1.511 . S
C179 C175 1.376 . S
C179 C178 1.392 . S
C179 H191 0.929 . S
C180 C176 1.531 1_565 S
C180 H192 0.960 . S
C180 H193 0.962 . S
C180 H194 0.960 . S
C181 C178 1.511 . S
C181 H195 0.961 . S
C181 H196 0.961 . S
C181 H197 0.961 . S
C182 C183 1.370 1_565 S
C182 C184 1.363 . S
C182 H198 0.931 . S
C183 C182 1.370 1_545 S
C183 C187 1.408 . S
C184 C182 1.363 . S
C184 C185 1.370 1_565 S
C184 C188 1.524 . S
C185 C177 1.503 . S
C185 C184 1.370 1_545 S
C185 C186 1.403 . S
C186 C185 1.403 . S
C186 C187 1.404 . S
C186 C189 1.539 . S
C187 C183 1.408 . S
C187 C186 1.404 . S
C187 H199 0.930 . S
C188 C184 1.524 . S
C188 H200 0.956 . S
C188 H201 0.961 . S
C188 H202 0.961 . S
C189 C186 1.539 . S
C189 H203 0.958 . S
C189 H204 0.961 . S
C189 H205 0.960 . S
H190 C174 0.923 1_565 S
H191 C179 0.929 . S
H192 C180 0.960 . S
H193 C180 0.962 . S
H194 C180 0.960 . S
H195 C181 0.961 . S
H196 C181 0.961 . S
H197 C181 0.961 . S
H198 C182 0.931 . S
H199 C187 0.930 . S
H200 C188 0.956 . S
H201 C188 0.961 . S
H202 C188 0.961 . S
H203 C189 0.958 . S
H204 C189 0.961 . S
H205 C189 0.960 . S
C206 C207 1.391 1_565 S
C206 C208 1.394 . S
C206 H222 0.931 . S
C207 C206 1.391 1_545 S
C207 C211 1.376 . S
C208 C206 1.394 . S
C208 C209 1.369 1_565 S
C208 C212 1.531 . S
C209 C208 1.369 1_545 S
C209 C210 1.410 . S
C209 C217 1.503 . S
C210 C209 1.410 . S
C210 C211 1.392 . S
C210 C213 1.511 . S
C211 C207 1.376 . S
C211 C210 1.392 . S
C211 H223 0.929 . S
C212 C208 1.531 . S
C212 H224 0.960 . S
C212 H225 0.962 . S
C212 H226 0.960 . S
C213 C210 1.511 . S
C213 H227 0.961 . S
C213 H228 0.961 . S
C213 H229 0.961 . S
C214 C215 1.370 . S
C214 C216 1.363 . S
C214 H230 0.931 . S
C215 C214 1.370 . S
C215 C219 1.408 1_545 S
C216 C214 1.363 . S
C216 C217 1.370 . S
C216 C220 1.524 . S
C217 C209 1.503 . S
C217 C216 1.370 . S
C217 C218 1.403 1_545 S
C218 C217 1.403 1_565 S
C218 C219 1.404 . S
C218 C221 1.539 . S
C219 C215 1.408 1_565 S
C219 C218 1.404 . S
C219 H231 0.930 . S
C220 C216 1.524 . S
C220 H232 0.956 . S
C220 H233 0.961 . S
C220 H234 0.961 . S
C221 C218 1.539 . S
C221 H235 0.958 . S
C221 H236 0.961 . S
C221 H237 0.960 . S
H222 C206 0.931 . S
H223 C211 0.929 . S
H224 C212 0.960 . S
H225 C212 0.962 . S
H226 C212 0.960 . S
H227 C213 0.961 . S
H228 C213 0.961 . S
H229 C213 0.961 . S
H230 C214 0.931 . S
H231 C219 0.930 . S
H232 C220 0.956 . S
H233 C220 0.961 . S
H234 C220 0.961 . S
H235 C221 0.958 . S
H236 C221 0.961 . S
H237 C221 0.960 . S
C238 C239 1.391 . S
C238 C240 1.394 . S
C238 H254 0.931 . S
C239 C238 1.391 . S
C239 C243 1.376 1_455 S
C240 C238 1.394 . S
C240 C241 1.369 . S
C240 C244 1.531 . S
C241 C240 1.369 . S
C241 C242 1.410 1_455 S
C241 C249 1.503 . S
C242 C241 1.410 1_655 S
C242 C243 1.392 . S
C242 C245 1.511 . S
C243 C239 1.376 1_655 S
C243 C242 1.392 . S
C243 H255 0.929 . S
C244 C240 1.531 . S
C244 H256 0.960 . S
C244 H257 0.962 . S
C244 H258 0.960 . S
C245 C242 1.511 . S
C245 H259 0.961 . S
C245 H260 0.961 . S
C245 H261 0.961 . S
C246 C247 1.370 . S
C246 C248 1.363 . S
C246 H262 0.931 . S
C247 C246 1.370 . S
C247 C251 1.408 1_455 S
C248 C246 1.363 . S
C248 C249 1.370 . S
C248 C252 1.524 . S
C249 C241 1.503 . S
C249 C248 1.370 . S
C249 C250 1.403 1_455 S
C250 C249 1.403 1_655 S
C250 C251 1.404 . S
C250 C253 1.539 . S
C251 C247 1.408 1_655 S
C251 C250 1.404 . S
C251 H263 0.930 . S
C252 C248 1.524 . S
C252 H264 0.956 . S
C252 H265 0.961 . S
C252 H266 0.961 . S
C253 C250 1.539 . S
C253 H267 0.958 . S
C253 H268 0.961 . S
C253 H269 0.960 . S
H254 C238 0.931 . S
H255 C243 0.929 . S
H256 C244 0.960 . S
H257 C244 0.962 . S
H258 C244 0.960 . S
H259 C245 0.961 . S
H260 C245 0.961 . S
H261 C245 0.961 . S
H262 C246 0.931 . S
H263 C251 0.930 . S
H264 C252 0.956 . S
H265 C252 0.961 . S
H266 C252 0.961 . S
H267 C253 0.958 . S
H268 C253 0.961 . S
H269 C253 0.960 . S
C270 C271 1.391 1_565 S
C270 C272 1.394 . S
C270 H286 0.931 . S
C271 C270 1.391 1_545 S
C271 C275 1.376 . S
C272 C270 1.394 . S
C272 C273 1.369 1_565 S
C272 C276 1.531 . S
C273 C272 1.369 1_545 S
C273 C274 1.410 . S
C273 C281 1.503 . S
C274 C273 1.410 . S
C274 C275 1.392 . S
C274 C277 1.511 . S
C275 C271 1.376 . S
C275 C274 1.392 . S
C275 H287 0.929 . S
C276 C272 1.531 . S
C276 H288 0.960 . S
C276 H289 0.962 . S
C276 H290 0.960 . S
C277 C274 1.511 . S
C277 H291 0.961 . S
C277 H292 0.961 . S
C277 H293 0.961 . S
C278 C279 1.370 . S
C278 C280 1.363 . S
C278 H294 0.931 . S
C279 C278 1.370 . S
C279 C283 1.408 1_545 S
C280 C278 1.363 . S
C280 C281 1.370 . S
C280 C284 1.524 . S
C281 C273 1.503 . S
C281 C280 1.370 . S
C281 C282 1.403 1_545 S
C282 C281 1.403 1_565 S
C282 C283 1.404 . S
C282 C285 1.539 . S
C283 C279 1.408 1_565 S
C283 C282 1.404 . S
C283 H295 0.930 . S
C284 C280 1.524 . S
C284 H296 0.956 . S
C284 H297 0.961 . S
C284 H298 0.961 . S
C285 C282 1.539 . S
C285 H299 0.958 . S
C285 H300 0.961 . S
C285 H301 0.960 . S
H286 C270 0.931 . S
H287 C275 0.929 . S
H288 C276 0.960 . S
H289 C276 0.962 . S
H290 C276 0.960 . S
H291 C277 0.961 . S
H292 C277 0.961 . S
H293 C277 0.961 . S
H294 C278 0.931 . S
H295 C283 0.930 . S
H296 C284 0.956 . S
H297 C284 0.961 . S
H298 C284 0.961 . S
H299 C285 0.958 . S
H300 C285 0.961 . S
H301 C285 0.960 . S
C302 C303 1.391 . S
C302 C304 1.394 . S
C302 H318 0.931 . S
C303 C302 1.391 . S
C303 C307 1.376 1_455 S
C304 C302 1.394 . S
C304 C305 1.369 . S
C304 C308 1.531 . S
C305 C304 1.369 . S
C305 C306 1.410 1_455 S
C305 C313 1.503 . S
C306 C305 1.410 1_655 S
C306 C307 1.392 . S
C306 C309 1.511 . S
C307 C303 1.376 1_655 S
C307 C306 1.392 . S
C307 H319 0.929 . S
C308 C304 1.531 . S
C308 H320 0.960 . S
C308 H321 0.962 . S
C308 H322 0.960 . S
C309 C306 1.511 . S
C309 H323 0.961 . S
C309 H324 0.961 . S
C309 H325 0.961 . S
C310 C311 1.370 . S
C310 C312 1.363 . S
C310 H326 0.931 . S
C311 C310 1.370 . S
C311 C315 1.408 . S
C312 C310 1.363 . S
C312 C313 1.370 . S
C312 C316 1.524 . S
C313 C305 1.503 . S
C313 C312 1.370 . S
C313 C314 1.403 . S
C314 C313 1.403 . S
C314 C315 1.404 . S
C314 C317 1.539 1_455 S
C315 C311 1.408 . S
C315 C314 1.404 . S
C315 H327 0.930 1_455 S
C316 C312 1.524 . S
C316 H328 0.956 . S
C316 H329 0.961 . S
C316 H330 0.961 . S
C317 C314 1.539 1_655 S
C317 H331 0.958 1_655 S
C317 H332 0.961 . S
C317 H333 0.960 . S
H318 C302 0.931 . S
H319 C307 0.929 . S
H320 C308 0.960 . S
H321 C308 0.962 . S
H322 C308 0.960 . S
H323 C309 0.961 . S
H324 C309 0.961 . S
H325 C309 0.961 . S
H326 C310 0.931 . S
H327 C315 0.930 1_655 S
H328 C316 0.956 . S
H329 C316 0.961 . S
H330 C316 0.961 . S
H331 C317 0.958 1_455 S
H332 C317 0.961 . S
H333 C317 0.960 . S
C334 C335 1.391 . S
C334 C336 1.394 . S
C334 H350 0.931 . S
C335 C334 1.391 . S
C335 C339 1.384 . S
C336 C334 1.394 . S
C336 C337 1.369 . S
C336 C340 1.531 . S
C337 C336 1.369 . S
C337 C338 1.410 . S
C337 C345 1.503 . S
C338 C337 1.410 . S
C338 C339 1.394 . S
C338 C341 1.511 1_554 S
C339 C335 1.384 . S
C339 C338 1.394 . S
C339 H351 0.920 1_554 S
C340 C336 1.531 . S
C340 H352 0.960 . S
C340 H353 0.962 . S
C340 H354 0.960 . S
C341 C338 1.511 1_556 S
C341 H355 0.961 . S
C341 H356 0.961 . S
C341 H357 0.961 1_556 S
C342 C343 1.370 1_556 S
C342 C344 1.363 . S
C342 H358 0.931 . S
C343 C342 1.370 1_554 S
C343 C347 1.408 . S
C344 C342 1.363 . S
C344 C345 1.370 1_556 S
C344 C348 1.524 . S
C345 C337 1.503 . S
C345 C344 1.370 1_554 S
C345 C346 1.403 . S
C346 C345 1.403 . S
C346 C347 1.404 . S
C346 C349 1.539 . S
C347 C343 1.408 . S
C347 C346 1.404 . S
C347 H359 0.930 . S
C348 C344 1.524 . S
C348 H360 0.956 . S
C348 H361 0.961 . S
C348 H362 0.961 . S
C349 C346 1.539 . S
C349 H363 0.958 . S
C349 H364 0.961 . S
C349 H365 0.960 . S
H350 C334 0.931 . S
H351 C339 0.920 1_556 S
H352 C340 0.960 . S
H353 C340 0.962 . S
H354 C340 0.960 . S
H355 C341 0.961 . S
H356 C341 0.961 . S
H357 C341 0.961 1_554 S
H358 C342 0.931 . S
H359 C347 0.930 . S
H360 C348 0.956 . S
H361 C348 0.961 . S
H362 C348 0.961 . S
H363 C349 0.958 . S
H364 C349 0.961 . S
H365 C349 0.960 . S
C366 C367 1.391 . S
C366 C368 1.394 . S
C366 H382 0.931 . S
C367 C366 1.391 . S
C367 C371 1.376 1_554 S
C368 C366 1.394 . S
C368 C369 1.369 . S
C368 C372 1.531 . S
C369 C368 1.369 . S
C369 C370 1.410 1_554 S
C369 C377 1.503 . S
C370 C369 1.410 1_556 S
C370 C371 1.392 . S
C370 C373 1.511 . S
C371 C367 1.376 1_556 S
C371 C370 1.392 . S
C371 H383 0.929 . S
C372 C368 1.531 . S
C372 H384 0.960 . S
C372 H385 0.962 . S
C372 H386 0.960 . S
C373 C370 1.511 . S
C373 H387 0.961 . S
C373 H388 0.961 . S
C373 H389 0.961 . S
C374 C375 1.370 1_556 S
C374 C376 1.363 . S
C374 H390 0.931 . S
C375 C374 1.370 1_554 S
C375 C379 1.408 . S
C376 C374 1.363 . S
C376 C377 1.370 1_556 S
C376 C380 1.524 . S
C377 C369 1.503 . S
C377 C376 1.370 1_554 S
C377 C378 1.403 . S
C378 C377 1.403 . S
C378 C379 1.404 . S
C378 C381 1.539 . S
C379 C375 1.408 . S
C379 C378 1.404 . S
C379 H391 0.930 . S
C380 C376 1.524 . S
C380 H392 0.956 . S
C380 H393 0.961 . S
C380 H394 0.961 . S
C381 C378 1.539 . S
C381 H395 0.958 . S
C381 H396 0.961 . S
C381 H397 0.960 . S
H382 C366 0.931 . S
H383 C371 0.929 . S
H384 C372 0.960 . S
H385 C372 0.962 . S
H386 C372 0.960 . S
H387 C373 0.961 . S
H388 C373 0.961 . S
H389 C373 0.961 . S
H390 C374 0.931 . S
H391 C379 0.930 . S
H392 C380 0.956 . S
H393 C380 0.961 . S
H394 C380 0.961 . S
H395 C381 0.958 . S
H396 C381 0.961 . S
H397 C381 0.960 . S
C398 C399 1.391 . S
C398 C400 1.394 . S
C398 H414 0.931 . S
C399 C398 1.391 . S
C399 C403 1.386 . S
C400 C398 1.394 . S
C400 C401 1.369 . S
C400 C404 1.531 . S
C401 C400 1.369 . S
C401 C402 1.410 . S
C401 C409 1.503 . S
C402 C401 1.410 . S
C402 C403 1.395 . S
C402 C405 1.511 1_554 S
C403 C399 1.386 . S
C403 C402 1.395 . S
C403 H415 0.916 1_554 S
C404 C400 1.531 . S
C404 H416 0.960 . S
C404 H417 0.962 . S
C404 H418 0.960 . S
C405 C402 1.511 1_556 S
C405 H419 0.961 . S
C405 H420 0.961 . S
C405 H421 0.961 1_556 S
C406 C407 1.370 1_556 S
C406 C408 1.363 . S
C406 H422 0.931 . S
C407 C406 1.370 1_554 S
C407 C411 1.408 . S
C408 C406 1.363 . S
C408 C409 1.370 1_556 S
C408 C412 1.524 . S
C409 C401 1.503 . S
C409 C408 1.370 1_554 S
C409 C410 1.403 . S
C410 C409 1.403 . S
C410 C411 1.404 . S
C410 C413 1.539 . S
C411 C407 1.408 . S
C411 C410 1.404 . S
C411 H423 0.930 . S
C412 C408 1.524 . S
C412 H424 0.956 . S
C412 H425 0.961 . S
C412 H426 0.961 . S
C413 C410 1.539 . S
C413 H427 0.958 . S
C413 H428 0.961 . S
C413 H429 0.960 . S
H414 C398 0.931 . S
H415 C403 0.916 1_556 S
H416 C404 0.960 . S
H417 C404 0.962 . S
H418 C404 0.960 . S
H419 C405 0.961 . S
H420 C405 0.961 . S
H421 C405 0.961 1_554 S
H422 C406 0.931 . S
H423 C411 0.930 . S
H424 C412 0.956 . S
H425 C412 0.961 . S
H426 C412 0.961 . S
H427 C413 0.958 . S
H428 C413 0.961 . S
H429 C413 0.960 . S
C430 C431 1.391 . S
C430 C432 1.394 . S
C430 H446 0.931 . S
C431 C430 1.391 . S
C431 C435 1.376 1_554 S
C432 C430 1.394 . S
C432 C433 1.369 . S
C432 C436 1.531 . S
C433 C432 1.369 . S
C433 C434 1.410 1_554 S
C433 C441 1.503 . S
C434 C433 1.410 1_556 S
C434 C435 1.392 . S
C434 C437 1.511 . S
C435 C431 1.376 1_556 S
C435 C434 1.392 . S
C435 H447 0.929 . S
C436 C432 1.531 . S
C436 H448 0.960 . S
C436 H449 0.962 . S
C436 H450 0.960 . S
C437 C434 1.511 . S
C437 H451 0.961 . S
C437 H452 0.961 . S
C437 H453 0.961 . S
C438 C439 1.370 . S
C438 C440 1.363 . S
C438 H454 0.931 . S
C439 C438 1.370 . S
C439 C443 1.408 1_554 S
C440 C438 1.363 . S
C440 C441 1.370 . S
C440 C444 1.524 . S
C441 C433 1.503 . S
C441 C440 1.370 . S
C441 C442 1.403 1_554 S
C442 C441 1.403 1_556 S
C442 C443 1.404 . S
C442 C445 1.539 . S
C443 C439 1.408 1_556 S
C443 C442 1.404 . S
C443 H455 0.930 . S
C444 C440 1.524 . S
C444 H456 0.956 . S
C444 H457 0.961 . S
C444 H458 0.961 . S
C445 C442 1.539 . S
C445 H459 0.958 . S
C445 H460 0.961 . S
C445 H461 0.960 . S
H446 C430 0.931 . S
H447 C435 0.929 . S
H448 C436 0.960 . S
H449 C436 0.962 . S
H450 C436 0.960 . S
H451 C437 0.961 . S
H452 C437 0.961 . S
H453 C437 0.961 . S
H454 C438 0.931 . S
H455 C443 0.930 . S
H456 C444 0.956 . S
H457 C444 0.961 . S
H458 C444 0.961 . S
H459 C445 0.958 . S
H460 C445 0.961 . S
H461 C445 0.960 . S
C79 C1 1.494 . S
C87 C55 1.488 . S
C111 C5 1.485 . S
C119 C66 1.497 . S
C143 C53 1.492 . S
C151 C3 1.493 . S
C175 C68 1.497 . S
C183 C10 1.492 . S
C207 C70 1.472 . S
C215 C23 1.499 . S
C239 C36 1.500 . S
C247 C57 1.497 . S
C271 C75 1.477 . S
C279 C18 1.487 . S
C303 C62 1.488 . S
C311 C31 1.493 . S
C335 C27 1.478 . S
C343 C44 1.492 . S
C367 C42 1.493 . S
C375 C14 1.497 . S
C399 C29 1.493 . S
C407 C49 1.494 . S
C431 C40 1.475 . S
C439 C16 1.490 . S
