# Generated by pormake.
# Topology fcq, (5)-cn, num edge types: 1
# Building blocks:
#     Node 0, Type 0, BuildingBlock: BEQFEK_clean_sbu_0, # of connection points: 5
#     Node 1, Type 0, BuildingBlock: BEQFEK_clean_sbu_0, # of connection points: 5
#     Node 2, Type 0, BuildingBlock: BEQFEK_clean_sbu_0, # of connection points: 5
#     Node 3, Type 0, BuildingBlock: BEQFEK_clean_sbu_0, # of connection points: 5
#     Node 4, Type 0, BuildingBlock: BEQFEK_clean_sbu_0, # of connection points: 5
#     Node 5, Type 0, BuildingBlock: BEQFEK_clean_sbu_0, # of connection points: 5
#     Node 6, Type 0, BuildingBlock: BEQFEK_clean_sbu_0, # of connection points: 5
#     Node 7, Type 0, BuildingBlock: BEQFEK_clean_sbu_0, # of connection points: 5
#     Node 8, Type 0, BuildingBlock: BEQFEK_clean_sbu_0, # of connection points: 5
#     Node 9, Type 0, BuildingBlock: BEQFEK_clean_sbu_0, # of connection points: 5
#     Node 10, Type 0, BuildingBlock: BEQFEK_clean_sbu_0, # of connection points: 5
#     Node 11, Type 0, BuildingBlock: BEQFEK_clean_sbu_0, # of connection points: 5
#     Node 12, Type 0, BuildingBlock: BEQFEK_clean_sbu_0, # of connection points: 5
#     Node 13, Type 0, BuildingBlock: BEQFEK_clean_sbu_0, # of connection points: 5
#     Node 14, Type 0, BuildingBlock: BEQFEK_clean_sbu_0, # of connection points: 5
#     Node 15, Type 0, BuildingBlock: BEQFEK_clean_sbu_0, # of connection points: 5
#     Node 16, Type 0, BuildingBlock: BEQFEK_clean_sbu_0, # of connection points: 5
#     Node 17, Type 0, BuildingBlock: BEQFEK_clean_sbu_0, # of connection points: 5
#     Node 18, Type 0, BuildingBlock: BEQFEK_clean_sbu_0, # of connection points: 5
#     Node 19, Type 0, BuildingBlock: BEQFEK_clean_sbu_0, # of connection points: 5
#     Node 20, Type 0, BuildingBlock: BEQFEK_clean_sbu_0, # of connection points: 5
#     Node 21, Type 0, BuildingBlock: BEQFEK_clean_sbu_0, # of connection points: 5
#     Node 22, Type 0, BuildingBlock: BEQFEK_clean_sbu_0, # of connection points: 5
#     Node 23, Type 0, BuildingBlock: BEQFEK_clean_sbu_0, # of connection points: 5
#     Node 24, Type 0, BuildingBlock: BEQFEK_clean_sbu_0, # of connection points: 5
#     Node 25, Type 0, BuildingBlock: BEQFEK_clean_sbu_0, # of connection points: 5
#     Node 26, Type 0, BuildingBlock: BEQFEK_clean_sbu_0, # of connection points: 5
#     Node 27, Type 0, BuildingBlock: BEQFEK_clean_sbu_0, # of connection points: 5
#     Node 28, Type 0, BuildingBlock: BEQFEK_clean_sbu_0, # of connection points: 5
#     Node 29, Type 0, BuildingBlock: BEQFEK_clean_sbu_0, # of connection points: 5
#     Node 30, Type 0, BuildingBlock: BEQFEK_clean_sbu_0, # of connection points: 5
#     Node 31, Type 0, BuildingBlock: BEQFEK_clean_sbu_0, # of connection points: 5
#     Node 32, Type 0, BuildingBlock: BEQFEK_clean_sbu_0, # of connection points: 5
#     Node 33, Type 0, BuildingBlock: BEQFEK_clean_sbu_0, # of connection points: 5
#     Node 34, Type 0, BuildingBlock: BEQFEK_clean_sbu_0, # of connection points: 5
#     Node 35, Type 0, BuildingBlock: BEQFEK_clean_sbu_0, # of connection points: 5
#     Node 36, Type 0, BuildingBlock: BEQFEK_clean_sbu_0, # of connection points: 5
#     Node 37, Type 0, BuildingBlock: BEQFEK_clean_sbu_0, # of connection points: 5
#     Node 38, Type 0, BuildingBlock: BEQFEK_clean_sbu_0, # of connection points: 5
#     Node 39, Type 0, BuildingBlock: BEQFEK_clean_sbu_0, # of connection points: 5
#     Node 40, Type 0, BuildingBlock: BEQFEK_clean_sbu_0, # of connection points: 5
#     Node 41, Type 0, BuildingBlock: BEQFEK_clean_sbu_0, # of connection points: 5
#     Node 42, Type 0, BuildingBlock: BEQFEK_clean_sbu_0, # of connection points: 5
#     Node 43, Type 0, BuildingBlock: BEQFEK_clean_sbu_0, # of connection points: 5
#     Node 44, Type 0, BuildingBlock: BEQFEK_clean_sbu_0, # of connection points: 5
#     Node 45, Type 0, BuildingBlock: BEQFEK_clean_sbu_0, # of connection points: 5
#     Node 46, Type 0, BuildingBlock: BEQFEK_clean_sbu_0, # of connection points: 5
#     Node 47, Type 0, BuildingBlock: BEQFEK_clean_sbu_0, # of connection points: 5
#     Edge 48, Type (0, 0), BuildingBlock: CIFDUS_clean_linker_0, # of connection points: 2
#     Edge 49, Type (0, 0), BuildingBlock: CIFDUS_clean_linker_0, # of connection points: 2
#     Edge 50, Type (0, 0), BuildingBlock: CIFDUS_clean_linker_0, # of connection points: 2
#     Edge 51, Type (0, 0), BuildingBlock: CIFDUS_clean_linker_0, # of connection points: 2
#     Edge 52, Type (0, 0), BuildingBlock: CIFDUS_clean_linker_0, # of connection points: 2
#     Edge 53, Type (0, 0), BuildingBlock: CIFDUS_clean_linker_0, # of connection points: 2
#     Edge 54, Type (0, 0), BuildingBlock: CIFDUS_clean_linker_0, # of connection points: 2
#     Edge 55, Type (0, 0), BuildingBlock: CIFDUS_clean_linker_0, # of connection points: 2
#     Edge 56, Type (0, 0), BuildingBlock: CIFDUS_clean_linker_0, # of connection points: 2
#     Edge 57, Type (0, 0), BuildingBlock: CIFDUS_clean_linker_0, # of connection points: 2
#     Edge 58, Type (0, 0), BuildingBlock: CIFDUS_clean_linker_0, # of connection points: 2
#     Edge 59, Type (0, 0), BuildingBlock: CIFDUS_clean_linker_0, # of connection points: 2
#     Edge 60, Type (0, 0), BuildingBlock: CIFDUS_clean_linker_0, # of connection points: 2
#     Edge 61, Type (0, 0), BuildingBlock: CIFDUS_clean_linker_0, # of connection points: 2
#     Edge 62, Type (0, 0), BuildingBlock: CIFDUS_clean_linker_0, # of connection points: 2
#     Edge 63, Type (0, 0), BuildingBlock: CIFDUS_clean_linker_0, # of connection points: 2
#     Edge 64, Type (0, 0), BuildingBlock: CIFDUS_clean_linker_0, # of connection points: 2
#     Edge 65, Type (0, 0), BuildingBlock: CIFDUS_clean_linker_0, # of connection points: 2
#     Edge 66, Type (0, 0), BuildingBlock: CIFDUS_clean_linker_0, # of connection points: 2
#     Edge 67, Type (0, 0), BuildingBlock: CIFDUS_clean_linker_0, # of connection points: 2
#     Edge 68, Type (0, 0), BuildingBlock: CIFDUS_clean_linker_0, # of connection points: 2
#     Edge 69, Type (0, 0), BuildingBlock: CIFDUS_clean_linker_0, # of connection points: 2
#     Edge 70, Type (0, 0), BuildingBlock: CIFDUS_clean_linker_0, # of connection points: 2
#     Edge 71, Type (0, 0), BuildingBlock: CIFDUS_clean_linker_0, # of connection points: 2
#     Edge 72, Type (0, 0), BuildingBlock: CIFDUS_clean_linker_0, # of connection points: 2
#     Edge 73, Type (0, 0), BuildingBlock: CIFDUS_clean_linker_0, # of connection points: 2
#     Edge 74, Type (0, 0), BuildingBlock: CIFDUS_clean_linker_0, # of connection points: 2
#     Edge 75, Type (0, 0), BuildingBlock: CIFDUS_clean_linker_0, # of connection points: 2
#     Edge 76, Type (0, 0), BuildingBlock: CIFDUS_clean_linker_0, # of connection points: 2
#     Edge 77, Type (0, 0), BuildingBlock: CIFDUS_clean_linker_0, # of connection points: 2
#     Edge 78, Type (0, 0), BuildingBlock: CIFDUS_clean_linker_0, # of connection points: 2
#     Edge 79, Type (0, 0), BuildingBlock: CIFDUS_clean_linker_0, # of connection points: 2
#     Edge 80, Type (0, 0), BuildingBlock: CIFDUS_clean_linker_0, # of connection points: 2
#     Edge 81, Type (0, 0), BuildingBlock: CIFDUS_clean_linker_0, # of connection points: 2
#     Edge 82, Type (0, 0), BuildingBlock: CIFDUS_clean_linker_0, # of connection points: 2
#     Edge 83, Type (0, 0), BuildingBlock: CIFDUS_clean_linker_0, # of connection points: 2
#     Edge 84, Type (0, 0), BuildingBlock: CIFDUS_clean_linker_0, # of connection points: 2
#     Edge 85, Type (0, 0), BuildingBlock: CIFDUS_clean_linker_0, # of connection points: 2
#     Edge 86, Type (0, 0), BuildingBlock: CIFDUS_clean_linker_0, # of connection points: 2
#     Edge 87, Type (0, 0), BuildingBlock: CIFDUS_clean_linker_0, # of connection points: 2
#     Edge 88, Type (0, 0), BuildingBlock: CIFDUS_clean_linker_0, # of connection points: 2
#     Edge 89, Type (0, 0), BuildingBlock: CIFDUS_clean_linker_0, # of connection points: 2
#     Edge 90, Type (0, 0), BuildingBlock: CIFDUS_clean_linker_0, # of connection points: 2
#     Edge 91, Type (0, 0), BuildingBlock: CIFDUS_clean_linker_0, # of connection points: 2
#     Edge 92, Type (0, 0), BuildingBlock: CIFDUS_clean_linker_0, # of connection points: 2
#     Edge 93, Type (0, 0), BuildingBlock: CIFDUS_clean_linker_0, # of connection points: 2
#     Edge 94, Type (0, 0), BuildingBlock: CIFDUS_clean_linker_0, # of connection points: 2
#     Edge 95, Type (0, 0), BuildingBlock: CIFDUS_clean_linker_0, # of connection points: 2
#     Edge 96, Type (0, 0), BuildingBlock: CIFDUS_clean_linker_0, # of connection points: 2
#     Edge 97, Type (0, 0), BuildingBlock: CIFDUS_clean_linker_0, # of connection points: 2
#     Edge 98, Type (0, 0), BuildingBlock: CIFDUS_clean_linker_0, # of connection points: 2
#     Edge 99, Type (0, 0), BuildingBlock: CIFDUS_clean_linker_0, # of connection points: 2
#     Edge 100, Type (0, 0), BuildingBlock: CIFDUS_clean_linker_0, # of connection points: 2
#     Edge 101, Type (0, 0), BuildingBlock: CIFDUS_clean_linker_0, # of connection points: 2
#     Edge 102, Type (0, 0), BuildingBlock: CIFDUS_clean_linker_0, # of connection points: 2
#     Edge 103, Type (0, 0), BuildingBlock: CIFDUS_clean_linker_0, # of connection points: 2
#     Edge 104, Type (0, 0), BuildingBlock: CIFDUS_clean_linker_0, # of connection points: 2
#     Edge 105, Type (0, 0), BuildingBlock: CIFDUS_clean_linker_0, # of connection points: 2
#     Edge 106, Type (0, 0), BuildingBlock: CIFDUS_clean_linker_0, # of connection points: 2
#     Edge 107, Type (0, 0), BuildingBlock: CIFDUS_clean_linker_0, # of connection points: 2
#     Edge 108, Type (0, 0), BuildingBlock: CIFDUS_clean_linker_0, # of connection points: 2
#     Edge 109, Type (0, 0), BuildingBlock: CIFDUS_clean_linker_0, # of connection points: 2
#     Edge 110, Type (0, 0), BuildingBlock: CIFDUS_clean_linker_0, # of connection points: 2
#     Edge 111, Type (0, 0), BuildingBlock: CIFDUS_clean_linker_0, # of connection points: 2
#     Edge 112, Type (0, 0), BuildingBlock: CIFDUS_clean_linker_0, # of connection points: 2
#     Edge 113, Type (0, 0), BuildingBlock: CIFDUS_clean_linker_0, # of connection points: 2
#     Edge 114, Type (0, 0), BuildingBlock: CIFDUS_clean_linker_0, # of connection points: 2
#     Edge 115, Type (0, 0), BuildingBlock: CIFDUS_clean_linker_0, # of connection points: 2
#     Edge 116, Type (0, 0), BuildingBlock: CIFDUS_clean_linker_0, # of connection points: 2
#     Edge 117, Type (0, 0), BuildingBlock: CIFDUS_clean_linker_0, # of connection points: 2
#     Edge 118, Type (0, 0), BuildingBlock: CIFDUS_clean_linker_0, # of connection points: 2
#     Edge 119, Type (0, 0), BuildingBlock: CIFDUS_clean_linker_0, # of connection points: 2
#     Edge 120, Type (0, 0), BuildingBlock: CIFDUS_clean_linker_0, # of connection points: 2
#     Edge 121, Type (0, 0), BuildingBlock: CIFDUS_clean_linker_0, # of connection points: 2
#     Edge 122, Type (0, 0), BuildingBlock: CIFDUS_clean_linker_0, # of connection points: 2
#     Edge 123, Type (0, 0), BuildingBlock: CIFDUS_clean_linker_0, # of connection points: 2
#     Edge 124, Type (0, 0), BuildingBlock: CIFDUS_clean_linker_0, # of connection points: 2
#     Edge 125, Type (0, 0), BuildingBlock: CIFDUS_clean_linker_0, # of connection points: 2
#     Edge 126, Type (0, 0), BuildingBlock: CIFDUS_clean_linker_0, # of connection points: 2
#     Edge 127, Type (0, 0), BuildingBlock: CIFDUS_clean_linker_0, # of connection points: 2
#     Edge 128, Type (0, 0), BuildingBlock: CIFDUS_clean_linker_0, # of connection points: 2
#     Edge 129, Type (0, 0), BuildingBlock: CIFDUS_clean_linker_0, # of connection points: 2
#     Edge 130, Type (0, 0), BuildingBlock: CIFDUS_clean_linker_0, # of connection points: 2
#     Edge 131, Type (0, 0), BuildingBlock: CIFDUS_clean_linker_0, # of connection points: 2
#     Edge 132, Type (0, 0), BuildingBlock: CIFDUS_clean_linker_0, # of connection points: 2
#     Edge 133, Type (0, 0), BuildingBlock: CIFDUS_clean_linker_0, # of connection points: 2
#     Edge 134, Type (0, 0), BuildingBlock: CIFDUS_clean_linker_0, # of connection points: 2
#     Edge 135, Type (0, 0), BuildingBlock: CIFDUS_clean_linker_0, # of connection points: 2
#     Edge 136, Type (0, 0), BuildingBlock: CIFDUS_clean_linker_0, # of connection points: 2
#     Edge 137, Type (0, 0), BuildingBlock: CIFDUS_clean_linker_0, # of connection points: 2
#     Edge 138, Type (0, 0), BuildingBlock: CIFDUS_clean_linker_0, # of connection points: 2
#     Edge 139, Type (0, 0), BuildingBlock: CIFDUS_clean_linker_0, # of connection points: 2
#     Edge 140, Type (0, 0), BuildingBlock: CIFDUS_clean_linker_0, # of connection points: 2
#     Edge 141, Type (0, 0), BuildingBlock: CIFDUS_clean_linker_0, # of connection points: 2
#     Edge 142, Type (0, 0), BuildingBlock: CIFDUS_clean_linker_0, # of connection points: 2
#     Edge 143, Type (0, 0), BuildingBlock: CIFDUS_clean_linker_0, # of connection points: 2
#     Edge 144, Type (0, 0), BuildingBlock: CIFDUS_clean_linker_0, # of connection points: 2
#     Edge 145, Type (0, 0), BuildingBlock: CIFDUS_clean_linker_0, # of connection points: 2
#     Edge 146, Type (0, 0), BuildingBlock: CIFDUS_clean_linker_0, # of connection points: 2
#     Edge 147, Type (0, 0), BuildingBlock: CIFDUS_clean_linker_0, # of connection points: 2
#     Edge 148, Type (0, 0), BuildingBlock: CIFDUS_clean_linker_0, # of connection points: 2
#     Edge 149, Type (0, 0), BuildingBlock: CIFDUS_clean_linker_0, # of connection points: 2
#     Edge 150, Type (0, 0), BuildingBlock: CIFDUS_clean_linker_0, # of connection points: 2
#     Edge 151, Type (0, 0), BuildingBlock: CIFDUS_clean_linker_0, # of connection points: 2
#     Edge 152, Type (0, 0), BuildingBlock: CIFDUS_clean_linker_0, # of connection points: 2
#     Edge 153, Type (0, 0), BuildingBlock: CIFDUS_clean_linker_0, # of connection points: 2
#     Edge 154, Type (0, 0), BuildingBlock: CIFDUS_clean_linker_0, # of connection points: 2
#     Edge 155, Type (0, 0), BuildingBlock: CIFDUS_clean_linker_0, # of connection points: 2
#     Edge 156, Type (0, 0), BuildingBlock: CIFDUS_clean_linker_0, # of connection points: 2
#     Edge 157, Type (0, 0), BuildingBlock: CIFDUS_clean_linker_0, # of connection points: 2
#     Edge 158, Type (0, 0), BuildingBlock: CIFDUS_clean_linker_0, # of connection points: 2
#     Edge 159, Type (0, 0), BuildingBlock: CIFDUS_clean_linker_0, # of connection points: 2
#     Edge 160, Type (0, 0), BuildingBlock: CIFDUS_clean_linker_0, # of connection points: 2
#     Edge 161, Type (0, 0), BuildingBlock: CIFDUS_clean_linker_0, # of connection points: 2
#     Edge 162, Type (0, 0), BuildingBlock: CIFDUS_clean_linker_0, # of connection points: 2
#     Edge 163, Type (0, 0), BuildingBlock: CIFDUS_clean_linker_0, # of connection points: 2
#     Edge 164, Type (0, 0), BuildingBlock: CIFDUS_clean_linker_0, # of connection points: 2
#     Edge 165, Type (0, 0), BuildingBlock: CIFDUS_clean_linker_0, # of connection points: 2
#     Edge 166, Type (0, 0), BuildingBlock: CIFDUS_clean_linker_0, # of connection points: 2
#     Edge 167, Type (0, 0), BuildingBlock: CIFDUS_clean_linker_0, # of connection points: 2
# Relax obj value: 0.403
# Max RMSD: 0.241
# Mean RMSD: 0.241
data_MOF--net-fcq--node1-BEQFEK_clean_sbu_0--edge1-CIFDUS_clean_linker_0
_symmetry_space_group_name_H-M    P1
_symmetry_Int_Tables_number       1
_symmetry_cell_setting            triclinic
loop_
_symmetry_equiv_pos_as_xyz
'x, y, z'
_cell_length_a     62.139276
_cell_length_b     62.191992
_cell_length_c     62.143763
_cell_angle_alpha  89.983436
_cell_angle_beta   90.039033
_cell_angle_gamma 89.978521
loop_
_atom_site_label
_atom_site_type_symbol
_atom_site_fract_x
_atom_site_fract_y
_atom_site_fract_z
_atom_type_partial_charge
Co0 Co 0.18028 0.19431 0.4317 0.0
Co1 Co 0.14911 0.16817 0.40235 0.0
C2 C 0.14446 0.16748 0.45009 0.0
O3 O 0.16014 0.18047 0.45229 0.0
O4 O 0.13845 0.16114 0.43157 0.0
C5 C 0.19271 0.22313 0.46536 0.0
O6 O 0.1724 0.22176 0.47106 0.0
C7 C 0.1088 0.15201 0.38464 0.0
C8 C 0.11865 0.14065 0.35242 0.0
C9 C 0.10114 0.14199 0.36618 0.0
N10 N 0.12984 0.1561 0.38195 0.0
N11 N 0.13565 0.14933 0.36266 0.0
C12 C 0.09631 0.15888 0.40407 0.0
H13 H 0.10391 0.17312 0.41164 0.0
H14 H 0.07944 0.16283 0.39972 0.0
H15 H 0.0963 0.14563 0.41603 0.0
C16 C 0.16406 0.23024 0.4059 0.0
N17 N 0.16533 0.20913 0.41015 0.0
N18 N 0.15132 0.19865 0.39826 0.0
C19 C 0.14013 0.21304 0.38639 0.0
C20 C 0.14774 0.23363 0.39102 0.0
C21 C 0.17812 0.24687 0.4162 0.0
H22 H 0.19482 0.24073 0.4175 0.0
H23 H 0.17211 0.2503 0.43265 0.0
H24 H 0.1782 0.26201 0.40675 0.0
O25 O 0.19917 0.17233 0.41925 0.0
O26 O 0.17722 0.15288 0.39887 0.0
H27 H 0.12605 0.19583 0.36015 0.0
H28 H 0.11343 0.22151 0.36537 0.0
C29 C 0.12103 0.20726 0.37288 0.0
H30 H 0.10889 0.19912 0.38305 0.0
H31 H 0.15126 0.1505 0.35657 0.0
O32 O 0.19901 0.21351 0.44847 0.0
C33 C 0.1958 0.15655 0.40671 0.0
Co34 Co 0.4403 0.55492 0.822 0.0
Co35 Co 0.41879 0.59105 0.84933 0.0
C36 C 0.4071 0.5839 0.80297 0.0
O37 O 0.42104 0.56909 0.80061 0.0
O38 O 0.4044 0.59317 0.821 0.0
C39 C 0.46452 0.53625 0.78809 0.0
O40 O 0.46262 0.55545 0.77945 0.0
C41 C 0.40234 0.63394 0.85844 0.0
C42 C 0.40393 0.63571 0.89391 0.0
C43 C 0.39809 0.64724 0.87574 0.0
N44 N 0.41019 0.61527 0.86595 0.0
N45 N 0.41111 0.6164 0.88717 0.0
C46 C 0.40066 0.63952 0.83505 0.0
H47 H 0.41463 0.63281 0.8262 0.0
H48 H 0.40014 0.65718 0.83258 0.0
H49 H 0.38574 0.63233 0.82837 0.0
C50 C 0.47972 0.57752 0.83491 0.0
N51 N 0.45827 0.57492 0.83548 0.0
N52 N 0.44948 0.59087 0.84622 0.0
C53 C 0.46519 0.60463 0.85226 0.0
C54 C 0.48486 0.5966 0.84516 0.0
C55 C 0.4951 0.56157 0.82547 0.0
H56 H 0.48928 0.54498 0.8284 0.0
H57 H 0.49629 0.56425 0.80787 0.0
H58 H 0.51138 0.56328 0.83261 0.0
O59 O 0.423 0.53942 0.84324 0.0
O60 O 0.40723 0.56442 0.86329 0.0
H61 H 0.45576 0.62315 0.8796 0.0
H62 H 0.47577 0.63611 0.86295 0.0
C63 C 0.46117 0.62587 0.86282 0.0
H64 H 0.44819 0.63449 0.85413 0.0
H65 H 0.41672 0.60402 0.89704 0.0
O66 O 0.45679 0.53289 0.80666 0.0
C67 C 0.41064 0.54476 0.8586 0.0
Co68 Co 0.79721 0.30399 0.41045 0.0
Co69 Co 0.84074 0.32511 0.39857 0.0
C70 C 0.82521 0.3308 0.44162 0.0
O71 O 0.80836 0.32077 0.43557 0.0
O72 O 0.84116 0.33322 0.42905 0.0
C73 C 0.77736 0.27744 0.4397 0.0
O74 O 0.79733 0.27712 0.44668 0.0
C75 C 0.88346 0.34419 0.3917 0.0
C76 C 0.89097 0.33215 0.35907 0.0
C77 C 0.89932 0.34402 0.37598 0.0
N78 N 0.86672 0.33258 0.3845 0.0
N79 N 0.87124 0.32556 0.36496 0.0
C80 C 0.88343 0.35624 0.41254 0.0
H81 H 0.86708 0.36253 0.4159 0.0
H82 H 0.88798 0.34512 0.42575 0.0
H83 H 0.89491 0.36989 0.41218 0.0
C84 C 0.8201 0.2647 0.39855 0.0
N85 N 0.81859 0.28621 0.39942 0.0
N86 N 0.83767 0.29476 0.39665 0.0
C87 C 0.85232 0.27884 0.39523 0.0
C88 C 0.84164 0.2592 0.39636 0.0
C89 C 0.80118 0.24981 0.39949 0.0
H90 H 0.78654 0.25804 0.39341 0.0
H91 H 0.79828 0.2448 0.41634 0.0
H92 H 0.80429 0.23517 0.38977 0.0
O93 O 0.78674 0.32415 0.38912 0.0
O94 O 0.81704 0.34246 0.38469 0.0
H95 H 0.88273 0.28357 0.3799 0.0
H96 H 0.88427 0.26896 0.40487 0.0
C97 C 0.87613 0.28243 0.39645 0.0
H98 H 0.8797 0.29761 0.4051 0.0
H99 H 0.86093 0.31602 0.35576 0.0
O100 O 0.7732 0.28726 0.42227 0.0
C101 C 0.79688 0.34016 0.38152 0.0
Co102 Co 0.55692 0.93389 0.81725 0.0
Co103 Co 0.58563 0.90099 0.84223 0.0
C104 C 0.58621 0.90226 0.79456 0.0
O105 O 0.5725 0.9175 0.79471 0.0
O106 O 0.59307 0.89391 0.81199 0.0
C107 C 0.527 0.94728 0.78508 0.0
O108 O 0.52952 0.9276 0.77781 0.0
C109 C 0.60877 0.86261 0.858 0.0
C110 C 0.60443 0.86616 0.89313 0.0
C111 C 0.61269 0.8525 0.87759 0.0
N112 N 0.59811 0.88103 0.86187 0.0
N113 N 0.5959 0.88321 0.8829 0.0
C114 C 0.61625 0.8559 0.83612 0.0
H115 H 0.6221 0.87014 0.82715 0.0
H116 H 0.60255 0.84884 0.8271 0.0
H117 H 0.62958 0.84407 0.83707 0.0
C118 C 0.5224 0.9118 0.84047 0.0
N119 N 0.54335 0.91523 0.8364 0.0
N120 N 0.555 0.90033 0.84591 0.0
C121 C 0.54156 0.88629 0.85561 0.0
C122 C 0.52057 0.89334 0.85271 0.0
C123 C 0.50441 0.92456 0.83079 0.0
H124 H 0.50225 0.91962 0.81378 0.0
H125 H 0.48904 0.92183 0.83943 0.0
H126 H 0.50839 0.94193 0.83119 0.0
O127 O 0.57688 0.95277 0.8326 0.0
O128 O 0.5986 0.92968 0.84912 0.0
H129 H 0.53476 0.85433 0.8676 0.0
H130 H 0.56141 0.85806 0.8564 0.0
C131 C 0.54843 0.86568 0.86598 0.0
H132 H 0.55471 0.86917 0.88231 0.0
H133 H 0.58804 0.89611 0.89023 0.0
O134 O 0.53638 0.95279 0.80238 0.0
C135 C 0.59309 0.94884 0.84442 0.0
Co136 Co 0.18264 0.80402 0.07055 0.0
Co137 Co 0.14829 0.82681 0.09913 0.0
C138 C 0.15034 0.8329 0.05089 0.0
O139 O 0.16573 0.81963 0.04842 0.0
O140 O 0.14278 0.83697 0.06945 0.0
C141 C 0.20156 0.77793 0.03764 0.0
O142 O 0.1826 0.77957 0.0284 0.0
C143 C 0.1043 0.83807 0.10838 0.0
C144 C 0.10583 0.85155 0.14121 0.0
C145 C 0.0919 0.84776 0.12416 0.0
N146 N 0.12459 0.83651 0.11562 0.0
N147 N 0.12545 0.84448 0.1353 0.0
C148 C 0.09703 0.82937 0.08712 0.0
H149 H 0.10738 0.81567 0.08221 0.0
H150 H 0.08001 0.82403 0.08791 0.0
H151 H 0.09849 0.84213 0.07472 0.0
C152 C 0.16332 0.76547 0.09007 0.0
N153 N 0.16494 0.78691 0.088 0.0
N154 N 0.15056 0.79627 0.1004 0.0
C155 C 0.13931 0.78091 0.11086 0.0
C156 C 0.14697 0.76094 0.10446 0.0
C157 C 0.17718 0.74958 0.07845 0.0
H158 H 0.17258 0.74932 0.06121 0.0
H159 H 0.17541 0.73315 0.08518 0.0
H160 H 0.19428 0.75449 0.07966 0.0
O161 O 0.1987 0.82512 0.08803 0.0
O162 O 0.17485 0.84162 0.10894 0.0
H163 H 0.1157 0.77053 0.13427 0.0
H164 H 0.10694 0.79123 0.11595 0.0
C165 C 0.12075 0.78525 0.12555 0.0
H166 H 0.12523 0.79789 0.1373 0.0
H167 H 0.13947 0.84545 0.14451 0.0
O168 O 0.20459 0.78663 0.05586 0.0
C169 C 0.19408 0.83898 0.10236 0.0
Co170 Co 0.06188 0.55451 0.16744 0.0
Co171 Co 0.08707 0.58624 0.13787 0.0
C172 C 0.09303 0.5862 0.18572 0.0
O173 O 0.07895 0.57158 0.18838 0.0
O174 O 0.09782 0.59303 0.16705 0.0
C175 C 0.03421 0.5413 0.20146 0.0
O176 O 0.03677 0.56119 0.2081 0.0
C177 C 0.10065 0.62861 0.12388 0.0
C178 C 0.11123 0.62297 0.09042 0.0
C179 C 0.10899 0.63892 0.10589 0.0
N180 N 0.09819 0.60767 0.11921 0.0
N181 N 0.10462 0.60434 0.09924 0.0
C182 C 0.09345 0.63846 0.14466 0.0
H183 H 0.08086 0.6284 0.15232 0.0
H184 H 0.08702 0.6549 0.142 0.0
H185 H 0.10735 0.63939 0.15584 0.0
C186 C 0.02476 0.57465 0.14659 0.0
N187 N 0.04608 0.5722 0.14896 0.0
N188 N 0.05623 0.58628 0.13688 0.0
C189 C 0.04145 0.59865 0.12676 0.0
C190 C 0.02101 0.59178 0.13285 0.0
C191 C 0.00825 0.56049 0.15695 0.0
H192 H 0.0138 0.54355 0.15674 0.0
H193 H 0.00594 0.56553 0.1739 0.0
H194 H 0.99257 0.56151 0.14844 0.0
O195 O 0.08107 0.53589 0.15088 0.0
O196 O 0.09976 0.55782 0.12969 0.0
H197 H 0.05894 0.61313 0.10085 0.0
H198 H 0.03259 0.62464 0.10507 0.0
C199 C 0.04689 0.61776 0.11315 0.0
H200 H 0.05398 0.63043 0.12344 0.0
H201 H 0.10429 0.58941 0.09159 0.0
O202 O 0.04306 0.53537 0.18405 0.0
C203 C 0.09531 0.53904 0.13657 0.0
Co204 Co 0.81539 0.68158 0.07137 0.0
Co205 Co 0.84968 0.65819 0.09983 0.0
C206 C 0.84892 0.65219 0.05237 0.0
O207 O 0.83305 0.66503 0.05038 0.0
O208 O 0.85707 0.648 0.07069 0.0
C209 C 0.79974 0.70797 0.03721 0.0
O210 O 0.81924 0.70549 0.02942 0.0
C211 C 0.88848 0.63721 0.1162 0.0
C212 C 0.89018 0.64985 0.14938 0.0
C213 C 0.90146 0.63777 0.1344 0.0
N214 N 0.87091 0.64919 0.11997 0.0
N215 N 0.87173 0.65622 0.14001 0.0
C216 C 0.8915 0.62405 0.09626 0.0
H217 H 0.87572 0.61777 0.0908 0.0
H218 H 0.89828 0.63432 0.08332 0.0
H219 H 0.90235 0.61019 0.09919 0.0
C220 C 0.83502 0.71981 0.09049 0.0
N221 N 0.8328 0.69836 0.08918 0.0
N222 N 0.84855 0.68894 0.09974 0.0
C223 C 0.8621 0.7043 0.10702 0.0
C224 C 0.85369 0.72423 0.10168 0.0
C225 C 0.82096 0.73573 0.07914 0.0
H226 H 0.80389 0.73066 0.08018 0.0
H227 H 0.82573 0.73654 0.06197 0.0
H228 H 0.82262 0.75204 0.08614 0.0
O229 O 0.79812 0.66162 0.08828 0.0
O230 O 0.82207 0.64392 0.10804 0.0
H231 H 0.88183 0.69797 0.13441 0.0
H232 H 0.89475 0.71393 0.11424 0.0
C233 C 0.88372 0.70015 0.11681 0.0
H234 H 0.89099 0.68546 0.10982 0.0
H235 H 0.86006 0.66607 0.14701 0.0
O236 O 0.79497 0.69943 0.05513 0.0
C237 C 0.80276 0.64722 0.10201 0.0
Co238 Co 0.93201 0.93471 0.16841 0.0
Co239 Co 0.90826 0.90157 0.1392 0.0
C240 C 0.89903 0.90564 0.18658 0.0
O241 O 0.91377 0.91949 0.1896 0.0
O242 O 0.89501 0.89813 0.16799 0.0
C243 C 0.95684 0.95176 0.20289 0.0
O244 O 0.95326 0.93281 0.21155 0.0
C245 C 0.89232 0.85918 0.1294 0.0
C246 C 0.88817 0.85969 0.09408 0.0
C247 C 0.88579 0.84686 0.11215 0.0
N248 N 0.89815 0.87858 0.12204 0.0
N249 N 0.89561 0.87887 0.10092 0.0
C250 C 0.89458 0.85211 0.15233 0.0
H251 H 0.90885 0.85985 0.15978 0.0
H252 H 0.89627 0.83438 0.15348 0.0
H253 H 0.88004 0.85706 0.16142 0.0
C254 C 0.96991 0.91069 0.15361 0.0
N255 N 0.94874 0.91506 0.15294 0.0
N256 N 0.93898 0.90081 0.14071 0.0
C257 C 0.95381 0.88678 0.13324 0.0
C258 C 0.97378 0.89257 0.14137 0.0
C259 C 0.98608 0.92308 0.16643 0.0
H260 H 0.9831 0.94057 0.16467 0.0
H261 H 0.98451 0.9187 0.18366 0.0
H262 H 0.00274 0.91944 0.16113 0.0
O263 O 0.91321 0.95173 0.14941 0.0
O264 O 0.89655 0.92882 0.12765 0.0
H265 H 0.93939 0.87179 0.10584 0.0
H266 H 0.96358 0.85862 0.11525 0.0
C267 C 0.94874 0.86715 0.12031 0.0
H268 H 0.93876 0.85608 0.13008 0.0
H269 H 0.89908 0.8921 0.09118 0.0
O270 O 0.94983 0.9556 0.18409 0.0
C271 C 0.90001 0.94787 0.13424 0.0
Co272 Co 0.42638 0.18612 0.19122 0.0
Co273 Co 0.39862 0.14952 0.17107 0.0
C274 C 0.44561 0.14787 0.16739 0.0
O275 O 0.4468 0.16553 0.17771 0.0
O276 O 0.42759 0.13914 0.16312 0.0
C277 C 0.46111 0.20072 0.21679 0.0
O278 O 0.46602 0.18017 0.21708 0.0
C279 C 0.37934 0.11117 0.15152 0.0
C280 C 0.34674 0.11143 0.16573 0.0
C281 C 0.36023 0.09958 0.15251 0.0
N282 N 0.37735 0.12864 0.16406 0.0
N283 N 0.35773 0.12889 0.17223 0.0
C284 C 0.39858 0.10687 0.13769 0.0
H285 H 0.40567 0.12228 0.13217 0.0
H286 H 0.41089 0.09817 0.14726 0.0
H287 H 0.39422 0.0971 0.12341 0.0
C288 C 0.40698 0.17096 0.2309 0.0
N289 N 0.40774 0.1713 0.20933 0.0
N290 N 0.39799 0.15424 0.20156 0.0
C291 C 0.39178 0.14173 0.21821 0.0
C292 C 0.3973 0.15197 0.23736 0.0
C293 C 0.41593 0.18826 0.24506 0.0
H294 H 0.41455 0.20411 0.23699 0.0
H295 H 0.43315 0.185 0.24835 0.0
H296 H 0.40725 0.18876 0.26066 0.0
O297 O 0.41064 0.20186 0.16914 0.0
O298 O 0.3922 0.17576 0.15318 0.0
H299 H 0.36663 0.11848 0.21558 0.0
H300 H 0.39003 0.10896 0.22966 0.0
C301 C 0.38447 0.1189 0.2159 0.0
H302 H 0.39071 0.11184 0.20076 0.0
H303 H 0.35199 0.14079 0.18259 0.0
O304 O 0.44407 0.20681 0.20725 0.0
C305 C 0.39785 0.19541 0.15457 0.0
Co306 Co 0.43407 0.31805 0.05525 0.0
Co307 Co 0.40015 0.3481 0.07741 0.0
C308 C 0.4006 0.30021 0.08478 0.0
O309 O 0.41634 0.29729 0.07197 0.0
O310 O 0.39295 0.31891 0.08815 0.0
C311 C 0.45283 0.28321 0.03118 0.0
O312 O 0.4338 0.27419 0.03304 0.0
C313 C 0.361 0.36415 0.09807 0.0
C314 C 0.36006 0.39796 0.08723 0.0
C315 C 0.34843 0.38261 0.09845 0.0
N316 N 0.37866 0.36814 0.0863 0.0
N317 N 0.37831 0.38854 0.08037 0.0
C318 C 0.35796 0.34403 0.11094 0.0
H319 H 0.37369 0.3389 0.11759 0.0
H320 H 0.35169 0.3311 0.10037 0.0
H321 H 0.34682 0.34654 0.12464 0.0
C322 C 0.41589 0.33743 0.01613 0.0
N323 N 0.41696 0.33557 0.03766 0.0
N324 N 0.40219 0.34786 0.0466 0.0
C325 C 0.39081 0.3575 0.03077 0.0
C326 C 0.39934 0.35142 0.01109 0.0
C327 C 0.43059 0.32613 0.00078 0.0
H328 H 0.44744 0.32746 0.0065 0.0
H329 H 0.42625 0.30884 0.00022 0.0
H330 H 0.42941 0.33296 0.98433 0.0
O331 O 0.4509 0.33559 0.07536 0.0
O332 O 0.42735 0.35677 0.09181 0.0
H333 H 0.3748 0.38731 0.03666 0.0
H334 H 0.36016 0.36937 0.01949 0.0
C335 C 0.37061 0.3702 0.03396 0.0
H336 H 0.36151 0.36398 0.04796 0.0
H337 H 0.39034 0.39591 0.07126 0.0
O338 O 0.45571 0.30199 0.03863 0.0
C339 C 0.4465 0.3501 0.08905 0.0
Co340 Co 0.57032 0.31086 0.18469 0.0
Co341 Co 0.60239 0.33932 0.15886 0.0
C342 C 0.55438 0.34201 0.15259 0.0
O343 O 0.55034 0.32861 0.16746 0.0
O344 O 0.5736 0.34675 0.14762 0.0
C345 C 0.535 0.30094 0.21177 0.0
O346 O 0.53006 0.32121 0.20841 0.0
C347 C 0.61444 0.3813 0.14496 0.0
C348 C 0.64633 0.37714 0.1299 0.0
C349 C 0.63033 0.39219 0.13388 0.0
N350 N 0.6205 0.36073 0.14714 0.0
N351 N 0.63963 0.35825 0.13821 0.0
C352 C 0.59419 0.39038 0.15438 0.0
H353 H 0.58911 0.38084 0.16859 0.0
H354 H 0.59652 0.40741 0.15917 0.0
H355 H 0.58114 0.38961 0.14221 0.0
C356 C 0.59201 0.33136 0.22137 0.0
N357 N 0.58967 0.32798 0.20016 0.0
N358 N 0.6034 0.34007 0.18954 0.0
C359 C 0.61499 0.35164 0.20382 0.0
C360 C 0.6079 0.34663 0.22441 0.0
C361 C 0.5794 0.32002 0.23847 0.0
H362 H 0.563 0.32703 0.23927 0.0
H363 H 0.58715 0.32165 0.25447 0.0
H364 H 0.578 0.30271 0.23448 0.0
O365 O 0.5859 0.29088 0.16543 0.0
O366 O 0.60947 0.31054 0.147 0.0
H367 H 0.6413 0.37305 0.21184 0.0
H368 H 0.6232 0.38257 0.19138 0.0
C369 C 0.63145 0.36813 0.1978 0.0
H370 H 0.64212 0.36165 0.18506 0.0
H371 H 0.64788 0.34365 0.13744 0.0
O372 O 0.55226 0.29341 0.20383 0.0
C373 C 0.60075 0.29252 0.1514 0.0
Co374 Co 0.56048 0.16209 0.06123 0.0
Co375 Co 0.59105 0.13217 0.08773 0.0
C376 C 0.58986 0.18012 0.09436 0.0
O377 O 0.57625 0.18307 0.07933 0.0
O378 O 0.59637 0.16138 0.0994 0.0
C379 C 0.54402 0.19708 0.03594 0.0
O380 O 0.56227 0.20648 0.04098 0.0
C381 C 0.63336 0.11942 0.10235 0.0
C382 C 0.62837 0.08618 0.11384 0.0
C383 C 0.64394 0.102 0.11145 0.0
N384 N 0.6126 0.11416 0.09963 0.0
N385 N 0.60964 0.09431 0.10659 0.0
C386 C 0.64286 0.14019 0.09472 0.0
H387 H 0.63299 0.14707 0.08152 0.0
H388 H 0.65961 0.13781 0.08903 0.0
H389 H 0.64298 0.15188 0.10822 0.0
C390 C 0.58418 0.14341 0.02506 0.0
N391 N 0.57971 0.14462 0.04616 0.0
N392 N 0.59272 0.13186 0.05697 0.0
C393 C 0.60601 0.12206 0.04286 0.0
C394 C 0.60101 0.12911 0.02227 0.0
C395 C 0.57398 0.1575 0.00837 0.0
H396 H 0.5563 0.1551 0.0086 0.0
H397 H 0.57725 0.17455 0.01238 0.0
H398 H 0.58018 0.15419 0.99198 0.0
O399 O 0.5415 0.14439 0.07933 0.0
O400 O 0.56247 0.12272 0.09853 0.0
H401 H 0.61751 0.09533 0.0614 0.0
H402 H 0.62867 0.09707 0.03458 0.0
C403 C 0.62337 0.10649 0.0488 0.0
H404 H 0.63741 0.11544 0.05518 0.0
H405 H 0.59489 0.08629 0.10622 0.0
O406 O 0.54078 0.17785 0.04196 0.0
C407 C 0.54392 0.12957 0.0932 0.0
Co408 Co 0.41754 0.8123 0.30811 0.0
Co409 Co 0.38972 0.84685 0.33133 0.0
C410 C 0.43707 0.84551 0.33788 0.0
O411 O 0.43879 0.82955 0.32509 0.0
O412 O 0.41888 0.85412 0.34178 0.0
C413 C 0.45081 0.79714 0.28039 0.0
O414 O 0.45827 0.81684 0.28204 0.0
C415 C 0.37232 0.88515 0.35254 0.0
C416 C 0.33867 0.88518 0.34097 0.0
C417 C 0.35335 0.89694 0.35293 0.0
N418 N 0.36917 0.86764 0.34034 0.0
N419 N 0.34893 0.86753 0.33379 0.0
C420 C 0.39261 0.88935 0.36484 0.0
H421 H 0.39883 0.87402 0.37149 0.0
H422 H 0.40492 0.8961 0.35381 0.0
H423 H 0.38989 0.90065 0.37838 0.0
C424 C 0.39846 0.83207 0.2697 0.0
N425 N 0.40009 0.83002 0.29117 0.0
N426 N 0.38977 0.84586 0.30059 0.0
C427 C 0.38221 0.85928 0.28525 0.0
C428 C 0.38738 0.85089 0.26515 0.0
C429 C 0.40688 0.81597 0.25389 0.0
H430 H 0.40568 0.79952 0.26066 0.0
H431 H 0.42402 0.81951 0.25041 0.0
H432 H 0.3977 0.81664 0.23858 0.0
O433 O 0.40041 0.79479 0.32782 0.0
O434 O 0.38145 0.81923 0.34557 0.0
H435 H 0.35535 0.87984 0.29139 0.0
H436 H 0.37659 0.89238 0.27628 0.0
C437 C 0.37307 0.88112 0.28968 0.0
H438 H 0.37992 0.88777 0.30474 0.0
H439 H 0.34229 0.85568 0.32392 0.0
O440 O 0.43354 0.79211 0.29003 0.0
C441 C 0.38696 0.79978 0.34236 0.0
Co442 Co 0.06284 0.3201 0.94512 0.0
Co443 Co 0.09207 0.3523 0.92011 0.0
C444 C 0.09331 0.30457 0.91187 0.0
O445 O 0.07979 0.30039 0.92664 0.0
O446 O 0.09882 0.32379 0.90773 0.0
C447 C 0.05201 0.28432 0.97158 0.0
O448 O 0.07215 0.27879 0.96827 0.0
C449 C 0.13336 0.3658 0.9036 0.0
C450 C 0.12837 0.39982 0.89481 0.0
C451 C 0.1434 0.38339 0.89467 0.0
N452 N 0.1132 0.37137 0.90895 0.0
N453 N 0.1103 0.39181 0.90381 0.0
C454 C 0.14287 0.34393 0.90685 0.0
H455 H 0.13632 0.33653 0.92171 0.0
H456 H 0.16068 0.34479 0.90792 0.0
H457 H 0.13858 0.33361 0.89292 0.0
C458 C 0.08399 0.34025 0.98241 0.0
N459 N 0.0807 0.33841 0.96112 0.0
N460 N 0.09324 0.35201 0.95085 0.0
C461 C 0.10515 0.36287 0.96544 0.0
C462 C 0.09973 0.35562 0.9859 0.0
C463 C 0.07182 0.32796 -0.00083 0.0
H464 H 0.05456 0.32717 0.99476 0.0
H465 H 0.07826 0.31135 6e-05 0.0
H466 H 0.07333 0.33557 0.01526 0.0
O467 O 0.0428 0.33688 0.92697 0.0
O468 O 0.06303 0.36018 0.90885 0.0
H469 H 0.11511 0.39187 0.94992 0.0
H470 H 0.12991 0.38578 0.9743 0.0
C471 C 0.12225 0.37881 0.95977 0.0
H472 H 0.13477 0.37075 0.94995 0.0
H473 H 0.09589 0.40013 0.90601 0.0
O474 O 0.04508 0.3019 0.96383 0.0
C475 C 0.04475 0.35203 0.91333 0.0
Co476 Co 0.57008 0.69133 0.3 0.0
Co477 Co 0.59209 0.65342 0.32427 0.0
C478 C 0.54551 0.66117 0.32952 0.0
O479 O 0.54654 0.67712 0.31666 0.0
O480 O 0.56213 0.65018 0.33428 0.0
C481 C 0.53872 0.70997 0.27283 0.0
O482 O 0.53015 0.69069 0.27403 0.0
C483 C 0.60369 0.61319 0.34621 0.0
C484 C 0.63778 0.60957 0.33666 0.0
C485 C 0.62142 0.59985 0.34819 0.0
N486 N 0.60933 0.63013 0.33404 0.0
N487 N 0.62978 0.62799 0.32858 0.0
C488 C 0.58133 0.60913 0.35416 0.0
H489 H 0.57001 0.6094 0.34035 0.0
H490 H 0.57992 0.5934 0.36245 0.0
H491 H 0.57662 0.62219 0.36537 0.0
C492 C 0.58525 0.66794 0.26223 0.0
N493 N 0.58476 0.67099 0.2836 0.0
N494 N 0.59249 0.65394 0.29343 0.0
C495 C 0.59723 0.63893 0.27845 0.0
C496 C 0.5927 0.64735 0.25818 0.0
C497 C 0.57875 0.6845 0.24599 0.0
H498 H 0.5824 0.70085 0.25208 0.0
H499 H 0.56122 0.68328 0.24292 0.0
H500 H 0.58735 0.68195 0.23054 0.0
O501 O 0.58943 0.70645 0.31942 0.0
O502 O 0.60399 0.67992 0.33832 0.0
H503 H 0.62062 0.61494 0.28599 0.0
H504 H 0.59833 0.60514 0.27028 0.0
C505 C 0.60297 0.61611 0.28356 0.0
H506 H 0.59481 0.61092 0.29855 0.0
H507 H 0.63812 0.63889 0.31893 0.0
O508 O 0.55662 0.71344 0.28201 0.0
C509 C 0.60171 0.69987 0.33433 0.0
Co510 Co 0.93831 0.17852 0.94411 0.0
Co511 Co 0.90561 0.15127 0.91725 0.0
C512 C 0.90695 0.19866 0.91285 0.0
O513 O 0.92209 0.19967 0.92662 0.0
O514 O 0.89874 0.18076 0.90726 0.0
C515 C 0.95037 0.21293 0.97156 0.0
O516 O 0.93039 0.21906 0.96832 0.0
C517 C 0.86689 0.13469 0.89545 0.0
C518 C 0.86966 0.09987 0.90207 0.0
C519 C 0.85631 0.11518 0.89288 0.0
N520 N 0.88532 0.13108 0.90622 0.0
N521 N 0.88701 0.11021 0.90984 0.0
C522 C 0.86052 0.15619 0.88666 0.0
H523 H 0.87473 0.16408 0.87936 0.0
H524 H 0.85462 0.16649 0.89999 0.0
H525 H 0.8479 0.15478 0.87412 0.0
C526 C 0.91452 0.15995 0.98016 0.0
N527 N 0.91913 0.16101 0.95908 0.0
N528 N 0.90447 0.15041 0.94807 0.0
C529 C 0.88959 0.14282 0.96199 0.0
C530 C 0.89561 0.14862 0.98267 0.0
C531 C 0.927 0.17094 -0.00244 0.0
H532 H 0.94445 0.1704 0.99391 0.0
H533 H 0.92177 0.18795 -0.00135 0.0
H534 H 0.92406 0.16318 0.01338 0.0
O535 O 0.95735 0.16146 0.92569 0.0
O536 O 0.93445 0.14326 0.90516 0.0
H537 H 0.87169 0.11592 0.95046 0.0
H538 H 0.85707 0.13259 0.96907 0.0
C539 C 0.8687 0.13275 0.95553 0.0
H540 H 0.86166 0.14164 0.94175 0.0
H541 H 0.89978 0.10311 0.91813 0.0
O542 O 0.9568 0.1953 0.96349 0.0
C543 C 0.95359 0.14837 0.91046 0.0
Co544 Co 0.19594 0.41715 0.19173 0.0
Co545 Co 0.16729 0.39238 0.15867 0.0
C546 C 0.16881 0.44027 0.15894 0.0
O547 O 0.18222 0.4403 0.17445 0.0
O548 O 0.1614 0.42277 0.15135 0.0
C549 C 0.22638 0.44813 0.2066 0.0
O550 O 0.22458 0.45583 0.18699 0.0
C551 C 0.15095 0.37914 0.11643 0.0
C552 C 0.13895 0.3464 0.12323 0.0
C553 C 0.14144 0.36133 0.10682 0.0
N554 N 0.15391 0.37483 0.13744 0.0
N555 N 0.14655 0.35531 0.14143 0.0
C556 C 0.15876 0.39924 0.10571 0.0
H557 H 0.17209 0.40655 0.11504 0.0
H558 H 0.16438 0.39581 0.08911 0.0
H559 H 0.14537 0.41103 0.10491 0.0
C560 C 0.23023 0.39306 0.17058 0.0
N561 N 0.20928 0.39714 0.17374 0.0
N562 N 0.19776 0.38716 0.15905 0.0
C563 C 0.21131 0.3767 0.14562 0.0
C564 C 0.23237 0.38041 0.15237 0.0
C565 C 0.24796 0.40181 0.18436 0.0
H566 H 0.24318 0.40116 0.20153 0.0
H567 H 0.25098 0.41882 0.17995 0.0
H568 H 0.26305 0.39251 0.18216 0.0
O569 O 0.17464 0.403 0.20999 0.0
O570 O 0.15312 0.38604 0.18705 0.0
H571 H 0.19105 0.35449 0.12881 0.0
H572 H 0.21769 0.35681 0.11759 0.0
C573 C 0.20438 0.36577 0.12531 0.0
H574 H 0.19854 0.37801 0.11376 0.0
H575 H 0.14709 0.34794 0.1565 0.0
O576 O 0.2164 0.43102 0.21152 0.0
C577 C 0.15834 0.39132 0.20617 0.0
Co578 Co 0.1942 0.56827 0.30852 0.0
Co579 Co 0.16727 0.59395 0.34228 0.0
C580 C 0.16885 0.54591 0.34301 0.0
O581 O 0.18141 0.54556 0.32683 0.0
O582 O 0.16199 0.56359 0.35076 0.0
C583 C 0.22425 0.53739 0.29247 0.0
O584 O 0.22329 0.5296 0.3121 0.0
C585 C 0.15253 0.60867 0.38452 0.0
C586 C 0.14083 0.64141 0.37711 0.0
C587 C 0.14349 0.62684 0.39379 0.0
N588 N 0.15503 0.61235 0.36336 0.0
N589 N 0.1479 0.63189 0.359 0.0
C590 C 0.16031 0.58878 0.39565 0.0
H591 H 0.14713 0.57675 0.39595 0.0
H592 H 0.17412 0.58173 0.38682 0.0
H593 H 0.16522 0.59236 0.41245 0.0
C594 C 0.22944 0.59329 0.32724 0.0
N595 N 0.20842 0.58872 0.32532 0.0
N596 N 0.19745 0.59958 0.33981 0.0
C597 C 0.21141 0.61141 0.35156 0.0
C598 C 0.23207 0.60764 0.34399 0.0
C599 C 0.24689 0.58308 0.31417 0.0
H600 H 0.2422 0.58286 0.29696 0.0
H601 H 0.24924 0.56628 0.31967 0.0
H602 H 0.26233 0.59189 0.31592 0.0
O603 O 0.17161 0.58184 0.29111 0.0
O604 O 0.15136 0.59921 0.31484 0.0
H605 H 0.1923 0.63561 0.36683 0.0
H606 H 0.21938 0.6335 0.37727 0.0
C607 C 0.20544 0.62429 0.37098 0.0
H608 H 0.19955 0.61333 0.38375 0.0
H609 H 0.14815 0.63883 0.34371 0.0
O610 O 0.21375 0.55431 0.28793 0.0
C611 C 0.15536 0.59339 0.29561 0.0
Co612 Co 0.82674 0.55111 0.93128 0.0
Co613 Co 0.84926 0.57845 0.896 0.0
C614 C 0.8013 0.57626 0.89862 0.0
O615 O 0.80247 0.56371 0.91478 0.0
O616 O 0.81824 0.5833 0.88946 0.0
C617 C 0.79753 0.52082 0.94925 0.0
O618 O 0.7889 0.52121 0.92994 0.0
C619 C 0.86169 0.59302 0.85311 0.0
C620 C 0.89378 0.60703 0.85936 0.0
C621 C 0.87897 0.60305 0.84315 0.0
N622 N 0.86615 0.59123 0.87417 0.0
N623 N 0.88529 0.5997 0.87784 0.0
C624 C 0.84197 0.58375 0.84284 0.0
H625 H 0.83561 0.57027 0.85266 0.0
H626 H 0.84553 0.57796 0.82633 0.0
H627 H 0.82936 0.59636 0.84191 0.0
C628 C 0.85142 0.5164 0.91117 0.0
N629 N 0.84621 0.53725 0.91313 0.0
N630 N 0.8559 0.54843 0.89799 0.0
C631 C 0.86762 0.53478 0.88578 0.0
C632 C 0.86499 0.51409 0.89372 0.0
C633 C 0.84271 0.49881 0.9251 0.0
H634 H 0.8434 0.50376 0.94223 0.0
H635 H 0.82567 0.49579 0.92074 0.0
H636 H 0.85197 0.48368 0.92303 0.0
O637 O 0.84111 0.57372 0.94789 0.0
O638 O 0.85602 0.59443 0.92298 0.0
H639 H 0.89008 0.55499 0.86927 0.0
H640 H 0.88948 0.52754 0.85968 0.0
C641 C 0.87954 0.54103 0.86584 0.0
H642 H 0.86786 0.54576 0.85322 0.0
H643 H 0.89264 0.60024 0.89294 0.0
O644 O 0.81458 0.53148 0.95274 0.0
C645 C 0.85185 0.59025 0.94257 0.0
Co646 Co 0.80557 0.92667 0.31719 0.0
Co647 Co 0.83001 0.89203 0.34394 0.0
C648 C 0.8384 0.93933 0.34951 0.0
O649 O 0.8239 0.94465 0.33607 0.0
O650 O 0.84247 0.91971 0.35357 0.0
C651 C 0.78219 0.96478 0.30587 0.0
O652 O 0.78732 0.97116 0.32536 0.0
C653 C 0.8444 0.87334 0.38372 0.0
C654 C 0.86282 0.84494 0.37288 0.0
C655 C 0.85784 0.85713 0.39086 0.0
N656 N 0.84152 0.8709 0.36249 0.0
N657 N 0.85221 0.85367 0.3561 0.0
C658 C 0.83719 0.89269 0.39609 0.0
H659 H 0.82463 0.90162 0.38707 0.0
H660 H 0.83068 0.88787 0.41198 0.0
H661 H 0.85119 0.9034 0.39893 0.0
C662 C 0.76803 0.90601 0.33726 0.0
N663 N 0.78929 0.90711 0.33342 0.0
N664 N 0.79934 0.89239 0.34485 0.0
C665 C 0.78465 0.88141 0.35644 0.0
C666 C 0.76437 0.8897 0.35201 0.0
C667 C 0.75208 0.92194 0.32874 0.0
H668 H 0.75261 0.92189 0.3109 0.0
H669 H 0.75664 0.93826 0.3343 0.0
H670 H 0.73546 0.9185 0.33418 0.0
O671 O 0.82415 0.91166 0.29612 0.0
O672 O 0.84151 0.88668 0.31483 0.0
H673 H 0.80259 0.85316 0.3649 0.0
H674 H 0.77539 0.85378 0.37534 0.0
C675 C 0.78987 0.8636 0.37177 0.0
H676 H 0.79591 0.87057 0.38704 0.0
H677 H 0.85342 0.84872 0.3401 0.0
O678 O 0.78729 0.94593 0.29989 0.0
C679 C 0.83767 0.89633 0.29721 0.0
Co680 Co 0.6804 0.44013 0.42279 0.0
Co681 Co 0.64809 0.41542 0.39339 0.0
C682 C 0.6962 0.41157 0.38795 0.0
O683 O 0.70031 0.42489 0.40297 0.0
O684 O 0.67691 0.40664 0.38317 0.0
C685 C 0.71606 0.46482 0.43945 0.0
O686 O 0.72512 0.46119 0.4207 0.0
C687 C 0.6311 0.40278 0.35202 0.0
C688 C 0.59899 0.3898 0.36002 0.0
C689 C 0.61302 0.39333 0.34303 0.0
N690 N 0.62798 0.40454 0.3733 0.0
N691 N 0.60878 0.39679 0.37805 0.0
C692 C 0.65053 0.41136 0.34065 0.0
H693 H 0.66287 0.39851 0.33959 0.0
H694 H 0.65753 0.425 0.34979 0.0
H695 H 0.64636 0.41676 0.32414 0.0
C696 C 0.6577 0.47744 0.40461 0.0
N697 N 0.65994 0.45612 0.4074 0.0
N698 N 0.64601 0.44591 0.39517 0.0
C699 C 0.63435 0.46055 0.38419 0.0
C700 C 0.64143 0.48095 0.38975 0.0
C701 C 0.67277 0.49373 0.41395 0.0
H702 H 0.67207 0.49288 0.43177 0.0
H703 H 0.68946 0.48981 0.40899 0.0
H704 H 0.66888 0.51031 0.40866 0.0
O705 O 0.66619 0.41898 0.44174 0.0
O706 O 0.64308 0.40097 0.42133 0.0
H707 H 0.60705 0.44205 0.37406 0.0
H708 H 0.60719 0.46947 0.36438 0.0
C709 C 0.61737 0.45524 0.36796 0.0
H710 H 0.62513 0.44987 0.35283 0.0
H711 H 0.60241 0.3962 0.39358 0.0
O712 O 0.69698 0.45833 0.44273 0.0
C713 C 0.652 0.40445 0.43942 0.0
Co714 Co 0.29928 0.56449 0.68289 0.0
Co715 Co 0.32411 0.593 0.64979 0.0
C716 C 0.32425 0.54549 0.6458 0.0
O717 O 0.31241 0.54381 0.66244 0.0
O718 O 0.33028 0.56375 0.63877 0.0
C719 C 0.27085 0.53103 0.69685 0.0
O720 O 0.27195 0.5245 0.67678 0.0
C721 C 0.34707 0.6112 0.61277 0.0
C722 C 0.33636 0.64505 0.61372 0.0
C723 C 0.34808 0.63053 0.60148 0.0
N724 N 0.33461 0.6141 0.6302 0.0
N725 N 0.32874 0.63449 0.63098 0.0
C726 C 0.35926 0.59086 0.60857 0.0
H727 H 0.36333 0.58291 0.62401 0.0
H728 H 0.34909 0.57975 0.59899 0.0
H729 H 0.37443 0.59414 0.59977 0.0
C730 C 0.26238 0.58861 0.66667 0.0
N731 N 0.28371 0.58537 0.66794 0.0
N732 N 0.29352 0.59646 0.65281 0.0
C733 C 0.27838 0.60649 0.6408 0.0
C734 C 0.25827 0.60196 0.64939 0.0
C735 C 0.24607 0.57795 0.6808 0.0
H736 H 0.25206 0.57725 0.69759 0.0
H737 H 0.24327 0.56133 0.67499 0.0
H738 H 0.23054 0.58677 0.68045 0.0
O739 O 0.32176 0.57745 0.70079 0.0
O740 O 0.34058 0.59666 0.67732 0.0
H741 H 0.28546 0.63436 0.62202 0.0
H742 H 0.26828 0.6154 0.60875 0.0
C743 C 0.28247 0.61697 0.6195 0.0
H744 H 0.29663 0.60963 0.61154 0.0
H745 H 0.319 0.64104 0.64298 0.0
O746 O 0.28072 0.54802 0.70243 0.0
C747 C 0.33757 0.5896 0.69633 0.0
Co748 Co 0.80954 0.43593 0.56647 0.0
Co749 Co 0.8461 0.41319 0.5919 0.0
C750 C 0.79821 0.40645 0.60103 0.0
O751 O 0.79201 0.42108 0.58813 0.0
O752 O 0.81808 0.40168 0.60295 0.0
C753 C 0.77238 0.46006 0.55144 0.0
O754 O 0.76409 0.45673 0.5706 0.0
C755 C 0.865 0.40281 0.63287 0.0
C756 C 0.89714 0.39019 0.62447 0.0
C757 C 0.88357 0.3942 0.64175 0.0
N758 N 0.86741 0.40364 0.61145 0.0
N759 N 0.88664 0.39611 0.60645 0.0
C760 C 0.8457 0.41154 0.64436 0.0
H761 H 0.83797 0.42436 0.63462 0.0
H762 H 0.85024 0.41808 0.66035 0.0
H763 H 0.83379 0.39844 0.64664 0.0
C764 C 0.83262 0.47447 0.58094 0.0
N765 N 0.83067 0.45303 0.57944 0.0
N766 N 0.84626 0.44374 0.59033 0.0
C767 C 0.85882 0.45915 0.59908 0.0
C768 C 0.85043 0.47911 0.59354 0.0
C769 C 0.81754 0.49013 0.57054 0.0
H770 H 0.81574 0.48608 0.55326 0.0
H771 H 0.80148 0.48881 0.57822 0.0
H772 H 0.82341 0.50691 0.5719 0.0
O773 O 0.82233 0.41386 0.54759 0.0
O774 O 0.8513 0.40001 0.5633 0.0
H775 H 0.88784 0.44216 0.60666 0.0
H776 H 0.88714 0.46945 0.61669 0.0
C777 C 0.87744 0.4548 0.61373 0.0
H778 H 0.87132 0.44888 0.62939 0.0
H779 H 0.89253 0.39493 0.59076 0.0
O780 O 0.79113 0.45311 0.54727 0.0
C781 C 0.83854 0.40136 0.54734 0.0
Co782 Co 0.1621 0.05447 0.55635 0.0
Co783 Co 0.13407 0.07943 0.5898 0.0
C784 C 0.18165 0.08757 0.58441 0.0
O785 O 0.18404 0.07269 0.5706 0.0
O786 O 0.16329 0.09183 0.59233 0.0
C787 C 0.19587 0.02841 0.54058 0.0
O788 O 0.20338 0.03125 0.56014 0.0
C789 C 0.12703 0.09562 0.63276 0.0
C790 C 0.09231 0.1031 0.63364 0.0
C791 C 0.11102 0.10384 0.64576 0.0
N792 N 0.11838 0.09042 0.61366 0.0
N793 N 0.09758 0.09487 0.61425 0.0
C794 C 0.14998 0.0915 0.63885 0.0
H795 H 0.15598 0.07683 0.63065 0.0
H796 H 0.15168 0.08951 0.65652 0.0
H797 H 0.15998 0.10537 0.63373 0.0
C798 C 0.14571 0.0172 0.58053 0.0
N799 N 0.14656 0.03843 0.5766 0.0
N800 N 0.13466 0.04869 0.5908 0.0
C801 C 0.12587 0.03414 0.60432 0.0
C802 C 0.13276 0.01379 0.59828 0.0
C803 C 0.15694 0.0004 0.56746 0.0
H804 H 0.15555 0.00426 0.5501 0.0
H805 H 0.17422 0.00011 0.5719 0.0
H806 H 0.15005 0.9842 0.57039 0.0
O807 O 0.14276 0.07295 0.53925 0.0
O808 O 0.12213 0.09089 0.56234 0.0
H809 H 0.09854 0.0498 0.61811 0.0
H810 H 0.10611 0.02509 0.63155 0.0
C811 C 0.11228 0.0397 0.62337 0.0
H812 H 0.12199 0.04915 0.63497 0.0
H813 H 0.08703 0.0924 0.60141 0.0
O814 O 0.17756 0.03611 0.53577 0.0
C815 C 0.12793 0.08652 0.54316 0.0
Co816 Co 0.69505 0.69078 0.91784 0.0
Co817 Co 0.65727 0.66584 0.89615 0.0
C818 C 0.663 0.6645 0.94355 0.0
O819 O 0.67949 0.67659 0.94209 0.0
O820 O 0.65252 0.65884 0.92689 0.0
C821 C 0.71355 0.71948 0.94798 0.0
O822 O 0.69392 0.71968 0.95582 0.0
C823 C 0.6159 0.64531 0.88585 0.0
C824 C 0.61193 0.65425 0.85167 0.0
C825 C 0.60143 0.64451 0.86878 0.0
N826 N 0.63366 0.65577 0.87929 0.0
N827 N 0.63137 0.66065 0.85873 0.0
C828 C 0.61384 0.63489 0.90746 0.0
H829 H 0.62965 0.62833 0.91248 0.0
H830 H 0.60869 0.64708 0.91944 0.0
H831 H 0.60206 0.6215 0.90714 0.0
C832 C 0.67459 0.72762 0.89679 0.0
N833 N 0.67605 0.70643 0.90068 0.0
N834 N 0.65902 0.69656 0.89293 0.0
C835 C 0.64546 0.71154 0.8849 0.0
C836 C 0.655 0.7317 0.88688 0.0
C837 C 0.69191 0.74346 0.90215 0.0
H838 H 0.70795 0.73586 0.90032 0.0
H839 H 0.69006 0.74872 0.9191 0.0
H840 H 0.69099 0.75779 0.89153 0.0
O841 O 0.71021 0.6695 0.90062 0.0
O842 O 0.68392 0.65021 0.886 0.0
H843 H 0.62195 0.70372 0.86104 0.0
H844 H 0.61226 0.72136 0.88176 0.0
C845 C 0.62263 0.7072 0.87853 0.0
H846 H 0.6162 0.69326 0.88756 0.0
H847 H 0.64277 0.66906 0.84973 0.0
O848 O 0.71725 0.7091 0.9308 0.0
C849 C 0.70388 0.65402 0.88893 0.0
Co850 Co 0.93907 0.05689 0.32655 0.0
Co851 Co 0.91693 0.09047 0.35666 0.0
C852 C 0.90868 0.08882 0.3087 0.0
O853 O 0.92238 0.074 0.30533 0.0
O854 O 0.90506 0.09583 0.32757 0.0
C855 C 0.96361 0.03915 0.29216 0.0
O856 O 0.9619 0.05859 0.28404 0.0
C857 C 0.90308 0.13351 0.3686 0.0
C858 C 0.90215 0.13197 0.40413 0.0
C859 C 0.89943 0.14578 0.38684 0.0
N860 N 0.90834 0.11352 0.37483 0.0
N861 N 0.90761 0.11262 0.39607 0.0
C862 C 0.89988 0.13989 0.34554 0.0
H863 H 0.887 0.12978 0.33849 0.0
H864 H 0.91494 0.13696 0.33641 0.0
H865 H 0.89483 0.15682 0.34357 0.0
C866 C 0.97827 0.07644 0.34473 0.0
N867 N 0.95675 0.07453 0.34342 0.0
N868 N 0.94764 0.08874 0.35619 0.0
C869 C 0.96322 0.10027 0.36598 0.0
C870 C 0.98307 0.09281 0.35901 0.0
C871 C 0.99393 0.06273 0.33264 0.0
H872 H 0.98899 0.04563 0.33363 0.0
H873 H 0.99392 0.0676 0.31547 0.0
H874 H 0.01049 0.06439 0.33913 0.0
O875 O 0.91883 0.0404 0.34467 0.0
O876 O 0.90318 0.06362 0.36687 0.0
H877 H 0.9512 0.11354 0.39529 0.0
H878 H 0.97441 0.12745 0.38478 0.0
C879 C 0.95925 0.11913 0.38039 0.0
H880 H 0.9485 0.13073 0.37216 0.0
H881 H 0.9111 0.09886 0.40505 0.0
O882 O 0.95581 0.03535 0.31064 0.0
C883 C 0.90566 0.04459 0.35977 0.0
Co884 Co 0.31196 0.80312 0.92328 0.0
Co885 Co 0.34655 0.83142 0.90036 0.0
C886 C 0.34098 0.83278 0.94802 0.0
O887 O 0.32624 0.81858 0.94735 0.0
O888 O 0.35008 0.8395 0.93097 0.0
C889 C 0.29411 0.77447 0.9542 0.0
O890 O 0.31278 0.77716 0.96379 0.0
C891 C 0.38853 0.85038 0.89151 0.0
C892 C 0.38732 0.85531 0.85629 0.0
C893 C 0.40043 0.85758 0.87417 0.0
N894 N 0.36916 0.84411 0.88428 0.0
N895 N 0.36844 0.84727 0.86325 0.0
C896 C 0.396 0.84775 0.91426 0.0
H897 H 0.39009 0.83226 0.92085 0.0
H898 H 0.41382 0.84822 0.91541 0.0
H899 H 0.38923 0.86096 0.92417 0.0
C900 C 0.33652 0.76822 0.90312 0.0
N901 N 0.33238 0.78921 0.90614 0.0
N902 N 0.34753 0.80082 0.89701 0.0
C903 C 0.36219 0.78739 0.88827 0.0
C904 C 0.3556 0.76635 0.89179 0.0
C905 C 0.3238 0.75043 0.91319 0.0
H906 H 0.32691 0.75028 0.93076 0.0
H907 H 0.32818 0.73448 0.90656 0.0
H908 H 0.30637 0.7533 0.9106 0.0
O909 O 0.29491 0.82346 0.90616 0.0
O910 O 0.31902 0.84446 0.89025 0.0
H911 H 0.39223 0.78055 0.87195 0.0
H912 H 0.39236 0.80386 0.88937 0.0
C913 C 0.38265 0.79445 0.87774 0.0
H914 H 0.37881 0.80495 0.86386 0.0
H915 H 0.35522 0.84348 0.85359 0.0
O916 O 0.29101 0.78306 0.93593 0.0
C917 C 0.29959 0.83921 0.89401 0.0
Co918 Co 0.05384 0.44226 0.32757 0.0
Co919 Co 0.07752 0.40496 0.35156 0.0
C920 C 0.08111 0.409 0.3043 0.0
O921 O 0.0692 0.42569 0.30486 0.0
O922 O 0.086 0.39881 0.32141 0.0
C923 C 0.02701 0.45961 0.29512 0.0
O924 O 0.02761 0.43977 0.28787 0.0
C925 C 0.0987 0.36504 0.36653 0.0
C926 C 0.08676 0.36347 0.39998 0.0
C927 C 0.09887 0.35228 0.38496 0.0
N928 N 0.08652 0.38251 0.37044 0.0
N929 N 0.07976 0.38162 0.39056 0.0
C930 C 0.11116 0.36186 0.34618 0.0
H931 H 0.1161 0.37764 0.33953 0.0
H932 H 0.10082 0.35367 0.33415 0.0
H933 H 0.12581 0.35206 0.34906 0.0
C934 C 0.01582 0.42178 0.34592 0.0
N935 N 0.03726 0.42381 0.34431 0.0
N936 N 0.04672 0.40703 0.35307 0.0
C937 C 0.03131 0.39318 0.35967 0.0
C938 C 0.01129 0.4022 0.35543 0.0
C939 C -9e-05 0.43788 0.33769 0.0
H940 H 0.00626 0.4544 0.33982 0.0
H941 H 0.99704 0.43502 0.32031 0.0
H942 H 0.98433 0.43637 0.34628 0.0
O943 O 0.07421 0.45788 0.34542 0.0
O944 O 0.09285 0.43182 0.36121 0.0
H945 H 0.03753 0.3699 0.38416 0.0
H946 H 0.02171 0.35987 0.36218 0.0
C947 C 0.03545 0.37044 0.36645 0.0
H948 H 0.05022 0.3642 0.35864 0.0
H949 H 0.06995 0.39321 0.39771 0.0
O950 O 0.03631 0.46399 0.31277 0.0
C951 C 0.08923 0.4517 0.35779 0.0
Co952 Co 0.68454 0.30967 0.5707 0.0
Co953 Co 0.64734 0.33175 0.59618 0.0
C954 C 0.65564 0.34288 0.55056 0.0
O955 O 0.67072 0.3291 0.54929 0.0
O956 O 0.64543 0.34598 0.56797 0.0
C957 C 0.69887 0.28462 0.53641 0.0
O958 O 0.67876 0.28741 0.53049 0.0
C959 C 0.60511 0.34974 0.60591 0.0
C960 C 0.60188 0.3436 0.64079 0.0
C961 C 0.5913 0.35216 0.62314 0.0
N962 N 0.62322 0.34027 0.61297 0.0
N963 N 0.62124 0.33671 0.63386 0.0
C964 C 0.60035 0.35439 0.58274 0.0
H965 H 0.60513 0.34043 0.57271 0.0
H966 H 0.58302 0.3577 0.58004 0.0
H967 H 0.60985 0.36857 0.57753 0.0
C968 C 0.66125 0.27068 0.58331 0.0
N969 N 0.66402 0.29209 0.58385 0.0
N970 N 0.64724 0.30118 0.59294 0.0
C971 C 0.63265 0.28577 0.59754 0.0
C972 C 0.64108 0.26591 0.59151 0.0
C973 C 0.67815 0.25502 0.57626 0.0
H974 H 0.69442 0.26163 0.57939 0.0
H975 H 0.67642 0.25188 0.55879 0.0
H976 H 0.67644 0.23952 0.58495 0.0
O977 O 0.70018 0.32699 0.5919 0.0
O978 O 0.67403 0.34324 0.61009 0.0
H979 H 0.61082 0.29323 0.623 0.0
H980 H 0.59932 0.27663 0.60211 0.0
C981 C 0.61033 0.29026 0.60541 0.0
H982 H 0.6039 0.30482 0.59739 0.0
H983 H 0.63297 0.32924 0.64329 0.0
O984 O 0.70518 0.29241 0.55422 0.0
C985 C 0.69397 0.33997 0.60645 0.0
Co986 Co 0.55076 0.06667 0.68421 0.0
Co987 Co 0.57352 0.09811 0.652 0.0
C988 C 0.58323 0.09825 0.69954 0.0
O989 O 0.5694 0.08377 0.70371 0.0
O990 O 0.58627 0.10478 0.6804 0.0
C991 C 0.52571 0.05334 0.72039 0.0
O992 O 0.52852 0.07323 0.72694 0.0
C993 C 0.59105 0.13887 0.63646 0.0
C994 C 0.5837 0.13769 0.60171 0.0
C995 C 0.59146 0.15106 0.61778 0.0
N996 N 0.58255 0.11954 0.63186 0.0
N997 N 0.57864 0.11876 0.61096 0.0
C998 C 0.60028 0.14466 0.65796 0.0
H999 H 0.61059 0.1313 0.66365 0.0
H1000 H 0.58704 0.1471 0.66968 0.0
H1001 H 0.6105 0.15923 0.65724 0.0
C1002 C 0.51195 0.08619 0.66546 0.0
N1003 N 0.53346 0.0843 0.66691 0.0
N1004 N 0.54269 0.09799 0.65366 0.0
C1005 C 0.52712 0.10947 0.64371 0.0
C1006 C 0.50723 0.10226 0.65081 0.0
C1007 C 0.49626 0.07206 0.67704 0.0
H1008 H 0.50202 0.0552 0.67687 0.0
H1009 H 0.49495 0.07744 0.694 0.0
H1010 H 0.48007 0.07271 0.66953 0.0
O1011 O 0.56886 0.04791 0.6662 0.0
O1012 O 0.58552 0.06968 0.64319 0.0
H1013 H 0.53531 0.12184 0.61275 0.0
H1014 H 0.51645 0.13826 0.62731 0.0
C1015 C 0.531 0.12804 0.6289 0.0
H1016 H 0.54438 0.13805 0.63509 0.0
H1017 H 0.57172 0.1056 0.60316 0.0
O1018 O 0.53331 0.04759 0.70233 0.0
C1019 C 0.58188 0.05097 0.65073 0.0
Co1020 Co 0.30744 0.19011 0.56851 0.0
Co1021 Co 0.33759 0.16352 0.59864 0.0
C1022 C 0.34443 0.16454 0.55108 0.0
O1023 O 0.32857 0.17723 0.54857 0.0
O1024 O 0.34971 0.15764 0.56963 0.0
C1025 C 0.29579 0.21926 0.53476 0.0
O1026 O 0.31609 0.21747 0.52914 0.0
C1027 C 0.37794 0.14972 0.61791 0.0
C1028 C 0.36732 0.13517 0.64857 0.0
C1029 C 0.38545 0.13941 0.63627 0.0
N1030 N 0.35645 0.15129 0.61928 0.0
N1031 N 0.35015 0.14256 0.63761 0.0
C1032 C 0.3908 0.15932 0.59995 0.0
H1033 H 0.38189 0.17285 0.59246 0.0
H1034 H 0.40661 0.16516 0.60588 0.0
H1035 H 0.39355 0.14692 0.58741 0.0
C1036 C 0.32271 0.22557 0.59528 0.0
N1037 N 0.32141 0.20449 0.59089 0.0
N1038 N 0.33455 0.19378 0.6036 0.0
C1039 C 0.34481 0.20801 0.61648 0.0
C1040 C 0.33772 0.22857 0.61142 0.0
C1041 C 0.31108 0.24274 0.58304 0.0
H1042 H 0.29399 0.23812 0.58087 0.0
H1043 H 0.31856 0.24455 0.56694 0.0
H1044 H 0.31184 0.25842 0.59154 0.0
O1045 O 0.28835 0.16766 0.57993 0.0
O1046 O 0.30966 0.14788 0.60075 0.0
H1047 H 0.35796 0.18822 0.64147 0.0
H1048 H 0.36631 0.21605 0.6426 0.0
C1049 C 0.36258 0.2024 0.63172 0.0
H1050 H 0.37725 0.19837 0.62244 0.0
H1051 H 0.33416 0.1417 0.64264 0.0
O1052 O 0.28914 0.2096 0.55151 0.0
C1053 C 0.29136 0.15168 0.59234 0.0
Co1054 Co 0.43178 0.43332 0.6661 0.0
Co1055 Co 0.40507 0.40145 0.63828 0.0
C1056 C 0.39752 0.40612 0.68576 0.0
O1057 O 0.41271 0.41969 0.6877 0.0
O1058 O 0.39271 0.39802 0.66758 0.0
C1059 C 0.45832 0.44849 0.70012 0.0
O1060 O 0.45343 0.42992 0.70895 0.0
C1061 C 0.39033 0.35892 0.62676 0.0
C1062 C 0.38005 0.36291 0.59295 0.0
C1063 C 0.38203 0.34782 0.60929 0.0
N1064 N 0.39309 0.37952 0.62099 0.0
N1065 N 0.38681 0.3819 0.60082 0.0
C1066 C 0.39738 0.35004 0.64803 0.0
H1067 H 0.41016 0.36028 0.65514 0.0
H1068 H 0.40345 0.33335 0.64624 0.0
H1069 H 0.38348 0.34994 0.65922 0.0
C1070 C 0.46786 0.40817 0.64899 0.0
N1071 N 0.44675 0.41267 0.65023 0.0
N1072 N 0.43581 0.39897 0.63837 0.0
C1073 C 0.44984 0.38511 0.62921 0.0
C1074 C 0.4705 0.39053 0.6357 0.0
C1075 C 0.48486 0.41954 0.66172 0.0
H1076 H 0.48351 0.43713 0.6591 0.0
H1077 H 0.48232 0.41624 0.67906 0.0
H1078 H 0.50132 0.41423 0.65744 0.0
O1079 O 0.41467 0.45185 0.647 0.0
O1080 O 0.39495 0.42968 0.62711 0.0
H1081 H 0.43143 0.37273 0.60278 0.0
H1082 H 0.45806 0.36127 0.60531 0.0
C1083 C 0.44383 0.36719 0.61434 0.0
H1084 H 0.43716 0.35366 0.62383 0.0
H1085 H 0.38749 0.39638 0.59235 0.0
O1086 O 0.45142 0.45272 0.68138 0.0
C1087 C 0.40064 0.44859 0.63247 0.0
Co1088 Co 0.91877 0.68437 0.68516 0.0
Co1089 Co 0.89265 0.65073 0.65856 0.0
C1090 C 0.94078 0.65114 0.65797 0.0
O1091 O 0.9413 0.66673 0.67122 0.0
O1092 O 0.92303 0.64329 0.65135 0.0
C1093 C 0.95112 0.70161 0.71291 0.0
O1094 O 0.95947 0.68225 0.71143 0.0
C1095 C 0.87777 0.60866 0.64393 0.0
C1096 C 0.84455 0.61596 0.63346 0.0
C1097 C 0.85931 0.59938 0.6355 0.0
N1098 N 0.87406 0.62974 0.64669 0.0
N1099 N 0.85424 0.63405 0.64028 0.0
C1100 C 0.89799 0.59761 0.65097 0.0
H1101 H 0.9057 0.60665 0.6643 0.0
H1102 H 0.89459 0.58091 0.65629 0.0
H1103 H 0.90941 0.59705 0.63727 0.0
C1104 C 0.89537 0.66474 0.72096 0.0
N1105 N 0.8993 0.66693 0.69985 0.0
N1106 N 0.88822 0.65251 0.68902 0.0
C1107 C 0.87678 0.64058 0.70314 0.0
C1108 C 0.88109 0.64793 0.72379 0.0
C1109 C 0.90596 0.67784 0.73816 0.0
H1110 H 0.90554 0.69509 0.73368 0.0
H1111 H 0.92305 0.67286 0.73964 0.0
H1112 H 0.89789 0.67568 0.75394 0.0
O1113 O 0.90391 0.70169 0.66339 0.0
O1114 O 0.88585 0.67811 0.64362 0.0
H1115 H 0.85185 0.62574 0.68463 0.0
H1116 H 0.85496 0.6147 0.71136 0.0
C1117 C 0.86366 0.62131 0.69724 0.0
H1118 H 0.87438 0.60868 0.69068 0.0
H1119 H 0.84723 0.64929 0.64092 0.0
O1120 O 0.93308 0.70535 0.70407 0.0
C1121 C 0.89156 0.69731 0.6477 0.0
Co1122 Co 0.93699 0.82 0.554 0.0
Co1123 Co 0.9065 0.85288 0.57691 0.0
C1124 C 0.90397 0.80511 0.58475 0.0
O1125 O 0.91848 0.80077 0.57103 0.0
O1126 O 0.89854 0.8244 0.58877 0.0
C1127 C 0.95123 0.7829 0.5311 0.0
O1128 O 0.93179 0.77589 0.53552 0.0
C1129 C 0.86439 0.86673 0.59026 0.0
C1130 C 0.86887 0.90081 0.59914 0.0
C1131 C 0.85379 0.88443 0.5984 0.0
N1132 N 0.88491 0.87216 0.58648 0.0
N1133 N 0.88755 0.89261 0.5917 0.0
C1134 C 0.85491 0.84515 0.58535 0.0
H1135 H 0.86293 0.83802 0.57108 0.0
H1136 H 0.83735 0.84644 0.58229 0.0
H1137 H 0.85744 0.83433 0.59932 0.0
C1138 C 0.91613 0.83792 0.51559 0.0
N1139 N 0.91999 0.83807 0.53686 0.0
N1140 N 0.90745 0.85228 0.54625 0.0
C1141 C 0.89536 0.86198 0.53106 0.0
C1142 C 0.90035 0.85311 0.51115 0.0
C1143 C 0.92505 0.82117 0.50073 0.0
H1144 H 0.92034 0.80508 0.50673 0.0
H1145 H 0.91906 0.82268 0.48404 0.0
H1146 H 0.94287 0.82209 0.50076 0.0
O1147 O 0.95545 0.83671 0.57385 0.0
O1148 O 0.93437 0.86054 0.59019 0.0
H1149 H 0.87421 0.88761 0.52069 0.0
H1150 H 0.86448 0.87148 0.54281 0.0
C1151 C 0.87896 0.879 0.5356 0.0
H1152 H 0.88558 0.89076 0.54724 0.0
H1153 H 0.90213 0.90084 0.59049 0.0
O1154 O 0.9565 0.80183 0.5367 0.0
C1155 C 0.95273 0.85196 0.58725 0.0
Co1156 Co 0.07598 0.80664 0.68309 0.0
Co1157 Co 0.10755 0.83958 0.662 0.0
C1158 C 0.06012 0.83949 0.6523 0.0
O1159 O 0.05608 0.82459 0.66573 0.0
O1160 O 0.07919 0.84615 0.64914 0.0
C1161 C 0.04013 0.78954 0.70664 0.0
O1162 O 0.03189 0.80884 0.70409 0.0
C1163 C 0.12044 0.88299 0.65129 0.0
C1164 C 0.15429 0.87924 0.64118 0.0
C1165 C 0.13802 0.89438 0.64346 0.0
N1166 N 0.12607 0.86224 0.65328 0.0
N1167 N 0.14632 0.86004 0.64725 0.0
C1168 C 0.09894 0.89153 0.65803 0.0
H1169 H 0.09151 0.88081 0.67022 0.0
H1170 H 0.10049 0.90797 0.6648 0.0
H1171 H 0.08809 0.89206 0.64385 0.0
C1172 C 0.09271 0.82581 0.72275 0.0
N1173 N 0.09287 0.8237 0.70125 0.0
N1174 N 0.10591 0.83805 0.6928 0.0
C1175 C 0.1143 0.85007 0.70888 0.0
C1176 C 0.10591 0.84283 0.72836 0.0
C1177 C 0.07996 0.81184 0.73766 0.0
H1178 H 0.08113 0.79483 0.73248 0.0
H1179 H 0.06282 0.8168 0.73715 0.0
H1180 H 0.08588 0.81313 0.75446 0.0
O1181 O 0.09409 0.78959 0.66366 0.0
O1182 O 0.11723 0.81214 0.64841 0.0
H1183 H 0.14104 0.86553 0.69354 0.0
H1184 H 0.13587 0.87499 0.72051 0.0
C1185 C 0.12829 0.86936 0.70541 0.0
H1186 H 0.11839 0.88268 0.69894 0.0
H1187 H 0.15462 0.84545 0.64714 0.0
O1188 O 0.05882 0.78561 0.6994 0.0
C1189 C 0.1096 0.79328 0.65085 0.0
Co1190 Co 0.06383 0.67369 0.55324 0.0
Co1191 Co 0.08965 0.63907 0.57868 0.0
C1192 C 0.09516 0.68656 0.58684 0.0
O1193 O 0.08209 0.69178 0.57199 0.0
O1194 O 0.09894 0.66695 0.59122 0.0
C1195 C 0.05409 0.71146 0.52859 0.0
O1196 O 0.07398 0.71705 0.5331 0.0
C1197 C 0.13006 0.62164 0.59282 0.0
C1198 C 0.12146 0.59014 0.60676 0.0
C1199 C 0.13868 0.60397 0.60342 0.0
N1200 N 0.10886 0.61848 0.59031 0.0
N1201 N 0.10374 0.59962 0.59861 0.0
C1202 C 0.1416 0.64089 0.58405 0.0
H1203 H 0.13246 0.64795 0.57042 0.0
H1204 H 0.15802 0.6365 0.57857 0.0
H1205 H 0.14285 0.65332 0.59679 0.0
C1206 C 0.08417 0.65235 0.5163 0.0
N1207 N 0.08052 0.65418 0.53751 0.0
N1208 N 0.09128 0.63918 0.54789 0.0
C1209 C 0.10212 0.62714 0.53339 0.0
C1210 C 0.09811 0.6353 0.51294 0.0
C1211 C 0.07399 0.66643 0.4996 0.0
H1212 H 0.05655 0.66806 0.50294 0.0
H1213 H 0.08135 0.68266 0.50037 0.0
H1214 H 0.07611 0.65981 0.48316 0.0
O1215 O 0.04218 0.65805 0.57053 0.0
O1216 O 0.05995 0.63316 0.5891 0.0
H1217 H 0.12094 0.59904 0.5249 0.0
H1218 H 0.13199 0.61556 0.54582 0.0
C1219 C 0.11685 0.60897 0.53912 0.0
H1220 H 0.10923 0.5987 0.55155 0.0
H1221 H 0.08816 0.59337 0.59896 0.0
O1222 O 0.04728 0.69317 0.53459 0.0
C1223 C 0.04249 0.64258 0.58393 0.0
Co1224 Co 0.92968 0.31186 0.7986 0.0
Co1225 Co 0.90182 0.34251 0.82668 0.0
C1226 C 0.95007 0.34169 0.83026 0.0
O1227 O 0.95167 0.32757 0.81551 0.0
O1228 O 0.93179 0.34871 0.83631 0.0
C1229 C 0.96246 0.29706 0.76967 0.0
O1230 O 0.97124 0.316 0.77298 0.0
C1231 C 0.88768 0.38432 0.84175 0.0
C1232 C 0.8554 0.37735 0.85491 0.0
C1233 C 0.86999 0.39389 0.85148 0.0
N1234 N 0.88365 0.36323 0.8396 0.0
N1235 N 0.86441 0.35909 0.84758 0.0
C1236 C 0.90742 0.39496 0.83297 0.0
H1237 H 0.91455 0.38507 0.81993 0.0
H1238 H 0.90358 0.41122 0.8267 0.0
H1239 H 0.91954 0.39649 0.84601 0.0
C1240 C 0.90815 0.33477 0.76348 0.0
N1241 N 0.91129 0.33096 0.7845 0.0
N1242 N 0.8991 0.34392 0.79597 0.0
C1243 C 0.8876 0.35641 0.78235 0.0
C1244 C 0.89325 0.35114 0.76139 0.0
C1245 C 0.919 0.32266 0.74571 0.0
H1246 H 0.93613 0.32756 0.74488 0.0
H1247 H 0.91128 0.32579 0.72991 0.0
H1248 H 0.91831 0.30517 0.74907 0.0
O1249 O 0.91323 0.29248 0.8174 0.0
O1250 O 0.8936 0.31382 0.83823 0.0
H1251 H 0.86213 0.37921 0.7756 0.0
H1252 H 0.88158 0.38766 0.79522 0.0
C1253 C 0.87231 0.3737 0.78918 0.0
H1254 H 0.86187 0.36771 0.80233 0.0
H1255 H 0.85733 0.34387 0.84776 0.0
O1256 O 0.94449 0.29276 0.77832 0.0
C1257 C 0.89966 0.29514 0.83245 0.0
Co1258 Co 0.55478 0.81731 0.4403 0.0
Co1259 Co 0.592 0.84123 0.41655 0.0
C1260 C 0.58915 0.79384 0.41485 0.0
O1261 O 0.57223 0.79432 0.42641 0.0
O1262 O 0.59887 0.81104 0.40956 0.0
C1263 C 0.53929 0.78594 0.46926 0.0
O1264 O 0.55959 0.78001 0.46929 0.0
C1265 C 0.63158 0.85446 0.39435 0.0
C1266 C 0.63432 0.88858 0.40391 0.0
C1267 C 0.64448 0.87247 0.39242 0.0
N1268 N 0.61448 0.8596 0.40654 0.0
N1269 N 0.61605 0.88012 0.41192 0.0
C1270 C 0.6361 0.83235 0.38601 0.0
H1271 H 0.63833 0.82124 0.3998 0.0
H1272 H 0.65077 0.83186 0.37587 0.0
H1273 H 0.6221 0.8267 0.37649 0.0
C1274 C 0.57343 0.83852 0.47781 0.0
N1275 N 0.57229 0.8356 0.45644 0.0
N1276 N 0.58927 0.84415 0.44717 0.0
C1277 C 0.60245 0.85178 0.4627 0.0
C1278 C 0.59278 0.84845 0.48263 0.0
C1279 C 0.55626 0.83187 0.49333 0.0
H1280 H 0.54018 0.83322 0.48568 0.0
H1281 H 0.55889 0.81492 0.49821 0.0
H1282 H 0.55668 0.84205 0.50799 0.0
O1283 O 0.53889 0.8333 0.41843 0.0
O1284 O 0.56516 0.84912 0.40008 0.0
H1285 H 0.6253 0.87659 0.45626 0.0
H1286 H 0.63548 0.85532 0.47299 0.0
C1287 C 0.62513 0.85895 0.45889 0.0
H1288 H 0.63188 0.85089 0.44449 0.0
H1289 H 0.6049 0.88819 0.42154 0.0
O1290 O 0.53373 0.8024 0.4585 0.0
C1291 C 0.54525 0.84499 0.40293 0.0
Co1292 Co 0.07602 0.18775 0.80483 0.0
Co1293 Co 0.09918 0.1521 0.83147 0.0
C1294 C 0.05166 0.15513 0.83182 0.0
O1295 O 0.05241 0.17121 0.81906 0.0
O1296 O 0.06873 0.14565 0.83813 0.0
C1297 C 0.04575 0.20588 0.7751 0.0
O1298 O 0.03625 0.18705 0.77642 0.0
C1299 C 0.11413 0.11308 0.85404 0.0
C1300 C 0.1492 0.11526 0.84842 0.0
C1301 C 0.13348 0.10244 0.85762 0.0
N1302 N 0.11828 0.13107 0.84281 0.0
N1303 N 0.13927 0.1324 0.83975 0.0
C1304 C 0.09231 0.10737 0.86247 0.0
H1305 H 0.08395 0.12211 0.868 0.0
H1306 H 0.08265 0.10008 0.84934 0.0
H1307 H 0.09334 0.09598 0.87617 0.0
C1308 C 0.09726 0.16572 0.76894 0.0
N1309 N 0.09454 0.16911 0.79013 0.0
N1310 N 0.10293 0.15301 0.80099 0.0
C1311 C 0.11031 0.13827 0.78687 0.0
C1312 C 0.10715 0.14598 0.76613 0.0
C1313 C 0.08759 0.17941 0.75164 0.0
H1314 H 0.07032 0.17529 0.74987 0.0
H1315 H 0.09562 0.17667 0.73595 0.0
H1316 H 0.08904 0.19664 0.75598 0.0
O1317 O 0.09124 0.20459 0.82665 0.0
O1318 O 0.10645 0.1794 0.84674 0.0
H1319 H 0.1177 0.10513 0.77898 0.0
H1320 H 0.10738 0.10962 0.80589 0.0
C1321 C 0.11777 0.1162 0.79297 0.0
H1322 H 0.13447 0.1172 0.79916 0.0
H1323 H 0.14678 0.14489 0.83142 0.0
O1324 O 0.06311 0.20904 0.78538 0.0
C1325 C 0.10231 0.19907 0.8429 0.0
Co1326 Co 0.4284 0.67891 0.4409 0.0
Co1327 Co 0.39997 0.646 0.41612 0.0
C1328 C 0.39596 0.69339 0.40858 0.0
O1329 O 0.40985 0.69778 0.42295 0.0
O1330 O 0.39103 0.67406 0.40421 0.0
C1331 C 0.43743 0.71517 0.46746 0.0
O1332 O 0.4171 0.71991 0.46406 0.0
C1333 C 0.35925 0.62936 0.40144 0.0
C1334 C 0.36695 0.59623 0.39119 0.0
C1335 C 0.35026 0.61102 0.39247 0.0
N1336 N 0.38021 0.62563 0.40506 0.0
N1337 N 0.38479 0.60582 0.39892 0.0
C1338 C 0.34806 0.64965 0.40808 0.0
H1339 H 0.35675 0.65742 0.42159 0.0
H1340 H 0.33124 0.64632 0.41306 0.0
H1341 H 0.34788 0.66104 0.39433 0.0
C1342 C 0.41025 0.65659 0.47834 0.0
N1343 N 0.41224 0.65927 0.457 0.0
N1344 N 0.39946 0.64577 0.44692 0.0
C1345 C 0.38833 0.63439 0.46172 0.0
C1346 C 0.39475 0.641 0.48219 0.0
C1347 C 0.42385 0.668 0.49464 0.0
H1348 H 0.44057 0.66949 0.48864 0.0
H1349 H 0.41731 0.68439 0.49729 0.0
H1350 H 0.42412 0.65927 0.51021 0.0
O1351 O 0.44904 0.66364 0.42234 0.0
O1352 O 0.42921 0.63996 0.40424 0.0
H1353 H 0.37764 0.60556 0.44626 0.0
H1354 H 0.36293 0.61193 0.47058 0.0
C1355 C 0.37086 0.61875 0.45618 0.0
H1356 H 0.35839 0.62701 0.44654 0.0
H1357 H 0.40006 0.5989 0.39993 0.0
O1358 O 0.44516 0.69796 0.45963 0.0
C1359 C 0.44727 0.64867 0.40852 0.0
Co1360 Co 0.69704 0.9327 0.68338 0.0
Co1361 Co 0.66933 0.90862 0.649 0.0
C1362 C 0.66474 0.95576 0.65534 0.0
O1363 O 0.67916 0.95563 0.66993 0.0
O1364 O 0.65908 0.93857 0.64579 0.0
C1365 C 0.72559 0.9649 0.6987 0.0
O1366 O 0.72195 0.97351 0.67973 0.0
C1367 C 0.64744 0.89677 0.60866 0.0
C1368 C 0.65374 0.86182 0.60755 0.0
C1369 C 0.64502 0.87865 0.5958 0.0
N1370 N 0.65778 0.89095 0.62677 0.0
N1371 N 0.66114 0.86999 0.62616 0.0
C1372 C 0.63892 0.91894 0.60468 0.0
H1373 H 0.63159 0.92526 0.61964 0.0
H1374 H 0.65238 0.92969 0.60002 0.0
H1375 H 0.6264 0.91906 0.59196 0.0
C1376 C 0.73252 0.91499 0.65791 0.0
N1377 N 0.71145 0.91694 0.66233 0.0
N1378 N 0.70009 0.90794 0.64688 0.0
C1379 C 0.71377 0.90083 0.63156 0.0
C1380 C 0.73464 0.9049 0.63826 0.0
C1381 C 0.75026 0.92407 0.67143 0.0
H1382 H 0.74662 0.92165 0.68872 0.0
H1383 H 0.75164 0.94156 0.66823 0.0
H1384 H 0.76594 0.91644 0.6676 0.0
O1385 O 0.67909 0.91381 0.70099 0.0
O1386 O 0.65824 0.89728 0.67714 0.0
H1387 H 0.70203 0.87472 0.61266 0.0
H1388 H 0.72065 0.89182 0.59866 0.0
C1389 C 0.70714 0.89163 0.61034 0.0
H1390 H 0.69343 0.9009 0.60367 0.0
H1391 H 0.66917 0.86139 0.63816 0.0
O1392 O 0.71716 0.94686 0.70319 0.0
C1393 C 0.66404 0.90074 0.69651 0.0
Co1394 Co 0.69573 0.07669 0.80871 0.0
Co1395 Co 0.67034 0.09542 0.84774 0.0
C1396 C 0.67061 0.04843 0.83919 0.0
O1397 O 0.68288 0.05095 0.82296 0.0
O1398 O 0.66445 0.06437 0.85044 0.0
C1399 C 0.72642 0.04954 0.78884 0.0
O1400 O 0.72707 0.04073 0.80806 0.0
C1401 C 0.64892 0.10244 0.88919 0.0
C1402 C 0.65249 0.13758 0.89333 0.0
C1403 C 0.64452 0.11924 0.90306 0.0
N1404 N 0.65909 0.11044 0.87189 0.0
N1405 N 0.66099 0.13148 0.87436 0.0
C1406 C 0.64484 0.07903 0.89293 0.0
H1407 H 0.66014 0.07 0.89125 0.0
H1408 H 0.63808 0.07593 0.90915 0.0
H1409 H 0.63344 0.07308 0.88056 0.0
C1410 C 0.73182 0.09829 0.83021 0.0
N1411 N 0.71076 0.09373 0.82849 0.0
N1412 N 0.70065 0.10037 0.84583 0.0
C1413 C 0.71528 0.10851 0.85969 0.0
C1414 C 0.73552 0.10752 0.85019 0.0
C1415 C 0.74802 0.09411 0.81288 0.0
H1416 H 0.74055 0.09641 0.79684 0.0
H1417 H 0.7538 0.07729 0.81414 0.0
H1418 H 0.76203 0.10507 0.81445 0.0
O1419 O 0.67272 0.09293 0.79462 0.0
O1420 O 0.65377 0.10556 0.82208 0.0
H1421 H 0.70521 0.13139 0.88325 0.0
H1422 H 0.72487 0.11245 0.89292 0.0
C1423 C 0.71045 0.11435 0.88256 0.0
H1424 H 0.69738 0.10405 0.88894 0.0
H1425 H 0.66845 0.14161 0.86324 0.0
O1426 O 0.71468 0.06597 0.78584 0.0
C1427 C 0.65668 0.10327 0.80192 0.0
Co1428 Co 0.32383 0.05685 0.44371 0.0
Co1429 Co 0.35139 0.08134 0.40942 0.0
C1430 C 0.30452 0.09071 0.41549 0.0
O1431 O 0.30229 0.07618 0.42975 0.0
O1432 O 0.32264 0.09438 0.40681 0.0
C1433 C 0.28991 0.03038 0.45865 0.0
O1434 O 0.2828 0.03296 0.43889 0.0
C1435 C 0.36241 0.10174 0.36847 0.0
C1436 C 0.39653 0.09256 0.36455 0.0
C1437 C 0.37941 0.1023 0.35406 0.0
N1438 N 0.36891 0.09136 0.38631 0.0
N1439 N 0.38946 0.08633 0.38405 0.0
C1440 C 0.34077 0.11206 0.36603 0.0
H1441 H 0.33683 0.12109 0.38088 0.0
H1442 H 0.32839 0.09944 0.36358 0.0
H1443 H 0.34034 0.12359 0.35244 0.0
C1444 C 0.33975 0.01924 0.41996 0.0
N1445 N 0.33877 0.04056 0.4233 0.0
N1446 N 0.34925 0.05064 0.40792 0.0
C1447 C 0.35635 0.03591 0.39362 0.0
C1448 C 0.35069 0.01555 0.4009 0.0
C1449 C 0.33137 0.00274 0.43537 0.0
H1450 H 0.33319 0.0085 0.45214 0.0
H1451 H 0.31404 -8e-05 0.43211 0.0
H1452 H 0.3401 0.98727 0.4336 0.0
O1453 O 0.34402 0.07387 0.46088 0.0
O1454 O 0.36391 0.09177 0.43716 0.0
H1455 H 0.38365 0.04395 0.37437 0.0
H1456 H 0.36385 0.02795 0.36058 0.0
C1457 C 0.36614 0.04123 0.37227 0.0
H1458 H 0.35867 0.05596 0.36559 0.0
H1459 H 0.39838 0.07782 0.39546 0.0
O1460 O 0.30785 0.03859 0.46392 0.0
C1461 C 0.35901 0.08706 0.45651 0.0
Co1462 Co 0.30056 0.43263 0.81482 0.0
Co1463 Co 0.32826 0.40396 0.84516 0.0
C1464 C 0.32965 0.45165 0.84866 0.0
O1465 O 0.31606 0.45339 0.83342 0.0
O1466 O 0.33616 0.43331 0.85507 0.0
C1467 C 0.27205 0.46681 0.80283 0.0
O1468 O 0.27546 0.47375 0.8225 0.0
C1469 C 0.34535 0.38522 0.88472 0.0
C1470 C 0.35734 0.35374 0.87333 0.0
C1471 C 0.3556 0.36652 0.89154 0.0
N1472 N 0.34143 0.38349 0.86355 0.0
N1473 N 0.34865 0.36469 0.85681 0.0
C1474 C 0.338 0.40391 0.89801 0.0
H1475 H 0.35142 0.41556 0.89967 0.0
H1476 H 0.3244 0.41227 0.89002 0.0
H1477 H 0.33295 0.39852 0.91426 0.0
C1478 C 0.26521 0.40895 0.83511 0.0
N1479 N 0.28632 0.4121 0.83164 0.0
N1480 N 0.29762 0.40025 0.84507 0.0
C1481 C 0.28382 0.38933 0.85783 0.0
C1482 C 0.2629 0.39455 0.85195 0.0
C1483 C 0.24781 0.42185 0.82453 0.0
H1484 H 0.25055 0.42231 0.80691 0.0
H1485 H 0.24835 0.43854 0.83077 0.0
H1486 H 0.23159 0.4152 0.82768 0.0
O1487 O 0.32081 0.41897 0.79463 0.0
O1488 O 0.3415 0.39957 0.81628 0.0
H1489 H 0.3038 0.36456 0.87117 0.0
H1490 H 0.27664 0.36505 0.8816 0.0
C1491 C 0.29033 0.37512 0.87613 0.0
H1492 H 0.29575 0.38521 0.8898 0.0
H1493 H 0.34758 0.35932 0.84093 0.0
O1494 O 0.28044 0.44917 0.79687 0.0
C1495 C 0.33668 0.40643 0.7976 0.0
Co1496 Co 0.17569 0.94064 0.93829 0.0
Co1497 Co 0.15426 0.91675 0.89958 0.0
C1498 C 0.20153 0.91674 0.90448 0.0
O1499 O 0.19996 0.92789 0.9216 0.0
O1500 O 0.18494 0.91126 0.89384 0.0
C1501 C 0.20542 0.97029 0.95547 0.0
O1502 O 0.21137 0.97145 0.93522 0.0
C1503 C 0.1442 0.89424 0.85952 0.0
C1504 C 0.11093 0.90495 0.85309 0.0
C1505 C 0.12786 0.89338 0.84424 0.0
N1506 N 0.13753 0.90654 0.876 0.0
N1507 N 0.11743 0.91238 0.87234 0.0
C1508 C 0.16487 0.8819 0.85984 0.0
H1509 H 0.16911 0.87758 0.87663 0.0
H1510 H 0.17794 0.89203 0.85311 0.0
H1511 H 0.16354 0.86686 0.85033 0.0
C1512 C 0.15254 0.97745 0.92001 0.0
N1513 N 0.15728 0.95638 0.9204 0.0
N1514 N 0.14978 0.94709 0.90294 0.0
C1515 C 0.14115 0.96241 0.89015 0.0
C1516 C 0.14234 0.98209 0.90071 0.0
C1517 C 0.15765 0.99275 0.93789 0.0
H1518 H 0.15667 0.98437 0.95362 0.0
H1519 H 0.17425 -0.00106 0.93581 0.0
H1520 H 0.14636 0.00658 0.93784 0.0
O1521 O 0.15997 0.91769 0.95289 0.0
O1522 O 0.14602 0.89939 0.92552 0.0
H1523 H 0.11795 0.95634 0.86546 0.0
H1524 H 0.13949 0.9737 0.85736 0.0
C1525 C 0.1355 0.95918 0.86694 0.0
H1526 H 0.14439 0.94528 0.86019 0.0
H1527 H 0.10835 0.92197 0.88273 0.0
O1528 O 0.18926 0.9588 0.9604 0.0
C1529 C 0.14921 0.9019 0.94563 0.0
Co1530 Co 0.80892 0.06924 0.18599 0.0
Co1531 Co 0.83062 0.10245 0.15527 0.0
C1532 C 0.83767 0.05452 0.15142 0.0
O1533 O 0.82428 0.04969 0.16609 0.0
O1534 O 0.84166 0.07396 0.1467 0.0
C1535 C 0.78425 0.03337 0.2009 0.0
O1536 O 0.78581 0.02682 0.18087 0.0
C1537 C 0.84054 0.11471 0.11205 0.0
C1538 C 0.85513 0.14692 0.11504 0.0
C1539 C 0.85055 0.13075 0.10035 0.0
N1540 N 0.83956 0.12085 0.13271 0.0
N1541 N 0.84812 0.14021 0.13446 0.0
C1542 C 0.83131 0.09406 0.10373 0.0
H1543 H 0.8177 0.08877 0.11401 0.0
H1544 H 0.82572 0.09596 0.08687 0.0
H1545 H 0.84386 0.08138 0.10418 0.0
C1546 C 0.76961 0.08964 0.16925 0.0
N1547 N 0.79113 0.08833 0.17082 0.0
N1548 N 0.79999 0.10253 0.15786 0.0
C1549 C 0.78421 0.11338 0.14757 0.0
C1550 C 0.76448 0.10535 0.15433 0.0
C1551 C 0.75423 0.07577 0.18151 0.0
H1552 H 0.75445 0.05931 0.17466 0.0
H1553 H 0.73757 0.08216 0.1807 0.0
H1554 H 0.75924 0.07485 0.19861 0.0
O1555 O 0.83021 0.08511 0.20357 0.0
O1556 O 0.8456 0.10968 0.18259 0.0
H1557 H 0.77316 0.13898 0.12668 0.0
H1558 H 0.7933 0.1215 0.11545 0.0
C1559 C 0.78799 0.12975 0.13034 0.0
H1560 H 0.80089 0.14097 0.13541 0.0
H1561 H 0.84978 0.14853 0.14895 0.0
O1562 O 0.79236 0.05135 0.20619 0.0
C1563 C 0.84355 0.10039 0.20075 0.0
Co1564 Co 0.315 0.9403 0.06608 0.0
Co1565 Co 0.34764 0.91548 0.09552 0.0
C1566 C 0.3006 0.9061 0.09702 0.0
O1567 O 0.2965 0.92047 0.08303 0.0
O1568 O 0.31974 0.9024 0.10322 0.0
C1569 C 0.27759 0.96523 0.05724 0.0
O1570 O 0.27288 0.96075 0.07736 0.0
C1571 C 0.36649 0.89362 0.13277 0.0
C1572 C 0.40036 0.90429 0.1315 0.0
C1573 C 0.38574 0.89314 0.14409 0.0
N1574 N 0.36936 0.90527 0.11479 0.0
N1575 N 0.38977 0.91116 0.11386 0.0
C1576 C 0.34606 0.88199 0.13808 0.0
H1577 H 0.33977 0.87408 0.12339 0.0
H1578 H 0.33389 0.89369 0.1439 0.0
H1579 H 0.34864 0.86938 0.15043 0.0
C1580 C 0.33467 0.9777 0.08707 0.0
N1581 N 0.33309 0.95638 0.08397 0.0
N1582 N 0.34587 0.94624 0.09746 0.0
C1583 C 0.35529 0.96095 0.11039 0.0
C1584 C 0.34866 0.98137 0.10408 0.0
C1585 C 0.32376 0.99413 0.07323 0.0
H1586 H 0.32311 0.98843 0.05634 0.0
H1587 H 0.30706 0.99654 0.07903 0.0
H1588 H 0.33237 0.00974 0.07372 0.0
O1589 O 0.33209 0.92371 0.04535 0.0
O1590 O 0.35488 0.90524 0.06589 0.0
H1591 H 0.38545 0.95356 0.12515 0.0
H1592 H 0.36742 0.96856 0.14208 0.0
C1593 C 0.36837 0.95556 0.1299 0.0
H1594 H 0.36252 0.94043 0.13726 0.0
H1595 H 0.39626 0.92067 0.10163 0.0
O1596 O 0.29538 0.9588 0.04949 0.0
C1597 C 0.34727 0.91017 0.04749 0.0
Co1598 Co 0.67762 0.55603 0.05583 0.0
Co1599 Co 0.64664 0.57777 0.08918 0.0
C1600 C 0.69458 0.58528 0.08939 0.0
O1601 O 0.69817 0.57222 0.07404 0.0
O1602 O 0.67559 0.58898 0.09606 0.0
C1603 C 0.71223 0.53095 0.03875 0.0
O1604 O 0.72088 0.53356 0.05787 0.0
C1605 C 0.6326 0.59465 0.13085 0.0
C1606 C 0.59808 0.5862 0.13131 0.0
C1607 C 0.61451 0.59453 0.14389 0.0
N1608 N 0.62736 0.58596 0.11174 0.0
N1609 N 0.6066 0.58134 0.11197 0.0
C1610 C 0.65407 0.60443 0.13575 0.0
H1611 H 0.65925 0.61443 0.12194 0.0
H1612 H 0.66609 0.59147 0.13829 0.0
H1613 H 0.65353 0.61496 0.15012 0.0
C1614 C 0.66066 0.51683 0.07544 0.0
N1615 N 0.6603 0.53828 0.07283 0.0
N1616 N 0.6479 0.547 0.08762 0.0
C1617 C 0.64049 0.53116 0.10056 0.0
C1618 C 0.64837 0.51167 0.09315 0.0
C1619 C 0.67352 0.50152 0.06203 0.0
H1620 H 0.67227 0.50597 0.04481 0.0
H1621 H 0.69062 0.50227 0.06706 0.0
H1622 H 0.66777 0.48475 0.0641 0.0
O1623 O 0.66029 0.57625 0.03892 0.0
O1624 O 0.63746 0.59183 0.06161 0.0
H1625 H 0.61167 0.53894 0.11749 0.0
H1626 H 0.62857 0.51997 0.13132 0.0
C1627 C 0.62858 0.53466 0.12118 0.0
H1628 H 0.63606 0.54802 0.13032 0.0
H1629 H 0.59842 0.57412 0.0992 0.0
O1630 O 0.6939 0.53905 0.03483 0.0
C1631 C 0.64509 0.58934 0.04274 0.0
H1632 H 0.10702 0.31979 0.3558 0.0
H1633 H 0.11162 0.33598 0.42326 0.0
H1634 H 0.12576 0.30033 0.43104 0.0
H1635 H 0.1367 0.26474 0.41893 0.0
H1636 H 0.13668 0.24954 0.35129 0.0
H1637 H 0.12082 0.28481 0.34322 0.0
C1638 C 0.11182 0.31592 0.37208 0.0
C1639 C 0.10875 0.3309 0.38882 0.0
C1640 C 0.12049 0.29549 0.37643 0.0
C1641 C 0.11393 0.32489 0.41002 0.0
C1642 C 0.12203 0.3045 0.41452 0.0
C1643 C 0.13357 0.26926 0.40237 0.0
C1644 C 0.13785 0.25464 0.38571 0.0
C1645 C 0.12537 0.28972 0.39787 0.0
C1646 C 0.13322 0.26048 0.36439 0.0
C1647 C 0.12434 0.28067 0.35979 0.0
H1648 H 0.50515 0.61337 0.88013 0.0
H1649 H 0.51256 0.60236 0.81205 0.0
H1650 H 0.5495 0.61557 0.81354 0.0
H1651 H 0.57997 0.6292 0.83434 0.0
H1652 H 0.57164 0.64381 0.90169 0.0
H1653 H 0.53495 0.63013 0.90043 0.0
C1654 C 0.51481 0.61419 0.86563 0.0
C1655 C 0.50635 0.60668 0.84609 0.0
C1656 C 0.53597 0.62209 0.86655 0.0
C1657 C 0.51895 0.6077 0.82736 0.0
C1658 C 0.54002 0.6153 0.82818 0.0
C1659 C 0.57015 0.62937 0.84877 0.0
C1660 C 0.57897 0.63653 0.8683 0.0
C1661 C 0.54878 0.62228 0.84773 0.0
C1662 C 0.56582 0.63716 0.88671 0.0
C1663 C 0.54462 0.62972 0.88592 0.0
H1664 H 0.87481 0.24278 0.37333 0.0
H1665 H 0.83064 0.22741 0.42457 0.0
H1666 H 0.84492 0.191 0.42647 0.0
H1667 H 0.86911 0.16304 0.41255 0.0
H1668 H 0.91635 0.17962 0.3646 0.0
H1669 H 0.90226 0.21629 0.36288 0.0
C1670 C 0.86852 0.23153 0.38508 0.0
C1671 C 0.85123 0.23754 0.39827 0.0
C1672 C 0.87742 0.21089 0.38671 0.0
C1673 C 0.84327 0.22287 0.41352 0.0
C1674 C 0.85166 0.20213 0.41487 0.0
C1675 C 0.87642 0.17479 0.40191 0.0
C1676 C 0.89298 0.16852 0.38797 0.0
C1677 C 0.86855 0.19589 0.40135 0.0
C1678 C 0.90281 0.18392 0.37468 0.0
C1679 C 0.89489 0.20489 0.37381 0.0
H1680 H 0.43307 0.84337 0.84952 0.0
H1681 H 0.41727 0.88928 0.89895 0.0
H1682 H 0.45406 0.90343 0.89802 0.0
H1683 H 0.49009 0.90401 0.88146 0.0
H1684 H 0.5061 0.85762 0.83262 0.0
H1685 H 0.46998 0.84196 0.83515 0.0
C1686 C 0.43782 0.85641 0.8601 0.0
C1687 C 0.42271 0.86543 0.87419 0.0
C1688 C 0.45899 0.86417 0.85966 0.0
C1689 C 0.42884 0.88214 0.88804 0.0
C1690 C 0.44979 0.89021 0.8875 0.0
C1691 C 0.48567 0.89018 0.87177 0.0
C1692 C 0.50046 0.88175 0.85702 0.0
C1693 C 0.46492 0.88148 0.87322 0.0
C1694 C 0.49482 0.86405 0.84425 0.0
C1695 C 0.4742 0.85528 0.84557 0.0
H1696 H 0.12926 0.7337 0.07615 0.0
H1697 H 0.14574 0.74042 0.14311 0.0
H1698 H 0.13519 0.70295 0.14974 0.0
H1699 H 0.12394 0.66785 0.13564 0.0
H1700 H 0.10632 0.6616 0.06873 0.0
H1701 H 0.11542 0.69929 0.06265 0.0
C1702 C 0.13022 0.72694 0.09222 0.0
C1703 C 0.13814 0.73953 0.10917 0.0
C1704 C 0.12431 0.70551 0.09577 0.0
C1705 C 0.13948 0.73087 0.12994 0.0
C1706 C 0.13362 0.70949 0.13365 0.0
C1707 C 0.12136 0.67482 0.1199 0.0
C1708 C 0.11397 0.66199 0.10278 0.0
C1709 C 0.1263 0.69658 0.1166 0.0
C1710 C 0.11192 0.67114 0.0822 0.0
C1711 C 0.11702 0.6927 0.07872 0.0
H1712 H 0.93286 0.63235 0.10391 0.0
H1713 H 0.92039 0.626 0.17197 0.0
H1714 H 0.9571 0.61317 0.17759 0.0
H1715 H 0.99215 0.60281 0.16305 0.0
H1716 H 0.00275 0.60369 0.09451 0.0
H1717 H 0.96706 0.61959 0.08902 0.0
C1718 C 0.93775 0.62738 0.11986 0.0
C1719 C 0.92353 0.62935 0.13738 0.0
C1720 C 0.95859 0.61932 0.12287 0.0
C1721 C 0.93089 0.62432 0.15816 0.0
C1722 C 0.95185 0.61699 0.16139 0.0
C1723 C 0.98655 0.6063 0.14689 0.0
C1724 C 2e-05 0.60228 0.1292 0.0
C1725 C 0.96574 0.61427 0.14384 0.0
C1726 C 0.9928 0.60714 0.10838 0.0
C1727 C 0.97234 0.61597 0.10525 0.0
H1728 H 0.89972 0.81312 0.08871 0.0
H1729 H 0.8539 0.83146 0.13739 0.0
H1730 H 0.8408 0.79444 0.13959 0.0
H1731 H 0.84183 0.75705 0.1269 0.0
H1732 H 0.88782 0.73836 0.07864 0.0
H1733 H 0.90182 0.77522 0.07716 0.0
C1734 C 0.88684 0.80889 0.0997 0.0
C1735 C 0.87769 0.82473 0.11285 0.0
C1736 C 0.87968 0.78756 0.1011 0.0
C1737 C 0.86116 0.81931 0.12723 0.0
C1738 C 0.85371 0.79822 0.12849 0.0
C1739 C 0.85517 0.76112 0.11639 0.0
C1740 C 0.86407 0.74532 0.10309 0.0
C1741 C 0.86285 0.78224 0.11552 0.0
C1742 C 0.88108 0.75046 0.08922 0.0
C1743 C 0.8889 0.77148 0.08824 0.0
H1744 H -0.00056 0.88616 0.10697 0.0
H1745 H 0.9933 0.87261 0.17463 0.0
H1746 H 0.02913 0.85619 0.17505 0.0
H1747 H 0.06309 0.84802 0.1566 0.0
H1748 H 0.07007 0.864 0.08943 0.0
H1749 H 0.03309 0.87684 0.08821 0.0
C1750 C 0.00592 0.87924 0.12163 0.0
C1751 C 0.99401 0.88037 0.1407 0.0
C1752 C 0.02667 0.87033 0.12182 0.0
C1753 C 0.0024 0.87172 0.15978 0.0
C1754 C 0.02284 0.86246 0.16003 0.0
C1755 C 0.05641 0.85415 0.14168 0.0
C1756 C 0.06913 0.85452 0.12304 0.0
C1757 C 0.03528 0.86205 0.14123 0.0
C1758 C 0.06041 0.86272 0.10383 0.0
C1759 C 0.0393 0.87035 0.10317 0.0
H1760 H 0.36467 0.13162 0.25791 0.0
H1761 H 0.4309 0.15084 0.26543 0.0
H1762 H 0.43104 0.13765 0.30233 0.0
H1763 H 0.41213 0.12122 0.33278 0.0
H1764 H 0.34716 0.09844 0.32421 0.0
H1765 H 0.34672 0.11225 0.28749 0.0
C1766 C 0.37911 0.13277 0.26765 0.0
C1767 C 0.39749 0.14278 0.25927 0.0
C1768 C 0.37926 0.12462 0.28871 0.0
C1769 C 0.41625 0.14399 0.27186 0.0
C1770 C 0.41644 0.13622 0.29288 0.0
C1771 C 0.39789 0.11931 0.32285 0.0
C1772 C 0.37938 0.1098 0.33151 0.0
C1773 C 0.39797 0.12671 0.30155 0.0
C1774 C 0.36123 0.10682 0.31831 0.0
C1775 C 0.36105 0.11443 0.29719 0.0
H1776 H 0.38571 0.32519 0.97935 0.0
H1777 H 0.39596 0.39181 0.99523 0.0
H1778 H 0.38373 0.40259 0.9593 0.0
H1779 H 0.37108 0.39279 0.92336 0.0
H1780 H 0.35833 0.32627 0.90822 0.0
H1781 H 0.37131 0.31555 0.94372 0.0
C1782 C 0.38526 0.34203 0.9748 0.0
C1783 C 0.39178 0.35775 0.98958 0.0
C1784 C 0.37792 0.34805 0.95434 0.0
C1785 C 0.39097 0.37954 0.9839 0.0
C1786 C 0.38404 0.38566 0.96343 0.0
C1787 C 0.37041 0.37604 0.92796 0.0
C1788 C 0.36313 0.36044 0.91331 0.0
C1789 C 0.37745 0.37004 0.94854 0.0
C1790 C 0.3637 0.33864 0.91926 0.0
C1791 C 0.37106 0.33248 0.93956 0.0
H1792 H 0.58067 0.36723 0.25068 0.0
H1793 H 0.6471 0.34863 0.24398 0.0
H1794 H 0.65489 0.36242 0.28015 0.0
H1795 H 0.64191 0.37698 0.31446 0.0
H1796 H 0.57524 0.3951 0.32127 0.0
H1797 H 0.56813 0.38361 0.28432 0.0
C1798 C 0.59688 0.36644 0.25715 0.0
C1799 C 0.61336 0.35708 0.24491 0.0
C1800 C 0.60103 0.37398 0.27795 0.0
C1801 C 0.63431 0.35605 0.25319 0.0
C1802 C 0.63867 0.36374 0.27386 0.0
C1803 C 0.62598 0.37904 0.30768 0.0
C1804 C 0.6092 0.38731 0.32039 0.0
C1805 C 0.62207 0.37243 0.28649 0.0
C1806 C 0.58841 0.38886 0.31171 0.0
C1807 C 0.58436 0.38237 0.29061 0.0
H1808 H 0.6609 0.13204 0.94103 0.0
H1809 H 0.60471 0.10389 0.91181 0.0
H1810 H 0.58655 0.10296 0.9468 0.0
H1811 H 0.58624 0.11187 0.98541 0.0
H1812 H 0.64272 0.13916 0.01483 0.0
H1813 H 0.66156 0.13836 0.98019 0.0
C1814 C 0.64471 0.12568 0.94248 0.0
C1815 C 0.63398 0.11815 0.92414 0.0
C1816 C 0.6346 0.12491 0.96262 0.0
C1817 C 0.61313 0.10972 0.92592 0.0
C1818 C 0.60281 0.10919 0.94584 0.0
C1819 C 0.60278 0.11731 0.98415 0.0
C1820 C 0.6132 0.1256 0.00234 0.0
C1821 C 0.61334 0.11691 0.96425 0.0
C1822 C 0.63458 0.13262 0.00086 0.0
C1823 C 0.64523 0.13233 0.9811 0.0
H1824 H 0.35846 0.89428 0.17828 0.0
H1825 H 0.42252 0.87517 0.15965 0.0
H1826 H 0.42919 0.86156 0.19603 0.0
H1827 H 0.41632 0.85431 0.23267 0.0
H1828 H 0.35096 0.86999 0.24994 0.0
H1829 H 0.34512 0.88574 0.21432 0.0
C1830 C 0.37365 0.88652 0.18192 0.0
C1831 C 0.38969 0.88493 0.16606 0.0
C1832 C 0.37711 0.87828 0.20261 0.0
C1833 C 0.4098 0.8762 0.17152 0.0
C1834 C 0.41359 0.86842 0.19227 0.0
C1835 C 0.40068 0.86082 0.22851 0.0
C1836 C 0.384 0.86079 0.24378 0.0
C1837 C 0.39726 0.86916 0.20784 0.0
C1838 C 0.36406 0.86997 0.23846 0.0
C1839 C 0.36069 0.87883 0.21809 0.0
H1840 H 0.12662 0.39039 0.07702 0.0
H1841 H 0.14321 0.3235 0.08538 0.0
H1842 H 0.13311 0.31616 0.04818 0.0
H1843 H 0.11845 0.32842 0.01369 0.0
H1844 H 0.10203 0.39511 0.00487 0.0
H1845 H 0.11411 0.40317 0.04163 0.0
C1846 C 0.12865 0.37435 0.07058 0.0
C1847 C 0.13603 0.35759 0.08391 0.0
C1848 C 0.12295 0.37026 0.04908 0.0
C1849 C 0.13758 0.33669 0.07547 0.0
C1850 C 0.1319 0.33248 0.05418 0.0
C1851 C 0.11777 0.34475 0.01983 0.0
C1852 C 0.10944 0.36119 0.00682 0.0
C1853 C 0.12443 0.34909 0.04091 0.0
C1854 C 0.1086 0.3823 0.01469 0.0
C1855 C 0.11532 0.38682 0.0357 0.0
H1856 H 0.62432 0.62276 0.24082 0.0
H1857 H 0.56024 0.64651 0.22887 0.0
H1858 H 0.56106 0.63178 0.19252 0.0
H1859 H 0.58093 0.61411 0.16332 0.0
H1860 H 0.64383 0.58772 0.17605 0.0
H1861 H 0.64251 0.60126 0.21289 0.0
C1862 C 0.61047 0.62441 0.23031 0.0
C1863 C 0.59252 0.63618 0.2372 0.0
C1864 C 0.61093 0.61561 0.20951 0.0
C1865 C 0.57456 0.63813 0.22359 0.0
C1866 C 0.57494 0.62957 0.20287 0.0
C1867 C 0.59427 0.61123 0.17423 0.0
C1868 C 0.61286 0.60091 0.16673 0.0
C1869 C 0.59321 0.61868 0.1955 0.0
C1870 C 0.6298 0.5967 0.18115 0.0
C1871 C 0.62896 0.6042 0.20229 0.0
H1872 H 0.88972 0.11428 0.00826 0.0
H1873 H 0.87412 0.18135 0.00138 0.0
H1874 H 0.85757 0.18162 0.03718 0.0
H1875 H 0.85008 0.16325 0.07146 0.0
H1876 H 0.86805 0.09668 0.07892 0.0
H1877 H 0.88095 0.09557 0.042 0.0
C1878 C 0.88225 0.12874 0.01455 0.0
C1879 C 0.88281 0.14769 0.00246 0.0
C1880 C 0.87335 0.12887 0.03527 0.0
C1881 C 0.87356 0.16657 0.01061 0.0
C1882 C 0.86428 0.16675 0.03104 0.0
C1883 C 0.85666 0.1485 0.06487 0.0
C1884 C 0.85759 0.12996 0.07769 0.0
C1885 C 0.86449 0.1481 0.04371 0.0
C1886 C 0.86637 0.11096 0.06914 0.0
C1887 C 0.874 0.11036 0.04807 0.0
H1888 H 0.31635 0.35283 0.10298 0.0
H1889 H 0.33118 0.41982 0.11349 0.0
H1890 H 0.29563 0.4253 0.1293 0.0
H1891 H 0.26119 0.41073 0.14151 0.0
H1892 H 0.24848 0.34282 0.13609 0.0
H1893 H 0.28266 0.33781 0.11701 0.0
C1894 C 0.3122 0.36847 0.10941 0.0
C1895 C 0.32679 0.3857 0.10787 0.0
C1896 C 0.29211 0.3713 0.11922 0.0
C1897 C 0.32039 0.40621 0.11482 0.0
C1898 C 0.3001 0.40935 0.12389 0.0
C1899 C 0.26603 0.39479 0.13637 0.0
C1900 C 0.25246 0.37714 0.14015 0.0
C1901 C 0.286 0.39195 0.12643 0.0
C1902 C 0.25861 0.35665 0.13303 0.0
C1903 C 0.27817 0.35379 0.12232 0.0
H1904 H 0.32241 0.64006 0.37466 0.0
H1905 H 0.3281 0.57344 0.39328 0.0
H1906 H 0.29137 0.56676 0.3809 0.0
H1907 H 0.25803 0.57977 0.36407 0.0
H1908 H 0.25183 0.64652 0.34675 0.0
H1909 H 0.28825 0.65366 0.3604 0.0
C1910 C 0.31545 0.62426 0.37677 0.0
C1911 C 0.32781 0.60739 0.38544 0.0
C1912 C 0.29425 0.62065 0.36998 0.0
C1913 C 0.31886 0.58671 0.38678 0.0
C1914 C 0.29786 0.5829 0.3798 0.0
C1915 C 0.26466 0.59591 0.36361 0.0
C1916 C 0.25258 0.61267 0.35456 0.0
C1917 C 0.28547 0.59974 0.37133 0.0
C1918 C 0.26103 0.63352 0.35385 0.0
C1919 C 0.2818 0.63751 0.36149 0.0
H1920 H 0.89944 0.424 0.86453 0.0
H1921 H 0.83185 0.41493 0.85123 0.0
H1922 H 0.82462 0.45205 0.86161 0.0
H1923 H 0.83724 0.48647 0.87601 0.0
H1924 H 0.90463 0.49603 0.88888 0.0
H1925 H 0.91251 0.45944 0.87617 0.0
C1926 C 0.88325 0.43027 0.8632 0.0
C1927 C 0.86626 0.41678 0.85673 0.0
C1928 C 0.87923 0.45169 0.86903 0.0
C1929 C 0.84521 0.42499 0.85615 0.0
C1930 C 0.84106 0.44622 0.862 0.0
C1931 C 0.85367 0.48055 0.87567 0.0
C1932 C 0.8704 0.49362 0.88324 0.0
C1933 C 0.85791 0.45961 0.86865 0.0
C1934 C 0.89163 0.48607 0.88291 0.0
C1935 C 0.89605 0.46519 0.87582 0.0
H1936 H 0.68238 0.88228 0.41093 0.0
H1937 H 0.65322 0.86609 0.35018 0.0
H1938 H 0.68824 0.86894 0.33223 0.0
H1939 H 0.72703 0.87704 0.33388 0.0
H1940 H 0.75634 0.89235 0.39479 0.0
H1941 H 0.72153 0.88847 0.41289 0.0
C1942 C 0.68383 0.87942 0.39377 0.0
C1943 C 0.6655 0.87409 0.38175 0.0
C1944 C 0.70399 0.88074 0.38374 0.0
C1945 C 0.66731 0.87018 0.3596 0.0
C1946 C 0.68725 0.87179 0.34941 0.0
C1947 C 0.7257 0.87931 0.35114 0.0
C1948 C 0.74397 0.885 0.36308 0.0
C1949 C 0.70568 0.87714 0.36131 0.0
C1950 C 0.74235 0.88784 0.38541 0.0
C1951 C 0.72248 0.88578 0.39568 0.0
H1952 H 0.6259 0.51758 0.40717 0.0
H1953 H 0.64699 0.48942 0.34748 0.0
H1954 H 0.64248 0.52396 0.32912 0.0
H1955 H 0.63402 0.56253 0.33055 0.0
H1956 H 0.61193 0.59069 0.38987 0.0
H1957 H 0.61537 0.55586 0.40809 0.0
C1958 C 0.62928 0.51911 0.39011 0.0
C1959 C 0.63673 0.50124 0.37857 0.0
C1960 C 0.62663 0.53897 0.37975 0.0
C1961 C 0.64108 0.5031 0.35651 0.0
C1962 C 0.63864 0.52281 0.34609 0.0
C1963 C 0.62993 0.56091 0.34745 0.0
C1964 C 0.62276 0.57889 0.35897 0.0
C1965 C 0.63169 0.54089 0.35762 0.0
C1966 C 0.61735 0.57685 0.38078 0.0
C1967 C 0.61935 0.55702 0.39115 0.0
H1968 H 0.22995 0.57255 0.63506 0.0
H1969 H 0.23964 0.64075 0.64211 0.0
H1970 H 0.20317 0.64759 0.62851 0.0
H1971 H 0.1682 0.63381 0.61687 0.0
H1972 H 0.15915 0.56562 0.60768 0.0
H1973 H 0.19564 0.55894 0.62077 0.0
C1974 C 0.22399 0.58888 0.6335 0.0
C1975 C 0.23709 0.60618 0.63969 0.0
C1976 C 0.20321 0.59259 0.62559 0.0
C1977 C 0.22961 0.6273 0.63742 0.0
C1978 C 0.20882 0.63115 0.62976 0.0
C1979 C 0.17435 0.61755 0.61688 0.0
C1980 C 0.16109 0.60029 0.61067 0.0
C1981 C 0.19544 0.61389 0.62398 0.0
C1982 C 0.16907 0.57921 0.61222 0.0
C1983 C 0.18994 0.57537 0.61963 0.0
H1984 H 0.88662 0.5707 0.6167 0.0
H1985 H 0.82231 0.57742 0.64193 0.0
H1986 H 0.81434 0.54021 0.63224 0.0
H1987 H 0.82531 0.5062 0.61573 0.0
H1988 H 0.88907 0.49947 0.58946 0.0
H1989 H 0.89801 0.53612 0.60109 0.0
C1990 C 0.87105 0.56386 0.62051 0.0
C1991 C 0.85517 0.57662 0.63031 0.0
C1992 C 0.86656 0.54251 0.61478 0.0
C1993 C 0.83478 0.56783 0.63442 0.0
C1994 C 0.83023 0.54659 0.62895 0.0
C1995 C 0.84118 0.51281 0.61267 0.0
C1996 C 0.85657 0.5004 0.60184 0.0
C1997 C 0.84594 0.53386 0.61899 0.0
C1998 C 0.87711 0.50885 0.59798 0.0
C1999 C 0.88212 0.52978 0.60448 0.0
H2000 H 0.1628 0.9892 0.61721 0.0
H2001 H 0.09509 0.99212 0.60278 0.0
H2002 H 0.09042 0.95523 0.61604 0.0
H2003 H 0.10646 0.92149 0.62846 0.0
H2004 H 0.17402 0.91905 0.64452 0.0
H2005 H 0.17813 0.9564 0.63318 0.0
C2006 C 0.14699 0.98178 0.61737 0.0
C2007 C 0.12927 0.99309 0.60917 0.0
C2008 C 0.14454 0.96069 0.62492 0.0
C2009 C 0.10884 0.98357 0.60924 0.0
C2010 C 0.10625 0.96251 0.61665 0.0
C2011 C 0.12191 0.92922 0.63037 0.0
C2012 C 0.1398 0.9175 0.63786 0.0
C2013 C 0.12408 0.9508 0.62417 0.0
C2014 C 0.15996 0.92769 0.63889 0.0
C2015 C 0.16233 0.94907 0.63248 0.0
H2016 H 0.65557 0.76739 0.91186 0.0
H2017 H 0.63275 0.74346 0.85087 0.0
H2018 H 0.61697 0.77862 0.84274 0.0
H2019 H 0.60968 0.81598 0.85323 0.0
H2020 H 0.63582 0.84068 0.91264 0.0
H2021 H 0.65039 0.80523 0.92121 0.0
C2022 C 0.64757 0.76997 0.89658 0.0
C2023 C 0.6455 0.75295 0.88189 0.0
C2024 C 0.63918 0.79031 0.89177 0.0
C2025 C 0.63439 0.75632 0.8625 0.0
C2026 C 0.6255 0.77643 0.8578 0.0
C2027 C 0.61921 0.81387 0.86767 0.0
C2028 C 0.62227 0.83116 0.88194 0.0
C2029 C 0.62792 0.79357 0.87228 0.0
C2030 C 0.63348 0.82769 0.90127 0.0
C2031 C 0.64182 0.80745 0.90618 0.0
H2032 H 0.01153 0.10956 0.33104 0.0
H2033 H 0.0021 0.09539 0.39821 0.0
H2034 H 0.03816 0.10912 0.4065 0.0
H2035 H 0.07247 0.12407 0.39428 0.0
H2036 H 0.08124 0.14018 0.32732 0.0
H2037 H 0.04548 0.12608 0.31906 0.0
C2038 C 0.01748 0.10955 0.34745 0.0
C2039 C 0.00447 0.10154 0.36404 0.0
C2040 C 0.03802 0.11764 0.35204 0.0
C2041 C 0.01202 0.1016 0.38529 0.0
C2042 C 0.03257 0.10938 0.38998 0.0
C2043 C 0.06637 0.12519 0.378 0.0
C2044 C 0.07928 0.13378 0.36155 0.0
C2045 C 0.04569 0.11742 0.37346 0.0
C2046 C 0.07152 0.13382 0.34031 0.0
C2047 C 0.05108 0.12582 0.33558 0.0
H2048 H 0.41198 0.68258 0.89687 0.0
H2049 H 0.36256 0.65995 0.85379 0.0
H2050 H 0.34588 0.69556 0.85355 0.0
H2051 H 0.34444 0.7327 0.86703 0.0
H2052 H 0.3938 0.7556 0.90991 0.0
H2053 H 0.41177 0.7205 0.90859 0.0
C2054 C 0.39761 0.68558 0.88742 0.0
C2055 C 0.38849 0.66887 0.87531 0.0
C2056 C 0.38824 0.70612 0.88724 0.0
C2057 C 0.36994 0.67276 0.86301 0.0
C2058 C 0.36039 0.69305 0.86292 0.0
C2059 C 0.35931 0.72997 0.87578 0.0
C2060 C 0.36792 0.74644 0.88851 0.0
C2061 C 0.36931 0.70979 0.87508 0.0
C2062 C 0.3871 0.74301 0.89989 0.0
C2063 C 0.39723 0.72296 0.89927 0.0
H2064 H 0.91937 0.36234 0.34246 0.0
H2065 H 0.92767 0.3474 0.40972 0.0
H2066 H 0.96328 0.36414 0.40935 0.0
H2067 H 0.99213 0.3832 0.38965 0.0
H2068 H 0.98374 0.39686 0.32215 0.0
H2069 H 0.94817 0.3803 0.32275 0.0
C2070 C 0.92898 0.36277 0.35704 0.0
C2071 C 0.92074 0.35419 0.37619 0.0
C2072 C 0.94943 0.37214 0.35662 0.0
C2073 C 0.93338 0.35462 0.39494 0.0
C2074 C 0.95383 0.36396 0.39468 0.0
C2075 C 0.98243 0.38243 0.37514 0.0
C2076 C 0.9902 0.39146 0.35599 0.0
C2077 C 0.96199 0.37283 0.37561 0.0
C2078 C 0.97775 0.39039 0.33718 0.0
C2079 C 0.95751 0.38083 0.33748 0.0
H2080 H 0.61062 0.16971 0.58345 0.0
H2081 H 0.58399 0.18413 0.64586 0.0
H2082 H 0.59707 0.22098 0.64336 0.0
H2083 H 0.61809 0.24851 0.6243 0.0
H2084 H 0.64064 0.23551 0.56 0.0
H2085 H 0.62721 0.19874 0.56233 0.0
C2086 C 0.60761 0.18097 0.59643 0.0
C2087 C 0.5975 0.1739 0.61532 0.0
C2088 C 0.61454 0.20236 0.59458 0.0
C2089 C 0.59299 0.18882 0.63172 0.0
C2090 C 0.60018 0.20999 0.63018 0.0
C2091 C 0.61968 0.23774 0.61067 0.0
C2092 C 0.63076 0.24451 0.59223 0.0
C2093 C 0.61136 0.21682 0.61187 0.0
C2094 C 0.63277 0.23041 0.57467 0.0
C2095 C 0.62494 0.20944 0.5759 0.0
H2096 H 0.41815 0.12684 0.60973 0.0
H2097 H 0.40258 0.13818 0.67643 0.0
H2098 H 0.43912 0.12803 0.68688 0.0
H2099 H 0.47543 0.11581 0.67699 0.0
H2100 H 0.49121 0.10555 0.61029 0.0
H2101 H 0.45476 0.11632 0.59968 0.0
C2102 C 0.42286 0.12777 0.62647 0.0
C2103 C 0.4078 0.1338 0.64222 0.0
C2104 C 0.44392 0.12218 0.63231 0.0
C2105 C 0.41394 0.13372 0.66399 0.0
C2106 C 0.43482 0.12798 0.66997 0.0
C2107 C 0.4708 0.11601 0.66016 0.0
C2108 C 0.48573 0.1099 0.64439 0.0
C2109 C 0.44991 0.12216 0.65427 0.0
C2110 C 0.47985 0.11034 0.62261 0.0
C2111 C 0.45905 0.11637 0.61659 0.0
H2112 H 0.36054 0.25236 0.58395 0.0
H2113 H 0.33774 0.25065 0.64932 0.0
H2114 H 0.35048 0.28766 0.65497 0.0
H2115 H 0.36482 0.32132 0.63985 0.0
H2116 H 0.3871 0.32274 0.5741 0.0
H2117 H 0.37726 0.285 0.56973 0.0
C2118 C 0.35873 0.26007 0.59952 0.0
C2119 C 0.34832 0.24912 0.61625 0.0
C2120 C 0.3656 0.28127 0.60237 0.0
C2121 C 0.34588 0.25897 0.63635 0.0
C2122 C 0.35298 0.28008 0.63947 0.0
C2123 C 0.36811 0.31323 0.62478 0.0
C2124 C 0.37697 0.32471 0.60741 0.0
C2125 C 0.36243 0.29153 0.62241 0.0
C2126 C 0.38027 0.31422 0.58769 0.0
C2127 C 0.37475 0.29265 0.5852 0.0
H2128 H 0.50591 0.40601 0.61641 0.0
H2129 H 0.48006 0.34944 0.64683 0.0
H2130 H 0.51557 0.33219 0.64566 0.0
H2131 H 0.55454 0.33446 0.63809 0.0
H2132 H 0.58007 0.39117 0.60752 0.0
H2133 H 0.54421 0.40741 0.60684 0.0
C2134 C 0.50812 0.38978 0.62246 0.0
C2135 C 0.49072 0.37892 0.63175 0.0
C2136 C 0.52852 0.38024 0.62202 0.0
C2137 C 0.49342 0.35793 0.63953 0.0
C2138 C 0.51369 0.34821 0.63904 0.0
C2139 C 0.55212 0.35036 0.63132 0.0
C2140 C 0.56969 0.36172 0.62291 0.0
C2141 C 0.53145 0.35942 0.63075 0.0
C2142 C 0.56659 0.38221 0.61398 0.0
C2143 C 0.54616 0.39145 0.61358 0.0
H2144 H 0.90944 0.62955 0.75041 0.0
H2145 H 0.84194 0.64321 0.74291 0.0
H2146 H 0.83487 0.62941 0.77929 0.0
H2147 H 0.84873 0.61645 0.81406 0.0
H2148 H 0.91647 0.60275 0.82111 0.0
H2149 H 0.92282 0.61408 0.78408 0.0
C2150 C 0.89318 0.62923 0.75676 0.0
C2151 C 0.87619 0.63734 0.74434 0.0
C2152 C 0.8894 0.62156 0.77756 0.0
C2153 C 0.85515 0.63691 0.75239 0.0
C2154 C 0.85118 0.62916 0.77314 0.0
C2155 C 0.86475 0.61529 0.80733 0.0
C2156 C 0.88206 0.60846 0.82022 0.0
C2157 C 0.86827 0.6218 0.786 0.0
C2158 C 0.90289 0.60797 0.81149 0.0
C2159 C 0.90653 0.61437 0.79032 0.0
H2160 H 0.83948 0.85443 0.43013 0.0
H2161 H 0.90073 0.85817 0.39789 0.0
H2162 H 0.91933 0.85958 0.43261 0.0
H2163 H 0.91801 0.85969 0.47207 0.0
H2164 H 0.85705 0.85251 0.50433 0.0
H2165 H 0.83826 0.85362 0.46975 0.0
C2166 C 0.85689 0.85561 0.43083 0.0
C2167 C 0.86883 0.85629 0.41173 0.0
C2168 C 0.86739 0.85622 0.45078 0.0
C2169 C 0.89135 0.85747 0.41256 0.0
C2170 C 0.90192 0.85845 0.43234 0.0
C2171 C 0.90061 0.85835 0.47144 0.0
C2172 C 0.88889 0.85603 0.49057 0.0
C2173 C 0.89009 0.85787 0.45153 0.0
C2174 C 0.86636 0.8546 0.48975 0.0
C2175 C 0.85565 0.85495 0.47 0.0
H2176 H 0.09321 0.88169 0.82083 0.0
H2177 H 0.1625 0.88532 0.81738 0.0
H2178 H 0.16189 0.86905 0.78189 0.0
H2179 H 0.14155 0.85358 0.75149 0.0
H2180 H 0.07221 0.8551 0.75296 0.0
H2181 H 0.07293 0.86971 0.78939 0.0
C2182 C 0.10822 0.87889 0.81238 0.0
C2183 C 0.12791 0.8837 0.82242 0.0
C2184 C 0.10772 0.8706 0.79143 0.0
C2185 C 0.14714 0.8805 0.81088 0.0
C2186 C 0.14681 0.87158 0.79026 0.0
C2187 C 0.12666 0.85752 0.75968 0.0
C2188 C 0.10688 0.85321 0.7497 0.0
C2189 C 0.12719 0.86649 0.7804 0.0
C2190 C 0.08764 0.85803 0.76053 0.0
C2191 C 0.08803 0.86643 0.7813 0.0
H2192 H 0.12054 0.66082 0.48636 0.0
H2193 H 0.09681 0.59613 0.49319 0.0
H2194 H 0.10998 0.58722 0.45705 0.0
H2195 H 0.12572 0.59891 0.42261 0.0
H2196 H 0.1482 0.66416 0.41564 0.0
H2197 H 0.13756 0.67204 0.45263 0.0
C2198 C 0.11846 0.64473 0.47993 0.0
C2199 C 0.10789 0.62908 0.49225 0.0
C2200 C 0.12557 0.63998 0.45909 0.0
C2201 C 0.1052 0.60829 0.48396 0.0
C2202 C 0.11254 0.60329 0.46329 0.0
C2203 C 0.12877 0.61468 0.42936 0.0
C2204 C 0.13802 0.63086 0.41655 0.0
C2205 C 0.12246 0.61912 0.45059 0.0
C2206 C 0.14112 0.65146 0.42524 0.0
C2207 C 0.1351 0.65596 0.44638 0.0
H2208 H 0.85571 0.37954 0.67231 0.0
H2209 H 0.92222 0.39652 0.66194 0.0
H2210 H 0.93076 0.38635 0.69898 0.0
H2211 H 0.91955 0.37099 0.73361 0.0
H2212 H 0.85319 0.35394 0.74391 0.0
H2213 H 0.84398 0.36681 0.70772 0.0
C2214 C 0.87191 0.38175 0.6783 0.0
C2215 C 0.88823 0.38923 0.66453 0.0
C2216 C 0.87664 0.37597 0.69958 0.0
C2217 C 0.90938 0.39088 0.67229 0.0
C2218 C 0.91425 0.38514 0.69345 0.0
C2219 C 0.90303 0.37046 0.72795 0.0
C2220 C 0.88699 0.3617 0.74117 0.0
C2221 C 0.89805 0.37747 0.70713 0.0
C2222 C 0.86566 0.36089 0.73391 0.0
C2223 C 0.86048 0.36805 0.71323 0.0
H2224 H 0.61353 0.88328 0.49906 0.0
H2225 H 0.59422 0.81845 0.5143 0.0
H2226 H 0.60778 0.82252 0.55084 0.0
H2227 H 0.6247 0.84454 0.57863 0.0
H2228 H 0.64769 0.908 0.5627 0.0
H2229 H 0.63309 0.90453 0.52642 0.0
C2230 C 0.61246 0.87006 0.5104 0.0
C2231 C 0.6024 0.85083 0.50424 0.0
C2232 C 0.62074 0.87235 0.53132 0.0
C2233 C 0.60123 0.83369 0.51894 0.0
C2234 C 0.60914 0.83593 0.53978 0.0
C2235 C 0.62647 0.85764 0.56723 0.0
C2236 C 0.63637 0.87686 0.57369 0.0
C2237 C 0.61875 0.85524 0.5462 0.0
C2238 C 0.63903 0.89349 0.55858 0.0
C2239 C 0.63102 0.89138 0.53767 0.0
H2240 H 0.1329 0.15242 0.73196 0.0
H2241 H 0.0808 0.11314 0.7551 0.0
H2242 H 0.0771 0.09645 0.71954 0.0
H2243 H 0.08763 0.09455 0.68127 0.0
H2244 H 0.14017 0.13359 0.65848 0.0
H2245 H 0.14479 0.14902 0.69436 0.0
C2246 C 0.12106 0.13991 0.72918 0.0
C2247 C 0.10729 0.13373 0.7459 0.0
C2248 C 0.11895 0.13062 0.70874 0.0
C2249 C 0.09174 0.11778 0.74234 0.0
C2250 C 0.08951 0.10843 0.72203 0.0
C2251 C 0.10006 0.10642 0.68429 0.0
C2252 C 0.11357 0.11296 0.66746 0.0
C2253 C 0.1028 0.11499 0.70501 0.0
C2254 C 0.12974 0.12823 0.67137 0.0
C2255 C 0.13237 0.13706 0.69182 0.0
H2256 H 0.35676 0.60271 0.56795 0.0
H2257 H 0.35945 0.66973 0.58608 0.0
H2258 H 0.37266 0.6789 0.55036 0.0
H2259 H 0.3832 0.66799 0.51408 0.0
H2260 H 0.38652 0.60065 0.49798 0.0
H2261 H 0.37129 0.59136 0.53312 0.0
C2262 C 0.36109 0.6192 0.56464 0.0
C2263 C 0.35768 0.63538 0.58014 0.0
C2264 C 0.36944 0.62432 0.5443 0.0
C2265 C 0.36207 0.65687 0.57462 0.0
C2266 C 0.36964 0.66217 0.55418 0.0
C2267 C 0.38094 0.65125 0.51838 0.0
C2268 C 0.3857 0.63504 0.50339 0.0
C2269 C 0.37336 0.64602 0.53893 0.0
C2270 C 0.38238 0.61344 0.50905 0.0
C2271 C 0.37393 0.60813 0.52921 0.0
H2272 H 0.82208 0.91248 0.58825 0.0
H2273 H 0.83671 0.8575 0.62788 0.0
H2274 H 0.80028 0.85794 0.64264 0.0
H2275 H 0.76472 0.87492 0.64533 0.0
H2276 H 0.74947 0.92942 0.60547 0.0
H2277 H 0.78553 0.92818 0.58936 0.0
C2278 C 0.81716 0.90066 0.6001 0.0
C2279 C 0.83182 0.88499 0.60704 0.0
C2280 C 0.79611 0.90084 0.60826 0.0
C2281 C 0.82547 0.86958 0.62226 0.0
C2282 C 0.80472 0.86984 0.6307 0.0
C2283 C 0.7693 0.8862 0.63282 0.0
C2284 C 0.75476 0.90209 0.62631 0.0
C2285 C 0.78995 0.88543 0.62388 0.0
C2286 C 0.76059 0.91692 0.61037 0.0
C2287 C 0.78116 0.9163 0.60135 0.0
H2288 H 0.82012 0.13991 0.89598 0.0
H2289 H 0.84394 0.07999 0.87036 0.0
H2290 H 0.80835 0.07191 0.8557 0.0
H2291 H 0.77074 0.08202 0.84997 0.0
H2292 H 0.7474 0.14309 0.87301 0.0
H2293 H 0.78269 0.15072 0.88894 0.0
C2294 C 0.81771 0.1254 0.88663 0.0
C2295 C 0.83482 0.11088 0.88363 0.0
C2296 C 0.79732 0.12103 0.87798 0.0
C2297 C 0.83108 0.09153 0.87261 0.0
C2298 C 0.81077 0.08692 0.86423 0.0
C2299 C 0.77349 0.09717 0.85813 0.0
C2300 C 0.75666 0.11212 0.86011 0.0
C2301 C 0.79384 0.10161 0.86672 0.0
C2302 C 0.76017 0.13134 0.87138 0.0
C2303 C 0.78033 0.13573 0.88037 0.0
H2304 H 0.32195 0.98341 0.39526 0.0
H2305 H 0.38786 0.00108 0.38279 0.0
H2306 H 0.39428 0.96614 0.36587 0.0
H2307 H 0.38115 0.93063 0.35514 0.0
H2308 H 0.31616 0.91171 0.37048 0.0
H2309 H 0.30921 0.9473 0.38573 0.0
C2310 C 0.33778 0.97947 0.38909 0.0
C2311 C 0.35446 0.99465 0.39032 0.0
C2312 C 0.34147 0.95922 0.37999 0.0
C2313 C 0.37475 0.98965 0.3818 0.0
C2314 C 0.37845 0.96967 0.37228 0.0
C2315 C 0.36567 0.93403 0.3624 0.0
C2316 C 0.34941 0.91833 0.36239 0.0
C2317 C 0.36197 0.95429 0.37147 0.0
C2318 C 0.32901 0.92347 0.37062 0.0
C2319 C 0.32505 0.94377 0.37934 0.0
H2320 H 0.18062 0.39911 0.91058 0.0
H2321 H 0.15303 0.3669 0.85581 0.0
H2322 H 0.18833 0.3656 0.83828 0.0
H2323 H 0.22679 0.37499 0.8381 0.0
H2324 H 0.2546 0.40696 0.8929 0.0
H2325 H 0.21969 0.40662 0.91125 0.0
C2326 C 0.18248 0.39197 0.89476 0.0
C2327 C 0.16449 0.3835 0.88415 0.0
C2328 C 0.20284 0.391 0.88503 0.0
C2329 C 0.16683 0.3738 0.86393 0.0
C2330 C 0.18694 0.37295 0.85403 0.0
C2331 C 0.22515 0.38153 0.8542 0.0
C2332 C 0.24299 0.39094 0.86426 0.0
C2333 C 0.20503 0.3816 0.86438 0.0
C2334 C 0.24096 0.39946 0.88505 0.0
C2335 C 0.22101 0.39947 0.8954 0.0
H2336 H 0.16701 0.0179 0.90194 0.0
H2337 H 0.1059 0.99404 0.87941 0.0
H2338 H 0.09757 0.02929 0.86392 0.0
H2339 H 0.10826 0.06652 0.85618 0.0
H2340 H 0.16841 0.09081 0.88097 0.0
H2341 H 0.17658 0.05561 0.89634 0.0
C2342 C 0.15165 0.02055 0.8941 0.0
C2343 C 0.13698 0.00353 0.89198 0.0
C2344 C 0.14686 0.04086 0.88565 0.0
C2345 C 0.11747 0.00694 0.88111 0.0
C2346 C 0.11268 0.02708 0.87235 0.0
C2347 C 0.12281 0.06435 0.86554 0.0
C2348 C 0.13744 0.08141 0.86794 0.0
C2349 C 0.12729 0.04415 0.87453 0.0
C2350 C 0.1568 0.07795 0.87909 0.0
C2351 C 0.16148 0.05786 0.88788 0.0
H2352 H 0.73921 0.07632 0.13489 0.0
H2353 H 0.74186 0.14292 0.15366 0.0
H2354 H 0.70461 0.14808 0.14146 0.0
H2355 H 0.67078 0.13275 0.12786 0.0
H2356 H 0.66841 0.06601 0.10902 0.0
H2357 H 0.70602 0.06151 0.11953 0.0
C2358 C 0.7316 0.09198 0.1361 0.0
C2359 C 0.74302 0.10925 0.14506 0.0
C2360 C 0.71027 0.09466 0.12936 0.0
C2361 C 0.73326 0.12951 0.1466 0.0
C2362 C 0.71199 0.13238 0.13979 0.0
C2363 C 0.67862 0.11739 0.12545 0.0
C2364 C 0.66693 0.09984 0.11724 0.0
C2365 C 0.70027 0.11497 0.13141 0.0
C2366 C 0.6771 0.07977 0.11524 0.0
C2367 C 0.6986 0.07721 0.12117 0.0
H2368 H 0.38713 0.06556 0.14523 0.0
H2369 H 0.32091 0.08572 0.13952 0.0
H2370 H 0.31129 0.05057 0.12489 0.0
H2371 H 0.32174 0.01424 0.1137 0.0
H2372 H 0.38843 0.99526 0.11633 0.0
H2373 H 0.39794 0.02999 0.13218 0.0
C2374 C 0.37073 0.0626 0.14014 0.0
C2375 C 0.35489 0.07851 0.14285 0.0
C2376 C 0.36539 0.04251 0.13141 0.0
C2377 C 0.33346 0.07382 0.13737 0.0
C2378 C 0.32794 0.05374 0.129 0.0
C2379 C 0.3384 0.01785 0.11742 0.0
C2380 C 0.35438 0.0023 0.11381 0.0
C2381 C 0.34379 0.03801 0.1259 0.0
C2382 C 0.37582 0.00693 0.11922 0.0
C2383 C 0.38127 0.02681 0.12812 0.0
H2384 H 0.66353 0.4202 0.13323 0.0
H2385 H 0.59635 0.41421 0.11686 0.0
H2386 H 0.59544 0.4515 0.10498 0.0
H2387 H 0.61417 0.48556 0.09768 0.0
H2388 H 0.68178 0.49102 0.11178 0.0
H2389 H 0.68222 0.45435 0.1262 0.0
C2390 C 0.64873 0.42714 0.12711 0.0
C2391 C 0.62993 0.41471 0.12648 0.0
C2392 C 0.64842 0.44852 0.11992 0.0
C2393 C 0.61085 0.42371 0.1183 0.0
C2394 C 0.61035 0.44499 0.11128 0.0
C2395 C 0.62884 0.4787 0.10423 0.0
C2396 C 0.64786 0.49068 0.10391 0.0
C2397 C 0.62903 0.45753 0.11197 0.0
C2398 C 0.66697 0.48184 0.11207 0.0
C2399 C 0.66723 0.46094 0.12018 0.0
H2400 H 0.26195 0.08038 0.41261 0.0
H2401 H 0.30651 0.13322 0.4067 0.0
H2402 H 0.27672 0.1582 0.40142 0.0
H2403 H 0.23795 0.1655 0.40173 0.0
H2404 H 0.19305 0.11285 0.40536 0.0
H2405 H 0.22294 0.08723 0.40785 0.0
C2406 C 0.26505 0.09733 0.40995 0.0
C2407 C 0.28632 0.10502 0.41027 0.0
C2408 C 0.24782 0.1116 0.40648 0.0
C2409 C 0.29025 0.12694 0.40649 0.0
C2410 C 0.27323 0.14126 0.40354 0.0
C2411 C 0.23477 0.14837 0.40263 0.0
C2412 C 0.21344 0.14102 0.40351 0.0
C2413 C 0.25196 0.13383 0.40392 0.0
C2414 C 0.2094 0.11882 0.40452 0.0
C2415 C 0.22647 0.10421 0.40615 0.0
H2416 H 0.36858 0.45546 0.86824 0.0
H2417 H 0.31339 0.49237 0.84788 0.0
H2418 H 0.3328 0.52575 0.85491 0.0
H2419 H 0.36748 0.54397 0.85989 0.0
H2420 H 0.42381 0.50675 0.87548 0.0
H2421 H 0.40196 0.47413 0.87801 0.0
C2422 C 0.36062 0.47081 0.86589 0.0
C2423 C 0.3397 0.47144 0.85724 0.0
C2424 C 0.3722 0.48995 0.86908 0.0
C2425 C 0.3296 0.49146 0.85423 0.0
C2426 C 0.3407 0.51057 0.85824 0.0
C2427 C 0.37473 0.52886 0.86478 0.0
C2428 C 0.3971 0.52767 0.8677 0.0
C2429 C 0.36231 0.50999 0.86472 0.0
C2430 C 0.40654 0.50796 0.8734 0.0
C2431 C 0.39409 0.4893 0.87457 0.0
H2432 H 0.73931 0.42011 0.38964 0.0
H2433 H 0.69302 0.37547 0.3633 0.0
H2434 H 0.72183 0.35069 0.35402 0.0
H2435 H 0.75883 0.33864 0.36044 0.0
H2436 H 0.80523 0.38279 0.38702 0.0
H2437 H 0.77793 0.41101 0.38839 0.0
C2438 C 0.73558 0.40518 0.38143 0.0
C2439 C 0.71398 0.39939 0.37781 0.0
C2440 C 0.75226 0.39083 0.37622 0.0
C2441 C 0.70946 0.38022 0.36667 0.0
C2442 C 0.72593 0.36595 0.36136 0.0
C2443 C 0.76314 0.3547 0.36574 0.0
C2444 C 0.78383 0.35852 0.37402 0.0
C2445 C 0.74723 0.37063 0.36707 0.0
C2446 C 0.78937 0.37943 0.3806 0.0
C2447 C 0.77366 0.3955 0.3817 0.0
H2448 H 0.63301 0.03965 0.85922 0.0
H2449 H 0.68695 0.00911 0.82802 0.0
H2450 H 0.66881 0.97426 0.83043 0.0
H2451 H 0.63566 0.95346 0.83725 0.0
H2452 H 0.58041 0.98535 0.86434 0.0
H2453 H 0.60108 0.01861 0.86819 0.0
C2454 C 0.64104 0.02531 0.85341 0.0
C2455 C 0.66129 0.02696 0.84347 0.0
C2456 C 0.63017 0.00556 0.85407 0.0
C2457 C 0.67131 0.00826 0.83567 0.0
C2458 C 0.66093 0.98834 0.83702 0.0
C2459 C 0.62844 0.96757 0.84455 0.0
C2460 C 0.60672 0.96706 0.85076 0.0
C2461 C 0.64009 0.98692 0.84561 0.0
C2462 C 0.5972 0.98547 0.85966 0.0
C2463 C 0.60896 0.00447 0.86171 0.0
H2464 H 0.23593 0.83018 0.11007 0.0
H2465 H 0.19016 0.8822 0.1075 0.0
H2466 H 0.21956 0.90839 0.10756 0.0
H2467 H 0.25832 0.91594 0.10275 0.0
H2468 H 0.30389 0.86375 0.10688 0.0
H2469 H 0.27459 0.83818 0.11208 0.0
C2470 C 0.23244 0.84728 0.11016 0.0
C2471 C 0.21103 0.85432 0.10859 0.0
C2472 C 0.24938 0.86217 0.11016 0.0
C2473 C 0.20657 0.87646 0.10883 0.0
C2474 C 0.22338 0.89141 0.10862 0.0
C2475 C 0.26179 0.89901 0.10521 0.0
C2476 C 0.28316 0.89167 0.10413 0.0
C2477 C 0.24485 0.88439 0.10839 0.0
C2478 C 0.28756 0.86978 0.10765 0.0
C2479 C 0.27081 0.85513 0.1105 0.0
H2480 H 0.13302 0.44688 0.13468 0.0
H2481 H 0.18591 0.48031 0.16486 0.0
H2482 H 0.16951 0.51482 0.15577 0.0
H2483 H 0.13752 0.53516 0.14445 0.0
H2484 H 0.08288 0.50143 0.11849 0.0
H2485 H 0.10272 0.46744 0.12006 0.0
C2486 C 0.14117 0.46171 0.13893 0.0
C2487 C 0.1605 0.46101 0.15071 0.0
C2488 C 0.13129 0.48148 0.13431 0.0
C2489 C 0.17085 0.48039 0.15605 0.0
C2490 C 0.16151 0.50014 0.15083 0.0
C2491 C 0.13037 0.52045 0.13835 0.0
C2492 C 0.10901 0.52066 0.13103 0.0
C2493 C 0.14138 0.50086 0.14064 0.0
C2494 C 0.09948 0.50153 0.12384 0.0
C2495 C 0.11072 0.48212 0.125 0.0
H2496 H 0.73635 0.57319 0.09463 0.0
H2497 H 0.69271 0.62643 0.10348 0.0
H2498 H 0.72276 0.65001 0.11228 0.0
H2499 H 0.76163 0.65667 0.11168 0.0
H2500 H 0.80556 0.60366 0.10374 0.0
H2501 H 0.77527 0.57865 0.10099 0.0
C2502 C 0.73347 0.58986 0.09887 0.0
C2503 C 0.71245 0.59818 0.0981 0.0
C2504 C 0.75085 0.60334 0.10407 0.0
C2505 C 0.70877 0.61968 0.10396 0.0
C2506 C 0.72595 0.63321 0.1089 0.0
C2507 C 0.76451 0.63953 0.11009 0.0
C2508 C 0.78564 0.63195 0.10772 0.0
C2509 C 0.74708 0.62538 0.10825 0.0
C2510 C 0.78936 0.60977 0.10574 0.0
C2511 C 0.77204 0.59553 0.10386 0.0
H2512 H 0.9101 0.98949 0.12717 0.0
H2513 H 0.85677 0.94527 0.12914 0.0
H2514 H 0.83159 0.97526 0.13269 0.0
H2515 H 0.82578 0.01344 0.14209 0.0
H2516 H 0.87914 0.05766 0.13853 0.0
H2517 H 0.90325 0.02836 0.12857 0.0
C2518 C 0.89289 0.98654 0.12753 0.0
C2519 C 0.88526 0.96533 0.12813 0.0
C2520 C 0.87858 0.00381 0.12981 0.0
C2521 C 0.86297 0.96154 0.12853 0.0
C2522 C 0.84859 0.97866 0.13089 0.0
C2523 C 0.8426 0.01665 0.1387 0.0
C2524 C 0.85082 0.03749 0.14151 0.0
C2525 C 0.85635 -0.00024 0.13267 0.0
C2526 C 0.87251 0.04165 0.13665 0.0
C2527 C 0.88633 0.02492 0.131 0.0
H2528 H 0.38333 0.23578 0.16007 0.0
H2529 H 0.40055 0.18974 0.11127 0.0
H2530 H 0.40093 0.21829 0.08405 0.0
H2531 H 0.40176 0.25723 0.07567 0.0
H2532 H 0.38332 0.30268 0.12479 0.0
H2533 H 0.37764 0.27353 0.1502 0.0
C2534 C 0.38651 0.23196 0.14333 0.0
C2535 C 0.39202 0.21085 0.1376 0.0
C2536 C 0.38674 0.2484 0.12789 0.0
C2537 C 0.39609 0.20592 0.11594 0.0
C2538 C 0.39655 0.22227 0.10045 0.0
C2539 C 0.39607 0.26067 0.09181 0.0
C2540 C 0.39321 0.28214 0.09837 0.0
C2541 C 0.39275 0.24372 0.10644 0.0
C2542 C 0.38558 0.28635 0.11925 0.0
C2543 C 0.38247 0.26967 0.1339 0.0
H2544 H 0.51252 0.34789 0.16405 0.0
H2545 H 0.55659 0.35441 0.11078 0.0
H2546 H 0.52659 0.36107 0.08637 0.0
H2547 H 0.48776 0.35911 0.07935 0.0
H2548 H 0.4435 0.35399 0.13245 0.0
H2549 H 0.47362 0.35324 0.15786 0.0
C2550 C 0.51553 0.35118 0.14717 0.0
C2551 C 0.53663 0.35018 0.13911 0.0
C2552 C 0.4982 0.35519 0.13321 0.0
C2553 C 0.54044 0.35491 0.11733 0.0
C2554 C 0.5233 0.35864 0.10333 0.0
C2555 C 0.48477 0.35853 0.09655 0.0
C2556 C 0.46361 0.35639 0.10411 0.0
C2557 C 0.5021 0.35798 0.11096 0.0
C2558 C 0.45974 0.35576 0.12635 0.0
C2559 C 0.47695 0.35507 0.14084 0.0
H2560 H 0.59794 0.2209 0.08095 0.0
H2561 H 0.59692 0.18053 0.13737 0.0
H2562 H 0.60278 0.21188 0.16033 0.0
H2563 H 0.60374 0.2512 0.16448 0.0
H2564 H 0.60701 0.29151 0.10815 0.0
H2565 H 0.60524 0.25976 0.08495 0.0
C2566 C 0.59934 0.21901 0.09825 0.0
C2567 C 0.59666 0.19859 0.10755 0.0
C2568 C 0.60311 0.23705 0.11132 0.0
C2569 C 0.59886 0.19616 0.12991 0.0
C2570 C 0.60214 0.21406 0.14304 0.0
C2571 C 0.60463 0.25292 0.14713 0.0
C2572 C 0.60532 0.27355 0.13797 0.0
C2573 C 0.60368 0.23464 0.13395 0.0
C2574 C 0.6066 0.27572 0.11552 0.0
C2575 C 0.60535 0.2576 0.10226 0.0
H2576 H 0.45089 0.1274 0.12934 0.0
H2577 H 0.48516 0.14822 0.18597 0.0
H2578 H 0.51943 0.13905 0.16904 0.0
H2579 H 0.53962 0.13128 0.13606 0.0
H2580 H 0.50541 0.11591 0.07778 0.0
H2581 H 0.47122 0.11615 0.09736 0.0
C2582 C 0.46586 0.12937 0.13812 0.0
C2583 C 0.46562 0.13856 0.15876 0.0
C2584 C 0.48553 0.1251 0.12787 0.0
C2585 C 0.48506 0.14132 0.16997 0.0
C2586 C 0.50463 0.13611 0.16029 0.0
C2587 C 0.52472 0.12718 0.12791 0.0
C2588 C 0.52488 0.12334 0.10568 0.0
C2589 C 0.5051 0.12883 0.13895 0.0
C2590 C 0.50553 0.11868 0.095 0.0
C2591 C 0.48602 0.11904 0.10613 0.0
H2592 H 0.39045 0.73558 0.41901 0.0
H2593 H 0.38274 0.6902 0.36706 0.0
H2594 H 0.37583 0.71955 0.34198 0.0
H2595 H 0.37775 0.75818 0.3339 0.0
H2596 H 0.38396 0.80373 0.38578 0.0
H2597 H 0.38514 0.7743 0.4119 0.0
C2598 C 0.38683 0.73215 0.40228 0.0
C2599 C 0.38755 0.71083 0.3948 0.0
C2600 C 0.38266 0.74912 0.38794 0.0
C2601 C 0.38243 0.7065 0.37319 0.0
C2602 C 0.37856 0.72328 0.3588 0.0
C2603 C 0.37868 0.76163 0.35099 0.0
C2604 C 0.38099 0.78297 0.35795 0.0
C2605 C 0.37945 0.74466 0.36585 0.0
C2606 C 0.38206 0.78737 0.3801 0.0
C2607 C 0.38299 0.77055 0.395 0.0
H2608 H 0.95321 0.35511 0.87167 0.0
H2609 H 0.9911 0.34301 0.81481 0.0
H2610 H 0.02416 0.34941 0.83516 0.0
H2611 H 0.04234 0.35366 0.87009 0.0
H2612 H 0.00444 0.36094 0.92764 0.0
H2613 H 0.97139 0.36171 0.90616 0.0
C2614 C 0.9687 0.35432 0.86365 0.0
C2615 C 0.96973 0.34854 0.8418 0.0
C2616 C 0.98766 0.35712 0.87567 0.0
C2617 C 0.98991 0.3473 0.83166 0.0
C2618 C 0.00881 0.35095 0.84329 0.0
C2619 C 0.02686 0.35609 0.87778 0.0
C2620 C 0.02572 0.35754 0.90031 0.0
C2621 C 0.00791 0.35523 0.86544 0.0
C2622 C 0.00561 0.36003 0.91027 0.0
C2623 C 0.98674 0.36029 0.89801 0.0
H2624 H 0.61385 0.78755 0.3794 0.0
H2625 H 0.57986 0.75346 0.4294 0.0
H2626 H 0.58579 0.71951 0.41056 0.0
H2627 H 0.59481 0.7008 0.37692 0.0
H2628 H 0.62438 0.73595 0.32507 0.0
H2629 H 0.62672 0.76804 0.34774 0.0
C2630 C 0.6082 0.77265 0.38646 0.0
C2631 C 0.5962 0.77307 0.40563 0.0
C2632 C 0.6109 0.75334 0.3751 0.0
C2633 C 0.58891 0.7536 0.4145 0.0
C2634 C 0.59229 0.73417 0.40374 0.0
C2635 C 0.60256 0.71526 0.37098 0.0
C2636 C 0.60964 0.7161 0.34955 0.0
C2637 C 0.60248 0.73399 0.38361 0.0
C2638 C 0.61908 0.73501 0.34166 0.0
C2639 C 0.62016 0.75338 0.35452 0.0
H2640 H 0.95715 0.15156 0.86734 0.0
H2641 H 0.9914 0.13153 0.9242 0.0
H2642 H 0.02469 0.12824 0.90342 0.0
H2643 H 0.04489 0.13649 0.87063 0.0
H2644 H 0.0115 0.16113 0.81495 0.0
H2645 H 0.97705 0.15705 0.8335 0.0
C2646 C 0.97179 0.14582 0.87494 0.0
C2647 C 0.97192 0.14156 0.89713 0.0
C2648 C 0.99108 0.14519 0.86315 0.0
C2649 C 0.99102 0.13471 0.90706 0.0
C2650 C 0.01003 0.13299 0.89522 0.0
C2651 C 0.03003 0.14048 0.86236 0.0
C2652 C 0.03074 0.14916 0.84148 0.0
C2653 C 0.01042 0.139 0.87347 0.0
C2654 C 0.01137 0.15452 0.83108 0.0
C2655 C 0.99168 0.15223 0.8417 0.0
H2656 H 0.11751 0.38569 0.29761 0.0
H2657 H 0.06583 0.4178 0.26411 0.0
H2658 H 0.08362 0.41119 0.22972 0.0
H2659 H 0.11616 0.4007 0.20974 0.0
H2660 H 0.16953 0.37251 0.24382 0.0
H2661 H 0.14872 0.37262 0.27726 0.0
C2662 C 0.10995 0.39087 0.28275 0.0
C2663 C 0.09048 0.40237 0.28344 0.0
C2664 C 0.12064 0.38768 0.26309 0.0
C2665 C 0.08094 0.40911 0.26404 0.0
C2666 C 0.09109 0.40532 0.24435 0.0
C2667 C 0.12287 0.39394 0.22437 0.0
C2668 C 0.14414 0.38633 0.22441 0.0
C2669 C 0.11126 0.39521 0.24373 0.0
C2670 C 0.15304 0.37819 0.24351 0.0
C2671 C 0.14123 0.37845 0.26262 0.0
H2672 H 0.16423 0.60458 0.25467 0.0
H2673 H 0.11171 0.59093 0.29778 0.0
H2674 H 0.08677 0.5892 0.26727 0.0
H2675 H 0.0812 0.58673 0.22796 0.0
H2676 H 0.13372 0.60208 0.18521 0.0
H2677 H 0.15732 0.60828 0.21595 0.0
C2678 C 0.14721 0.60176 0.25737 0.0
C2679 C 0.13977 0.59768 0.27829 0.0
C2680 C 0.13306 0.60084 0.23982 0.0
C2681 C 0.11772 0.59421 0.28175 0.0
C2682 C 0.10352 0.59301 0.26431 0.0
C2683 C 0.09771 0.59178 0.22543 0.0
C2684 C 0.10582 0.59356 0.20437 0.0
C2685 C 0.11119 0.59554 0.24321 0.0
C2686 C 0.12712 0.60048 0.20127 0.0
C2687 C 0.14067 0.60395 0.21883 0.0
H2688 H 0.84727 0.6642 0.01026 0.0
H2689 H 0.86643 0.61219 0.05209 0.0
H2690 H 0.87185 0.58886 0.02109 0.0
H2691 H 0.86603 0.58178 0.98267 0.0
H2692 H 0.84824 0.63377 0.9404 0.0
H2693 H 0.84776 0.65871 0.97089 0.0
C2694 C 0.85302 0.64789 0.01251 0.0
C2695 C 0.85612 0.63983 0.03343 0.0
C2696 C 0.85623 0.63454 0.99456 0.0
C2697 C 0.8639 0.61878 0.03616 0.0
C2698 C 0.86689 0.60536 0.01844 0.0
C2699 C 0.8626 0.5987 0.98012 0.0
C2700 C 0.85696 0.60597 0.9595 0.0
C2701 C 0.86237 0.61285 -0.00234 0.0
C2702 C 0.85271 0.6279 0.9562 0.0
C2703 C 0.85223 0.64209 0.97364 0.0
H2704 H 0.91052 0.89658 0.22768 0.0
H2705 H 0.85569 0.90195 0.1855 0.0
H2706 H 0.83131 0.8976 0.21607 0.0
H2707 H 0.8258 0.89617 0.25528 0.0
H2708 H 0.88049 0.88796 0.29721 0.0
H2709 H 0.90477 0.88907 0.26627 0.0
C2710 C 0.89323 0.89646 0.22525 0.0
C2711 C 0.88481 0.89987 0.20457 0.0
C2712 C 0.87935 0.89346 0.2428 0.0
C2713 C 0.86245 0.89938 0.20137 0.0
C2714 C 0.84853 0.89698 0.21882 0.0
C2715 C 0.843 0.89415 0.25752 0.0
C2716 C 0.85142 0.89218 0.27839 0.0
C2717 C 0.85681 0.89455 0.23967 0.0
C2718 C 0.87368 0.88939 0.28121 0.0
C2719 C 0.88757 0.89022 0.26357 0.0
H2720 H 0.64666 0.41555 0.48104 0.0
H2721 H 0.64894 0.36093 0.43845 0.0
H2722 H 0.6496 0.33651 0.46939 0.0
H2723 H 0.65318 0.33112 0.50863 0.0
H2724 H 0.64792 0.38568 0.55108 0.0
H2725 H 0.64465 0.40981 0.52016 0.0
C2726 C 0.64685 0.39828 0.47861 0.0
C2727 C 0.64789 0.38996 0.45765 0.0
C2728 C 0.64694 0.38441 0.49641 0.0
C2729 C 0.64799 0.3676 0.45453 0.0
C2730 C 0.64857 0.35368 0.47218 0.0
C2731 C 0.65106 0.34827 0.51101 0.0
C2732 C 0.6511 0.35675 0.53194 0.0
C2733 C 0.64864 0.36195 0.49319 0.0
C2734 C 0.64798 0.37889 0.53502 0.0
C2735 C 0.64618 0.39267 0.51739 0.0
H2736 H 0.41587 0.58404 0.75998 0.0
H2737 H 0.36522 0.59554 0.80601 0.0
H2738 H 0.33932 0.60022 0.77683 0.0
H2739 H 0.33043 0.59765 0.7384 0.0
H2740 H 0.38114 0.58871 0.692 0.0
H2741 H 0.40776 0.58684 0.72106 0.0
C2742 C 0.3992 0.58781 0.76354 0.0
C2743 C 0.39236 0.58913 0.78507 0.0
C2744 C 0.38445 0.59096 0.74665 0.0
C2745 C 0.37083 0.59438 0.78954 0.0
C2746 C 0.356 0.597 0.77288 0.0
C2747 C 0.34738 0.59576 0.73468 0.0
C2748 C 0.35387 0.5932 0.7132 0.0
C2749 C 0.36253 0.59488 0.75141 0.0
C2750 C 0.37584 0.59087 0.70846 0.0
C2751 C 0.39101 0.58959 0.72507 0.0
H2752 H 0.80693 0.3798 0.52802 0.0
H2753 H 0.87538 0.3904 0.52548 0.0
H2754 H 0.87766 0.36856 0.49253 0.0
H2755 H 0.85939 0.34829 0.46337 0.0
H2756 H 0.79094 0.33674 0.46803 0.0
H2757 H 0.78951 0.35698 0.50141 0.0
C2758 C 0.82237 0.37724 0.52026 0.0
C2759 C 0.8409 0.38687 0.52879 0.0
C2760 C 0.82352 0.36454 0.50176 0.0
C2761 C 0.86091 0.38314 0.51902 0.0
C2762 C 0.86217 0.37075 0.50021 0.0
C2763 C 0.84422 0.35006 0.4718 0.0
C2764 C 0.82527 0.34121 0.46303 0.0
C2765 C 0.84348 0.36163 0.49125 0.0
C2766 C 0.80578 0.34342 0.4743 0.0
C2767 C 0.80489 0.35507 0.49339 0.0
H2768 H 0.12828 0.12967 0.5419 0.0
H2769 H 0.11396 0.07362 0.50382 0.0
H2770 H 0.11368 0.0955 0.47108 0.0
H2771 H 0.12446 0.12884 0.45301 0.0
H2772 H 0.14387 0.18361 0.49093 0.0
H2773 H 0.13505 0.16421 0.52396 0.0
C2774 C 0.12425 0.12249 0.52651 0.0
C2775 C 0.12092 0.1002 0.52517 0.0
C2776 C 0.12558 0.13491 0.50767 0.0
C2777 C 0.11633 0.09083 0.50514 0.0
C2778 C 0.11642 0.1033 0.48643 0.0
C2779 C 0.12623 0.13672 0.46847 0.0
C2780 C 0.13502 0.15754 0.46954 0.0
C2781 C 0.12209 0.12511 0.48741 0.0
C2782 C 0.13734 0.16751 0.48971 0.0
C2783 C 0.13233 0.15641 0.5086 0.0
H2784 H 0.79282 0.61143 0.87398 0.0
H2785 H 0.76168 0.56043 0.90932 0.0
H2786 H 0.72698 0.57834 0.90509 0.0
H2787 H 0.70677 0.61147 0.89694 0.0
H2788 H 0.73891 0.66396 0.8652 0.0
H2789 H 0.77168 0.64241 0.86188 0.0
C2790 C 0.77838 0.60396 0.88032 0.0
C2791 C 0.77994 0.58478 0.89223 0.0
C2792 C 0.75858 0.61474 0.87851 0.0
C2793 C 0.76102 0.57534 0.90032 0.0
C2794 C 0.74113 0.58559 0.89793 0.0
C2795 C 0.72072 0.61779 0.88856 0.0
C2796 C 0.72049 0.6391 0.88111 0.0
C2797 C 0.73986 0.60572 0.88784 0.0
C2798 C 0.73877 0.64746 0.87082 0.0
C2799 C 0.75754 0.63523 0.86914 0.0
H2800 H 0.82859 0.98105 0.35831 0.0
H2801 H 0.88058 0.93508 0.35997 0.0
H2802 H 0.90631 0.96389 0.36681 0.0
H2803 H 0.91453 0.00255 0.36624 0.0
H2804 H 0.86265 0.04857 0.3662 0.0
H2805 H 0.83631 0.01936 0.36535 0.0
C2806 C 0.84549 0.97735 0.36065 0.0
C2807 C 0.85276 0.95609 0.35822 0.0
C2808 C 0.86021 0.99399 0.36477 0.0
C2809 C 0.87462 0.95136 0.36165 0.0
C2810 C 0.88937 0.96784 0.36545 0.0
C2811 C 0.89743 0.0061 0.36675 0.0
C2812 C 0.89047 0.02756 0.36605 0.0
C2813 C 0.88244 0.98927 0.36619 0.0
C2814 C 0.86834 0.03211 0.36684 0.0
C2815 C 0.85329 0.01543 0.3661 0.0
H2816 H 0.29613 0.88166 0.90129 0.0
H2817 H 0.26299 0.82766 0.87329 0.0
H2818 H 0.22992 0.84889 0.87058 0.0
H2819 H 0.20932 0.88048 0.88171 0.0
H2820 H 0.2413 0.93274 0.91427 0.0
H2821 H 0.27598 0.91473 0.90959 0.0
C2822 C 0.28182 0.87489 0.89393 0.0
C2823 C 0.28189 0.85332 0.88723 0.0
C2824 C 0.26259 0.88676 0.89368 0.0
C2825 C 0.26321 0.84435 0.8783 0.0
C2826 C 0.24431 0.85641 0.87694 0.0
C2827 C 0.22392 0.88819 0.88731 0.0
C2828 C 0.22274 0.90786 0.8984 0.0
C2829 C 0.24361 0.87731 0.88541 0.0
C2830 C 0.24179 0.91752 0.90581 0.0
C2831 C 0.26161 0.90722 0.90316 0.0
H2832 H 0.13204 0.45274 0.35137 0.0
H2833 H 0.0795 0.48826 0.37924 0.0
H2834 H 0.10182 0.52059 0.381 0.0
H2835 H 0.13342 0.54008 0.36792 0.0
H2836 H 0.18438 0.50539 0.33598 0.0
H2837 H 0.16581 0.47147 0.34268 0.0
C2838 C 0.12587 0.46737 0.35863 0.0
C2839 C 0.10432 0.46823 0.36533 0.0
C2840 C 0.13837 0.48619 0.35832 0.0
C2841 C 0.09616 0.48732 0.37418 0.0
C2842 C 0.10884 0.50582 0.37496 0.0
C2843 C 0.14073 0.52507 0.36289 0.0
C2844 C 0.16006 0.52532 0.35113 0.0
C2845 C 0.12956 0.50571 0.36603 0.0
C2846 C 0.16934 0.50569 0.34478 0.0
C2847 C 0.15872 0.48626 0.34858 0.0
H2848 H 0.75681 0.41653 0.61114 0.0
H2849 H 0.80284 0.36458 0.61285 0.0
H2850 H 0.77395 0.33886 0.61928 0.0
H2851 H 0.73532 0.33064 0.61663 0.0
H2852 H 0.68924 0.38246 0.61549 0.0
H2853 H 0.71839 0.40874 0.61727 0.0
C2854 C 0.76054 0.39965 0.61353 0.0
C2855 C 0.78182 0.39239 0.61097 0.0
C2856 C 0.74382 0.3849 0.61715 0.0
C2857 C 0.78655 0.37057 0.61453 0.0
C2858 C 0.77001 0.3558 0.61808 0.0
C2859 C 0.73167 0.34767 0.61759 0.0
C2860 C 0.71026 0.35464 0.61555 0.0
C2861 C 0.74852 0.36268 0.61829 0.0
C2862 C 0.70563 0.37671 0.61703 0.0
C2863 C 0.72232 0.39176 0.61777 0.0
H2864 H 0.62398 0.96041 0.64047 0.0
H2865 H 0.67987 0.99664 0.65998 0.0
H2866 H 0.65971 0.03019 0.65612 0.0
H2867 H 0.62503 0.04875 0.65159 0.0
H2868 H 0.56822 0.01198 0.63675 0.0
H2869 H 0.58987 0.97917 0.63383 0.0
C2870 C 0.63186 0.97568 0.64346 0.0
C2871 C 0.65335 0.97607 0.65054 0.0
C2872 C 0.61994 0.99481 0.64201 0.0
C2873 C 0.66328 0.99595 0.65465 0.0
C2874 C 0.65177 0.01512 0.65243 0.0
C2875 C 0.61759 0.03363 0.64704 0.0
C2876 C 0.59523 0.03267 0.64401 0.0
C2877 C 0.62994 0.01471 0.64669 0.0
C2878 C 0.5855 0.01299 0.63884 0.0
C2879 C 0.59784 0.99426 0.63737 0.0
H2880 H 0.22406 0.07663 0.58629 0.0
H2881 H 0.1803 0.12982 0.5949 0.0
H2882 H 0.21058 0.15431 0.59977 0.0
H2883 H 0.24945 0.16114 0.59826 0.0
H2884 H 0.29351 0.10798 0.59216 0.0
H2885 H 0.26322 0.08283 0.58997 0.0
C2886 C 0.22123 0.09354 0.58947 0.0
C2887 C 0.20005 0.10149 0.58993 0.0
C2888 C 0.23872 0.1075 0.59269 0.0
C2889 C 0.19649 0.12335 0.59442 0.0
C2890 C 0.21378 0.13738 0.59714 0.0
C2891 C 0.25236 0.144 0.59684 0.0
C2892 C 0.27354 0.13635 0.59519 0.0
C2893 C 0.23494 0.12971 0.59584 0.0
C2894 C 0.27726 0.11414 0.59357 0.0
C2895 C 0.25997 0.09982 0.59213 0.0
H2896 H 0.35759 0.45211 0.631 0.0
H2897 H 0.41616 0.48716 0.6191 0.0
H2898 H 0.396 0.52094 0.61763 0.0
H2899 H 0.3632 0.54073 0.62699 0.0
H2900 H 0.30582 0.50581 0.6443 0.0
H2901 H 0.32376 0.4718 0.63617 0.0
C2902 C 0.36574 0.46708 0.62725 0.0
C2903 C 0.38821 0.46728 0.62502 0.0
C2904 C 0.35425 0.48651 0.6279 0.0
C2905 C 0.3988 0.48674 0.62073 0.0
C2906 C 0.38732 0.50603 0.6201 0.0
C2907 C 0.35445 0.5257 0.62836 0.0
C2908 C 0.33331 0.5257 0.63637 0.0
C2909 C 0.36523 0.5062 0.62476 0.0
C2910 C 0.32219 0.50614 0.63832 0.0
C2911 C 0.33246 0.4867 0.63373 0.0
H2912 H 0.88285 0.73875 0.65702 0.0
H2913 H 0.89025 0.69459 0.60408 0.0
H2914 H 0.89246 0.72473 0.57886 0.0
H2915 H 0.89825 0.7635 0.57305 0.0
H2916 H 0.88967 0.80757 0.62596 0.0
H2917 H 0.88166 0.77761 0.65003 0.0
C2918 C 0.88434 0.73578 0.63988 0.0
C2919 C 0.88669 0.71464 0.63236 0.0
C2920 C 0.88571 0.75313 0.62557 0.0
C2921 C 0.88837 0.71081 0.61016 0.0
C2922 C 0.88986 0.72802 0.59579 0.0
C2923 C 0.89422 0.76651 0.58976 0.0
C2924 C 0.895 0.78757 0.59788 0.0
C2925 C 0.8895 0.74923 0.60347 0.0
C2926 C 0.88933 0.79143 0.61941 0.0
C2927 C 0.88484 0.77432 0.63321 0.0
H2928 H 0.01847 0.84757 0.6629 0.0
H2929 H 0.06321 0.84868 0.60989 0.0
H2930 H 0.03379 0.85551 0.58473 0.0
H2931 H 0.99488 0.85616 0.57745 0.0
H2932 H 0.9502 0.85746 0.63044 0.0
H2933 H 0.98003 0.85524 0.65606 0.0
C2934 C 0.02173 0.84972 0.64588 0.0
C2935 C 0.04281 0.84729 0.63814 0.0
C2936 C 0.00478 0.85404 0.63155 0.0
C2937 C 0.04703 0.85042 0.61616 0.0
C2938 C 0.03023 0.85424 0.60176 0.0
C2939 C 0.99179 0.85659 0.59463 0.0
C2940 C 0.9705 0.85679 0.60212 0.0
C2941 C 0.00898 0.85539 0.6092 0.0
C2942 C 0.96654 0.85745 0.62436 0.0
C2943 C 0.98356 0.85593 0.63899 0.0
H2944 H 0.11543 0.75148 0.66085 0.0
H2945 H 0.11594 0.79596 0.60769 0.0
H2946 H 0.11356 0.76602 0.58224 0.0
H2947 H 0.10496 0.72776 0.5758 0.0
H2948 H 0.10572 0.68332 0.62912 0.0
H2949 H 0.1142 0.71261 0.65384 0.0
C2950 C 0.11579 0.75451 0.64366 0.0
C2951 C 0.11568 0.77579 0.63609 0.0
C2952 C 0.11419 0.73727 0.62921 0.0
C2953 C 0.11619 0.77966 0.61384 0.0
C2954 C 0.11453 0.76256 0.59931 0.0
C2955 C 0.1074 0.72448 0.59278 0.0
C2956 C 0.10427 0.70354 0.60073 0.0
C2957 C 0.11249 0.74139 0.60689 0.0
C2958 C 0.10788 0.69935 0.62265 0.0
C2959 C 0.11266 0.7161 0.63681 0.0
H2960 H 0.03614 0.63991 0.62678 0.0
H2961 H 0.00362 0.63481 0.56577 0.0
H2962 H 0.96878 0.63314 0.58406 0.0
H2963 H 0.94751 0.63837 0.61693 0.0
H2964 H 0.97997 0.64865 0.67739 0.0
H2965 H 0.01482 0.64283 0.66004 0.0
C2966 C 0.02142 0.63781 0.61762 0.0
C2967 C 0.0223 0.63725 0.59506 0.0
C2968 C 0.00143 0.6381 0.62819 0.0
C2969 C 0.00319 0.63512 0.5832 0.0
C2970 C 0.98331 0.63429 0.59364 0.0
C2971 C 0.9622 0.63879 0.62637 0.0
C2972 C 0.96124 0.64387 0.64837 0.0
C2973 C 0.98219 0.63652 0.61607 0.0
C2974 C 0.98038 0.64478 0.6604 0.0
C2975 C 0.00029 0.64152 0.65047 0.0
H2976 H 0.89788 0.29189 0.87566 0.0
H2977 H 0.88876 0.25572 0.81724 0.0
H2978 H 0.88649 0.2223 0.83792 0.0
H2979 H 0.89277 0.20308 0.87186 0.0
H2980 H 0.90665 0.23907 0.92953 0.0
H2981 H 0.90123 0.27281 0.9101 0.0
C2982 C 0.89473 0.27673 0.86759 0.0
C2983 C 0.89336 0.27614 0.84506 0.0
C2984 C 0.89469 0.25753 0.87947 0.0
C2985 C 0.88979 0.25644 0.83463 0.0
C2986 C 0.88863 0.23736 0.84642 0.0
C2987 C 0.8941 0.21831 0.88025 0.0
C2988 C 0.90019 0.21865 0.90202 0.0
C2989 C 0.89192 0.23763 0.86875 0.0
C2990 C 0.90213 0.23847 0.91269 0.0
C2991 C 0.89906 0.25775 0.9016 0.0
H2992 H 0.47954 0.84225 0.32704 0.0
H2993 H 0.43708 0.86353 0.37768 0.0
H2994 H 0.46763 0.86822 0.40176 0.0
H2995 H 0.50563 0.86112 0.41004 0.0
H2996 H 0.54866 0.84135 0.35946 0.0
H2997 H 0.51883 0.84161 0.33363 0.0
C2998 C 0.47707 0.84831 0.34321 0.0
C2999 C 0.45603 0.85221 0.35064 0.0
C3000 C 0.4948 0.85115 0.35702 0.0
C3001 C 0.45307 0.86037 0.37153 0.0
C3002 C 0.47054 0.86295 0.3854 0.0
C3003 C 0.50853 0.85751 0.3932 0.0
C3004 C 0.52916 0.8511 0.38661 0.0
C3005 C 0.49136 0.85768 0.37854 0.0
C3006 C 0.53289 0.84649 0.36481 0.0
C3007 C 0.51579 0.8464 0.35012 0.0
H3008 H 0.09658 0.26183 0.92112 0.0
H3009 H 0.107 0.30824 0.87053 0.0
H3010 H 0.11369 0.27932 0.84493 0.0
H3011 H 0.11168 0.24095 0.83593 0.0
H3012 H 0.10265 0.19431 0.88645 0.0
H3013 H 0.10082 0.22315 0.91315 0.0
C3014 C 0.10066 0.26557 0.90457 0.0
C3015 C 0.10089 0.2871 0.89764 0.0
C3016 C 0.1047 0.24884 0.88991 0.0
C3017 C 0.10658 0.29178 0.87625 0.0
C3018 C 0.11034 0.27526 0.86156 0.0
C3019 C 0.10987 0.23711 0.85286 0.0
C3020 C 0.10706 0.21562 0.85922 0.0
C3021 C 0.10875 0.25374 0.86806 0.0
C3022 C 0.10493 0.21076 0.8812 0.0
C3023 C 0.10365 0.22726 0.89643 0.0
H3024 H 0.53936 0.64237 0.36843 0.0
H3025 H 0.50517 0.66908 0.31421 0.0
H3026 H 0.47095 0.66388 0.33288 0.0
H3027 H 0.45119 0.65538 0.3661 0.0
H3028 H 0.48585 0.63309 0.42182 0.0
H3029 H 0.51942 0.63242 0.40109 0.0
C3030 C 0.52439 0.64672 0.36058 0.0
C3031 C 0.52477 0.65612 0.34 0.0
C3032 C 0.50487 0.64441 0.37173 0.0
C3033 C 0.50528 0.66194 0.33011 0.0
C3034 C 0.48572 0.65895 0.34076 0.0
C3035 C 0.46603 0.64979 0.37342 0.0
C3036 C 0.46617 0.64388 0.39521 0.0
C3037 C 0.48536 0.65066 0.36176 0.0
C3038 C 0.48548 0.63736 0.40491 0.0
C3039 C 0.50463 0.63716 0.39313 0.0
H3040 H 0.62603 0.8857 0.78783 0.0
H3041 H 0.56836 0.90555 0.75462 0.0
H3042 H 0.58675 0.90218 0.72006 0.0
H3043 H 0.62077 0.89962 0.70002 0.0
H3044 H 0.67928 0.88416 0.73389 0.0
H3045 H 0.65907 0.87923 0.76729 0.0
C3046 C 0.61734 0.88873 0.77299 0.0
C3047 C 0.59595 0.89605 0.77378 0.0
C3048 C 0.62828 0.88767 0.75325 0.0
C3049 C 0.58493 0.9001 0.75443 0.0
C3050 C 0.59544 0.89821 0.73466 0.0
C3051 C 0.62891 0.89444 0.71458 0.0
C3052 C 0.65139 0.89215 0.71459 0.0
C3053 C 0.61735 0.89286 0.73394 0.0
C3054 C 0.66193 0.88592 0.73359 0.0
C3055 C 0.65041 0.88328 0.7527 0.0
H3056 H 0.57565 0.1 0.74276 0.0
H3057 H 0.62418 0.1126 0.69473 0.0
H3058 H 0.65077 0.11894 0.72274 0.0
H3059 H 0.66148 0.11551 0.76051 0.0
H3060 H 0.61337 0.10329 0.80893 0.0
H3061 H 0.58533 0.10271 0.78127 0.0
C3062 C 0.59195 0.10452 0.73849 0.0
C3063 C 0.59796 0.10563 0.7167 0.0
C3064 C 0.60728 0.10813 0.75475 0.0
C3065 C 0.61907 0.11176 0.71135 0.0
C3066 C 0.63437 0.11524 0.72738 0.0
C3067 C 0.64477 0.11331 0.76504 0.0
C3068 C 0.6395 0.10919 0.78662 0.0
C3069 C 0.62883 0.11274 0.74908 0.0
C3070 C 0.6178 0.10656 0.79239 0.0
C3071 C 0.60179 0.10598 0.77655 0.0
H3072 H 0.36121 0.13012 0.45864 0.0
H3073 H 0.37377 0.07246 0.49492 0.0
H3074 H 0.37516 0.09327 0.52828 0.0
H3075 H 0.36466 0.1261 0.54739 0.0
H3076 H 0.34695 0.1826 0.51119 0.0
H3077 H 0.35595 0.16431 0.47763 0.0
C3078 C 0.36518 0.12234 0.47376 0.0
C3079 C 0.36746 0.0999 0.47446 0.0
C3080 C 0.36443 0.13419 0.49297 0.0
C3081 C 0.37209 0.08978 0.49412 0.0
C3082 C 0.37263 0.10165 0.51318 0.0
C3083 C 0.36339 0.1346 0.5322 0.0
C3084 C 0.35483 0.15552 0.53171 0.0
C3085 C 0.36757 0.12363 0.51291 0.0
C3086 C 0.35321 0.16636 0.51192 0.0
C3087 C 0.35832 0.15589 0.49272 0.0
H3088 H 0.32524 0.39971 0.75608 0.0
H3089 H 0.38031 0.40335 0.79815 0.0
H3090 H 0.40446 0.4023 0.76708 0.0
H3091 H 0.40961 0.40412 0.72774 0.0
H3092 H 0.35459 0.39801 0.68584 0.0
H3093 H 0.33072 0.39599 0.71701 0.0
C3094 C 0.34255 0.39989 0.7584 0.0
C3095 C 0.35103 0.40183 0.77927 0.0
C3096 C 0.3563 0.39899 0.74051 0.0
C3097 C 0.37345 0.4018 0.78219 0.0
C3098 C 0.38724 0.40136 0.76444 0.0
C3099 C 0.39242 0.40202 0.7255 0.0
C3100 C 0.38381 0.40149 0.70458 0.0
C3101 C 0.37882 0.40053 0.7435 0.0
C3102 C 0.36157 0.39846 0.70181 0.0
C3103 C 0.3479 0.39743 0.71961 0.0
H3104 H 0.13231 0.90692 0.98524 0.0
H3105 H 0.15408 0.8588 0.9404 0.0
H3106 H 0.15432 0.83179 0.9691 0.0
H3107 H 0.15381 0.82369 0.00805 0.0
H3108 H 0.13061 0.87186 0.05237 0.0
H3109 H 0.12514 0.89689 0.02276 0.0
C3110 C 0.13647 0.89035 0.98168 0.0
C3111 C 0.14335 0.88481 0.96091 0.0
C3112 C 0.13663 0.87502 -0.00178 0.0
C3113 C 0.14861 0.86334 0.95631 0.0
C3114 C 0.14898 0.84797 0.97276 0.0
C3115 C 0.14717 0.83952 0.01113 0.0
C3116 C 0.14308 0.84604 0.03242 0.0
C3117 C 0.14389 0.85388 0.99396 0.0
C3118 C 0.13409 0.86646 0.03616 0.0
C3119 C 0.13101 0.88086 0.01924 0.0
H3120 H 0.83434 0.10625 0.24274 0.0
H3121 H 0.88702 0.10316 0.19784 0.0
H3122 H 0.91269 0.1005 0.22769 0.0
H3123 H 0.91939 0.0942 0.26648 0.0
H3124 H 0.86663 0.09976 0.31122 0.0
H3125 H 0.84175 0.1065 0.2816 0.0
C3126 C 0.8515 0.10564 0.23958 0.0
C3127 C 0.85887 0.10482 0.21826 0.0
C3128 C 0.86608 0.10421 0.25677 0.0
C3129 C 0.88108 0.10402 0.21421 0.0
C3130 C 0.89571 0.10225 0.23125 0.0
C3131 C 0.9025 0.09725 0.26969 0.0
C3132 C 0.89476 0.09616 0.29091 0.0
C3133 C 0.8883 0.10155 0.25258 0.0
C3134 C 0.87294 0.10046 0.29498 0.0
C3135 C 0.85867 0.10424 0.27806 0.0
H3136 H 0.34631 0.86723 0.04297 0.0
H3137 H 0.3606 0.92589 0.00903 0.0
H3138 H 0.36315 0.90604 0.97507 0.0
H3139 H 0.35629 0.87301 0.95462 0.0
H3140 H 0.33712 0.81535 0.98811 0.0
H3141 H 0.34155 0.83362 0.02267 0.0
C3142 C 0.35064 0.87546 0.0282 0.0
C3143 C 0.35361 0.89783 0.02837 0.0
C3144 C 0.35077 0.86415 0.00864 0.0
C3145 C 0.35853 0.90859 0.00915 0.0
C3146 C 0.3598 0.89728 0.98978 0.0
C3147 C 0.35349 0.86434 0.96951 0.0
C3148 C 0.34632 0.84291 0.96885 0.0
C3149 C 0.35519 0.8752 0.98923 0.0
C3150 C 0.3425 0.83192 0.98823 0.0
C3151 C 0.34504 0.84235 0.00798 0.0
H3152 H 0.63679 0.6304 0.95203 0.0
H3153 H 0.67564 0.67883 0.98313 0.0
H3154 H 0.66943 0.66177 0.01795 0.0
H3155 H 0.6573 0.63034 0.03868 0.0
H3156 H 0.62186 0.58005 0.00697 0.0
H3157 H 0.62179 0.60078 0.9734 0.0
C3158 C 0.64357 0.63747 0.96645 0.0
C3159 C 0.65685 0.65575 0.96489 0.0
C3160 C 0.64044 0.62722 0.98637 0.0
C3161 C 0.66556 0.66463 0.9838 0.0
C3162 C 0.662 0.6549 0.00375 0.0
C3163 C 0.64886 0.62441 0.02459 0.0
C3164 C 0.63916 0.60404 0.02524 0.0
C3165 C 0.65002 0.63584 0.00513 0.0
C3166 C 0.62896 0.59596 0.00681 0.0
C3167 C 0.62919 0.60768 0.9876 0.0
H3168 H 0.23451 0.23222 0.45697 0.0
H3169 H 0.18755 0.23181 0.50813 0.0
H3170 H 0.21624 0.23485 0.53477 0.0
H3171 H 0.25446 0.23008 0.54342 0.0
H3172 H 0.30136 0.22876 0.49223 0.0
H3173 H 0.27291 0.23438 0.46573 0.0
C3174 C 0.23053 0.23331 0.47393 0.0
C3175 C 0.20902 0.23116 0.48062 0.0
C3176 C 0.24711 0.23444 0.48917 0.0
C3177 C 0.20402 0.23313 0.50258 0.0
C3178 C 0.22043 0.23472 0.51784 0.0
C3179 C 0.2585 0.2315 0.5265 0.0
C3180 C 0.27986 0.22839 0.51971 0.0
C3181 C 0.24203 0.23419 0.51133 0.0
C3182 C 0.28498 0.2308 0.49783 0.0
C3183 C 0.26871 0.23389 0.48265 0.0
H3184 H 0.47414 0.53596 0.74549 0.0
H3185 H 0.47045 0.49487 0.80139 0.0
H3186 H 0.47254 0.46313 0.77852 0.0
H3187 H 0.4681 0.44749 0.74267 0.0
H3188 H 0.46978 0.48869 0.68677 0.0
H3189 H 0.47628 0.51985 0.70962 0.0
C3190 C 0.47433 0.52008 0.75272 0.0
C3191 C 0.47149 0.51775 0.775 0.0
C3192 C 0.47489 0.50188 0.73945 0.0
C3193 C 0.47215 0.49708 0.78418 0.0
C3194 C 0.47329 0.4789 0.77112 0.0
C3195 C 0.4704 0.46319 0.73544 0.0
C3196 C 0.4678 0.46588 0.71316 0.0
C3197 C 0.47349 0.48114 0.7487 0.0
C3198 C 0.47124 0.48627 0.70397 0.0
C3199 C 0.4749 0.50413 0.71702 0.0
H3200 H 0.69334 0.27737 0.49381 0.0
H3201 H 0.73997 0.27191 0.54505 0.0
H3202 H 0.76825 0.26451 0.51886 0.0
H3203 H 0.78055 0.26621 0.48161 0.0
H3204 H 0.73444 0.27498 0.43035 0.0
H3205 H 0.70502 0.2739 0.45634 0.0
C3206 C 0.70959 0.27407 0.49928 0.0
C3207 C 0.71469 0.27564 0.52125 0.0
C3208 C 0.72588 0.27062 0.48411 0.0
C3209 C 0.73575 0.27116 0.52815 0.0
C3210 C 0.75193 0.26696 0.51319 0.0
C3211 C 0.76404 0.26737 0.47604 0.0
C3212 C 0.75968 0.27117 0.45418 0.0
C3213 C 0.74733 0.26767 0.49112 0.0
C3214 C 0.73821 0.27238 0.44717 0.0
C3215 C 0.72139 0.27187 0.46203 0.0
H3216 H 0.51449 0.01242 0.71061 0.0
H3217 H 0.51922 0.05689 0.76374 0.0
H3218 H 0.51538 0.02724 0.78918 0.0
H3219 H 0.51811 0.98854 0.79597 0.0
H3220 H 0.51564 0.94404 0.74271 0.0
H3221 H 0.51063 0.97387 0.71771 0.0
C3222 C 0.51423 0.01568 0.72776 0.0
C3223 C 0.51777 0.0367 0.73531 0.0
C3224 C 0.51265 -0.00147 0.74227 0.0
C3225 C 0.51684 0.04079 0.75752 0.0
C3226 C 0.51477 0.02383 0.77209 0.0
C3227 C 0.51599 0.98532 0.77894 0.0
C3228 C 0.51789 0.96419 0.77112 0.0
C3229 C 0.51382 0.00257 0.76461 0.0
C3230 C 0.51457 0.9602 0.74911 0.0
C3231 C 0.51185 0.97727 0.73478 0.0
H3232 H 0.20335 0.76734 0.99526 0.0
H3233 H 0.24182 0.76978 0.05309 0.0
H3234 H 0.2744 0.76427 0.032 0.0
H3235 H 0.29216 0.76578 0.99693 0.0
H3236 H 0.25383 0.76572 0.93897 0.0
H3237 H 0.22105 0.7627 0.96033 0.0
C3238 C 0.2188 0.76615 0.00331 0.0
C3239 C 0.22023 0.76954 0.02561 0.0
C3240 C 0.23756 0.76362 0.99102 0.0
C3241 C 0.24033 0.76767 0.03585 0.0
C3242 C 0.259 0.76455 0.02381 0.0
C3243 C 0.27669 0.76453 0.98893 0.0
C3244 C 0.27538 0.76655 0.96645 0.0
C3245 C 0.25787 0.76359 0.00131 0.0
C3246 C 0.25523 0.76461 0.95631 0.0
C3247 C 0.23646 0.76298 0.96851 0.0
H3248 H 0.01701 0.45731 0.25272 0.0
H3249 H 0.02191 0.50188 0.30574 0.0
H3250 H 0.02027 0.53211 0.28078 0.0
H3251 H 0.02476 0.54528 0.24389 0.0
H3252 H 0.02251 0.50041 0.19095 0.0
H3253 H 0.01541 0.47097 0.21586 0.0
C3254 C 0.01715 0.47363 0.25888 0.0
C3255 C 0.02015 0.47736 0.28096 0.0
C3256 C 0.01701 0.49091 0.2444 0.0
C3257 C 0.02002 0.4986 0.28872 0.0
C3258 C 0.01917 0.5159 0.27446 0.0
C3259 C 0.02217 0.52916 0.23776 0.0
C3260 C 0.0247 0.52491 0.21571 0.0
C3261 C 0.01882 0.51219 0.25223 0.0
C3262 C 0.02107 0.504 0.20795 0.0
C3263 C 0.01705 0.48714 0.22218 0.0
H3264 H 0.71329 0.72787 0.99075 0.0
H3265 H 0.75522 0.72518 0.93548 0.0
H3266 H 0.78667 0.72535 0.95901 0.0
H3267 H 0.80157 0.71893 0.99496 0.0
H3268 H 0.75927 0.71892 0.05005 0.0
H3269 H 0.72872 0.72743 0.02694 0.0
C3270 C 0.72931 0.72796 0.98382 0.0
C3271 C 0.73195 0.726 0.96147 0.0
C3272 C 0.74727 0.72716 -0.00256 0.0
C3273 C 0.7528 0.72632 0.95271 0.0
C3274 C 0.77079 0.7263 0.96614 0.0
C3275 C 0.78576 0.72128 0.00197 0.0
C3276 C 0.78257 0.71775 0.02406 0.0
C3277 C 0.76814 0.72552 0.98852 0.0
C3278 C 0.76205 0.72111 0.03298 0.0
C3279 C 0.74456 0.72597 0.01978 0.0
H3280 H 0.97094 0.03951 0.2491 0.0
H3281 H 0.97073 -0.00232 0.30456 0.0
H3282 H 0.97245 0.96626 0.28118 0.0
H3283 H 0.96732 0.95088 0.24529 0.0
H3284 H 0.96551 0.99279 0.18991 0.0
H3285 H 0.97165 0.02389 0.21295 0.0
C3286 C 0.9718 0.02355 0.2561 0.0
C3287 C 0.97016 0.0209 0.27848 0.0
C3288 C 0.97212 0.00553 0.24256 0.0
C3289 C 0.97157 0.00013 0.28732 0.0
C3290 C 0.97248 0.98213 0.27397 0.0
C3291 C 0.96873 0.96676 0.2382 0.0
C3292 C 0.9654 0.96958 0.21602 0.0
C3293 C 0.97168 0.98465 0.25158 0.0
C3294 C 0.96761 0.99021 0.20702 0.0
C3295 C 0.97108 0.00804 0.22018 0.0
H3296 H 0.45421 0.24331 0.22274 0.0
H3297 H 0.50341 0.19444 0.22679 0.0
H3298 H 0.53103 0.22214 0.2298 0.0
H3299 H 0.54141 0.25974 0.22432 0.0
H3300 H 0.49226 0.3085 0.21863 0.0
H3301 H 0.4644 0.28136 0.22374 0.0
C3302 C 0.47094 0.23872 0.22472 0.0
C3303 C 0.47685 0.21692 0.22394 0.0
C3304 C 0.48675 0.2547 0.22594 0.0
C3305 C 0.49849 0.21115 0.22704 0.0
C3306 C 0.51431 0.22698 0.22866 0.0
C3307 C 0.52461 0.26449 0.22466 0.0
C3308 C 0.51885 0.28595 0.2205 0.0
C3309 C 0.50868 0.24875 0.22703 0.0
C3310 C 0.4971 0.29201 0.2215 0.0
C3311 C 0.48113 0.27648 0.22429 0.0
H3312 H 0.45442 0.24033 0.0227 0.0
H3313 H 0.49399 0.29732 0.02543 0.0
H3314 H 0.52637 0.27531 0.02341 0.0
H3315 H 0.54322 0.23991 0.02724 0.0
H3316 H 0.50362 0.18289 0.02599 0.0
H3317 H 0.4716 0.20489 0.02063 0.0
C3318 C 0.47011 0.24798 0.02235 0.0
C3319 C 0.47179 0.27038 0.02476 0.0
C3320 C 0.48871 0.2352 0.02172 0.0
C3321 C 0.49224 0.28005 0.02399 0.0
C3322 C 0.5108 0.26748 0.02289 0.0
C3323 C 0.52766 0.23225 0.02532 0.0
C3324 C 0.52577 0.20985 0.02757 0.0
C3325 C 0.50922 0.24501 0.02277 0.0
C3326 C 0.50551 0.20016 0.02471 0.0
C3327 C 0.48714 0.21273 0.02171 0.0
H3328 H 0.4963 0.71021 0.26273 0.0
H3329 H 0.55211 0.75133 0.2668 0.0
H3330 H 0.52914 0.78307 0.26506 0.0
H3331 H 0.49322 0.79856 0.27014 0.0
H3332 H 0.43754 0.75711 0.26878 0.0
H3333 H 0.46041 0.72616 0.26132 0.0
C3334 C 0.50349 0.7261 0.26265 0.0
C3335 C 0.52577 0.72844 0.26553 0.0
C3336 C 0.49016 0.74425 0.26248 0.0
C3337 C 0.5349 0.74912 0.26505 0.0
C3338 C 0.52178 0.7673 0.26414 0.0
C3339 C 0.48605 0.78286 0.26764 0.0
C3340 C 0.46385 0.77998 0.27059 0.0
C3341 C 0.49935 0.76501 0.26409 0.0
C3342 C 0.4547 0.75961 0.26706 0.0
C3343 C 0.46776 0.74189 0.26282 0.0
H3344 H 0.01052 0.29167 0.98269 0.0
H3345 H 0.05844 0.24151 0.97921 0.0
H3346 H 0.0305 0.21429 0.98347 0.0
H3347 H 0.99232 0.20496 0.98065 0.0
H3348 H 0.94437 0.25522 0.9818 0.0
H3349 H 0.97249 0.28216 0.98646 0.0
C3350 C 0.01491 0.2748 0.98333 0.0
C3351 C 0.0364 0.26857 0.97999 0.0
C3352 C -0.00127 0.25925 0.9851 0.0
C3353 C 0.04195 0.24671 0.98141 0.0
C3354 C 0.02596 0.23112 0.98372 0.0
C3355 C 0.98797 0.22176 0.9824 0.0
C3356 C 0.96637 0.22816 0.98022 0.0
C3357 C 0.00424 0.23721 0.98439 0.0
C3358 C 0.96093 0.24991 0.98305 0.0
C3359 C 0.97701 0.26535 0.9856 0.0
H3360 H 0.23562 0.49072 0.20508 0.0
H3361 H 0.23645 0.43575 0.24748 0.0
H3362 H 0.24062 0.45938 0.27853 0.0
H3363 H 0.23615 0.49543 0.29373 0.0
H3364 H 0.23235 0.55028 0.25132 0.0
H3365 H 0.23768 0.52698 0.22022 0.0
C3366 C 0.23735 0.48387 0.22104 0.0
C3367 C 0.23516 0.46159 0.22406 0.0
C3368 C 0.23886 0.49758 0.23888 0.0
C3369 C 0.23767 0.45293 0.24481 0.0
C3370 C 0.23996 0.46643 0.26258 0.0
C3371 C 0.23709 0.50236 0.27774 0.0
C3372 C 0.23329 0.52443 0.27477 0.0
C3373 C 0.23934 0.48879 0.25988 0.0
C3374 C 0.2348 0.53323 0.25398 0.0
C3375 C 0.23778 0.51992 0.23617 0.0
H3376 H 0.75443 0.51961 0.03885 0.0
H3377 H 0.69765 0.52038 -0.00123 0.0
H3378 H 0.7194 0.51203 0.96727 0.0
H3379 H 0.7549 0.51188 0.9504 0.0
H3380 H 0.81187 0.51373 0.99011 0.0
H3381 H 0.78968 0.51298 0.02247 0.0
C3382 C 0.74676 0.51746 0.02331 0.0
C3383 C 0.7246 0.52123 0.02102 0.0
C3384 C 0.75943 0.51327 0.00514 0.0
C3385 C 0.7148 0.51806 0.00086 0.0
C3386 C 0.72721 0.51327 0.98282 0.0
C3387 C 0.76249 0.51144 0.96612 0.0
C3388 C 0.78491 0.51344 0.9679 0.0
C3389 C 0.74964 0.51195 0.98462 0.0
C3390 C 0.79455 0.51261 0.98837 0.0
C3391 C 0.78189 0.51232 0.00688 0.0
H3392 H 0.77781 0.04266 0.24306 0.0
H3393 H 0.77336 0.99099 0.19687 0.0
H3394 H 0.76822 0.96519 0.22599 0.0
H3395 H 0.77126 0.95678 0.26436 0.0
H3396 H 0.77774 0.00828 0.31051 0.0
H3397 H 0.7753 0.0347 0.28159 0.0
C3398 C 0.77534 0.0258 0.23932 0.0
C3399 C 0.77651 0.01867 0.21788 0.0
C3400 C 0.77292 0.011 0.25615 0.0
C3401 C 0.77282 0.99687 0.21326 0.0
C3402 C 0.76996 0.98208 0.22992 0.0
C3403 C 0.7717 0.9738 0.26816 0.0
C3404 C 0.77523 0.98054 0.28949 0.0
C3405 C 0.77095 0.98887 0.25142 0.0
C3406 C 0.77533 0.00264 0.2942 0.0
C3407 C 0.77406 0.01777 0.27765 0.0
H3408 H 0.70244 0.47167 0.48039 0.0
H3409 H 0.75926 0.47322 0.44044 0.0
H3410 H 0.78189 0.4757 0.47244 0.0
H3411 H 0.78564 0.47097 0.51137 0.0
H3412 H 0.7289 0.46707 0.55124 0.0
H3413 H 0.70612 0.47234 0.51963 0.0
C3414 C 0.71976 0.47298 0.47863 0.0
C3415 C 0.72918 0.47171 0.45806 0.0
C3416 C 0.73269 0.47371 0.4971 0.0
C3417 C 0.7516 0.47386 0.45607 0.0
C3418 C 0.76457 0.47517 0.47438 0.0
C3419 C 0.76829 0.47165 0.51322 0.0
C3420 C 0.75894 0.4681 0.53354 0.0
C3421 C 0.75532 0.47406 0.49494 0.0
C3422 C 0.73649 0.46949 0.53575 0.0
C3423 C 0.72345 0.4724 0.51766 0.0
H3424 H 0.26163 0.54172 0.73803 0.0
H3425 H 0.26081 0.48838 0.6936 0.0
H3426 H 0.25634 0.46333 0.7235 0.0
H3427 H 0.26043 0.45643 0.7621 0.0
H3428 H 0.26351 0.50976 0.80647 0.0
H3429 H 0.25879 0.53497 0.77676 0.0
C3430 C 0.25999 0.52464 0.73486 0.0
C3431 C 0.2622 0.51682 0.71375 0.0
C3432 C 0.25808 0.51032 0.75213 0.0
C3433 C 0.25948 0.49476 0.70976 0.0
C3434 C 0.25705 0.48041 0.72686 0.0
C3435 C 0.25957 0.47356 0.76533 0.0
C3436 C 0.263 0.48127 0.78633 0.0
C3437 C 0.25755 0.48796 0.74813 0.0
C3438 C 0.26127 0.50343 0.79039 0.0
C3439 C 0.2587 0.51787 0.77338 0.0
H3440 H 0.23837 0.01891 0.54355 0.0
H3441 H 0.18544 0.0209 0.49854 0.0
H3442 H 0.21048 0.01743 0.46855 0.0
H3443 H 0.2474 0.02092 0.45522 0.0
H3444 H 0.30029 0.02127 0.50032 0.0
H3445 H 0.27527 0.01632 0.53011 0.0
C3446 C 0.23225 0.01806 0.52722 0.0
C3447 C 0.21016 0.02074 0.52325 0.0
C3448 C 0.24677 0.01678 0.51002 0.0
C3449 C 0.20245 0.01928 0.50201 0.0
C3450 C 0.21676 0.01737 0.48483 0.0
C3451 C 0.25351 0.01939 0.47151 0.0
C3452 C 0.27558 0.02203 0.47562 0.0
C3453 C 0.23899 0.01723 0.48863 0.0
C3454 C 0.28328 0.01971 0.49678 0.0
C3455 C 0.26899 0.01694 0.51384 0.0
H3456 H -0.00256 0.79022 0.71619 0.0
H3457 H 0.05303 0.74855 0.71543 0.0
H3458 H 0.03009 0.71741 0.72165 0.0
H3459 H 0.99405 0.7016 0.72095 0.0
H3460 H 0.93834 0.74306 0.71964 0.0
H3461 H 0.96153 0.77466 0.72114 0.0
C3462 C 0.00459 0.77439 0.71783 0.0
C3463 C 0.02683 0.77165 0.71482 0.0
C3464 C 0.99125 0.75645 0.72087 0.0
C3465 C 0.03588 0.75106 0.71727 0.0
C3466 C 0.02277 0.73321 0.72082 0.0
C3467 C 0.98694 0.71752 0.72156 0.0
C3468 C 0.96455 0.71999 0.71968 0.0
C3469 C 0.00038 0.73563 0.72168 0.0
C3470 C 0.95558 0.74073 0.72071 0.0
C3471 C 0.96883 0.75883 0.72147 0.0
H3472 H 0.01249 0.70474 0.51743 0.0
H3473 H 0.06014 0.75482 0.52402 0.0
H3474 H 0.032 0.78211 0.52163 0.0
H3475 H 0.99367 0.79117 0.52437 0.0
H3476 H 0.94608 0.74076 0.52004 0.0
H3477 H 0.97443 0.71422 0.51459 0.0
C3478 C 0.01679 0.72164 0.5179 0.0
C3479 C 0.0383 0.72773 0.52145 0.0
C3480 C 0.0005 0.73719 0.51724 0.0
C3481 C 0.04367 0.74968 0.52157 0.0
C3482 C 0.02756 0.7653 0.52035 0.0
C3483 C 0.98945 0.77444 0.52181 0.0
C3484 C 0.96783 0.76787 0.52315 0.0
C3485 C 0.00586 0.75917 0.51926 0.0
C3486 C 0.96262 0.7462 0.51944 0.0
C3487 C 0.97883 0.73099 0.51637 0.0
H3488 H 0.00455 0.20752 0.76056 0.0
H3489 H 0.06174 0.24615 0.76834 0.0
H3490 H 0.04087 0.27874 0.7622 0.0
H3491 H 0.00555 0.29619 0.76266 0.0
H3492 H 0.94812 0.25754 0.75731 0.0
H3493 H 0.96993 0.22514 0.75387 0.0
C3494 C 0.01255 0.22302 0.76035 0.0
C3495 C 0.03449 0.22448 0.76558 0.0
C3496 C 0.00034 0.24176 0.7575 0.0
C3497 C 0.04472 0.24464 0.76486 0.0
C3498 C 0.0328 0.26332 0.76139 0.0
C3499 C -0.00218 0.28077 0.76008 0.0
C3500 C 0.9753 0.27915 0.7609 0.0
C3501 C 0.01043 0.26211 0.75894 0.0
C3502 C 0.96549 0.25911 0.75722 0.0
C3503 C 0.97794 0.24055 0.75534 0.0
H3504 H 0.47779 0.70856 0.48227 0.0
H3505 H 0.43065 0.75838 0.4714 0.0
H3506 H 0.45846 0.78581 0.47538 0.0
H3507 H 0.49687 0.79476 0.47437 0.0
H3508 H 0.54414 0.74464 0.48331 0.0
H3509 H 0.51553 0.71825 0.4881 0.0
C3510 C 0.47353 0.72546 0.48128 0.0
C3511 C 0.45239 0.73146 0.47594 0.0
C3512 C 0.48967 0.74105 0.48294 0.0
C3513 C 0.4469 0.75336 0.47523 0.0
C3514 C 0.46282 0.76905 0.47735 0.0
C3515 C 0.50091 0.77814 0.47784 0.0
C3516 C 0.52254 0.77151 0.47783 0.0
C3517 C 0.4844 0.76297 0.48 0.0
C3518 C 0.52759 0.75008 0.48289 0.0
C3519 C 0.51124 0.73495 0.48552 0.0
H3520 H 0.73327 0.0078 0.69872 0.0
H3521 H 0.73885 0.95091 0.73812 0.0
H3522 H 0.74461 0.97313 0.76993 0.0
H3523 H 0.74012 0.00819 0.78721 0.0
H3524 H 0.73144 0.06486 0.74804 0.0
H3525 H 0.73535 0.04333 0.71548 0.0
C3526 C 0.73635 0.00025 0.71415 0.0
C3527 C 0.73504 0.9778 0.7162 0.0
C3528 C 0.73879 0.01312 0.7325 0.0
C3529 C 0.73934 0.96822 0.73624 0.0
C3530 C 0.74256 0.98091 0.75446 0.0
C3531 C 0.7397 0.01593 0.77157 0.0
C3532 C 0.73491 0.03794 0.76999 0.0
C3533 C 0.74108 0.00333 0.75293 0.0
C3534 C 0.73468 0.04782 0.74964 0.0
C3535 C 0.73683 0.03551 0.73101 0.0
H3536 H 0.28336 0.98137 0.01718 0.0
H3537 H 0.23422 0.96698 0.06408 0.0
H3538 H 0.20644 0.9713 0.03664 0.0
H3539 H 0.19706 0.97231 -0.0017 0.0
H3540 H 0.24645 0.98536 0.95124 0.0
H3541 H 0.27309 0.98887 0.97984 0.0
C3542 C 0.26653 0.97964 0.02149 0.0
C3543 C 0.26087 0.97332 0.04245 0.0
C3544 C 0.2507 0.98167 0.00555 0.0
C3545 C 0.23901 0.97161 0.04798 0.0
C3546 C 0.22312 0.97394 0.03226 0.0
C3547 C 0.21356 0.97639 0.99433 0.0
C3548 C 0.21989 0.97798 0.97267 0.0
C3549 C 0.2289 0.9779 0.01081 0.0
C3550 C 0.2412 0.98375 0.96778 0.0
C3551 C 0.25649 0.98564 0.98412 0.0
loop_
_geom_bond_atom_site_label_1
_geom_bond_atom_site_label_2
_geom_bond_distance
_geom_bond_site_symmetry_2
_ccdc_geom_bond_type
Co0 O3 1.970 . S
Co0 N17 1.989 . S
Co0 O25 1.967 . S
Co0 O32 1.920 . S
Co1 O4 1.966 . S
Co1 N10 2.022 . S
Co1 N18 1.993 . S
Co1 O26 1.941 . S
C2 O3 1.258 . S
C2 O4 1.263 . S
O3 Co0 1.970 . S
O3 C2 1.258 . S
O4 Co1 1.966 . S
O4 C2 1.263 . S
C5 O6 1.235 . S
C5 O32 1.289 . S
O6 C5 1.235 . S
C7 C9 1.400 . S
C7 N10 1.351 . S
C7 C12 1.501 . S
C8 C9 1.387 . S
C8 N11 1.341 . S
C9 C7 1.400 . S
C9 C8 1.387 . S
N10 Co1 2.022 . S
N10 C7 1.351 . S
N10 N11 1.365 . S
N11 C8 1.341 . S
N11 N10 1.365 . S
N11 H31 0.862 . S
C12 C7 1.501 . S
C12 H13 0.961 . S
C12 H14 0.961 . S
C12 H15 0.960 . S
H13 C12 0.961 . S
H14 C12 0.961 . S
H15 C12 0.960 . S
C16 N17 1.342 . S
C16 C20 1.401 . S
C16 C21 1.499 . S
N17 Co0 1.989 . S
N17 C16 1.342 . S
N17 N18 1.388 . S
N18 Co1 1.993 . S
N18 N17 1.388 . S
N18 C19 1.346 . S
C19 N18 1.346 . S
C19 C20 1.396 . S
C19 C29 1.510 . S
C20 C16 1.401 . S
C20 C19 1.396 . S
C21 C16 1.499 . S
C21 H22 0.959 . S
C21 H23 0.960 . S
C21 H24 0.961 . S
H22 C21 0.959 . S
H23 C21 0.960 . S
H24 C21 0.961 . S
O25 Co0 1.967 . S
O25 C33 1.258 . S
O26 Co1 1.941 . S
O26 C33 1.266 . S
H27 C29 0.959 . S
H28 C29 0.961 . S
C29 C19 1.510 . S
C29 H27 0.959 . S
C29 H28 0.961 . S
C29 H30 0.960 . S
H30 C29 0.960 . S
H31 N11 0.862 . S
O32 Co0 1.920 . S
O32 C5 1.289 . S
C33 O25 1.258 . S
C33 O26 1.266 . S
Co34 O37 1.970 . S
Co34 N51 1.989 . S
Co34 O59 1.967 . S
Co34 O66 1.920 . S
Co35 O38 1.966 . S
Co35 N44 2.022 . S
Co35 N52 1.993 . S
Co35 O60 1.941 . S
C36 O37 1.258 . S
C36 O38 1.263 . S
O37 Co34 1.970 . S
O37 C36 1.258 . S
O38 Co35 1.966 . S
O38 C36 1.263 . S
C39 O40 1.235 . S
C39 O66 1.289 . S
O40 C39 1.235 . S
C41 C43 1.400 . S
C41 N44 1.351 . S
C41 C46 1.501 . S
C42 C43 1.387 . S
C42 N45 1.341 . S
C43 C41 1.400 . S
C43 C42 1.387 . S
N44 Co35 2.022 . S
N44 C41 1.351 . S
N44 N45 1.365 . S
N45 C42 1.341 . S
N45 N44 1.365 . S
N45 H65 0.862 . S
C46 C41 1.501 . S
C46 H47 0.961 . S
C46 H48 0.961 . S
C46 H49 0.960 . S
H47 C46 0.961 . S
H48 C46 0.961 . S
H49 C46 0.960 . S
C50 N51 1.342 . S
C50 C54 1.401 . S
C50 C55 1.499 . S
N51 Co34 1.989 . S
N51 C50 1.342 . S
N51 N52 1.388 . S
N52 Co35 1.993 . S
N52 N51 1.388 . S
N52 C53 1.346 . S
C53 N52 1.346 . S
C53 C54 1.396 . S
C53 C63 1.510 . S
C54 C50 1.401 . S
C54 C53 1.396 . S
C55 C50 1.499 . S
C55 H56 0.959 . S
C55 H57 0.960 . S
C55 H58 0.961 . S
H56 C55 0.959 . S
H57 C55 0.960 . S
H58 C55 0.961 . S
O59 Co34 1.967 . S
O59 C67 1.258 . S
O60 Co35 1.941 . S
O60 C67 1.266 . S
H61 C63 0.959 . S
H62 C63 0.961 . S
C63 C53 1.510 . S
C63 H61 0.959 . S
C63 H62 0.961 . S
C63 H64 0.960 . S
H64 C63 0.960 . S
H65 N45 0.862 . S
O66 Co34 1.920 . S
O66 C39 1.289 . S
C67 O59 1.258 . S
C67 O60 1.266 . S
Co68 O71 1.970 . S
Co68 N85 1.989 . S
Co68 O93 1.967 . S
Co68 O100 1.920 . S
Co69 O72 1.966 . S
Co69 N78 2.022 . S
Co69 N86 1.993 . S
Co69 O94 1.941 . S
C70 O71 1.258 . S
C70 O72 1.263 . S
O71 Co68 1.970 . S
O71 C70 1.258 . S
O72 Co69 1.966 . S
O72 C70 1.263 . S
C73 O74 1.235 . S
C73 O100 1.289 . S
O74 C73 1.235 . S
C75 C77 1.400 . S
C75 N78 1.351 . S
C75 C80 1.501 . S
C76 C77 1.387 . S
C76 N79 1.341 . S
C77 C75 1.400 . S
C77 C76 1.387 . S
N78 Co69 2.022 . S
N78 C75 1.351 . S
N78 N79 1.365 . S
N79 C76 1.341 . S
N79 N78 1.365 . S
N79 H99 0.862 . S
C80 C75 1.501 . S
C80 H81 0.961 . S
C80 H82 0.961 . S
C80 H83 0.960 . S
H81 C80 0.961 . S
H82 C80 0.961 . S
H83 C80 0.960 . S
C84 N85 1.342 . S
C84 C88 1.401 . S
C84 C89 1.499 . S
N85 Co68 1.989 . S
N85 C84 1.342 . S
N85 N86 1.388 . S
N86 Co69 1.993 . S
N86 N85 1.388 . S
N86 C87 1.346 . S
C87 N86 1.346 . S
C87 C88 1.396 . S
C87 C97 1.510 . S
C88 C84 1.401 . S
C88 C87 1.396 . S
C89 C84 1.499 . S
C89 H90 0.959 . S
C89 H91 0.960 . S
C89 H92 0.961 . S
H90 C89 0.959 . S
H91 C89 0.960 . S
H92 C89 0.961 . S
O93 Co68 1.967 . S
O93 C101 1.258 . S
O94 Co69 1.941 . S
O94 C101 1.266 . S
H95 C97 0.959 . S
H96 C97 0.961 . S
C97 C87 1.510 . S
C97 H95 0.959 . S
C97 H96 0.961 . S
C97 H98 0.960 . S
H98 C97 0.960 . S
H99 N79 0.862 . S
O100 Co68 1.920 . S
O100 C73 1.289 . S
C101 O93 1.258 . S
C101 O94 1.266 . S
Co102 O105 1.970 . S
Co102 N119 1.989 . S
Co102 O127 1.967 . S
Co102 O134 1.920 . S
Co103 O106 1.966 . S
Co103 N112 2.022 . S
Co103 N120 1.993 . S
Co103 O128 1.941 . S
C104 O105 1.258 . S
C104 O106 1.263 . S
O105 Co102 1.970 . S
O105 C104 1.258 . S
O106 Co103 1.966 . S
O106 C104 1.263 . S
C107 O108 1.235 . S
C107 O134 1.289 . S
O108 C107 1.235 . S
C109 C111 1.400 . S
C109 N112 1.351 . S
C109 C114 1.501 . S
C110 C111 1.387 . S
C110 N113 1.341 . S
C111 C109 1.400 . S
C111 C110 1.387 . S
N112 Co103 2.022 . S
N112 C109 1.351 . S
N112 N113 1.365 . S
N113 C110 1.341 . S
N113 N112 1.365 . S
N113 H133 0.862 . S
C114 C109 1.501 . S
C114 H115 0.961 . S
C114 H116 0.961 . S
C114 H117 0.960 . S
H115 C114 0.961 . S
H116 C114 0.961 . S
H117 C114 0.960 . S
C118 N119 1.342 . S
C118 C122 1.401 . S
C118 C123 1.499 . S
N119 Co102 1.989 . S
N119 C118 1.342 . S
N119 N120 1.388 . S
N120 Co103 1.993 . S
N120 N119 1.388 . S
N120 C121 1.346 . S
C121 N120 1.346 . S
C121 C122 1.396 . S
C121 C131 1.510 . S
C122 C118 1.401 . S
C122 C121 1.396 . S
C123 C118 1.499 . S
C123 H124 0.959 . S
C123 H125 0.960 . S
C123 H126 0.961 . S
H124 C123 0.959 . S
H125 C123 0.960 . S
H126 C123 0.961 . S
O127 Co102 1.967 . S
O127 C135 1.258 . S
O128 Co103 1.941 . S
O128 C135 1.266 . S
H129 C131 0.959 . S
H130 C131 0.961 . S
C131 C121 1.510 . S
C131 H129 0.959 . S
C131 H130 0.961 . S
C131 H132 0.960 . S
H132 C131 0.960 . S
H133 N113 0.862 . S
O134 Co102 1.920 . S
O134 C107 1.289 . S
C135 O127 1.258 . S
C135 O128 1.266 . S
Co136 O139 1.970 . S
Co136 N153 1.989 . S
Co136 O161 1.967 . S
Co136 O168 1.920 . S
Co137 O140 1.966 . S
Co137 N146 2.022 . S
Co137 N154 1.993 . S
Co137 O162 1.941 . S
C138 O139 1.258 . S
C138 O140 1.263 . S
O139 Co136 1.970 . S
O139 C138 1.258 . S
O140 Co137 1.966 . S
O140 C138 1.263 . S
C141 O142 1.235 . S
C141 O168 1.289 . S
O142 C141 1.235 . S
C143 C145 1.400 . S
C143 N146 1.351 . S
C143 C148 1.501 . S
C144 C145 1.387 . S
C144 N147 1.341 . S
C145 C143 1.400 . S
C145 C144 1.387 . S
N146 Co137 2.022 . S
N146 C143 1.351 . S
N146 N147 1.365 . S
N147 C144 1.341 . S
N147 N146 1.365 . S
N147 H167 0.862 . S
C148 C143 1.501 . S
C148 H149 0.961 . S
C148 H150 0.961 . S
C148 H151 0.960 . S
H149 C148 0.961 . S
H150 C148 0.961 . S
H151 C148 0.960 . S
C152 N153 1.342 . S
C152 C156 1.401 . S
C152 C157 1.499 . S
N153 Co136 1.989 . S
N153 C152 1.342 . S
N153 N154 1.388 . S
N154 Co137 1.993 . S
N154 N153 1.388 . S
N154 C155 1.346 . S
C155 N154 1.346 . S
C155 C156 1.396 . S
C155 C165 1.510 . S
C156 C152 1.401 . S
C156 C155 1.396 . S
C157 C152 1.499 . S
C157 H158 0.959 . S
C157 H159 0.960 . S
C157 H160 0.961 . S
H158 C157 0.959 . S
H159 C157 0.960 . S
H160 C157 0.961 . S
O161 Co136 1.967 . S
O161 C169 1.258 . S
O162 Co137 1.941 . S
O162 C169 1.266 . S
H163 C165 0.959 . S
H164 C165 0.961 . S
C165 C155 1.510 . S
C165 H163 0.959 . S
C165 H164 0.961 . S
C165 H166 0.960 . S
H166 C165 0.960 . S
H167 N147 0.862 . S
O168 Co136 1.920 . S
O168 C141 1.289 . S
C169 O161 1.258 . S
C169 O162 1.266 . S
Co170 O173 1.970 . S
Co170 N187 1.989 . S
Co170 O195 1.967 . S
Co170 O202 1.920 . S
Co171 O174 1.966 . S
Co171 N180 2.022 . S
Co171 N188 1.993 . S
Co171 O196 1.941 . S
C172 O173 1.258 . S
C172 O174 1.263 . S
O173 Co170 1.970 . S
O173 C172 1.258 . S
O174 Co171 1.966 . S
O174 C172 1.263 . S
C175 O176 1.235 . S
C175 O202 1.289 . S
O176 C175 1.235 . S
C177 C179 1.400 . S
C177 N180 1.351 . S
C177 C182 1.501 . S
C178 C179 1.387 . S
C178 N181 1.341 . S
C179 C177 1.400 . S
C179 C178 1.387 . S
N180 Co171 2.022 . S
N180 C177 1.351 . S
N180 N181 1.365 . S
N181 C178 1.341 . S
N181 N180 1.365 . S
N181 H201 0.862 . S
C182 C177 1.501 . S
C182 H183 0.961 . S
C182 H184 0.961 . S
C182 H185 0.960 . S
H183 C182 0.961 . S
H184 C182 0.961 . S
H185 C182 0.960 . S
C186 N187 1.342 . S
C186 C190 1.401 . S
C186 C191 1.499 . S
N187 Co170 1.989 . S
N187 C186 1.342 . S
N187 N188 1.388 . S
N188 Co171 1.993 . S
N188 N187 1.388 . S
N188 C189 1.346 . S
C189 N188 1.346 . S
C189 C190 1.396 . S
C189 C199 1.510 . S
C190 C186 1.401 . S
C190 C189 1.396 . S
C191 C186 1.499 . S
C191 H192 0.959 . S
C191 H193 0.960 . S
C191 H194 0.961 . S
H192 C191 0.959 . S
H193 C191 0.960 . S
H194 C191 0.961 . S
O195 Co170 1.967 . S
O195 C203 1.258 . S
O196 Co171 1.941 . S
O196 C203 1.266 . S
H197 C199 0.959 . S
H198 C199 0.961 . S
C199 C189 1.510 . S
C199 H197 0.959 . S
C199 H198 0.961 . S
C199 H200 0.960 . S
H200 C199 0.960 . S
H201 N181 0.862 . S
O202 Co170 1.920 . S
O202 C175 1.289 . S
C203 O195 1.258 . S
C203 O196 1.266 . S
Co204 O207 1.970 . S
Co204 N221 1.989 . S
Co204 O229 1.967 . S
Co204 O236 1.920 . S
Co205 O208 1.966 . S
Co205 N214 2.022 . S
Co205 N222 1.993 . S
Co205 O230 1.941 . S
C206 O207 1.258 . S
C206 O208 1.263 . S
O207 Co204 1.970 . S
O207 C206 1.258 . S
O208 Co205 1.966 . S
O208 C206 1.263 . S
C209 O210 1.235 . S
C209 O236 1.289 . S
O210 C209 1.235 . S
C211 C213 1.400 . S
C211 N214 1.351 . S
C211 C216 1.501 . S
C212 C213 1.387 . S
C212 N215 1.341 . S
C213 C211 1.400 . S
C213 C212 1.387 . S
N214 Co205 2.022 . S
N214 C211 1.351 . S
N214 N215 1.365 . S
N215 C212 1.341 . S
N215 N214 1.365 . S
N215 H235 0.862 . S
C216 C211 1.501 . S
C216 H217 0.961 . S
C216 H218 0.961 . S
C216 H219 0.960 . S
H217 C216 0.961 . S
H218 C216 0.961 . S
H219 C216 0.960 . S
C220 N221 1.342 . S
C220 C224 1.401 . S
C220 C225 1.499 . S
N221 Co204 1.989 . S
N221 C220 1.342 . S
N221 N222 1.388 . S
N222 Co205 1.993 . S
N222 N221 1.388 . S
N222 C223 1.346 . S
C223 N222 1.346 . S
C223 C224 1.396 . S
C223 C233 1.510 . S
C224 C220 1.401 . S
C224 C223 1.396 . S
C225 C220 1.499 . S
C225 H226 0.959 . S
C225 H227 0.960 . S
C225 H228 0.961 . S
H226 C225 0.959 . S
H227 C225 0.960 . S
H228 C225 0.961 . S
O229 Co204 1.967 . S
O229 C237 1.258 . S
O230 Co205 1.941 . S
O230 C237 1.266 . S
H231 C233 0.959 . S
H232 C233 0.961 . S
C233 C223 1.510 . S
C233 H231 0.959 . S
C233 H232 0.961 . S
C233 H234 0.960 . S
H234 C233 0.960 . S
H235 N215 0.862 . S
O236 Co204 1.920 . S
O236 C209 1.289 . S
C237 O229 1.258 . S
C237 O230 1.266 . S
Co238 O241 1.970 . S
Co238 N255 1.989 . S
Co238 O263 1.967 . S
Co238 O270 1.920 . S
Co239 O242 1.966 . S
Co239 N248 2.022 . S
Co239 N256 1.993 . S
Co239 O264 1.941 . S
C240 O241 1.258 . S
C240 O242 1.263 . S
O241 Co238 1.970 . S
O241 C240 1.258 . S
O242 Co239 1.966 . S
O242 C240 1.263 . S
C243 O244 1.235 . S
C243 O270 1.289 . S
O244 C243 1.235 . S
C245 C247 1.400 . S
C245 N248 1.351 . S
C245 C250 1.501 . S
C246 C247 1.387 . S
C246 N249 1.341 . S
C247 C245 1.400 . S
C247 C246 1.387 . S
N248 Co239 2.022 . S
N248 C245 1.351 . S
N248 N249 1.365 . S
N249 C246 1.341 . S
N249 N248 1.365 . S
N249 H269 0.862 . S
C250 C245 1.501 . S
C250 H251 0.961 . S
C250 H252 0.961 . S
C250 H253 0.960 . S
H251 C250 0.961 . S
H252 C250 0.961 . S
H253 C250 0.960 . S
C254 N255 1.342 . S
C254 C258 1.401 . S
C254 C259 1.499 . S
N255 Co238 1.989 . S
N255 C254 1.342 . S
N255 N256 1.388 . S
N256 Co239 1.993 . S
N256 N255 1.388 . S
N256 C257 1.346 . S
C257 N256 1.346 . S
C257 C258 1.396 . S
C257 C267 1.510 . S
C258 C254 1.401 . S
C258 C257 1.396 . S
C259 C254 1.499 . S
C259 H260 0.959 . S
C259 H261 0.960 . S
C259 H262 0.961 . S
H260 C259 0.959 . S
H261 C259 0.960 . S
H262 C259 0.961 . S
O263 Co238 1.967 . S
O263 C271 1.258 . S
O264 Co239 1.941 . S
O264 C271 1.266 . S
H265 C267 0.959 . S
H266 C267 0.961 . S
C267 C257 1.510 . S
C267 H265 0.959 . S
C267 H266 0.961 . S
C267 H268 0.960 . S
H268 C267 0.960 . S
H269 N249 0.862 . S
O270 Co238 1.920 . S
O270 C243 1.289 . S
C271 O263 1.258 . S
C271 O264 1.266 . S
Co272 O275 1.970 . S
Co272 N289 1.989 . S
Co272 O297 1.967 . S
Co272 O304 1.920 . S
Co273 O276 1.966 . S
Co273 N282 2.022 . S
Co273 N290 1.993 . S
Co273 O298 1.941 . S
C274 O275 1.258 . S
C274 O276 1.263 . S
O275 Co272 1.970 . S
O275 C274 1.258 . S
O276 Co273 1.966 . S
O276 C274 1.263 . S
C277 O278 1.235 . S
C277 O304 1.289 . S
O278 C277 1.235 . S
C279 C281 1.400 . S
C279 N282 1.351 . S
C279 C284 1.501 . S
C280 C281 1.387 . S
C280 N283 1.341 . S
C281 C279 1.400 . S
C281 C280 1.387 . S
N282 Co273 2.022 . S
N282 C279 1.351 . S
N282 N283 1.365 . S
N283 C280 1.341 . S
N283 N282 1.365 . S
N283 H303 0.862 . S
C284 C279 1.501 . S
C284 H285 0.961 . S
C284 H286 0.961 . S
C284 H287 0.960 . S
H285 C284 0.961 . S
H286 C284 0.961 . S
H287 C284 0.960 . S
C288 N289 1.342 . S
C288 C292 1.401 . S
C288 C293 1.499 . S
N289 Co272 1.989 . S
N289 C288 1.342 . S
N289 N290 1.388 . S
N290 Co273 1.993 . S
N290 N289 1.388 . S
N290 C291 1.346 . S
C291 N290 1.346 . S
C291 C292 1.396 . S
C291 C301 1.510 . S
C292 C288 1.401 . S
C292 C291 1.396 . S
C293 C288 1.499 . S
C293 H294 0.959 . S
C293 H295 0.960 . S
C293 H296 0.961 . S
H294 C293 0.959 . S
H295 C293 0.960 . S
H296 C293 0.961 . S
O297 Co272 1.967 . S
O297 C305 1.258 . S
O298 Co273 1.941 . S
O298 C305 1.266 . S
H299 C301 0.959 . S
H300 C301 0.961 . S
C301 C291 1.510 . S
C301 H299 0.959 . S
C301 H300 0.961 . S
C301 H302 0.960 . S
H302 C301 0.960 . S
H303 N283 0.862 . S
O304 Co272 1.920 . S
O304 C277 1.289 . S
C305 O297 1.258 . S
C305 O298 1.266 . S
Co306 O309 1.970 . S
Co306 N323 1.989 . S
Co306 O331 1.967 . S
Co306 O338 1.920 . S
Co307 O310 1.966 . S
Co307 N316 2.022 . S
Co307 N324 1.993 . S
Co307 O332 1.941 . S
C308 O309 1.258 . S
C308 O310 1.263 . S
O309 Co306 1.970 . S
O309 C308 1.258 . S
O310 Co307 1.966 . S
O310 C308 1.263 . S
C311 O312 1.235 . S
C311 O338 1.289 . S
O312 C311 1.235 . S
C313 C315 1.400 . S
C313 N316 1.351 . S
C313 C318 1.501 . S
C314 C315 1.387 . S
C314 N317 1.341 . S
C315 C313 1.400 . S
C315 C314 1.387 . S
N316 Co307 2.022 . S
N316 C313 1.351 . S
N316 N317 1.365 . S
N317 C314 1.341 . S
N317 N316 1.365 . S
N317 H337 0.862 . S
C318 C313 1.501 . S
C318 H319 0.961 . S
C318 H320 0.961 . S
C318 H321 0.960 . S
H319 C318 0.961 . S
H320 C318 0.961 . S
H321 C318 0.960 . S
C322 N323 1.342 . S
C322 C326 1.401 . S
C322 C327 1.499 . S
N323 Co306 1.989 . S
N323 C322 1.342 . S
N323 N324 1.388 . S
N324 Co307 1.993 . S
N324 N323 1.388 . S
N324 C325 1.346 . S
C325 N324 1.346 . S
C325 C326 1.396 . S
C325 C335 1.510 . S
C326 C322 1.401 . S
C326 C325 1.396 . S
C327 C322 1.499 . S
C327 H328 0.959 . S
C327 H329 0.960 . S
C327 H330 0.961 . S
H328 C327 0.959 . S
H329 C327 0.960 . S
H330 C327 0.961 . S
O331 Co306 1.967 . S
O331 C339 1.258 . S
O332 Co307 1.941 . S
O332 C339 1.266 . S
H333 C335 0.959 . S
H334 C335 0.961 . S
C335 C325 1.510 . S
C335 H333 0.959 . S
C335 H334 0.961 . S
C335 H336 0.960 . S
H336 C335 0.960 . S
H337 N317 0.862 . S
O338 Co306 1.920 . S
O338 C311 1.289 . S
C339 O331 1.258 . S
C339 O332 1.266 . S
Co340 O343 1.970 . S
Co340 N357 1.989 . S
Co340 O365 1.967 . S
Co340 O372 1.920 . S
Co341 O344 1.966 . S
Co341 N350 2.022 . S
Co341 N358 1.993 . S
Co341 O366 1.941 . S
C342 O343 1.258 . S
C342 O344 1.263 . S
O343 Co340 1.970 . S
O343 C342 1.258 . S
O344 Co341 1.966 . S
O344 C342 1.263 . S
C345 O346 1.235 . S
C345 O372 1.289 . S
O346 C345 1.235 . S
C347 C349 1.400 . S
C347 N350 1.351 . S
C347 C352 1.501 . S
C348 C349 1.387 . S
C348 N351 1.341 . S
C349 C347 1.400 . S
C349 C348 1.387 . S
N350 Co341 2.022 . S
N350 C347 1.351 . S
N350 N351 1.365 . S
N351 C348 1.341 . S
N351 N350 1.365 . S
N351 H371 0.862 . S
C352 C347 1.501 . S
C352 H353 0.961 . S
C352 H354 0.961 . S
C352 H355 0.960 . S
H353 C352 0.961 . S
H354 C352 0.961 . S
H355 C352 0.960 . S
C356 N357 1.342 . S
C356 C360 1.401 . S
C356 C361 1.499 . S
N357 Co340 1.989 . S
N357 C356 1.342 . S
N357 N358 1.388 . S
N358 Co341 1.993 . S
N358 N357 1.388 . S
N358 C359 1.346 . S
C359 N358 1.346 . S
C359 C360 1.396 . S
C359 C369 1.510 . S
C360 C356 1.401 . S
C360 C359 1.396 . S
C361 C356 1.499 . S
C361 H362 0.959 . S
C361 H363 0.960 . S
C361 H364 0.961 . S
H362 C361 0.959 . S
H363 C361 0.960 . S
H364 C361 0.961 . S
O365 Co340 1.967 . S
O365 C373 1.258 . S
O366 Co341 1.941 . S
O366 C373 1.266 . S
H367 C369 0.959 . S
H368 C369 0.961 . S
C369 C359 1.510 . S
C369 H367 0.959 . S
C369 H368 0.961 . S
C369 H370 0.960 . S
H370 C369 0.960 . S
H371 N351 0.862 . S
O372 Co340 1.920 . S
O372 C345 1.289 . S
C373 O365 1.258 . S
C373 O366 1.266 . S
Co374 O377 1.970 . S
Co374 N391 1.989 . S
Co374 O399 1.967 . S
Co374 O406 1.920 . S
Co375 O378 1.966 . S
Co375 N384 2.022 . S
Co375 N392 1.993 . S
Co375 O400 1.941 . S
C376 O377 1.258 . S
C376 O378 1.263 . S
O377 Co374 1.970 . S
O377 C376 1.258 . S
O378 Co375 1.966 . S
O378 C376 1.263 . S
C379 O380 1.235 . S
C379 O406 1.289 . S
O380 C379 1.235 . S
C381 C383 1.400 . S
C381 N384 1.351 . S
C381 C386 1.501 . S
C382 C383 1.387 . S
C382 N385 1.341 . S
C383 C381 1.400 . S
C383 C382 1.387 . S
N384 Co375 2.022 . S
N384 C381 1.351 . S
N384 N385 1.365 . S
N385 C382 1.341 . S
N385 N384 1.365 . S
N385 H405 0.862 . S
C386 C381 1.501 . S
C386 H387 0.961 . S
C386 H388 0.961 . S
C386 H389 0.960 . S
H387 C386 0.961 . S
H388 C386 0.961 . S
H389 C386 0.960 . S
C390 N391 1.342 . S
C390 C394 1.401 . S
C390 C395 1.499 . S
N391 Co374 1.989 . S
N391 C390 1.342 . S
N391 N392 1.388 . S
N392 Co375 1.993 . S
N392 N391 1.388 . S
N392 C393 1.346 . S
C393 N392 1.346 . S
C393 C394 1.396 . S
C393 C403 1.510 . S
C394 C390 1.401 . S
C394 C393 1.396 . S
C395 C390 1.499 . S
C395 H396 0.959 . S
C395 H397 0.960 . S
C395 H398 0.961 . S
H396 C395 0.959 . S
H397 C395 0.960 . S
H398 C395 0.961 . S
O399 Co374 1.967 . S
O399 C407 1.258 . S
O400 Co375 1.941 . S
O400 C407 1.266 . S
H401 C403 0.959 . S
H402 C403 0.961 . S
C403 C393 1.510 . S
C403 H401 0.959 . S
C403 H402 0.961 . S
C403 H404 0.960 . S
H404 C403 0.960 . S
H405 N385 0.862 . S
O406 Co374 1.920 . S
O406 C379 1.289 . S
C407 O399 1.258 . S
C407 O400 1.266 . S
Co408 O411 1.970 . S
Co408 N425 1.989 . S
Co408 O433 1.967 . S
Co408 O440 1.920 . S
Co409 O412 1.966 . S
Co409 N418 2.022 . S
Co409 N426 1.993 . S
Co409 O434 1.941 . S
C410 O411 1.258 . S
C410 O412 1.263 . S
O411 Co408 1.970 . S
O411 C410 1.258 . S
O412 Co409 1.966 . S
O412 C410 1.263 . S
C413 O414 1.235 . S
C413 O440 1.289 . S
O414 C413 1.235 . S
C415 C417 1.400 . S
C415 N418 1.351 . S
C415 C420 1.501 . S
C416 C417 1.387 . S
C416 N419 1.341 . S
C417 C415 1.400 . S
C417 C416 1.387 . S
N418 Co409 2.022 . S
N418 C415 1.351 . S
N418 N419 1.365 . S
N419 C416 1.341 . S
N419 N418 1.365 . S
N419 H439 0.862 . S
C420 C415 1.501 . S
C420 H421 0.961 . S
C420 H422 0.961 . S
C420 H423 0.960 . S
H421 C420 0.961 . S
H422 C420 0.961 . S
H423 C420 0.960 . S
C424 N425 1.342 . S
C424 C428 1.401 . S
C424 C429 1.499 . S
N425 Co408 1.989 . S
N425 C424 1.342 . S
N425 N426 1.388 . S
N426 Co409 1.993 . S
N426 N425 1.388 . S
N426 C427 1.346 . S
C427 N426 1.346 . S
C427 C428 1.396 . S
C427 C437 1.510 . S
C428 C424 1.401 . S
C428 C427 1.396 . S
C429 C424 1.499 . S
C429 H430 0.959 . S
C429 H431 0.960 . S
C429 H432 0.961 . S
H430 C429 0.959 . S
H431 C429 0.960 . S
H432 C429 0.961 . S
O433 Co408 1.967 . S
O433 C441 1.258 . S
O434 Co409 1.941 . S
O434 C441 1.266 . S
H435 C437 0.959 . S
H436 C437 0.961 . S
C437 C427 1.510 . S
C437 H435 0.959 . S
C437 H436 0.961 . S
C437 H438 0.960 . S
H438 C437 0.960 . S
H439 N419 0.862 . S
O440 Co408 1.920 . S
O440 C413 1.289 . S
C441 O433 1.258 . S
C441 O434 1.266 . S
Co442 O445 1.970 . S
Co442 N459 1.989 . S
Co442 O467 1.967 . S
Co442 O474 1.920 . S
Co443 O446 1.966 . S
Co443 N452 2.022 . S
Co443 N460 1.993 . S
Co443 O468 1.941 . S
C444 O445 1.258 . S
C444 O446 1.263 . S
O445 Co442 1.970 . S
O445 C444 1.258 . S
O446 Co443 1.966 . S
O446 C444 1.263 . S
C447 O448 1.235 . S
C447 O474 1.289 . S
O448 C447 1.235 . S
C449 C451 1.400 . S
C449 N452 1.351 . S
C449 C454 1.501 . S
C450 C451 1.387 . S
C450 N453 1.341 . S
C451 C449 1.400 . S
C451 C450 1.387 . S
N452 Co443 2.022 . S
N452 C449 1.351 . S
N452 N453 1.365 . S
N453 C450 1.341 . S
N453 N452 1.365 . S
N453 H473 0.862 . S
C454 C449 1.501 . S
C454 H455 0.961 . S
C454 H456 0.961 . S
C454 H457 0.960 . S
H455 C454 0.961 . S
H456 C454 0.961 . S
H457 C454 0.960 . S
C458 N459 1.342 . S
C458 C462 1.401 . S
C458 C463 1.499 . S
N459 Co442 1.989 . S
N459 C458 1.342 . S
N459 N460 1.388 . S
N460 Co443 1.993 . S
N460 N459 1.388 . S
N460 C461 1.346 . S
C461 N460 1.346 . S
C461 C462 1.396 . S
C461 C471 1.510 . S
C462 C458 1.401 . S
C462 C461 1.396 . S
C463 C458 1.499 . S
C463 H464 0.959 . S
C463 H465 0.960 . S
C463 H466 0.961 . S
H464 C463 0.959 . S
H465 C463 0.960 . S
H466 C463 0.961 . S
O467 Co442 1.967 . S
O467 C475 1.258 . S
O468 Co443 1.941 . S
O468 C475 1.266 . S
H469 C471 0.959 . S
H470 C471 0.961 . S
C471 C461 1.510 . S
C471 H469 0.959 . S
C471 H470 0.961 . S
C471 H472 0.960 . S
H472 C471 0.960 . S
H473 N453 0.862 . S
O474 Co442 1.920 . S
O474 C447 1.289 . S
C475 O467 1.258 . S
C475 O468 1.266 . S
Co476 O479 1.970 . S
Co476 N493 1.989 . S
Co476 O501 1.967 . S
Co476 O508 1.920 . S
Co477 O480 1.966 . S
Co477 N486 2.022 . S
Co477 N494 1.993 . S
Co477 O502 1.941 . S
C478 O479 1.258 . S
C478 O480 1.263 . S
O479 Co476 1.970 . S
O479 C478 1.258 . S
O480 Co477 1.966 . S
O480 C478 1.263 . S
C481 O482 1.235 . S
C481 O508 1.289 . S
O482 C481 1.235 . S
C483 C485 1.400 . S
C483 N486 1.351 . S
C483 C488 1.501 . S
C484 C485 1.387 . S
C484 N487 1.341 . S
C485 C483 1.400 . S
C485 C484 1.387 . S
N486 Co477 2.022 . S
N486 C483 1.351 . S
N486 N487 1.365 . S
N487 C484 1.341 . S
N487 N486 1.365 . S
N487 H507 0.862 . S
C488 C483 1.501 . S
C488 H489 0.961 . S
C488 H490 0.961 . S
C488 H491 0.960 . S
H489 C488 0.961 . S
H490 C488 0.961 . S
H491 C488 0.960 . S
C492 N493 1.342 . S
C492 C496 1.401 . S
C492 C497 1.499 . S
N493 Co476 1.989 . S
N493 C492 1.342 . S
N493 N494 1.388 . S
N494 Co477 1.993 . S
N494 N493 1.388 . S
N494 C495 1.346 . S
C495 N494 1.346 . S
C495 C496 1.396 . S
C495 C505 1.510 . S
C496 C492 1.401 . S
C496 C495 1.396 . S
C497 C492 1.499 . S
C497 H498 0.959 . S
C497 H499 0.960 . S
C497 H500 0.961 . S
H498 C497 0.959 . S
H499 C497 0.960 . S
H500 C497 0.961 . S
O501 Co476 1.967 . S
O501 C509 1.258 . S
O502 Co477 1.941 . S
O502 C509 1.266 . S
H503 C505 0.959 . S
H504 C505 0.961 . S
C505 C495 1.510 . S
C505 H503 0.959 . S
C505 H504 0.961 . S
C505 H506 0.960 . S
H506 C505 0.960 . S
H507 N487 0.862 . S
O508 Co476 1.920 . S
O508 C481 1.289 . S
C509 O501 1.258 . S
C509 O502 1.266 . S
Co510 O513 1.970 . S
Co510 N527 1.989 . S
Co510 O535 1.967 . S
Co510 O542 1.920 . S
Co511 O514 1.966 . S
Co511 N520 2.022 . S
Co511 N528 1.993 . S
Co511 O536 1.941 . S
C512 O513 1.258 . S
C512 O514 1.263 . S
O513 Co510 1.970 . S
O513 C512 1.258 . S
O514 Co511 1.966 . S
O514 C512 1.263 . S
C515 O516 1.235 . S
C515 O542 1.289 . S
O516 C515 1.235 . S
C517 C519 1.400 . S
C517 N520 1.351 . S
C517 C522 1.501 . S
C518 C519 1.387 . S
C518 N521 1.341 . S
C519 C517 1.400 . S
C519 C518 1.387 . S
N520 Co511 2.022 . S
N520 C517 1.351 . S
N520 N521 1.365 . S
N521 C518 1.341 . S
N521 N520 1.365 . S
N521 H541 0.862 . S
C522 C517 1.501 . S
C522 H523 0.961 . S
C522 H524 0.961 . S
C522 H525 0.960 . S
H523 C522 0.961 . S
H524 C522 0.961 . S
H525 C522 0.960 . S
C526 N527 1.342 . S
C526 C530 1.401 . S
C526 C531 1.499 . S
N527 Co510 1.989 . S
N527 C526 1.342 . S
N527 N528 1.388 . S
N528 Co511 1.993 . S
N528 N527 1.388 . S
N528 C529 1.346 . S
C529 N528 1.346 . S
C529 C530 1.396 . S
C529 C539 1.510 . S
C530 C526 1.401 . S
C530 C529 1.396 . S
C531 C526 1.499 . S
C531 H532 0.959 . S
C531 H533 0.960 . S
C531 H534 0.961 . S
H532 C531 0.959 . S
H533 C531 0.960 . S
H534 C531 0.961 . S
O535 Co510 1.967 . S
O535 C543 1.258 . S
O536 Co511 1.941 . S
O536 C543 1.266 . S
H537 C539 0.959 . S
H538 C539 0.961 . S
C539 C529 1.510 . S
C539 H537 0.959 . S
C539 H538 0.961 . S
C539 H540 0.960 . S
H540 C539 0.960 . S
H541 N521 0.862 . S
O542 Co510 1.920 . S
O542 C515 1.289 . S
C543 O535 1.258 . S
C543 O536 1.266 . S
Co544 O547 1.970 . S
Co544 N561 1.989 . S
Co544 O569 1.967 . S
Co544 O576 1.920 . S
Co545 O548 1.966 . S
Co545 N554 2.022 . S
Co545 N562 1.993 . S
Co545 O570 1.941 . S
C546 O547 1.258 . S
C546 O548 1.263 . S
O547 Co544 1.970 . S
O547 C546 1.258 . S
O548 Co545 1.966 . S
O548 C546 1.263 . S
C549 O550 1.235 . S
C549 O576 1.289 . S
O550 C549 1.235 . S
C551 C553 1.400 . S
C551 N554 1.351 . S
C551 C556 1.501 . S
C552 C553 1.387 . S
C552 N555 1.341 . S
C553 C551 1.400 . S
C553 C552 1.387 . S
N554 Co545 2.022 . S
N554 C551 1.351 . S
N554 N555 1.365 . S
N555 C552 1.341 . S
N555 N554 1.365 . S
N555 H575 0.862 . S
C556 C551 1.501 . S
C556 H557 0.961 . S
C556 H558 0.961 . S
C556 H559 0.960 . S
H557 C556 0.961 . S
H558 C556 0.961 . S
H559 C556 0.960 . S
C560 N561 1.342 . S
C560 C564 1.401 . S
C560 C565 1.499 . S
N561 Co544 1.989 . S
N561 C560 1.342 . S
N561 N562 1.388 . S
N562 Co545 1.993 . S
N562 N561 1.388 . S
N562 C563 1.346 . S
C563 N562 1.346 . S
C563 C564 1.396 . S
C563 C573 1.510 . S
C564 C560 1.401 . S
C564 C563 1.396 . S
C565 C560 1.499 . S
C565 H566 0.959 . S
C565 H567 0.960 . S
C565 H568 0.961 . S
H566 C565 0.959 . S
H567 C565 0.960 . S
H568 C565 0.961 . S
O569 Co544 1.967 . S
O569 C577 1.258 . S
O570 Co545 1.941 . S
O570 C577 1.266 . S
H571 C573 0.959 . S
H572 C573 0.961 . S
C573 C563 1.510 . S
C573 H571 0.959 . S
C573 H572 0.961 . S
C573 H574 0.960 . S
H574 C573 0.960 . S
H575 N555 0.862 . S
O576 Co544 1.920 . S
O576 C549 1.289 . S
C577 O569 1.258 . S
C577 O570 1.266 . S
Co578 O581 1.970 . S
Co578 N595 1.989 . S
Co578 O603 1.967 . S
Co578 O610 1.920 . S
Co579 O582 1.966 . S
Co579 N588 2.022 . S
Co579 N596 1.993 . S
Co579 O604 1.941 . S
C580 O581 1.258 . S
C580 O582 1.263 . S
O581 Co578 1.970 . S
O581 C580 1.258 . S
O582 Co579 1.966 . S
O582 C580 1.263 . S
C583 O584 1.235 . S
C583 O610 1.289 . S
O584 C583 1.235 . S
C585 C587 1.400 . S
C585 N588 1.351 . S
C585 C590 1.501 . S
C586 C587 1.387 . S
C586 N589 1.341 . S
C587 C585 1.400 . S
C587 C586 1.387 . S
N588 Co579 2.022 . S
N588 C585 1.351 . S
N588 N589 1.365 . S
N589 C586 1.341 . S
N589 N588 1.365 . S
N589 H609 0.862 . S
C590 C585 1.501 . S
C590 H591 0.961 . S
C590 H592 0.961 . S
C590 H593 0.960 . S
H591 C590 0.961 . S
H592 C590 0.961 . S
H593 C590 0.960 . S
C594 N595 1.342 . S
C594 C598 1.401 . S
C594 C599 1.499 . S
N595 Co578 1.989 . S
N595 C594 1.342 . S
N595 N596 1.388 . S
N596 Co579 1.993 . S
N596 N595 1.388 . S
N596 C597 1.346 . S
C597 N596 1.346 . S
C597 C598 1.396 . S
C597 C607 1.510 . S
C598 C594 1.401 . S
C598 C597 1.396 . S
C599 C594 1.499 . S
C599 H600 0.959 . S
C599 H601 0.960 . S
C599 H602 0.961 . S
H600 C599 0.959 . S
H601 C599 0.960 . S
H602 C599 0.961 . S
O603 Co578 1.967 . S
O603 C611 1.258 . S
O604 Co579 1.941 . S
O604 C611 1.266 . S
H605 C607 0.959 . S
H606 C607 0.961 . S
C607 C597 1.510 . S
C607 H605 0.959 . S
C607 H606 0.961 . S
C607 H608 0.960 . S
H608 C607 0.960 . S
H609 N589 0.862 . S
O610 Co578 1.920 . S
O610 C583 1.289 . S
C611 O603 1.258 . S
C611 O604 1.266 . S
Co612 O615 1.970 . S
Co612 N629 1.989 . S
Co612 O637 1.967 . S
Co612 O644 1.920 . S
Co613 O616 1.966 . S
Co613 N622 2.022 . S
Co613 N630 1.993 . S
Co613 O638 1.941 . S
C614 O615 1.258 . S
C614 O616 1.263 . S
O615 Co612 1.970 . S
O615 C614 1.258 . S
O616 Co613 1.966 . S
O616 C614 1.263 . S
C617 O618 1.235 . S
C617 O644 1.289 . S
O618 C617 1.235 . S
C619 C621 1.400 . S
C619 N622 1.351 . S
C619 C624 1.501 . S
C620 C621 1.387 . S
C620 N623 1.341 . S
C621 C619 1.400 . S
C621 C620 1.387 . S
N622 Co613 2.022 . S
N622 C619 1.351 . S
N622 N623 1.365 . S
N623 C620 1.341 . S
N623 N622 1.365 . S
N623 H643 0.862 . S
C624 C619 1.501 . S
C624 H625 0.961 . S
C624 H626 0.961 . S
C624 H627 0.960 . S
H625 C624 0.961 . S
H626 C624 0.961 . S
H627 C624 0.960 . S
C628 N629 1.342 . S
C628 C632 1.401 . S
C628 C633 1.499 . S
N629 Co612 1.989 . S
N629 C628 1.342 . S
N629 N630 1.388 . S
N630 Co613 1.993 . S
N630 N629 1.388 . S
N630 C631 1.346 . S
C631 N630 1.346 . S
C631 C632 1.396 . S
C631 C641 1.510 . S
C632 C628 1.401 . S
C632 C631 1.396 . S
C633 C628 1.499 . S
C633 H634 0.959 . S
C633 H635 0.960 . S
C633 H636 0.961 . S
H634 C633 0.959 . S
H635 C633 0.960 . S
H636 C633 0.961 . S
O637 Co612 1.967 . S
O637 C645 1.258 . S
O638 Co613 1.941 . S
O638 C645 1.266 . S
H639 C641 0.959 . S
H640 C641 0.961 . S
C641 C631 1.510 . S
C641 H639 0.959 . S
C641 H640 0.961 . S
C641 H642 0.960 . S
H642 C641 0.960 . S
H643 N623 0.862 . S
O644 Co612 1.920 . S
O644 C617 1.289 . S
C645 O637 1.258 . S
C645 O638 1.266 . S
Co646 O649 1.970 . S
Co646 N663 1.989 . S
Co646 O671 1.967 . S
Co646 O678 1.920 . S
Co647 O650 1.966 . S
Co647 N656 2.022 . S
Co647 N664 1.993 . S
Co647 O672 1.941 . S
C648 O649 1.258 . S
C648 O650 1.263 . S
O649 Co646 1.970 . S
O649 C648 1.258 . S
O650 Co647 1.966 . S
O650 C648 1.263 . S
C651 O652 1.235 . S
C651 O678 1.289 . S
O652 C651 1.235 . S
C653 C655 1.400 . S
C653 N656 1.351 . S
C653 C658 1.501 . S
C654 C655 1.387 . S
C654 N657 1.341 . S
C655 C653 1.400 . S
C655 C654 1.387 . S
N656 Co647 2.022 . S
N656 C653 1.351 . S
N656 N657 1.365 . S
N657 C654 1.341 . S
N657 N656 1.365 . S
N657 H677 0.862 . S
C658 C653 1.501 . S
C658 H659 0.961 . S
C658 H660 0.961 . S
C658 H661 0.960 . S
H659 C658 0.961 . S
H660 C658 0.961 . S
H661 C658 0.960 . S
C662 N663 1.342 . S
C662 C666 1.401 . S
C662 C667 1.499 . S
N663 Co646 1.989 . S
N663 C662 1.342 . S
N663 N664 1.388 . S
N664 Co647 1.993 . S
N664 N663 1.388 . S
N664 C665 1.346 . S
C665 N664 1.346 . S
C665 C666 1.396 . S
C665 C675 1.510 . S
C666 C662 1.401 . S
C666 C665 1.396 . S
C667 C662 1.499 . S
C667 H668 0.959 . S
C667 H669 0.960 . S
C667 H670 0.961 . S
H668 C667 0.959 . S
H669 C667 0.960 . S
H670 C667 0.961 . S
O671 Co646 1.967 . S
O671 C679 1.258 . S
O672 Co647 1.941 . S
O672 C679 1.266 . S
H673 C675 0.959 . S
H674 C675 0.961 . S
C675 C665 1.510 . S
C675 H673 0.959 . S
C675 H674 0.961 . S
C675 H676 0.960 . S
H676 C675 0.960 . S
H677 N657 0.862 . S
O678 Co646 1.920 . S
O678 C651 1.289 . S
C679 O671 1.258 . S
C679 O672 1.266 . S
Co680 O683 1.970 . S
Co680 N697 1.989 . S
Co680 O705 1.967 . S
Co680 O712 1.920 . S
Co681 O684 1.966 . S
Co681 N690 2.022 . S
Co681 N698 1.993 . S
Co681 O706 1.941 . S
C682 O683 1.258 . S
C682 O684 1.263 . S
O683 Co680 1.970 . S
O683 C682 1.258 . S
O684 Co681 1.966 . S
O684 C682 1.263 . S
C685 O686 1.235 . S
C685 O712 1.289 . S
O686 C685 1.235 . S
C687 C689 1.400 . S
C687 N690 1.351 . S
C687 C692 1.501 . S
C688 C689 1.387 . S
C688 N691 1.341 . S
C689 C687 1.400 . S
C689 C688 1.387 . S
N690 Co681 2.022 . S
N690 C687 1.351 . S
N690 N691 1.365 . S
N691 C688 1.341 . S
N691 N690 1.365 . S
N691 H711 0.862 . S
C692 C687 1.501 . S
C692 H693 0.961 . S
C692 H694 0.961 . S
C692 H695 0.960 . S
H693 C692 0.961 . S
H694 C692 0.961 . S
H695 C692 0.960 . S
C696 N697 1.342 . S
C696 C700 1.401 . S
C696 C701 1.499 . S
N697 Co680 1.989 . S
N697 C696 1.342 . S
N697 N698 1.388 . S
N698 Co681 1.993 . S
N698 N697 1.388 . S
N698 C699 1.346 . S
C699 N698 1.346 . S
C699 C700 1.396 . S
C699 C709 1.510 . S
C700 C696 1.401 . S
C700 C699 1.396 . S
C701 C696 1.499 . S
C701 H702 0.959 . S
C701 H703 0.960 . S
C701 H704 0.961 . S
H702 C701 0.959 . S
H703 C701 0.960 . S
H704 C701 0.961 . S
O705 Co680 1.967 . S
O705 C713 1.258 . S
O706 Co681 1.941 . S
O706 C713 1.266 . S
H707 C709 0.959 . S
H708 C709 0.961 . S
C709 C699 1.510 . S
C709 H707 0.959 . S
C709 H708 0.961 . S
C709 H710 0.960 . S
H710 C709 0.960 . S
H711 N691 0.862 . S
O712 Co680 1.920 . S
O712 C685 1.289 . S
C713 O705 1.258 . S
C713 O706 1.266 . S
Co714 O717 1.970 . S
Co714 N731 1.989 . S
Co714 O739 1.967 . S
Co714 O746 1.920 . S
Co715 O718 1.966 . S
Co715 N724 2.022 . S
Co715 N732 1.993 . S
Co715 O740 1.941 . S
C716 O717 1.258 . S
C716 O718 1.263 . S
O717 Co714 1.970 . S
O717 C716 1.258 . S
O718 Co715 1.966 . S
O718 C716 1.263 . S
C719 O720 1.235 . S
C719 O746 1.289 . S
O720 C719 1.235 . S
C721 C723 1.400 . S
C721 N724 1.351 . S
C721 C726 1.501 . S
C722 C723 1.387 . S
C722 N725 1.341 . S
C723 C721 1.400 . S
C723 C722 1.387 . S
N724 Co715 2.022 . S
N724 C721 1.351 . S
N724 N725 1.365 . S
N725 C722 1.341 . S
N725 N724 1.365 . S
N725 H745 0.862 . S
C726 C721 1.501 . S
C726 H727 0.961 . S
C726 H728 0.961 . S
C726 H729 0.960 . S
H727 C726 0.961 . S
H728 C726 0.961 . S
H729 C726 0.960 . S
C730 N731 1.342 . S
C730 C734 1.401 . S
C730 C735 1.499 . S
N731 Co714 1.989 . S
N731 C730 1.342 . S
N731 N732 1.388 . S
N732 Co715 1.993 . S
N732 N731 1.388 . S
N732 C733 1.346 . S
C733 N732 1.346 . S
C733 C734 1.396 . S
C733 C743 1.510 . S
C734 C730 1.401 . S
C734 C733 1.396 . S
C735 C730 1.499 . S
C735 H736 0.959 . S
C735 H737 0.960 . S
C735 H738 0.961 . S
H736 C735 0.959 . S
H737 C735 0.960 . S
H738 C735 0.961 . S
O739 Co714 1.967 . S
O739 C747 1.258 . S
O740 Co715 1.941 . S
O740 C747 1.266 . S
H741 C743 0.959 . S
H742 C743 0.961 . S
C743 C733 1.510 . S
C743 H741 0.959 . S
C743 H742 0.961 . S
C743 H744 0.960 . S
H744 C743 0.960 . S
H745 N725 0.862 . S
O746 Co714 1.920 . S
O746 C719 1.289 . S
C747 O739 1.258 . S
C747 O740 1.266 . S
Co748 O751 1.970 . S
Co748 N765 1.989 . S
Co748 O773 1.967 . S
Co748 O780 1.920 . S
Co749 O752 1.966 . S
Co749 N758 2.022 . S
Co749 N766 1.993 . S
Co749 O774 1.941 . S
C750 O751 1.258 . S
C750 O752 1.263 . S
O751 Co748 1.970 . S
O751 C750 1.258 . S
O752 Co749 1.966 . S
O752 C750 1.263 . S
C753 O754 1.235 . S
C753 O780 1.289 . S
O754 C753 1.235 . S
C755 C757 1.400 . S
C755 N758 1.351 . S
C755 C760 1.501 . S
C756 C757 1.387 . S
C756 N759 1.341 . S
C757 C755 1.400 . S
C757 C756 1.387 . S
N758 Co749 2.022 . S
N758 C755 1.351 . S
N758 N759 1.365 . S
N759 C756 1.341 . S
N759 N758 1.365 . S
N759 H779 0.862 . S
C760 C755 1.501 . S
C760 H761 0.961 . S
C760 H762 0.961 . S
C760 H763 0.960 . S
H761 C760 0.961 . S
H762 C760 0.961 . S
H763 C760 0.960 . S
C764 N765 1.342 . S
C764 C768 1.401 . S
C764 C769 1.499 . S
N765 Co748 1.989 . S
N765 C764 1.342 . S
N765 N766 1.388 . S
N766 Co749 1.993 . S
N766 N765 1.388 . S
N766 C767 1.346 . S
C767 N766 1.346 . S
C767 C768 1.396 . S
C767 C777 1.510 . S
C768 C764 1.401 . S
C768 C767 1.396 . S
C769 C764 1.499 . S
C769 H770 0.959 . S
C769 H771 0.960 . S
C769 H772 0.961 . S
H770 C769 0.959 . S
H771 C769 0.960 . S
H772 C769 0.961 . S
O773 Co748 1.967 . S
O773 C781 1.258 . S
O774 Co749 1.941 . S
O774 C781 1.266 . S
H775 C777 0.959 . S
H776 C777 0.961 . S
C777 C767 1.510 . S
C777 H775 0.959 . S
C777 H776 0.961 . S
C777 H778 0.960 . S
H778 C777 0.960 . S
H779 N759 0.862 . S
O780 Co748 1.920 . S
O780 C753 1.289 . S
C781 O773 1.258 . S
C781 O774 1.266 . S
Co782 O785 1.970 . S
Co782 N799 1.989 . S
Co782 O807 1.967 . S
Co782 O814 1.920 . S
Co783 O786 1.966 . S
Co783 N792 2.022 . S
Co783 N800 1.993 . S
Co783 O808 1.941 . S
C784 O785 1.258 . S
C784 O786 1.263 . S
O785 Co782 1.970 . S
O785 C784 1.258 . S
O786 Co783 1.966 . S
O786 C784 1.263 . S
C787 O788 1.235 . S
C787 O814 1.289 . S
O788 C787 1.235 . S
C789 C791 1.400 . S
C789 N792 1.351 . S
C789 C794 1.501 . S
C790 C791 1.387 . S
C790 N793 1.341 . S
C791 C789 1.400 . S
C791 C790 1.387 . S
N792 Co783 2.022 . S
N792 C789 1.351 . S
N792 N793 1.365 . S
N793 C790 1.341 . S
N793 N792 1.365 . S
N793 H813 0.862 . S
C794 C789 1.501 . S
C794 H795 0.961 . S
C794 H796 0.961 . S
C794 H797 0.960 . S
H795 C794 0.961 . S
H796 C794 0.961 . S
H797 C794 0.960 . S
C798 N799 1.342 . S
C798 C802 1.401 . S
C798 C803 1.499 . S
N799 Co782 1.989 . S
N799 C798 1.342 . S
N799 N800 1.388 . S
N800 Co783 1.993 . S
N800 N799 1.388 . S
N800 C801 1.346 . S
C801 N800 1.346 . S
C801 C802 1.396 . S
C801 C811 1.510 . S
C802 C798 1.401 . S
C802 C801 1.396 . S
C803 C798 1.499 . S
C803 H804 0.959 . S
C803 H805 0.960 . S
C803 H806 0.961 . S
H804 C803 0.959 . S
H805 C803 0.960 . S
H806 C803 0.961 . S
O807 Co782 1.967 . S
O807 C815 1.258 . S
O808 Co783 1.941 . S
O808 C815 1.266 . S
H809 C811 0.959 . S
H810 C811 0.961 . S
C811 C801 1.510 . S
C811 H809 0.959 . S
C811 H810 0.961 . S
C811 H812 0.960 . S
H812 C811 0.960 . S
H813 N793 0.862 . S
O814 Co782 1.920 . S
O814 C787 1.289 . S
C815 O807 1.258 . S
C815 O808 1.266 . S
Co816 O819 1.970 . S
Co816 N833 1.989 . S
Co816 O841 1.967 . S
Co816 O848 1.920 . S
Co817 O820 1.966 . S
Co817 N826 2.022 . S
Co817 N834 1.993 . S
Co817 O842 1.941 . S
C818 O819 1.258 . S
C818 O820 1.263 . S
O819 Co816 1.970 . S
O819 C818 1.258 . S
O820 Co817 1.966 . S
O820 C818 1.263 . S
C821 O822 1.235 . S
C821 O848 1.289 . S
O822 C821 1.235 . S
C823 C825 1.400 . S
C823 N826 1.351 . S
C823 C828 1.501 . S
C824 C825 1.387 . S
C824 N827 1.341 . S
C825 C823 1.400 . S
C825 C824 1.387 . S
N826 Co817 2.022 . S
N826 C823 1.351 . S
N826 N827 1.365 . S
N827 C824 1.341 . S
N827 N826 1.365 . S
N827 H847 0.862 . S
C828 C823 1.501 . S
C828 H829 0.961 . S
C828 H830 0.961 . S
C828 H831 0.960 . S
H829 C828 0.961 . S
H830 C828 0.961 . S
H831 C828 0.960 . S
C832 N833 1.342 . S
C832 C836 1.401 . S
C832 C837 1.499 . S
N833 Co816 1.989 . S
N833 C832 1.342 . S
N833 N834 1.388 . S
N834 Co817 1.993 . S
N834 N833 1.388 . S
N834 C835 1.346 . S
C835 N834 1.346 . S
C835 C836 1.396 . S
C835 C845 1.510 . S
C836 C832 1.401 . S
C836 C835 1.396 . S
C837 C832 1.499 . S
C837 H838 0.959 . S
C837 H839 0.960 . S
C837 H840 0.961 . S
H838 C837 0.959 . S
H839 C837 0.960 . S
H840 C837 0.961 . S
O841 Co816 1.967 . S
O841 C849 1.258 . S
O842 Co817 1.941 . S
O842 C849 1.266 . S
H843 C845 0.959 . S
H844 C845 0.961 . S
C845 C835 1.510 . S
C845 H843 0.959 . S
C845 H844 0.961 . S
C845 H846 0.960 . S
H846 C845 0.960 . S
H847 N827 0.862 . S
O848 Co816 1.920 . S
O848 C821 1.289 . S
C849 O841 1.258 . S
C849 O842 1.266 . S
Co850 O853 1.970 . S
Co850 N867 1.989 . S
Co850 O875 1.967 . S
Co850 O882 1.920 . S
Co851 O854 1.966 . S
Co851 N860 2.022 . S
Co851 N868 1.993 . S
Co851 O876 1.941 . S
C852 O853 1.258 . S
C852 O854 1.263 . S
O853 Co850 1.970 . S
O853 C852 1.258 . S
O854 Co851 1.966 . S
O854 C852 1.263 . S
C855 O856 1.235 . S
C855 O882 1.289 . S
O856 C855 1.235 . S
C857 C859 1.400 . S
C857 N860 1.351 . S
C857 C862 1.501 . S
C858 C859 1.387 . S
C858 N861 1.341 . S
C859 C857 1.400 . S
C859 C858 1.387 . S
N860 Co851 2.022 . S
N860 C857 1.351 . S
N860 N861 1.365 . S
N861 C858 1.341 . S
N861 N860 1.365 . S
N861 H881 0.862 . S
C862 C857 1.501 . S
C862 H863 0.961 . S
C862 H864 0.961 . S
C862 H865 0.960 . S
H863 C862 0.961 . S
H864 C862 0.961 . S
H865 C862 0.960 . S
C866 N867 1.342 . S
C866 C870 1.401 . S
C866 C871 1.499 . S
N867 Co850 1.989 . S
N867 C866 1.342 . S
N867 N868 1.388 . S
N868 Co851 1.993 . S
N868 N867 1.388 . S
N868 C869 1.346 . S
C869 N868 1.346 . S
C869 C870 1.396 . S
C869 C879 1.510 . S
C870 C866 1.401 . S
C870 C869 1.396 . S
C871 C866 1.499 . S
C871 H872 0.959 . S
C871 H873 0.960 . S
C871 H874 0.961 . S
H872 C871 0.959 . S
H873 C871 0.960 . S
H874 C871 0.961 . S
O875 Co850 1.967 . S
O875 C883 1.258 . S
O876 Co851 1.941 . S
O876 C883 1.266 . S
H877 C879 0.959 . S
H878 C879 0.961 . S
C879 C869 1.510 . S
C879 H877 0.959 . S
C879 H878 0.961 . S
C879 H880 0.960 . S
H880 C879 0.960 . S
H881 N861 0.862 . S
O882 Co850 1.920 . S
O882 C855 1.289 . S
C883 O875 1.258 . S
C883 O876 1.266 . S
Co884 O887 1.970 . S
Co884 N901 1.989 . S
Co884 O909 1.967 . S
Co884 O916 1.920 . S
Co885 O888 1.966 . S
Co885 N894 2.022 . S
Co885 N902 1.993 . S
Co885 O910 1.941 . S
C886 O887 1.258 . S
C886 O888 1.263 . S
O887 Co884 1.970 . S
O887 C886 1.258 . S
O888 Co885 1.966 . S
O888 C886 1.263 . S
C889 O890 1.235 . S
C889 O916 1.289 . S
O890 C889 1.235 . S
C891 C893 1.400 . S
C891 N894 1.351 . S
C891 C896 1.501 . S
C892 C893 1.387 . S
C892 N895 1.341 . S
C893 C891 1.400 . S
C893 C892 1.387 . S
N894 Co885 2.022 . S
N894 C891 1.351 . S
N894 N895 1.365 . S
N895 C892 1.341 . S
N895 N894 1.365 . S
N895 H915 0.862 . S
C896 C891 1.501 . S
C896 H897 0.961 . S
C896 H898 0.961 . S
C896 H899 0.960 . S
H897 C896 0.961 . S
H898 C896 0.961 . S
H899 C896 0.960 . S
C900 N901 1.342 . S
C900 C904 1.401 . S
C900 C905 1.499 . S
N901 Co884 1.989 . S
N901 C900 1.342 . S
N901 N902 1.388 . S
N902 Co885 1.993 . S
N902 N901 1.388 . S
N902 C903 1.346 . S
C903 N902 1.346 . S
C903 C904 1.396 . S
C903 C913 1.510 . S
C904 C900 1.401 . S
C904 C903 1.396 . S
C905 C900 1.499 . S
C905 H906 0.959 . S
C905 H907 0.960 . S
C905 H908 0.961 . S
H906 C905 0.959 . S
H907 C905 0.960 . S
H908 C905 0.961 . S
O909 Co884 1.967 . S
O909 C917 1.258 . S
O910 Co885 1.941 . S
O910 C917 1.266 . S
H911 C913 0.959 . S
H912 C913 0.961 . S
C913 C903 1.510 . S
C913 H911 0.959 . S
C913 H912 0.961 . S
C913 H914 0.960 . S
H914 C913 0.960 . S
H915 N895 0.862 . S
O916 Co884 1.920 . S
O916 C889 1.289 . S
C917 O909 1.258 . S
C917 O910 1.266 . S
Co918 O921 1.970 . S
Co918 N935 1.989 . S
Co918 O943 1.967 . S
Co918 O950 1.920 . S
Co919 O922 1.966 . S
Co919 N928 2.022 . S
Co919 N936 1.993 . S
Co919 O944 1.941 . S
C920 O921 1.258 . S
C920 O922 1.263 . S
O921 Co918 1.970 . S
O921 C920 1.258 . S
O922 Co919 1.966 . S
O922 C920 1.263 . S
C923 O924 1.235 . S
C923 O950 1.289 . S
O924 C923 1.235 . S
C925 C927 1.400 . S
C925 N928 1.351 . S
C925 C930 1.501 . S
C926 C927 1.387 . S
C926 N929 1.341 . S
C927 C925 1.400 . S
C927 C926 1.387 . S
N928 Co919 2.022 . S
N928 C925 1.351 . S
N928 N929 1.365 . S
N929 C926 1.341 . S
N929 N928 1.365 . S
N929 H949 0.862 . S
C930 C925 1.501 . S
C930 H931 0.961 . S
C930 H932 0.961 . S
C930 H933 0.960 . S
H931 C930 0.961 . S
H932 C930 0.961 . S
H933 C930 0.960 . S
C934 N935 1.342 . S
C934 C938 1.401 . S
C934 C939 1.499 . S
N935 Co918 1.989 . S
N935 C934 1.342 . S
N935 N936 1.388 . S
N936 Co919 1.993 . S
N936 N935 1.388 . S
N936 C937 1.346 . S
C937 N936 1.346 . S
C937 C938 1.396 . S
C937 C947 1.510 . S
C938 C934 1.401 . S
C938 C937 1.396 . S
C939 C934 1.499 . S
C939 H940 0.959 . S
C939 H941 0.960 . S
C939 H942 0.961 . S
H940 C939 0.959 . S
H941 C939 0.960 . S
H942 C939 0.961 . S
O943 Co918 1.967 . S
O943 C951 1.258 . S
O944 Co919 1.941 . S
O944 C951 1.266 . S
H945 C947 0.959 . S
H946 C947 0.961 . S
C947 C937 1.510 . S
C947 H945 0.959 . S
C947 H946 0.961 . S
C947 H948 0.960 . S
H948 C947 0.960 . S
H949 N929 0.862 . S
O950 Co918 1.920 . S
O950 C923 1.289 . S
C951 O943 1.258 . S
C951 O944 1.266 . S
Co952 O955 1.970 . S
Co952 N969 1.989 . S
Co952 O977 1.967 . S
Co952 O984 1.920 . S
Co953 O956 1.966 . S
Co953 N962 2.022 . S
Co953 N970 1.993 . S
Co953 O978 1.941 . S
C954 O955 1.258 . S
C954 O956 1.263 . S
O955 Co952 1.970 . S
O955 C954 1.258 . S
O956 Co953 1.966 . S
O956 C954 1.263 . S
C957 O958 1.235 . S
C957 O984 1.289 . S
O958 C957 1.235 . S
C959 C961 1.400 . S
C959 N962 1.351 . S
C959 C964 1.501 . S
C960 C961 1.387 . S
C960 N963 1.341 . S
C961 C959 1.400 . S
C961 C960 1.387 . S
N962 Co953 2.022 . S
N962 C959 1.351 . S
N962 N963 1.365 . S
N963 C960 1.341 . S
N963 N962 1.365 . S
N963 H983 0.862 . S
C964 C959 1.501 . S
C964 H965 0.961 . S
C964 H966 0.961 . S
C964 H967 0.960 . S
H965 C964 0.961 . S
H966 C964 0.961 . S
H967 C964 0.960 . S
C968 N969 1.342 . S
C968 C972 1.401 . S
C968 C973 1.499 . S
N969 Co952 1.989 . S
N969 C968 1.342 . S
N969 N970 1.388 . S
N970 Co953 1.993 . S
N970 N969 1.388 . S
N970 C971 1.346 . S
C971 N970 1.346 . S
C971 C972 1.396 . S
C971 C981 1.510 . S
C972 C968 1.401 . S
C972 C971 1.396 . S
C973 C968 1.499 . S
C973 H974 0.959 . S
C973 H975 0.960 . S
C973 H976 0.961 . S
H974 C973 0.959 . S
H975 C973 0.960 . S
H976 C973 0.961 . S
O977 Co952 1.967 . S
O977 C985 1.258 . S
O978 Co953 1.941 . S
O978 C985 1.266 . S
H979 C981 0.959 . S
H980 C981 0.961 . S
C981 C971 1.510 . S
C981 H979 0.959 . S
C981 H980 0.961 . S
C981 H982 0.960 . S
H982 C981 0.960 . S
H983 N963 0.862 . S
O984 Co952 1.920 . S
O984 C957 1.289 . S
C985 O977 1.258 . S
C985 O978 1.266 . S
Co986 O989 1.970 . S
Co986 N1003 1.989 . S
Co986 O1011 1.967 . S
Co986 O1018 1.920 . S
Co987 O990 1.966 . S
Co987 N996 2.022 . S
Co987 N1004 1.993 . S
Co987 O1012 1.941 . S
C988 O989 1.258 . S
C988 O990 1.263 . S
O989 Co986 1.970 . S
O989 C988 1.258 . S
O990 Co987 1.966 . S
O990 C988 1.263 . S
C991 O992 1.235 . S
C991 O1018 1.289 . S
O992 C991 1.235 . S
C993 C995 1.400 . S
C993 N996 1.351 . S
C993 C998 1.501 . S
C994 C995 1.387 . S
C994 N997 1.341 . S
C995 C993 1.400 . S
C995 C994 1.387 . S
N996 Co987 2.022 . S
N996 C993 1.351 . S
N996 N997 1.365 . S
N997 C994 1.341 . S
N997 N996 1.365 . S
N997 H1017 0.862 . S
C998 C993 1.501 . S
C998 H999 0.961 . S
C998 H1000 0.961 . S
C998 H1001 0.960 . S
H999 C998 0.961 . S
H1000 C998 0.961 . S
H1001 C998 0.960 . S
C1002 N1003 1.342 . S
C1002 C1006 1.401 . S
C1002 C1007 1.499 . S
N1003 Co986 1.989 . S
N1003 C1002 1.342 . S
N1003 N1004 1.388 . S
N1004 Co987 1.993 . S
N1004 N1003 1.388 . S
N1004 C1005 1.346 . S
C1005 N1004 1.346 . S
C1005 C1006 1.396 . S
C1005 C1015 1.510 . S
C1006 C1002 1.401 . S
C1006 C1005 1.396 . S
C1007 C1002 1.499 . S
C1007 H1008 0.959 . S
C1007 H1009 0.960 . S
C1007 H1010 0.961 . S
H1008 C1007 0.959 . S
H1009 C1007 0.960 . S
H1010 C1007 0.961 . S
O1011 Co986 1.967 . S
O1011 C1019 1.258 . S
O1012 Co987 1.941 . S
O1012 C1019 1.266 . S
H1013 C1015 0.959 . S
H1014 C1015 0.961 . S
C1015 C1005 1.510 . S
C1015 H1013 0.959 . S
C1015 H1014 0.961 . S
C1015 H1016 0.960 . S
H1016 C1015 0.960 . S
H1017 N997 0.862 . S
O1018 Co986 1.920 . S
O1018 C991 1.289 . S
C1019 O1011 1.258 . S
C1019 O1012 1.266 . S
Co1020 O1023 1.970 . S
Co1020 N1037 1.989 . S
Co1020 O1045 1.967 . S
Co1020 O1052 1.920 . S
Co1021 O1024 1.966 . S
Co1021 N1030 2.022 . S
Co1021 N1038 1.993 . S
Co1021 O1046 1.941 . S
C1022 O1023 1.258 . S
C1022 O1024 1.263 . S
O1023 Co1020 1.970 . S
O1023 C1022 1.258 . S
O1024 Co1021 1.966 . S
O1024 C1022 1.263 . S
C1025 O1026 1.235 . S
C1025 O1052 1.289 . S
O1026 C1025 1.235 . S
C1027 C1029 1.400 . S
C1027 N1030 1.351 . S
C1027 C1032 1.501 . S
C1028 C1029 1.387 . S
C1028 N1031 1.341 . S
C1029 C1027 1.400 . S
C1029 C1028 1.387 . S
N1030 Co1021 2.022 . S
N1030 C1027 1.351 . S
N1030 N1031 1.365 . S
N1031 C1028 1.341 . S
N1031 N1030 1.365 . S
N1031 H1051 0.862 . S
C1032 C1027 1.501 . S
C1032 H1033 0.961 . S
C1032 H1034 0.961 . S
C1032 H1035 0.960 . S
H1033 C1032 0.961 . S
H1034 C1032 0.961 . S
H1035 C1032 0.960 . S
C1036 N1037 1.342 . S
C1036 C1040 1.401 . S
C1036 C1041 1.499 . S
N1037 Co1020 1.989 . S
N1037 C1036 1.342 . S
N1037 N1038 1.388 . S
N1038 Co1021 1.993 . S
N1038 N1037 1.388 . S
N1038 C1039 1.346 . S
C1039 N1038 1.346 . S
C1039 C1040 1.396 . S
C1039 C1049 1.510 . S
C1040 C1036 1.401 . S
C1040 C1039 1.396 . S
C1041 C1036 1.499 . S
C1041 H1042 0.959 . S
C1041 H1043 0.960 . S
C1041 H1044 0.961 . S
H1042 C1041 0.959 . S
H1043 C1041 0.960 . S
H1044 C1041 0.961 . S
O1045 Co1020 1.967 . S
O1045 C1053 1.258 . S
O1046 Co1021 1.941 . S
O1046 C1053 1.266 . S
H1047 C1049 0.959 . S
H1048 C1049 0.961 . S
C1049 C1039 1.510 . S
C1049 H1047 0.959 . S
C1049 H1048 0.961 . S
C1049 H1050 0.960 . S
H1050 C1049 0.960 . S
H1051 N1031 0.862 . S
O1052 Co1020 1.920 . S
O1052 C1025 1.289 . S
C1053 O1045 1.258 . S
C1053 O1046 1.266 . S
Co1054 O1057 1.970 . S
Co1054 N1071 1.989 . S
Co1054 O1079 1.967 . S
Co1054 O1086 1.920 . S
Co1055 O1058 1.966 . S
Co1055 N1064 2.022 . S
Co1055 N1072 1.993 . S
Co1055 O1080 1.941 . S
C1056 O1057 1.258 . S
C1056 O1058 1.263 . S
O1057 Co1054 1.970 . S
O1057 C1056 1.258 . S
O1058 Co1055 1.966 . S
O1058 C1056 1.263 . S
C1059 O1060 1.235 . S
C1059 O1086 1.289 . S
O1060 C1059 1.235 . S
C1061 C1063 1.400 . S
C1061 N1064 1.351 . S
C1061 C1066 1.501 . S
C1062 C1063 1.387 . S
C1062 N1065 1.341 . S
C1063 C1061 1.400 . S
C1063 C1062 1.387 . S
N1064 Co1055 2.022 . S
N1064 C1061 1.351 . S
N1064 N1065 1.365 . S
N1065 C1062 1.341 . S
N1065 N1064 1.365 . S
N1065 H1085 0.862 . S
C1066 C1061 1.501 . S
C1066 H1067 0.961 . S
C1066 H1068 0.961 . S
C1066 H1069 0.960 . S
H1067 C1066 0.961 . S
H1068 C1066 0.961 . S
H1069 C1066 0.960 . S
C1070 N1071 1.342 . S
C1070 C1074 1.401 . S
C1070 C1075 1.499 . S
N1071 Co1054 1.989 . S
N1071 C1070 1.342 . S
N1071 N1072 1.388 . S
N1072 Co1055 1.993 . S
N1072 N1071 1.388 . S
N1072 C1073 1.346 . S
C1073 N1072 1.346 . S
C1073 C1074 1.396 . S
C1073 C1083 1.510 . S
C1074 C1070 1.401 . S
C1074 C1073 1.396 . S
C1075 C1070 1.499 . S
C1075 H1076 0.959 . S
C1075 H1077 0.960 . S
C1075 H1078 0.961 . S
H1076 C1075 0.959 . S
H1077 C1075 0.960 . S
H1078 C1075 0.961 . S
O1079 Co1054 1.967 . S
O1079 C1087 1.258 . S
O1080 Co1055 1.941 . S
O1080 C1087 1.266 . S
H1081 C1083 0.959 . S
H1082 C1083 0.961 . S
C1083 C1073 1.510 . S
C1083 H1081 0.959 . S
C1083 H1082 0.961 . S
C1083 H1084 0.960 . S
H1084 C1083 0.960 . S
H1085 N1065 0.862 . S
O1086 Co1054 1.920 . S
O1086 C1059 1.289 . S
C1087 O1079 1.258 . S
C1087 O1080 1.266 . S
Co1088 O1091 1.970 . S
Co1088 N1105 1.989 . S
Co1088 O1113 1.967 . S
Co1088 O1120 1.920 . S
Co1089 O1092 1.966 . S
Co1089 N1098 2.022 . S
Co1089 N1106 1.993 . S
Co1089 O1114 1.941 . S
C1090 O1091 1.258 . S
C1090 O1092 1.263 . S
O1091 Co1088 1.970 . S
O1091 C1090 1.258 . S
O1092 Co1089 1.966 . S
O1092 C1090 1.263 . S
C1093 O1094 1.235 . S
C1093 O1120 1.289 . S
O1094 C1093 1.235 . S
C1095 C1097 1.400 . S
C1095 N1098 1.351 . S
C1095 C1100 1.501 . S
C1096 C1097 1.387 . S
C1096 N1099 1.341 . S
C1097 C1095 1.400 . S
C1097 C1096 1.387 . S
N1098 Co1089 2.022 . S
N1098 C1095 1.351 . S
N1098 N1099 1.365 . S
N1099 C1096 1.341 . S
N1099 N1098 1.365 . S
N1099 H1119 0.862 . S
C1100 C1095 1.501 . S
C1100 H1101 0.961 . S
C1100 H1102 0.961 . S
C1100 H1103 0.960 . S
H1101 C1100 0.961 . S
H1102 C1100 0.961 . S
H1103 C1100 0.960 . S
C1104 N1105 1.342 . S
C1104 C1108 1.401 . S
C1104 C1109 1.499 . S
N1105 Co1088 1.989 . S
N1105 C1104 1.342 . S
N1105 N1106 1.388 . S
N1106 Co1089 1.993 . S
N1106 N1105 1.388 . S
N1106 C1107 1.346 . S
C1107 N1106 1.346 . S
C1107 C1108 1.396 . S
C1107 C1117 1.510 . S
C1108 C1104 1.401 . S
C1108 C1107 1.396 . S
C1109 C1104 1.499 . S
C1109 H1110 0.959 . S
C1109 H1111 0.960 . S
C1109 H1112 0.961 . S
H1110 C1109 0.959 . S
H1111 C1109 0.960 . S
H1112 C1109 0.961 . S
O1113 Co1088 1.967 . S
O1113 C1121 1.258 . S
O1114 Co1089 1.941 . S
O1114 C1121 1.266 . S
H1115 C1117 0.959 . S
H1116 C1117 0.961 . S
C1117 C1107 1.510 . S
C1117 H1115 0.959 . S
C1117 H1116 0.961 . S
C1117 H1118 0.960 . S
H1118 C1117 0.960 . S
H1119 N1099 0.862 . S
O1120 Co1088 1.920 . S
O1120 C1093 1.289 . S
C1121 O1113 1.258 . S
C1121 O1114 1.266 . S
Co1122 O1125 1.970 . S
Co1122 N1139 1.989 . S
Co1122 O1147 1.967 . S
Co1122 O1154 1.920 . S
Co1123 O1126 1.966 . S
Co1123 N1132 2.022 . S
Co1123 N1140 1.993 . S
Co1123 O1148 1.941 . S
C1124 O1125 1.258 . S
C1124 O1126 1.263 . S
O1125 Co1122 1.970 . S
O1125 C1124 1.258 . S
O1126 Co1123 1.966 . S
O1126 C1124 1.263 . S
C1127 O1128 1.235 . S
C1127 O1154 1.289 . S
O1128 C1127 1.235 . S
C1129 C1131 1.400 . S
C1129 N1132 1.351 . S
C1129 C1134 1.501 . S
C1130 C1131 1.387 . S
C1130 N1133 1.341 . S
C1131 C1129 1.400 . S
C1131 C1130 1.387 . S
N1132 Co1123 2.022 . S
N1132 C1129 1.351 . S
N1132 N1133 1.365 . S
N1133 C1130 1.341 . S
N1133 N1132 1.365 . S
N1133 H1153 0.862 . S
C1134 C1129 1.501 . S
C1134 H1135 0.961 . S
C1134 H1136 0.961 . S
C1134 H1137 0.960 . S
H1135 C1134 0.961 . S
H1136 C1134 0.961 . S
H1137 C1134 0.960 . S
C1138 N1139 1.342 . S
C1138 C1142 1.401 . S
C1138 C1143 1.499 . S
N1139 Co1122 1.989 . S
N1139 C1138 1.342 . S
N1139 N1140 1.388 . S
N1140 Co1123 1.993 . S
N1140 N1139 1.388 . S
N1140 C1141 1.346 . S
C1141 N1140 1.346 . S
C1141 C1142 1.396 . S
C1141 C1151 1.510 . S
C1142 C1138 1.401 . S
C1142 C1141 1.396 . S
C1143 C1138 1.499 . S
C1143 H1144 0.959 . S
C1143 H1145 0.960 . S
C1143 H1146 0.961 . S
H1144 C1143 0.959 . S
H1145 C1143 0.960 . S
H1146 C1143 0.961 . S
O1147 Co1122 1.967 . S
O1147 C1155 1.258 . S
O1148 Co1123 1.941 . S
O1148 C1155 1.266 . S
H1149 C1151 0.959 . S
H1150 C1151 0.961 . S
C1151 C1141 1.510 . S
C1151 H1149 0.959 . S
C1151 H1150 0.961 . S
C1151 H1152 0.960 . S
H1152 C1151 0.960 . S
H1153 N1133 0.862 . S
O1154 Co1122 1.920 . S
O1154 C1127 1.289 . S
C1155 O1147 1.258 . S
C1155 O1148 1.266 . S
Co1156 O1159 1.970 . S
Co1156 N1173 1.989 . S
Co1156 O1181 1.967 . S
Co1156 O1188 1.920 . S
Co1157 O1160 1.966 . S
Co1157 N1166 2.022 . S
Co1157 N1174 1.993 . S
Co1157 O1182 1.941 . S
C1158 O1159 1.258 . S
C1158 O1160 1.263 . S
O1159 Co1156 1.970 . S
O1159 C1158 1.258 . S
O1160 Co1157 1.966 . S
O1160 C1158 1.263 . S
C1161 O1162 1.235 . S
C1161 O1188 1.289 . S
O1162 C1161 1.235 . S
C1163 C1165 1.400 . S
C1163 N1166 1.351 . S
C1163 C1168 1.501 . S
C1164 C1165 1.387 . S
C1164 N1167 1.341 . S
C1165 C1163 1.400 . S
C1165 C1164 1.387 . S
N1166 Co1157 2.022 . S
N1166 C1163 1.351 . S
N1166 N1167 1.365 . S
N1167 C1164 1.341 . S
N1167 N1166 1.365 . S
N1167 H1187 0.862 . S
C1168 C1163 1.501 . S
C1168 H1169 0.961 . S
C1168 H1170 0.961 . S
C1168 H1171 0.960 . S
H1169 C1168 0.961 . S
H1170 C1168 0.961 . S
H1171 C1168 0.960 . S
C1172 N1173 1.342 . S
C1172 C1176 1.401 . S
C1172 C1177 1.499 . S
N1173 Co1156 1.989 . S
N1173 C1172 1.342 . S
N1173 N1174 1.388 . S
N1174 Co1157 1.993 . S
N1174 N1173 1.388 . S
N1174 C1175 1.346 . S
C1175 N1174 1.346 . S
C1175 C1176 1.396 . S
C1175 C1185 1.510 . S
C1176 C1172 1.401 . S
C1176 C1175 1.396 . S
C1177 C1172 1.499 . S
C1177 H1178 0.959 . S
C1177 H1179 0.960 . S
C1177 H1180 0.961 . S
H1178 C1177 0.959 . S
H1179 C1177 0.960 . S
H1180 C1177 0.961 . S
O1181 Co1156 1.967 . S
O1181 C1189 1.258 . S
O1182 Co1157 1.941 . S
O1182 C1189 1.266 . S
H1183 C1185 0.959 . S
H1184 C1185 0.961 . S
C1185 C1175 1.510 . S
C1185 H1183 0.959 . S
C1185 H1184 0.961 . S
C1185 H1186 0.960 . S
H1186 C1185 0.960 . S
H1187 N1167 0.862 . S
O1188 Co1156 1.920 . S
O1188 C1161 1.289 . S
C1189 O1181 1.258 . S
C1189 O1182 1.266 . S
Co1190 O1193 1.970 . S
Co1190 N1207 1.989 . S
Co1190 O1215 1.967 . S
Co1190 O1222 1.920 . S
Co1191 O1194 1.966 . S
Co1191 N1200 2.022 . S
Co1191 N1208 1.993 . S
Co1191 O1216 1.941 . S
C1192 O1193 1.258 . S
C1192 O1194 1.263 . S
O1193 Co1190 1.970 . S
O1193 C1192 1.258 . S
O1194 Co1191 1.966 . S
O1194 C1192 1.263 . S
C1195 O1196 1.235 . S
C1195 O1222 1.289 . S
O1196 C1195 1.235 . S
C1197 C1199 1.400 . S
C1197 N1200 1.351 . S
C1197 C1202 1.501 . S
C1198 C1199 1.387 . S
C1198 N1201 1.341 . S
C1199 C1197 1.400 . S
C1199 C1198 1.387 . S
N1200 Co1191 2.022 . S
N1200 C1197 1.351 . S
N1200 N1201 1.365 . S
N1201 C1198 1.341 . S
N1201 N1200 1.365 . S
N1201 H1221 0.862 . S
C1202 C1197 1.501 . S
C1202 H1203 0.961 . S
C1202 H1204 0.961 . S
C1202 H1205 0.960 . S
H1203 C1202 0.961 . S
H1204 C1202 0.961 . S
H1205 C1202 0.960 . S
C1206 N1207 1.342 . S
C1206 C1210 1.401 . S
C1206 C1211 1.499 . S
N1207 Co1190 1.989 . S
N1207 C1206 1.342 . S
N1207 N1208 1.388 . S
N1208 Co1191 1.993 . S
N1208 N1207 1.388 . S
N1208 C1209 1.346 . S
C1209 N1208 1.346 . S
C1209 C1210 1.396 . S
C1209 C1219 1.510 . S
C1210 C1206 1.401 . S
C1210 C1209 1.396 . S
C1211 C1206 1.499 . S
C1211 H1212 0.959 . S
C1211 H1213 0.960 . S
C1211 H1214 0.961 . S
H1212 C1211 0.959 . S
H1213 C1211 0.960 . S
H1214 C1211 0.961 . S
O1215 Co1190 1.967 . S
O1215 C1223 1.258 . S
O1216 Co1191 1.941 . S
O1216 C1223 1.266 . S
H1217 C1219 0.959 . S
H1218 C1219 0.961 . S
C1219 C1209 1.510 . S
C1219 H1217 0.959 . S
C1219 H1218 0.961 . S
C1219 H1220 0.960 . S
H1220 C1219 0.960 . S
H1221 N1201 0.862 . S
O1222 Co1190 1.920 . S
O1222 C1195 1.289 . S
C1223 O1215 1.258 . S
C1223 O1216 1.266 . S
Co1224 O1227 1.970 . S
Co1224 N1241 1.989 . S
Co1224 O1249 1.967 . S
Co1224 O1256 1.920 . S
Co1225 O1228 1.966 . S
Co1225 N1234 2.022 . S
Co1225 N1242 1.993 . S
Co1225 O1250 1.941 . S
C1226 O1227 1.258 . S
C1226 O1228 1.263 . S
O1227 Co1224 1.970 . S
O1227 C1226 1.258 . S
O1228 Co1225 1.966 . S
O1228 C1226 1.263 . S
C1229 O1230 1.235 . S
C1229 O1256 1.289 . S
O1230 C1229 1.235 . S
C1231 C1233 1.400 . S
C1231 N1234 1.351 . S
C1231 C1236 1.501 . S
C1232 C1233 1.387 . S
C1232 N1235 1.341 . S
C1233 C1231 1.400 . S
C1233 C1232 1.387 . S
N1234 Co1225 2.022 . S
N1234 C1231 1.351 . S
N1234 N1235 1.365 . S
N1235 C1232 1.341 . S
N1235 N1234 1.365 . S
N1235 H1255 0.862 . S
C1236 C1231 1.501 . S
C1236 H1237 0.961 . S
C1236 H1238 0.961 . S
C1236 H1239 0.960 . S
H1237 C1236 0.961 . S
H1238 C1236 0.961 . S
H1239 C1236 0.960 . S
C1240 N1241 1.342 . S
C1240 C1244 1.401 . S
C1240 C1245 1.499 . S
N1241 Co1224 1.989 . S
N1241 C1240 1.342 . S
N1241 N1242 1.388 . S
N1242 Co1225 1.993 . S
N1242 N1241 1.388 . S
N1242 C1243 1.346 . S
C1243 N1242 1.346 . S
C1243 C1244 1.396 . S
C1243 C1253 1.510 . S
C1244 C1240 1.401 . S
C1244 C1243 1.396 . S
C1245 C1240 1.499 . S
C1245 H1246 0.959 . S
C1245 H1247 0.960 . S
C1245 H1248 0.961 . S
H1246 C1245 0.959 . S
H1247 C1245 0.960 . S
H1248 C1245 0.961 . S
O1249 Co1224 1.967 . S
O1249 C1257 1.258 . S
O1250 Co1225 1.941 . S
O1250 C1257 1.266 . S
H1251 C1253 0.959 . S
H1252 C1253 0.961 . S
C1253 C1243 1.510 . S
C1253 H1251 0.959 . S
C1253 H1252 0.961 . S
C1253 H1254 0.960 . S
H1254 C1253 0.960 . S
H1255 N1235 0.862 . S
O1256 Co1224 1.920 . S
O1256 C1229 1.289 . S
C1257 O1249 1.258 . S
C1257 O1250 1.266 . S
Co1258 O1261 1.970 . S
Co1258 N1275 1.989 . S
Co1258 O1283 1.967 . S
Co1258 O1290 1.920 . S
Co1259 O1262 1.966 . S
Co1259 N1268 2.022 . S
Co1259 N1276 1.993 . S
Co1259 O1284 1.941 . S
C1260 O1261 1.258 . S
C1260 O1262 1.263 . S
O1261 Co1258 1.970 . S
O1261 C1260 1.258 . S
O1262 Co1259 1.966 . S
O1262 C1260 1.263 . S
C1263 O1264 1.235 . S
C1263 O1290 1.289 . S
O1264 C1263 1.235 . S
C1265 C1267 1.400 . S
C1265 N1268 1.351 . S
C1265 C1270 1.501 . S
C1266 C1267 1.387 . S
C1266 N1269 1.341 . S
C1267 C1265 1.400 . S
C1267 C1266 1.387 . S
N1268 Co1259 2.022 . S
N1268 C1265 1.351 . S
N1268 N1269 1.365 . S
N1269 C1266 1.341 . S
N1269 N1268 1.365 . S
N1269 H1289 0.862 . S
C1270 C1265 1.501 . S
C1270 H1271 0.961 . S
C1270 H1272 0.961 . S
C1270 H1273 0.960 . S
H1271 C1270 0.961 . S
H1272 C1270 0.961 . S
H1273 C1270 0.960 . S
C1274 N1275 1.342 . S
C1274 C1278 1.401 . S
C1274 C1279 1.499 . S
N1275 Co1258 1.989 . S
N1275 C1274 1.342 . S
N1275 N1276 1.388 . S
N1276 Co1259 1.993 . S
N1276 N1275 1.388 . S
N1276 C1277 1.346 . S
C1277 N1276 1.346 . S
C1277 C1278 1.396 . S
C1277 C1287 1.510 . S
C1278 C1274 1.401 . S
C1278 C1277 1.396 . S
C1279 C1274 1.499 . S
C1279 H1280 0.959 . S
C1279 H1281 0.960 . S
C1279 H1282 0.961 . S
H1280 C1279 0.959 . S
H1281 C1279 0.960 . S
H1282 C1279 0.961 . S
O1283 Co1258 1.967 . S
O1283 C1291 1.258 . S
O1284 Co1259 1.941 . S
O1284 C1291 1.266 . S
H1285 C1287 0.959 . S
H1286 C1287 0.961 . S
C1287 C1277 1.510 . S
C1287 H1285 0.959 . S
C1287 H1286 0.961 . S
C1287 H1288 0.960 . S
H1288 C1287 0.960 . S
H1289 N1269 0.862 . S
O1290 Co1258 1.920 . S
O1290 C1263 1.289 . S
C1291 O1283 1.258 . S
C1291 O1284 1.266 . S
Co1292 O1295 1.970 . S
Co1292 N1309 1.989 . S
Co1292 O1317 1.967 . S
Co1292 O1324 1.920 . S
Co1293 O1296 1.966 . S
Co1293 N1302 2.022 . S
Co1293 N1310 1.993 . S
Co1293 O1318 1.941 . S
C1294 O1295 1.258 . S
C1294 O1296 1.263 . S
O1295 Co1292 1.970 . S
O1295 C1294 1.258 . S
O1296 Co1293 1.966 . S
O1296 C1294 1.263 . S
C1297 O1298 1.235 . S
C1297 O1324 1.289 . S
O1298 C1297 1.235 . S
C1299 C1301 1.400 . S
C1299 N1302 1.351 . S
C1299 C1304 1.501 . S
C1300 C1301 1.387 . S
C1300 N1303 1.341 . S
C1301 C1299 1.400 . S
C1301 C1300 1.387 . S
N1302 Co1293 2.022 . S
N1302 C1299 1.351 . S
N1302 N1303 1.365 . S
N1303 C1300 1.341 . S
N1303 N1302 1.365 . S
N1303 H1323 0.862 . S
C1304 C1299 1.501 . S
C1304 H1305 0.961 . S
C1304 H1306 0.961 . S
C1304 H1307 0.960 . S
H1305 C1304 0.961 . S
H1306 C1304 0.961 . S
H1307 C1304 0.960 . S
C1308 N1309 1.342 . S
C1308 C1312 1.401 . S
C1308 C1313 1.499 . S
N1309 Co1292 1.989 . S
N1309 C1308 1.342 . S
N1309 N1310 1.388 . S
N1310 Co1293 1.993 . S
N1310 N1309 1.388 . S
N1310 C1311 1.346 . S
C1311 N1310 1.346 . S
C1311 C1312 1.396 . S
C1311 C1321 1.510 . S
C1312 C1308 1.401 . S
C1312 C1311 1.396 . S
C1313 C1308 1.499 . S
C1313 H1314 0.959 . S
C1313 H1315 0.960 . S
C1313 H1316 0.961 . S
H1314 C1313 0.959 . S
H1315 C1313 0.960 . S
H1316 C1313 0.961 . S
O1317 Co1292 1.967 . S
O1317 C1325 1.258 . S
O1318 Co1293 1.941 . S
O1318 C1325 1.266 . S
H1319 C1321 0.959 . S
H1320 C1321 0.961 . S
C1321 C1311 1.510 . S
C1321 H1319 0.959 . S
C1321 H1320 0.961 . S
C1321 H1322 0.960 . S
H1322 C1321 0.960 . S
H1323 N1303 0.862 . S
O1324 Co1292 1.920 . S
O1324 C1297 1.289 . S
C1325 O1317 1.258 . S
C1325 O1318 1.266 . S
Co1326 O1329 1.970 . S
Co1326 N1343 1.989 . S
Co1326 O1351 1.967 . S
Co1326 O1358 1.920 . S
Co1327 O1330 1.966 . S
Co1327 N1336 2.022 . S
Co1327 N1344 1.993 . S
Co1327 O1352 1.941 . S
C1328 O1329 1.258 . S
C1328 O1330 1.263 . S
O1329 Co1326 1.970 . S
O1329 C1328 1.258 . S
O1330 Co1327 1.966 . S
O1330 C1328 1.263 . S
C1331 O1332 1.235 . S
C1331 O1358 1.289 . S
O1332 C1331 1.235 . S
C1333 C1335 1.400 . S
C1333 N1336 1.351 . S
C1333 C1338 1.501 . S
C1334 C1335 1.387 . S
C1334 N1337 1.341 . S
C1335 C1333 1.400 . S
C1335 C1334 1.387 . S
N1336 Co1327 2.022 . S
N1336 C1333 1.351 . S
N1336 N1337 1.365 . S
N1337 C1334 1.341 . S
N1337 N1336 1.365 . S
N1337 H1357 0.862 . S
C1338 C1333 1.501 . S
C1338 H1339 0.961 . S
C1338 H1340 0.961 . S
C1338 H1341 0.960 . S
H1339 C1338 0.961 . S
H1340 C1338 0.961 . S
H1341 C1338 0.960 . S
C1342 N1343 1.342 . S
C1342 C1346 1.401 . S
C1342 C1347 1.499 . S
N1343 Co1326 1.989 . S
N1343 C1342 1.342 . S
N1343 N1344 1.388 . S
N1344 Co1327 1.993 . S
N1344 N1343 1.388 . S
N1344 C1345 1.346 . S
C1345 N1344 1.346 . S
C1345 C1346 1.396 . S
C1345 C1355 1.510 . S
C1346 C1342 1.401 . S
C1346 C1345 1.396 . S
C1347 C1342 1.499 . S
C1347 H1348 0.959 . S
C1347 H1349 0.960 . S
C1347 H1350 0.961 . S
H1348 C1347 0.959 . S
H1349 C1347 0.960 . S
H1350 C1347 0.961 . S
O1351 Co1326 1.967 . S
O1351 C1359 1.258 . S
O1352 Co1327 1.941 . S
O1352 C1359 1.266 . S
H1353 C1355 0.959 . S
H1354 C1355 0.961 . S
C1355 C1345 1.510 . S
C1355 H1353 0.959 . S
C1355 H1354 0.961 . S
C1355 H1356 0.960 . S
H1356 C1355 0.960 . S
H1357 N1337 0.862 . S
O1358 Co1326 1.920 . S
O1358 C1331 1.289 . S
C1359 O1351 1.258 . S
C1359 O1352 1.266 . S
Co1360 O1363 1.970 . S
Co1360 N1377 1.989 . S
Co1360 O1385 1.967 . S
Co1360 O1392 1.920 . S
Co1361 O1364 1.966 . S
Co1361 N1370 2.022 . S
Co1361 N1378 1.993 . S
Co1361 O1386 1.941 . S
C1362 O1363 1.258 . S
C1362 O1364 1.263 . S
O1363 Co1360 1.970 . S
O1363 C1362 1.258 . S
O1364 Co1361 1.966 . S
O1364 C1362 1.263 . S
C1365 O1366 1.235 . S
C1365 O1392 1.289 . S
O1366 C1365 1.235 . S
C1367 C1369 1.400 . S
C1367 N1370 1.351 . S
C1367 C1372 1.501 . S
C1368 C1369 1.387 . S
C1368 N1371 1.341 . S
C1369 C1367 1.400 . S
C1369 C1368 1.387 . S
N1370 Co1361 2.022 . S
N1370 C1367 1.351 . S
N1370 N1371 1.365 . S
N1371 C1368 1.341 . S
N1371 N1370 1.365 . S
N1371 H1391 0.862 . S
C1372 C1367 1.501 . S
C1372 H1373 0.961 . S
C1372 H1374 0.961 . S
C1372 H1375 0.960 . S
H1373 C1372 0.961 . S
H1374 C1372 0.961 . S
H1375 C1372 0.960 . S
C1376 N1377 1.342 . S
C1376 C1380 1.401 . S
C1376 C1381 1.499 . S
N1377 Co1360 1.989 . S
N1377 C1376 1.342 . S
N1377 N1378 1.388 . S
N1378 Co1361 1.993 . S
N1378 N1377 1.388 . S
N1378 C1379 1.346 . S
C1379 N1378 1.346 . S
C1379 C1380 1.396 . S
C1379 C1389 1.510 . S
C1380 C1376 1.401 . S
C1380 C1379 1.396 . S
C1381 C1376 1.499 . S
C1381 H1382 0.959 . S
C1381 H1383 0.960 . S
C1381 H1384 0.961 . S
H1382 C1381 0.959 . S
H1383 C1381 0.960 . S
H1384 C1381 0.961 . S
O1385 Co1360 1.967 . S
O1385 C1393 1.258 . S
O1386 Co1361 1.941 . S
O1386 C1393 1.266 . S
H1387 C1389 0.959 . S
H1388 C1389 0.961 . S
C1389 C1379 1.510 . S
C1389 H1387 0.959 . S
C1389 H1388 0.961 . S
C1389 H1390 0.960 . S
H1390 C1389 0.960 . S
H1391 N1371 0.862 . S
O1392 Co1360 1.920 . S
O1392 C1365 1.289 . S
C1393 O1385 1.258 . S
C1393 O1386 1.266 . S
Co1394 O1397 1.970 . S
Co1394 N1411 1.989 . S
Co1394 O1419 1.967 . S
Co1394 O1426 1.920 . S
Co1395 O1398 1.966 . S
Co1395 N1404 2.022 . S
Co1395 N1412 1.993 . S
Co1395 O1420 1.941 . S
C1396 O1397 1.258 . S
C1396 O1398 1.263 . S
O1397 Co1394 1.970 . S
O1397 C1396 1.258 . S
O1398 Co1395 1.966 . S
O1398 C1396 1.263 . S
C1399 O1400 1.235 . S
C1399 O1426 1.289 . S
O1400 C1399 1.235 . S
C1401 C1403 1.400 . S
C1401 N1404 1.351 . S
C1401 C1406 1.501 . S
C1402 C1403 1.387 . S
C1402 N1405 1.341 . S
C1403 C1401 1.400 . S
C1403 C1402 1.387 . S
N1404 Co1395 2.022 . S
N1404 C1401 1.351 . S
N1404 N1405 1.365 . S
N1405 C1402 1.341 . S
N1405 N1404 1.365 . S
N1405 H1425 0.862 . S
C1406 C1401 1.501 . S
C1406 H1407 0.961 . S
C1406 H1408 0.961 . S
C1406 H1409 0.960 . S
H1407 C1406 0.961 . S
H1408 C1406 0.961 . S
H1409 C1406 0.960 . S
C1410 N1411 1.342 . S
C1410 C1414 1.401 . S
C1410 C1415 1.499 . S
N1411 Co1394 1.989 . S
N1411 C1410 1.342 . S
N1411 N1412 1.388 . S
N1412 Co1395 1.993 . S
N1412 N1411 1.388 . S
N1412 C1413 1.346 . S
C1413 N1412 1.346 . S
C1413 C1414 1.396 . S
C1413 C1423 1.510 . S
C1414 C1410 1.401 . S
C1414 C1413 1.396 . S
C1415 C1410 1.499 . S
C1415 H1416 0.959 . S
C1415 H1417 0.960 . S
C1415 H1418 0.961 . S
H1416 C1415 0.959 . S
H1417 C1415 0.960 . S
H1418 C1415 0.961 . S
O1419 Co1394 1.967 . S
O1419 C1427 1.258 . S
O1420 Co1395 1.941 . S
O1420 C1427 1.266 . S
H1421 C1423 0.959 . S
H1422 C1423 0.961 . S
C1423 C1413 1.510 . S
C1423 H1421 0.959 . S
C1423 H1422 0.961 . S
C1423 H1424 0.960 . S
H1424 C1423 0.960 . S
H1425 N1405 0.862 . S
O1426 Co1394 1.920 . S
O1426 C1399 1.289 . S
C1427 O1419 1.258 . S
C1427 O1420 1.266 . S
Co1428 O1431 1.970 . S
Co1428 N1445 1.989 . S
Co1428 O1453 1.967 . S
Co1428 O1460 1.920 . S
Co1429 O1432 1.966 . S
Co1429 N1438 2.022 . S
Co1429 N1446 1.993 . S
Co1429 O1454 1.941 . S
C1430 O1431 1.258 . S
C1430 O1432 1.263 . S
O1431 Co1428 1.970 . S
O1431 C1430 1.258 . S
O1432 Co1429 1.966 . S
O1432 C1430 1.263 . S
C1433 O1434 1.235 . S
C1433 O1460 1.289 . S
O1434 C1433 1.235 . S
C1435 C1437 1.400 . S
C1435 N1438 1.351 . S
C1435 C1440 1.501 . S
C1436 C1437 1.387 . S
C1436 N1439 1.341 . S
C1437 C1435 1.400 . S
C1437 C1436 1.387 . S
N1438 Co1429 2.022 . S
N1438 C1435 1.351 . S
N1438 N1439 1.365 . S
N1439 C1436 1.341 . S
N1439 N1438 1.365 . S
N1439 H1459 0.862 . S
C1440 C1435 1.501 . S
C1440 H1441 0.961 . S
C1440 H1442 0.961 . S
C1440 H1443 0.960 . S
H1441 C1440 0.961 . S
H1442 C1440 0.961 . S
H1443 C1440 0.960 . S
C1444 N1445 1.342 . S
C1444 C1448 1.401 . S
C1444 C1449 1.499 . S
N1445 Co1428 1.989 . S
N1445 C1444 1.342 . S
N1445 N1446 1.388 . S
N1446 Co1429 1.993 . S
N1446 N1445 1.388 . S
N1446 C1447 1.346 . S
C1447 N1446 1.346 . S
C1447 C1448 1.396 . S
C1447 C1457 1.510 . S
C1448 C1444 1.401 . S
C1448 C1447 1.396 . S
C1449 C1444 1.499 . S
C1449 H1450 0.959 . S
C1449 H1451 0.960 . S
C1449 H1452 0.961 . S
H1450 C1449 0.959 . S
H1451 C1449 0.960 . S
H1452 C1449 0.961 . S
O1453 Co1428 1.967 . S
O1453 C1461 1.258 . S
O1454 Co1429 1.941 . S
O1454 C1461 1.266 . S
H1455 C1457 0.959 . S
H1456 C1457 0.961 . S
C1457 C1447 1.510 . S
C1457 H1455 0.959 . S
C1457 H1456 0.961 . S
C1457 H1458 0.960 . S
H1458 C1457 0.960 . S
H1459 N1439 0.862 . S
O1460 Co1428 1.920 . S
O1460 C1433 1.289 . S
C1461 O1453 1.258 . S
C1461 O1454 1.266 . S
Co1462 O1465 1.970 . S
Co1462 N1479 1.989 . S
Co1462 O1487 1.967 . S
Co1462 O1494 1.920 . S
Co1463 O1466 1.966 . S
Co1463 N1472 2.022 . S
Co1463 N1480 1.993 . S
Co1463 O1488 1.941 . S
C1464 O1465 1.258 . S
C1464 O1466 1.263 . S
O1465 Co1462 1.970 . S
O1465 C1464 1.258 . S
O1466 Co1463 1.966 . S
O1466 C1464 1.263 . S
C1467 O1468 1.235 . S
C1467 O1494 1.289 . S
O1468 C1467 1.235 . S
C1469 C1471 1.400 . S
C1469 N1472 1.351 . S
C1469 C1474 1.501 . S
C1470 C1471 1.387 . S
C1470 N1473 1.341 . S
C1471 C1469 1.400 . S
C1471 C1470 1.387 . S
N1472 Co1463 2.022 . S
N1472 C1469 1.351 . S
N1472 N1473 1.365 . S
N1473 C1470 1.341 . S
N1473 N1472 1.365 . S
N1473 H1493 0.862 . S
C1474 C1469 1.501 . S
C1474 H1475 0.961 . S
C1474 H1476 0.961 . S
C1474 H1477 0.960 . S
H1475 C1474 0.961 . S
H1476 C1474 0.961 . S
H1477 C1474 0.960 . S
C1478 N1479 1.342 . S
C1478 C1482 1.401 . S
C1478 C1483 1.499 . S
N1479 Co1462 1.989 . S
N1479 C1478 1.342 . S
N1479 N1480 1.388 . S
N1480 Co1463 1.993 . S
N1480 N1479 1.388 . S
N1480 C1481 1.346 . S
C1481 N1480 1.346 . S
C1481 C1482 1.396 . S
C1481 C1491 1.510 . S
C1482 C1478 1.401 . S
C1482 C1481 1.396 . S
C1483 C1478 1.499 . S
C1483 H1484 0.959 . S
C1483 H1485 0.960 . S
C1483 H1486 0.961 . S
H1484 C1483 0.959 . S
H1485 C1483 0.960 . S
H1486 C1483 0.961 . S
O1487 Co1462 1.967 . S
O1487 C1495 1.258 . S
O1488 Co1463 1.941 . S
O1488 C1495 1.266 . S
H1489 C1491 0.959 . S
H1490 C1491 0.961 . S
C1491 C1481 1.510 . S
C1491 H1489 0.959 . S
C1491 H1490 0.961 . S
C1491 H1492 0.960 . S
H1492 C1491 0.960 . S
H1493 N1473 0.862 . S
O1494 Co1462 1.920 . S
O1494 C1467 1.289 . S
C1495 O1487 1.258 . S
C1495 O1488 1.266 . S
Co1496 O1499 1.970 . S
Co1496 N1513 1.989 . S
Co1496 O1521 1.967 . S
Co1496 O1528 1.920 . S
Co1497 O1500 1.966 . S
Co1497 N1506 2.022 . S
Co1497 N1514 1.993 . S
Co1497 O1522 1.941 . S
C1498 O1499 1.258 . S
C1498 O1500 1.263 . S
O1499 Co1496 1.970 . S
O1499 C1498 1.258 . S
O1500 Co1497 1.966 . S
O1500 C1498 1.263 . S
C1501 O1502 1.235 . S
C1501 O1528 1.289 . S
O1502 C1501 1.235 . S
C1503 C1505 1.400 . S
C1503 N1506 1.351 . S
C1503 C1508 1.501 . S
C1504 C1505 1.387 . S
C1504 N1507 1.341 . S
C1505 C1503 1.400 . S
C1505 C1504 1.387 . S
N1506 Co1497 2.022 . S
N1506 C1503 1.351 . S
N1506 N1507 1.365 . S
N1507 C1504 1.341 . S
N1507 N1506 1.365 . S
N1507 H1527 0.862 . S
C1508 C1503 1.501 . S
C1508 H1509 0.961 . S
C1508 H1510 0.961 . S
C1508 H1511 0.960 . S
H1509 C1508 0.961 . S
H1510 C1508 0.961 . S
H1511 C1508 0.960 . S
C1512 N1513 1.342 . S
C1512 C1516 1.401 . S
C1512 C1517 1.499 . S
N1513 Co1496 1.989 . S
N1513 C1512 1.342 . S
N1513 N1514 1.388 . S
N1514 Co1497 1.993 . S
N1514 N1513 1.388 . S
N1514 C1515 1.346 . S
C1515 N1514 1.346 . S
C1515 C1516 1.396 . S
C1515 C1525 1.510 . S
C1516 C1512 1.401 . S
C1516 C1515 1.396 . S
C1517 C1512 1.499 . S
C1517 H1518 0.959 . S
C1517 H1519 0.960 . S
C1517 H1520 0.961 . S
H1518 C1517 0.959 . S
H1519 C1517 0.960 . S
H1520 C1517 0.961 . S
O1521 Co1496 1.967 . S
O1521 C1529 1.258 . S
O1522 Co1497 1.941 . S
O1522 C1529 1.266 . S
H1523 C1525 0.959 . S
H1524 C1525 0.961 . S
C1525 C1515 1.510 . S
C1525 H1523 0.959 . S
C1525 H1524 0.961 . S
C1525 H1526 0.960 . S
H1526 C1525 0.960 . S
H1527 N1507 0.862 . S
O1528 Co1496 1.920 . S
O1528 C1501 1.289 . S
C1529 O1521 1.258 . S
C1529 O1522 1.266 . S
Co1530 O1533 1.970 . S
Co1530 N1547 1.989 . S
Co1530 O1555 1.967 . S
Co1530 O1562 1.920 . S
Co1531 O1534 1.966 . S
Co1531 N1540 2.022 . S
Co1531 N1548 1.993 . S
Co1531 O1556 1.941 . S
C1532 O1533 1.258 . S
C1532 O1534 1.263 . S
O1533 Co1530 1.970 . S
O1533 C1532 1.258 . S
O1534 Co1531 1.966 . S
O1534 C1532 1.263 . S
C1535 O1536 1.235 . S
C1535 O1562 1.289 . S
O1536 C1535 1.235 . S
C1537 C1539 1.400 . S
C1537 N1540 1.351 . S
C1537 C1542 1.501 . S
C1538 C1539 1.387 . S
C1538 N1541 1.341 . S
C1539 C1537 1.400 . S
C1539 C1538 1.387 . S
N1540 Co1531 2.022 . S
N1540 C1537 1.351 . S
N1540 N1541 1.365 . S
N1541 C1538 1.341 . S
N1541 N1540 1.365 . S
N1541 H1561 0.862 . S
C1542 C1537 1.501 . S
C1542 H1543 0.961 . S
C1542 H1544 0.961 . S
C1542 H1545 0.960 . S
H1543 C1542 0.961 . S
H1544 C1542 0.961 . S
H1545 C1542 0.960 . S
C1546 N1547 1.342 . S
C1546 C1550 1.401 . S
C1546 C1551 1.499 . S
N1547 Co1530 1.989 . S
N1547 C1546 1.342 . S
N1547 N1548 1.388 . S
N1548 Co1531 1.993 . S
N1548 N1547 1.388 . S
N1548 C1549 1.346 . S
C1549 N1548 1.346 . S
C1549 C1550 1.396 . S
C1549 C1559 1.510 . S
C1550 C1546 1.401 . S
C1550 C1549 1.396 . S
C1551 C1546 1.499 . S
C1551 H1552 0.959 . S
C1551 H1553 0.960 . S
C1551 H1554 0.961 . S
H1552 C1551 0.959 . S
H1553 C1551 0.960 . S
H1554 C1551 0.961 . S
O1555 Co1530 1.967 . S
O1555 C1563 1.258 . S
O1556 Co1531 1.941 . S
O1556 C1563 1.266 . S
H1557 C1559 0.959 . S
H1558 C1559 0.961 . S
C1559 C1549 1.510 . S
C1559 H1557 0.959 . S
C1559 H1558 0.961 . S
C1559 H1560 0.960 . S
H1560 C1559 0.960 . S
H1561 N1541 0.862 . S
O1562 Co1530 1.920 . S
O1562 C1535 1.289 . S
C1563 O1555 1.258 . S
C1563 O1556 1.266 . S
Co1564 O1567 1.970 . S
Co1564 N1581 1.989 . S
Co1564 O1589 1.967 . S
Co1564 O1596 1.920 . S
Co1565 O1568 1.966 . S
Co1565 N1574 2.022 . S
Co1565 N1582 1.993 . S
Co1565 O1590 1.941 . S
C1566 O1567 1.258 . S
C1566 O1568 1.263 . S
O1567 Co1564 1.970 . S
O1567 C1566 1.258 . S
O1568 Co1565 1.966 . S
O1568 C1566 1.263 . S
C1569 O1570 1.235 . S
C1569 O1596 1.289 . S
O1570 C1569 1.235 . S
C1571 C1573 1.400 . S
C1571 N1574 1.351 . S
C1571 C1576 1.501 . S
C1572 C1573 1.387 . S
C1572 N1575 1.341 . S
C1573 C1571 1.400 . S
C1573 C1572 1.387 . S
N1574 Co1565 2.022 . S
N1574 C1571 1.351 . S
N1574 N1575 1.365 . S
N1575 C1572 1.341 . S
N1575 N1574 1.365 . S
N1575 H1595 0.862 . S
C1576 C1571 1.501 . S
C1576 H1577 0.961 . S
C1576 H1578 0.961 . S
C1576 H1579 0.960 . S
H1577 C1576 0.961 . S
H1578 C1576 0.961 . S
H1579 C1576 0.960 . S
C1580 N1581 1.342 . S
C1580 C1584 1.401 . S
C1580 C1585 1.499 . S
N1581 Co1564 1.989 . S
N1581 C1580 1.342 . S
N1581 N1582 1.388 . S
N1582 Co1565 1.993 . S
N1582 N1581 1.388 . S
N1582 C1583 1.346 . S
C1583 N1582 1.346 . S
C1583 C1584 1.396 . S
C1583 C1593 1.510 . S
C1584 C1580 1.401 . S
C1584 C1583 1.396 . S
C1585 C1580 1.499 . S
C1585 H1586 0.959 . S
C1585 H1587 0.960 . S
C1585 H1588 0.961 . S
H1586 C1585 0.959 . S
H1587 C1585 0.960 . S
H1588 C1585 0.961 . S
O1589 Co1564 1.967 . S
O1589 C1597 1.258 . S
O1590 Co1565 1.941 . S
O1590 C1597 1.266 . S
H1591 C1593 0.959 . S
H1592 C1593 0.961 . S
C1593 C1583 1.510 . S
C1593 H1591 0.959 . S
C1593 H1592 0.961 . S
C1593 H1594 0.960 . S
H1594 C1593 0.960 . S
H1595 N1575 0.862 . S
O1596 Co1564 1.920 . S
O1596 C1569 1.289 . S
C1597 O1589 1.258 . S
C1597 O1590 1.266 . S
Co1598 O1601 1.970 . S
Co1598 N1615 1.989 . S
Co1598 O1623 1.967 . S
Co1598 O1630 1.920 . S
Co1599 O1602 1.966 . S
Co1599 N1608 2.022 . S
Co1599 N1616 1.993 . S
Co1599 O1624 1.941 . S
C1600 O1601 1.258 . S
C1600 O1602 1.263 . S
O1601 Co1598 1.970 . S
O1601 C1600 1.258 . S
O1602 Co1599 1.966 . S
O1602 C1600 1.263 . S
C1603 O1604 1.235 . S
C1603 O1630 1.289 . S
O1604 C1603 1.235 . S
C1605 C1607 1.400 . S
C1605 N1608 1.351 . S
C1605 C1610 1.501 . S
C1606 C1607 1.387 . S
C1606 N1609 1.341 . S
C1607 C1605 1.400 . S
C1607 C1606 1.387 . S
N1608 Co1599 2.022 . S
N1608 C1605 1.351 . S
N1608 N1609 1.365 . S
N1609 C1606 1.341 . S
N1609 N1608 1.365 . S
N1609 H1629 0.862 . S
C1610 C1605 1.501 . S
C1610 H1611 0.961 . S
C1610 H1612 0.961 . S
C1610 H1613 0.960 . S
H1611 C1610 0.961 . S
H1612 C1610 0.961 . S
H1613 C1610 0.960 . S
C1614 N1615 1.342 . S
C1614 C1618 1.401 . S
C1614 C1619 1.499 . S
N1615 Co1598 1.989 . S
N1615 C1614 1.342 . S
N1615 N1616 1.388 . S
N1616 Co1599 1.993 . S
N1616 N1615 1.388 . S
N1616 C1617 1.346 . S
C1617 N1616 1.346 . S
C1617 C1618 1.396 . S
C1617 C1627 1.510 . S
C1618 C1614 1.401 . S
C1618 C1617 1.396 . S
C1619 C1614 1.499 . S
C1619 H1620 0.959 . S
C1619 H1621 0.960 . S
C1619 H1622 0.961 . S
H1620 C1619 0.959 . S
H1621 C1619 0.960 . S
H1622 C1619 0.961 . S
O1623 Co1598 1.967 . S
O1623 C1631 1.258 . S
O1624 Co1599 1.941 . S
O1624 C1631 1.266 . S
H1625 C1627 0.959 . S
H1626 C1627 0.961 . S
C1627 C1617 1.510 . S
C1627 H1625 0.959 . S
C1627 H1626 0.961 . S
C1627 H1628 0.960 . S
H1628 C1627 0.960 . S
H1629 N1609 0.862 . S
O1630 Co1598 1.920 . S
O1630 C1603 1.289 . S
C1631 O1623 1.258 . S
C1631 O1624 1.266 . S
H1632 C1638 0.930 . S
H1633 C1641 0.930 . S
H1634 C1642 0.930 . S
H1635 C1643 0.930 . S
H1636 C1646 0.930 . S
H1637 C1647 0.930 . S
C1638 H1632 0.930 . S
C1638 C1639 1.355 . S
C1638 C1640 1.415 . S
C1639 C1638 1.355 . S
C1639 C1641 1.419 . S
C1640 C1638 1.415 . S
C1640 C1645 1.425 . S
C1640 C1647 1.409 . S
C1641 H1633 0.930 . S
C1641 C1639 1.419 . S
C1641 C1642 1.362 . S
C1642 H1634 0.930 . S
C1642 C1641 1.362 . S
C1642 C1645 1.409 . S
C1643 H1635 0.930 . S
C1643 C1644 1.355 . S
C1643 C1645 1.415 . S
C1644 C1643 1.355 . S
C1644 C1646 1.419 . S
C1645 C1640 1.425 . S
C1645 C1642 1.409 . S
C1645 C1643 1.415 . S
C1646 H1636 0.930 . S
C1646 C1644 1.419 . S
C1646 C1647 1.362 . S
C1647 H1637 0.930 . S
C1647 C1640 1.409 . S
C1647 C1646 1.362 . S
H1648 C1654 0.930 . S
H1649 C1657 0.930 . S
H1650 C1658 0.930 . S
H1651 C1659 0.930 . S
H1652 C1662 0.930 . S
H1653 C1663 0.930 . S
C1654 H1648 0.930 . S
C1654 C1655 1.355 . S
C1654 C1656 1.415 . S
C1655 C1654 1.355 . S
C1655 C1657 1.419 . S
C1656 C1654 1.415 . S
C1656 C1661 1.425 . S
C1656 C1663 1.409 . S
C1657 H1649 0.930 . S
C1657 C1655 1.419 . S
C1657 C1658 1.362 . S
C1658 H1650 0.930 . S
C1658 C1657 1.362 . S
C1658 C1661 1.409 . S
C1659 H1651 0.930 . S
C1659 C1660 1.355 . S
C1659 C1661 1.415 . S
C1660 C1659 1.355 . S
C1660 C1662 1.419 . S
C1661 C1656 1.425 . S
C1661 C1658 1.409 . S
C1661 C1659 1.415 . S
C1662 H1652 0.930 . S
C1662 C1660 1.419 . S
C1662 C1663 1.362 . S
C1663 H1653 0.930 . S
C1663 C1656 1.409 . S
C1663 C1662 1.362 . S
H1664 C1670 0.930 . S
H1665 C1673 0.930 . S
H1666 C1674 0.930 . S
H1667 C1675 0.930 . S
H1668 C1678 0.930 . S
H1669 C1679 0.930 . S
C1670 H1664 0.930 . S
C1670 C1671 1.355 . S
C1670 C1672 1.415 . S
C1671 C1670 1.355 . S
C1671 C1673 1.419 . S
C1672 C1670 1.415 . S
C1672 C1677 1.425 . S
C1672 C1679 1.409 . S
C1673 H1665 0.930 . S
C1673 C1671 1.419 . S
C1673 C1674 1.362 . S
C1674 H1666 0.930 . S
C1674 C1673 1.362 . S
C1674 C1677 1.409 . S
C1675 H1667 0.930 . S
C1675 C1676 1.355 . S
C1675 C1677 1.415 . S
C1676 C1675 1.355 . S
C1676 C1678 1.419 . S
C1677 C1672 1.425 . S
C1677 C1674 1.409 . S
C1677 C1675 1.415 . S
C1678 H1668 0.930 . S
C1678 C1676 1.419 . S
C1678 C1679 1.362 . S
C1679 H1669 0.930 . S
C1679 C1672 1.409 . S
C1679 C1678 1.362 . S
H1680 C1686 0.930 . S
H1681 C1689 0.930 . S
H1682 C1690 0.930 . S
H1683 C1691 0.930 . S
H1684 C1694 0.930 . S
H1685 C1695 0.930 . S
C1686 H1680 0.930 . S
C1686 C1687 1.355 . S
C1686 C1688 1.415 . S
C1687 C1686 1.355 . S
C1687 C1689 1.419 . S
C1688 C1686 1.415 . S
C1688 C1693 1.425 . S
C1688 C1695 1.409 . S
C1689 H1681 0.930 . S
C1689 C1687 1.419 . S
C1689 C1690 1.362 . S
C1690 H1682 0.930 . S
C1690 C1689 1.362 . S
C1690 C1693 1.409 . S
C1691 H1683 0.930 . S
C1691 C1692 1.355 . S
C1691 C1693 1.415 . S
C1692 C1691 1.355 . S
C1692 C1694 1.419 . S
C1693 C1688 1.425 . S
C1693 C1690 1.409 . S
C1693 C1691 1.415 . S
C1694 H1684 0.930 . S
C1694 C1692 1.419 . S
C1694 C1695 1.362 . S
C1695 H1685 0.930 . S
C1695 C1688 1.409 . S
C1695 C1694 1.362 . S
H1696 C1702 0.930 . S
H1697 C1705 0.930 . S
H1698 C1706 0.930 . S
H1699 C1707 0.930 . S
H1700 C1710 0.930 . S
H1701 C1711 0.930 . S
C1702 H1696 0.930 . S
C1702 C1703 1.355 . S
C1702 C1704 1.415 . S
C1703 C1702 1.355 . S
C1703 C1705 1.419 . S
C1704 C1702 1.415 . S
C1704 C1709 1.425 . S
C1704 C1711 1.409 . S
C1705 H1697 0.930 . S
C1705 C1703 1.419 . S
C1705 C1706 1.362 . S
C1706 H1698 0.930 . S
C1706 C1705 1.362 . S
C1706 C1709 1.409 . S
C1707 H1699 0.930 . S
C1707 C1708 1.355 . S
C1707 C1709 1.415 . S
C1708 C1707 1.355 . S
C1708 C1710 1.419 . S
C1709 C1704 1.425 . S
C1709 C1706 1.409 . S
C1709 C1707 1.415 . S
C1710 H1700 0.930 . S
C1710 C1708 1.419 . S
C1710 C1711 1.362 . S
C1711 H1701 0.930 . S
C1711 C1704 1.409 . S
C1711 C1710 1.362 . S
H1712 C1718 0.930 . S
H1713 C1721 0.930 . S
H1714 C1722 0.930 . S
H1715 C1723 0.930 . S
H1716 C1726 0.930 . S
H1717 C1727 0.930 . S
C1718 H1712 0.930 . S
C1718 C1719 1.355 . S
C1718 C1720 1.415 . S
C1719 C1718 1.355 . S
C1719 C1721 1.419 . S
C1720 C1718 1.415 . S
C1720 C1725 1.425 . S
C1720 C1727 1.409 . S
C1721 H1713 0.930 . S
C1721 C1719 1.419 . S
C1721 C1722 1.362 . S
C1722 H1714 0.930 . S
C1722 C1721 1.362 . S
C1722 C1725 1.409 . S
C1723 H1715 0.930 . S
C1723 C1724 1.355 1_655 S
C1723 C1725 1.415 . S
C1724 C1723 1.355 1_455 S
C1724 C1726 1.419 . S
C1725 C1720 1.425 . S
C1725 C1722 1.409 . S
C1725 C1723 1.415 . S
C1726 H1716 0.930 . S
C1726 C1724 1.419 . S
C1726 C1727 1.362 1_455 S
C1727 H1717 0.930 . S
C1727 C1720 1.409 . S
C1727 C1726 1.362 1_655 S
H1728 C1734 0.930 . S
H1729 C1737 0.930 . S
H1730 C1738 0.930 . S
H1731 C1739 0.930 . S
H1732 C1742 0.930 . S
H1733 C1743 0.930 . S
C1734 H1728 0.930 . S
C1734 C1735 1.355 . S
C1734 C1736 1.415 . S
C1735 C1734 1.355 . S
C1735 C1737 1.419 . S
C1736 C1734 1.415 . S
C1736 C1741 1.425 . S
C1736 C1743 1.409 . S
C1737 H1729 0.930 . S
C1737 C1735 1.419 . S
C1737 C1738 1.362 . S
C1738 H1730 0.930 . S
C1738 C1737 1.362 . S
C1738 C1741 1.409 . S
C1739 H1731 0.930 . S
C1739 C1740 1.355 . S
C1739 C1741 1.415 . S
C1740 C1739 1.355 . S
C1740 C1742 1.419 . S
C1741 C1736 1.425 . S
C1741 C1738 1.409 . S
C1741 C1739 1.415 . S
C1742 H1732 0.930 . S
C1742 C1740 1.419 . S
C1742 C1743 1.362 . S
C1743 H1733 0.930 . S
C1743 C1736 1.409 . S
C1743 C1742 1.362 . S
H1744 C1750 0.930 1_655 S
H1745 C1753 0.942 . S
H1746 C1754 0.930 . S
H1747 C1755 0.930 . S
H1748 C1758 0.930 . S
H1749 C1759 0.930 . S
C1750 H1744 0.930 1_455 S
C1750 C1751 1.355 1_455 S
C1750 C1752 1.415 . S
C1751 C1750 1.355 1_655 S
C1751 C1753 1.419 1_655 S
C1752 C1750 1.415 . S
C1752 C1757 1.425 . S
C1752 C1759 1.409 . S
C1753 H1745 0.942 . S
C1753 C1751 1.419 1_455 S
C1753 C1754 1.362 . S
C1754 H1746 0.930 . S
C1754 C1753 1.362 . S
C1754 C1757 1.409 . S
C1755 H1747 0.930 . S
C1755 C1756 1.355 . S
C1755 C1757 1.415 . S
C1756 C1755 1.355 . S
C1756 C1758 1.419 . S
C1757 C1752 1.425 . S
C1757 C1754 1.409 . S
C1757 C1755 1.415 . S
C1758 H1748 0.930 . S
C1758 C1756 1.419 . S
C1758 C1759 1.362 . S
C1759 H1749 0.930 . S
C1759 C1752 1.409 . S
C1759 C1758 1.362 . S
H1760 C1766 0.930 . S
H1761 C1769 0.930 . S
H1762 C1770 0.930 . S
H1763 C1771 0.930 . S
H1764 C1774 0.930 . S
H1765 C1775 0.930 . S
C1766 H1760 0.930 . S
C1766 C1767 1.355 . S
C1766 C1768 1.415 . S
C1767 C1766 1.355 . S
C1767 C1769 1.419 . S
C1768 C1766 1.415 . S
C1768 C1773 1.425 . S
C1768 C1775 1.409 . S
C1769 H1761 0.930 . S
C1769 C1767 1.419 . S
C1769 C1770 1.362 . S
C1770 H1762 0.930 . S
C1770 C1769 1.362 . S
C1770 C1773 1.409 . S
C1771 H1763 0.930 . S
C1771 C1772 1.355 . S
C1771 C1773 1.415 . S
C1772 C1771 1.355 . S
C1772 C1774 1.419 . S
C1773 C1768 1.425 . S
C1773 C1770 1.409 . S
C1773 C1771 1.415 . S
C1774 H1764 0.930 . S
C1774 C1772 1.419 . S
C1774 C1775 1.362 . S
C1775 H1765 0.930 . S
C1775 C1768 1.409 . S
C1775 C1774 1.362 . S
H1776 C1782 0.930 1_554 S
H1777 C1785 0.930 . S
H1778 C1786 0.930 . S
H1779 C1787 0.930 . S
H1780 C1790 0.930 . S
H1781 C1791 0.930 . S
C1782 H1776 0.930 1_556 S
C1782 C1783 1.355 1_556 S
C1782 C1784 1.415 . S
C1783 C1782 1.355 1_554 S
C1783 C1785 1.419 1_554 S
C1784 C1782 1.415 . S
C1784 C1789 1.425 . S
C1784 C1791 1.409 . S
C1785 H1777 0.930 . S
C1785 C1783 1.419 1_556 S
C1785 C1786 1.362 . S
C1786 H1778 0.930 . S
C1786 C1785 1.362 . S
C1786 C1789 1.409 . S
C1787 H1779 0.930 . S
C1787 C1788 1.355 . S
C1787 C1789 1.415 . S
C1788 C1787 1.355 . S
C1788 C1790 1.419 . S
C1789 C1784 1.425 . S
C1789 C1786 1.409 . S
C1789 C1787 1.415 . S
C1790 H1780 0.930 . S
C1790 C1788 1.419 . S
C1790 C1791 1.362 . S
C1791 H1781 0.930 . S
C1791 C1784 1.409 . S
C1791 C1790 1.362 . S
H1792 C1798 0.930 . S
H1793 C1801 0.930 . S
H1794 C1802 0.930 . S
H1795 C1803 0.930 . S
H1796 C1806 0.930 . S
H1797 C1807 0.930 . S
C1798 H1792 0.930 . S
C1798 C1799 1.355 . S
C1798 C1800 1.415 . S
C1799 C1798 1.355 . S
C1799 C1801 1.419 . S
C1800 C1798 1.415 . S
C1800 C1805 1.425 . S
C1800 C1807 1.409 . S
C1801 H1793 0.930 . S
C1801 C1799 1.419 . S
C1801 C1802 1.362 . S
C1802 H1794 0.930 . S
C1802 C1801 1.362 . S
C1802 C1805 1.409 . S
C1803 H1795 0.930 . S
C1803 C1804 1.355 . S
C1803 C1805 1.415 . S
C1804 C1803 1.355 . S
C1804 C1806 1.419 . S
C1805 C1800 1.425 . S
C1805 C1802 1.409 . S
C1805 C1803 1.415 . S
C1806 H1796 0.930 . S
C1806 C1804 1.419 . S
C1806 C1807 1.362 . S
C1807 H1797 0.930 . S
C1807 C1800 1.409 . S
C1807 C1806 1.362 . S
H1808 C1814 0.930 . S
H1809 C1817 0.930 . S
H1810 C1818 0.930 . S
H1811 C1819 0.930 . S
H1812 C1822 0.930 . S
H1813 C1823 0.930 . S
C1814 H1808 0.930 . S
C1814 C1815 1.355 . S
C1814 C1816 1.415 . S
C1815 C1814 1.355 . S
C1815 C1817 1.419 . S
C1816 C1814 1.415 . S
C1816 C1821 1.425 . S
C1816 C1823 1.409 . S
C1817 H1809 0.930 . S
C1817 C1815 1.419 . S
C1817 C1818 1.362 . S
C1818 H1810 0.930 . S
C1818 C1817 1.362 . S
C1818 C1821 1.409 . S
C1819 H1811 0.930 . S
C1819 C1820 1.355 1_556 S
C1819 C1821 1.415 . S
C1820 C1819 1.355 1_554 S
C1820 C1822 1.419 . S
C1821 C1816 1.425 . S
C1821 C1818 1.409 . S
C1821 C1819 1.415 . S
C1822 H1812 0.930 . S
C1822 C1820 1.419 . S
C1822 C1823 1.362 1_554 S
C1823 H1813 0.930 . S
C1823 C1816 1.409 . S
C1823 C1822 1.362 1_556 S
H1824 C1830 0.930 . S
H1825 C1833 0.930 . S
H1826 C1834 0.930 . S
H1827 C1835 0.930 . S
H1828 C1838 0.930 . S
H1829 C1839 0.930 . S
C1830 H1824 0.930 . S
C1830 C1831 1.355 . S
C1830 C1832 1.415 . S
C1831 C1830 1.355 . S
C1831 C1833 1.419 . S
C1832 C1830 1.415 . S
C1832 C1837 1.425 . S
C1832 C1839 1.409 . S
C1833 H1825 0.930 . S
C1833 C1831 1.419 . S
C1833 C1834 1.362 . S
C1834 H1826 0.930 . S
C1834 C1833 1.362 . S
C1834 C1837 1.409 . S
C1835 H1827 0.930 . S
C1835 C1836 1.355 . S
C1835 C1837 1.415 . S
C1836 C1835 1.355 . S
C1836 C1838 1.419 . S
C1837 C1832 1.425 . S
C1837 C1834 1.409 . S
C1837 C1835 1.415 . S
C1838 H1828 0.930 . S
C1838 C1836 1.419 . S
C1838 C1839 1.362 . S
C1839 H1829 0.930 . S
C1839 C1832 1.409 . S
C1839 C1838 1.362 . S
H1840 C1846 0.930 . S
H1841 C1849 0.930 . S
H1842 C1850 0.930 . S
H1843 C1851 0.930 . S
H1844 C1854 0.930 . S
H1845 C1855 0.930 . S
C1846 H1840 0.930 . S
C1846 C1847 1.355 . S
C1846 C1848 1.415 . S
C1847 C1846 1.355 . S
C1847 C1849 1.419 . S
C1848 C1846 1.415 . S
C1848 C1853 1.425 . S
C1848 C1855 1.409 . S
C1849 H1841 0.930 . S
C1849 C1847 1.419 . S
C1849 C1850 1.362 . S
C1850 H1842 0.930 . S
C1850 C1849 1.362 . S
C1850 C1853 1.409 . S
C1851 H1843 0.930 . S
C1851 C1852 1.355 1_554 S
C1851 C1853 1.415 . S
C1852 C1851 1.355 1_556 S
C1852 C1854 1.419 . S
C1853 C1848 1.425 . S
C1853 C1850 1.409 . S
C1853 C1851 1.415 . S
C1854 H1844 0.930 . S
C1854 C1852 1.419 . S
C1854 C1855 1.362 1_556 S
C1855 H1845 0.930 . S
C1855 C1848 1.409 . S
C1855 C1854 1.362 1_554 S
H1856 C1862 0.930 . S
H1857 C1865 0.930 . S
H1858 C1866 0.930 . S
H1859 C1867 0.930 . S
H1860 C1870 0.930 . S
H1861 C1871 0.930 . S
C1862 H1856 0.930 . S
C1862 C1863 1.355 . S
C1862 C1864 1.415 . S
C1863 C1862 1.355 . S
C1863 C1865 1.419 . S
C1864 C1862 1.415 . S
C1864 C1869 1.425 . S
C1864 C1871 1.409 . S
C1865 H1857 0.930 . S
C1865 C1863 1.419 . S
C1865 C1866 1.362 . S
C1866 H1858 0.930 . S
C1866 C1865 1.362 . S
C1866 C1869 1.409 . S
C1867 H1859 0.930 . S
C1867 C1868 1.355 . S
C1867 C1869 1.415 . S
C1868 C1867 1.355 . S
C1868 C1870 1.419 . S
C1869 C1864 1.425 . S
C1869 C1866 1.409 . S
C1869 C1867 1.415 . S
C1870 H1860 0.930 . S
C1870 C1868 1.419 . S
C1870 C1871 1.362 . S
C1871 H1861 0.930 . S
C1871 C1864 1.409 . S
C1871 C1870 1.362 . S
H1872 C1878 0.930 1_556 S
H1873 C1881 0.934 . S
H1874 C1882 0.930 . S
H1875 C1883 0.930 . S
H1876 C1886 0.930 . S
H1877 C1887 0.930 . S
C1878 H1872 0.930 1_554 S
C1878 C1879 1.355 1_554 S
C1878 C1880 1.415 . S
C1879 C1878 1.355 1_556 S
C1879 C1881 1.419 1_556 S
C1880 C1878 1.415 . S
C1880 C1885 1.425 . S
C1880 C1887 1.409 . S
C1881 H1873 0.934 . S
C1881 C1879 1.419 1_554 S
C1881 C1882 1.362 . S
C1882 H1874 0.930 . S
C1882 C1881 1.362 . S
C1882 C1885 1.409 . S
C1883 H1875 0.930 . S
C1883 C1884 1.355 . S
C1883 C1885 1.415 . S
C1884 C1883 1.355 . S
C1884 C1886 1.419 . S
C1885 C1880 1.425 . S
C1885 C1882 1.409 . S
C1885 C1883 1.415 . S
C1886 H1876 0.930 . S
C1886 C1884 1.419 . S
C1886 C1887 1.362 . S
C1887 H1877 0.930 . S
C1887 C1880 1.409 . S
C1887 C1886 1.362 . S
H1888 C1894 0.930 . S
H1889 C1897 0.930 . S
H1890 C1898 0.930 . S
H1891 C1899 0.930 . S
H1892 C1902 0.930 . S
H1893 C1903 0.930 . S
C1894 H1888 0.930 . S
C1894 C1895 1.355 . S
C1894 C1896 1.415 . S
C1895 C1894 1.355 . S
C1895 C1897 1.419 . S
C1896 C1894 1.415 . S
C1896 C1901 1.425 . S
C1896 C1903 1.409 . S
C1897 H1889 0.930 . S
C1897 C1895 1.419 . S
C1897 C1898 1.362 . S
C1898 H1890 0.930 . S
C1898 C1897 1.362 . S
C1898 C1901 1.409 . S
C1899 H1891 0.930 . S
C1899 C1900 1.355 . S
C1899 C1901 1.415 . S
C1900 C1899 1.355 . S
C1900 C1902 1.419 . S
C1901 C1896 1.425 . S
C1901 C1898 1.409 . S
C1901 C1899 1.415 . S
C1902 H1892 0.930 . S
C1902 C1900 1.419 . S
C1902 C1903 1.362 . S
C1903 H1893 0.930 . S
C1903 C1896 1.409 . S
C1903 C1902 1.362 . S
H1904 C1910 0.930 . S
H1905 C1913 0.930 . S
H1906 C1914 0.930 . S
H1907 C1915 0.930 . S
H1908 C1918 0.930 . S
H1909 C1919 0.930 . S
C1910 H1904 0.930 . S
C1910 C1911 1.355 . S
C1910 C1912 1.415 . S
C1911 C1910 1.355 . S
C1911 C1913 1.419 . S
C1912 C1910 1.415 . S
C1912 C1917 1.425 . S
C1912 C1919 1.409 . S
C1913 H1905 0.930 . S
C1913 C1911 1.419 . S
C1913 C1914 1.362 . S
C1914 H1906 0.930 . S
C1914 C1913 1.362 . S
C1914 C1917 1.409 . S
C1915 H1907 0.930 . S
C1915 C1916 1.355 . S
C1915 C1917 1.415 . S
C1916 C1915 1.355 . S
C1916 C1918 1.419 . S
C1917 C1912 1.425 . S
C1917 C1914 1.409 . S
C1917 C1915 1.415 . S
C1918 H1908 0.930 . S
C1918 C1916 1.419 . S
C1918 C1919 1.362 . S
C1919 H1909 0.930 . S
C1919 C1912 1.409 . S
C1919 C1918 1.362 . S
H1920 C1926 0.930 . S
H1921 C1929 0.930 . S
H1922 C1930 0.930 . S
H1923 C1931 0.930 . S
H1924 C1934 0.930 . S
H1925 C1935 0.930 . S
C1926 H1920 0.930 . S
C1926 C1927 1.355 . S
C1926 C1928 1.415 . S
C1927 C1926 1.355 . S
C1927 C1929 1.419 . S
C1928 C1926 1.415 . S
C1928 C1933 1.425 . S
C1928 C1935 1.409 . S
C1929 H1921 0.930 . S
C1929 C1927 1.419 . S
C1929 C1930 1.362 . S
C1930 H1922 0.930 . S
C1930 C1929 1.362 . S
C1930 C1933 1.409 . S
C1931 H1923 0.930 . S
C1931 C1932 1.355 . S
C1931 C1933 1.415 . S
C1932 C1931 1.355 . S
C1932 C1934 1.419 . S
C1933 C1928 1.425 . S
C1933 C1930 1.409 . S
C1933 C1931 1.415 . S
C1934 H1924 0.930 . S
C1934 C1932 1.419 . S
C1934 C1935 1.362 . S
C1935 H1925 0.930 . S
C1935 C1928 1.409 . S
C1935 C1934 1.362 . S
H1936 C1942 0.930 . S
H1937 C1945 0.930 . S
H1938 C1946 0.930 . S
H1939 C1947 0.930 . S
H1940 C1950 0.930 . S
H1941 C1951 0.930 . S
C1942 H1936 0.930 . S
C1942 C1943 1.355 . S
C1942 C1944 1.415 . S
C1943 C1942 1.355 . S
C1943 C1945 1.419 . S
C1944 C1942 1.415 . S
C1944 C1949 1.425 . S
C1944 C1951 1.409 . S
C1945 H1937 0.930 . S
C1945 C1943 1.419 . S
C1945 C1946 1.362 . S
C1946 H1938 0.930 . S
C1946 C1945 1.362 . S
C1946 C1949 1.409 . S
C1947 H1939 0.930 . S
C1947 C1948 1.355 . S
C1947 C1949 1.415 . S
C1948 C1947 1.355 . S
C1948 C1950 1.419 . S
C1949 C1944 1.425 . S
C1949 C1946 1.409 . S
C1949 C1947 1.415 . S
C1950 H1940 0.930 . S
C1950 C1948 1.419 . S
C1950 C1951 1.362 . S
C1951 H1941 0.930 . S
C1951 C1944 1.409 . S
C1951 C1950 1.362 . S
H1952 C1958 0.930 . S
H1953 C1961 0.930 . S
H1954 C1962 0.930 . S
H1955 C1963 0.930 . S
H1956 C1966 0.930 . S
H1957 C1967 0.930 . S
C1958 H1952 0.930 . S
C1958 C1959 1.355 . S
C1958 C1960 1.415 . S
C1959 C1958 1.355 . S
C1959 C1961 1.419 . S
C1960 C1958 1.415 . S
C1960 C1965 1.425 . S
C1960 C1967 1.409 . S
C1961 H1953 0.930 . S
C1961 C1959 1.419 . S
C1961 C1962 1.362 . S
C1962 H1954 0.930 . S
C1962 C1961 1.362 . S
C1962 C1965 1.409 . S
C1963 H1955 0.930 . S
C1963 C1964 1.355 . S
C1963 C1965 1.415 . S
C1964 C1963 1.355 . S
C1964 C1966 1.419 . S
C1965 C1960 1.425 . S
C1965 C1962 1.409 . S
C1965 C1963 1.415 . S
C1966 H1956 0.930 . S
C1966 C1964 1.419 . S
C1966 C1967 1.362 . S
C1967 H1957 0.930 . S
C1967 C1960 1.409 . S
C1967 C1966 1.362 . S
H1968 C1974 0.930 . S
H1969 C1977 0.930 . S
H1970 C1978 0.930 . S
H1971 C1979 0.930 . S
H1972 C1982 0.930 . S
H1973 C1983 0.930 . S
C1974 H1968 0.930 . S
C1974 C1975 1.355 . S
C1974 C1976 1.415 . S
C1975 C1974 1.355 . S
C1975 C1977 1.419 . S
C1976 C1974 1.415 . S
C1976 C1981 1.425 . S
C1976 C1983 1.409 . S
C1977 H1969 0.930 . S
C1977 C1975 1.419 . S
C1977 C1978 1.362 . S
C1978 H1970 0.930 . S
C1978 C1977 1.362 . S
C1978 C1981 1.409 . S
C1979 H1971 0.930 . S
C1979 C1980 1.355 . S
C1979 C1981 1.415 . S
C1980 C1979 1.355 . S
C1980 C1982 1.419 . S
C1981 C1976 1.425 . S
C1981 C1978 1.409 . S
C1981 C1979 1.415 . S
C1982 H1972 0.930 . S
C1982 C1980 1.419 . S
C1982 C1983 1.362 . S
C1983 H1973 0.930 . S
C1983 C1976 1.409 . S
C1983 C1982 1.362 . S
H1984 C1990 0.930 . S
H1985 C1993 0.930 . S
H1986 C1994 0.930 . S
H1987 C1995 0.930 . S
H1988 C1998 0.930 . S
H1989 C1999 0.930 . S
C1990 H1984 0.930 . S
C1990 C1991 1.355 . S
C1990 C1992 1.415 . S
C1991 C1990 1.355 . S
C1991 C1993 1.419 . S
C1992 C1990 1.415 . S
C1992 C1997 1.425 . S
C1992 C1999 1.409 . S
C1993 H1985 0.930 . S
C1993 C1991 1.419 . S
C1993 C1994 1.362 . S
C1994 H1986 0.930 . S
C1994 C1993 1.362 . S
C1994 C1997 1.409 . S
C1995 H1987 0.930 . S
C1995 C1996 1.355 . S
C1995 C1997 1.415 . S
C1996 C1995 1.355 . S
C1996 C1998 1.419 . S
C1997 C1992 1.425 . S
C1997 C1994 1.409 . S
C1997 C1995 1.415 . S
C1998 H1988 0.930 . S
C1998 C1996 1.419 . S
C1998 C1999 1.362 . S
C1999 H1989 0.930 . S
C1999 C1992 1.409 . S
C1999 C1998 1.362 . S
H2000 C2006 0.930 1_545 S
H2001 C2009 0.930 . S
H2002 C2010 0.930 . S
H2003 C2011 0.930 . S
H2004 C2014 0.930 . S
H2005 C2015 0.930 . S
C2006 H2000 0.930 1_565 S
C2006 C2007 1.355 1_565 S
C2006 C2008 1.415 . S
C2007 C2006 1.355 1_545 S
C2007 C2009 1.419 1_545 S
C2008 C2006 1.415 . S
C2008 C2013 1.425 . S
C2008 C2015 1.409 . S
C2009 H2001 0.930 . S
C2009 C2007 1.419 1_565 S
C2009 C2010 1.362 . S
C2010 H2002 0.930 . S
C2010 C2009 1.362 . S
C2010 C2013 1.409 . S
C2011 H2003 0.930 . S
C2011 C2012 1.355 . S
C2011 C2013 1.415 . S
C2012 C2011 1.355 . S
C2012 C2014 1.419 . S
C2013 C2008 1.425 . S
C2013 C2010 1.409 . S
C2013 C2011 1.415 . S
C2014 H2004 0.930 . S
C2014 C2012 1.419 . S
C2014 C2015 1.362 . S
C2015 H2005 0.930 . S
C2015 C2008 1.409 . S
C2015 C2014 1.362 . S
H2016 C2022 0.930 . S
H2017 C2025 0.930 . S
H2018 C2026 0.930 . S
H2019 C2027 0.930 . S
H2020 C2030 0.930 . S
H2021 C2031 0.930 . S
C2022 H2016 0.930 . S
C2022 C2023 1.355 . S
C2022 C2024 1.415 . S
C2023 C2022 1.355 . S
C2023 C2025 1.419 . S
C2024 C2022 1.415 . S
C2024 C2029 1.425 . S
C2024 C2031 1.409 . S
C2025 H2017 0.930 . S
C2025 C2023 1.419 . S
C2025 C2026 1.362 . S
C2026 H2018 0.930 . S
C2026 C2025 1.362 . S
C2026 C2029 1.409 . S
C2027 H2019 0.930 . S
C2027 C2028 1.355 . S
C2027 C2029 1.415 . S
C2028 C2027 1.355 . S
C2028 C2030 1.419 . S
C2029 C2024 1.425 . S
C2029 C2026 1.409 . S
C2029 C2027 1.415 . S
C2030 H2020 0.930 . S
C2030 C2028 1.419 . S
C2030 C2031 1.362 . S
C2031 H2021 0.930 . S
C2031 C2024 1.409 . S
C2031 C2030 1.362 . S
H2032 C2038 0.930 1_655 S
H2033 C2041 0.930 . S
H2034 C2042 0.930 . S
H2035 C2043 0.930 . S
H2036 C2046 0.930 . S
H2037 C2047 0.930 . S
C2038 H2032 0.930 1_455 S
C2038 C2039 1.355 1_455 S
C2038 C2040 1.415 . S
C2039 C2038 1.355 1_655 S
C2039 C2041 1.419 1_655 S
C2040 C2038 1.415 . S
C2040 C2045 1.425 . S
C2040 C2047 1.409 . S
C2041 H2033 0.930 . S
C2041 C2039 1.419 1_455 S
C2041 C2042 1.362 . S
C2042 H2034 0.930 . S
C2042 C2041 1.362 . S
C2042 C2045 1.409 . S
C2043 H2035 0.930 . S
C2043 C2044 1.355 . S
C2043 C2045 1.415 . S
C2044 C2043 1.355 . S
C2044 C2046 1.419 . S
C2045 C2040 1.425 . S
C2045 C2042 1.409 . S
C2045 C2043 1.415 . S
C2046 H2036 0.930 . S
C2046 C2044 1.419 . S
C2046 C2047 1.362 . S
C2047 H2037 0.930 . S
C2047 C2040 1.409 . S
C2047 C2046 1.362 . S
H2048 C2054 0.930 . S
H2049 C2057 0.930 . S
H2050 C2058 0.930 . S
H2051 C2059 0.930 . S
H2052 C2062 0.930 . S
H2053 C2063 0.930 . S
C2054 H2048 0.930 . S
C2054 C2055 1.355 . S
C2054 C2056 1.415 . S
C2055 C2054 1.355 . S
C2055 C2057 1.419 . S
C2056 C2054 1.415 . S
C2056 C2061 1.425 . S
C2056 C2063 1.409 . S
C2057 H2049 0.930 . S
C2057 C2055 1.419 . S
C2057 C2058 1.362 . S
C2058 H2050 0.930 . S
C2058 C2057 1.362 . S
C2058 C2061 1.409 . S
C2059 H2051 0.930 . S
C2059 C2060 1.355 . S
C2059 C2061 1.415 . S
C2060 C2059 1.355 . S
C2060 C2062 1.419 . S
C2061 C2056 1.425 . S
C2061 C2058 1.409 . S
C2061 C2059 1.415 . S
C2062 H2052 0.930 . S
C2062 C2060 1.419 . S
C2062 C2063 1.362 . S
C2063 H2053 0.930 . S
C2063 C2056 1.409 . S
C2063 C2062 1.362 . S
H2064 C2070 0.930 . S
H2065 C2073 0.930 . S
H2066 C2074 0.930 . S
H2067 C2075 0.930 1_455 S
H2068 C2078 0.930 . S
H2069 C2079 0.930 . S
C2070 H2064 0.930 . S
C2070 C2071 1.355 . S
C2070 C2072 1.415 . S
C2071 C2070 1.355 . S
C2071 C2073 1.419 . S
C2072 C2070 1.415 . S
C2072 C2077 1.425 . S
C2072 C2079 1.409 . S
C2073 H2065 0.930 . S
C2073 C2071 1.419 . S
C2073 C2074 1.362 . S
C2074 H2066 0.930 . S
C2074 C2073 1.362 . S
C2074 C2077 1.409 . S
C2075 H2067 0.930 1_655 S
C2075 C2076 1.355 1_655 S
C2075 C2077 1.415 . S
C2076 C2075 1.355 1_455 S
C2076 C2078 1.419 1_455 S
C2077 C2072 1.425 . S
C2077 C2074 1.409 . S
C2077 C2075 1.415 . S
C2078 H2068 0.930 . S
C2078 C2076 1.419 1_655 S
C2078 C2079 1.362 . S
C2079 H2069 0.930 . S
C2079 C2072 1.409 . S
C2079 C2078 1.362 . S
H2080 C2086 0.930 . S
H2081 C2089 0.930 . S
H2082 C2090 0.930 . S
H2083 C2091 0.930 . S
H2084 C2094 0.930 . S
H2085 C2095 0.930 . S
C2086 H2080 0.930 . S
C2086 C2087 1.355 . S
C2086 C2088 1.415 . S
C2087 C2086 1.355 . S
C2087 C2089 1.419 . S
C2088 C2086 1.415 . S
C2088 C2093 1.425 . S
C2088 C2095 1.409 . S
C2089 H2081 0.930 . S
C2089 C2087 1.419 . S
C2089 C2090 1.362 . S
C2090 H2082 0.930 . S
C2090 C2089 1.362 . S
C2090 C2093 1.409 . S
C2091 H2083 0.930 . S
C2091 C2092 1.355 . S
C2091 C2093 1.415 . S
C2092 C2091 1.355 . S
C2092 C2094 1.419 . S
C2093 C2088 1.425 . S
C2093 C2090 1.409 . S
C2093 C2091 1.415 . S
C2094 H2084 0.930 . S
C2094 C2092 1.419 . S
C2094 C2095 1.362 . S
C2095 H2085 0.930 . S
C2095 C2088 1.409 . S
C2095 C2094 1.362 . S
H2096 C2102 0.930 . S
H2097 C2105 0.930 . S
H2098 C2106 0.930 . S
H2099 C2107 0.930 . S
H2100 C2110 0.930 . S
H2101 C2111 0.930 . S
C2102 H2096 0.930 . S
C2102 C2103 1.355 . S
C2102 C2104 1.415 . S
C2103 C2102 1.355 . S
C2103 C2105 1.419 . S
C2104 C2102 1.415 . S
C2104 C2109 1.425 . S
C2104 C2111 1.409 . S
C2105 H2097 0.930 . S
C2105 C2103 1.419 . S
C2105 C2106 1.362 . S
C2106 H2098 0.930 . S
C2106 C2105 1.362 . S
C2106 C2109 1.409 . S
C2107 H2099 0.930 . S
C2107 C2108 1.355 . S
C2107 C2109 1.415 . S
C2108 C2107 1.355 . S
C2108 C2110 1.419 . S
C2109 C2104 1.425 . S
C2109 C2106 1.409 . S
C2109 C2107 1.415 . S
C2110 H2100 0.930 . S
C2110 C2108 1.419 . S
C2110 C2111 1.362 . S
C2111 H2101 0.930 . S
C2111 C2104 1.409 . S
C2111 C2110 1.362 . S
H2112 C2118 0.930 . S
H2113 C2121 0.930 . S
H2114 C2122 0.930 . S
H2115 C2123 0.930 . S
H2116 C2126 0.930 . S
H2117 C2127 0.930 . S
C2118 H2112 0.930 . S
C2118 C2119 1.355 . S
C2118 C2120 1.415 . S
C2119 C2118 1.355 . S
C2119 C2121 1.419 . S
C2120 C2118 1.415 . S
C2120 C2125 1.425 . S
C2120 C2127 1.409 . S
C2121 H2113 0.930 . S
C2121 C2119 1.419 . S
C2121 C2122 1.362 . S
C2122 H2114 0.930 . S
C2122 C2121 1.362 . S
C2122 C2125 1.409 . S
C2123 H2115 0.930 . S
C2123 C2124 1.355 . S
C2123 C2125 1.415 . S
C2124 C2123 1.355 . S
C2124 C2126 1.419 . S
C2125 C2120 1.425 . S
C2125 C2122 1.409 . S
C2125 C2123 1.415 . S
C2126 H2116 0.930 . S
C2126 C2124 1.419 . S
C2126 C2127 1.362 . S
C2127 H2117 0.930 . S
C2127 C2120 1.409 . S
C2127 C2126 1.362 . S
H2128 C2134 0.930 . S
H2129 C2137 0.930 . S
H2130 C2138 0.930 . S
H2131 C2139 0.930 . S
H2132 C2142 0.930 . S
H2133 C2143 0.930 . S
C2134 H2128 0.930 . S
C2134 C2135 1.355 . S
C2134 C2136 1.415 . S
C2135 C2134 1.355 . S
C2135 C2137 1.419 . S
C2136 C2134 1.415 . S
C2136 C2141 1.425 . S
C2136 C2143 1.409 . S
C2137 H2129 0.930 . S
C2137 C2135 1.419 . S
C2137 C2138 1.362 . S
C2138 H2130 0.930 . S
C2138 C2137 1.362 . S
C2138 C2141 1.409 . S
C2139 H2131 0.930 . S
C2139 C2140 1.355 . S
C2139 C2141 1.415 . S
C2140 C2139 1.355 . S
C2140 C2142 1.419 . S
C2141 C2136 1.425 . S
C2141 C2138 1.409 . S
C2141 C2139 1.415 . S
C2142 H2132 0.930 . S
C2142 C2140 1.419 . S
C2142 C2143 1.362 . S
C2143 H2133 0.930 . S
C2143 C2136 1.409 . S
C2143 C2142 1.362 . S
H2144 C2150 0.930 . S
H2145 C2153 0.930 . S
H2146 C2154 0.930 . S
H2147 C2155 0.930 . S
H2148 C2158 0.930 . S
H2149 C2159 0.930 . S
C2150 H2144 0.930 . S
C2150 C2151 1.355 . S
C2150 C2152 1.415 . S
C2151 C2150 1.355 . S
C2151 C2153 1.419 . S
C2152 C2150 1.415 . S
C2152 C2157 1.425 . S
C2152 C2159 1.409 . S
C2153 H2145 0.930 . S
C2153 C2151 1.419 . S
C2153 C2154 1.362 . S
C2154 H2146 0.930 . S
C2154 C2153 1.362 . S
C2154 C2157 1.409 . S
C2155 H2147 0.930 . S
C2155 C2156 1.355 . S
C2155 C2157 1.415 . S
C2156 C2155 1.355 . S
C2156 C2158 1.419 . S
C2157 C2152 1.425 . S
C2157 C2154 1.409 . S
C2157 C2155 1.415 . S
C2158 H2148 0.930 . S
C2158 C2156 1.419 . S
C2158 C2159 1.362 . S
C2159 H2149 0.930 . S
C2159 C2152 1.409 . S
C2159 C2158 1.362 . S
H2160 C2166 0.930 . S
H2161 C2169 0.930 . S
H2162 C2170 0.930 . S
H2163 C2171 0.930 . S
H2164 C2174 0.930 . S
H2165 C2175 0.930 . S
C2166 H2160 0.930 . S
C2166 C2167 1.355 . S
C2166 C2168 1.415 . S
C2167 C2166 1.355 . S
C2167 C2169 1.419 . S
C2168 C2166 1.415 . S
C2168 C2173 1.425 . S
C2168 C2175 1.409 . S
C2169 H2161 0.930 . S
C2169 C2167 1.419 . S
C2169 C2170 1.362 . S
C2170 H2162 0.930 . S
C2170 C2169 1.362 . S
C2170 C2173 1.409 . S
C2171 H2163 0.930 . S
C2171 C2172 1.355 . S
C2171 C2173 1.415 . S
C2172 C2171 1.355 . S
C2172 C2174 1.419 . S
C2173 C2168 1.425 . S
C2173 C2170 1.409 . S
C2173 C2171 1.415 . S
C2174 H2164 0.930 . S
C2174 C2172 1.419 . S
C2174 C2175 1.362 . S
C2175 H2165 0.930 . S
C2175 C2168 1.409 . S
C2175 C2174 1.362 . S
H2176 C2182 0.930 . S
H2177 C2185 0.930 . S
H2178 C2186 0.930 . S
H2179 C2187 0.930 . S
H2180 C2190 0.930 . S
H2181 C2191 0.930 . S
C2182 H2176 0.930 . S
C2182 C2183 1.355 . S
C2182 C2184 1.415 . S
C2183 C2182 1.355 . S
C2183 C2185 1.419 . S
C2184 C2182 1.415 . S
C2184 C2189 1.425 . S
C2184 C2191 1.409 . S
C2185 H2177 0.930 . S
C2185 C2183 1.419 . S
C2185 C2186 1.362 . S
C2186 H2178 0.930 . S
C2186 C2185 1.362 . S
C2186 C2189 1.409 . S
C2187 H2179 0.930 . S
C2187 C2188 1.355 . S
C2187 C2189 1.415 . S
C2188 C2187 1.355 . S
C2188 C2190 1.419 . S
C2189 C2184 1.425 . S
C2189 C2186 1.409 . S
C2189 C2187 1.415 . S
C2190 H2180 0.930 . S
C2190 C2188 1.419 . S
C2190 C2191 1.362 . S
C2191 H2181 0.930 . S
C2191 C2184 1.409 . S
C2191 C2190 1.362 . S
H2192 C2198 0.930 . S
H2193 C2201 0.930 . S
H2194 C2202 0.930 . S
H2195 C2203 0.930 . S
H2196 C2206 0.930 . S
H2197 C2207 0.930 . S
C2198 H2192 0.930 . S
C2198 C2199 1.355 . S
C2198 C2200 1.415 . S
C2199 C2198 1.355 . S
C2199 C2201 1.419 . S
C2200 C2198 1.415 . S
C2200 C2205 1.425 . S
C2200 C2207 1.409 . S
C2201 H2193 0.930 . S
C2201 C2199 1.419 . S
C2201 C2202 1.362 . S
C2202 H2194 0.930 . S
C2202 C2201 1.362 . S
C2202 C2205 1.409 . S
C2203 H2195 0.930 . S
C2203 C2204 1.355 . S
C2203 C2205 1.415 . S
C2204 C2203 1.355 . S
C2204 C2206 1.419 . S
C2205 C2200 1.425 . S
C2205 C2202 1.409 . S
C2205 C2203 1.415 . S
C2206 H2196 0.930 . S
C2206 C2204 1.419 . S
C2206 C2207 1.362 . S
C2207 H2197 0.930 . S
C2207 C2200 1.409 . S
C2207 C2206 1.362 . S
H2208 C2214 0.930 . S
H2209 C2217 0.930 . S
H2210 C2218 0.930 . S
H2211 C2219 0.930 . S
H2212 C2222 0.930 . S
H2213 C2223 0.930 . S
C2214 H2208 0.930 . S
C2214 C2215 1.355 . S
C2214 C2216 1.415 . S
C2215 C2214 1.355 . S
C2215 C2217 1.419 . S
C2216 C2214 1.415 . S
C2216 C2221 1.425 . S
C2216 C2223 1.409 . S
C2217 H2209 0.930 . S
C2217 C2215 1.419 . S
C2217 C2218 1.362 . S
C2218 H2210 0.930 . S
C2218 C2217 1.362 . S
C2218 C2221 1.409 . S
C2219 H2211 0.930 . S
C2219 C2220 1.355 . S
C2219 C2221 1.415 . S
C2220 C2219 1.355 . S
C2220 C2222 1.419 . S
C2221 C2216 1.425 . S
C2221 C2218 1.409 . S
C2221 C2219 1.415 . S
C2222 H2212 0.930 . S
C2222 C2220 1.419 . S
C2222 C2223 1.362 . S
C2223 H2213 0.930 . S
C2223 C2216 1.409 . S
C2223 C2222 1.362 . S
H2224 C2230 0.930 . S
H2225 C2233 0.930 . S
H2226 C2234 0.930 . S
H2227 C2235 0.930 . S
H2228 C2238 0.930 . S
H2229 C2239 0.930 . S
C2230 H2224 0.930 . S
C2230 C2231 1.355 . S
C2230 C2232 1.415 . S
C2231 C2230 1.355 . S
C2231 C2233 1.419 . S
C2232 C2230 1.415 . S
C2232 C2237 1.425 . S
C2232 C2239 1.409 . S
C2233 H2225 0.930 . S
C2233 C2231 1.419 . S
C2233 C2234 1.362 . S
C2234 H2226 0.930 . S
C2234 C2233 1.362 . S
C2234 C2237 1.409 . S
C2235 H2227 0.930 . S
C2235 C2236 1.355 . S
C2235 C2237 1.415 . S
C2236 C2235 1.355 . S
C2236 C2238 1.419 . S
C2237 C2232 1.425 . S
C2237 C2234 1.409 . S
C2237 C2235 1.415 . S
C2238 H2228 0.930 . S
C2238 C2236 1.419 . S
C2238 C2239 1.362 . S
C2239 H2229 0.930 . S
C2239 C2232 1.409 . S
C2239 C2238 1.362 . S
H2240 C2246 0.930 . S
H2241 C2249 0.930 . S
H2242 C2250 0.930 . S
H2243 C2251 0.930 . S
H2244 C2254 0.930 . S
H2245 C2255 0.930 . S
C2246 H2240 0.930 . S
C2246 C2247 1.355 . S
C2246 C2248 1.415 . S
C2247 C2246 1.355 . S
C2247 C2249 1.419 . S
C2248 C2246 1.415 . S
C2248 C2253 1.425 . S
C2248 C2255 1.409 . S
C2249 H2241 0.930 . S
C2249 C2247 1.419 . S
C2249 C2250 1.362 . S
C2250 H2242 0.930 . S
C2250 C2249 1.362 . S
C2250 C2253 1.409 . S
C2251 H2243 0.930 . S
C2251 C2252 1.355 . S
C2251 C2253 1.415 . S
C2252 C2251 1.355 . S
C2252 C2254 1.419 . S
C2253 C2248 1.425 . S
C2253 C2250 1.409 . S
C2253 C2251 1.415 . S
C2254 H2244 0.930 . S
C2254 C2252 1.419 . S
C2254 C2255 1.362 . S
C2255 H2245 0.930 . S
C2255 C2248 1.409 . S
C2255 C2254 1.362 . S
H2256 C2262 0.930 . S
H2257 C2265 0.930 . S
H2258 C2266 0.930 . S
H2259 C2267 0.930 . S
H2260 C2270 0.930 . S
H2261 C2271 0.930 . S
C2262 H2256 0.930 . S
C2262 C2263 1.355 . S
C2262 C2264 1.415 . S
C2263 C2262 1.355 . S
C2263 C2265 1.419 . S
C2264 C2262 1.415 . S
C2264 C2269 1.425 . S
C2264 C2271 1.409 . S
C2265 H2257 0.930 . S
C2265 C2263 1.419 . S
C2265 C2266 1.362 . S
C2266 H2258 0.930 . S
C2266 C2265 1.362 . S
C2266 C2269 1.409 . S
C2267 H2259 0.930 . S
C2267 C2268 1.355 . S
C2267 C2269 1.415 . S
C2268 C2267 1.355 . S
C2268 C2270 1.419 . S
C2269 C2264 1.425 . S
C2269 C2266 1.409 . S
C2269 C2267 1.415 . S
C2270 H2260 0.930 . S
C2270 C2268 1.419 . S
C2270 C2271 1.362 . S
C2271 H2261 0.930 . S
C2271 C2264 1.409 . S
C2271 C2270 1.362 . S
H2272 C2278 0.930 . S
H2273 C2281 0.930 . S
H2274 C2282 0.930 . S
H2275 C2283 0.930 . S
H2276 C2286 0.930 . S
H2277 C2287 0.930 . S
C2278 H2272 0.930 . S
C2278 C2279 1.355 . S
C2278 C2280 1.415 . S
C2279 C2278 1.355 . S
C2279 C2281 1.419 . S
C2280 C2278 1.415 . S
C2280 C2285 1.425 . S
C2280 C2287 1.409 . S
C2281 H2273 0.930 . S
C2281 C2279 1.419 . S
C2281 C2282 1.362 . S
C2282 H2274 0.930 . S
C2282 C2281 1.362 . S
C2282 C2285 1.409 . S
C2283 H2275 0.930 . S
C2283 C2284 1.355 . S
C2283 C2285 1.415 . S
C2284 C2283 1.355 . S
C2284 C2286 1.419 . S
C2285 C2280 1.425 . S
C2285 C2282 1.409 . S
C2285 C2283 1.415 . S
C2286 H2276 0.930 . S
C2286 C2284 1.419 . S
C2286 C2287 1.362 . S
C2287 H2277 0.930 . S
C2287 C2280 1.409 . S
C2287 C2286 1.362 . S
H2288 C2294 0.930 . S
H2289 C2297 0.930 . S
H2290 C2298 0.930 . S
H2291 C2299 0.930 . S
H2292 C2302 0.930 . S
H2293 C2303 0.930 . S
C2294 H2288 0.930 . S
C2294 C2295 1.355 . S
C2294 C2296 1.415 . S
C2295 C2294 1.355 . S
C2295 C2297 1.419 . S
C2296 C2294 1.415 . S
C2296 C2301 1.425 . S
C2296 C2303 1.409 . S
C2297 H2289 0.930 . S
C2297 C2295 1.419 . S
C2297 C2298 1.362 . S
C2298 H2290 0.930 . S
C2298 C2297 1.362 . S
C2298 C2301 1.409 . S
C2299 H2291 0.930 . S
C2299 C2300 1.355 . S
C2299 C2301 1.415 . S
C2300 C2299 1.355 . S
C2300 C2302 1.419 . S
C2301 C2296 1.425 . S
C2301 C2298 1.409 . S
C2301 C2299 1.415 . S
C2302 H2292 0.930 . S
C2302 C2300 1.419 . S
C2302 C2303 1.362 . S
C2303 H2293 0.930 . S
C2303 C2296 1.409 . S
C2303 C2302 1.362 . S
H2304 C2310 0.930 . S
H2305 C2313 0.930 . S
H2306 C2314 0.930 . S
H2307 C2315 0.930 . S
H2308 C2318 0.930 . S
H2309 C2319 0.930 . S
C2310 H2304 0.930 . S
C2310 C2311 1.355 1_565 S
C2310 C2312 1.415 . S
C2311 C2310 1.355 1_545 S
C2311 C2313 1.419 . S
C2312 C2310 1.415 . S
C2312 C2317 1.425 . S
C2312 C2319 1.409 . S
C2313 H2305 0.930 . S
C2313 C2311 1.419 . S
C2313 C2314 1.362 1_545 S
C2314 H2306 0.930 . S
C2314 C2313 1.362 1_565 S
C2314 C2317 1.409 . S
C2315 H2307 0.930 . S
C2315 C2316 1.355 . S
C2315 C2317 1.415 . S
C2316 C2315 1.355 . S
C2316 C2318 1.419 . S
C2317 C2312 1.425 . S
C2317 C2314 1.409 . S
C2317 C2315 1.415 . S
C2318 H2308 0.930 . S
C2318 C2316 1.419 . S
C2318 C2319 1.362 . S
C2319 H2309 0.930 . S
C2319 C2312 1.409 . S
C2319 C2318 1.362 . S
H2320 C2326 0.930 . S
H2321 C2329 0.930 . S
H2322 C2330 0.930 . S
H2323 C2331 0.930 . S
H2324 C2334 0.930 . S
H2325 C2335 0.930 . S
C2326 H2320 0.930 . S
C2326 C2327 1.355 . S
C2326 C2328 1.415 . S
C2327 C2326 1.355 . S
C2327 C2329 1.419 . S
C2328 C2326 1.415 . S
C2328 C2333 1.425 . S
C2328 C2335 1.409 . S
C2329 H2321 0.930 . S
C2329 C2327 1.419 . S
C2329 C2330 1.362 . S
C2330 H2322 0.930 . S
C2330 C2329 1.362 . S
C2330 C2333 1.409 . S
C2331 H2323 0.930 . S
C2331 C2332 1.355 . S
C2331 C2333 1.415 . S
C2332 C2331 1.355 . S
C2332 C2334 1.419 . S
C2333 C2328 1.425 . S
C2333 C2330 1.409 . S
C2333 C2331 1.415 . S
C2334 H2324 0.930 . S
C2334 C2332 1.419 . S
C2334 C2335 1.362 . S
C2335 H2325 0.930 . S
C2335 C2328 1.409 . S
C2335 C2334 1.362 . S
H2336 C2342 0.930 . S
H2337 C2345 0.930 . S
H2338 C2346 0.930 . S
H2339 C2347 0.930 . S
H2340 C2350 0.930 . S
H2341 C2351 0.930 . S
C2342 H2336 0.930 . S
C2342 C2343 1.355 1_545 S
C2342 C2344 1.415 . S
C2343 C2342 1.355 1_565 S
C2343 C2345 1.419 . S
C2344 C2342 1.415 . S
C2344 C2349 1.425 . S
C2344 C2351 1.409 . S
C2345 H2337 0.930 . S
C2345 C2343 1.419 . S
C2345 C2346 1.362 1_565 S
C2346 H2338 0.930 . S
C2346 C2345 1.362 1_545 S
C2346 C2349 1.409 . S
C2347 H2339 0.930 . S
C2347 C2348 1.355 . S
C2347 C2349 1.415 . S
C2348 C2347 1.355 . S
C2348 C2350 1.419 . S
C2349 C2344 1.425 . S
C2349 C2346 1.409 . S
C2349 C2347 1.415 . S
C2350 H2340 0.930 . S
C2350 C2348 1.419 . S
C2350 C2351 1.362 . S
C2351 H2341 0.930 . S
C2351 C2344 1.409 . S
C2351 C2350 1.362 . S
H2352 C2358 0.930 . S
H2353 C2361 0.930 . S
H2354 C2362 0.930 . S
H2355 C2363 0.930 . S
H2356 C2366 0.930 . S
H2357 C2367 0.930 . S
C2358 H2352 0.930 . S
C2358 C2359 1.355 . S
C2358 C2360 1.415 . S
C2359 C2358 1.355 . S
C2359 C2361 1.419 . S
C2360 C2358 1.415 . S
C2360 C2365 1.425 . S
C2360 C2367 1.409 . S
C2361 H2353 0.930 . S
C2361 C2359 1.419 . S
C2361 C2362 1.362 . S
C2362 H2354 0.930 . S
C2362 C2361 1.362 . S
C2362 C2365 1.409 . S
C2363 H2355 0.930 . S
C2363 C2364 1.355 . S
C2363 C2365 1.415 . S
C2364 C2363 1.355 . S
C2364 C2366 1.419 . S
C2365 C2360 1.425 . S
C2365 C2362 1.409 . S
C2365 C2363 1.415 . S
C2366 H2356 0.930 . S
C2366 C2364 1.419 . S
C2366 C2367 1.362 . S
C2367 H2357 0.930 . S
C2367 C2360 1.409 . S
C2367 C2366 1.362 . S
H2368 C2374 0.930 . S
H2369 C2377 0.930 . S
H2370 C2378 0.930 . S
H2371 C2379 0.930 . S
H2372 C2382 0.930 . S
H2373 C2383 0.930 . S
C2374 H2368 0.930 . S
C2374 C2375 1.355 . S
C2374 C2376 1.415 . S
C2375 C2374 1.355 . S
C2375 C2377 1.419 . S
C2376 C2374 1.415 . S
C2376 C2381 1.425 . S
C2376 C2383 1.409 . S
C2377 H2369 0.930 . S
C2377 C2375 1.419 . S
C2377 C2378 1.362 . S
C2378 H2370 0.930 . S
C2378 C2377 1.362 . S
C2378 C2381 1.409 . S
C2379 H2371 0.930 . S
C2379 C2380 1.355 1_545 S
C2379 C2381 1.415 . S
C2380 C2379 1.355 1_565 S
C2380 C2382 1.419 . S
C2381 C2376 1.425 . S
C2381 C2378 1.409 . S
C2381 C2379 1.415 . S
C2382 H2372 0.930 . S
C2382 C2380 1.419 . S
C2382 C2383 1.362 1_565 S
C2383 H2373 0.930 . S
C2383 C2376 1.409 . S
C2383 C2382 1.362 1_545 S
H2384 C2390 0.930 . S
H2385 C2393 0.930 . S
H2386 C2394 0.930 . S
H2387 C2395 0.930 . S
H2388 C2398 0.930 . S
H2389 C2399 0.930 . S
C2390 H2384 0.930 . S
C2390 C2391 1.355 . S
C2390 C2392 1.415 . S
C2391 C2390 1.355 . S
C2391 C2393 1.419 . S
C2392 C2390 1.415 . S
C2392 C2397 1.425 . S
C2392 C2399 1.409 . S
C2393 H2385 0.930 . S
C2393 C2391 1.419 . S
C2393 C2394 1.362 . S
C2394 H2386 0.930 . S
C2394 C2393 1.362 . S
C2394 C2397 1.409 . S
C2395 H2387 0.930 . S
C2395 C2396 1.355 . S
C2395 C2397 1.415 . S
C2396 C2395 1.355 . S
C2396 C2398 1.419 . S
C2397 C2392 1.425 . S
C2397 C2394 1.409 . S
C2397 C2395 1.415 . S
C2398 H2388 0.930 . S
C2398 C2396 1.419 . S
C2398 C2399 1.362 . S
C2399 H2389 0.930 . S
C2399 C2392 1.409 . S
C2399 C2398 1.362 . S
H2400 C2406 0.930 . S
H2401 C2409 0.930 . S
H2402 C2410 0.930 . S
H2403 C2411 0.930 . S
H2404 C2414 0.930 . S
H2405 C2415 0.930 . S
C2406 H2400 0.930 . S
C2406 C2407 1.355 . S
C2406 C2408 1.415 . S
C2407 C2406 1.355 . S
C2407 C2409 1.419 . S
C2408 C2406 1.415 . S
C2408 C2413 1.425 . S
C2408 C2415 1.409 . S
C2409 H2401 0.930 . S
C2409 C2407 1.419 . S
C2409 C2410 1.362 . S
C2410 H2402 0.930 . S
C2410 C2409 1.362 . S
C2410 C2413 1.409 . S
C2411 H2403 0.930 . S
C2411 C2412 1.355 . S
C2411 C2413 1.415 . S
C2412 C2411 1.355 . S
C2412 C2414 1.419 . S
C2413 C2408 1.425 . S
C2413 C2410 1.409 . S
C2413 C2411 1.415 . S
C2414 H2404 0.930 . S
C2414 C2412 1.419 . S
C2414 C2415 1.362 . S
C2415 H2405 0.930 . S
C2415 C2408 1.409 . S
C2415 C2414 1.362 . S
H2416 C2422 0.930 . S
H2417 C2425 0.930 . S
H2418 C2426 0.930 . S
H2419 C2427 0.930 . S
H2420 C2430 0.930 . S
H2421 C2431 0.930 . S
C2422 H2416 0.930 . S
C2422 C2423 1.355 . S
C2422 C2424 1.415 . S
C2423 C2422 1.355 . S
C2423 C2425 1.419 . S
C2424 C2422 1.415 . S
C2424 C2429 1.425 . S
C2424 C2431 1.409 . S
C2425 H2417 0.930 . S
C2425 C2423 1.419 . S
C2425 C2426 1.362 . S
C2426 H2418 0.930 . S
C2426 C2425 1.362 . S
C2426 C2429 1.409 . S
C2427 H2419 0.930 . S
C2427 C2428 1.355 . S
C2427 C2429 1.415 . S
C2428 C2427 1.355 . S
C2428 C2430 1.419 . S
C2429 C2424 1.425 . S
C2429 C2426 1.409 . S
C2429 C2427 1.415 . S
C2430 H2420 0.930 . S
C2430 C2428 1.419 . S
C2430 C2431 1.362 . S
C2431 H2421 0.930 . S
C2431 C2424 1.409 . S
C2431 C2430 1.362 . S
H2432 C2438 0.930 . S
H2433 C2441 0.930 . S
H2434 C2442 0.930 . S
H2435 C2443 0.930 . S
H2436 C2446 0.930 . S
H2437 C2447 0.930 . S
C2438 H2432 0.930 . S
C2438 C2439 1.355 . S
C2438 C2440 1.415 . S
C2439 C2438 1.355 . S
C2439 C2441 1.419 . S
C2440 C2438 1.415 . S
C2440 C2445 1.425 . S
C2440 C2447 1.409 . S
C2441 H2433 0.930 . S
C2441 C2439 1.419 . S
C2441 C2442 1.362 . S
C2442 H2434 0.930 . S
C2442 C2441 1.362 . S
C2442 C2445 1.409 . S
C2443 H2435 0.930 . S
C2443 C2444 1.355 . S
C2443 C2445 1.415 . S
C2444 C2443 1.355 . S
C2444 C2446 1.419 . S
C2445 C2440 1.425 . S
C2445 C2442 1.409 . S
C2445 C2443 1.415 . S
C2446 H2436 0.930 . S
C2446 C2444 1.419 . S
C2446 C2447 1.362 . S
C2447 H2437 0.930 . S
C2447 C2440 1.409 . S
C2447 C2446 1.362 . S
H2448 C2454 0.930 . S
H2449 C2457 0.930 . S
H2450 C2458 0.932 . S
H2451 C2459 0.930 . S
H2452 C2462 0.930 . S
H2453 C2463 0.930 . S
C2454 H2448 0.930 . S
C2454 C2455 1.355 . S
C2454 C2456 1.415 1_545 S
C2455 C2454 1.355 . S
C2455 C2457 1.419 . S
C2456 C2454 1.415 1_565 S
C2456 C2461 1.425 . S
C2456 C2463 1.409 . S
C2457 H2449 0.930 . S
C2457 C2455 1.419 . S
C2457 C2458 1.362 . S
C2458 H2450 0.932 . S
C2458 C2457 1.362 . S
C2458 C2461 1.409 1_545 S
C2459 H2451 0.930 . S
C2459 C2460 1.355 . S
C2459 C2461 1.415 . S
C2460 C2459 1.355 . S
C2460 C2462 1.419 . S
C2461 C2456 1.425 . S
C2461 C2458 1.409 1_565 S
C2461 C2459 1.415 . S
C2462 H2452 0.930 . S
C2462 C2460 1.419 . S
C2462 C2463 1.362 . S
C2463 H2453 0.930 . S
C2463 C2456 1.409 . S
C2463 C2462 1.362 . S
H2464 C2470 0.930 . S
H2465 C2473 0.930 . S
H2466 C2474 0.930 . S
H2467 C2475 0.930 . S
H2468 C2478 0.930 . S
H2469 C2479 0.930 . S
C2470 H2464 0.930 . S
C2470 C2471 1.355 . S
C2470 C2472 1.415 . S
C2471 C2470 1.355 . S
C2471 C2473 1.419 . S
C2472 C2470 1.415 . S
C2472 C2477 1.425 . S
C2472 C2479 1.409 . S
C2473 H2465 0.930 . S
C2473 C2471 1.419 . S
C2473 C2474 1.362 . S
C2474 H2466 0.930 . S
C2474 C2473 1.362 . S
C2474 C2477 1.409 . S
C2475 H2467 0.930 . S
C2475 C2476 1.355 . S
C2475 C2477 1.415 . S
C2476 C2475 1.355 . S
C2476 C2478 1.419 . S
C2477 C2472 1.425 . S
C2477 C2474 1.409 . S
C2477 C2475 1.415 . S
C2478 H2468 0.930 . S
C2478 C2476 1.419 . S
C2478 C2479 1.362 . S
C2479 H2469 0.930 . S
C2479 C2472 1.409 . S
C2479 C2478 1.362 . S
H2480 C2486 0.930 . S
H2481 C2489 0.930 . S
H2482 C2490 0.930 . S
H2483 C2491 0.930 . S
H2484 C2494 0.930 . S
H2485 C2495 0.930 . S
C2486 H2480 0.930 . S
C2486 C2487 1.355 . S
C2486 C2488 1.415 . S
C2487 C2486 1.355 . S
C2487 C2489 1.419 . S
C2488 C2486 1.415 . S
C2488 C2493 1.425 . S
C2488 C2495 1.409 . S
C2489 H2481 0.930 . S
C2489 C2487 1.419 . S
C2489 C2490 1.362 . S
C2490 H2482 0.930 . S
C2490 C2489 1.362 . S
C2490 C2493 1.409 . S
C2491 H2483 0.930 . S
C2491 C2492 1.355 . S
C2491 C2493 1.415 . S
C2492 C2491 1.355 . S
C2492 C2494 1.419 . S
C2493 C2488 1.425 . S
C2493 C2490 1.409 . S
C2493 C2491 1.415 . S
C2494 H2484 0.930 . S
C2494 C2492 1.419 . S
C2494 C2495 1.362 . S
C2495 H2485 0.930 . S
C2495 C2488 1.409 . S
C2495 C2494 1.362 . S
H2496 C2502 0.930 . S
H2497 C2505 0.930 . S
H2498 C2506 0.930 . S
H2499 C2507 0.930 . S
H2500 C2510 0.930 . S
H2501 C2511 0.930 . S
C2502 H2496 0.930 . S
C2502 C2503 1.355 . S
C2502 C2504 1.415 . S
C2503 C2502 1.355 . S
C2503 C2505 1.419 . S
C2504 C2502 1.415 . S
C2504 C2509 1.425 . S
C2504 C2511 1.409 . S
C2505 H2497 0.930 . S
C2505 C2503 1.419 . S
C2505 C2506 1.362 . S
C2506 H2498 0.930 . S
C2506 C2505 1.362 . S
C2506 C2509 1.409 . S
C2507 H2499 0.930 . S
C2507 C2508 1.355 . S
C2507 C2509 1.415 . S
C2508 C2507 1.355 . S
C2508 C2510 1.419 . S
C2509 C2504 1.425 . S
C2509 C2506 1.409 . S
C2509 C2507 1.415 . S
C2510 H2500 0.930 . S
C2510 C2508 1.419 . S
C2510 C2511 1.362 . S
C2511 H2501 0.930 . S
C2511 C2504 1.409 . S
C2511 C2510 1.362 . S
H2512 C2518 0.930 . S
H2513 C2521 0.930 . S
H2514 C2522 0.930 . S
H2515 C2523 0.930 . S
H2516 C2526 0.930 . S
H2517 C2527 0.930 . S
C2518 H2512 0.930 . S
C2518 C2519 1.355 . S
C2518 C2520 1.415 . S
C2519 C2518 1.355 . S
C2519 C2521 1.419 . S
C2520 C2518 1.415 . S
C2520 C2525 1.425 . S
C2520 C2527 1.409 1_565 S
C2521 H2513 0.930 . S
C2521 C2519 1.419 . S
C2521 C2522 1.362 . S
C2522 H2514 0.930 . S
C2522 C2521 1.362 . S
C2522 C2525 1.409 . S
C2523 H2515 0.930 . S
C2523 C2524 1.355 . S
C2523 C2525 1.415 1_545 S
C2524 C2523 1.355 . S
C2524 C2526 1.419 . S
C2525 C2520 1.425 . S
C2525 C2522 1.409 . S
C2525 C2523 1.415 1_565 S
C2526 H2516 0.930 . S
C2526 C2524 1.419 . S
C2526 C2527 1.362 . S
C2527 H2517 0.930 . S
C2527 C2520 1.409 1_545 S
C2527 C2526 1.362 . S
H2528 C2534 0.930 . S
H2529 C2537 0.930 . S
H2530 C2538 0.930 . S
H2531 C2539 0.930 . S
H2532 C2542 0.930 . S
H2533 C2543 0.930 . S
C2534 H2528 0.930 . S
C2534 C2535 1.355 . S
C2534 C2536 1.415 . S
C2535 C2534 1.355 . S
C2535 C2537 1.419 . S
C2536 C2534 1.415 . S
C2536 C2541 1.425 . S
C2536 C2543 1.409 . S
C2537 H2529 0.930 . S
C2537 C2535 1.419 . S
C2537 C2538 1.362 . S
C2538 H2530 0.930 . S
C2538 C2537 1.362 . S
C2538 C2541 1.409 . S
C2539 H2531 0.930 . S
C2539 C2540 1.355 . S
C2539 C2541 1.415 . S
C2540 C2539 1.355 . S
C2540 C2542 1.419 . S
C2541 C2536 1.425 . S
C2541 C2538 1.409 . S
C2541 C2539 1.415 . S
C2542 H2532 0.930 . S
C2542 C2540 1.419 . S
C2542 C2543 1.362 . S
C2543 H2533 0.930 . S
C2543 C2536 1.409 . S
C2543 C2542 1.362 . S
H2544 C2550 0.930 . S
H2545 C2553 0.930 . S
H2546 C2554 0.930 . S
H2547 C2555 0.930 . S
H2548 C2558 0.930 . S
H2549 C2559 0.930 . S
C2550 H2544 0.930 . S
C2550 C2551 1.355 . S
C2550 C2552 1.415 . S
C2551 C2550 1.355 . S
C2551 C2553 1.419 . S
C2552 C2550 1.415 . S
C2552 C2557 1.425 . S
C2552 C2559 1.409 . S
C2553 H2545 0.930 . S
C2553 C2551 1.419 . S
C2553 C2554 1.362 . S
C2554 H2546 0.930 . S
C2554 C2553 1.362 . S
C2554 C2557 1.409 . S
C2555 H2547 0.930 . S
C2555 C2556 1.355 . S
C2555 C2557 1.415 . S
C2556 C2555 1.355 . S
C2556 C2558 1.419 . S
C2557 C2552 1.425 . S
C2557 C2554 1.409 . S
C2557 C2555 1.415 . S
C2558 H2548 0.930 . S
C2558 C2556 1.419 . S
C2558 C2559 1.362 . S
C2559 H2549 0.930 . S
C2559 C2552 1.409 . S
C2559 C2558 1.362 . S
H2560 C2566 0.930 . S
H2561 C2569 0.930 . S
H2562 C2570 0.930 . S
H2563 C2571 0.930 . S
H2564 C2574 0.930 . S
H2565 C2575 0.930 . S
C2566 H2560 0.930 . S
C2566 C2567 1.355 . S
C2566 C2568 1.415 . S
C2567 C2566 1.355 . S
C2567 C2569 1.419 . S
C2568 C2566 1.415 . S
C2568 C2573 1.425 . S
C2568 C2575 1.409 . S
C2569 H2561 0.930 . S
C2569 C2567 1.419 . S
C2569 C2570 1.362 . S
C2570 H2562 0.930 . S
C2570 C2569 1.362 . S
C2570 C2573 1.409 . S
C2571 H2563 0.930 . S
C2571 C2572 1.355 . S
C2571 C2573 1.415 . S
C2572 C2571 1.355 . S
C2572 C2574 1.419 . S
C2573 C2568 1.425 . S
C2573 C2570 1.409 . S
C2573 C2571 1.415 . S
C2574 H2564 0.930 . S
C2574 C2572 1.419 . S
C2574 C2575 1.362 . S
C2575 H2565 0.930 . S
C2575 C2568 1.409 . S
C2575 C2574 1.362 . S
H2576 C2582 0.930 . S
H2577 C2585 0.930 . S
H2578 C2586 0.930 . S
H2579 C2587 0.930 . S
H2580 C2590 0.930 . S
H2581 C2591 0.930 . S
C2582 H2576 0.930 . S
C2582 C2583 1.355 . S
C2582 C2584 1.415 . S
C2583 C2582 1.355 . S
C2583 C2585 1.419 . S
C2584 C2582 1.415 . S
C2584 C2589 1.425 . S
C2584 C2591 1.409 . S
C2585 H2577 0.930 . S
C2585 C2583 1.419 . S
C2585 C2586 1.362 . S
C2586 H2578 0.930 . S
C2586 C2585 1.362 . S
C2586 C2589 1.409 . S
C2587 H2579 0.930 . S
C2587 C2588 1.355 . S
C2587 C2589 1.415 . S
C2588 C2587 1.355 . S
C2588 C2590 1.419 . S
C2589 C2584 1.425 . S
C2589 C2586 1.409 . S
C2589 C2587 1.415 . S
C2590 H2580 0.930 . S
C2590 C2588 1.419 . S
C2590 C2591 1.362 . S
C2591 H2581 0.930 . S
C2591 C2584 1.409 . S
C2591 C2590 1.362 . S
H2592 C2598 0.930 . S
H2593 C2601 0.930 . S
H2594 C2602 0.930 . S
H2595 C2603 0.930 . S
H2596 C2606 0.930 . S
H2597 C2607 0.930 . S
C2598 H2592 0.930 . S
C2598 C2599 1.355 . S
C2598 C2600 1.415 . S
C2599 C2598 1.355 . S
C2599 C2601 1.419 . S
C2600 C2598 1.415 . S
C2600 C2605 1.425 . S
C2600 C2607 1.409 . S
C2601 H2593 0.930 . S
C2601 C2599 1.419 . S
C2601 C2602 1.362 . S
C2602 H2594 0.930 . S
C2602 C2601 1.362 . S
C2602 C2605 1.409 . S
C2603 H2595 0.930 . S
C2603 C2604 1.355 . S
C2603 C2605 1.415 . S
C2604 C2603 1.355 . S
C2604 C2606 1.419 . S
C2605 C2600 1.425 . S
C2605 C2602 1.409 . S
C2605 C2603 1.415 . S
C2606 H2596 0.930 . S
C2606 C2604 1.419 . S
C2606 C2607 1.362 . S
C2607 H2597 0.930 . S
C2607 C2600 1.409 . S
C2607 C2606 1.362 . S
H2608 C2614 0.930 . S
H2609 C2617 0.930 . S
H2610 C2618 0.930 . S
H2611 C2619 0.930 . S
H2612 C2622 0.930 . S
H2613 C2623 0.930 1_655 S
C2614 H2608 0.930 . S
C2614 C2615 1.355 . S
C2614 C2616 1.413 . S
C2615 C2614 1.355 . S
C2615 C2617 1.419 . S
C2616 C2614 1.413 . S
C2616 C2621 1.426 1_655 S
C2616 C2623 1.410 1_655 S
C2617 H2609 0.930 . S
C2617 C2615 1.419 . S
C2617 C2618 1.362 1_655 S
C2618 H2610 0.930 . S
C2618 C2617 1.362 1_455 S
C2618 C2621 1.409 . S
C2619 H2611 0.930 . S
C2619 C2620 1.355 . S
C2619 C2621 1.415 . S
C2620 C2619 1.355 . S
C2620 C2622 1.419 . S
C2621 C2616 1.426 1_455 S
C2621 C2618 1.409 . S
C2621 C2619 1.415 . S
C2622 H2612 0.930 . S
C2622 C2620 1.419 . S
C2622 C2623 1.362 . S
C2623 H2613 0.930 1_455 S
C2623 C2616 1.410 1_455 S
C2623 C2622 1.362 . S
H2624 C2630 0.930 . S
H2625 C2633 0.930 . S
H2626 C2634 0.930 . S
H2627 C2635 0.930 . S
H2628 C2638 0.930 . S
H2629 C2639 0.930 . S
C2630 H2624 0.930 . S
C2630 C2631 1.355 . S
C2630 C2632 1.415 . S
C2631 C2630 1.355 . S
C2631 C2633 1.419 . S
C2632 C2630 1.415 . S
C2632 C2637 1.425 . S
C2632 C2639 1.409 . S
C2633 H2625 0.930 . S
C2633 C2631 1.419 . S
C2633 C2634 1.362 . S
C2634 H2626 0.930 . S
C2634 C2633 1.362 . S
C2634 C2637 1.409 . S
C2635 H2627 0.930 . S
C2635 C2636 1.355 . S
C2635 C2637 1.415 . S
C2636 C2635 1.355 . S
C2636 C2638 1.419 . S
C2637 C2632 1.425 . S
C2637 C2634 1.409 . S
C2637 C2635 1.415 . S
C2638 H2628 0.930 . S
C2638 C2636 1.419 . S
C2638 C2639 1.362 . S
C2639 H2629 0.930 . S
C2639 C2632 1.409 . S
C2639 C2638 1.362 . S
H2640 C2646 0.930 . S
H2641 C2649 0.930 . S
H2642 C2650 0.930 1_455 S
H2643 C2651 0.930 . S
H2644 C2654 0.930 . S
H2645 C2655 0.930 . S
C2646 H2640 0.930 . S
C2646 C2647 1.355 . S
C2646 C2648 1.415 . S
C2647 C2646 1.355 . S
C2647 C2649 1.419 . S
C2648 C2646 1.415 . S
C2648 C2653 1.429 1_655 S
C2648 C2655 1.409 . S
C2649 H2641 0.930 . S
C2649 C2647 1.419 . S
C2649 C2650 1.362 . S
C2650 H2642 0.930 1_655 S
C2650 C2649 1.362 . S
C2650 C2653 1.411 1_655 S
C2651 H2643 0.930 . S
C2651 C2652 1.355 . S
C2651 C2653 1.409 . S
C2652 C2651 1.355 . S
C2652 C2654 1.419 . S
C2653 C2648 1.429 1_455 S
C2653 C2650 1.411 1_455 S
C2653 C2651 1.409 . S
C2654 H2644 0.930 . S
C2654 C2652 1.419 . S
C2654 C2655 1.362 1_455 S
C2655 H2645 0.930 . S
C2655 C2648 1.409 . S
C2655 C2654 1.362 1_655 S
H2656 C2662 0.930 . S
H2657 C2665 0.930 . S
H2658 C2666 0.930 . S
H2659 C2667 0.930 . S
H2660 C2670 0.930 . S
H2661 C2671 0.930 . S
C2662 H2656 0.930 . S
C2662 C2663 1.355 . S
C2662 C2664 1.415 . S
C2663 C2662 1.355 . S
C2663 C2665 1.419 . S
C2664 C2662 1.415 . S
C2664 C2669 1.425 . S
C2664 C2671 1.409 . S
C2665 H2657 0.930 . S
C2665 C2663 1.419 . S
C2665 C2666 1.362 . S
C2666 H2658 0.930 . S
C2666 C2665 1.362 . S
C2666 C2669 1.409 . S
C2667 H2659 0.930 . S
C2667 C2668 1.355 . S
C2667 C2669 1.415 . S
C2668 C2667 1.355 . S
C2668 C2670 1.419 . S
C2669 C2664 1.425 . S
C2669 C2666 1.409 . S
C2669 C2667 1.415 . S
C2670 H2660 0.930 . S
C2670 C2668 1.419 . S
C2670 C2671 1.362 . S
C2671 H2661 0.930 . S
C2671 C2664 1.409 . S
C2671 C2670 1.362 . S
H2672 C2678 0.930 . S
H2673 C2681 0.930 . S
H2674 C2682 0.930 . S
H2675 C2683 0.930 . S
H2676 C2686 0.930 . S
H2677 C2687 0.930 . S
C2678 H2672 0.930 . S
C2678 C2679 1.355 . S
C2678 C2680 1.415 . S
C2679 C2678 1.355 . S
C2679 C2681 1.419 . S
C2680 C2678 1.415 . S
C2680 C2685 1.425 . S
C2680 C2687 1.409 . S
C2681 H2673 0.930 . S
C2681 C2679 1.419 . S
C2681 C2682 1.362 . S
C2682 H2674 0.930 . S
C2682 C2681 1.362 . S
C2682 C2685 1.409 . S
C2683 H2675 0.930 . S
C2683 C2684 1.355 . S
C2683 C2685 1.415 . S
C2684 C2683 1.355 . S
C2684 C2686 1.419 . S
C2685 C2680 1.425 . S
C2685 C2682 1.409 . S
C2685 C2683 1.415 . S
C2686 H2676 0.930 . S
C2686 C2684 1.419 . S
C2686 C2687 1.362 . S
C2687 H2677 0.930 . S
C2687 C2680 1.409 . S
C2687 C2686 1.362 . S
H2688 C2694 0.930 . S
H2689 C2697 0.930 . S
H2690 C2698 0.930 . S
H2691 C2699 0.930 . S
H2692 C2702 0.930 . S
H2693 C2703 0.930 . S
C2694 H2688 0.930 . S
C2694 C2695 1.355 . S
C2694 C2696 1.415 1_554 S
C2695 C2694 1.355 . S
C2695 C2697 1.419 . S
C2696 C2694 1.415 1_556 S
C2696 C2701 1.425 . S
C2696 C2703 1.409 . S
C2697 H2689 0.930 . S
C2697 C2695 1.419 . S
C2697 C2698 1.362 . S
C2698 H2690 0.930 . S
C2698 C2697 1.362 . S
C2698 C2701 1.409 1_554 S
C2699 H2691 0.930 . S
C2699 C2700 1.355 . S
C2699 C2701 1.415 . S
C2700 C2699 1.355 . S
C2700 C2702 1.419 . S
C2701 C2696 1.425 . S
C2701 C2698 1.409 1_556 S
C2701 C2699 1.415 . S
C2702 H2692 0.930 . S
C2702 C2700 1.419 . S
C2702 C2703 1.362 . S
C2703 H2693 0.930 . S
C2703 C2696 1.409 . S
C2703 C2702 1.362 . S
H2704 C2710 0.930 . S
H2705 C2713 0.930 . S
H2706 C2714 0.930 . S
H2707 C2715 0.930 . S
H2708 C2718 0.930 . S
H2709 C2719 0.930 . S
C2710 H2704 0.930 . S
C2710 C2711 1.355 . S
C2710 C2712 1.415 . S
C2711 C2710 1.355 . S
C2711 C2713 1.419 . S
C2712 C2710 1.415 . S
C2712 C2717 1.425 . S
C2712 C2719 1.409 . S
C2713 H2705 0.930 . S
C2713 C2711 1.419 . S
C2713 C2714 1.362 . S
C2714 H2706 0.930 . S
C2714 C2713 1.362 . S
C2714 C2717 1.409 . S
C2715 H2707 0.930 . S
C2715 C2716 1.355 . S
C2715 C2717 1.415 . S
C2716 C2715 1.355 . S
C2716 C2718 1.419 . S
C2717 C2712 1.425 . S
C2717 C2714 1.409 . S
C2717 C2715 1.415 . S
C2718 H2708 0.930 . S
C2718 C2716 1.419 . S
C2718 C2719 1.362 . S
C2719 H2709 0.930 . S
C2719 C2712 1.409 . S
C2719 C2718 1.362 . S
H2720 C2726 0.930 . S
H2721 C2729 0.930 . S
H2722 C2730 0.930 . S
H2723 C2731 0.930 . S
H2724 C2734 0.930 . S
H2725 C2735 0.930 . S
C2726 H2720 0.930 . S
C2726 C2727 1.355 . S
C2726 C2728 1.415 . S
C2727 C2726 1.355 . S
C2727 C2729 1.419 . S
C2728 C2726 1.415 . S
C2728 C2733 1.425 . S
C2728 C2735 1.409 . S
C2729 H2721 0.930 . S
C2729 C2727 1.419 . S
C2729 C2730 1.362 . S
C2730 H2722 0.930 . S
C2730 C2729 1.362 . S
C2730 C2733 1.409 . S
C2731 H2723 0.930 . S
C2731 C2732 1.355 . S
C2731 C2733 1.415 . S
C2732 C2731 1.355 . S
C2732 C2734 1.419 . S
C2733 C2728 1.425 . S
C2733 C2730 1.409 . S
C2733 C2731 1.415 . S
C2734 H2724 0.930 . S
C2734 C2732 1.419 . S
C2734 C2735 1.362 . S
C2735 H2725 0.930 . S
C2735 C2728 1.409 . S
C2735 C2734 1.362 . S
H2736 C2742 0.930 . S
H2737 C2745 0.930 . S
H2738 C2746 0.930 . S
H2739 C2747 0.930 . S
H2740 C2750 0.930 . S
H2741 C2751 0.930 . S
C2742 H2736 0.930 . S
C2742 C2743 1.355 . S
C2742 C2744 1.415 . S
C2743 C2742 1.355 . S
C2743 C2745 1.419 . S
C2744 C2742 1.415 . S
C2744 C2749 1.425 . S
C2744 C2751 1.409 . S
C2745 H2737 0.930 . S
C2745 C2743 1.419 . S
C2745 C2746 1.362 . S
C2746 H2738 0.930 . S
C2746 C2745 1.362 . S
C2746 C2749 1.409 . S
C2747 H2739 0.930 . S
C2747 C2748 1.355 . S
C2747 C2749 1.415 . S
C2748 C2747 1.355 . S
C2748 C2750 1.419 . S
C2749 C2744 1.425 . S
C2749 C2746 1.409 . S
C2749 C2747 1.415 . S
C2750 H2740 0.930 . S
C2750 C2748 1.419 . S
C2750 C2751 1.362 . S
C2751 H2741 0.930 . S
C2751 C2744 1.409 . S
C2751 C2750 1.362 . S
H2752 C2758 0.930 . S
H2753 C2761 0.930 . S
H2754 C2762 0.930 . S
H2755 C2763 0.930 . S
H2756 C2766 0.930 . S
H2757 C2767 0.930 . S
C2758 H2752 0.930 . S
C2758 C2759 1.355 . S
C2758 C2760 1.415 . S
C2759 C2758 1.355 . S
C2759 C2761 1.419 . S
C2760 C2758 1.415 . S
C2760 C2765 1.425 . S
C2760 C2767 1.409 . S
C2761 H2753 0.930 . S
C2761 C2759 1.419 . S
C2761 C2762 1.362 . S
C2762 H2754 0.930 . S
C2762 C2761 1.362 . S
C2762 C2765 1.409 . S
C2763 H2755 0.930 . S
C2763 C2764 1.355 . S
C2763 C2765 1.415 . S
C2764 C2763 1.355 . S
C2764 C2766 1.419 . S
C2765 C2760 1.425 . S
C2765 C2762 1.409 . S
C2765 C2763 1.415 . S
C2766 H2756 0.930 . S
C2766 C2764 1.419 . S
C2766 C2767 1.362 . S
C2767 H2757 0.930 . S
C2767 C2760 1.409 . S
C2767 C2766 1.362 . S
H2768 C2774 0.930 . S
H2769 C2777 0.930 . S
H2770 C2778 0.930 . S
H2771 C2779 0.930 . S
H2772 C2782 0.930 . S
H2773 C2783 0.930 . S
C2774 H2768 0.930 . S
C2774 C2775 1.355 . S
C2774 C2776 1.415 . S
C2775 C2774 1.355 . S
C2775 C2777 1.419 . S
C2776 C2774 1.415 . S
C2776 C2781 1.425 . S
C2776 C2783 1.409 . S
C2777 H2769 0.930 . S
C2777 C2775 1.419 . S
C2777 C2778 1.362 . S
C2778 H2770 0.930 . S
C2778 C2777 1.362 . S
C2778 C2781 1.409 . S
C2779 H2771 0.930 . S
C2779 C2780 1.355 . S
C2779 C2781 1.415 . S
C2780 C2779 1.355 . S
C2780 C2782 1.419 . S
C2781 C2776 1.425 . S
C2781 C2778 1.409 . S
C2781 C2779 1.415 . S
C2782 H2772 0.930 . S
C2782 C2780 1.419 . S
C2782 C2783 1.362 . S
C2783 H2773 0.930 . S
C2783 C2776 1.409 . S
C2783 C2782 1.362 . S
H2784 C2790 0.930 . S
H2785 C2793 0.930 . S
H2786 C2794 0.930 . S
H2787 C2795 0.930 . S
H2788 C2798 0.930 . S
H2789 C2799 0.930 . S
C2790 H2784 0.930 . S
C2790 C2791 1.355 . S
C2790 C2792 1.415 . S
C2791 C2790 1.355 . S
C2791 C2793 1.419 . S
C2792 C2790 1.415 . S
C2792 C2797 1.425 . S
C2792 C2799 1.409 . S
C2793 H2785 0.930 . S
C2793 C2791 1.419 . S
C2793 C2794 1.362 . S
C2794 H2786 0.930 . S
C2794 C2793 1.362 . S
C2794 C2797 1.409 . S
C2795 H2787 0.930 . S
C2795 C2796 1.355 . S
C2795 C2797 1.415 . S
C2796 C2795 1.355 . S
C2796 C2798 1.419 . S
C2797 C2792 1.425 . S
C2797 C2794 1.409 . S
C2797 C2795 1.415 . S
C2798 H2788 0.930 . S
C2798 C2796 1.419 . S
C2798 C2799 1.362 . S
C2799 H2789 0.930 . S
C2799 C2792 1.409 . S
C2799 C2798 1.362 . S
H2800 C2806 0.930 . S
H2801 C2809 0.930 . S
H2802 C2810 0.930 . S
H2803 C2811 0.930 . S
H2804 C2814 0.930 . S
H2805 C2815 0.930 . S
C2806 H2800 0.930 . S
C2806 C2807 1.355 . S
C2806 C2808 1.415 1_565 S
C2807 C2806 1.355 . S
C2807 C2809 1.419 . S
C2808 C2806 1.415 1_545 S
C2808 C2813 1.425 . S
C2808 C2815 1.409 . S
C2809 H2801 0.930 . S
C2809 C2807 1.419 . S
C2809 C2810 1.362 . S
C2810 H2802 0.930 . S
C2810 C2809 1.362 . S
C2810 C2813 1.409 1_565 S
C2811 H2803 0.930 . S
C2811 C2812 1.355 . S
C2811 C2813 1.415 . S
C2812 C2811 1.355 . S
C2812 C2814 1.419 . S
C2813 C2808 1.425 . S
C2813 C2810 1.409 1_545 S
C2813 C2811 1.415 . S
C2814 H2804 0.930 . S
C2814 C2812 1.419 . S
C2814 C2815 1.362 . S
C2815 H2805 0.930 . S
C2815 C2808 1.409 . S
C2815 C2814 1.362 . S
H2816 C2822 0.930 . S
H2817 C2825 0.930 . S
H2818 C2826 0.930 . S
H2819 C2827 0.930 . S
H2820 C2830 0.930 . S
H2821 C2831 0.930 . S
C2822 H2816 0.930 . S
C2822 C2823 1.355 . S
C2822 C2824 1.415 . S
C2823 C2822 1.355 . S
C2823 C2825 1.419 . S
C2824 C2822 1.415 . S
C2824 C2829 1.425 . S
C2824 C2831 1.409 . S
C2825 H2817 0.930 . S
C2825 C2823 1.419 . S
C2825 C2826 1.362 . S
C2826 H2818 0.930 . S
C2826 C2825 1.362 . S
C2826 C2829 1.409 . S
C2827 H2819 0.930 . S
C2827 C2828 1.355 . S
C2827 C2829 1.415 . S
C2828 C2827 1.355 . S
C2828 C2830 1.419 . S
C2829 C2824 1.425 . S
C2829 C2826 1.409 . S
C2829 C2827 1.415 . S
C2830 H2820 0.930 . S
C2830 C2828 1.419 . S
C2830 C2831 1.362 . S
C2831 H2821 0.930 . S
C2831 C2824 1.409 . S
C2831 C2830 1.362 . S
H2832 C2838 0.930 . S
H2833 C2841 0.930 . S
H2834 C2842 0.930 . S
H2835 C2843 0.930 . S
H2836 C2846 0.930 . S
H2837 C2847 0.930 . S
C2838 H2832 0.930 . S
C2838 C2839 1.355 . S
C2838 C2840 1.415 . S
C2839 C2838 1.355 . S
C2839 C2841 1.419 . S
C2840 C2838 1.415 . S
C2840 C2845 1.425 . S
C2840 C2847 1.409 . S
C2841 H2833 0.930 . S
C2841 C2839 1.419 . S
C2841 C2842 1.362 . S
C2842 H2834 0.930 . S
C2842 C2841 1.362 . S
C2842 C2845 1.409 . S
C2843 H2835 0.930 . S
C2843 C2844 1.355 . S
C2843 C2845 1.415 . S
C2844 C2843 1.355 . S
C2844 C2846 1.419 . S
C2845 C2840 1.425 . S
C2845 C2842 1.409 . S
C2845 C2843 1.415 . S
C2846 H2836 0.930 . S
C2846 C2844 1.419 . S
C2846 C2847 1.362 . S
C2847 H2837 0.930 . S
C2847 C2840 1.409 . S
C2847 C2846 1.362 . S
H2848 C2854 0.930 . S
H2849 C2857 0.930 . S
H2850 C2858 0.930 . S
H2851 C2859 0.930 . S
H2852 C2862 0.930 . S
H2853 C2863 0.930 . S
C2854 H2848 0.930 . S
C2854 C2855 1.355 . S
C2854 C2856 1.415 . S
C2855 C2854 1.355 . S
C2855 C2857 1.419 . S
C2856 C2854 1.415 . S
C2856 C2861 1.425 . S
C2856 C2863 1.409 . S
C2857 H2849 0.930 . S
C2857 C2855 1.419 . S
C2857 C2858 1.362 . S
C2858 H2850 0.930 . S
C2858 C2857 1.362 . S
C2858 C2861 1.409 . S
C2859 H2851 0.930 . S
C2859 C2860 1.355 . S
C2859 C2861 1.415 . S
C2860 C2859 1.355 . S
C2860 C2862 1.419 . S
C2861 C2856 1.425 . S
C2861 C2858 1.409 . S
C2861 C2859 1.415 . S
C2862 H2852 0.930 . S
C2862 C2860 1.419 . S
C2862 C2863 1.362 . S
C2863 H2853 0.930 . S
C2863 C2856 1.409 . S
C2863 C2862 1.362 . S
H2864 C2870 0.930 . S
H2865 C2873 0.930 . S
H2866 C2874 0.930 . S
H2867 C2875 0.930 . S
H2868 C2878 0.930 . S
H2869 C2879 0.939 . S
C2870 H2864 0.930 . S
C2870 C2871 1.355 . S
C2870 C2872 1.386 1_565 S
C2871 C2870 1.355 . S
C2871 C2873 1.419 . S
C2872 C2870 1.386 1_545 S
C2872 C2877 1.443 . S
C2872 C2879 1.421 . S
C2873 H2865 0.930 . S
C2873 C2871 1.419 . S
C2873 C2874 1.362 1_565 S
C2874 H2866 0.930 . S
C2874 C2873 1.362 1_545 S
C2874 C2877 1.409 . S
C2875 H2867 0.930 . S
C2875 C2876 1.355 . S
C2875 C2877 1.415 . S
C2876 C2875 1.355 . S
C2876 C2878 1.419 . S
C2877 C2872 1.443 . S
C2877 C2874 1.409 . S
C2877 C2875 1.415 . S
C2878 H2868 0.930 . S
C2878 C2876 1.419 . S
C2878 C2879 1.362 . S
C2879 H2869 0.939 . S
C2879 C2872 1.421 . S
C2879 C2878 1.362 . S
H2880 C2886 0.930 . S
H2881 C2889 0.930 . S
H2882 C2890 0.930 . S
H2883 C2891 0.930 . S
H2884 C2894 0.930 . S
H2885 C2895 0.930 . S
C2886 H2880 0.930 . S
C2886 C2887 1.355 . S
C2886 C2888 1.415 . S
C2887 C2886 1.355 . S
C2887 C2889 1.419 . S
C2888 C2886 1.415 . S
C2888 C2893 1.425 . S
C2888 C2895 1.409 . S
C2889 H2881 0.930 . S
C2889 C2887 1.419 . S
C2889 C2890 1.362 . S
C2890 H2882 0.930 . S
C2890 C2889 1.362 . S
C2890 C2893 1.409 . S
C2891 H2883 0.930 . S
C2891 C2892 1.355 . S
C2891 C2893 1.415 . S
C2892 C2891 1.355 . S
C2892 C2894 1.419 . S
C2893 C2888 1.425 . S
C2893 C2890 1.409 . S
C2893 C2891 1.415 . S
C2894 H2884 0.930 . S
C2894 C2892 1.419 . S
C2894 C2895 1.362 . S
C2895 H2885 0.930 . S
C2895 C2888 1.409 . S
C2895 C2894 1.362 . S
H2896 C2902 0.930 . S
H2897 C2905 0.930 . S
H2898 C2906 0.930 . S
H2899 C2907 0.930 . S
H2900 C2910 0.930 . S
H2901 C2911 0.930 . S
C2902 H2896 0.930 . S
C2902 C2903 1.355 . S
C2902 C2904 1.415 . S
C2903 C2902 1.355 . S
C2903 C2905 1.419 . S
C2904 C2902 1.415 . S
C2904 C2909 1.425 . S
C2904 C2911 1.409 . S
C2905 H2897 0.930 . S
C2905 C2903 1.419 . S
C2905 C2906 1.362 . S
C2906 H2898 0.930 . S
C2906 C2905 1.362 . S
C2906 C2909 1.409 . S
C2907 H2899 0.930 . S
C2907 C2908 1.355 . S
C2907 C2909 1.415 . S
C2908 C2907 1.355 . S
C2908 C2910 1.419 . S
C2909 C2904 1.425 . S
C2909 C2906 1.409 . S
C2909 C2907 1.415 . S
C2910 H2900 0.930 . S
C2910 C2908 1.419 . S
C2910 C2911 1.362 . S
C2911 H2901 0.930 . S
C2911 C2904 1.409 . S
C2911 C2910 1.362 . S
H2912 C2918 0.930 . S
H2913 C2921 0.930 . S
H2914 C2922 0.930 . S
H2915 C2923 0.930 . S
H2916 C2926 0.930 . S
H2917 C2927 0.930 . S
C2918 H2912 0.930 . S
C2918 C2919 1.355 . S
C2918 C2920 1.415 . S
C2919 C2918 1.355 . S
C2919 C2921 1.419 . S
C2920 C2918 1.415 . S
C2920 C2925 1.425 . S
C2920 C2927 1.409 . S
C2921 H2913 0.930 . S
C2921 C2919 1.419 . S
C2921 C2922 1.362 . S
C2922 H2914 0.930 . S
C2922 C2921 1.362 . S
C2922 C2925 1.409 . S
C2923 H2915 0.930 . S
C2923 C2924 1.355 . S
C2923 C2925 1.415 . S
C2924 C2923 1.355 . S
C2924 C2926 1.419 . S
C2925 C2920 1.425 . S
C2925 C2922 1.409 . S
C2925 C2923 1.415 . S
C2926 H2916 0.930 . S
C2926 C2924 1.419 . S
C2926 C2927 1.362 . S
C2927 H2917 0.930 . S
C2927 C2920 1.409 . S
C2927 C2926 1.362 . S
H2928 C2934 0.930 . S
H2929 C2937 0.930 . S
H2930 C2938 0.930 . S
H2931 C2939 0.930 . S
H2932 C2942 0.930 . S
H2933 C2943 0.930 . S
C2934 H2928 0.930 . S
C2934 C2935 1.355 . S
C2934 C2936 1.415 1_455 S
C2935 C2934 1.355 . S
C2935 C2937 1.419 . S
C2936 C2934 1.415 1_655 S
C2936 C2941 1.425 . S
C2936 C2943 1.409 . S
C2937 H2929 0.930 . S
C2937 C2935 1.419 . S
C2937 C2938 1.362 . S
C2938 H2930 0.930 . S
C2938 C2937 1.362 . S
C2938 C2941 1.409 1_455 S
C2939 H2931 0.930 . S
C2939 C2940 1.355 . S
C2939 C2941 1.415 . S
C2940 C2939 1.355 . S
C2940 C2942 1.419 . S
C2941 C2936 1.425 . S
C2941 C2938 1.409 1_655 S
C2941 C2939 1.415 . S
C2942 H2932 0.930 . S
C2942 C2940 1.419 . S
C2942 C2943 1.362 . S
C2943 H2933 0.930 . S
C2943 C2936 1.409 . S
C2943 C2942 1.362 . S
H2944 C2950 0.930 . S
H2945 C2953 0.930 . S
H2946 C2954 0.930 . S
H2947 C2955 0.930 . S
H2948 C2958 0.930 . S
H2949 C2959 0.930 . S
C2950 H2944 0.930 . S
C2950 C2951 1.355 . S
C2950 C2952 1.415 . S
C2951 C2950 1.355 . S
C2951 C2953 1.419 . S
C2952 C2950 1.415 . S
C2952 C2957 1.425 . S
C2952 C2959 1.409 . S
C2953 H2945 0.930 . S
C2953 C2951 1.419 . S
C2953 C2954 1.362 . S
C2954 H2946 0.930 . S
C2954 C2953 1.362 . S
C2954 C2957 1.409 . S
C2955 H2947 0.930 . S
C2955 C2956 1.355 . S
C2955 C2957 1.415 . S
C2956 C2955 1.355 . S
C2956 C2958 1.419 . S
C2957 C2952 1.425 . S
C2957 C2954 1.409 . S
C2957 C2955 1.415 . S
C2958 H2948 0.930 . S
C2958 C2956 1.419 . S
C2958 C2959 1.362 . S
C2959 H2949 0.930 . S
C2959 C2952 1.409 . S
C2959 C2958 1.362 . S
H2960 C2966 0.930 . S
H2961 C2969 0.930 . S
H2962 C2970 0.926 1_655 S
H2963 C2971 0.930 . S
H2964 C2974 0.930 . S
H2965 C2975 0.930 . S
C2966 H2960 0.930 . S
C2966 C2967 1.355 . S
C2966 C2968 1.415 . S
C2967 C2966 1.355 . S
C2967 C2969 1.419 . S
C2968 C2966 1.415 . S
C2968 C2973 1.438 . S
C2968 C2975 1.409 . S
C2969 H2961 0.930 . S
C2969 C2967 1.419 . S
C2969 C2970 1.362 . S
C2970 H2962 0.926 1_455 S
C2970 C2969 1.362 . S
C2970 C2973 1.417 . S
C2971 H2963 0.930 . S
C2971 C2972 1.355 . S
C2971 C2973 1.395 1_655 S
C2972 C2971 1.355 . S
C2972 C2974 1.419 . S
C2973 C2968 1.438 . S
C2973 C2970 1.417 . S
C2973 C2971 1.395 1_455 S
C2974 H2964 0.930 . S
C2974 C2972 1.419 . S
C2974 C2975 1.362 1_655 S
C2975 H2965 0.930 . S
C2975 C2968 1.409 . S
C2975 C2974 1.362 1_455 S
H2976 C2982 0.930 . S
H2977 C2985 0.930 . S
H2978 C2986 0.930 . S
H2979 C2987 0.930 . S
H2980 C2990 0.930 . S
H2981 C2991 0.930 . S
C2982 H2976 0.930 . S
C2982 C2983 1.355 . S
C2982 C2984 1.415 . S
C2983 C2982 1.355 . S
C2983 C2985 1.419 . S
C2984 C2982 1.415 . S
C2984 C2989 1.425 . S
C2984 C2991 1.409 . S
C2985 H2977 0.930 . S
C2985 C2983 1.419 . S
C2985 C2986 1.362 . S
C2986 H2978 0.930 . S
C2986 C2985 1.362 . S
C2986 C2989 1.409 . S
C2987 H2979 0.930 . S
C2987 C2988 1.355 . S
C2987 C2989 1.415 . S
C2988 C2987 1.355 . S
C2988 C2990 1.419 . S
C2989 C2984 1.425 . S
C2989 C2986 1.409 . S
C2989 C2987 1.415 . S
C2990 H2980 0.930 . S
C2990 C2988 1.419 . S
C2990 C2991 1.362 . S
C2991 H2981 0.930 . S
C2991 C2984 1.409 . S
C2991 C2990 1.362 . S
H2992 C2998 0.930 . S
H2993 C3001 0.930 . S
H2994 C3002 0.930 . S
H2995 C3003 0.930 . S
H2996 C3006 0.930 . S
H2997 C3007 0.930 . S
C2998 H2992 0.930 . S
C2998 C2999 1.355 . S
C2998 C3000 1.415 . S
C2999 C2998 1.355 . S
C2999 C3001 1.419 . S
C3000 C2998 1.415 . S
C3000 C3005 1.425 . S
C3000 C3007 1.409 . S
C3001 H2993 0.930 . S
C3001 C2999 1.419 . S
C3001 C3002 1.362 . S
C3002 H2994 0.930 . S
C3002 C3001 1.362 . S
C3002 C3005 1.409 . S
C3003 H2995 0.930 . S
C3003 C3004 1.355 . S
C3003 C3005 1.415 . S
C3004 C3003 1.355 . S
C3004 C3006 1.419 . S
C3005 C3000 1.425 . S
C3005 C3002 1.409 . S
C3005 C3003 1.415 . S
C3006 H2996 0.930 . S
C3006 C3004 1.419 . S
C3006 C3007 1.362 . S
C3007 H2997 0.930 . S
C3007 C3000 1.409 . S
C3007 C3006 1.362 . S
H3008 C3014 0.930 . S
H3009 C3017 0.930 . S
H3010 C3018 0.930 . S
H3011 C3019 0.930 . S
H3012 C3022 0.930 . S
H3013 C3023 0.930 . S
C3014 H3008 0.930 . S
C3014 C3015 1.355 . S
C3014 C3016 1.415 . S
C3015 C3014 1.355 . S
C3015 C3017 1.419 . S
C3016 C3014 1.415 . S
C3016 C3021 1.425 . S
C3016 C3023 1.409 . S
C3017 H3009 0.930 . S
C3017 C3015 1.419 . S
C3017 C3018 1.362 . S
C3018 H3010 0.930 . S
C3018 C3017 1.362 . S
C3018 C3021 1.409 . S
C3019 H3011 0.930 . S
C3019 C3020 1.355 . S
C3019 C3021 1.415 . S
C3020 C3019 1.355 . S
C3020 C3022 1.419 . S
C3021 C3016 1.425 . S
C3021 C3018 1.409 . S
C3021 C3019 1.415 . S
C3022 H3012 0.930 . S
C3022 C3020 1.419 . S
C3022 C3023 1.362 . S
C3023 H3013 0.930 . S
C3023 C3016 1.409 . S
C3023 C3022 1.362 . S
H3024 C3030 0.930 . S
H3025 C3033 0.930 . S
H3026 C3034 0.930 . S
H3027 C3035 0.930 . S
H3028 C3038 0.930 . S
H3029 C3039 0.930 . S
C3030 H3024 0.930 . S
C3030 C3031 1.355 . S
C3030 C3032 1.415 . S
C3031 C3030 1.355 . S
C3031 C3033 1.419 . S
C3032 C3030 1.415 . S
C3032 C3037 1.425 . S
C3032 C3039 1.409 . S
C3033 H3025 0.930 . S
C3033 C3031 1.419 . S
C3033 C3034 1.362 . S
C3034 H3026 0.930 . S
C3034 C3033 1.362 . S
C3034 C3037 1.409 . S
C3035 H3027 0.930 . S
C3035 C3036 1.355 . S
C3035 C3037 1.415 . S
C3036 C3035 1.355 . S
C3036 C3038 1.419 . S
C3037 C3032 1.425 . S
C3037 C3034 1.409 . S
C3037 C3035 1.415 . S
C3038 H3028 0.930 . S
C3038 C3036 1.419 . S
C3038 C3039 1.362 . S
C3039 H3029 0.930 . S
C3039 C3032 1.409 . S
C3039 C3038 1.362 . S
H3040 C3046 0.930 . S
H3041 C3049 0.930 . S
H3042 C3050 0.930 . S
H3043 C3051 0.930 . S
H3044 C3054 0.930 . S
H3045 C3055 0.930 . S
C3046 H3040 0.930 . S
C3046 C3047 1.355 . S
C3046 C3048 1.415 . S
C3047 C3046 1.355 . S
C3047 C3049 1.419 . S
C3048 C3046 1.415 . S
C3048 C3053 1.425 . S
C3048 C3055 1.409 . S
C3049 H3041 0.930 . S
C3049 C3047 1.419 . S
C3049 C3050 1.362 . S
C3050 H3042 0.930 . S
C3050 C3049 1.362 . S
C3050 C3053 1.409 . S
C3051 H3043 0.930 . S
C3051 C3052 1.355 . S
C3051 C3053 1.415 . S
C3052 C3051 1.355 . S
C3052 C3054 1.419 . S
C3053 C3048 1.425 . S
C3053 C3050 1.409 . S
C3053 C3051 1.415 . S
C3054 H3044 0.930 . S
C3054 C3052 1.419 . S
C3054 C3055 1.362 . S
C3055 H3045 0.930 . S
C3055 C3048 1.409 . S
C3055 C3054 1.362 . S
H3056 C3062 0.930 . S
H3057 C3065 0.930 . S
H3058 C3066 0.930 . S
H3059 C3067 0.930 . S
H3060 C3070 0.930 . S
H3061 C3071 0.930 . S
C3062 H3056 0.930 . S
C3062 C3063 1.355 . S
C3062 C3064 1.415 . S
C3063 C3062 1.355 . S
C3063 C3065 1.419 . S
C3064 C3062 1.415 . S
C3064 C3069 1.425 . S
C3064 C3071 1.409 . S
C3065 H3057 0.930 . S
C3065 C3063 1.419 . S
C3065 C3066 1.362 . S
C3066 H3058 0.930 . S
C3066 C3065 1.362 . S
C3066 C3069 1.409 . S
C3067 H3059 0.930 . S
C3067 C3068 1.355 . S
C3067 C3069 1.415 . S
C3068 C3067 1.355 . S
C3068 C3070 1.419 . S
C3069 C3064 1.425 . S
C3069 C3066 1.409 . S
C3069 C3067 1.415 . S
C3070 H3060 0.930 . S
C3070 C3068 1.419 . S
C3070 C3071 1.362 . S
C3071 H3061 0.930 . S
C3071 C3064 1.409 . S
C3071 C3070 1.362 . S
H3072 C3078 0.930 . S
H3073 C3081 0.930 . S
H3074 C3082 0.930 . S
H3075 C3083 0.930 . S
H3076 C3086 0.930 . S
H3077 C3087 0.930 . S
C3078 H3072 0.930 . S
C3078 C3079 1.355 . S
C3078 C3080 1.415 . S
C3079 C3078 1.355 . S
C3079 C3081 1.419 . S
C3080 C3078 1.415 . S
C3080 C3085 1.425 . S
C3080 C3087 1.409 . S
C3081 H3073 0.930 . S
C3081 C3079 1.419 . S
C3081 C3082 1.362 . S
C3082 H3074 0.930 . S
C3082 C3081 1.362 . S
C3082 C3085 1.409 . S
C3083 H3075 0.930 . S
C3083 C3084 1.355 . S
C3083 C3085 1.415 . S
C3084 C3083 1.355 . S
C3084 C3086 1.419 . S
C3085 C3080 1.425 . S
C3085 C3082 1.409 . S
C3085 C3083 1.415 . S
C3086 H3076 0.930 . S
C3086 C3084 1.419 . S
C3086 C3087 1.362 . S
C3087 H3077 0.930 . S
C3087 C3080 1.409 . S
C3087 C3086 1.362 . S
H3088 C3094 0.930 . S
H3089 C3097 0.930 . S
H3090 C3098 0.930 . S
H3091 C3099 0.930 . S
H3092 C3102 0.930 . S
H3093 C3103 0.930 . S
C3094 H3088 0.930 . S
C3094 C3095 1.355 . S
C3094 C3096 1.415 . S
C3095 C3094 1.355 . S
C3095 C3097 1.419 . S
C3096 C3094 1.415 . S
C3096 C3101 1.425 . S
C3096 C3103 1.409 . S
C3097 H3089 0.930 . S
C3097 C3095 1.419 . S
C3097 C3098 1.362 . S
C3098 H3090 0.930 . S
C3098 C3097 1.362 . S
C3098 C3101 1.409 . S
C3099 H3091 0.930 . S
C3099 C3100 1.355 . S
C3099 C3101 1.415 . S
C3100 C3099 1.355 . S
C3100 C3102 1.419 . S
C3101 C3096 1.425 . S
C3101 C3098 1.409 . S
C3101 C3099 1.415 . S
C3102 H3092 0.930 . S
C3102 C3100 1.419 . S
C3102 C3103 1.362 . S
C3103 H3093 0.930 . S
C3103 C3096 1.409 . S
C3103 C3102 1.362 . S
H3104 C3110 0.930 . S
H3105 C3113 0.930 . S
H3106 C3114 0.930 . S
H3107 C3115 0.930 . S
H3108 C3118 0.930 . S
H3109 C3119 0.930 . S
C3110 H3104 0.930 . S
C3110 C3111 1.355 . S
C3110 C3112 1.415 . S
C3111 C3110 1.355 . S
C3111 C3113 1.419 . S
C3112 C3110 1.415 . S
C3112 C3117 1.425 . S
C3112 C3119 1.409 1_556 S
C3113 H3105 0.930 . S
C3113 C3111 1.419 . S
C3113 C3114 1.362 . S
C3114 H3106 0.930 . S
C3114 C3113 1.362 . S
C3114 C3117 1.409 . S
C3115 H3107 0.930 . S
C3115 C3116 1.355 . S
C3115 C3117 1.415 1_554 S
C3116 C3115 1.355 . S
C3116 C3118 1.419 . S
C3117 C3112 1.425 . S
C3117 C3114 1.409 . S
C3117 C3115 1.415 1_556 S
C3118 H3108 0.930 . S
C3118 C3116 1.419 . S
C3118 C3119 1.362 . S
C3119 H3109 0.930 . S
C3119 C3112 1.409 1_554 S
C3119 C3118 1.362 . S
H3120 C3126 0.930 . S
H3121 C3129 0.930 . S
H3122 C3130 0.930 . S
H3123 C3131 0.930 . S
H3124 C3134 0.930 . S
H3125 C3135 0.930 . S
C3126 H3120 0.930 . S
C3126 C3127 1.355 . S
C3126 C3128 1.415 . S
C3127 C3126 1.355 . S
C3127 C3129 1.419 . S
C3128 C3126 1.415 . S
C3128 C3133 1.425 . S
C3128 C3135 1.409 . S
C3129 H3121 0.930 . S
C3129 C3127 1.419 . S
C3129 C3130 1.362 . S
C3130 H3122 0.930 . S
C3130 C3129 1.362 . S
C3130 C3133 1.409 . S
C3131 H3123 0.930 . S
C3131 C3132 1.355 . S
C3131 C3133 1.415 . S
C3132 C3131 1.355 . S
C3132 C3134 1.419 . S
C3133 C3128 1.425 . S
C3133 C3130 1.409 . S
C3133 C3131 1.415 . S
C3134 H3124 0.930 . S
C3134 C3132 1.419 . S
C3134 C3135 1.362 . S
C3135 H3125 0.930 . S
C3135 C3128 1.409 . S
C3135 C3134 1.362 . S
H3136 C3142 0.930 . S
H3137 C3145 0.930 . S
H3138 C3146 0.930 . S
H3139 C3147 0.930 . S
H3140 C3150 0.930 . S
H3141 C3151 0.930 . S
C3142 H3136 0.930 . S
C3142 C3143 1.355 . S
C3142 C3144 1.415 . S
C3143 C3142 1.355 . S
C3143 C3145 1.419 . S
C3144 C3142 1.415 . S
C3144 C3149 1.425 . S
C3144 C3151 1.409 . S
C3145 H3137 0.930 . S
C3145 C3143 1.419 . S
C3145 C3146 1.362 . S
C3146 H3138 0.930 . S
C3146 C3145 1.362 . S
C3146 C3149 1.409 . S
C3147 H3139 0.930 . S
C3147 C3148 1.355 . S
C3147 C3149 1.415 1_556 S
C3148 C3147 1.355 . S
C3148 C3150 1.419 . S
C3149 C3144 1.425 . S
C3149 C3146 1.409 . S
C3149 C3147 1.415 1_554 S
C3150 H3140 0.930 . S
C3150 C3148 1.419 . S
C3150 C3151 1.362 1_556 S
C3151 H3141 0.930 . S
C3151 C3144 1.409 . S
C3151 C3150 1.362 1_554 S
H3152 C3158 0.930 . S
H3153 C3161 0.930 . S
H3154 C3162 0.930 . S
H3155 C3163 0.930 . S
H3156 C3166 0.930 . S
H3157 C3167 0.913 1_556 S
C3158 H3152 0.930 . S
C3158 C3159 1.355 . S
C3158 C3160 1.406 1_556 S
C3159 C3158 1.355 . S
C3159 C3161 1.419 . S
C3160 C3158 1.406 1_554 S
C3160 C3165 1.431 . S
C3160 C3167 1.412 . S
C3161 H3153 0.930 . S
C3161 C3159 1.419 . S
C3161 C3162 1.362 1_556 S
C3162 H3154 0.930 . S
C3162 C3161 1.362 1_554 S
C3162 C3165 1.409 . S
C3163 H3155 0.930 . S
C3163 C3164 1.355 . S
C3163 C3165 1.415 . S
C3164 C3163 1.355 . S
C3164 C3166 1.419 . S
C3165 C3160 1.431 . S
C3165 C3162 1.409 . S
C3165 C3163 1.415 . S
C3166 H3156 0.930 . S
C3166 C3164 1.419 . S
C3166 C3167 1.362 . S
C3167 H3157 0.913 1_554 S
C3167 C3160 1.412 . S
C3167 C3166 1.362 . S
H3168 C3174 0.930 . S
H3169 C3177 0.930 . S
H3170 C3178 0.930 . S
H3171 C3179 0.930 . S
H3172 C3182 0.930 . S
H3173 C3183 0.930 . S
C3174 H3168 0.930 . S
C3174 C3175 1.355 . S
C3174 C3176 1.415 . S
C3175 C3174 1.355 . S
C3175 C3177 1.419 . S
C3176 C3174 1.415 . S
C3176 C3181 1.425 . S
C3176 C3183 1.409 . S
C3177 H3169 0.930 . S
C3177 C3175 1.419 . S
C3177 C3178 1.362 . S
C3178 H3170 0.930 . S
C3178 C3177 1.362 . S
C3178 C3181 1.409 . S
C3179 H3171 0.930 . S
C3179 C3180 1.355 . S
C3179 C3181 1.415 . S
C3180 C3179 1.355 . S
C3180 C3182 1.419 . S
C3181 C3176 1.425 . S
C3181 C3178 1.409 . S
C3181 C3179 1.415 . S
C3182 H3172 0.930 . S
C3182 C3180 1.419 . S
C3182 C3183 1.362 . S
C3183 H3173 0.930 . S
C3183 C3176 1.409 . S
C3183 C3182 1.362 . S
H3184 C3190 0.930 . S
H3185 C3193 0.930 . S
H3186 C3194 0.930 . S
H3187 C3195 0.930 . S
H3188 C3198 0.930 . S
H3189 C3199 0.930 . S
C3190 H3184 0.930 . S
C3190 C3191 1.355 . S
C3190 C3192 1.415 . S
C3191 C3190 1.355 . S
C3191 C3193 1.419 . S
C3192 C3190 1.415 . S
C3192 C3197 1.425 . S
C3192 C3199 1.409 . S
C3193 H3185 0.930 . S
C3193 C3191 1.419 . S
C3193 C3194 1.362 . S
C3194 H3186 0.930 . S
C3194 C3193 1.362 . S
C3194 C3197 1.409 . S
C3195 H3187 0.930 . S
C3195 C3196 1.355 . S
C3195 C3197 1.415 . S
C3196 C3195 1.355 . S
C3196 C3198 1.419 . S
C3197 C3192 1.425 . S
C3197 C3194 1.409 . S
C3197 C3195 1.415 . S
C3198 H3188 0.930 . S
C3198 C3196 1.419 . S
C3198 C3199 1.362 . S
C3199 H3189 0.930 . S
C3199 C3192 1.409 . S
C3199 C3198 1.362 . S
H3200 C3206 0.930 . S
H3201 C3209 0.930 . S
H3202 C3210 0.930 . S
H3203 C3211 0.930 . S
H3204 C3214 0.930 . S
H3205 C3215 0.930 . S
C3206 H3200 0.930 . S
C3206 C3207 1.355 . S
C3206 C3208 1.415 . S
C3207 C3206 1.355 . S
C3207 C3209 1.419 . S
C3208 C3206 1.415 . S
C3208 C3213 1.425 . S
C3208 C3215 1.409 . S
C3209 H3201 0.930 . S
C3209 C3207 1.419 . S
C3209 C3210 1.362 . S
C3210 H3202 0.930 . S
C3210 C3209 1.362 . S
C3210 C3213 1.409 . S
C3211 H3203 0.930 . S
C3211 C3212 1.355 . S
C3211 C3213 1.415 . S
C3212 C3211 1.355 . S
C3212 C3214 1.419 . S
C3213 C3208 1.425 . S
C3213 C3210 1.409 . S
C3213 C3211 1.415 . S
C3214 H3204 0.930 . S
C3214 C3212 1.419 . S
C3214 C3215 1.362 . S
C3215 H3205 0.930 . S
C3215 C3208 1.409 . S
C3215 C3214 1.362 . S
H3216 C3222 0.930 . S
H3217 C3225 0.930 . S
H3218 C3226 0.930 . S
H3219 C3227 0.930 . S
H3220 C3230 0.930 . S
H3221 C3231 0.930 . S
C3222 H3216 0.930 . S
C3222 C3223 1.355 . S
C3222 C3224 1.415 1_545 S
C3223 C3222 1.355 . S
C3223 C3225 1.419 . S
C3224 C3222 1.415 1_565 S
C3224 C3229 1.425 1_565 S
C3224 C3231 1.409 . S
C3225 H3217 0.930 . S
C3225 C3223 1.419 . S
C3225 C3226 1.362 . S
C3226 H3218 0.930 . S
C3226 C3225 1.362 . S
C3226 C3229 1.409 . S
C3227 H3219 0.930 . S
C3227 C3228 1.355 . S
C3227 C3229 1.415 1_565 S
C3228 C3227 1.355 . S
C3228 C3230 1.419 . S
C3229 C3224 1.425 1_545 S
C3229 C3226 1.409 . S
C3229 C3227 1.415 1_545 S
C3230 H3220 0.930 . S
C3230 C3228 1.419 . S
C3230 C3231 1.362 . S
C3231 H3221 0.930 . S
C3231 C3224 1.409 . S
C3231 C3230 1.362 . S
H3232 C3238 0.930 . S
H3233 C3241 0.930 . S
H3234 C3242 0.930 . S
H3235 C3243 0.930 . S
H3236 C3246 0.930 . S
H3237 C3247 0.930 . S
C3238 H3232 0.930 . S
C3238 C3239 1.355 . S
C3238 C3240 1.415 1_554 S
C3239 C3238 1.355 . S
C3239 C3241 1.419 . S
C3240 C3238 1.415 1_556 S
C3240 C3245 1.425 1_556 S
C3240 C3247 1.409 . S
C3241 H3233 0.930 . S
C3241 C3239 1.419 . S
C3241 C3242 1.362 . S
C3242 H3234 0.930 . S
C3242 C3241 1.362 . S
C3242 C3245 1.409 . S
C3243 H3235 0.930 . S
C3243 C3244 1.355 . S
C3243 C3245 1.415 1_556 S
C3244 C3243 1.355 . S
C3244 C3246 1.419 . S
C3245 C3240 1.425 1_554 S
C3245 C3242 1.409 . S
C3245 C3243 1.415 1_554 S
C3246 H3236 0.930 . S
C3246 C3244 1.419 . S
C3246 C3247 1.362 . S
C3247 H3237 0.930 . S
C3247 C3240 1.409 . S
C3247 C3246 1.362 . S
H3248 C3254 0.930 . S
H3249 C3257 0.930 . S
H3250 C3258 0.930 . S
H3251 C3259 0.930 . S
H3252 C3262 0.930 . S
H3253 C3263 0.930 . S
C3254 H3248 0.930 . S
C3254 C3255 1.355 . S
C3254 C3256 1.415 . S
C3255 C3254 1.355 . S
C3255 C3257 1.419 . S
C3256 C3254 1.415 . S
C3256 C3261 1.425 . S
C3256 C3263 1.409 . S
C3257 H3249 0.930 . S
C3257 C3255 1.419 . S
C3257 C3258 1.362 . S
C3258 H3250 0.930 . S
C3258 C3257 1.362 . S
C3258 C3261 1.409 . S
C3259 H3251 0.930 . S
C3259 C3260 1.355 . S
C3259 C3261 1.415 . S
C3260 C3259 1.355 . S
C3260 C3262 1.419 . S
C3261 C3256 1.425 . S
C3261 C3258 1.409 . S
C3261 C3259 1.415 . S
C3262 H3252 0.930 . S
C3262 C3260 1.419 . S
C3262 C3263 1.362 . S
C3263 H3253 0.930 . S
C3263 C3256 1.409 . S
C3263 C3262 1.362 . S
H3264 C3270 0.930 1_554 S
H3265 C3273 0.930 . S
H3266 C3274 0.930 . S
H3267 C3275 0.930 1_556 S
H3268 C3278 0.930 . S
H3269 C3279 0.930 . S
C3270 H3264 0.930 1_556 S
C3270 C3271 1.355 . S
C3270 C3272 1.415 1_556 S
C3271 C3270 1.355 . S
C3271 C3273 1.419 . S
C3272 C3270 1.415 1_554 S
C3272 C3277 1.425 1_554 S
C3272 C3279 1.409 . S
C3273 H3265 0.930 . S
C3273 C3271 1.419 . S
C3273 C3274 1.362 . S
C3274 H3266 0.930 . S
C3274 C3273 1.362 . S
C3274 C3277 1.409 . S
C3275 H3267 0.930 1_554 S
C3275 C3276 1.355 . S
C3275 C3277 1.415 1_554 S
C3276 C3275 1.355 . S
C3276 C3278 1.419 . S
C3277 C3272 1.425 1_556 S
C3277 C3274 1.409 . S
C3277 C3275 1.415 1_556 S
C3278 H3268 0.930 . S
C3278 C3276 1.419 . S
C3278 C3279 1.362 . S
C3279 H3269 0.930 . S
C3279 C3272 1.409 . S
C3279 C3278 1.362 . S
H3280 C3286 0.930 . S
H3281 C3289 0.930 . S
H3282 C3290 0.930 . S
H3283 C3291 0.930 . S
H3284 C3294 0.930 . S
H3285 C3295 0.930 . S
C3286 H3280 0.930 . S
C3286 C3287 1.355 . S
C3286 C3288 1.415 . S
C3287 C3286 1.355 . S
C3287 C3289 1.419 . S
C3288 C3286 1.415 . S
C3288 C3293 1.425 1_545 S
C3288 C3295 1.409 . S
C3289 H3281 0.930 . S
C3289 C3287 1.419 . S
C3289 C3290 1.362 1_545 S
C3290 H3282 0.930 . S
C3290 C3289 1.362 1_565 S
C3290 C3293 1.409 . S
C3291 H3283 0.930 . S
C3291 C3292 1.355 . S
C3291 C3293 1.415 . S
C3292 C3291 1.355 . S
C3292 C3294 1.419 . S
C3293 C3288 1.425 1_565 S
C3293 C3290 1.409 . S
C3293 C3291 1.415 . S
C3294 H3284 0.930 . S
C3294 C3292 1.419 . S
C3294 C3295 1.362 1_565 S
C3295 H3285 0.930 . S
C3295 C3288 1.409 . S
C3295 C3294 1.362 1_545 S
H3296 C3302 0.930 . S
H3297 C3305 0.930 . S
H3298 C3306 0.930 . S
H3299 C3307 0.930 . S
H3300 C3310 0.930 . S
H3301 C3311 0.930 . S
C3302 H3296 0.930 . S
C3302 C3303 1.355 . S
C3302 C3304 1.415 . S
C3303 C3302 1.355 . S
C3303 C3305 1.419 . S
C3304 C3302 1.415 . S
C3304 C3309 1.425 . S
C3304 C3311 1.409 . S
C3305 H3297 0.930 . S
C3305 C3303 1.419 . S
C3305 C3306 1.362 . S
C3306 H3298 0.930 . S
C3306 C3305 1.362 . S
C3306 C3309 1.409 . S
C3307 H3299 0.930 . S
C3307 C3308 1.355 . S
C3307 C3309 1.415 . S
C3308 C3307 1.355 . S
C3308 C3310 1.419 . S
C3309 C3304 1.425 . S
C3309 C3306 1.409 . S
C3309 C3307 1.415 . S
C3310 H3300 0.930 . S
C3310 C3308 1.419 . S
C3310 C3311 1.362 . S
C3311 H3301 0.930 . S
C3311 C3304 1.409 . S
C3311 C3310 1.362 . S
H3312 C3318 0.930 . S
H3313 C3321 0.930 . S
H3314 C3322 0.930 . S
H3315 C3323 0.930 . S
H3316 C3326 0.930 . S
H3317 C3327 0.930 . S
C3318 H3312 0.930 . S
C3318 C3319 1.355 . S
C3318 C3320 1.415 . S
C3319 C3318 1.355 . S
C3319 C3321 1.419 . S
C3320 C3318 1.415 . S
C3320 C3325 1.425 . S
C3320 C3327 1.409 . S
C3321 H3313 0.930 . S
C3321 C3319 1.419 . S
C3321 C3322 1.362 . S
C3322 H3314 0.930 . S
C3322 C3321 1.362 . S
C3322 C3325 1.409 . S
C3323 H3315 0.930 . S
C3323 C3324 1.355 . S
C3323 C3325 1.415 . S
C3324 C3323 1.355 . S
C3324 C3326 1.419 . S
C3325 C3320 1.425 . S
C3325 C3322 1.409 . S
C3325 C3323 1.415 . S
C3326 H3316 0.930 . S
C3326 C3324 1.419 . S
C3326 C3327 1.362 . S
C3327 H3317 0.930 . S
C3327 C3320 1.409 . S
C3327 C3326 1.362 . S
H3328 C3334 0.930 . S
H3329 C3337 0.930 . S
H3330 C3338 0.930 . S
H3331 C3339 0.930 . S
H3332 C3342 0.930 . S
H3333 C3343 0.930 . S
C3334 H3328 0.930 . S
C3334 C3335 1.355 . S
C3334 C3336 1.415 . S
C3335 C3334 1.355 . S
C3335 C3337 1.419 . S
C3336 C3334 1.415 . S
C3336 C3341 1.425 . S
C3336 C3343 1.409 . S
C3337 H3329 0.930 . S
C3337 C3335 1.419 . S
C3337 C3338 1.362 . S
C3338 H3330 0.930 . S
C3338 C3337 1.362 . S
C3338 C3341 1.409 . S
C3339 H3331 0.930 . S
C3339 C3340 1.355 . S
C3339 C3341 1.415 . S
C3340 C3339 1.355 . S
C3340 C3342 1.419 . S
C3341 C3336 1.425 . S
C3341 C3338 1.409 . S
C3341 C3339 1.415 . S
C3342 H3332 0.930 . S
C3342 C3340 1.419 . S
C3342 C3343 1.362 . S
C3343 H3333 0.930 . S
C3343 C3336 1.409 . S
C3343 C3342 1.362 . S
H3344 C3350 0.930 . S
H3345 C3353 0.930 . S
H3346 C3354 0.930 1_554 S
H3347 C3355 0.930 . S
H3348 C3358 0.930 . S
H3349 C3359 0.930 . S
C3350 H3344 0.930 . S
C3350 C3351 1.355 . S
C3350 C3352 1.415 . S
C3351 C3350 1.355 . S
C3351 C3353 1.419 . S
C3352 C3350 1.415 . S
C3352 C3357 1.425 1_455 S
C3352 C3359 1.409 1_455 S
C3353 H3345 0.930 . S
C3353 C3351 1.419 . S
C3353 C3354 1.362 . S
C3354 H3346 0.930 1_556 S
C3354 C3353 1.362 . S
C3354 C3357 1.409 1_455 S
C3355 H3347 0.930 . S
C3355 C3356 1.355 . S
C3355 C3357 1.415 . S
C3356 C3355 1.355 . S
C3356 C3358 1.419 . S
C3357 C3352 1.425 1_655 S
C3357 C3354 1.409 1_655 S
C3357 C3355 1.415 . S
C3358 H3348 0.930 . S
C3358 C3356 1.419 . S
C3358 C3359 1.362 . S
C3359 H3349 0.930 . S
C3359 C3352 1.409 1_655 S
C3359 C3358 1.362 . S
H3360 C3366 0.930 . S
H3361 C3369 0.930 . S
H3362 C3370 0.930 . S
H3363 C3371 0.930 . S
H3364 C3374 0.930 . S
H3365 C3375 0.930 . S
C3366 H3360 0.930 . S
C3366 C3367 1.355 . S
C3366 C3368 1.415 . S
C3367 C3366 1.355 . S
C3367 C3369 1.419 . S
C3368 C3366 1.415 . S
C3368 C3373 1.425 . S
C3368 C3375 1.409 . S
C3369 H3361 0.930 . S
C3369 C3367 1.419 . S
C3369 C3370 1.362 . S
C3370 H3362 0.930 . S
C3370 C3369 1.362 . S
C3370 C3373 1.409 . S
C3371 H3363 0.930 . S
C3371 C3372 1.355 . S
C3371 C3373 1.415 . S
C3372 C3371 1.355 . S
C3372 C3374 1.419 . S
C3373 C3368 1.425 . S
C3373 C3370 1.409 . S
C3373 C3371 1.415 . S
C3374 H3364 0.930 . S
C3374 C3372 1.419 . S
C3374 C3375 1.362 . S
C3375 H3365 0.930 . S
C3375 C3368 1.409 . S
C3375 C3374 1.362 . S
H3376 C3382 0.930 . S
H3377 C3385 0.930 . S
H3378 C3386 0.930 . S
H3379 C3387 0.930 . S
H3380 C3390 0.930 . S
H3381 C3391 0.930 . S
C3382 H3376 0.930 . S
C3382 C3383 1.355 . S
C3382 C3384 1.415 . S
C3383 C3382 1.355 . S
C3383 C3385 1.419 . S
C3384 C3382 1.415 . S
C3384 C3389 1.425 1_554 S
C3384 C3391 1.409 . S
C3385 H3377 0.930 . S
C3385 C3383 1.419 . S
C3385 C3386 1.362 1_554 S
C3386 H3378 0.930 . S
C3386 C3385 1.362 1_556 S
C3386 C3389 1.409 . S
C3387 H3379 0.930 . S
C3387 C3388 1.355 . S
C3387 C3389 1.415 . S
C3388 C3387 1.355 . S
C3388 C3390 1.419 . S
C3389 C3384 1.425 1_556 S
C3389 C3386 1.409 . S
C3389 C3387 1.415 . S
C3390 H3380 0.930 . S
C3390 C3388 1.419 . S
C3390 C3391 1.362 1_556 S
C3391 H3381 0.930 . S
C3391 C3384 1.409 . S
C3391 C3390 1.362 1_554 S
H3392 C3398 0.930 . S
H3393 C3401 0.930 . S
H3394 C3402 0.930 . S
H3395 C3403 0.930 . S
H3396 C3406 0.930 . S
H3397 C3407 0.930 . S
C3398 H3392 0.930 . S
C3398 C3399 1.355 . S
C3398 C3400 1.415 . S
C3399 C3398 1.355 . S
C3399 C3401 1.419 . S
C3400 C3398 1.415 . S
C3400 C3405 1.425 1_545 S
C3400 C3407 1.409 . S
C3401 H3393 0.930 . S
C3401 C3399 1.419 . S
C3401 C3402 1.362 1_545 S
C3402 H3394 0.930 . S
C3402 C3401 1.362 1_565 S
C3402 C3405 1.409 . S
C3403 H3395 0.930 . S
C3403 C3404 1.355 . S
C3403 C3405 1.415 . S
C3404 C3403 1.355 . S
C3404 C3406 1.419 . S
C3405 C3400 1.425 1_565 S
C3405 C3402 1.409 . S
C3405 C3403 1.415 . S
C3406 H3396 0.930 . S
C3406 C3404 1.419 . S
C3406 C3407 1.362 1_565 S
C3407 H3397 0.930 . S
C3407 C3400 1.409 . S
C3407 C3406 1.362 1_545 S
H3408 C3414 0.930 . S
H3409 C3417 0.930 . S
H3410 C3418 0.930 . S
H3411 C3419 0.930 . S
H3412 C3422 0.930 . S
H3413 C3423 0.930 . S
C3414 H3408 0.930 . S
C3414 C3415 1.355 . S
C3414 C3416 1.415 . S
C3415 C3414 1.355 . S
C3415 C3417 1.419 . S
C3416 C3414 1.415 . S
C3416 C3421 1.425 . S
C3416 C3423 1.409 . S
C3417 H3409 0.930 . S
C3417 C3415 1.419 . S
C3417 C3418 1.362 . S
C3418 H3410 0.930 . S
C3418 C3417 1.362 . S
C3418 C3421 1.409 . S
C3419 H3411 0.930 . S
C3419 C3420 1.355 . S
C3419 C3421 1.415 . S
C3420 C3419 1.355 . S
C3420 C3422 1.419 . S
C3421 C3416 1.425 . S
C3421 C3418 1.409 . S
C3421 C3419 1.415 . S
C3422 H3412 0.930 . S
C3422 C3420 1.419 . S
C3422 C3423 1.362 . S
C3423 H3413 0.930 . S
C3423 C3416 1.409 . S
C3423 C3422 1.362 . S
H3424 C3430 0.930 . S
H3425 C3433 0.930 . S
H3426 C3434 0.930 . S
H3427 C3435 0.930 . S
H3428 C3438 0.930 . S
H3429 C3439 0.930 . S
C3430 H3424 0.930 . S
C3430 C3431 1.355 . S
C3430 C3432 1.415 . S
C3431 C3430 1.355 . S
C3431 C3433 1.419 . S
C3432 C3430 1.415 . S
C3432 C3437 1.425 . S
C3432 C3439 1.409 . S
C3433 H3425 0.930 . S
C3433 C3431 1.419 . S
C3433 C3434 1.362 . S
C3434 H3426 0.930 . S
C3434 C3433 1.362 . S
C3434 C3437 1.409 . S
C3435 H3427 0.930 . S
C3435 C3436 1.355 . S
C3435 C3437 1.415 . S
C3436 C3435 1.355 . S
C3436 C3438 1.419 . S
C3437 C3432 1.425 . S
C3437 C3434 1.409 . S
C3437 C3435 1.415 . S
C3438 H3428 0.930 . S
C3438 C3436 1.419 . S
C3438 C3439 1.362 . S
C3439 H3429 0.930 . S
C3439 C3432 1.409 . S
C3439 C3438 1.362 . S
H3440 C3446 0.930 . S
H3441 C3449 0.930 . S
H3442 C3450 0.930 . S
H3443 C3451 0.930 . S
H3444 C3454 0.930 . S
H3445 C3455 0.930 . S
C3446 H3440 0.930 . S
C3446 C3447 1.355 . S
C3446 C3448 1.415 . S
C3447 C3446 1.355 . S
C3447 C3449 1.419 . S
C3448 C3446 1.415 . S
C3448 C3453 1.425 . S
C3448 C3455 1.409 . S
C3449 H3441 0.930 . S
C3449 C3447 1.419 . S
C3449 C3450 1.362 . S
C3450 H3442 0.930 . S
C3450 C3449 1.362 . S
C3450 C3453 1.409 . S
C3451 H3443 0.930 . S
C3451 C3452 1.355 . S
C3451 C3453 1.415 . S
C3452 C3451 1.355 . S
C3452 C3454 1.419 . S
C3453 C3448 1.425 . S
C3453 C3450 1.409 . S
C3453 C3451 1.415 . S
C3454 H3444 0.930 . S
C3454 C3452 1.419 . S
C3454 C3455 1.362 . S
C3455 H3445 0.930 . S
C3455 C3448 1.409 . S
C3455 C3454 1.362 . S
H3456 C3462 0.930 1_655 S
H3457 C3465 0.930 . S
H3458 C3466 0.930 . S
H3459 C3467 0.930 1_455 S
H3460 C3470 0.930 . S
H3461 C3471 0.930 . S
C3462 H3456 0.930 1_455 S
C3462 C3463 1.355 . S
C3462 C3464 1.415 1_455 S
C3463 C3462 1.355 . S
C3463 C3465 1.419 . S
C3464 C3462 1.415 1_655 S
C3464 C3469 1.425 1_655 S
C3464 C3471 1.409 . S
C3465 H3457 0.930 . S
C3465 C3463 1.419 . S
C3465 C3466 1.362 . S
C3466 H3458 0.930 . S
C3466 C3465 1.362 . S
C3466 C3469 1.409 . S
C3467 H3459 0.930 1_655 S
C3467 C3468 1.355 . S
C3467 C3469 1.415 1_655 S
C3468 C3467 1.355 . S
C3468 C3470 1.419 . S
C3469 C3464 1.425 1_455 S
C3469 C3466 1.409 . S
C3469 C3467 1.415 1_455 S
C3470 H3460 0.930 . S
C3470 C3468 1.419 . S
C3470 C3471 1.362 . S
C3471 H3461 0.930 . S
C3471 C3464 1.409 . S
C3471 C3470 1.362 . S
H3472 C3478 0.930 . S
H3473 C3481 0.930 . S
H3474 C3482 0.930 . S
H3475 C3483 0.930 . S
H3476 C3486 0.930 . S
H3477 C3487 0.930 . S
C3478 H3472 0.930 . S
C3478 C3479 1.355 . S
C3478 C3480 1.415 1_455 S
C3479 C3478 1.355 . S
C3479 C3481 1.419 . S
C3480 C3478 1.415 1_655 S
C3480 C3485 1.425 1_655 S
C3480 C3487 1.409 . S
C3481 H3473 0.930 . S
C3481 C3479 1.419 . S
C3481 C3482 1.362 . S
C3482 H3474 0.930 . S
C3482 C3481 1.362 . S
C3482 C3485 1.409 . S
C3483 H3475 0.930 . S
C3483 C3484 1.355 . S
C3483 C3485 1.415 1_655 S
C3484 C3483 1.355 . S
C3484 C3486 1.419 . S
C3485 C3480 1.425 1_455 S
C3485 C3482 1.409 . S
C3485 C3483 1.415 1_455 S
C3486 H3476 0.930 . S
C3486 C3484 1.419 . S
C3486 C3487 1.362 . S
C3487 H3477 0.930 . S
C3487 C3480 1.409 . S
C3487 C3486 1.362 . S
H3488 C3494 0.929 1_655 S
H3489 C3497 0.930 . S
H3490 C3498 0.930 . S
H3491 C3499 0.929 1_455 S
H3492 C3502 0.930 . S
H3493 C3503 0.930 . S
C3494 H3488 0.929 1_455 S
C3494 C3495 1.355 . S
C3494 C3496 1.415 1_455 S
C3495 C3494 1.355 . S
C3495 C3497 1.419 . S
C3496 C3494 1.415 1_655 S
C3496 C3501 1.425 1_655 S
C3496 C3503 1.409 . S
C3497 H3489 0.930 . S
C3497 C3495 1.419 . S
C3497 C3498 1.362 . S
C3498 H3490 0.930 . S
C3498 C3497 1.362 . S
C3498 C3501 1.409 . S
C3499 H3491 0.929 1_655 S
C3499 C3500 1.355 . S
C3499 C3501 1.415 1_655 S
C3500 C3499 1.355 . S
C3500 C3502 1.419 . S
C3501 C3496 1.425 1_455 S
C3501 C3498 1.409 . S
C3501 C3499 1.415 1_455 S
C3502 H3492 0.930 . S
C3502 C3500 1.419 . S
C3502 C3503 1.362 . S
C3503 H3493 0.930 . S
C3503 C3496 1.409 . S
C3503 C3502 1.362 . S
H3504 C3510 0.930 . S
H3505 C3513 0.930 . S
H3506 C3514 0.930 . S
H3507 C3515 0.930 . S
H3508 C3518 0.930 . S
H3509 C3519 0.930 . S
C3510 H3504 0.930 . S
C3510 C3511 1.355 . S
C3510 C3512 1.415 . S
C3511 C3510 1.355 . S
C3511 C3513 1.419 . S
C3512 C3510 1.415 . S
C3512 C3517 1.425 . S
C3512 C3519 1.409 . S
C3513 H3505 0.930 . S
C3513 C3511 1.419 . S
C3513 C3514 1.362 . S
C3514 H3506 0.930 . S
C3514 C3513 1.362 . S
C3514 C3517 1.409 . S
C3515 H3507 0.930 . S
C3515 C3516 1.355 . S
C3515 C3517 1.415 . S
C3516 C3515 1.355 . S
C3516 C3518 1.419 . S
C3517 C3512 1.425 . S
C3517 C3514 1.409 . S
C3517 C3515 1.415 . S
C3518 H3508 0.930 . S
C3518 C3516 1.419 . S
C3518 C3519 1.362 . S
C3519 H3509 0.930 . S
C3519 C3512 1.409 . S
C3519 C3518 1.362 . S
H3520 C3526 0.930 . S
H3521 C3529 0.930 . S
H3522 C3530 0.930 . S
H3523 C3531 0.930 . S
H3524 C3534 0.930 . S
H3525 C3535 0.930 . S
C3526 H3520 0.930 . S
C3526 C3527 1.355 . S
C3526 C3528 1.415 1_565 S
C3527 C3526 1.355 . S
C3527 C3529 1.419 . S
C3528 C3526 1.415 1_545 S
C3528 C3533 1.425 1_545 S
C3528 C3535 1.409 . S
C3529 H3521 0.930 . S
C3529 C3527 1.419 . S
C3529 C3530 1.362 . S
C3530 H3522 0.930 . S
C3530 C3529 1.362 . S
C3530 C3533 1.409 . S
C3531 H3523 0.930 . S
C3531 C3532 1.355 . S
C3531 C3533 1.415 1_545 S
C3532 C3531 1.355 . S
C3532 C3534 1.419 . S
C3533 C3528 1.425 1_565 S
C3533 C3530 1.409 . S
C3533 C3531 1.415 1_565 S
C3534 H3524 0.930 . S
C3534 C3532 1.419 . S
C3534 C3535 1.362 . S
C3535 H3525 0.930 . S
C3535 C3528 1.409 . S
C3535 C3534 1.362 . S
H3536 C3542 0.930 . S
H3537 C3545 0.930 . S
H3538 C3546 0.930 . S
H3539 C3547 0.930 . S
H3540 C3550 0.930 . S
H3541 C3551 0.930 . S
C3542 H3536 0.930 . S
C3542 C3543 1.355 . S
C3542 C3544 1.415 1_554 S
C3543 C3542 1.355 . S
C3543 C3545 1.419 . S
C3544 C3542 1.415 1_556 S
C3544 C3549 1.425 1_556 S
C3544 C3551 1.409 . S
C3545 H3537 0.930 . S
C3545 C3543 1.419 . S
C3545 C3546 1.362 . S
C3546 H3538 0.930 . S
C3546 C3545 1.362 . S
C3546 C3549 1.409 . S
C3547 H3539 0.930 . S
C3547 C3548 1.355 . S
C3547 C3549 1.415 1_556 S
C3548 C3547 1.355 . S
C3548 C3550 1.419 . S
C3549 C3544 1.425 1_554 S
C3549 C3546 1.409 . S
C3549 C3547 1.415 1_554 S
C3550 H3540 0.930 . S
C3550 C3548 1.419 . S
C3550 C3551 1.362 . S
C3551 H3541 0.930 . S
C3551 C3544 1.409 . S
C3551 C3550 1.362 . S
C1639 C927 1.280 . S
C1644 C20 1.355 . S
C1655 C54 1.339 . S
C1660 C825 1.349 . S
C1671 C88 1.350 . S
C1676 C859 1.346 . S
C1687 C893 1.297 . S
C1692 C122 1.328 . S
C1703 C156 1.359 . S
C1708 C179 1.331 . S
C1719 C213 1.276 . S
C1724 C190 1.349 . S
C1735 C247 1.299 . S
C1740 C224 1.328 . S
C1751 C258 1.326 . S
C1756 C145 1.327 . S
C1767 C292 1.345 . S
C1772 C1437 1.349 . S
C1783 C326 1.360 . S
C1788 C1471 1.329 . S
C1799 C360 1.358 . S
C1804 C689 1.335 . S
C1815 C1403 1.322 . S
C1820 C394 1.325 . S
C1831 C1573 1.277 . S
C1836 C428 1.341 . S
C1847 C553 1.283 . S
C1852 C462 1.356 . S
C1863 C496 1.347 . S
C1868 C1607 1.348 . S
C1879 C530 1.326 . S
C1884 C1539 1.326 . S
C1895 C315 1.275 . S
C1900 C564 1.346 . S
C1911 C1335 1.335 . S
C1916 C598 1.357 . S
C1927 C1233 1.298 . S
C1932 C632 1.362 . S
C1943 C1267 1.305 . S
C1948 C666 1.326 . S
C1959 C700 1.326 . S
C1964 C485 1.303 . S
C1975 C734 1.362 . S
C1980 C1199 1.312 . S
C1991 C1097 1.285 . S
C1996 C768 1.358 . S
C2007 C802 1.360 . S
C2012 C1165 1.330 . S
C2023 C836 1.330 . S
C2028 C111 1.291 . S
C2039 C870 1.358 . S
C2044 C9 1.335 . S
C2055 C43 1.277 . S
C2060 C904 1.340 . S
C2071 C77 1.349 . S
C2076 C938 1.345 . S
C2087 C995 1.349 . S
C2092 C972 1.338 . S
C2103 C1029 1.299 . S
C2108 C1006 1.362 . S
C2119 C1040 1.359 . S
C2124 C1063 1.288 . S
C2135 C1074 1.325 . S
C2140 C961 1.315 . S
C2151 C1108 1.362 . S
C2156 C621 1.305 . S
C2167 C655 1.296 . S
C2172 C1142 1.328 . S
C2183 C1505 1.339 . S
C2188 C1176 1.329 . S
C2199 C1210 1.355 . S
C2204 C587 1.339 . S
C2215 C757 1.348 . S
C2220 C1244 1.347 . S
C2231 C1278 1.333 . S
C2236 C1369 1.345 . S
C2247 C1312 1.328 . S
C2252 C791 1.295 . S
C2263 C723 1.276 . S
C2268 C1346 1.349 . S
C2279 C1131 1.300 . S
C2284 C1380 1.327 . S
C2295 C519 1.277 . S
C2300 C1414 1.341 . S
C2311 C1448 1.347 . S
C2316 C417 1.276 . S
C2327 C451 1.333 . S
C2332 C1482 1.327 . S
C2343 C1516 1.342 . S
C2348 C1301 1.277 . S
C2359 C1550 1.361 . S
C2364 C383 1.326 . S
C2375 C281 1.289 . S
C2380 C1584 1.331 . S
C2391 C349 1.346 . S
C2396 C1618 1.334 . S
C2407 C1430 1.061 . S
C2412 C33 1.015 . S
C2423 C1464 1.004 . S
C2428 C67 0.977 . S
C2439 C682 1.019 . S
C2444 C101 0.964 . S
C2455 C1396 1.000 . S
C2460 C135 1.055 . S
C2471 C169 1.061 . S
C2476 C1566 1.026 . S
C2487 C546 1.002 . S
C2492 C203 1.057 . S
C2503 C1600 1.059 . S
C2508 C237 1.027 . S
C2519 C271 1.046 . S
C2524 C1532 1.048 . S
C2535 C305 1.062 . S
C2540 C308 1.013 . S
C2551 C342 0.999 . S
C2556 C339 1.054 . S
C2567 C376 1.062 . S
C2572 C373 1.004 . S
C2583 C274 0.987 . S
C2588 C407 1.029 . S
C2599 C1328 1.054 . S
C2604 C441 1.036 . S
C2615 C1226 1.003 . S
C2620 C475 0.978 . S
C2631 C1260 0.997 . S
C2636 C509 0.985 . S
C2647 C543 1.023 . S
C2652 C1294 0.987 . S
C2663 C920 1.002 . S
C2668 C577 1.057 . S
C2679 C611 1.020 . S
C2684 C172 1.061 . S
C2695 C206 1.059 . S
C2700 C645 1.025 . S
C2711 C240 1.037 . S
C2716 C679 1.056 . S
C2727 C713 0.991 . S
C2732 C954 1.061 . S
C2743 C36 1.048 . S
C2748 C747 0.967 . S
C2759 C781 1.052 . S
C2764 C70 0.997 . S
C2775 C815 1.041 . S
C2780 C2 0.990 . S
C2791 C614 0.987 . S
C2796 C849 1.014 . S
C2807 C648 1.059 . S
C2812 C883 1.026 . S
C2823 C917 0.986 . S
C2828 C1498 0.997 . S
C2839 C951 0.975 . S
C2844 C580 1.005 . S
C2855 C750 1.062 . S
C2860 C985 1.007 . S
C2871 C1362 0.988 . S
C2876 C1019 1.008 . S
C2887 C784 1.055 . S
C2892 C1053 1.035 . S
C2903 C1087 1.025 . S
C2908 C716 0.987 . S
C2919 C1121 1.012 . S
C2924 C1124 1.062 . S
C2935 C1158 1.034 . S
C2940 C1155 1.058 . S
C2951 C1189 1.062 . S
C2956 C1192 1.019 . S
C2967 C1223 0.988 . S
C2972 C1090 0.996 . S
C2983 C1257 0.961 . S
C2988 C512 1.031 . S
C2999 C410 1.056 . S
C3004 C1291 0.976 . S
C3015 C444 1.061 . S
C3020 C1325 1.019 . S
C3031 C478 0.999 . S
C3036 C1359 0.982 . S
C3047 C104 0.991 . S
C3052 C1393 1.044 . S
C3063 C988 1.041 . S
C3068 C1427 0.962 . S
C3079 C1461 1.019 . S
C3084 C1022 0.987 . S
C3095 C1495 0.981 . S
C3100 C1056 1.058 . S
C3111 C1529 0.979 . S
C3116 C138 1.057 . S
C3127 C1563 1.057 . S
C3132 C852 1.035 . S
C3143 C1597 1.051 . S
C3148 C886 0.996 . S
C3159 C818 1.014 . S
C3164 C1631 0.967 . S
C3175 C5 0.848 . S
C3180 C1025 0.842 . S
C3191 C39 0.830 . S
C3196 C1059 0.912 . S
C3207 C957 0.888 . S
C3212 C73 0.918 . S
C3223 C991 0.839 . S
C3228 C107 0.851 . S
C3239 C141 0.924 . S
C3244 C889 0.848 . S
C3255 C923 0.886 . S
C3260 C175 0.919 . S
C3271 C821 0.923 . S
C3276 C209 0.876 . S
C3287 C855 0.914 . S
C3292 C243 0.895 . S
C3303 C277 0.827 . S
C3308 C345 0.872 . S
C3319 C311 0.862 . S
C3324 C379 0.925 . S
C3335 C481 0.913 . S
C3340 C413 0.897 . S
C3351 C447 0.924 . S
C3356 C515 0.848 . S
C3367 C549 0.909 . S
C3372 C583 0.828 . S
C3383 C1603 0.860 . S
C3388 C617 0.925 . S
C3399 C1535 0.823 . S
C3404 C651 0.896 . S
C3415 C685 0.861 . S
C3420 C753 0.832 . S
C3431 C719 0.893 . S
C3436 C1467 0.823 . S
C3447 C787 0.888 . S
C3452 C1433 0.919 . S
C3463 C1161 0.913 . S
C3468 C1093 0.897 . S
C3479 C1195 0.856 . S
C3484 C1127 0.836 . S
C3495 C1297 0.905 . S
C3500 C1229 0.907 . S
C3511 C1331 0.829 . S
C3516 C1263 0.867 . S
C3527 C1365 0.899 . S
C3532 C1399 0.912 . S
C3543 C1569 0.833 . S
C3548 C1501 0.860 . S
