# Generated by pormake.
# Topology wmt, (6)-cn, num edge types: 1
# Building blocks:
#     Node 0, Type 0, BuildingBlock: BETFEN_clean_sbu_0, # of connection points: 6
#     Node 1, Type 0, BuildingBlock: BETFEN_clean_sbu_0, # of connection points: 6
#     Node 2, Type 0, BuildingBlock: BETFEN_clean_sbu_0, # of connection points: 6
#     Node 3, Type 0, BuildingBlock: BETFEN_clean_sbu_0, # of connection points: 6
#     Node 4, Type 0, BuildingBlock: BETFEN_clean_sbu_0, # of connection points: 6
#     Node 5, Type 0, BuildingBlock: BETFEN_clean_sbu_0, # of connection points: 6
#     Node 6, Type 0, BuildingBlock: BETFEN_clean_sbu_0, # of connection points: 6
#     Node 7, Type 0, BuildingBlock: BETFEN_clean_sbu_0, # of connection points: 6
#     Node 8, Type 0, BuildingBlock: BETFEN_clean_sbu_0, # of connection points: 6
#     Node 9, Type 0, BuildingBlock: BETFEN_clean_sbu_0, # of connection points: 6
#     Node 10, Type 0, BuildingBlock: BETFEN_clean_sbu_0, # of connection points: 6
#     Node 11, Type 0, BuildingBlock: BETFEN_clean_sbu_0, # of connection points: 6
#     Node 12, Type 0, BuildingBlock: BETFEN_clean_sbu_0, # of connection points: 6
#     Node 13, Type 0, BuildingBlock: BETFEN_clean_sbu_0, # of connection points: 6
#     Node 14, Type 0, BuildingBlock: BETFEN_clean_sbu_0, # of connection points: 6
#     Node 15, Type 0, BuildingBlock: BETFEN_clean_sbu_0, # of connection points: 6
#     Node 16, Type 0, BuildingBlock: BETFEN_clean_sbu_0, # of connection points: 6
#     Node 17, Type 0, BuildingBlock: BETFEN_clean_sbu_0, # of connection points: 6
#     Node 18, Type 0, BuildingBlock: BETFEN_clean_sbu_0, # of connection points: 6
#     Node 19, Type 0, BuildingBlock: BETFEN_clean_sbu_0, # of connection points: 6
#     Node 20, Type 0, BuildingBlock: BETFEN_clean_sbu_0, # of connection points: 6
#     Node 21, Type 0, BuildingBlock: BETFEN_clean_sbu_0, # of connection points: 6
#     Node 22, Type 0, BuildingBlock: BETFEN_clean_sbu_0, # of connection points: 6
#     Node 23, Type 0, BuildingBlock: BETFEN_clean_sbu_0, # of connection points: 6
#     Node 24, Type 0, BuildingBlock: BETFEN_clean_sbu_0, # of connection points: 6
#     Node 25, Type 0, BuildingBlock: BETFEN_clean_sbu_0, # of connection points: 6
#     Node 26, Type 0, BuildingBlock: BETFEN_clean_sbu_0, # of connection points: 6
#     Node 27, Type 0, BuildingBlock: BETFEN_clean_sbu_0, # of connection points: 6
#     Node 28, Type 0, BuildingBlock: BETFEN_clean_sbu_0, # of connection points: 6
#     Node 29, Type 0, BuildingBlock: BETFEN_clean_sbu_0, # of connection points: 6
#     Node 30, Type 0, BuildingBlock: BETFEN_clean_sbu_0, # of connection points: 6
#     Node 31, Type 0, BuildingBlock: BETFEN_clean_sbu_0, # of connection points: 6
#     Node 32, Type 0, BuildingBlock: BETFEN_clean_sbu_0, # of connection points: 6
#     Node 33, Type 0, BuildingBlock: BETFEN_clean_sbu_0, # of connection points: 6
#     Node 34, Type 0, BuildingBlock: BETFEN_clean_sbu_0, # of connection points: 6
#     Node 35, Type 0, BuildingBlock: BETFEN_clean_sbu_0, # of connection points: 6
#     Edge 36, Type (0, 0), BuildingBlock: KIFKEQ_clean_linker_1, # of connection points: 2
#     Edge 37, Type (0, 0), BuildingBlock: KIFKEQ_clean_linker_1, # of connection points: 2
#     Edge 38, Type (0, 0), BuildingBlock: KIFKEQ_clean_linker_1, # of connection points: 2
#     Edge 39, Type (0, 0), BuildingBlock: KIFKEQ_clean_linker_1, # of connection points: 2
#     Edge 40, Type (0, 0), BuildingBlock: KIFKEQ_clean_linker_1, # of connection points: 2
#     Edge 41, Type (0, 0), BuildingBlock: KIFKEQ_clean_linker_1, # of connection points: 2
#     Edge 42, Type (0, 0), BuildingBlock: KIFKEQ_clean_linker_1, # of connection points: 2
#     Edge 43, Type (0, 0), BuildingBlock: KIFKEQ_clean_linker_1, # of connection points: 2
#     Edge 44, Type (0, 0), BuildingBlock: KIFKEQ_clean_linker_1, # of connection points: 2
#     Edge 45, Type (0, 0), BuildingBlock: KIFKEQ_clean_linker_1, # of connection points: 2
#     Edge 46, Type (0, 0), BuildingBlock: KIFKEQ_clean_linker_1, # of connection points: 2
#     Edge 47, Type (0, 0), BuildingBlock: KIFKEQ_clean_linker_1, # of connection points: 2
#     Edge 48, Type (0, 0), BuildingBlock: KIFKEQ_clean_linker_1, # of connection points: 2
#     Edge 49, Type (0, 0), BuildingBlock: KIFKEQ_clean_linker_1, # of connection points: 2
#     Edge 50, Type (0, 0), BuildingBlock: KIFKEQ_clean_linker_1, # of connection points: 2
#     Edge 51, Type (0, 0), BuildingBlock: KIFKEQ_clean_linker_1, # of connection points: 2
#     Edge 52, Type (0, 0), BuildingBlock: KIFKEQ_clean_linker_1, # of connection points: 2
#     Edge 53, Type (0, 0), BuildingBlock: KIFKEQ_clean_linker_1, # of connection points: 2
#     Edge 54, Type (0, 0), BuildingBlock: KIFKEQ_clean_linker_1, # of connection points: 2
#     Edge 55, Type (0, 0), BuildingBlock: KIFKEQ_clean_linker_1, # of connection points: 2
#     Edge 56, Type (0, 0), BuildingBlock: KIFKEQ_clean_linker_1, # of connection points: 2
#     Edge 57, Type (0, 0), BuildingBlock: KIFKEQ_clean_linker_1, # of connection points: 2
#     Edge 58, Type (0, 0), BuildingBlock: KIFKEQ_clean_linker_1, # of connection points: 2
#     Edge 59, Type (0, 0), BuildingBlock: KIFKEQ_clean_linker_1, # of connection points: 2
#     Edge 60, Type (0, 0), BuildingBlock: KIFKEQ_clean_linker_1, # of connection points: 2
#     Edge 61, Type (0, 0), BuildingBlock: KIFKEQ_clean_linker_1, # of connection points: 2
#     Edge 62, Type (0, 0), BuildingBlock: KIFKEQ_clean_linker_1, # of connection points: 2
#     Edge 63, Type (0, 0), BuildingBlock: KIFKEQ_clean_linker_1, # of connection points: 2
#     Edge 64, Type (0, 0), BuildingBlock: KIFKEQ_clean_linker_1, # of connection points: 2
#     Edge 65, Type (0, 0), BuildingBlock: KIFKEQ_clean_linker_1, # of connection points: 2
#     Edge 66, Type (0, 0), BuildingBlock: KIFKEQ_clean_linker_1, # of connection points: 2
#     Edge 67, Type (0, 0), BuildingBlock: KIFKEQ_clean_linker_1, # of connection points: 2
#     Edge 68, Type (0, 0), BuildingBlock: KIFKEQ_clean_linker_1, # of connection points: 2
#     Edge 69, Type (0, 0), BuildingBlock: KIFKEQ_clean_linker_1, # of connection points: 2
#     Edge 70, Type (0, 0), BuildingBlock: KIFKEQ_clean_linker_1, # of connection points: 2
#     Edge 71, Type (0, 0), BuildingBlock: KIFKEQ_clean_linker_1, # of connection points: 2
#     Edge 72, Type (0, 0), BuildingBlock: KIFKEQ_clean_linker_1, # of connection points: 2
#     Edge 73, Type (0, 0), BuildingBlock: KIFKEQ_clean_linker_1, # of connection points: 2
#     Edge 74, Type (0, 0), BuildingBlock: KIFKEQ_clean_linker_1, # of connection points: 2
#     Edge 75, Type (0, 0), BuildingBlock: KIFKEQ_clean_linker_1, # of connection points: 2
#     Edge 76, Type (0, 0), BuildingBlock: KIFKEQ_clean_linker_1, # of connection points: 2
#     Edge 77, Type (0, 0), BuildingBlock: KIFKEQ_clean_linker_1, # of connection points: 2
#     Edge 78, Type (0, 0), BuildingBlock: KIFKEQ_clean_linker_1, # of connection points: 2
#     Edge 79, Type (0, 0), BuildingBlock: KIFKEQ_clean_linker_1, # of connection points: 2
#     Edge 80, Type (0, 0), BuildingBlock: KIFKEQ_clean_linker_1, # of connection points: 2
#     Edge 81, Type (0, 0), BuildingBlock: KIFKEQ_clean_linker_1, # of connection points: 2
#     Edge 82, Type (0, 0), BuildingBlock: KIFKEQ_clean_linker_1, # of connection points: 2
#     Edge 83, Type (0, 0), BuildingBlock: KIFKEQ_clean_linker_1, # of connection points: 2
#     Edge 84, Type (0, 0), BuildingBlock: KIFKEQ_clean_linker_1, # of connection points: 2
#     Edge 85, Type (0, 0), BuildingBlock: KIFKEQ_clean_linker_1, # of connection points: 2
#     Edge 86, Type (0, 0), BuildingBlock: KIFKEQ_clean_linker_1, # of connection points: 2
#     Edge 87, Type (0, 0), BuildingBlock: KIFKEQ_clean_linker_1, # of connection points: 2
#     Edge 88, Type (0, 0), BuildingBlock: KIFKEQ_clean_linker_1, # of connection points: 2
#     Edge 89, Type (0, 0), BuildingBlock: KIFKEQ_clean_linker_1, # of connection points: 2
#     Edge 90, Type (0, 0), BuildingBlock: KIFKEQ_clean_linker_1, # of connection points: 2
#     Edge 91, Type (0, 0), BuildingBlock: KIFKEQ_clean_linker_1, # of connection points: 2
#     Edge 92, Type (0, 0), BuildingBlock: KIFKEQ_clean_linker_1, # of connection points: 2
#     Edge 93, Type (0, 0), BuildingBlock: KIFKEQ_clean_linker_1, # of connection points: 2
#     Edge 94, Type (0, 0), BuildingBlock: KIFKEQ_clean_linker_1, # of connection points: 2
#     Edge 95, Type (0, 0), BuildingBlock: KIFKEQ_clean_linker_1, # of connection points: 2
#     Edge 96, Type (0, 0), BuildingBlock: KIFKEQ_clean_linker_1, # of connection points: 2
#     Edge 97, Type (0, 0), BuildingBlock: KIFKEQ_clean_linker_1, # of connection points: 2
#     Edge 98, Type (0, 0), BuildingBlock: KIFKEQ_clean_linker_1, # of connection points: 2
#     Edge 99, Type (0, 0), BuildingBlock: KIFKEQ_clean_linker_1, # of connection points: 2
#     Edge 100, Type (0, 0), BuildingBlock: KIFKEQ_clean_linker_1, # of connection points: 2
#     Edge 101, Type (0, 0), BuildingBlock: KIFKEQ_clean_linker_1, # of connection points: 2
#     Edge 102, Type (0, 0), BuildingBlock: KIFKEQ_clean_linker_1, # of connection points: 2
#     Edge 103, Type (0, 0), BuildingBlock: KIFKEQ_clean_linker_1, # of connection points: 2
#     Edge 104, Type (0, 0), BuildingBlock: KIFKEQ_clean_linker_1, # of connection points: 2
#     Edge 105, Type (0, 0), BuildingBlock: KIFKEQ_clean_linker_1, # of connection points: 2
#     Edge 106, Type (0, 0), BuildingBlock: KIFKEQ_clean_linker_1, # of connection points: 2
#     Edge 107, Type (0, 0), BuildingBlock: KIFKEQ_clean_linker_1, # of connection points: 2
#     Edge 108, Type (0, 0), BuildingBlock: KIFKEQ_clean_linker_1, # of connection points: 2
#     Edge 109, Type (0, 0), BuildingBlock: KIFKEQ_clean_linker_1, # of connection points: 2
#     Edge 110, Type (0, 0), BuildingBlock: KIFKEQ_clean_linker_1, # of connection points: 2
#     Edge 111, Type (0, 0), BuildingBlock: KIFKEQ_clean_linker_1, # of connection points: 2
#     Edge 112, Type (0, 0), BuildingBlock: KIFKEQ_clean_linker_1, # of connection points: 2
#     Edge 113, Type (0, 0), BuildingBlock: KIFKEQ_clean_linker_1, # of connection points: 2
#     Edge 114, Type (0, 0), BuildingBlock: KIFKEQ_clean_linker_1, # of connection points: 2
#     Edge 115, Type (0, 0), BuildingBlock: KIFKEQ_clean_linker_1, # of connection points: 2
#     Edge 116, Type (0, 0), BuildingBlock: KIFKEQ_clean_linker_1, # of connection points: 2
#     Edge 117, Type (0, 0), BuildingBlock: KIFKEQ_clean_linker_1, # of connection points: 2
#     Edge 118, Type (0, 0), BuildingBlock: KIFKEQ_clean_linker_1, # of connection points: 2
#     Edge 119, Type (0, 0), BuildingBlock: KIFKEQ_clean_linker_1, # of connection points: 2
#     Edge 120, Type (0, 0), BuildingBlock: KIFKEQ_clean_linker_1, # of connection points: 2
#     Edge 121, Type (0, 0), BuildingBlock: KIFKEQ_clean_linker_1, # of connection points: 2
#     Edge 122, Type (0, 0), BuildingBlock: KIFKEQ_clean_linker_1, # of connection points: 2
#     Edge 123, Type (0, 0), BuildingBlock: KIFKEQ_clean_linker_1, # of connection points: 2
#     Edge 124, Type (0, 0), BuildingBlock: KIFKEQ_clean_linker_1, # of connection points: 2
#     Edge 125, Type (0, 0), BuildingBlock: KIFKEQ_clean_linker_1, # of connection points: 2
#     Edge 126, Type (0, 0), BuildingBlock: KIFKEQ_clean_linker_1, # of connection points: 2
#     Edge 127, Type (0, 0), BuildingBlock: KIFKEQ_clean_linker_1, # of connection points: 2
#     Edge 128, Type (0, 0), BuildingBlock: KIFKEQ_clean_linker_1, # of connection points: 2
#     Edge 129, Type (0, 0), BuildingBlock: KIFKEQ_clean_linker_1, # of connection points: 2
#     Edge 130, Type (0, 0), BuildingBlock: KIFKEQ_clean_linker_1, # of connection points: 2
#     Edge 131, Type (0, 0), BuildingBlock: KIFKEQ_clean_linker_1, # of connection points: 2
#     Edge 132, Type (0, 0), BuildingBlock: KIFKEQ_clean_linker_1, # of connection points: 2
#     Edge 133, Type (0, 0), BuildingBlock: KIFKEQ_clean_linker_1, # of connection points: 2
#     Edge 134, Type (0, 0), BuildingBlock: KIFKEQ_clean_linker_1, # of connection points: 2
#     Edge 135, Type (0, 0), BuildingBlock: KIFKEQ_clean_linker_1, # of connection points: 2
#     Edge 136, Type (0, 0), BuildingBlock: KIFKEQ_clean_linker_1, # of connection points: 2
#     Edge 137, Type (0, 0), BuildingBlock: KIFKEQ_clean_linker_1, # of connection points: 2
#     Edge 138, Type (0, 0), BuildingBlock: KIFKEQ_clean_linker_1, # of connection points: 2
#     Edge 139, Type (0, 0), BuildingBlock: KIFKEQ_clean_linker_1, # of connection points: 2
#     Edge 140, Type (0, 0), BuildingBlock: KIFKEQ_clean_linker_1, # of connection points: 2
#     Edge 141, Type (0, 0), BuildingBlock: KIFKEQ_clean_linker_1, # of connection points: 2
#     Edge 142, Type (0, 0), BuildingBlock: KIFKEQ_clean_linker_1, # of connection points: 2
#     Edge 143, Type (0, 0), BuildingBlock: KIFKEQ_clean_linker_1, # of connection points: 2
# Relax obj value: 0.380
# Max RMSD: 0.189
# Mean RMSD: 0.189
data_MOF--net-wmt--node1-BETFEN_clean_sbu_0--edge1-KIFKEQ_clean_linker_1
_symmetry_space_group_name_H-M    P1
_symmetry_Int_Tables_number       1
_symmetry_cell_setting            triclinic
loop_
_symmetry_equiv_pos_as_xyz
'x, y, z'
_cell_length_a     82.028522
_cell_length_b     82.025864
_cell_length_c     35.384535
_cell_angle_alpha  89.936914
_cell_angle_beta   90.024257
_cell_angle_gamma 120.03318
loop_
_atom_site_label
_atom_site_type_symbol
_atom_site_fract_x
_atom_site_fract_y
_atom_site_fract_z
_atom_type_partial_charge
Pr0 Pr 0.06915 0.4779 0.21661 0.0
Pr1 Pr 0.04199 0.44009 0.17796 0.0
C2 C 0.08579 0.50748 0.2649 0.0
C3 C 0.08237 0.51392 0.30231 0.0
C4 C 0.08942 0.51066 0.33605 0.0
C5 C 0.08711 0.5175 0.37091 0.0
C6 C 0.07774 0.52794 0.37327 0.0
C7 C 0.07059 0.53109 0.33948 0.0
C8 C 0.07291 0.52425 0.30461 0.0
C9 C 0.08715 0.4616 0.17641 0.0
C10 C 0.0383 0.4407 0.2701 0.0
C11 C 0.02528 0.40825 0.13668 0.0
C12 C 0.02743 0.40074 0.10065 0.0
C13 C 0.03811 0.41285 0.07125 0.0
C14 C 0.03737 0.40568 1.03511 0.0
C15 C 0.02597 0.38627 1.02789 0.0
C16 C 0.0165 0.37408 0.05827 0.0
C17 C 0.01719 0.38129 0.09435 0.0
C18 C 0.02449 0.4601 0.20178 0.0
C19 C 0.0635 0.48005 0.12506 0.0
O20 O 0.07561 0.50699 0.23585 0.0
O21 O 0.08928 0.49352 0.26486 0.0
O22 O 0.07255 0.45259 0.19691 0.0
O23 O 0.09413 0.4796 0.18101 0.0
O24 O 0.03526 0.42933 0.24118 0.0
O25 O 0.04914 0.45909 0.26609 0.0
O26 O 0.03759 0.41124 0.16315 0.0
O27 O 0.02084 0.42146 0.13442 0.0
O28 O 0.04068 0.46695 0.18776 0.0
O29 O 0.01659 0.44187 0.20359 0.0
O30 O 0.06809 0.48997 0.15686 0.0
O31 O 0.05574 0.46135 0.1258 0.0
H32 H 0.09691 0.5029 0.33557 0.0
H33 H 0.09262 0.51448 0.3961 0.0
H34 H 0.06354 0.53927 0.33972 0.0
H35 H 0.06748 0.5273 0.27933 0.0
H36 H 0.04622 0.42793 0.07577 0.0
H37 H 0.04478 0.41552 1.01244 0.0
H38 H 0.00795 0.35904 0.05387 0.0
H39 H 0.00904 0.37173 0.11693 0.0
Pr40 Pr 0.52215 0.59069 0.22078 0.0
Pr41 Pr 0.56005 0.60216 0.17989 0.0
C42 C 0.49226 0.57665 0.26855 0.0
C43 C 0.48572 0.56697 0.30608 0.0
C44 C 0.49224 0.57685 0.34042 0.0
C45 C 0.4851 0.5678 0.37532 0.0
C46 C 0.47121 0.54857 0.37709 0.0
C47 C 0.46485 0.5387 0.34269 0.0
C48 C 0.47193 0.54776 0.30782 0.0
C49 C 0.53798 0.625 0.18065 0.0
C50 C 0.56038 0.5983 0.27238 0.0
C51 C 0.5915 0.61874 0.13738 0.0
C52 C 0.59768 0.62707 0.09978 0.0
C53 C 0.61696 0.63696 0.09135 0.0
C54 C 0.62298 0.64149 0.05392 0.0
C55 C 0.60974 0.63593 1.02454 0.0
C56 C 0.5905 0.62755 1.03351 0.0
C57 C 0.5845 0.62321 0.07096 0.0
C58 C 0.54057 0.56459 0.20355 0.0
C59 C 0.51963 0.58302 0.12867 0.0
O60 O 0.49364 0.567 0.24045 0.0
O61 O 0.50556 0.59441 0.26807 0.0
O62 O 0.5471 0.61943 0.20074 0.0
O63 O 0.52001 0.6139 0.18581 0.0
O64 O 0.57127 0.60563 0.24237 0.0
O65 O 0.54196 0.59124 0.27019 0.0
O66 O 0.58726 0.62802 0.16173 0.0
O67 O 0.57989 0.60056 0.13812 0.0
O68 O 0.53348 0.57389 0.19048 0.0
O69 O 0.55884 0.575 0.20428 0.0
O70 O 0.50995 0.57775 0.16083 0.0
O71 O 0.53831 0.59396 0.12867 0.0
H72 H 0.50278 0.59167 0.34043 0.0
H73 H 0.49059 0.57591 0.40101 0.0
H74 H 0.45401 0.52399 0.34256 0.0
H75 H 0.46637 0.53973 0.28205 0.0
H76 H 0.62729 0.64011 0.11339 0.0
H77 H 0.63788 0.64794 0.04775 0.0
H78 H 0.58004 0.62336 1.01133 0.0
H79 H 0.56956 0.61578 0.07713 0.0
Pr80 Pr 0.4132 0.94299 0.2092 0.0
Pr81 Pr 0.39452 0.96437 0.17077 0.0
C82 C 0.43137 0.9306 0.2548 0.0
C83 C 0.44081 0.93372 0.29259 0.0
C84 C 0.43135 0.93248 0.32665 0.0
C85 C 0.44 0.93397 0.3619 0.0
C86 C 0.4584 0.93673 0.36434 0.0
C87 C 0.46793 0.93834 0.3301 0.0
C88 C 0.45927 0.93682 0.2949 0.0
C89 C 0.37872 0.9203 0.1708 0.0
C90 C 0.40044 0.96795 0.26492 0.0
C91 C 0.37195 0.97614 0.14085 0.0
C92 C 0.37259 0.98641 0.10639 0.0
C93 C 0.38948 0.99635 0.08621 0.0
C94 C 0.39003 0.00547 0.05256 0.0
C95 C 0.37366 0.00471 0.03827 0.0
C96 C 0.35674 0.99479 0.05869 0.0
C97 C 0.35625 0.98577 0.09264 0.0
C98 C 0.43323 0.98454 0.16959 0.0
C99 C 0.41782 0.9486 0.11685 0.0
O100 O 0.43994 0.94326 0.22822 0.0
O101 O 0.41301 0.92315 0.25407 0.0
O102 O 0.38239 0.93427 0.1918 0.0
O103 O 0.39239 0.91665 0.17292 0.0
O104 O 0.39432 0.97293 0.23483 0.0
O105 O 0.40702 0.95626 0.26224 0.0
O106 O 0.3693 0.9592 0.13563 0.0
O107 O 0.38494 0.98577 0.16606 0.0
O108 O 0.42353 0.97428 0.19702 0.0
O109 O 0.42276 0.98604 0.1438 0.0
O110 O 0.42583 0.94693 0.14814 0.0
O111 O 0.40384 0.95249 0.11818 0.0
H112 H 0.4171 0.93005 0.32615 0.0
H113 H 0.43198 0.93243 0.38727 0.0
H114 H 0.4822 0.94083 0.33033 0.0
H115 H 0.46697 0.93782 0.26932 0.0
H116 H 0.4022 0.99683 0.09619 0.0
H117 H 0.40319 0.01264 0.03712 0.0
H118 H 0.34394 0.994 0.04837 0.0
H119 H 0.34312 0.97814 0.10793 0.0
Pr120 Pr 0.47756 0.0667 0.56921 0.0
Pr121 Pr 0.43933 0.03798 0.61083 0.0
C122 C 0.50695 0.08257 0.52019 0.0
C123 C 0.51347 0.07814 0.48395 0.0
C124 C 0.50344 0.07494 0.44984 0.0
C125 C 0.51028 0.07163 0.41587 0.0
C126 C 0.52736 0.07137 0.41483 0.0
C127 C 0.53722 0.07435 0.44915 0.0
C128 C 0.53041 0.07772 0.48305 0.0
C129 C 0.46047 0.08335 0.61094 0.0
C130 C 0.43887 0.03566 0.51815 0.0
C131 C 0.40863 0.0228 0.65535 0.0
C132 C 0.40388 0.02721 0.69242 0.0
C133 C 0.38557 0.01655 0.7066 0.0
C134 C 0.38144 0.0196 0.74335 0.0
C135 C 0.3956 0.03341 0.76645 0.0
C136 C 0.41375 0.04467 0.75119 0.0
C137 C 0.41786 0.04153 0.71459 0.0
C138 C 0.46058 0.02242 0.58367 0.0
C139 C 0.47998 0.06036 0.66123 0.0
O140 O 0.50689 0.07345 0.55064 0.0
O141 O 0.49268 0.08559 0.51897 0.0
O142 O 0.45179 0.06851 0.59106 0.0
O143 O 0.47848 0.09145 0.6043 0.0
O144 O 0.42804 0.03103 0.5485 0.0
O145 O 0.45725 0.0475 0.5201 0.0
O146 O 0.41133 0.03475 0.62819 0.0
O147 O 0.42106 0.01723 0.65557 0.0
O148 O 0.46646 0.03843 0.59757 0.0
O149 O 0.44228 0.01266 0.58647 0.0
O150 O 0.48978 0.06537 0.62912 0.0
O151 O 0.46128 0.05225 0.66123 0.0
H152 H 0.49031 0.07507 0.44925 0.0
H153 H 0.50205 0.06913 0.3904 0.0
H154 H 0.5505 0.07452 0.44978 0.0
H155 H 0.53858 0.08024 0.50866 0.0
H156 H 0.37462 0.00545 0.68972 0.0
H157 H 0.36739 0.01048 0.7542 0.0
H158 H 0.42493 0.05567 0.76778 0.0
H159 H 0.43206 0.04999 0.7039 0.0
Pr160 Pr 0.93104 0.40862 0.56887 0.0
Pr161 Pr 0.95845 0.39801 0.60711 0.0
C162 C 0.91429 0.4217 0.52115 0.0
C163 C 0.91746 0.43161 0.48385 0.0
C164 C 0.91312 0.42166 0.44944 0.0
C165 C 0.91509 0.43085 0.41471 0.0
C166 C 0.9214 0.45031 0.41315 0.0
C167 C 0.92588 0.46026 0.44763 0.0
C168 C 0.9239 0.45106 0.48234 0.0
C169 C 0.91321 0.3742 0.60864 0.0
C170 C 0.96143 0.40185 0.51501 0.0
C171 C 0.97588 0.38366 0.64871 0.0
C172 C 0.97668 0.37785 0.68761 0.0
C173 C 0.98208 0.36435 0.69424 0.0
C174 C 0.98624 0.3612 0.73095 0.0
C175 C 0.98516 0.37165 0.76128 0.0
C176 C 0.97846 0.38417 0.75482 0.0
C177 C 0.97416 0.38719 0.71827 0.0
C178 C 0.97555 0.4355 0.58325 0.0
C179 C 0.93713 0.41654 0.66056 0.0
O180 O 0.9247 0.43139 0.54995 0.0
O181 O 0.91075 0.40423 0.52108 0.0
O182 O 0.92785 0.37994 0.58817 0.0
O183 O 0.90614 0.38515 0.60409 0.0
O184 O 0.96424 0.39321 0.54373 0.0
O185 O 0.95097 0.4098 0.51936 0.0
O186 O 0.96068 0.37312 0.62911 0.0
O187 O 0.98257 0.40167 0.6434 0.0
O188 O 0.95948 0.42606 0.59773 0.0
O189 O 0.98345 0.42521 0.58045 0.0
O190 O 0.93203 0.42149 0.62885 0.0
O191 O 0.94539 0.40606 0.65969 0.0
H192 H 0.90791 0.40665 0.44926 0.0
H193 H 0.9112 0.42253 0.3891 0.0
H194 H 0.93105 0.47526 0.4479 0.0
H195 H 0.92726 0.45921 0.50815 0.0
H196 H 0.98399 0.35694 0.67085 0.0
H197 H 0.99139 0.3515 0.7353 0.0
H198 H 0.97725 0.39217 0.77791 0.0
H199 H 0.96978 0.39751 0.71378 0.0
Pr200 Pr 0.59101 0.52324 0.57082 0.0
Pr201 Pr 0.60182 0.56102 0.61122 0.0
C202 C 0.57749 0.49334 0.52333 0.0
C203 C 0.56801 0.4868 0.48567 0.0
C204 C 0.57807 0.49331 0.4515 0.0
C205 C 0.5692 0.48621 0.41648 0.0
C206 C 0.54998 0.4723 0.41442 0.0
C207 C 0.53992 0.46599 0.44868 0.0
C208 C 0.54879 0.47306 0.48366 0.0
C209 C 0.62533 0.53956 0.61076 0.0
C210 C 0.59792 0.56108 0.51868 0.0
C211 C 0.61815 0.5929 0.65232 0.0
C212 C 0.62721 0.60013 0.68899 0.0
C213 C 0.62314 0.58796 0.7198 0.0
C214 C 0.62867 0.59526 0.75614 0.0
C215 C 0.63845 0.61488 0.76222 0.0
C216 C 0.64392 0.62694 0.73066 0.0
C217 C 0.6383 0.6196 0.69432 0.0
C218 C 0.56425 0.54092 0.58762 0.0
C219 C 0.58337 0.52083 0.66306 0.0
O220 O 0.56765 0.49457 0.55123 0.0
O221 O 0.59519 0.50676 0.52399 0.0
O222 O 0.61957 0.54852 0.59065 0.0
O223 O 0.61443 0.52155 0.60579 0.0
O224 O 0.60502 0.57202 0.54864 0.0
O225 O 0.59121 0.54272 0.52101 0.0
O226 O 0.62737 0.5889 0.62738 0.0
O227 O 0.60009 0.58068 0.6532 0.0
O228 O 0.57379 0.53413 0.60086 0.0
O229 O 0.57435 0.55922 0.58693 0.0
O230 O 0.57825 0.51107 0.631 0.0
O231 O 0.59406 0.53954 0.66285 0.0
H232 H 0.59292 0.50375 0.45174 0.0
H233 H 0.57759 0.49133 0.39102 0.0
H234 H 0.52507 0.45557 0.44859 0.0
H235 H 0.54059 0.46762 0.50928 0.0
H236 H 0.6147 0.57285 0.71607 0.0
H237 H 0.62404 0.58547 0.7796 0.0
H238 H 0.65175 0.64207 0.73417 0.0
H239 H 0.64178 0.62918 0.67064 0.0
Pr240 Pr 0.95829 0.55627 0.10796 0.0
Pr241 Pr 0.92823 0.51911 0.06832 0.0
C242 C 0.97776 0.58769 0.14972 0.0
C243 C 0.97692 0.59539 0.18647 0.0
C244 C 0.99246 0.61213 0.19901 0.0
C245 C 0.99271 0.61872 0.23549 0.0
C246 C 0.97729 0.60874 0.26002 0.0
C247 C 0.96138 0.59233 0.24641 0.0
C248 C 0.96131 0.58559 0.21016 0.0
C249 C 0.97177 0.53279 0.08304 0.0
C250 C 0.93377 0.51662 0.16019 0.0
C251 C 0.91089 0.48996 1.01914 0.0
C252 C 0.91473 0.48324 0.98236 0.0
C253 C 0.91057 0.48855 0.94737 0.0
C254 C 0.91328 0.48153 0.91307 0.0
C255 C 0.9202 0.46886 0.91242 0.0
C256 C 0.92449 0.46367 0.94748 0.0
C257 C 0.92175 0.47068 0.9818 0.0
C258 C 0.91295 0.53792 0.10896 0.0
C259 C 0.96112 0.55572 1.01605 0.0
O260 O 0.96513 0.58565 0.12468 0.0
O261 O 0.98088 0.57355 0.1506 0.0
O262 O 0.956 0.52791 0.09725 0.0
O263 O 0.98196 0.55107 0.08254 0.0
O264 O 0.92831 0.50664 0.1284 0.0
O265 O 0.94289 0.53539 0.15956 0.0
O266 O 0.91981 0.4894 0.04945 0.0
O267 O 0.90872 0.50477 1.01843 0.0
O268 O 0.92788 0.54599 0.089 0.0
O269 O 0.9042 0.51984 0.10295 0.0
O270 O 0.9651 0.56717 0.04516 0.0
O271 O 0.94919 0.53749 1.01959 0.0
H272 H 0.0047 0.61976 0.18105 0.0
H273 H 0.0054 0.63114 0.24487 0.0
H274 H 0.94915 0.58432 0.26405 0.0
H275 H 0.94933 0.57245 0.20105 0.0
H276 H 0.90504 0.49809 0.94639 0.0
H277 H 0.91003 0.48617 0.88694 0.0
H278 H 0.92959 0.45379 0.94859 0.0
H279 H 0.92492 0.46602 1.00801 0.0
Pr280 Pr 0.44318 0.4026 0.1119 0.0
Pr281 Pr 0.48011 0.40967 0.07003 0.0
C282 C 0.41233 0.39046 0.15553 0.0
C283 C 0.40514 0.3838 0.19388 0.0
C284 C 0.38614 0.37011 0.19892 0.0
C285 C 0.37819 0.36608 0.23511 0.0
C286 C 0.38913 0.37589 0.26658 0.0
C287 C 0.40846 0.38859 0.26171 0.0
C288 C 0.41644 0.39245 0.22567 0.0
C289 C 0.46628 0.43937 0.08515 0.0
C290 C 0.48341 0.41855 0.16207 0.0
C291 C 0.50962 0.42163 1.02155 0.0
C292 C 0.51661 0.43181 0.9848 0.0
C293 C 0.5354 0.43858 0.97401 0.0
C294 C 0.5424 0.44825 0.93965 0.0
C295 C 0.53083 0.45148 0.91485 0.0
C296 C 0.51192 0.44461 0.92583 0.0
C297 C 0.50493 0.43496 0.96034 0.0
C298 C 0.46239 0.37629 0.11307 0.0
C299 C 0.44232 0.40441 1.01936 0.0
O300 O 0.41488 0.37921 0.13324 0.0
O301 O 0.42536 0.40817 0.15219 0.0
O302 O 0.47135 0.42858 0.09916 0.0
O303 O 0.448 0.43126 0.08591 0.0
O304 O 0.49302 0.42271 0.12979 0.0
O305 O 0.46466 0.40906 0.16246 0.0
O306 O 0.50956 0.43147 0.05063 0.0
O307 O 0.49483 0.40465 1.02071 0.0
O308 O 0.4538 0.3827 0.09335 0.0
O309 O 0.48029 0.38553 0.10518 0.0
O310 O 0.43157 0.39832 0.04981 0.0
O311 O 0.46051 0.41011 1.02107 0.0
H312 H 0.37723 0.36322 0.17471 0.0
H313 H 0.36327 0.35619 0.23819 0.0
H314 H 0.41725 0.39608 0.28568 0.0
H315 H 0.43121 0.40287 0.22252 0.0
H316 H 0.54472 0.43635 0.99221 0.0
H317 H 0.5569 0.45295 0.93231 0.0
H318 H 0.50253 0.44693 0.90803 0.0
H319 H 0.49042 0.43002 0.96797 0.0
Pr320 Pr 0.60431 0.03921 0.10982 0.0
Pr321 Pr 0.58665 0.06172 0.07325 0.0
C322 C 0.62614 0.02668 0.14001 0.0
C323 C 0.62415 0.01486 0.17284 0.0
C324 C 0.60628 0.0003 0.18361 0.0
C325 C 0.60391 0.99088 0.21772 0.0
C326 C 0.61934 0.9959 0.24174 0.0
C327 C 0.6374 0.00984 0.2301 0.0
C328 C 0.63976 0.01936 0.19591 0.0
C329 C 0.56564 0.01876 0.1075 0.0
C330 C 0.57965 0.05351 0.16404 0.0
C331 C 0.57131 0.0765 1.02604 0.0
C332 C 0.5618 0.07322 0.98821 0.0
C333 C 0.5715 0.07508 0.95415 0.0
C334 C 0.5628 0.07332 0.91887 0.0
C335 C 0.54408 0.06962 0.91636 0.0
C336 C 0.53431 0.06746 0.95051 0.0
C337 C 0.54304 0.06929 0.98578 0.0
C338 C 0.62074 0.08322 0.11411 0.0
C339 C 0.5979 0.03573 1.0162 0.0
O340 O 0.62812 0.04313 0.14802 0.0
O341 O 0.61461 0.0183 0.11181 0.0
O342 O 0.57586 0.03007 0.08183 0.0
O343 O 0.57552 0.01648 0.1335 0.0
O344 O 0.57217 0.05581 0.13263 0.0
O345 O 0.59379 0.04983 0.16286 0.0
O346 O 0.56192 0.0651 0.05399 0.0
O347 O 0.58931 0.08191 1.02665 0.0
O348 O 0.61722 0.06982 0.09156 0.0
O349 O 0.60711 0.08691 0.11264 0.0
O350 O 0.60592 0.03212 0.04507 0.0
O351 O 0.59002 0.04622 1.02068 0.0
H352 H 0.59399 0.99671 0.16646 0.0
H353 H 0.58987 0.98012 0.22604 0.0
H354 H 0.64947 0.01411 0.24837 0.0
H355 H 0.65359 0.03079 0.18833 0.0
H356 H 0.58595 0.07808 0.95463 0.0
H357 H 0.57079 0.07481 0.89347 0.0
H358 H 0.51999 0.06482 0.95011 0.0
H359 H 0.53517 0.06795 1.0113 0.0
Pr360 Pr 0.55923 0.96054 0.67512 0.0
Pr361 Pr 0.51993 0.93483 0.71258 0.0
C362 C 0.5904 0.97432 0.63208 0.0
C363 C 0.59427 0.97049 0.59377 0.0
C364 C 0.61176 0.98224 0.57703 0.0
C365 C 0.6147 0.97991 0.539 0.0
C366 C 0.60018 0.96564 0.51714 0.0
C367 C 0.5829 0.95342 0.53492 0.0
C368 C 0.57994 0.95596 0.57269 0.0
C369 C 0.54106 0.97979 0.69927 0.0
C370 C 0.51957 0.94231 0.62115 0.0
C371 C 0.48962 0.92024 0.75927 0.0
C372 C 0.48311 0.92456 0.79555 0.0
C373 C 0.49363 0.92867 0.8292 0.0
C374 C 0.48678 0.9319 0.86325 0.0
C375 C 0.4692 0.93115 0.8648 0.0
C376 C 0.45889 0.92729 0.83083 0.0
C377 C 0.46572 0.92402 0.79688 0.0
C378 C 0.53472 0.91549 0.67194 0.0
C379 C 0.55809 0.96315 0.76717 0.0
O380 O 0.58582 0.96086 0.65686 0.0
O381 O 0.57981 0.98203 0.634 0.0
O382 O 0.53354 0.96364 0.68499 0.0
O383 O 0.55928 0.98711 0.70007 0.0
O384 O 0.5093 0.93794 0.65252 0.0
O385 O 0.53804 0.94874 0.6226 0.0
O386 O 0.4913 0.93062 0.72973 0.0
O387 O 0.50279 0.91562 0.76088 0.0
O388 O 0.54412 0.92965 0.69326 0.0
O389 O 0.51683 0.90944 0.67617 0.0
O390 O 0.56952 0.96573 0.73855 0.0
O391 O 0.53961 0.95353 0.7626 0.0
H392 H 0.6229 0.99367 0.59295 0.0
H393 H 0.62806 0.98992 0.5265 0.0
H394 H 0.57141 0.94208 0.5196 0.0
H395 H 0.56626 0.94688 0.58513 0.0
H396 H 0.5071 0.92923 0.82937 0.0
H397 H 0.49517 0.93459 0.88856 0.0
H398 H 0.44551 0.92691 0.83026 0.0
H399 H 0.45728 0.92095 0.77152 0.0
Pr400 Pr 0.03792 0.59517 0.67874 0.0
Pr401 Pr 0.06974 0.58993 0.71737 0.0
C402 C 0.01696 0.60599 0.63888 0.0
C403 C 0.0136 0.61176 0.60153 0.0
C404 C 0.9971 0.59938 0.58206 0.0
C405 C 0.99294 0.60446 0.54742 0.0
C406 C 0.00508 0.6222 0.53145 0.0
C407 C 0.02166 0.6347 0.55093 0.0
C408 C 0.02585 0.62956 0.58583 0.0
C409 C 0.02626 0.55896 0.70617 0.0
C410 C 0.06264 0.58027 0.62588 0.0
C411 C 0.08812 0.57922 0.76626 0.0
C412 C 0.08458 0.5687 0.80303 0.0
C413 C 0.08861 0.57815 0.838 0.0
C414 C 0.086 0.56842 0.87232 0.0
C415 C 0.07935 0.54887 0.87298 0.0
C416 C 0.07529 0.53943 0.83793 0.0
C417 C 0.07789 0.54917 0.80361 0.0
C418 C 0.08299 0.62365 0.67621 0.0
C419 C 0.03705 0.59343 0.77084 0.0
O420 O 0.03183 0.61783 0.65829 0.0
O421 O 0.01274 0.58843 0.64253 0.0
O422 O 0.04162 0.57002 0.69057 0.0
O423 O 0.01554 0.56648 0.70694 0.0
O424 O 0.06966 0.57729 0.65739 0.0
O425 O 0.0521 0.58844 0.62665 0.0
O426 O 0.07941 0.56957 0.73597 0.0
O427 O 0.08962 0.59592 0.76696 0.0
O428 O 0.06816 0.61595 0.69638 0.0
O429 O 0.09292 0.61553 0.68232 0.0
O430 O 0.03245 0.60034 0.74166 0.0
O431 O 0.04914 0.58732 0.76703 0.0
H432 H 0.98732 0.58566 0.59369 0.0
H433 H 0.98029 0.59429 0.53283 0.0
H434 H 0.03128 0.64848 0.53939 0.0
H435 H 0.03858 0.63951 0.60047 0.0
H436 H 0.09401 0.59319 0.83893 0.0
H437 H 0.08961 0.57638 0.89837 0.0
H438 H 0.06992 0.5244 0.83689 0.0
H439 H 0.07471 0.54134 0.77742 0.0
Pr440 Pr 0.40118 0.4412 0.67944 0.0
Pr441 Pr 0.40877 0.47833 0.72143 0.0
C442 C 0.38707 0.40982 0.63707 0.0
C443 C 0.37616 0.40205 0.60224 0.0
C444 C 0.37712 0.41396 0.57282 0.0
C445 C 0.36917 0.40644 0.5377 0.0
C446 C 0.36009 0.38687 0.53144 0.0
C447 C 0.3578 0.37495 0.56207 0.0
C448 C 0.36588 0.38251 0.59714 0.0
C449 C 0.43835 0.46429 0.70385 0.0
C450 C 0.41665 0.48135 0.62904 0.0
C451 C 0.42126 0.50775 0.77007 0.0
C452 C 0.43146 0.51447 0.80714 0.0
C453 C 0.42211 0.50775 0.84197 0.0
C454 C 0.43159 0.51489 0.87649 0.0
C455 C 0.45076 0.52902 0.87744 0.0
C456 C 0.46012 0.5356 0.84253 0.0
C457 C 0.45062 0.5285 0.80804 0.0
C458 C 0.37488 0.4603 0.68004 0.0
C459 C 0.40467 0.44097 0.77209 0.0
O460 O 0.37812 0.41137 0.66621 0.0
O461 O 0.40415 0.42413 0.633 0.0
O462 O 0.42729 0.46933 0.69123 0.0
O463 O 0.43038 0.44601 0.70224 0.0
O464 O 0.42125 0.49103 0.66126 0.0
O465 O 0.4069 0.4626 0.62886 0.0
O466 O 0.43092 0.50764 0.74066 0.0
O467 O 0.40396 0.49344 0.7703 0.0
O468 O 0.38164 0.45193 0.69936 0.0
O469 O 0.38414 0.47826 0.68742 0.0
O470 O 0.3988 0.43018 0.74171 0.0
O471 O 0.40966 0.45899 0.77043 0.0
H472 H 0.38483 0.42911 0.57641 0.0
H473 H 0.37135 0.4161 0.51483 0.0
H474 H 0.35057 0.35981 0.55842 0.0
H475 H 0.36484 0.37312 0.61976 0.0
H476 H 0.40736 0.49702 0.84267 0.0
H477 H 0.42386 0.50921 0.90253 0.0
H478 H 0.47475 0.54662 0.84173 0.0
H479 H 0.45828 0.53423 0.78193 0.0
Pr480 Pr 0.73632 0.81243 0.55519 0.0
Pr481 Pr 0.70617 0.77491 0.51591 0.0
C482 C 0.75384 0.84184 0.60365 0.0
C483 C 0.75031 0.84864 0.64059 0.0
C484 C 0.75304 0.84204 0.6755 0.0
C485 C 0.75062 0.84917 0.70995 0.0
C486 C 0.74543 0.86317 0.71079 0.0
C487 C 0.74255 0.86963 0.67581 0.0
C488 C 0.74502 0.86254 0.64136 0.0
C489 C 0.75162 0.79381 0.51415 0.0
C490 C 0.70378 0.77581 0.60809 0.0
C491 C 0.68743 0.74318 0.47483 0.0
C492 C 0.6891 0.73509 0.43911 0.0
C493 C 0.69978 0.74675 0.40918 0.0
C494 C 0.69877 0.73909 0.37345 0.0
C495 C 0.68711 0.71963 0.3671 0.0
C496 C 0.67763 0.70788 0.39805 0.0
C497 C 0.6786 0.71557 0.43375 0.0
C498 C 0.69257 0.79825 0.54126 0.0
C499 C 0.73033 0.81457 0.46341 0.0
O500 O 0.74446 0.8421 0.57385 0.0
O501 O 0.75628 0.8272 0.60417 0.0
O502 O 0.73672 0.78566 0.53419 0.0
O503 O 0.76038 0.81187 0.52037 0.0
O504 O 0.6995 0.76433 0.57893 0.0
O505 O 0.71582 0.79402 0.60449 0.0
O506 O 0.69911 0.74508 0.5019 0.0
O507 O 0.68452 0.75744 0.47206 0.0
O508 O 0.70829 0.80314 0.5268 0.0
O509 O 0.68233 0.77996 0.54118 0.0
O510 O 0.73584 0.82462 0.4951 0.0
O511 O 0.72128 0.7958 0.46412 0.0
H512 H 0.75719 0.83142 0.67632 0.0
H513 H 0.75274 0.84356 0.73602 0.0
H514 H 0.73881 0.88054 0.67492 0.0
H515 H 0.74299 0.86816 0.6152 0.0
H516 H 0.70813 0.76186 0.41296 0.0
H517 H 0.70617 0.74865 0.35038 0.0
H518 H 0.66881 0.69282 0.39436 0.0
H519 H 0.67046 0.70636 0.45677 0.0
Pr520 Pr 0.18774 0.92271 0.55133 0.0
Pr521 Pr 0.226 0.93381 0.51203 0.0
C522 C 0.15769 0.90866 0.59864 0.0
C523 C 0.15113 0.89875 0.63595 0.0
C524 C 0.15902 0.90791 0.67044 0.0
C525 C 0.15196 0.89868 0.70522 0.0
C526 C 0.13681 0.87998 0.70672 0.0
C527 C 0.12912 0.87079 0.67215 0.0
C528 C 0.13612 0.88004 0.63739 0.0
C529 C 0.20423 0.95708 0.51142 0.0
C530 C 0.22557 0.93054 0.60422 0.0
C531 C 0.25779 0.9496 0.47046 0.0
C532 C 0.26415 0.95451 0.43122 0.0
C533 C 0.28234 0.96945 0.42372 0.0
C534 C 0.28966 0.97241 0.38705 0.0
C535 C 0.27889 0.96028 0.35768 0.0
C536 C 0.26025 0.9461 0.3649 0.0
C537 C 0.25289 0.94329 0.40136 0.0
C538 C 0.20579 0.89632 0.53612 0.0
C539 C 0.18605 0.91486 0.45936 0.0
O540 O 0.15899 0.89913 0.57022 0.0
O541 O 0.1711 0.92638 0.59857 0.0
O542 O 0.21312 0.95136 0.53194 0.0
O543 O 0.18619 0.94614 0.51616 0.0
O544 O 0.23676 0.93845 0.57485 0.0
O545 O 0.20712 0.92288 0.60109 0.0
O546 O 0.25152 0.95952 0.48743 0.0
O547 O 0.24803 0.93162 0.47822 0.0
O548 O 0.19907 0.90573 0.52197 0.0
O549 O 0.22406 0.90644 0.53736 0.0
O550 O 0.17601 0.90999 0.49109 0.0
O551 O 0.20477 0.92526 0.45996 0.0
H552 H 0.17059 0.92229 0.67067 0.0
H553 H 0.1585 0.90622 0.73102 0.0
H554 H 0.11733 0.85652 0.67186 0.0
H555 H 0.12957 0.87259 0.61151 0.0
H556 H 0.29116 0.97833 0.44647 0.0
H557 H 0.30403 0.98349 0.38209 0.0
H558 H 0.25156 0.93681 0.34251 0.0
H559 H 0.23871 0.93184 0.40651 0.0
Pr560 Pr 0.07901 0.26607 0.55059 0.0
Pr561 Pr 0.06982 0.29478 0.50882 0.0
C562 C 0.09251 0.25013 0.59948 0.0
C563 C 0.1036 0.2545 0.63555 0.0
C564 C 0.09704 0.25792 0.66977 0.0
C565 C 0.10735 0.26122 0.70354 0.0
C566 C 0.12457 0.26121 0.7043 0.0
C567 C 0.13115 0.25799 0.66983 0.0
C568 C 0.12083 0.25467 0.63614 0.0
C569 C 0.04487 0.2494 0.51006 0.0
C570 C 0.07244 0.29788 0.60123 0.0
C571 C 0.05448 0.3101 0.46424 0.0
C572 C 0.04548 0.30564 0.42705 0.0
C573 C 0.04058 0.31793 0.40987 0.0
C574 C 0.0338 0.3147 0.3728 0.0
C575 C 0.03165 0.29896 0.35242 0.0
C576 C 0.03572 0.28618 0.37085 0.0
C577 C 0.0428 0.28963 0.40759 0.0
C578 C 0.10695 0.31004 0.53423 0.0
C579 C 0.08727 0.27185 0.4583 0.0
O580 O 0.10152 0.25919 0.56893 0.0
O581 O 0.07529 0.24726 0.60096 0.0
O582 O 0.05134 0.26441 0.5295 0.0
O583 O 0.05476 0.24125 0.51642 0.0
O584 O 0.06608 0.30236 0.57092 0.0
O585 O 0.07872 0.28585 0.59939 0.0
O586 O 0.04514 0.2981 0.49128 0.0
O587 O 0.07248 0.31569 0.46427 0.0
O588 O 0.09641 0.29395 0.52102 0.0
O589 O 0.09858 0.31997 0.532 0.0
O590 O 0.09215 0.26692 0.49042 0.0
O591 O 0.07677 0.28003 0.45838 0.0
H592 H 0.08382 0.25787 0.67063 0.0
H593 H 0.10155 0.26338 0.72926 0.0
H594 H 0.14443 0.25817 0.66867 0.0
H595 H 0.12632 0.25209 0.61039 0.0
H596 H 0.04267 0.33042 0.42457 0.0
H597 H 0.03124 0.32512 0.35966 0.0
H598 H 0.03398 0.27373 0.35665 0.0
H599 H 0.04669 0.28008 0.42042 0.0
Pr600 Pr 0.1416 0.39368 0.9073 0.0
Pr601 Pr 0.10174 0.37163 0.94565 0.0
C602 C 0.17184 0.40761 0.86031 0.0
C603 C 0.17829 0.40433 0.82276 0.0
C604 C 0.1703 0.40562 0.78839 0.0
C605 C 0.17755 0.40397 0.75338 0.0
C606 C 0.19307 0.40099 0.75143 0.0
C607 C 0.20077 0.39935 0.78597 0.0
C608 C 0.19354 0.40104 0.82093 0.0
C609 C 0.12943 0.41571 0.9472 0.0
C610 C 0.10378 0.36807 0.85173 0.0
C611 C 0.06747 0.35931 0.97617 0.0
C612 C 0.05763 0.3476 1.00912 0.0
C613 C 0.06069 0.3329 1.02002 0.0
C614 C 0.05336 0.32341 0.05398 0.0
C615 C 0.04299 0.32855 0.07783 0.0
C616 C 0.0392 0.3427 0.06608 0.0
C617 C 0.04656 0.35222 1.03197 0.0
C618 C 0.11983 0.35111 0.94357 0.0
C619 C 0.14095 0.38645 0.99891 0.0
O620 O 0.16931 0.39602 0.88822 0.0
O621 O 0.15959 0.41346 0.86052 0.0
O622 O 0.11929 0.40195 0.92564 0.0
O623 O 0.14677 0.41944 0.94529 0.0
O624 O 0.09265 0.36358 0.88167 0.0
O625 O 0.12214 0.37934 0.85454 0.0
O626 O 0.08201 0.37578 0.98392 0.0
O627 O 0.07051 0.35081 0.94808 0.0
O628 O 0.12068 0.36211 0.9174 0.0
O629 O 0.108 0.34921 0.97 0.0
O630 O 0.15053 0.38856 0.96728 0.0
O631 O 0.1231 0.38265 0.99807 0.0
H632 H 0.1586 0.40823 0.78843 0.0
H633 H 0.17124 0.40555 0.72779 0.0
H634 H 0.21245 0.39671 0.78614 0.0
H635 H 0.2001 0.40001 0.84671 0.0
H636 H 0.06931 0.32918 1.00299 0.0
H637 H 0.05636 0.31245 0.06223 0.0
H638 H 0.03144 0.34708 0.08415 0.0
H639 H 0.04431 0.36369 1.02415 0.0
Pr640 Pr 0.59504 0.74283 0.90472 0.0
Pr641 Pr 0.62435 0.73437 0.94489 0.0
C642 C 0.57806 0.75526 0.85613 0.0
C643 C 0.58169 0.76559 0.81918 0.0
C644 C 0.57521 0.75568 0.78489 0.0
C645 C 0.57772 0.76523 0.75043 0.0
C646 C 0.58672 0.78506 0.749 0.0
C647 C 0.59332 0.79497 0.78334 0.0
C648 C 0.5908 0.78541 0.81782 0.0
C649 C 0.57898 0.70852 0.94439 0.0
C650 C 0.62757 0.7383 0.85296 0.0
C651 C 0.64191 0.72051 0.98734 0.0
C652 C 0.64139 0.71345 1.0257 0.0
C653 C 0.64905 0.70181 1.03254 0.0
C654 C 0.65147 0.69746 0.0696 0.0
C655 C 0.64653 0.70502 0.10014 0.0
C656 C 0.63769 0.71563 0.09313 0.0
C657 C 0.63501 0.71971 0.05612 0.0
C658 C 0.6386 0.77174 0.92144 0.0
C659 C 0.60034 0.75026 0.99688 0.0
O660 O 0.58756 0.76479 0.88592 0.0
O661 O 0.5753 0.73806 0.85552 0.0
O662 O 0.59401 0.71527 0.92479 0.0
O663 O 0.57054 0.71813 0.9383 0.0
O664 O 0.6311 0.73038 0.88199 0.0
O665 O 0.61607 0.74511 0.85645 0.0
O666 O 0.62784 0.70998 0.96496 0.0
O667 O 0.64762 0.73848 0.98442 0.0
O668 O 0.62267 0.7608 0.93495 0.0
O669 O 0.64866 0.76349 0.92118 0.0
O670 O 0.59504 0.75499 0.96509 0.0
O671 O 0.60938 0.74053 0.99633 0.0
H672 H 0.56802 0.74044 0.78464 0.0
H673 H 0.57266 0.757 0.7248 0.0
H674 H 0.60007 0.81018 0.78382 0.0
H675 H 0.5958 0.79359 0.84354 0.0
H676 H 0.65408 0.69692 1.00932 0.0
H677 H 0.65836 0.68931 0.07441 0.0
H678 H 0.63366 0.72148 0.11634 0.0
H679 H 0.62889 0.72856 0.05133 0.0
Pr680 Pr 0.25718 0.85348 0.89965 0.0
Pr681 Pr 0.26342 0.88981 0.94196 0.0
C682 C 0.24565 0.82433 0.85061 0.0
C683 C 0.2355 0.81748 0.81354 0.0
C684 C 0.24555 0.81994 0.77974 0.0
C685 C 0.23612 0.8127 0.74523 0.0
C686 C 0.21627 0.8026 0.74333 0.0
C687 C 0.20623 0.80024 0.77718 0.0
C688 C 0.21567 0.80752 0.81166 0.0
C689 C 0.2911 0.87238 0.94063 0.0
C690 C 0.2609 0.89079 0.84957 0.0
C691 C 0.27592 0.92095 0.98454 0.0
C692 C 0.28631 0.92921 1.01958 0.0
C693 C 0.28637 0.91776 0.04896 0.0
C694 C 0.29386 0.92562 0.08418 0.0
C695 C 0.30142 0.94504 0.09046 0.0
C696 C 0.30265 0.9566 0.05993 0.0
C697 C 0.29509 0.94872 1.02479 0.0
C698 C 0.22651 0.86603 0.91647 0.0
C699 C 0.24921 0.84988 0.99204 0.0
O700 O 0.23586 0.82397 0.88021 0.0
O701 O 0.26268 0.83906 0.85031 0.0
O702 O 0.2839 0.88038 0.92155 0.0
O703 O 0.28222 0.85439 0.93361 0.0
O704 O 0.26654 0.90134 0.88022 0.0
O705 O 0.25592 0.87276 0.8508 0.0
O706 O 0.2855 0.91985 0.9561 0.0
O707 O 0.25912 0.90615 0.98816 0.0
O708 O 0.23773 0.86135 0.92975 0.0
O709 O 0.23425 0.88429 0.91751 0.0
O710 O 0.24491 0.84032 0.95971 0.0
O711 O 0.25851 0.86863 0.99238 0.0
H712 H 0.2608 0.82729 0.77999 0.0
H713 H 0.24446 0.81465 0.72014 0.0
H714 H 0.19099 0.79282 0.77711 0.0
H715 H 0.20735 0.80518 0.83694 0.0
H716 H 0.27984 0.90267 0.04521 0.0
H717 H 0.29259 0.91626 0.10704 0.0
H718 H 0.30869 0.97164 0.06366 0.0
H719 H 0.29537 0.95777 1.00216 0.0
Pr720 Pr 0.62267 0.89361 0.44334 0.0
Pr721 Pr 0.59715 0.85552 0.40503 0.0
C722 C 0.63643 0.9253 0.4853 0.0
C723 C 0.64841 0.9343 0.5182 0.0
C724 C 0.65733 0.92585 0.53695 0.0
C725 C 0.66779 0.93405 0.56968 0.0
C726 C 0.66944 0.95081 0.58414 0.0
C727 C 0.66075 0.95938 0.56464 0.0
C728 C 0.65028 0.95114 0.53198 0.0
C729 C 0.64169 0.87403 0.42778 0.0
C730 C 0.60212 0.85342 0.49709 0.0
C731 C 0.58112 0.82587 0.35685 0.0
C732 C 0.58448 0.81924 0.31971 0.0
C733 C 0.58117 0.82564 0.28514 0.0
C734 C 0.58312 0.8184 0.2505 0.0
C735 C 0.58842 0.80449 0.24921 0.0
C736 C 0.59196 0.79828 0.2838 0.0
C737 C 0.58994 0.80548 0.31846 0.0
C738 C 0.57794 0.87197 0.44018 0.0
C739 C 0.62734 0.89242 0.35203 0.0
O740 O 0.62039 0.91011 0.49209 0.0
O741 O 0.64472 0.92398 0.45493 0.0
O742 O 0.62479 0.86694 0.4377 0.0
O743 O 0.64974 0.89227 0.42777 0.0
O744 O 0.5965 0.84329 0.46556 0.0
O745 O 0.61121 0.8722 0.49592 0.0
O746 O 0.59139 0.82661 0.38591 0.0
O747 O 0.57746 0.83971 0.35651 0.0
O748 O 0.59282 0.88084 0.42033 0.0
O749 O 0.57155 0.85398 0.43761 0.0
O750 O 0.62764 0.90363 0.37922 0.0
O751 O 0.61877 0.87409 0.35779 0.0
H752 H 0.65587 0.91274 0.52672 0.0
H753 H 0.67404 0.92692 0.58434 0.0
H754 H 0.66188 0.97236 0.57481 0.0
H755 H 0.64339 0.95777 0.51781 0.0
H756 H 0.57685 0.83614 0.28475 0.0
H757 H 0.58051 0.82378 0.22463 0.0
H758 H 0.59583 0.78745 0.28424 0.0
H759 H 0.59239 0.80002 0.34442 0.0
Pr760 Pr 0.10673 0.73106 0.44053 0.0
Pr761 Pr 0.14437 0.74027 0.4002 0.0
C762 C 0.07492 0.71515 0.48241 0.0
C763 C 0.06612 0.71748 0.51637 0.0
C764 C 0.07473 0.73433 0.5369 0.0
C765 C 0.06641 0.73591 0.57013 0.0
C766 C 0.0494 0.72062 0.58334 0.0
C767 C 0.04076 0.70385 0.56227 0.0
C768 C 0.04908 0.70231 0.52906 0.0
C769 C 0.12984 0.76926 0.42269 0.0
C770 C 0.14715 0.74792 0.49283 0.0
C771 C 0.17352 0.75245 0.35092 0.0
C772 C 0.18031 0.76257 0.31381 0.0
C773 C 0.17551 0.7526 0.27939 0.0
C774 C 0.18276 0.76192 0.24479 0.0
C775 C 0.19518 0.78155 0.24335 0.0
C776 C 0.19987 0.79152 0.27782 0.0
C777 C 0.19261 0.7822 0.31243 0.0
C778 C 0.12548 0.70488 0.43629 0.0
C779 C 0.10758 0.73561 0.34896 0.0
O780 O 0.08881 0.71196 0.4878 0.0
O781 O 0.07777 0.72654 0.45415 0.0
O782 O 0.13489 0.75784 0.43292 0.0
O783 O 0.11158 0.76116 0.42436 0.0
O784 O 0.15704 0.75126 0.46105 0.0
O785 O 0.1284 0.7397 0.49223 0.0
O786 O 0.17375 0.76216 0.38057 0.0
O787 O 0.15894 0.73534 0.35059 0.0
O788 O 0.11749 0.71216 0.41731 0.0
O789 O 0.14362 0.7148 0.43162 0.0
O790 O 0.09626 0.72572 0.37699 0.0
O791 O 0.12601 0.7442 0.35354 0.0
H792 H 0.08799 0.74612 0.52754 0.0
H793 H 0.07358 0.74891 0.58605 0.0
H794 H 0.02761 0.69189 0.57152 0.0
H795 H 0.04229 0.68918 0.51347 0.0
H796 H 0.16632 0.73747 0.27915 0.0
H797 H 0.17895 0.7536 0.21919 0.0
H798 H 0.20914 0.80664 0.27816 0.0
H799 H 0.19679 0.7904 0.33821 0.0
Pr800 Pr 0.2695 0.37373 0.44415 0.0
Pr801 Pr 0.25632 0.39932 0.40398 0.0
C802 C 0.28783 0.36099 0.4872 0.0
C803 C 0.29654 0.3654 0.52468 0.0
C804 C 0.30244 0.35371 0.54105 0.0
C805 C 0.30836 0.35633 0.57869 0.0
C806 C 0.30871 0.3709 0.60052 0.0
C807 C 0.30383 0.38327 0.58282 0.0
C808 C 0.29752 0.38035 0.54551 0.0
C809 C 0.2319 0.35458 0.42099 0.0
C810 C 0.2489 0.39328 0.49629 0.0
C811 C 0.24065 0.41404 0.35724 0.0
C812 C 0.23051 0.41038 0.32038 0.0
C813 C 0.22661 0.42393 0.30539 0.0
C814 C 0.2167 0.42074 0.27122 0.0
C815 C 0.21031 0.40383 0.25081 0.0
C816 C 0.21441 0.39031 0.26588 0.0
C817 C 0.22435 0.39353 0.30019 0.0
C818 C 0.29076 0.41861 0.44379 0.0
C819 C 0.26566 0.36997 0.35166 0.0
O820 O 0.2962 0.37396 0.46125 0.0
O821 O 0.2695 0.35333 0.48699 0.0
O822 O 0.24088 0.37104 0.43379 0.0
O823 O 0.2425 0.34692 0.4214 0.0
O824 O 0.24317 0.39749 0.46442 0.0
O825 O 0.26057 0.38641 0.49569 0.0
O826 O 0.23162 0.40262 0.3853 0.0
O827 O 0.25854 0.41907 0.35639 0.0
O828 O 0.2855 0.40411 0.42331 0.0
O829 O 0.27914 0.42493 0.43931 0.0
O830 O 0.27317 0.36648 0.38148 0.0
O831 O 0.25802 0.38083 0.35423 0.0
H832 H 0.30167 0.34202 0.52528 0.0
H833 H 0.31161 0.34621 0.59099 0.0
H834 H 0.30431 0.39496 0.59793 0.0
H835 H 0.29282 0.3894 0.53332 0.0
H836 H 0.23122 0.43707 0.32024 0.0
H837 H 0.21425 0.43171 0.2606 0.0
H838 H 0.20966 0.37703 0.25153 0.0
H839 H 0.2271 0.38279 0.31108 0.0
Pr840 Pr 0.23482 0.29486 1.00717 0.0
Pr841 Pr 0.19513 0.27374 0.04656 0.0
C842 C 0.2688 0.30641 0.97587 0.0
C843 C 0.27858 0.31784 0.94252 0.0
C844 C 0.27674 0.33344 0.93274 0.0
C845 C 0.28411 0.3429 0.89877 0.0
C846 C 0.29345 0.33695 0.87394 0.0
C847 C 0.29593 0.32179 0.88434 0.0
C848 C 0.28836 0.31218 0.91828 0.0
C849 C 0.21672 0.31538 1.00621 0.0
C850 C 0.19529 0.27928 0.95443 0.0
C851 C 0.16488 0.26094 0.09314 0.0
C852 C 0.15865 0.26384 0.13121 0.0
C853 C 0.16646 0.26169 0.16504 0.0
C854 C 0.15931 0.2629 0.20048 0.0
C855 C 0.14413 0.26635 0.20332 0.0
C856 C 0.1366 0.26885 0.16937 0.0
C857 C 0.1437 0.26756 0.13397 0.0
C858 C 0.20658 0.25095 1.00736 0.0
C859 C 0.23328 0.29938 0.10117 0.0
O860 O 0.25404 0.29004 0.96868 0.0
O861 O 0.26616 0.3152 1.00397 0.0
O862 O 0.21598 0.30505 1.03369 0.0
O863 O 0.22873 0.31686 0.98056 0.0
O864 O 0.18588 0.27769 0.98604 0.0
O865 O 0.21314 0.28308 0.9552 0.0
O866 O 0.16858 0.27356 0.06665 0.0
O867 O 0.17603 0.25378 0.09187 0.0
O868 O 0.21696 0.26483 1.0285 0.0
O869 O 0.18931 0.24745 1.00965 0.0
O870 O 0.24416 0.30395 0.0708 0.0
O871 O 0.21496 0.28773 0.09904 0.0
H872 H 0.26903 0.33793 0.9507 0.0
H873 H 0.28205 0.35455 0.89134 0.0
H874 H 0.30282 0.31677 0.86538 0.0
H875 H 0.28948 0.29989 0.92487 0.0
H876 H 0.178 0.25883 0.16422 0.0
H877 H 0.16575 0.26117 0.22573 0.0
H878 H 0.1248 0.27129 0.17002 0.0
H879 H 0.13721 0.26911 0.10859 0.0
Pr880 Pr 0.70934 0.93593 1.01445 0.0
Pr881 Pr 0.73526 0.92379 0.05446 0.0
C882 C 0.69649 0.95345 0.96919 0.0
C883 C 0.7014 0.96146 0.93106 0.0
C884 C 0.69105 0.96875 0.91386 0.0
C885 C 0.69377 0.97369 0.8756 0.0
C886 C 0.70691 0.97136 0.85405 0.0
C887 C 0.71807 0.96515 0.87225 0.0
C888 C 0.7153 0.96021 0.91039 0.0
C889 C 0.69056 0.89819 0.0364 0.0
C890 C 0.73023 0.91619 0.96294 0.0
C891 C 0.75112 0.91005 0.10285 0.0
C892 C 0.7477 0.90016 0.1402 0.0
C893 C 0.75229 0.91018 0.17454 0.0
C894 C 0.75017 0.90098 0.2093 0.0
C895 C 0.74343 0.88144 0.21094 0.0
C896 C 0.73866 0.87141 0.17656 0.0
C897 C 0.74083 0.88062 0.1418 0.0
C898 C 0.75418 0.95828 1.0147 0.0
C899 C 0.7043 0.93086 0.10647 0.0
O900 O 0.70915 0.96222 0.99542 0.0
O901 O 0.68886 0.93514 0.97089 0.0
O902 O 0.70712 0.90734 1.02394 0.0
O903 O 0.68284 0.90873 0.03698 0.0
O904 O 0.73448 0.91067 0.99492 0.0
O905 O 0.72272 0.92732 0.96334 0.0
O906 O 0.74061 0.90047 0.07408 0.0
O907 O 0.75514 0.92768 0.10274 0.0
O908 O 0.73963 0.95286 1.0352 0.0
O909 O 0.76065 0.94682 1.01911 0.0
O910 O 0.7016 0.9394 0.07734 0.0
O911 O 0.71502 0.92314 0.10296 0.0
H912 H 0.68028 0.96983 0.92951 0.0
H913 H 0.6848 0.97825 0.86249 0.0
H914 H 0.72858 0.96357 0.85674 0.0
H915 H 0.72356 0.95477 0.92336 0.0
H916 H 0.75773 0.92524 0.17464 0.0
H917 H 0.75377 0.90923 0.23498 0.0
H918 H 0.73368 0.85644 0.17634 0.0
H919 H 0.73737 0.87244 0.11603 0.0
Pr920 Pr 0.06336 0.77354 1.01278 0.0
Pr921 Pr 0.0757 0.8118 0.05156 0.0
C922 C 0.04634 0.74283 0.96833 0.0
C923 C 0.03787 0.73945 0.93063 0.0
C924 C 0.03009 0.72164 0.91393 0.0
C925 C 0.02487 0.71928 0.8758 0.0
C926 C 0.02748 0.73477 0.85392 0.0
C927 C 0.03408 0.75228 0.87174 0.0
C928 C 0.03927 0.75459 0.90967 0.0
C929 C 0.10107 0.79234 1.03509 0.0
C930 C 0.08337 0.81382 0.96032 0.0
C931 C 0.08973 0.84157 0.09944 0.0
C932 C 0.09986 0.84799 0.13651 0.0
C933 C 0.09032 0.84142 0.17119 0.0
C934 C 0.09976 0.84835 0.20577 0.0
C935 C 0.11904 0.86212 0.20689 0.0
C936 C 0.12858 0.86852 0.17211 0.0
C937 C 0.11913 0.86162 0.13755 0.0
C938 C 0.04132 0.79661 1.01165 0.0
C939 C 0.06835 0.77403 0.10469 0.0
O940 O 0.03754 0.74622 0.99524 0.0
O941 O 0.06457 0.75416 0.9691 0.0
O942 O 0.09208 0.79979 1.02202 0.0
O943 O 0.09036 0.77411 0.03625 0.0
O944 O 0.08912 0.82373 0.99206 0.0
O945 O 0.07188 0.79523 0.96115 0.0
O946 O 0.09913 0.8406 0.07039 0.0
O947 O 0.0721 0.82798 0.09976 0.0
O948 O 0.04647 0.78726 1.03227 0.0
O949 O 0.05298 0.81452 1.01593 0.0
O950 O 0.05964 0.76265 0.07591 0.0
O951 O 0.07626 0.79247 0.10065 0.0
H952 H 0.02892 0.70979 0.92981 0.0
H953 H 0.01996 0.70562 0.86299 0.0
H954 H 0.0359 0.76442 0.85602 0.0
H955 H 0.0451 0.76841 0.9222 0.0
H956 H 0.07545 0.83107 0.17174 0.0
H957 H 0.09175 0.84318 0.23167 0.0
H958 H 0.14345 0.87886 0.17146 0.0
H959 H 0.12694 0.86711 0.11151 0.0
Pr960 Pr 0.4018 0.14315 0.88625 0.0
Pr961 Pr 0.37191 0.10617 0.84425 0.0
C962 C 0.41885 0.17253 0.935 0.0
C963 C 0.41538 0.17931 0.97202 0.0
C964 C 0.42081 0.17489 1.00659 0.0
C965 C 0.41853 0.18213 0.04102 0.0
C966 C 0.4108 0.1941 0.04215 0.0
C967 C 0.40524 0.19838 1.00752 0.0
C968 C 0.40755 0.19117 0.9731 0.0
C969 C 0.41734 0.12468 0.84584 0.0
C970 C 0.36873 0.10574 0.93674 0.0
C971 C 0.35275 0.07466 0.80263 0.0
C972 C 0.3529 0.06617 0.76635 0.0
C973 C 0.33638 0.05036 0.75381 0.0
C974 C 0.33552 0.0431 0.71775 0.0
C975 C 0.35131 0.05141 0.69364 0.0
C976 C 0.36816 0.06678 0.70731 0.0
C977 C 0.36885 0.07426 0.74312 0.0
C978 C 0.35849 0.12969 0.86963 0.0
C979 C 0.39699 0.14615 0.79367 0.0
O980 O 0.40921 0.17252 0.90541 0.0
O981 O 0.42164 0.15811 0.9354 0.0
O982 O 0.40208 0.11641 0.86476 0.0
O983 O 0.42617 0.14267 0.85292 0.0
O984 O 0.36397 0.09494 0.90642 0.0
O985 O 0.38147 0.12385 0.93506 0.0
O986 O 0.3656 0.07698 0.82739 0.0
O987 O 0.34957 0.08876 0.80124 0.0
O988 O 0.37435 0.13445 0.8561 0.0
O989 O 0.34809 0.11142 0.8689 0.0
O990 O 0.40227 0.15585 0.82587 0.0
O991 O 0.3877 0.12739 0.79352 0.0
H992 H 0.42701 0.16594 1.00711 0.0
H993 H 0.42277 0.17821 0.06687 0.0
H994 H 0.3995 0.20773 1.00679 0.0
H995 H 0.40341 0.19514 0.94717 0.0
H996 H 0.32389 0.04405 0.77141 0.0
H997 H 0.32217 0.03156 0.70829 0.0
H998 H 0.38067 0.07344 0.68995 0.0
H999 H 0.3816 0.08668 0.75218 0.0
Pr1000 Pr 0.85476 0.25792 0.88729 0.0
Pr1001 Pr 0.89187 0.26448 0.84539 0.0
C1002 C 0.82558 0.24605 0.93639 0.0
C1003 C 0.81895 0.2359 0.97355 0.0
C1004 C 0.82456 0.24567 1.00817 0.0
C1005 C 0.81757 0.23623 0.0428 0.0
C1006 C 0.80468 0.2167 0.04406 0.0
C1007 C 0.79917 0.20694 1.00938 0.0
C1008 C 0.80613 0.21638 0.97477 0.0
C1009 C 0.87439 0.2922 0.84776 0.0
C1010 C 0.89192 0.26148 0.938 0.0
C1011 C 0.92347 0.27824 0.80368 0.0
C1012 C 0.93098 0.2874 0.76709 0.0
C1013 C 0.91908 0.28326 0.73577 0.0
C1014 C 0.92659 0.29062 0.70033 0.0
C1015 C 0.94616 0.30219 0.69549 0.0
C1016 C 0.95795 0.30701 0.72732 0.0
C1017 C 0.95038 0.2997 0.7629 0.0
C1018 C 0.86812 0.22776 0.87122 0.0
C1019 C 0.85151 0.24925 0.7949 0.0
O1020 O 0.82531 0.23629 0.90683 0.0
O1021 O 0.84014 0.2632 0.93646 0.0
O1022 O 0.88188 0.28435 0.86629 0.0
O1023 O 0.85638 0.28374 0.85449 0.0
O1024 O 0.90276 0.26717 0.90766 0.0
O1025 O 0.87392 0.25661 0.93629 0.0
O1026 O 0.92096 0.28822 0.82944 0.0
O1027 O 0.90997 0.26061 0.80263 0.0
O1028 O 0.86346 0.23898 0.85775 0.0
O1029 O 0.88638 0.23536 0.86994 0.0
O1030 O 0.84184 0.24577 0.82703 0.0
O1031 O 0.87026 0.25791 0.7947 0.0
H1032 H 0.8343 0.2607 1.0086 0.0
H1033 H 0.82241 0.2443 0.06868 0.0
H1034 H 0.78909 0.192 1.00882 0.0
H1035 H 0.80124 0.20836 0.94883 0.0
H1036 H 0.90403 0.27386 0.73846 0.0
H1037 H 0.91711 0.28638 0.67638 0.0
H1038 H 0.97305 0.31594 0.7245 0.0
H1039 H 0.95975 0.30314 0.7869 0.0
Pr1040 Pr 0.7446 0.59947 0.88531 0.0
Pr1041 Pr 0.73498 0.62809 0.84356 0.0
C1042 C 0.75807 0.58326 0.93381 0.0
C1043 C 0.76886 0.58741 0.96997 0.0
C1044 C 0.77361 0.57437 0.98443 0.0
C1045 C 0.78386 0.57792 1.01827 0.0
C1046 C 0.78977 0.5947 0.03885 0.0
C1047 C 0.7849 0.60775 1.0242 0.0
C1048 C 0.77463 0.60417 0.99024 0.0
C1049 C 0.71064 0.58261 0.84428 0.0
C1050 C 0.73721 0.63055 0.93641 0.0
C1051 C 0.71954 0.64414 0.80119 0.0
C1052 C 0.70919 0.64124 0.7657 0.0
C1053 C 0.70895 0.62894 0.73793 0.0
C1054 C 0.70108 0.62818 0.70246 0.0
C1055 C 0.69337 0.63975 0.69424 0.0
C1056 C 0.6927 0.65121 0.72304 0.0
C1057 C 0.70053 0.65191 0.75848 0.0
C1058 C 0.77196 0.64369 0.87022 0.0
C1059 C 0.75297 0.60569 0.79291 0.0
O1060 O 0.76724 0.59287 0.90387 0.0
O1061 O 0.74091 0.58052 0.93549 0.0
O1062 O 0.7169 0.59759 0.86375 0.0
O1063 O 0.72058 0.57455 0.85095 0.0
O1064 O 0.73097 0.63513 0.90605 0.0
O1065 O 0.74371 0.6187 0.93448 0.0
O1066 O 0.71054 0.63245 0.82885 0.0
O1067 O 0.73715 0.64839 0.79815 0.0
O1068 O 0.76171 0.62765 0.85659 0.0
O1069 O 0.76343 0.65344 0.86749 0.0
O1070 O 0.75792 0.60082 0.82505 0.0
O1071 O 0.74221 0.61362 0.79292 0.0
H1072 H 0.76932 0.56131 0.96952 0.0
H1073 H 0.78691 0.5673 1.02854 0.0
H1074 H 0.78927 0.62093 0.03865 0.0
H1075 H 0.77125 0.61454 0.97975 0.0
H1076 H 0.7155 0.6205 0.74318 0.0
H1077 H 0.70202 0.61935 0.68086 0.0
H1078 H 0.68668 0.66011 0.71779 0.0
H1079 H 0.70044 0.66135 0.7798 0.0
Pr1080 Pr 0.80351 0.7241 0.24427 0.0
Pr1081 Pr 0.76348 0.70242 0.28331 0.0
C1082 C 0.83389 0.73653 0.19803 0.0
C1083 C 0.84019 0.73346 0.16011 0.0
C1084 C 0.83201 0.73484 0.12607 0.0
C1085 C 0.83919 0.73346 0.09075 0.0
C1086 C 0.85478 0.73061 0.08818 0.0
C1087 C 0.86267 0.72888 0.12237 0.0
C1088 C 0.85553 0.73033 0.15764 0.0
C1089 C 0.79159 0.74658 0.28308 0.0
C1090 C 0.76558 0.69856 0.18922 0.0
C1091 C 0.72927 0.69083 0.31375 0.0
C1092 C 0.72044 0.68243 0.35006 0.0
C1093 C 0.70272 0.67989 0.35945 0.0
C1094 C 0.69464 0.67231 0.39463 0.0
C1095 C 0.70419 0.66713 0.42076 0.0
C1096 C 0.72194 0.66968 0.41097 0.0
C1097 C 0.72999 0.67728 0.37599 0.0
C1098 C 0.78246 0.68272 0.28459 0.0
C1099 C 0.80282 0.7187 0.33673 0.0
O1100 O 0.82998 0.72395 0.2247 0.0
O1101 O 0.82288 0.74387 0.19894 0.0
O1102 O 0.7813 0.73254 0.26217 0.0
O1103 O 0.80897 0.75043 0.28056 0.0
O1104 O 0.75458 0.69337 0.21948 0.0
O1105 O 0.7838 0.71063 0.19161 0.0
O1106 O 0.74312 0.70824 0.3154 0.0
O1107 O 0.7329 0.68026 0.29166 0.0
O1108 O 0.78277 0.69279 0.25699 0.0
O1109 O 0.77057 0.68121 0.31059 0.0
O1110 O 0.81246 0.72047 0.30533 0.0
O1111 O 0.78486 0.71457 0.33564 0.0
H1112 H 0.82016 0.73721 0.12665 0.0
H1113 H 0.83244 0.73457 0.06537 0.0
H1114 H 0.87478 0.72692 0.12199 0.0
H1115 H 0.8623 0.72937 0.18317 0.0
H1116 H 0.69518 0.68381 0.33968 0.0
H1117 H 0.68091 0.67039 0.40135 0.0
H1118 H 0.72982 0.66619 0.43073 0.0
H1119 H 0.74379 0.67933 0.36928 0.0
Pr1120 Pr 0.26199 0.07502 0.23358 0.0
Pr1121 Pr 0.29226 0.06873 0.27533 0.0
C1122 C 0.24471 0.08679 0.18409 0.0
C1123 C 0.2483 0.09693 0.14686 0.0
C1124 C 0.24439 0.0872 0.11221 0.0
C1125 C 0.24691 0.09664 0.07753 0.0
C1126 C 0.25339 0.11614 0.07621 0.0
C1127 C 0.25738 0.12585 0.11092 0.0
C1128 C 0.25482 0.11641 0.14558 0.0
C1129 C 0.24687 0.04152 0.27594 0.0
C1130 C 0.29443 0.06982 0.18293 0.0
C1131 C 0.31253 0.05779 0.31721 0.0
C1132 C 0.31531 0.05108 0.354 0.0
C1133 C 0.33179 0.06277 0.37422 0.0
C1134 C 0.3355 0.05683 0.40832 0.0
C1135 C 0.32288 0.03893 0.42304 0.0
C1136 C 0.30631 0.02712 0.40282 0.0
C1137 C 0.30261 0.0331 0.36836 0.0
C1138 C 0.3053 0.10526 0.24752 0.0
C1139 C 0.26742 0.0839 0.32562 0.0
O1140 O 0.25417 0.09658 0.21366 0.0
O1141 O 0.2421 0.06964 0.18424 0.0
O1142 O 0.26194 0.04827 0.25643 0.0
O1143 O 0.23793 0.05053 0.26846 0.0
O1144 O 0.29917 0.06391 0.21347 0.0
O1145 O 0.28199 0.07557 0.18455 0.0
O1146 O 0.29853 0.04621 0.29559 0.0
O1147 O 0.31611 0.07521 0.31544 0.0
O1148 O 0.28967 0.09447 0.26234 0.0
O1149 O 0.31558 0.09729 0.24781 0.0
O1150 O 0.26176 0.08783 0.29333 0.0
O1151 O 0.27695 0.07468 0.32604 0.0
H1152 H 0.23924 0.0722 0.11181 0.0
H1153 H 0.24388 0.0886 0.05166 0.0
H1154 H 0.2621 0.14076 0.11149 0.0
H1155 H 0.25776 0.1244 0.17151 0.0
H1156 H 0.3419 0.07661 0.36356 0.0
H1157 H 0.34818 0.06647 0.42353 0.0
H1158 H 0.29632 0.01326 0.41348 0.0
H1159 H 0.28994 0.02366 0.35299 0.0
Pr1160 Pr 0.92463 0.18762 0.23656 0.0
Pr1161 Pr 0.93255 0.22509 0.27766 0.0
C1162 C 0.91197 0.1582 0.18788 0.0
C1163 C 0.90178 0.15161 0.15075 0.0
C1164 C 0.91112 0.15846 0.11595 0.0
C1165 C 0.90163 0.15145 0.08137 0.0
C1166 C 0.88247 0.13728 0.0803 0.0
C1167 C 0.87314 0.13059 0.11521 0.0
C1168 C 0.88263 0.13758 0.14975 0.0
C1169 C 0.95863 0.20581 0.27733 0.0
C1170 C 0.92953 0.22511 0.18523 0.0
C1171 C 0.94633 0.25655 0.31977 0.0
C1172 C 0.95442 0.2636 0.35725 0.0
C1173 C 0.96564 0.28306 0.36308 0.0
C1174 C 0.97028 0.29024 0.39979 0.0
C1175 C 0.96356 0.27799 0.43093 0.0
C1176 C 0.95375 0.25844 0.42479 0.0
C1177 C 0.94928 0.25128 0.38815 0.0
C1178 C 0.89549 0.20209 0.25262 0.0
C1179 C 0.91647 0.18497 0.32897 0.0
O1180 O 0.90232 0.15838 0.21727 0.0
O1181 O 0.92932 0.1724 0.18775 0.0
O1182 O 0.95191 0.21413 0.25778 0.0
O1183 O 0.94921 0.18779 0.2707 0.0
O1184 O 0.93583 0.23609 0.21529 0.0
O1185 O 0.9239 0.20695 0.18738 0.0
O1186 O 0.95663 0.25365 0.2955 0.0
O1187 O 0.92851 0.24357 0.31904 0.0
O1188 O 0.90637 0.19706 0.26623 0.0
O1189 O 0.90364 0.22039 0.2532 0.0
O1190 O 0.91217 0.17514 0.29694 0.0
O1191 O 0.92606 0.20374 0.32881 0.0
H1192 H 0.92589 0.16913 0.11532 0.0
H1193 H 0.90953 0.15689 0.05542 0.0
H1194 H 0.85837 0.11995 0.11601 0.0
H1195 H 0.87493 0.13185 0.17582 0.0
H1196 H 0.96985 0.29274 0.33943 0.0
H1197 H 0.97786 0.30536 0.40389 0.0
H1198 H 0.94862 0.24874 0.44844 0.0
H1199 H 0.94085 0.2362 0.38411 0.0
Pr1200 Pr 0.29305 0.22605 0.77428 0.0
Pr1201 Pr 0.26517 0.18956 0.73327 0.0
C1202 C 0.31028 0.25679 0.81856 0.0
C1203 C 0.30729 0.26245 0.8559 0.0
C1204 C 0.32015 0.28026 0.87 0.0
C1205 C 0.31879 0.2849 0.90738 0.0
C1206 C 0.30446 0.27175 0.93122 0.0
C1207 C 0.29102 0.25423 0.91605 0.0
C1208 C 0.2925 0.24958 0.87881 0.0
C1209 C 0.3095 0.20532 0.74902 0.0
C1210 C 0.27005 0.18573 0.82486 0.0
C1211 C 0.24776 0.1602 0.68463 0.0
C1212 C 0.2507 0.15341 0.64725 0.0
C1213 C 0.24547 0.15838 0.61308 0.0
C1214 C 0.24725 0.1511 0.57831 0.0
C1215 C 0.25422 0.1385 0.57652 0.0
C1216 C 0.25958 0.13367 0.61074 0.0
C1217 C 0.25781 0.14095 0.64548 0.0
C1218 C 0.24798 0.2063 0.77486 0.0
C1219 C 0.29701 0.22729 0.68193 0.0
O1220 O 0.29818 0.25473 0.79228 0.0
O1221 O 0.31456 0.24343 0.81851 0.0
O1222 O 0.29322 0.1987 0.76252 0.0
O1223 O 0.31789 0.2236 0.74798 0.0
O1224 O 0.26528 0.17627 0.79246 0.0
O1225 O 0.27846 0.20443 0.82517 0.0
O1226 O 0.2579 0.16035 0.7134 0.0
O1227 O 0.24484 0.17453 0.68489 0.0
O1228 O 0.26275 0.21519 0.75477 0.0
O1229 O 0.24048 0.1883 0.7692 0.0
O1230 O 0.3011 0.23796 0.71237 0.0
O1231 O 0.28494 0.209 0.68372 0.0
H1232 H 0.33171 0.2903 0.85259 0.0
H1233 H 0.32959 0.2984 0.91801 0.0
H1234 H 0.27969 0.24379 0.93326 0.0
H1235 H 0.28248 0.23571 0.8683 0.0
H1236 H 0.23972 0.16773 0.61317 0.0
H1237 H 0.2427 0.15502 0.55288 0.0
H1238 H 0.26527 0.12427 0.6108 0.0
H1239 H 0.26186 0.13665 0.67108 0.0
Pr1240 Pr 0.77345 0.06536 0.77742 0.0
Pr1241 Pr 0.81099 0.076 0.73661 0.0
C1242 C 0.74197 0.04956 0.81981 0.0
C1243 C 0.73482 0.03904 0.85523 0.0
C1244 C 0.74721 0.0406 0.88413 0.0
C1245 C 0.74024 0.03311 0.91985 0.0
C1246 C 0.72074 0.02384 0.92717 0.0
C1247 C 0.70836 0.02098 0.89709 0.0
C1248 C 0.71538 0.02869 0.86151 0.0
C1249 C 0.79302 0.10276 0.75283 0.0
C1250 C 0.81375 0.0841 0.82849 0.0
C1251 C 0.84108 0.08921 0.68934 0.0
C1252 C 0.84821 0.09897 0.65232 0.0
C1253 C 0.86718 0.1061 0.64263 0.0
C1254 C 0.87434 0.11527 0.60792 0.0
C1255 C 0.86273 0.11764 0.58167 0.0
C1256 C 0.84363 0.11042 0.59154 0.0
C1257 C 0.83648 0.10124 0.62642 0.0
C1258 C 0.79509 0.04195 0.77802 0.0
C1259 C 0.77305 0.06903 0.68482 0.0
O1260 O 0.74454 0.04079 0.79162 0.0
O1261 O 0.7553 0.06715 0.82306 0.0
O1262 O 0.80016 0.0935 0.76596 0.0
O1263 O 0.77476 0.09244 0.75256 0.0
O1264 O 0.82336 0.08938 0.79625 0.0
O1265 O 0.7951 0.07308 0.82857 0.0
O1266 O 0.83993 0.09904 0.71728 0.0
O1267 O 0.82701 0.07183 0.68874 0.0
O1268 O 0.78595 0.04745 0.75775 0.0
O1269 O 0.81303 0.05291 0.77242 0.0
O1270 O 0.76222 0.06205 0.71498 0.0
O1271 O 0.7914 0.07567 0.6869 0.0
H1272 H 0.7623 0.04845 0.87964 0.0
H1273 H 0.75025 0.03579 0.94228 0.0
H1274 H 0.69327 0.01357 0.90151 0.0
H1275 H 0.70562 0.02724 0.83935 0.0
H1276 H 0.87653 0.1045 0.66196 0.0
H1277 H 0.88899 0.12026 0.60147 0.0
H1278 H 0.83421 0.11208 0.57255 0.0
H1279 H 0.8218 0.09596 0.63317 0.0
Pr1280 Pr 0.93332 0.7072 0.77945 0.0
Pr1281 Pr 0.91961 0.73249 0.74027 0.0
C1282 C 0.95162 0.69433 0.8222 0.0
C1283 C 0.96054 0.69941 0.8594 0.0
C1284 C 0.96869 0.68952 0.87508 0.0
C1285 C 0.97472 0.6926 0.9127 0.0
C1286 C 0.97272 0.70571 0.93514 0.0
C1287 C 0.96559 0.71639 0.9181 0.0
C1288 C 0.95946 0.71318 0.88077 0.0
C1289 C 0.89586 0.6876 0.7554 0.0
C1290 C 0.91183 0.7256 0.83232 0.0
C1291 C 0.90327 0.74657 0.69385 0.0
C1292 C 0.89253 0.74235 0.65746 0.0
C1293 C 0.89955 0.73949 0.6233 0.0
C1294 C 0.88948 0.73633 0.58925 0.0
C1295 C 0.87206 0.73592 0.58821 0.0
C1296 C 0.86502 0.73856 0.62264 0.0
C1297 C 0.8751 0.74175 0.6566 0.0
C1298 C 0.95385 0.75233 0.78047 0.0
C1299 C 0.92971 0.70395 0.68695 0.0
O1300 O 0.95987 0.70684 0.79544 0.0
O1301 O 0.93331 0.6869 0.82248 0.0
O1302 O 0.90449 0.70392 0.76889 0.0
O1303 O 0.90677 0.6803 0.75555 0.0
O1304 O 0.90603 0.72981 0.80058 0.0
O1305 O 0.92388 0.71918 0.83146 0.0
O1306 O 0.89465 0.73578 0.72295 0.0
O1307 O 0.92121 0.75176 0.69244 0.0
O1308 O 0.94901 0.73791 0.75989 0.0
O1309 O 0.94195 0.75828 0.77591 0.0
O1310 O 0.93736 0.70055 0.71663 0.0
O1311 O 0.92175 0.7145 0.68987 0.0
H1312 H 0.96959 0.67881 0.85882 0.0
H1313 H 0.97985 0.68385 0.92461 0.0
H1314 H 0.96418 0.72693 0.93381 0.0
H1315 H 0.95324 0.72099 0.869 0.0
H1316 H 0.91293 0.73986 0.62275 0.0
H1317 H 0.89562 0.7346 0.56356 0.0
H1318 H 0.85158 0.73804 0.62355 0.0
H1319 H 0.86926 0.74387 0.68236 0.0
Pr1320 Pr 0.90016 0.62955 0.34231 0.0
Pr1321 Pr 0.86058 0.60696 0.3812 0.0
C1322 C 0.9345 0.64216 0.31169 0.0
C1323 C 0.94395 0.65346 0.27814 0.0
C1324 C 0.93825 0.66568 0.26335 0.0
C1325 C 0.94535 0.67466 0.22891 0.0
C1326 C 0.95817 0.67148 0.20847 0.0
C1327 C 0.96458 0.65994 0.2241 0.0
C1328 C 0.95741 0.65088 0.25875 0.0
C1329 C 0.88152 0.64952 0.34484 0.0
C1330 C 0.86072 0.61424 0.2896 0.0
C1331 C 0.83051 0.59243 0.42866 0.0
C1332 C 0.82407 0.59544 0.46649 0.0
C1333 C 0.8314 0.59293 0.50067 0.0
C1334 C 0.82412 0.59432 0.53586 0.0
C1335 C 0.80922 0.59822 0.53818 0.0
C1336 C 0.80218 0.60106 0.50387 0.0
C1337 C 0.80944 0.59964 0.46873 0.0
C1338 C 0.87283 0.5854 0.33968 0.0
C1339 C 0.89842 0.63331 0.43638 0.0
O1340 O 0.92015 0.62546 0.30477 0.0
O1341 O 0.93123 0.65092 0.33894 0.0
O1342 O 0.88093 0.63863 0.37102 0.0
O1343 O 0.89328 0.65155 0.31814 0.0
O1344 O 0.8512 0.61189 0.32145 0.0
O1345 O 0.8787 0.61845 0.29006 0.0
O1346 O 0.83274 0.60403 0.40098 0.0
O1347 O 0.84298 0.58686 0.42793 0.0
O1348 O 0.88298 0.59903 0.36158 0.0
O1349 O 0.85545 0.58149 0.34232 0.0
O1350 O 0.90941 0.63802 0.40618 0.0
O1351 O 0.88013 0.62155 0.43389 0.0
H1352 H 0.92779 0.66777 0.27777 0.0
H1353 H 0.9403 0.6836 0.21756 0.0
H1354 H 0.97434 0.65716 0.20867 0.0
H1355 H 0.9618 0.64133 0.26966 0.0
H1356 H 0.84259 0.58956 0.50034 0.0
H1357 H 0.8299 0.5918 0.56124 0.0
H1358 H 0.791 0.60444 0.50401 0.0
H1359 H 0.80337 0.6016 0.44312 0.0
Pr1360 Pr 0.37782 0.27042 0.34533 0.0
Pr1361 Pr 0.40248 0.25669 0.38526 0.0
C1362 C 0.36615 0.29044 0.30428 0.0
C1363 C 0.35628 0.29014 0.26965 0.0
C1364 C 0.34386 0.27314 0.25183 0.0
C1365 C 0.33503 0.27324 0.21818 0.0
C1366 C 0.33854 0.29037 0.20185 0.0
C1367 C 0.35091 0.30737 0.22011 0.0
C1368 C 0.35972 0.30723 0.25376 0.0
C1369 C 0.35784 0.2319 0.36161 0.0
C1370 C 0.39727 0.24948 0.29264 0.0
C1371 C 0.41747 0.24176 0.43306 0.0
C1372 C 0.41412 0.23201 0.47058 0.0
C1373 C 0.41777 0.24193 0.50493 0.0
C1374 C 0.41577 0.23285 0.53983 0.0
C1375 C 0.41006 0.21353 0.54159 0.0
C1376 C 0.40621 0.2036 0.50719 0.0
C1377 C 0.40828 0.2127 0.47232 0.0
C1378 C 0.42226 0.29228 0.34957 0.0
C1379 C 0.37313 0.26523 0.43724 0.0
O1380 O 0.38257 0.29179 0.29999 0.0
O1381 O 0.35612 0.27881 0.33119 0.0
O1382 O 0.37487 0.24134 0.35217 0.0
O1383 O 0.35019 0.24247 0.36057 0.0
O1384 O 0.4027 0.24495 0.32449 0.0
O1385 O 0.38857 0.25956 0.2932 0.0
O1386 O 0.40635 0.23237 0.40485 0.0
O1387 O 0.42242 0.25964 0.43273 0.0
O1388 O 0.40744 0.28643 0.36946 0.0
O1389 O 0.4284 0.28047 0.35248 0.0
O1390 O 0.37216 0.27515 0.40874 0.0
O1391 O 0.38214 0.25577 0.43349 0.0
H1392 H 0.34122 0.25983 0.26362 0.0
H1393 H 0.32588 0.25994 0.20439 0.0
H1394 H 0.35384 0.32076 0.2083 0.0
H1395 H 0.36939 0.32048 0.26718 0.0
H1396 H 0.42237 0.25682 0.50496 0.0
H1397 H 0.41864 0.241 0.5655 0.0
H1398 H 0.40204 0.18881 0.50705 0.0
H1399 H 0.40557 0.20462 0.44655 0.0
Pr1400 Pr 0.73316 0.10703 0.34601 0.0
Pr1401 Pr 0.74212 0.14396 0.3866 0.0
C1402 C 0.72028 0.07585 0.30302 0.0
C1403 C 0.7145 0.06866 0.26442 0.0
C1404 C 0.70101 0.04963 0.25901 0.0
C1405 C 0.69786 0.04164 0.22294 0.0
C1406 C 0.70834 0.05258 0.19196 0.0
C1407 C 0.7209 0.07193 0.19711 0.0
C1408 C 0.7239 0.07993 0.23303 0.0
C1409 C 0.77027 0.12783 0.37199 0.0
C1410 C 0.75107 0.14731 0.29497 0.0
C1411 C 0.75461 0.17334 0.43544 0.0
C1412 C 0.76443 0.17996 0.4729 0.0
C1413 C 0.75427 0.1751 0.50712 0.0
C1414 C 0.76343 0.18223 0.54193 0.0
C1415 C 0.78307 0.19453 0.54378 0.0
C1416 C 0.79322 0.19928 0.50951 0.0
C1417 C 0.78406 0.19218 0.47472 0.0
C1418 C 0.70823 0.12729 0.34488 0.0
C1419 C 0.73526 0.10608 0.43841 0.0
O1420 O 0.70911 0.07955 0.32298 0.0
O1421 O 0.73812 0.08801 0.308 0.0
O1422 O 0.76071 0.13439 0.35775 0.0
O1423 O 0.76027 0.10958 0.37369 0.0
O1424 O 0.7555 0.1569 0.32722 0.0
O1425 O 0.74093 0.12859 0.29476 0.0
O1426 O 0.76446 0.17304 0.40657 0.0
O1427 O 0.73723 0.15922 0.43512 0.0
O1428 O 0.71401 0.11834 0.36511 0.0
O1429 O 0.71875 0.14529 0.35064 0.0
O1430 O 0.72827 0.09527 0.40824 0.0
O1431 O 0.74213 0.12446 0.43615 0.0
H1432 H 0.6936 0.04073 0.28294 0.0
H1433 H 0.68805 0.02671 0.21968 0.0
H1434 H 0.72888 0.08074 0.17351 0.0
H1435 H 0.73423 0.09471 0.23653 0.0
H1436 H 0.73914 0.16587 0.50707 0.0
H1437 H 0.75505 0.17798 0.56749 0.0
H1438 H 0.80827 0.20889 0.50934 0.0
H1439 H 0.7924 0.19651 0.44908 0.0
H1440 H 0.0934 0.40968 0.96127 0.0
H1441 H 0.14981 0.43781 1.00631 0.0
H1442 H 0.08243 0.41922 1.01745 0.0
H1443 H 0.13914 0.44799 0.06096 0.0
H1444 H 0.11682 0.48103 0.12881 0.0
H1445 H 0.12605 0.46992 0.0734 0.0
H1446 H 0.07988 0.4137 0.09263 0.0
H1447 H 0.07122 0.42478 0.14967 0.0
C1448 C 0.10344 0.41779 0.98312 0.0
C1449 C 0.12245 0.42262 0.97934 0.0
C1450 C 0.09717 0.42331 1.01532 0.0
C1451 C 0.10987 0.43434 0.04403 0.0
C1452 C 0.12893 0.43958 0.03955 0.0
C1453 C 0.13507 0.43374 1.00798 0.0
C1454 C 0.10865 0.46623 0.12162 0.0
C1455 C 0.09305 0.45386 0.14387 0.0
C1456 C 0.11396 0.45986 0.0896 0.0
C1457 C 0.10368 0.44091 0.07812 0.0
C1458 C 0.08802 0.42845 0.10022 0.0
C1459 C 0.08298 0.4348 0.13296 0.0
H1460 H 0.59372 0.68591 0.96829 0.0
H1461 H 0.55237 0.70157 0.99733 0.0
H1462 H 0.58573 0.66666 1.02627 0.0
H1463 H 0.54401 0.6821 0.0536 0.0
H1464 H 0.51752 0.62852 0.12405 0.0
H1465 H 0.52827 0.64776 0.06731 0.0
H1466 H 0.58599 0.66947 0.10132 0.0
H1467 H 0.57504 0.65049 0.15962 0.0
C1468 C 0.58316 0.68549 0.9871 0.0
C1469 C 0.57398 0.69564 0.97809 0.0
C1470 C 0.57848 0.67436 1.0203 0.0
C1471 C 0.56415 0.67274 0.04484 0.0
C1472 C 0.55495 0.68277 1.03544 0.0
C1473 C 0.55979 0.694 1.00288 0.0
C1474 C 0.53254 0.63743 0.11983 0.0
C1475 C 0.54538 0.63768 0.14661 0.0
C1476 C 0.53873 0.6485 0.08701 0.0
C1477 C 0.55804 0.66024 0.07939 0.0
C1478 C 0.57101 0.66045 0.10589 0.0
C1479 C 0.56475 0.64948 0.13929 0.0
H1480 H 0.37873 0.90002 0.10996 0.0
H1481 H 0.3475 0.92451 0.1576 0.0
H1482 H 0.35812 0.88964 0.05512 0.0
H1483 H 0.3269 0.91442 0.10151 0.0
H1484 H 0.30734 0.90826 0.97248 0.0
H1485 H 0.32719 0.91987 1.02934 0.0
H1486 H 0.32526 0.86653 0.03968 0.0
H1487 H 0.30522 0.85495 0.98404 0.0
C1488 C 0.36739 0.90317 0.1089 0.0
C1489 C 0.36499 0.91331 0.13838 0.0
C1490 C 0.35552 0.89719 0.07718 0.0
C1491 C 0.34075 0.90115 0.07349 0.0
C1492 C 0.33823 0.91127 0.10299 0.0
C1493 C 0.35005 0.91708 0.1352 0.0
C1494 C 0.31103 0.89901 0.98704 0.0
C1495 C 0.30448 0.88061 0.97347 0.0
C1496 C 0.32243 0.90564 1.01978 0.0
C1497 C 0.32795 0.89419 0.03938 0.0
C1498 C 0.32154 0.8759 1.02539 0.0
C1499 C 0.30998 0.86923 0.99326 0.0
H1500 H 0.48061 0.10701 0.66807 0.0
H1501 H 0.42325 0.07065 0.63246 0.0
H1502 H 0.46964 0.11506 0.72485 0.0
H1503 H 0.41207 0.07871 0.69024 0.0
H1504 H 0.4009 0.08773 0.81855 0.0
H1505 H 0.40976 0.07679 0.76155 0.0
H1506 H 0.45543 0.13329 0.74189 0.0
H1507 H 0.44644 0.14408 0.79753 0.0
C1508 C 0.46557 0.10075 0.67218 0.0
C1509 C 0.45287 0.08815 0.64528 0.0
C1510 C 0.45923 0.10542 0.70501 0.0
C1511 C 0.43988 0.09777 0.71241 0.0
C1512 C 0.42706 0.08492 0.68578 0.0
C1513 C 0.43347 0.08025 0.65257 0.0
C1514 C 0.41278 0.09778 0.80198 0.0
C1515 C 0.42284 0.11685 0.81289 0.0
C1516 C 0.41795 0.09149 0.76922 0.0
C1517 C 0.43355 0.10403 0.74694 0.0
C1518 C 0.44357 0.12302 0.75831 0.0
C1519 C 0.43833 0.12927 0.79049 0.0
H1520 H 0.9272 0.35106 0.63212 0.0
H1521 H 0.88572 0.36649 0.66024 0.0
H1522 H 0.92089 0.33375 0.69138 0.0
H1523 H 0.87742 0.34742 0.71639 0.0
H1524 H 0.87057 0.3225 0.83107 0.0
H1525 H 0.88105 0.34241 0.77543 0.0
H1526 H 0.90593 0.31045 0.73219 0.0
H1527 H 0.89686 0.29199 0.79002 0.0
C1528 C 0.91687 0.35093 0.65114 0.0
C1529 C 0.90772 0.36102 0.64193 0.0
C1530 C 0.91278 0.34051 0.68515 0.0
C1531 C 0.89877 0.33919 0.71052 0.0
C1532 C 0.8889 0.34846 0.69962 0.0
C1533 C 0.89345 0.35929 0.66647 0.0
C1534 C 0.87867 0.32005 0.80996 0.0
C1535 C 0.88305 0.30572 0.81545 0.0
C1536 C 0.88445 0.3313 0.77719 0.0
C1537 C 0.89413 0.32811 0.74753 0.0
C1538 C 0.89879 0.31388 0.75369 0.0
C1539 C 0.89356 0.3031 0.78722 0.0
H1540 H 0.64989 0.57676 0.63216 0.0
H1541 H 0.63032 0.5194 0.66594 0.0
H1542 H 0.66931 0.58794 0.68982 0.0
H1543 H 0.64991 0.5304 0.72207 0.0
H1544 H 0.70296 0.55499 0.79326 0.0
H1545 H 0.68314 0.54603 0.73746 0.0
H1546 H 0.66862 0.58871 0.76216 0.0
H1547 H 0.68853 0.59756 0.81913 0.0
C1548 C 0.64955 0.56655 0.65191 0.0
C1549 C 0.6383 0.54716 0.6443 0.0
C1550 C 0.66077 0.57296 0.68493 0.0
C1551 C 0.66139 0.56014 0.71074 0.0
C1552 C 0.65014 0.54079 0.70284 0.0
C1553 C 0.63883 0.53445 0.67038 0.0
C1554 C 0.6955 0.56248 0.78718 0.0
C1555 C 0.69753 0.57713 0.81096 0.0
C1556 C 0.68403 0.55728 0.75495 0.0
C1557 C 0.67409 0.56652 0.745 0.0
C1558 C 0.67615 0.58133 0.76858 0.0
C1559 C 0.6876 0.58645 0.8013 0.0
H1560 H 0.85215 0.56406 0.28001 0.0
H1561 H 0.90871 0.59119 0.32414 0.0
H1562 H 0.86232 0.55392 0.22459 0.0
H1563 H 0.91915 0.58171 0.26718 0.0
H1564 H 0.93068 0.57489 0.13634 0.0
H1565 H 0.92227 0.5867 0.1928 0.0
H1566 H 0.8741 0.53156 0.21074 0.0
H1567 H 0.88275 0.51978 0.15572 0.0
C1568 C 0.86683 0.56794 0.27797 0.0
C1569 C 0.87962 0.57873 0.3067 0.0
C1570 C 0.87269 0.56212 0.24591 0.0
C1571 C 0.89164 0.56701 0.24095 0.0
C1572 C 0.90451 0.57783 0.26962 0.0
C1573 C 0.89853 0.58334 0.30231 0.0
C1574 C 0.91841 0.56528 0.15248 0.0
C1575 C 0.9076 0.54629 0.14133 0.0
C1576 C 0.91355 0.57205 0.18496 0.0
C1577 C 0.89747 0.56011 0.20669 0.0
C1578 C 0.88651 0.54127 0.19488 0.0
C1579 C 0.89152 0.5345 0.16307 0.0
H1580 H 0.41316 0.32021 0.33355 0.0
H1581 H 0.4443 0.2948 0.28987 0.0
H1582 H 0.42123 0.33999 0.27623 0.0
H1583 H 0.45259 0.31455 0.23395 0.0
H1584 H 0.48249 0.36723 0.16098 0.0
H1585 H 0.47256 0.34825 0.21805 0.0
H1586 H 0.41593 0.33762 0.20224 0.0
H1587 H 0.42593 0.35639 0.14357 0.0
C1588 C 0.42172 0.31883 0.3119 0.0
C1589 C 0.42788 0.30568 0.31652 0.0
C1590 C 0.42629 0.33012 0.27891 0.0
C1591 C 0.43759 0.32895 0.25011 0.0
C1592 C 0.44401 0.31607 0.25535 0.0
C1593 C 0.43923 0.30469 0.28775 0.0
C1594 C 0.46784 0.36083 0.16925 0.0
C1595 C 0.45509 0.36364 0.14735 0.0
C1596 C 0.46213 0.34987 0.20229 0.0
C1597 C 0.44341 0.34131 0.21521 0.0
C1598 C 0.43053 0.34414 0.1936 0.0
C1599 C 0.43626 0.35498 0.1599 0.0
H1600 H 0.65084 0.07722 0.12777 0.0
H1601 H 0.62202 0.1044 0.17457 0.0
H1602 H 0.67101 0.08608 0.18449 0.0
H1603 H 0.64264 0.11402 0.22963 0.0
H1604 H 0.69926 0.14717 0.29579 0.0
H1605 H 0.67893 0.13631 0.24033 0.0
H1606 H 0.66637 0.07947 0.26192 0.0
H1607 H 0.686 0.09029 0.31933 0.0
C1608 C 0.64869 0.08495 0.15013 0.0
C1609 C 0.63445 0.0897 0.14665 0.0
C1610 C 0.6603 0.09008 0.18263 0.0
C1611 C 0.65841 0.10068 0.21194 0.0
C1612 C 0.64455 0.10587 0.2078 0.0
C1613 C 0.63273 0.10038 0.17596 0.0
C1614 C 0.69212 0.1323 0.28912 0.0
C1615 C 0.69469 0.11969 0.31207 0.0
C1616 C 0.68045 0.12607 0.25704 0.0
C1617 C 0.67112 0.10703 0.24615 0.0
C1618 C 0.67358 0.0943 0.269 0.0
C1619 C 0.68496 0.10051 0.30185 0.0
H1620 H 0.59182 0.90933 0.46266 0.0
H1621 H 0.54936 0.85238 0.48986 0.0
H1622 H 0.58356 0.92042 0.52027 0.0
H1623 H 0.5401 0.86356 0.54492 0.0
H1624 H 0.51445 0.89273 0.61362 0.0
H1625 H 0.52527 0.88376 0.55759 0.0
H1626 H 0.58265 0.91642 0.59619 0.0
H1627 H 0.57162 0.92503 0.65362 0.0
C1628 C 0.58073 0.89919 0.48074 0.0
C1629 C 0.57167 0.87987 0.47183 0.0
C1630 C 0.57584 0.90558 0.51368 0.0
C1631 C 0.56103 0.89295 0.53748 0.0
C1632 C 0.55151 0.87378 0.52748 0.0
C1633 C 0.55683 0.86736 0.49559 0.0
C1634 C 0.5294 0.89799 0.61058 0.0
C1635 C 0.54212 0.90981 0.63841 0.0
C1636 C 0.53563 0.89284 0.57815 0.0
C1637 C 0.55488 0.89938 0.57194 0.0
C1638 C 0.56773 0.91125 0.59966 0.0
C1639 C 0.56142 0.91624 0.63263 0.0
H1640 H 0.11644 0.65449 0.65878 0.0
H1641 H 0.05952 0.62234 0.61827 0.0
H1642 H 0.12528 0.67386 0.60233 0.0
H1643 H 0.06842 0.64054 0.55987 0.0
H1644 H 0.08806 0.68309 0.46064 0.0
H1645 H 0.07687 0.66528 0.51987 0.0
H1646 H 0.1333 0.67611 0.54215 0.0
H1647 H 0.14437 0.6952 0.48606 0.0
C1648 C 0.10573 0.65159 0.63773 0.0
C1649 C 0.08719 0.63695 0.64364 0.0
C1650 C 0.11086 0.66252 0.60456 0.0
C1651 C 0.09784 0.65874 0.57492 0.0
C1652 C 0.07906 0.64429 0.58143 0.0
C1653 C 0.07383 0.63372 0.61533 0.0
C1654 C 0.09807 0.682 0.47885 0.0
C1655 C 0.11729 0.69139 0.4691 0.0
C1656 C 0.09163 0.67148 0.51283 0.0
C1657 C 0.10414 0.66946 0.53754 0.0
C1658 C 0.12311 0.67783 0.52585 0.0
C1659 C 0.12953 0.68867 0.49277 0.0
H1660 H 0.36125 0.47852 0.63783 0.0
H1661 H 0.35899 0.42505 0.64513 0.0
H1662 H 0.34209 0.46824 0.58102 0.0
H1663 H 0.34027 0.41482 0.58682 0.0
H1664 H 0.31978 0.4111 0.45957 0.0
H1665 H 0.33971 0.4199 0.51662 0.0
H1666 H 0.31039 0.44696 0.56169 0.0
H1667 H 0.2909 0.4384 0.50545 0.0
C1668 C 0.35661 0.46445 0.62747 0.0
C1669 C 0.36182 0.45266 0.64651 0.0
C1670 C 0.34551 0.4585 0.59461 0.0
C1671 C 0.33927 0.44053 0.579 0.0
C1672 C 0.34463 0.42872 0.59776 0.0
C1673 C 0.35547 0.43459 0.63133 0.0
C1674 C 0.3176 0.41889 0.48174 0.0
C1675 C 0.30365 0.42402 0.47758 0.0
C1676 C 0.32903 0.42394 0.51457 0.0
C1677 C 0.32689 0.43433 0.54408 0.0
C1678 C 0.31285 0.4393 0.53965 0.0
C1679 C 0.30155 0.43432 0.50713 0.0
H1680 H 0.81169 0.76597 0.34496 0.0
H1681 H 0.75639 0.74302 0.29591 0.0
H1682 H 0.80146 0.77616 0.40011 0.0
H1683 H 0.74582 0.75278 0.35235 0.0
H1684 H 0.73191 0.75804 0.4816 0.0
H1685 H 0.74024 0.74658 0.4247 0.0
H1686 H 0.79207 0.79966 0.41596 0.0
H1687 H 0.78347 0.81112 0.4716 0.0
C1688 C 0.79729 0.76309 0.3458 0.0
C1689 C 0.78485 0.75341 0.31583 0.0
C1690 C 0.79139 0.76894 0.3777 0.0
C1691 C 0.77275 0.7653 0.38112 0.0
C1692 C 0.76021 0.75565 0.35113 0.0
C1693 C 0.76626 0.75001 0.31872 0.0
C1694 C 0.74497 0.76726 0.46744 0.0
C1695 C 0.75687 0.78556 0.48145 0.0
C1696 C 0.74979 0.76072 0.43465 0.0
C1697 C 0.7669 0.77215 0.41542 0.0
C1698 C 0.77887 0.79031 0.42992 0.0
C1699 C 0.77389 0.79691 0.46206 0.0
H1700 H 0.18432 0.95925 0.45217 0.0
H1701 H 0.24133 0.98403 0.49313 0.0
H1702 H 0.19539 0.97869 0.39582 0.0
H1703 H 0.25267 0.0034 0.43532 0.0
H1704 H 0.26385 0.02172 0.30446 0.0
H1705 H 0.25507 0.00197 0.36189 0.0
H1706 H 0.20893 0.01209 0.38041 0.0
H1707 H 0.2177 0.03166 0.32423 0.0
C1708 C 0.19931 0.96886 0.44926 0.0
C1709 C 0.2119 0.96982 0.47745 0.0
C1710 C 0.20569 0.98008 0.41664 0.0
C1711 C 0.22498 0.99276 0.41063 0.0
C1712 C 0.23773 0.99368 0.43858 0.0
C1713 C 0.23124 0.9825 0.47173 0.0
C1714 C 0.25197 0.01986 0.32102 0.0
C1715 C 0.24163 0.02849 0.3095 0.0
C1716 C 0.24694 0.00854 0.35404 0.0
C1717 C 0.23124 0.00535 0.37609 0.0
C1718 C 0.22095 0.01394 0.36422 0.0
C1719 C 0.22604 0.02526 0.33174 0.0
H1720 H 0.96746 0.18643 0.32772 0.0
H1721 H 0.97963 0.24291 0.30347 0.0
H1722 H 0.98717 0.19756 0.38361 0.0
H1723 H 0.99881 0.2541 0.36121 0.0
H1724 H 0.01963 0.26154 0.49003 0.0
H1725 H 0.99915 0.25248 0.43372 0.0
H1726 H 0.02027 0.21617 0.39838 0.0
H1727 H 0.04036 0.22508 0.45372 0.0
C1728 C 0.97433 0.20132 0.33424 0.0
C1729 C 0.97167 0.2137 0.31082 0.0
C1730 C 0.98572 0.20774 0.36659 0.0
C1731 C 0.99491 0.22685 0.37722 0.0
C1732 C 0.99207 0.2393 0.35419 0.0
C1733 C 0.98088 0.23286 0.32112 0.0
C1734 C 0.0199 0.25168 0.47013 0.0
C1735 C 0.03173 0.24407 0.47674 0.0
C1736 C 0.00816 0.24648 0.43773 0.0
C1737 C 0.00783 0.23341 0.41127 0.0
C1738 C 0.01977 0.22599 0.41811 0.0
C1739 C 0.0314 0.23117 0.45011 0.0
H1740 H 0.21832 0.18674 0.82235 0.0
H1741 H 0.26391 0.2431 0.80203 0.0
H1742 H 0.20911 0.19762 0.8781 0.0
H1743 H 0.25515 0.25394 0.85938 0.0
H1744 H 0.24227 0.25647 0.9922 0.0
H1745 H 0.25289 0.24767 0.93466 0.0
H1746 H 0.19609 0.21975 0.8919 0.0
H1747 H 0.18577 0.22952 0.94775 0.0
C1748 C 0.22647 0.20152 0.82969 0.0
C1749 C 0.24209 0.21397 0.80754 0.0
C1750 C 0.22116 0.20775 0.8619 0.0
C1751 C 0.23143 0.22665 0.87368 0.0
C1752 C 0.24702 0.23923 0.85153 0.0
C1753 C 0.2521 0.23301 0.81861 0.0
C1754 C 0.23213 0.24873 0.97022 0.0
C1755 C 0.21322 0.24411 0.97454 0.0
C1756 C 0.23821 0.24359 0.93725 0.0
C1757 C 0.2254 0.23299 0.90836 0.0
C1758 C 0.2064 0.22786 0.9134 0.0
C1759 C 0.20046 0.23343 0.94569 0.0
H1760 H 0.81517 0.03288 0.82625 0.0
H1761 H 0.75851 0.02118 0.80653 0.0
H1762 H 0.80484 0.01355 0.88304 0.0
H1763 H 0.74824 0.00258 0.8651 0.0
H1764 H 0.74449 0.98554 0.99634 0.0
H1765 H 0.75268 0.00485 0.93842 0.0
H1766 H 0.78492 0.97981 0.89925 0.0
H1767 H 0.7764 0.96039 0.95574 0.0
C1768 C 0.80043 0.0262 0.83395 0.0
C1769 C 0.78774 0.02886 0.81156 0.0
C1770 C 0.79449 0.01507 0.86678 0.0
C1771 C 0.77563 0.00632 0.87899 0.0
C1772 C 0.76286 0.00904 0.85683 0.0
C1773 C 0.76878 0.01987 0.82324 0.0
C1774 C 0.75308 0.98398 0.9751 0.0
C1775 C 0.75955 0.97116 0.98086 0.0
C1776 C 0.75786 0.99513 0.9419 0.0
C1777 C 0.76956 0.99402 0.91393 0.0
C1778 C 0.77608 0.9813 0.92008 0.0
C1779 C 0.77116 0.9701 0.95276 0.0
H1780 H 0.01681 0.7596 0.98933 0.0
H1781 H 0.0345 0.81702 0.95956 0.0
H1782 H 0.99783 0.74884 0.93153 0.0
H1783 H 0.0142 0.80619 0.90404 0.0
H1784 H 0.98026 0.74184 0.80033 0.0
H1785 H 0.0001 0.75086 0.85719 0.0
H1786 H 0.97932 0.78771 0.89013 0.0
H1787 H 0.9588 0.77789 0.83497 0.0
C1788 C 0.0167 0.76992 0.97058 0.0
C1789 C 0.02768 0.78922 0.97902 0.0
C1790 C 0.00551 0.76372 0.93756 0.0
C1791 C 0.00416 0.77654 0.91295 0.0
C1792 C 0.01469 0.7958 0.92217 0.0
C1793 C 0.02635 0.80202 0.95429 0.0
C1794 C 0.97969 0.75161 0.81999 0.0
C1795 C 0.96754 0.75878 0.81307 0.0
C1796 C 0.99125 0.75695 0.85256 0.0
C1797 C 0.9915 0.77014 0.87853 0.0
C1798 C 0.9797 0.77763 0.87092 0.0
C1799 C 0.96788 0.77198 0.83903 0.0
H1800 H 0.05065 0.39701 0.96808 0.0
H1801 H 0.9923 0.35984 0.99783 0.0
H1802 H 0.04243 0.39058 0.90121 0.0
H1803 H 0.98433 0.35314 0.93141 0.0
H1804 H 0.97682 0.34074 0.80488 0.0
H1805 H 0.98887 0.34065 0.86853 0.0
H1806 H 0.02297 0.4013 0.86452 0.0
H1807 H 0.01096 0.40134 0.80162 0.0
C1808 C 0.03617 0.38722 0.96046 0.0
C1809 C 0.02208 0.37925 0.98832 0.0
C1810 C 0.0315 0.38347 0.92223 0.0
C1811 C 0.0127 0.37155 0.91119 0.0
C1812 C 0.99895 0.36228 0.9391 0.0
C1813 C 0.00357 0.36614 0.97727 0.0
C1814 C 0.98702 0.35397 0.81767 0.0
C1815 C 0.9928 0.37107 0.79878 0.0
C1816 C 0.99391 0.35393 0.8539 0.0
C1817 C 0.00695 0.37096 0.8713 0.0
C1818 C 0.01317 0.38794 0.85163 0.0
C1819 C 0.0061 0.388 0.81587 0.0
H1820 H 0.59496 0.60633 0.97671 0.0
H1821 H 0.6383 0.66478 0.98436 0.0
H1822 H 0.60638 0.60431 0.91429 0.0
H1823 H 0.64958 0.6628 0.92092 0.0
H1824 H 0.63511 0.645 0.78526 0.0
H1825 H 0.63136 0.65298 0.84971 0.0
H1826 H 0.64094 0.60922 0.89228 0.0
H1827 H 0.64574 0.60172 0.82791 0.0
C1828 C 0.60674 0.61884 0.96471 0.0
C1829 C 0.61566 0.63577 0.98514 0.0
C1830 C 0.6134 0.6176 0.92928 0.0
C1831 C 0.62898 0.63333 0.91328 0.0
C1832 C 0.63762 0.65048 0.93299 0.0
C1833 C 0.63116 0.65162 0.969 0.0
C1834 C 0.63724 0.63755 0.80825 0.0
C1835 C 0.64042 0.62245 0.80121 0.0
C1836 C 0.63497 0.64211 0.84518 0.0
C1837 C 0.63561 0.63152 0.87562 0.0
C1838 C 0.6402 0.61743 0.86901 0.0
C1839 C 0.6428 0.61307 0.83218 0.0
H1840 H 0.40034 0.03922 1.01206 0.0
H1841 H 0.34847 0.98948 0.98012 0.0
H1842 H 0.40463 0.05065 0.94708 0.0
H1843 H 0.35276 0.00094 0.91513 0.0
H1844 H 0.36342 0.02916 0.80052 0.0
H1845 H 0.35631 0.02588 0.86825 0.0
H1846 H 0.41268 0.03728 0.89219 0.0
H1847 H 0.41959 0.0399 0.82534 0.0
C1848 C 0.38971 0.03088 0.99126 0.0
C1849 C 0.37426 0.0133 1.00099 0.0
C1850 C 0.39214 0.03745 0.95413 0.0
C1851 C 0.37917 0.02657 0.92595 0.0
C1852 C 0.36293 0.00971 0.93629 0.0
C1853 C 0.36049 0.00312 0.97351 0.0
C1854 C 0.37432 0.03107 0.8203 0.0
C1855 C 0.39203 0.0346 0.80732 0.0
C1856 C 0.37026 0.02929 0.85903 0.0
C1857 C 0.38393 0.03129 0.88549 0.0
C1858 C 0.40194 0.03595 0.87259 0.0
C1859 C 0.40591 0.0375 0.83406 0.0
H1860 H 0.96178 0.58566 0.32159 0.0
H1861 H 0.9962 0.64447 0.29107 0.0
H1862 H 0.96712 0.59407 0.3877 0.0
H1863 H 0.00254 0.65255 0.35804 0.0
H1864 H 0.0293 0.63998 0.4725 0.0
H1865 H 0.02072 0.64103 0.40677 0.0
H1866 H 0.96224 0.61525 0.43879 0.0
H1867 H 0.97076 0.61476 0.50468 0.0
C1868 C 0.9701 0.60044 0.32868 0.0
C1869 C 0.97863 0.61433 0.30051 0.0
C1870 C 0.97324 0.60522 0.3668 0.0
C1871 C 0.98527 0.62393 0.3778 0.0
C1872 C 0.99328 0.638 0.35008 0.0
C1873 C 0.98977 0.63329 0.31178 0.0
C1874 C 0.01471 0.6352 0.46581 0.0
C1875 C 0.00065 0.62684 0.49364 0.0
C1876 C 0.00981 0.63582 0.42818 0.0
C1877 C 0.99081 0.62799 0.41788 0.0
C1878 C 0.97697 0.62119 0.44611 0.0
C1879 C 0.98186 0.62078 0.48369 0.0
H1880 H 0.36528 0.34406 0.30682 0.0
H1881 H 0.3926 0.40473 0.30938 0.0
H1882 H 0.35175 0.34261 0.3696 0.0
H1883 H 0.37914 0.40333 0.37139 0.0
H1884 H 0.34581 0.39778 0.47243 0.0
H1885 H 0.34801 0.39203 0.40537 0.0
H1886 H 0.36746 0.3535 0.43441 0.0
H1887 H 0.36579 0.35953 0.50103 0.0
C1888 C 0.36822 0.35702 0.32067 0.0
C1889 C 0.38019 0.37452 0.30366 0.0
C1890 C 0.36048 0.3562 0.35642 0.0
C1891 C 0.36426 0.37285 0.37518 0.0
C1892 C 0.37571 0.39025 0.35739 0.0
C1893 C 0.38364 0.39107 0.32216 0.0
C1894 C 0.35021 0.38781 0.46452 0.0
C1895 C 0.35604 0.37947 0.49213 0.0
C1896 C 0.3514 0.38448 0.42616 0.0
C1897 C 0.35822 0.37258 0.41476 0.0
C1898 C 0.36209 0.36269 0.44236 0.0
C1899 C 0.36107 0.36614 0.48067 0.0
H1900 H 0.63792 0.98075 0.27964 0.0
H1901 H 0.59379 0.99447 0.29153 0.0
H1902 H 0.63248 0.96902 0.34489 0.0
H1903 H 0.58883 0.98364 0.35632 0.0
H1904 H 0.57282 0.95434 0.46242 0.0
H1905 H 0.57687 0.95714 0.39494 0.0
H1906 H 0.63677 0.97988 0.40847 0.0
H1907 H 0.63251 0.97517 0.4763 0.0
C1908 C 0.62706 0.9812 0.29625 0.0
C1909 C 0.61609 0.98825 0.28055 0.0
C1910 C 0.62397 0.97456 0.33355 0.0
C1911 C 0.61003 0.97512 0.35583 0.0
C1912 C 0.59923 0.98234 0.33983 0.0
C1913 C 0.60214 0.98869 0.30267 0.0
C1914 C 0.58681 0.95924 0.45137 0.0
C1915 C 0.60239 0.96483 0.47544 0.0
C1916 C 0.58918 0.96121 0.41235 0.0
C1917 C 0.60723 0.96935 0.39623 0.0
C1918 C 0.62265 0.97367 0.41985 0.0
C1919 C 0.62022 0.97125 0.45898 0.0
H1920 H 0.71125 0.72994 0.30643 0.0
H1921 H 0.65319 0.69272 0.3383 0.0
H1922 H 0.70234 0.72354 0.23989 0.0
H1923 H 0.64464 0.68586 0.27204 0.0
H1924 H 0.63931 0.67392 0.14206 0.0
H1925 H 0.65078 0.67364 0.20636 0.0
H1926 H 0.68045 0.73444 0.20753 0.0
H1927 H 0.6688 0.73467 0.14426 0.0
C1928 C 0.6967 0.72011 0.29938 0.0
C1929 C 0.68288 0.71222 0.32778 0.0
C1930 C 0.69166 0.71636 0.26133 0.0
C1931 C 0.67278 0.7044 0.251 0.0
C1932 C 0.6593 0.69506 0.27932 0.0
C1933 C 0.66427 0.699 0.31736 0.0
C1934 C 0.64831 0.68714 0.15626 0.0
C1935 C 0.65305 0.70431 0.13865 0.0
C1936 C 0.65488 0.68699 0.19278 0.0
C1937 C 0.66669 0.70403 0.21153 0.0
C1938 C 0.67164 0.72113 0.19344 0.0
C1939 C 0.6648 0.72126 0.15751 0.0
H1940 H 0.29311 0.97044 0.1215 0.0
H1941 H 0.31835 0.93651 0.14821 0.0
H1942 H 0.29332 0.97778 0.1879 0.0
H1943 H 0.31829 0.94373 0.21521 0.0
H1944 H 0.27834 0.93149 0.31945 0.0
H1945 H 0.28993 0.93187 0.25604 0.0
H1946 H 0.31058 0.99166 0.24823 0.0
H1947 H 0.29871 0.99118 0.31221 0.0
C1948 C 0.2993 0.96503 0.14136 0.0
C1949 C 0.3054 0.95258 0.12958 0.0
C1950 C 0.29942 0.96928 0.17954 0.0
C1951 C 0.30555 0.96111 0.20679 0.0
C1952 C 0.31316 0.94995 0.19479 0.0
C1953 C 0.31311 0.94575 0.15651 0.0
C1954 C 0.28546 0.94474 0.30426 0.0
C1955 C 0.28737 0.96124 0.32032 0.0
C1956 C 0.29236 0.94502 0.26818 0.0
C1957 C 0.30123 0.96181 0.24721 0.0
C1958 C 0.30377 0.97852 0.26379 0.0
C1959 C 0.29701 0.97826 0.30026 0.0
H1960 H 0.00961 0.30977 0.31249 0.0
H1961 H 0.04439 0.28431 0.29775 0.0
H1962 H 0.00966 0.31402 0.24442 0.0
H1963 H 0.0427 0.28675 0.2302 0.0
H1964 H 0.06583 0.32469 0.12762 0.0
H1965 H 0.05913 0.31344 0.19204 0.0
H1966 H 0.00224 0.30316 0.18055 0.0
H1967 H 0.00933 0.31513 0.11553 0.0
C1968 C 0.01696 0.30474 0.29489 0.0
C1969 C 0.02753 0.29728 0.31108 0.0
C1970 C 0.0167 0.30689 0.25569 0.0
C1971 C 0.02668 0.30125 0.23185 0.0
C1972 C 0.03541 0.29187 0.2478 0.0
C1973 C 0.03607 0.29014 0.28685 0.0
C1974 C 0.05178 0.31972 0.13856 0.0
C1975 C 0.03804 0.32059 0.11645 0.0
C1976 C 0.04786 0.31315 0.17555 0.0
C1977 C 0.03001 0.30706 0.19147 0.0
C1978 C 0.01615 0.30779 0.16924 0.0
C1979 C 0.02017 0.3146 0.13207 0.0
H1980 H 0.65831 0.96527 0.64153 0.0
H1981 H 0.70238 0.95372 0.60967 0.0
H1982 H 0.67204 0.97462 0.70416 0.0
H1983 H 0.71611 0.96303 0.67271 0.0
H1984 H 0.7102 0.94863 0.80208 0.0
H1985 H 0.70533 0.94792 0.73443 0.0
H1986 H 0.69885 0.99691 0.74301 0.0
H1987 H 0.70386 0.9977 0.81116 0.0
C1988 C 0.6712 0.96517 0.64757 0.0
C1989 C 0.67915 0.95859 0.62069 0.0
C1990 C 0.67911 0.97058 0.68352 0.0
C1991 C 0.69513 0.9695 0.69346 0.0
C1992 C 0.70362 0.96378 0.66602 0.0
C1993 C 0.69572 0.95839 0.63 0.0
C1994 C 0.70836 0.95966 0.78955 0.0
C1995 C 0.70727 0.97316 0.81222 0.0
C1996 C 0.70554 0.95923 0.75061 0.0
C1997 C 0.70152 0.97225 0.73338 0.0
C1998 C 0.70162 0.98649 0.7556 0.0
C1999 C 0.70449 0.98695 0.79463 0.0
H2000 H 0.03434 0.69399 0.63898 0.0
H2001 H 0.04622 0.75013 0.61061 0.0
H2002 H 0.02447 0.69735 0.70195 0.0
H2003 H 0.0363 0.7535 0.67378 0.0
H2004 H 0.0507 0.76068 0.80237 0.0
H2005 H 0.05152 0.75692 0.73482 0.0
H2006 H 0.00214 0.70161 0.74217 0.0
H2007 H 0.00107 0.7055 0.81057 0.0
C2008 C 0.03441 0.70688 0.64587 0.0
C2009 C 0.04129 0.72189 0.61996 0.0
C2010 C 0.02868 0.70878 0.68197 0.0
C2011 C 0.02971 0.72574 0.69293 0.0
C2012 C 0.03561 0.74036 0.66631 0.0
C2013 C 0.04136 0.73847 0.63023 0.0
C2014 C 0.03958 0.74794 0.78967 0.0
C2015 C 0.02586 0.73334 0.81207 0.0
C2016 C 0.04009 0.74578 0.75074 0.0
C2017 C 0.02696 0.72893 0.73312 0.0
C2018 C 0.0126 0.71466 0.75509 0.0
C2019 C 0.01202 0.71687 0.79421 0.0
H2020 H 0.3273 0.35052 0.83726 0.0
H2021 H 0.27109 0.34154 0.82431 0.0
H2022 H 0.33506 0.36346 0.77304 0.0
H2023 H 0.2783 0.35347 0.76031 0.0
H2024 H 0.294 0.38361 0.65548 0.0
H2025 H 0.29451 0.37998 0.7228 0.0
H2026 H 0.32902 0.35428 0.70901 0.0
H2027 H 0.33035 0.35985 0.64147 0.0
C2028 C 0.31666 0.35135 0.8206 0.0
C2029 C 0.29868 0.34526 0.83572 0.0
C2030 C 0.32104 0.35868 0.78386 0.0
C2031 C 0.3074 0.35976 0.76146 0.0
C2032 C 0.28942 0.35352 0.7769 0.0
C2033 C 0.28518 0.34652 0.81359 0.0
C2034 C 0.30241 0.37789 0.66642 0.0
C2035 C 0.31182 0.37166 0.64227 0.0
C2036 C 0.30234 0.37543 0.70539 0.0
C2037 C 0.31117 0.36615 0.72138 0.0
C2038 C 0.32189 0.36133 0.69778 0.0
C2039 C 0.32238 0.36425 0.65875 0.0
H2040 H 0.32937 0.01579 0.6635 0.0
H2041 H 0.36884 0.0734 0.63171 0.0
H2042 H 0.3225 0.00758 0.5967 0.0
H2043 H 0.36279 0.06478 0.56576 0.0
H2044 H 0.35648 0.04414 0.44916 0.0
H2045 H 0.36479 0.04292 0.51489 0.0
H2046 H 0.30666 0.02 0.54736 0.0
H2047 H 0.29832 0.02162 0.48166 0.0
C2048 C 0.33679 0.02666 0.64252 0.0
C2049 C 0.34952 0.04537 0.65337 0.0
C2050 C 0.33294 0.02186 0.6043 0.0
C2051 C 0.34214 0.03554 0.57622 0.0
C2052 C 0.3557 0.05388 0.58687 0.0
C2053 C 0.35924 0.05878 0.6249 0.0
C2054 C 0.3454 0.03853 0.47022 0.0
C2055 C 0.32684 0.03348 0.46045 0.0
C2056 C 0.35017 0.03774 0.50773 0.0
C2057 C 0.33641 0.03165 0.53612 0.0
C2058 C 0.31751 0.02471 0.5259 0.0
C2059 C 0.31275 0.02565 0.4883 0.0
H2060 H 0.9941 0.30468 0.47081 0.0
H2061 H 0.93379 0.26833 0.47636 0.0
H2062 H 0.99373 0.31681 0.53438 0.0
H2063 H 0.93337 0.28047 0.53882 0.0
H2064 H 0.93347 0.3137 0.63521 0.0
H2065 H 0.9408 0.31237 0.56876 0.0
H2066 H 0.98412 0.29997 0.60157 0.0
H2067 H 0.97658 0.30085 0.66791 0.0
C2068 C 0.98083 0.29939 0.4856 0.0
C2069 C 0.964 0.28543 0.46913 0.0
C2070 C 0.98061 0.30633 0.52169 0.0
C2071 C 0.96349 0.29975 0.54113 0.0
C2072 C 0.94671 0.28604 0.52419 0.0
C2073 C 0.94698 0.27889 0.48872 0.0
C2074 C 0.94484 0.3111 0.62826 0.0
C2075 C 0.95411 0.3069 0.65674 0.0
C2076 C 0.94907 0.31042 0.5903 0.0
C2077 C 0.96278 0.30574 0.5802 0.0
C2078 C 0.97351 0.30365 0.60866 0.0
C2079 C 0.96918 0.30418 0.64667 0.0
H2080 H 0.6746 0.61182 0.64157 0.0
H2081 H 0.70105 0.67198 0.65722 0.0
H2082 H 0.67148 0.61587 0.57402 0.0
H2083 H 0.69795 0.67602 0.59026 0.0
H2084 H 0.68723 0.68016 0.46913 0.0
H2085 H 0.67846 0.67101 0.53501 0.0
H2086 H 0.69518 0.62894 0.52432 0.0
H2087 H 0.70333 0.63766 0.4584 0.0
C2088 C 0.6795 0.62585 0.63073 0.0
C2089 C 0.68827 0.64157 0.65476 0.0
C2090 C 0.6777 0.62818 0.59206 0.0
C2091 C 0.68464 0.64629 0.57664 0.0
C2092 C 0.69223 0.66185 0.60115 0.0
C2093 C 0.69402 0.65952 0.6397 0.0
C2094 C 0.68855 0.66862 0.48062 0.0
C2095 C 0.69623 0.65981 0.45878 0.0
C2096 C 0.68366 0.66348 0.51842 0.0
C2097 C 0.6863 0.64938 0.53507 0.0
C2098 C 0.69282 0.63975 0.51241 0.0
C2099 C 0.69773 0.64492 0.47473 0.0
H2100 H 0.29497 0.24655 0.98929 0.0
H2101 H 0.31536 0.30557 0.96712 0.0
H2102 H 0.29957 0.25303 0.0562 0.0
H2103 H 0.32031 0.31202 1.03466 0.0
H2104 H 0.35586 0.31386 0.14208 0.0
H2105 H 0.34375 0.31094 0.07815 0.0
H2106 H 0.29043 0.26393 0.11334 0.0
H2107 H 0.30253 0.2669 0.17755 0.0
C2108 C 0.29986 0.26083 0.99857 0.0
C2109 C 0.30477 0.27551 0.97244 0.0
C2110 C 0.30254 0.26454 0.03716 0.0
C2111 C 0.31034 0.28304 0.05066 0.0
C2112 C 0.31442 0.29764 1.02494 0.0
C2113 C 0.31161 0.29391 0.98622 0.0
C2114 C 0.34138 0.30323 0.13647 0.0
C2115 C 0.33023 0.29042 0.16469 0.0
C2116 C 0.33442 0.3016 0.09983 0.0
C2117 C 0.3162 0.2871 0.09072 0.0
C2118 C 0.30463 0.27507 0.1195 0.0
C2119 C 0.31157 0.27672 0.15615 0.0
H2120 H 0.73307 0.01102 0.98643 0.0
H2121 H 0.69295 0.02868 0.95816 0.0
H2122 H 0.72738 0.01316 0.05353 0.0
H2123 H 0.68698 0.03026 1.02476 0.0
H2124 H 0.67714 0.02783 0.15132 0.0
H2125 H 0.67651 0.01447 0.08894 0.0
H2126 H 0.73732 0.04371 0.08822 0.0
H2127 H 0.7379 0.05694 0.15007 0.0
C2128 C 0.72275 0.01492 0.99441 0.0
C2129 C 0.71379 0.02006 0.96683 0.0
C2130 C 0.71944 0.01607 1.0328 0.0
C2131 C 0.70696 0.02216 0.04428 0.0
C2132 C 0.69661 0.02543 1.01676 0.0
C2133 C 0.70003 0.02446 0.97844 0.0
C2134 C 0.69031 0.03121 0.13787 0.0
C2135 C 0.70757 0.04366 0.15513 0.0
C2136 C 0.68996 0.02357 0.1023 0.0
C2137 C 0.70687 0.02797 0.08387 0.0
C2138 C 0.72406 0.03983 0.10194 0.0
C2139 C 0.7244 0.04764 0.13708 0.0
H2140 H 0.95355 0.713 0.98982 0.0
H2141 H 0.99808 0.6997 0.97609 0.0
H2142 H 0.95381 0.70859 0.05689 0.0
H2143 H 0.99687 0.69342 0.04378 0.0
H2144 H 0.99321 0.69094 0.17534 0.0
H2145 H 0.00036 0.70337 0.11042 0.0
H2146 H 0.94077 0.67927 0.08909 0.0
H2147 H 0.93387 0.66752 0.15325 0.0
C2148 C 0.96373 0.70951 1.00087 0.0
C2149 C 0.97554 0.70634 0.97689 0.0
C2150 C 0.96358 0.70662 0.03961 0.0
C2151 C 0.97482 0.69994 0.0555 0.0
C2152 C 0.98785 0.69833 1.03232 0.0
C2153 C 0.98831 0.70166 0.99338 0.0
C2154 C 0.98175 0.68843 0.15655 0.0
C2155 C 0.96302 0.67861 0.16934 0.0
C2156 C 0.98582 0.6955 0.11952 0.0
C2157 C 0.97116 0.6927 0.09487 0.0
C2158 C 0.95246 0.68232 0.10766 0.0
C2159 C 0.94846 0.67547 0.1444 0.0
H2160 H 0.06748 0.55468 0.94231 0.0
H2161 H 0.08556 0.51928 0.88812 0.0
H2162 H 0.06387 0.53824 1.00182 0.0
H2163 H 0.08191 0.50282 0.94766 0.0
H2164 H 0.0566 0.46513 0.05297 0.0
H2165 H 0.0601 0.48127 0.99288 0.0
H2166 H 0.08048 0.5339 0.0523 0.0
H2167 H 0.07664 0.51772 0.11224 0.0
C2168 C 0.07087 0.54352 0.94298 0.0
C2169 C 0.07688 0.53849 0.90987 0.0
C2170 C 0.06879 0.53401 0.97738 0.0
C2171 C 0.07262 0.51909 0.9801 0.0
C2172 C 0.07852 0.51398 0.94695 0.0
C2173 C 0.08062 0.5235 0.91253 0.0
C2174 C 0.06187 0.48016 0.0533 0.0
C2175 C 0.0663 0.49002 0.08784 0.0
C2176 C 0.06398 0.4895 1.01862 0.0
C2177 C 0.07055 0.50903 1.01723 0.0
C2178 C 0.07509 0.51886 0.05184 0.0
C2179 C 0.07303 0.50954 0.08645 0.0
H2180 H 0.48226 0.5569 0.11694 0.0
H2181 H 0.53381 0.59223 0.05623 0.0
H2182 H 0.46597 0.54397 0.05737 0.0
H2183 H 0.51743 0.57966 0.99648 0.0
H2184 H 0.48751 0.53995 0.89677 0.0
H2185 H 0.50383 0.55303 0.95627 0.0
H2186 H 0.45344 0.54963 1.00209 0.0
H2187 H 0.43712 0.53643 0.94269 0.0
C2188 C 0.49013 0.56208 0.09089 0.0
C2189 C 0.50945 0.57568 0.09177 0.0
C2190 C 0.48071 0.55469 0.05645 0.0
C2191 C 0.49023 0.56064 1.02154 0.0
C2192 C 0.50954 0.57438 1.02248 0.0
C2193 C 0.51898 0.58174 0.05695 0.0
C2194 C 0.47989 0.5421 0.91936 0.0
C2195 C 0.46086 0.53701 0.91446 0.0
C2196 C 0.48932 0.54969 0.95374 0.0
C2197 C 0.48011 0.55253 0.98455 0.0
C2198 C 0.46107 0.54743 0.97959 0.0
C2199 C 0.45163 0.53981 0.94526 0.0
H2200 H 0.40211 0.9443 0.0458 0.0
H2201 H 0.45044 0.94809 0.10263 0.0
H2202 H 0.41438 0.94065 0.98523 0.0
H2203 H 0.46253 0.94421 0.04253 0.0
H2204 H 0.4887 0.95493 0.92432 0.0
H2205 H 0.47641 0.95942 0.98368 0.0
H2206 H 0.41996 0.91896 0.94862 0.0
H2207 H 0.43222 0.91426 0.88944 0.0
C2208 C 0.41534 0.94436 0.04547 0.0
C2209 C 0.42518 0.94645 0.0794 0.0
C2210 C 0.42236 0.94213 1.01064 0.0
C2211 C 0.43954 0.9421 1.00856 0.0
C2212 C 0.44941 0.94436 0.04256 0.0
C2213 C 0.44234 0.94643 0.0773 0.0
C2214 C 0.47367 0.9468 0.92922 0.0
C2215 C 0.46158 0.93417 0.90151 0.0
C2216 C 0.46657 0.94942 0.9635 0.0
C2217 C 0.4471 0.93958 0.9714 0.0
C2218 C 0.43499 0.92707 0.94362 0.0
C2219 C 0.44209 0.92438 0.90941 0.0
H2220 H 0.51696 0.07001 0.67426 0.0
H2221 H 0.46546 0.05592 0.733 0.0
H2222 H 0.53232 0.07204 0.73463 0.0
H2223 H 0.48086 0.05842 0.79327 0.0
H2224 H 0.50725 0.04566 0.89449 0.0
H2225 H 0.49237 0.04382 0.83384 0.0
H2226 H 0.54502 0.089 0.79111 0.0
H2227 H 0.55993 0.09065 0.85169 0.0
C2228 C 0.50893 0.06755 0.70003 0.0
C2229 C 0.48989 0.06277 0.69838 0.0
C2230 C 0.5178 0.06878 0.73491 0.0
C2231 C 0.50796 0.06533 0.76944 0.0
C2232 C 0.48896 0.06083 0.76765 0.0
C2233 C 0.4801 0.05953 0.73282 0.0
C2234 C 0.51568 0.05532 0.87232 0.0
C2235 C 0.5349 0.06832 0.8785 0.0
C2236 C 0.50708 0.05429 0.83727 0.0
C2237 C 0.51732 0.0663 0.80699 0.0
C2238 C 0.53658 0.07926 0.81315 0.0
C2239 C 0.5452 0.08022 0.84818 0.0
H2240 H 0.92352 0.44065 0.67331 0.0
H2241 H 0.94449 0.40892 0.73274 0.0
H2242 H 0.91975 0.45307 0.73307 0.0
H2243 H 0.94031 0.42103 0.79284 0.0
H2244 H 0.94795 0.46064 0.89224 0.0
H2245 H 0.95182 0.44791 0.83281 0.0
H2246 H 0.9018 0.44607 0.78904 0.0
H2247 H 0.89799 0.45883 0.84829 0.0
C2248 C 0.92721 0.43616 0.69913 0.0
C2249 C 0.93432 0.42368 0.69779 0.0
C2250 C 0.92493 0.44325 0.73371 0.0
C2251 C 0.92964 0.43814 0.76839 0.0
C2252 C 0.93672 0.4256 0.76702 0.0
C2253 C 0.93902 0.41851 0.73236 0.0
C2254 C 0.93765 0.4574 0.87013 0.0
C2255 C 0.92266 0.46094 0.87556 0.0
C2256 C 0.93987 0.45002 0.83579 0.0
C2257 C 0.92718 0.44587 0.80551 0.0
C2258 C 0.91215 0.44934 0.81105 0.0
C2259 C 0.90995 0.45673 0.84534 0.0
H2260 H 0.51294 0.44528 0.84557 0.0
H2261 H 0.56628 0.48156 0.89962 0.0
H2262 H 0.52545 0.46199 0.78607 0.0
H2263 H 0.579 0.49774 0.83987 0.0
H2264 H 0.59121 0.53546 0.73528 0.0
H2265 H 0.5785 0.51917 0.79511 0.0
H2266 H 0.54641 0.46667 0.73517 0.0
H2267 H 0.55883 0.48304 0.67534 0.0
C2268 C 0.52733 0.45684 0.84497 0.0
C2269 C 0.53849 0.4619 0.87791 0.0
C2270 C 0.53463 0.46634 0.81047 0.0
C2271 C 0.55337 0.48132 0.8076 0.0
C2272 C 0.56448 0.48647 0.84062 0.0
C2273 C 0.5572 0.47695 0.87506 0.0
C2274 C 0.58147 0.52043 0.73475 0.0
C2275 C 0.57613 0.51067 0.70009 0.0
C2276 C 0.57421 0.511 0.7693 0.0
C2277 C 0.56129 0.49146 0.7705 0.0
C2278 C 0.55604 0.48171 0.73577 0.0
C2279 C 0.56334 0.49114 0.70124 0.0
H2280 H 0.9412 0.53184 0.23173 0.0
H2281 H 0.92002 0.47884 0.17339 0.0
H2282 H 0.93825 0.51606 0.2919 0.0
H2283 H 0.91675 0.46298 0.23366 0.0
H2284 H 0.93238 0.44385 0.34345 0.0
H2285 H 0.93469 0.45944 0.28338 0.0
H2286 H 0.91648 0.4947 0.33769 0.0
H2287 H 0.91405 0.47906 0.39772 0.0
C2288 C 0.93575 0.51678 0.23165 0.0
C2289 C 0.93084 0.5067 0.19738 0.0
C2290 C 0.93397 0.50766 0.26638 0.0
C2291 C 0.92728 0.48814 0.26806 0.0
C2292 C 0.92221 0.47804 0.23375 0.0
C2293 C 0.92392 0.48715 0.19903 0.0
C2294 C 0.92867 0.45479 0.34268 0.0
C2295 C 0.92302 0.46007 0.37594 0.0
C2296 C 0.93 0.46379 0.30799 0.0
C2297 C 0.92577 0.47843 0.30525 0.0
C2298 C 0.92016 0.48374 0.33849 0.0
C2299 C 0.91879 0.47472 0.37316 0.0
H2300 H 0.55585 0.4903 0.34534 0.0
H2301 H 0.52262 0.4358 0.3978 0.0
H2302 H 0.54046 0.47714 0.28502 0.0
H2303 H 0.50717 0.42274 0.33766 0.0
H2304 H 0.4689 0.4102 0.23399 0.0
H2305 H 0.485 0.42304 0.29372 0.0
H2306 H 0.53741 0.45616 0.23394 0.0
H2307 H 0.52118 0.44349 0.17392 0.0
C2308 C 0.5454 0.47547 0.34412 0.0
C2309 C 0.54054 0.46423 0.37697 0.0
C2310 C 0.53652 0.46789 0.30931 0.0
C2311 C 0.52244 0.44881 0.30611 0.0
C2312 C 0.51766 0.43756 0.33888 0.0
C2313 C 0.52656 0.44511 0.37362 0.0
C2314 C 0.48388 0.42016 0.23343 0.0
C2315 C 0.49367 0.42573 0.19882 0.0
C2316 C 0.49319 0.42749 0.26791 0.0
C2317 C 0.51261 0.44072 0.26904 0.0
C2318 C 0.52244 0.4462 0.23441 0.0
C2319 C 0.51313 0.43878 0.19987 0.0
H2320 H 0.54717 0.05442 0.17726 0.0
H2321 H 0.59439 0.05666 0.23583 0.0
H2322 H 0.53465 0.0581 0.23689 0.0
H2323 H 0.58208 0.06083 0.29582 0.0
H2324 H 0.54617 0.05167 0.40259 0.0
H2325 H 0.55859 0.04698 0.34349 0.0
H2326 H 0.53866 0.07974 0.28443 0.0
H2327 H 0.52614 0.08425 0.34334 0.0
C2328 C 0.555 0.05581 0.20286 0.0
C2329 C 0.57191 0.05531 0.20136 0.0
C2330 C 0.54783 0.05805 0.23732 0.0
C2331 C 0.55731 0.05998 0.27173 0.0
C2332 C 0.57414 0.05922 0.27028 0.0
C2333 C 0.5813 0.05689 0.23569 0.0
C2334 C 0.54451 0.058 0.37708 0.0
C2335 C 0.53499 0.06832 0.3782 0.0
C2336 C 0.55172 0.05532 0.34294 0.0
C2337 C 0.54971 0.06289 0.30859 0.0
C2338 C 0.54025 0.07328 0.30981 0.0
C2339 C 0.53301 0.07591 0.34388 0.0
H2340 H 0.48361 0.93528 0.6065 0.0
H2341 H 0.53479 0.94644 0.54994 0.0
H2342 H 0.46907 0.93389 0.54548 0.0
H2343 H 0.52036 0.94534 0.48893 0.0
H2344 H 0.48264 0.92371 0.3833 0.0
H2345 H 0.49714 0.92493 0.44407 0.0
H2346 H 0.46929 0.95267 0.49308 0.0
H2347 H 0.45489 0.95163 0.43216 0.0
C2348 C 0.4918 0.9374 0.58109 0.0
C2349 C 0.51044 0.94093 0.5835 0.0
C2350 C 0.48347 0.93677 0.5459 0.0
C2351 C 0.49343 0.93953 0.51179 0.0
C2352 C 0.51205 0.94291 0.51426 0.0
C2353 C 0.52042 0.94365 0.54947 0.0
C2354 C 0.47973 0.93031 0.40677 0.0
C2355 C 0.46748 0.9376 0.40218 0.0
C2356 C 0.48809 0.93099 0.44193 0.0
C2357 C 0.4845 0.9389 0.47399 0.0
C2358 C 0.47225 0.94617 0.46947 0.0
C2359 C 0.46392 0.94556 0.43426 0.0
H2360 H 0.04777 0.53131 0.39922 0.0
H2361 H 0.10299 0.54231 0.4326 0.0
H2362 H 0.04455 0.54403 0.45917 0.0
H2363 H 0.09976 0.555 0.49256 0.0
H2364 H 0.08042 0.55985 0.61222 0.0
H2365 H 0.08396 0.54728 0.55223 0.0
H2366 H 0.0553 0.57226 0.4949 0.0
H2367 H 0.05148 0.58451 0.55493 0.0
C2368 C 0.05934 0.53658 0.4191 0.0
C2369 C 0.07566 0.53568 0.41058 0.0
C2370 C 0.05748 0.54393 0.45372 0.0
C2371 C 0.07188 0.55067 0.48116 0.0
C2372 C 0.08818 0.54973 0.47268 0.0
C2373 C 0.09004 0.54238 0.43806 0.0
C2374 C 0.07493 0.56276 0.58684 0.0
C2375 C 0.06563 0.57326 0.58877 0.0
C2376 C 0.07704 0.55557 0.5522 0.0
C2377 C 0.0699 0.55861 0.51827 0.0
C2378 C 0.06075 0.56927 0.52025 0.0
C2379 C 0.05866 0.57646 0.55485 0.0
H2380 H 0.46292 0.56269 0.44051 0.0
H2381 H 0.46119 0.51241 0.39887 0.0
H2382 H 0.44948 0.54692 0.50037 0.0
H2383 H 0.44789 0.49668 0.45876 0.0
H2384 H 0.40789 0.46693 0.55699 0.0
H2385 H 0.42063 0.48309 0.49719 0.0
H2386 H 0.455 0.53512 0.55727 0.0
H2387 H 0.44189 0.519 0.61707 0.0
C2388 C 0.45989 0.54833 0.44415 0.0
C2389 C 0.46321 0.53893 0.41442 0.0
C2390 C 0.45212 0.53922 0.4787 0.0
C2391 C 0.44743 0.52037 0.48487 0.0
C2392 C 0.45088 0.51102 0.45519 0.0
C2393 C 0.45859 0.52012 0.42062 0.0
C2394 C 0.4181 0.48185 0.55755 0.0
C2395 C 0.42377 0.49159 0.59218 0.0
C2396 C 0.42557 0.49115 0.52306 0.0
C2397 C 0.43905 0.51053 0.52191 0.0
C2398 C 0.44452 0.5203 0.55659 0.0
C2399 C 0.437 0.511 0.59111 0.0
H2400 H 0.76708 0.89447 0.27276 0.0
H2401 H 0.71583 0.84605 0.23394 0.0
H2402 H 0.76449 0.87859 0.33256 0.0
H2403 H 0.71316 0.83019 0.29384 0.0
H2404 H 0.72246 0.7993 0.39185 0.0
H2405 H 0.7259 0.81525 0.33167 0.0
H2406 H 0.74752 0.86827 0.39023 0.0
H2407 H 0.74448 0.85238 0.45026 0.0
C2408 C 0.75511 0.88051 0.27702 0.0
C2409 C 0.74167 0.87166 0.24812 0.0
C2410 C 0.75362 0.87134 0.31154 0.0
C2411 C 0.7386 0.85297 0.3185 0.0
C2412 C 0.72513 0.84414 0.28961 0.0
C2413 C 0.72665 0.8533 0.25505 0.0
C2414 C 0.72805 0.81439 0.39197 0.0
C2415 C 0.73322 0.82448 0.42623 0.0
C2416 C 0.72989 0.82357 0.35728 0.0
C2417 C 0.73695 0.84316 0.35563 0.0
C2418 C 0.74228 0.85325 0.38994 0.0
C2419 C 0.74046 0.84408 0.42461 0.0
H2420 H 0.14696 0.89845 0.22345 0.0
H2421 H 0.11397 0.84373 0.27517 0.0
H2422 H 0.16295 0.91117 0.28336 0.0
H2423 H 0.12986 0.85653 0.33517 0.0
H2424 H 0.14856 0.88964 0.44652 0.0
H2425 H 0.13265 0.87722 0.38631 0.0
H2426 H 0.18525 0.9108 0.32744 0.0
H2427 H 0.20111 0.92345 0.38765 0.0
C2428 C 0.14319 0.88902 0.24739 0.0
C2429 C 0.12905 0.86995 0.24397 0.0
C2430 C 0.15241 0.89637 0.28198 0.0
C2431 C 0.14778 0.88496 0.31449 0.0
C2432 C 0.13366 0.8659 0.31111 0.0
C2433 C 0.12449 0.85853 0.27649 0.0
C2434 C 0.15676 0.89448 0.42078 0.0
C2435 C 0.17619 0.90763 0.42225 0.0
C2436 C 0.14763 0.8872 0.38609 0.0
C2437 C 0.15758 0.89288 0.35165 0.0
C2438 C 0.17698 0.90618 0.35313 0.0
C2439 C 0.18615 0.91339 0.38785 0.0
H2440 H 0.1389 0.24459 0.26687 0.0
H2441 H 0.13071 0.28963 0.22645 0.0
H2442 H 0.12506 0.24517 0.32748 0.0
H2443 H 0.11706 0.29037 0.28708 0.0
H2444 H 0.07712 0.2763 0.38666 0.0
H2445 H 0.09051 0.27463 0.32641 0.0
H2446 H 0.12875 0.26148 0.38486 0.0
H2447 H 0.11494 0.2627 0.44522 0.0
C2448 C 0.13436 0.2548 0.27092 0.0
C2449 C 0.13599 0.26703 0.24125 0.0
C2450 C 0.12637 0.25514 0.30595 0.0
C2451 C 0.11973 0.26776 0.31272 0.0
C2452 C 0.12154 0.28012 0.28312 0.0
C2453 C 0.12947 0.27973 0.24809 0.0
C2454 C 0.08832 0.27294 0.38679 0.0
C2455 C 0.09486 0.26962 0.42117 0.0
C2456 C 0.09617 0.27213 0.352 0.0
C2457 C 0.11095 0.26806 0.35019 0.0
C2458 C 0.11729 0.26445 0.38462 0.0
C2459 C 0.10936 0.26519 0.41948 0.0
H2460 H 0.21133 0.38521 0.18634 0.0
H2461 H 0.18443 0.4147 0.23151 0.0
H2462 H 0.19413 0.38015 0.12728 0.0
H2463 H 0.16791 0.4104 0.17194 0.0
H2464 H 0.12764 0.38566 0.0711 0.0
H2465 H 0.14356 0.38893 0.13137 0.0
H2466 H 0.19234 0.39529 0.07177 0.0
H2467 H 0.17628 0.39157 1.01183 0.0
C2468 C 0.20173 0.3906 0.1839 0.0
C2469 C 0.19948 0.40046 0.21421 0.0
C2470 C 0.19197 0.3879 0.14958 0.0
C2471 C 0.17954 0.39491 0.1442 0.0
C2472 C 0.17713 0.40458 0.17468 0.0
C2473 C 0.1869 0.40729 0.20896 0.0
C2474 C 0.14174 0.38769 0.07079 0.0
C2475 C 0.15057 0.38836 0.03622 0.0
C2476 C 0.15099 0.38972 0.10555 0.0
C2477 C 0.16941 0.39243 0.10699 0.0
C2478 C 0.17814 0.39297 0.07232 0.0
C2479 C 0.16891 0.39098 0.03765 0.0
H2480 H 0.6064 0.74133 0.06859 0.0
H2481 H 0.58803 0.77541 1.00971 0.0
H2482 H 0.60319 0.7539 0.12878 0.0
H2483 H 0.58524 0.78833 0.06976 0.0
H2484 H 0.56567 0.79577 0.18634 0.0
H2485 H 0.56787 0.7823 0.12655 0.0
H2486 H 0.61687 0.78114 0.16756 0.0
H2487 H 0.61454 0.79447 0.22749 0.0
C2488 C 0.60168 0.75151 0.06838 0.0
C2489 C 0.59746 0.75727 1.034 0.0
C2490 C 0.59996 0.75888 0.10307 0.0
C2491 C 0.59401 0.7723 0.1046 0.0
C2492 C 0.5896 0.77787 0.07015 0.0
C2493 C 0.59127 0.77047 1.03547 0.0
C2494 C 0.57704 0.79282 0.18259 0.0
C2495 C 0.58993 0.79631 0.21211 0.0
C2496 C 0.57832 0.78505 0.14808 0.0
C2497 C 0.59256 0.78052 0.14175 0.0
C2498 C 0.60547 0.78405 0.17128 0.0
C2499 C 0.60416 0.79177 0.20585 0.0
H2500 H 0.23088 0.81131 0.22897 0.0
H2501 H 0.17827 0.77443 0.17298 0.0
H2502 H 0.24419 0.82724 0.16926 0.0
H2503 H 0.1916 0.79038 0.11321 0.0
H2504 H 0.22608 0.81176 1.00402 0.0
H2505 H 0.21353 0.79529 0.06383 0.0
H2506 H 0.24338 0.84813 0.12357 0.0
H2507 H 0.25622 0.86448 0.06401 0.0
C2508 C 0.22202 0.80666 0.20408 0.0
C2509 C 0.20338 0.79148 0.2063 0.0
C2510 C 0.22972 0.81586 0.16958 0.0
C2511 C 0.21908 0.81023 0.13593 0.0
C2512 C 0.20045 0.79502 0.13812 0.0
C2513 C 0.19274 0.78582 0.17264 0.0
C2514 C 0.23013 0.81987 1.02992 0.0
C2515 C 0.24227 0.83953 1.02886 0.0
C2516 C 0.22274 0.81041 0.06438 0.0
C2517 C 0.22729 0.82026 0.09899 0.0
C2518 C 0.23965 0.8399 0.09786 0.0
C2519 C 0.24699 0.84935 0.06344 0.0
H2520 H 0.56205 0.77434 0.68875 0.0
H2521 H 0.61642 0.81918 0.7249 0.0
H2522 H 0.56555 0.79071 0.62924 0.0
H2523 H 0.61989 0.83559 0.66531 0.0
H2524 H 0.61279 0.86895 0.56825 0.0
H2525 H 0.609 0.85282 0.62845 0.0
H2526 H 0.58211 0.7993 0.57067 0.0
H2527 H 0.58558 0.81538 0.51075 0.0
C2528 C 0.57488 0.7876 0.684 0.0
C2529 C 0.58895 0.79527 0.71209 0.0
C2530 C 0.57689 0.79706 0.64963 0.0
C2531 C 0.59304 0.81459 0.64198 0.0
C2532 C 0.6071 0.82231 0.67009 0.0
C2533 C 0.60509 0.81283 0.70449 0.0
C2534 C 0.606 0.85373 0.56833 0.0
C2535 C 0.59946 0.84356 0.53432 0.0
C2536 C 0.60393 0.84443 0.60299 0.0
C2537 C 0.59523 0.82463 0.60487 0.0
C2538 C 0.58864 0.81449 0.5708 0.0
C2539 C 0.59073 0.82378 0.53618 0.0
H2540 H 0.13211 0.74476 0.56389 0.0
H2541 H 0.18543 0.76782 0.50594 0.0
H2542 H 0.14855 0.75784 0.62328 0.0
H2543 H 0.20192 0.78054 0.56552 0.0
H2544 H 0.22585 0.81757 0.67128 0.0
H2545 H 0.20951 0.80424 0.6119 0.0
H2546 H 0.16722 0.75543 0.67178 0.0
H2547 H 0.18352 0.76879 0.73111 0.0
C2548 C 0.14736 0.75247 0.56375 0.0
C2549 C 0.15734 0.75514 0.52975 0.0
C2550 C 0.15686 0.75994 0.59808 0.0
C2551 C 0.17671 0.77037 0.59971 0.0
C2552 C 0.18668 0.77289 0.56568 0.0
C2553 C 0.17717 0.76541 0.53135 0.0
C2554 C 0.21316 0.80391 0.67188 0.0
C2555 C 0.20612 0.79438 0.70647 0.0
C2556 C 0.20372 0.7962 0.63758 0.0
C2557 C 0.1869 0.77864 0.63653 0.0
C2558 C 0.17989 0.7691 0.67113 0.0
C2559 C 0.18931 0.77683 0.70542 0.0
H2560 H 0.22038 0.40111 0.50976 0.0
H2561 H 0.25975 0.38958 0.56806 0.0
H2562 H 0.20721 0.4031 0.57032 0.0
H2563 H 0.2464 0.39128 0.62857 0.0
H2564 H 0.23033 0.41344 0.73321 0.0
H2565 H 0.24371 0.41188 0.67284 0.0
H2566 H 0.18831 0.38481 0.62281 0.0
H2567 H 0.17485 0.3862 0.68332 0.0
C2568 C 0.2263 0.39904 0.53545 0.0
C2569 C 0.24123 0.39521 0.53364 0.0
C2570 C 0.21859 0.40002 0.57039 0.0
C2571 C 0.22559 0.39731 0.60486 0.0
C2572 C 0.24067 0.39367 0.60298 0.0
C2573 C 0.24831 0.39259 0.56804 0.0
C2574 C 0.22087 0.40691 0.7096 0.0
C2575 C 0.20135 0.39992 0.71381 0.0
C2576 C 0.22863 0.40605 0.67466 0.0
C2577 C 0.21722 0.39822 0.64241 0.0
C2578 C 0.19772 0.39125 0.64654 0.0
C2579 C 0.18994 0.39206 0.68154 0.0
H2580 H 0.12835 0.28429 0.76477 0.0
H2581 H 0.14582 0.2453 0.72727 0.0
H2582 H 0.14559 0.28899 0.82361 0.0
H2583 H 0.16318 0.25014 0.78599 0.0
H2584 H 0.20652 0.27558 0.88277 0.0
H2585 H 0.19018 0.27183 0.8227 0.0
H2586 H 0.14529 0.27403 0.88181 0.0
H2587 H 0.16171 0.27807 0.94141 0.0
C2588 C 0.13571 0.27656 0.769 0.0
C2589 C 0.13549 0.26435 0.7407 0.0
C2590 C 0.14569 0.2793 0.80299 0.0
C2591 C 0.1559 0.26996 0.81005 0.0
C2592 C 0.15581 0.25786 0.78168 0.0
C2593 C 0.14578 0.25508 0.74772 0.0
C2594 C 0.1932 0.27532 0.88296 0.0
C2595 C 0.1855 0.27708 0.91726 0.0
C2596 C 0.1837 0.27303 0.8484 0.0
C2597 C 0.16627 0.27258 0.84694 0.0
C2598 C 0.15872 0.27451 0.88132 0.0
C2599 C 0.16812 0.27667 0.91579 0.0
H2600 H 0.72526 0.92572 0.89071 0.0
H2601 H 0.74141 0.8901 0.9505 0.0
H2602 H 0.72913 0.91345 0.83062 0.0
H2603 H 0.74484 0.8775 0.89062 0.0
H2604 H 0.76652 0.87067 0.77604 0.0
H2605 H 0.76327 0.88366 0.83554 0.0
H2606 H 0.7162 0.88693 0.78976 0.0
H2607 H 0.71954 0.87403 0.73011 0.0
C2608 C 0.7296 0.91524 0.89116 0.0
C2609 C 0.73304 0.909 0.92582 0.0
C2610 C 0.73171 0.90805 0.8565 0.0
C2611 C 0.73731 0.89434 0.85521 0.0
C2612 C 0.74081 0.88821 0.88997 0.0
C2613 C 0.73874 0.89541 0.92459 0.0
C2614 C 0.75533 0.87396 0.77862 0.0
C2615 C 0.7433 0.87115 0.74779 0.0
C2616 C 0.75345 0.88147 0.81302 0.0
C2617 C 0.73942 0.88644 0.81805 0.0
C2618 C 0.72739 0.88365 0.78718 0.0
C2619 C 0.72931 0.87618 0.75273 0.0
H2620 H 0.11095 0.85048 0.94722 0.0
H2621 H 0.07262 0.79931 0.88848 0.0
H2622 H 0.12376 0.86606 0.887 0.0
H2623 H 0.08505 0.81504 0.82806 0.0
H2624 H 0.1239 0.84283 0.72608 0.0
H2625 H 0.11097 0.82709 0.78622 0.0
H2626 H 0.11845 0.87911 0.83241 0.0
H2627 H 0.13157 0.89485 0.77246 0.0
C2628 C 0.10508 0.84256 0.92146 0.0
C2629 C 0.09068 0.82356 0.92305 0.0
C2630 C 0.11241 0.85158 0.88666 0.0
C2631 C 0.10555 0.84197 0.8521 0.0
C2632 C 0.09102 0.82296 0.85376 0.0
C2633 C 0.08374 0.81391 0.88862 0.0
C2634 C 0.12269 0.85093 0.74894 0.0
C2635 C 0.1289 0.87023 0.74402 0.0
C2636 C 0.11519 0.84184 0.78365 0.0
C2637 C 0.11354 0.85169 0.81473 0.0
C2638 C 0.11973 0.87099 0.80971 0.0
C2639 C 0.1273 0.88009 0.77507 0.0
H2640 H 0.41013 0.18395 0.78158 0.0
H2641 H 0.39079 0.13164 0.72165 0.0
H2642 H 0.41324 0.20011 0.72178 0.0
H2643 H 0.39432 0.14782 0.66184 0.0
H2644 H 0.3835 0.17756 0.56371 0.0
H2645 H 0.38097 0.16179 0.62362 0.0
H2646 H 0.43036 0.21159 0.66458 0.0
H2647 H 0.43278 0.2274 0.60472 0.0
C2648 C 0.40675 0.17589 0.75565 0.0
C2649 C 0.40019 0.1564 0.75678 0.0
C2650 C 0.4086 0.18522 0.72112 0.0
C2651 C 0.40397 0.17539 0.68647 0.0
C2652 C 0.3977 0.15594 0.68768 0.0
C2653 C 0.39581 0.14662 0.72218 0.0
C2654 C 0.39394 0.18515 0.58532 0.0
C2655 C 0.40837 0.20386 0.57893 0.0
C2656 C 0.39251 0.17604 0.6199 0.0
C2657 C 0.40548 0.18526 0.64942 0.0
C2658 C 0.41988 0.204 0.64307 0.0
C2659 C 0.42128 0.21313 0.60849 0.0
H2660 H 0.86614 0.25558 0.72292 0.0
H2661 H 0.81334 0.22631 0.78298 0.0
H2662 H 0.84973 0.24277 0.66343 0.0
H2663 H 0.79691 0.21314 0.72347 0.0
H2664 H 0.77045 0.20581 0.60545 0.0
H2665 H 0.7865 0.21918 0.66507 0.0
H2666 H 0.83419 0.21489 0.62687 0.0
H2667 H 0.81817 0.20159 0.56727 0.0
C2668 C 0.85101 0.2464 0.72356 0.0
C2669 C 0.84116 0.24207 0.75812 0.0
C2670 C 0.84155 0.23888 0.68924 0.0
C2671 C 0.82187 0.22671 0.68814 0.0
C2672 C 0.81199 0.22259 0.72272 0.0
C2673 C 0.82147 0.23014 0.75709 0.0
C2674 C 0.78428 0.20752 0.60978 0.0
C2675 C 0.79289 0.20254 0.58103 0.0
C2676 C 0.79356 0.21525 0.64422 0.0
C2677 C 0.81181 0.2183 0.65127 0.0
C2678 C 0.82035 0.2132 0.62259 0.0
C2679 C 0.81109 0.2055 0.58815 0.0
H2680 H 0.82704 0.61099 0.60743 0.0
H2681 H 0.77217 0.58708 0.5555 0.0
H2682 H 0.81342 0.61203 0.66803 0.0
H2683 H 0.75865 0.58829 0.61592 0.0
H2684 H 0.74346 0.61086 0.72108 0.0
H2685 H 0.75691 0.60904 0.66094 0.0
H2686 H 0.79342 0.59364 0.71953 0.0
H2687 H 0.78012 0.59578 0.77993 0.0
C2688 C 0.81204 0.60579 0.60878 0.0
C2689 C 0.80086 0.599 0.57591 0.0
C2690 C 0.80418 0.6064 0.64382 0.0
C2691 C 0.78482 0.60029 0.64738 0.0
C2692 C 0.77364 0.59346 0.61456 0.0
C2693 C 0.78148 0.5928 0.57959 0.0
C2694 C 0.7543 0.607 0.7213 0.0
C2695 C 0.76059 0.60344 0.75577 0.0
C2696 C 0.762 0.60585 0.68653 0.0
C2697 C 0.77637 0.60118 0.68484 0.0
C2698 C 0.78258 0.59751 0.71935 0.0
C2699 C 0.77479 0.59856 0.75417 0.0
H2700 H 0.86916 0.71356 0.52709 0.0
H2701 H 0.85055 0.75154 0.5654 0.0
H2702 H 0.85227 0.70911 0.46787 0.0
H2703 H 0.83354 0.74695 0.50629 0.0
H2704 H 0.79089 0.7216 0.40825 0.0
H2705 H 0.80692 0.72518 0.46866 0.0
H2706 H 0.8528 0.72458 0.41019 0.0
H2707 H 0.83672 0.72072 0.35026 0.0
C2708 C 0.86162 0.72112 0.52295 0.0
C2709 C 0.8614 0.73297 0.55157 0.0
C2710 C 0.85184 0.71853 0.48875 0.0
C2711 C 0.84142 0.72766 0.48182 0.0
C2712 C 0.84108 0.73939 0.5105 0.0
C2713 C 0.85091 0.74203 0.54466 0.0
C2714 C 0.80438 0.72219 0.40828 0.0
C2715 C 0.81245 0.72092 0.37407 0.0
C2716 C 0.81368 0.72437 0.44302 0.0
C2717 C 0.83128 0.7252 0.44474 0.0
C2718 C 0.83923 0.72378 0.41045 0.0
C2719 C 0.83001 0.72173 0.3758 0.0
H2720 H 0.25256 0.10713 0.3373 0.0
H2721 H 0.27536 0.07723 0.39756 0.0
H2722 H 0.24885 0.11988 0.39699 0.0
H2723 H 0.27203 0.09024 0.45696 0.0
H2724 H 0.24767 0.10264 0.56205 0.0
H2725 H 0.25006 0.08927 0.50234 0.0
H2726 H 0.26624 0.14198 0.44626 0.0
H2727 H 0.26389 0.1554 0.5061 0.0
C2728 C 0.25673 0.10319 0.36322 0.0
C2729 C 0.26424 0.09105 0.3623 0.0
C2730 C 0.25476 0.11067 0.39759 0.0
C2731 C 0.26016 0.10622 0.4322 0.0
C2732 C 0.26745 0.09388 0.43121 0.0
C2733 C 0.26947 0.08646 0.3969 0.0
C2734 C 0.25194 0.11152 0.53716 0.0
C2735 C 0.25564 0.13023 0.53939 0.0
C2736 C 0.2533 0.10378 0.50267 0.0
C2737 C 0.25839 0.11446 0.46906 0.0
C2738 C 0.26199 0.13314 0.4712 0.0
C2739 C 0.26064 0.14089 0.50573 0.0
H2740 H 0.84559 0.10987 0.51137 0.0
H2741 H 0.89789 0.14816 0.56681 0.0
H2742 H 0.85848 0.12589 0.45137 0.0
H2743 H 0.91101 0.16362 0.50671 0.0
H2744 H 0.92312 0.20001 0.4006 0.0
H2745 H 0.91009 0.18404 0.4604 0.0
H2746 H 0.88033 0.13084 0.40186 0.0
H2747 H 0.89306 0.14695 0.3418 0.0
C2748 C 0.85982 0.12172 0.51095 0.0
C2749 C 0.87059 0.12757 0.54443 0.0
C2750 C 0.86736 0.13081 0.47621 0.0
C2751 C 0.88592 0.14615 0.47367 0.0
C2752 C 0.89663 0.15205 0.50719 0.0
C2753 C 0.88912 0.14295 0.54186 0.0
C2754 C 0.91385 0.18489 0.40034 0.0
C2755 C 0.90924 0.17486 0.366 0.0
C2756 C 0.9064 0.17564 0.4349 0.0
C2757 C 0.89404 0.15601 0.43647 0.0
C2758 C 0.88954 0.14596 0.40209 0.0
C2759 C 0.89703 0.15522 0.36748 0.0
H2760 H 0.25666 0.14784 0.8364 0.0
H2761 H 0.27637 0.19995 0.89726 0.0
H2762 H 0.25283 0.13127 0.89596 0.0
H2763 H 0.27214 0.18335 0.95686 0.0
H2764 H 0.28077 0.15214 0.05555 0.0
H2765 H 0.28439 0.16852 0.99595 0.0
H2766 H 0.23494 0.11968 0.95226 0.0
H2767 H 0.23137 0.10328 1.01183 0.0
C2768 C 0.26003 0.15578 0.86247 0.0
C2769 C 0.26685 0.17533 0.86164 0.0
C2770 C 0.25774 0.14621 0.89688 0.0
C2771 C 0.26218 0.15582 0.93177 0.0
C2772 C 0.26884 0.17537 0.93087 0.0
C2773 C 0.27115 0.18494 0.89647 0.0
C2774 C 0.27053 0.14488 1.03344 0.0
C2775 C 0.25575 0.12625 0.03903 0.0
C2776 C 0.27261 0.15435 0.99899 0.0
C2777 C 0.25996 0.14559 0.96875 0.0
C2778 C 0.24521 0.12694 0.97432 0.0
C2779 C 0.24315 0.11745 1.00875 0.0
H2780 H 0.85484 0.10078 0.06352 0.0
H2781 H 0.88698 0.15565 1.01199 0.0
H2782 H 0.83859 0.08802 1.00389 0.0
H2783 H 0.87079 0.14282 0.95225 0.0
H2784 H 0.85116 0.11024 0.84029 0.0
H2785 H 0.86754 0.12275 0.90009 0.0
H2786 H 0.81587 0.08757 0.96067 0.0
H2787 H 0.79958 0.07484 0.90088 0.0
C2788 C 0.85838 0.11025 0.03969 0.0
C2789 C 0.87236 0.12938 0.04317 0.0
C2790 C 0.84899 0.10286 1.00521 0.0
C2791 C 0.85324 0.11427 0.97275 0.0
C2792 C 0.86724 0.1334 0.97617 0.0
C2793 C 0.8766 0.14081 1.0107 0.0
C2794 C 0.84327 0.10506 0.86632 0.0
C2795 C 0.82396 0.09143 0.86539 0.0
C2796 C 0.85268 0.1124 0.90082 0.0
C2797 C 0.84316 0.10631 0.9357 0.0
C2798 C 0.82386 0.09254 0.93471 0.0
C2799 C 0.81443 0.08526 0.9002 0.0
H2800 H 0.88277 0.73259 0.84605 0.0
H2801 H 0.92255 0.72158 0.90404 0.0
H2802 H 0.86896 0.73347 0.90651 0.0
H2803 H 0.90912 0.72297 0.96459 0.0
H2804 H 0.86973 0.70836 0.06648 0.0
H2805 H 0.88332 0.70739 1.00589 0.0
H2806 H 0.87238 0.75024 0.96268 0.0
H2807 H 0.85864 0.75105 1.02318 0.0
C2808 C 0.88875 0.73055 0.87169 0.0
C2809 C 0.90388 0.72702 0.86975 0.0
C2810 C 0.88083 0.73114 0.90666 0.0
C2811 C 0.88777 0.72829 0.9411 0.0
C2812 C 0.90303 0.72492 0.93906 0.0
C2813 C 0.9109 0.72426 0.90408 0.0
C2814 C 0.8703 0.7177 0.04423 0.0
C2815 C 0.86296 0.72979 0.05029 0.0
C2816 C 0.8782 0.71717 1.00919 0.0
C2817 C 0.87914 0.72876 0.97875 0.0
C2818 C 0.87174 0.74081 0.98481 0.0
C2819 C 0.86379 0.74129 1.01982 0.0
H2820 H 0.87393 0.61549 0.21713 0.0
H2821 H 0.82492 0.60805 0.27735 0.0
H2822 H 0.85762 0.61172 0.15717 0.0
H2823 H 0.80847 0.6038 0.2177 0.0
H2824 H 0.78825 0.61287 0.10364 0.0
H2825 H 0.80579 0.61846 0.16238 0.0
H2826 H 0.83353 0.58987 0.11675 0.0
H2827 H 0.81665 0.58505 0.05746 0.0
C2828 C 0.85967 0.61302 0.21771 0.0
C2829 C 0.85085 0.61208 0.25246 0.0
C2830 C 0.85019 0.6107 0.18312 0.0
C2831 C 0.83155 0.60739 0.18202 0.0
C2832 C 0.82283 0.60658 0.21688 0.0
C2833 C 0.83229 0.60888 0.25139 0.0
C2834 C 0.79825 0.60796 0.10578 0.0
C2835 C 0.80082 0.59841 0.07527 0.0
C2836 C 0.80822 0.61097 0.13993 0.0
C2837 C 0.82118 0.60458 0.14496 0.0
C2838 C 0.8239 0.59522 0.11429 0.0
C2839 C 0.81393 0.5922 0.08017 0.0
H2840 H 0.43469 0.20614 0.10384 0.0
H2841 H 0.38241 0.20087 0.06476 0.0
H2842 H 0.43168 0.21954 0.16301 0.0
H2843 H 0.37938 0.21427 0.12401 0.0
H2844 H 0.38791 0.25515 0.22079 0.0
H2845 H 0.39127 0.24218 0.16112 0.0
H2846 H 0.41492 0.21293 0.22089 0.0
H2847 H 0.41193 0.2262 0.28029 0.0
C2848 C 0.42241 0.20761 0.10787 0.0
C2849 C 0.40881 0.20228 0.07902 0.0
C2850 C 0.42067 0.21537 0.14207 0.0
C2851 C 0.40526 0.21811 0.14882 0.0
C2852 C 0.39165 0.21277 0.11998 0.0
C2853 C 0.39339 0.20501 0.08575 0.0
C2854 C 0.39389 0.246 0.22128 0.0
C2855 C 0.39967 0.24185 0.25571 0.0
C2856 C 0.39571 0.23841 0.18689 0.0
C2857 C 0.40338 0.22638 0.18568 0.0
C2858 C 0.40921 0.2223 0.22019 0.0
C2859 C 0.4074 0.22989 0.25453 0.0
H2860 H 0.79659 0.18096 0.06524 0.0
H2861 H 0.79484 0.22937 0.10766 0.0
H2862 H 0.78371 0.16459 0.1248 0.0
H2863 H 0.78186 0.21298 0.16718 0.0
H2864 H 0.77527 0.18524 0.28341 0.0
H2865 H 0.78822 0.20178 0.22392 0.0
H2866 H 0.7564 0.14947 0.16316 0.0
H2867 H 0.74384 0.1329 0.22272 0.0
C2868 C 0.79332 0.18812 0.08706 0.0
C2869 C 0.79686 0.20662 0.08116 0.0
C2870 C 0.78585 0.17866 0.12147 0.0
C2871 C 0.78159 0.18731 0.15131 0.0
C2872 C 0.78518 0.20583 0.14542 0.0
C2873 C 0.79268 0.2153 0.11104 0.0
C2874 C 0.77096 0.17724 0.25738 0.0
C2875 C 0.75844 0.15765 0.25822 0.0
C2876 C 0.77836 0.18679 0.22302 0.0
C2877 C 0.77349 0.1771 0.18821 0.0
C2878 C 0.76083 0.1575 0.18912 0.0
C2879 C 0.75346 0.14796 0.22348 0.0
H2880 H 0.01638 0.40367 0.2955 0.0
H2881 H 0.03618 0.4612 0.32887 0.0
H2882 H 0.99785 0.39269 0.35433 0.0
H2883 H 0.0176 0.45027 0.38642 0.0
H2884 H 0.96349 0.42457 0.45639 0.0
H2885 H 0.98208 0.43245 0.39889 0.0
H2886 H 0.00185 0.39455 0.43039 0.0
H2887 H 0.9833 0.38676 0.48923 0.0
C2888 C 0.01694 0.41399 0.31531 0.0
C2889 C 0.02789 0.43338 0.30699 0.0
C2890 C 0.00633 0.40767 0.34914 0.0
C2891 C 0.00605 0.42056 0.37517 0.0
C2892 C 0.01725 0.43989 0.36703 0.0
C2893 C 0.02804 0.44617 0.33384 0.0
C2894 C 0.97163 0.4177 0.45133 0.0
C2895 C 0.97179 0.40499 0.47803 0.0
C2896 C 0.98244 0.42235 0.41815 0.0
C2897 C 0.99365 0.41429 0.40986 0.0
C2898 C 0.99337 0.40102 0.43571 0.0
C2899 C 0.98273 0.39658 0.46954 0.0
H2900 H 0.59491 0.54711 0.44683 0.0
H2901 H 0.59478 0.59266 0.50736 0.0
H2902 H 0.58791 0.55814 0.38794 0.0
H2903 H 0.5872 0.60334 0.44852 0.0
H2904 H 0.54657 0.59542 0.3443 0.0
H2905 H 0.55766 0.58844 0.40311 0.0
H2906 H 0.60276 0.58765 0.34222 0.0
H2907 H 0.59202 0.59522 0.28342 0.0
C2908 C 0.59359 0.5596 0.44759 0.0
C2909 C 0.59557 0.56903 0.48206 0.0
C2910 C 0.58958 0.56594 0.4137 0.0
C2911 C 0.58692 0.58163 0.41331 0.0
C2912 C 0.58908 0.59118 0.44769 0.0
C2913 C 0.59358 0.58513 0.48144 0.0
C2914 C 0.55906 0.59409 0.34346 0.0
C2915 C 0.56844 0.59606 0.30891 0.0
C2916 C 0.56544 0.5901 0.37729 0.0
C2917 C 0.58111 0.58741 0.37758 0.0
C2918 C 0.59062 0.58955 0.34313 0.0
C2919 C 0.58453 0.59405 0.30941 0.0
H2920 H 0.40095 0.95419 0.33534 0.0
H2921 H 0.40471 0.00286 0.28009 0.0
H2922 H 0.40817 0.97062 0.39601 0.0
H2923 H 0.41243 0.01951 0.34089 0.0
H2924 H 0.45288 0.04807 0.44681 0.0
H2925 H 0.44119 0.03173 0.38648 0.0
H2926 H 0.39517 0.98516 0.44433 0.0
H2927 H 0.4066 0.00171 0.50475 0.0
C2928 C 0.40302 0.9683 0.33616 0.0
C2929 C 0.40207 0.97708 0.3026 0.0
C2930 C 0.40717 0.97774 0.37108 0.0
C2931 C 0.41098 0.99646 0.37352 0.0
C2932 C 0.40967 0.00514 0.34013 0.0
C2933 C 0.40506 0.99552 0.30526 0.0
C2934 C 0.4401 0.03447 0.44672 0.0
C2935 C 0.43068 0.02632 0.4809 0.0
C2936 C 0.43335 0.0251 0.41199 0.0
C2937 C 0.41721 0.00707 0.41034 0.0
C2938 C 0.40767 0.99898 0.44445 0.0
C2939 C 0.41417 0.00855 0.47913 0.0
H2940 H 0.96321 0.5347 0.95837 0.0
H2941 H 0.98327 0.59249 0.9902 0.0
H2942 H 0.98186 0.54525 0.90075 0.0
H2943 H 0.00177 0.60306 0.93135 0.0
H2944 H 0.01464 0.60771 0.79629 0.0
H2945 H 0.99649 0.60007 0.85549 0.0
H2946 H 0.01786 0.5636 0.88798 0.0
H2947 H 0.03618 0.57142 0.82989 0.0
C2948 C 0.97142 0.5497 0.95301 0.0
C2949 C 0.97164 0.5627 0.97934 0.0
C2950 C 0.98224 0.55575 0.91986 0.0
C2951 C 0.99344 0.57501 0.91135 0.0
C2952 C 0.99327 0.5881 0.93693 0.0
C2953 C 0.98268 0.58204 0.97072 0.0
C2954 C 0.01565 0.59824 0.81627 0.0
C2955 C 0.02697 0.59023 0.80798 0.0
C2956 C 0.00526 0.59389 0.85027 0.0
C2957 C 0.00558 0.5811 0.87648 0.0
C2958 C 0.01712 0.57337 0.8684 0.0
C2959 C 0.02773 0.57797 0.83498 0.0
H2960 H 0.40908 0.41013 0.78358 0.0
H2961 H 0.40713 0.4548 0.84394 0.0
H2962 H 0.41677 0.39974 0.84259 0.0
H2963 H 0.4144 0.44415 0.90292 0.0
H2964 H 0.41134 0.40857 1.00803 0.0
H2965 H 0.40076 0.41603 0.94899 0.0
H2966 H 0.44501 0.41348 0.88835 0.0
H2967 H 0.45581 0.40639 0.94735 0.0
C2968 C 0.40996 0.41756 0.80946 0.0
C2969 C 0.40738 0.43331 0.80874 0.0
C2970 C 0.41453 0.41168 0.84334 0.0
C2971 C 0.41625 0.42108 0.87773 0.0
C2972 C 0.41307 0.43644 0.87719 0.0
C2973 C 0.40892 0.44258 0.84322 0.0
C2974 C 0.41867 0.40934 0.98206 0.0
C2975 C 0.43444 0.40678 0.9827 0.0
C2976 C 0.41269 0.41378 0.94818 0.0
C2977 C 0.422 0.4154 0.9137 0.0
C2978 C 0.43737 0.41223 0.91416 0.0
C2979 C 0.44361 0.4082 0.94814 0.0
H2980 H 0.61074 0.01182 0.99094 0.0
H2981 H 0.57855 0.03765 0.95503 0.0
H2982 H 0.60284 0.99412 0.93098 0.0
H2983 H 0.57052 0.01988 0.89661 0.0
H2984 H 0.53819 0.9663 0.8259 0.0
H2985 H 0.54972 0.9839 0.8844 0.0
H2986 H 0.60661 0.99976 0.85374 0.0
H2987 H 0.59506 0.98225 0.79392 0.0
C2988 C 0.60222 0.01394 0.97033 0.0
C2989 C 0.59532 0.02625 0.97836 0.0
C2990 C 0.59768 0.00378 0.93591 0.0
C2991 C 0.58585 0.00539 0.90901 0.0
C2992 C 0.57947 0.01806 0.9167 0.0
C2993 C 0.5842 0.02838 0.95046 0.0
C2994 C 0.55318 0.97335 0.83138 0.0
C2995 C 0.56563 0.97277 0.80463 0.0
C2996 C 0.55981 0.98357 0.86512 0.0
C2997 C 0.57913 0.99339 0.8739 0.0
C2998 C 0.59164 0.99232 0.84801 0.0
C2999 C 0.585 0.98231 0.81363 0.0
H3000 H 0.63029 0.7617 0.79527 0.0
H3001 H 0.64903 0.72291 0.82711 0.0
H3002 H 0.64885 0.76945 0.73764 0.0
H3003 H 0.66749 0.73053 0.76825 0.0
H3004 H 0.68078 0.73903 0.63314 0.0
H3005 H 0.66248 0.72857 0.69223 0.0
H3006 H 0.68474 0.78647 0.72518 0.0
H3007 H 0.70315 0.7969 0.66727 0.0
C3008 C 0.63819 0.75461 0.78992 0.0
C3009 C 0.63807 0.74164 0.81628 0.0
C3010 C 0.64897 0.75917 0.75675 0.0
C3011 C 0.6598 0.75072 0.74823 0.0
C3012 C 0.65928 0.73728 0.77383 0.0
C3013 C 0.64872 0.73294 0.80764 0.0
C3014 C 0.68194 0.74952 0.65319 0.0
C3015 C 0.69353 0.76885 0.64508 0.0
C3016 C 0.67147 0.74351 0.68714 0.0
C3017 C 0.672 0.75667 0.71344 0.0
C3018 C 0.68381 0.77593 0.70553 0.0
C3019 C 0.69449 0.7819 0.67218 0.0
H3020 H 0.25628 0.9215 0.83967 0.0
H3021 H 0.25934 0.87803 0.77695 0.0
H3022 H 0.24929 0.93281 0.78114 0.0
H3023 H 0.25283 0.88969 0.71832 0.0
H3024 H 0.25758 0.92827 0.6162 0.0
H3025 H 0.26763 0.9199 0.67494 0.0
H3026 H 0.22093 0.91839 0.73397 0.0
H3027 H 0.21058 0.92623 0.67524 0.0
C3028 C 0.25579 0.91453 0.81337 0.0
C3029 C 0.25846 0.89884 0.81325 0.0
C3030 C 0.25165 0.92096 0.77978 0.0
C3031 C 0.25049 0.9122 0.74488 0.0
C3032 C 0.25375 0.89689 0.74456 0.0
C3033 C 0.25744 0.89016 0.77827 0.0
C3034 C 0.24962 0.92645 0.64182 0.0
C3035 C 0.23331 0.92807 0.64086 0.0
C3036 C 0.25529 0.92148 0.67545 0.0
C3037 C 0.2451 0.91843 0.7093 0.0
C3038 C 0.22921 0.92074 0.7086 0.0
C3039 C 0.22327 0.92525 0.67484 0.0
H3040 H 0.11823 0.38095 0.78101 0.0
H3041 H 0.07264 0.33337 0.83764 0.0
H3042 H 0.10862 0.36394 0.72095 0.0
H3043 H 0.06334 0.31614 0.77751 0.0
H3044 H 0.07447 0.28609 0.67295 0.0
H3045 H 0.07972 0.30308 0.73268 0.0
H3046 H 0.08047 0.34934 0.67315 0.0
H3047 H 0.07471 0.33214 0.61341 0.0
C3048 C 0.10596 0.36696 0.78061 0.0
C3049 C 0.09614 0.35865 0.81435 0.0
C3050 C 0.10045 0.35719 0.74606 0.0
C3051 C 0.08523 0.3386 0.74425 0.0
C3052 C 0.07517 0.33039 0.77782 0.0
C3053 C 0.08041 0.34035 0.81228 0.0
C3054 C 0.07547 0.29977 0.67256 0.0
C3055 C 0.07405 0.30764 0.63813 0.0
C3056 C 0.07844 0.3095 0.70692 0.0
C3057 C 0.08054 0.32763 0.70789 0.0
C3058 C 0.07897 0.33545 0.67353 0.0
C3059 C 0.07555 0.32552 0.63925 0.0
H3060 H 0.68068 0.94444 0.12992 0.0
H3061 H 0.70393 0.91023 0.16763 0.0
H3062 H 0.66226 0.93697 0.18892 0.0
H3063 H 0.68559 0.90274 0.22532 0.0
H3064 H 0.63247 0.87234 0.29645 0.0
H3065 H 0.65093 0.88328 0.239 0.0
H3066 H 0.6652 0.94029 0.26442 0.0
H3067 H 0.64662 0.92928 0.32334 0.0
C3068 C 0.68204 0.93549 0.1507 0.0
C3069 C 0.69389 0.92795 0.14342 0.0
C3070 C 0.67148 0.93124 0.18466 0.0
C3071 C 0.67221 0.91906 0.21201 0.0
C3072 C 0.68438 0.91195 0.20496 0.0
C3073 C 0.69504 0.91637 0.17159 0.0
C3074 C 0.6394 0.88726 0.29016 0.0
C3075 C 0.63797 0.89986 0.31525 0.0
C3076 C 0.65015 0.89356 0.25694 0.0
C3077 C 0.65981 0.91273 0.24687 0.0
C3078 C 0.65796 0.92541 0.2711 0.0
C3079 C 0.64733 0.91909 0.30501 0.0
H3080 H 0.12778 0.75989 0.29195 0.0
H3081 H 0.07055 0.71926 0.32243 0.0
H3082 H 0.11669 0.76753 0.23471 0.0
H3083 H 0.0594 0.72688 0.26387 0.0
H3084 H 0.05398 0.73692 0.1295 0.0
H3085 H 0.06177 0.7261 0.18829 0.0
H3086 H 0.09799 0.78382 0.22182 0.0
H3087 H 0.09016 0.79457 0.16434 0.0
C3088 C 0.11277 0.7524 0.28647 0.0
C3089 C 0.10013 0.73894 0.31243 0.0
C3090 C 0.10639 0.7569 0.25342 0.0
C3091 C 0.0871 0.74799 0.24449 0.0
C3092 C 0.07437 0.73404 0.26966 0.0
C3093 C 0.08077 0.7297 0.30336 0.0
C3094 C 0.06343 0.7473 0.14961 0.0
C3095 C 0.07142 0.76669 0.14163 0.0
C3096 C 0.06787 0.74108 0.18343 0.0
C3097 C 0.0807 0.75406 0.20986 0.0
C3098 C 0.08827 0.77336 0.20212 0.0
C3099 C 0.08365 0.77953 0.16893 0.0
H3100 H 0.21987 0.28641 0.17254 0.0
H3101 H 0.26391 0.33459 0.11433 0.0
H3102 H 0.22987 0.30355 0.23248 0.0
H3103 H 0.27353 0.35195 0.1743 0.0
H3104 H 0.26199 0.3811 0.2804 0.0
H3105 H 0.25655 0.3641 0.22064 0.0
H3106 H 0.25908 0.31924 0.27889 0.0
H3107 H 0.26511 0.33653 0.33869 0.0
C3108 C 0.23188 0.30057 0.17254 0.0
C3109 C 0.24115 0.30899 0.13838 0.0
C3110 C 0.23761 0.31042 0.20702 0.0
C3111 C 0.25249 0.3292 0.2084 0.0
C3112 C 0.26198 0.33754 0.17438 0.0
C3113 C 0.25656 0.32751 0.13998 0.0
C3114 C 0.26171 0.36776 0.28049 0.0
C3115 C 0.26415 0.36033 0.3146 0.0
C3116 C 0.25862 0.35801 0.24609 0.0
C3117 C 0.25735 0.34025 0.24476 0.0
C3118 C 0.25993 0.33285 0.27878 0.0
C3119 C 0.26352 0.34284 0.31308 0.0
H3120 H 0.32913 0.073 0.17183 0.0
H3121 H 0.28319 0.07233 0.11099 0.0
H3122 H 0.34719 0.08015 0.11294 0.0
H3123 H 0.30109 0.07905 0.05209 0.0
H3124 H 0.33346 0.07492 0.94778 0.0
H3125 H 0.31525 0.06455 1.00662 0.0
H3126 H 0.36209 0.10873 0.0674 0.0
H3127 H 0.38014 0.11938 1.00858 0.0
C3128 C 0.32271 0.07402 0.14585 0.0
C3129 C 0.30461 0.07199 0.14637 0.0
C3130 C 0.33315 0.07827 0.11207 0.0
C3131 C 0.32565 0.08021 0.07763 0.0
C3132 C 0.3073 0.07753 0.07793 0.0
C3133 C 0.29703 0.0737 0.11181 0.0
C3134 C 0.34 0.08229 0.97374 0.0
C3135 C 0.35836 0.09799 0.97324 0.0
C3136 C 0.32947 0.07641 1.00748 0.0
C3137 C 0.33715 0.08579 0.04189 0.0
C3138 C 0.35574 0.10107 0.04159 0.0
C3139 C 0.3661 0.10721 1.00775 0.0
H3140 H 0.8782 0.25926 1.00994 0.0
H3141 H 0.92266 0.25698 0.94936 0.0
H3142 H 0.88905 0.25227 0.06901 0.0
H3143 H 0.93322 0.24956 1.00839 0.0
H3144 H 0.92661 0.21084 0.11374 0.0
H3145 H 0.91921 0.22132 0.05468 0.0
H3146 H 0.91781 0.26643 0.11428 0.0
H3147 H 0.92565 0.25622 0.17336 0.0
C3148 C 0.89039 0.25744 1.00918 0.0
C3149 C 0.89957 0.25881 0.97465 0.0
C3150 C 0.89665 0.25346 0.04318 0.0
C3151 C 0.91202 0.25029 0.04363 0.0
C3152 C 0.9213 0.25182 1.00918 0.0
C3153 C 0.9153 0.25622 0.9753 0.0
C3154 C 0.92502 0.22318 0.11426 0.0
C3155 C 0.92687 0.23272 0.14852 0.0
C3156 C 0.92079 0.22921 0.08028 0.0
C3157 C 0.91784 0.24471 0.07956 0.0
C3158 C 0.91988 0.25438 0.11372 0.0
C3159 C 0.92454 0.2486 0.1476 0.0
H3160 H 0.73972 0.61863 1.00772 0.0
H3161 H 0.73791 0.66402 0.9498 0.0
H3162 H 0.7441 0.63495 0.06798 0.0
H3163 H 0.74276 0.68055 1.01013 0.0
H3164 H 0.77928 0.71252 0.11863 0.0
H3165 H 0.77033 0.69595 0.05809 0.0
H3166 H 0.72699 0.64635 0.1138 0.0
H3167 H 0.73564 0.66311 0.17448 0.0
C3168 C 0.74009 0.63202 1.00779 0.0
C3169 C 0.73835 0.6399 0.97363 0.0
C3170 C 0.74255 0.64136 0.04248 0.0
C3171 C 0.7438 0.65911 0.04412 0.0
C3172 C 0.74192 0.66695 1.01003 0.0
C3173 C 0.73902 0.65739 0.9754 0.0
C3174 C 0.76755 0.6982 0.11797 0.0
C3175 C 0.75811 0.68926 0.15165 0.0
C3176 C 0.76242 0.68868 0.08312 0.0
C3177 C 0.74797 0.66974 0.08088 0.0
C3178 C 0.73825 0.66088 0.11441 0.0
C3179 C 0.74309 0.67057 0.1492 0.0
H3180 H 0.3826 0.25966 0.50842 0.0
H3181 H 0.33963 0.26489 0.44857 0.0
H3182 H 0.36423 0.25256 0.56683 0.0
H3183 H 0.32089 0.25706 0.50697 0.0
H3184 H 0.28593 0.21449 0.60928 0.0
H3185 H 0.3043 0.22582 0.55074 0.0
H3186 H 0.35099 0.26895 0.61353 0.0
H3187 H 0.33242 0.25806 0.67195 0.0
C3188 C 0.36932 0.25951 0.50776 0.0
C3189 C 0.36275 0.26306 0.47364 0.0
C3190 C 0.35877 0.25542 0.54136 0.0
C3191 C 0.34101 0.25417 0.54179 0.0
C3192 C 0.33447 0.25786 0.50775 0.0
C3193 C 0.3453 0.26251 0.4743 0.0
C3194 C 0.29999 0.22661 0.6106 0.0
C3195 C 0.30756 0.23541 0.64557 0.0
C3196 C 0.31053 0.23313 0.57693 0.0
C3197 C 0.32919 0.24832 0.57725 0.0
C3198 C 0.33671 0.25722 0.61213 0.0
C3199 C 0.32598 0.25103 0.64566 0.0
H3200 H 0.78669 0.07165 0.61273 0.0
H3201 H 0.74161 0.07244 0.67383 0.0
H3202 H 0.77558 0.07861 0.55393 0.0
H3203 H 0.7308 0.07991 0.61504 0.0
H3204 H 0.73799 0.11986 0.51031 0.0
H3205 H 0.74515 0.10895 0.56915 0.0
H3206 H 0.74635 0.06402 0.50847 0.0
H3207 H 0.73863 0.0746 0.44965 0.0
C3208 C 0.77429 0.07312 0.61364 0.0
C3209 C 0.76502 0.07133 0.64826 0.0
C3210 C 0.76789 0.07709 0.57979 0.0
C3211 C 0.75228 0.07989 0.57954 0.0
C3212 C 0.74289 0.07792 0.61407 0.0
C3213 C 0.74902 0.07348 0.64781 0.0
C3214 C 0.73943 0.10744 0.50952 0.0
C3215 C 0.73754 0.09806 0.47502 0.0
C3216 C 0.74354 0.10117 0.54339 0.0
C3217 C 0.7464 0.0856 0.54376 0.0
C3218 C 0.74432 0.07609 0.50934 0.0
C3219 C 0.73973 0.08208 0.4756 0.0
H3220 H 0.92953 0.67073 0.6739 0.0
H3221 H 0.92596 0.71505 0.61562 0.0
H3222 H 0.9237 0.65349 0.61413 0.0
H3223 H 0.92072 0.69808 0.55581 0.0
H3224 H 0.92876 0.66867 0.4497 0.0
H3225 H 0.93804 0.68611 0.50961 0.0
H3226 H 0.89448 0.63757 0.56759 0.0
H3227 H 0.88481 0.62035 0.50768 0.0
C3228 C 0.92788 0.677 0.64829 0.0
C3229 C 0.92832 0.69439 0.64982 0.0
C3230 C 0.9244 0.66703 0.614 0.0
C3231 C 0.92175 0.67436 0.57996 0.0
C3232 C 0.92283 0.69204 0.58129 0.0
C3233 C 0.92581 0.70177 0.6157 0.0
C3234 C 0.92136 0.66158 0.47529 0.0
C3235 C 0.90608 0.64299 0.47364 0.0
C3236 C 0.92659 0.67166 0.50965 0.0
C3237 C 0.91703 0.6633 0.5436 0.0
C3238 C 0.90227 0.64446 0.54219 0.0
C3239 C 0.89672 0.63456 0.50772 0.0
H3240 H 0.03389 0.49633 0.21286 0.0
H3241 H 0.99154 0.44403 0.1635 0.0
H3242 H 0.02111 0.51321 0.17841 0.0
H3243 H 0.97967 0.46079 0.12682 0.0
H3244 H 0.95248 0.4952 0.09254 0.0
H3245 H 0.96376 0.47682 0.12461 0.0
H3246 H 0.02082 0.52374 0.11736 0.0
H3247 H 0.00904 0.54276 0.08792 0.0
C3248 C 0.02152 0.48844 0.19536 0.0
C3249 C 0.01347 0.46893 0.19125 0.0
C3250 C 0.01451 0.49811 0.17478 0.0
C3251 C 0.99965 0.48847 0.14894 0.0
C3252 C 0.99099 0.46874 0.14658 0.0
C3253 C 0.99769 0.45905 0.16792 0.0
C3254 C 0.9675 0.50148 0.09708 0.0
C3255 C 0.97984 0.52053 0.08866 0.0
C3256 C 0.97402 0.49089 0.11551 0.0
C3257 C 0.99317 0.49893 0.12476 0.0
C3258 C 0.00585 0.51735 0.11215 0.0
C3259 C 0.99921 0.52814 0.09446 0.0
H3260 H 0.50454 0.5376 0.21632 0.0
H3261 H 0.55614 0.5479 0.16299 0.0
H3262 H 0.48722 0.50809 0.18166 0.0
H3263 H 0.5389 0.51939 0.12618 0.0
H3264 H 0.50402 0.45779 0.09188 0.0
H3265 H 0.52287 0.48744 0.12362 0.0
H3266 H 0.47581 0.49743 0.12099 0.0
H3267 H 0.45637 0.46664 0.09182 0.0
C3268 C 0.5122 0.53322 0.1979 0.0
C3269 C 0.53164 0.54475 0.19276 0.0
C3270 C 0.50225 0.51662 0.17721 0.0
C3271 C 0.51153 0.51154 0.15024 0.0
C3272 C 0.53122 0.52267 0.1468 0.0
C3273 C 0.5412 0.53898 0.16822 0.0
C3274 C 0.4978 0.46651 0.09729 0.0
C3275 C 0.47862 0.45974 0.09026 0.0
C3276 C 0.50866 0.48361 0.11557 0.0
C3277 C 0.50074 0.49466 0.12607 0.0
C3278 C 0.48214 0.4889 0.11479 0.0
C3279 C 0.47109 0.47147 0.09725 0.0
H3280 H 0.54366 0.02947 0.06942 0.0
H3281 H 0.54244 0.99239 0.15737 0.0
H3282 H 0.51183 0.02182 0.08606 0.0
H3283 H 0.51012 0.98351 0.1723 0.0
H3284 H 0.4605 0.98743 0.21854 0.0
H3285 H 0.49262 0.9953 0.202 0.0
H3286 H 0.4805 0.99865 0.08405 0.0
H3287 H 0.4494 0.99233 0.10093 0.0
C3288 C 0.5364 0.01942 0.0918 0.0
C3289 C 0.54549 0.01175 0.11247 0.0
C3290 C 0.51812 0.0149 0.10128 0.0
C3291 C 0.50844 0.00216 0.13089 0.0
C3292 C 0.51731 0.99376 0.15013 0.0
C3293 C 0.53572 0.99863 0.14121 0.0
C3294 C 0.46494 0.99013 0.18927 0.0
C3295 C 0.45268 0.98956 0.16114 0.0
C3296 C 0.4832 0.99441 0.17963 0.0
C3297 C 0.48919 0.9977 0.14161 0.0
C3298 C 0.47664 0.99676 0.11365 0.0
C3299 C 0.45872 0.99302 0.12338 0.0
H3300 H 0.55451 0.00824 0.64918 0.0
H3301 H 0.50764 0.97472 0.72308 0.0
H3302 H 0.53499 0.01655 0.61186 0.0
H3303 H 0.48824 0.98422 0.68772 0.0
H3304 H 0.45075 0.98608 0.60166 0.0
H3305 H 0.47221 0.97708 0.6302 0.0
H3306 H 0.51915 0.03248 0.60506 0.0
H3307 H 0.49798 0.04056 0.57412 0.0
C3308 C 0.5403 0.00361 0.65876 0.0
C3309 C 0.53259 0.99112 0.68926 0.0
C3310 C 0.52896 0.00814 0.63703 0.0
C3311 C 0.50982 0.00066 0.64609 0.0
C3312 C 0.5027 0.98965 0.67899 0.0
C3313 C 0.51393 0.9847 0.70008 0.0
C3314 C 0.46576 0.9959 0.60065 0.0
C3315 C 0.47276 0.01414 0.58637 0.0
C3316 C 0.47804 0.99098 0.6179 0.0
C3317 C 0.49735 0.00436 0.62152 0.0
C3318 C 0.50444 0.02179 0.60319 0.0
C3319 C 0.49227 0.02647 0.58526 0.0
H3320 H 0.9662 0.46242 0.5737 0.0
H3321 H 0.00853 0.45198 0.62147 0.0
H3322 H 0.97859 0.49138 0.61029 0.0
H3323 H 0.02008 0.47997 0.66013 0.0
H3324 H 0.04638 0.5415 0.69705 0.0
H3325 H 0.03566 0.51206 0.66434 0.0
H3326 H 0.97814 0.5004 0.67285 0.0
H3327 H 0.98929 0.53089 0.70309 0.0
C3328 C 0.97851 0.46669 0.59125 0.0
C3329 C 0.98662 0.45524 0.5944 0.0
C3330 C 0.98528 0.48294 0.61307 0.0
C3331 C -3e-05 0.48774 0.63913 0.0
C3332 C 0.00881 0.47682 0.64035 0.0
C3333 C 0.00234 0.46085 0.61783 0.0
C3334 C 0.03138 0.53242 0.69279 0.0
C3335 C 0.0187 0.53866 0.70155 0.0
C3336 C 0.02519 0.51548 0.67394 0.0
C3337 C 0.00609 0.50413 0.66462 0.0
C3338 C 0.99309 0.50924 0.67806 0.0
C3339 C 0.99937 0.52648 0.6962 0.0
H3340 H 0.54674 0.55565 0.6281 0.0
H3341 H 0.53786 0.50477 0.57383 0.0
H3342 H 0.51792 0.53775 0.66377 0.0
H3343 H 0.50804 0.48678 0.60728 0.0
H3344 H 0.46594 0.45486 0.6961 0.0
H3345 H 0.49676 0.47474 0.66726 0.0
H3346 H 0.48599 0.5213 0.66527 0.0
H3347 H 0.45633 0.50203 0.69673 0.0
C3348 C 0.53807 0.54072 0.62241 0.0
C3349 C 0.54432 0.53156 0.59793 0.0
C3350 C 0.52157 0.53036 0.64316 0.0
C3351 C 0.51072 0.51068 0.63908 0.0
C3352 C 0.51632 0.5018 0.61221 0.0
C3353 C 0.53311 0.51212 0.59221 0.0
C3354 C 0.47059 0.46955 0.6908 0.0
C3355 C 0.45866 0.47683 0.69803 0.0
C3356 C 0.48804 0.48086 0.67346 0.0
C3357 C 0.49364 0.49949 0.66258 0.0
C3358 C 0.48231 0.5071 0.67306 0.0
C3359 C 0.46519 0.49599 0.69114 0.0
H3360 H 0.63175 0.83769 0.41639 0.0
H3361 H 0.67344 0.88891 0.47034 0.0
H3362 H 0.64373 0.82001 0.45049 0.0
H3363 H 0.68462 0.87128 0.50642 0.0
H3364 H 0.71205 0.83598 0.53395 0.0
H3365 H 0.70076 0.85517 0.50524 0.0
H3366 H 0.64365 0.80831 0.51102 0.0
H3367 H 0.65537 0.78859 0.53744 0.0
C3368 C 0.64376 0.84517 0.43499 0.0
C3369 C 0.65193 0.86463 0.44025 0.0
C3370 C 0.65033 0.83503 0.45528 0.0
C3371 C 0.66489 0.84412 0.48193 0.0
C3372 C 0.67352 0.86378 0.48596 0.0
C3373 C 0.66723 0.87396 0.465 0.0
C3374 C 0.69702 0.82988 0.52988 0.0
C3375 C 0.68462 0.8107 0.53707 0.0
C3376 C 0.6905 0.84093 0.51341 0.0
C3377 C 0.67132 0.83317 0.5047 0.0
C3378 C 0.65862 0.81453 0.51598 0.0
C3379 C 0.66524 0.80331 0.53185 0.0
H3380 H 0.22062 0.87802 0.49874 0.0
H3381 H 0.16955 0.87027 0.55021 0.0
H3382 H 0.20283 0.84847 0.46535 0.0
H3383 H 0.15166 0.83978 0.51912 0.0
H3384 H 0.12041 0.79682 0.4304 0.0
H3385 H 0.13996 0.82762 0.45948 0.0
H3386 H 0.18623 0.81651 0.46608 0.0
H3387 H 0.16736 0.78688 0.43425 0.0
C3388 C 0.20567 0.86947 0.50435 0.0
C3389 C 0.19641 0.87623 0.52728 0.0
C3390 C 0.19537 0.85254 0.48494 0.0
C3391 C 0.17567 0.8418 0.48887 0.0
C3392 C 0.16669 0.84795 0.51434 0.0
C3393 C 0.17695 0.86515 0.53296 0.0
C3394 C 0.13496 0.80134 0.43696 0.0
C3395 C 0.14228 0.78938 0.43064 0.0
C3396 C 0.14607 0.81879 0.45438 0.0
C3397 C 0.16454 0.82437 0.46633 0.0
C3398 C 0.17216 0.81287 0.45736 0.0
C3399 C 0.16126 0.79575 0.43914 0.0
H3400 H 0.21577 0.32519 0.46914 0.0
H3401 H 0.20436 0.36138 0.39907 0.0
H3402 H 0.18731 0.31608 0.50495 0.0
H3403 H 0.17493 0.35124 0.43295 0.0
H3404 H 0.13391 0.34666 0.51901 0.0
H3405 H 0.16467 0.35632 0.49109 0.0
H3406 H 0.15531 0.29999 0.50816 0.0
H3407 H 0.1257 0.29111 0.53837 0.0
C3408 C 0.20656 0.33036 0.46008 0.0
C3409 C 0.212 0.34372 0.43103 0.0
C3410 C 0.19031 0.32534 0.48093 0.0
C3411 C 0.17894 0.33323 0.47248 0.0
C3412 C 0.18366 0.34538 0.44118 0.0
C3413 C 0.20018 0.35077 0.42097 0.0
C3414 C 0.13891 0.33669 0.51826 0.0
C3415 C 0.12737 0.31807 0.53032 0.0
C3416 C 0.1563 0.34203 0.50142 0.0
C3417 C 0.1622 0.32873 0.49598 0.0
C3418 C 0.15137 0.31068 0.51163 0.0
C3419 C 0.13431 0.30554 0.52911 0.0
H3420 H 0.19255 0.31874 0.05486 0.0
H3421 H 0.20845 0.32299 0.93731 0.0
H3422 H 0.16854 0.32687 0.03787 0.0
H3423 H 0.18386 0.32952 0.92 0.0
H3424 H 0.15214 0.36097 0.90467 0.0
H3425 H 0.17602 0.35288 0.92129 0.0
H3426 H 0.13928 0.31522 1.00821 0.0
H3427 H 0.11624 0.32461 0.99337 0.0
C3428 C 0.19082 0.32135 1.02551 0.0
C3429 C 0.20243 0.32053 0.99752 0.0
C3430 C 0.17699 0.32577 1.01562 0.0
C3431 C 0.17431 0.32893 0.97748 0.0
C3432 C 0.18583 0.32774 0.94967 0.0
C3433 C 0.19989 0.32388 0.95964 0.0
C3434 C 0.14928 0.351 0.92722 0.0
C3435 C 0.13264 0.3437 0.94818 0.0
C3436 C 0.16285 0.3462 0.93667 0.0
C3437 C 0.15968 0.33355 0.96652 0.0
C3438 C 0.14245 0.32543 0.9859 0.0
C3439 C 0.12914 0.33059 0.97702 0.0
H3440 H 0.6995 0.87126 0.05036 0.0
H3441 H 0.6582 0.88121 0.99596 0.0
H3442 H 0.687 0.8413 1.01722 0.0
H3443 H 0.64654 0.85215 0.96071 0.0
H3444 H 0.61935 0.79015 0.92928 0.0
H3445 H 0.6304 0.82005 0.96024 0.0
H3446 H 0.6874 0.82991 0.95696 0.0
H3447 H 0.67583 0.79893 0.92845 0.0
C3448 C 0.68741 0.86672 1.03201 0.0
C3449 C 0.67958 0.87827 1.02614 0.0
C3450 C 0.68056 0.84985 1.01221 0.0
C3451 C 0.66606 0.84447 0.98544 0.0
C3452 C 0.6576 0.85566 0.98123 0.0
C3453 C 0.66415 0.87228 1.00173 0.0
C3454 C 0.63431 0.79887 0.93447 0.0
C3455 C 0.64669 0.79208 0.92724 0.0
C3456 C 0.6407 0.81611 0.95226 0.0
C3457 C 0.65975 0.82726 0.96219 0.0
C3458 C 0.67249 0.82135 0.9511 0.0
C3459 C 0.66598 0.8038 0.93398 0.0
H3460 H 0.12815 0.82832 0.04732 0.0
H3461 H 0.11789 0.77624 0.99642 0.0
H3462 H 0.15786 0.84529 1.01314 0.0
H3463 H 0.14679 0.79315 0.96026 0.0
H3464 H 0.20879 0.82839 0.92658 0.0
H3465 H 0.17911 0.80956 0.95864 0.0
H3466 H 0.16805 0.85583 0.95139 0.0
H3467 H 0.19871 0.87523 0.9217 0.0
C3468 C 0.13258 0.82048 1.02958 0.0
C3469 C 0.12097 0.80102 1.02485 0.0
C3470 C 0.14931 0.83021 1.00919 0.0
C3471 C 0.15449 0.8207 0.98301 0.0
C3472 C 0.14336 0.80099 0.9802 0.0
C3473 C 0.12685 0.79121 1.00125 0.0
C3474 C 0.19984 0.83443 0.93112 0.0
C3475 C 0.20624 0.85342 0.92255 0.0
C3476 C 0.18275 0.82359 0.94956 0.0
C3477 C 0.17139 0.83134 0.9588 0.0
C3478 C 0.17683 0.84967 0.94615 0.0
C3479 C 0.1942 0.86069 0.92837 0.0
H3480 H 0.29932 0.16889 0.73734 0.0
H3481 H 0.34205 0.22042 0.78857 0.0
H3482 H 0.3111 0.15122 0.77218 0.0
H3483 H 0.35285 0.2029 0.82567 0.0
H3484 H 0.37839 0.16734 0.86151 0.0
H3485 H 0.36805 0.18633 0.8289 0.0
H3486 H 0.31056 0.14002 0.83278 0.0
H3487 H 0.32146 0.12036 0.86271 0.0
C3488 C 0.31157 0.17644 0.75533 0.0
C3489 C 0.32 0.19597 0.75983 0.0
C3490 C 0.31799 0.16632 0.77614 0.0
C3491 C 0.33264 0.17551 0.80262 0.0
C3492 C 0.34169 0.19526 0.80541 0.0
C3493 C 0.3356 0.2054 0.78383 0.0
C3494 C 0.36347 0.16132 0.85613 0.0
C3495 C 0.35079 0.14225 0.86376 0.0
C3496 C 0.35748 0.17227 0.83737 0.0
C3497 C 0.3385 0.1646 0.82702 0.0
C3498 C 0.32543 0.14615 0.83883 0.0
C3499 C 0.33155 0.13498 0.85681 0.0
H3500 H 0.87699 0.19972 0.86616 0.0
H3501 H 0.83046 0.2103 0.8623 0.0
H3502 H 0.85728 0.16911 0.83657 0.0
H3503 H 0.81139 0.18077 0.83018 0.0
H3504 H 0.77744 0.1201 0.79129 0.0
H3505 H 0.79469 0.14871 0.82781 0.0
H3506 H 0.84662 0.15893 0.77513 0.0
H3507 H 0.82926 0.12936 0.74071 0.0
C3508 C 0.86244 0.19532 0.85976 0.0
C3509 C 0.85534 0.20749 0.86577 0.0
C3510 C 0.85127 0.17799 0.84201 0.0
C3511 C 0.83296 0.17277 0.82954 0.0
C3512 C 0.82538 0.18423 0.8391 0.0
C3513 C 0.83636 0.20125 0.85759 0.0
C3514 C 0.79245 0.1288 0.78658 0.0
C3515 C 0.80207 0.12268 0.76302 0.0
C3516 C 0.80243 0.14517 0.80784 0.0
C3517 C 0.82217 0.15598 0.8052 0.0
C3518 C 0.83152 0.15062 0.77899 0.0
C3519 C 0.82158 0.13398 0.75844 0.0
H3520 H 0.88059 0.65884 0.80494 0.0
H3521 H 0.86764 0.69301 0.73208 0.0
H3522 H 0.85248 0.65009 0.84165 0.0
H3523 H 0.8385 0.68312 0.76685 0.0
H3524 H 0.7985 0.68016 0.85299 0.0
H3525 H 0.82908 0.68952 0.8246 0.0
H3526 H 0.8206 0.6339 0.84713 0.0
H3527 H 0.79119 0.62541 0.87787 0.0
C3528 C 0.87107 0.66356 0.79546 0.0
C3529 C 0.87602 0.67633 0.76541 0.0
C3530 C 0.85503 0.65876 0.81683 0.0
C3531 C 0.84338 0.66626 0.80789 0.0
C3532 C 0.84749 0.67764 0.77548 0.0
C3533 C 0.86383 0.68284 0.75475 0.0
C3534 C 0.80369 0.67034 0.85342 0.0
C3535 C 0.79242 0.65196 0.86701 0.0
C3536 C 0.82096 0.67548 0.83627 0.0
C3537 C 0.82698 0.6622 0.83207 0.0
C3538 C 0.81653 0.64454 0.84953 0.0
C3539 C 0.7996 0.63962 0.86733 0.0
H3540 H 0.84928 0.63918 0.38441 0.0
H3541 H 0.88424 0.67561 0.2948 0.0
H3542 H 0.82489 0.64666 0.36841 0.0
H3543 H 0.86067 0.68437 0.28053 0.0
H3544 H 0.80666 0.67975 0.23535 0.0
H3545 H 0.83118 0.67225 0.25167 0.0
H3546 H 0.81647 0.66959 0.36992 0.0
H3547 H 0.7914 0.67552 0.35328 0.0
C3548 C 0.85183 0.64905 0.36179 0.0
C3549 C 0.86837 0.65654 0.34043 0.0
C3550 C 0.83797 0.65349 0.35268 0.0
C3551 C 0.84071 0.66597 0.32276 0.0
C3552 C 0.85783 0.67428 0.30293 0.0
C3553 C 0.87144 0.66948 0.31147 0.0
C3554 C 0.80863 0.67729 0.26465 0.0
C3555 C 0.79706 0.67794 0.29293 0.0
C3556 C 0.82276 0.67322 0.27416 0.0
C3557 C 0.82577 0.67023 0.3122 0.0
C3558 C 0.81427 0.67125 0.34032 0.0
C3559 C 0.79993 0.67477 0.33073 0.0
H3560 H 0.36746 0.2052 0.37223 0.0
H3561 H 0.32551 0.21511 0.32067 0.0
H3562 H 0.35493 0.17552 0.3381 0.0
H3563 H 0.31375 0.18626 0.28459 0.0
H3564 H 0.28593 0.12356 0.25615 0.0
H3565 H 0.29752 0.15397 0.28538 0.0
H3566 H 0.35453 0.16417 0.27709 0.0
H3567 H 0.34253 0.13281 0.25016 0.0
C3568 C 0.35528 0.20076 0.35417 0.0
C3569 C 0.34725 0.21221 0.34948 0.0
C3570 C 0.34839 0.18403 0.33385 0.0
C3571 C 0.3336 0.17867 0.30779 0.0
C3572 C 0.32505 0.1898 0.30453 0.0
C3573 C 0.33168 0.2063 0.32549 0.0
C3574 C 0.301 0.13247 0.25977 0.0
C3575 C 0.3133 0.12568 0.25175 0.0
C3576 C 0.30769 0.15 0.27656 0.0
C3577 C 0.32693 0.16136 0.28473 0.0
C3578 C 0.33951 0.15544 0.27258 0.0
C3579 C 0.33273 0.13766 0.2564 0.0
H3580 H 0.86823 0.21204 0.25932 0.0
H3581 H 0.87714 0.16443 0.26074 0.0
H3582 H 0.83751 0.19275 0.28895 0.0
H3583 H 0.84765 0.14579 0.29308 0.0
H3584 H 0.78742 0.11241 0.33271 0.0
H3585 H 0.8159 0.12965 0.29592 0.0
H3586 H 0.82644 0.18154 0.34929 0.0
H3587 H 0.79684 0.16416 0.38377 0.0
C3588 C 0.86344 0.19736 0.26521 0.0
C3589 C 0.87515 0.1898 0.25839 0.0
C3590 C 0.84605 0.18641 0.28302 0.0
C3591 C 0.84033 0.16787 0.2948 0.0
C3592 C 0.85141 0.15993 0.28462 0.0
C3593 C 0.86844 0.17067 0.26601 0.0
C3594 C 0.79616 0.12741 0.33751 0.0
C3595 C 0.79014 0.13699 0.36139 0.0
C3596 C 0.81248 0.1374 0.3161 0.0
C3597 C 0.82341 0.15713 0.31895 0.0
C3598 C 0.81808 0.16646 0.34528 0.0
C3599 C 0.80143 0.1565 0.3659 0.0
loop_
_geom_bond_atom_site_label_1
_geom_bond_atom_site_label_2
_geom_bond_distance
_geom_bond_site_symmetry_2
_ccdc_geom_bond_type
Pr0 C2 2.880 . S
Pr0 O20 2.562 . S
Pr0 O21 2.490 . S
Pr0 O22 2.695 . S
Pr0 O23 2.512 . S
Pr0 O25 2.437 . S
Pr0 O28 2.436 . S
Pr0 O30 2.438 . S
Pr1 C11 2.880 . S
Pr1 O22 2.436 . S
Pr1 O24 2.438 . S
Pr1 O26 2.562 . S
Pr1 O27 2.490 . S
Pr1 O28 2.695 . S
Pr1 O29 2.512 . S
Pr1 O31 2.437 . S
C2 Pr0 2.880 . S
C2 C3 1.491 . S
C2 O20 1.254 . S
C2 O21 1.225 . S
C3 C2 1.491 . S
C3 C4 1.392 . S
C3 C8 1.356 . S
C4 C3 1.392 . S
C4 C5 1.368 . S
C4 H32 0.929 . S
C5 C4 1.368 . S
C5 C6 1.386 . S
C5 H33 0.929 . S
C6 C5 1.386 . S
C6 C7 1.373 . S
C7 C6 1.373 . S
C7 C8 1.409 . S
C7 H34 0.931 . S
C8 C3 1.356 . S
C8 C7 1.409 . S
C8 H35 0.930 . S
C9 O22 1.270 . S
C9 O23 1.248 . S
C10 O24 1.267 . S
C10 O25 1.278 . S
C11 Pr1 2.880 . S
C11 C12 1.491 . S
C11 O26 1.254 . S
C11 O27 1.225 . S
C12 C11 1.491 . S
C12 C13 1.392 1_554 S
C12 C17 1.356 1_554 S
C13 C12 1.392 1_556 S
C13 C14 1.368 . S
C13 H36 0.929 1_556 S
C14 C13 1.368 . S
C14 C15 1.386 . S
C14 H37 0.929 1_455 S
C15 C14 1.386 . S
C15 C16 1.373 . S
C16 C15 1.373 . S
C16 C17 1.409 . S
C16 H38 0.931 . S
C17 C12 1.356 1_556 S
C17 C16 1.409 . S
C17 H39 0.930 . S
C18 O28 1.270 . S
C18 O29 1.248 . S
C19 O30 1.267 . S
C19 O31 1.278 . S
O20 Pr0 2.562 . S
O20 C2 1.254 . S
O21 Pr0 2.490 . S
O21 C2 1.225 . S
O22 Pr0 2.695 . S
O22 Pr1 2.436 . S
O22 C9 1.270 . S
O23 Pr0 2.512 . S
O23 C9 1.248 . S
O24 Pr1 2.438 . S
O24 C10 1.267 . S
O25 Pr0 2.437 . S
O25 C10 1.278 . S
O26 Pr1 2.562 . S
O26 C11 1.254 . S
O27 Pr1 2.490 . S
O27 C11 1.225 . S
O28 Pr0 2.436 . S
O28 Pr1 2.695 . S
O28 C18 1.270 . S
O29 Pr1 2.512 . S
O29 C18 1.248 . S
O30 Pr0 2.438 . S
O30 C19 1.267 . S
O31 Pr1 2.437 . S
O31 C19 1.278 . S
H32 C4 0.929 . S
H33 C5 0.929 . S
H34 C7 0.931 . S
H35 C8 0.930 . S
H36 C13 0.929 1_554 S
H37 C14 0.929 1_655 S
H38 C16 0.931 . S
H39 C17 0.930 . S
Pr40 C42 2.880 . S
Pr40 O60 2.562 . S
Pr40 O61 2.490 . S
Pr40 O62 2.695 . S
Pr40 O63 2.512 . S
Pr40 O65 2.437 . S
Pr40 O68 2.436 . S
Pr40 O70 2.438 . S
Pr41 C51 2.880 . S
Pr41 O62 2.436 . S
Pr41 O64 2.438 . S
Pr41 O66 2.562 . S
Pr41 O67 2.490 . S
Pr41 O68 2.695 . S
Pr41 O69 2.512 . S
Pr41 O71 2.437 . S
C42 Pr40 2.880 . S
C42 C43 1.491 . S
C42 O60 1.254 . S
C42 O61 1.225 . S
C43 C42 1.491 . S
C43 C44 1.392 . S
C43 C48 1.356 . S
C44 C43 1.392 . S
C44 C45 1.368 . S
C44 H72 0.929 . S
C45 C44 1.368 . S
C45 C46 1.386 . S
C45 H73 0.929 . S
C46 C45 1.386 . S
C46 C47 1.373 . S
C47 C46 1.373 . S
C47 C48 1.409 . S
C47 H74 0.931 . S
C48 C43 1.356 . S
C48 C47 1.409 . S
C48 H75 0.930 . S
C49 O62 1.270 . S
C49 O63 1.248 . S
C50 O64 1.267 . S
C50 O65 1.278 . S
C51 Pr41 2.880 . S
C51 C52 1.491 . S
C51 O66 1.254 . S
C51 O67 1.225 . S
C52 C51 1.491 . S
C52 C53 1.392 1_554 S
C52 C57 1.356 1_554 S
C53 C52 1.392 1_556 S
C53 C54 1.368 . S
C53 H76 0.929 1_556 S
C54 C53 1.368 . S
C54 C55 1.386 . S
C54 H77 0.929 . S
C55 C54 1.386 . S
C55 C56 1.373 . S
C56 C55 1.373 . S
C56 C57 1.409 . S
C56 H78 0.931 . S
C57 C52 1.356 1_556 S
C57 C56 1.409 . S
C57 H79 0.930 . S
C58 O68 1.270 . S
C58 O69 1.248 . S
C59 O70 1.267 . S
C59 O71 1.278 . S
O60 Pr40 2.562 . S
O60 C42 1.254 . S
O61 Pr40 2.490 . S
O61 C42 1.225 . S
O62 Pr40 2.695 . S
O62 Pr41 2.436 . S
O62 C49 1.270 . S
O63 Pr40 2.512 . S
O63 C49 1.248 . S
O64 Pr41 2.438 . S
O64 C50 1.267 . S
O65 Pr40 2.437 . S
O65 C50 1.278 . S
O66 Pr41 2.562 . S
O66 C51 1.254 . S
O67 Pr41 2.490 . S
O67 C51 1.225 . S
O68 Pr40 2.436 . S
O68 Pr41 2.695 . S
O68 C58 1.270 . S
O69 Pr41 2.512 . S
O69 C58 1.248 . S
O70 Pr40 2.438 . S
O70 C59 1.267 . S
O71 Pr41 2.437 . S
O71 C59 1.278 . S
H72 C44 0.929 . S
H73 C45 0.929 . S
H74 C47 0.931 . S
H75 C48 0.930 . S
H76 C53 0.929 1_554 S
H77 C54 0.929 . S
H78 C56 0.931 . S
H79 C57 0.930 . S
Pr80 C82 2.880 . S
Pr80 O100 2.562 . S
Pr80 O101 2.490 . S
Pr80 O102 2.695 . S
Pr80 O103 2.512 . S
Pr80 O105 2.437 . S
Pr80 O108 2.436 . S
Pr80 O110 2.438 . S
Pr81 C91 2.880 . S
Pr81 O102 2.436 . S
Pr81 O104 2.438 . S
Pr81 O106 2.562 . S
Pr81 O107 2.490 . S
Pr81 O108 2.695 . S
Pr81 O109 2.512 . S
Pr81 O111 2.437 . S
C82 Pr80 2.880 . S
C82 C83 1.491 . S
C82 O100 1.254 . S
C82 O101 1.225 . S
C83 C82 1.491 . S
C83 C84 1.392 . S
C83 C88 1.356 . S
C84 C83 1.392 . S
C84 C85 1.368 . S
C84 H112 0.929 . S
C85 C84 1.368 . S
C85 C86 1.386 . S
C85 H113 0.929 . S
C86 C85 1.386 . S
C86 C87 1.373 . S
C87 C86 1.373 . S
C87 C88 1.409 . S
C87 H114 0.931 . S
C88 C83 1.356 . S
C88 C87 1.409 . S
C88 H115 0.930 . S
C89 O102 1.270 . S
C89 O103 1.248 . S
C90 O104 1.267 . S
C90 O105 1.278 . S
C91 Pr81 2.880 . S
C91 C92 1.491 . S
C91 O106 1.254 . S
C91 O107 1.225 . S
C92 C91 1.491 . S
C92 C93 1.392 1_554 S
C92 C97 1.356 1_554 S
C93 C92 1.392 1_556 S
C93 C94 1.368 . S
C93 H116 0.929 1_556 S
C94 C93 1.368 . S
C94 C95 1.386 . S
C94 H117 0.929 1_565 S
C95 C94 1.386 . S
C95 C96 1.373 . S
C96 C95 1.373 . S
C96 C97 1.409 . S
C96 H118 0.931 . S
C97 C92 1.356 1_556 S
C97 C96 1.409 . S
C97 H119 0.930 . S
C98 O108 1.270 . S
C98 O109 1.248 . S
C99 O110 1.267 . S
C99 O111 1.278 . S
O100 Pr80 2.562 . S
O100 C82 1.254 . S
O101 Pr80 2.490 . S
O101 C82 1.225 . S
O102 Pr80 2.695 . S
O102 Pr81 2.436 . S
O102 C89 1.270 . S
O103 Pr80 2.512 . S
O103 C89 1.248 . S
O104 Pr81 2.438 . S
O104 C90 1.267 . S
O105 Pr80 2.437 . S
O105 C90 1.278 . S
O106 Pr81 2.562 . S
O106 C91 1.254 . S
O107 Pr81 2.490 . S
O107 C91 1.225 . S
O108 Pr80 2.436 . S
O108 Pr81 2.695 . S
O108 C98 1.270 . S
O109 Pr81 2.512 . S
O109 C98 1.248 . S
O110 Pr80 2.438 . S
O110 C99 1.267 . S
O111 Pr81 2.437 . S
O111 C99 1.278 . S
H112 C84 0.929 . S
H113 C85 0.929 . S
H114 C87 0.931 . S
H115 C88 0.930 . S
H116 C93 0.929 1_554 S
H117 C94 0.929 1_545 S
H118 C96 0.931 . S
H119 C97 0.930 . S
Pr120 C122 2.880 . S
Pr120 O140 2.562 . S
Pr120 O141 2.490 . S
Pr120 O142 2.695 . S
Pr120 O143 2.512 . S
Pr120 O145 2.437 . S
Pr120 O148 2.436 . S
Pr120 O150 2.438 . S
Pr121 C131 2.880 . S
Pr121 O142 2.436 . S
Pr121 O144 2.438 . S
Pr121 O146 2.562 . S
Pr121 O147 2.490 . S
Pr121 O148 2.695 . S
Pr121 O149 2.512 . S
Pr121 O151 2.437 . S
C122 Pr120 2.880 . S
C122 C123 1.491 . S
C122 O140 1.254 . S
C122 O141 1.225 . S
C123 C122 1.491 . S
C123 C124 1.392 . S
C123 C128 1.356 . S
C124 C123 1.392 . S
C124 C125 1.368 . S
C124 H152 0.929 . S
C125 C124 1.368 . S
C125 C126 1.386 . S
C125 H153 0.929 . S
C126 C125 1.386 . S
C126 C127 1.373 . S
C127 C126 1.373 . S
C127 C128 1.409 . S
C127 H154 0.931 . S
C128 C123 1.356 . S
C128 C127 1.409 . S
C128 H155 0.930 . S
C129 O142 1.270 . S
C129 O143 1.248 . S
C130 O144 1.267 . S
C130 O145 1.278 . S
C131 Pr121 2.880 . S
C131 C132 1.491 . S
C131 O146 1.254 . S
C131 O147 1.225 . S
C132 C131 1.491 . S
C132 C133 1.392 . S
C132 C137 1.356 . S
C133 C132 1.392 . S
C133 C134 1.368 . S
C133 H156 0.929 . S
C134 C133 1.368 . S
C134 C135 1.386 . S
C134 H157 0.929 1_545 S
C135 C134 1.386 . S
C135 C136 1.373 . S
C136 C135 1.373 . S
C136 C137 1.409 . S
C136 H158 0.931 . S
C137 C132 1.356 . S
C137 C136 1.409 . S
C137 H159 0.930 . S
C138 O148 1.270 . S
C138 O149 1.248 . S
C139 O150 1.267 . S
C139 O151 1.278 . S
O140 Pr120 2.562 . S
O140 C122 1.254 . S
O141 Pr120 2.490 . S
O141 C122 1.225 . S
O142 Pr120 2.695 . S
O142 Pr121 2.436 . S
O142 C129 1.270 . S
O143 Pr120 2.512 . S
O143 C129 1.248 . S
O144 Pr121 2.438 . S
O144 C130 1.267 . S
O145 Pr120 2.437 . S
O145 C130 1.278 . S
O146 Pr121 2.562 . S
O146 C131 1.254 . S
O147 Pr121 2.490 . S
O147 C131 1.225 . S
O148 Pr120 2.436 . S
O148 Pr121 2.695 . S
O148 C138 1.270 . S
O149 Pr121 2.512 . S
O149 C138 1.248 . S
O150 Pr120 2.438 . S
O150 C139 1.267 . S
O151 Pr121 2.437 . S
O151 C139 1.278 . S
H152 C124 0.929 . S
H153 C125 0.929 . S
H154 C127 0.931 . S
H155 C128 0.930 . S
H156 C133 0.929 . S
H157 C134 0.929 1_565 S
H158 C136 0.931 . S
H159 C137 0.930 . S
Pr160 C162 2.880 . S
Pr160 O180 2.562 . S
Pr160 O181 2.490 . S
Pr160 O182 2.695 . S
Pr160 O183 2.512 . S
Pr160 O185 2.437 . S
Pr160 O188 2.436 . S
Pr160 O190 2.438 . S
Pr161 C171 2.880 . S
Pr161 O182 2.436 . S
Pr161 O184 2.438 . S
Pr161 O186 2.562 . S
Pr161 O187 2.490 . S
Pr161 O188 2.695 . S
Pr161 O189 2.512 . S
Pr161 O191 2.437 . S
C162 Pr160 2.880 . S
C162 C163 1.491 . S
C162 O180 1.254 . S
C162 O181 1.225 . S
C163 C162 1.491 . S
C163 C164 1.392 . S
C163 C168 1.356 . S
C164 C163 1.392 . S
C164 C165 1.368 . S
C164 H192 0.929 . S
C165 C164 1.368 . S
C165 C166 1.386 . S
C165 H193 0.929 . S
C166 C165 1.386 . S
C166 C167 1.373 . S
C167 C166 1.373 . S
C167 C168 1.409 . S
C167 H194 0.931 . S
C168 C163 1.356 . S
C168 C167 1.409 . S
C168 H195 0.930 . S
C169 O182 1.270 . S
C169 O183 1.248 . S
C170 O184 1.267 . S
C170 O185 1.278 . S
C171 Pr161 2.880 . S
C171 C172 1.491 . S
C171 O186 1.254 . S
C171 O187 1.225 . S
C172 C171 1.491 . S
C172 C173 1.392 . S
C172 C177 1.356 . S
C173 C172 1.392 . S
C173 C174 1.368 . S
C173 H196 0.929 . S
C174 C173 1.368 . S
C174 C175 1.386 . S
C174 H197 0.929 1_655 S
C175 C174 1.386 . S
C175 C176 1.373 . S
C176 C175 1.373 . S
C176 C177 1.409 . S
C176 H198 0.931 . S
C177 C172 1.356 . S
C177 C176 1.409 . S
C177 H199 0.930 . S
C178 O188 1.270 . S
C178 O189 1.248 . S
C179 O190 1.267 . S
C179 O191 1.278 . S
O180 Pr160 2.562 . S
O180 C162 1.254 . S
O181 Pr160 2.490 . S
O181 C162 1.225 . S
O182 Pr160 2.695 . S
O182 Pr161 2.436 . S
O182 C169 1.270 . S
O183 Pr160 2.512 . S
O183 C169 1.248 . S
O184 Pr161 2.438 . S
O184 C170 1.267 . S
O185 Pr160 2.437 . S
O185 C170 1.278 . S
O186 Pr161 2.562 . S
O186 C171 1.254 . S
O187 Pr161 2.490 . S
O187 C171 1.225 . S
O188 Pr160 2.436 . S
O188 Pr161 2.695 . S
O188 C178 1.270 . S
O189 Pr161 2.512 . S
O189 C178 1.248 . S
O190 Pr160 2.438 . S
O190 C179 1.267 . S
O191 Pr161 2.437 . S
O191 C179 1.278 . S
H192 C164 0.929 . S
H193 C165 0.929 . S
H194 C167 0.931 . S
H195 C168 0.930 . S
H196 C173 0.929 . S
H197 C174 0.929 1_455 S
H198 C176 0.931 . S
H199 C177 0.930 . S
Pr200 C202 2.880 . S
Pr200 O220 2.562 . S
Pr200 O221 2.490 . S
Pr200 O222 2.695 . S
Pr200 O223 2.512 . S
Pr200 O225 2.437 . S
Pr200 O228 2.436 . S
Pr200 O230 2.438 . S
Pr201 C211 2.880 . S
Pr201 O222 2.436 . S
Pr201 O224 2.438 . S
Pr201 O226 2.562 . S
Pr201 O227 2.490 . S
Pr201 O228 2.695 . S
Pr201 O229 2.512 . S
Pr201 O231 2.437 . S
C202 Pr200 2.880 . S
C202 C203 1.491 . S
C202 O220 1.254 . S
C202 O221 1.225 . S
C203 C202 1.491 . S
C203 C204 1.392 . S
C203 C208 1.356 . S
C204 C203 1.392 . S
C204 C205 1.368 . S
C204 H232 0.929 . S
C205 C204 1.368 . S
C205 C206 1.386 . S
C205 H233 0.929 . S
C206 C205 1.386 . S
C206 C207 1.373 . S
C207 C206 1.373 . S
C207 C208 1.409 . S
C207 H234 0.931 . S
C208 C203 1.356 . S
C208 C207 1.409 . S
C208 H235 0.930 . S
C209 O222 1.270 . S
C209 O223 1.248 . S
C210 O224 1.267 . S
C210 O225 1.278 . S
C211 Pr201 2.880 . S
C211 C212 1.491 . S
C211 O226 1.254 . S
C211 O227 1.225 . S
C212 C211 1.491 . S
C212 C213 1.392 . S
C212 C217 1.356 . S
C213 C212 1.392 . S
C213 C214 1.368 . S
C213 H236 0.929 . S
C214 C213 1.368 . S
C214 C215 1.386 . S
C214 H237 0.929 . S
C215 C214 1.386 . S
C215 C216 1.373 . S
C216 C215 1.373 . S
C216 C217 1.409 . S
C216 H238 0.931 . S
C217 C212 1.356 . S
C217 C216 1.409 . S
C217 H239 0.930 . S
C218 O228 1.270 . S
C218 O229 1.248 . S
C219 O230 1.267 . S
C219 O231 1.278 . S
O220 Pr200 2.562 . S
O220 C202 1.254 . S
O221 Pr200 2.490 . S
O221 C202 1.225 . S
O222 Pr200 2.695 . S
O222 Pr201 2.436 . S
O222 C209 1.270 . S
O223 Pr200 2.512 . S
O223 C209 1.248 . S
O224 Pr201 2.438 . S
O224 C210 1.267 . S
O225 Pr200 2.437 . S
O225 C210 1.278 . S
O226 Pr201 2.562 . S
O226 C211 1.254 . S
O227 Pr201 2.490 . S
O227 C211 1.225 . S
O228 Pr200 2.436 . S
O228 Pr201 2.695 . S
O228 C218 1.270 . S
O229 Pr201 2.512 . S
O229 C218 1.248 . S
O230 Pr200 2.438 . S
O230 C219 1.267 . S
O231 Pr201 2.437 . S
O231 C219 1.278 . S
H232 C204 0.929 . S
H233 C205 0.929 . S
H234 C207 0.931 . S
H235 C208 0.930 . S
H236 C213 0.929 . S
H237 C214 0.929 . S
H238 C216 0.931 . S
H239 C217 0.930 . S
Pr240 C242 2.880 . S
Pr240 O260 2.562 . S
Pr240 O261 2.490 . S
Pr240 O262 2.695 . S
Pr240 O263 2.512 . S
Pr240 O265 2.437 . S
Pr240 O268 2.436 . S
Pr240 O270 2.438 . S
Pr241 C251 2.880 1_554 S
Pr241 O262 2.436 . S
Pr241 O264 2.438 . S
Pr241 O266 2.562 1_554 S
Pr241 O267 2.490 1_554 S
Pr241 O268 2.695 . S
Pr241 O269 2.512 . S
Pr241 O271 2.437 . S
C242 Pr240 2.880 . S
C242 C243 1.491 . S
C242 O260 1.254 . S
C242 O261 1.225 . S
C243 C242 1.491 . S
C243 C244 1.392 . S
C243 C248 1.356 . S
C244 C243 1.392 . S
C244 C245 1.368 . S
C244 H272 0.929 . S
C245 C244 1.368 . S
C245 C246 1.386 . S
C245 H273 0.929 1_655 S
C246 C245 1.386 . S
C246 C247 1.373 . S
C247 C246 1.373 . S
C247 C248 1.409 . S
C247 H274 0.931 . S
C248 C243 1.356 . S
C248 C247 1.409 . S
C248 H275 0.930 . S
C249 O262 1.270 . S
C249 O263 1.248 . S
C250 O264 1.267 . S
C250 O265 1.278 . S
C251 Pr241 2.880 1_556 S
C251 C252 1.491 . S
C251 O266 1.254 . S
C251 O267 1.225 . S
C252 C251 1.491 . S
C252 C253 1.392 . S
C252 C257 1.356 . S
C253 C252 1.392 . S
C253 C254 1.368 . S
C253 H276 0.929 . S
C254 C253 1.368 . S
C254 C255 1.386 . S
C254 H277 0.929 . S
C255 C254 1.386 . S
C255 C256 1.373 . S
C256 C255 1.373 . S
C256 C257 1.409 . S
C256 H278 0.931 . S
C257 C252 1.356 . S
C257 C256 1.409 . S
C257 H279 0.930 . S
C258 O268 1.270 . S
C258 O269 1.248 . S
C259 O270 1.267 . S
C259 O271 1.278 . S
O260 Pr240 2.562 . S
O260 C242 1.254 . S
O261 Pr240 2.490 . S
O261 C242 1.225 . S
O262 Pr240 2.695 . S
O262 Pr241 2.436 . S
O262 C249 1.270 . S
O263 Pr240 2.512 . S
O263 C249 1.248 . S
O264 Pr241 2.438 . S
O264 C250 1.267 . S
O265 Pr240 2.437 . S
O265 C250 1.278 . S
O266 Pr241 2.562 1_556 S
O266 C251 1.254 . S
O267 Pr241 2.490 1_556 S
O267 C251 1.225 . S
O268 Pr240 2.436 . S
O268 Pr241 2.695 . S
O268 C258 1.270 . S
O269 Pr241 2.512 . S
O269 C258 1.248 . S
O270 Pr240 2.438 . S
O270 C259 1.267 . S
O271 Pr241 2.437 . S
O271 C259 1.278 . S
H272 C244 0.929 . S
H273 C245 0.929 1_455 S
H274 C247 0.931 . S
H275 C248 0.930 . S
H276 C253 0.929 . S
H277 C254 0.929 . S
H278 C256 0.931 . S
H279 C257 0.930 . S
Pr280 C282 2.880 . S
Pr280 O300 2.562 . S
Pr280 O301 2.490 . S
Pr280 O302 2.695 . S
Pr280 O303 2.512 . S
Pr280 O305 2.437 . S
Pr280 O308 2.436 . S
Pr280 O310 2.438 . S
Pr281 C291 2.880 1_554 S
Pr281 O302 2.436 . S
Pr281 O304 2.438 . S
Pr281 O306 2.562 1_554 S
Pr281 O307 2.490 1_554 S
Pr281 O308 2.695 . S
Pr281 O309 2.512 . S
Pr281 O311 2.437 . S
C282 Pr280 2.880 . S
C282 C283 1.491 . S
C282 O300 1.254 . S
C282 O301 1.225 . S
C283 C282 1.491 . S
C283 C284 1.392 . S
C283 C288 1.356 . S
C284 C283 1.392 . S
C284 C285 1.368 . S
C284 H312 0.929 . S
C285 C284 1.368 . S
C285 C286 1.386 . S
C285 H313 0.929 . S
C286 C285 1.386 . S
C286 C287 1.373 . S
C287 C286 1.373 . S
C287 C288 1.409 . S
C287 H314 0.931 . S
C288 C283 1.356 . S
C288 C287 1.409 . S
C288 H315 0.930 . S
C289 O302 1.270 . S
C289 O303 1.248 . S
C290 O304 1.267 . S
C290 O305 1.278 . S
C291 Pr281 2.880 1_556 S
C291 C292 1.491 . S
C291 O306 1.254 . S
C291 O307 1.225 . S
C292 C291 1.491 . S
C292 C293 1.392 . S
C292 C297 1.356 . S
C293 C292 1.392 . S
C293 C294 1.368 . S
C293 H316 0.929 . S
C294 C293 1.368 . S
C294 C295 1.386 . S
C294 H317 0.929 . S
C295 C294 1.386 . S
C295 C296 1.373 . S
C296 C295 1.373 . S
C296 C297 1.409 . S
C296 H318 0.931 . S
C297 C292 1.356 . S
C297 C296 1.409 . S
C297 H319 0.930 . S
C298 O308 1.270 . S
C298 O309 1.248 . S
C299 O310 1.267 . S
C299 O311 1.278 . S
O300 Pr280 2.562 . S
O300 C282 1.254 . S
O301 Pr280 2.490 . S
O301 C282 1.225 . S
O302 Pr280 2.695 . S
O302 Pr281 2.436 . S
O302 C289 1.270 . S
O303 Pr280 2.512 . S
O303 C289 1.248 . S
O304 Pr281 2.438 . S
O304 C290 1.267 . S
O305 Pr280 2.437 . S
O305 C290 1.278 . S
O306 Pr281 2.562 1_556 S
O306 C291 1.254 . S
O307 Pr281 2.490 1_556 S
O307 C291 1.225 . S
O308 Pr280 2.436 . S
O308 Pr281 2.695 . S
O308 C298 1.270 . S
O309 Pr281 2.512 . S
O309 C298 1.248 . S
O310 Pr280 2.438 . S
O310 C299 1.267 . S
O311 Pr281 2.437 . S
O311 C299 1.278 . S
H312 C284 0.929 . S
H313 C285 0.929 . S
H314 C287 0.931 . S
H315 C288 0.930 . S
H316 C293 0.929 . S
H317 C294 0.929 . S
H318 C296 0.931 . S
H319 C297 0.930 . S
Pr320 C322 2.880 . S
Pr320 O340 2.562 . S
Pr320 O341 2.490 . S
Pr320 O342 2.695 . S
Pr320 O343 2.512 . S
Pr320 O345 2.437 . S
Pr320 O348 2.436 . S
Pr320 O350 2.438 . S
Pr321 C331 2.880 1_554 S
Pr321 O342 2.436 . S
Pr321 O344 2.438 . S
Pr321 O346 2.562 1_554 S
Pr321 O347 2.490 1_554 S
Pr321 O348 2.695 . S
Pr321 O349 2.512 . S
Pr321 O351 2.437 . S
C322 Pr320 2.880 . S
C322 C323 1.491 . S
C322 O340 1.254 . S
C322 O341 1.225 . S
C323 C322 1.491 . S
C323 C324 1.392 . S
C323 C328 1.356 . S
C324 C323 1.392 . S
C324 C325 1.368 . S
C324 H352 0.929 . S
C325 C324 1.368 . S
C325 C326 1.386 . S
C325 H353 0.929 1_545 S
C326 C325 1.386 . S
C326 C327 1.373 . S
C327 C326 1.373 . S
C327 C328 1.409 . S
C327 H354 0.931 . S
C328 C323 1.356 . S
C328 C327 1.409 . S
C328 H355 0.930 . S
C329 O342 1.270 . S
C329 O343 1.248 . S
C330 O344 1.267 . S
C330 O345 1.278 . S
C331 Pr321 2.880 1_556 S
C331 C332 1.491 . S
C331 O346 1.254 . S
C331 O347 1.225 . S
C332 C331 1.491 . S
C332 C333 1.392 . S
C332 C337 1.356 . S
C333 C332 1.392 . S
C333 C334 1.368 . S
C333 H356 0.929 . S
C334 C333 1.368 . S
C334 C335 1.386 . S
C334 H357 0.929 . S
C335 C334 1.386 . S
C335 C336 1.373 . S
C336 C335 1.373 . S
C336 C337 1.409 . S
C336 H358 0.931 . S
C337 C332 1.356 . S
C337 C336 1.409 . S
C337 H359 0.930 . S
C338 O348 1.270 . S
C338 O349 1.248 . S
C339 O350 1.267 . S
C339 O351 1.278 . S
O340 Pr320 2.562 . S
O340 C322 1.254 . S
O341 Pr320 2.490 . S
O341 C322 1.225 . S
O342 Pr320 2.695 . S
O342 Pr321 2.436 . S
O342 C329 1.270 . S
O343 Pr320 2.512 . S
O343 C329 1.248 . S
O344 Pr321 2.438 . S
O344 C330 1.267 . S
O345 Pr320 2.437 . S
O345 C330 1.278 . S
O346 Pr321 2.562 1_556 S
O346 C331 1.254 . S
O347 Pr321 2.490 1_556 S
O347 C331 1.225 . S
O348 Pr320 2.436 . S
O348 Pr321 2.695 . S
O348 C338 1.270 . S
O349 Pr321 2.512 . S
O349 C338 1.248 . S
O350 Pr320 2.438 . S
O350 C339 1.267 . S
O351 Pr321 2.437 . S
O351 C339 1.278 . S
H352 C324 0.929 . S
H353 C325 0.929 1_565 S
H354 C327 0.931 . S
H355 C328 0.930 . S
H356 C333 0.929 . S
H357 C334 0.929 . S
H358 C336 0.931 . S
H359 C337 0.930 . S
Pr360 C362 2.880 . S
Pr360 O380 2.562 . S
Pr360 O381 2.490 . S
Pr360 O382 2.695 . S
Pr360 O383 2.512 . S
Pr360 O385 2.437 . S
Pr360 O388 2.436 . S
Pr360 O390 2.438 . S
Pr361 C371 2.880 . S
Pr361 O382 2.436 . S
Pr361 O384 2.438 . S
Pr361 O386 2.562 . S
Pr361 O387 2.490 . S
Pr361 O388 2.695 . S
Pr361 O389 2.512 . S
Pr361 O391 2.437 . S
C362 Pr360 2.880 . S
C362 C363 1.491 . S
C362 O380 1.254 . S
C362 O381 1.225 . S
C363 C362 1.491 . S
C363 C364 1.392 . S
C363 C368 1.356 . S
C364 C363 1.392 . S
C364 C365 1.368 . S
C364 H392 0.929 . S
C365 C364 1.368 . S
C365 C366 1.386 . S
C365 H393 0.929 1_565 S
C366 C365 1.386 . S
C366 C367 1.373 . S
C367 C366 1.373 . S
C367 C368 1.409 . S
C367 H394 0.931 . S
C368 C363 1.356 . S
C368 C367 1.409 . S
C368 H395 0.930 . S
C369 O382 1.270 . S
C369 O383 1.248 . S
C370 O384 1.267 . S
C370 O385 1.278 . S
C371 Pr361 2.880 . S
C371 C372 1.491 . S
C371 O386 1.254 . S
C371 O387 1.225 . S
C372 C371 1.491 . S
C372 C373 1.392 . S
C372 C377 1.356 . S
C373 C372 1.392 . S
C373 C374 1.368 . S
C373 H396 0.929 . S
C374 C373 1.368 . S
C374 C375 1.386 . S
C374 H397 0.929 . S
C375 C374 1.386 . S
C375 C376 1.373 . S
C376 C375 1.373 . S
C376 C377 1.409 . S
C376 H398 0.931 . S
C377 C372 1.356 . S
C377 C376 1.409 . S
C377 H399 0.930 . S
C378 O388 1.270 . S
C378 O389 1.248 . S
C379 O390 1.267 . S
C379 O391 1.278 . S
O380 Pr360 2.562 . S
O380 C362 1.254 . S
O381 Pr360 2.490 . S
O381 C362 1.225 . S
O382 Pr360 2.695 . S
O382 Pr361 2.436 . S
O382 C369 1.270 . S
O383 Pr360 2.512 . S
O383 C369 1.248 . S
O384 Pr361 2.438 . S
O384 C370 1.267 . S
O385 Pr360 2.437 . S
O385 C370 1.278 . S
O386 Pr361 2.562 . S
O386 C371 1.254 . S
O387 Pr361 2.490 . S
O387 C371 1.225 . S
O388 Pr360 2.436 . S
O388 Pr361 2.695 . S
O388 C378 1.270 . S
O389 Pr361 2.512 . S
O389 C378 1.248 . S
O390 Pr360 2.438 . S
O390 C379 1.267 . S
O391 Pr361 2.437 . S
O391 C379 1.278 . S
H392 C364 0.929 . S
H393 C365 0.929 1_545 S
H394 C367 0.931 . S
H395 C368 0.930 . S
H396 C373 0.929 . S
H397 C374 0.929 . S
H398 C376 0.931 . S
H399 C377 0.930 . S
Pr400 C402 2.880 . S
Pr400 O420 2.562 . S
Pr400 O421 2.490 . S
Pr400 O422 2.695 . S
Pr400 O423 2.512 . S
Pr400 O425 2.437 . S
Pr400 O428 2.436 . S
Pr400 O430 2.438 . S
Pr401 C411 2.880 . S
Pr401 O422 2.436 . S
Pr401 O424 2.438 . S
Pr401 O426 2.562 . S
Pr401 O427 2.490 . S
Pr401 O428 2.695 . S
Pr401 O429 2.512 . S
Pr401 O431 2.437 . S
C402 Pr400 2.880 . S
C402 C403 1.491 . S
C402 O420 1.254 . S
C402 O421 1.225 . S
C403 C402 1.491 . S
C403 C404 1.392 . S
C403 C408 1.356 . S
C404 C403 1.392 . S
C404 C405 1.368 . S
C404 H432 0.929 . S
C405 C404 1.368 . S
C405 C406 1.386 . S
C405 H433 0.929 1_455 S
C406 C405 1.386 . S
C406 C407 1.373 . S
C407 C406 1.373 . S
C407 C408 1.409 . S
C407 H434 0.931 . S
C408 C403 1.356 . S
C408 C407 1.409 . S
C408 H435 0.930 . S
C409 O422 1.270 . S
C409 O423 1.248 . S
C410 O424 1.267 . S
C410 O425 1.278 . S
C411 Pr401 2.880 . S
C411 C412 1.491 . S
C411 O426 1.254 . S
C411 O427 1.225 . S
C412 C411 1.491 . S
C412 C413 1.392 . S
C412 C417 1.356 . S
C413 C412 1.392 . S
C413 C414 1.368 . S
C413 H436 0.929 . S
C414 C413 1.368 . S
C414 C415 1.386 . S
C414 H437 0.929 . S
C415 C414 1.386 . S
C415 C416 1.373 . S
C416 C415 1.373 . S
C416 C417 1.409 . S
C416 H438 0.931 . S
C417 C412 1.356 . S
C417 C416 1.409 . S
C417 H439 0.930 . S
C418 O428 1.270 . S
C418 O429 1.248 . S
C419 O430 1.267 . S
C419 O431 1.278 . S
O420 Pr400 2.562 . S
O420 C402 1.254 . S
O421 Pr400 2.490 . S
O421 C402 1.225 . S
O422 Pr400 2.695 . S
O422 Pr401 2.436 . S
O422 C409 1.270 . S
O423 Pr400 2.512 . S
O423 C409 1.248 . S
O424 Pr401 2.438 . S
O424 C410 1.267 . S
O425 Pr400 2.437 . S
O425 C410 1.278 . S
O426 Pr401 2.562 . S
O426 C411 1.254 . S
O427 Pr401 2.490 . S
O427 C411 1.225 . S
O428 Pr400 2.436 . S
O428 Pr401 2.695 . S
O428 C418 1.270 . S
O429 Pr401 2.512 . S
O429 C418 1.248 . S
O430 Pr400 2.438 . S
O430 C419 1.267 . S
O431 Pr401 2.437 . S
O431 C419 1.278 . S
H432 C404 0.929 . S
H433 C405 0.929 1_655 S
H434 C407 0.931 . S
H435 C408 0.930 . S
H436 C413 0.929 . S
H437 C414 0.929 . S
H438 C416 0.931 . S
H439 C417 0.930 . S
Pr440 C442 2.880 . S
Pr440 O460 2.562 . S
Pr440 O461 2.490 . S
Pr440 O462 2.695 . S
Pr440 O463 2.512 . S
Pr440 O465 2.437 . S
Pr440 O468 2.436 . S
Pr440 O470 2.438 . S
Pr441 C451 2.880 . S
Pr441 O462 2.436 . S
Pr441 O464 2.438 . S
Pr441 O466 2.562 . S
Pr441 O467 2.490 . S
Pr441 O468 2.695 . S
Pr441 O469 2.512 . S
Pr441 O471 2.437 . S
C442 Pr440 2.880 . S
C442 C443 1.491 . S
C442 O460 1.254 . S
C442 O461 1.225 . S
C443 C442 1.491 . S
C443 C444 1.392 . S
C443 C448 1.356 . S
C444 C443 1.392 . S
C444 C445 1.368 . S
C444 H472 0.929 . S
C445 C444 1.368 . S
C445 C446 1.386 . S
C445 H473 0.929 . S
C446 C445 1.386 . S
C446 C447 1.373 . S
C447 C446 1.373 . S
C447 C448 1.409 . S
C447 H474 0.931 . S
C448 C443 1.356 . S
C448 C447 1.409 . S
C448 H475 0.930 . S
C449 O462 1.270 . S
C449 O463 1.248 . S
C450 O464 1.267 . S
C450 O465 1.278 . S
C451 Pr441 2.880 . S
C451 C452 1.491 . S
C451 O466 1.254 . S
C451 O467 1.225 . S
C452 C451 1.491 . S
C452 C453 1.392 . S
C452 C457 1.356 . S
C453 C452 1.392 . S
C453 C454 1.368 . S
C453 H476 0.929 . S
C454 C453 1.368 . S
C454 C455 1.386 . S
C454 H477 0.929 . S
C455 C454 1.386 . S
C455 C456 1.373 . S
C456 C455 1.373 . S
C456 C457 1.409 . S
C456 H478 0.931 . S
C457 C452 1.356 . S
C457 C456 1.409 . S
C457 H479 0.930 . S
C458 O468 1.270 . S
C458 O469 1.248 . S
C459 O470 1.267 . S
C459 O471 1.278 . S
O460 Pr440 2.562 . S
O460 C442 1.254 . S
O461 Pr440 2.490 . S
O461 C442 1.225 . S
O462 Pr440 2.695 . S
O462 Pr441 2.436 . S
O462 C449 1.270 . S
O463 Pr440 2.512 . S
O463 C449 1.248 . S
O464 Pr441 2.438 . S
O464 C450 1.267 . S
O465 Pr440 2.437 . S
O465 C450 1.278 . S
O466 Pr441 2.562 . S
O466 C451 1.254 . S
O467 Pr441 2.490 . S
O467 C451 1.225 . S
O468 Pr440 2.436 . S
O468 Pr441 2.695 . S
O468 C458 1.270 . S
O469 Pr441 2.512 . S
O469 C458 1.248 . S
O470 Pr440 2.438 . S
O470 C459 1.267 . S
O471 Pr441 2.437 . S
O471 C459 1.278 . S
H472 C444 0.929 . S
H473 C445 0.929 . S
H474 C447 0.931 . S
H475 C448 0.930 . S
H476 C453 0.929 . S
H477 C454 0.929 . S
H478 C456 0.931 . S
H479 C457 0.930 . S
Pr480 C482 2.880 . S
Pr480 O500 2.562 . S
Pr480 O501 2.490 . S
Pr480 O502 2.695 . S
Pr480 O503 2.512 . S
Pr480 O505 2.437 . S
Pr480 O508 2.436 . S
Pr480 O510 2.438 . S
Pr481 C491 2.880 . S
Pr481 O502 2.436 . S
Pr481 O504 2.438 . S
Pr481 O506 2.562 . S
Pr481 O507 2.490 . S
Pr481 O508 2.695 . S
Pr481 O509 2.512 . S
Pr481 O511 2.437 . S
C482 Pr480 2.880 . S
C482 C483 1.491 . S
C482 O500 1.254 . S
C482 O501 1.225 . S
C483 C482 1.491 . S
C483 C484 1.392 . S
C483 C488 1.356 . S
C484 C483 1.392 . S
C484 C485 1.368 . S
C484 H512 0.929 . S
C485 C484 1.368 . S
C485 C486 1.386 . S
C485 H513 0.929 . S
C486 C485 1.386 . S
C486 C487 1.373 . S
C487 C486 1.373 . S
C487 C488 1.409 . S
C487 H514 0.931 . S
C488 C483 1.356 . S
C488 C487 1.409 . S
C488 H515 0.930 . S
C489 O502 1.270 . S
C489 O503 1.248 . S
C490 O504 1.267 . S
C490 O505 1.278 . S
C491 Pr481 2.880 . S
C491 C492 1.491 . S
C491 O506 1.254 . S
C491 O507 1.225 . S
C492 C491 1.491 . S
C492 C493 1.392 . S
C492 C497 1.356 . S
C493 C492 1.392 . S
C493 C494 1.368 . S
C493 H516 0.929 . S
C494 C493 1.368 . S
C494 C495 1.386 . S
C494 H517 0.929 . S
C495 C494 1.386 . S
C495 C496 1.373 . S
C496 C495 1.373 . S
C496 C497 1.409 . S
C496 H518 0.931 . S
C497 C492 1.356 . S
C497 C496 1.409 . S
C497 H519 0.930 . S
C498 O508 1.270 . S
C498 O509 1.248 . S
C499 O510 1.267 . S
C499 O511 1.278 . S
O500 Pr480 2.562 . S
O500 C482 1.254 . S
O501 Pr480 2.490 . S
O501 C482 1.225 . S
O502 Pr480 2.695 . S
O502 Pr481 2.436 . S
O502 C489 1.270 . S
O503 Pr480 2.512 . S
O503 C489 1.248 . S
O504 Pr481 2.438 . S
O504 C490 1.267 . S
O505 Pr480 2.437 . S
O505 C490 1.278 . S
O506 Pr481 2.562 . S
O506 C491 1.254 . S
O507 Pr481 2.490 . S
O507 C491 1.225 . S
O508 Pr480 2.436 . S
O508 Pr481 2.695 . S
O508 C498 1.270 . S
O509 Pr481 2.512 . S
O509 C498 1.248 . S
O510 Pr480 2.438 . S
O510 C499 1.267 . S
O511 Pr481 2.437 . S
O511 C499 1.278 . S
H512 C484 0.929 . S
H513 C485 0.929 . S
H514 C487 0.931 . S
H515 C488 0.930 . S
H516 C493 0.929 . S
H517 C494 0.929 . S
H518 C496 0.931 . S
H519 C497 0.930 . S
Pr520 C522 2.880 . S
Pr520 O540 2.562 . S
Pr520 O541 2.490 . S
Pr520 O542 2.695 . S
Pr520 O543 2.512 . S
Pr520 O545 2.437 . S
Pr520 O548 2.436 . S
Pr520 O550 2.438 . S
Pr521 C531 2.880 . S
Pr521 O542 2.436 . S
Pr521 O544 2.438 . S
Pr521 O546 2.562 . S
Pr521 O547 2.490 . S
Pr521 O548 2.695 . S
Pr521 O549 2.512 . S
Pr521 O551 2.437 . S
C522 Pr520 2.880 . S
C522 C523 1.491 . S
C522 O540 1.254 . S
C522 O541 1.225 . S
C523 C522 1.491 . S
C523 C524 1.392 . S
C523 C528 1.356 . S
C524 C523 1.392 . S
C524 C525 1.368 . S
C524 H552 0.929 . S
C525 C524 1.368 . S
C525 C526 1.386 . S
C525 H553 0.929 . S
C526 C525 1.386 . S
C526 C527 1.373 . S
C527 C526 1.373 . S
C527 C528 1.409 . S
C527 H554 0.931 . S
C528 C523 1.356 . S
C528 C527 1.409 . S
C528 H555 0.930 . S
C529 O542 1.270 . S
C529 O543 1.248 . S
C530 O544 1.267 . S
C530 O545 1.278 . S
C531 Pr521 2.880 . S
C531 C532 1.491 . S
C531 O546 1.254 . S
C531 O547 1.225 . S
C532 C531 1.491 . S
C532 C533 1.392 . S
C532 C537 1.356 . S
C533 C532 1.392 . S
C533 C534 1.368 . S
C533 H556 0.929 . S
C534 C533 1.368 . S
C534 C535 1.386 . S
C534 H557 0.929 . S
C535 C534 1.386 . S
C535 C536 1.373 . S
C536 C535 1.373 . S
C536 C537 1.409 . S
C536 H558 0.931 . S
C537 C532 1.356 . S
C537 C536 1.409 . S
C537 H559 0.930 . S
C538 O548 1.270 . S
C538 O549 1.248 . S
C539 O550 1.267 . S
C539 O551 1.278 . S
O540 Pr520 2.562 . S
O540 C522 1.254 . S
O541 Pr520 2.490 . S
O541 C522 1.225 . S
O542 Pr520 2.695 . S
O542 Pr521 2.436 . S
O542 C529 1.270 . S
O543 Pr520 2.512 . S
O543 C529 1.248 . S
O544 Pr521 2.438 . S
O544 C530 1.267 . S
O545 Pr520 2.437 . S
O545 C530 1.278 . S
O546 Pr521 2.562 . S
O546 C531 1.254 . S
O547 Pr521 2.490 . S
O547 C531 1.225 . S
O548 Pr520 2.436 . S
O548 Pr521 2.695 . S
O548 C538 1.270 . S
O549 Pr521 2.512 . S
O549 C538 1.248 . S
O550 Pr520 2.438 . S
O550 C539 1.267 . S
O551 Pr521 2.437 . S
O551 C539 1.278 . S
H552 C524 0.929 . S
H553 C525 0.929 . S
H554 C527 0.931 . S
H555 C528 0.930 . S
H556 C533 0.929 . S
H557 C534 0.929 . S
H558 C536 0.931 . S
H559 C537 0.930 . S
Pr560 C562 2.880 . S
Pr560 O580 2.562 . S
Pr560 O581 2.490 . S
Pr560 O582 2.695 . S
Pr560 O583 2.512 . S
Pr560 O585 2.437 . S
Pr560 O588 2.436 . S
Pr560 O590 2.438 . S
Pr561 C571 2.880 . S
Pr561 O582 2.436 . S
Pr561 O584 2.438 . S
Pr561 O586 2.562 . S
Pr561 O587 2.490 . S
Pr561 O588 2.695 . S
Pr561 O589 2.512 . S
Pr561 O591 2.437 . S
C562 Pr560 2.880 . S
C562 C563 1.491 . S
C562 O580 1.254 . S
C562 O581 1.225 . S
C563 C562 1.491 . S
C563 C564 1.392 . S
C563 C568 1.356 . S
C564 C563 1.392 . S
C564 C565 1.368 . S
C564 H592 0.929 . S
C565 C564 1.368 . S
C565 C566 1.386 . S
C565 H593 0.929 . S
C566 C565 1.386 . S
C566 C567 1.373 . S
C567 C566 1.373 . S
C567 C568 1.409 . S
C567 H594 0.931 . S
C568 C563 1.356 . S
C568 C567 1.409 . S
C568 H595 0.930 . S
C569 O582 1.270 . S
C569 O583 1.248 . S
C570 O584 1.267 . S
C570 O585 1.278 . S
C571 Pr561 2.880 . S
C571 C572 1.491 . S
C571 O586 1.254 . S
C571 O587 1.225 . S
C572 C571 1.491 . S
C572 C573 1.392 . S
C572 C577 1.356 . S
C573 C572 1.392 . S
C573 C574 1.368 . S
C573 H596 0.929 . S
C574 C573 1.368 . S
C574 C575 1.386 . S
C574 H597 0.929 . S
C575 C574 1.386 . S
C575 C576 1.373 . S
C576 C575 1.373 . S
C576 C577 1.409 . S
C576 H598 0.931 . S
C577 C572 1.356 . S
C577 C576 1.409 . S
C577 H599 0.930 . S
C578 O588 1.270 . S
C578 O589 1.248 . S
C579 O590 1.267 . S
C579 O591 1.278 . S
O580 Pr560 2.562 . S
O580 C562 1.254 . S
O581 Pr560 2.490 . S
O581 C562 1.225 . S
O582 Pr560 2.695 . S
O582 Pr561 2.436 . S
O582 C569 1.270 . S
O583 Pr560 2.512 . S
O583 C569 1.248 . S
O584 Pr561 2.438 . S
O584 C570 1.267 . S
O585 Pr560 2.437 . S
O585 C570 1.278 . S
O586 Pr561 2.562 . S
O586 C571 1.254 . S
O587 Pr561 2.490 . S
O587 C571 1.225 . S
O588 Pr560 2.436 . S
O588 Pr561 2.695 . S
O588 C578 1.270 . S
O589 Pr561 2.512 . S
O589 C578 1.248 . S
O590 Pr560 2.438 . S
O590 C579 1.267 . S
O591 Pr561 2.437 . S
O591 C579 1.278 . S
H592 C564 0.929 . S
H593 C565 0.929 . S
H594 C567 0.931 . S
H595 C568 0.930 . S
H596 C573 0.929 . S
H597 C574 0.929 . S
H598 C576 0.931 . S
H599 C577 0.930 . S
Pr600 C602 2.880 . S
Pr600 O620 2.562 . S
Pr600 O621 2.490 . S
Pr600 O622 2.695 . S
Pr600 O623 2.512 . S
Pr600 O625 2.437 . S
Pr600 O628 2.436 . S
Pr600 O630 2.438 . S
Pr601 C611 2.880 1_556 S
Pr601 O622 2.436 . S
Pr601 O624 2.438 . S
Pr601 O626 2.562 . S
Pr601 O627 2.490 . S
Pr601 O628 2.695 . S
Pr601 O629 2.512 . S
Pr601 O631 2.437 . S
C602 Pr600 2.880 . S
C602 C603 1.491 . S
C602 O620 1.254 . S
C602 O621 1.225 . S
C603 C602 1.491 . S
C603 C604 1.392 . S
C603 C608 1.356 . S
C604 C603 1.392 . S
C604 C605 1.368 . S
C604 H632 0.929 . S
C605 C604 1.368 . S
C605 C606 1.386 . S
C605 H633 0.929 . S
C606 C605 1.386 . S
C606 C607 1.373 . S
C607 C606 1.373 . S
C607 C608 1.409 . S
C607 H634 0.931 . S
C608 C603 1.356 . S
C608 C607 1.409 . S
C608 H635 0.930 . S
C609 O622 1.270 . S
C609 O623 1.248 . S
C610 O624 1.267 . S
C610 O625 1.278 . S
C611 Pr601 2.880 1_554 S
C611 C612 1.491 . S
C611 O626 1.254 1_554 S
C611 O627 1.225 1_554 S
C612 C611 1.491 . S
C612 C613 1.392 . S
C612 C617 1.356 . S
C613 C612 1.392 . S
C613 C614 1.368 . S
C613 H636 0.929 . S
C614 C613 1.368 . S
C614 C615 1.386 . S
C614 H637 0.929 . S
C615 C614 1.386 . S
C615 C616 1.373 . S
C616 C615 1.373 . S
C616 C617 1.409 . S
C616 H638 0.931 . S
C617 C612 1.356 . S
C617 C616 1.409 . S
C617 H639 0.930 . S
C618 O628 1.270 . S
C618 O629 1.248 . S
C619 O630 1.267 . S
C619 O631 1.278 . S
O620 Pr600 2.562 . S
O620 C602 1.254 . S
O621 Pr600 2.490 . S
O621 C602 1.225 . S
O622 Pr600 2.695 . S
O622 Pr601 2.436 . S
O622 C609 1.270 . S
O623 Pr600 2.512 . S
O623 C609 1.248 . S
O624 Pr601 2.438 . S
O624 C610 1.267 . S
O625 Pr600 2.437 . S
O625 C610 1.278 . S
O626 Pr601 2.562 . S
O626 C611 1.254 1_556 S
O627 Pr601 2.490 . S
O627 C611 1.225 1_556 S
O628 Pr600 2.436 . S
O628 Pr601 2.695 . S
O628 C618 1.270 . S
O629 Pr601 2.512 . S
O629 C618 1.248 . S
O630 Pr600 2.438 . S
O630 C619 1.267 . S
O631 Pr601 2.437 . S
O631 C619 1.278 . S
H632 C604 0.929 . S
H633 C605 0.929 . S
H634 C607 0.931 . S
H635 C608 0.930 . S
H636 C613 0.929 . S
H637 C614 0.929 . S
H638 C616 0.931 . S
H639 C617 0.930 . S
Pr640 C642 2.880 . S
Pr640 O660 2.562 . S
Pr640 O661 2.490 . S
Pr640 O662 2.695 . S
Pr640 O663 2.512 . S
Pr640 O665 2.437 . S
Pr640 O668 2.436 . S
Pr640 O670 2.438 . S
Pr641 C651 2.880 1_556 S
Pr641 O662 2.436 . S
Pr641 O664 2.438 . S
Pr641 O666 2.562 . S
Pr641 O667 2.490 . S
Pr641 O668 2.695 . S
Pr641 O669 2.512 . S
Pr641 O671 2.437 . S
C642 Pr640 2.880 . S
C642 C643 1.491 . S
C642 O660 1.254 . S
C642 O661 1.225 . S
C643 C642 1.491 . S
C643 C644 1.392 . S
C643 C648 1.356 . S
C644 C643 1.392 . S
C644 C645 1.368 . S
C644 H672 0.929 . S
C645 C644 1.368 . S
C645 C646 1.386 . S
C645 H673 0.929 . S
C646 C645 1.386 . S
C646 C647 1.373 . S
C647 C646 1.373 . S
C647 C648 1.409 . S
C647 H674 0.931 . S
C648 C643 1.356 . S
C648 C647 1.409 . S
C648 H675 0.930 . S
C649 O662 1.270 . S
C649 O663 1.248 . S
C650 O664 1.267 . S
C650 O665 1.278 . S
C651 Pr641 2.880 1_554 S
C651 C652 1.491 . S
C651 O666 1.254 1_554 S
C651 O667 1.225 1_554 S
C652 C651 1.491 . S
C652 C653 1.392 . S
C652 C657 1.356 . S
C653 C652 1.392 . S
C653 C654 1.368 . S
C653 H676 0.929 . S
C654 C653 1.368 . S
C654 C655 1.386 . S
C654 H677 0.929 . S
C655 C654 1.386 . S
C655 C656 1.373 . S
C656 C655 1.373 . S
C656 C657 1.409 . S
C656 H678 0.931 . S
C657 C652 1.356 . S
C657 C656 1.409 . S
C657 H679 0.930 . S
C658 O668 1.270 . S
C658 O669 1.248 . S
C659 O670 1.267 . S
C659 O671 1.278 . S
O660 Pr640 2.562 . S
O660 C642 1.254 . S
O661 Pr640 2.490 . S
O661 C642 1.225 . S
O662 Pr640 2.695 . S
O662 Pr641 2.436 . S
O662 C649 1.270 . S
O663 Pr640 2.512 . S
O663 C649 1.248 . S
O664 Pr641 2.438 . S
O664 C650 1.267 . S
O665 Pr640 2.437 . S
O665 C650 1.278 . S
O666 Pr641 2.562 . S
O666 C651 1.254 1_556 S
O667 Pr641 2.490 . S
O667 C651 1.225 1_556 S
O668 Pr640 2.436 . S
O668 Pr641 2.695 . S
O668 C658 1.270 . S
O669 Pr641 2.512 . S
O669 C658 1.248 . S
O670 Pr640 2.438 . S
O670 C659 1.267 . S
O671 Pr641 2.437 . S
O671 C659 1.278 . S
H672 C644 0.929 . S
H673 C645 0.929 . S
H674 C647 0.931 . S
H675 C648 0.930 . S
H676 C653 0.929 . S
H677 C654 0.929 . S
H678 C656 0.931 . S
H679 C657 0.930 . S
Pr680 C682 2.880 . S
Pr680 O700 2.562 . S
Pr680 O701 2.490 . S
Pr680 O702 2.695 . S
Pr680 O703 2.512 . S
Pr680 O705 2.437 . S
Pr680 O708 2.436 . S
Pr680 O710 2.438 . S
Pr681 C691 2.880 1_556 S
Pr681 O702 2.436 . S
Pr681 O704 2.438 . S
Pr681 O706 2.562 . S
Pr681 O707 2.490 . S
Pr681 O708 2.695 . S
Pr681 O709 2.512 . S
Pr681 O711 2.437 . S
C682 Pr680 2.880 . S
C682 C683 1.491 . S
C682 O700 1.254 . S
C682 O701 1.225 . S
C683 C682 1.491 . S
C683 C684 1.392 . S
C683 C688 1.356 . S
C684 C683 1.392 . S
C684 C685 1.368 . S
C684 H712 0.929 . S
C685 C684 1.368 . S
C685 C686 1.386 . S
C685 H713 0.929 . S
C686 C685 1.386 . S
C686 C687 1.373 . S
C687 C686 1.373 . S
C687 C688 1.409 . S
C687 H714 0.931 . S
C688 C683 1.356 . S
C688 C687 1.409 . S
C688 H715 0.930 . S
C689 O702 1.270 . S
C689 O703 1.248 . S
C690 O704 1.267 . S
C690 O705 1.278 . S
C691 Pr681 2.880 1_554 S
C691 C692 1.491 . S
C691 O706 1.254 1_554 S
C691 O707 1.225 1_554 S
C692 C691 1.491 . S
C692 C693 1.392 . S
C692 C697 1.356 . S
C693 C692 1.392 . S
C693 C694 1.368 . S
C693 H716 0.929 . S
C694 C693 1.368 . S
C694 C695 1.386 . S
C694 H717 0.929 . S
C695 C694 1.386 . S
C695 C696 1.373 . S
C696 C695 1.373 . S
C696 C697 1.409 . S
C696 H718 0.931 . S
C697 C692 1.356 . S
C697 C696 1.409 . S
C697 H719 0.930 . S
C698 O708 1.270 . S
C698 O709 1.248 . S
C699 O710 1.267 . S
C699 O711 1.278 . S
O700 Pr680 2.562 . S
O700 C682 1.254 . S
O701 Pr680 2.490 . S
O701 C682 1.225 . S
O702 Pr680 2.695 . S
O702 Pr681 2.436 . S
O702 C689 1.270 . S
O703 Pr680 2.512 . S
O703 C689 1.248 . S
O704 Pr681 2.438 . S
O704 C690 1.267 . S
O705 Pr680 2.437 . S
O705 C690 1.278 . S
O706 Pr681 2.562 . S
O706 C691 1.254 1_556 S
O707 Pr681 2.490 . S
O707 C691 1.225 1_556 S
O708 Pr680 2.436 . S
O708 Pr681 2.695 . S
O708 C698 1.270 . S
O709 Pr681 2.512 . S
O709 C698 1.248 . S
O710 Pr680 2.438 . S
O710 C699 1.267 . S
O711 Pr681 2.437 . S
O711 C699 1.278 . S
H712 C684 0.929 . S
H713 C685 0.929 . S
H714 C687 0.931 . S
H715 C688 0.930 . S
H716 C693 0.929 . S
H717 C694 0.929 . S
H718 C696 0.931 . S
H719 C697 0.930 . S
Pr720 C722 2.880 . S
Pr720 O740 2.562 . S
Pr720 O741 2.490 . S
Pr720 O742 2.695 . S
Pr720 O743 2.512 . S
Pr720 O745 2.437 . S
Pr720 O748 2.436 . S
Pr720 O750 2.438 . S
Pr721 C731 2.880 . S
Pr721 O742 2.436 . S
Pr721 O744 2.438 . S
Pr721 O746 2.562 . S
Pr721 O747 2.490 . S
Pr721 O748 2.695 . S
Pr721 O749 2.512 . S
Pr721 O751 2.437 . S
C722 Pr720 2.880 . S
C722 C723 1.491 . S
C722 O740 1.254 . S
C722 O741 1.225 . S
C723 C722 1.491 . S
C723 C724 1.392 . S
C723 C728 1.356 . S
C724 C723 1.392 . S
C724 C725 1.368 . S
C724 H752 0.929 . S
C725 C724 1.368 . S
C725 C726 1.386 . S
C725 H753 0.929 . S
C726 C725 1.386 . S
C726 C727 1.373 . S
C727 C726 1.373 . S
C727 C728 1.409 . S
C727 H754 0.931 . S
C728 C723 1.356 . S
C728 C727 1.409 . S
C728 H755 0.930 . S
C729 O742 1.270 . S
C729 O743 1.248 . S
C730 O744 1.267 . S
C730 O745 1.278 . S
C731 Pr721 2.880 . S
C731 C732 1.491 . S
C731 O746 1.254 . S
C731 O747 1.225 . S
C732 C731 1.491 . S
C732 C733 1.392 . S
C732 C737 1.356 . S
C733 C732 1.392 . S
C733 C734 1.368 . S
C733 H756 0.929 . S
C734 C733 1.368 . S
C734 C735 1.386 . S
C734 H757 0.929 . S
C735 C734 1.386 . S
C735 C736 1.373 . S
C736 C735 1.373 . S
C736 C737 1.409 . S
C736 H758 0.931 . S
C737 C732 1.356 . S
C737 C736 1.409 . S
C737 H759 0.930 . S
C738 O748 1.270 . S
C738 O749 1.248 . S
C739 O750 1.267 . S
C739 O751 1.278 . S
O740 Pr720 2.562 . S
O740 C722 1.254 . S
O741 Pr720 2.490 . S
O741 C722 1.225 . S
O742 Pr720 2.695 . S
O742 Pr721 2.436 . S
O742 C729 1.270 . S
O743 Pr720 2.512 . S
O743 C729 1.248 . S
O744 Pr721 2.438 . S
O744 C730 1.267 . S
O745 Pr720 2.437 . S
O745 C730 1.278 . S
O746 Pr721 2.562 . S
O746 C731 1.254 . S
O747 Pr721 2.490 . S
O747 C731 1.225 . S
O748 Pr720 2.436 . S
O748 Pr721 2.695 . S
O748 C738 1.270 . S
O749 Pr721 2.512 . S
O749 C738 1.248 . S
O750 Pr720 2.438 . S
O750 C739 1.267 . S
O751 Pr721 2.437 . S
O751 C739 1.278 . S
H752 C724 0.929 . S
H753 C725 0.929 . S
H754 C727 0.931 . S
H755 C728 0.930 . S
H756 C733 0.929 . S
H757 C734 0.929 . S
H758 C736 0.931 . S
H759 C737 0.930 . S
Pr760 C762 2.880 . S
Pr760 O780 2.562 . S
Pr760 O781 2.490 . S
Pr760 O782 2.695 . S
Pr760 O783 2.512 . S
Pr760 O785 2.437 . S
Pr760 O788 2.436 . S
Pr760 O790 2.438 . S
Pr761 C771 2.880 . S
Pr761 O782 2.436 . S
Pr761 O784 2.438 . S
Pr761 O786 2.562 . S
Pr761 O787 2.490 . S
Pr761 O788 2.695 . S
Pr761 O789 2.512 . S
Pr761 O791 2.437 . S
C762 Pr760 2.880 . S
C762 C763 1.491 . S
C762 O780 1.254 . S
C762 O781 1.225 . S
C763 C762 1.491 . S
C763 C764 1.392 . S
C763 C768 1.356 . S
C764 C763 1.392 . S
C764 C765 1.368 . S
C764 H792 0.929 . S
C765 C764 1.368 . S
C765 C766 1.386 . S
C765 H793 0.929 . S
C766 C765 1.386 . S
C766 C767 1.373 . S
C767 C766 1.373 . S
C767 C768 1.409 . S
C767 H794 0.931 . S
C768 C763 1.356 . S
C768 C767 1.409 . S
C768 H795 0.930 . S
C769 O782 1.270 . S
C769 O783 1.248 . S
C770 O784 1.267 . S
C770 O785 1.278 . S
C771 Pr761 2.880 . S
C771 C772 1.491 . S
C771 O786 1.254 . S
C771 O787 1.225 . S
C772 C771 1.491 . S
C772 C773 1.392 . S
C772 C777 1.356 . S
C773 C772 1.392 . S
C773 C774 1.368 . S
C773 H796 0.929 . S
C774 C773 1.368 . S
C774 C775 1.386 . S
C774 H797 0.929 . S
C775 C774 1.386 . S
C775 C776 1.373 . S
C776 C775 1.373 . S
C776 C777 1.409 . S
C776 H798 0.931 . S
C777 C772 1.356 . S
C777 C776 1.409 . S
C777 H799 0.930 . S
C778 O788 1.270 . S
C778 O789 1.248 . S
C779 O790 1.267 . S
C779 O791 1.278 . S
O780 Pr760 2.562 . S
O780 C762 1.254 . S
O781 Pr760 2.490 . S
O781 C762 1.225 . S
O782 Pr760 2.695 . S
O782 Pr761 2.436 . S
O782 C769 1.270 . S
O783 Pr760 2.512 . S
O783 C769 1.248 . S
O784 Pr761 2.438 . S
O784 C770 1.267 . S
O785 Pr760 2.437 . S
O785 C770 1.278 . S
O786 Pr761 2.562 . S
O786 C771 1.254 . S
O787 Pr761 2.490 . S
O787 C771 1.225 . S
O788 Pr760 2.436 . S
O788 Pr761 2.695 . S
O788 C778 1.270 . S
O789 Pr761 2.512 . S
O789 C778 1.248 . S
O790 Pr760 2.438 . S
O790 C779 1.267 . S
O791 Pr761 2.437 . S
O791 C779 1.278 . S
H792 C764 0.929 . S
H793 C765 0.929 . S
H794 C767 0.931 . S
H795 C768 0.930 . S
H796 C773 0.929 . S
H797 C774 0.929 . S
H798 C776 0.931 . S
H799 C777 0.930 . S
Pr800 C802 2.880 . S
Pr800 O820 2.562 . S
Pr800 O821 2.490 . S
Pr800 O822 2.695 . S
Pr800 O823 2.512 . S
Pr800 O825 2.437 . S
Pr800 O828 2.436 . S
Pr800 O830 2.438 . S
Pr801 C811 2.880 . S
Pr801 O822 2.436 . S
Pr801 O824 2.438 . S
Pr801 O826 2.562 . S
Pr801 O827 2.490 . S
Pr801 O828 2.695 . S
Pr801 O829 2.512 . S
Pr801 O831 2.437 . S
C802 Pr800 2.880 . S
C802 C803 1.491 . S
C802 O820 1.254 . S
C802 O821 1.225 . S
C803 C802 1.491 . S
C803 C804 1.392 . S
C803 C808 1.356 . S
C804 C803 1.392 . S
C804 C805 1.368 . S
C804 H832 0.929 . S
C805 C804 1.368 . S
C805 C806 1.386 . S
C805 H833 0.929 . S
C806 C805 1.386 . S
C806 C807 1.373 . S
C807 C806 1.373 . S
C807 C808 1.409 . S
C807 H834 0.931 . S
C808 C803 1.356 . S
C808 C807 1.409 . S
C808 H835 0.930 . S
C809 O822 1.270 . S
C809 O823 1.248 . S
C810 O824 1.267 . S
C810 O825 1.278 . S
C811 Pr801 2.880 . S
C811 C812 1.491 . S
C811 O826 1.254 . S
C811 O827 1.225 . S
C812 C811 1.491 . S
C812 C813 1.392 . S
C812 C817 1.356 . S
C813 C812 1.392 . S
C813 C814 1.368 . S
C813 H836 0.929 . S
C814 C813 1.368 . S
C814 C815 1.386 . S
C814 H837 0.929 . S
C815 C814 1.386 . S
C815 C816 1.373 . S
C816 C815 1.373 . S
C816 C817 1.409 . S
C816 H838 0.931 . S
C817 C812 1.356 . S
C817 C816 1.409 . S
C817 H839 0.930 . S
C818 O828 1.270 . S
C818 O829 1.248 . S
C819 O830 1.267 . S
C819 O831 1.278 . S
O820 Pr800 2.562 . S
O820 C802 1.254 . S
O821 Pr800 2.490 . S
O821 C802 1.225 . S
O822 Pr800 2.695 . S
O822 Pr801 2.436 . S
O822 C809 1.270 . S
O823 Pr800 2.512 . S
O823 C809 1.248 . S
O824 Pr801 2.438 . S
O824 C810 1.267 . S
O825 Pr800 2.437 . S
O825 C810 1.278 . S
O826 Pr801 2.562 . S
O826 C811 1.254 . S
O827 Pr801 2.490 . S
O827 C811 1.225 . S
O828 Pr800 2.436 . S
O828 Pr801 2.695 . S
O828 C818 1.270 . S
O829 Pr801 2.512 . S
O829 C818 1.248 . S
O830 Pr800 2.438 . S
O830 C819 1.267 . S
O831 Pr801 2.437 . S
O831 C819 1.278 . S
H832 C804 0.929 . S
H833 C805 0.929 . S
H834 C807 0.931 . S
H835 C808 0.930 . S
H836 C813 0.929 . S
H837 C814 0.929 . S
H838 C816 0.931 . S
H839 C817 0.930 . S
Pr840 C842 2.880 . S
Pr840 O860 2.562 . S
Pr840 O861 2.490 . S
Pr840 O862 2.695 . S
Pr840 O863 2.512 . S
Pr840 O865 2.437 . S
Pr840 O868 2.436 . S
Pr840 O870 2.438 1_556 S
Pr841 C851 2.872 1_556 S
Pr841 O862 2.437 . S
Pr841 O864 2.446 . S
Pr841 O866 2.555 1_556 S
Pr841 O867 2.483 1_556 S
Pr841 O868 2.700 . S
Pr841 O869 2.514 . S
Pr841 O871 2.432 1_556 S
C842 Pr840 2.880 . S
C842 C843 1.491 . S
C842 O860 1.254 . S
C842 O861 1.225 . S
C843 C842 1.491 . S
C843 C844 1.392 . S
C843 C848 1.356 . S
C844 C843 1.392 . S
C844 C845 1.368 . S
C844 H872 0.929 . S
C845 C844 1.368 . S
C845 C846 1.386 . S
C845 H873 0.929 . S
C846 C845 1.386 . S
C846 C847 1.373 . S
C847 C846 1.373 . S
C847 C848 1.409 . S
C847 H874 0.931 . S
C848 C843 1.356 . S
C848 C847 1.409 . S
C848 H875 0.930 . S
C849 O862 1.270 . S
C849 O863 1.248 . S
C850 O864 1.267 . S
C850 O865 1.278 . S
C851 Pr841 2.872 1_554 S
C851 C852 1.491 . S
C851 O866 1.254 . S
C851 O867 1.225 . S
C852 C851 1.491 . S
C852 C853 1.392 . S
C852 C857 1.356 . S
C853 C852 1.392 . S
C853 C854 1.368 . S
C853 H876 0.929 . S
C854 C853 1.368 . S
C854 C855 1.386 . S
C854 H877 0.929 . S
C855 C854 1.386 . S
C855 C856 1.373 . S
C856 C855 1.373 . S
C856 C857 1.409 . S
C856 H878 0.931 . S
C857 C852 1.356 . S
C857 C856 1.409 . S
C857 H879 0.930 . S
C858 O868 1.270 . S
C858 O869 1.248 . S
C859 O870 1.267 . S
C859 O871 1.278 . S
O860 Pr840 2.562 . S
O860 C842 1.254 . S
O861 Pr840 2.490 . S
O861 C842 1.225 . S
O862 Pr840 2.695 . S
O862 Pr841 2.437 . S
O862 C849 1.270 . S
O863 Pr840 2.512 . S
O863 C849 1.248 . S
O864 Pr841 2.446 . S
O864 C850 1.267 . S
O865 Pr840 2.437 . S
O865 C850 1.278 . S
O866 Pr841 2.555 1_554 S
O866 C851 1.254 . S
O867 Pr841 2.483 1_554 S
O867 C851 1.225 . S
O868 Pr840 2.436 . S
O868 Pr841 2.700 . S
O868 C858 1.270 . S
O869 Pr841 2.514 . S
O869 C858 1.248 . S
O870 Pr840 2.438 1_554 S
O870 C859 1.267 . S
O871 Pr841 2.432 1_554 S
O871 C859 1.278 . S
H872 C844 0.929 . S
H873 C845 0.929 . S
H874 C847 0.931 . S
H875 C848 0.930 . S
H876 C853 0.929 . S
H877 C854 0.929 . S
H878 C856 0.931 . S
H879 C857 0.930 . S
Pr880 C882 2.880 . S
Pr880 O900 2.562 . S
Pr880 O901 2.490 . S
Pr880 O902 2.695 . S
Pr880 O903 2.512 . S
Pr880 O905 2.437 . S
Pr880 O908 2.436 . S
Pr880 O910 2.438 1_556 S
Pr881 C891 2.872 1_556 S
Pr881 O902 2.437 . S
Pr881 O904 2.446 . S
Pr881 O906 2.555 1_556 S
Pr881 O907 2.483 1_556 S
Pr881 O908 2.700 . S
Pr881 O909 2.514 . S
Pr881 O911 2.432 1_556 S
C882 Pr880 2.880 . S
C882 C883 1.491 . S
C882 O900 1.254 . S
C882 O901 1.225 . S
C883 C882 1.491 . S
C883 C884 1.392 . S
C883 C888 1.356 . S
C884 C883 1.392 . S
C884 C885 1.368 . S
C884 H912 0.929 . S
C885 C884 1.368 . S
C885 C886 1.386 . S
C885 H913 0.929 . S
C886 C885 1.386 . S
C886 C887 1.373 . S
C887 C886 1.373 . S
C887 C888 1.409 . S
C887 H914 0.931 . S
C888 C883 1.356 . S
C888 C887 1.409 . S
C888 H915 0.930 . S
C889 O902 1.270 . S
C889 O903 1.248 . S
C890 O904 1.267 . S
C890 O905 1.278 . S
C891 Pr881 2.872 1_554 S
C891 C892 1.491 . S
C891 O906 1.254 . S
C891 O907 1.225 . S
C892 C891 1.491 . S
C892 C893 1.392 . S
C892 C897 1.356 . S
C893 C892 1.392 . S
C893 C894 1.368 . S
C893 H916 0.929 . S
C894 C893 1.368 . S
C894 C895 1.386 . S
C894 H917 0.929 . S
C895 C894 1.386 . S
C895 C896 1.373 . S
C896 C895 1.373 . S
C896 C897 1.409 . S
C896 H918 0.931 . S
C897 C892 1.356 . S
C897 C896 1.409 . S
C897 H919 0.930 . S
C898 O908 1.270 . S
C898 O909 1.248 . S
C899 O910 1.267 . S
C899 O911 1.278 . S
O900 Pr880 2.562 . S
O900 C882 1.254 . S
O901 Pr880 2.490 . S
O901 C882 1.225 . S
O902 Pr880 2.695 . S
O902 Pr881 2.437 . S
O902 C889 1.270 . S
O903 Pr880 2.512 . S
O903 C889 1.248 . S
O904 Pr881 2.446 . S
O904 C890 1.267 . S
O905 Pr880 2.437 . S
O905 C890 1.278 . S
O906 Pr881 2.555 1_554 S
O906 C891 1.254 . S
O907 Pr881 2.483 1_554 S
O907 C891 1.225 . S
O908 Pr880 2.436 . S
O908 Pr881 2.700 . S
O908 C898 1.270 . S
O909 Pr881 2.514 . S
O909 C898 1.248 . S
O910 Pr880 2.438 1_554 S
O910 C899 1.267 . S
O911 Pr881 2.432 1_554 S
O911 C899 1.278 . S
H912 C884 0.929 . S
H913 C885 0.929 . S
H914 C887 0.931 . S
H915 C888 0.930 . S
H916 C893 0.929 . S
H917 C894 0.929 . S
H918 C896 0.931 . S
H919 C897 0.930 . S
Pr920 C922 2.880 . S
Pr920 O940 2.562 . S
Pr920 O941 2.490 . S
Pr920 O942 2.695 . S
Pr920 O943 2.512 . S
Pr920 O945 2.437 . S
Pr920 O948 2.436 . S
Pr920 O950 2.438 1_556 S
Pr921 C931 2.872 1_556 S
Pr921 O942 2.437 . S
Pr921 O944 2.446 . S
Pr921 O946 2.555 1_556 S
Pr921 O947 2.484 1_556 S
Pr921 O948 2.699 . S
Pr921 O949 2.514 . S
Pr921 O951 2.433 1_556 S
C922 Pr920 2.880 . S
C922 C923 1.491 . S
C922 O940 1.254 . S
C922 O941 1.225 . S
C923 C922 1.491 . S
C923 C924 1.392 . S
C923 C928 1.356 . S
C924 C923 1.392 . S
C924 C925 1.368 . S
C924 H952 0.929 . S
C925 C924 1.368 . S
C925 C926 1.386 . S
C925 H953 0.929 . S
C926 C925 1.386 . S
C926 C927 1.373 . S
C927 C926 1.373 . S
C927 C928 1.409 . S
C927 H954 0.931 . S
C928 C923 1.356 . S
C928 C927 1.409 . S
C928 H955 0.930 . S
C929 O942 1.270 . S
C929 O943 1.248 . S
C930 O944 1.267 . S
C930 O945 1.278 . S
C931 Pr921 2.872 1_554 S
C931 C932 1.491 . S
C931 O946 1.254 . S
C931 O947 1.225 . S
C932 C931 1.491 . S
C932 C933 1.392 . S
C932 C937 1.356 . S
C933 C932 1.392 . S
C933 C934 1.368 . S
C933 H956 0.929 . S
C934 C933 1.368 . S
C934 C935 1.386 . S
C934 H957 0.929 . S
C935 C934 1.386 . S
C935 C936 1.373 . S
C936 C935 1.373 . S
C936 C937 1.409 . S
C936 H958 0.931 . S
C937 C932 1.356 . S
C937 C936 1.409 . S
C937 H959 0.930 . S
C938 O948 1.270 . S
C938 O949 1.248 . S
C939 O950 1.267 . S
C939 O951 1.278 . S
O940 Pr920 2.562 . S
O940 C922 1.254 . S
O941 Pr920 2.490 . S
O941 C922 1.225 . S
O942 Pr920 2.695 . S
O942 Pr921 2.437 . S
O942 C929 1.270 . S
O943 Pr920 2.512 . S
O943 C929 1.248 . S
O944 Pr921 2.446 . S
O944 C930 1.267 . S
O945 Pr920 2.437 . S
O945 C930 1.278 . S
O946 Pr921 2.555 1_554 S
O946 C931 1.254 . S
O947 Pr921 2.484 1_554 S
O947 C931 1.225 . S
O948 Pr920 2.436 . S
O948 Pr921 2.699 . S
O948 C938 1.270 . S
O949 Pr921 2.514 . S
O949 C938 1.248 . S
O950 Pr920 2.438 1_554 S
O950 C939 1.267 . S
O951 Pr921 2.433 1_554 S
O951 C939 1.278 . S
H952 C924 0.929 . S
H953 C925 0.929 . S
H954 C927 0.931 . S
H955 C928 0.930 . S
H956 C933 0.929 . S
H957 C934 0.929 . S
H958 C936 0.931 . S
H959 C937 0.930 . S
Pr960 C962 2.880 . S
Pr960 O980 2.562 . S
Pr960 O981 2.490 . S
Pr960 O982 2.695 . S
Pr960 O983 2.512 . S
Pr960 O985 2.437 . S
Pr960 O988 2.436 . S
Pr960 O990 2.438 . S
Pr961 C971 2.880 . S
Pr961 O982 2.436 . S
Pr961 O984 2.438 . S
Pr961 O986 2.562 . S
Pr961 O987 2.490 . S
Pr961 O988 2.695 . S
Pr961 O989 2.512 . S
Pr961 O991 2.437 . S
C962 Pr960 2.880 . S
C962 C963 1.491 . S
C962 O980 1.254 . S
C962 O981 1.225 . S
C963 C962 1.491 . S
C963 C964 1.392 . S
C963 C968 1.356 . S
C964 C963 1.392 . S
C964 C965 1.368 . S
C964 H992 0.929 . S
C965 C964 1.368 . S
C965 C966 1.386 1_556 S
C965 H993 0.929 . S
C966 C965 1.386 1_554 S
C966 C967 1.378 . S
C967 C966 1.378 . S
C967 C968 1.396 1_554 S
C967 H994 0.939 . S
C968 C963 1.356 . S
C968 C967 1.396 1_556 S
C968 H995 0.930 . S
C969 O982 1.270 . S
C969 O983 1.248 . S
C970 O984 1.267 . S
C970 O985 1.278 . S
C971 Pr961 2.880 . S
C971 C972 1.491 . S
C971 O986 1.254 . S
C971 O987 1.225 . S
C972 C971 1.491 . S
C972 C973 1.392 . S
C972 C977 1.356 . S
C973 C972 1.392 . S
C973 C974 1.368 . S
C973 H996 0.929 . S
C974 C973 1.368 . S
C974 C975 1.386 . S
C974 H997 0.929 . S
C975 C974 1.386 . S
C975 C976 1.373 . S
C976 C975 1.373 . S
C976 C977 1.409 . S
C976 H998 0.931 . S
C977 C972 1.356 . S
C977 C976 1.409 . S
C977 H999 0.930 . S
C978 O988 1.270 . S
C978 O989 1.248 . S
C979 O990 1.267 . S
C979 O991 1.278 . S
O980 Pr960 2.562 . S
O980 C962 1.254 . S
O981 Pr960 2.490 . S
O981 C962 1.225 . S
O982 Pr960 2.695 . S
O982 Pr961 2.436 . S
O982 C969 1.270 . S
O983 Pr960 2.512 . S
O983 C969 1.248 . S
O984 Pr961 2.438 . S
O984 C970 1.267 . S
O985 Pr960 2.437 . S
O985 C970 1.278 . S
O986 Pr961 2.562 . S
O986 C971 1.254 . S
O987 Pr961 2.490 . S
O987 C971 1.225 . S
O988 Pr960 2.436 . S
O988 Pr961 2.695 . S
O988 C978 1.270 . S
O989 Pr961 2.512 . S
O989 C978 1.248 . S
O990 Pr960 2.438 . S
O990 C979 1.267 . S
O991 Pr961 2.437 . S
O991 C979 1.278 . S
H992 C964 0.929 . S
H993 C965 0.929 . S
H994 C967 0.939 . S
H995 C968 0.930 . S
H996 C973 0.929 . S
H997 C974 0.929 . S
H998 C976 0.931 . S
H999 C977 0.930 . S
Pr1000 C1002 2.880 . S
Pr1000 O1020 2.562 . S
Pr1000 O1021 2.490 . S
Pr1000 O1022 2.695 . S
Pr1000 O1023 2.512 . S
Pr1000 O1025 2.437 . S
Pr1000 O1028 2.436 . S
Pr1000 O1030 2.438 . S
Pr1001 C1011 2.880 . S
Pr1001 O1022 2.436 . S
Pr1001 O1024 2.438 . S
Pr1001 O1026 2.562 . S
Pr1001 O1027 2.490 . S
Pr1001 O1028 2.695 . S
Pr1001 O1029 2.512 . S
Pr1001 O1031 2.437 . S
C1002 Pr1000 2.880 . S
C1002 C1003 1.491 . S
C1002 O1020 1.254 . S
C1002 O1021 1.225 . S
C1003 C1002 1.491 . S
C1003 C1004 1.392 . S
C1003 C1008 1.356 . S
C1004 C1003 1.392 . S
C1004 C1005 1.368 . S
C1004 H1032 0.929 . S
C1005 C1004 1.368 . S
C1005 C1006 1.386 1_556 S
C1005 H1033 0.929 . S
C1006 C1005 1.386 1_554 S
C1006 C1007 1.378 . S
C1007 C1006 1.378 . S
C1007 C1008 1.395 1_554 S
C1007 H1034 0.939 . S
C1008 C1003 1.356 . S
C1008 C1007 1.395 1_556 S
C1008 H1035 0.930 . S
C1009 O1022 1.270 . S
C1009 O1023 1.248 . S
C1010 O1024 1.267 . S
C1010 O1025 1.278 . S
C1011 Pr1001 2.880 . S
C1011 C1012 1.491 . S
C1011 O1026 1.254 . S
C1011 O1027 1.225 . S
C1012 C1011 1.491 . S
C1012 C1013 1.392 . S
C1012 C1017 1.356 . S
C1013 C1012 1.392 . S
C1013 C1014 1.368 . S
C1013 H1036 0.929 . S
C1014 C1013 1.368 . S
C1014 C1015 1.386 . S
C1014 H1037 0.929 . S
C1015 C1014 1.386 . S
C1015 C1016 1.373 . S
C1016 C1015 1.373 . S
C1016 C1017 1.409 . S
C1016 H1038 0.931 . S
C1017 C1012 1.356 . S
C1017 C1016 1.409 . S
C1017 H1039 0.930 . S
C1018 O1028 1.270 . S
C1018 O1029 1.248 . S
C1019 O1030 1.267 . S
C1019 O1031 1.278 . S
O1020 Pr1000 2.562 . S
O1020 C1002 1.254 . S
O1021 Pr1000 2.490 . S
O1021 C1002 1.225 . S
O1022 Pr1000 2.695 . S
O1022 Pr1001 2.436 . S
O1022 C1009 1.270 . S
O1023 Pr1000 2.512 . S
O1023 C1009 1.248 . S
O1024 Pr1001 2.438 . S
O1024 C1010 1.267 . S
O1025 Pr1000 2.437 . S
O1025 C1010 1.278 . S
O1026 Pr1001 2.562 . S
O1026 C1011 1.254 . S
O1027 Pr1001 2.490 . S
O1027 C1011 1.225 . S
O1028 Pr1000 2.436 . S
O1028 Pr1001 2.695 . S
O1028 C1018 1.270 . S
O1029 Pr1001 2.512 . S
O1029 C1018 1.248 . S
O1030 Pr1000 2.438 . S
O1030 C1019 1.267 . S
O1031 Pr1001 2.437 . S
O1031 C1019 1.278 . S
H1032 C1004 0.929 . S
H1033 C1005 0.929 . S
H1034 C1007 0.939 . S
H1035 C1008 0.930 . S
H1036 C1013 0.929 . S
H1037 C1014 0.929 . S
H1038 C1016 0.931 . S
H1039 C1017 0.930 . S
Pr1040 C1042 2.880 . S
Pr1040 O1060 2.562 . S
Pr1040 O1061 2.490 . S
Pr1040 O1062 2.695 . S
Pr1040 O1063 2.512 . S
Pr1040 O1065 2.437 . S
Pr1040 O1068 2.436 . S
Pr1040 O1070 2.438 . S
Pr1041 C1051 2.880 . S
Pr1041 O1062 2.436 . S
Pr1041 O1064 2.438 . S
Pr1041 O1066 2.562 . S
Pr1041 O1067 2.490 . S
Pr1041 O1068 2.695 . S
Pr1041 O1069 2.512 . S
Pr1041 O1071 2.437 . S
C1042 Pr1040 2.880 . S
C1042 C1043 1.491 . S
C1042 O1060 1.254 . S
C1042 O1061 1.225 . S
C1043 C1042 1.491 . S
C1043 C1044 1.392 . S
C1043 C1048 1.356 . S
C1044 C1043 1.392 . S
C1044 C1045 1.368 . S
C1044 H1072 0.929 . S
C1045 C1044 1.368 . S
C1045 C1046 1.386 1_556 S
C1045 H1073 0.929 . S
C1046 C1045 1.386 1_554 S
C1046 C1047 1.378 . S
C1047 C1046 1.378 . S
C1047 C1048 1.395 1_554 S
C1047 H1074 0.939 . S
C1048 C1043 1.356 . S
C1048 C1047 1.395 1_556 S
C1048 H1075 0.930 . S
C1049 O1062 1.270 . S
C1049 O1063 1.248 . S
C1050 O1064 1.267 . S
C1050 O1065 1.278 . S
C1051 Pr1041 2.880 . S
C1051 C1052 1.491 . S
C1051 O1066 1.254 . S
C1051 O1067 1.225 . S
C1052 C1051 1.491 . S
C1052 C1053 1.392 . S
C1052 C1057 1.356 . S
C1053 C1052 1.392 . S
C1053 C1054 1.368 . S
C1053 H1076 0.929 . S
C1054 C1053 1.368 . S
C1054 C1055 1.386 . S
C1054 H1077 0.929 . S
C1055 C1054 1.386 . S
C1055 C1056 1.373 . S
C1056 C1055 1.373 . S
C1056 C1057 1.409 . S
C1056 H1078 0.931 . S
C1057 C1052 1.356 . S
C1057 C1056 1.409 . S
C1057 H1079 0.930 . S
C1058 O1068 1.270 . S
C1058 O1069 1.248 . S
C1059 O1070 1.267 . S
C1059 O1071 1.278 . S
O1060 Pr1040 2.562 . S
O1060 C1042 1.254 . S
O1061 Pr1040 2.490 . S
O1061 C1042 1.225 . S
O1062 Pr1040 2.695 . S
O1062 Pr1041 2.436 . S
O1062 C1049 1.270 . S
O1063 Pr1040 2.512 . S
O1063 C1049 1.248 . S
O1064 Pr1041 2.438 . S
O1064 C1050 1.267 . S
O1065 Pr1040 2.437 . S
O1065 C1050 1.278 . S
O1066 Pr1041 2.562 . S
O1066 C1051 1.254 . S
O1067 Pr1041 2.490 . S
O1067 C1051 1.225 . S
O1068 Pr1040 2.436 . S
O1068 Pr1041 2.695 . S
O1068 C1058 1.270 . S
O1069 Pr1041 2.512 . S
O1069 C1058 1.248 . S
O1070 Pr1040 2.438 . S
O1070 C1059 1.267 . S
O1071 Pr1041 2.437 . S
O1071 C1059 1.278 . S
H1072 C1044 0.929 . S
H1073 C1045 0.929 . S
H1074 C1047 0.939 . S
H1075 C1048 0.930 . S
H1076 C1053 0.929 . S
H1077 C1054 0.929 . S
H1078 C1056 0.931 . S
H1079 C1057 0.930 . S
Pr1080 C1082 2.880 . S
Pr1080 O1100 2.562 . S
Pr1080 O1101 2.490 . S
Pr1080 O1102 2.695 . S
Pr1080 O1103 2.512 . S
Pr1080 O1105 2.437 . S
Pr1080 O1108 2.436 . S
Pr1080 O1110 2.438 . S
Pr1081 C1091 2.880 . S
Pr1081 O1102 2.436 . S
Pr1081 O1104 2.438 . S
Pr1081 O1106 2.562 . S
Pr1081 O1107 2.490 . S
Pr1081 O1108 2.695 . S
Pr1081 O1109 2.512 . S
Pr1081 O1111 2.437 . S
C1082 Pr1080 2.880 . S
C1082 C1083 1.491 . S
C1082 O1100 1.254 . S
C1082 O1101 1.225 . S
C1083 C1082 1.491 . S
C1083 C1084 1.392 . S
C1083 C1088 1.356 . S
C1084 C1083 1.392 . S
C1084 C1085 1.368 . S
C1084 H1112 0.929 . S
C1085 C1084 1.368 . S
C1085 C1086 1.386 . S
C1085 H1113 0.929 . S
C1086 C1085 1.386 . S
C1086 C1087 1.373 . S
C1087 C1086 1.373 . S
C1087 C1088 1.409 . S
C1087 H1114 0.931 . S
C1088 C1083 1.356 . S
C1088 C1087 1.409 . S
C1088 H1115 0.930 . S
C1089 O1102 1.270 . S
C1089 O1103 1.248 . S
C1090 O1104 1.267 . S
C1090 O1105 1.278 . S
C1091 Pr1081 2.880 . S
C1091 C1092 1.491 . S
C1091 O1106 1.254 . S
C1091 O1107 1.225 . S
C1092 C1091 1.491 . S
C1092 C1093 1.392 . S
C1092 C1097 1.356 . S
C1093 C1092 1.392 . S
C1093 C1094 1.368 . S
C1093 H1116 0.929 . S
C1094 C1093 1.368 . S
C1094 C1095 1.386 . S
C1094 H1117 0.929 . S
C1095 C1094 1.386 . S
C1095 C1096 1.373 . S
C1096 C1095 1.373 . S
C1096 C1097 1.409 . S
C1096 H1118 0.931 . S
C1097 C1092 1.356 . S
C1097 C1096 1.409 . S
C1097 H1119 0.930 . S
C1098 O1108 1.270 . S
C1098 O1109 1.248 . S
C1099 O1110 1.267 . S
C1099 O1111 1.278 . S
O1100 Pr1080 2.562 . S
O1100 C1082 1.254 . S
O1101 Pr1080 2.490 . S
O1101 C1082 1.225 . S
O1102 Pr1080 2.695 . S
O1102 Pr1081 2.436 . S
O1102 C1089 1.270 . S
O1103 Pr1080 2.512 . S
O1103 C1089 1.248 . S
O1104 Pr1081 2.438 . S
O1104 C1090 1.267 . S
O1105 Pr1080 2.437 . S
O1105 C1090 1.278 . S
O1106 Pr1081 2.562 . S
O1106 C1091 1.254 . S
O1107 Pr1081 2.490 . S
O1107 C1091 1.225 . S
O1108 Pr1080 2.436 . S
O1108 Pr1081 2.695 . S
O1108 C1098 1.270 . S
O1109 Pr1081 2.512 . S
O1109 C1098 1.248 . S
O1110 Pr1080 2.438 . S
O1110 C1099 1.267 . S
O1111 Pr1081 2.437 . S
O1111 C1099 1.278 . S
H1112 C1084 0.929 . S
H1113 C1085 0.929 . S
H1114 C1087 0.931 . S
H1115 C1088 0.930 . S
H1116 C1093 0.929 . S
H1117 C1094 0.929 . S
H1118 C1096 0.931 . S
H1119 C1097 0.930 . S
Pr1120 C1122 2.880 . S
Pr1120 O1140 2.562 . S
Pr1120 O1141 2.490 . S
Pr1120 O1142 2.695 . S
Pr1120 O1143 2.512 . S
Pr1120 O1145 2.437 . S
Pr1120 O1148 2.436 . S
Pr1120 O1150 2.438 . S
Pr1121 C1131 2.880 . S
Pr1121 O1142 2.436 . S
Pr1121 O1144 2.438 . S
Pr1121 O1146 2.562 . S
Pr1121 O1147 2.490 . S
Pr1121 O1148 2.695 . S
Pr1121 O1149 2.512 . S
Pr1121 O1151 2.437 . S
C1122 Pr1120 2.880 . S
C1122 C1123 1.491 . S
C1122 O1140 1.254 . S
C1122 O1141 1.225 . S
C1123 C1122 1.491 . S
C1123 C1124 1.392 . S
C1123 C1128 1.356 . S
C1124 C1123 1.392 . S
C1124 C1125 1.368 . S
C1124 H1152 0.929 . S
C1125 C1124 1.368 . S
C1125 C1126 1.386 . S
C1125 H1153 0.929 . S
C1126 C1125 1.386 . S
C1126 C1127 1.373 . S
C1127 C1126 1.373 . S
C1127 C1128 1.409 . S
C1127 H1154 0.931 . S
C1128 C1123 1.356 . S
C1128 C1127 1.409 . S
C1128 H1155 0.930 . S
C1129 O1142 1.270 . S
C1129 O1143 1.248 . S
C1130 O1144 1.267 . S
C1130 O1145 1.278 . S
C1131 Pr1121 2.880 . S
C1131 C1132 1.491 . S
C1131 O1146 1.254 . S
C1131 O1147 1.225 . S
C1132 C1131 1.491 . S
C1132 C1133 1.392 . S
C1132 C1137 1.356 . S
C1133 C1132 1.392 . S
C1133 C1134 1.368 . S
C1133 H1156 0.929 . S
C1134 C1133 1.368 . S
C1134 C1135 1.386 . S
C1134 H1157 0.929 . S
C1135 C1134 1.386 . S
C1135 C1136 1.373 . S
C1136 C1135 1.373 . S
C1136 C1137 1.409 . S
C1136 H1158 0.931 . S
C1137 C1132 1.356 . S
C1137 C1136 1.409 . S
C1137 H1159 0.930 . S
C1138 O1148 1.270 . S
C1138 O1149 1.248 . S
C1139 O1150 1.267 . S
C1139 O1151 1.278 . S
O1140 Pr1120 2.562 . S
O1140 C1122 1.254 . S
O1141 Pr1120 2.490 . S
O1141 C1122 1.225 . S
O1142 Pr1120 2.695 . S
O1142 Pr1121 2.436 . S
O1142 C1129 1.270 . S
O1143 Pr1120 2.512 . S
O1143 C1129 1.248 . S
O1144 Pr1121 2.438 . S
O1144 C1130 1.267 . S
O1145 Pr1120 2.437 . S
O1145 C1130 1.278 . S
O1146 Pr1121 2.562 . S
O1146 C1131 1.254 . S
O1147 Pr1121 2.490 . S
O1147 C1131 1.225 . S
O1148 Pr1120 2.436 . S
O1148 Pr1121 2.695 . S
O1148 C1138 1.270 . S
O1149 Pr1121 2.512 . S
O1149 C1138 1.248 . S
O1150 Pr1120 2.438 . S
O1150 C1139 1.267 . S
O1151 Pr1121 2.437 . S
O1151 C1139 1.278 . S
H1152 C1124 0.929 . S
H1153 C1125 0.929 . S
H1154 C1127 0.931 . S
H1155 C1128 0.930 . S
H1156 C1133 0.929 . S
H1157 C1134 0.929 . S
H1158 C1136 0.931 . S
H1159 C1137 0.930 . S
Pr1160 C1162 2.880 . S
Pr1160 O1180 2.562 . S
Pr1160 O1181 2.490 . S
Pr1160 O1182 2.695 . S
Pr1160 O1183 2.512 . S
Pr1160 O1185 2.437 . S
Pr1160 O1188 2.436 . S
Pr1160 O1190 2.438 . S
Pr1161 C1171 2.880 . S
Pr1161 O1182 2.436 . S
Pr1161 O1184 2.438 . S
Pr1161 O1186 2.562 . S
Pr1161 O1187 2.490 . S
Pr1161 O1188 2.695 . S
Pr1161 O1189 2.512 . S
Pr1161 O1191 2.437 . S
C1162 Pr1160 2.880 . S
C1162 C1163 1.491 . S
C1162 O1180 1.254 . S
C1162 O1181 1.225 . S
C1163 C1162 1.491 . S
C1163 C1164 1.392 . S
C1163 C1168 1.356 . S
C1164 C1163 1.392 . S
C1164 C1165 1.368 . S
C1164 H1192 0.929 . S
C1165 C1164 1.368 . S
C1165 C1166 1.386 . S
C1165 H1193 0.929 . S
C1166 C1165 1.386 . S
C1166 C1167 1.373 . S
C1167 C1166 1.373 . S
C1167 C1168 1.409 . S
C1167 H1194 0.931 . S
C1168 C1163 1.356 . S
C1168 C1167 1.409 . S
C1168 H1195 0.930 . S
C1169 O1182 1.270 . S
C1169 O1183 1.248 . S
C1170 O1184 1.267 . S
C1170 O1185 1.278 . S
C1171 Pr1161 2.880 . S
C1171 C1172 1.491 . S
C1171 O1186 1.254 . S
C1171 O1187 1.225 . S
C1172 C1171 1.491 . S
C1172 C1173 1.392 . S
C1172 C1177 1.356 . S
C1173 C1172 1.392 . S
C1173 C1174 1.368 . S
C1173 H1196 0.929 . S
C1174 C1173 1.368 . S
C1174 C1175 1.386 . S
C1174 H1197 0.929 . S
C1175 C1174 1.386 . S
C1175 C1176 1.373 . S
C1176 C1175 1.373 . S
C1176 C1177 1.409 . S
C1176 H1198 0.931 . S
C1177 C1172 1.356 . S
C1177 C1176 1.409 . S
C1177 H1199 0.930 . S
C1178 O1188 1.270 . S
C1178 O1189 1.248 . S
C1179 O1190 1.267 . S
C1179 O1191 1.278 . S
O1180 Pr1160 2.562 . S
O1180 C1162 1.254 . S
O1181 Pr1160 2.490 . S
O1181 C1162 1.225 . S
O1182 Pr1160 2.695 . S
O1182 Pr1161 2.436 . S
O1182 C1169 1.270 . S
O1183 Pr1160 2.512 . S
O1183 C1169 1.248 . S
O1184 Pr1161 2.438 . S
O1184 C1170 1.267 . S
O1185 Pr1160 2.437 . S
O1185 C1170 1.278 . S
O1186 Pr1161 2.562 . S
O1186 C1171 1.254 . S
O1187 Pr1161 2.490 . S
O1187 C1171 1.225 . S
O1188 Pr1160 2.436 . S
O1188 Pr1161 2.695 . S
O1188 C1178 1.270 . S
O1189 Pr1161 2.512 . S
O1189 C1178 1.248 . S
O1190 Pr1160 2.438 . S
O1190 C1179 1.267 . S
O1191 Pr1161 2.437 . S
O1191 C1179 1.278 . S
H1192 C1164 0.929 . S
H1193 C1165 0.929 . S
H1194 C1167 0.931 . S
H1195 C1168 0.930 . S
H1196 C1173 0.929 . S
H1197 C1174 0.929 . S
H1198 C1176 0.931 . S
H1199 C1177 0.930 . S
Pr1200 C1202 2.880 . S
Pr1200 O1220 2.562 . S
Pr1200 O1221 2.490 . S
Pr1200 O1222 2.695 . S
Pr1200 O1223 2.512 . S
Pr1200 O1225 2.437 . S
Pr1200 O1228 2.436 . S
Pr1200 O1230 2.438 . S
Pr1201 C1211 2.880 . S
Pr1201 O1222 2.436 . S
Pr1201 O1224 2.438 . S
Pr1201 O1226 2.562 . S
Pr1201 O1227 2.490 . S
Pr1201 O1228 2.695 . S
Pr1201 O1229 2.512 . S
Pr1201 O1231 2.437 . S
C1202 Pr1200 2.880 . S
C1202 C1203 1.491 . S
C1202 O1220 1.254 . S
C1202 O1221 1.225 . S
C1203 C1202 1.491 . S
C1203 C1204 1.392 . S
C1203 C1208 1.356 . S
C1204 C1203 1.392 . S
C1204 C1205 1.368 . S
C1204 H1232 0.929 . S
C1205 C1204 1.368 . S
C1205 C1206 1.386 . S
C1205 H1233 0.929 . S
C1206 C1205 1.386 . S
C1206 C1207 1.373 . S
C1207 C1206 1.373 . S
C1207 C1208 1.409 . S
C1207 H1234 0.931 . S
C1208 C1203 1.356 . S
C1208 C1207 1.409 . S
C1208 H1235 0.930 . S
C1209 O1222 1.270 . S
C1209 O1223 1.248 . S
C1210 O1224 1.267 . S
C1210 O1225 1.278 . S
C1211 Pr1201 2.880 . S
C1211 C1212 1.491 . S
C1211 O1226 1.254 . S
C1211 O1227 1.225 . S
C1212 C1211 1.491 . S
C1212 C1213 1.392 . S
C1212 C1217 1.356 . S
C1213 C1212 1.392 . S
C1213 C1214 1.368 . S
C1213 H1236 0.929 . S
C1214 C1213 1.368 . S
C1214 C1215 1.386 . S
C1214 H1237 0.929 . S
C1215 C1214 1.386 . S
C1215 C1216 1.373 . S
C1216 C1215 1.373 . S
C1216 C1217 1.409 . S
C1216 H1238 0.931 . S
C1217 C1212 1.356 . S
C1217 C1216 1.409 . S
C1217 H1239 0.930 . S
C1218 O1228 1.270 . S
C1218 O1229 1.248 . S
C1219 O1230 1.267 . S
C1219 O1231 1.278 . S
O1220 Pr1200 2.562 . S
O1220 C1202 1.254 . S
O1221 Pr1200 2.490 . S
O1221 C1202 1.225 . S
O1222 Pr1200 2.695 . S
O1222 Pr1201 2.436 . S
O1222 C1209 1.270 . S
O1223 Pr1200 2.512 . S
O1223 C1209 1.248 . S
O1224 Pr1201 2.438 . S
O1224 C1210 1.267 . S
O1225 Pr1200 2.437 . S
O1225 C1210 1.278 . S
O1226 Pr1201 2.562 . S
O1226 C1211 1.254 . S
O1227 Pr1201 2.490 . S
O1227 C1211 1.225 . S
O1228 Pr1200 2.436 . S
O1228 Pr1201 2.695 . S
O1228 C1218 1.270 . S
O1229 Pr1201 2.512 . S
O1229 C1218 1.248 . S
O1230 Pr1200 2.438 . S
O1230 C1219 1.267 . S
O1231 Pr1201 2.437 . S
O1231 C1219 1.278 . S
H1232 C1204 0.929 . S
H1233 C1205 0.929 . S
H1234 C1207 0.931 . S
H1235 C1208 0.930 . S
H1236 C1213 0.929 . S
H1237 C1214 0.929 . S
H1238 C1216 0.931 . S
H1239 C1217 0.930 . S
Pr1240 C1242 2.880 . S
Pr1240 O1260 2.562 . S
Pr1240 O1261 2.490 . S
Pr1240 O1262 2.695 . S
Pr1240 O1263 2.512 . S
Pr1240 O1265 2.437 . S
Pr1240 O1268 2.436 . S
Pr1240 O1270 2.438 . S
Pr1241 C1251 2.880 . S
Pr1241 O1262 2.436 . S
Pr1241 O1264 2.438 . S
Pr1241 O1266 2.562 . S
Pr1241 O1267 2.490 . S
Pr1241 O1268 2.695 . S
Pr1241 O1269 2.512 . S
Pr1241 O1271 2.437 . S
C1242 Pr1240 2.880 . S
C1242 C1243 1.491 . S
C1242 O1260 1.254 . S
C1242 O1261 1.225 . S
C1243 C1242 1.491 . S
C1243 C1244 1.392 . S
C1243 C1248 1.356 . S
C1244 C1243 1.392 . S
C1244 C1245 1.368 . S
C1244 H1272 0.929 . S
C1245 C1244 1.368 . S
C1245 C1246 1.386 . S
C1245 H1273 0.929 . S
C1246 C1245 1.386 . S
C1246 C1247 1.373 . S
C1247 C1246 1.373 . S
C1247 C1248 1.409 . S
C1247 H1274 0.931 . S
C1248 C1243 1.356 . S
C1248 C1247 1.409 . S
C1248 H1275 0.930 . S
C1249 O1262 1.270 . S
C1249 O1263 1.248 . S
C1250 O1264 1.267 . S
C1250 O1265 1.278 . S
C1251 Pr1241 2.880 . S
C1251 C1252 1.491 . S
C1251 O1266 1.254 . S
C1251 O1267 1.225 . S
C1252 C1251 1.491 . S
C1252 C1253 1.392 . S
C1252 C1257 1.356 . S
C1253 C1252 1.392 . S
C1253 C1254 1.368 . S
C1253 H1276 0.929 . S
C1254 C1253 1.368 . S
C1254 C1255 1.386 . S
C1254 H1277 0.929 . S
C1255 C1254 1.386 . S
C1255 C1256 1.373 . S
C1256 C1255 1.373 . S
C1256 C1257 1.409 . S
C1256 H1278 0.931 . S
C1257 C1252 1.356 . S
C1257 C1256 1.409 . S
C1257 H1279 0.930 . S
C1258 O1268 1.270 . S
C1258 O1269 1.248 . S
C1259 O1270 1.267 . S
C1259 O1271 1.278 . S
O1260 Pr1240 2.562 . S
O1260 C1242 1.254 . S
O1261 Pr1240 2.490 . S
O1261 C1242 1.225 . S
O1262 Pr1240 2.695 . S
O1262 Pr1241 2.436 . S
O1262 C1249 1.270 . S
O1263 Pr1240 2.512 . S
O1263 C1249 1.248 . S
O1264 Pr1241 2.438 . S
O1264 C1250 1.267 . S
O1265 Pr1240 2.437 . S
O1265 C1250 1.278 . S
O1266 Pr1241 2.562 . S
O1266 C1251 1.254 . S
O1267 Pr1241 2.490 . S
O1267 C1251 1.225 . S
O1268 Pr1240 2.436 . S
O1268 Pr1241 2.695 . S
O1268 C1258 1.270 . S
O1269 Pr1241 2.512 . S
O1269 C1258 1.248 . S
O1270 Pr1240 2.438 . S
O1270 C1259 1.267 . S
O1271 Pr1241 2.437 . S
O1271 C1259 1.278 . S
H1272 C1244 0.929 . S
H1273 C1245 0.929 . S
H1274 C1247 0.931 . S
H1275 C1248 0.930 . S
H1276 C1253 0.929 . S
H1277 C1254 0.929 . S
H1278 C1256 0.931 . S
H1279 C1257 0.930 . S
Pr1280 C1282 2.880 . S
Pr1280 O1300 2.562 . S
Pr1280 O1301 2.490 . S
Pr1280 O1302 2.695 . S
Pr1280 O1303 2.512 . S
Pr1280 O1305 2.437 . S
Pr1280 O1308 2.436 . S
Pr1280 O1310 2.438 . S
Pr1281 C1291 2.880 . S
Pr1281 O1302 2.436 . S
Pr1281 O1304 2.438 . S
Pr1281 O1306 2.562 . S
Pr1281 O1307 2.490 . S
Pr1281 O1308 2.695 . S
Pr1281 O1309 2.512 . S
Pr1281 O1311 2.437 . S
C1282 Pr1280 2.880 . S
C1282 C1283 1.491 . S
C1282 O1300 1.254 . S
C1282 O1301 1.225 . S
C1283 C1282 1.491 . S
C1283 C1284 1.392 . S
C1283 C1288 1.356 . S
C1284 C1283 1.392 . S
C1284 C1285 1.368 . S
C1284 H1312 0.929 . S
C1285 C1284 1.368 . S
C1285 C1286 1.386 . S
C1285 H1313 0.929 . S
C1286 C1285 1.386 . S
C1286 C1287 1.373 . S
C1287 C1286 1.373 . S
C1287 C1288 1.409 . S
C1287 H1314 0.931 . S
C1288 C1283 1.356 . S
C1288 C1287 1.409 . S
C1288 H1315 0.930 . S
C1289 O1302 1.270 . S
C1289 O1303 1.248 . S
C1290 O1304 1.267 . S
C1290 O1305 1.278 . S
C1291 Pr1281 2.880 . S
C1291 C1292 1.491 . S
C1291 O1306 1.254 . S
C1291 O1307 1.225 . S
C1292 C1291 1.491 . S
C1292 C1293 1.392 . S
C1292 C1297 1.356 . S
C1293 C1292 1.392 . S
C1293 C1294 1.368 . S
C1293 H1316 0.929 . S
C1294 C1293 1.368 . S
C1294 C1295 1.386 . S
C1294 H1317 0.929 . S
C1295 C1294 1.386 . S
C1295 C1296 1.373 . S
C1296 C1295 1.373 . S
C1296 C1297 1.409 . S
C1296 H1318 0.931 . S
C1297 C1292 1.356 . S
C1297 C1296 1.409 . S
C1297 H1319 0.930 . S
C1298 O1308 1.270 . S
C1298 O1309 1.248 . S
C1299 O1310 1.267 . S
C1299 O1311 1.278 . S
O1300 Pr1280 2.562 . S
O1300 C1282 1.254 . S
O1301 Pr1280 2.490 . S
O1301 C1282 1.225 . S
O1302 Pr1280 2.695 . S
O1302 Pr1281 2.436 . S
O1302 C1289 1.270 . S
O1303 Pr1280 2.512 . S
O1303 C1289 1.248 . S
O1304 Pr1281 2.438 . S
O1304 C1290 1.267 . S
O1305 Pr1280 2.437 . S
O1305 C1290 1.278 . S
O1306 Pr1281 2.562 . S
O1306 C1291 1.254 . S
O1307 Pr1281 2.490 . S
O1307 C1291 1.225 . S
O1308 Pr1280 2.436 . S
O1308 Pr1281 2.695 . S
O1308 C1298 1.270 . S
O1309 Pr1281 2.512 . S
O1309 C1298 1.248 . S
O1310 Pr1280 2.438 . S
O1310 C1299 1.267 . S
O1311 Pr1281 2.437 . S
O1311 C1299 1.278 . S
H1312 C1284 0.929 . S
H1313 C1285 0.929 . S
H1314 C1287 0.931 . S
H1315 C1288 0.930 . S
H1316 C1293 0.929 . S
H1317 C1294 0.929 . S
H1318 C1296 0.931 . S
H1319 C1297 0.930 . S
Pr1320 C1322 2.880 . S
Pr1320 O1340 2.562 . S
Pr1320 O1341 2.490 . S
Pr1320 O1342 2.695 . S
Pr1320 O1343 2.512 . S
Pr1320 O1345 2.437 . S
Pr1320 O1348 2.436 . S
Pr1320 O1350 2.438 . S
Pr1321 C1331 2.880 . S
Pr1321 O1342 2.436 . S
Pr1321 O1344 2.438 . S
Pr1321 O1346 2.562 . S
Pr1321 O1347 2.490 . S
Pr1321 O1348 2.695 . S
Pr1321 O1349 2.512 . S
Pr1321 O1351 2.437 . S
C1322 Pr1320 2.880 . S
C1322 C1323 1.491 . S
C1322 O1340 1.254 . S
C1322 O1341 1.225 . S
C1323 C1322 1.491 . S
C1323 C1324 1.392 . S
C1323 C1328 1.356 . S
C1324 C1323 1.392 . S
C1324 C1325 1.368 . S
C1324 H1352 0.929 . S
C1325 C1324 1.368 . S
C1325 C1326 1.386 . S
C1325 H1353 0.929 . S
C1326 C1325 1.386 . S
C1326 C1327 1.373 . S
C1327 C1326 1.373 . S
C1327 C1328 1.409 . S
C1327 H1354 0.931 . S
C1328 C1323 1.356 . S
C1328 C1327 1.409 . S
C1328 H1355 0.930 . S
C1329 O1342 1.270 . S
C1329 O1343 1.248 . S
C1330 O1344 1.267 . S
C1330 O1345 1.278 . S
C1331 Pr1321 2.880 . S
C1331 C1332 1.491 . S
C1331 O1346 1.254 . S
C1331 O1347 1.225 . S
C1332 C1331 1.491 . S
C1332 C1333 1.392 . S
C1332 C1337 1.356 . S
C1333 C1332 1.392 . S
C1333 C1334 1.368 . S
C1333 H1356 0.929 . S
C1334 C1333 1.368 . S
C1334 C1335 1.386 . S
C1334 H1357 0.929 . S
C1335 C1334 1.386 . S
C1335 C1336 1.373 . S
C1336 C1335 1.373 . S
C1336 C1337 1.409 . S
C1336 H1358 0.931 . S
C1337 C1332 1.356 . S
C1337 C1336 1.409 . S
C1337 H1359 0.930 . S
C1338 O1348 1.270 . S
C1338 O1349 1.248 . S
C1339 O1350 1.267 . S
C1339 O1351 1.278 . S
O1340 Pr1320 2.562 . S
O1340 C1322 1.254 . S
O1341 Pr1320 2.490 . S
O1341 C1322 1.225 . S
O1342 Pr1320 2.695 . S
O1342 Pr1321 2.436 . S
O1342 C1329 1.270 . S
O1343 Pr1320 2.512 . S
O1343 C1329 1.248 . S
O1344 Pr1321 2.438 . S
O1344 C1330 1.267 . S
O1345 Pr1320 2.437 . S
O1345 C1330 1.278 . S
O1346 Pr1321 2.562 . S
O1346 C1331 1.254 . S
O1347 Pr1321 2.490 . S
O1347 C1331 1.225 . S
O1348 Pr1320 2.436 . S
O1348 Pr1321 2.695 . S
O1348 C1338 1.270 . S
O1349 Pr1321 2.512 . S
O1349 C1338 1.248 . S
O1350 Pr1320 2.438 . S
O1350 C1339 1.267 . S
O1351 Pr1321 2.437 . S
O1351 C1339 1.278 . S
H1352 C1324 0.929 . S
H1353 C1325 0.929 . S
H1354 C1327 0.931 . S
H1355 C1328 0.930 . S
H1356 C1333 0.929 . S
H1357 C1334 0.929 . S
H1358 C1336 0.931 . S
H1359 C1337 0.930 . S
Pr1360 C1362 2.880 . S
Pr1360 O1380 2.562 . S
Pr1360 O1381 2.490 . S
Pr1360 O1382 2.695 . S
Pr1360 O1383 2.512 . S
Pr1360 O1385 2.437 . S
Pr1360 O1388 2.436 . S
Pr1360 O1390 2.438 . S
Pr1361 C1371 2.880 . S
Pr1361 O1382 2.436 . S
Pr1361 O1384 2.438 . S
Pr1361 O1386 2.562 . S
Pr1361 O1387 2.490 . S
Pr1361 O1388 2.695 . S
Pr1361 O1389 2.512 . S
Pr1361 O1391 2.437 . S
C1362 Pr1360 2.880 . S
C1362 C1363 1.491 . S
C1362 O1380 1.254 . S
C1362 O1381 1.225 . S
C1363 C1362 1.491 . S
C1363 C1364 1.392 . S
C1363 C1368 1.356 . S
C1364 C1363 1.392 . S
C1364 C1365 1.368 . S
C1364 H1392 0.929 . S
C1365 C1364 1.368 . S
C1365 C1366 1.386 . S
C1365 H1393 0.929 . S
C1366 C1365 1.386 . S
C1366 C1367 1.373 . S
C1367 C1366 1.373 . S
C1367 C1368 1.409 . S
C1367 H1394 0.931 . S
C1368 C1363 1.356 . S
C1368 C1367 1.409 . S
C1368 H1395 0.930 . S
C1369 O1382 1.270 . S
C1369 O1383 1.248 . S
C1370 O1384 1.267 . S
C1370 O1385 1.278 . S
C1371 Pr1361 2.880 . S
C1371 C1372 1.491 . S
C1371 O1386 1.254 . S
C1371 O1387 1.225 . S
C1372 C1371 1.491 . S
C1372 C1373 1.392 . S
C1372 C1377 1.356 . S
C1373 C1372 1.392 . S
C1373 C1374 1.368 . S
C1373 H1396 0.929 . S
C1374 C1373 1.368 . S
C1374 C1375 1.386 . S
C1374 H1397 0.929 . S
C1375 C1374 1.386 . S
C1375 C1376 1.373 . S
C1376 C1375 1.373 . S
C1376 C1377 1.409 . S
C1376 H1398 0.931 . S
C1377 C1372 1.356 . S
C1377 C1376 1.409 . S
C1377 H1399 0.930 . S
C1378 O1388 1.270 . S
C1378 O1389 1.248 . S
C1379 O1390 1.267 . S
C1379 O1391 1.278 . S
O1380 Pr1360 2.562 . S
O1380 C1362 1.254 . S
O1381 Pr1360 2.490 . S
O1381 C1362 1.225 . S
O1382 Pr1360 2.695 . S
O1382 Pr1361 2.436 . S
O1382 C1369 1.270 . S
O1383 Pr1360 2.512 . S
O1383 C1369 1.248 . S
O1384 Pr1361 2.438 . S
O1384 C1370 1.267 . S
O1385 Pr1360 2.437 . S
O1385 C1370 1.278 . S
O1386 Pr1361 2.562 . S
O1386 C1371 1.254 . S
O1387 Pr1361 2.490 . S
O1387 C1371 1.225 . S
O1388 Pr1360 2.436 . S
O1388 Pr1361 2.695 . S
O1388 C1378 1.270 . S
O1389 Pr1361 2.512 . S
O1389 C1378 1.248 . S
O1390 Pr1360 2.438 . S
O1390 C1379 1.267 . S
O1391 Pr1361 2.437 . S
O1391 C1379 1.278 . S
H1392 C1364 0.929 . S
H1393 C1365 0.929 . S
H1394 C1367 0.931 . S
H1395 C1368 0.930 . S
H1396 C1373 0.929 . S
H1397 C1374 0.929 . S
H1398 C1376 0.931 . S
H1399 C1377 0.930 . S
Pr1400 C1402 2.880 . S
Pr1400 O1420 2.562 . S
Pr1400 O1421 2.490 . S
Pr1400 O1422 2.695 . S
Pr1400 O1423 2.512 . S
Pr1400 O1425 2.437 . S
Pr1400 O1428 2.436 . S
Pr1400 O1430 2.438 . S
Pr1401 C1411 2.880 . S
Pr1401 O1422 2.436 . S
Pr1401 O1424 2.438 . S
Pr1401 O1426 2.562 . S
Pr1401 O1427 2.490 . S
Pr1401 O1428 2.695 . S
Pr1401 O1429 2.512 . S
Pr1401 O1431 2.437 . S
C1402 Pr1400 2.880 . S
C1402 C1403 1.491 . S
C1402 O1420 1.254 . S
C1402 O1421 1.225 . S
C1403 C1402 1.491 . S
C1403 C1404 1.392 . S
C1403 C1408 1.356 . S
C1404 C1403 1.392 . S
C1404 C1405 1.368 . S
C1404 H1432 0.929 . S
C1405 C1404 1.368 . S
C1405 C1406 1.386 . S
C1405 H1433 0.929 . S
C1406 C1405 1.386 . S
C1406 C1407 1.373 . S
C1407 C1406 1.373 . S
C1407 C1408 1.409 . S
C1407 H1434 0.931 . S
C1408 C1403 1.356 . S
C1408 C1407 1.409 . S
C1408 H1435 0.930 . S
C1409 O1422 1.270 . S
C1409 O1423 1.248 . S
C1410 O1424 1.267 . S
C1410 O1425 1.278 . S
C1411 Pr1401 2.880 . S
C1411 C1412 1.491 . S
C1411 O1426 1.254 . S
C1411 O1427 1.225 . S
C1412 C1411 1.491 . S
C1412 C1413 1.392 . S
C1412 C1417 1.356 . S
C1413 C1412 1.392 . S
C1413 C1414 1.368 . S
C1413 H1436 0.929 . S
C1414 C1413 1.368 . S
C1414 C1415 1.386 . S
C1414 H1437 0.929 . S
C1415 C1414 1.386 . S
C1415 C1416 1.373 . S
C1416 C1415 1.373 . S
C1416 C1417 1.409 . S
C1416 H1438 0.931 . S
C1417 C1412 1.356 . S
C1417 C1416 1.409 . S
C1417 H1439 0.930 . S
C1418 O1428 1.270 . S
C1418 O1429 1.248 . S
C1419 O1430 1.267 . S
C1419 O1431 1.278 . S
O1420 Pr1400 2.562 . S
O1420 C1402 1.254 . S
O1421 Pr1400 2.490 . S
O1421 C1402 1.225 . S
O1422 Pr1400 2.695 . S
O1422 Pr1401 2.436 . S
O1422 C1409 1.270 . S
O1423 Pr1400 2.512 . S
O1423 C1409 1.248 . S
O1424 Pr1401 2.438 . S
O1424 C1410 1.267 . S
O1425 Pr1400 2.437 . S
O1425 C1410 1.278 . S
O1426 Pr1401 2.562 . S
O1426 C1411 1.254 . S
O1427 Pr1401 2.490 . S
O1427 C1411 1.225 . S
O1428 Pr1400 2.436 . S
O1428 Pr1401 2.695 . S
O1428 C1418 1.270 . S
O1429 Pr1401 2.512 . S
O1429 C1418 1.248 . S
O1430 Pr1400 2.438 . S
O1430 C1419 1.267 . S
O1431 Pr1401 2.437 . S
O1431 C1419 1.278 . S
H1432 C1404 0.929 . S
H1433 C1405 0.929 . S
H1434 C1407 0.931 . S
H1435 C1408 0.930 . S
H1436 C1413 0.929 . S
H1437 C1414 0.929 . S
H1438 C1416 0.931 . S
H1439 C1417 0.930 . S
H1440 C1448 0.950 . S
H1441 C1453 0.950 . S
H1442 C1450 0.950 1_554 S
H1443 C1452 0.947 1_554 S
H1444 C1454 0.950 . S
H1445 C1456 0.950 . S
H1446 C1458 0.950 . S
H1447 C1459 0.950 . S
C1448 H1440 0.950 . S
C1448 C1449 1.386 . S
C1448 C1450 1.391 . S
C1449 C1448 1.386 . S
C1449 C1453 1.393 . S
C1450 H1442 0.950 1_556 S
C1450 C1448 1.391 . S
C1450 C1451 1.400 1_556 S
C1451 C1450 1.400 1_554 S
C1451 C1452 1.398 1_554 S
C1451 C1457 1.491 . S
C1452 H1443 0.947 1_556 S
C1452 C1451 1.398 1_556 S
C1452 C1453 1.391 . S
C1453 H1441 0.950 . S
C1453 C1449 1.393 . S
C1453 C1452 1.391 . S
C1454 H1444 0.950 . S
C1454 C1455 1.386 . S
C1454 C1456 1.391 . S
C1455 C1454 1.386 . S
C1455 C1459 1.393 . S
C1456 H1445 0.950 . S
C1456 C1454 1.391 . S
C1456 C1457 1.400 . S
C1457 C1451 1.491 . S
C1457 C1456 1.400 . S
C1457 C1458 1.398 . S
C1458 H1446 0.950 . S
C1458 C1457 1.398 . S
C1458 C1459 1.391 . S
C1459 H1447 0.950 . S
C1459 C1455 1.393 . S
C1459 C1458 1.391 . S
H1460 C1468 0.950 . S
H1461 C1473 0.950 . S
H1462 C1470 0.950 . S
H1463 C1472 0.950 . S
H1464 C1474 0.950 . S
H1465 C1476 0.950 . S
H1466 C1478 0.950 . S
H1467 C1479 0.950 . S
C1468 H1460 0.950 . S
C1468 C1469 1.386 . S
C1468 C1470 1.391 1_556 S
C1469 C1468 1.386 . S
C1469 C1473 1.393 . S
C1470 H1462 0.950 . S
C1470 C1468 1.391 1_554 S
C1470 C1471 1.400 . S
C1471 C1470 1.400 . S
C1471 C1472 1.398 1_554 S
C1471 C1477 1.491 . S
C1472 H1463 0.950 . S
C1472 C1471 1.398 1_556 S
C1472 C1473 1.391 . S
C1473 H1461 0.950 . S
C1473 C1469 1.393 . S
C1473 C1472 1.391 . S
C1474 H1464 0.950 . S
C1474 C1475 1.386 . S
C1474 C1476 1.391 . S
C1475 C1474 1.386 . S
C1475 C1479 1.393 . S
C1476 H1465 0.950 . S
C1476 C1474 1.391 . S
C1476 C1477 1.400 . S
C1477 C1471 1.491 . S
C1477 C1476 1.400 . S
C1477 C1478 1.398 . S
C1478 H1466 0.950 . S
C1478 C1477 1.398 . S
C1478 C1479 1.391 . S
C1479 H1467 0.950 . S
C1479 C1475 1.393 . S
C1479 C1478 1.391 . S
H1480 C1488 0.950 . S
H1481 C1493 0.950 . S
H1482 C1490 0.950 . S
H1483 C1492 0.950 . S
H1484 C1494 0.950 . S
H1485 C1496 0.950 . S
H1486 C1498 0.950 . S
H1487 C1499 0.950 . S
C1488 H1480 0.950 . S
C1488 C1489 1.386 . S
C1488 C1490 1.391 . S
C1489 C1488 1.386 . S
C1489 C1493 1.393 . S
C1490 H1482 0.950 . S
C1490 C1488 1.391 . S
C1490 C1491 1.400 . S
C1491 C1490 1.400 . S
C1491 C1492 1.398 . S
C1491 C1497 1.491 . S
C1492 H1483 0.950 . S
C1492 C1491 1.398 . S
C1492 C1493 1.391 . S
C1493 H1481 0.950 . S
C1493 C1489 1.393 . S
C1493 C1492 1.391 . S
C1494 H1484 0.950 . S
C1494 C1495 1.386 . S
C1494 C1496 1.391 1_556 S
C1495 C1494 1.386 . S
C1495 C1499 1.393 . S
C1496 H1485 0.950 . S
C1496 C1494 1.391 1_554 S
C1496 C1497 1.400 . S
C1497 C1491 1.491 . S
C1497 C1496 1.400 . S
C1497 C1498 1.398 1_554 S
C1498 H1486 0.950 . S
C1498 C1497 1.398 1_556 S
C1498 C1499 1.391 . S
C1499 H1487 0.950 . S
C1499 C1495 1.393 . S
C1499 C1498 1.391 . S
H1500 C1508 0.950 . S
H1501 C1513 0.950 . S
H1502 C1510 0.950 . S
H1503 C1512 0.950 . S
H1504 C1514 0.950 . S
H1505 C1516 0.950 . S
H1506 C1518 0.950 . S
H1507 C1519 0.950 . S
C1508 H1500 0.950 . S
C1508 C1509 1.386 . S
C1508 C1510 1.391 . S
C1509 C1508 1.386 . S
C1509 C1513 1.393 . S
C1510 H1502 0.950 . S
C1510 C1508 1.391 . S
C1510 C1511 1.400 . S
C1511 C1510 1.400 . S
C1511 C1512 1.398 . S
C1511 C1517 1.491 . S
C1512 H1503 0.950 . S
C1512 C1511 1.398 . S
C1512 C1513 1.391 . S
C1513 H1501 0.950 . S
C1513 C1509 1.393 . S
C1513 C1512 1.391 . S
C1514 H1504 0.950 . S
C1514 C1515 1.386 . S
C1514 C1516 1.391 . S
C1515 C1514 1.386 . S
C1515 C1519 1.393 . S
C1516 H1505 0.950 . S
C1516 C1514 1.391 . S
C1516 C1517 1.400 . S
C1517 C1511 1.491 . S
C1517 C1516 1.400 . S
C1517 C1518 1.398 . S
C1518 H1506 0.950 . S
C1518 C1517 1.398 . S
C1518 C1519 1.391 . S
C1519 H1507 0.950 . S
C1519 C1515 1.393 . S
C1519 C1518 1.391 . S
H1520 C1528 0.950 . S
H1521 C1533 0.950 . S
H1522 C1530 0.950 . S
H1523 C1532 0.950 . S
H1524 C1534 0.950 . S
H1525 C1536 0.950 . S
H1526 C1538 0.950 . S
H1527 C1539 0.950 . S
C1528 H1520 0.950 . S
C1528 C1529 1.386 . S
C1528 C1530 1.391 . S
C1529 C1528 1.386 . S
C1529 C1533 1.393 . S
C1530 H1522 0.950 . S
C1530 C1528 1.391 . S
C1530 C1531 1.400 . S
C1531 C1530 1.400 . S
C1531 C1532 1.398 . S
C1531 C1537 1.491 . S
C1532 H1523 0.950 . S
C1532 C1531 1.398 . S
C1532 C1533 1.391 . S
C1533 H1521 0.950 . S
C1533 C1529 1.393 . S
C1533 C1532 1.391 . S
C1534 H1524 0.950 . S
C1534 C1535 1.386 . S
C1534 C1536 1.391 . S
C1535 C1534 1.386 . S
C1535 C1539 1.393 . S
C1536 H1525 0.950 . S
C1536 C1534 1.391 . S
C1536 C1537 1.400 . S
C1537 C1531 1.491 . S
C1537 C1536 1.400 . S
C1537 C1538 1.398 . S
C1538 H1526 0.950 . S
C1538 C1537 1.398 . S
C1538 C1539 1.391 . S
C1539 H1527 0.950 . S
C1539 C1535 1.393 . S
C1539 C1538 1.391 . S
H1540 C1548 0.950 . S
H1541 C1553 0.950 . S
H1542 C1550 0.950 . S
H1543 C1552 0.950 . S
H1544 C1554 0.950 . S
H1545 C1556 0.950 . S
H1546 C1558 0.950 . S
H1547 C1559 0.950 . S
C1548 H1540 0.950 . S
C1548 C1549 1.386 . S
C1548 C1550 1.391 . S
C1549 C1548 1.386 . S
C1549 C1553 1.393 . S
C1550 H1542 0.950 . S
C1550 C1548 1.391 . S
C1550 C1551 1.400 . S
C1551 C1550 1.400 . S
C1551 C1552 1.398 . S
C1551 C1557 1.491 . S
C1552 H1543 0.950 . S
C1552 C1551 1.398 . S
C1552 C1553 1.391 . S
C1553 H1541 0.950 . S
C1553 C1549 1.393 . S
C1553 C1552 1.391 . S
C1554 H1544 0.950 . S
C1554 C1555 1.386 . S
C1554 C1556 1.391 . S
C1555 C1554 1.386 . S
C1555 C1559 1.393 . S
C1556 H1545 0.950 . S
C1556 C1554 1.391 . S
C1556 C1557 1.400 . S
C1557 C1551 1.491 . S
C1557 C1556 1.400 . S
C1557 C1558 1.398 . S
C1558 H1546 0.950 . S
C1558 C1557 1.398 . S
C1558 C1559 1.391 . S
C1559 H1547 0.950 . S
C1559 C1555 1.393 . S
C1559 C1558 1.391 . S
H1560 C1568 0.950 . S
H1561 C1573 0.950 . S
H1562 C1570 0.950 . S
H1563 C1572 0.950 . S
H1564 C1574 0.950 . S
H1565 C1576 0.950 . S
H1566 C1578 0.950 . S
H1567 C1579 0.950 . S
C1568 H1560 0.950 . S
C1568 C1569 1.386 . S
C1568 C1570 1.391 . S
C1569 C1568 1.386 . S
C1569 C1573 1.393 . S
C1570 H1562 0.950 . S
C1570 C1568 1.391 . S
C1570 C1571 1.400 . S
C1571 C1570 1.400 . S
C1571 C1572 1.398 . S
C1571 C1577 1.491 . S
C1572 H1563 0.950 . S
C1572 C1571 1.398 . S
C1572 C1573 1.391 . S
C1573 H1561 0.950 . S
C1573 C1569 1.393 . S
C1573 C1572 1.391 . S
C1574 H1564 0.950 . S
C1574 C1575 1.386 . S
C1574 C1576 1.391 . S
C1575 C1574 1.386 . S
C1575 C1579 1.393 . S
C1576 H1565 0.950 . S
C1576 C1574 1.391 . S
C1576 C1577 1.400 . S
C1577 C1571 1.491 . S
C1577 C1576 1.400 . S
C1577 C1578 1.398 . S
C1578 H1566 0.950 . S
C1578 C1577 1.398 . S
C1578 C1579 1.391 . S
C1579 H1567 0.950 . S
C1579 C1575 1.393 . S
C1579 C1578 1.391 . S
H1580 C1588 0.950 . S
H1581 C1593 0.950 . S
H1582 C1590 0.950 . S
H1583 C1592 0.950 . S
H1584 C1594 0.950 . S
H1585 C1596 0.950 . S
H1586 C1598 0.950 . S
H1587 C1599 0.950 . S
C1588 H1580 0.950 . S
C1588 C1589 1.386 . S
C1588 C1590 1.391 . S
C1589 C1588 1.386 . S
C1589 C1593 1.393 . S
C1590 H1582 0.950 . S
C1590 C1588 1.391 . S
C1590 C1591 1.400 . S
C1591 C1590 1.400 . S
C1591 C1592 1.398 . S
C1591 C1597 1.491 . S
C1592 H1583 0.950 . S
C1592 C1591 1.398 . S
C1592 C1593 1.391 . S
C1593 H1581 0.950 . S
C1593 C1589 1.393 . S
C1593 C1592 1.391 . S
C1594 H1584 0.950 . S
C1594 C1595 1.386 . S
C1594 C1596 1.391 . S
C1595 C1594 1.386 . S
C1595 C1599 1.393 . S
C1596 H1585 0.950 . S
C1596 C1594 1.391 . S
C1596 C1597 1.400 . S
C1597 C1591 1.491 . S
C1597 C1596 1.400 . S
C1597 C1598 1.398 . S
C1598 H1586 0.950 . S
C1598 C1597 1.398 . S
C1598 C1599 1.391 . S
C1599 H1587 0.950 . S
C1599 C1595 1.393 . S
C1599 C1598 1.391 . S
H1600 C1608 0.950 . S
H1601 C1613 0.950 . S
H1602 C1610 0.950 . S
H1603 C1612 0.950 . S
H1604 C1614 0.950 . S
H1605 C1616 0.950 . S
H1606 C1618 0.950 . S
H1607 C1619 0.950 . S
C1608 H1600 0.950 . S
C1608 C1609 1.386 . S
C1608 C1610 1.391 . S
C1609 C1608 1.386 . S
C1609 C1613 1.393 . S
C1610 H1602 0.950 . S
C1610 C1608 1.391 . S
C1610 C1611 1.400 . S
C1611 C1610 1.400 . S
C1611 C1612 1.398 . S
C1611 C1617 1.491 . S
C1612 H1603 0.950 . S
C1612 C1611 1.398 . S
C1612 C1613 1.391 . S
C1613 H1601 0.950 . S
C1613 C1609 1.393 . S
C1613 C1612 1.391 . S
C1614 H1604 0.950 . S
C1614 C1615 1.386 . S
C1614 C1616 1.391 . S
C1615 C1614 1.386 . S
C1615 C1619 1.393 . S
C1616 H1605 0.950 . S
C1616 C1614 1.391 . S
C1616 C1617 1.400 . S
C1617 C1611 1.491 . S
C1617 C1616 1.400 . S
C1617 C1618 1.398 . S
C1618 H1606 0.950 . S
C1618 C1617 1.398 . S
C1618 C1619 1.391 . S
C1619 H1607 0.950 . S
C1619 C1615 1.393 . S
C1619 C1618 1.391 . S
H1620 C1628 0.950 . S
H1621 C1633 0.950 . S
H1622 C1630 0.950 . S
H1623 C1632 0.950 . S
H1624 C1634 0.950 . S
H1625 C1636 0.950 . S
H1626 C1638 0.950 . S
H1627 C1639 0.950 . S
C1628 H1620 0.950 . S
C1628 C1629 1.386 . S
C1628 C1630 1.391 . S
C1629 C1628 1.386 . S
C1629 C1633 1.393 . S
C1630 H1622 0.950 . S
C1630 C1628 1.391 . S
C1630 C1631 1.400 . S
C1631 C1630 1.400 . S
C1631 C1632 1.398 . S
C1631 C1637 1.491 . S
C1632 H1623 0.950 . S
C1632 C1631 1.398 . S
C1632 C1633 1.391 . S
C1633 H1621 0.950 . S
C1633 C1629 1.393 . S
C1633 C1632 1.391 . S
C1634 H1624 0.950 . S
C1634 C1635 1.386 . S
C1634 C1636 1.391 . S
C1635 C1634 1.386 . S
C1635 C1639 1.393 . S
C1636 H1625 0.950 . S
C1636 C1634 1.391 . S
C1636 C1637 1.400 . S
C1637 C1631 1.491 . S
C1637 C1636 1.400 . S
C1637 C1638 1.398 . S
C1638 H1626 0.950 . S
C1638 C1637 1.398 . S
C1638 C1639 1.391 . S
C1639 H1627 0.950 . S
C1639 C1635 1.393 . S
C1639 C1638 1.391 . S
H1640 C1648 0.950 . S
H1641 C1653 0.950 . S
H1642 C1650 0.950 . S
H1643 C1652 0.950 . S
H1644 C1654 0.950 . S
H1645 C1656 0.950 . S
H1646 C1658 0.950 . S
H1647 C1659 0.950 . S
C1648 H1640 0.950 . S
C1648 C1649 1.386 . S
C1648 C1650 1.391 . S
C1649 C1648 1.386 . S
C1649 C1653 1.393 . S
C1650 H1642 0.950 . S
C1650 C1648 1.391 . S
C1650 C1651 1.400 . S
C1651 C1650 1.400 . S
C1651 C1652 1.398 . S
C1651 C1657 1.491 . S
C1652 H1643 0.950 . S
C1652 C1651 1.398 . S
C1652 C1653 1.391 . S
C1653 H1641 0.950 . S
C1653 C1649 1.393 . S
C1653 C1652 1.391 . S
C1654 H1644 0.950 . S
C1654 C1655 1.386 . S
C1654 C1656 1.391 . S
C1655 C1654 1.386 . S
C1655 C1659 1.393 . S
C1656 H1645 0.950 . S
C1656 C1654 1.391 . S
C1656 C1657 1.400 . S
C1657 C1651 1.491 . S
C1657 C1656 1.400 . S
C1657 C1658 1.398 . S
C1658 H1646 0.950 . S
C1658 C1657 1.398 . S
C1658 C1659 1.391 . S
C1659 H1647 0.950 . S
C1659 C1655 1.393 . S
C1659 C1658 1.391 . S
H1660 C1668 0.950 . S
H1661 C1673 0.950 . S
H1662 C1670 0.950 . S
H1663 C1672 0.950 . S
H1664 C1674 0.950 . S
H1665 C1676 0.950 . S
H1666 C1678 0.950 . S
H1667 C1679 0.950 . S
C1668 H1660 0.950 . S
C1668 C1669 1.386 . S
C1668 C1670 1.391 . S
C1669 C1668 1.386 . S
C1669 C1673 1.393 . S
C1670 H1662 0.950 . S
C1670 C1668 1.391 . S
C1670 C1671 1.400 . S
C1671 C1670 1.400 . S
C1671 C1672 1.398 . S
C1671 C1677 1.491 . S
C1672 H1663 0.950 . S
C1672 C1671 1.398 . S
C1672 C1673 1.391 . S
C1673 H1661 0.950 . S
C1673 C1669 1.393 . S
C1673 C1672 1.391 . S
C1674 H1664 0.950 . S
C1674 C1675 1.386 . S
C1674 C1676 1.391 . S
C1675 C1674 1.386 . S
C1675 C1679 1.393 . S
C1676 H1665 0.950 . S
C1676 C1674 1.391 . S
C1676 C1677 1.400 . S
C1677 C1671 1.491 . S
C1677 C1676 1.400 . S
C1677 C1678 1.398 . S
C1678 H1666 0.950 . S
C1678 C1677 1.398 . S
C1678 C1679 1.391 . S
C1679 H1667 0.950 . S
C1679 C1675 1.393 . S
C1679 C1678 1.391 . S
H1680 C1688 0.950 . S
H1681 C1693 0.950 . S
H1682 C1690 0.950 . S
H1683 C1692 0.950 . S
H1684 C1694 0.950 . S
H1685 C1696 0.950 . S
H1686 C1698 0.950 . S
H1687 C1699 0.950 . S
C1688 H1680 0.950 . S
C1688 C1689 1.386 . S
C1688 C1690 1.391 . S
C1689 C1688 1.386 . S
C1689 C1693 1.393 . S
C1690 H1682 0.950 . S
C1690 C1688 1.391 . S
C1690 C1691 1.400 . S
C1691 C1690 1.400 . S
C1691 C1692 1.398 . S
C1691 C1697 1.491 . S
C1692 H1683 0.950 . S
C1692 C1691 1.398 . S
C1692 C1693 1.391 . S
C1693 H1681 0.950 . S
C1693 C1689 1.393 . S
C1693 C1692 1.391 . S
C1694 H1684 0.950 . S
C1694 C1695 1.386 . S
C1694 C1696 1.391 . S
C1695 C1694 1.386 . S
C1695 C1699 1.393 . S
C1696 H1685 0.950 . S
C1696 C1694 1.391 . S
C1696 C1697 1.400 . S
C1697 C1691 1.491 . S
C1697 C1696 1.400 . S
C1697 C1698 1.398 . S
C1698 H1686 0.950 . S
C1698 C1697 1.398 . S
C1698 C1699 1.391 . S
C1699 H1687 0.950 . S
C1699 C1695 1.393 . S
C1699 C1698 1.391 . S
H1700 C1708 0.950 . S
H1701 C1713 0.950 . S
H1702 C1710 0.950 . S
H1703 C1712 0.950 1_545 S
H1704 C1714 0.950 . S
H1705 C1716 0.950 . S
H1706 C1718 0.950 1_565 S
H1707 C1719 0.950 . S
C1708 H1700 0.950 . S
C1708 C1709 1.386 . S
C1708 C1710 1.391 . S
C1709 C1708 1.386 . S
C1709 C1713 1.393 . S
C1710 H1702 0.950 . S
C1710 C1708 1.391 . S
C1710 C1711 1.400 . S
C1711 C1710 1.400 . S
C1711 C1712 1.398 . S
C1711 C1717 1.491 1_565 S
C1712 H1703 0.950 1_565 S
C1712 C1711 1.398 . S
C1712 C1713 1.391 . S
C1713 H1701 0.950 . S
C1713 C1709 1.393 . S
C1713 C1712 1.391 . S
C1714 H1704 0.950 . S
C1714 C1715 1.386 . S
C1714 C1716 1.391 . S
C1715 C1714 1.386 . S
C1715 C1719 1.393 . S
C1716 H1705 0.950 . S
C1716 C1714 1.391 . S
C1716 C1717 1.400 . S
C1717 C1711 1.491 1_545 S
C1717 C1716 1.400 . S
C1717 C1718 1.398 . S
C1718 H1706 0.950 1_545 S
C1718 C1717 1.398 . S
C1718 C1719 1.391 . S
C1719 H1707 0.950 . S
C1719 C1715 1.393 . S
C1719 C1718 1.391 . S
H1720 C1728 0.950 . S
H1721 C1733 0.950 . S
H1722 C1730 0.950 . S
H1723 C1732 0.950 1_455 S
H1724 C1734 0.950 . S
H1725 C1736 0.950 . S
H1726 C1738 0.950 1_655 S
H1727 C1739 0.950 . S
C1728 H1720 0.950 . S
C1728 C1729 1.386 . S
C1728 C1730 1.391 . S
C1729 C1728 1.386 . S
C1729 C1733 1.393 . S
C1730 H1722 0.950 . S
C1730 C1728 1.391 . S
C1730 C1731 1.400 . S
C1731 C1730 1.400 . S
C1731 C1732 1.398 . S
C1731 C1737 1.491 1_655 S
C1732 H1723 0.950 1_655 S
C1732 C1731 1.398 . S
C1732 C1733 1.391 . S
C1733 H1721 0.950 . S
C1733 C1729 1.393 . S
C1733 C1732 1.391 . S
C1734 H1724 0.950 . S
C1734 C1735 1.386 . S
C1734 C1736 1.391 . S
C1735 C1734 1.386 . S
C1735 C1739 1.393 . S
C1736 H1725 0.950 . S
C1736 C1734 1.391 . S
C1736 C1737 1.400 . S
C1737 C1731 1.491 1_455 S
C1737 C1736 1.400 . S
C1737 C1738 1.398 . S
C1738 H1726 0.950 1_455 S
C1738 C1737 1.398 . S
C1738 C1739 1.391 . S
C1739 H1727 0.950 . S
C1739 C1735 1.393 . S
C1739 C1738 1.391 . S
H1740 C1748 0.950 . S
H1741 C1753 0.950 . S
H1742 C1750 0.950 . S
H1743 C1752 0.950 . S
H1744 C1754 0.950 . S
H1745 C1756 0.950 . S
H1746 C1758 0.950 . S
H1747 C1759 0.950 . S
C1748 H1740 0.950 . S
C1748 C1749 1.386 . S
C1748 C1750 1.391 . S
C1749 C1748 1.386 . S
C1749 C1753 1.393 . S
C1750 H1742 0.950 . S
C1750 C1748 1.391 . S
C1750 C1751 1.400 . S
C1751 C1750 1.400 . S
C1751 C1752 1.398 . S
C1751 C1757 1.491 . S
C1752 H1743 0.950 . S
C1752 C1751 1.398 . S
C1752 C1753 1.391 . S
C1753 H1741 0.950 . S
C1753 C1749 1.393 . S
C1753 C1752 1.391 . S
C1754 H1744 0.950 . S
C1754 C1755 1.386 . S
C1754 C1756 1.391 . S
C1755 C1754 1.386 . S
C1755 C1759 1.393 . S
C1756 H1745 0.950 . S
C1756 C1754 1.391 . S
C1756 C1757 1.400 . S
C1757 C1751 1.491 . S
C1757 C1756 1.400 . S
C1757 C1758 1.398 . S
C1758 H1746 0.950 . S
C1758 C1757 1.398 . S
C1758 C1759 1.391 . S
C1759 H1747 0.950 . S
C1759 C1755 1.393 . S
C1759 C1758 1.391 . S
H1760 C1768 0.950 . S
H1761 C1773 0.950 . S
H1762 C1770 0.950 . S
H1763 C1772 0.950 . S
H1764 C1774 0.950 . S
H1765 C1776 0.950 . S
H1766 C1778 0.950 . S
H1767 C1779 0.950 . S
C1768 H1760 0.950 . S
C1768 C1769 1.386 . S
C1768 C1770 1.391 . S
C1769 C1768 1.386 . S
C1769 C1773 1.393 . S
C1770 H1762 0.950 . S
C1770 C1768 1.391 . S
C1770 C1771 1.400 . S
C1771 C1770 1.400 . S
C1771 C1772 1.398 . S
C1771 C1777 1.491 1_545 S
C1772 H1763 0.950 . S
C1772 C1771 1.398 . S
C1772 C1773 1.391 . S
C1773 H1761 0.950 . S
C1773 C1769 1.393 . S
C1773 C1772 1.391 . S
C1774 H1764 0.950 . S
C1774 C1775 1.386 . S
C1774 C1776 1.391 . S
C1775 C1774 1.386 . S
C1775 C1779 1.393 . S
C1776 H1765 0.950 . S
C1776 C1774 1.391 . S
C1776 C1777 1.400 . S
C1777 C1771 1.491 1_565 S
C1777 C1776 1.400 . S
C1777 C1778 1.398 . S
C1778 H1766 0.950 . S
C1778 C1777 1.398 . S
C1778 C1779 1.391 . S
C1779 H1767 0.950 . S
C1779 C1775 1.393 . S
C1779 C1778 1.391 . S
H1780 C1788 0.950 . S
H1781 C1793 0.950 . S
H1782 C1790 0.950 . S
H1783 C1792 0.950 . S
H1784 C1794 0.950 . S
H1785 C1796 0.950 . S
H1786 C1798 0.950 . S
H1787 C1799 0.950 . S
C1788 H1780 0.950 . S
C1788 C1789 1.386 . S
C1788 C1790 1.391 1_455 S
C1789 C1788 1.386 . S
C1789 C1793 1.393 . S
C1790 H1782 0.950 . S
C1790 C1788 1.391 1_655 S
C1790 C1791 1.400 1_655 S
C1791 C1790 1.400 1_455 S
C1791 C1792 1.398 . S
C1791 C1797 1.491 1_455 S
C1792 H1783 0.950 . S
C1792 C1791 1.398 . S
C1792 C1793 1.391 . S
C1793 H1781 0.950 . S
C1793 C1789 1.393 . S
C1793 C1792 1.391 . S
C1794 H1784 0.950 . S
C1794 C1795 1.386 . S
C1794 C1796 1.391 1_655 S
C1795 C1794 1.386 . S
C1795 C1799 1.393 . S
C1796 H1785 0.950 . S
C1796 C1794 1.391 1_455 S
C1796 C1797 1.400 1_455 S
C1797 C1791 1.491 1_655 S
C1797 C1796 1.400 1_655 S
C1797 C1798 1.398 . S
C1798 H1786 0.950 . S
C1798 C1797 1.398 . S
C1798 C1799 1.391 . S
C1799 H1787 0.950 . S
C1799 C1795 1.393 . S
C1799 C1798 1.391 . S
H1800 C1808 0.950 . S
H1801 C1813 0.950 . S
H1802 C1810 0.950 1_655 S
H1803 C1812 0.950 . S
H1804 C1814 0.950 . S
H1805 C1816 0.950 1_455 S
H1806 C1818 0.950 . S
H1807 C1819 0.950 . S
C1808 H1800 0.950 . S
C1808 C1809 1.386 . S
C1808 C1810 1.391 . S
C1809 C1808 1.386 . S
C1809 C1813 1.393 . S
C1810 H1802 0.950 1_455 S
C1810 C1808 1.391 . S
C1810 C1811 1.400 . S
C1811 C1810 1.400 . S
C1811 C1812 1.398 . S
C1811 C1817 1.491 1_455 S
C1812 H1803 0.950 . S
C1812 C1811 1.398 . S
C1812 C1813 1.391 . S
C1813 H1801 0.950 . S
C1813 C1809 1.393 . S
C1813 C1812 1.391 . S
C1814 H1804 0.950 . S
C1814 C1815 1.386 . S
C1814 C1816 1.391 . S
C1815 C1814 1.386 . S
C1815 C1819 1.393 . S
C1816 H1805 0.950 1_655 S
C1816 C1814 1.391 . S
C1816 C1817 1.400 . S
C1817 C1811 1.491 1_655 S
C1817 C1816 1.400 . S
C1817 C1818 1.398 . S
C1818 H1806 0.950 . S
C1818 C1817 1.398 . S
C1818 C1819 1.391 . S
C1819 H1807 0.950 . S
C1819 C1815 1.393 . S
C1819 C1818 1.391 . S
H1820 C1828 0.950 . S
H1821 C1833 0.950 . S
H1822 C1830 0.950 . S
H1823 C1832 0.950 . S
H1824 C1834 0.950 . S
H1825 C1836 0.950 . S
H1826 C1838 0.950 . S
H1827 C1839 0.950 . S
C1828 H1820 0.950 . S
C1828 C1829 1.386 . S
C1828 C1830 1.391 . S
C1829 C1828 1.386 . S
C1829 C1833 1.393 . S
C1830 H1822 0.950 . S
C1830 C1828 1.391 . S
C1830 C1831 1.400 . S
C1831 C1830 1.400 . S
C1831 C1832 1.398 . S
C1831 C1837 1.491 . S
C1832 H1823 0.950 . S
C1832 C1831 1.398 . S
C1832 C1833 1.391 . S
C1833 H1821 0.950 . S
C1833 C1829 1.393 . S
C1833 C1832 1.391 . S
C1834 H1824 0.950 . S
C1834 C1835 1.386 . S
C1834 C1836 1.391 . S
C1835 C1834 1.386 . S
C1835 C1839 1.393 . S
C1836 H1825 0.950 . S
C1836 C1834 1.391 . S
C1836 C1837 1.400 . S
C1837 C1831 1.491 . S
C1837 C1836 1.400 . S
C1837 C1838 1.398 . S
C1838 H1826 0.950 . S
C1838 C1837 1.398 . S
C1838 C1839 1.391 . S
C1839 H1827 0.950 . S
C1839 C1835 1.393 . S
C1839 C1838 1.391 . S
H1840 C1848 0.973 . S
H1841 C1853 0.950 . S
H1842 C1850 0.950 . S
H1843 C1852 0.950 . S
H1844 C1854 0.969 . S
H1845 C1856 0.950 . S
H1846 C1858 0.950 . S
H1847 C1859 0.950 . S
C1848 H1840 0.973 . S
C1848 C1849 1.386 . S
C1848 C1850 1.391 1_565 S
C1849 C1848 1.386 . S
C1849 C1853 1.393 . S
C1850 H1842 0.950 . S
C1850 C1848 1.391 1_545 S
C1850 C1851 1.400 1_545 S
C1851 C1850 1.400 1_565 S
C1851 C1852 1.398 . S
C1851 C1857 1.491 1_565 S
C1852 H1843 0.950 . S
C1852 C1851 1.398 . S
C1852 C1853 1.391 . S
C1853 H1841 0.950 . S
C1853 C1849 1.393 . S
C1853 C1852 1.391 . S
C1854 H1844 0.969 . S
C1854 C1855 1.386 . S
C1854 C1856 1.391 1_545 S
C1855 C1854 1.386 . S
C1855 C1859 1.393 . S
C1856 H1845 0.950 . S
C1856 C1854 1.391 1_565 S
C1856 C1857 1.400 1_565 S
C1857 C1851 1.491 1_545 S
C1857 C1856 1.400 1_545 S
C1857 C1858 1.398 . S
C1858 H1846 0.950 . S
C1858 C1857 1.398 . S
C1858 C1859 1.391 . S
C1859 H1847 0.950 . S
C1859 C1855 1.393 . S
C1859 C1858 1.391 . S
H1860 C1868 0.950 . S
H1861 C1873 0.950 1_455 S
H1862 C1870 0.950 . S
H1863 C1872 0.950 . S
H1864 C1874 0.950 . S
H1865 C1876 0.950 . S
H1866 C1878 0.950 . S
H1867 C1879 0.950 1_655 S
C1868 H1860 0.950 . S
C1868 C1869 1.386 . S
C1868 C1870 1.391 . S
C1869 C1868 1.386 . S
C1869 C1873 1.393 . S
C1870 H1862 0.950 . S
C1870 C1868 1.391 . S
C1870 C1871 1.400 . S
C1871 C1870 1.400 . S
C1871 C1872 1.398 1_655 S
C1871 C1877 1.491 1_655 S
C1872 H1863 0.950 . S
C1872 C1871 1.398 1_455 S
C1872 C1873 1.391 1_455 S
C1873 H1861 0.950 1_655 S
C1873 C1869 1.393 . S
C1873 C1872 1.391 1_655 S
C1874 H1864 0.950 . S
C1874 C1875 1.386 . S
C1874 C1876 1.391 . S
C1875 C1874 1.386 . S
C1875 C1879 1.393 . S
C1876 H1865 0.950 . S
C1876 C1874 1.391 . S
C1876 C1877 1.400 . S
C1877 C1871 1.491 1_455 S
C1877 C1876 1.400 . S
C1877 C1878 1.398 1_455 S
C1878 H1866 0.950 . S
C1878 C1877 1.398 1_655 S
C1878 C1879 1.391 1_655 S
C1879 H1867 0.950 1_455 S
C1879 C1875 1.393 . S
C1879 C1878 1.391 1_455 S
H1880 C1888 0.950 . S
H1881 C1893 0.950 . S
H1882 C1890 0.950 . S
H1883 C1892 0.950 . S
H1884 C1894 0.950 . S
H1885 C1896 0.950 . S
H1886 C1898 0.950 . S
H1887 C1899 0.950 . S
C1888 H1880 0.950 . S
C1888 C1889 1.386 . S
C1888 C1890 1.391 . S
C1889 C1888 1.386 . S
C1889 C1893 1.393 . S
C1890 H1882 0.950 . S
C1890 C1888 1.391 . S
C1890 C1891 1.400 . S
C1891 C1890 1.400 . S
C1891 C1892 1.398 . S
C1891 C1897 1.491 . S
C1892 H1883 0.950 . S
C1892 C1891 1.398 . S
C1892 C1893 1.391 . S
C1893 H1881 0.950 . S
C1893 C1889 1.393 . S
C1893 C1892 1.391 . S
C1894 H1884 0.950 . S
C1894 C1895 1.386 . S
C1894 C1896 1.391 . S
C1895 C1894 1.386 . S
C1895 C1899 1.393 . S
C1896 H1885 0.950 . S
C1896 C1894 1.391 . S
C1896 C1897 1.400 . S
C1897 C1891 1.491 . S
C1897 C1896 1.400 . S
C1897 C1898 1.398 . S
C1898 H1886 0.950 . S
C1898 C1897 1.398 . S
C1898 C1899 1.391 . S
C1899 H1887 0.950 . S
C1899 C1895 1.393 . S
C1899 C1898 1.391 . S
H1900 C1908 0.950 . S
H1901 C1913 0.950 . S
H1902 C1910 0.950 . S
H1903 C1912 0.950 . S
H1904 C1914 0.950 . S
H1905 C1916 0.950 . S
H1906 C1918 0.950 . S
H1907 C1919 0.950 . S
C1908 H1900 0.950 . S
C1908 C1909 1.386 . S
C1908 C1910 1.391 . S
C1909 C1908 1.386 . S
C1909 C1913 1.393 . S
C1910 H1902 0.950 . S
C1910 C1908 1.391 . S
C1910 C1911 1.400 . S
C1911 C1910 1.400 . S
C1911 C1912 1.398 . S
C1911 C1917 1.491 1_545 S
C1912 H1903 0.950 . S
C1912 C1911 1.398 . S
C1912 C1913 1.391 . S
C1913 H1901 0.950 . S
C1913 C1909 1.393 . S
C1913 C1912 1.391 . S
C1914 H1904 0.950 . S
C1914 C1915 1.386 . S
C1914 C1916 1.391 . S
C1915 C1914 1.386 . S
C1915 C1919 1.393 . S
C1916 H1905 0.950 . S
C1916 C1914 1.391 . S
C1916 C1917 1.400 . S
C1917 C1911 1.491 1_565 S
C1917 C1916 1.400 . S
C1917 C1918 1.398 . S
C1918 H1906 0.950 . S
C1918 C1917 1.398 . S
C1918 C1919 1.391 . S
C1919 H1907 0.950 . S
C1919 C1915 1.393 . S
C1919 C1918 1.391 . S
H1920 C1928 0.950 . S
H1921 C1933 0.950 . S
H1922 C1930 0.950 . S
H1923 C1932 0.950 . S
H1924 C1934 0.950 . S
H1925 C1936 0.950 . S
H1926 C1938 0.950 . S
H1927 C1939 0.950 . S
C1928 H1920 0.950 . S
C1928 C1929 1.386 . S
C1928 C1930 1.391 . S
C1929 C1928 1.386 . S
C1929 C1933 1.393 . S
C1930 H1922 0.950 . S
C1930 C1928 1.391 . S
C1930 C1931 1.400 . S
C1931 C1930 1.400 . S
C1931 C1932 1.398 . S
C1931 C1937 1.491 . S
C1932 H1923 0.950 . S
C1932 C1931 1.398 . S
C1932 C1933 1.391 . S
C1933 H1921 0.950 . S
C1933 C1929 1.393 . S
C1933 C1932 1.391 . S
C1934 H1924 0.950 . S
C1934 C1935 1.386 . S
C1934 C1936 1.391 . S
C1935 C1934 1.386 . S
C1935 C1939 1.393 . S
C1936 H1925 0.950 . S
C1936 C1934 1.391 . S
C1936 C1937 1.400 . S
C1937 C1931 1.491 . S
C1937 C1936 1.400 . S
C1937 C1938 1.398 . S
C1938 H1926 0.950 . S
C1938 C1937 1.398 . S
C1938 C1939 1.391 . S
C1939 H1927 0.950 . S
C1939 C1935 1.393 . S
C1939 C1938 1.391 . S
H1940 C1948 0.950 . S
H1941 C1953 0.950 . S
H1942 C1950 0.950 . S
H1943 C1952 0.950 . S
H1944 C1954 0.950 . S
H1945 C1956 0.950 . S
H1946 C1958 0.950 . S
H1947 C1959 0.950 . S
C1948 H1940 0.950 . S
C1948 C1949 1.386 . S
C1948 C1950 1.391 . S
C1949 C1948 1.386 . S
C1949 C1953 1.393 . S
C1950 H1942 0.950 . S
C1950 C1948 1.391 . S
C1950 C1951 1.400 . S
C1951 C1950 1.400 . S
C1951 C1952 1.398 . S
C1951 C1957 1.491 . S
C1952 H1943 0.950 . S
C1952 C1951 1.398 . S
C1952 C1953 1.391 . S
C1953 H1941 0.950 . S
C1953 C1949 1.393 . S
C1953 C1952 1.391 . S
C1954 H1944 0.950 . S
C1954 C1955 1.386 . S
C1954 C1956 1.391 . S
C1955 C1954 1.386 . S
C1955 C1959 1.393 . S
C1956 H1945 0.950 . S
C1956 C1954 1.391 . S
C1956 C1957 1.400 . S
C1957 C1951 1.491 . S
C1957 C1956 1.400 . S
C1957 C1958 1.398 . S
C1958 H1946 0.950 . S
C1958 C1957 1.398 . S
C1958 C1959 1.391 . S
C1959 H1947 0.950 . S
C1959 C1955 1.393 . S
C1959 C1958 1.391 . S
H1960 C1968 0.950 . S
H1961 C1973 0.950 . S
H1962 C1970 0.950 . S
H1963 C1972 0.950 . S
H1964 C1974 0.950 . S
H1965 C1976 0.950 . S
H1966 C1978 0.950 . S
H1967 C1979 0.950 . S
C1968 H1960 0.950 . S
C1968 C1969 1.386 . S
C1968 C1970 1.391 . S
C1969 C1968 1.386 . S
C1969 C1973 1.393 . S
C1970 H1962 0.950 . S
C1970 C1968 1.391 . S
C1970 C1971 1.400 . S
C1971 C1970 1.400 . S
C1971 C1972 1.398 . S
C1971 C1977 1.491 . S
C1972 H1963 0.950 . S
C1972 C1971 1.398 . S
C1972 C1973 1.391 . S
C1973 H1961 0.950 . S
C1973 C1969 1.393 . S
C1973 C1972 1.391 . S
C1974 H1964 0.950 . S
C1974 C1975 1.386 . S
C1974 C1976 1.391 . S
C1975 C1974 1.386 . S
C1975 C1979 1.393 . S
C1976 H1965 0.950 . S
C1976 C1974 1.391 . S
C1976 C1977 1.400 . S
C1977 C1971 1.491 . S
C1977 C1976 1.400 . S
C1977 C1978 1.398 . S
C1978 H1966 0.950 . S
C1978 C1977 1.398 . S
C1978 C1979 1.391 . S
C1979 H1967 0.950 . S
C1979 C1975 1.393 . S
C1979 C1978 1.391 . S
H1980 C1988 0.950 . S
H1981 C1993 0.950 . S
H1982 C1990 0.950 . S
H1983 C1992 0.950 . S
H1984 C1994 0.950 . S
H1985 C1996 0.950 . S
H1986 C1998 0.950 . S
H1987 C1999 0.950 . S
C1988 H1980 0.950 . S
C1988 C1989 1.386 . S
C1988 C1990 1.391 . S
C1989 C1988 1.386 . S
C1989 C1993 1.393 . S
C1990 H1982 0.950 . S
C1990 C1988 1.391 . S
C1990 C1991 1.400 . S
C1991 C1990 1.400 . S
C1991 C1992 1.398 . S
C1991 C1997 1.491 . S
C1992 H1983 0.950 . S
C1992 C1991 1.398 . S
C1992 C1993 1.391 . S
C1993 H1981 0.950 . S
C1993 C1989 1.393 . S
C1993 C1992 1.391 . S
C1994 H1984 0.950 . S
C1994 C1995 1.386 . S
C1994 C1996 1.391 . S
C1995 C1994 1.386 . S
C1995 C1999 1.393 . S
C1996 H1985 0.950 . S
C1996 C1994 1.391 . S
C1996 C1997 1.400 . S
C1997 C1991 1.491 . S
C1997 C1996 1.400 . S
C1997 C1998 1.398 . S
C1998 H1986 0.950 . S
C1998 C1997 1.398 . S
C1998 C1999 1.391 . S
C1999 H1987 0.950 . S
C1999 C1995 1.393 . S
C1999 C1998 1.391 . S
H2000 C2008 0.950 . S
H2001 C2013 0.950 . S
H2002 C2010 0.950 . S
H2003 C2012 0.950 . S
H2004 C2014 0.950 . S
H2005 C2016 0.950 . S
H2006 C2018 0.950 . S
H2007 C2019 0.950 . S
C2008 H2000 0.950 . S
C2008 C2009 1.386 . S
C2008 C2010 1.391 . S
C2009 C2008 1.386 . S
C2009 C2013 1.393 . S
C2010 H2002 0.950 . S
C2010 C2008 1.391 . S
C2010 C2011 1.400 . S
C2011 C2010 1.400 . S
C2011 C2012 1.398 . S
C2011 C2017 1.491 . S
C2012 H2003 0.950 . S
C2012 C2011 1.398 . S
C2012 C2013 1.391 . S
C2013 H2001 0.950 . S
C2013 C2009 1.393 . S
C2013 C2012 1.391 . S
C2014 H2004 0.950 . S
C2014 C2015 1.386 . S
C2014 C2016 1.391 . S
C2015 C2014 1.386 . S
C2015 C2019 1.393 . S
C2016 H2005 0.950 . S
C2016 C2014 1.391 . S
C2016 C2017 1.400 . S
C2017 C2011 1.491 . S
C2017 C2016 1.400 . S
C2017 C2018 1.398 . S
C2018 H2006 0.950 . S
C2018 C2017 1.398 . S
C2018 C2019 1.391 . S
C2019 H2007 0.950 . S
C2019 C2015 1.393 . S
C2019 C2018 1.391 . S
H2020 C2028 0.950 . S
H2021 C2033 0.950 . S
H2022 C2030 0.950 . S
H2023 C2032 0.950 . S
H2024 C2034 0.950 . S
H2025 C2036 0.950 . S
H2026 C2038 0.950 . S
H2027 C2039 0.950 . S
C2028 H2020 0.950 . S
C2028 C2029 1.386 . S
C2028 C2030 1.391 . S
C2029 C2028 1.386 . S
C2029 C2033 1.393 . S
C2030 H2022 0.950 . S
C2030 C2028 1.391 . S
C2030 C2031 1.400 . S
C2031 C2030 1.400 . S
C2031 C2032 1.398 . S
C2031 C2037 1.491 . S
C2032 H2023 0.950 . S
C2032 C2031 1.398 . S
C2032 C2033 1.391 . S
C2033 H2021 0.950 . S
C2033 C2029 1.393 . S
C2033 C2032 1.391 . S
C2034 H2024 0.950 . S
C2034 C2035 1.386 . S
C2034 C2036 1.391 . S
C2035 C2034 1.386 . S
C2035 C2039 1.393 . S
C2036 H2025 0.950 . S
C2036 C2034 1.391 . S
C2036 C2037 1.400 . S
C2037 C2031 1.491 . S
C2037 C2036 1.400 . S
C2037 C2038 1.398 . S
C2038 H2026 0.950 . S
C2038 C2037 1.398 . S
C2038 C2039 1.391 . S
C2039 H2027 0.950 . S
C2039 C2035 1.393 . S
C2039 C2038 1.391 . S
H2040 C2048 0.950 . S
H2041 C2053 0.950 . S
H2042 C2050 0.950 . S
H2043 C2052 0.950 . S
H2044 C2054 0.950 . S
H2045 C2056 0.950 . S
H2046 C2058 0.950 . S
H2047 C2059 0.950 . S
C2048 H2040 0.950 . S
C2048 C2049 1.386 . S
C2048 C2050 1.391 . S
C2049 C2048 1.386 . S
C2049 C2053 1.393 . S
C2050 H2042 0.950 . S
C2050 C2048 1.391 . S
C2050 C2051 1.400 . S
C2051 C2050 1.400 . S
C2051 C2052 1.398 . S
C2051 C2057 1.491 . S
C2052 H2043 0.950 . S
C2052 C2051 1.398 . S
C2052 C2053 1.391 . S
C2053 H2041 0.950 . S
C2053 C2049 1.393 . S
C2053 C2052 1.391 . S
C2054 H2044 0.950 . S
C2054 C2055 1.386 . S
C2054 C2056 1.391 . S
C2055 C2054 1.386 . S
C2055 C2059 1.393 . S
C2056 H2045 0.950 . S
C2056 C2054 1.391 . S
C2056 C2057 1.400 . S
C2057 C2051 1.491 . S
C2057 C2056 1.400 . S
C2057 C2058 1.398 . S
C2058 H2046 0.950 . S
C2058 C2057 1.398 . S
C2058 C2059 1.391 . S
C2059 H2047 0.950 . S
C2059 C2055 1.393 . S
C2059 C2058 1.391 . S
H2060 C2068 0.950 . S
H2061 C2073 0.950 . S
H2062 C2070 0.950 . S
H2063 C2072 0.950 . S
H2064 C2074 0.950 . S
H2065 C2076 0.950 . S
H2066 C2078 0.950 . S
H2067 C2079 0.950 . S
C2068 H2060 0.950 . S
C2068 C2069 1.386 . S
C2068 C2070 1.391 . S
C2069 C2068 1.386 . S
C2069 C2073 1.393 . S
C2070 H2062 0.950 . S
C2070 C2068 1.391 . S
C2070 C2071 1.400 . S
C2071 C2070 1.400 . S
C2071 C2072 1.398 . S
C2071 C2077 1.491 . S
C2072 H2063 0.950 . S
C2072 C2071 1.398 . S
C2072 C2073 1.391 . S
C2073 H2061 0.950 . S
C2073 C2069 1.393 . S
C2073 C2072 1.391 . S
C2074 H2064 0.950 . S
C2074 C2075 1.386 . S
C2074 C2076 1.391 . S
C2075 C2074 1.386 . S
C2075 C2079 1.393 . S
C2076 H2065 0.950 . S
C2076 C2074 1.391 . S
C2076 C2077 1.400 . S
C2077 C2071 1.491 . S
C2077 C2076 1.400 . S
C2077 C2078 1.398 . S
C2078 H2066 0.950 . S
C2078 C2077 1.398 . S
C2078 C2079 1.391 . S
C2079 H2067 0.950 . S
C2079 C2075 1.393 . S
C2079 C2078 1.391 . S
H2080 C2088 0.950 . S
H2081 C2093 0.950 . S
H2082 C2090 0.950 . S
H2083 C2092 0.950 . S
H2084 C2094 0.950 . S
H2085 C2096 0.950 . S
H2086 C2098 0.950 . S
H2087 C2099 0.950 . S
C2088 H2080 0.950 . S
C2088 C2089 1.386 . S
C2088 C2090 1.391 . S
C2089 C2088 1.386 . S
C2089 C2093 1.393 . S
C2090 H2082 0.950 . S
C2090 C2088 1.391 . S
C2090 C2091 1.400 . S
C2091 C2090 1.400 . S
C2091 C2092 1.398 . S
C2091 C2097 1.491 . S
C2092 H2083 0.950 . S
C2092 C2091 1.398 . S
C2092 C2093 1.391 . S
C2093 H2081 0.950 . S
C2093 C2089 1.393 . S
C2093 C2092 1.391 . S
C2094 H2084 0.950 . S
C2094 C2095 1.386 . S
C2094 C2096 1.391 . S
C2095 C2094 1.386 . S
C2095 C2099 1.393 . S
C2096 H2085 0.950 . S
C2096 C2094 1.391 . S
C2096 C2097 1.400 . S
C2097 C2091 1.491 . S
C2097 C2096 1.400 . S
C2097 C2098 1.398 . S
C2098 H2086 0.950 . S
C2098 C2097 1.398 . S
C2098 C2099 1.391 . S
C2099 H2087 0.950 . S
C2099 C2095 1.393 . S
C2099 C2098 1.391 . S
H2100 C2108 0.950 . S
H2101 C2113 0.950 . S
H2102 C2110 0.950 . S
H2103 C2112 0.950 . S
H2104 C2114 0.950 . S
H2105 C2116 0.950 . S
H2106 C2118 0.950 . S
H2107 C2119 0.950 . S
C2108 H2100 0.950 . S
C2108 C2109 1.386 . S
C2108 C2110 1.391 1_556 S
C2109 C2108 1.386 . S
C2109 C2113 1.393 . S
C2110 H2102 0.950 . S
C2110 C2108 1.391 1_554 S
C2110 C2111 1.400 . S
C2111 C2110 1.400 . S
C2111 C2112 1.398 1_554 S
C2111 C2117 1.491 . S
C2112 H2103 0.950 . S
C2112 C2111 1.398 1_556 S
C2112 C2113 1.391 . S
C2113 H2101 0.950 . S
C2113 C2109 1.393 . S
C2113 C2112 1.391 . S
C2114 H2104 0.950 . S
C2114 C2115 1.386 . S
C2114 C2116 1.391 . S
C2115 C2114 1.386 . S
C2115 C2119 1.393 . S
C2116 H2105 0.950 . S
C2116 C2114 1.391 . S
C2116 C2117 1.400 . S
C2117 C2111 1.491 . S
C2117 C2116 1.400 . S
C2117 C2118 1.398 . S
C2118 H2106 0.950 . S
C2118 C2117 1.398 . S
C2118 C2119 1.391 . S
C2119 H2107 0.950 . S
C2119 C2115 1.393 . S
C2119 C2118 1.391 . S
H2120 C2128 0.950 . S
H2121 C2133 0.950 . S
H2122 C2130 0.950 . S
H2123 C2132 0.950 1_554 S
H2124 C2134 0.950 . S
H2125 C2136 0.950 . S
H2126 C2138 0.950 . S
H2127 C2139 0.950 . S
C2128 H2120 0.950 . S
C2128 C2129 1.386 . S
C2128 C2130 1.391 . S
C2129 C2128 1.386 . S
C2129 C2133 1.393 . S
C2130 H2122 0.950 . S
C2130 C2128 1.391 . S
C2130 C2131 1.400 1_556 S
C2131 C2130 1.400 1_554 S
C2131 C2132 1.398 1_554 S
C2131 C2137 1.491 . S
C2132 H2123 0.950 1_556 S
C2132 C2131 1.398 1_556 S
C2132 C2133 1.391 . S
C2133 H2121 0.950 . S
C2133 C2129 1.393 . S
C2133 C2132 1.391 . S
C2134 H2124 0.950 . S
C2134 C2135 1.386 . S
C2134 C2136 1.391 . S
C2135 C2134 1.386 . S
C2135 C2139 1.393 . S
C2136 H2125 0.950 . S
C2136 C2134 1.391 . S
C2136 C2137 1.400 . S
C2137 C2131 1.491 . S
C2137 C2136 1.400 . S
C2137 C2138 1.398 . S
C2138 H2126 0.950 . S
C2138 C2137 1.398 . S
C2138 C2139 1.391 . S
C2139 H2127 0.950 . S
C2139 C2135 1.393 . S
C2139 C2138 1.391 . S
H2140 C2148 0.950 . S
H2141 C2153 0.950 . S
H2142 C2150 0.950 1_554 S
H2143 C2152 0.962 . S
H2144 C2154 0.950 . S
H2145 C2156 0.950 . S
H2146 C2158 0.950 . S
H2147 C2159 0.950 . S
C2148 H2140 0.950 . S
C2148 C2149 1.386 . S
C2148 C2150 1.391 . S
C2149 C2148 1.386 . S
C2149 C2153 1.393 . S
C2150 H2142 0.950 1_556 S
C2150 C2148 1.391 . S
C2150 C2151 1.400 1_556 S
C2151 C2150 1.400 1_554 S
C2151 C2152 1.398 1_554 S
C2151 C2157 1.491 . S
C2152 H2143 0.962 . S
C2152 C2151 1.398 1_556 S
C2152 C2153 1.391 . S
C2153 H2141 0.950 . S
C2153 C2149 1.393 . S
C2153 C2152 1.391 . S
C2154 H2144 0.950 . S
C2154 C2155 1.386 . S
C2154 C2156 1.391 . S
C2155 C2154 1.386 . S
C2155 C2159 1.393 . S
C2156 H2145 0.950 . S
C2156 C2154 1.391 . S
C2156 C2157 1.400 . S
C2157 C2151 1.491 . S
C2157 C2156 1.400 . S
C2157 C2158 1.398 . S
C2158 H2146 0.950 . S
C2158 C2157 1.398 . S
C2158 C2159 1.391 . S
C2159 H2147 0.950 . S
C2159 C2155 1.393 . S
C2159 C2158 1.391 . S
H2160 C2168 0.950 . S
H2161 C2173 0.950 . S
H2162 C2170 0.950 . S
H2163 C2172 0.950 . S
H2164 C2174 0.950 . S
H2165 C2176 0.950 . S
H2166 C2178 0.950 . S
H2167 C2179 0.950 . S
C2168 H2160 0.950 . S
C2168 C2169 1.386 . S
C2168 C2170 1.391 . S
C2169 C2168 1.386 . S
C2169 C2173 1.393 . S
C2170 H2162 0.950 . S
C2170 C2168 1.391 . S
C2170 C2171 1.400 . S
C2171 C2170 1.400 . S
C2171 C2172 1.398 . S
C2171 C2177 1.491 . S
C2172 H2163 0.950 . S
C2172 C2171 1.398 . S
C2172 C2173 1.391 . S
C2173 H2161 0.950 . S
C2173 C2169 1.393 . S
C2173 C2172 1.391 . S
C2174 H2164 0.950 . S
C2174 C2175 1.386 . S
C2174 C2176 1.391 1_554 S
C2175 C2174 1.386 . S
C2175 C2179 1.393 . S
C2176 H2165 0.950 . S
C2176 C2174 1.391 1_556 S
C2176 C2177 1.400 . S
C2177 C2171 1.491 . S
C2177 C2176 1.400 . S
C2177 C2178 1.398 1_556 S
C2178 H2166 0.950 . S
C2178 C2177 1.398 1_554 S
C2178 C2179 1.391 . S
C2179 H2167 0.950 . S
C2179 C2175 1.393 . S
C2179 C2178 1.391 . S
H2180 C2188 0.950 . S
H2181 C2193 0.950 . S
H2182 C2190 0.950 . S
H2183 C2192 0.950 . S
H2184 C2194 0.950 . S
H2185 C2196 0.950 . S
H2186 C2198 0.950 . S
H2187 C2199 0.950 . S
C2188 H2180 0.950 . S
C2188 C2189 1.386 . S
C2188 C2190 1.391 1_554 S
C2189 C2188 1.386 . S
C2189 C2193 1.393 . S
C2190 H2182 0.950 . S
C2190 C2188 1.391 1_556 S
C2190 C2191 1.400 . S
C2191 C2190 1.400 . S
C2191 C2192 1.398 . S
C2191 C2197 1.491 . S
C2192 H2183 0.950 . S
C2192 C2191 1.398 . S
C2192 C2193 1.391 1_556 S
C2193 H2181 0.950 . S
C2193 C2189 1.393 . S
C2193 C2192 1.391 1_554 S
C2194 H2184 0.950 . S
C2194 C2195 1.386 . S
C2194 C2196 1.391 . S
C2195 C2194 1.386 . S
C2195 C2199 1.393 . S
C2196 H2185 0.950 . S
C2196 C2194 1.391 . S
C2196 C2197 1.400 . S
C2197 C2191 1.491 . S
C2197 C2196 1.400 . S
C2197 C2198 1.398 . S
C2198 H2186 0.950 . S
C2198 C2197 1.398 . S
C2198 C2199 1.391 . S
C2199 H2187 0.950 . S
C2199 C2195 1.393 . S
C2199 C2198 1.391 . S
H2200 C2208 0.950 . S
H2201 C2213 0.950 . S
H2202 C2210 0.950 . S
H2203 C2212 0.950 . S
H2204 C2214 0.950 . S
H2205 C2216 0.950 . S
H2206 C2218 0.950 . S
H2207 C2219 0.950 . S
C2208 H2200 0.950 . S
C2208 C2209 1.386 . S
C2208 C2210 1.391 1_554 S
C2209 C2208 1.386 . S
C2209 C2213 1.393 . S
C2210 H2202 0.950 . S
C2210 C2208 1.391 1_556 S
C2210 C2211 1.400 . S
C2211 C2210 1.400 . S
C2211 C2212 1.398 1_556 S
C2211 C2217 1.491 . S
C2212 H2203 0.950 . S
C2212 C2211 1.398 1_554 S
C2212 C2213 1.391 . S
C2213 H2201 0.950 . S
C2213 C2209 1.393 . S
C2213 C2212 1.391 . S
C2214 H2204 0.950 . S
C2214 C2215 1.386 . S
C2214 C2216 1.391 . S
C2215 C2214 1.386 . S
C2215 C2219 1.393 . S
C2216 H2205 0.950 . S
C2216 C2214 1.391 . S
C2216 C2217 1.400 . S
C2217 C2211 1.491 . S
C2217 C2216 1.400 . S
C2217 C2218 1.398 . S
C2218 H2206 0.950 . S
C2218 C2217 1.398 . S
C2218 C2219 1.391 . S
C2219 H2207 0.950 . S
C2219 C2215 1.393 . S
C2219 C2218 1.391 . S
H2220 C2228 0.950 . S
H2221 C2233 0.950 . S
H2222 C2230 0.950 . S
H2223 C2232 0.950 . S
H2224 C2234 0.950 . S
H2225 C2236 0.950 . S
H2226 C2238 0.950 . S
H2227 C2239 0.950 . S
C2228 H2220 0.950 . S
C2228 C2229 1.386 . S
C2228 C2230 1.391 . S
C2229 C2228 1.386 . S
C2229 C2233 1.393 . S
C2230 H2222 0.950 . S
C2230 C2228 1.391 . S
C2230 C2231 1.400 . S
C2231 C2230 1.400 . S
C2231 C2232 1.398 . S
C2231 C2237 1.491 . S
C2232 H2223 0.950 . S
C2232 C2231 1.398 . S
C2232 C2233 1.391 . S
C2233 H2221 0.950 . S
C2233 C2229 1.393 . S
C2233 C2232 1.391 . S
C2234 H2224 0.950 . S
C2234 C2235 1.386 . S
C2234 C2236 1.391 . S
C2235 C2234 1.386 . S
C2235 C2239 1.393 . S
C2236 H2225 0.950 . S
C2236 C2234 1.391 . S
C2236 C2237 1.400 . S
C2237 C2231 1.491 . S
C2237 C2236 1.400 . S
C2237 C2238 1.398 . S
C2238 H2226 0.950 . S
C2238 C2237 1.398 . S
C2238 C2239 1.391 . S
C2239 H2227 0.950 . S
C2239 C2235 1.393 . S
C2239 C2238 1.391 . S
H2240 C2248 0.950 . S
H2241 C2253 0.950 . S
H2242 C2250 0.950 . S
H2243 C2252 0.950 . S
H2244 C2254 0.950 . S
H2245 C2256 0.950 . S
H2246 C2258 0.950 . S
H2247 C2259 0.950 . S
C2248 H2240 0.950 . S
C2248 C2249 1.386 . S
C2248 C2250 1.391 . S
C2249 C2248 1.386 . S
C2249 C2253 1.393 . S
C2250 H2242 0.950 . S
C2250 C2248 1.391 . S
C2250 C2251 1.400 . S
C2251 C2250 1.400 . S
C2251 C2252 1.398 . S
C2251 C2257 1.491 . S
C2252 H2243 0.950 . S
C2252 C2251 1.398 . S
C2252 C2253 1.391 . S
C2253 H2241 0.950 . S
C2253 C2249 1.393 . S
C2253 C2252 1.391 . S
C2254 H2244 0.950 . S
C2254 C2255 1.386 . S
C2254 C2256 1.391 . S
C2255 C2254 1.386 . S
C2255 C2259 1.393 . S
C2256 H2245 0.950 . S
C2256 C2254 1.391 . S
C2256 C2257 1.400 . S
C2257 C2251 1.491 . S
C2257 C2256 1.400 . S
C2257 C2258 1.398 . S
C2258 H2246 0.950 . S
C2258 C2257 1.398 . S
C2258 C2259 1.391 . S
C2259 H2247 0.950 . S
C2259 C2255 1.393 . S
C2259 C2258 1.391 . S
H2260 C2268 0.950 . S
H2261 C2273 0.950 . S
H2262 C2270 0.950 . S
H2263 C2272 0.950 . S
H2264 C2274 0.950 . S
H2265 C2276 0.950 . S
H2266 C2278 0.950 . S
H2267 C2279 0.950 . S
C2268 H2260 0.950 . S
C2268 C2269 1.386 . S
C2268 C2270 1.391 . S
C2269 C2268 1.386 . S
C2269 C2273 1.393 . S
C2270 H2262 0.950 . S
C2270 C2268 1.391 . S
C2270 C2271 1.400 . S
C2271 C2270 1.400 . S
C2271 C2272 1.398 . S
C2271 C2277 1.491 . S
C2272 H2263 0.950 . S
C2272 C2271 1.398 . S
C2272 C2273 1.391 . S
C2273 H2261 0.950 . S
C2273 C2269 1.393 . S
C2273 C2272 1.391 . S
C2274 H2264 0.950 . S
C2274 C2275 1.386 . S
C2274 C2276 1.391 . S
C2275 C2274 1.386 . S
C2275 C2279 1.393 . S
C2276 H2265 0.950 . S
C2276 C2274 1.391 . S
C2276 C2277 1.400 . S
C2277 C2271 1.491 . S
C2277 C2276 1.400 . S
C2277 C2278 1.398 . S
C2278 H2266 0.950 . S
C2278 C2277 1.398 . S
C2278 C2279 1.391 . S
C2279 H2267 0.950 . S
C2279 C2275 1.393 . S
C2279 C2278 1.391 . S
H2280 C2288 0.950 . S
H2281 C2293 0.950 . S
H2282 C2290 0.950 . S
H2283 C2292 0.950 . S
H2284 C2294 0.950 . S
H2285 C2296 0.950 . S
H2286 C2298 0.950 . S
H2287 C2299 0.950 . S
C2288 H2280 0.950 . S
C2288 C2289 1.386 . S
C2288 C2290 1.391 . S
C2289 C2288 1.386 . S
C2289 C2293 1.393 . S
C2290 H2282 0.950 . S
C2290 C2288 1.391 . S
C2290 C2291 1.400 . S
C2291 C2290 1.400 . S
C2291 C2292 1.398 . S
C2291 C2297 1.491 . S
C2292 H2283 0.950 . S
C2292 C2291 1.398 . S
C2292 C2293 1.391 . S
C2293 H2281 0.950 . S
C2293 C2289 1.393 . S
C2293 C2292 1.391 . S
C2294 H2284 0.950 . S
C2294 C2295 1.386 . S
C2294 C2296 1.391 . S
C2295 C2294 1.386 . S
C2295 C2299 1.393 . S
C2296 H2285 0.950 . S
C2296 C2294 1.391 . S
C2296 C2297 1.400 . S
C2297 C2291 1.491 . S
C2297 C2296 1.400 . S
C2297 C2298 1.398 . S
C2298 H2286 0.950 . S
C2298 C2297 1.398 . S
C2298 C2299 1.391 . S
C2299 H2287 0.950 . S
C2299 C2295 1.393 . S
C2299 C2298 1.391 . S
H2300 C2308 0.950 . S
H2301 C2313 0.950 . S
H2302 C2310 0.950 . S
H2303 C2312 0.950 . S
H2304 C2314 0.950 . S
H2305 C2316 0.950 . S
H2306 C2318 0.950 . S
H2307 C2319 0.950 . S
C2308 H2300 0.950 . S
C2308 C2309 1.386 . S
C2308 C2310 1.391 . S
C2309 C2308 1.386 . S
C2309 C2313 1.393 . S
C2310 H2302 0.950 . S
C2310 C2308 1.391 . S
C2310 C2311 1.400 . S
C2311 C2310 1.400 . S
C2311 C2312 1.398 . S
C2311 C2317 1.491 . S
C2312 H2303 0.950 . S
C2312 C2311 1.398 . S
C2312 C2313 1.391 . S
C2313 H2301 0.950 . S
C2313 C2309 1.393 . S
C2313 C2312 1.391 . S
C2314 H2304 0.950 . S
C2314 C2315 1.386 . S
C2314 C2316 1.391 . S
C2315 C2314 1.386 . S
C2315 C2319 1.393 . S
C2316 H2305 0.950 . S
C2316 C2314 1.391 . S
C2316 C2317 1.400 . S
C2317 C2311 1.491 . S
C2317 C2316 1.400 . S
C2317 C2318 1.398 . S
C2318 H2306 0.950 . S
C2318 C2317 1.398 . S
C2318 C2319 1.391 . S
C2319 H2307 0.950 . S
C2319 C2315 1.393 . S
C2319 C2318 1.391 . S
H2320 C2328 0.950 . S
H2321 C2333 0.950 . S
H2322 C2330 0.950 . S
H2323 C2332 0.950 . S
H2324 C2334 0.950 . S
H2325 C2336 0.950 . S
H2326 C2338 0.950 . S
H2327 C2339 0.950 . S
C2328 H2320 0.950 . S
C2328 C2329 1.386 . S
C2328 C2330 1.391 . S
C2329 C2328 1.386 . S
C2329 C2333 1.393 . S
C2330 H2322 0.950 . S
C2330 C2328 1.391 . S
C2330 C2331 1.400 . S
C2331 C2330 1.400 . S
C2331 C2332 1.398 . S
C2331 C2337 1.491 . S
C2332 H2323 0.950 . S
C2332 C2331 1.398 . S
C2332 C2333 1.391 . S
C2333 H2321 0.950 . S
C2333 C2329 1.393 . S
C2333 C2332 1.391 . S
C2334 H2324 0.950 . S
C2334 C2335 1.386 . S
C2334 C2336 1.391 . S
C2335 C2334 1.386 . S
C2335 C2339 1.393 . S
C2336 H2325 0.950 . S
C2336 C2334 1.391 . S
C2336 C2337 1.400 . S
C2337 C2331 1.491 . S
C2337 C2336 1.400 . S
C2337 C2338 1.398 . S
C2338 H2326 0.950 . S
C2338 C2337 1.398 . S
C2338 C2339 1.391 . S
C2339 H2327 0.950 . S
C2339 C2335 1.393 . S
C2339 C2338 1.391 . S
H2340 C2348 0.950 . S
H2341 C2353 0.950 . S
H2342 C2350 0.950 . S
H2343 C2352 0.950 . S
H2344 C2354 0.950 . S
H2345 C2356 0.950 . S
H2346 C2358 0.950 . S
H2347 C2359 0.950 . S
C2348 H2340 0.950 . S
C2348 C2349 1.386 . S
C2348 C2350 1.391 . S
C2349 C2348 1.386 . S
C2349 C2353 1.393 . S
C2350 H2342 0.950 . S
C2350 C2348 1.391 . S
C2350 C2351 1.400 . S
C2351 C2350 1.400 . S
C2351 C2352 1.398 . S
C2351 C2357 1.491 . S
C2352 H2343 0.950 . S
C2352 C2351 1.398 . S
C2352 C2353 1.391 . S
C2353 H2341 0.950 . S
C2353 C2349 1.393 . S
C2353 C2352 1.391 . S
C2354 H2344 0.950 . S
C2354 C2355 1.386 . S
C2354 C2356 1.391 . S
C2355 C2354 1.386 . S
C2355 C2359 1.393 . S
C2356 H2345 0.950 . S
C2356 C2354 1.391 . S
C2356 C2357 1.400 . S
C2357 C2351 1.491 . S
C2357 C2356 1.400 . S
C2357 C2358 1.398 . S
C2358 H2346 0.950 . S
C2358 C2357 1.398 . S
C2358 C2359 1.391 . S
C2359 H2347 0.950 . S
C2359 C2355 1.393 . S
C2359 C2358 1.391 . S
H2360 C2368 0.950 . S
H2361 C2373 0.950 . S
H2362 C2370 0.950 . S
H2363 C2372 0.950 . S
H2364 C2374 0.950 . S
H2365 C2376 0.950 . S
H2366 C2378 0.950 . S
H2367 C2379 0.950 . S
C2368 H2360 0.950 . S
C2368 C2369 1.386 . S
C2368 C2370 1.391 . S
C2369 C2368 1.386 . S
C2369 C2373 1.393 . S
C2370 H2362 0.950 . S
C2370 C2368 1.391 . S
C2370 C2371 1.400 . S
C2371 C2370 1.400 . S
C2371 C2372 1.398 . S
C2371 C2377 1.491 . S
C2372 H2363 0.950 . S
C2372 C2371 1.398 . S
C2372 C2373 1.391 . S
C2373 H2361 0.950 . S
C2373 C2369 1.393 . S
C2373 C2372 1.391 . S
C2374 H2364 0.950 . S
C2374 C2375 1.386 . S
C2374 C2376 1.391 . S
C2375 C2374 1.386 . S
C2375 C2379 1.393 . S
C2376 H2365 0.950 . S
C2376 C2374 1.391 . S
C2376 C2377 1.400 . S
C2377 C2371 1.491 . S
C2377 C2376 1.400 . S
C2377 C2378 1.398 . S
C2378 H2366 0.950 . S
C2378 C2377 1.398 . S
C2378 C2379 1.391 . S
C2379 H2367 0.950 . S
C2379 C2375 1.393 . S
C2379 C2378 1.391 . S
H2380 C2388 0.950 . S
H2381 C2393 0.950 . S
H2382 C2390 0.950 . S
H2383 C2392 0.950 . S
H2384 C2394 0.950 . S
H2385 C2396 0.950 . S
H2386 C2398 0.950 . S
H2387 C2399 0.950 . S
C2388 H2380 0.950 . S
C2388 C2389 1.386 . S
C2388 C2390 1.391 . S
C2389 C2388 1.386 . S
C2389 C2393 1.393 . S
C2390 H2382 0.950 . S
C2390 C2388 1.391 . S
C2390 C2391 1.400 . S
C2391 C2390 1.400 . S
C2391 C2392 1.398 . S
C2391 C2397 1.491 . S
C2392 H2383 0.950 . S
C2392 C2391 1.398 . S
C2392 C2393 1.391 . S
C2393 H2381 0.950 . S
C2393 C2389 1.393 . S
C2393 C2392 1.391 . S
C2394 H2384 0.950 . S
C2394 C2395 1.386 . S
C2394 C2396 1.391 . S
C2395 C2394 1.386 . S
C2395 C2399 1.393 . S
C2396 H2385 0.950 . S
C2396 C2394 1.391 . S
C2396 C2397 1.400 . S
C2397 C2391 1.491 . S
C2397 C2396 1.400 . S
C2397 C2398 1.398 . S
C2398 H2386 0.950 . S
C2398 C2397 1.398 . S
C2398 C2399 1.391 . S
C2399 H2387 0.950 . S
C2399 C2395 1.393 . S
C2399 C2398 1.391 . S
H2400 C2408 0.950 . S
H2401 C2413 0.950 . S
H2402 C2410 0.950 . S
H2403 C2412 0.950 . S
H2404 C2414 0.950 . S
H2405 C2416 0.950 . S
H2406 C2418 0.950 . S
H2407 C2419 0.950 . S
C2408 H2400 0.950 . S
C2408 C2409 1.386 . S
C2408 C2410 1.391 . S
C2409 C2408 1.386 . S
C2409 C2413 1.393 . S
C2410 H2402 0.950 . S
C2410 C2408 1.391 . S
C2410 C2411 1.400 . S
C2411 C2410 1.400 . S
C2411 C2412 1.398 . S
C2411 C2417 1.491 . S
C2412 H2403 0.950 . S
C2412 C2411 1.398 . S
C2412 C2413 1.391 . S
C2413 H2401 0.950 . S
C2413 C2409 1.393 . S
C2413 C2412 1.391 . S
C2414 H2404 0.950 . S
C2414 C2415 1.386 . S
C2414 C2416 1.391 . S
C2415 C2414 1.386 . S
C2415 C2419 1.393 . S
C2416 H2405 0.950 . S
C2416 C2414 1.391 . S
C2416 C2417 1.400 . S
C2417 C2411 1.491 . S
C2417 C2416 1.400 . S
C2417 C2418 1.398 . S
C2418 H2406 0.950 . S
C2418 C2417 1.398 . S
C2418 C2419 1.391 . S
C2419 H2407 0.950 . S
C2419 C2415 1.393 . S
C2419 C2418 1.391 . S
H2420 C2428 0.950 . S
H2421 C2433 0.950 . S
H2422 C2430 0.950 . S
H2423 C2432 0.950 . S
H2424 C2434 0.950 . S
H2425 C2436 0.950 . S
H2426 C2438 0.950 . S
H2427 C2439 0.950 . S
C2428 H2420 0.950 . S
C2428 C2429 1.386 . S
C2428 C2430 1.391 . S
C2429 C2428 1.386 . S
C2429 C2433 1.393 . S
C2430 H2422 0.950 . S
C2430 C2428 1.391 . S
C2430 C2431 1.400 . S
C2431 C2430 1.400 . S
C2431 C2432 1.398 . S
C2431 C2437 1.491 . S
C2432 H2423 0.950 . S
C2432 C2431 1.398 . S
C2432 C2433 1.391 . S
C2433 H2421 0.950 . S
C2433 C2429 1.393 . S
C2433 C2432 1.391 . S
C2434 H2424 0.950 . S
C2434 C2435 1.386 . S
C2434 C2436 1.391 . S
C2435 C2434 1.386 . S
C2435 C2439 1.393 . S
C2436 H2425 0.950 . S
C2436 C2434 1.391 . S
C2436 C2437 1.400 . S
C2437 C2431 1.491 . S
C2437 C2436 1.400 . S
C2437 C2438 1.398 . S
C2438 H2426 0.950 . S
C2438 C2437 1.398 . S
C2438 C2439 1.391 . S
C2439 H2427 0.950 . S
C2439 C2435 1.393 . S
C2439 C2438 1.391 . S
H2440 C2448 0.950 . S
H2441 C2453 0.950 . S
H2442 C2450 0.950 . S
H2443 C2452 0.950 . S
H2444 C2454 0.950 . S
H2445 C2456 0.950 . S
H2446 C2458 0.950 . S
H2447 C2459 0.950 . S
C2448 H2440 0.950 . S
C2448 C2449 1.386 . S
C2448 C2450 1.391 . S
C2449 C2448 1.386 . S
C2449 C2453 1.393 . S
C2450 H2442 0.950 . S
C2450 C2448 1.391 . S
C2450 C2451 1.400 . S
C2451 C2450 1.400 . S
C2451 C2452 1.398 . S
C2451 C2457 1.491 . S
C2452 H2443 0.950 . S
C2452 C2451 1.398 . S
C2452 C2453 1.391 . S
C2453 H2441 0.950 . S
C2453 C2449 1.393 . S
C2453 C2452 1.391 . S
C2454 H2444 0.950 . S
C2454 C2455 1.386 . S
C2454 C2456 1.391 . S
C2455 C2454 1.386 . S
C2455 C2459 1.393 . S
C2456 H2445 0.950 . S
C2456 C2454 1.391 . S
C2456 C2457 1.400 . S
C2457 C2451 1.491 . S
C2457 C2456 1.400 . S
C2457 C2458 1.398 . S
C2458 H2446 0.950 . S
C2458 C2457 1.398 . S
C2458 C2459 1.391 . S
C2459 H2447 0.950 . S
C2459 C2455 1.393 . S
C2459 C2458 1.391 . S
H2460 C2468 0.950 . S
H2461 C2473 0.950 . S
H2462 C2470 0.950 . S
H2463 C2472 0.950 . S
H2464 C2474 0.950 . S
H2465 C2476 0.950 . S
H2466 C2478 0.950 . S
H2467 C2479 0.950 1_556 S
C2468 H2460 0.950 . S
C2468 C2469 1.386 . S
C2468 C2470 1.391 . S
C2469 C2468 1.386 . S
C2469 C2473 1.393 . S
C2470 H2462 0.950 . S
C2470 C2468 1.391 . S
C2470 C2471 1.400 . S
C2471 C2470 1.400 . S
C2471 C2472 1.398 . S
C2471 C2477 1.491 . S
C2472 H2463 0.950 . S
C2472 C2471 1.398 . S
C2472 C2473 1.391 . S
C2473 H2461 0.950 . S
C2473 C2469 1.393 . S
C2473 C2472 1.391 . S
C2474 H2464 0.950 . S
C2474 C2475 1.386 . S
C2474 C2476 1.391 . S
C2475 C2474 1.386 . S
C2475 C2479 1.393 . S
C2476 H2465 0.950 . S
C2476 C2474 1.391 . S
C2476 C2477 1.400 . S
C2477 C2471 1.491 . S
C2477 C2476 1.400 . S
C2477 C2478 1.398 . S
C2478 H2466 0.950 . S
C2478 C2477 1.398 . S
C2478 C2479 1.391 . S
C2479 H2467 0.950 1_554 S
C2479 C2475 1.393 . S
C2479 C2478 1.391 . S
H2480 C2488 0.950 . S
H2481 C2493 0.950 . S
H2482 C2490 0.950 . S
H2483 C2492 0.950 . S
H2484 C2494 0.950 . S
H2485 C2496 0.950 . S
H2486 C2498 0.950 . S
H2487 C2499 0.950 . S
C2488 H2480 0.950 . S
C2488 C2489 1.386 . S
C2488 C2490 1.391 . S
C2489 C2488 1.386 . S
C2489 C2493 1.393 . S
C2490 H2482 0.950 . S
C2490 C2488 1.391 . S
C2490 C2491 1.400 . S
C2491 C2490 1.400 . S
C2491 C2492 1.398 . S
C2491 C2497 1.491 . S
C2492 H2483 0.950 . S
C2492 C2491 1.398 . S
C2492 C2493 1.391 . S
C2493 H2481 0.950 . S
C2493 C2489 1.393 . S
C2493 C2492 1.391 . S
C2494 H2484 0.950 . S
C2494 C2495 1.386 . S
C2494 C2496 1.391 . S
C2495 C2494 1.386 . S
C2495 C2499 1.393 . S
C2496 H2485 0.950 . S
C2496 C2494 1.391 . S
C2496 C2497 1.400 . S
C2497 C2491 1.491 . S
C2497 C2496 1.400 . S
C2497 C2498 1.398 . S
C2498 H2486 0.950 . S
C2498 C2497 1.398 . S
C2498 C2499 1.391 . S
C2499 H2487 0.950 . S
C2499 C2495 1.393 . S
C2499 C2498 1.391 . S
H2500 C2508 0.950 . S
H2501 C2513 0.950 . S
H2502 C2510 0.950 . S
H2503 C2512 0.950 . S
H2504 C2514 0.950 1_556 S
H2505 C2516 0.950 . S
H2506 C2518 0.950 . S
H2507 C2519 0.950 . S
C2508 H2500 0.950 . S
C2508 C2509 1.386 . S
C2508 C2510 1.391 . S
C2509 C2508 1.386 . S
C2509 C2513 1.393 . S
C2510 H2502 0.950 . S
C2510 C2508 1.391 . S
C2510 C2511 1.400 . S
C2511 C2510 1.400 . S
C2511 C2512 1.398 . S
C2511 C2517 1.491 . S
C2512 H2503 0.950 . S
C2512 C2511 1.398 . S
C2512 C2513 1.391 . S
C2513 H2501 0.950 . S
C2513 C2509 1.393 . S
C2513 C2512 1.391 . S
C2514 H2504 0.950 1_554 S
C2514 C2515 1.386 . S
C2514 C2516 1.391 . S
C2515 C2514 1.386 . S
C2515 C2519 1.393 . S
C2516 H2505 0.950 . S
C2516 C2514 1.391 . S
C2516 C2517 1.400 . S
C2517 C2511 1.491 . S
C2517 C2516 1.400 . S
C2517 C2518 1.398 . S
C2518 H2506 0.950 . S
C2518 C2517 1.398 . S
C2518 C2519 1.391 . S
C2519 H2507 0.950 . S
C2519 C2515 1.393 . S
C2519 C2518 1.391 . S
H2520 C2528 0.950 . S
H2521 C2533 0.950 . S
H2522 C2530 0.950 . S
H2523 C2532 0.950 . S
H2524 C2534 0.950 . S
H2525 C2536 0.950 . S
H2526 C2538 0.950 . S
H2527 C2539 0.950 . S
C2528 H2520 0.950 . S
C2528 C2529 1.386 . S
C2528 C2530 1.391 . S
C2529 C2528 1.386 . S
C2529 C2533 1.393 . S
C2530 H2522 0.950 . S
C2530 C2528 1.391 . S
C2530 C2531 1.400 . S
C2531 C2530 1.400 . S
C2531 C2532 1.398 . S
C2531 C2537 1.491 . S
C2532 H2523 0.950 . S
C2532 C2531 1.398 . S
C2532 C2533 1.391 . S
C2533 H2521 0.950 . S
C2533 C2529 1.393 . S
C2533 C2532 1.391 . S
C2534 H2524 0.950 . S
C2534 C2535 1.386 . S
C2534 C2536 1.391 . S
C2535 C2534 1.386 . S
C2535 C2539 1.393 . S
C2536 H2525 0.950 . S
C2536 C2534 1.391 . S
C2536 C2537 1.400 . S
C2537 C2531 1.491 . S
C2537 C2536 1.400 . S
C2537 C2538 1.398 . S
C2538 H2526 0.950 . S
C2538 C2537 1.398 . S
C2538 C2539 1.391 . S
C2539 H2527 0.950 . S
C2539 C2535 1.393 . S
C2539 C2538 1.391 . S
H2540 C2548 0.950 . S
H2541 C2553 0.950 . S
H2542 C2550 0.950 . S
H2543 C2552 0.950 . S
H2544 C2554 0.950 . S
H2545 C2556 0.950 . S
H2546 C2558 0.950 . S
H2547 C2559 0.950 . S
C2548 H2540 0.950 . S
C2548 C2549 1.386 . S
C2548 C2550 1.391 . S
C2549 C2548 1.386 . S
C2549 C2553 1.393 . S
C2550 H2542 0.950 . S
C2550 C2548 1.391 . S
C2550 C2551 1.400 . S
C2551 C2550 1.400 . S
C2551 C2552 1.398 . S
C2551 C2557 1.491 . S
C2552 H2543 0.950 . S
C2552 C2551 1.398 . S
C2552 C2553 1.391 . S
C2553 H2541 0.950 . S
C2553 C2549 1.393 . S
C2553 C2552 1.391 . S
C2554 H2544 0.950 . S
C2554 C2555 1.386 . S
C2554 C2556 1.391 . S
C2555 C2554 1.386 . S
C2555 C2559 1.393 . S
C2556 H2545 0.950 . S
C2556 C2554 1.391 . S
C2556 C2557 1.400 . S
C2557 C2551 1.491 . S
C2557 C2556 1.400 . S
C2557 C2558 1.398 . S
C2558 H2546 0.950 . S
C2558 C2557 1.398 . S
C2558 C2559 1.391 . S
C2559 H2547 0.950 . S
C2559 C2555 1.393 . S
C2559 C2558 1.391 . S
H2560 C2568 0.950 . S
H2561 C2573 0.950 . S
H2562 C2570 0.950 . S
H2563 C2572 0.950 . S
H2564 C2574 0.950 . S
H2565 C2576 0.950 . S
H2566 C2578 0.950 . S
H2567 C2579 0.950 . S
C2568 H2560 0.950 . S
C2568 C2569 1.386 . S
C2568 C2570 1.391 . S
C2569 C2568 1.386 . S
C2569 C2573 1.393 . S
C2570 H2562 0.950 . S
C2570 C2568 1.391 . S
C2570 C2571 1.400 . S
C2571 C2570 1.400 . S
C2571 C2572 1.398 . S
C2571 C2577 1.491 . S
C2572 H2563 0.950 . S
C2572 C2571 1.398 . S
C2572 C2573 1.391 . S
C2573 H2561 0.950 . S
C2573 C2569 1.393 . S
C2573 C2572 1.391 . S
C2574 H2564 0.950 . S
C2574 C2575 1.386 . S
C2574 C2576 1.391 . S
C2575 C2574 1.386 . S
C2575 C2579 1.393 . S
C2576 H2565 0.950 . S
C2576 C2574 1.391 . S
C2576 C2577 1.400 . S
C2577 C2571 1.491 . S
C2577 C2576 1.400 . S
C2577 C2578 1.398 . S
C2578 H2566 0.950 . S
C2578 C2577 1.398 . S
C2578 C2579 1.391 . S
C2579 H2567 0.950 . S
C2579 C2575 1.393 . S
C2579 C2578 1.391 . S
H2580 C2588 0.950 . S
H2581 C2593 0.950 . S
H2582 C2590 0.950 . S
H2583 C2592 0.950 . S
H2584 C2594 0.950 . S
H2585 C2596 0.950 . S
H2586 C2598 0.950 . S
H2587 C2599 0.950 . S
C2588 H2580 0.950 . S
C2588 C2589 1.386 . S
C2588 C2590 1.391 . S
C2589 C2588 1.386 . S
C2589 C2593 1.393 . S
C2590 H2582 0.950 . S
C2590 C2588 1.391 . S
C2590 C2591 1.400 . S
C2591 C2590 1.400 . S
C2591 C2592 1.398 . S
C2591 C2597 1.491 . S
C2592 H2583 0.950 . S
C2592 C2591 1.398 . S
C2592 C2593 1.391 . S
C2593 H2581 0.950 . S
C2593 C2589 1.393 . S
C2593 C2592 1.391 . S
C2594 H2584 0.950 . S
C2594 C2595 1.386 . S
C2594 C2596 1.391 . S
C2595 C2594 1.386 . S
C2595 C2599 1.393 . S
C2596 H2585 0.950 . S
C2596 C2594 1.391 . S
C2596 C2597 1.400 . S
C2597 C2591 1.491 . S
C2597 C2596 1.400 . S
C2597 C2598 1.398 . S
C2598 H2586 0.950 . S
C2598 C2597 1.398 . S
C2598 C2599 1.391 . S
C2599 H2587 0.950 . S
C2599 C2595 1.393 . S
C2599 C2598 1.391 . S
H2600 C2608 0.950 . S
H2601 C2613 0.950 . S
H2602 C2610 0.950 . S
H2603 C2612 0.950 . S
H2604 C2614 0.950 . S
H2605 C2616 0.950 . S
H2606 C2618 0.950 . S
H2607 C2619 0.950 . S
C2608 H2600 0.950 . S
C2608 C2609 1.386 . S
C2608 C2610 1.391 . S
C2609 C2608 1.386 . S
C2609 C2613 1.393 . S
C2610 H2602 0.950 . S
C2610 C2608 1.391 . S
C2610 C2611 1.400 . S
C2611 C2610 1.400 . S
C2611 C2612 1.398 . S
C2611 C2617 1.491 . S
C2612 H2603 0.950 . S
C2612 C2611 1.398 . S
C2612 C2613 1.391 . S
C2613 H2601 0.950 . S
C2613 C2609 1.393 . S
C2613 C2612 1.391 . S
C2614 H2604 0.950 . S
C2614 C2615 1.386 . S
C2614 C2616 1.391 . S
C2615 C2614 1.386 . S
C2615 C2619 1.393 . S
C2616 H2605 0.950 . S
C2616 C2614 1.391 . S
C2616 C2617 1.400 . S
C2617 C2611 1.491 . S
C2617 C2616 1.400 . S
C2617 C2618 1.398 . S
C2618 H2606 0.950 . S
C2618 C2617 1.398 . S
C2618 C2619 1.391 . S
C2619 H2607 0.950 . S
C2619 C2615 1.393 . S
C2619 C2618 1.391 . S
H2620 C2628 0.950 . S
H2621 C2633 0.950 . S
H2622 C2630 0.950 . S
H2623 C2632 0.950 . S
H2624 C2634 0.950 . S
H2625 C2636 0.950 . S
H2626 C2638 0.950 . S
H2627 C2639 0.950 . S
C2628 H2620 0.950 . S
C2628 C2629 1.386 . S
C2628 C2630 1.391 . S
C2629 C2628 1.386 . S
C2629 C2633 1.393 . S
C2630 H2622 0.950 . S
C2630 C2628 1.391 . S
C2630 C2631 1.400 . S
C2631 C2630 1.400 . S
C2631 C2632 1.398 . S
C2631 C2637 1.491 . S
C2632 H2623 0.950 . S
C2632 C2631 1.398 . S
C2632 C2633 1.391 . S
C2633 H2621 0.950 . S
C2633 C2629 1.393 . S
C2633 C2632 1.391 . S
C2634 H2624 0.950 . S
C2634 C2635 1.386 . S
C2634 C2636 1.391 . S
C2635 C2634 1.386 . S
C2635 C2639 1.393 . S
C2636 H2625 0.950 . S
C2636 C2634 1.391 . S
C2636 C2637 1.400 . S
C2637 C2631 1.491 . S
C2637 C2636 1.400 . S
C2637 C2638 1.398 . S
C2638 H2626 0.950 . S
C2638 C2637 1.398 . S
C2638 C2639 1.391 . S
C2639 H2627 0.950 . S
C2639 C2635 1.393 . S
C2639 C2638 1.391 . S
H2640 C2648 0.950 . S
H2641 C2653 0.950 . S
H2642 C2650 0.950 . S
H2643 C2652 0.950 . S
H2644 C2654 0.950 . S
H2645 C2656 0.950 . S
H2646 C2658 0.950 . S
H2647 C2659 0.950 . S
C2648 H2640 0.950 . S
C2648 C2649 1.386 . S
C2648 C2650 1.391 . S
C2649 C2648 1.386 . S
C2649 C2653 1.393 . S
C2650 H2642 0.950 . S
C2650 C2648 1.391 . S
C2650 C2651 1.400 . S
C2651 C2650 1.400 . S
C2651 C2652 1.398 . S
C2651 C2657 1.491 . S
C2652 H2643 0.950 . S
C2652 C2651 1.398 . S
C2652 C2653 1.391 . S
C2653 H2641 0.950 . S
C2653 C2649 1.393 . S
C2653 C2652 1.391 . S
C2654 H2644 0.950 . S
C2654 C2655 1.386 . S
C2654 C2656 1.391 . S
C2655 C2654 1.386 . S
C2655 C2659 1.393 . S
C2656 H2645 0.950 . S
C2656 C2654 1.391 . S
C2656 C2657 1.400 . S
C2657 C2651 1.491 . S
C2657 C2656 1.400 . S
C2657 C2658 1.398 . S
C2658 H2646 0.950 . S
C2658 C2657 1.398 . S
C2658 C2659 1.391 . S
C2659 H2647 0.950 . S
C2659 C2655 1.393 . S
C2659 C2658 1.391 . S
H2660 C2668 0.950 . S
H2661 C2673 0.950 . S
H2662 C2670 0.950 . S
H2663 C2672 0.950 . S
H2664 C2674 0.950 . S
H2665 C2676 0.950 . S
H2666 C2678 0.950 . S
H2667 C2679 0.950 . S
C2668 H2660 0.950 . S
C2668 C2669 1.386 . S
C2668 C2670 1.391 . S
C2669 C2668 1.386 . S
C2669 C2673 1.393 . S
C2670 H2662 0.950 . S
C2670 C2668 1.391 . S
C2670 C2671 1.400 . S
C2671 C2670 1.400 . S
C2671 C2672 1.398 . S
C2671 C2677 1.491 . S
C2672 H2663 0.950 . S
C2672 C2671 1.398 . S
C2672 C2673 1.391 . S
C2673 H2661 0.950 . S
C2673 C2669 1.393 . S
C2673 C2672 1.391 . S
C2674 H2664 0.950 . S
C2674 C2675 1.386 . S
C2674 C2676 1.391 . S
C2675 C2674 1.386 . S
C2675 C2679 1.393 . S
C2676 H2665 0.950 . S
C2676 C2674 1.391 . S
C2676 C2677 1.400 . S
C2677 C2671 1.491 . S
C2677 C2676 1.400 . S
C2677 C2678 1.398 . S
C2678 H2666 0.950 . S
C2678 C2677 1.398 . S
C2678 C2679 1.391 . S
C2679 H2667 0.950 . S
C2679 C2675 1.393 . S
C2679 C2678 1.391 . S
H2680 C2688 0.950 . S
H2681 C2693 0.950 . S
H2682 C2690 0.950 . S
H2683 C2692 0.950 . S
H2684 C2694 0.950 . S
H2685 C2696 0.950 . S
H2686 C2698 0.950 . S
H2687 C2699 0.950 . S
C2688 H2680 0.950 . S
C2688 C2689 1.386 . S
C2688 C2690 1.391 . S
C2689 C2688 1.386 . S
C2689 C2693 1.393 . S
C2690 H2682 0.950 . S
C2690 C2688 1.391 . S
C2690 C2691 1.400 . S
C2691 C2690 1.400 . S
C2691 C2692 1.398 . S
C2691 C2697 1.491 . S
C2692 H2683 0.950 . S
C2692 C2691 1.398 . S
C2692 C2693 1.391 . S
C2693 H2681 0.950 . S
C2693 C2689 1.393 . S
C2693 C2692 1.391 . S
C2694 H2684 0.950 . S
C2694 C2695 1.386 . S
C2694 C2696 1.391 . S
C2695 C2694 1.386 . S
C2695 C2699 1.393 . S
C2696 H2685 0.950 . S
C2696 C2694 1.391 . S
C2696 C2697 1.400 . S
C2697 C2691 1.491 . S
C2697 C2696 1.400 . S
C2697 C2698 1.398 . S
C2698 H2686 0.950 . S
C2698 C2697 1.398 . S
C2698 C2699 1.391 . S
C2699 H2687 0.950 . S
C2699 C2695 1.393 . S
C2699 C2698 1.391 . S
H2700 C2708 0.950 . S
H2701 C2713 0.950 . S
H2702 C2710 0.950 . S
H2703 C2712 0.950 . S
H2704 C2714 0.950 . S
H2705 C2716 0.950 . S
H2706 C2718 0.950 . S
H2707 C2719 0.950 . S
C2708 H2700 0.950 . S
C2708 C2709 1.386 . S
C2708 C2710 1.391 . S
C2709 C2708 1.386 . S
C2709 C2713 1.393 . S
C2710 H2702 0.950 . S
C2710 C2708 1.391 . S
C2710 C2711 1.400 . S
C2711 C2710 1.400 . S
C2711 C2712 1.398 . S
C2711 C2717 1.491 . S
C2712 H2703 0.950 . S
C2712 C2711 1.398 . S
C2712 C2713 1.391 . S
C2713 H2701 0.950 . S
C2713 C2709 1.393 . S
C2713 C2712 1.391 . S
C2714 H2704 0.950 . S
C2714 C2715 1.386 . S
C2714 C2716 1.391 . S
C2715 C2714 1.386 . S
C2715 C2719 1.393 . S
C2716 H2705 0.950 . S
C2716 C2714 1.391 . S
C2716 C2717 1.400 . S
C2717 C2711 1.491 . S
C2717 C2716 1.400 . S
C2717 C2718 1.398 . S
C2718 H2706 0.950 . S
C2718 C2717 1.398 . S
C2718 C2719 1.391 . S
C2719 H2707 0.950 . S
C2719 C2715 1.393 . S
C2719 C2718 1.391 . S
H2720 C2728 0.950 . S
H2721 C2733 0.950 . S
H2722 C2730 0.950 . S
H2723 C2732 0.950 . S
H2724 C2734 0.950 . S
H2725 C2736 0.950 . S
H2726 C2738 0.950 . S
H2727 C2739 0.950 . S
C2728 H2720 0.950 . S
C2728 C2729 1.386 . S
C2728 C2730 1.391 . S
C2729 C2728 1.386 . S
C2729 C2733 1.393 . S
C2730 H2722 0.950 . S
C2730 C2728 1.391 . S
C2730 C2731 1.400 . S
C2731 C2730 1.400 . S
C2731 C2732 1.398 . S
C2731 C2737 1.491 . S
C2732 H2723 0.950 . S
C2732 C2731 1.398 . S
C2732 C2733 1.391 . S
C2733 H2721 0.950 . S
C2733 C2729 1.393 . S
C2733 C2732 1.391 . S
C2734 H2724 0.950 . S
C2734 C2735 1.386 . S
C2734 C2736 1.391 . S
C2735 C2734 1.386 . S
C2735 C2739 1.393 . S
C2736 H2725 0.950 . S
C2736 C2734 1.391 . S
C2736 C2737 1.400 . S
C2737 C2731 1.491 . S
C2737 C2736 1.400 . S
C2737 C2738 1.398 . S
C2738 H2726 0.950 . S
C2738 C2737 1.398 . S
C2738 C2739 1.391 . S
C2739 H2727 0.950 . S
C2739 C2735 1.393 . S
C2739 C2738 1.391 . S
H2740 C2748 0.950 . S
H2741 C2753 0.950 . S
H2742 C2750 0.950 . S
H2743 C2752 0.950 . S
H2744 C2754 0.950 . S
H2745 C2756 0.950 . S
H2746 C2758 0.950 . S
H2747 C2759 0.950 . S
C2748 H2740 0.950 . S
C2748 C2749 1.386 . S
C2748 C2750 1.391 . S
C2749 C2748 1.386 . S
C2749 C2753 1.393 . S
C2750 H2742 0.950 . S
C2750 C2748 1.391 . S
C2750 C2751 1.400 . S
C2751 C2750 1.400 . S
C2751 C2752 1.398 . S
C2751 C2757 1.491 . S
C2752 H2743 0.950 . S
C2752 C2751 1.398 . S
C2752 C2753 1.391 . S
C2753 H2741 0.950 . S
C2753 C2749 1.393 . S
C2753 C2752 1.391 . S
C2754 H2744 0.950 . S
C2754 C2755 1.386 . S
C2754 C2756 1.391 . S
C2755 C2754 1.386 . S
C2755 C2759 1.393 . S
C2756 H2745 0.950 . S
C2756 C2754 1.391 . S
C2756 C2757 1.400 . S
C2757 C2751 1.491 . S
C2757 C2756 1.400 . S
C2757 C2758 1.398 . S
C2758 H2746 0.950 . S
C2758 C2757 1.398 . S
C2758 C2759 1.391 . S
C2759 H2747 0.950 . S
C2759 C2755 1.393 . S
C2759 C2758 1.391 . S
H2760 C2768 0.950 . S
H2761 C2773 0.950 . S
H2762 C2770 0.950 . S
H2763 C2772 0.950 . S
H2764 C2774 0.950 . S
H2765 C2776 0.950 . S
H2766 C2778 0.950 . S
H2767 C2779 0.950 . S
C2768 H2760 0.950 . S
C2768 C2769 1.386 . S
C2768 C2770 1.391 . S
C2769 C2768 1.386 . S
C2769 C2773 1.393 . S
C2770 H2762 0.950 . S
C2770 C2768 1.391 . S
C2770 C2771 1.400 . S
C2771 C2770 1.400 . S
C2771 C2772 1.398 . S
C2771 C2777 1.491 . S
C2772 H2763 0.950 . S
C2772 C2771 1.398 . S
C2772 C2773 1.391 . S
C2773 H2761 0.950 . S
C2773 C2769 1.393 . S
C2773 C2772 1.391 . S
C2774 H2764 0.950 . S
C2774 C2775 1.386 . S
C2774 C2776 1.391 . S
C2775 C2774 1.386 . S
C2775 C2779 1.393 . S
C2776 H2765 0.950 . S
C2776 C2774 1.391 . S
C2776 C2777 1.400 . S
C2777 C2771 1.491 . S
C2777 C2776 1.400 . S
C2777 C2778 1.398 . S
C2778 H2766 0.950 . S
C2778 C2777 1.398 . S
C2778 C2779 1.391 . S
C2779 H2767 0.950 . S
C2779 C2775 1.393 . S
C2779 C2778 1.391 . S
H2780 C2788 0.937 1_554 S
H2781 C2793 0.950 . S
H2782 C2790 0.950 . S
H2783 C2792 0.950 . S
H2784 C2794 0.950 . S
H2785 C2796 0.950 . S
H2786 C2798 0.950 . S
H2787 C2799 0.950 . S
C2788 H2780 0.937 1_556 S
C2788 C2789 1.387 . S
C2788 C2790 1.403 . S
C2789 C2788 1.387 . S
C2789 C2793 1.393 . S
C2790 H2782 0.950 . S
C2790 C2788 1.403 . S
C2790 C2791 1.400 . S
C2791 C2790 1.400 . S
C2791 C2792 1.398 . S
C2791 C2797 1.491 . S
C2792 H2783 0.950 . S
C2792 C2791 1.398 . S
C2792 C2793 1.391 . S
C2793 H2781 0.950 . S
C2793 C2789 1.393 . S
C2793 C2792 1.391 . S
C2794 H2784 0.950 . S
C2794 C2795 1.386 . S
C2794 C2796 1.391 . S
C2795 C2794 1.386 . S
C2795 C2799 1.393 . S
C2796 H2785 0.950 . S
C2796 C2794 1.391 . S
C2796 C2797 1.400 . S
C2797 C2791 1.491 . S
C2797 C2796 1.400 . S
C2797 C2798 1.398 . S
C2798 H2786 0.950 . S
C2798 C2797 1.398 . S
C2798 C2799 1.391 . S
C2799 H2787 0.950 . S
C2799 C2795 1.393 . S
C2799 C2798 1.391 . S
H2800 C2808 0.950 . S
H2801 C2813 0.950 . S
H2802 C2810 0.950 . S
H2803 C2812 0.950 . S
H2804 C2814 0.950 . S
H2805 C2816 0.950 . S
H2806 C2818 0.950 . S
H2807 C2819 0.950 1_554 S
C2808 H2800 0.950 . S
C2808 C2809 1.386 . S
C2808 C2810 1.391 . S
C2809 C2808 1.386 . S
C2809 C2813 1.393 . S
C2810 H2802 0.950 . S
C2810 C2808 1.391 . S
C2810 C2811 1.400 . S
C2811 C2810 1.400 . S
C2811 C2812 1.398 . S
C2811 C2817 1.491 . S
C2812 H2803 0.950 . S
C2812 C2811 1.398 . S
C2812 C2813 1.391 . S
C2813 H2801 0.950 . S
C2813 C2809 1.393 . S
C2813 C2812 1.391 . S
C2814 H2804 0.950 . S
C2814 C2815 1.386 . S
C2814 C2816 1.391 . S
C2815 C2814 1.386 . S
C2815 C2819 1.393 . S
C2816 H2805 0.950 . S
C2816 C2814 1.391 . S
C2816 C2817 1.400 . S
C2817 C2811 1.491 . S
C2817 C2816 1.400 . S
C2817 C2818 1.398 . S
C2818 H2806 0.950 . S
C2818 C2817 1.398 . S
C2818 C2819 1.391 . S
C2819 H2807 0.950 1_556 S
C2819 C2815 1.393 . S
C2819 C2818 1.391 . S
H2820 C2828 0.950 . S
H2821 C2833 0.950 . S
H2822 C2830 0.950 . S
H2823 C2832 0.950 . S
H2824 C2834 0.950 . S
H2825 C2836 0.950 . S
H2826 C2838 0.950 . S
H2827 C2839 0.950 . S
C2828 H2820 0.950 . S
C2828 C2829 1.386 . S
C2828 C2830 1.391 . S
C2829 C2828 1.386 . S
C2829 C2833 1.393 . S
C2830 H2822 0.950 . S
C2830 C2828 1.391 . S
C2830 C2831 1.400 . S
C2831 C2830 1.400 . S
C2831 C2832 1.398 . S
C2831 C2837 1.491 . S
C2832 H2823 0.950 . S
C2832 C2831 1.398 . S
C2832 C2833 1.391 . S
C2833 H2821 0.950 . S
C2833 C2829 1.393 . S
C2833 C2832 1.391 . S
C2834 H2824 0.950 . S
C2834 C2835 1.386 . S
C2834 C2836 1.391 . S
C2835 C2834 1.386 . S
C2835 C2839 1.393 . S
C2836 H2825 0.950 . S
C2836 C2834 1.391 . S
C2836 C2837 1.400 . S
C2837 C2831 1.491 . S
C2837 C2836 1.400 . S
C2837 C2838 1.398 . S
C2838 H2826 0.950 . S
C2838 C2837 1.398 . S
C2838 C2839 1.391 . S
C2839 H2827 0.950 . S
C2839 C2835 1.393 . S
C2839 C2838 1.391 . S
H2840 C2848 0.950 . S
H2841 C2853 0.950 . S
H2842 C2850 0.950 . S
H2843 C2852 0.950 . S
H2844 C2854 0.950 . S
H2845 C2856 0.950 . S
H2846 C2858 0.950 . S
H2847 C2859 0.950 . S
C2848 H2840 0.950 . S
C2848 C2849 1.386 . S
C2848 C2850 1.391 . S
C2849 C2848 1.386 . S
C2849 C2853 1.393 . S
C2850 H2842 0.950 . S
C2850 C2848 1.391 . S
C2850 C2851 1.400 . S
C2851 C2850 1.400 . S
C2851 C2852 1.398 . S
C2851 C2857 1.491 . S
C2852 H2843 0.950 . S
C2852 C2851 1.398 . S
C2852 C2853 1.391 . S
C2853 H2841 0.950 . S
C2853 C2849 1.393 . S
C2853 C2852 1.391 . S
C2854 H2844 0.950 . S
C2854 C2855 1.386 . S
C2854 C2856 1.391 . S
C2855 C2854 1.386 . S
C2855 C2859 1.393 . S
C2856 H2845 0.950 . S
C2856 C2854 1.391 . S
C2856 C2857 1.400 . S
C2857 C2851 1.491 . S
C2857 C2856 1.400 . S
C2857 C2858 1.398 . S
C2858 H2846 0.950 . S
C2858 C2857 1.398 . S
C2858 C2859 1.391 . S
C2859 H2847 0.950 . S
C2859 C2855 1.393 . S
C2859 C2858 1.391 . S
H2860 C2868 0.950 . S
H2861 C2873 0.950 . S
H2862 C2870 0.950 . S
H2863 C2872 0.950 . S
H2864 C2874 0.950 . S
H2865 C2876 0.950 . S
H2866 C2878 0.950 . S
H2867 C2879 0.950 . S
C2868 H2860 0.950 . S
C2868 C2869 1.386 . S
C2868 C2870 1.391 . S
C2869 C2868 1.386 . S
C2869 C2873 1.393 . S
C2870 H2862 0.950 . S
C2870 C2868 1.391 . S
C2870 C2871 1.400 . S
C2871 C2870 1.400 . S
C2871 C2872 1.398 . S
C2871 C2877 1.491 . S
C2872 H2863 0.950 . S
C2872 C2871 1.398 . S
C2872 C2873 1.391 . S
C2873 H2861 0.950 . S
C2873 C2869 1.393 . S
C2873 C2872 1.391 . S
C2874 H2864 0.950 . S
C2874 C2875 1.386 . S
C2874 C2876 1.391 . S
C2875 C2874 1.386 . S
C2875 C2879 1.393 . S
C2876 H2865 0.950 . S
C2876 C2874 1.391 . S
C2876 C2877 1.400 . S
C2877 C2871 1.491 . S
C2877 C2876 1.400 . S
C2877 C2878 1.398 . S
C2878 H2866 0.950 . S
C2878 C2877 1.398 . S
C2878 C2879 1.391 . S
C2879 H2867 0.950 . S
C2879 C2875 1.393 . S
C2879 C2878 1.391 . S
H2880 C2888 0.950 . S
H2881 C2893 0.950 . S
H2882 C2890 0.950 . S
H2883 C2892 0.950 1_655 S
H2884 C2894 0.950 . S
H2885 C2896 0.950 . S
H2886 C2898 0.950 1_455 S
H2887 C2899 0.950 . S
C2888 H2880 0.950 . S
C2888 C2889 1.386 . S
C2888 C2890 1.391 . S
C2889 C2888 1.386 . S
C2889 C2893 1.393 . S
C2890 H2882 0.950 . S
C2890 C2888 1.391 . S
C2890 C2891 1.400 . S
C2891 C2890 1.400 . S
C2891 C2892 1.398 . S
C2891 C2897 1.491 1_455 S
C2892 H2883 0.950 1_455 S
C2892 C2891 1.398 . S
C2892 C2893 1.391 . S
C2893 H2881 0.950 . S
C2893 C2889 1.393 . S
C2893 C2892 1.391 . S
C2894 H2884 0.950 . S
C2894 C2895 1.386 . S
C2894 C2896 1.391 . S
C2895 C2894 1.386 . S
C2895 C2899 1.393 . S
C2896 H2885 0.950 . S
C2896 C2894 1.391 . S
C2896 C2897 1.400 . S
C2897 C2891 1.491 1_655 S
C2897 C2896 1.400 . S
C2897 C2898 1.398 . S
C2898 H2886 0.950 1_655 S
C2898 C2897 1.398 . S
C2898 C2899 1.391 . S
C2899 H2887 0.950 . S
C2899 C2895 1.393 . S
C2899 C2898 1.391 . S
H2900 C2908 0.950 . S
H2901 C2913 0.950 . S
H2902 C2910 0.950 . S
H2903 C2912 0.950 . S
H2904 C2914 0.950 . S
H2905 C2916 0.950 . S
H2906 C2918 0.950 . S
H2907 C2919 0.950 . S
C2908 H2900 0.950 . S
C2908 C2909 1.386 . S
C2908 C2910 1.391 . S
C2909 C2908 1.386 . S
C2909 C2913 1.393 . S
C2910 H2902 0.950 . S
C2910 C2908 1.391 . S
C2910 C2911 1.400 . S
C2911 C2910 1.400 . S
C2911 C2912 1.398 . S
C2911 C2917 1.491 . S
C2912 H2903 0.950 . S
C2912 C2911 1.398 . S
C2912 C2913 1.391 . S
C2913 H2901 0.950 . S
C2913 C2909 1.393 . S
C2913 C2912 1.391 . S
C2914 H2904 0.950 . S
C2914 C2915 1.386 . S
C2914 C2916 1.391 . S
C2915 C2914 1.386 . S
C2915 C2919 1.393 . S
C2916 H2905 0.950 . S
C2916 C2914 1.391 . S
C2916 C2917 1.400 . S
C2917 C2911 1.491 . S
C2917 C2916 1.400 . S
C2917 C2918 1.398 . S
C2918 H2906 0.950 . S
C2918 C2917 1.398 . S
C2918 C2919 1.391 . S
C2919 H2907 0.950 . S
C2919 C2915 1.393 . S
C2919 C2918 1.391 . S
H2920 C2928 0.950 . S
H2921 C2933 0.950 . S
H2922 C2930 0.950 . S
H2923 C2932 0.950 . S
H2924 C2934 0.950 . S
H2925 C2936 0.950 . S
H2926 C2938 0.950 . S
H2927 C2939 0.950 . S
C2928 H2920 0.950 . S
C2928 C2929 1.386 . S
C2928 C2930 1.391 . S
C2929 C2928 1.386 . S
C2929 C2933 1.393 . S
C2930 H2922 0.950 . S
C2930 C2928 1.391 . S
C2930 C2931 1.400 . S
C2931 C2930 1.400 . S
C2931 C2932 1.398 1_565 S
C2931 C2937 1.491 1_565 S
C2932 H2923 0.950 . S
C2932 C2931 1.398 1_545 S
C2932 C2933 1.391 1_545 S
C2933 H2921 0.950 . S
C2933 C2929 1.393 . S
C2933 C2932 1.391 1_565 S
C2934 H2924 0.950 . S
C2934 C2935 1.386 . S
C2934 C2936 1.391 . S
C2935 C2934 1.386 . S
C2935 C2939 1.393 . S
C2936 H2925 0.950 . S
C2936 C2934 1.391 . S
C2936 C2937 1.400 . S
C2937 C2931 1.491 1_545 S
C2937 C2936 1.400 . S
C2937 C2938 1.398 1_545 S
C2938 H2926 0.950 . S
C2938 C2937 1.398 1_565 S
C2938 C2939 1.391 1_565 S
C2939 H2927 0.950 . S
C2939 C2935 1.393 . S
C2939 C2938 1.391 1_545 S
H2940 C2948 0.950 . S
H2941 C2953 0.950 . S
H2942 C2950 0.950 . S
H2943 C2952 0.950 . S
H2944 C2954 0.950 . S
H2945 C2956 0.950 . S
H2946 C2958 0.950 . S
H2947 C2959 0.950 . S
C2948 H2940 0.950 . S
C2948 C2949 1.386 . S
C2948 C2950 1.391 . S
C2949 C2948 1.386 . S
C2949 C2953 1.393 . S
C2950 H2942 0.950 . S
C2950 C2948 1.391 . S
C2950 C2951 1.400 . S
C2951 C2950 1.400 . S
C2951 C2952 1.398 . S
C2951 C2957 1.491 1_655 S
C2952 H2943 0.950 . S
C2952 C2951 1.398 . S
C2952 C2953 1.391 . S
C2953 H2941 0.950 . S
C2953 C2949 1.393 . S
C2953 C2952 1.391 . S
C2954 H2944 0.950 . S
C2954 C2955 1.386 . S
C2954 C2956 1.391 . S
C2955 C2954 1.386 . S
C2955 C2959 1.393 . S
C2956 H2945 0.950 . S
C2956 C2954 1.391 . S
C2956 C2957 1.400 . S
C2957 C2951 1.491 1_455 S
C2957 C2956 1.400 . S
C2957 C2958 1.398 . S
C2958 H2946 0.950 . S
C2958 C2957 1.398 . S
C2958 C2959 1.391 . S
C2959 H2947 0.950 . S
C2959 C2955 1.393 . S
C2959 C2958 1.391 . S
H2960 C2968 0.950 . S
H2961 C2973 0.950 . S
H2962 C2970 0.950 . S
H2963 C2972 0.950 . S
H2964 C2974 0.950 . S
H2965 C2976 0.950 . S
H2966 C2978 0.950 . S
H2967 C2979 0.950 . S
C2968 H2960 0.950 . S
C2968 C2969 1.386 . S
C2968 C2970 1.391 . S
C2969 C2968 1.386 . S
C2969 C2973 1.393 . S
C2970 H2962 0.950 . S
C2970 C2968 1.391 . S
C2970 C2971 1.400 . S
C2971 C2970 1.400 . S
C2971 C2972 1.398 . S
C2971 C2977 1.491 . S
C2972 H2963 0.950 . S
C2972 C2971 1.398 . S
C2972 C2973 1.391 . S
C2973 H2961 0.950 . S
C2973 C2969 1.393 . S
C2973 C2972 1.391 . S
C2974 H2964 0.950 . S
C2974 C2975 1.386 . S
C2974 C2976 1.391 . S
C2975 C2974 1.386 . S
C2975 C2979 1.393 . S
C2976 H2965 0.950 . S
C2976 C2974 1.391 . S
C2976 C2977 1.400 . S
C2977 C2971 1.491 . S
C2977 C2976 1.400 . S
C2977 C2978 1.398 . S
C2978 H2966 0.950 . S
C2978 C2977 1.398 . S
C2978 C2979 1.391 . S
C2979 H2967 0.950 . S
C2979 C2975 1.393 . S
C2979 C2978 1.391 . S
H2980 C2988 0.950 . S
H2981 C2993 0.950 . S
H2982 C2990 0.950 1_565 S
H2983 C2992 0.950 . S
H2984 C2994 0.950 . S
H2985 C2996 0.950 1_545 S
H2986 C2998 0.950 . S
H2987 C2999 0.950 . S
C2988 H2980 0.950 . S
C2988 C2989 1.386 . S
C2988 C2990 1.391 . S
C2989 C2988 1.386 . S
C2989 C2993 1.393 . S
C2990 H2982 0.950 1_545 S
C2990 C2988 1.391 . S
C2990 C2991 1.400 . S
C2991 C2990 1.400 . S
C2991 C2992 1.398 . S
C2991 C2997 1.491 1_545 S
C2992 H2983 0.950 . S
C2992 C2991 1.398 . S
C2992 C2993 1.391 . S
C2993 H2981 0.950 . S
C2993 C2989 1.393 . S
C2993 C2992 1.391 . S
C2994 H2984 0.950 . S
C2994 C2995 1.386 . S
C2994 C2996 1.391 . S
C2995 C2994 1.386 . S
C2995 C2999 1.393 . S
C2996 H2985 0.950 1_565 S
C2996 C2994 1.391 . S
C2996 C2997 1.400 . S
C2997 C2991 1.491 1_565 S
C2997 C2996 1.400 . S
C2997 C2998 1.398 . S
C2998 H2986 0.950 . S
C2998 C2997 1.398 . S
C2998 C2999 1.391 . S
C2999 H2987 0.950 . S
C2999 C2995 1.393 . S
C2999 C2998 1.391 . S
H3000 C3008 0.950 . S
H3001 C3013 0.950 . S
H3002 C3010 0.950 . S
H3003 C3012 0.950 . S
H3004 C3014 0.950 . S
H3005 C3016 0.950 . S
H3006 C3018 0.950 . S
H3007 C3019 0.950 . S
C3008 H3000 0.950 . S
C3008 C3009 1.386 . S
C3008 C3010 1.391 . S
C3009 C3008 1.386 . S
C3009 C3013 1.393 . S
C3010 H3002 0.950 . S
C3010 C3008 1.391 . S
C3010 C3011 1.400 . S
C3011 C3010 1.400 . S
C3011 C3012 1.398 . S
C3011 C3017 1.491 . S
C3012 H3003 0.950 . S
C3012 C3011 1.398 . S
C3012 C3013 1.391 . S
C3013 H3001 0.950 . S
C3013 C3009 1.393 . S
C3013 C3012 1.391 . S
C3014 H3004 0.950 . S
C3014 C3015 1.386 . S
C3014 C3016 1.391 . S
C3015 C3014 1.386 . S
C3015 C3019 1.393 . S
C3016 H3005 0.950 . S
C3016 C3014 1.391 . S
C3016 C3017 1.400 . S
C3017 C3011 1.491 . S
C3017 C3016 1.400 . S
C3017 C3018 1.398 . S
C3018 H3006 0.950 . S
C3018 C3017 1.398 . S
C3018 C3019 1.391 . S
C3019 H3007 0.950 . S
C3019 C3015 1.393 . S
C3019 C3018 1.391 . S
H3020 C3028 0.950 . S
H3021 C3033 0.950 . S
H3022 C3030 0.950 . S
H3023 C3032 0.950 . S
H3024 C3034 0.950 . S
H3025 C3036 0.950 . S
H3026 C3038 0.950 . S
H3027 C3039 0.950 . S
C3028 H3020 0.950 . S
C3028 C3029 1.386 . S
C3028 C3030 1.391 . S
C3029 C3028 1.386 . S
C3029 C3033 1.393 . S
C3030 H3022 0.950 . S
C3030 C3028 1.391 . S
C3030 C3031 1.400 . S
C3031 C3030 1.400 . S
C3031 C3032 1.398 . S
C3031 C3037 1.491 . S
C3032 H3023 0.950 . S
C3032 C3031 1.398 . S
C3032 C3033 1.391 . S
C3033 H3021 0.950 . S
C3033 C3029 1.393 . S
C3033 C3032 1.391 . S
C3034 H3024 0.950 . S
C3034 C3035 1.386 . S
C3034 C3036 1.391 . S
C3035 C3034 1.386 . S
C3035 C3039 1.393 . S
C3036 H3025 0.950 . S
C3036 C3034 1.391 . S
C3036 C3037 1.400 . S
C3037 C3031 1.491 . S
C3037 C3036 1.400 . S
C3037 C3038 1.398 . S
C3038 H3026 0.950 . S
C3038 C3037 1.398 . S
C3038 C3039 1.391 . S
C3039 H3027 0.950 . S
C3039 C3035 1.393 . S
C3039 C3038 1.391 . S
H3040 C3048 0.950 . S
H3041 C3053 0.950 . S
H3042 C3050 0.950 . S
H3043 C3052 0.950 . S
H3044 C3054 0.950 . S
H3045 C3056 0.950 . S
H3046 C3058 0.950 . S
H3047 C3059 0.950 . S
C3048 H3040 0.950 . S
C3048 C3049 1.386 . S
C3048 C3050 1.391 . S
C3049 C3048 1.386 . S
C3049 C3053 1.393 . S
C3050 H3042 0.950 . S
C3050 C3048 1.391 . S
C3050 C3051 1.400 . S
C3051 C3050 1.400 . S
C3051 C3052 1.398 . S
C3051 C3057 1.491 . S
C3052 H3043 0.950 . S
C3052 C3051 1.398 . S
C3052 C3053 1.391 . S
C3053 H3041 0.950 . S
C3053 C3049 1.393 . S
C3053 C3052 1.391 . S
C3054 H3044 0.950 . S
C3054 C3055 1.386 . S
C3054 C3056 1.391 . S
C3055 C3054 1.386 . S
C3055 C3059 1.393 . S
C3056 H3045 0.950 . S
C3056 C3054 1.391 . S
C3056 C3057 1.400 . S
C3057 C3051 1.491 . S
C3057 C3056 1.400 . S
C3057 C3058 1.398 . S
C3058 H3046 0.950 . S
C3058 C3057 1.398 . S
C3058 C3059 1.391 . S
C3059 H3047 0.950 . S
C3059 C3055 1.393 . S
C3059 C3058 1.391 . S
H3060 C3068 0.950 . S
H3061 C3073 0.950 . S
H3062 C3070 0.950 . S
H3063 C3072 0.950 . S
H3064 C3074 0.950 . S
H3065 C3076 0.950 . S
H3066 C3078 0.950 . S
H3067 C3079 0.950 . S
C3068 H3060 0.950 . S
C3068 C3069 1.386 . S
C3068 C3070 1.391 . S
C3069 C3068 1.386 . S
C3069 C3073 1.393 . S
C3070 H3062 0.950 . S
C3070 C3068 1.391 . S
C3070 C3071 1.400 . S
C3071 C3070 1.400 . S
C3071 C3072 1.398 . S
C3071 C3077 1.491 . S
C3072 H3063 0.950 . S
C3072 C3071 1.398 . S
C3072 C3073 1.391 . S
C3073 H3061 0.950 . S
C3073 C3069 1.393 . S
C3073 C3072 1.391 . S
C3074 H3064 0.950 . S
C3074 C3075 1.386 . S
C3074 C3076 1.391 . S
C3075 C3074 1.386 . S
C3075 C3079 1.393 . S
C3076 H3065 0.950 . S
C3076 C3074 1.391 . S
C3076 C3077 1.400 . S
C3077 C3071 1.491 . S
C3077 C3076 1.400 . S
C3077 C3078 1.398 . S
C3078 H3066 0.950 . S
C3078 C3077 1.398 . S
C3078 C3079 1.391 . S
C3079 H3067 0.950 . S
C3079 C3075 1.393 . S
C3079 C3078 1.391 . S
H3080 C3088 0.950 . S
H3081 C3093 0.950 . S
H3082 C3090 0.950 . S
H3083 C3092 0.950 . S
H3084 C3094 0.950 . S
H3085 C3096 0.950 . S
H3086 C3098 0.950 . S
H3087 C3099 0.950 . S
C3088 H3080 0.950 . S
C3088 C3089 1.386 . S
C3088 C3090 1.391 . S
C3089 C3088 1.386 . S
C3089 C3093 1.393 . S
C3090 H3082 0.950 . S
C3090 C3088 1.391 . S
C3090 C3091 1.400 . S
C3091 C3090 1.400 . S
C3091 C3092 1.398 . S
C3091 C3097 1.491 . S
C3092 H3083 0.950 . S
C3092 C3091 1.398 . S
C3092 C3093 1.391 . S
C3093 H3081 0.950 . S
C3093 C3089 1.393 . S
C3093 C3092 1.391 . S
C3094 H3084 0.950 . S
C3094 C3095 1.386 . S
C3094 C3096 1.391 . S
C3095 C3094 1.386 . S
C3095 C3099 1.393 . S
C3096 H3085 0.950 . S
C3096 C3094 1.391 . S
C3096 C3097 1.400 . S
C3097 C3091 1.491 . S
C3097 C3096 1.400 . S
C3097 C3098 1.398 . S
C3098 H3086 0.950 . S
C3098 C3097 1.398 . S
C3098 C3099 1.391 . S
C3099 H3087 0.950 . S
C3099 C3095 1.393 . S
C3099 C3098 1.391 . S
H3100 C3108 0.950 . S
H3101 C3113 0.950 . S
H3102 C3110 0.950 . S
H3103 C3112 0.950 . S
H3104 C3114 0.950 . S
H3105 C3116 0.950 . S
H3106 C3118 0.950 . S
H3107 C3119 0.950 . S
C3108 H3100 0.950 . S
C3108 C3109 1.386 . S
C3108 C3110 1.391 . S
C3109 C3108 1.386 . S
C3109 C3113 1.393 . S
C3110 H3102 0.950 . S
C3110 C3108 1.391 . S
C3110 C3111 1.400 . S
C3111 C3110 1.400 . S
C3111 C3112 1.398 . S
C3111 C3117 1.491 . S
C3112 H3103 0.950 . S
C3112 C3111 1.398 . S
C3112 C3113 1.391 . S
C3113 H3101 0.950 . S
C3113 C3109 1.393 . S
C3113 C3112 1.391 . S
C3114 H3104 0.950 . S
C3114 C3115 1.386 . S
C3114 C3116 1.391 . S
C3115 C3114 1.386 . S
C3115 C3119 1.393 . S
C3116 H3105 0.950 . S
C3116 C3114 1.391 . S
C3116 C3117 1.400 . S
C3117 C3111 1.491 . S
C3117 C3116 1.400 . S
C3117 C3118 1.398 . S
C3118 H3106 0.950 . S
C3118 C3117 1.398 . S
C3118 C3119 1.391 . S
C3119 H3107 0.950 . S
C3119 C3115 1.393 . S
C3119 C3118 1.391 . S
H3120 C3128 0.950 . S
H3121 C3133 0.950 . S
H3122 C3130 0.950 . S
H3123 C3132 0.950 . S
H3124 C3134 0.950 . S
H3125 C3136 0.950 . S
H3126 C3138 0.950 . S
H3127 C3139 0.950 . S
C3128 H3120 0.950 . S
C3128 C3129 1.386 . S
C3128 C3130 1.391 . S
C3129 C3128 1.386 . S
C3129 C3133 1.393 . S
C3130 H3122 0.950 . S
C3130 C3128 1.391 . S
C3130 C3131 1.400 . S
C3131 C3130 1.400 . S
C3131 C3132 1.398 . S
C3131 C3137 1.491 . S
C3132 H3123 0.950 . S
C3132 C3131 1.398 . S
C3132 C3133 1.391 . S
C3133 H3121 0.950 . S
C3133 C3129 1.393 . S
C3133 C3132 1.391 . S
C3134 H3124 0.950 . S
C3134 C3135 1.386 . S
C3134 C3136 1.391 . S
C3135 C3134 1.386 . S
C3135 C3139 1.393 . S
C3136 H3125 0.950 . S
C3136 C3134 1.391 . S
C3136 C3137 1.400 1_556 S
C3137 C3131 1.491 . S
C3137 C3136 1.400 1_554 S
C3137 C3138 1.398 . S
C3138 H3126 0.950 . S
C3138 C3137 1.398 . S
C3138 C3139 1.391 1_554 S
C3139 H3127 0.950 . S
C3139 C3135 1.393 . S
C3139 C3138 1.391 1_556 S
H3140 C3148 0.950 . S
H3141 C3153 0.950 . S
H3142 C3150 0.950 . S
H3143 C3152 0.950 . S
H3144 C3154 0.950 . S
H3145 C3156 0.950 . S
H3146 C3158 0.950 . S
H3147 C3159 0.950 . S
C3148 H3140 0.950 . S
C3148 C3149 1.386 . S
C3148 C3150 1.391 1_556 S
C3149 C3148 1.386 . S
C3149 C3153 1.393 . S
C3150 H3142 0.950 . S
C3150 C3148 1.391 1_554 S
C3150 C3151 1.400 . S
C3151 C3150 1.400 . S
C3151 C3152 1.398 1_554 S
C3151 C3157 1.491 . S
C3152 H3143 0.950 . S
C3152 C3151 1.398 1_556 S
C3152 C3153 1.391 . S
C3153 H3141 0.950 . S
C3153 C3149 1.393 . S
C3153 C3152 1.391 . S
C3154 H3144 0.950 . S
C3154 C3155 1.386 . S
C3154 C3156 1.391 . S
C3155 C3154 1.386 . S
C3155 C3159 1.393 . S
C3156 H3145 0.950 . S
C3156 C3154 1.391 . S
C3156 C3157 1.400 . S
C3157 C3151 1.491 . S
C3157 C3156 1.400 . S
C3157 C3158 1.398 . S
C3158 H3146 0.950 . S
C3158 C3157 1.398 . S
C3158 C3159 1.391 . S
C3159 H3147 0.950 . S
C3159 C3155 1.393 . S
C3159 C3158 1.391 . S
H3160 C3168 0.950 . S
H3161 C3173 0.950 . S
H3162 C3170 0.950 . S
H3163 C3172 0.950 . S
H3164 C3174 0.950 . S
H3165 C3176 0.950 . S
H3166 C3178 0.950 . S
H3167 C3179 0.950 . S
C3168 H3160 0.950 . S
C3168 C3169 1.386 . S
C3168 C3170 1.391 1_556 S
C3169 C3168 1.386 . S
C3169 C3173 1.393 . S
C3170 H3162 0.950 . S
C3170 C3168 1.391 1_554 S
C3170 C3171 1.400 . S
C3171 C3170 1.400 . S
C3171 C3172 1.398 1_554 S
C3171 C3177 1.491 . S
C3172 H3163 0.950 . S
C3172 C3171 1.398 1_556 S
C3172 C3173 1.391 . S
C3173 H3161 0.950 . S
C3173 C3169 1.393 . S
C3173 C3172 1.391 . S
C3174 H3164 0.950 . S
C3174 C3175 1.386 . S
C3174 C3176 1.391 . S
C3175 C3174 1.386 . S
C3175 C3179 1.393 . S
C3176 H3165 0.950 . S
C3176 C3174 1.391 . S
C3176 C3177 1.400 . S
C3177 C3171 1.491 . S
C3177 C3176 1.400 . S
C3177 C3178 1.398 . S
C3178 H3166 0.950 . S
C3178 C3177 1.398 . S
C3178 C3179 1.391 . S
C3179 H3167 0.950 . S
C3179 C3175 1.393 . S
C3179 C3178 1.391 . S
H3180 C3188 0.950 . S
H3181 C3193 0.950 . S
H3182 C3190 0.950 . S
H3183 C3192 0.950 . S
H3184 C3194 0.950 . S
H3185 C3196 0.950 . S
H3186 C3198 0.950 . S
H3187 C3199 0.950 . S
C3188 H3180 0.950 . S
C3188 C3189 1.386 . S
C3188 C3190 1.391 . S
C3189 C3188 1.386 . S
C3189 C3193 1.393 . S
C3190 H3182 0.950 . S
C3190 C3188 1.391 . S
C3190 C3191 1.400 . S
C3191 C3190 1.400 . S
C3191 C3192 1.398 . S
C3191 C3197 1.491 . S
C3192 H3183 0.950 . S
C3192 C3191 1.398 . S
C3192 C3193 1.391 . S
C3193 H3181 0.950 . S
C3193 C3189 1.393 . S
C3193 C3192 1.391 . S
C3194 H3184 0.950 . S
C3194 C3195 1.386 . S
C3194 C3196 1.391 . S
C3195 C3194 1.386 . S
C3195 C3199 1.393 . S
C3196 H3185 0.950 . S
C3196 C3194 1.391 . S
C3196 C3197 1.400 . S
C3197 C3191 1.491 . S
C3197 C3196 1.400 . S
C3197 C3198 1.398 . S
C3198 H3186 0.950 . S
C3198 C3197 1.398 . S
C3198 C3199 1.391 . S
C3199 H3187 0.950 . S
C3199 C3195 1.393 . S
C3199 C3198 1.391 . S
H3200 C3208 0.950 . S
H3201 C3213 0.950 . S
H3202 C3210 0.950 . S
H3203 C3212 0.950 . S
H3204 C3214 0.950 . S
H3205 C3216 0.950 . S
H3206 C3218 0.950 . S
H3207 C3219 0.950 . S
C3208 H3200 0.950 . S
C3208 C3209 1.386 . S
C3208 C3210 1.391 . S
C3209 C3208 1.386 . S
C3209 C3213 1.393 . S
C3210 H3202 0.950 . S
C3210 C3208 1.391 . S
C3210 C3211 1.400 . S
C3211 C3210 1.400 . S
C3211 C3212 1.398 . S
C3211 C3217 1.491 . S
C3212 H3203 0.950 . S
C3212 C3211 1.398 . S
C3212 C3213 1.391 . S
C3213 H3201 0.950 . S
C3213 C3209 1.393 . S
C3213 C3212 1.391 . S
C3214 H3204 0.950 . S
C3214 C3215 1.386 . S
C3214 C3216 1.391 . S
C3215 C3214 1.386 . S
C3215 C3219 1.393 . S
C3216 H3205 0.950 . S
C3216 C3214 1.391 . S
C3216 C3217 1.400 . S
C3217 C3211 1.491 . S
C3217 C3216 1.400 . S
C3217 C3218 1.398 . S
C3218 H3206 0.950 . S
C3218 C3217 1.398 . S
C3218 C3219 1.391 . S
C3219 H3207 0.950 . S
C3219 C3215 1.393 . S
C3219 C3218 1.391 . S
H3220 C3228 0.950 . S
H3221 C3233 0.950 . S
H3222 C3230 0.950 . S
H3223 C3232 0.950 . S
H3224 C3234 0.950 . S
H3225 C3236 0.950 . S
H3226 C3238 0.950 . S
H3227 C3239 0.950 . S
C3228 H3220 0.950 . S
C3228 C3229 1.386 . S
C3228 C3230 1.391 . S
C3229 C3228 1.386 . S
C3229 C3233 1.393 . S
C3230 H3222 0.950 . S
C3230 C3228 1.391 . S
C3230 C3231 1.400 . S
C3231 C3230 1.400 . S
C3231 C3232 1.398 . S
C3231 C3237 1.491 . S
C3232 H3223 0.950 . S
C3232 C3231 1.398 . S
C3232 C3233 1.391 . S
C3233 H3221 0.950 . S
C3233 C3229 1.393 . S
C3233 C3232 1.391 . S
C3234 H3224 0.950 . S
C3234 C3235 1.386 . S
C3234 C3236 1.391 . S
C3235 C3234 1.386 . S
C3235 C3239 1.393 . S
C3236 H3225 0.950 . S
C3236 C3234 1.391 . S
C3236 C3237 1.400 . S
C3237 C3231 1.491 . S
C3237 C3236 1.400 . S
C3237 C3238 1.398 . S
C3238 H3226 0.950 . S
C3238 C3237 1.398 . S
C3238 C3239 1.391 . S
C3239 H3227 0.950 . S
C3239 C3235 1.393 . S
C3239 C3238 1.391 . S
H3240 C3248 0.950 . S
H3241 C3253 0.950 . S
H3242 C3250 0.950 . S
H3243 C3252 0.950 . S
H3244 C3254 0.950 . S
H3245 C3256 0.950 . S
H3246 C3258 0.950 . S
H3247 C3259 0.950 . S
C3248 H3240 0.950 . S
C3248 C3249 1.386 . S
C3248 C3250 1.391 . S
C3249 C3248 1.386 . S
C3249 C3253 1.393 . S
C3250 H3242 0.950 . S
C3250 C3248 1.391 . S
C3250 C3251 1.400 . S
C3251 C3250 1.400 . S
C3251 C3252 1.398 . S
C3251 C3257 1.491 1_455 S
C3252 H3243 0.950 . S
C3252 C3251 1.398 . S
C3252 C3253 1.391 . S
C3253 H3241 0.950 . S
C3253 C3249 1.393 . S
C3253 C3252 1.391 . S
C3254 H3244 0.950 . S
C3254 C3255 1.386 . S
C3254 C3256 1.391 . S
C3255 C3254 1.386 . S
C3255 C3259 1.393 . S
C3256 H3245 0.950 . S
C3256 C3254 1.391 . S
C3256 C3257 1.400 . S
C3257 C3251 1.491 1_655 S
C3257 C3256 1.400 . S
C3257 C3258 1.398 . S
C3258 H3246 0.950 . S
C3258 C3257 1.398 . S
C3258 C3259 1.391 . S
C3259 H3247 0.950 . S
C3259 C3255 1.393 . S
C3259 C3258 1.391 . S
H3260 C3268 0.950 . S
H3261 C3273 0.950 . S
H3262 C3270 0.950 . S
H3263 C3272 0.950 . S
H3264 C3274 0.950 . S
H3265 C3276 0.950 . S
H3266 C3278 0.950 . S
H3267 C3279 0.950 . S
C3268 H3260 0.950 . S
C3268 C3269 1.386 . S
C3268 C3270 1.391 . S
C3269 C3268 1.386 . S
C3269 C3273 1.393 . S
C3270 H3262 0.950 . S
C3270 C3268 1.391 . S
C3270 C3271 1.400 . S
C3271 C3270 1.400 . S
C3271 C3272 1.398 . S
C3271 C3277 1.491 . S
C3272 H3263 0.950 . S
C3272 C3271 1.398 . S
C3272 C3273 1.391 . S
C3273 H3261 0.950 . S
C3273 C3269 1.393 . S
C3273 C3272 1.391 . S
C3274 H3264 0.950 . S
C3274 C3275 1.386 . S
C3274 C3276 1.391 . S
C3275 C3274 1.386 . S
C3275 C3279 1.393 . S
C3276 H3265 0.950 . S
C3276 C3274 1.391 . S
C3276 C3277 1.400 . S
C3277 C3271 1.491 . S
C3277 C3276 1.400 . S
C3277 C3278 1.398 . S
C3278 H3266 0.950 . S
C3278 C3277 1.398 . S
C3278 C3279 1.391 . S
C3279 H3267 0.950 . S
C3279 C3275 1.393 . S
C3279 C3278 1.391 . S
H3280 C3288 0.950 . S
H3281 C3293 0.950 . S
H3282 C3290 0.950 . S
H3283 C3292 0.950 1_565 S
H3284 C3294 0.950 . S
H3285 C3296 0.950 . S
H3286 C3298 0.950 1_545 S
H3287 C3299 0.950 . S
C3288 H3280 0.950 . S
C3288 C3289 1.386 . S
C3288 C3290 1.391 . S
C3289 C3288 1.386 . S
C3289 C3293 1.393 . S
C3290 H3282 0.950 . S
C3290 C3288 1.391 . S
C3290 C3291 1.400 . S
C3291 C3290 1.400 . S
C3291 C3292 1.398 . S
C3291 C3297 1.491 1_545 S
C3292 H3283 0.950 1_545 S
C3292 C3291 1.398 . S
C3292 C3293 1.391 . S
C3293 H3281 0.950 . S
C3293 C3289 1.393 . S
C3293 C3292 1.391 . S
C3294 H3284 0.950 . S
C3294 C3295 1.386 . S
C3294 C3296 1.391 . S
C3295 C3294 1.386 . S
C3295 C3299 1.393 . S
C3296 H3285 0.950 . S
C3296 C3294 1.391 . S
C3296 C3297 1.400 . S
C3297 C3291 1.491 1_565 S
C3297 C3296 1.400 . S
C3297 C3298 1.398 . S
C3298 H3286 0.950 1_565 S
C3298 C3297 1.398 . S
C3298 C3299 1.391 . S
C3299 H3287 0.950 . S
C3299 C3295 1.393 . S
C3299 C3298 1.391 . S
H3300 C3308 0.950 . S
H3301 C3313 0.950 . S
H3302 C3310 0.950 1_545 S
H3303 C3312 0.950 . S
H3304 C3314 0.950 . S
H3305 C3316 0.950 1_565 S
H3306 C3318 0.950 . S
H3307 C3319 0.950 . S
C3308 H3300 0.950 . S
C3308 C3309 1.386 . S
C3308 C3310 1.391 . S
C3309 C3308 1.386 . S
C3309 C3313 1.393 . S
C3310 H3302 0.950 1_565 S
C3310 C3308 1.391 . S
C3310 C3311 1.400 . S
C3311 C3310 1.400 . S
C3311 C3312 1.398 . S
C3311 C3317 1.491 1_565 S
C3312 H3303 0.950 . S
C3312 C3311 1.398 . S
C3312 C3313 1.391 . S
C3313 H3301 0.950 . S
C3313 C3309 1.393 . S
C3313 C3312 1.391 . S
C3314 H3304 0.950 . S
C3314 C3315 1.386 . S
C3314 C3316 1.391 . S
C3315 C3314 1.386 . S
C3315 C3319 1.393 . S
C3316 H3305 0.950 1_545 S
C3316 C3314 1.391 . S
C3316 C3317 1.400 . S
C3317 C3311 1.491 1_545 S
C3317 C3316 1.400 . S
C3317 C3318 1.398 . S
C3318 H3306 0.950 . S
C3318 C3317 1.398 . S
C3318 C3319 1.391 . S
C3319 H3307 0.950 . S
C3319 C3315 1.393 . S
C3319 C3318 1.391 . S
H3320 C3328 0.950 . S
H3321 C3333 0.950 . S
H3322 C3330 0.950 . S
H3323 C3332 0.952 1_455 S
H3324 C3334 0.950 . S
H3325 C3336 0.950 . S
H3326 C3338 0.949 . S
H3327 C3339 0.950 . S
C3328 H3320 0.950 . S
C3328 C3329 1.386 . S
C3328 C3330 1.391 . S
C3329 C3328 1.386 . S
C3329 C3333 1.393 . S
C3330 H3322 0.950 . S
C3330 C3328 1.391 . S
C3330 C3331 1.400 . S
C3331 C3330 1.400 . S
C3331 C3332 1.398 . S
C3331 C3337 1.491 1_655 S
C3332 H3323 0.952 1_655 S
C3332 C3331 1.398 . S
C3332 C3333 1.391 . S
C3333 H3321 0.950 . S
C3333 C3329 1.393 . S
C3333 C3332 1.391 . S
C3334 H3324 0.950 . S
C3334 C3335 1.386 . S
C3334 C3336 1.391 . S
C3335 C3334 1.386 . S
C3335 C3339 1.393 . S
C3336 H3325 0.950 . S
C3336 C3334 1.391 . S
C3336 C3337 1.400 . S
C3337 C3331 1.491 1_455 S
C3337 C3336 1.400 . S
C3337 C3338 1.398 . S
C3338 H3326 0.949 . S
C3338 C3337 1.398 . S
C3338 C3339 1.391 . S
C3339 H3327 0.950 . S
C3339 C3335 1.393 . S
C3339 C3338 1.391 . S
H3340 C3348 0.950 . S
H3341 C3353 0.950 . S
H3342 C3350 0.950 . S
H3343 C3352 0.950 . S
H3344 C3354 0.950 . S
H3345 C3356 0.950 . S
H3346 C3358 0.950 . S
H3347 C3359 0.950 . S
C3348 H3340 0.950 . S
C3348 C3349 1.386 . S
C3348 C3350 1.391 . S
C3349 C3348 1.386 . S
C3349 C3353 1.393 . S
C3350 H3342 0.950 . S
C3350 C3348 1.391 . S
C3350 C3351 1.400 . S
C3351 C3350 1.400 . S
C3351 C3352 1.398 . S
C3351 C3357 1.491 . S
C3352 H3343 0.950 . S
C3352 C3351 1.398 . S
C3352 C3353 1.391 . S
C3353 H3341 0.950 . S
C3353 C3349 1.393 . S
C3353 C3352 1.391 . S
C3354 H3344 0.950 . S
C3354 C3355 1.386 . S
C3354 C3356 1.391 . S
C3355 C3354 1.386 . S
C3355 C3359 1.393 . S
C3356 H3345 0.950 . S
C3356 C3354 1.391 . S
C3356 C3357 1.400 . S
C3357 C3351 1.491 . S
C3357 C3356 1.400 . S
C3357 C3358 1.398 . S
C3358 H3346 0.950 . S
C3358 C3357 1.398 . S
C3358 C3359 1.391 . S
C3359 H3347 0.950 . S
C3359 C3355 1.393 . S
C3359 C3358 1.391 . S
H3360 C3368 0.950 . S
H3361 C3373 0.950 . S
H3362 C3370 0.950 . S
H3363 C3372 0.950 . S
H3364 C3374 0.950 . S
H3365 C3376 0.950 . S
H3366 C3378 0.950 . S
H3367 C3379 0.950 . S
C3368 H3360 0.950 . S
C3368 C3369 1.386 . S
C3368 C3370 1.391 . S
C3369 C3368 1.386 . S
C3369 C3373 1.393 . S
C3370 H3362 0.950 . S
C3370 C3368 1.391 . S
C3370 C3371 1.400 . S
C3371 C3370 1.400 . S
C3371 C3372 1.398 . S
C3371 C3377 1.491 . S
C3372 H3363 0.950 . S
C3372 C3371 1.398 . S
C3372 C3373 1.391 . S
C3373 H3361 0.950 . S
C3373 C3369 1.393 . S
C3373 C3372 1.391 . S
C3374 H3364 0.950 . S
C3374 C3375 1.386 . S
C3374 C3376 1.391 . S
C3375 C3374 1.386 . S
C3375 C3379 1.393 . S
C3376 H3365 0.950 . S
C3376 C3374 1.391 . S
C3376 C3377 1.400 . S
C3377 C3371 1.491 . S
C3377 C3376 1.400 . S
C3377 C3378 1.398 . S
C3378 H3366 0.950 . S
C3378 C3377 1.398 . S
C3378 C3379 1.391 . S
C3379 H3367 0.950 . S
C3379 C3375 1.393 . S
C3379 C3378 1.391 . S
H3380 C3388 0.950 . S
H3381 C3393 0.950 . S
H3382 C3390 0.950 . S
H3383 C3392 0.950 . S
H3384 C3394 0.950 . S
H3385 C3396 0.950 . S
H3386 C3398 0.950 . S
H3387 C3399 0.950 . S
C3388 H3380 0.950 . S
C3388 C3389 1.386 . S
C3388 C3390 1.391 . S
C3389 C3388 1.386 . S
C3389 C3393 1.393 . S
C3390 H3382 0.950 . S
C3390 C3388 1.391 . S
C3390 C3391 1.400 . S
C3391 C3390 1.400 . S
C3391 C3392 1.398 . S
C3391 C3397 1.491 . S
C3392 H3383 0.950 . S
C3392 C3391 1.398 . S
C3392 C3393 1.391 . S
C3393 H3381 0.950 . S
C3393 C3389 1.393 . S
C3393 C3392 1.391 . S
C3394 H3384 0.950 . S
C3394 C3395 1.386 . S
C3394 C3396 1.391 . S
C3395 C3394 1.386 . S
C3395 C3399 1.393 . S
C3396 H3385 0.950 . S
C3396 C3394 1.391 . S
C3396 C3397 1.400 . S
C3397 C3391 1.491 . S
C3397 C3396 1.400 . S
C3397 C3398 1.398 . S
C3398 H3386 0.950 . S
C3398 C3397 1.398 . S
C3398 C3399 1.391 . S
C3399 H3387 0.950 . S
C3399 C3395 1.393 . S
C3399 C3398 1.391 . S
H3400 C3408 0.950 . S
H3401 C3413 0.950 . S
H3402 C3410 0.950 . S
H3403 C3412 0.950 . S
H3404 C3414 0.950 . S
H3405 C3416 0.950 . S
H3406 C3418 0.950 . S
H3407 C3419 0.950 . S
C3408 H3400 0.950 . S
C3408 C3409 1.386 . S
C3408 C3410 1.391 . S
C3409 C3408 1.386 . S
C3409 C3413 1.393 . S
C3410 H3402 0.950 . S
C3410 C3408 1.391 . S
C3410 C3411 1.400 . S
C3411 C3410 1.400 . S
C3411 C3412 1.398 . S
C3411 C3417 1.491 . S
C3412 H3403 0.950 . S
C3412 C3411 1.398 . S
C3412 C3413 1.391 . S
C3413 H3401 0.950 . S
C3413 C3409 1.393 . S
C3413 C3412 1.391 . S
C3414 H3404 0.950 . S
C3414 C3415 1.386 . S
C3414 C3416 1.391 . S
C3415 C3414 1.386 . S
C3415 C3419 1.393 . S
C3416 H3405 0.950 . S
C3416 C3414 1.391 . S
C3416 C3417 1.400 . S
C3417 C3411 1.491 . S
C3417 C3416 1.400 . S
C3417 C3418 1.398 . S
C3418 H3406 0.950 . S
C3418 C3417 1.398 . S
C3418 C3419 1.391 . S
C3419 H3407 0.950 . S
C3419 C3415 1.393 . S
C3419 C3418 1.391 . S
H3420 C3428 0.950 . S
H3421 C3433 0.950 . S
H3422 C3430 0.950 . S
H3423 C3432 0.950 . S
H3424 C3434 0.950 . S
H3425 C3436 0.950 . S
H3426 C3438 0.950 . S
H3427 C3439 0.950 . S
C3428 H3420 0.950 . S
C3428 C3429 1.386 . S
C3428 C3430 1.391 . S
C3429 C3428 1.386 . S
C3429 C3433 1.393 . S
C3430 H3422 0.950 . S
C3430 C3428 1.391 . S
C3430 C3431 1.400 . S
C3431 C3430 1.400 . S
C3431 C3432 1.398 . S
C3431 C3437 1.491 . S
C3432 H3423 0.950 . S
C3432 C3431 1.398 . S
C3432 C3433 1.391 . S
C3433 H3421 0.950 . S
C3433 C3429 1.393 . S
C3433 C3432 1.391 . S
C3434 H3424 0.950 . S
C3434 C3435 1.386 . S
C3434 C3436 1.391 . S
C3435 C3434 1.386 . S
C3435 C3439 1.393 . S
C3436 H3425 0.950 . S
C3436 C3434 1.391 . S
C3436 C3437 1.400 . S
C3437 C3431 1.491 . S
C3437 C3436 1.400 . S
C3437 C3438 1.398 . S
C3438 H3426 0.950 . S
C3438 C3437 1.398 . S
C3438 C3439 1.391 . S
C3439 H3427 0.950 . S
C3439 C3435 1.393 . S
C3439 C3438 1.391 . S
H3440 C3448 0.950 . S
H3441 C3453 0.950 . S
H3442 C3450 0.950 . S
H3443 C3452 0.950 . S
H3444 C3454 0.950 . S
H3445 C3456 0.950 . S
H3446 C3458 0.950 . S
H3447 C3459 0.950 . S
C3448 H3440 0.950 . S
C3448 C3449 1.386 . S
C3448 C3450 1.391 . S
C3449 C3448 1.386 . S
C3449 C3453 1.393 1_556 S
C3450 H3442 0.950 . S
C3450 C3448 1.391 . S
C3450 C3451 1.400 . S
C3451 C3450 1.400 . S
C3451 C3452 1.398 . S
C3451 C3457 1.491 . S
C3452 H3443 0.950 . S
C3452 C3451 1.398 . S
C3452 C3453 1.391 1_556 S
C3453 H3441 0.950 . S
C3453 C3449 1.393 1_554 S
C3453 C3452 1.391 1_554 S
C3454 H3444 0.950 . S
C3454 C3455 1.386 . S
C3454 C3456 1.391 . S
C3455 C3454 1.386 . S
C3455 C3459 1.393 . S
C3456 H3445 0.950 . S
C3456 C3454 1.391 . S
C3456 C3457 1.400 . S
C3457 C3451 1.491 . S
C3457 C3456 1.400 . S
C3457 C3458 1.398 . S
C3458 H3446 0.950 . S
C3458 C3457 1.398 . S
C3458 C3459 1.391 . S
C3459 H3447 0.950 . S
C3459 C3455 1.393 . S
C3459 C3458 1.391 . S
H3460 C3468 0.950 . S
H3461 C3473 0.950 . S
H3462 C3470 0.950 . S
H3463 C3472 0.950 . S
H3464 C3474 0.950 . S
H3465 C3476 0.950 . S
H3466 C3478 0.950 . S
H3467 C3479 0.950 . S
C3468 H3460 0.950 . S
C3468 C3469 1.386 . S
C3468 C3470 1.391 . S
C3469 C3468 1.386 . S
C3469 C3473 1.393 1_556 S
C3470 H3462 0.950 . S
C3470 C3468 1.391 . S
C3470 C3471 1.400 . S
C3471 C3470 1.400 . S
C3471 C3472 1.398 . S
C3471 C3477 1.491 . S
C3472 H3463 0.950 . S
C3472 C3471 1.398 . S
C3472 C3473 1.391 1_556 S
C3473 H3461 0.950 . S
C3473 C3469 1.393 1_554 S
C3473 C3472 1.391 1_554 S
C3474 H3464 0.950 . S
C3474 C3475 1.386 . S
C3474 C3476 1.391 . S
C3475 C3474 1.386 . S
C3475 C3479 1.393 . S
C3476 H3465 0.950 . S
C3476 C3474 1.391 . S
C3476 C3477 1.400 . S
C3477 C3471 1.491 . S
C3477 C3476 1.400 . S
C3477 C3478 1.398 . S
C3478 H3466 0.950 . S
C3478 C3477 1.398 . S
C3478 C3479 1.391 . S
C3479 H3467 0.950 . S
C3479 C3475 1.393 . S
C3479 C3478 1.391 . S
H3480 C3488 0.950 . S
H3481 C3493 0.950 . S
H3482 C3490 0.950 . S
H3483 C3492 0.950 . S
H3484 C3494 0.950 . S
H3485 C3496 0.950 . S
H3486 C3498 0.950 . S
H3487 C3499 0.950 . S
C3488 H3480 0.950 . S
C3488 C3489 1.386 . S
C3488 C3490 1.391 . S
C3489 C3488 1.386 . S
C3489 C3493 1.393 . S
C3490 H3482 0.950 . S
C3490 C3488 1.391 . S
C3490 C3491 1.400 . S
C3491 C3490 1.400 . S
C3491 C3492 1.398 . S
C3491 C3497 1.491 . S
C3492 H3483 0.950 . S
C3492 C3491 1.398 . S
C3492 C3493 1.391 . S
C3493 H3481 0.950 . S
C3493 C3489 1.393 . S
C3493 C3492 1.391 . S
C3494 H3484 0.950 . S
C3494 C3495 1.386 . S
C3494 C3496 1.391 . S
C3495 C3494 1.386 . S
C3495 C3499 1.393 . S
C3496 H3485 0.950 . S
C3496 C3494 1.391 . S
C3496 C3497 1.400 . S
C3497 C3491 1.491 . S
C3497 C3496 1.400 . S
C3497 C3498 1.398 . S
C3498 H3486 0.950 . S
C3498 C3497 1.398 . S
C3498 C3499 1.391 . S
C3499 H3487 0.950 . S
C3499 C3495 1.393 . S
C3499 C3498 1.391 . S
H3500 C3508 0.950 . S
H3501 C3513 0.950 . S
H3502 C3510 0.950 . S
H3503 C3512 0.950 . S
H3504 C3514 0.950 . S
H3505 C3516 0.950 . S
H3506 C3518 0.950 . S
H3507 C3519 0.950 . S
C3508 H3500 0.950 . S
C3508 C3509 1.386 . S
C3508 C3510 1.391 . S
C3509 C3508 1.386 . S
C3509 C3513 1.393 . S
C3510 H3502 0.950 . S
C3510 C3508 1.391 . S
C3510 C3511 1.400 . S
C3511 C3510 1.400 . S
C3511 C3512 1.398 . S
C3511 C3517 1.491 . S
C3512 H3503 0.950 . S
C3512 C3511 1.398 . S
C3512 C3513 1.391 . S
C3513 H3501 0.950 . S
C3513 C3509 1.393 . S
C3513 C3512 1.391 . S
C3514 H3504 0.950 . S
C3514 C3515 1.386 . S
C3514 C3516 1.391 . S
C3515 C3514 1.386 . S
C3515 C3519 1.393 . S
C3516 H3505 0.950 . S
C3516 C3514 1.391 . S
C3516 C3517 1.400 . S
C3517 C3511 1.491 . S
C3517 C3516 1.400 . S
C3517 C3518 1.398 . S
C3518 H3506 0.950 . S
C3518 C3517 1.398 . S
C3518 C3519 1.391 . S
C3519 H3507 0.950 . S
C3519 C3515 1.393 . S
C3519 C3518 1.391 . S
H3520 C3528 0.950 . S
H3521 C3533 0.950 . S
H3522 C3530 0.950 . S
H3523 C3532 0.950 . S
H3524 C3534 0.950 . S
H3525 C3536 0.950 . S
H3526 C3538 0.950 . S
H3527 C3539 0.950 . S
C3528 H3520 0.950 . S
C3528 C3529 1.386 . S
C3528 C3530 1.391 . S
C3529 C3528 1.386 . S
C3529 C3533 1.393 . S
C3530 H3522 0.950 . S
C3530 C3528 1.391 . S
C3530 C3531 1.400 . S
C3531 C3530 1.400 . S
C3531 C3532 1.398 . S
C3531 C3537 1.491 . S
C3532 H3523 0.950 . S
C3532 C3531 1.398 . S
C3532 C3533 1.391 . S
C3533 H3521 0.950 . S
C3533 C3529 1.393 . S
C3533 C3532 1.391 . S
C3534 H3524 0.950 . S
C3534 C3535 1.386 . S
C3534 C3536 1.391 . S
C3535 C3534 1.386 . S
C3535 C3539 1.393 . S
C3536 H3525 0.950 . S
C3536 C3534 1.391 . S
C3536 C3537 1.400 . S
C3537 C3531 1.491 . S
C3537 C3536 1.400 . S
C3537 C3538 1.398 . S
C3538 H3526 0.950 . S
C3538 C3537 1.398 . S
C3538 C3539 1.391 . S
C3539 H3527 0.950 . S
C3539 C3535 1.393 . S
C3539 C3538 1.391 . S
H3540 C3548 0.950 . S
H3541 C3553 0.950 . S
H3542 C3550 0.950 . S
H3543 C3552 0.950 . S
H3544 C3554 0.950 . S
H3545 C3556 0.950 . S
H3546 C3558 0.950 . S
H3547 C3559 0.950 . S
C3548 H3540 0.950 . S
C3548 C3549 1.386 . S
C3548 C3550 1.391 . S
C3549 C3548 1.386 . S
C3549 C3553 1.393 . S
C3550 H3542 0.950 . S
C3550 C3548 1.391 . S
C3550 C3551 1.400 . S
C3551 C3550 1.400 . S
C3551 C3552 1.398 . S
C3551 C3557 1.491 . S
C3552 H3543 0.950 . S
C3552 C3551 1.398 . S
C3552 C3553 1.391 . S
C3553 H3541 0.950 . S
C3553 C3549 1.393 . S
C3553 C3552 1.391 . S
C3554 H3544 0.950 . S
C3554 C3555 1.386 . S
C3554 C3556 1.391 . S
C3555 C3554 1.386 . S
C3555 C3559 1.393 . S
C3556 H3545 0.950 . S
C3556 C3554 1.391 . S
C3556 C3557 1.400 . S
C3557 C3551 1.491 . S
C3557 C3556 1.400 . S
C3557 C3558 1.398 . S
C3558 H3546 0.950 . S
C3558 C3557 1.398 . S
C3558 C3559 1.391 . S
C3559 H3547 0.950 . S
C3559 C3555 1.393 . S
C3559 C3558 1.391 . S
H3560 C3568 0.950 . S
H3561 C3573 0.950 . S
H3562 C3570 0.950 . S
H3563 C3572 0.950 . S
H3564 C3574 0.950 . S
H3565 C3576 0.950 . S
H3566 C3578 0.950 . S
H3567 C3579 0.950 . S
C3568 H3560 0.950 . S
C3568 C3569 1.386 . S
C3568 C3570 1.391 . S
C3569 C3568 1.386 . S
C3569 C3573 1.393 . S
C3570 H3562 0.950 . S
C3570 C3568 1.391 . S
C3570 C3571 1.400 . S
C3571 C3570 1.400 . S
C3571 C3572 1.398 . S
C3571 C3577 1.491 . S
C3572 H3563 0.950 . S
C3572 C3571 1.398 . S
C3572 C3573 1.391 . S
C3573 H3561 0.950 . S
C3573 C3569 1.393 . S
C3573 C3572 1.391 . S
C3574 H3564 0.950 . S
C3574 C3575 1.386 . S
C3574 C3576 1.391 . S
C3575 C3574 1.386 . S
C3575 C3579 1.393 . S
C3576 H3565 0.950 . S
C3576 C3574 1.391 . S
C3576 C3577 1.400 . S
C3577 C3571 1.491 . S
C3577 C3576 1.400 . S
C3577 C3578 1.398 . S
C3578 H3566 0.950 . S
C3578 C3577 1.398 . S
C3578 C3579 1.391 . S
C3579 H3567 0.950 . S
C3579 C3575 1.393 . S
C3579 C3578 1.391 . S
H3580 C3588 0.950 . S
H3581 C3593 0.950 . S
H3582 C3590 0.950 . S
H3583 C3592 0.950 . S
H3584 C3594 0.950 . S
H3585 C3596 0.950 . S
H3586 C3598 0.950 . S
H3587 C3599 0.950 . S
C3588 H3580 0.950 . S
C3588 C3589 1.386 . S
C3588 C3590 1.391 . S
C3589 C3588 1.386 . S
C3589 C3593 1.393 . S
C3590 H3582 0.950 . S
C3590 C3588 1.391 . S
C3590 C3591 1.400 . S
C3591 C3590 1.400 . S
C3591 C3592 1.398 . S
C3591 C3597 1.491 . S
C3592 H3583 0.950 . S
C3592 C3591 1.398 . S
C3592 C3593 1.391 . S
C3593 H3581 0.950 . S
C3593 C3589 1.393 . S
C3593 C3592 1.391 . S
C3594 H3584 0.950 . S
C3594 C3595 1.386 . S
C3594 C3596 1.391 . S
C3595 C3594 1.386 . S
C3595 C3599 1.393 . S
C3596 H3585 0.950 . S
C3596 C3594 1.391 . S
C3596 C3597 1.400 . S
C3597 C3591 1.491 . S
C3597 C3596 1.400 . S
C3597 C3598 1.398 . S
C3598 H3586 0.950 . S
C3598 C3597 1.398 . S
C3598 C3599 1.391 . S
C3599 H3587 0.950 . S
C3599 C3595 1.393 . S
C3599 C3598 1.391 . S
C1449 C609 1.917 . S
C1455 C9 1.920 . S
C1469 C649 1.917 . S
C1475 C49 1.924 . S
C1489 C89 1.929 . S
C1495 C689 1.938 . S
C1509 C129 1.935 . S
C1515 C969 1.940 . S
C1529 C169 1.929 . S
C1535 C1009 1.920 . S
C1549 C209 1.917 . S
C1555 C1049 1.920 . S
C1569 C1338 1.926 . S
C1575 C258 1.918 . S
C1589 C1378 1.933 . S
C1595 C298 1.940 . S
C1609 C338 1.933 . S
C1615 C1418 1.940 . S
C1629 C738 1.935 . S
C1635 C378 1.940 . S
C1649 C418 1.918 . S
C1655 C778 1.928 . S
C1669 C458 1.917 . S
C1675 C818 1.925 . S
C1689 C1089 1.938 . S
C1695 C489 1.939 . S
C1709 C529 1.933 . S
C1715 C1129 1.940 . S
C1729 C1169 1.938 . S
C1735 C569 1.940 . S
C1749 C1218 1.920 . S
C1755 C858 1.916 . S
C1769 C1258 1.921 . S
C1775 C898 1.917 . S
C1789 C938 1.920 . S
C1795 C1298 1.930 . S
C1809 C15 0.393 . S
C1815 C175 0.411 . S
C1829 C55 0.414 . S
C1835 C215 0.385 . S
C1849 C95 0.357 . S
C1855 C135 0.401 . S
C1869 C246 0.361 . S
C1875 C406 0.408 . S
C1889 C286 0.410 . S
C1895 C446 0.396 . S
C1909 C326 0.397 . S
C1915 C366 0.409 . S
C1929 C495 0.391 . S
C1935 C655 0.412 . S
C1949 C695 0.366 . S
C1955 C535 0.371 . S
C1969 C575 0.362 . S
C1975 C615 0.375 . S
C1989 C726 0.363 . S
C1995 C886 0.410 . S
C2009 C766 0.366 . S
C2015 C926 0.411 . S
C2029 C846 0.389 . S
C2035 C806 0.413 . S
C2049 C975 0.357 . S
C2055 C1135 0.402 . S
C2069 C1175 0.358 . S
C2075 C1015 0.383 . S
C2089 C1055 0.404 . S
C2095 C1095 0.403 . S
C2109 C1206 0.359 . S
C2115 C1366 0.405 . S
C2129 C1246 0.382 . S
C2135 C1406 0.359 . S
C2149 C1286 0.370 . S
C2155 C1326 0.366 . S
C2169 C415 1.588 . S
C2175 C19 1.646 . S
C2189 C59 1.650 . S
C2195 C455 1.611 . S
C2209 C99 1.636 . S
C2215 C375 1.608 . S
C2229 C139 1.652 . S
C2235 C335 1.606 . S
C2249 C179 1.651 . S
C2255 C255 1.608 . S
C2269 C295 1.588 . S
C2275 C219 1.640 . S
C2289 C250 1.649 . S
C2295 C166 1.591 . S
C2309 C206 1.602 . S
C2315 C290 1.635 . S
C2329 C330 1.636 . S
C2335 C126 1.590 . S
C2349 C370 1.638 . S
C2355 C86 1.611 . S
C2369 C6 1.612 . S
C2375 C410 1.649 . S
C2389 C46 1.595 . S
C2395 C450 1.635 . S
C2409 C895 1.612 . S
C2415 C499 1.649 . S
C2429 C935 1.609 . S
C2435 C539 1.637 . S
C2449 C855 1.601 . S
C2455 C579 1.652 . S
C2469 C815 1.587 . S
C2475 C619 1.641 1_554 S
C2489 C659 1.636 1_554 S
C2495 C735 1.590 . S
C2509 C775 1.609 . S
C2515 C699 1.637 1_554 S
C2529 C646 1.596 . S
C2535 C730 1.634 . S
C2549 C770 1.649 . S
C2555 C686 1.591 . S
C2569 C810 1.644 . S
C2575 C606 1.614 . S
C2589 C566 1.597 . S
C2595 C850 1.634 . S
C2609 C890 1.652 . S
C2615 C486 1.602 . S
C2629 C930 1.637 . S
C2635 C526 1.590 . S
C2649 C979 1.650 . S
C2655 C1375 1.610 . S
C2669 C1019 1.635 . S
C2675 C1415 1.594 . S
C2689 C1335 1.591 . S
C2695 C1059 1.649 . S
C2709 C1295 1.591 . S
C2715 C1099 1.649 . S
C2729 C1139 1.652 . S
C2735 C1215 1.600 . S
C2749 C1255 1.587 . S
C2755 C1179 1.643 . S
C2769 C1210 1.635 . S
C2775 C1126 1.593 1_556 S
C2789 C1166 1.597 1_556 S
C2795 C1250 1.652 . S
C2809 C1290 1.639 . S
C2815 C1086 1.587 1_556 S
C2829 C1330 1.640 . S
C2835 C1046 1.587 . S
C2849 C966 1.588 . S
C2855 C1370 1.639 . S
C2869 C1006 1.610 . S
C2875 C1410 1.652 . S
C2889 C10 3.335 . S
C2895 C170 3.336 . S
C2909 C210 3.332 . S
C2915 C50 3.335 . S
C2929 C90 3.331 . S
C2935 C130 3.334 . S
C2949 C259 3.336 1_556 S
C2955 C419 3.335 . S
C2969 C459 3.332 . S
C2975 C299 3.335 1_556 S
C2989 C339 3.331 1_556 S
C2995 C379 3.332 . S
C3009 C650 3.331 . S
C3015 C490 3.332 . S
C3029 C690 3.335 . S
C3035 C530 3.332 . S
C3049 C610 3.331 . S
C3055 C570 3.334 . S
C3069 C899 3.331 . S
C3075 C739 3.331 . S
C3089 C779 3.336 . S
C3095 C939 3.336 . S
C3109 C859 3.333 . S
C3115 C819 3.331 . S
C3129 C1130 3.336 . S
C3135 C970 3.334 . S
C3149 C1010 3.332 . S
C3155 C1170 3.334 . S
C3169 C1050 3.331 . S
C3175 C1090 3.333 . S
C3189 C1379 3.336 . S
C3195 C1219 3.333 . S
C3209 C1259 3.333 . S
C3215 C1419 3.331 . S
C3229 C1299 3.334 . S
C3235 C1339 3.336 . S
C3249 C18 0.705 . S
C3255 C249 0.705 . S
C3269 C58 0.690 . S
C3275 C289 0.690 . S
C3289 C329 0.725 . S
C3295 C98 0.725 . S
C3309 C369 0.659 . S
C3315 C138 0.659 . S
C3329 C178 0.683 . S
C3335 C409 0.683 . S
C3349 C218 0.735 . S
C3355 C449 0.735 . S
C3369 C729 0.751 . S
C3375 C498 0.751 . S
C3389 C538 0.708 . S
C3395 C769 0.708 . S
C3409 C809 0.659 . S
C3415 C578 0.659 . S
C3429 C849 0.743 . S
C3435 C618 0.743 . S
C3449 C889 0.752 . S
C3455 C658 0.752 . S
C3469 C929 0.751 . S
C3475 C698 0.751 . S
C3489 C1209 0.741 . S
C3495 C978 0.741 . S
C3509 C1018 0.741 . S
C3515 C1249 0.741 . S
C3529 C1289 0.660 . S
C3535 C1058 0.660 . S
C3549 C1329 0.746 . S
C3555 C1098 0.746 . S
C3569 C1369 0.752 . S
C3575 C1138 0.752 . S
C3589 C1178 0.721 . S
C3595 C1409 0.721 . S
