# Generated by pormake.
# Topology umx, (4)-cn, num edge types: 1
# Building blocks:
#     Node 0, Type 0, BuildingBlock: GALJAG_clean_sbu_0, # of connection points: 4
#     Node 1, Type 0, BuildingBlock: GALJAG_clean_sbu_0, # of connection points: 4
#     Node 2, Type 0, BuildingBlock: GALJAG_clean_sbu_0, # of connection points: 4
#     Node 3, Type 0, BuildingBlock: GALJAG_clean_sbu_0, # of connection points: 4
#     Node 4, Type 0, BuildingBlock: GALJAG_clean_sbu_0, # of connection points: 4
#     Node 5, Type 0, BuildingBlock: GALJAG_clean_sbu_0, # of connection points: 4
#     Node 6, Type 0, BuildingBlock: GALJAG_clean_sbu_0, # of connection points: 4
#     Node 7, Type 0, BuildingBlock: GALJAG_clean_sbu_0, # of connection points: 4
#     Edge 8, Type (0, 0), BuildingBlock: KIFKEQ_clean_linker_1, # of connection points: 2
#     Edge 9, Type (0, 0), BuildingBlock: KIFKEQ_clean_linker_1, # of connection points: 2
#     Edge 10, Type (0, 0), BuildingBlock: KIFKEQ_clean_linker_1, # of connection points: 2
#     Edge 11, Type (0, 0), BuildingBlock: KIFKEQ_clean_linker_1, # of connection points: 2
#     Edge 12, Type (0, 0), BuildingBlock: KIFKEQ_clean_linker_1, # of connection points: 2
#     Edge 13, Type (0, 0), BuildingBlock: KIFKEQ_clean_linker_1, # of connection points: 2
#     Edge 14, Type (0, 0), BuildingBlock: KIFKEQ_clean_linker_1, # of connection points: 2
#     Edge 15, Type (0, 0), BuildingBlock: KIFKEQ_clean_linker_1, # of connection points: 2
#     Edge 16, Type (0, 0), BuildingBlock: KIFKEQ_clean_linker_1, # of connection points: 2
#     Edge 17, Type (0, 0), BuildingBlock: KIFKEQ_clean_linker_1, # of connection points: 2
#     Edge 18, Type (0, 0), BuildingBlock: KIFKEQ_clean_linker_1, # of connection points: 2
#     Edge 19, Type (0, 0), BuildingBlock: KIFKEQ_clean_linker_1, # of connection points: 2
#     Edge 20, Type (0, 0), BuildingBlock: KIFKEQ_clean_linker_1, # of connection points: 2
#     Edge 21, Type (0, 0), BuildingBlock: KIFKEQ_clean_linker_1, # of connection points: 2
#     Edge 22, Type (0, 0), BuildingBlock: KIFKEQ_clean_linker_1, # of connection points: 2
#     Edge 23, Type (0, 0), BuildingBlock: KIFKEQ_clean_linker_1, # of connection points: 2
# Relax obj value: 0.096
# Max RMSD: 0.176
# Mean RMSD: 0.176
data_MOF--net-umx--node1-GALJAG_clean_sbu_0--edge1-KIFKEQ_clean_linker_1
_symmetry_space_group_name_H-M    P1
_symmetry_Int_Tables_number       1
_symmetry_cell_setting            triclinic
loop_
_symmetry_equiv_pos_as_xyz
'x, y, z'
_cell_length_a     39.677454
_cell_length_b     39.797863
_cell_length_c     29.035585
_cell_angle_alpha  89.723323
_cell_angle_beta   90.33531
_cell_angle_gamma 89.939097
loop_
_atom_site_label
_atom_site_type_symbol
_atom_site_fract_x
_atom_site_fract_y
_atom_site_fract_z
_atom_type_partial_charge
In0 In 0.16312 0.43597 0.02552 0.0
O1 O 0.18131 0.47436 0.07845 0.0
O2 O 0.15644 0.43003 0.10228 0.0
C3 C 0.18215 0.45684 0.9413 0.0
C4 C 0.20501 0.38353 0.03307 0.0
C5 C 0.0964 0.44566 0.01752 0.0
O6 O 0.18791 0.47425 0.97691 0.0
O7 O 0.16708 0.42947 0.94866 0.0
O8 O 0.1091 0.41644 0.01742 0.0
O9 O 0.11732 0.46931 0.02174 0.0
C10 C 0.17084 0.45732 0.11249 0.0
O11 O 0.17386 0.37936 0.02507 0.0
O12 O 0.21434 0.4137 0.03701 0.0
In13 In 0.56648 0.17431 0.52104 0.0
O14 O 0.62388 0.17184 0.51486 0.0
O15 O 0.601 0.21765 0.53671 0.0
C16 C 0.54687 0.10967 0.52021 0.0
C17 C 0.54506 0.18952 0.60617 0.0
C18 C 0.54976 0.19597 0.43573 0.0
O19 O 0.57722 0.11811 0.52661 0.0
O20 O 0.52675 0.13376 0.51343 0.0
O21 O 0.53311 0.2046 0.47081 0.0
O22 O 0.57451 0.17697 0.4441 0.0
C23 C 0.62781 0.20183 0.52808 0.0
O24 O 0.53084 0.20168 0.57059 0.0
O25 O 0.56934 0.16993 0.59829 0.0
In26 In 0.78464 0.51786 0.02135 0.0
O27 O 0.75502 0.4894 0.07744 0.0
O28 O 0.80196 0.51213 0.09483 0.0
C29 C 0.75516 0.50261 0.9401 0.0
C30 C 0.76004 0.57905 0.03925 0.0
C31 C 0.84892 0.50064 0.00487 0.0
O32 O 0.75822 0.48095 0.97191 0.0
O33 O 0.76648 0.53126 0.94975 0.0
O34 O 0.83916 0.53091 0.00471 0.0
O35 O 0.82611 0.47924 0.0124 0.0
C36 C 0.77661 0.49592 0.10846 0.0
O37 O 0.79017 0.575 0.02626 0.0
O38 O 0.74286 0.55246 0.04245 0.0
In39 In 0.44758 0.80631 0.56045 0.0
O40 O 0.48249 0.77975 0.61232 0.0
O41 O 0.44409 0.81232 0.63745 0.0
C42 C 0.46497 0.78769 0.475 0.0
C43 C 0.38929 0.77283 0.56301 0.0
C44 C 0.46599 0.87092 0.55336 0.0
O45 O 0.48322 0.78049 0.50966 0.0
O46 O 0.4383 0.80358 0.48397 0.0
O47 O 0.43557 0.86259 0.55979 0.0
O48 O 0.48655 0.8468 0.55132 0.0
C49 C 0.46809 0.79258 0.64691 0.0
O50 O 0.38997 0.80445 0.55769 0.0
O51 O 0.41775 0.75886 0.56734 0.0
In52 In 0.16445 0.55331 0.52996 0.0
O53 O 0.18501 0.51635 0.47685 0.0
O54 O 0.15568 0.55819 0.45345 0.0
C55 C 0.1851 0.5349 0.61468 0.0
C56 C 0.20238 0.60849 0.52373 0.0
C57 C 0.09915 0.53788 0.53906 0.0
O58 O 0.19204 0.51744 0.57955 0.0
O59 O 0.16832 0.56123 0.60651 0.0
O60 O 0.10869 0.56799 0.53332 0.0
O61 O 0.12246 0.5163 0.53996 0.0
C62 C 0.17223 0.53221 0.443 0.0
O63 O 0.17122 0.6104 0.5328 0.0
O64 O 0.21361 0.57914 0.51772 0.0
In65 In 0.45353 0.18405 0.02226 0.0
O66 O 0.39601 0.188 0.0238 0.0
O67 O 0.42534 0.23282 0.01757 0.0
C68 C 0.46973 0.11858 0.0248 0.0
C69 C 0.47188 0.19738 0.93517 0.0
C70 C 0.47404 0.20128 0.10751 0.0
O71 O 0.43943 0.12842 0.02715 0.0
O72 O 0.49129 0.14168 0.02106 0.0
O73 O 0.49055 0.2098 0.0721 0.0
O74 O 0.44775 0.1845 0.09944 0.0
C75 C 0.3964 0.21974 0.02007 0.0
O76 O 0.48881 0.208 0.9693 0.0
O77 O 0.44618 0.18027 0.94536 0.0
In78 In 0.79215 0.44476 0.53136 0.0
O79 O 0.75174 0.45054 0.47463 0.0
O80 O 0.7968 0.47866 0.46855 0.0
C81 C 0.75514 0.46178 0.60613 0.0
C82 C 0.79147 0.37738 0.52558 0.0
C83 C 0.85751 0.46189 0.54262 0.0
O84 O 0.76878 0.48337 0.5804 0.0
O85 O 0.75847 0.43203 0.59258 0.0
O86 O 0.84839 0.43669 0.51959 0.0
O87 O 0.83376 0.47802 0.56077 0.0
C88 C 0.76909 0.47043 0.45057 0.0
O89 O 0.8022 0.39251 0.56091 0.0
O90 O 0.78236 0.39633 0.49281 0.0
In91 In 0.55869 0.81113 0.06003 0.0
O92 O 0.61628 0.80787 0.05429 0.0
O93 O 0.58895 0.76601 0.08138 0.0
C94 C 0.54219 0.8763 0.05057 0.0
C95 C 0.54135 0.78796 0.9762 0.0
C96 C 0.53578 0.80005 0.1456 0.0
O97 O 0.57202 0.86709 0.05983 0.0
O98 O 0.52122 0.85274 0.04622 0.0
O99 O 0.52278 0.78568 0.11091 0.0
O100 O 0.55937 0.82027 0.13655 0.0
C101 C 0.61715 0.77844 0.07103 0.0
O102 O 0.52269 0.78353 0.01094 0.0
O103 O 0.56855 0.80323 0.98435 0.0
H104 H 0.19376 0.51784 0.14437 0.0
H105 H 0.15678 0.42122 0.18977 0.0
H106 H 0.19793 0.53601 0.22464 0.0
H107 H 0.16078 0.43938 0.26963 0.0
H108 H 0.19908 0.47348 0.41055 0.0
H109 H 0.20247 0.4554 0.33017 0.0
H110 H 0.15668 0.54881 0.28631 0.0
H111 H 0.15345 0.56685 0.36617 0.0
C112 C 0.1867 0.50047 0.17147 0.0
C113 C 0.17477 0.46821 0.16081 0.0
C114 C 0.18898 0.51088 0.21736 0.0
C115 C 0.17967 0.4891 0.25343 0.0
C116 C 0.16851 0.45658 0.24268 0.0
C117 C 0.16597 0.4463 0.19689 0.0
C118 C 0.18997 0.49017 0.38365 0.0
C119 C 0.17585 0.52148 0.39463 0.0
C120 C 0.19179 0.47981 0.33772 0.0
C121 C 0.17984 0.50071 0.30195 0.0
C122 C 0.16646 0.53232 0.313 0.0
C123 C 0.16439 0.54253 0.35881 0.0
H124 H 0.48674 0.21983 0.63513 0.0
H125 H 0.57981 0.17594 0.68469 0.0
H126 H 0.46857 0.22803 0.71495 0.0
H127 H 0.56178 0.18403 0.76375 0.0
H128 H 0.53105 0.22341 0.90255 0.0
H129 H 0.54861 0.22775 0.82202 0.0
H130 H 0.45227 0.18837 0.77833 0.0
H131 H 0.43474 0.18418 0.85842 0.0
C132 C 0.5034 0.21229 0.66301 0.0
C133 C 0.53454 0.19702 0.65374 0.0
C134 C 0.493 0.21688 0.7086 0.0
C135 C 0.51379 0.2067 0.74559 0.0
C136 C 0.54539 0.19253 0.73609 0.0
C137 C 0.55557 0.18762 0.69073 0.0
C138 C 0.51353 0.21611 0.87567 0.0
C139 C 0.48168 0.20316 0.88675 0.0
C140 C 0.52358 0.2185 0.82964 0.0
C141 C 0.50184 0.20828 0.79389 0.0
C142 C 0.46946 0.19675 0.80502 0.0
C143 C 0.45954 0.19409 0.85095 0.0
H144 H 0.72616 0.43746 0.39211 0.0
H145 H 0.79539 0.52092 0.39916 0.0
H146 H 0.72449 0.44265 0.30803 0.0
H147 H 0.79297 0.52679 0.31577 0.0
H148 H 0.82473 0.49582 0.17458 0.0
H149 H 0.81745 0.49149 0.25723 0.0
H150 H 0.7105 0.47629 0.23788 0.0
H151 H 0.71806 0.47997 0.15404 0.0
C152 C 0.74013 0.45758 0.3758 0.0
C153 C 0.76123 0.47856 0.40202 0.0
C154 C 0.73924 0.4605 0.32766 0.0
C155 C 0.7593 0.48455 0.30517 0.0
C156 C 0.77802 0.50732 0.33194 0.0
C157 C 0.77916 0.50421 0.37977 0.0
C158 C 0.79967 0.49122 0.18782 0.0
C159 C 0.77193 0.48845 0.15789 0.0
C160 C 0.79542 0.4891 0.23529 0.0
C161 C 0.76325 0.48446 0.25425 0.0
C162 C 0.73558 0.48006 0.2243 0.0
C163 C 0.7399 0.48204 0.17639 0.0
H164 H 0.47943 0.76719 0.94541 0.0
H165 H 0.58031 0.78973 0.89958 0.0
H166 H 0.46113 0.76151 0.86519 0.0
H167 H 0.56204 0.78449 0.81979 0.0
H168 H 0.52274 0.75659 0.67818 0.0
H169 H 0.54013 0.74766 0.75846 0.0
H170 H 0.45339 0.80385 0.80404 0.0
H171 H 0.43599 0.81243 0.72446 0.0
C172 C 0.49779 0.77032 0.91827 0.0
C173 C 0.53119 0.77924 0.92871 0.0
C174 C 0.4873 0.76728 0.87237 0.0
C175 C 0.51007 0.77288 0.83613 0.0
C176 C 0.54392 0.77977 0.84682 0.0
C177 C 0.55434 0.78299 0.89259 0.0
C178 C 0.50731 0.76673 0.70545 0.0
C179 C 0.47818 0.78542 0.69506 0.0
C180 C 0.51726 0.76168 0.75135 0.0
C181 C 0.49808 0.77498 0.78762 0.0
C182 C 0.46845 0.79281 0.77703 0.0
C183 C 0.45867 0.79803 0.73133 0.0
H184 H 0.76011 0.52111 0.65199 0.0
H185 H 0.72224 0.41992 0.66554 0.0
H186 H 0.75113 0.53024 0.73354 0.0
H187 H 0.71177 0.42939 0.74719 0.0
H188 H 0.75537 0.44217 0.89581 0.0
H189 H 0.74598 0.43293 0.81374 0.0
H190 H 0.71628 0.53694 0.79736 0.0
H191 H 0.72746 0.5463 0.87882 0.0
C192 C 0.74878 0.50117 0.67215 0.0
C193 C 0.74221 0.46972 0.65247 0.0
C194 C 0.74347 0.5064 0.71909 0.0
C195 C 0.73105 0.4804 0.7474 0.0
C196 C 0.72207 0.44974 0.72678 0.0
C197 C 0.72775 0.44441 0.67987 0.0
C198 C 0.74613 0.46278 0.87473 0.0
C199 C 0.74258 0.49501 0.89339 0.0
C200 C 0.7406 0.45754 0.82763 0.0
C201 C 0.73089 0.48436 0.79849 0.0
C202 C 0.72466 0.51592 0.81831 0.0
C203 C 0.7308 0.52125 0.86509 0.0
H204 H 0.56675 0.82135 0.22372 0.0
H205 H 0.4819 0.76297 0.17576 0.0
H206 H 0.55001 0.81143 0.30305 0.0
H207 H 0.46508 0.7529 0.25579 0.0
H208 H 0.42527 0.79178 0.39872 0.0
H209 H 0.44273 0.78921 0.31856 0.0
H210 H 0.54447 0.76621 0.36218 0.0
H211 H 0.52693 0.76898 0.44282 0.0
C212 C 0.54456 0.80624 0.23016 0.0
C213 C 0.52546 0.79315 0.19352 0.0
C214 C 0.53519 0.80026 0.27568 0.0
C215 C 0.50635 0.78123 0.28568 0.0
C216 C 0.48739 0.76776 0.24906 0.0
C217 C 0.49698 0.77351 0.20334 0.0
C218 C 0.45126 0.78562 0.39122 0.0
C219 C 0.47485 0.7809 0.42699 0.0
C220 C 0.4612 0.78393 0.34526 0.0
C221 C 0.49501 0.77777 0.33408 0.0
C222 C 0.51829 0.77139 0.36985 0.0
C223 C 0.50825 0.77277 0.41594 0.0
H224 H 0.17363 0.42159 0.8623 0.0
H225 H 0.20984 0.51673 0.91358 0.0
H226 H 0.18185 0.44085 0.78372 0.0
H227 H 0.21886 0.53594 0.83438 0.0
H228 H 0.175 0.57076 0.69267 0.0
H229 H 0.18148 0.5519 0.77186 0.0
H230 H 0.2212 0.45713 0.72433 0.0
H231 H 0.21392 0.47592 0.64448 0.0
C232 C 0.18387 0.4465 0.85677 0.0
C233 C 0.19073 0.46781 0.8941 0.0
C234 C 0.1889 0.45744 0.81162 0.0
C235 C 0.20094 0.48998 0.80265 0.0
C236 C 0.20916 0.51085 0.84012 0.0
C237 C 0.20412 0.49985 0.88545 0.0
C238 C 0.18554 0.54604 0.69905 0.0
C239 C 0.19357 0.52464 0.66235 0.0
C240 C 0.18954 0.53533 0.74456 0.0
C241 C 0.20168 0.50292 0.75452 0.0
C242 C 0.21134 0.48209 0.71778 0.0
C243 C 0.20734 0.49287 0.67209 0.0
H244 H 0.58568 0.18473 0.35792 0.0
H245 H 0.49226 0.22768 0.40564 0.0
H246 H 0.56768 0.19318 0.27849 0.0
H247 H 0.47429 0.23661 0.32568 0.0
H248 H 0.43806 0.19171 0.18564 0.0
H249 H 0.45708 0.19767 0.26486 0.0
H250 H 0.55354 0.23359 0.21712 0.0
H251 H 0.53445 0.22719 0.13721 0.0
C252 C 0.56148 0.19651 0.35141 0.0
C253 C 0.54021 0.20522 0.38801 0.0
C254 C 0.55128 0.20161 0.30581 0.0
C255 C 0.51948 0.21543 0.2957 0.0
C256 C 0.4988 0.22556 0.33237 0.0
C257 C 0.50911 0.22059 0.37812 0.0
C258 C 0.46321 0.20127 0.19196 0.0
C259 C 0.4849 0.20868 0.1552 0.0
C260 C 0.47401 0.20498 0.23746 0.0
C261 C 0.50685 0.21605 0.24737 0.0
C262 C 0.52818 0.22471 0.21057 0.0
C263 C 0.51724 0.22118 0.16487 0.0
H264 H 0.90099 0.53975 0.97544 0.0
H265 H 0.87744 0.43994 0.02442 0.0
H266 H 0.96063 0.52513 0.97371 0.0
H267 H 0.93712 0.42569 0.0249 0.0
H268 H 0.0465 0.40216 0.99092 0.0
H269 H 0.98641 0.41457 0.98193 0.0
H270 H 0.00441 0.51641 0.02717 0.0
H271 H 0.06415 0.50436 0.03405 0.0
C272 C 0.90861 0.51467 0.98577 0.0
C273 C 0.88465 0.49105 1.00026 0.0
C274 C 0.9428 0.50631 0.98515 0.0
C275 C 0.95384 0.47432 0.99976 0.0
C276 C 0.92962 0.4504 0.01293 0.0
C277 C 0.89539 0.45864 0.01291 0.0
C278 C 0.03746 0.42716 0.99878 0.0
C279 C 0.05994 0.4523 0.01306 0.0
C280 C 0.00306 0.43429 0.99381 0.0
C281 C 0.99048 0.4666 1.00353 0.0
C282 C 0.01315 0.49152 0.01824 0.0
C283 C 0.04744 0.48451 0.02263 0.0
H284 H 0.52721 0.89239 0.5246 0.0
H285 H 0.43001 0.92849 0.56885 0.0
H286 H 0.54641 0.94984 0.51438 0.0
H287 H 0.44965 0.98638 0.56036 0.0
H288 H 0.58255 0.05494 0.54933 0.0
H289 H 0.56234 -0.00251 0.55784 0.0
H290 H 0.46494 0.02761 0.50415 0.0
H291 H 0.4849 0.08531 0.49737 0.0
C292 C 0.51001 0.9127 0.53253 0.0
C293 C 0.47714 0.90601 0.54767 0.0
C294 C 0.5211 0.94567 0.52692 0.0
C295 C 0.49969 0.9728 0.53681 0.0
C296 C 0.46668 0.96608 0.55186 0.0
C297 C 0.45545 0.93297 0.55703 0.0
C298 C 0.55689 0.0492 0.53917 0.0
C299 C 0.5353 0.07453 0.52269 0.0
C300 C 0.5453 0.01626 0.54385 0.0
C301 C 0.51196 0.00788 0.53169 0.0
C302 C 0.49055 0.03325 0.51458 0.0
C303 C 0.50207 0.06626 0.51032 0.0
H304 H 0.07522 0.47546 0.55708 0.0
H305 H 0.04279 0.57756 0.53138 0.0
H306 H 0.01684 0.45747 0.56144 0.0
H307 H 0.98391 0.5593 0.5349 0.0
H308 H 0.88253 0.51728 0.58613 0.0
H309 H 0.94101 0.53651 0.58818 0.0
H310 H 0.97051 0.45074 0.50704 0.0
H311 H 0.91234 0.43131 0.50565 0.0
C312 C 0.05556 0.4941 0.55234 0.0
C313 C 0.06353 0.5279 0.54357 0.0
C314 C 0.0221 0.48373 0.55463 0.0
C315 C -0.00421 0.50688 0.54807 0.0
C316 C 0.00369 0.54091 0.5404 0.0
C317 C 0.03733 0.55135 0.53816 0.0
C318 C 0.9016 0.50245 0.56904 0.0
C319 C 0.89296 0.47275 0.54583 0.0
C320 C 0.935 0.51359 0.56993 0.0
C321 C 0.96034 0.49515 0.54779 0.0
C322 C 0.95163 0.46528 0.52497 0.0
C323 C 0.9183 0.4542 0.52401 0.0
H324 H 0.48252 0.90034 0.01793 0.0
H325 H 0.57883 0.93225 0.07215 0.0
H326 H 0.46491 0.95866 0.01022 0.0
H327 H 0.56079 -0.00922 0.06617 0.0
H328 H 0.5314 0.09231 0.00667 0.0
H329 H 0.54895 0.03383 0.01151 0.0
H330 H 0.44863 0.0059 0.05465 0.0
H331 H 0.4308 0.06448 0.04799 0.0
C332 C 0.49987 0.91989 0.02846 0.0
C333 C 0.53206 0.9118 0.04562 0.0
C334 C 0.48968 0.95333 0.02436 0.0
C335 C 0.51133 0.97949 0.03774 0.0
C336 C 0.54362 0.97132 0.05488 0.0
C337 C 0.55394 0.9378 0.05856 0.0
C338 C 0.51307 0.07364 0.01703 0.0
C339 C 0.47973 0.0829 0.02696 0.0
C340 C 0.52319 0.04013 0.02016 0.0
C341 C 0.5003 0.01511 0.03374 0.0
C342 C 0.46683 0.02443 0.04347 0.0
C343 C 0.45662 0.05798 0.03988 0.0
H344 H 0.26731 0.38626 0.07048 0.0
H345 H 0.19829 0.31861 1.00239 0.0
H346 H 0.31115 0.3438 0.06811 0.0
H347 H 0.24296 0.27586 0.99894 0.0
H348 H 0.3314 0.20107 0.04027 0.0
H349 H 0.28211 0.23825 0.0458 0.0
H350 H 0.34359 0.3223 1.00345 0.0
H351 H 0.39236 0.28579 0.99894 0.0
C352 C 0.26149 0.36217 0.05514 0.0
C353 C 0.22959 0.35585 0.03601 0.0
C354 C 0.28665 0.3379 0.05359 0.0
C355 C 0.2807 0.30681 0.03238 0.0
C356 C 0.24823 0.29966 0.01541 0.0
C357 C 0.22276 0.32407 0.01729 0.0
C358 C 0.33415 0.22748 0.03191 0.0
C359 C 0.36575 0.24068 0.01981 0.0
C360 C 0.306 0.24867 0.03495 0.0
C361 C 0.3092 0.28326 0.02591 0.0
C362 C 0.34053 0.29593 0.01184 0.0
C363 C 0.36846 0.27496 0.00903 0.0
H364 H 0.77268 0.33884 0.45262 0.0
H365 H 0.79099 0.33476 0.59936 0.0
H366 H 0.74233 0.28574 0.45702 0.0
H367 H 0.76045 0.28162 0.60368 0.0
H368 H 0.64457 0.25091 0.5875 0.0
H369 H 0.69638 0.28343 0.58961 0.0
H370 H 0.73741 0.22255 0.48063 0.0
H371 H 0.68524 0.18918 0.47929 0.0
C372 C 0.77134 0.32594 0.4855 0.0
C373 C 0.78345 0.34124 0.52582 0.0
C374 C 0.75415 0.29541 0.48796 0.0
C375 C 0.74861 0.27996 0.53082 0.0
C376 C 0.76417 0.29328 0.5703 0.0
C377 C 0.78166 0.32365 0.56778 0.0
C378 C 0.66494 0.24399 0.56471 0.0
C379 C 0.66095 0.21788 0.53293 0.0
C380 C 0.69474 0.26234 0.56625 0.0
C381 C 0.72095 0.25536 0.53542 0.0
C382 C 0.71759 0.22823 0.5049 0.0
C383 C 0.68787 0.20927 0.5041 0.0
H384 H 0.7874 0.64178 0.02544 0.0
H385 H 0.69914 0.59073 0.0769 0.0
H386 H 0.76036 0.69619 0.04068 0.0
H387 H 0.67236 0.64418 0.09132 0.0
H388 H 0.6333 0.73697 0.14114 0.0
H389 H 0.67583 0.69282 0.14064 0.0
H390 H 0.71117 0.72851 0.00868 0.0
H391 H 0.66933 0.77388 0.0105 0.0
C392 C 0.76242 0.64221 0.04028 0.0
C393 C 0.7453 0.61209 0.04987 0.0
C394 C 0.74698 0.67325 0.0489 0.0
C395 C 0.71441 0.67448 0.0677 0.0
C396 C 0.69777 0.64421 0.07786 0.0
C397 C 0.713 0.61348 0.0691 0.0
C398 C 0.65096 0.736 0.11283 0.0
C399 C 0.64797 0.75833 0.07559 0.0
C400 C 0.67515 0.71068 0.11237 0.0
C401 C 0.69617 0.70664 0.074 0.0
C402 C 0.69532 0.731 0.03871 0.0
C403 C 0.6714 0.7569 0.03966 0.0
H404 H 0.38299 0.70703 0.58422 0.0
H405 H 0.32551 0.79314 0.5376 0.0
H406 H 0.33428 0.67125 0.57244 0.0
H407 H 0.27621 0.75671 0.52542 0.0
H408 H 0.19199 0.67132 0.56003 0.0
H409 H 0.23484 0.71535 0.57036 0.0
H410 H 0.30665 0.65463 0.49666 0.0
H411 H 0.26454 0.611 0.48684 0.0
C412 C 0.35981 0.71838 0.57177 0.0
C413 C 0.35815 0.75277 0.5612 0.0
C414 C 0.33197 0.69785 0.56487 0.0
C415 C 0.3018 0.71117 0.54712 0.0
C416 C 0.29931 0.7459 0.53895 0.0
C417 C 0.32743 0.76664 0.54588 0.0
C418 C 0.21677 0.66784 0.54532 0.0
C419 C 0.22522 0.63761 0.52335 0.0
C420 C 0.24117 0.69295 0.55121 0.0
C421 C 0.27413 0.68793 0.53514 0.0
C422 C 0.28162 0.65874 0.51029 0.0
C423 C 0.25748 0.63383 0.50457 0.0
loop_
_geom_bond_atom_site_label_1
_geom_bond_atom_site_label_2
_geom_bond_distance
_geom_bond_site_symmetry_2
_ccdc_geom_bond_type
In0 O1 2.294 . S
In0 O2 2.326 . S
In0 O6 2.266 1_554 S
In0 O7 2.326 1_554 S
In0 O8 2.266 . S
In0 O9 2.326 . S
In0 O11 2.294 . S
In0 O12 2.326 . S
O1 In0 2.294 . S
O1 C10 1.240 . S
O2 In0 2.326 . S
O2 C10 1.252 . S
C3 O6 1.252 . S
C3 O7 1.260 . S
C4 O11 1.240 . S
C4 O12 1.252 . S
C5 O8 1.252 . S
C5 O9 1.260 . S
O6 In0 2.266 1_556 S
O6 C3 1.252 . S
O7 In0 2.326 1_556 S
O7 C3 1.260 . S
O8 In0 2.266 . S
O8 C5 1.252 . S
O9 In0 2.326 . S
O9 C5 1.260 . S
C10 O1 1.240 . S
C10 O2 1.252 . S
O11 In0 2.294 . S
O11 C4 1.240 . S
O12 In0 2.326 . S
O12 C4 1.252 . S
In13 O14 2.294 . S
In13 O15 2.326 . S
In13 O19 2.266 . S
In13 O20 2.326 . S
In13 O21 2.266 . S
In13 O22 2.326 . S
In13 O24 2.294 . S
In13 O25 2.326 . S
O14 In13 2.294 . S
O14 C23 1.240 . S
O15 In13 2.326 . S
O15 C23 1.252 . S
C16 O19 1.252 . S
C16 O20 1.260 . S
C17 O24 1.240 . S
C17 O25 1.252 . S
C18 O21 1.252 . S
C18 O22 1.260 . S
O19 In13 2.266 . S
O19 C16 1.252 . S
O20 In13 2.326 . S
O20 C16 1.260 . S
O21 In13 2.266 . S
O21 C18 1.252 . S
O22 In13 2.326 . S
O22 C18 1.260 . S
C23 O14 1.240 . S
C23 O15 1.252 . S
O24 In13 2.294 . S
O24 C17 1.240 . S
O25 In13 2.326 . S
O25 C17 1.252 . S
In26 O27 2.294 . S
In26 O28 2.326 . S
In26 O32 2.266 1_554 S
In26 O33 2.326 1_554 S
In26 O34 2.266 . S
In26 O35 2.326 . S
In26 O37 2.294 . S
In26 O38 2.326 . S
O27 In26 2.294 . S
O27 C36 1.240 . S
O28 In26 2.326 . S
O28 C36 1.252 . S
C29 O32 1.252 . S
C29 O33 1.260 . S
C30 O37 1.240 . S
C30 O38 1.252 . S
C31 O34 1.252 . S
C31 O35 1.260 . S
O32 In26 2.266 1_556 S
O32 C29 1.252 . S
O33 In26 2.326 1_556 S
O33 C29 1.260 . S
O34 In26 2.266 . S
O34 C31 1.252 . S
O35 In26 2.326 . S
O35 C31 1.260 . S
C36 O27 1.240 . S
C36 O28 1.252 . S
O37 In26 2.294 . S
O37 C30 1.240 . S
O38 In26 2.326 . S
O38 C30 1.252 . S
In39 O40 2.294 . S
In39 O41 2.326 . S
In39 O45 2.266 . S
In39 O46 2.326 . S
In39 O47 2.266 . S
In39 O48 2.326 . S
In39 O50 2.294 . S
In39 O51 2.326 . S
O40 In39 2.294 . S
O40 C49 1.240 . S
O41 In39 2.326 . S
O41 C49 1.252 . S
C42 O45 1.252 . S
C42 O46 1.260 . S
C43 O50 1.240 . S
C43 O51 1.252 . S
C44 O47 1.252 . S
C44 O48 1.260 . S
O45 In39 2.266 . S
O45 C42 1.252 . S
O46 In39 2.326 . S
O46 C42 1.260 . S
O47 In39 2.266 . S
O47 C44 1.252 . S
O48 In39 2.326 . S
O48 C44 1.260 . S
C49 O40 1.240 . S
C49 O41 1.252 . S
O50 In39 2.294 . S
O50 C43 1.240 . S
O51 In39 2.326 . S
O51 C43 1.252 . S
In52 O53 2.294 . S
In52 O54 2.326 . S
In52 O58 2.266 . S
In52 O59 2.326 . S
In52 O60 2.266 . S
In52 O61 2.326 . S
In52 O63 2.294 . S
In52 O64 2.326 . S
O53 In52 2.294 . S
O53 C62 1.240 . S
O54 In52 2.326 . S
O54 C62 1.252 . S
C55 O58 1.252 . S
C55 O59 1.260 . S
C56 O63 1.240 . S
C56 O64 1.252 . S
C57 O60 1.252 . S
C57 O61 1.260 . S
O58 In52 2.266 . S
O58 C55 1.252 . S
O59 In52 2.326 . S
O59 C55 1.260 . S
O60 In52 2.266 . S
O60 C57 1.252 . S
O61 In52 2.326 . S
O61 C57 1.260 . S
C62 O53 1.240 . S
C62 O54 1.252 . S
O63 In52 2.294 . S
O63 C56 1.240 . S
O64 In52 2.326 . S
O64 C56 1.252 . S
In65 O66 2.294 . S
In65 O67 2.326 . S
In65 O71 2.266 . S
In65 O72 2.326 . S
In65 O73 2.266 . S
In65 O74 2.326 . S
In65 O76 2.294 1_554 S
In65 O77 2.326 1_554 S
O66 In65 2.294 . S
O66 C75 1.240 . S
O67 In65 2.326 . S
O67 C75 1.252 . S
C68 O71 1.252 . S
C68 O72 1.260 . S
C69 O76 1.240 . S
C69 O77 1.252 . S
C70 O73 1.252 . S
C70 O74 1.260 . S
O71 In65 2.266 . S
O71 C68 1.252 . S
O72 In65 2.326 . S
O72 C68 1.260 . S
O73 In65 2.266 . S
O73 C70 1.252 . S
O74 In65 2.326 . S
O74 C70 1.260 . S
C75 O66 1.240 . S
C75 O67 1.252 . S
O76 In65 2.294 1_556 S
O76 C69 1.240 . S
O77 In65 2.326 1_556 S
O77 C69 1.252 . S
In78 O79 2.294 . S
In78 O80 2.326 . S
In78 O84 2.266 . S
In78 O85 2.326 . S
In78 O86 2.266 . S
In78 O87 2.326 . S
In78 O89 2.294 . S
In78 O90 2.326 . S
O79 In78 2.294 . S
O79 C88 1.240 . S
O80 In78 2.326 . S
O80 C88 1.252 . S
C81 O84 1.252 . S
C81 O85 1.260 . S
C82 O89 1.240 . S
C82 O90 1.252 . S
C83 O86 1.252 . S
C83 O87 1.260 . S
O84 In78 2.266 . S
O84 C81 1.252 . S
O85 In78 2.326 . S
O85 C81 1.260 . S
O86 In78 2.266 . S
O86 C83 1.252 . S
O87 In78 2.326 . S
O87 C83 1.260 . S
C88 O79 1.240 . S
C88 O80 1.252 . S
O89 In78 2.294 . S
O89 C82 1.240 . S
O90 In78 2.326 . S
O90 C82 1.252 . S
In91 O92 2.294 . S
In91 O93 2.326 . S
In91 O97 2.266 . S
In91 O98 2.326 . S
In91 O99 2.266 . S
In91 O100 2.326 . S
In91 O102 2.294 1_554 S
In91 O103 2.326 1_554 S
O92 In91 2.294 . S
O92 C101 1.240 . S
O93 In91 2.326 . S
O93 C101 1.252 . S
C94 O97 1.252 . S
C94 O98 1.260 . S
C95 O102 1.240 . S
C95 O103 1.252 . S
C96 O99 1.252 . S
C96 O100 1.260 . S
O97 In91 2.266 . S
O97 C94 1.252 . S
O98 In91 2.326 . S
O98 C94 1.260 . S
O99 In91 2.266 . S
O99 C96 1.252 . S
O100 In91 2.326 . S
O100 C96 1.260 . S
C101 O92 1.240 . S
C101 O93 1.252 . S
O102 In91 2.294 1_556 S
O102 C95 1.240 . S
O103 In91 2.326 1_556 S
O103 C95 1.252 . S
H104 C112 0.950 . S
H105 C117 0.950 . S
H106 C114 0.950 . S
H107 C116 0.950 . S
H108 C118 0.950 . S
H109 C120 0.950 . S
H110 C122 0.950 . S
H111 C123 0.950 . S
C112 H104 0.950 . S
C112 C113 1.386 . S
C112 C114 1.391 . S
C113 C112 1.386 . S
C113 C117 1.393 . S
C114 H106 0.950 . S
C114 C112 1.391 . S
C114 C115 1.400 . S
C115 C114 1.400 . S
C115 C116 1.398 . S
C115 C121 1.491 . S
C116 H107 0.950 . S
C116 C115 1.398 . S
C116 C117 1.391 . S
C117 H105 0.950 . S
C117 C113 1.393 . S
C117 C116 1.391 . S
C118 H108 0.950 . S
C118 C119 1.386 . S
C118 C120 1.391 . S
C119 C118 1.386 . S
C119 C123 1.393 . S
C120 H109 0.950 . S
C120 C118 1.391 . S
C120 C121 1.400 . S
C121 C115 1.491 . S
C121 C120 1.400 . S
C121 C122 1.398 . S
C122 H110 0.950 . S
C122 C121 1.398 . S
C122 C123 1.391 . S
C123 H111 0.950 . S
C123 C119 1.393 . S
C123 C122 1.391 . S
H124 C132 0.950 . S
H125 C137 0.950 . S
H126 C134 0.950 . S
H127 C136 0.950 . S
H128 C138 0.950 . S
H129 C140 0.950 . S
H130 C142 0.950 . S
H131 C143 0.950 . S
C132 H124 0.950 . S
C132 C133 1.386 . S
C132 C134 1.391 . S
C133 C132 1.386 . S
C133 C137 1.393 . S
C134 H126 0.950 . S
C134 C132 1.391 . S
C134 C135 1.400 . S
C135 C134 1.400 . S
C135 C136 1.398 . S
C135 C141 1.491 . S
C136 H127 0.950 . S
C136 C135 1.398 . S
C136 C137 1.391 . S
C137 H125 0.950 . S
C137 C133 1.393 . S
C137 C136 1.391 . S
C138 H128 0.950 . S
C138 C139 1.386 . S
C138 C140 1.391 . S
C139 C138 1.386 . S
C139 C143 1.393 . S
C140 H129 0.950 . S
C140 C138 1.391 . S
C140 C141 1.400 . S
C141 C135 1.491 . S
C141 C140 1.400 . S
C141 C142 1.398 . S
C142 H130 0.950 . S
C142 C141 1.398 . S
C142 C143 1.391 . S
C143 H131 0.950 . S
C143 C139 1.393 . S
C143 C142 1.391 . S
H144 C152 0.950 . S
H145 C157 0.950 . S
H146 C154 0.950 . S
H147 C156 0.950 . S
H148 C158 0.950 . S
H149 C160 0.950 . S
H150 C162 0.950 . S
H151 C163 0.950 . S
C152 H144 0.950 . S
C152 C153 1.386 . S
C152 C154 1.391 . S
C153 C152 1.386 . S
C153 C157 1.393 . S
C154 H146 0.950 . S
C154 C152 1.391 . S
C154 C155 1.400 . S
C155 C154 1.400 . S
C155 C156 1.398 . S
C155 C161 1.491 . S
C156 H147 0.950 . S
C156 C155 1.398 . S
C156 C157 1.391 . S
C157 H145 0.950 . S
C157 C153 1.393 . S
C157 C156 1.391 . S
C158 H148 0.950 . S
C158 C159 1.386 . S
C158 C160 1.391 . S
C159 C158 1.386 . S
C159 C163 1.393 . S
C160 H149 0.950 . S
C160 C158 1.391 . S
C160 C161 1.400 . S
C161 C155 1.491 . S
C161 C160 1.400 . S
C161 C162 1.398 . S
C162 H150 0.950 . S
C162 C161 1.398 . S
C162 C163 1.391 . S
C163 H151 0.950 . S
C163 C159 1.393 . S
C163 C162 1.391 . S
H164 C172 0.950 . S
H165 C177 0.950 . S
H166 C174 0.950 . S
H167 C176 0.950 . S
H168 C178 0.950 . S
H169 C180 0.950 . S
H170 C182 0.950 . S
H171 C183 0.950 . S
C172 H164 0.950 . S
C172 C173 1.386 . S
C172 C174 1.391 . S
C173 C172 1.386 . S
C173 C177 1.393 . S
C174 H166 0.950 . S
C174 C172 1.391 . S
C174 C175 1.400 . S
C175 C174 1.400 . S
C175 C176 1.398 . S
C175 C181 1.491 . S
C176 H167 0.950 . S
C176 C175 1.398 . S
C176 C177 1.391 . S
C177 H165 0.950 . S
C177 C173 1.393 . S
C177 C176 1.391 . S
C178 H168 0.950 . S
C178 C179 1.386 . S
C178 C180 1.391 . S
C179 C178 1.386 . S
C179 C183 1.393 . S
C180 H169 0.950 . S
C180 C178 1.391 . S
C180 C181 1.400 . S
C181 C175 1.491 . S
C181 C180 1.400 . S
C181 C182 1.398 . S
C182 H170 0.950 . S
C182 C181 1.398 . S
C182 C183 1.391 . S
C183 H171 0.950 . S
C183 C179 1.393 . S
C183 C182 1.391 . S
H184 C192 0.950 . S
H185 C197 0.950 . S
H186 C194 0.950 . S
H187 C196 0.950 . S
H188 C198 0.950 . S
H189 C200 0.950 . S
H190 C202 0.950 . S
H191 C203 0.950 . S
C192 H184 0.950 . S
C192 C193 1.386 . S
C192 C194 1.391 . S
C193 C192 1.386 . S
C193 C197 1.393 . S
C194 H186 0.950 . S
C194 C192 1.391 . S
C194 C195 1.400 . S
C195 C194 1.400 . S
C195 C196 1.398 . S
C195 C201 1.491 . S
C196 H187 0.950 . S
C196 C195 1.398 . S
C196 C197 1.391 . S
C197 H185 0.950 . S
C197 C193 1.393 . S
C197 C196 1.391 . S
C198 H188 0.950 . S
C198 C199 1.386 . S
C198 C200 1.391 . S
C199 C198 1.386 . S
C199 C203 1.393 . S
C200 H189 0.950 . S
C200 C198 1.391 . S
C200 C201 1.400 . S
C201 C195 1.491 . S
C201 C200 1.400 . S
C201 C202 1.398 . S
C202 H190 0.950 . S
C202 C201 1.398 . S
C202 C203 1.391 . S
C203 H191 0.950 . S
C203 C199 1.393 . S
C203 C202 1.391 . S
H204 C212 0.950 . S
H205 C217 0.950 . S
H206 C214 0.950 . S
H207 C216 0.950 . S
H208 C218 0.950 . S
H209 C220 0.950 . S
H210 C222 0.950 . S
H211 C223 0.950 . S
C212 H204 0.950 . S
C212 C213 1.386 . S
C212 C214 1.391 . S
C213 C212 1.386 . S
C213 C217 1.393 . S
C214 H206 0.950 . S
C214 C212 1.391 . S
C214 C215 1.400 . S
C215 C214 1.400 . S
C215 C216 1.398 . S
C215 C221 1.491 . S
C216 H207 0.950 . S
C216 C215 1.398 . S
C216 C217 1.391 . S
C217 H205 0.950 . S
C217 C213 1.393 . S
C217 C216 1.391 . S
C218 H208 0.950 . S
C218 C219 1.386 . S
C218 C220 1.391 . S
C219 C218 1.386 . S
C219 C223 1.393 . S
C220 H209 0.950 . S
C220 C218 1.391 . S
C220 C221 1.400 . S
C221 C215 1.491 . S
C221 C220 1.400 . S
C221 C222 1.398 . S
C222 H210 0.950 . S
C222 C221 1.398 . S
C222 C223 1.391 . S
C223 H211 0.950 . S
C223 C219 1.393 . S
C223 C222 1.391 . S
H224 C232 0.950 . S
H225 C237 0.950 . S
H226 C234 0.950 . S
H227 C236 0.950 . S
H228 C238 0.950 . S
H229 C240 0.950 . S
H230 C242 0.950 . S
H231 C243 0.950 . S
C232 H224 0.950 . S
C232 C233 1.386 . S
C232 C234 1.391 . S
C233 C232 1.386 . S
C233 C237 1.393 . S
C234 H226 0.950 . S
C234 C232 1.391 . S
C234 C235 1.400 . S
C235 C234 1.400 . S
C235 C236 1.398 . S
C235 C241 1.491 . S
C236 H227 0.950 . S
C236 C235 1.398 . S
C236 C237 1.391 . S
C237 H225 0.950 . S
C237 C233 1.393 . S
C237 C236 1.391 . S
C238 H228 0.950 . S
C238 C239 1.386 . S
C238 C240 1.391 . S
C239 C238 1.386 . S
C239 C243 1.393 . S
C240 H229 0.950 . S
C240 C238 1.391 . S
C240 C241 1.400 . S
C241 C235 1.491 . S
C241 C240 1.400 . S
C241 C242 1.398 . S
C242 H230 0.950 . S
C242 C241 1.398 . S
C242 C243 1.391 . S
C243 H231 0.950 . S
C243 C239 1.393 . S
C243 C242 1.391 . S
H244 C252 0.950 . S
H245 C257 0.950 . S
H246 C254 0.950 . S
H247 C256 0.950 . S
H248 C258 0.950 . S
H249 C260 0.950 . S
H250 C262 0.950 . S
H251 C263 0.950 . S
C252 H244 0.950 . S
C252 C253 1.386 . S
C252 C254 1.391 . S
C253 C252 1.386 . S
C253 C257 1.393 . S
C254 H246 0.950 . S
C254 C252 1.391 . S
C254 C255 1.400 . S
C255 C254 1.400 . S
C255 C256 1.398 . S
C255 C261 1.491 . S
C256 H247 0.950 . S
C256 C255 1.398 . S
C256 C257 1.391 . S
C257 H245 0.950 . S
C257 C253 1.393 . S
C257 C256 1.391 . S
C258 H248 0.950 . S
C258 C259 1.386 . S
C258 C260 1.391 . S
C259 C258 1.386 . S
C259 C263 1.393 . S
C260 H249 0.950 . S
C260 C258 1.391 . S
C260 C261 1.400 . S
C261 C255 1.491 . S
C261 C260 1.400 . S
C261 C262 1.398 . S
C262 H250 0.950 . S
C262 C261 1.398 . S
C262 C263 1.391 . S
C263 H251 0.950 . S
C263 C259 1.393 . S
C263 C262 1.391 . S
H264 C272 0.950 . S
H265 C277 0.950 . S
H266 C274 0.950 . S
H267 C276 0.950 . S
H268 C278 0.950 . S
H269 C280 0.950 . S
H270 C282 0.950 . S
H271 C283 0.950 . S
C272 H264 0.950 . S
C272 C273 1.386 1_556 S
C272 C274 1.391 . S
C273 C272 1.386 1_554 S
C273 C277 1.393 . S
C274 H266 0.950 . S
C274 C272 1.391 . S
C274 C275 1.400 1_556 S
C275 C274 1.400 1_554 S
C275 C276 1.398 . S
C275 C281 1.491 1_655 S
C276 H267 0.950 . S
C276 C275 1.398 . S
C276 C277 1.391 . S
C277 H265 0.950 . S
C277 C273 1.393 . S
C277 C276 1.391 . S
C278 H268 0.950 . S
C278 C279 1.386 . S
C278 C280 1.391 . S
C279 C278 1.386 . S
C279 C283 1.393 1_554 S
C280 H269 0.950 . S
C280 C278 1.391 . S
C280 C281 1.400 . S
C281 C275 1.491 1_455 S
C281 C280 1.400 . S
C281 C282 1.398 1_554 S
C282 H270 0.950 . S
C282 C281 1.398 1_556 S
C282 C283 1.391 . S
C283 H271 0.950 . S
C283 C279 1.393 1_556 S
C283 C282 1.391 . S
H284 C292 0.950 . S
H285 C297 0.950 . S
H286 C294 0.950 . S
H287 C296 0.950 . S
H288 C298 0.950 . S
H289 C300 0.950 . S
H290 C302 0.950 . S
H291 C303 0.950 . S
C292 H284 0.950 . S
C292 C293 1.386 . S
C292 C294 1.391 . S
C293 C292 1.386 . S
C293 C297 1.393 . S
C294 H286 0.950 . S
C294 C292 1.391 . S
C294 C295 1.400 . S
C295 C294 1.400 . S
C295 C296 1.398 . S
C295 C301 1.491 1_565 S
C296 H287 0.950 . S
C296 C295 1.398 . S
C296 C297 1.391 . S
C297 H285 0.950 . S
C297 C293 1.393 . S
C297 C296 1.391 . S
C298 H288 0.950 . S
C298 C299 1.386 . S
C298 C300 1.391 . S
C299 C298 1.386 . S
C299 C303 1.393 . S
C300 H289 0.950 . S
C300 C298 1.391 . S
C300 C301 1.400 . S
C301 C295 1.491 1_545 S
C301 C300 1.400 . S
C301 C302 1.398 . S
C302 H290 0.950 . S
C302 C301 1.398 . S
C302 C303 1.391 . S
C303 H291 0.950 . S
C303 C299 1.393 . S
C303 C302 1.391 . S
H304 C312 0.950 . S
H305 C317 0.950 . S
H306 C314 0.950 . S
H307 C316 0.950 . S
H308 C318 0.950 . S
H309 C320 0.950 . S
H310 C322 0.950 . S
H311 C323 0.950 . S
C312 H304 0.950 . S
C312 C313 1.386 . S
C312 C314 1.391 . S
C313 C312 1.386 . S
C313 C317 1.393 . S
C314 H306 0.950 . S
C314 C312 1.391 . S
C314 C315 1.400 . S
C315 C314 1.400 . S
C315 C316 1.398 . S
C315 C321 1.491 1_455 S
C316 H307 0.950 . S
C316 C315 1.398 . S
C316 C317 1.391 . S
C317 H305 0.950 . S
C317 C313 1.393 . S
C317 C316 1.391 . S
C318 H308 0.950 . S
C318 C319 1.386 . S
C318 C320 1.391 . S
C319 C318 1.386 . S
C319 C323 1.393 . S
C320 H309 0.950 . S
C320 C318 1.391 . S
C320 C321 1.400 . S
C321 C315 1.491 1_655 S
C321 C320 1.400 . S
C321 C322 1.398 . S
C322 H310 0.950 . S
C322 C321 1.398 . S
C322 C323 1.391 . S
C323 H311 0.950 . S
C323 C319 1.393 . S
C323 C322 1.391 . S
H324 C332 0.950 . S
H325 C337 0.962 . S
H326 C334 0.950 . S
H327 C336 0.950 . S
H328 C338 0.950 1_556 S
H329 C340 0.950 1_556 S
H330 C342 0.950 . S
H331 C343 0.950 . S
C332 H324 0.950 . S
C332 C333 1.386 . S
C332 C334 1.391 . S
C333 C332 1.386 . S
C333 C337 1.393 . S
C334 H326 0.950 . S
C334 C332 1.391 . S
C334 C335 1.400 . S
C335 C334 1.400 . S
C335 C336 1.398 . S
C335 C341 1.491 1_565 S
C336 H327 0.950 . S
C336 C335 1.398 . S
C336 C337 1.391 . S
C337 H325 0.962 . S
C337 C333 1.393 . S
C337 C336 1.391 . S
C338 H328 0.950 1_554 S
C338 C339 1.386 . S
C338 C340 1.391 . S
C339 C338 1.386 . S
C339 C343 1.393 . S
C340 H329 0.950 1_554 S
C340 C338 1.391 . S
C340 C341 1.400 . S
C341 C335 1.491 1_545 S
C341 C340 1.400 . S
C341 C342 1.398 . S
C342 H330 0.950 . S
C342 C341 1.398 . S
C342 C343 1.391 . S
C343 H331 0.950 . S
C343 C339 1.393 . S
C343 C342 1.391 . S
H344 C352 0.950 . S
H345 C357 0.950 . S
H346 C354 0.950 . S
H347 C356 0.950 . S
H348 C358 0.950 . S
H349 C360 0.950 . S
H350 C362 0.950 . S
H351 C363 0.950 . S
C352 H344 0.950 . S
C352 C353 1.386 . S
C352 C354 1.391 . S
C353 C352 1.386 . S
C353 C357 1.393 . S
C354 H346 0.950 . S
C354 C352 1.391 . S
C354 C355 1.400 . S
C355 C354 1.400 . S
C355 C356 1.398 . S
C355 C361 1.491 . S
C356 H347 0.950 . S
C356 C355 1.398 . S
C356 C357 1.391 . S
C357 H345 0.950 . S
C357 C353 1.393 . S
C357 C356 1.391 . S
C358 H348 0.950 . S
C358 C359 1.386 . S
C358 C360 1.391 . S
C359 C358 1.386 . S
C359 C363 1.393 . S
C360 H349 0.950 . S
C360 C358 1.391 . S
C360 C361 1.400 . S
C361 C355 1.491 . S
C361 C360 1.400 . S
C361 C362 1.398 . S
C362 H350 0.950 . S
C362 C361 1.398 . S
C362 C363 1.391 . S
C363 H351 0.950 . S
C363 C359 1.393 . S
C363 C362 1.391 . S
H364 C372 0.950 . S
H365 C377 0.950 . S
H366 C374 0.950 . S
H367 C376 0.950 . S
H368 C378 0.950 . S
H369 C380 0.950 . S
H370 C382 0.950 . S
H371 C383 0.950 . S
C372 H364 0.950 . S
C372 C373 1.386 . S
C372 C374 1.391 . S
C373 C372 1.386 . S
C373 C377 1.393 . S
C374 H366 0.950 . S
C374 C372 1.391 . S
C374 C375 1.400 . S
C375 C374 1.400 . S
C375 C376 1.398 . S
C375 C381 1.491 . S
C376 H367 0.950 . S
C376 C375 1.398 . S
C376 C377 1.391 . S
C377 H365 0.950 . S
C377 C373 1.393 . S
C377 C376 1.391 . S
C378 H368 0.950 . S
C378 C379 1.386 . S
C378 C380 1.391 . S
C379 C378 1.386 . S
C379 C383 1.393 . S
C380 H369 0.950 . S
C380 C378 1.391 . S
C380 C381 1.400 . S
C381 C375 1.491 . S
C381 C380 1.400 . S
C381 C382 1.398 . S
C382 H370 0.950 . S
C382 C381 1.398 . S
C382 C383 1.391 . S
C383 H371 0.950 . S
C383 C379 1.393 . S
C383 C382 1.391 . S
H384 C392 0.950 1_556 S
H385 C397 0.950 . S
H386 C394 0.950 1_556 S
H387 C396 0.950 . S
H388 C398 0.950 . S
H389 C400 0.950 . S
H390 C402 0.950 1_556 S
H391 C403 0.950 1_556 S
C392 H384 0.950 1_554 S
C392 C393 1.386 . S
C392 C394 1.391 . S
C393 C392 1.386 . S
C393 C397 1.393 . S
C394 H386 0.950 1_554 S
C394 C392 1.391 . S
C394 C395 1.400 . S
C395 C394 1.400 . S
C395 C396 1.398 . S
C395 C401 1.491 . S
C396 H387 0.950 . S
C396 C395 1.398 . S
C396 C397 1.391 . S
C397 H385 0.950 . S
C397 C393 1.393 . S
C397 C396 1.391 . S
C398 H388 0.950 . S
C398 C399 1.386 . S
C398 C400 1.391 . S
C399 C398 1.386 . S
C399 C403 1.393 . S
C400 H389 0.950 . S
C400 C398 1.391 . S
C400 C401 1.400 . S
C401 C395 1.491 . S
C401 C400 1.400 . S
C401 C402 1.398 . S
C402 H390 0.950 1_554 S
C402 C401 1.398 . S
C402 C403 1.391 . S
C403 H391 0.950 1_554 S
C403 C399 1.393 . S
C403 C402 1.391 . S
H404 C412 0.950 . S
H405 C417 0.950 . S
H406 C414 0.950 . S
H407 C416 0.950 . S
H408 C418 0.950 . S
H409 C420 0.950 . S
H410 C422 0.950 . S
H411 C423 0.950 . S
C412 H404 0.950 . S
C412 C413 1.386 . S
C412 C414 1.391 . S
C413 C412 1.386 . S
C413 C417 1.393 . S
C414 H406 0.950 . S
C414 C412 1.391 . S
C414 C415 1.400 . S
C415 C414 1.400 . S
C415 C416 1.398 . S
C415 C421 1.491 . S
C416 H407 0.950 . S
C416 C415 1.398 . S
C416 C417 1.391 . S
C417 H405 0.950 . S
C417 C413 1.393 . S
C417 C416 1.391 . S
C418 H408 0.950 . S
C418 C419 1.386 . S
C418 C420 1.391 . S
C419 C418 1.386 . S
C419 C423 1.393 . S
C420 H409 0.950 . S
C420 C418 1.391 . S
C420 C421 1.400 . S
C421 C415 1.491 . S
C421 C420 1.400 . S
C421 C422 1.398 . S
C422 H410 0.950 . S
C422 C421 1.398 . S
C422 C423 1.391 . S
C423 H411 0.950 . S
C423 C419 1.393 . S
C423 C422 1.391 . S
C113 C10 1.616 . S
C119 C62 1.623 . S
C133 C17 1.616 . S
C139 C69 1.619 . S
C153 C88 1.629 . S
C159 C36 1.631 . S
C173 C95 1.616 . S
C179 C49 1.623 . S
C193 C81 1.041 . S
C199 C29 1.033 . S
C213 C96 1.032 . S
C219 C42 1.039 . S
C233 C3 1.055 . S
C239 C55 1.059 . S
C253 C18 1.033 . S
C259 C70 1.040 . S
C273 C31 1.442 . S
C279 C5 1.445 . S
C293 C44 1.444 . S
C299 C16 1.445 . S
C313 C57 1.443 . S
C319 C83 1.438 . S
C333 C94 1.445 . S
C339 C68 1.443 . S
C353 C4 1.421 . S
C359 C75 1.419 . S
C373 C82 1.419 . S
C379 C23 1.417 . S
C393 C30 1.417 . S
C399 C101 1.419 . S
C413 C43 1.421 . S
C419 C56 1.419 . S
