# Generated by pormake.
# Topology acs-a, (4)-cn, num edge types: 1
# Building blocks:
#     Node 0, Type 0, BuildingBlock: KUFVIS_clean_sbu_0, # of connection points: 4
#     Node 1, Type 0, BuildingBlock: KUFVIS_clean_sbu_0, # of connection points: 4
#     Node 2, Type 0, BuildingBlock: KUFVIS_clean_sbu_0, # of connection points: 4
#     Node 3, Type 0, BuildingBlock: KUFVIS_clean_sbu_0, # of connection points: 4
#     Node 4, Type 0, BuildingBlock: KUFVIS_clean_sbu_0, # of connection points: 4
#     Node 5, Type 0, BuildingBlock: KUFVIS_clean_sbu_0, # of connection points: 4
#     Node 6, Type 0, BuildingBlock: KUFVIS_clean_sbu_0, # of connection points: 4
#     Node 7, Type 0, BuildingBlock: KUFVIS_clean_sbu_0, # of connection points: 4
#     Node 8, Type 0, BuildingBlock: KUFVIS_clean_sbu_0, # of connection points: 4
#     Node 9, Type 0, BuildingBlock: KUFVIS_clean_sbu_0, # of connection points: 4
#     Node 10, Type 0, BuildingBlock: KUFVIS_clean_sbu_0, # of connection points: 4
#     Node 11, Type 0, BuildingBlock: KUFVIS_clean_sbu_0, # of connection points: 4
#     Edge 12, Type (0, 0), BuildingBlock: CIFDUS_clean_linker_0, # of connection points: 2
#     Edge 13, Type (0, 0), BuildingBlock: CIFDUS_clean_linker_0, # of connection points: 2
#     Edge 14, Type (0, 0), BuildingBlock: CIFDUS_clean_linker_0, # of connection points: 2
#     Edge 15, Type (0, 0), BuildingBlock: CIFDUS_clean_linker_0, # of connection points: 2
#     Edge 16, Type (0, 0), BuildingBlock: CIFDUS_clean_linker_0, # of connection points: 2
#     Edge 17, Type (0, 0), BuildingBlock: CIFDUS_clean_linker_0, # of connection points: 2
#     Edge 18, Type (0, 0), BuildingBlock: CIFDUS_clean_linker_0, # of connection points: 2
#     Edge 19, Type (0, 0), BuildingBlock: CIFDUS_clean_linker_0, # of connection points: 2
#     Edge 20, Type (0, 0), BuildingBlock: CIFDUS_clean_linker_0, # of connection points: 2
#     Edge 21, Type (0, 0), BuildingBlock: CIFDUS_clean_linker_0, # of connection points: 2
#     Edge 22, Type (0, 0), BuildingBlock: CIFDUS_clean_linker_0, # of connection points: 2
#     Edge 23, Type (0, 0), BuildingBlock: CIFDUS_clean_linker_0, # of connection points: 2
#     Edge 24, Type (0, 0), BuildingBlock: CIFDUS_clean_linker_0, # of connection points: 2
#     Edge 25, Type (0, 0), BuildingBlock: CIFDUS_clean_linker_0, # of connection points: 2
#     Edge 26, Type (0, 0), BuildingBlock: CIFDUS_clean_linker_0, # of connection points: 2
#     Edge 27, Type (0, 0), BuildingBlock: CIFDUS_clean_linker_0, # of connection points: 2
#     Edge 28, Type (0, 0), BuildingBlock: CIFDUS_clean_linker_0, # of connection points: 2
#     Edge 29, Type (0, 0), BuildingBlock: CIFDUS_clean_linker_0, # of connection points: 2
#     Edge 30, Type (0, 0), BuildingBlock: CIFDUS_clean_linker_0, # of connection points: 2
#     Edge 31, Type (0, 0), BuildingBlock: CIFDUS_clean_linker_0, # of connection points: 2
#     Edge 32, Type (0, 0), BuildingBlock: CIFDUS_clean_linker_0, # of connection points: 2
#     Edge 33, Type (0, 0), BuildingBlock: CIFDUS_clean_linker_0, # of connection points: 2
#     Edge 34, Type (0, 0), BuildingBlock: CIFDUS_clean_linker_0, # of connection points: 2
#     Edge 35, Type (0, 0), BuildingBlock: CIFDUS_clean_linker_0, # of connection points: 2
# Relax obj value: 0.494
# Max RMSD: 0.251
# Mean RMSD: 0.226
data_MOF--net-acs-a--node1-KUFVIS_clean_sbu_0--edge1-CIFDUS_clean_linker_0
_symmetry_space_group_name_H-M    P1
_symmetry_Int_Tables_number       1
_symmetry_cell_setting            triclinic
loop_
_symmetry_equiv_pos_as_xyz
'x, y, z'
_cell_length_a     41.764089
_cell_length_b     41.786499
_cell_length_c     34.90499
_cell_angle_alpha  90.009776
_cell_angle_beta   89.996984
_cell_angle_gamma 113.29272
loop_
_atom_site_label
_atom_site_type_symbol
_atom_site_fract_x
_atom_site_fract_y
_atom_site_fract_z
_atom_type_partial_charge
Mn0 Mn 0.57862 0.13844 0.0764 0.0
Mn1 Mn 0.50913 0.13423 0.12861 0.0
C2 C 0.55561 0.18035 0.06971 0.0
C3 C 0.63901 0.15894 0.06931 0.0
C4 C 0.50402 0.08645 0.0615 0.0
O5 O 0.57839 0.10624 0.12026 0.0
O6 O 0.53328 0.10781 0.15479 0.0
C7 C 0.54653 0.17405 0.19648 0.0
N8 N 0.52411 0.17 0.16675 0.0
C9 C 0.51772 0.22311 0.18307 0.0
C10 C 0.54088 0.2279 0.21369 0.0
C11 C 0.55518 0.20317 0.22056 0.0
C12 C 0.50982 0.19341 0.16019 0.0
H13 H 0.55809 0.15545 0.20155 0.0
C14 C 0.55891 0.09856 0.15002 0.0
O15 O 0.61841 0.13232 0.04969 0.0
O16 O 0.62457 0.17276 0.09334 0.0
N17 N 0.48498 0.16016 0.10617 0.0
C18 C 0.46617 0.15371 0.07308 0.0
C19 C 0.45095 0.17667 0.06142 0.0
C20 C 0.45539 0.20609 0.08375 0.0
C21 C 0.47496 0.21226 0.11763 0.0
C22 C 0.48906 0.18819 0.12813 0.0
H23 H 0.4631 0.13142 0.05552 0.0
O24 O 0.57354 0.1748 0.04205 0.0
O25 O 0.55087 0.16028 0.09924 0.0
O26 O 0.53626 0.09985 0.0524 0.0
O27 O 0.49115 0.09707 0.08955 0.0
C28 C 0.48188 0.2419 0.14077 0.0
C29 C 0.50326 0.24733 0.17345 0.0
H30 H 0.54839 0.25078 0.2317 0.0
H31 H 0.57317 0.20678 0.24407 0.0
H32 H 0.43611 0.17187 0.03509 0.0
H33 H 0.44405 0.22401 0.07435 0.0
H34 H 0.47143 0.26102 0.13327 0.0
H35 H 0.50897 0.27057 0.19055 0.0
Mn36 Mn 0.39834 0.56551 0.58912 0.0
Mn37 Mn 0.34715 0.48626 0.62193 0.0
C38 C 0.33918 0.54306 0.57694 0.0
C39 C 0.42416 0.62523 0.59918 0.0
C40 C 0.39862 0.49874 0.55646 0.0
O41 O 0.42763 0.55619 0.63039 0.0
O42 O 0.38842 0.50671 0.65648 0.0
C43 C 0.32385 0.5035 0.69632 0.0
N44 N 0.31613 0.48963 0.6605 0.0
C45 C 0.25494 0.47516 0.67021 0.0
C46 C 0.26222 0.48899 0.70731 0.0
C47 C 0.29684 0.50318 0.72043 0.0
C48 C 0.28287 0.47559 0.64773 0.0
H49 H 0.35043 0.51485 0.70639 0.0
C50 C 0.41812 0.53277 0.65641 0.0
O51 O 0.43682 0.6104 0.57409 0.0
O52 O 0.39724 0.60531 0.61864 0.0
N53 N 0.30636 0.46571 0.59069 0.0
C54 C 0.30394 0.45527 0.55343 0.0
C55 C 0.27119 0.44161 0.5355 0.0
C56 C 0.24129 0.43894 0.55596 0.0
C57 C 0.24441 0.44994 0.59424 0.0
C58 C 0.27771 0.46307 0.61071 0.0
H59 H 0.32685 0.45761 0.53739 0.0
O60 O 0.36055 0.56715 0.55501 0.0
O61 O 0.35362 0.5325 0.60427 0.0
O62 O 0.40724 0.53146 0.55379 0.0
O63 O 0.37751 0.47971 0.58171 0.0
C64 C 0.21589 0.44905 0.61642 0.0
C65 C 0.22114 0.46157 0.65442 0.0
H66 H 0.24142 0.48901 0.7258 0.0
H67 H 0.30278 0.51398 0.74899 0.0
H68 H 0.26903 0.43336 0.50587 0.0
H69 H 0.21612 0.42869 0.54191 0.0
H70 H 0.18985 0.43909 0.60443 0.0
H71 H 0.19905 0.46102 0.67109 0.0
Mn72 Mn 0.85437 0.36492 0.06902 0.0
Mn73 Mn 0.89127 0.31247 0.10258 0.0
C74 C 0.82678 0.30521 0.05988 0.0
C75 C 0.81824 0.3946 0.07787 0.0
C76 C 0.92075 0.36385 0.03722 0.0
O77 O 0.88867 0.39412 0.10935 0.0
O78 O 0.90429 0.35356 0.13731 0.0
C79 C 0.85576 0.28901 0.17705 0.0
N80 N 0.86299 0.28143 0.14093 0.0
C81 C 0.8275 0.22049 0.14976 0.0
C82 C 0.81968 0.22765 0.18704 0.0
C83 C 0.83393 0.26205 0.20076 0.0
C84 C 0.8498 0.24835 0.12762 0.0
H85 H 0.86629 0.31545 0.18757 0.0
C86 C 0.90357 0.38405 0.13605 0.0
O87 O 0.84297 0.40474 0.0525 0.0
O88 O 0.81494 0.36761 0.09848 0.0
N89 N 0.87855 0.27197 0.07076 0.0
C90 C 0.88696 0.26975 0.03342 0.0
C91 C 0.87388 0.23724 0.01498 0.0
C92 C 0.8522 0.20739 0.03504 0.0
C93 C 0.84381 0.21033 0.07341 0.0
C94 C 0.85786 0.24337 0.0904 0.0
H95 H 0.90332 0.29263 0.01774 0.0
O96 O 0.8205 0.32651 0.0369 0.0
O97 O 0.85037 0.32011 0.08564 0.0
O98 O 0.89425 0.3712 0.03294 0.0
O99 O 0.92291 0.34312 0.06301 0.0
C100 C 0.82153 0.18187 0.09525 0.0
C101 C 0.81343 0.18694 0.1334 0.0
H102 H 0.80253 0.207 0.20527 0.0
H103 H 0.82789 0.26781 0.22944 0.0
H104 H 0.88034 0.23521 0.9853 0.0
H105 H 0.84193 0.18241 0.02061 0.0
H106 H 0.81023 0.15602 0.08285 0.0
H107 H 0.796 0.16492 0.14978 0.0
Mn108 Mn 0.42198 0.85624 0.58238 0.0
Mn109 Mn 0.49585 0.86901 0.63082 0.0
C110 C 0.45146 0.82036 0.57182 0.0
C111 C 0.36111 0.82843 0.58073 0.0
C112 C 0.49217 0.91516 0.56514 0.0
O113 O 0.42021 0.88666 0.62698 0.0
O114 O 0.46771 0.88967 0.66016 0.0
C115 C 0.46607 0.8255 0.69925 0.0
N116 N 0.48734 0.83296 0.66801 0.0
C117 C 0.50414 0.78534 0.68182 0.0
C118 C 0.4825 0.77723 0.71415 0.0
C119 C 0.46343 0.79742 0.72296 0.0
C120 C 0.50611 0.81392 0.65953 0.0
H121 H 0.45104 0.84068 0.70591 0.0
C122 C 0.43994 0.89562 0.65643 0.0
O123 O 0.37731 0.85585 0.55977 0.0
O124 O 0.38011 0.81781 0.60224 0.0
N125 N 0.52412 0.84894 0.60533 0.0
C126 C 0.54095 0.85792 0.57107 0.0
C127 C 0.56007 0.83925 0.55727 0.0
C128 C 0.56149 0.81139 0.57867 0.0
C129 C 0.54375 0.80244 0.61371 0.0
C130 C 0.52551 0.8223 0.62628 0.0
H131 H 0.53943 0.87886 0.55413 0.0
O132 O 0.43028 0.82312 0.54609 0.0
O133 O 0.45496 0.83921 0.60226 0.0
O134 O 0.46003 0.89837 0.55662 0.0
O135 O 0.50746 0.90673 0.59267 0.0
C136 C 0.54265 0.77397 0.63609 0.0
C137 C 0.52288 0.76544 0.67015 0.0
H138 H 0.4799 0.7552 0.732 0.0
H139 H 0.44652 0.79116 0.74778 0.0
H140 H 0.57341 0.8461 0.53001 0.0
H141 H 0.57589 0.79676 0.56768 0.0
H142 H 0.55642 0.75808 0.62703 0.0
H143 H 0.52172 0.74311 0.68675 0.0
Mn144 Mn 0.60709 0.43713 0.05901 0.0
Mn145 Mn 0.66102 0.5083 0.10544 0.0
C146 C 0.66638 0.45838 0.04746 0.0
C147 C 0.57849 0.37679 0.05902 0.0
C148 C 0.61161 0.50949 0.04233 0.0
O149 O 0.57813 0.44179 0.10396 0.0
O150 O 0.61927 0.48433 0.13796 0.0
C151 C 0.68143 0.4752 0.17057 0.0
N152 N 0.69055 0.49638 0.13928 0.0
C153 C 0.7507 0.50469 0.14562 0.0
C154 C 0.74195 0.48304 0.17794 0.0
C155 C 0.70716 0.46822 0.19045 0.0
C156 C 0.72397 0.51089 0.12707 0.0
H157 H 0.65463 0.46327 0.1799 0.0
C158 C 0.58851 0.46045 0.13413 0.0
O159 O 0.56717 0.39576 0.03789 0.0
O160 O 0.60562 0.39296 0.08006 0.0
N161 N 0.7024 0.53236 0.07613 0.0
C162 C 0.70584 0.54954 0.04222 0.0
C163 C 0.73882 0.56477 0.02495 0.0
C164 C 0.76784 0.562 0.04259 0.0
C165 C 0.76364 0.54411 0.07743 0.0
C166 C 0.73026 0.52998 0.09364 0.0
H167 H 0.68358 0.55142 0.02829 0.0
O168 O 0.64464 0.43843 0.02241 0.0
O169 O 0.6522 0.46554 0.07745 0.0
O170 O 0.60177 0.47781 0.03191 0.0
O171 O 0.63193 0.52294 0.07061 0.0
C172 C 0.79108 0.53888 0.09613 0.0
C173 C 0.7846 0.51912 0.13015 0.0
H174 H 0.76164 0.47704 0.19281 0.0
H175 H 0.70009 0.45105 0.21503 0.0
H176 H 0.74181 0.57836 0.99794 0.0
H177 H 0.79314 0.57336 0.0289 0.0
H178 H 0.81714 0.54936 0.08417 0.0
H179 H 0.80574 0.51461 0.1438 0.0
Mn180 Mn 0.1452 0.62632 0.55337 0.0
Mn181 Mn 0.11716 0.68442 0.59159 0.0
C182 C 0.17424 0.68514 0.53955 0.0
C183 C 0.17859 0.59332 0.55633 0.0
C184 C 0.07773 0.6316 0.53077 0.0
O185 O 0.11548 0.60058 0.5987 0.0
O186 O 0.10488 0.64404 0.62722 0.0
C187 C 0.16067 0.70729 0.66132 0.0
N188 N 0.1505 0.71494 0.62663 0.0
C189 C 0.18916 0.7753 0.63257 0.0
C190 C 0.2 0.76808 0.66838 0.0
C191 C 0.18566 0.73393 0.68282 0.0
C192 C 0.16379 0.7478 0.61269 0.0
H193 H 0.14994 0.68103 0.67241 0.0
C194 C 0.10402 0.61293 0.62661 0.0
O195 O 0.151 0.58394 0.53494 0.0
O196 O 0.18662 0.62164 0.57634 0.0
N197 N 0.12919 0.72442 0.55914 0.0
C198 C 0.1178 0.72652 0.52304 0.0
C199 C 0.13069 0.75866 0.50382 0.0
C200 C 0.15526 0.78824 0.52184 0.0
C201 C 0.16673 0.78541 0.55895 0.0
C202 C 0.1527 0.75277 0.57683 0.0
H203 H 0.09922 0.70379 0.50889 0.0
O204 O 0.17615 0.66174 0.51618 0.0
O205 O 0.15421 0.67294 0.56908 0.0
O206 O 0.10173 0.62102 0.52389 0.0
O207 O 0.08029 0.65465 0.55593 0.0
C208 C 0.19206 0.81353 0.57857 0.0
C209 C 0.20322 0.80849 0.61538 0.0
H210 H 0.2196 0.78846 0.68483 0.0
H211 H 0.19402 0.72811 0.71034 0.0
H212 H 0.12188 0.76059 0.47509 0.0
H213 H 0.16539 0.81291 0.50678 0.0
H214 H 0.20342 0.83906 0.56543 0.0
H215 H 0.22302 0.83021 0.62998 0.0
Mn216 Mn 0.85007 0.42522 0.41225 0.0
Mn217 Mn 0.86008 0.49964 0.36694 0.0
C218 C 0.80875 0.44906 0.41896 0.0
C219 C 0.82742 0.36432 0.41087 0.0
C220 C 0.90402 0.49637 0.435 0.0
O221 O 0.88538 0.4291 0.37047 0.0
O222 O 0.88477 0.47545 0.33748 0.0
C223 C 0.82061 0.47118 0.29572 0.0
N224 N 0.82521 0.49055 0.32823 0.0
C225 C 0.7743 0.50212 0.31469 0.0
C226 C 0.76907 0.48233 0.28112 0.0
C227 C 0.79234 0.46685 0.27153 0.0
C228 C 0.80313 0.50584 0.33751 0.0
H229 H 0.83815 0.45881 0.28854 0.0
C230 C 0.89389 0.44963 0.34157 0.0
O231 O 0.85246 0.3817 0.43433 0.0
O232 O 0.81631 0.38222 0.38825 0.0
N233 N 0.83601 0.52378 0.39322 0.0
C234 C 0.8428 0.53925 0.42834 0.0
C235 C 0.82114 0.55495 0.44277 0.0
C236 C 0.79261 0.5544 0.42107 0.0
C237 C 0.78605 0.5382 0.38507 0.0
C238 C 0.80883 0.52343 0.37192 0.0
H239 H 0.86438 0.53936 0.4454 0.0
O240 O 0.81151 0.42803 0.44488 0.0
O241 O 0.83124 0.45618 0.39148 0.0
O242 O 0.88761 0.46402 0.4425 0.0
O243 O 0.89648 0.51169 0.40687 0.0
C244 C 0.75722 0.53529 0.36222 0.0
C245 C 0.75135 0.51725 0.32706 0.0
H246 H 0.74691 0.47842 0.2629 0.0
H247 H 0.78829 0.4513 0.24578 0.0
H248 H 0.82624 0.56719 0.4707 0.0
H249 H 0.77569 0.56612 0.43253 0.0
H250 H 0.73907 0.54633 0.37173 0.0
H251 H 0.72875 0.51466 0.31005 0.0
Mn252 Mn 0.35885 0.85456 0.93454 0.0
Mn253 Mn 0.30208 0.88677 0.9025 0.0
C254 C 0.30046 0.82642 0.95009 0.0
C255 C 0.39047 0.82053 0.92475 0.0
C256 C 0.35721 0.92162 0.96309 0.0
O257 O 0.38433 0.88699 0.89115 0.0
O258 O 0.34084 0.89869 0.86448 0.0
C259 C 0.27486 0.84534 0.83213 0.0
N260 N 0.26918 0.85525 0.86781 0.0
C261 C 0.20816 0.81805 0.86449 0.0
C262 C 0.21334 0.80757 0.82766 0.0
C263 C 0.24684 0.82129 0.81141 0.0
C264 C 0.237 0.84245 0.88358 0.0
H265 H 0.30063 0.85548 0.81971 0.0
C266 C 0.37195 0.89949 0.86427 0.0
O267 O 0.40109 0.84643 0.94865 0.0
O268 O 0.36154 0.81445 0.90652 0.0
N269 N 0.26364 0.87529 0.93723 0.0
C270 C 0.26353 0.88613 0.97402 0.0
C271 C 0.23224 0.8738 0.99489 0.0
C272 C 0.20145 0.85035 0.97781 0.0
C273 C 0.20222 0.83947 0.93994 0.0
C274 C 0.23409 0.85294 0.9204 0.0
H275 H 0.28716 0.90388 0.98743 0.0
O276 O 0.32416 0.82211 0.97103 0.0
O277 O 0.31224 0.84775 0.92145 0.0
O278 O 0.36568 0.89595 0.96826 0.0
O279 O 0.33465 0.92167 0.93837 0.0
C280 C 0.17277 0.81523 0.92111 0.0
C281 C 0.17573 0.80454 0.88341 0.0
H282 H 0.19188 0.78868 0.81179 0.0
H283 H 0.25108 0.81315 0.7831 0.0
H284 H 0.2319 0.88219 0.02417 0.0
H285 H 0.17744 0.84064 0.99414 0.0
H286 H 0.14779 0.80433 0.93554 0.0
H287 H 0.15301 0.78555 0.86943 0.0
Mn288 Mn 0.55063 0.39087 0.41843 0.0
Mn289 Mn 0.47795 0.33298 0.37716 0.0
C290 C 0.53053 0.33247 0.43399 0.0
C291 C 0.61081 0.42092 0.41849 0.0
C292 C 0.47761 0.38502 0.43745 0.0
O293 O 0.54474 0.41657 0.37146 0.0
O294 O 0.49896 0.37421 0.34276 0.0
C295 C 0.50869 0.31263 0.30977 0.0
N296 N 0.48988 0.30375 0.34282 0.0
C297 C 0.48285 0.24398 0.33657 0.0
C298 C 0.50189 0.25244 0.30233 0.0
C299 C 0.51485 0.28693 0.28886 0.0
C300 C 0.47703 0.27058 0.35586 0.0
H301 H 0.51912 0.33916 0.29953 0.0
C302 C 0.52369 0.40477 0.34335 0.0
O303 O 0.59096 0.43247 0.43772 0.0
O304 O 0.59562 0.39264 0.39875 0.0
N305 N 0.45689 0.29202 0.40799 0.0
C306 C 0.44154 0.28872 0.44304 0.0
C307 C 0.42834 0.2561 0.46122 0.0
C308 C 0.43127 0.22727 0.44334 0.0
C309 C 0.44737 0.23132 0.40739 0.0
C310 C 0.45962 0.26437 0.39041 0.0
H311 H 0.43973 0.31089 0.45721 0.0
O312 O 0.55034 0.35582 0.45775 0.0
O313 O 0.52245 0.34445 0.40288 0.0
O314 O 0.51022 0.39754 0.44411 0.0
O315 O 0.46272 0.36126 0.41268 0.0
C316 C 0.45256 0.20408 0.38824 0.0
C317 C 0.47025 0.21039 0.35283 0.0
H318 H 0.507 0.23271 0.28646 0.0
H319 H 0.52977 0.29378 0.26259 0.0
H320 H 0.41622 0.25325 0.48912 0.0
H321 H 0.42145 0.20224 0.45769 0.0
H322 H 0.44348 0.17828 0.40074 0.0
H323 H 0.47452 0.18936 0.33863 0.0
Mn324 Mn 0.14082 0.5777 0.91533 0.0
Mn325 Mn 0.13756 0.50412 0.87251 0.0
C326 C 0.17954 0.55311 0.93293 0.0
C327 C 0.16316 0.63855 0.91444 0.0
C328 C 0.08547 0.50535 0.93259 0.0
O329 O 0.11226 0.57498 0.86751 0.0
O330 O 0.11514 0.52783 0.83884 0.0
C331 C 0.18398 0.53576 0.80669 0.0
N332 N 0.17614 0.51492 0.83828 0.0
C333 C 0.22769 0.50321 0.83022 0.0
C334 C 0.2363 0.5246 0.79768 0.0
C335 C 0.2143 0.54084 0.78578 0.0
C336 C 0.19696 0.49888 0.84977 0.0
H337 H 0.16744 0.54875 0.79775 0.0
C338 C 0.10633 0.55399 0.83928 0.0
O339 O 0.13508 0.62084 0.93376 0.0
O340 O 0.17776 0.62105 0.89605 0.0
N341 N 0.15946 0.47975 0.90196 0.0
C342 C 0.14972 0.46353 0.93644 0.0
C343 C 0.16988 0.44721 0.95324 0.0
C344 C 0.19992 0.4479 0.93454 0.0
C345 C 0.20954 0.46491 0.89916 0.0
C346 C 0.18815 0.48026 0.88352 0.0
H347 H 0.127 0.46341 0.95125 0.0
O348 O 0.17314 0.57419 0.95603 0.0
O349 O 0.16278 0.54706 0.90064 0.0
O350 O 0.09923 0.53804 0.93963 0.0
O351 O 0.09744 0.49039 0.90782 0.0
C352 C 0.24009 0.46812 0.87939 0.0
C353 C 0.24915 0.48726 0.84494 0.0
H354 H 0.26015 0.52942 0.78214 0.0
H355 H 0.22093 0.55755 0.76081 0.0
H356 H 0.16245 0.43441 0.98072 0.0
H357 H 0.21567 0.43571 0.94786 0.0
H358 H 0.25717 0.45659 0.89085 0.0
H359 H 0.27312 0.49024 0.83047 0.0
Mn360 Mn 0.6286 0.14813 0.42816 0.0
Mn361 Mn 0.68815 0.11685 0.40253 0.0
C362 C 0.68616 0.17731 0.44669 0.0
C363 C 0.5974 0.18208 0.41527 0.0
C364 C 0.63085 0.08235 0.46106 0.0
O365 O 0.60568 0.1151 0.38424 0.0
O366 O 0.65036 0.10212 0.36316 0.0
C367 C 0.71612 0.15609 0.33103 0.0
N368 N 0.72131 0.14772 0.36757 0.0
C369 C 0.78198 0.1862 0.36507 0.0
C370 C 0.77734 0.19502 0.32732 0.0
C371 C 0.74426 0.17989 0.31024 0.0
C372 C 0.75309 0.16192 0.38419 0.0
H373 H 0.69065 0.14492 0.31796 0.0
C374 C 0.61931 0.10116 0.36007 0.0
O375 O 0.5856 0.1561 0.43898 0.0
O376 O 0.62698 0.18795 0.39859 0.0
N377 N 0.72578 0.13083 0.43856 0.0
C378 C 0.72524 0.12171 0.4761 0.0
C379 C 0.75597 0.13573 0.49785 0.0
C380 C 0.78685 0.1591 0.48085 0.0
C381 C 0.78674 0.16822 0.44221 0.0
C382 C 0.75543 0.1531 0.42184 0.0
H383 H 0.7015 0.10408 0.48943 0.0
O384 O 0.66129 0.18124 0.46584 0.0
O385 O 0.67602 0.15554 0.41826 0.0
O386 O 0.62031 0.10693 0.46289 0.0
O387 O 0.65548 0.08287 0.439 0.0
C388 C 0.81626 0.19233 0.42338 0.0
C389 C 0.81389 0.20129 0.38483 0.0
H390 H 0.79886 0.21372 0.31136 0.0
H391 H 0.74041 0.18678 0.28122 0.0
H392 H 0.7558 0.12873 0.52772 0.0
H393 H 0.81041 0.17013 0.49784 0.0
H394 H 0.84081 0.2045 0.43843 0.0
H395 H 0.83664 0.22024 0.37083 0.0
Mn396 Mn 0.43798 0.61422 0.93544 0.0
Mn397 Mn 0.51341 0.66854 0.89708 0.0
C398 C 0.45888 0.67293 0.94932 0.0
C399 C 0.3781 0.58679 0.92635 0.0
C400 C 0.50796 0.61728 0.96105 0.0
O401 O 0.44682 0.58608 0.89241 0.0
O402 O 0.49247 0.62741 0.86271 0.0
C403 C 0.48666 0.69026 0.82771 0.0
N404 N 0.50479 0.69875 0.86122 0.0
C405 C 0.51377 0.75899 0.85437 0.0
C406 C 0.4954 0.75093 0.81966 0.0
C407 C 0.48176 0.71639 0.80631 0.0
C408 C 0.51811 0.73189 0.8743 0.0
H409 H 0.47561 0.66366 0.81765 0.0
C410 C 0.46831 0.59663 0.86459 0.0
O411 O 0.3937 0.57425 0.95077 0.0
O412 O 0.39719 0.61461 0.90792 0.0
N413 N 0.53492 0.70934 0.92801 0.0
C414 C 0.54911 0.71215 0.96363 0.0
C415 C 0.56286 0.74479 0.98177 0.0
C416 C 0.5617 0.77414 0.96321 0.0
C417 C 0.54691 0.7706 0.92658 0.0
C418 C 0.53415 0.73753 0.90965 0.0
H419 H 0.54972 0.68961 0.97821 0.0
O420 O 0.43599 0.65057 0.97157 0.0
O421 O 0.4686 0.65966 0.92028 0.0
O422 O 0.4754 0.60733 0.96775 0.0
O423 O 0.52415 0.63853 0.93437 0.0
C424 C 0.54346 0.7984 0.90668 0.0
C425 C 0.52686 0.79259 0.87063 0.0
H426 H 0.4911 0.77095 0.8034 0.0
H427 H 0.46711 0.70979 0.77985 0.0
H428 H 0.57406 0.74728 0.01013 0.0
H429 H 0.57189 0.79918 0.97753 0.0
H430 H 0.55295 0.82424 0.91914 0.0
H431 H 0.52377 0.81403 0.85594 0.0
H432 H 0.6444 0.08903 0.29183 0.0
H433 H 0.5496 0.08178 0.34797 0.0
H434 H 0.51976 0.07199 0.28644 0.0
H435 H 0.52381 0.07681 0.21692 0.0
H436 H 0.61996 0.08933 0.16021 0.0
H437 H 0.64552 0.0845 0.22166 0.0
C438 C 0.617 0.0845 0.29076 0.0
C439 C 0.59954 0.08703 0.32441 0.0
C440 C 0.60024 0.08007 0.25506 0.0
C441 C 0.5639 0.08068 0.32245 0.0
C442 C 0.54678 0.0751 0.28724 0.0
C443 C 0.5501 0.07764 0.21774 0.0
C444 C 0.57018 0.08437 0.18401 0.0
C445 C 0.56519 0.0765 0.25329 0.0
C446 C 0.60394 0.08459 0.18569 0.0
C447 C 0.61874 0.08216 0.22094 0.0
H448 H 0.40082 0.50004 0.72549 0.0
H449 H 0.48409 0.58233 0.66678 0.0
H450 H 0.51089 0.60626 0.72795 0.0
H451 H 0.50393 0.61072 0.79707 0.0
H452 H 0.4183 0.53067 0.85546 0.0
H453 H 0.39949 0.49903 0.7955 0.0
C454 C 0.42529 0.5227 0.72592 0.0
C455 C 0.43972 0.53998 0.69156 0.0
C456 C 0.43983 0.53725 0.76125 0.0
C457 C 0.47191 0.56887 0.6928 0.0
C458 C 0.4872 0.58276 0.72783 0.0
C459 C 0.4816 0.58598 0.79695 0.0
C460 C 0.46206 0.57368 0.83062 0.0
C461 C 0.47028 0.56831 0.76216 0.0
C462 C 0.43354 0.5412 0.8299 0.0
C463 C 0.42266 0.52304 0.79555 0.0
H464 H 0.92128 0.36714 0.20606 0.0
H465 H 0.91238 0.45227 0.14312 0.0
H466 H 0.91599 0.48385 0.20269 0.0
H467 H 0.90985 0.48197 0.27227 0.0
H468 H 0.91384 0.39464 0.33533 0.0
H469 H 0.9247 0.36975 0.27608 0.0
C470 C 0.92095 0.39295 0.20517 0.0
C471 C 0.91554 0.40681 0.17017 0.0
C472 C 0.92168 0.41045 0.23968 0.0
C473 C 0.91582 0.44059 0.16968 0.0
C474 C 0.91775 0.45867 0.20379 0.0
C475 C 0.91389 0.45789 0.27334 0.0
C476 C 0.91005 0.43979 0.3082 0.0
C477 C 0.9188 0.44301 0.23901 0.0
C478 C 0.91605 0.40894 0.3089 0.0
C479 C 0.9221 0.39454 0.27494 0.0
H480 H 0.35067 0.9107 0.79343 0.0
H481 H 0.4413 0.91393 0.85566 0.0
H482 H 0.47284 0.91935 0.79574 0.0
H483 H 0.47129 0.91316 0.72616 0.0
H484 H 0.37957 0.90651 0.66366 0.0
H485 H 0.35235 0.91323 0.72317 0.0
C486 C 0.37757 0.91339 0.79401 0.0
C487 C 0.39325 0.9111 0.82904 0.0
C488 C 0.39535 0.91552 0.75931 0.0
C489 C 0.4283 0.91499 0.82913 0.0
C490 C 0.4464 0.91803 0.79483 0.0
C491 C 0.44564 0.91393 0.7253 0.0
C492 C 0.4273 0.90854 0.69044 0.0
C493 C 0.42965 0.91673 0.75974 0.0
C494 C 0.39425 0.91015 0.69004 0.0
C495 C 0.37851 0.91381 0.72415 0.0
H496 H 0.49481 0.38421 0.27283 0.0
H497 H 0.57122 0.47163 0.33271 0.0
H498 H 0.59464 0.49947 0.27181 0.0
H499 H 0.59978 0.4943 0.20257 0.0
H500 H 0.5256 0.40526 0.14284 0.0
H501 H 0.49477 0.38315 0.20272 0.0
C502 C 0.51608 0.40972 0.2727 0.0
C503 C 0.53171 0.42535 0.30742 0.0
C504 C 0.53021 0.42514 0.23755 0.0
C505 C 0.55898 0.45865 0.3065 0.0
C506 C 0.57253 0.47458 0.27163 0.0
C507 C 0.5765 0.47037 0.20241 0.0
C508 C 0.56555 0.45115 0.16829 0.0
C509 C 0.55939 0.4573 0.23708 0.0
C510 C 0.53494 0.42049 0.16867 0.0
C511 C 0.51732 0.4077 0.20298 0.0
H512 H 0.08526 0.63195 0.69501 0.0
H513 H 0.09996 0.54662 0.63874 0.0
H514 H 0.09595 0.51773 0.70022 0.0
H515 H 0.09786 0.5213 0.77016 0.0
H516 H 0.08638 0.60822 0.82657 0.0
H517 H 0.0789 0.63137 0.76472 0.0
C518 C 0.08689 0.60669 0.69595 0.0
C519 C 0.09366 0.59193 0.66223 0.0
C520 C 0.08549 0.59058 0.73155 0.0
C521 C 0.09523 0.55893 0.66419 0.0
C522 C 0.09306 0.54238 0.69942 0.0
C523 C 0.09297 0.54492 0.76912 0.0
C524 C 0.09344 0.5633 0.80309 0.0
C525 C 0.08968 0.55868 0.73338 0.0
C526 C 0.08663 0.59367 0.80098 0.0
C527 C 0.08249 0.60706 0.76554 0.0
H528 H 0.4335 0.0637 0.05163 0.0
H529 H 0.52228 0.03985 0.02296 0.0
H530 H 0.48418 0.98664 0.99094 0.0
H531 H 0.42607 0.94628 0.97242 0.0
H532 H 0.33688 0.97057 0.996 0.0
H533 H 0.37474 0.02445 0.0288 0.0
C534 C 0.44446 0.0469 0.0382 0.0
C535 C 0.48069 0.05566 0.03982 0.0
C536 C 0.42238 0.01646 0.01922 0.0
C537 C 0.49457 0.03385 0.02197 0.0
C538 C 0.47279 0.00331 0.00382 0.0
C539 C 0.41486 0.96328 0.985 0.0
C540 C 0.37877 0.95431 0.98266 0.0
C541 C 0.43674 0.99426 0.00261 0.0
C542 C 0.36462 0.97693 0.9979 0.0
C543 C 0.38624 0.00763 0.01656 0.0
H544 H 0.37507 0.43083 0.53374 0.0
H545 H 0.46137 0.53059 0.52175 0.0
H546 H 0.49304 0.5039 0.48374 0.0
H547 H 0.49746 0.45221 0.4563 0.0
H548 H 0.41063 0.35271 0.46402 0.0
H549 H 0.37775 0.3793 0.50134 0.0
C550 C 0.40071 0.44669 0.52259 0.0
C551 C 0.41594 0.48257 0.53074 0.0
C552 C 0.41871 0.43124 0.50027 0.0
C553 C 0.449 0.50294 0.51576 0.0
C554 C 0.46724 0.4877 0.49418 0.0
C555 C 0.47134 0.43634 0.46623 0.0
C556 C 0.45664 0.40054 0.45821 0.0
C557 C 0.45253 0.45187 0.48672 0.0
C558 C 0.4225 0.38034 0.47025 0.0
C559 C 0.40377 0.39551 0.49154 0.0
H560 H 0.06221 0.43585 0.94712 0.0
H561 H 0.0368 0.52543 0.96456 0.0
H562 H 0.98252 0.48868 0.99621 0.0
H563 H 0.9426 0.43148 0.01909 0.0
H564 H 0.96977 0.3426 0.00708 0.0
H565 H 0.02325 0.37875 0.97277 0.0
C566 C 0.04484 0.44736 0.95793 0.0
C567 C 0.0535 0.48335 0.95343 0.0
C568 C 0.01401 0.42619 0.97675 0.0
C569 C 0.03085 0.49789 0.96786 0.0
C570 C -0.00026 0.47686 0.98577 0.0
C571 C 0.96004 0.41992 0.00851 0.0
C572 C 0.95209 0.38435 0.01482 0.0
C573 C 0.99106 0.44104 0.99024 0.0
C574 C 0.97531 0.36987 0.00212 0.0
C575 C 0.00583 0.39053 0.98267 0.0
H576 H 0.56149 0.05449 0.47107 0.0
H577 H 0.65456 0.03774 0.49737 0.0
H578 H 0.61952 0.98422 0.53218 0.0
H579 H 0.56249 0.94296 0.55544 0.0
H580 H 0.46918 0.95781 0.52457 0.0
H581 H 0.50439 0.01153 0.49085 0.0
C582 C 0.57413 0.03924 0.48471 0.0
C583 C 0.61057 0.05024 0.4824 0.0
C584 C 0.55379 0.00821 0.50351 0.0
C585 C 0.62658 0.02983 0.49914 0.0
C586 C 0.60656 0.99931 0.51894 0.0
C587 C 0.5498 0.95783 0.54119 0.0
C588 C 0.51321 0.94645 0.54265 0.0
C589 C 0.57015 0.98832 0.52133 0.0
C590 C 0.49722 0.9659 0.52375 0.0
C591 C 0.51735 0.99668 0.50464 0.0
H592 H 0.55185 0.59107 0.93219 0.0
H593 H 0.50668 0.6063 0.03808 0.0
H594 H 0.53771 0.57651 0.07338 0.0
H595 H 0.57562 0.54385 0.07322 0.0
H596 H 0.61475 0.52266 0.96616 0.0
H597 H 0.58831 0.55727 0.93177 0.0
C598 C 0.54921 0.58815 0.96307 0.0
C599 C 0.52753 0.60101 0.98281 0.0
C600 C 0.56589 0.56989 0.98267 0.0
C601 C 0.52343 0.59655 0.02257 0.0
C602 C 0.54111 0.57959 0.04262 0.0
C603 C 0.57851 0.54722 0.0424 0.0
C604 C 0.59717 0.53131 0.02199 0.0
C605 C 0.56211 0.56586 0.02288 0.0
C606 C 0.60044 0.53496 0.98212 0.0
C607 C 0.58538 0.55465 0.96261 0.0
H608 H 0.93281 0.56676 0.44557 0.0
H609 H 0.94525 0.47211 0.47586 0.0
H610 H 0.0003 0.50612 0.5076 0.0
H611 H 0.0461 0.56248 0.52406 0.0
H612 H 0.03291 0.65737 0.49823 0.0
H613 H 0.97677 0.62352 0.46715 0.0
C614 C 0.94744 0.55358 0.45942 0.0
C615 C 0.93504 0.51693 0.45813 0.0
C616 C 0.97899 0.57331 0.47795 0.0
C617 C 0.95409 0.50022 0.47656 0.0
C618 C 0.98569 0.51965 0.49448 0.0
C619 C 0.03095 0.57573 0.51143 0.0
C620 C 0.04374 0.61228 0.5125 0.0
C621 C 0.9986 0.55615 0.49479 0.0
C622 C 0.02359 0.62923 0.49723 0.0
C623 C 0.99159 0.60989 0.47958 0.0
H624 H 0.53088 0.21703 0.02122 0.0
H625 H 0.58423 0.2228 0.12843 0.0
H626 H 0.59103 0.28279 0.13717 0.0
H627 H 0.58676 0.3348 0.11222 0.0
H628 H 0.53731 0.33283 0.00335 0.0
H629 H 0.52295 0.26998 0.99779 0.0
C630 C 0.54353 0.23151 0.04658 0.0
C631 C 0.55626 0.21547 0.07466 0.0
C632 C 0.54796 0.26653 0.05114 0.0
C633 C 0.57335 0.23443 0.10705 0.0
C634 C 0.57746 0.26878 0.11197 0.0
C635 C 0.57248 0.3206 0.0874 0.0
C636 C 0.56354 0.33838 0.058 0.0
C637 C 0.56542 0.28519 0.08396 0.0
C638 C 0.54452 0.31959 0.02635 0.0
C639 C 0.53663 0.28379 0.02303 0.0
H640 H 0.28981 0.53127 0.52198 0.0
H641 H 0.31123 0.55531 0.64173 0.0
H642 H 0.26008 0.56926 0.64731 0.0
H643 H 0.2153 0.58399 0.61564 0.0
H644 H 0.19257 0.55955 0.49618 0.0
H645 H 0.23795 0.53632 0.49279 0.0
C646 C 0.28249 0.53854 0.54942 0.0
C647 C 0.30381 0.54189 0.58146 0.0
C648 C 0.25331 0.5472 0.55225 0.0
C649 C 0.29462 0.55177 0.61689 0.0
C650 C 0.26567 0.56024 0.61999 0.0
C651 C 0.21996 0.573 0.58909 0.0
C652 C 0.20135 0.57401 0.55605 0.0
C653 C 0.24575 0.55949 0.5875 0.0
C654 C 0.20692 0.55918 0.52192 0.0
C655 C 0.2329 0.54604 0.51994 0.0
H656 H 0.78832 0.2536 0.01003 0.0
H657 H 0.7981 0.284 0.1289 0.0
H658 H 0.74325 0.23632 0.14368 0.0
H659 H 0.68799 0.19291 0.12125 0.0
H660 H 0.67475 0.16309 0.00232 0.0
H661 H 0.73513 0.20303 0.98905 0.0
C662 C 0.77877 0.24897 0.03925 0.0
C663 C 0.79778 0.27169 0.06853 0.0
C664 C 0.74617 0.22198 0.0474 0.0
C665 C 0.78477 0.26607 0.10616 0.0
C666 C 0.75302 0.2391 0.11456 0.0
C667 C 0.69862 0.19456 0.09259 0.0
C668 C 0.67699 0.17558 0.06271 0.0
C669 C 0.7329 0.21785 0.0852 0.0
C670 C 0.69103 0.17754 0.02579 0.0
C671 C 0.72544 0.2006 0.01816 0.0
H672 H 0.43589 0.77584 0.63002 0.0
H673 H 0.47766 0.7918 0.51559 0.0
H674 H 0.47804 0.73307 0.51588 0.0
H675 H 0.45945 0.67497 0.54657 0.0
H676 H 0.41655 0.66059 0.66086 0.0
H677 H 0.42517 0.72167 0.66358 0.0
C678 C 0.44639 0.76697 0.60572 0.0
C679 C 0.45769 0.78819 0.57328 0.0
C680 C 0.44621 0.7335 0.60616 0.0
C681 C 0.46946 0.77589 0.54112 0.0
C682 C 0.4696 0.74241 0.54133 0.0
C683 C 0.45292 0.68554 0.57238 0.0
C684 C 0.43696 0.66332 0.60328 0.0
C685 C 0.45713 0.72063 0.57339 0.0
C686 C 0.42845 0.67716 0.63655 0.0
C687 C 0.43323 0.712 0.63809 0.0
H688 H 0.68924 0.43198 0.1053 0.0
H689 H 0.71886 0.47929 0.99427 0.0
H690 H 0.77205 0.46743 0.99602 0.0
H691 H 0.80614 0.43767 0.02665 0.0
H692 H 0.77355 0.38811 0.1366 0.0
H693 H 0.72583 0.40776 0.13845 0.0
C694 C 0.70796 0.4407 0.08205 0.0
C695 C 0.70093 0.45724 0.05015 0.0
C696 C 0.73766 0.43313 0.08306 0.0
C697 C 0.72435 0.46706 0.01936 0.0
C698 C 0.75454 0.46017 0.02037 0.0
C699 C 0.78895 0.43175 0.05129 0.0
C700 C 0.79304 0.41112 0.08125 0.0
C701 C 0.76097 0.44237 0.0517 0.0
C702 C 0.77063 0.40358 0.113 0.0
C703 C 0.74333 0.41473 0.11406 0.0
H704 H 0.21259 0.71283 0.60149 0.0
H705 H 0.20476 0.73157 0.48137 0.0
H706 H 0.26099 0.78209 0.48413 0.0
H707 H 0.31571 0.8162 0.52003 0.0
H708 H 0.32132 0.79485 0.64023 0.0
H709 H 0.2619 0.75112 0.63864 0.0
C710 C 0.22235 0.72889 0.57626 0.0
C711 C 0.2041 0.71922 0.54158 0.0
C712 C 0.25446 0.75739 0.57817 0.0
C713 C 0.21812 0.73902 0.50858 0.0
C714 C 0.25028 0.76778 0.51019 0.0
C715 C 0.30344 0.80263 0.54599 0.0
C716 C 0.32295 0.80846 0.58014 0.0
C717 C 0.2692 0.77666 0.5447 0.0
C718 C 0.30694 0.79053 0.61355 0.0
C719 C 0.273 0.76543 0.61266 0.0
H720 H 0.76862 0.47116 0.4654 0.0
H721 H 0.771 0.42447 0.35584 0.0
H722 H 0.71096 0.41624 0.34354 0.0
H723 H 0.65607 0.41603 0.36671 0.0
H724 H 0.65123 0.46111 0.47648 0.0
H725 H 0.71395 0.47706 0.48566 0.0
C726 C 0.75595 0.45975 0.4387 0.0
C727 C 0.77415 0.44894 0.41126 0.0
C728 C 0.72102 0.4547 0.43192 0.0
C729 C 0.7576 0.43368 0.37694 0.0
C730 C 0.72322 0.42874 0.36998 0.0
C731 C 0.66885 0.42984 0.3924 0.0
C732 C 0.64915 0.43693 0.42111 0.0
C733 C 0.70447 0.43833 0.39763 0.0
C734 C 0.666 0.45531 0.45399 0.0
C735 C 0.70175 0.46415 0.45937 0.0
H736 H 0.26893 0.79017 0.88807 0.0
H737 H 0.25634 0.79635 0.00981 0.0
H738 H 0.20679 0.73949 0.0088 0.0
H739 H 0.17394 0.68403 0.97419 0.0
H740 H 0.19034 0.67862 0.85284 0.0
H741 H 0.2303 0.73979 0.85225 0.0
C742 C 0.25423 0.77993 0.91407 0.0
C743 C 0.2656 0.79774 0.94878 0.0
C744 C 0.22658 0.74712 0.91325 0.0
C745 C 0.24757 0.78326 0.98265 0.0
C746 C 0.21942 0.7507 0.98206 0.0
C747 C 0.18544 0.6967 0.94753 0.0
C748 C 0.17948 0.67696 0.91362 0.0
C749 C 0.20959 0.73173 0.94769 0.0
C750 C 0.19481 0.69336 0.87927 0.0
C751 C 0.21777 0.72825 0.87896 0.0
H752 H 0.55511 0.19617 0.46548 0.0
H753 H 0.60054 0.22169 0.35276 0.0
H754 H 0.57875 0.26777 0.34689 0.0
H755 H 0.55451 0.30569 0.37726 0.0
H756 H 0.51302 0.28422 0.49171 0.0
H757 H 0.52571 0.23156 0.49386 0.0
C758 C 0.55959 0.21142 0.43939 0.0
C759 C 0.57959 0.20587 0.40968 0.0
C760 C 0.54815 0.23875 0.43686 0.0
C761 C 0.58551 0.22583 0.3761 0.0
C762 C 0.57315 0.25217 0.37278 0.0
C763 C 0.54727 0.28884 0.40222 0.0
C764 C 0.53218 0.29806 0.43398 0.0
C765 C 0.55556 0.25959 0.40348 0.0
C766 C 0.52418 0.27706 0.4668 0.0
C767 C 0.53154 0.24716 0.46799 0.0
H768 H 0.22867 0.56847 0.87965 0.0
H769 H 0.20567 0.53203 0.99572 0.0
H770 H 0.26515 0.53426 0.00307 0.0
H771 H 0.32566 0.55308 0.97757 0.0
H772 H 0.34592 0.58885 0.86056 0.0
H773 H 0.28506 0.57898 0.85182 0.0
C774 C 0.23623 0.55965 0.90605 0.0
C775 C 0.21275 0.549 0.93666 0.0
C776 C 0.26999 0.56096 0.90981 0.0
C777 C 0.22334 0.53962 0.97153 0.0
C778 C 0.25725 0.54093 0.97568 0.0
C779 C 0.31637 0.55759 0.94992 0.0
C780 C 0.3402 0.57207 0.91989 0.0
C781 C 0.28111 0.55232 0.94516 0.0
C782 C 0.32806 0.5781 0.88422 0.0
C783 C 0.29331 0.57261 0.8792 0.0
H784 H 0.7198 0.2129 0.3852 0.0
H785 H 0.72765 0.20897 0.50787 0.0
H786 H 0.77758 0.26558 0.50732 0.0
H787 H 0.81276 0.31995 0.47212 0.0
H788 H 0.8014 0.32307 0.34954 0.0
H789 H 0.76025 0.26236 0.3495 0.0
C790 C 0.73346 0.22363 0.41164 0.0
C791 C 0.72074 0.20647 0.44641 0.0
C792 C 0.76142 0.25623 0.41101 0.0
C793 C 0.73747 0.22155 0.48071 0.0
C794 C 0.76585 0.25395 0.48035 0.0
C795 C 0.80203 0.3069 0.44538 0.0
C796 C 0.80983 0.32593 0.41089 0.0
C797 C 0.77726 0.27214 0.44574 0.0
C798 C 0.79552 0.30896 0.37643 0.0
C799 C 0.77187 0.27432 0.3764 0.0
H800 H 0.43824 0.69963 0.88997 0.0
H801 H 0.47704 0.72258 0.00532 0.0
H802 H 0.46384 0.77492 0.00562 0.0
H803 H 0.43321 0.8085 0.97602 0.0
H804 H 0.38938 0.78089 0.86284 0.0
H805 H 0.4134 0.7364 0.85809 0.0
C806 C 0.44495 0.71686 0.91463 0.0
C807 C 0.45923 0.70805 0.94728 0.0
C808 C 0.43592 0.74568 0.91501 0.0
C809 C 0.46656 0.72949 0.97973 0.0
C810 C 0.4588 0.75915 0.97991 0.0
C811 C 0.42954 0.79315 0.95009 0.0
C812 C 0.40927 0.79753 0.91999 0.0
C813 C 0.44225 0.7667 0.9482 0.0
C814 C 0.40451 0.77753 0.88655 0.0
C815 C 0.41821 0.75215 0.88382 0.0
loop_
_geom_bond_atom_site_label_1
_geom_bond_atom_site_label_2
_geom_bond_distance
_geom_bond_site_symmetry_2
_ccdc_geom_bond_type
Mn0 O5 2.095 . S
Mn0 O15 2.162 . S
Mn0 O16 2.297 . S
Mn0 O24 2.385 . S
Mn0 O25 2.209 . S
Mn0 O26 2.094 . S
Mn1 O6 2.121 . S
Mn1 N8 2.257 . S
Mn1 N17 2.282 . S
Mn1 O25 2.215 . S
Mn1 O27 2.117 . S
C2 O24 1.234 . S
C2 O25 1.283 . S
C3 O15 1.281 . S
C3 O16 1.236 . S
C4 O26 1.240 . S
C4 O27 1.264 . S
O5 Mn0 2.095 . S
O5 C14 1.250 . S
O6 Mn1 2.121 . S
O6 C14 1.258 . S
C7 N8 1.326 . S
C7 C11 1.460 . S
C7 H13 0.929 . S
N8 Mn1 2.257 . S
N8 C7 1.326 . S
N8 C12 1.362 . S
C9 C10 1.258 . S
C9 C12 1.431 . S
C9 C29 1.449 . S
C10 C9 1.258 . S
C10 C11 1.477 . S
C10 H30 0.931 . S
C11 C7 1.460 . S
C11 C10 1.477 . S
C11 H31 0.930 . S
C12 N8 1.362 . S
C12 C9 1.431 . S
C12 C22 1.476 . S
H13 C7 0.929 . S
C14 O5 1.250 . S
C14 O6 1.258 . S
O15 Mn0 2.162 . S
O15 C3 1.281 . S
O16 Mn0 2.297 . S
O16 C3 1.236 . S
N17 Mn1 2.282 . S
N17 C18 1.328 . S
N17 C22 1.318 . S
C18 N17 1.328 . S
C18 C19 1.457 1_554 S
C18 H23 0.929 . S
C19 C18 1.457 1_556 S
C19 C20 1.291 1_556 S
C19 H32 0.931 . S
C20 C19 1.291 1_554 S
C20 C21 1.373 . S
C20 H33 0.929 1_554 S
C21 C20 1.373 . S
C21 C22 1.396 . S
C21 C28 1.403 . S
C22 C12 1.476 . S
C22 N17 1.318 . S
C22 C21 1.396 . S
H23 C18 0.929 . S
O24 Mn0 2.385 . S
O24 C2 1.234 . S
O25 Mn0 2.209 . S
O25 Mn1 2.215 . S
O25 C2 1.283 . S
O26 Mn0 2.094 . S
O26 C4 1.240 . S
O27 Mn1 2.117 . S
O27 C4 1.264 . S
C28 C21 1.403 . S
C28 C29 1.399 . S
C28 H34 0.929 . S
C29 C9 1.449 . S
C29 C28 1.399 . S
C29 H35 0.930 . S
H30 C10 0.931 . S
H31 C11 0.930 . S
H32 C19 0.931 . S
H33 C20 0.929 1_556 S
H34 C28 0.929 . S
H35 C29 0.930 . S
Mn36 O41 2.095 . S
Mn36 O51 2.162 . S
Mn36 O52 2.297 . S
Mn36 O60 2.385 . S
Mn36 O61 2.209 . S
Mn36 O62 2.094 . S
Mn37 O42 2.121 . S
Mn37 N44 2.257 . S
Mn37 N53 2.282 . S
Mn37 O61 2.215 . S
Mn37 O63 2.117 . S
C38 O60 1.234 . S
C38 O61 1.283 . S
C39 O51 1.281 . S
C39 O52 1.236 . S
C40 O62 1.240 . S
C40 O63 1.264 . S
O41 Mn36 2.095 . S
O41 C50 1.250 . S
O42 Mn37 2.121 . S
O42 C50 1.258 . S
C43 N44 1.326 . S
C43 C47 1.460 . S
C43 H49 0.929 . S
N44 Mn37 2.257 . S
N44 C43 1.326 . S
N44 C48 1.362 . S
C45 C46 1.258 . S
C45 C48 1.431 . S
C45 C65 1.449 . S
C46 C45 1.258 . S
C46 C47 1.477 . S
C46 H66 0.931 . S
C47 C43 1.460 . S
C47 C46 1.477 . S
C47 H67 0.930 . S
C48 N44 1.362 . S
C48 C45 1.431 . S
C48 C58 1.476 . S
H49 C43 0.929 . S
C50 O41 1.250 . S
C50 O42 1.258 . S
O51 Mn36 2.162 . S
O51 C39 1.281 . S
O52 Mn36 2.297 . S
O52 C39 1.236 . S
N53 Mn37 2.282 . S
N53 C54 1.328 . S
N53 C58 1.318 . S
C54 N53 1.328 . S
C54 C55 1.457 . S
C54 H59 0.929 . S
C55 C54 1.457 . S
C55 C56 1.291 . S
C55 H68 0.931 . S
C56 C55 1.291 . S
C56 C57 1.373 . S
C56 H69 0.929 . S
C57 C56 1.373 . S
C57 C58 1.396 . S
C57 C64 1.403 . S
C58 C48 1.476 . S
C58 N53 1.318 . S
C58 C57 1.396 . S
H59 C54 0.929 . S
O60 Mn36 2.385 . S
O60 C38 1.234 . S
O61 Mn36 2.209 . S
O61 Mn37 2.215 . S
O61 C38 1.283 . S
O62 Mn36 2.094 . S
O62 C40 1.240 . S
O63 Mn37 2.117 . S
O63 C40 1.264 . S
C64 C57 1.403 . S
C64 C65 1.399 . S
C64 H70 0.929 . S
C65 C45 1.449 . S
C65 C64 1.399 . S
C65 H71 0.930 . S
H66 C46 0.931 . S
H67 C47 0.930 . S
H68 C55 0.931 . S
H69 C56 0.929 . S
H70 C64 0.929 . S
H71 C65 0.930 . S
Mn72 O77 2.095 . S
Mn72 O87 2.162 . S
Mn72 O88 2.297 . S
Mn72 O96 2.385 . S
Mn72 O97 2.209 . S
Mn72 O98 2.094 . S
Mn73 O78 2.121 . S
Mn73 N80 2.257 . S
Mn73 N89 2.282 . S
Mn73 O97 2.215 . S
Mn73 O99 2.117 . S
C74 O96 1.234 . S
C74 O97 1.283 . S
C75 O87 1.281 . S
C75 O88 1.236 . S
C76 O98 1.240 . S
C76 O99 1.264 . S
O77 Mn72 2.095 . S
O77 C86 1.250 . S
O78 Mn73 2.121 . S
O78 C86 1.258 . S
C79 N80 1.326 . S
C79 C83 1.460 . S
C79 H85 0.929 . S
N80 Mn73 2.257 . S
N80 C79 1.326 . S
N80 C84 1.362 . S
C81 C82 1.258 . S
C81 C84 1.431 . S
C81 C101 1.449 . S
C82 C81 1.258 . S
C82 C83 1.477 . S
C82 H102 0.931 . S
C83 C79 1.460 . S
C83 C82 1.477 . S
C83 H103 0.930 . S
C84 N80 1.362 . S
C84 C81 1.431 . S
C84 C94 1.476 . S
H85 C79 0.929 . S
C86 O77 1.250 . S
C86 O78 1.258 . S
O87 Mn72 2.162 . S
O87 C75 1.281 . S
O88 Mn72 2.297 . S
O88 C75 1.236 . S
N89 Mn73 2.282 . S
N89 C90 1.328 1_554 S
N89 C94 1.318 . S
C90 N89 1.328 1_556 S
C90 C91 1.457 . S
C90 H95 0.929 . S
C91 C90 1.457 . S
C91 C92 1.291 . S
C91 H104 0.931 . S
C92 C91 1.291 . S
C92 C93 1.373 1_556 S
C92 H105 0.929 . S
C93 C92 1.373 1_554 S
C93 C94 1.396 . S
C93 C100 1.403 . S
C94 C84 1.476 . S
C94 N89 1.318 . S
C94 C93 1.396 . S
H95 C90 0.929 . S
O96 Mn72 2.385 . S
O96 C74 1.234 . S
O97 Mn72 2.209 . S
O97 Mn73 2.215 . S
O97 C74 1.283 . S
O98 Mn72 2.094 . S
O98 C76 1.240 . S
O99 Mn73 2.117 . S
O99 C76 1.264 . S
C100 C93 1.403 . S
C100 C101 1.399 . S
C100 H106 0.929 . S
C101 C81 1.449 . S
C101 C100 1.399 . S
C101 H107 0.930 . S
H102 C82 0.931 . S
H103 C83 0.930 . S
H104 C91 0.931 . S
H105 C92 0.929 . S
H106 C100 0.929 . S
H107 C101 0.930 . S
Mn108 O113 2.095 . S
Mn108 O123 2.162 . S
Mn108 O124 2.297 . S
Mn108 O132 2.385 . S
Mn108 O133 2.209 . S
Mn108 O134 2.094 . S
Mn109 O114 2.121 . S
Mn109 N116 2.257 . S
Mn109 N125 2.282 . S
Mn109 O133 2.215 . S
Mn109 O135 2.117 . S
C110 O132 1.234 . S
C110 O133 1.283 . S
C111 O123 1.281 . S
C111 O124 1.236 . S
C112 O134 1.240 . S
C112 O135 1.264 . S
O113 Mn108 2.095 . S
O113 C122 1.250 . S
O114 Mn109 2.121 . S
O114 C122 1.258 . S
C115 N116 1.326 . S
C115 C119 1.460 . S
C115 H121 0.929 . S
N116 Mn109 2.257 . S
N116 C115 1.326 . S
N116 C120 1.362 . S
C117 C118 1.258 . S
C117 C120 1.431 . S
C117 C137 1.449 . S
C118 C117 1.258 . S
C118 C119 1.477 . S
C118 H138 0.931 . S
C119 C115 1.460 . S
C119 C118 1.477 . S
C119 H139 0.930 . S
C120 N116 1.362 . S
C120 C117 1.431 . S
C120 C130 1.476 . S
H121 C115 0.929 . S
C122 O113 1.250 . S
C122 O114 1.258 . S
O123 Mn108 2.162 . S
O123 C111 1.281 . S
O124 Mn108 2.297 . S
O124 C111 1.236 . S
N125 Mn109 2.282 . S
N125 C126 1.328 . S
N125 C130 1.318 . S
C126 N125 1.328 . S
C126 C127 1.457 . S
C126 H131 0.929 . S
C127 C126 1.457 . S
C127 C128 1.291 . S
C127 H140 0.931 . S
C128 C127 1.291 . S
C128 C129 1.373 . S
C128 H141 0.929 . S
C129 C128 1.373 . S
C129 C130 1.396 . S
C129 C136 1.403 . S
C130 C120 1.476 . S
C130 N125 1.318 . S
C130 C129 1.396 . S
H131 C126 0.929 . S
O132 Mn108 2.385 . S
O132 C110 1.234 . S
O133 Mn108 2.209 . S
O133 Mn109 2.215 . S
O133 C110 1.283 . S
O134 Mn108 2.094 . S
O134 C112 1.240 . S
O135 Mn109 2.117 . S
O135 C112 1.264 . S
C136 C129 1.403 . S
C136 C137 1.399 . S
C136 H142 0.929 . S
C137 C117 1.449 . S
C137 C136 1.399 . S
C137 H143 0.930 . S
H138 C118 0.931 . S
H139 C119 0.930 . S
H140 C127 0.931 . S
H141 C128 0.929 . S
H142 C136 0.929 . S
H143 C137 0.930 . S
Mn144 O149 2.095 . S
Mn144 O159 2.162 . S
Mn144 O160 2.297 . S
Mn144 O168 2.385 . S
Mn144 O169 2.209 . S
Mn144 O170 2.094 . S
Mn145 O150 2.121 . S
Mn145 N152 2.257 . S
Mn145 N161 2.282 . S
Mn145 O169 2.215 . S
Mn145 O171 2.117 . S
C146 O168 1.234 . S
C146 O169 1.283 . S
C147 O159 1.281 . S
C147 O160 1.236 . S
C148 O170 1.240 . S
C148 O171 1.264 . S
O149 Mn144 2.095 . S
O149 C158 1.250 . S
O150 Mn145 2.121 . S
O150 C158 1.258 . S
C151 N152 1.326 . S
C151 C155 1.460 . S
C151 H157 0.929 . S
N152 Mn145 2.257 . S
N152 C151 1.326 . S
N152 C156 1.362 . S
C153 C154 1.258 . S
C153 C156 1.431 . S
C153 C173 1.449 . S
C154 C153 1.258 . S
C154 C155 1.477 . S
C154 H174 0.931 . S
C155 C151 1.460 . S
C155 C154 1.477 . S
C155 H175 0.930 . S
C156 N152 1.362 . S
C156 C153 1.431 . S
C156 C166 1.476 . S
H157 C151 0.929 . S
C158 O149 1.250 . S
C158 O150 1.258 . S
O159 Mn144 2.162 . S
O159 C147 1.281 . S
O160 Mn144 2.297 . S
O160 C147 1.236 . S
N161 Mn145 2.282 . S
N161 C162 1.328 . S
N161 C166 1.318 . S
C162 N161 1.328 . S
C162 C163 1.457 1_554 S
C162 H167 0.929 1_554 S
C163 C162 1.457 1_556 S
C163 C164 1.291 . S
C163 H176 0.931 . S
C164 C163 1.291 . S
C164 C165 1.373 1_556 S
C164 H177 0.929 . S
C165 C164 1.373 1_554 S
C165 C166 1.396 . S
C165 C172 1.403 . S
C166 C156 1.476 . S
C166 N161 1.318 . S
C166 C165 1.396 . S
H167 C162 0.929 1_556 S
O168 Mn144 2.385 . S
O168 C146 1.234 . S
O169 Mn144 2.209 . S
O169 Mn145 2.215 . S
O169 C146 1.283 . S
O170 Mn144 2.094 . S
O170 C148 1.240 . S
O171 Mn145 2.117 . S
O171 C148 1.264 . S
C172 C165 1.403 . S
C172 C173 1.399 . S
C172 H178 0.929 . S
C173 C153 1.449 . S
C173 C172 1.399 . S
C173 H179 0.930 . S
H174 C154 0.931 . S
H175 C155 0.930 . S
H176 C163 0.931 . S
H177 C164 0.929 . S
H178 C172 0.929 . S
H179 C173 0.930 . S
Mn180 O185 2.095 . S
Mn180 O195 2.162 . S
Mn180 O196 2.297 . S
Mn180 O204 2.385 . S
Mn180 O205 2.209 . S
Mn180 O206 2.094 . S
Mn181 O186 2.121 . S
Mn181 N188 2.257 . S
Mn181 N197 2.282 . S
Mn181 O205 2.215 . S
Mn181 O207 2.117 . S
C182 O204 1.234 . S
C182 O205 1.283 . S
C183 O195 1.281 . S
C183 O196 1.236 . S
C184 O206 1.240 . S
C184 O207 1.264 . S
O185 Mn180 2.095 . S
O185 C194 1.250 . S
O186 Mn181 2.121 . S
O186 C194 1.258 . S
C187 N188 1.326 . S
C187 C191 1.460 . S
C187 H193 0.929 . S
N188 Mn181 2.257 . S
N188 C187 1.326 . S
N188 C192 1.362 . S
C189 C190 1.258 . S
C189 C192 1.431 . S
C189 C209 1.449 . S
C190 C189 1.258 . S
C190 C191 1.477 . S
C190 H210 0.931 . S
C191 C187 1.460 . S
C191 C190 1.477 . S
C191 H211 0.930 . S
C192 N188 1.362 . S
C192 C189 1.431 . S
C192 C202 1.476 . S
H193 C187 0.929 . S
C194 O185 1.250 . S
C194 O186 1.258 . S
O195 Mn180 2.162 . S
O195 C183 1.281 . S
O196 Mn180 2.297 . S
O196 C183 1.236 . S
N197 Mn181 2.282 . S
N197 C198 1.328 . S
N197 C202 1.318 . S
C198 N197 1.328 . S
C198 C199 1.457 . S
C198 H203 0.929 . S
C199 C198 1.457 . S
C199 C200 1.291 . S
C199 H212 0.931 . S
C200 C199 1.291 . S
C200 C201 1.373 . S
C200 H213 0.929 . S
C201 C200 1.373 . S
C201 C202 1.396 . S
C201 C208 1.403 . S
C202 C192 1.476 . S
C202 N197 1.318 . S
C202 C201 1.396 . S
H203 C198 0.929 . S
O204 Mn180 2.385 . S
O204 C182 1.234 . S
O205 Mn180 2.209 . S
O205 Mn181 2.215 . S
O205 C182 1.283 . S
O206 Mn180 2.094 . S
O206 C184 1.240 . S
O207 Mn181 2.117 . S
O207 C184 1.264 . S
C208 C201 1.403 . S
C208 C209 1.399 . S
C208 H214 0.929 . S
C209 C189 1.449 . S
C209 C208 1.399 . S
C209 H215 0.930 . S
H210 C190 0.931 . S
H211 C191 0.930 . S
H212 C199 0.931 . S
H213 C200 0.929 . S
H214 C208 0.929 . S
H215 C209 0.930 . S
Mn216 O221 2.095 . S
Mn216 O231 2.162 . S
Mn216 O232 2.297 . S
Mn216 O240 2.385 . S
Mn216 O241 2.209 . S
Mn216 O242 2.094 . S
Mn217 O222 2.121 . S
Mn217 N224 2.257 . S
Mn217 N233 2.282 . S
Mn217 O241 2.215 . S
Mn217 O243 2.117 . S
C218 O240 1.234 . S
C218 O241 1.283 . S
C219 O231 1.281 . S
C219 O232 1.236 . S
C220 O242 1.240 . S
C220 O243 1.264 . S
O221 Mn216 2.095 . S
O221 C230 1.250 . S
O222 Mn217 2.121 . S
O222 C230 1.258 . S
C223 N224 1.326 . S
C223 C227 1.460 . S
C223 H229 0.929 . S
N224 Mn217 2.257 . S
N224 C223 1.326 . S
N224 C228 1.362 . S
C225 C226 1.258 . S
C225 C228 1.431 . S
C225 C245 1.449 . S
C226 C225 1.258 . S
C226 C227 1.477 . S
C226 H246 0.931 . S
C227 C223 1.460 . S
C227 C226 1.477 . S
C227 H247 0.930 . S
C228 N224 1.362 . S
C228 C225 1.431 . S
C228 C238 1.476 . S
H229 C223 0.929 . S
C230 O221 1.250 . S
C230 O222 1.258 . S
O231 Mn216 2.162 . S
O231 C219 1.281 . S
O232 Mn216 2.297 . S
O232 C219 1.236 . S
N233 Mn217 2.282 . S
N233 C234 1.328 . S
N233 C238 1.318 . S
C234 N233 1.328 . S
C234 C235 1.457 . S
C234 H239 0.929 . S
C235 C234 1.457 . S
C235 C236 1.291 . S
C235 H248 0.931 . S
C236 C235 1.291 . S
C236 C237 1.373 . S
C236 H249 0.929 . S
C237 C236 1.373 . S
C237 C238 1.396 . S
C237 C244 1.403 . S
C238 C228 1.476 . S
C238 N233 1.318 . S
C238 C237 1.396 . S
H239 C234 0.929 . S
O240 Mn216 2.385 . S
O240 C218 1.234 . S
O241 Mn216 2.209 . S
O241 Mn217 2.215 . S
O241 C218 1.283 . S
O242 Mn216 2.094 . S
O242 C220 1.240 . S
O243 Mn217 2.117 . S
O243 C220 1.264 . S
C244 C237 1.403 . S
C244 C245 1.399 . S
C244 H250 0.929 . S
C245 C225 1.449 . S
C245 C244 1.399 . S
C245 H251 0.930 . S
H246 C226 0.931 . S
H247 C227 0.930 . S
H248 C235 0.931 . S
H249 C236 0.929 . S
H250 C244 0.929 . S
H251 C245 0.930 . S
Mn252 O257 2.095 . S
Mn252 O267 2.162 . S
Mn252 O268 2.297 . S
Mn252 O276 2.385 . S
Mn252 O277 2.209 . S
Mn252 O278 2.094 . S
Mn253 O258 2.121 . S
Mn253 N260 2.257 . S
Mn253 N269 2.282 . S
Mn253 O277 2.215 . S
Mn253 O279 2.117 . S
C254 O276 1.234 . S
C254 O277 1.283 . S
C255 O267 1.281 . S
C255 O268 1.236 . S
C256 O278 1.240 . S
C256 O279 1.264 . S
O257 Mn252 2.095 . S
O257 C266 1.250 . S
O258 Mn253 2.121 . S
O258 C266 1.258 . S
C259 N260 1.326 . S
C259 C263 1.460 . S
C259 H265 0.929 . S
N260 Mn253 2.257 . S
N260 C259 1.326 . S
N260 C264 1.362 . S
C261 C262 1.258 . S
C261 C264 1.431 . S
C261 C281 1.449 . S
C262 C261 1.258 . S
C262 C263 1.477 . S
C262 H282 0.931 . S
C263 C259 1.460 . S
C263 C262 1.477 . S
C263 H283 0.930 . S
C264 N260 1.362 . S
C264 C261 1.431 . S
C264 C274 1.476 . S
H265 C259 0.929 . S
C266 O257 1.250 . S
C266 O258 1.258 . S
O267 Mn252 2.162 . S
O267 C255 1.281 . S
O268 Mn252 2.297 . S
O268 C255 1.236 . S
N269 Mn253 2.282 . S
N269 C270 1.328 1_556 S
N269 C274 1.318 . S
C270 N269 1.328 1_554 S
C270 C271 1.457 . S
C270 H275 0.929 . S
C271 C270 1.457 . S
C271 C272 1.291 . S
C271 H284 0.931 . S
C272 C271 1.291 . S
C272 C273 1.373 1_554 S
C272 H285 0.929 . S
C273 C272 1.373 1_556 S
C273 C274 1.396 . S
C273 C280 1.403 . S
C274 C264 1.476 . S
C274 N269 1.318 . S
C274 C273 1.396 . S
H275 C270 0.929 . S
O276 Mn252 2.385 . S
O276 C254 1.234 . S
O277 Mn252 2.209 . S
O277 Mn253 2.215 . S
O277 C254 1.283 . S
O278 Mn252 2.094 . S
O278 C256 1.240 . S
O279 Mn253 2.117 . S
O279 C256 1.264 . S
C280 C273 1.403 . S
C280 C281 1.399 . S
C280 H286 0.929 . S
C281 C261 1.449 . S
C281 C280 1.399 . S
C281 H287 0.930 . S
H282 C262 0.931 . S
H283 C263 0.930 . S
H284 C271 0.931 . S
H285 C272 0.929 . S
H286 C280 0.929 . S
H287 C281 0.930 . S
Mn288 O293 2.095 . S
Mn288 O303 2.162 . S
Mn288 O304 2.297 . S
Mn288 O312 2.385 . S
Mn288 O313 2.209 . S
Mn288 O314 2.094 . S
Mn289 O294 2.121 . S
Mn289 N296 2.257 . S
Mn289 N305 2.282 . S
Mn289 O313 2.215 . S
Mn289 O315 2.117 . S
C290 O312 1.234 . S
C290 O313 1.283 . S
C291 O303 1.281 . S
C291 O304 1.236 . S
C292 O314 1.240 . S
C292 O315 1.264 . S
O293 Mn288 2.095 . S
O293 C302 1.250 . S
O294 Mn289 2.121 . S
O294 C302 1.258 . S
C295 N296 1.326 . S
C295 C299 1.460 . S
C295 H301 0.929 . S
N296 Mn289 2.257 . S
N296 C295 1.326 . S
N296 C300 1.362 . S
C297 C298 1.258 . S
C297 C300 1.431 . S
C297 C317 1.449 . S
C298 C297 1.258 . S
C298 C299 1.477 . S
C298 H318 0.931 . S
C299 C295 1.460 . S
C299 C298 1.477 . S
C299 H319 0.930 . S
C300 N296 1.362 . S
C300 C297 1.431 . S
C300 C310 1.476 . S
H301 C295 0.929 . S
C302 O293 1.250 . S
C302 O294 1.258 . S
O303 Mn288 2.162 . S
O303 C291 1.281 . S
O304 Mn288 2.297 . S
O304 C291 1.236 . S
N305 Mn289 2.282 . S
N305 C306 1.328 . S
N305 C310 1.318 . S
C306 N305 1.328 . S
C306 C307 1.457 . S
C306 H311 0.929 . S
C307 C306 1.457 . S
C307 C308 1.291 . S
C307 H320 0.931 . S
C308 C307 1.291 . S
C308 C309 1.373 . S
C308 H321 0.929 . S
C309 C308 1.373 . S
C309 C310 1.396 . S
C309 C316 1.403 . S
C310 C300 1.476 . S
C310 N305 1.318 . S
C310 C309 1.396 . S
H311 C306 0.929 . S
O312 Mn288 2.385 . S
O312 C290 1.234 . S
O313 Mn288 2.209 . S
O313 Mn289 2.215 . S
O313 C290 1.283 . S
O314 Mn288 2.094 . S
O314 C292 1.240 . S
O315 Mn289 2.117 . S
O315 C292 1.264 . S
C316 C309 1.403 . S
C316 C317 1.399 . S
C316 H322 0.929 . S
C317 C297 1.449 . S
C317 C316 1.399 . S
C317 H323 0.930 . S
H318 C298 0.931 . S
H319 C299 0.930 . S
H320 C307 0.931 . S
H321 C308 0.929 . S
H322 C316 0.929 . S
H323 C317 0.930 . S
Mn324 O329 2.095 . S
Mn324 O339 2.162 . S
Mn324 O340 2.297 . S
Mn324 O348 2.385 . S
Mn324 O349 2.209 . S
Mn324 O350 2.094 . S
Mn325 O330 2.121 . S
Mn325 N332 2.257 . S
Mn325 N341 2.282 . S
Mn325 O349 2.215 . S
Mn325 O351 2.117 . S
C326 O348 1.234 . S
C326 O349 1.283 . S
C327 O339 1.281 . S
C327 O340 1.236 . S
C328 O350 1.240 . S
C328 O351 1.264 . S
O329 Mn324 2.095 . S
O329 C338 1.250 . S
O330 Mn325 2.121 . S
O330 C338 1.258 . S
C331 N332 1.326 . S
C331 C335 1.460 . S
C331 H337 0.929 . S
N332 Mn325 2.257 . S
N332 C331 1.326 . S
N332 C336 1.362 . S
C333 C334 1.258 . S
C333 C336 1.431 . S
C333 C353 1.449 . S
C334 C333 1.258 . S
C334 C335 1.477 . S
C334 H354 0.931 . S
C335 C331 1.460 . S
C335 C334 1.477 . S
C335 H355 0.930 . S
C336 N332 1.362 . S
C336 C333 1.431 . S
C336 C346 1.476 . S
H337 C331 0.929 . S
C338 O329 1.250 . S
C338 O330 1.258 . S
O339 Mn324 2.162 . S
O339 C327 1.281 . S
O340 Mn324 2.297 . S
O340 C327 1.236 . S
N341 Mn325 2.282 . S
N341 C342 1.328 . S
N341 C346 1.318 . S
C342 N341 1.328 . S
C342 C343 1.457 1_556 S
C342 H347 0.929 . S
C343 C342 1.457 1_554 S
C343 C344 1.291 1_554 S
C343 H356 0.931 . S
C344 C343 1.291 1_556 S
C344 C345 1.373 . S
C344 H357 0.929 1_556 S
C345 C344 1.373 . S
C345 C346 1.396 . S
C345 C352 1.403 . S
C346 C336 1.476 . S
C346 N341 1.318 . S
C346 C345 1.396 . S
H347 C342 0.929 . S
O348 Mn324 2.385 . S
O348 C326 1.234 . S
O349 Mn324 2.209 . S
O349 Mn325 2.215 . S
O349 C326 1.283 . S
O350 Mn324 2.094 . S
O350 C328 1.240 . S
O351 Mn325 2.117 . S
O351 C328 1.264 . S
C352 C345 1.403 . S
C352 C353 1.399 . S
C352 H358 0.929 . S
C353 C333 1.449 . S
C353 C352 1.399 . S
C353 H359 0.930 . S
H354 C334 0.931 . S
H355 C335 0.930 . S
H356 C343 0.931 . S
H357 C344 0.929 1_554 S
H358 C352 0.929 . S
H359 C353 0.930 . S
Mn360 O365 2.095 . S
Mn360 O375 2.162 . S
Mn360 O376 2.297 . S
Mn360 O384 2.385 . S
Mn360 O385 2.209 . S
Mn360 O386 2.094 . S
Mn361 O366 2.121 . S
Mn361 N368 2.257 . S
Mn361 N377 2.282 . S
Mn361 O385 2.215 . S
Mn361 O387 2.117 . S
C362 O384 1.234 . S
C362 O385 1.283 . S
C363 O375 1.281 . S
C363 O376 1.236 . S
C364 O386 1.240 . S
C364 O387 1.264 . S
O365 Mn360 2.095 . S
O365 C374 1.250 . S
O366 Mn361 2.121 . S
O366 C374 1.258 . S
C367 N368 1.326 . S
C367 C371 1.460 . S
C367 H373 0.929 . S
N368 Mn361 2.257 . S
N368 C367 1.326 . S
N368 C372 1.362 . S
C369 C370 1.258 . S
C369 C372 1.431 . S
C369 C389 1.449 . S
C370 C369 1.258 . S
C370 C371 1.477 . S
C370 H390 0.931 . S
C371 C367 1.460 . S
C371 C370 1.477 . S
C371 H391 0.930 . S
C372 N368 1.362 . S
C372 C369 1.431 . S
C372 C382 1.476 . S
H373 C367 0.929 . S
C374 O365 1.250 . S
C374 O366 1.258 . S
O375 Mn360 2.162 . S
O375 C363 1.281 . S
O376 Mn360 2.297 . S
O376 C363 1.236 . S
N377 Mn361 2.282 . S
N377 C378 1.328 . S
N377 C382 1.318 . S
C378 N377 1.328 . S
C378 C379 1.457 . S
C378 H383 0.929 . S
C379 C378 1.457 . S
C379 C380 1.291 . S
C379 H392 0.931 . S
C380 C379 1.291 . S
C380 C381 1.373 . S
C380 H393 0.929 . S
C381 C380 1.373 . S
C381 C382 1.396 . S
C381 C388 1.403 . S
C382 C372 1.476 . S
C382 N377 1.318 . S
C382 C381 1.396 . S
H383 C378 0.929 . S
O384 Mn360 2.385 . S
O384 C362 1.234 . S
O385 Mn360 2.209 . S
O385 Mn361 2.215 . S
O385 C362 1.283 . S
O386 Mn360 2.094 . S
O386 C364 1.240 . S
O387 Mn361 2.117 . S
O387 C364 1.264 . S
C388 C381 1.403 . S
C388 C389 1.399 . S
C388 H394 0.929 . S
C389 C369 1.449 . S
C389 C388 1.399 . S
C389 H395 0.930 . S
H390 C370 0.931 . S
H391 C371 0.930 . S
H392 C379 0.931 . S
H393 C380 0.929 . S
H394 C388 0.929 . S
H395 C389 0.930 . S
Mn396 O401 2.095 . S
Mn396 O411 2.162 . S
Mn396 O412 2.297 . S
Mn396 O420 2.385 . S
Mn396 O421 2.209 . S
Mn396 O422 2.094 . S
Mn397 O402 2.121 . S
Mn397 N404 2.257 . S
Mn397 N413 2.282 . S
Mn397 O421 2.215 . S
Mn397 O423 2.117 . S
C398 O420 1.234 . S
C398 O421 1.283 . S
C399 O411 1.281 . S
C399 O412 1.236 . S
C400 O422 1.240 . S
C400 O423 1.264 . S
O401 Mn396 2.095 . S
O401 C410 1.250 . S
O402 Mn397 2.121 . S
O402 C410 1.258 . S
C403 N404 1.326 . S
C403 C407 1.460 . S
C403 H409 0.929 . S
N404 Mn397 2.257 . S
N404 C403 1.326 . S
N404 C408 1.362 . S
C405 C406 1.258 . S
C405 C408 1.431 . S
C405 C425 1.449 . S
C406 C405 1.258 . S
C406 C407 1.477 . S
C406 H426 0.931 . S
C407 C403 1.460 . S
C407 C406 1.477 . S
C407 H427 0.930 . S
C408 N404 1.362 . S
C408 C405 1.431 . S
C408 C418 1.476 . S
H409 C403 0.929 . S
C410 O401 1.250 . S
C410 O402 1.258 . S
O411 Mn396 2.162 . S
O411 C399 1.281 . S
O412 Mn396 2.297 . S
O412 C399 1.236 . S
N413 Mn397 2.282 . S
N413 C414 1.328 . S
N413 C418 1.318 . S
C414 N413 1.328 . S
C414 C415 1.457 1_556 S
C414 H419 0.929 1_556 S
C415 C414 1.457 1_554 S
C415 C416 1.291 . S
C415 H428 0.931 . S
C416 C415 1.291 . S
C416 C417 1.373 1_554 S
C416 H429 0.929 . S
C417 C416 1.373 1_556 S
C417 C418 1.396 . S
C417 C424 1.403 . S
C418 C408 1.476 . S
C418 N413 1.318 . S
C418 C417 1.396 . S
H419 C414 0.929 1_554 S
O420 Mn396 2.385 . S
O420 C398 1.234 . S
O421 Mn396 2.209 . S
O421 Mn397 2.215 . S
O421 C398 1.283 . S
O422 Mn396 2.094 . S
O422 C400 1.240 . S
O423 Mn397 2.117 . S
O423 C400 1.264 . S
C424 C417 1.403 . S
C424 C425 1.399 . S
C424 H430 0.929 . S
C425 C405 1.449 . S
C425 C424 1.399 . S
C425 H431 0.930 . S
H426 C406 0.931 . S
H427 C407 0.930 . S
H428 C415 0.931 . S
H429 C416 0.929 . S
H430 C424 0.929 . S
H431 C425 0.930 . S
H432 C438 0.930 . S
H433 C441 0.930 . S
H434 C442 0.930 . S
H435 C443 0.930 . S
H436 C446 0.930 . S
H437 C447 0.930 . S
C438 H432 0.930 . S
C438 C439 1.355 . S
C438 C440 1.415 . S
C439 C438 1.355 . S
C439 C441 1.419 . S
C440 C438 1.415 . S
C440 C445 1.425 . S
C440 C447 1.409 . S
C441 H433 0.930 . S
C441 C439 1.419 . S
C441 C442 1.362 . S
C442 H434 0.930 . S
C442 C441 1.362 . S
C442 C445 1.409 . S
C443 H435 0.930 . S
C443 C444 1.355 . S
C443 C445 1.415 . S
C444 C443 1.355 . S
C444 C446 1.419 . S
C445 C440 1.425 . S
C445 C442 1.409 . S
C445 C443 1.415 . S
C446 H436 0.930 . S
C446 C444 1.419 . S
C446 C447 1.362 . S
C447 H437 0.930 . S
C447 C440 1.409 . S
C447 C446 1.362 . S
H448 C454 0.930 . S
H449 C457 0.930 . S
H450 C458 0.930 . S
H451 C459 0.930 . S
H452 C462 0.930 . S
H453 C463 0.930 . S
C454 H448 0.930 . S
C454 C455 1.355 . S
C454 C456 1.415 . S
C455 C454 1.355 . S
C455 C457 1.419 . S
C456 C454 1.415 . S
C456 C461 1.425 . S
C456 C463 1.409 . S
C457 H449 0.930 . S
C457 C455 1.419 . S
C457 C458 1.362 . S
C458 H450 0.930 . S
C458 C457 1.362 . S
C458 C461 1.409 . S
C459 H451 0.930 . S
C459 C460 1.355 . S
C459 C461 1.415 . S
C460 C459 1.355 . S
C460 C462 1.419 . S
C461 C456 1.425 . S
C461 C458 1.409 . S
C461 C459 1.415 . S
C462 H452 0.930 . S
C462 C460 1.419 . S
C462 C463 1.362 . S
C463 H453 0.930 . S
C463 C456 1.409 . S
C463 C462 1.362 . S
H464 C470 0.930 . S
H465 C473 0.930 . S
H466 C474 0.930 . S
H467 C475 0.930 . S
H468 C478 0.930 . S
H469 C479 0.930 . S
C470 H464 0.930 . S
C470 C471 1.355 . S
C470 C472 1.415 . S
C471 C470 1.355 . S
C471 C473 1.419 . S
C472 C470 1.415 . S
C472 C477 1.425 . S
C472 C479 1.409 . S
C473 H465 0.930 . S
C473 C471 1.419 . S
C473 C474 1.362 . S
C474 H466 0.930 . S
C474 C473 1.362 . S
C474 C477 1.409 . S
C475 H467 0.930 . S
C475 C476 1.355 . S
C475 C477 1.415 . S
C476 C475 1.355 . S
C476 C478 1.419 . S
C477 C472 1.425 . S
C477 C474 1.409 . S
C477 C475 1.415 . S
C478 H468 0.930 . S
C478 C476 1.419 . S
C478 C479 1.362 . S
C479 H469 0.930 . S
C479 C472 1.409 . S
C479 C478 1.362 . S
H480 C486 0.930 . S
H481 C489 0.930 . S
H482 C490 0.930 . S
H483 C491 0.930 . S
H484 C494 0.930 . S
H485 C495 0.930 . S
C486 H480 0.930 . S
C486 C487 1.355 . S
C486 C488 1.415 . S
C487 C486 1.355 . S
C487 C489 1.419 . S
C488 C486 1.415 . S
C488 C493 1.425 . S
C488 C495 1.409 . S
C489 H481 0.930 . S
C489 C487 1.419 . S
C489 C490 1.362 . S
C490 H482 0.930 . S
C490 C489 1.362 . S
C490 C493 1.409 . S
C491 H483 0.930 . S
C491 C492 1.355 . S
C491 C493 1.415 . S
C492 C491 1.355 . S
C492 C494 1.419 . S
C493 C488 1.425 . S
C493 C490 1.409 . S
C493 C491 1.415 . S
C494 H484 0.930 . S
C494 C492 1.419 . S
C494 C495 1.362 . S
C495 H485 0.930 . S
C495 C488 1.409 . S
C495 C494 1.362 . S
H496 C502 0.930 . S
H497 C505 0.930 . S
H498 C506 0.930 . S
H499 C507 0.930 . S
H500 C510 0.930 . S
H501 C511 0.930 . S
C502 H496 0.930 . S
C502 C503 1.355 . S
C502 C504 1.415 . S
C503 C502 1.355 . S
C503 C505 1.419 . S
C504 C502 1.415 . S
C504 C509 1.425 . S
C504 C511 1.409 . S
C505 H497 0.930 . S
C505 C503 1.419 . S
C505 C506 1.362 . S
C506 H498 0.930 . S
C506 C505 1.362 . S
C506 C509 1.409 . S
C507 H499 0.930 . S
C507 C508 1.355 . S
C507 C509 1.415 . S
C508 C507 1.355 . S
C508 C510 1.419 . S
C509 C504 1.425 . S
C509 C506 1.409 . S
C509 C507 1.415 . S
C510 H500 0.930 . S
C510 C508 1.419 . S
C510 C511 1.362 . S
C511 H501 0.930 . S
C511 C504 1.409 . S
C511 C510 1.362 . S
H512 C518 0.930 . S
H513 C521 0.930 . S
H514 C522 0.930 . S
H515 C523 0.930 . S
H516 C526 0.930 . S
H517 C527 0.930 . S
C518 H512 0.930 . S
C518 C519 1.355 . S
C518 C520 1.415 . S
C519 C518 1.355 . S
C519 C521 1.419 . S
C520 C518 1.415 . S
C520 C525 1.425 . S
C520 C527 1.409 . S
C521 H513 0.930 . S
C521 C519 1.419 . S
C521 C522 1.362 . S
C522 H514 0.930 . S
C522 C521 1.362 . S
C522 C525 1.409 . S
C523 H515 0.930 . S
C523 C524 1.355 . S
C523 C525 1.415 . S
C524 C523 1.355 . S
C524 C526 1.419 . S
C525 C520 1.425 . S
C525 C522 1.409 . S
C525 C523 1.415 . S
C526 H516 0.930 . S
C526 C524 1.419 . S
C526 C527 1.362 . S
C527 H517 0.930 . S
C527 C520 1.409 . S
C527 C526 1.362 . S
H528 C534 0.930 . S
H529 C537 0.930 . S
H530 C538 0.930 . S
H531 C539 0.930 . S
H532 C542 0.930 . S
H533 C543 0.930 . S
C534 H528 0.930 . S
C534 C535 1.355 1_556 S
C534 C536 1.415 . S
C535 C534 1.355 1_554 S
C535 C537 1.419 . S
C536 C534 1.415 . S
C536 C541 1.425 1_546 S
C536 C543 1.409 . S
C537 H529 0.930 . S
C537 C535 1.419 . S
C537 C538 1.362 1_545 S
C538 H530 0.930 . S
C538 C537 1.362 1_565 S
C538 C541 1.409 . S
C539 H531 0.930 . S
C539 C540 1.355 1_554 S
C539 C541 1.415 . S
C540 C539 1.355 1_556 S
C540 C542 1.419 . S
C541 C536 1.425 1_564 S
C541 C538 1.409 . S
C541 C539 1.415 . S
C542 H532 0.930 . S
C542 C540 1.419 . S
C542 C543 1.362 1_565 S
C543 H533 0.930 . S
C543 C536 1.409 . S
C543 C542 1.362 1_545 S
H544 C550 0.930 . S
H545 C553 0.930 . S
H546 C554 0.930 . S
H547 C555 0.930 . S
H548 C558 0.930 . S
H549 C559 0.930 . S
C550 H544 0.930 . S
C550 C551 1.355 . S
C550 C552 1.415 . S
C551 C550 1.355 . S
C551 C553 1.419 . S
C552 C550 1.415 . S
C552 C557 1.425 . S
C552 C559 1.409 . S
C553 H545 0.930 . S
C553 C551 1.419 . S
C553 C554 1.362 . S
C554 H546 0.930 . S
C554 C553 1.362 . S
C554 C557 1.409 . S
C555 H547 0.930 . S
C555 C556 1.355 . S
C555 C557 1.415 . S
C556 C555 1.355 . S
C556 C558 1.419 . S
C557 C552 1.425 . S
C557 C554 1.409 . S
C557 C555 1.415 . S
C558 H548 0.930 . S
C558 C556 1.419 . S
C558 C559 1.362 . S
C559 H549 0.930 . S
C559 C552 1.409 . S
C559 C558 1.362 . S
H560 C566 0.930 . S
H561 C569 0.930 . S
H562 C570 0.930 . S
H563 C571 0.930 . S
H564 C574 0.930 . S
H565 C575 0.930 . S
C566 H560 0.930 . S
C566 C567 1.355 . S
C566 C568 1.415 1_455 S
C567 C566 1.355 . S
C567 C569 1.419 1_556 S
C568 C566 1.415 1_655 S
C568 C573 1.425 1_656 S
C568 C575 1.409 . S
C569 H561 0.930 . S
C569 C567 1.419 1_554 S
C569 C570 1.362 . S
C570 H562 0.930 . S
C570 C569 1.362 . S
C570 C573 1.409 . S
C571 H563 0.930 . S
C571 C572 1.355 . S
C571 C573 1.415 1_655 S
C572 C571 1.355 . S
C572 C574 1.419 1_554 S
C573 C568 1.425 1_454 S
C573 C570 1.409 . S
C573 C571 1.415 1_455 S
C574 H564 0.930 . S
C574 C572 1.419 1_556 S
C574 C575 1.362 . S
C575 H565 0.930 . S
C575 C568 1.409 . S
C575 C574 1.362 . S
H576 C582 0.930 . S
H577 C585 0.930 . S
H578 C586 0.930 . S
H579 C587 0.930 . S
H580 C590 0.930 . S
H581 C591 0.930 . S
C582 H576 0.930 . S
C582 C583 1.355 . S
C582 C584 1.415 . S
C583 C582 1.355 . S
C583 C585 1.419 . S
C584 C582 1.415 . S
C584 C589 1.425 1_545 S
C584 C591 1.409 . S
C585 H577 0.930 . S
C585 C583 1.419 . S
C585 C586 1.362 1_545 S
C586 H578 0.930 . S
C586 C585 1.362 1_565 S
C586 C589 1.409 . S
C587 H579 0.930 . S
C587 C588 1.355 . S
C587 C589 1.415 . S
C588 C587 1.355 . S
C588 C590 1.419 . S
C589 C584 1.425 1_565 S
C589 C586 1.409 . S
C589 C587 1.415 . S
C590 H580 0.930 . S
C590 C588 1.419 . S
C590 C591 1.362 1_565 S
C591 H581 0.930 . S
C591 C584 1.409 . S
C591 C590 1.362 1_545 S
H592 C598 0.930 . S
H593 C601 0.930 . S
H594 C602 0.930 . S
H595 C603 0.930 . S
H596 C606 0.930 . S
H597 C607 0.930 . S
C598 H592 0.930 . S
C598 C599 1.355 . S
C598 C600 1.415 . S
C599 C598 1.355 . S
C599 C601 1.419 1_556 S
C600 C598 1.415 . S
C600 C605 1.425 1_556 S
C600 C607 1.409 . S
C601 H593 0.930 . S
C601 C599 1.419 1_554 S
C601 C602 1.362 . S
C602 H594 0.930 . S
C602 C601 1.362 . S
C602 C605 1.409 . S
C603 H595 0.930 . S
C603 C604 1.355 . S
C603 C605 1.415 . S
C604 C603 1.355 . S
C604 C606 1.419 1_554 S
C605 C600 1.425 1_554 S
C605 C602 1.409 . S
C605 C603 1.415 . S
C606 H596 0.930 . S
C606 C604 1.419 1_556 S
C606 C607 1.362 . S
C607 H597 0.930 . S
C607 C600 1.409 . S
C607 C606 1.362 . S
H608 C614 0.930 . S
H609 C617 0.930 . S
H610 C618 0.930 . S
H611 C619 0.930 . S
H612 C622 0.930 . S
H613 C623 0.930 . S
C614 H608 0.930 . S
C614 C615 1.355 . S
C614 C616 1.415 1_655 S
C615 C614 1.355 . S
C615 C617 1.419 . S
C616 C614 1.415 1_455 S
C616 C621 1.425 1_455 S
C616 C623 1.409 . S
C617 H609 0.930 . S
C617 C615 1.419 . S
C617 C618 1.362 . S
C618 H610 0.930 . S
C618 C617 1.362 . S
C618 C621 1.409 . S
C619 H611 0.930 . S
C619 C620 1.355 . S
C619 C621 1.415 1_455 S
C620 C619 1.355 . S
C620 C622 1.419 . S
C621 C616 1.425 1_655 S
C621 C618 1.409 . S
C621 C619 1.415 1_655 S
C622 H612 0.930 . S
C622 C620 1.419 . S
C622 C623 1.362 . S
C623 H613 0.930 . S
C623 C616 1.409 . S
C623 C622 1.362 . S
H624 C630 0.930 . S
H625 C633 0.930 . S
H626 C634 0.930 . S
H627 C635 0.930 . S
H628 C638 0.930 . S
H629 C639 0.930 . S
C630 H624 0.930 . S
C630 C631 1.355 . S
C630 C632 1.415 . S
C631 C630 1.355 . S
C631 C633 1.419 . S
C632 C630 1.415 . S
C632 C637 1.425 . S
C632 C639 1.409 . S
C633 H625 0.930 . S
C633 C631 1.419 . S
C633 C634 1.362 . S
C634 H626 0.930 . S
C634 C633 1.362 . S
C634 C637 1.409 . S
C635 H627 0.930 . S
C635 C636 1.355 . S
C635 C637 1.415 . S
C636 C635 1.355 . S
C636 C638 1.419 . S
C637 C632 1.425 . S
C637 C634 1.409 . S
C637 C635 1.415 . S
C638 H628 0.930 . S
C638 C636 1.419 . S
C638 C639 1.362 . S
C639 H629 0.930 . S
C639 C632 1.409 . S
C639 C638 1.362 . S
H640 C646 0.930 . S
H641 C649 0.930 . S
H642 C650 0.930 . S
H643 C651 0.930 . S
H644 C654 0.930 . S
H645 C655 0.930 . S
C646 H640 0.930 . S
C646 C647 1.355 . S
C646 C648 1.415 . S
C647 C646 1.355 . S
C647 C649 1.419 . S
C648 C646 1.415 . S
C648 C653 1.425 . S
C648 C655 1.409 . S
C649 H641 0.930 . S
C649 C647 1.419 . S
C649 C650 1.362 . S
C650 H642 0.930 . S
C650 C649 1.362 . S
C650 C653 1.409 . S
C651 H643 0.930 . S
C651 C652 1.355 . S
C651 C653 1.415 . S
C652 C651 1.355 . S
C652 C654 1.419 . S
C653 C648 1.425 . S
C653 C650 1.409 . S
C653 C651 1.415 . S
C654 H644 0.930 . S
C654 C652 1.419 . S
C654 C655 1.362 . S
C655 H645 0.930 . S
C655 C648 1.409 . S
C655 C654 1.362 . S
H656 C662 0.930 1_556 S
H657 C665 0.930 . S
H658 C666 0.930 . S
H659 C667 0.930 . S
H660 C670 0.930 . S
H661 C671 0.930 1_556 S
C662 H656 0.930 1_554 S
C662 C663 1.355 . S
C662 C664 1.415 . S
C663 C662 1.355 . S
C663 C665 1.419 . S
C664 C662 1.415 . S
C664 C669 1.425 . S
C664 C671 1.409 . S
C665 H657 0.930 . S
C665 C663 1.419 . S
C665 C666 1.362 . S
C666 H658 0.930 . S
C666 C665 1.362 . S
C666 C669 1.409 . S
C667 H659 0.930 . S
C667 C668 1.355 . S
C667 C669 1.415 . S
C668 C667 1.355 . S
C668 C670 1.419 . S
C669 C664 1.425 . S
C669 C666 1.409 . S
C669 C667 1.415 . S
C670 H660 0.930 . S
C670 C668 1.419 . S
C670 C671 1.362 . S
C671 H661 0.930 1_554 S
C671 C664 1.409 . S
C671 C670 1.362 . S
H672 C678 0.930 . S
H673 C681 0.930 . S
H674 C682 0.930 . S
H675 C683 0.930 . S
H676 C686 0.930 . S
H677 C687 0.930 . S
C678 H672 0.930 . S
C678 C679 1.355 . S
C678 C680 1.415 . S
C679 C678 1.355 . S
C679 C681 1.419 . S
C680 C678 1.415 . S
C680 C685 1.425 . S
C680 C687 1.409 . S
C681 H673 0.930 . S
C681 C679 1.419 . S
C681 C682 1.362 . S
C682 H674 0.930 . S
C682 C681 1.362 . S
C682 C685 1.409 . S
C683 H675 0.930 . S
C683 C684 1.355 . S
C683 C685 1.415 . S
C684 C683 1.355 . S
C684 C686 1.419 . S
C685 C680 1.425 . S
C685 C682 1.409 . S
C685 C683 1.415 . S
C686 H676 0.930 . S
C686 C684 1.419 . S
C686 C687 1.362 . S
C687 H677 0.930 . S
C687 C680 1.409 . S
C687 C686 1.362 . S
H688 C694 0.930 . S
H689 C697 0.930 1_556 S
H690 C698 0.930 1_556 S
H691 C699 0.930 . S
H692 C702 0.930 . S
H693 C703 0.930 . S
C694 H688 0.930 . S
C694 C695 1.355 . S
C694 C696 1.415 . S
C695 C694 1.355 . S
C695 C697 1.419 . S
C696 C694 1.415 . S
C696 C701 1.425 . S
C696 C703 1.409 . S
C697 H689 0.930 1_554 S
C697 C695 1.419 . S
C697 C698 1.362 . S
C698 H690 0.930 1_554 S
C698 C697 1.362 . S
C698 C701 1.409 . S
C699 H691 0.930 . S
C699 C700 1.355 . S
C699 C701 1.415 . S
C700 C699 1.355 . S
C700 C702 1.419 . S
C701 C696 1.425 . S
C701 C698 1.409 . S
C701 C699 1.415 . S
C702 H692 0.930 . S
C702 C700 1.419 . S
C702 C703 1.362 . S
C703 H693 0.930 . S
C703 C696 1.409 . S
C703 C702 1.362 . S
H704 C710 0.930 . S
H705 C713 0.930 . S
H706 C714 0.930 . S
H707 C715 0.930 . S
H708 C718 0.930 . S
H709 C719 0.930 . S
C710 H704 0.930 . S
C710 C711 1.355 . S
C710 C712 1.415 . S
C711 C710 1.355 . S
C711 C713 1.419 . S
C712 C710 1.415 . S
C712 C717 1.425 . S
C712 C719 1.409 . S
C713 H705 0.930 . S
C713 C711 1.419 . S
C713 C714 1.362 . S
C714 H706 0.930 . S
C714 C713 1.362 . S
C714 C717 1.409 . S
C715 H707 0.930 . S
C715 C716 1.355 . S
C715 C717 1.415 . S
C716 C715 1.355 . S
C716 C718 1.419 . S
C717 C712 1.425 . S
C717 C714 1.409 . S
C717 C715 1.415 . S
C718 H708 0.930 . S
C718 C716 1.419 . S
C718 C719 1.362 . S
C719 H709 0.930 . S
C719 C712 1.409 . S
C719 C718 1.362 . S
H720 C726 0.930 . S
H721 C729 0.930 . S
H722 C730 0.930 . S
H723 C731 0.930 . S
H724 C734 0.930 . S
H725 C735 0.930 . S
C726 H720 0.930 . S
C726 C727 1.355 . S
C726 C728 1.415 . S
C727 C726 1.355 . S
C727 C729 1.419 . S
C728 C726 1.415 . S
C728 C733 1.425 . S
C728 C735 1.409 . S
C729 H721 0.930 . S
C729 C727 1.419 . S
C729 C730 1.362 . S
C730 H722 0.930 . S
C730 C729 1.362 . S
C730 C733 1.409 . S
C731 H723 0.930 . S
C731 C732 1.355 . S
C731 C733 1.415 . S
C732 C731 1.355 . S
C732 C734 1.419 . S
C733 C728 1.425 . S
C733 C730 1.409 . S
C733 C731 1.415 . S
C734 H724 0.930 . S
C734 C732 1.419 . S
C734 C735 1.362 . S
C735 H725 0.930 . S
C735 C728 1.409 . S
C735 C734 1.362 . S
H736 C742 0.930 . S
H737 C745 0.930 . S
H738 C746 0.930 . S
H739 C747 0.930 . S
H740 C750 0.930 . S
H741 C751 0.930 . S
C742 H736 0.930 . S
C742 C743 1.355 . S
C742 C744 1.415 . S
C743 C742 1.355 . S
C743 C745 1.419 . S
C744 C742 1.415 . S
C744 C749 1.425 . S
C744 C751 1.409 . S
C745 H737 0.930 . S
C745 C743 1.419 . S
C745 C746 1.362 . S
C746 H738 0.930 . S
C746 C745 1.362 . S
C746 C749 1.409 . S
C747 H739 0.930 . S
C747 C748 1.355 . S
C747 C749 1.415 . S
C748 C747 1.355 . S
C748 C750 1.419 . S
C749 C744 1.425 . S
C749 C746 1.409 . S
C749 C747 1.415 . S
C750 H740 0.930 . S
C750 C748 1.419 . S
C750 C751 1.362 . S
C751 H741 0.930 . S
C751 C744 1.409 . S
C751 C750 1.362 . S
H752 C758 0.930 . S
H753 C761 0.930 . S
H754 C762 0.930 . S
H755 C763 0.930 . S
H756 C766 0.930 . S
H757 C767 0.930 . S
C758 H752 0.930 . S
C758 C759 1.355 . S
C758 C760 1.415 . S
C759 C758 1.355 . S
C759 C761 1.419 . S
C760 C758 1.415 . S
C760 C765 1.425 . S
C760 C767 1.409 . S
C761 H753 0.930 . S
C761 C759 1.419 . S
C761 C762 1.362 . S
C762 H754 0.930 . S
C762 C761 1.362 . S
C762 C765 1.409 . S
C763 H755 0.930 . S
C763 C764 1.355 . S
C763 C765 1.415 . S
C764 C763 1.355 . S
C764 C766 1.419 . S
C765 C760 1.425 . S
C765 C762 1.409 . S
C765 C763 1.415 . S
C766 H756 0.930 . S
C766 C764 1.419 . S
C766 C767 1.362 . S
C767 H757 0.930 . S
C767 C760 1.409 . S
C767 C766 1.362 . S
H768 C774 0.930 . S
H769 C777 0.930 . S
H770 C778 0.930 . S
H771 C779 0.930 . S
H772 C782 0.930 . S
H773 C783 0.930 . S
C774 H768 0.930 . S
C774 C775 1.355 . S
C774 C776 1.415 . S
C775 C774 1.355 . S
C775 C777 1.419 1_556 S
C776 C774 1.415 . S
C776 C781 1.425 . S
C776 C783 1.409 . S
C777 H769 0.930 . S
C777 C775 1.419 1_554 S
C777 C778 1.362 . S
C778 H770 0.930 . S
C778 C777 1.362 . S
C778 C781 1.409 1_554 S
C779 H771 0.930 . S
C779 C780 1.355 . S
C779 C781 1.415 . S
C780 C779 1.355 . S
C780 C782 1.419 . S
C781 C776 1.425 . S
C781 C778 1.409 1_556 S
C781 C779 1.415 . S
C782 H772 0.930 . S
C782 C780 1.419 . S
C782 C783 1.362 . S
C783 H773 0.930 . S
C783 C776 1.409 . S
C783 C782 1.362 . S
H784 C790 0.930 . S
H785 C793 0.930 . S
H786 C794 0.930 . S
H787 C795 0.930 . S
H788 C798 0.930 . S
H789 C799 0.930 . S
C790 H784 0.930 . S
C790 C791 1.355 . S
C790 C792 1.415 . S
C791 C790 1.355 . S
C791 C793 1.419 . S
C792 C790 1.415 . S
C792 C797 1.425 . S
C792 C799 1.409 . S
C793 H785 0.930 . S
C793 C791 1.419 . S
C793 C794 1.362 . S
C794 H786 0.930 . S
C794 C793 1.362 . S
C794 C797 1.409 . S
C795 H787 0.930 . S
C795 C796 1.355 . S
C795 C797 1.415 . S
C796 C795 1.355 . S
C796 C798 1.419 . S
C797 C792 1.425 . S
C797 C794 1.409 . S
C797 C795 1.415 . S
C798 H788 0.930 . S
C798 C796 1.419 . S
C798 C799 1.362 . S
C799 H789 0.930 . S
C799 C792 1.409 . S
C799 C798 1.362 . S
H800 C806 0.930 . S
H801 C809 0.930 . S
H802 C810 0.930 . S
H803 C811 0.930 . S
H804 C814 0.930 . S
H805 C815 0.930 . S
C806 H800 0.930 . S
C806 C807 1.355 . S
C806 C808 1.415 . S
C807 C806 1.355 . S
C807 C809 1.419 . S
C808 C806 1.415 . S
C808 C813 1.425 . S
C808 C815 1.409 . S
C809 H801 0.930 . S
C809 C807 1.419 . S
C809 C810 1.362 . S
C810 H802 0.930 . S
C810 C809 1.362 . S
C810 C813 1.409 . S
C811 H803 0.930 . S
C811 C812 1.355 . S
C811 C813 1.415 . S
C812 C811 1.355 . S
C812 C814 1.419 . S
C813 C808 1.425 . S
C813 C810 1.409 . S
C813 C811 1.415 . S
C814 H804 0.930 . S
C814 C812 1.419 . S
C814 C815 1.362 . S
C815 H805 0.930 . S
C815 C808 1.409 . S
C815 C814 1.362 . S
C439 C374 1.594 . S
C444 C14 1.572 . S
C455 C50 1.476 . S
C460 C410 1.478 . S
C471 C86 1.598 . S
C476 C230 1.575 . S
C487 C266 1.562 . S
C492 C122 1.523 . S
C503 C302 1.480 . S
C508 C158 1.482 . S
C519 C194 1.559 . S
C524 C338 1.519 . S
C535 C4 1.064 . S
C540 C256 1.071 . S
C551 C40 0.849 . S
C556 C292 0.864 . S
C567 C328 1.081 . S
C572 C76 1.099 . S
C583 C364 1.114 . S
C588 C112 1.115 . S
C599 C400 0.899 . S
C604 C148 0.907 . S
C615 C220 1.044 . S
C620 C184 1.068 . S
C631 C2 0.954 . S
C636 C147 1.023 . S
C647 C38 0.985 . S
C652 C183 1.091 . S
C663 C74 0.962 . S
C668 C3 1.088 . S
C679 C110 1.016 . S
C684 C39 0.962 . S
C695 C146 1.101 . S
C700 C75 1.089 . S
C711 C182 1.064 . S
C716 C111 1.047 . S
C727 C218 0.987 . S
C732 C291 1.015 . S
C743 C254 0.988 . S
C748 C327 1.084 . S
C759 C363 1.090 . S
C764 C290 1.100 . S
C775 C326 1.023 . S
C780 C399 0.981 . S
C791 C362 1.037 . S
C796 C219 1.040 . S
C807 C398 1.082 . S
C812 C255 1.083 . S
