# Generated by pormake.
# Topology lcy-e, (6)-cn, num edge types: 1
# Building blocks:
#     Node 0, Type 0, BuildingBlock: FUNLAD_clean_sbu_0, # of connection points: 6
#     Node 1, Type 0, BuildingBlock: FUNLAD_clean_sbu_0, # of connection points: 6
#     Node 2, Type 0, BuildingBlock: FUNLAD_clean_sbu_0, # of connection points: 6
#     Node 3, Type 0, BuildingBlock: FUNLAD_clean_sbu_0, # of connection points: 6
#     Node 4, Type 0, BuildingBlock: FUNLAD_clean_sbu_0, # of connection points: 6
#     Node 5, Type 0, BuildingBlock: FUNLAD_clean_sbu_0, # of connection points: 6
#     Node 6, Type 0, BuildingBlock: FUNLAD_clean_sbu_0, # of connection points: 6
#     Node 7, Type 0, BuildingBlock: FUNLAD_clean_sbu_0, # of connection points: 6
#     Node 8, Type 0, BuildingBlock: FUNLAD_clean_sbu_0, # of connection points: 6
#     Node 9, Type 0, BuildingBlock: FUNLAD_clean_sbu_0, # of connection points: 6
#     Node 10, Type 0, BuildingBlock: FUNLAD_clean_sbu_0, # of connection points: 6
#     Node 11, Type 0, BuildingBlock: FUNLAD_clean_sbu_0, # of connection points: 6
#     Edge 12, Type (0, 0), BuildingBlock: TEMPAE_clean_linker_10, # of connection points: 2
#     Edge 13, Type (0, 0), BuildingBlock: TEMPAE_clean_linker_10, # of connection points: 2
#     Edge 14, Type (0, 0), BuildingBlock: TEMPAE_clean_linker_10, # of connection points: 2
#     Edge 15, Type (0, 0), BuildingBlock: TEMPAE_clean_linker_10, # of connection points: 2
#     Edge 16, Type (0, 0), BuildingBlock: TEMPAE_clean_linker_10, # of connection points: 2
#     Edge 17, Type (0, 0), BuildingBlock: TEMPAE_clean_linker_10, # of connection points: 2
#     Edge 18, Type (0, 0), BuildingBlock: TEMPAE_clean_linker_10, # of connection points: 2
#     Edge 19, Type (0, 0), BuildingBlock: TEMPAE_clean_linker_10, # of connection points: 2
#     Edge 20, Type (0, 0), BuildingBlock: TEMPAE_clean_linker_10, # of connection points: 2
#     Edge 21, Type (0, 0), BuildingBlock: TEMPAE_clean_linker_10, # of connection points: 2
#     Edge 22, Type (0, 0), BuildingBlock: TEMPAE_clean_linker_10, # of connection points: 2
#     Edge 23, Type (0, 0), BuildingBlock: TEMPAE_clean_linker_10, # of connection points: 2
#     Edge 24, Type (0, 0), BuildingBlock: TEMPAE_clean_linker_10, # of connection points: 2
#     Edge 25, Type (0, 0), BuildingBlock: TEMPAE_clean_linker_10, # of connection points: 2
#     Edge 26, Type (0, 0), BuildingBlock: TEMPAE_clean_linker_10, # of connection points: 2
#     Edge 27, Type (0, 0), BuildingBlock: TEMPAE_clean_linker_10, # of connection points: 2
#     Edge 28, Type (0, 0), BuildingBlock: TEMPAE_clean_linker_10, # of connection points: 2
#     Edge 29, Type (0, 0), BuildingBlock: TEMPAE_clean_linker_10, # of connection points: 2
#     Edge 30, Type (0, 0), BuildingBlock: TEMPAE_clean_linker_10, # of connection points: 2
#     Edge 31, Type (0, 0), BuildingBlock: TEMPAE_clean_linker_10, # of connection points: 2
#     Edge 32, Type (0, 0), BuildingBlock: TEMPAE_clean_linker_10, # of connection points: 2
#     Edge 33, Type (0, 0), BuildingBlock: TEMPAE_clean_linker_10, # of connection points: 2
#     Edge 34, Type (0, 0), BuildingBlock: TEMPAE_clean_linker_10, # of connection points: 2
#     Edge 35, Type (0, 0), BuildingBlock: TEMPAE_clean_linker_10, # of connection points: 2
#     Edge 36, Type (0, 0), BuildingBlock: TEMPAE_clean_linker_10, # of connection points: 2
#     Edge 37, Type (0, 0), BuildingBlock: TEMPAE_clean_linker_10, # of connection points: 2
#     Edge 38, Type (0, 0), BuildingBlock: TEMPAE_clean_linker_10, # of connection points: 2
#     Edge 39, Type (0, 0), BuildingBlock: TEMPAE_clean_linker_10, # of connection points: 2
#     Edge 40, Type (0, 0), BuildingBlock: TEMPAE_clean_linker_10, # of connection points: 2
#     Edge 41, Type (0, 0), BuildingBlock: TEMPAE_clean_linker_10, # of connection points: 2
#     Edge 42, Type (0, 0), BuildingBlock: TEMPAE_clean_linker_10, # of connection points: 2
#     Edge 43, Type (0, 0), BuildingBlock: TEMPAE_clean_linker_10, # of connection points: 2
#     Edge 44, Type (0, 0), BuildingBlock: TEMPAE_clean_linker_10, # of connection points: 2
#     Edge 45, Type (0, 0), BuildingBlock: TEMPAE_clean_linker_10, # of connection points: 2
#     Edge 46, Type (0, 0), BuildingBlock: TEMPAE_clean_linker_10, # of connection points: 2
#     Edge 47, Type (0, 0), BuildingBlock: TEMPAE_clean_linker_10, # of connection points: 2
# Relax obj value: 0.595
# Max RMSD: 0.359
# Mean RMSD: 0.291
data_MOF--net-lcy-e--node1-FUNLAD_clean_sbu_0--edge1-TEMPAE_clean_linker_10
_symmetry_space_group_name_H-M    P1
_symmetry_Int_Tables_number       1
_symmetry_cell_setting            triclinic
loop_
_symmetry_equiv_pos_as_xyz
'x, y, z'
_cell_length_a     41.009719
_cell_length_b     38.515027
_cell_length_c     37.915459
_cell_angle_alpha  92.961609
_cell_angle_beta   87.315467
_cell_angle_gamma 95.597056
loop_
_atom_site_label
_atom_site_type_symbol
_atom_site_fract_x
_atom_site_fract_y
_atom_site_fract_z
_atom_type_partial_charge
C0 C 0.13838 0.20056 0.52443 0.0
N1 N 0.07207 0.20906 0.44487 0.0
C2 C 0.07184 0.17384 0.43971 0.0
C3 C 0.04486 0.15437 0.42511 0.0
C4 C 0.01809 0.1714 0.41543 0.0
C5 C 0.01895 0.20772 0.42103 0.0
C6 C 0.04625 0.22611 0.43611 0.0
Zn7 Zn 0.11181 0.23753 0.46534 0.0
C8 C 0.09298 0.28274 0.5272 0.0
N9 N 0.19479 0.29808 0.50792 0.0
C10 C 0.22582 0.2882 0.50826 0.0
C11 C 0.18896 0.33216 0.51362 0.0
C12 C 0.21472 0.35795 0.51827 0.0
C13 C 0.2469 0.34879 0.51706 0.0
C14 C 0.25255 0.31345 0.51297 0.0
Zn15 Zn 0.15559 0.26621 0.48947 0.0
O16 O 0.11608 0.19974 0.50212 0.0
C17 C 0.17493 0.21774 0.43155 0.0
O18 O 0.15991 0.22676 0.52629 0.0
H19 H 0.16442 0.33982 0.51235 0.0
H20 H 0.09269 0.16086 0.4467 0.0
H21 H 0.23003 0.26109 0.50309 0.0
O22 O 0.14404 0.21089 0.42986 0.0
O23 O 0.18639 0.24116 0.45358 0.0
H24 H 0.04687 0.25411 0.44067 0.0
O25 O 0.15126 0.30436 0.4512 0.0
O26 O 0.10849 0.27551 0.42762 0.0
O27 O 0.12388 0.28968 0.52675 0.0
O28 O 0.08023 0.26292 0.50266 0.0
C29 C 0.13001 0.30146 0.42765 0.0
H30 H 0.04517 0.12638 0.42082 0.0
H31 H 0.99864 0.22165 0.4141 0.0
H32 H 0.20966 0.38507 0.52145 0.0
H33 H 0.27728 0.3057 0.51195 0.0
C34 C 0.08745 0.9674 0.77438 0.0
N35 N 0.1287 0.9004 0.69601 0.0
C36 C 0.15993 0.91566 0.69879 0.0
C37 C 0.18664 0.89644 0.6893 0.0
C38 C 0.18082 0.86159 0.67644 0.0
C39 C 0.14843 0.84656 0.67461 0.0
C40 C 0.12275 0.86638 0.68465 0.0
Zn41 Zn 0.0874 0.92577 0.7059 0.0
C42 C 0.03791 0.88307 0.75059 0.0
N43 N 0.9979 0.97334 0.72456 0.0
C44 C 0.99554 0.00845 0.72743 0.0
C45 C 0.97066 0.95031 0.72176 0.0
C46 C 0.93972 0.96205 0.7219 0.0
C47 C 0.93661 0.9979 0.72392 0.0
C48 C 0.96479 0.02145 0.7268 0.0
Zn49 Zn 0.04162 0.95167 0.71781 0.0
O50 O 0.10463 0.94916 0.75317 0.0
C51 C 0.09175 0.99634 0.67683 0.0
O52 O 0.05884 0.97361 0.76645 0.0
H53 H 0.97281 0.92264 0.71798 0.0
H54 H 0.1641 0.94274 0.7079 0.0
H55 H 0.01747 0.02638 0.72908 0.0
O56 O 0.10824 0.97009 0.67812 0.0
O57 O 0.06308 0.99522 0.69126 0.0
H58 H 0.09786 0.85451 0.68284 0.0
O59 O 0.0247 0.9289 0.66895 0.0
O60 O 0.06958 0.90328 0.65818 0.0
O61 O 0.0217 0.90863 0.74574 0.0
O62 O 0.06613 0.882 0.73548 0.0
C63 C 0.0418 0.90992 0.64864 0.0
H64 H 0.21141 0.90878 0.69125 0.0
H65 H 0.14295 0.81955 0.66559 0.0
H66 H 0.91843 0.94327 0.71905 0.0
H67 H 0.96304 0.04937 0.72817 0.0
C68 C 0.35508 0.79358 0.92996 0.0
N69 N 0.27159 0.84627 0.95704 0.0
C70 C 0.27021 0.85268 0.92226 0.0
C71 C 0.24189 0.86392 0.90954 0.0
C72 C 0.215 0.86893 0.93296 0.0
C73 C 0.21657 0.86071 0.96835 0.0
C74 C 0.24522 0.84906 0.97985 0.0
Zn75 Zn 0.31498 0.838 0.97709 0.0
C76 C 0.30952 0.77453 0.01932 0.0
N77 N 0.4048 0.82406 0.02259 0.0
C78 C 0.43421 0.83392 0.00606 0.0
C79 C 0.40291 0.81345 0.05635 0.0
C80 C 0.43123 0.81255 0.07489 0.0
C81 C 0.46172 0.82321 0.05877 0.0
C82 C 0.46325 0.83398 0.02396 0.0
Zn83 Zn 0.36176 0.82998 0.00014 0.0
O84 O 0.32659 0.80414 0.93359 0.0
C85 C 0.36864 0.89054 0.95508 0.0
O86 O 0.37536 0.80093 0.95421 0.0
H87 H 0.37932 0.8065 0.06932 0.0
H88 H 0.29156 0.85056 0.90473 0.0
H89 H 0.43514 0.84242 0.97926 0.0
O90 O 0.33898 0.88041 0.94876 0.0
O91 O 0.38313 0.87514 0.97763 0.0
H92 H 0.24688 0.84368 0.00739 0.0
O93 O 0.34871 0.85998 0.04532 0.0
O94 O 0.30497 0.87347 0.02045 0.0
O95 O 0.33994 0.7838 0.02155 0.0
O96 O 0.2917 0.79402 0.00416 0.0
C97 C 0.32413 0.87757 0.04596 0.0
H98 H 0.24165 0.8704 0.88209 0.0
H99 H 0.1962 0.86412 0.98704 0.0
H100 H 0.42932 0.80417 0.10182 0.0
H101 H 0.48656 0.84202 0.01076 0.0
C102 C 0.35724 0.1116 0.30272 0.0
N103 N 0.39335 0.18575 0.22997 0.0
C104 C 0.36092 0.18503 0.2235 0.0
C105 C 0.34829 0.2142 0.21125 0.0
C106 C 0.36921 0.24447 0.2051 0.0
C107 C 0.40271 0.24454 0.2114 0.0
C108 C 0.41433 0.21472 0.22413 0.0
Zn109 Zn 0.4086 0.14065 0.24723 0.0
C110 C 0.4483 0.15071 0.3117 0.0
N111 N 0.43212 0.04292 0.28316 0.0
C112 C 0.43222 0.01723 0.25698 0.0
C113 C 0.45189 0.0425 0.311 0.0
C114 C 0.47633 0.01952 0.31011 0.0
C115 C 0.47978 0.99603 0.28078 0.0
C116 C 0.45557 0.99318 0.25562 0.0
Zn117 Zn 0.41563 0.08995 0.27041 0.0
O118 O 0.36647 0.13456 0.28055 0.0
C119 C 0.37448 0.07932 0.20828 0.0
O120 O 0.3753 0.08735 0.3077 0.0
H121 H 0.45131 0.06224 0.33223 0.0
H122 H 0.34468 0.16164 0.22763 0.0
H123 H 0.41677 0.01715 0.23478 0.0
O124 O 0.38236 0.11179 0.20525 0.0
O125 O 0.38462 0.06415 0.23383 0.0
H126 H 0.44005 0.21468 0.22927 0.0
O127 O 0.45574 0.09305 0.23165 0.0
O128 O 0.45016 0.14529 0.21384 0.0
O129 O 0.44492 0.11767 0.30798 0.0
O130 O 0.43541 0.16877 0.28977 0.0
C131 C 0.46542 0.11812 0.21195 0.0
H132 H 0.32239 0.21296 0.20626 0.0
H133 H 0.41956 0.26752 0.20709 0.0
H134 H 0.49409 0.02265 0.33053 0.0
H135 H 0.45631 0.97455 0.23327 0.0
C136 C 0.66111 0.30577 0.49895 0.0
N137 N 0.59407 0.32491 0.58357 0.0
C138 C 0.60594 0.35897 0.58863 0.0
C139 C 0.58512 0.38378 0.60158 0.0
C140 C 0.5518 0.3734 0.60876 0.0
C141 C 0.54021 0.33823 0.60314 0.0
C142 C 0.56192 0.31425 0.59081 0.0
Zn143 Zn 0.62403 0.2876 0.56632 0.0
C144 C 0.59071 0.23587 0.51457 0.0
N145 N 0.68484 0.20801 0.53041 0.0
C146 C 0.71661 0.21435 0.51857 0.0
C147 C 0.67085 0.1748 0.53408 0.0
C148 C 0.68895 0.14641 0.52627 0.0
C149 C 0.72177 0.15206 0.51416 0.0
C150 C 0.73559 0.18654 0.50999 0.0
Zn151 Zn 0.65643 0.24736 0.54591 0.0
O152 O 0.64128 0.31652 0.52295 0.0
C153 C 0.69126 0.30072 0.59423 0.0
O154 O 0.67229 0.27632 0.50128 0.0
H155 H 0.64553 0.17024 0.54332 0.0
H156 H 0.63156 0.36689 0.5827 0.0
H157 H 0.72729 0.24096 0.51603 0.0
O158 O 0.66323 0.31245 0.59654 0.0
O159 O 0.69519 0.27334 0.5749 0.0
H160 H 0.55305 0.28699 0.58722 0.0
O161 O 0.64004 0.21934 0.59139 0.0
O162 O 0.60719 0.25849 0.61001 0.0
O163 O 0.61778 0.22258 0.51571 0.0
O164 O 0.5859 0.26272 0.53435 0.0
C165 C 0.61937 0.23011 0.6144 0.0
H166 H 0.59477 0.41084 0.60538 0.0
H167 H 0.51468 0.32933 0.60863 0.0
H168 H 0.67719 0.12022 0.52914 0.0
H169 H 0.76085 0.1919 0.50063 0.0
C170 C 0.87788 0.38656 0.74791 0.0
N171 N 0.89396 0.31549 0.82293 0.0
C172 C 0.86068 0.31301 0.82586 0.0
C173 C 0.84291 0.28141 0.83302 0.0
C174 C 0.85937 0.25184 0.83814 0.0
C175 C 0.89389 0.25527 0.83583 0.0
C176 C 0.9108 0.28752 0.82797 0.0
Zn177 Zn 0.9164 0.36249 0.80833 0.0
C178 C 0.96523 0.35684 0.74766 0.0
N179 N 0.95669 0.46171 0.77489 0.0
C180 C 0.96285 0.48473 0.80284 0.0
C181 C 0.97359 0.46564 0.7434 0.0
C182 C 0.00103 0.49006 0.7409 0.0
C183 C 0.01065 0.51072 0.77101 0.0
C184 C 0.98971 0.50976 0.80133 0.0
Zn185 Zn 0.93377 0.41386 0.78706 0.0
O186 O 0.88051 0.36424 0.77084 0.0
C187 C 0.88401 0.42155 0.84423 0.0
O188 O 0.89916 0.41291 0.74612 0.0
H189 H 0.96821 0.44731 0.72141 0.0
H190 H 0.84769 0.33549 0.82183 0.0
H191 H 0.9495 0.48118 0.82784 0.0
O192 O 0.88619 0.38919 0.84768 0.0
O193 O 0.90119 0.43745 0.82047 0.0
H194 H 0.9373 0.2901 0.82547 0.0
O195 O 0.96805 0.41393 0.82892 0.0
O196 O 0.95216 0.36131 0.84607 0.0
O197 O 0.96551 0.38964 0.75237 0.0
O198 O 0.94682 0.33715 0.76791 0.0
C199 C 0.971 0.38934 0.8494 0.0
H200 H 0.8164 0.2801 0.8335 0.0
H201 H 0.90767 0.23333 0.83985 0.0
H202 H 0.01637 0.48996 0.71686 0.0
H203 H 0.99582 0.52579 0.82487 0.0
C204 C 0.88069 0.64804 0.95672 0.0
N205 N 0.95223 0.68 0.03086 0.0
C206 C 0.9505 0.64587 0.03909 0.0
C207 C 0.97509 0.63384 0.05827 0.0
C208 C 0.00131 0.65734 0.06956 0.0
C209 C 0.00289 0.69215 0.06004 0.0
C210 C 0.97814 0.70291 0.04029 0.0
Zn211 Zn 0.9138 0.69911 0.00794 0.0
C212 C 0.93347 0.73733 0.94419 0.0
N213 N 0.83216 0.7409 0.9647 0.0
C214 C 0.80019 0.72748 0.96749 0.0
C215 C 0.84049 0.77284 0.95137 0.0
C216 C 0.81653 0.79289 0.94104 0.0
C217 C 0.78326 0.78076 0.94532 0.0
C218 C 0.77517 0.74714 0.95794 0.0
Zn219 Zn 0.86991 0.71849 0.98597 0.0
O220 O 0.90678 0.65433 0.97378 0.0
C221 C 0.84971 0.67835 0.04743 0.0
O222 O 0.86011 0.67075 0.95676 0.0
H223 H 0.86577 0.7837 0.95005 0.0
H224 H 0.92959 0.62815 0.03162 0.0
H225 H 0.79395 0.7022 0.97844 0.0
O226 O 0.88 0.67348 0.04553 0.0
O227 O 0.83852 0.69835 0.02638 0.0
H228 H 0.97922 0.72988 0.03332 0.0
O229 O 0.87911 0.76512 0.01737 0.0
O230 O 0.9193 0.74379 0.04247 0.0
O231 O 0.90249 0.73732 0.94461 0.0
O232 O 0.94662 0.72416 0.96944 0.0
C233 C 0.90082 0.76805 0.04037 0.0
H234 H 0.97307 0.60678 0.06528 0.0
H235 H 0.02295 0.71089 0.068 0.0
H236 H 0.82414 0.81818 0.93056 0.0
H237 H 0.74984 0.73671 0.96175 0.0
C238 C 0.60454 0.62502 0.32388 0.0
N239 N 0.64568 0.53382 0.28821 0.0
C240 C 0.65984 0.53433 0.31996 0.0
C241 C 0.66847 0.5036 0.33307 0.0
C242 C 0.66222 0.47193 0.31351 0.0
C243 C 0.64709 0.47191 0.28108 0.0
C244 C 0.63918 0.50347 0.26869 0.0
Zn245 Zn 0.63676 0.58027 0.26963 0.0
C246 C 0.56973 0.57826 0.23989 0.0
N247 N 0.6199 0.67755 0.22966 0.0
C248 C 0.62694 0.70767 0.24948 0.0
C249 C 0.60988 0.67806 0.19606 0.0
C250 C 0.6069 0.70965 0.18099 0.0
C251 C 0.61387 0.74109 0.20078 0.0
C252 C 0.62369 0.74002 0.23557 0.0
Zn253 Zn 0.62672 0.63045 0.24844 0.0
O254 O 0.61479 0.59502 0.3188 0.0
C255 C 0.69204 0.63374 0.27953 0.0
O256 O 0.60661 0.64567 0.29862 0.0
H257 H 0.60419 0.65387 0.18087 0.0
H258 H 0.66459 0.55869 0.33515 0.0
H259 H 0.63515 0.70661 0.27607 0.0
O260 O 0.68297 0.60256 0.28721 0.0
O261 O 0.67321 0.65088 0.26318 0.0
H262 H 0.62804 0.50381 0.24342 0.0
O263 O 0.64756 0.61527 0.19925 0.0
O264 O 0.66036 0.56668 0.22022 0.0
O265 O 0.57973 0.60972 0.23376 0.0
O266 O 0.58907 0.55899 0.2532 0.0
C267 C 0.6619 0.58754 0.19517 0.0
H268 H 0.67934 0.50451 0.35864 0.0
H269 H 0.64169 0.44785 0.26547 0.0
H270 H 0.5983 0.70948 0.15438 0.0
H271 H 0.62874 0.76382 0.25168 0.0
C272 C 0.16471 0.54392 0.18981 0.0
N273 N 0.1602 0.46304 0.11087 0.0
C274 C 0.14396 0.48698 0.09526 0.0
C275 C 0.1228 0.4768 0.06804 0.0
C276 C 0.11849 0.44163 0.0561 0.0
C277 C 0.13551 0.41734 0.07255 0.0
C278 C 0.15619 0.42862 0.10018 0.0
Zn279 Zn 0.19278 0.48208 0.14901 0.0
C280 C 0.23575 0.54404 0.12351 0.0
N281 N 0.25846 0.52816 0.2265 0.0
C282 C 0.27227 0.50291 0.24292 0.0
C283 C 0.27436 0.56074 0.2239 0.0
C284 C 0.30696 0.5674 0.2338 0.0
C285 C 0.32307 0.54018 0.24622 0.0
C286 C 0.30482 0.50828 0.25267 0.0
Zn287 Zn 0.22329 0.50989 0.19105 0.0
O288 O 0.15958 0.51787 0.16815 0.0
C289 C 0.17866 0.45119 0.21929 0.0
O290 O 0.19179 0.54912 0.20523 0.0
H291 H 0.26317 0.58046 0.21063 0.0
H292 H 0.14782 0.51432 0.1034 0.0
H293 H 0.25956 0.47705 0.24447 0.0
O294 O 0.17194 0.44522 0.18687 0.0
O295 O 0.19869 0.47709 0.22817 0.0
H296 H 0.16937 0.40996 0.11273 0.0
O297 O 0.2544 0.47089 0.17524 0.0
O298 O 0.2269 0.44614 0.13108 0.0
O299 O 0.24611 0.54286 0.1543 0.0
O300 O 0.21388 0.52068 0.11273 0.0
C301 C 0.25166 0.44778 0.15023 0.0
H302 H 0.11059 0.49649 0.0558 0.0
H303 H 0.13276 0.38993 0.06421 0.0
H304 H 0.32031 0.59239 0.2285 0.0
H305 H 0.3164 0.48676 0.26244 0.0
C306 C 0.56254 0.98801 0.83234 0.0
N307 N 0.60761 0.0465 0.91584 0.0
C308 C 0.57877 0.06109 0.92098 0.0
C309 C 0.56719 0.07011 0.95503 0.0
C310 C 0.5854 0.06404 0.98418 0.0
C311 C 0.61553 0.04982 0.9781 0.0
C312 C 0.62621 0.04111 0.94351 0.0
Zn313 Zn 0.62119 0.03036 0.86567 0.0
C314 C 0.64672 0.96044 0.86326 0.0
N315 N 0.64397 0.99603 0.75947 0.0
C316 C 0.6499 0.02299 0.73732 0.0
C317 C 0.66009 0.96681 0.75378 0.0
C318 C 0.6878 0.96734 0.73086 0.0
C319 C 0.69814 0.99786 0.71303 0.0
C320 C 0.67692 0.02428 0.71359 0.0
Zn321 Zn 0.62811 0.00885 0.81103 0.0
O322 O 0.57289 0.00851 0.8576 0.0
C323 C 0.60246 0.07821 0.81366 0.0
O324 O 0.5822 0.97902 0.80729 0.0
H325 H 0.65447 0.94477 0.77021 0.0
H326 H 0.56439 0.0652 0.89864 0.0
H327 H 0.63683 0.04593 0.74081 0.0
O328 O 0.60933 0.07882 0.84602 0.0
O329 O 0.6063 0.05117 0.79412 0.0
H330 H 0.64902 0.02938 0.9388 0.0
O331 O 0.67404 0.04011 0.81517 0.0
O332 O 0.66936 0.0522 0.87225 0.0
O333 O 0.64907 0.96629 0.83058 0.0
O334 O 0.63366 0.9821 0.88465 0.0
C335 C 0.68618 0.05401 0.84336 0.0
H336 H 0.54408 0.08155 0.9585 0.0
H337 H 0.6302 0.04452 -0.00012 0.0
H338 H 0.70303 0.94589 0.73076 0.0
H339 H 0.68333 0.04774 0.6992 0.0
C340 C 0.86443 0.98599 0.32159 0.0
N341 N 0.89746 0.9026 0.37241 0.0
C342 C 0.92911 0.91218 0.36184 0.0
C343 C 0.95478 0.90581 0.38307 0.0
C344 C 0.94751 0.88897 0.4149 0.0
C345 C 0.91471 0.87889 0.42456 0.0
C346 C 0.89008 0.88622 0.4031 0.0
Zn347 Zn 0.85771 0.91302 0.34591 0.0
C348 C 0.80919 0.94573 0.39496 0.0
N349 N 0.77188 0.93471 0.29542 0.0
C350 C 0.76997 0.95404 0.26663 0.0
C351 C 0.74438 0.91886 0.31148 0.0
C352 C 0.7137 0.92145 0.29852 0.0
C353 C 0.71083 0.94123 0.26913 0.0
C354 C 0.73931 0.95801 0.25314 0.0
Zn355 Zn 0.8145 0.92666 0.31861 0.0
O356 O 0.87956 0.96247 0.33417 0.0
C357 C 0.86325 0.89681 0.26892 0.0
O358 O 0.83469 0.9793 0.31319 0.0
H359 H 0.74603 0.90435 0.33484 0.0
H360 H 0.93438 0.92541 0.33745 0.0
H361 H 0.7921 0.96658 0.25438 0.0
O362 O 0.87702 0.89203 0.29744 0.0
O363 O 0.837 0.91195 0.26981 0.0
H364 H 0.86484 0.87958 0.41163 0.0
O365 O 0.79559 0.87382 0.32455 0.0
O366 O 0.83588 0.86302 0.3567 0.0
O367 O 0.79293 0.94211 0.3672 0.0
O368 O 0.83779 0.93562 0.39409 0.0
C369 C 0.80921 0.85279 0.34241 0.0
H370 H 0.97986 0.91435 0.37506 0.0
H371 H 0.90798 0.86685 0.44941 0.0
H372 H 0.69222 0.90895 0.31213 0.0
H373 H 0.73782 0.97389 0.23063 0.0
C374 C 0.40493 0.56433 0.65866 0.0
N375 N 0.42166 0.65361 0.59935 0.0
C376 C 0.45373 0.65022 0.60492 0.0
C377 C 0.47761 0.65677 0.5779 0.0
C378 C 0.46824 0.66715 0.54515 0.0
C379 C 0.43557 0.67383 0.5416 0.0
C380 C 0.41253 0.66639 0.5689 0.0
Zn381 Zn 0.38484 0.63085 0.63108 0.0
C382 C 0.34387 0.57649 0.58935 0.0
N383 N 0.30698 0.5795 0.69318 0.0
C384 C 0.30782 0.57344 0.72823 0.0
C385 C 0.27818 0.57559 0.67625 0.0
C386 C 0.24892 0.56547 0.69433 0.0
C387 C 0.2489 0.5602 0.73047 0.0
C388 C 0.27864 0.56397 0.74769 0.0
Zn389 Zn 0.34627 0.60169 0.66408 0.0
O390 O 0.41416 0.59145 0.64179 0.0
C391 C 0.38739 0.6536 0.70688 0.0
O392 O 0.37592 0.56062 0.6724 0.0
H393 H 0.27739 0.58196 0.64894 0.0
H394 H 0.46052 0.63999 0.62929 0.0
H395 H 0.33081 0.57728 0.74139 0.0
O396 O 0.40117 0.6613 0.67709 0.0
O397 O 0.36429 0.62921 0.7084 0.0
H398 H 0.38695 0.66838 0.56454 0.0
O399 O 0.31739 0.64315 0.65569 0.0
O400 O 0.35465 0.6704 0.62129 0.0
O401 O 0.3293 0.57381 0.61933 0.0
O402 O 0.36849 0.59889 0.5856 0.0
C403 C 0.32663 0.66902 0.63703 0.0
H404 H 0.50255 0.6512 0.58173 0.0
H405 H 0.42744 0.6825 0.51703 0.0
H406 H 0.2262 0.56333 0.68052 0.0
H407 H 0.27918 0.56034 0.77579 0.0
C408 C 0.28737 0.38785 0.55068 0.0
C409 C 0.27376 0.37707 0.51838 0.0
C410 C 0.30519 0.4207 0.55494 0.0
C411 C 0.3092 0.4431 0.52616 0.0
C412 C 0.29833 0.43066 0.49254 0.0
C413 C 0.28041 0.3978 0.48912 0.0
C414 C 0.31676 0.43279 0.59116 0.0
C415 C 0.30282 0.45328 0.46104 0.0
C416 C 0.30253 0.53623 0.5593 0.0
C417 C 0.3355 0.54875 0.56231 0.0
C418 C 0.29368 0.5027 0.54472 0.0
C419 C 0.31851 0.48106 0.53322 0.0
C420 C 0.35183 0.49486 0.53302 0.0
C421 C 0.35998 0.5288 0.54754 0.0
C422 C 0.25778 0.48932 0.54497 0.0
C423 C 0.37906 0.47288 0.52074 0.0
H424 H 0.28188 0.3718 0.57328 0.0
H425 H 0.2696 0.38934 0.46417 0.0
H426 H 0.34232 0.44517 0.58934 0.0
H427 H 0.30107 0.4527 0.60283 0.0
H428 H 0.31562 0.41094 0.60934 0.0
H429 H 0.29934 0.43763 0.43582 0.0
H430 H 0.28455 0.47281 0.46323 0.0
H431 H 0.32757 0.46778 0.46016 0.0
H432 H 0.28368 0.55165 0.57099 0.0
H433 H 0.38555 0.53825 0.55045 0.0
H434 H 0.25271 0.46915 0.5649 0.0
H435 H 0.25131 0.47689 0.51886 0.0
H436 H 0.24157 0.51045 0.55148 0.0
H437 H 0.38451 0.45638 0.54247 0.0
H438 H 0.40188 0.48938 0.51346 0.0
H439 H 0.37189 0.45526 0.49774 0.0
C440 C 0.74977 0.03783 0.71307 0.0
C441 C 0.73334 0.00553 0.70233 0.0
C442 C 0.78406 0.04291 0.71233 0.0
C443 C 0.80243 0.01497 0.70077 0.0
C444 C 0.78613 0.9835 0.68668 0.0
C445 C 0.75171 0.97913 0.68766 0.0
C446 C 0.8 0.07705 0.72748 0.0
C447 C 0.80492 0.95326 0.6735 0.0
C448 C 0.89541 0.02417 0.6901 0.0
C449 C 0.90375 0.00958 0.72114 0.0
C450 C 0.86246 0.0276 0.68355 0.0
C451 C 0.83765 0.01623 0.70875 0.0
C452 C 0.84636 0.00383 0.74122 0.0
C453 C 0.87935 0.00034 0.74686 0.0
C454 C 0.85403 0.04182 0.64914 0.0
C455 C 0.8207 0.99263 0.76932 0.0
H456 H 0.73602 0.05841 0.72495 0.0
H457 H 0.73921 0.95431 0.67888 0.0
H458 H 0.79952 0.07607 0.75671 0.0
H459 H 0.82581 0.08255 0.71775 0.0
H460 H 0.78607 0.09904 0.72097 0.0
H461 H 0.78921 0.93269 0.65898 0.0
H462 H 0.82601 0.96238 0.65583 0.0
H463 H 0.81488 0.94145 0.69632 0.0
H464 H 0.91444 0.03094 0.67012 0.0
H465 H 0.88602 0.98895 0.77077 0.0
H466 H 0.83772 0.06305 0.65426 0.0
H467 H 0.84046 0.02088 0.63293 0.0
H468 H 0.87622 0.0521 0.63362 0.0
H469 H 0.80504 0.0141 0.77631 0.0
H470 H 0.83172 0.98523 0.79374 0.0
H471 H 0.80456 0.96991 0.75903 0.0
C472 C 0.31772 0.71498 0.0377 0.0
C473 C 0.2961 0.73988 0.0315 0.0
C474 C 0.30609 0.68163 0.04844 0.0
C475 C 0.27196 0.673 0.05379 0.0
C476 C 0.24987 0.69772 0.04699 0.0
C477 C 0.26222 0.73086 0.03561 0.0
C478 C 0.3305 0.65602 0.05522 0.0
C479 C 0.21333 0.68965 0.05305 0.0
C480 C 0.24388 0.57702 0.06746 0.0
C481 C 0.2446 0.57627 0.10431 0.0
C482 C 0.25205 0.60855 0.05035 0.0
C483 C 0.26012 0.63988 0.07078 0.0
C484 C 0.25946 0.63928 0.10803 0.0
C485 C 0.2521 0.60755 0.12421 0.0
C486 C 0.25288 0.60824 0.01053 0.0
C487 C 0.26717 0.6721 0.13094 0.0
H488 H 0.34394 0.72148 0.03403 0.0
H489 H 0.24539 0.7499 0.03062 0.0
H490 H 0.33036 0.65169 0.08393 0.0
H491 H 0.32357 0.6304 0.0415 0.0
H492 H 0.35587 0.66541 0.04628 0.0
H493 H 0.19931 0.71012 0.0431 0.0
H494 H 0.20497 0.66414 0.03993 0.0
H495 H 0.20741 0.68757 0.08177 0.0
H496 H 0.23764 0.55298 0.05209 0.0
H497 H 0.25171 0.6074 0.15281 0.0
H498 H 0.27837 0.61529 0.00039 0.0
H499 H 0.2376 0.62809 0.00163 0.0
H500 H 0.24403 0.58229 0.99858 0.0
H501 H 0.29315 0.68233 0.1261 0.0
H502 H 0.26313 0.66752 0.15957 0.0
H503 H 0.25171 0.69265 0.1241 0.0
C504 C 0.52451 0.97652 0.23894 0.0
C505 C 0.51082 0.97914 0.27364 0.0
C506 C 0.55615 0.96618 0.23215 0.0
C507 C 0.57501 0.95931 0.26077 0.0
C508 C 0.56081 0.9599 0.29556 0.0
C509 C 0.52878 0.96943 0.30152 0.0
C510 C 0.57001 0.96465 0.19454 0.0
C511 C 0.58009 0.95233 0.3268 0.0
C512 C 0.65471 0.917 0.25275 0.0
C513 C 0.67761 0.94612 0.25799 0.0
C514 C 0.62121 0.92096 0.25094 0.0
C515 C 0.61048 0.95479 0.25511 0.0
C516 C 0.63382 0.98441 0.25761 0.0
C517 C 0.66723 0.97969 0.25884 0.0
C518 C 0.59723 0.88884 0.2469 0.0
C519 C 0.62334 0.02096 0.26171 0.0
H520 H 0.51131 0.98433 0.21703 0.0
H521 H 0.51826 0.97048 0.32826 0.0
H522 H 0.58723 0.98822 0.19012 0.0
H523 H 0.58399 0.94154 0.18936 0.0
H524 H 0.55046 0.96362 0.1751 0.0
H525 H 0.5649 0.95184 0.35184 0.0
H526 H 0.59039 0.92681 0.32228 0.0
H527 H 0.60102 0.97264 0.32992 0.0
H528 H 0.66287 0.89101 0.25187 0.0
H529 H 0.68495 0.00214 0.26314 0.0
H530 H 0.57853 0.89286 0.22768 0.0
H531 H 0.58414 0.88372 0.27266 0.0
H532 H 0.60967 0.86536 0.238 0.0
H533 H 0.60639 0.02535 0.24077 0.0
H534 H 0.64454 0.04121 0.26046 0.0
H535 H 0.60988 0.02436 0.28756 0.0
C536 C 0.75759 0.11965 0.47166 0.0
C537 C 0.7406 0.12175 0.50448 0.0
C538 C 0.77137 0.08898 0.45985 0.0
C539 C 0.76832 0.05985 0.48157 0.0
C540 C 0.75318 0.0627 0.51576 0.0
C541 C 0.73926 0.09357 0.52672 0.0
C542 C 0.78728 0.08699 0.42316 0.0
C543 C 0.75018 0.03258 0.54 0.0
C544 C 0.76435 0.97508 0.42668 0.0
C545 C 0.7973 0.96809 0.42473 0.0
C546 C 0.75412 0.00356 0.4473 0.0
C547 C 0.77742 0.02551 0.46655 0.0
C548 C 0.81006 0.01659 0.46742 0.0
C549 C 0.81966 0.98785 0.44645 0.0
C550 C 0.71898 0.01191 0.44585 0.0
C551 C 0.83556 0.03905 0.48793 0.0
H552 H 0.75853 0.14131 0.45436 0.0
H553 H 0.72656 0.09536 0.55238 0.0
H554 H 0.81138 0.0763 0.42372 0.0
H555 H 0.7716 0.06903 0.40579 0.0
H556 H 0.79093 0.11292 0.41125 0.0
H557 H 0.74229 0.04065 0.56739 0.0
H558 H 0.73187 0.01179 0.52987 0.0
H559 H 0.7739 0.02107 0.5407 0.0
H560 H 0.74691 0.95969 0.41015 0.0
H561 H 0.84522 0.98268 0.44499 0.0
H562 H 0.71814 0.03588 0.43101 0.0
H563 H 0.70844 0.01711 0.47286 0.0
H564 H 0.70327 0.99039 0.43267 0.0
H565 H 0.84397 0.06249 0.47293 0.0
H566 H 0.85725 0.02484 0.49221 0.0
H567 H 0.82521 0.04815 0.51396 0.0
C568 C 0.06085 0.54314 0.74369 0.0
C569 C 0.04485 0.52723 0.77297 0.0
C570 C 0.09489 0.55195 0.74272 0.0
C571 C 0.1133 0.54459 0.77171 0.0
C572 C 0.09695 0.53117 0.80245 0.0
C573 C 0.06297 0.52247 0.80265 0.0
C574 C 0.11142 0.56689 0.70967 0.0
C575 C 0.11535 0.5231 0.83415 0.0
C576 C 0.19831 0.52165 0.74277 0.0
C577 C 0.21704 0.55341 0.74945 0.0
C578 C 0.16474 0.5178 0.75206 0.0
C579 C 0.14962 0.54668 0.76775 0.0
C580 C 0.16897 0.5781 0.77671 0.0
C581 C 0.20264 0.5811 0.7674 0.0
C582 C 0.14507 0.48356 0.74294 0.0
C583 C 0.15376 0.60915 0.794 0.0
H584 H 0.04695 0.54731 0.72091 0.0
H585 H 0.05104 0.50973 0.82529 0.0
H586 H 0.12873 0.58995 0.71651 0.0
H587 H 0.12586 0.54706 0.69569 0.0
H588 H 0.09346 0.57476 0.69126 0.0
H589 H 0.09988 0.52542 0.85884 0.0
H590 H 0.12193 0.4958 0.83098 0.0
H591 H 0.13827 0.54061 0.83715 0.0
H592 H 0.20959 0.50051 0.72845 0.0
H593 H 0.21723 0.60582 0.77193 0.0
H594 H 0.12794 0.4873 0.72195 0.0
H595 H 0.13011 0.47437 0.76639 0.0
H596 H 0.16092 0.4629 0.73346 0.0
H597 H 0.13798 0.61987 0.77506 0.0
H598 H 0.17256 0.63022 0.80265 0.0
H599 H 0.13788 0.60114 0.81725 0.0
C600 C 0.65243 0.91768 0.90987 0.0
C601 C 0.66108 0.92991 0.87618 0.0
C602 C 0.66777 0.89013 0.9229 0.0
C603 C 0.69293 0.87525 0.90209 0.0
C604 C 0.70106 0.88692 0.86769 0.0
C605 C 0.68478 0.91379 0.85503 0.0
C606 C 0.65782 0.87775 0.95932 0.0
C607 C 0.7282 0.87233 0.8449 0.0
C608 C 0.76308 0.84007 0.94592 0.0
C609 C 0.75773 0.80405 0.93769 0.0
C610 C 0.74155 0.86332 0.93553 0.0
C611 C 0.71328 0.85025 0.91731 0.0
C612 C 0.70642 0.81373 0.91103 0.0
C613 C 0.72889 0.79103 0.92103 0.0
C614 C 0.75002 0.90207 0.94253 0.0
C615 C 0.67605 0.79878 0.8925 0.0
H616 H 0.63389 0.92983 0.92619 0.0
H617 H 0.69165 0.92316 0.82899 0.0
H618 H 0.65416 0.8488 0.9588 0.0
H619 H 0.67762 0.88614 0.97773 0.0
H620 H 0.63492 0.88839 0.96995 0.0
H621 H 0.7304 0.88301 0.81813 0.0
H622 H 0.75194 0.87868 0.85779 0.0
H623 H 0.7239 0.84348 0.842 0.0
H624 H 0.78465 0.85034 0.95991 0.0
H625 H 0.72442 0.76327 0.91466 0.0
H626 H 0.72932 0.91379 0.95695 0.0
H627 H 0.75432 0.91507 0.91705 0.0
H628 H 0.77228 0.90787 0.95821 0.0
H629 H 0.65416 0.81069 0.90407 0.0
H630 H 0.67184 0.76997 0.89418 0.0
H631 H 0.67852 0.80499 0.86421 0.0
C632 C 0.51864 0.54299 0.26051 0.0
C633 C 0.53447 0.56648 0.23673 0.0
C634 C 0.48424 0.53681 0.26258 0.0
C635 C 0.46529 0.55387 0.23972 0.0
C636 C 0.48131 0.5761 0.21433 0.0
C637 C 0.51565 0.5825 0.21348 0.0
C638 C 0.46813 0.51342 0.29042 0.0
C639 C 0.46213 0.59402 0.18879 0.0
C640 C 0.37658 0.51866 0.22637 0.0
C641 C 0.35939 0.54291 0.24672 0.0
C642 C 0.41099 0.52174 0.22402 0.0
C643 C 0.42872 0.54943 0.24301 0.0
C644 C 0.41144 0.57358 0.26429 0.0
C645 C 0.37692 0.57032 0.26548 0.0
C646 C 0.42832 0.49595 0.20039 0.0
C647 C 0.42944 0.60303 0.28555 0.0
H648 H 0.53301 0.53097 0.27894 0.0
H649 H 0.52779 0.60072 0.1951 0.0
H650 H 0.45357 0.52899 0.30965 0.0
H651 H 0.45091 0.49275 0.27822 0.0
H652 H 0.4863 0.50082 0.30503 0.0
H653 H 0.47832 0.60814 0.16882 0.0
H654 H 0.44484 0.57464 0.17482 0.0
H655 H 0.4473 0.61305 0.20349 0.0
H656 H 0.363 0.49785 0.21129 0.0
H657 H 0.36361 0.58909 0.28114 0.0
H658 H 0.44547 0.48283 0.21581 0.0
H659 H 0.44315 0.50993 0.17935 0.0
H660 H 0.41093 0.47565 0.18773 0.0
H661 H 0.44696 0.59253 0.30272 0.0
H662 H 0.41248 0.61825 0.30239 0.0
H663 H 0.44392 0.62101 0.26752 0.0
C664 C 0.46502 0.14807 0.37357 0.0
C665 C 0.46581 0.1668 0.3427 0.0
C666 C 0.48304 0.16076 0.40281 0.0
C667 C 0.50305 0.19272 0.40104 0.0
C668 C 0.50333 0.21232 0.37028 0.0
C669 C 0.48434 0.19929 0.34155 0.0
C670 C 0.48139 0.13932 0.43523 0.0
C671 C 0.52472 0.24628 0.36718 0.0
C672 C 0.53602 0.23541 0.48699 0.0
C673 C 0.56712 0.22308 0.48711 0.0
C674 C 0.51489 0.22592 0.45914 0.0
C675 C 0.52531 0.20407 0.43041 0.0
C676 C 0.55664 0.19151 0.43048 0.0
C677 C 0.57698 0.20088 0.45889 0.0
C678 C 0.48142 0.23923 0.46045 0.0
C679 C 0.56885 0.16836 0.40032 0.0
H680 H 0.45035 0.12313 0.37482 0.0
H681 H 0.48505 0.21379 0.31772 0.0
H682 H 0.5055 0.12935 0.43848 0.0
H683 H 0.47593 0.15577 0.45926 0.0
H684 H 0.46243 0.1167 0.43362 0.0
H685 H 0.5207 0.25942 0.34256 0.0
H686 H 0.51991 0.26431 0.39019 0.0
H687 H 0.5509 0.24124 0.36735 0.0
H688 H 0.52825 0.25269 0.50858 0.0
H689 H 0.60108 0.19152 0.45846 0.0
H690 H 0.46217 0.21689 0.45962 0.0
H691 H 0.47877 0.25458 0.43697 0.0
H692 H 0.47695 0.25591 0.48464 0.0
H693 H 0.55267 0.14358 0.39825 0.0
H694 H 0.59435 0.16199 0.40364 0.0
H695 H 0.56803 0.18136 0.37497 0.0
C696 C 0.08868 0.30396 0.5903 0.0
C697 C 0.07304 0.29333 0.55883 0.0
C698 C 0.0706 0.31091 0.62172 0.0
C699 C 0.03596 0.30794 0.62166 0.0
C700 C 0.01993 0.2974 0.58999 0.0
C701 C 0.03868 0.28986 0.55899 0.0
C702 C 0.08866 0.32178 0.65494 0.0
C703 C 0.98304 0.29476 0.58871 0.0
C704 C 0.98817 0.3076 0.71064 0.0
C705 C 0.98372 0.34313 0.71623 0.0
C706 C 0.00498 0.29549 0.6798 0.0
C707 C 0.01691 0.31939 0.65386 0.0
C708 C 0.01202 0.35509 0.65926 0.0
C709 C 0.99586 0.36649 0.69036 0.0
C710 C 0.01032 0.2573 0.67513 0.0
C711 C 0.02396 0.38146 0.6322 0.0
H712 H 0.11522 0.30615 0.59065 0.0
H713 H 0.02645 0.28138 0.53486 0.0
H714 H 0.08459 0.34913 0.66317 0.0
H715 H 0.07906 0.30515 0.67686 0.0
H716 H 0.11549 0.31997 0.65127 0.0
H717 H 0.97427 0.28468 0.5625 0.0
H718 H 0.97173 0.27731 0.60921 0.0
H719 H 0.97429 0.32089 0.59462 0.0
H720 H 0.97877 0.28941 0.73039 0.0
H721 H 0.99234 0.39397 0.69404 0.0
H722 H 0.037 0.25432 0.67302 0.0
H723 H -0.00028 0.24607 0.65019 0.0
H724 H -0.00084 0.242 0.69742 0.0
H725 H 0.05109 0.38315 0.62912 0.0
H726 H 0.01663 0.40796 0.63963 0.0
H727 H 0.01407 0.37305 0.60605 0.0
C728 C 0.03564 0.82432 0.77744 0.0
C729 C 0.02568 0.85813 0.77769 0.0
C730 C 0.02396 0.80135 0.80398 0.0
C731 C 0.00264 0.81294 0.83173 0.0
C732 C 0.99359 0.8475 0.83263 0.0
C733 C 0.00486 0.86943 0.80546 0.0
C734 C 0.03379 0.76455 0.80193 0.0
C735 C 0.9716 0.86131 0.86213 0.0
C736 C 0.93927 0.75393 0.8815 0.0
C737 C 0.95338 0.75282 0.91435 0.0
C738 C 0.95615 0.77128 0.85354 0.0
C739 C 0.98769 0.78871 0.85872 0.0
C740 C 0.0027 0.78646 0.89138 0.0
C741 C 0.98545 0.76816 0.91876 0.0
C742 C 0.93942 0.77254 0.81904 0.0
C743 C 0.03603 0.80521 0.89819 0.0
H744 H 0.05201 0.81566 0.75622 0.0
H745 H 0.99772 0.89585 0.80633 0.0
H746 H 0.04462 0.75873 0.82698 0.0
H747 H 0.01174 0.74579 0.79842 0.0
H748 H 0.05175 0.76008 0.7797 0.0
H749 H 0.96877 0.88954 0.86022 0.0
H750 H 0.94693 0.84668 0.86145 0.0
H751 H 0.98165 0.8574 0.88814 0.0
H752 H 0.91464 0.74169 0.8778 0.0
H753 H 0.99641 0.76738 0.94414 0.0
H754 H 0.95633 0.76628 0.79641 0.0
H755 H 0.93248 0.79932 0.81594 0.0
H756 H 0.9169 0.75406 0.81769 0.0
H757 H 0.05357 0.80048 0.87568 0.0
H758 H 0.0462 0.79699 0.92276 0.0
H759 H 0.03405 0.83376 0.90081 0.0
C760 C 0.61816 0.78089 0.15103 0.0
C761 C 0.6069 0.77395 0.18565 0.0
C762 C 0.60119 0.80167 0.13044 0.0
C763 C 0.57229 0.81498 0.14495 0.0
C764 C 0.565 0.8138 0.18176 0.0
C765 C 0.58247 0.79298 0.20189 0.0
C766 C 0.61086 0.80411 0.09172 0.0
C767 C 0.53539 0.82943 0.19855 0.0
C768 C 0.51274 0.85164 0.08581 0.0
C769 C 0.49164 0.82157 0.07829 0.0
C770 C 0.53956 0.85028 0.10733 0.0
C771 C 0.54516 0.81802 0.12116 0.0
C772 C 0.52425 0.78746 0.11259 0.0
C773 C 0.4977 0.78974 0.09141 0.0
C774 C 0.56079 0.88352 0.11623 0.0
C775 C 0.52943 0.75226 0.12625 0.0
H776 H 0.63776 0.76685 0.13885 0.0
H777 H 0.57423 0.78818 0.22895 0.0
H778 H 0.59627 0.78324 0.07638 0.0
H779 H 0.60579 0.82965 0.08198 0.0
H780 H 0.63726 0.80059 0.08659 0.0
H781 H 0.53693 0.83272 0.22773 0.0
H782 H 0.53274 0.85515 0.1877 0.0
H783 H 0.51301 0.81189 0.19258 0.0
H784 H 0.50763 0.87635 0.07583 0.0
H785 H 0.48131 0.76659 0.0853 0.0
H786 H 0.58665 0.87859 0.11955 0.0
H787 H 0.5514 0.89539 0.14151 0.0
H788 H 0.56009 0.90282 0.09555 0.0
H789 H 0.5542 0.74496 0.11775 0.0
H790 H 0.51106 0.73121 0.11664 0.0
H791 H 0.52779 0.75346 0.15557 0.0
C792 C 0.16324 0.34406 0.38985 0.0
C793 C 0.13294 0.32547 0.39811 0.0
C794 C 0.16788 0.36369 0.35955 0.0
C795 C 0.14133 0.3656 0.33735 0.0
C796 C 0.11036 0.34783 0.34614 0.0
C797 C 0.10665 0.32758 0.37618 0.0
C798 C 0.20146 0.38176 0.35088 0.0
C799 C 0.08125 0.35005 0.32372 0.0
C800 C 0.15324 0.44357 0.27939 0.0
C801 C 0.16414 0.42841 0.24713 0.0
C802 C 0.14368 0.42307 0.3083 0.0
C803 C 0.14621 0.38664 0.30525 0.0
C804 C 0.15622 0.37103 0.27228 0.0
C805 C 0.16464 0.39213 0.24337 0.0
C806 C 0.13229 0.44067 0.34258 0.0
C807 C 0.16003 0.33244 0.26814 0.0
H808 H 0.1838 0.34223 0.40641 0.0
H809 H 0.08318 0.31325 0.38241 0.0
H810 H 0.21034 0.37259 0.32424 0.0
H811 H 0.20014 0.41034 0.35025 0.0
H812 H 0.21973 0.3769 0.37035 0.0
H813 H 0.05853 0.33588 0.33495 0.0
H814 H 0.07691 0.37778 0.32117 0.0
H815 H 0.08631 0.33888 0.29669 0.0
H816 H 0.15282 0.47169 0.2822 0.0
H817 H 0.1735 0.38053 0.21851 0.0
H818 H 0.15118 0.44025 0.36252 0.0
H819 H 0.10943 0.4264 0.35324 0.0
H820 H 0.12774 0.46827 0.3393 0.0
H821 H 0.18022 0.3262 0.28454 0.0
H822 H 0.16566 0.32394 0.24026 0.0
H823 H 0.13735 0.31707 0.2777 0.0
C824 C 0.05338 0.88591 0.58733 0.0
C825 C 0.03117 0.89909 0.61273 0.0
C826 C 0.0451 0.88012 0.55188 0.0
C827 C 0.01385 0.88752 0.54181 0.0
C828 C 0.9908 0.89924 0.56766 0.0
C829 C -0.00021 0.90497 0.6028 0.0
C830 C 0.07025 0.8676 0.52505 0.0
C831 C 0.95698 0.90691 0.55801 0.0
C832 C 0.99294 0.91467 0.45217 0.0
C833 C 0.97277 0.88525 0.44064 0.0
C834 C 0.00932 0.9147 0.48382 0.0
C835 C 0.0052 0.88462 0.50416 0.0
C836 C 0.98793 0.85364 0.49051 0.0
C837 C 0.97196 0.85431 0.45875 0.0
C838 C 0.0281 0.94806 0.49723 0.0
C839 C 0.98331 0.82091 0.51115 0.0
H840 H 0.07775 0.88137 0.59482 0.0
H841 H 0.98248 0.91496 0.62234 0.0
H842 H 0.05921 0.8457 0.508 0.0
H843 H 0.07902 0.88912 0.50759 0.0
H844 H 0.09173 0.85891 0.53775 0.0
H845 H 0.94149 0.91422 0.58154 0.0
H846 H 0.95903 0.92869 0.53974 0.0
H847 H 0.94434 0.88376 0.54404 0.0
H848 H 0.99358 0.93863 0.43823 0.0
H849 H 0.9567 0.83137 0.44948 0.0
H850 H 0.0515 0.94256 0.50836 0.0
H851 H 0.01336 0.96053 0.51875 0.0
H852 H 0.03356 0.96692 0.47605 0.0
H853 H 0.00646 0.81594 0.52317 0.0
H854 H 0.97474 0.79766 0.49431 0.0
H855 H 0.96473 0.82426 0.53299 0.0
C856 C 0.40431 0.71039 0.73888 0.0
C857 C 0.395 0.67447 0.73961 0.0
C858 C 0.40328 0.73164 0.77011 0.0
C859 C 0.39285 0.71635 0.80244 0.0
C860 C 0.3864 0.67968 0.80359 0.0
C861 C 0.38753 0.6592 0.77213 0.0
C862 C 0.41068 0.77065 0.76799 0.0
C863 C 0.37546 0.66227 0.83754 0.0
C864 C 0.39743 0.76561 0.89157 0.0
C865 C 0.36508 0.77436 0.89711 0.0
C866 C 0.40731 0.74785 0.86024 0.0
C867 C 0.38423 0.73849 0.83402 0.0
C868 C 0.35172 0.74783 0.83918 0.0
C869 C 0.34256 0.76568 0.87064 0.0
C870 C 0.4422 0.73849 0.85548 0.0
C871 C 0.32635 0.73823 0.81179 0.0
H872 H 0.41001 0.72223 0.71373 0.0
H873 H 0.38069 0.6313 0.77274 0.0
H874 H 0.38735 0.78313 0.76981 0.0
H875 H 0.42557 0.78162 0.79034 0.0
H876 H 0.42394 0.77772 0.74276 0.0
H877 H 0.37528 0.6334 0.83469 0.0
H878 H 0.3917 0.67206 0.85918 0.0
H879 H 0.35029 0.6687 0.84555 0.0
H880 H 0.4151 0.77258 0.91175 0.0
H881 H 0.31761 0.77261 0.87459 0.0
H882 H 0.45317 0.74738 0.8298 0.0
H883 H 0.44251 0.7097 0.855 0.0
H884 H 0.45782 0.75022 0.877 0.0
H885 H 0.33541 0.74815 0.78582 0.0
H886 H 0.30262 0.7489 0.81914 0.0
H887 H 0.32191 0.70938 0.80844 0.0
C888 C 0.49745 0.1382 0.15791 0.0
C889 C 0.49135 0.11369 0.18409 0.0
C890 C 0.51719 0.13121 0.12768 0.0
C891 C 0.53134 0.09907 0.12371 0.0
C892 C 0.52751 0.07555 0.1514 0.0
C893 C 0.5074 0.08306 0.18122 0.0
C894 C 0.52083 0.15709 0.09883 0.0
C895 C 0.5426 0.04126 0.14861 0.0
C896 C 0.53911 0.06251 0.02942 0.0
C897 C 0.57232 0.07161 0.02063 0.0
C898 C 0.52576 0.07063 0.06315 0.0
C899 C 0.54613 0.08824 0.08884 0.0
C900 C 0.5799 0.09663 0.08055 0.0
C901 C 0.59264 0.0882 0.04646 0.0
C902 C 0.48966 0.06089 0.07108 0.0
C903 C 0.60237 0.11504 0.10745 0.0
H904 H 0.48534 0.16206 0.16002 0.0
H905 H 0.50309 0.0641 0.20151 0.0
H906 H 0.54687 0.16183 0.08959 0.0
H907 H 0.50672 0.14621 0.07585 0.0
H908 H 0.51173 0.18248 0.1077 0.0
H909 H 0.5442 0.03054 0.17503 0.0
H910 H 0.52715 0.02206 0.13225 0.0
H911 H 0.56751 0.04415 0.13575 0.0
H912 H 0.52348 0.04898 0.00981 0.0
H913 H 0.61831 0.09536 0.03976 0.0
H914 H 0.47718 0.0848 0.07786 0.0
H915 H 0.48631 0.0443 0.09428 0.0
H916 H 0.47739 0.04656 0.0484 0.0
H917 H 0.59466 0.14143 0.11448 0.0
H918 H 0.62837 0.11782 0.09754 0.0
H919 H 0.60061 0.10049 0.13208 0.0
C920 C 0.59046 0.22424 0.67381 0.0
C921 C 0.6115 0.21114 0.64712 0.0
C922 C 0.58454 0.20756 0.70588 0.0
C923 C 0.60003 0.17715 0.71127 0.0
C924 C 0.62113 0.16372 0.68435 0.0
C925 C 0.62654 0.18084 0.65261 0.0
C926 C 0.56187 0.22248 0.73399 0.0
C927 C 0.6381 0.13122 0.68905 0.0
C928 C 0.61552 0.13985 0.79837 0.0
C929 C 0.59418 0.10925 0.79656 0.0
C930 C 0.61567 0.1645 0.77231 0.0
C931 C 0.59371 0.15821 0.74439 0.0
C932 C 0.56948 0.12944 0.7452 0.0
C933 C 0.57023 0.10508 0.77119 0.0
C934 C 0.64181 0.19491 0.77244 0.0
C935 C 0.5453 0.12204 0.71631 0.0
H936 H 0.57886 0.24776 0.66983 0.0
H937 H 0.6429 0.17061 0.6322 0.0
H938 H 0.54122 0.20273 0.74048 0.0
H939 H 0.57521 0.22908 0.7586 0.0
H940 H 0.55171 0.24632 0.72564 0.0
H941 H 0.65416 0.12457 0.66576 0.0
H942 H 0.65326 0.13485 0.71268 0.0
H943 H 0.6196 0.10868 0.69347 0.0
H944 H 0.63431 0.14274 0.8178 0.0
H945 H 0.55379 0.08124 0.76993 0.0
H946 H 0.63194 0.21892 0.76427 0.0
H947 H 0.66198 0.18892 0.75322 0.0
H948 H 0.65228 0.20011 0.79892 0.0
H949 H 0.53531 0.14635 0.70913 0.0
H950 H 0.52458 0.10285 0.72421 0.0
H951 H 0.55797 0.11116 0.69232 0.0
C952 C 0.10773 0.40952 0.99771 0.0
C953 C 0.09693 0.43092 0.02609 0.0
C954 C 0.08843 0.40129 0.96813 0.0
C955 C 0.05739 0.41438 0.96709 0.0
C956 C 0.04608 0.43536 0.99605 0.0
C957 C 0.06603 0.44353 0.02504 0.0
C958 C 0.10156 0.3792 0.93765 0.0
C959 C 0.01298 0.4495 0.99628 0.0
C960 C 0.01789 0.42367 0.87947 0.0
C961 C 0.99476 0.39432 0.8781 0.0
C962 C 0.03902 0.42999 0.90775 0.0
C963 C 0.03679 0.40661 0.93561 0.0
C964 C 0.0139 0.3766 0.93406 0.0
C965 C 0.99332 0.37072 0.90527 0.0
C966 C 0.06334 0.46205 0.90807 0.0
C967 C 0.01047 0.35122 0.96335 0.0
H968 H 0.13173 0.40004 0.99818 0.0
H969 H 0.05741 0.45982 0.04703 0.0
H970 H 0.08417 0.35582 0.93229 0.0
H971 H 0.10395 0.39429 0.91337 0.0
H972 H 0.12587 0.37049 0.9428 0.0
H973 H 0.00736 0.46451 0.02127 0.0
H974 H 0.01215 0.46682 0.97392 0.0
H975 H 0.99346 0.42772 0.99262 0.0
H976 H 0.0193 0.44201 0.85856 0.0
H977 H 0.97546 0.34804 0.90456 0.0
H978 H 0.08855 0.45441 0.91011 0.0
H979 H 0.05819 0.47941 0.93153 0.0
H980 H 0.06252 0.47707 0.88397 0.0
H981 H 0.03448 0.34151 0.96768 0.0
H982 H 0.99238 0.32848 0.95758 0.0
H983 H 0.00255 0.36471 0.98841 0.0
C984 C 0.87919 0.84682 0.23065 0.0
C985 C 0.87599 0.88258 0.23505 0.0
C986 C 0.88657 0.83171 0.19716 0.0
C987 C 0.89211 0.85328 0.16786 0.0
C988 C 0.89098 0.88983 0.1728 0.0
C989 C 0.8821 0.90399 0.20631 0.0
C990 C 0.88644 0.79249 0.19282 0.0
C991 C 0.89803 0.91377 0.14252 0.0
C992 C 0.92858 0.8062 0.08743 0.0
C993 C 0.90042 0.79577 0.06857 0.0
C994 C 0.92676 0.82737 0.1186 0.0
C995 C 0.89585 0.83697 0.13175 0.0
C996 C 0.86766 0.82783 0.11185 0.0
C997 C 0.87043 0.80787 0.08012 0.0
C998 C 0.95755 0.83788 0.13835 0.0
C999 C 0.83408 0.8367 0.12539 0.0
H1000 H 0.87404 0.8304 0.25303 0.0
H1001 H 0.87963 0.93174 0.21004 0.0
H1002 H 0.8668 0.78188 0.17496 0.0
H1003 H 0.91007 0.7854 0.18045 0.0
H1004 H 0.8823 0.7796 0.21841 0.0
H1005 H 0.90111 0.94169 0.1518 0.0
H1006 H 0.92058 0.90736 0.12723 0.0
H1007 H 0.87753 0.91013 0.12422 0.0
H1008 H 0.95181 0.79691 0.07841 0.0
H1009 H 0.84856 0.7995 0.06576 0.0
H1010 H 0.95757 0.82217 0.16205 0.0
H1011 H 0.95856 0.86577 0.14757 0.0
H1012 H 0.98001 0.83372 0.12174 0.0
H1013 H 0.82713 0.82292 0.15003 0.0
H1014 H 0.81494 0.8291 0.10591 0.0
H1015 H 0.83429 0.86509 0.13199 0.0
C1016 C 0.52412 0.67848 0.51521 0.0
C1017 C 0.49087 0.66616 0.51349 0.0
C1018 C 0.54573 0.67506 0.48561 0.0
C1019 C 0.53373 0.6588 0.45381 0.0
C1020 C 0.50012 0.64686 0.45182 0.0
C1021 C 0.4792 0.65057 0.48166 0.0
C1022 C 0.58145 0.68816 0.48852 0.0
C1023 C 0.48636 0.62919 0.41844 0.0
C1024 C 0.57697 0.66794 0.3639 0.0
C1025 C 0.58951 0.63537 0.35855 0.0
C1026 C 0.56034 0.67686 0.39575 0.0
C1027 C 0.55617 0.65262 0.42277 0.0
C1028 C 0.57019 0.62045 0.41819 0.0
C1029 C 0.5867 0.61221 0.38612 0.0
C1030 C 0.54578 0.71144 0.39974 0.0
C1031 C 0.56625 0.59391 0.44643 0.0
H1032 H 0.53323 0.69061 0.53971 0.0
H1033 H 0.45374 0.64015 0.48032 0.0
H1034 H 0.59671 0.66587 0.48512 0.0
H1035 H 0.58924 0.70619 0.46716 0.0
H1036 H 0.58651 0.70195 0.51443 0.0
H1037 H 0.45939 0.62266 0.42088 0.0
H1038 H 0.49196 0.64631 0.39586 0.0
H1039 H 0.49806 0.60472 0.41199 0.0
H1040 H 0.57932 0.68613 0.34284 0.0
H1041 H 0.59661 0.58714 0.38233 0.0
H1042 H 0.55182 0.72482 0.42556 0.0
H1043 H 0.51866 0.7069 0.3992 0.0
H1044 H 0.55462 0.72905 0.37829 0.0
H1045 H 0.573 0.6064 0.47243 0.0
H1046 H 0.58151 0.57189 0.44031 0.0
H1047 H 0.54018 0.58317 0.44898 0.0
C1048 C 0.23032 0.21091 0.40461 0.0
C1049 C 0.19784 0.19694 0.41058 0.0
C1050 C 0.25356 0.1908 0.38772 0.0
C1051 C 0.24421 0.15561 0.377 0.0
C1052 C 0.21143 0.14124 0.383 0.0
C1053 C 0.18846 0.16225 0.3995 0.0
C1054 C 0.2881 0.20742 0.38106 0.0
C1055 C 0.2008 0.1037 0.37229 0.0
C1056 C 0.30056 0.12741 0.30252 0.0
C1057 C 0.32502 0.11394 0.3209 0.0
C1058 C 0.2724 0.13821 0.32014 0.0
C1059 C 0.26854 0.13528 0.35712 0.0
C1060 C 0.29152 0.11833 0.37529 0.0
C1061 C 0.31974 0.10779 0.35684 0.0
C1062 C 0.24864 0.15611 0.29966 0.0
C1063 C 0.28778 0.11417 0.41464 0.0
H1064 H 0.23761 0.23772 0.41322 0.0
H1065 H 0.16344 0.15124 0.40468 0.0
H1066 H 0.30584 0.19243 0.39358 0.0
H1067 H 0.2943 0.20686 0.35224 0.0
H1068 H 0.2914 0.23496 0.39152 0.0
H1069 H 0.17459 0.09628 0.37958 0.0
H1070 H 0.20465 0.09924 0.34333 0.0
H1071 H 0.21603 0.08613 0.38516 0.0
H1072 H 0.3044 0.13147 0.27447 0.0
H1073 H 0.33862 0.09719 0.37096 0.0
H1074 H 0.25193 0.18465 0.30604 0.0
H1075 H 0.22293 0.14683 0.30715 0.0
H1076 H 0.25256 0.15169 0.27065 0.0
H1077 H 0.29476 0.13965 0.42861 0.0
H1078 H 0.30365 0.09477 0.42344 0.0
H1079 H 0.26192 0.10597 0.42262 0.0
C1080 C 0.11979 0.13928 0.5383 0.0
C1081 C 0.13856 0.17064 0.54736 0.0
C1082 C 0.11703 0.11112 0.56043 0.0
C1083 C 0.13333 0.1143 0.59265 0.0
C1084 C 0.15351 0.14528 0.60135 0.0
C1085 C 0.15598 0.17318 0.57848 0.0
C1086 C 0.0954 0.07851 0.54996 0.0
C1087 C 0.17132 0.1495 0.63546 0.0
C1088 C 0.08812 0.05788 0.66124 0.0
C1089 C 0.10506 0.02786 0.65822 0.0
C1090 C 0.09842 0.08711 0.64167 0.0
C1091 C 0.12631 0.08634 0.61832 0.0
C1092 C 0.14455 0.05685 0.61646 0.0
C1093 C 0.13372 0.0279 0.63651 0.0
C1094 C 0.07828 0.11804 0.64452 0.0
C1095 C 0.17444 0.05511 0.59189 0.0
H1096 H 0.10665 0.13685 0.514 0.0
H1097 H 0.17063 0.19728 0.58552 0.0
H1098 H 0.10893 0.05508 0.5513 0.0
H1099 H 0.07383 0.07541 0.56873 0.0
H1100 H 0.08643 0.07926 0.52284 0.0
H1101 H 0.18906 0.17321 0.63634 0.0
H1102 H 0.15327 0.15151 0.65804 0.0
H1103 H 0.18463 0.1263 0.63915 0.0
H1104 H 0.06619 0.05831 0.67832 0.0
H1105 H 0.14707 0.00488 0.63422 0.0
H1106 H 0.06572 0.11979 0.61946 0.0
H1107 H 0.09433 0.14267 0.64869 0.0
H1108 H 0.05939 0.11606 0.66649 0.0
H1109 H 0.16674 0.05204 0.56415 0.0
H1110 H 0.18851 0.03284 0.59721 0.0
H1111 H 0.19086 0.07969 0.59433 0.0
C1112 C 0.13126 0.9817 0.81618 0.0
C1113 C 0.09798 0.9728 0.81073 0.0
C1114 C 0.14561 0.97059 0.84584 0.0
C1115 C 0.12607 0.9496 0.86988 0.0
C1116 C 0.09159 0.94546 0.86732 0.0
C1117 C 0.07778 0.95748 0.83763 0.0
C1118 C 0.18239 0.97657 0.84818 0.0
C1119 C 0.0698 0.92395 0.8928 0.0
C1120 C 0.17293 0.87398 0.88888 0.0
C1121 C 0.18687 0.88558 0.92082 0.0
C1122 C 0.15067 0.8933 0.8735 0.0
C1123 C 0.14247 0.92518 0.89047 0.0
C1124 C 0.15427 0.93543 0.92424 0.0
C1125 C 0.17649 0.91544 0.93908 0.0
C1126 C 0.13796 0.8809 0.83775 0.0
C1127 C 0.14557 0.96876 0.94349 0.0
H1128 H 0.14672 0.99372 0.79528 0.0
H1129 H 0.05196 0.95051 0.83327 0.0
H1130 H 0.18931 0.9827 0.87589 0.0
H1131 H 0.1935 0.95242 0.8388 0.0
H1132 H 0.19301 0.9982 0.83164 0.0
H1133 H 0.04431 0.93156 0.89376 0.0
H1134 H 0.06897 0.89599 0.88386 0.0
H1135 H 0.07927 0.92665 0.91983 0.0
H1136 H 0.18059 0.85053 0.87515 0.0
H1137 H 0.1873 0.92442 0.96388 0.0
H1138 H 0.14852 0.89896 0.8174 0.0
H1139 H 0.11091 0.88087 0.83797 0.0
H1140 H 0.14442 0.85418 0.82975 0.0
H1141 H 0.16193 0.99104 0.93341 0.0
H1142 H 0.14881 0.96799 0.97236 0.0
H1143 H 0.11992 0.97375 0.93907 0.0
C1144 C 0.33055 0.03317 0.19359 0.0
C1145 C 0.35543 0.05796 0.18191 0.0
C1146 C 0.31805 0.00583 0.17082 0.0
C1147 C 0.33155 0.00279 0.13592 0.0
C1148 C 0.35466 0.02957 0.12315 0.0
C1149 C 0.36618 0.05718 0.14637 0.0
C1150 C 0.29284 0.97838 0.18523 0.0
C1151 C 0.3698 0.02717 0.08616 0.0
C1152 C 0.3448 0.91188 0.09907 0.0
C1153 C 0.32161 0.90655 0.07283 0.0
C1154 C 0.34764 0.94279 0.12023 0.0
C1155 C 0.32644 0.96891 0.11543 0.0
C1156 C 0.30156 0.96283 0.0906 0.0
C1157 C 0.2995 0.9317 0.06942 0.0
C1158 C 0.37443 0.94811 0.14661 0.0
C1159 C 0.27813 0.98979 0.08529 0.0
H1160 H 0.32227 0.034 0.2212 0.0
H1161 H 0.38569 0.07624 0.13758 0.0
H1162 H 0.27419 0.96997 0.16548 0.0
H1163 H 0.3051 0.95507 0.19126 0.0
H1164 H 0.28023 0.98797 0.20989 0.0
H1165 H 0.38349 0.05222 0.07868 0.0
H1166 H 0.38712 0.00666 0.08446 0.0
H1167 H 0.35072 0.01959 0.06669 0.0
H1168 H 0.36188 0.89255 0.10203 0.0
H1169 H 0.28152 0.9278 0.04917 0.0
H1170 H 0.36378 0.95378 0.17347 0.0
H1171 H 0.39179 0.97092 0.13968 0.0
H1172 H 0.38847 0.92493 0.14747 0.0
H1173 H 0.26797 -0.00029 0.1111 0.0
H1174 H 0.2575 0.97919 0.06869 0.0
H1175 H 0.29147 0.01238 0.07216 0.0
C1176 C 0.8493 0.39743 0.69242 0.0
C1177 C 0.84983 0.38062 0.7243 0.0
C1178 C 0.82355 0.38879 0.66917 0.0
C1179 C 0.79787 0.36294 0.67822 0.0
C1180 C 0.79778 0.34702 0.71099 0.0
C1181 C 0.82363 0.35603 0.73349 0.0
C1182 C 0.82436 0.4064 0.63448 0.0
C1183 C 0.77091 0.31944 0.72188 0.0
C1184 C 0.71537 0.34872 0.63538 0.0
C1185 C 0.71921 0.31864 0.61364 0.0
C1186 C 0.74143 0.36482 0.65502 0.0
C1187 C 0.77201 0.35046 0.65295 0.0
C1188 C 0.7764 0.32099 0.62993 0.0
C1189 C 0.75 0.30547 0.61061 0.0
C1190 C 0.73577 0.39624 0.67919 0.0
C1191 C 0.80854 0.30474 0.627 0.0
H1192 H 0.86941 0.41646 0.68518 0.0
H1193 H 0.82349 0.3432 0.75828 0.0
H1194 H 0.82841 0.38704 0.6124 0.0
H1195 H 0.80048 0.41667 0.63067 0.0
H1196 H 0.84412 0.42821 0.63284 0.0
H1197 H 0.77367 0.31084 0.74902 0.0
H1198 H 0.74657 0.32953 0.72077 0.0
H1199 H 0.77115 0.29629 0.70323 0.0
H1200 H 0.69179 0.35932 0.63764 0.0
H1201 H 0.75338 0.28246 0.59363 0.0
H1202 H 0.75608 0.41716 0.67563 0.0
H1203 H 0.73536 0.38882 0.7071 0.0
H1204 H 0.71222 0.40689 0.67445 0.0
H1205 H 0.82922 0.32498 0.62226 0.0
H1206 H 0.80906 0.28419 0.60537 0.0
H1207 H 0.81266 0.29281 0.65225 0.0
C1208 C 0.87145 0.44711 0.90393 0.0
C1209 C 0.86411 0.44272 0.86825 0.0
C1210 C 0.86569 0.47835 0.92301 0.0
C1211 C 0.85293 0.50541 0.90549 0.0
C1212 C 0.84099 0.49864 0.87119 0.0
C1213 C 0.84654 0.4671 0.85305 0.0
C1214 C 0.87728 0.48407 0.9602 0.0
C1215 C 0.8271 0.52655 0.85148 0.0
C1216 C 0.84185 0.59491 0.94891 0.0
C1217 C 0.87259 0.61277 0.9412 0.0
C1218 C 0.83515 0.55954 0.93841 0.0
C1219 C 0.85948 0.54223 0.9188 0.0
C1220 C 0.89032 0.56062 0.91024 0.0
C1221 C 0.8967 0.59551 0.92224 0.0
C1222 C 0.80264 0.54049 0.9494 0.0
C1223 C 0.91668 0.54347 0.88842 0.0
H1224 H 0.88512 0.42823 0.91563 0.0
H1225 H 0.84082 0.46343 0.82536 0.0
H1226 H 0.90207 0.4985 0.95963 0.0
H1227 H 0.86067 0.49992 0.97673 0.0
H1228 H 0.87884 0.45888 0.97275 0.0
H1229 H 0.81367 0.51536 0.8281 0.0
H1230 H 0.81027 0.54127 0.86889 0.0
H1231 H 0.84749 0.54541 0.84216 0.0
H1232 H 0.82355 0.60822 0.96447 0.0
H1233 H 0.92053 0.60941 0.91673 0.0
H1234 H 0.80668 0.52129 0.96922 0.0
H1235 H 0.79127 0.52564 0.92655 0.0
H1236 H 0.78516 0.55855 0.96126 0.0
H1237 H 0.92445 0.52134 0.90252 0.0
H1238 H 0.93864 0.56193 0.88285 0.0
H1239 H 0.90695 0.53275 0.86286 0.0
C1240 C 0.81291 0.6719 0.10095 0.0
C1241 C 0.82652 0.65719 0.06993 0.0
C1242 C 0.78686 0.65363 0.11957 0.0
C1243 C 0.7737 0.62037 0.1061 0.0
C1244 C 0.7882 0.60506 0.07522 0.0
C1245 C 0.81466 0.62368 0.05757 0.0
C1246 C 0.77251 0.67059 0.15282 0.0
C1247 C 0.77466 0.57003 0.05968 0.0
C1248 C 0.7167 0.5721 0.17242 0.0
C1249 C 0.68694 0.58534 0.16609 0.0
C1250 C 0.74504 0.58115 0.15136 0.0
C1251 C 0.74324 0.60332 0.12302 0.0
C1252 C 0.71241 0.6132 0.11405 0.0
C1253 C 0.68464 0.60431 0.1359 0.0
C1254 C 0.77738 0.57002 0.16179 0.0
C1255 C 0.70926 0.63603 0.08343 0.0
H1256 H 0.82207 0.69804 0.11006 0.0
H1257 H 0.82511 0.61275 0.03314 0.0
H1258 H 0.74714 0.67659 0.14841 0.0
H1259 H 0.77115 0.65244 0.17476 0.0
H1260 H 0.78713 0.69521 0.16115 0.0
H1261 H 0.79114 0.55991 0.03827 0.0
H1262 H 0.77068 0.55059 0.08042 0.0
H1263 H 0.75049 0.57253 0.04856 0.0
H1264 H 0.71871 0.55761 0.19587 0.0
H1265 H 0.66163 0.61447 0.13087 0.0
H1266 H 0.79148 0.59245 0.17542 0.0
H1267 H 0.79234 0.56199 0.13818 0.0
H1268 H 0.77396 0.54811 0.17996 0.0
H1269 H 0.71965 0.66307 0.0904 0.0
H1270 H 0.68328 0.63683 0.07667 0.0
H1271 H 0.72326 0.62661 0.05969 0.0
C1272 C 0.68248 0.31215 0.43633 0.0
C1273 C 0.66899 0.32677 0.46771 0.0
C1274 C 0.68626 0.33114 0.40549 0.0
C1275 C 0.67622 0.36531 0.40632 0.0
C1276 C 0.66388 0.38059 0.43837 0.0
C1277 C 0.66048 0.36115 0.46861 0.0
C1278 C 0.69969 0.31414 0.37186 0.0
C1279 C 0.65318 0.41716 0.44053 0.0
C1280 C 0.69939 0.43741 0.34458 0.0
C1281 C 0.66942 0.43915 0.32877 0.0
C1282 C 0.70355 0.41056 0.367 0.0
C1283 C 0.67695 0.38527 0.37388 0.0
C1284 C 0.64805 0.38465 0.35471 0.0
C1285 C 0.64463 0.41172 0.33224 0.0
C1286 C 0.73504 0.41159 0.38627 0.0
C1287 C 0.61927 0.35783 0.36102 0.0
H1288 H 0.68903 0.28551 0.43552 0.0
H1289 H 0.65035 0.37272 0.49288 0.0
H1290 H 0.67932 0.30632 0.35399 0.0
H1291 H 0.71752 0.33267 0.35775 0.0
H1292 H 0.71185 0.29047 0.37702 0.0
H1293 H 0.64496 0.42542 0.46775 0.0
H1294 H 0.67365 0.43609 0.43163 0.0
H1295 H 0.63266 0.41859 0.42276 0.0
H1296 H 0.71884 0.45832 0.34124 0.0
H1297 H 0.62148 0.41298 0.31988 0.0
H1298 H 0.74246 0.38489 0.38858 0.0
H1299 H 0.73124 0.42307 0.41343 0.0
H1300 H 0.75534 0.42774 0.37276 0.0
H1301 H 0.6276 0.33144 0.36265 0.0
H1302 H 0.60134 0.35702 0.33984 0.0
H1303 H 0.60653 0.36443 0.38661 0.0
C1304 C 0.30329 0.42556 0.16756 0.0
C1305 C 0.27514 0.4208 0.14747 0.0
C1306 C 0.32203 0.39782 0.17245 0.0
C1307 C 0.31263 0.36455 0.15655 0.0
C1308 C 0.28608 0.36037 0.13358 0.0
C1309 C 0.26752 0.38861 0.12935 0.0
C1310 C 0.35013 0.40348 0.19714 0.0
C1311 C 0.27566 0.32541 0.11568 0.0
C1312 C 0.37003 0.29342 0.1637 0.0
C1313 C 0.35557 0.27576 0.19277 0.0
C1314 C 0.35607 0.32207 0.15104 0.0
C1315 C 0.32734 0.33347 0.16823 0.0
C1316 C 0.31293 0.3159 0.19785 0.0
C1317 C 0.32714 0.2872 0.20962 0.0
C1318 C 0.37187 0.33995 0.11919 0.0
C1319 C 0.28259 0.32756 0.21735 0.0
H1320 H 0.30966 0.45053 0.18129 0.0
H1321 H 0.2459 0.38478 0.11368 0.0
H1322 H 0.34331 0.38975 0.22183 0.0
H1323 H 0.37222 0.3924 0.18505 0.0
H1324 H 0.35654 0.43158 0.20425 0.0
H1325 H 0.25846 0.32776 0.09433 0.0
H1326 H 0.2973 0.31292 0.1043 0.0
H1327 H 0.26323 0.30782 0.13547 0.0
H1328 H 0.39184 0.28435 0.15045 0.0
H1329 H 0.31613 0.27379 0.23232 0.0
H1330 H 0.37921 0.36783 0.12622 0.0
H1331 H 0.35397 0.33922 0.09804 0.0
H1332 H 0.39386 0.32757 0.10852 0.0
H1333 H 0.28744 0.35497 0.2277 0.0
H1334 H 0.27444 0.31098 0.23984 0.0
H1335 H 0.26221 0.32678 0.19902 0.0
C1336 C 0.80974 0.21672 0.8629 0.0
C1337 C 0.84009 0.21767 0.8441 0.0
C1338 C 0.78832 0.18615 0.86342 0.0
C1339 C 0.79806 0.15515 0.8461 0.0
C1340 C 0.82986 0.15502 0.82985 0.0
C1341 C 0.85031 0.18644 0.82854 0.0
C1342 C 0.75445 0.1877 0.88063 0.0
C1343 C 0.84195 0.12253 0.81189 0.0
C1344 C 0.73862 0.07782 0.87027 0.0
C1345 C 0.71793 0.07536 0.84171 0.0
C1346 C 0.76689 0.10153 0.87051 0.0
C1347 C 0.77348 0.12433 0.84241 0.0
C1348 C 0.75353 0.12057 0.81269 0.0
C1349 C 0.72629 0.09562 0.81243 0.0
C1350 C 0.78896 0.10318 0.90141 0.0
C1351 C 0.75939 0.14471 0.78243 0.0
H1352 H 0.80206 0.24035 0.87617 0.0
H1353 H 0.87365 0.18666 0.81388 0.0
H1354 H 0.73567 0.18126 0.86055 0.0
H1355 H 0.75001 0.16812 0.90116 0.0
H1356 H 0.75084 0.21386 0.8931 0.0
H1357 H 0.86846 0.12165 0.81618 0.0
H1358 H 0.82838 0.09819 0.82133 0.0
H1359 H 0.83922 0.12335 0.78298 0.0
H1360 H 0.73242 0.06161 0.89261 0.0
H1361 H 0.71026 0.09364 0.7903 0.0
H1362 H 0.78584 0.12722 0.91811 0.0
H1363 H 0.81504 0.10437 0.89185 0.0
H1364 H 0.78347 0.08029 0.9181 0.0
H1365 H 0.75431 0.17151 0.7918 0.0
H1366 H 0.74352 0.13634 0.75997 0.0
H1367 H 0.78539 0.14597 0.77273 0.0
C1368 C 0.10862 0.56203 0.19516 0.0
C1369 C 0.1422 0.57112 0.18923 0.0
C1370 C 0.08545 0.58125 0.18097 0.0
C1371 C 0.09634 0.60932 0.15929 0.0
C1372 C 0.13027 0.62046 0.15593 0.0
C1373 C 0.15285 0.60139 0.17143 0.0
C1374 C 0.04949 0.56915 0.18611 0.0
C1375 C 0.14307 0.64977 0.13256 0.0
C1376 C 0.04283 0.6166 0.08154 0.0
C1377 C 0.02639 0.64584 0.09205 0.0
C1378 C 0.06631 0.60511 0.10283 0.0
C1379 C 0.07291 0.62287 0.13583 0.0
C1380 C 0.05636 0.65246 0.14654 0.0
C1381 C 0.03349 0.66382 0.12431 0.0
C1382 C 0.08388 0.57377 0.09011 0.0
C1383 C 0.06222 0.67153 0.18179 0.0
H1384 H 0.10052 0.53822 0.20843 0.0
H1385 H 0.17891 0.60779 0.16608 0.0
H1386 H 0.03479 0.59176 0.1909 0.0
H1387 H 0.04077 0.55458 0.16179 0.0
H1388 H 0.04485 0.55166 0.20857 0.0
H1389 H 0.16897 0.65919 0.13775 0.0
H1390 H 0.14186 0.64026 0.10447 0.0
H1391 H 0.12789 0.67207 0.13629 0.0
H1392 H 0.03747 0.6029 0.05646 0.0
H1393 H 0.02051 0.68629 0.13254 0.0
H1394 H 0.07762 0.55212 0.10817 0.0
H1395 H 0.11082 0.5804 0.09036 0.0
H1396 H 0.07734 0.56424 0.06295 0.0
H1397 H 0.05498 0.65363 0.20342 0.0
H1398 H 0.04817 0.69477 0.1857 0.0
H1399 H 0.08868 0.68007 0.18414 0.0
C1400 C 0.76331 0.80643 0.33501 0.0
C1401 C 0.79598 0.81594 0.3431 0.0
C1402 C 0.75161 0.7713 0.32991 0.0
C1403 C 0.77335 0.74515 0.33242 0.0
C1404 C 0.80584 0.75448 0.3427 0.0
C1405 C 0.81678 0.78992 0.34814 0.0
C1406 C 0.71647 0.76237 0.31969 0.0
C1407 C 0.82975 0.72743 0.34544 0.0
C1408 C 0.72445 0.6576 0.32977 0.0
C1409 C 0.72184 0.65234 0.2932 0.0
C1410 C 0.74459 0.68606 0.34367 0.0
C1411 C 0.76253 0.70893 0.32018 0.0
C1412 C 0.76356 0.70037 0.2834 0.0
C1413 C 0.74265 0.67234 0.27025 0.0
C1414 C 0.74313 0.69413 0.38304 0.0
C1415 C 0.78329 0.72342 0.25754 0.0
H1416 H 0.74714 0.82654 0.33149 0.0
H1417 H 0.84214 0.79726 0.35433 0.0
H1418 H 0.71597 0.75214 0.29179 0.0
H1419 H 0.70423 0.74168 0.33635 0.0
H1420 H 0.70204 0.78539 0.32239 0.0
H1421 H 0.85094 0.73765 0.36141 0.0
H1422 H 0.8177 0.70349 0.35729 0.0
H1423 H 0.83926 0.71988 0.31854 0.0
H1424 H 0.70804 0.64206 0.34736 0.0
H1425 H 0.74049 0.66795 0.24191 0.0
H1426 H 0.72544 0.71384 0.38933 0.0
H1427 H 0.76735 0.70524 0.39239 0.0
H1428 H 0.73485 0.67047 0.39782 0.0
H1429 H 0.77027 0.74683 0.2538 0.0
H1430 H 0.78668 0.70963 0.23134 0.0
H1431 H 0.80774 0.73249 0.2677 0.0
C1432 C 0.50057 0.40203 0.60282 0.0
C1433 C 0.52895 0.39922 0.62121 0.0
C1434 C 0.47948 0.42763 0.613 0.0
C1435 C 0.48669 0.45043 0.64272 0.0
C1436 C 0.51456 0.44662 0.66234 0.0
C1437 C 0.53566 0.42129 0.65104 0.0
C1438 C 0.4504 0.43136 0.59091 0.0
C1439 C 0.52264 0.46998 0.69456 0.0
C1440 C 0.45704 0.53993 0.63892 0.0
C1441 C 0.4272 0.53632 0.65872 0.0
C1442 C 0.47695 0.51245 0.63438 0.0
C1443 C 0.46718 0.48063 0.65058 0.0
C1444 C 0.43797 0.47728 0.67213 0.0
C1445 C 0.4181 0.50514 0.67572 0.0
C1446 C 0.50769 0.51699 0.61081 0.0
C1447 C 0.4272 0.44392 0.69036 0.0
H1448 H 0.49552 0.38497 0.57968 0.0
H1449 H 0.55744 0.41872 0.66547 0.0
H1450 H 0.42758 0.43104 0.60784 0.0
H1451 H 0.45369 0.45687 0.57822 0.0
H1452 H 0.44715 0.41028 0.56989 0.0
H1453 H 0.54277 0.46091 0.70928 0.0
H1454 H 0.5302 0.49694 0.68647 0.0
H1455 H 0.50065 0.47114 0.71265 0.0
H1456 H 0.4644 0.56391 0.62568 0.0
H1457 H 0.39515 0.50221 0.69113 0.0
H1458 H 0.50554 0.49823 0.58762 0.0
H1459 H 0.5293 0.51124 0.62523 0.0
H1460 H 0.51233 0.54382 0.60109 0.0
H1461 H 0.4198 0.42292 0.67039 0.0
H1462 H 0.40616 0.44694 0.70946 0.0
H1463 H 0.4478 0.43529 0.70459 0.0
C1464 C 0.31882 0.73026 0.6222 0.0
C1465 C 0.30633 0.69875 0.63697 0.0
C1466 C 0.30121 0.75986 0.62574 0.0
C1467 C 0.27044 0.75779 0.64441 0.0
C1468 C 0.25733 0.72578 0.65847 0.0
C1469 C 0.27541 0.69669 0.65457 0.0
C1470 C 0.31586 0.79352 0.61028 0.0
C1471 C 0.22443 0.72242 0.67831 0.0
C1472 C 0.23299 0.83627 0.68813 0.0
C1473 C 0.20781 0.84003 0.66532 0.0
C1474 C 0.25498 0.81082 0.68061 0.0
C1475 C 0.25164 0.7889 0.64952 0.0
C1476 C 0.22772 0.79439 0.62523 0.0
C1477 C 0.20608 0.81988 0.63346 0.0
C1478 C 0.2803 0.80582 0.70708 0.0
C1479 C 0.22352 0.77181 0.59169 0.0
H1480 H 0.34276 0.73212 0.60868 0.0
H1481 H 0.26555 0.67245 0.66603 0.0
H1482 H 0.29839 0.80332 0.59256 0.0
H1483 H 0.32048 0.81378 0.63181 0.0
H1484 H 0.33931 0.79037 0.5951 0.0
H1485 H 0.2175 0.69552 0.68711 0.0
H1486 H 0.22495 0.74071 0.70191 0.0
H1487 H 0.20508 0.72962 0.66133 0.0
H1488 H 0.23426 0.85176 0.71282 0.0
H1489 H 0.18683 0.82312 0.61559 0.0
H1490 H 0.3047 0.80395 0.69359 0.0
H1491 H 0.27352 0.78095 0.72033 0.0
H1492 H 0.28231 0.82746 0.72764 0.0
H1493 H 0.24752 0.76964 0.57741 0.0
H1494 H 0.2066 0.78217 0.57366 0.0
H1495 H 0.21346 0.74505 0.5984 0.0
C1496 C 0.41844 0.93071 0.94445 0.0
C1497 C 0.38854 0.91502 0.93236 0.0
C1498 C 0.44255 0.94536 0.92094 0.0
C1499 C 0.43644 0.94449 0.88442 0.0
C1500 C 0.40512 0.93174 0.87251 0.0
C1501 C 0.3814 0.91701 0.89675 0.0
C1502 C 0.47545 0.95931 0.93497 0.0
C1503 C 0.3974 0.93119 0.83397 0.0
C1504 C 0.50488 0.00024 0.84064 0.0
C1505 C 0.52763 0.97569 0.83334 0.0
C1506 C 0.47295 0.98986 0.85307 0.0
C1507 C 0.46414 0.95423 0.85918 0.0
C1508 C 0.4859 0.92897 0.84795 0.0
C1509 C 0.5176 0.94009 0.83489 0.0
C1510 C 0.45014 0.01745 0.86354 0.0
C1511 C 0.47721 0.89064 0.85373 0.0
H1512 H 0.42384 0.92946 0.97207 0.0
H1513 H 0.3583 0.90475 0.88728 0.0
H1514 H 0.49464 0.94288 0.924 0.0
H1515 H 0.48231 0.98628 0.92654 0.0
H1516 H 0.47554 0.95958 0.96428 0.0
H1517 H 0.37053 0.92906 0.83041 0.0
H1518 H 0.40886 0.95497 0.82129 0.0
H1519 H 0.40739 0.90827 0.81997 0.0
H1520 H 0.51283 0.02786 0.83912 0.0
H1521 H 0.53539 0.92126 0.82932 0.0
H1522 H 0.45109 0.02357 0.89242 0.0
H1523 H 0.42442 0.00807 0.85768 0.0
H1524 H 0.45725 0.04195 0.8497 0.0
H1525 H 0.47826 0.886 0.8823 0.0
H1526 H 0.49437 0.8741 0.8388 0.0
H1527 H 0.45189 0.8823 0.84568 0.0
C1528 C 0.86564 0.04931 0.33805 0.0
C1529 C 0.88095 0.0215 0.3215 0.0
C1530 C 0.88438 0.08001 0.34937 0.0
C1531 C 0.91891 0.08256 0.34366 0.0
C1532 C 0.93371 0.05615 0.32313 0.0
C1533 C 0.91451 0.02576 0.31253 0.0
C1534 C 0.8676 0.10777 0.37072 0.0
C1535 C 0.97036 0.05806 0.31587 0.0
C1536 C 0.97765 0.16153 0.36765 0.0
C1537 C 0.98969 0.1512 0.39911 0.0
C1538 C 0.953 0.14046 0.35007 0.0
C1539 C 0.94019 0.10856 0.36449 0.0
C1540 C 0.95088 0.0992 0.39742 0.0
C1541 C 0.97565 0.12057 0.41421 0.0
C1542 C 0.94202 0.15137 0.3152 0.0
C1543 C 0.93737 0.06568 0.41407 0.0
H1544 H 0.83965 0.04581 0.34525 0.0
H1545 H 0.9262 0.00413 0.2996 0.0
H1546 H 0.8689 0.10319 0.39926 0.0
H1547 H 0.87973 0.13424 0.36601 0.0
H1548 H 0.84135 0.10699 0.36443 0.0
H1549 H 0.97724 0.03836 0.29511 0.0
H1550 H 0.98002 0.08439 0.30747 0.0
H1551 H 0.9825 0.05322 0.34047 0.0
H1552 H 0.98852 0.18528 0.35598 0.0
H1553 H 0.98456 0.11297 0.4389 0.0
H1554 H 0.91494 0.14723 0.31398 0.0
H1555 H 0.95255 0.13506 0.29339 0.0
H1556 H 0.95007 0.17922 0.31062 0.0
H1557 H 0.91017 0.06375 0.41576 0.0
H1558 H 0.94633 0.06372 0.44104 0.0
H1559 H 0.94473 0.04299 0.39738 0.0
loop_
_geom_bond_atom_site_label_1
_geom_bond_atom_site_label_2
_geom_bond_distance
_geom_bond_site_symmetry_2
_ccdc_geom_bond_type
C0 O16 1.251 . S
C0 O18 1.254 . S
N1 C2 1.333 . S
N1 C6 1.307 . S
N1 Zn7 2.020 . S
C2 N1 1.333 . S
C2 C3 1.379 . S
C2 H20 0.952 . S
C3 C2 1.379 . S
C3 C4 1.390 . S
C3 H30 0.949 . S
C4 C3 1.390 . S
C4 C5 1.357 . S
C5 C4 1.357 . S
C5 C6 1.370 . S
C5 H31 0.950 . S
C6 N1 1.307 . S
C6 C5 1.370 . S
C6 H24 0.948 . S
Zn7 N1 2.020 . S
Zn7 O16 2.039 . S
Zn7 O22 2.034 . S
Zn7 O26 2.025 . S
Zn7 O28 2.024 . S
C8 O27 1.246 . S
C8 O28 1.249 . S
N9 C10 1.307 . S
N9 C11 1.333 . S
N9 Zn15 2.020 . S
C10 N9 1.307 . S
C10 C14 1.370 . S
C10 H21 0.948 . S
C11 N9 1.333 . S
C11 C12 1.379 . S
C11 H19 0.952 . S
C12 C11 1.379 . S
C12 C13 1.390 . S
C12 H32 0.949 . S
C13 C12 1.390 . S
C13 C14 1.357 . S
C14 C10 1.370 . S
C14 C13 1.357 . S
C14 H33 0.950 . S
Zn15 N9 2.020 . S
Zn15 O18 2.025 . S
Zn15 O23 2.024 . S
Zn15 O25 2.039 . S
Zn15 O27 2.034 . S
O16 C0 1.251 . S
O16 Zn7 2.039 . S
C17 O22 1.246 . S
C17 O23 1.249 . S
O18 C0 1.254 . S
O18 Zn15 2.025 . S
H19 C11 0.952 . S
H20 C2 0.952 . S
H21 C10 0.948 . S
O22 Zn7 2.034 . S
O22 C17 1.246 . S
O23 Zn15 2.024 . S
O23 C17 1.249 . S
H24 C6 0.948 . S
O25 Zn15 2.039 . S
O25 C29 1.251 . S
O26 Zn7 2.025 . S
O26 C29 1.254 . S
O27 C8 1.246 . S
O27 Zn15 2.034 . S
O28 Zn7 2.024 . S
O28 C8 1.249 . S
C29 O25 1.251 . S
C29 O26 1.254 . S
H30 C3 0.949 . S
H31 C5 0.950 . S
H32 C12 0.949 . S
H33 C14 0.950 . S
C34 O50 1.251 . S
C34 O52 1.254 . S
N35 C36 1.333 . S
N35 C40 1.307 . S
N35 Zn41 2.020 . S
C36 N35 1.333 . S
C36 C37 1.379 . S
C36 H54 0.952 . S
C37 C36 1.379 . S
C37 C38 1.390 . S
C37 H64 0.949 . S
C38 C37 1.390 . S
C38 C39 1.357 . S
C39 C38 1.357 . S
C39 C40 1.370 . S
C39 H65 0.950 . S
C40 N35 1.307 . S
C40 C39 1.370 . S
C40 H58 0.948 . S
Zn41 N35 2.020 . S
Zn41 O50 2.039 . S
Zn41 O56 2.034 . S
Zn41 O60 2.025 . S
Zn41 O62 2.024 . S
C42 O61 1.246 . S
C42 O62 1.249 . S
N43 C44 1.307 . S
N43 C45 1.333 1_455 S
N43 Zn49 2.020 . S
C44 N43 1.307 . S
C44 C48 1.370 1_565 S
C44 H55 0.948 . S
C45 N43 1.333 1_655 S
C45 C46 1.379 . S
C45 H53 0.952 . S
C46 C45 1.379 . S
C46 C47 1.411 . S
C46 H66 0.949 . S
C47 C46 1.411 . S
C47 C48 1.354 1_665 S
C48 C44 1.370 1_545 S
C48 C47 1.354 1_445 S
C48 H67 0.950 . S
Zn49 N43 2.020 . S
Zn49 O52 2.025 . S
Zn49 O57 2.024 . S
Zn49 O59 2.039 . S
Zn49 O61 2.034 . S
O50 C34 1.251 . S
O50 Zn41 2.039 . S
C51 O56 1.246 . S
C51 O57 1.249 . S
O52 C34 1.254 . S
O52 Zn49 2.025 . S
H53 C45 0.952 . S
H54 C36 0.952 . S
H55 C44 0.948 . S
O56 Zn41 2.034 . S
O56 C51 1.246 . S
O57 Zn49 2.024 . S
O57 C51 1.249 . S
H58 C40 0.948 . S
O59 Zn49 2.039 . S
O59 C63 1.251 . S
O60 Zn41 2.025 . S
O60 C63 1.254 . S
O61 C42 1.246 . S
O61 Zn49 2.034 . S
O62 Zn41 2.024 . S
O62 C42 1.249 . S
C63 O59 1.251 . S
C63 O60 1.254 . S
H64 C37 0.949 . S
H65 C39 0.950 . S
H66 C46 0.949 . S
H67 C48 0.950 . S
C68 O84 1.251 . S
C68 O86 1.254 . S
N69 C70 1.333 . S
N69 C74 1.307 . S
N69 Zn75 2.020 . S
C70 N69 1.333 . S
C70 C71 1.379 . S
C70 H88 0.952 . S
C71 C70 1.379 . S
C71 C72 1.390 . S
C71 H98 0.949 . S
C72 C71 1.390 . S
C72 C73 1.357 . S
C73 C72 1.357 . S
C73 C74 1.370 . S
C73 H99 0.950 . S
C74 N69 1.307 . S
C74 C73 1.370 . S
C74 H92 0.948 . S
Zn75 N69 2.020 . S
Zn75 O84 2.039 . S
Zn75 O90 2.034 . S
Zn75 O94 2.025 . S
Zn75 O96 2.024 . S
C76 O95 1.246 . S
C76 O96 1.249 . S
N77 C78 1.303 1_554 S
N77 C79 1.345 . S
N77 Zn83 2.013 1_554 S
C78 N77 1.303 1_556 S
C78 C82 1.370 1_556 S
C78 H89 0.948 . S
C79 N77 1.345 . S
C79 C80 1.379 . S
C79 H87 0.952 . S
C80 C79 1.379 . S
C80 C81 1.390 . S
C80 H100 0.949 . S
C81 C80 1.390 . S
C81 C82 1.357 . S
C82 C78 1.370 1_554 S
C82 C81 1.357 . S
C82 H101 0.950 1_554 S
Zn83 N77 2.013 1_556 S
Zn83 O86 2.025 . S
Zn83 O91 2.024 . S
Zn83 O93 2.039 1_556 S
Zn83 O95 2.034 . S
O84 C68 1.251 . S
O84 Zn75 2.039 . S
C85 O90 1.246 . S
C85 O91 1.249 . S
O86 C68 1.254 . S
O86 Zn83 2.025 . S
H87 C79 0.952 . S
H88 C70 0.952 . S
H89 C78 0.948 . S
O90 Zn75 2.034 . S
O90 C85 1.246 . S
O91 Zn83 2.024 . S
O91 C85 1.249 . S
H92 C74 0.948 . S
O93 Zn83 2.039 1_554 S
O93 C97 1.251 . S
O94 Zn75 2.025 . S
O94 C97 1.254 1_556 S
O95 C76 1.246 . S
O95 Zn83 2.034 . S
O96 Zn75 2.024 . S
O96 C76 1.249 . S
C97 O93 1.251 . S
C97 O94 1.254 1_554 S
H98 C71 0.949 . S
H99 C73 0.950 . S
H100 C80 0.949 . S
H101 C82 0.950 1_556 S
C102 O118 1.251 . S
C102 O120 1.254 . S
N103 C104 1.333 . S
N103 C108 1.307 . S
N103 Zn109 2.020 . S
C104 N103 1.333 . S
C104 C105 1.379 . S
C104 H122 0.952 . S
C105 C104 1.379 . S
C105 C106 1.390 . S
C105 H132 0.949 . S
C106 C105 1.390 . S
C106 C107 1.357 . S
C107 C106 1.357 . S
C107 C108 1.370 . S
C107 H133 0.950 . S
C108 N103 1.307 . S
C108 C107 1.370 . S
C108 H126 0.948 . S
Zn109 N103 2.020 . S
Zn109 O118 2.039 . S
Zn109 O124 2.034 . S
Zn109 O128 2.025 . S
Zn109 O130 2.024 . S
C110 O129 1.246 . S
C110 O130 1.249 . S
N111 C112 1.307 . S
N111 C113 1.333 . S
N111 Zn117 2.020 . S
C112 N111 1.307 . S
C112 C116 1.370 . S
C112 H123 0.948 . S
C113 N111 1.333 . S
C113 C114 1.379 . S
C113 H121 0.952 . S
C114 C113 1.379 . S
C114 C115 1.390 . S
C114 H134 0.949 . S
C115 C114 1.390 . S
C115 C116 1.357 . S
C116 C112 1.370 . S
C116 C115 1.357 . S
C116 H135 0.950 1_545 S
Zn117 N111 2.020 . S
Zn117 O120 2.025 . S
Zn117 O125 2.024 . S
Zn117 O127 2.039 . S
Zn117 O129 2.034 . S
O118 C102 1.251 . S
O118 Zn109 2.039 . S
C119 O124 1.246 . S
C119 O125 1.249 . S
O120 C102 1.254 . S
O120 Zn117 2.025 . S
H121 C113 0.952 . S
H122 C104 0.952 . S
H123 C112 0.948 . S
O124 Zn109 2.034 . S
O124 C119 1.246 . S
O125 Zn117 2.024 . S
O125 C119 1.249 . S
H126 C108 0.948 . S
O127 Zn117 2.039 . S
O127 C131 1.251 . S
O128 Zn109 2.025 . S
O128 C131 1.254 . S
O129 C110 1.246 . S
O129 Zn117 2.034 . S
O130 Zn109 2.024 . S
O130 C110 1.249 . S
C131 O127 1.251 . S
C131 O128 1.254 . S
H132 C105 0.949 . S
H133 C107 0.950 . S
H134 C114 0.949 . S
H135 C116 0.950 1_565 S
C136 O152 1.251 . S
C136 O154 1.254 . S
N137 C138 1.333 . S
N137 C142 1.307 . S
N137 Zn143 2.020 . S
C138 N137 1.333 . S
C138 C139 1.379 . S
C138 H156 0.952 . S
C139 C138 1.379 . S
C139 C140 1.390 . S
C139 H166 0.949 . S
C140 C139 1.390 . S
C140 C141 1.357 . S
C141 C140 1.357 . S
C141 C142 1.370 . S
C141 H167 0.950 . S
C142 N137 1.307 . S
C142 C141 1.370 . S
C142 H160 0.948 . S
Zn143 N137 2.020 . S
Zn143 O152 2.039 . S
Zn143 O158 2.034 . S
Zn143 O162 2.025 . S
Zn143 O164 2.024 . S
C144 O163 1.246 . S
C144 O164 1.249 . S
N145 C146 1.307 . S
N145 C147 1.333 . S
N145 Zn151 2.020 . S
C146 N145 1.307 . S
C146 C150 1.370 . S
C146 H157 0.948 . S
C147 N145 1.333 . S
C147 C148 1.379 . S
C147 H155 0.952 . S
C148 C147 1.379 . S
C148 C149 1.390 . S
C148 H168 0.949 . S
C149 C148 1.390 . S
C149 C150 1.357 . S
C150 C146 1.370 . S
C150 C149 1.357 . S
C150 H169 0.950 . S
Zn151 N145 2.020 . S
Zn151 O154 2.025 . S
Zn151 O159 2.024 . S
Zn151 O161 2.039 . S
Zn151 O163 2.034 . S
O152 C136 1.251 . S
O152 Zn143 2.039 . S
C153 O158 1.246 . S
C153 O159 1.249 . S
O154 C136 1.254 . S
O154 Zn151 2.025 . S
H155 C147 0.952 . S
H156 C138 0.952 . S
H157 C146 0.948 . S
O158 Zn143 2.034 . S
O158 C153 1.246 . S
O159 Zn151 2.024 . S
O159 C153 1.249 . S
H160 C142 0.948 . S
O161 Zn151 2.039 . S
O161 C165 1.251 . S
O162 Zn143 2.025 . S
O162 C165 1.254 . S
O163 C144 1.246 . S
O163 Zn151 2.034 . S
O164 Zn143 2.024 . S
O164 C144 1.249 . S
C165 O161 1.251 . S
C165 O162 1.254 . S
H166 C139 0.949 . S
H167 C141 0.950 . S
H168 C148 0.949 . S
H169 C150 0.950 . S
C170 O186 1.251 . S
C170 O188 1.254 . S
N171 C172 1.333 . S
N171 C176 1.307 . S
N171 Zn177 2.020 . S
C172 N171 1.333 . S
C172 C173 1.379 . S
C172 H190 0.952 . S
C173 C172 1.379 . S
C173 C174 1.390 . S
C173 H200 0.949 . S
C174 C173 1.390 . S
C174 C175 1.357 . S
C175 C174 1.357 . S
C175 C176 1.370 . S
C175 H201 0.950 . S
C176 N171 1.307 . S
C176 C175 1.370 . S
C176 H194 0.948 . S
Zn177 N171 2.020 . S
Zn177 O186 2.039 . S
Zn177 O192 2.034 . S
Zn177 O196 2.025 . S
Zn177 O198 2.024 . S
C178 O197 1.246 . S
C178 O198 1.249 . S
N179 C180 1.307 . S
N179 C181 1.333 1_655 S
N179 Zn185 2.020 . S
C180 N179 1.307 . S
C180 C184 1.370 . S
C180 H191 0.948 . S
C181 N179 1.333 1_455 S
C181 C182 1.379 . S
C181 H189 0.952 . S
C182 C181 1.379 . S
C182 C183 1.390 . S
C182 H202 0.949 . S
C183 C182 1.390 . S
C183 C184 1.357 1_455 S
C184 C180 1.370 . S
C184 C183 1.357 1_655 S
C184 H203 0.950 . S
Zn185 N179 2.020 . S
Zn185 O188 2.025 . S
Zn185 O193 2.024 . S
Zn185 O195 2.039 . S
Zn185 O197 2.034 . S
O186 C170 1.251 . S
O186 Zn177 2.039 . S
C187 O192 1.246 . S
C187 O193 1.249 . S
O188 C170 1.254 . S
O188 Zn185 2.025 . S
H189 C181 0.952 . S
H190 C172 0.952 . S
H191 C180 0.948 . S
O192 Zn177 2.034 . S
O192 C187 1.246 . S
O193 Zn185 2.024 . S
O193 C187 1.249 . S
H194 C176 0.948 . S
O195 Zn185 2.039 . S
O195 C199 1.251 . S
O196 Zn177 2.025 . S
O196 C199 1.254 . S
O197 C178 1.246 . S
O197 Zn185 2.034 . S
O198 Zn177 2.024 . S
O198 C178 1.249 . S
C199 O195 1.251 . S
C199 O196 1.254 . S
H200 C173 0.949 . S
H201 C175 0.950 . S
H202 C182 0.949 . S
H203 C184 0.950 . S
C204 O220 1.251 1_556 S
C204 O222 1.254 . S
N205 C206 1.333 . S
N205 C210 1.307 . S
N205 Zn211 2.020 . S
C206 N205 1.333 . S
C206 C207 1.379 . S
C206 H224 0.952 . S
C207 C206 1.379 . S
C207 C208 1.390 . S
C207 H234 0.949 . S
C208 C207 1.390 . S
C208 C209 1.357 . S
C209 C208 1.357 . S
C209 C210 1.370 . S
C209 H235 0.950 1_655 S
C210 N205 1.307 . S
C210 C209 1.370 . S
C210 H228 0.948 . S
Zn211 N205 2.020 . S
Zn211 O220 2.039 . S
Zn211 O226 2.034 . S
Zn211 O230 2.025 . S
Zn211 O232 2.024 . S
C212 O231 1.246 . S
C212 O232 1.249 1_556 S
N213 C214 1.307 . S
N213 C215 1.333 1_556 S
N213 Zn219 2.020 1_556 S
C214 N213 1.307 . S
C214 C218 1.370 . S
C214 H225 0.948 . S
C215 N213 1.333 1_554 S
C215 C216 1.379 1_554 S
C215 H223 0.952 . S
C216 C215 1.379 1_556 S
C216 C217 1.390 . S
C216 H236 0.949 . S
C217 C216 1.390 . S
C217 C218 1.357 . S
C218 C214 1.370 . S
C218 C217 1.357 . S
C218 H237 0.950 . S
Zn219 N213 2.020 1_554 S
Zn219 O222 2.025 1_554 S
Zn219 O227 2.024 . S
Zn219 O229 2.039 . S
Zn219 O231 2.034 1_554 S
O220 C204 1.251 1_554 S
O220 Zn211 2.039 . S
C221 O226 1.246 . S
C221 O227 1.249 . S
O222 C204 1.254 . S
O222 Zn219 2.025 1_556 S
H223 C215 0.952 . S
H224 C206 0.952 . S
H225 C214 0.948 . S
O226 Zn211 2.034 . S
O226 C221 1.246 . S
O227 Zn219 2.024 . S
O227 C221 1.249 . S
H228 C210 0.948 . S
O229 Zn219 2.039 . S
O229 C233 1.251 . S
O230 Zn211 2.025 . S
O230 C233 1.254 . S
O231 C212 1.246 . S
O231 Zn219 2.034 1_556 S
O232 Zn211 2.024 . S
O232 C212 1.249 1_554 S
C233 O229 1.251 . S
C233 O230 1.254 . S
H234 C207 0.949 . S
H235 C209 0.950 1_455 S
H236 C216 0.949 . S
H237 C218 0.950 . S
C238 O254 1.251 . S
C238 O256 1.254 . S
N239 C240 1.333 . S
N239 C244 1.307 . S
N239 Zn245 2.020 . S
C240 N239 1.333 . S
C240 C241 1.379 . S
C240 H258 0.952 . S
C241 C240 1.379 . S
C241 C242 1.390 . S
C241 H268 0.949 . S
C242 C241 1.390 . S
C242 C243 1.357 . S
C243 C242 1.357 . S
C243 C244 1.370 . S
C243 H269 0.950 . S
C244 N239 1.307 . S
C244 C243 1.370 . S
C244 H262 0.948 . S
Zn245 N239 2.020 . S
Zn245 O254 2.039 . S
Zn245 O260 2.034 . S
Zn245 O264 2.025 . S
Zn245 O266 2.024 . S
C246 O265 1.246 . S
C246 O266 1.249 . S
N247 C248 1.307 . S
N247 C249 1.333 . S
N247 Zn253 2.020 . S
C248 N247 1.307 . S
C248 C252 1.370 . S
C248 H259 0.948 . S
C249 N247 1.333 . S
C249 C250 1.379 . S
C249 H257 0.952 . S
C250 C249 1.379 . S
C250 C251 1.390 . S
C250 H270 0.949 . S
C251 C250 1.390 . S
C251 C252 1.357 . S
C252 C248 1.370 . S
C252 C251 1.357 . S
C252 H271 0.950 . S
Zn253 N247 2.020 . S
Zn253 O256 2.025 . S
Zn253 O261 2.024 . S
Zn253 O263 2.039 . S
Zn253 O265 2.034 . S
O254 C238 1.251 . S
O254 Zn245 2.039 . S
C255 O260 1.246 . S
C255 O261 1.249 . S
O256 C238 1.254 . S
O256 Zn253 2.025 . S
H257 C249 0.952 . S
H258 C240 0.952 . S
H259 C248 0.948 . S
O260 Zn245 2.034 . S
O260 C255 1.246 . S
O261 Zn253 2.024 . S
O261 C255 1.249 . S
H262 C244 0.948 . S
O263 Zn253 2.039 . S
O263 C267 1.251 . S
O264 Zn245 2.025 . S
O264 C267 1.254 . S
O265 C246 1.246 . S
O265 Zn253 2.034 . S
O266 Zn245 2.024 . S
O266 C246 1.249 . S
C267 O263 1.251 . S
C267 O264 1.254 . S
H268 C241 0.949 . S
H269 C243 0.950 . S
H270 C250 0.949 . S
H271 C252 0.950 . S
C272 O288 1.251 . S
C272 O290 1.254 . S
N273 C274 1.333 . S
N273 C278 1.307 . S
N273 Zn279 2.020 . S
C274 N273 1.333 . S
C274 C275 1.379 . S
C274 H292 0.952 . S
C275 C274 1.379 . S
C275 C276 1.390 . S
C275 H302 0.949 . S
C276 C275 1.390 . S
C276 C277 1.357 . S
C277 C276 1.357 . S
C277 C278 1.370 . S
C277 H303 0.950 . S
C278 N273 1.307 . S
C278 C277 1.370 . S
C278 H296 0.948 . S
Zn279 N273 2.020 . S
Zn279 O288 2.039 . S
Zn279 O294 2.034 . S
Zn279 O298 2.025 . S
Zn279 O300 2.024 . S
C280 O299 1.246 . S
C280 O300 1.249 . S
N281 C282 1.307 . S
N281 C283 1.333 . S
N281 Zn287 2.020 . S
C282 N281 1.307 . S
C282 C286 1.370 . S
C282 H293 0.948 . S
C283 N281 1.333 . S
C283 C284 1.379 . S
C283 H291 0.952 . S
C284 C283 1.379 . S
C284 C285 1.390 . S
C284 H304 0.949 . S
C285 C284 1.390 . S
C285 C286 1.357 . S
C286 C282 1.370 . S
C286 C285 1.357 . S
C286 H305 0.950 . S
Zn287 N281 2.020 . S
Zn287 O290 2.025 . S
Zn287 O295 2.024 . S
Zn287 O297 2.039 . S
Zn287 O299 2.034 . S
O288 C272 1.251 . S
O288 Zn279 2.039 . S
C289 O294 1.246 . S
C289 O295 1.249 . S
O290 C272 1.254 . S
O290 Zn287 2.025 . S
H291 C283 0.952 . S
H292 C274 0.952 . S
H293 C282 0.948 . S
O294 Zn279 2.034 . S
O294 C289 1.246 . S
O295 Zn287 2.024 . S
O295 C289 1.249 . S
H296 C278 0.948 . S
O297 Zn287 2.039 . S
O297 C301 1.251 . S
O298 Zn279 2.025 . S
O298 C301 1.254 . S
O299 C280 1.246 . S
O299 Zn287 2.034 . S
O300 Zn279 2.024 . S
O300 C280 1.249 . S
C301 O297 1.251 . S
C301 O298 1.254 . S
H302 C275 0.949 . S
H303 C277 0.950 . S
H304 C284 0.949 . S
H305 C286 0.950 . S
C306 O322 1.251 . S
C306 O324 1.254 . S
N307 C308 1.333 . S
N307 C312 1.307 . S
N307 Zn313 2.020 . S
C308 N307 1.333 . S
C308 C309 1.379 . S
C308 H326 0.952 . S
C309 C308 1.379 . S
C309 C310 1.390 . S
C309 H336 0.949 . S
C310 C309 1.390 . S
C310 C311 1.357 . S
C311 C310 1.357 . S
C311 C312 1.370 . S
C311 H337 0.950 1_556 S
C312 N307 1.307 . S
C312 C311 1.370 . S
C312 H330 0.948 . S
Zn313 N307 2.020 . S
Zn313 O322 2.039 . S
Zn313 O328 2.034 . S
Zn313 O332 2.025 . S
Zn313 O334 2.024 . S
C314 O333 1.246 . S
C314 O334 1.249 . S
N315 C316 1.307 . S
N315 C317 1.333 . S
N315 Zn321 2.020 . S
C316 N315 1.307 . S
C316 C320 1.370 1_545 S
C316 H327 0.948 . S
C317 N315 1.333 . S
C317 C318 1.379 . S
C317 H325 0.952 . S
C318 C317 1.379 . S
C318 C319 1.390 1_545 S
C318 H338 0.949 . S
C319 C318 1.390 1_565 S
C319 C320 1.357 . S
C320 C316 1.370 1_565 S
C320 C319 1.357 . S
C320 H339 0.950 . S
Zn321 N315 2.020 . S
Zn321 O324 2.025 . S
Zn321 O329 2.024 . S
Zn321 O331 2.039 . S
Zn321 O333 2.034 . S
O322 C306 1.251 . S
O322 Zn313 2.039 . S
C323 O328 1.246 . S
C323 O329 1.249 . S
O324 C306 1.254 . S
O324 Zn321 2.025 . S
H325 C317 0.952 . S
H326 C308 0.952 . S
H327 C316 0.948 . S
O328 Zn313 2.034 . S
O328 C323 1.246 . S
O329 Zn321 2.024 . S
O329 C323 1.249 . S
H330 C312 0.948 . S
O331 Zn321 2.039 . S
O331 C335 1.251 . S
O332 Zn313 2.025 . S
O332 C335 1.254 . S
O333 C314 1.246 . S
O333 Zn321 2.034 . S
O334 Zn313 2.024 . S
O334 C314 1.249 . S
C335 O331 1.251 . S
C335 O332 1.254 . S
H336 C309 0.949 . S
H337 C311 0.950 1_554 S
H338 C318 0.949 . S
H339 C320 0.950 . S
C340 O356 1.251 . S
C340 O358 1.254 . S
N341 C342 1.333 . S
N341 C346 1.307 . S
N341 Zn347 2.020 . S
C342 N341 1.333 . S
C342 C343 1.379 . S
C342 H360 0.952 . S
C343 C342 1.379 . S
C343 C344 1.390 . S
C343 H370 0.949 . S
C344 C343 1.390 . S
C344 C345 1.357 . S
C345 C344 1.357 . S
C345 C346 1.370 . S
C345 H371 0.950 . S
C346 N341 1.307 . S
C346 C345 1.370 . S
C346 H364 0.948 . S
Zn347 N341 2.020 . S
Zn347 O356 2.039 . S
Zn347 O362 2.034 . S
Zn347 O366 2.025 . S
Zn347 O368 2.024 . S
C348 O367 1.246 . S
C348 O368 1.249 . S
N349 C350 1.307 . S
N349 C351 1.333 . S
N349 Zn355 2.020 . S
C350 N349 1.307 . S
C350 C354 1.370 . S
C350 H361 0.948 . S
C351 N349 1.333 . S
C351 C352 1.379 . S
C351 H359 0.952 . S
C352 C351 1.379 . S
C352 C353 1.390 . S
C352 H372 0.949 . S
C353 C352 1.390 . S
C353 C354 1.357 . S
C354 C350 1.370 . S
C354 C353 1.357 . S
C354 H373 0.950 1_565 S
Zn355 N349 2.020 . S
Zn355 O358 2.025 . S
Zn355 O363 2.024 . S
Zn355 O365 2.039 . S
Zn355 O367 2.034 . S
O356 C340 1.251 . S
O356 Zn347 2.039 . S
C357 O362 1.246 . S
C357 O363 1.249 . S
O358 C340 1.254 . S
O358 Zn355 2.025 . S
H359 C351 0.952 . S
H360 C342 0.952 . S
H361 C350 0.948 . S
O362 Zn347 2.034 . S
O362 C357 1.246 . S
O363 Zn355 2.024 . S
O363 C357 1.249 . S
H364 C346 0.948 . S
O365 Zn355 2.039 . S
O365 C369 1.251 . S
O366 Zn347 2.025 . S
O366 C369 1.254 . S
O367 C348 1.246 . S
O367 Zn355 2.034 . S
O368 Zn347 2.024 . S
O368 C348 1.249 . S
C369 O365 1.251 . S
C369 O366 1.254 . S
H370 C343 0.949 . S
H371 C345 0.950 . S
H372 C352 0.949 . S
H373 C354 0.950 1_545 S
C374 O390 1.251 . S
C374 O392 1.254 . S
N375 C376 1.333 . S
N375 C380 1.307 . S
N375 Zn381 2.020 . S
C376 N375 1.333 . S
C376 C377 1.379 . S
C376 H394 0.952 . S
C377 C376 1.379 . S
C377 C378 1.390 . S
C377 H404 0.949 . S
C378 C377 1.390 . S
C378 C379 1.357 . S
C379 C378 1.357 . S
C379 C380 1.370 . S
C379 H405 0.950 . S
C380 N375 1.307 . S
C380 C379 1.370 . S
C380 H398 0.948 . S
Zn381 N375 2.020 . S
Zn381 O390 2.039 . S
Zn381 O396 2.034 . S
Zn381 O400 2.025 . S
Zn381 O402 2.024 . S
C382 O401 1.246 . S
C382 O402 1.249 . S
N383 C384 1.307 . S
N383 C385 1.333 . S
N383 Zn389 2.020 . S
C384 N383 1.307 . S
C384 C388 1.370 . S
C384 H395 0.948 . S
C385 N383 1.333 . S
C385 C386 1.379 . S
C385 H393 0.952 . S
C386 C385 1.379 . S
C386 C387 1.390 . S
C386 H406 0.949 . S
C387 C386 1.390 . S
C387 C388 1.357 . S
C388 C384 1.370 . S
C388 C387 1.357 . S
C388 H407 0.950 . S
Zn389 N383 2.020 . S
Zn389 O392 2.025 . S
Zn389 O397 2.024 . S
Zn389 O399 2.039 . S
Zn389 O401 2.034 . S
O390 C374 1.251 . S
O390 Zn381 2.039 . S
C391 O396 1.246 . S
C391 O397 1.249 . S
O392 C374 1.254 . S
O392 Zn389 2.025 . S
H393 C385 0.952 . S
H394 C376 0.952 . S
H395 C384 0.948 . S
O396 Zn381 2.034 . S
O396 C391 1.246 . S
O397 Zn389 2.024 . S
O397 C391 1.249 . S
H398 C380 0.948 . S
O399 Zn389 2.039 . S
O399 C403 1.251 . S
O400 Zn381 2.025 . S
O400 C403 1.254 . S
O401 C382 1.246 . S
O401 Zn389 2.034 . S
O402 Zn381 2.024 . S
O402 C382 1.249 . S
C403 O399 1.251 . S
C403 O400 1.254 . S
H404 C377 0.949 . S
H405 C379 0.950 . S
H406 C386 0.949 . S
H407 C388 0.950 . S
C408 C409 1.391 . S
C408 C410 1.394 . S
C408 H424 0.931 . S
C409 C408 1.391 . S
C409 C413 1.376 . S
C410 C408 1.394 . S
C410 C411 1.369 . S
C410 C414 1.531 . S
C411 C410 1.369 . S
C411 C412 1.410 . S
C411 C419 1.503 . S
C412 C411 1.410 . S
C412 C413 1.392 . S
C412 C415 1.511 . S
C413 C409 1.376 . S
C413 C412 1.392 . S
C413 H425 0.929 . S
C414 C410 1.531 . S
C414 H426 0.960 . S
C414 H427 0.962 . S
C414 H428 0.960 . S
C415 C412 1.511 . S
C415 H429 0.961 . S
C415 H430 0.961 . S
C415 H431 0.961 . S
C416 C417 1.370 . S
C416 C418 1.363 . S
C416 H432 0.931 . S
C417 C416 1.370 . S
C417 C421 1.408 . S
C418 C416 1.363 . S
C418 C419 1.370 . S
C418 C422 1.524 . S
C419 C411 1.503 . S
C419 C418 1.370 . S
C419 C420 1.403 . S
C420 C419 1.403 . S
C420 C421 1.404 . S
C420 C423 1.539 . S
C421 C417 1.408 . S
C421 C420 1.404 . S
C421 H433 0.930 . S
C422 C418 1.524 . S
C422 H434 0.956 . S
C422 H435 0.961 . S
C422 H436 0.961 . S
C423 C420 1.539 . S
C423 H437 0.958 . S
C423 H438 0.961 . S
C423 H439 0.960 . S
H424 C408 0.931 . S
H425 C413 0.929 . S
H426 C414 0.960 . S
H427 C414 0.962 . S
H428 C414 0.960 . S
H429 C415 0.961 . S
H430 C415 0.961 . S
H431 C415 0.961 . S
H432 C416 0.931 . S
H433 C421 0.930 . S
H434 C422 0.956 . S
H435 C422 0.961 . S
H436 C422 0.961 . S
H437 C423 0.958 . S
H438 C423 0.961 . S
H439 C423 0.960 . S
C440 C441 1.391 1_545 S
C440 C442 1.394 . S
C440 H456 0.931 . S
C441 C440 1.391 1_565 S
C441 C445 1.376 . S
C442 C440 1.394 . S
C442 C443 1.369 . S
C442 C446 1.531 . S
C443 C442 1.369 . S
C443 C444 1.410 1_545 S
C443 C451 1.503 . S
C444 C443 1.410 1_565 S
C444 C445 1.392 . S
C444 C447 1.511 . S
C445 C441 1.376 . S
C445 C444 1.392 . S
C445 H457 0.929 . S
C446 C442 1.531 . S
C446 H458 0.960 . S
C446 H459 0.962 . S
C446 H460 0.960 . S
C447 C444 1.511 . S
C447 H461 0.961 . S
C447 H462 0.961 . S
C447 H463 0.961 . S
C448 C449 1.370 1_565 S
C448 C450 1.363 . S
C448 H464 0.931 . S
C449 C448 1.370 1_545 S
C449 C453 1.408 . S
C450 C448 1.363 . S
C450 C451 1.370 1_565 S
C450 C454 1.524 . S
C451 C443 1.503 . S
C451 C450 1.370 1_545 S
C451 C452 1.403 . S
C452 C451 1.403 . S
C452 C453 1.404 . S
C452 C455 1.539 . S
C453 C449 1.408 . S
C453 C452 1.404 . S
C453 H465 0.930 . S
C454 C450 1.524 . S
C454 H466 0.956 . S
C454 H467 0.961 . S
C454 H468 0.961 . S
C455 C452 1.539 . S
C455 H469 0.958 . S
C455 H470 0.961 . S
C455 H471 0.960 . S
H456 C440 0.931 . S
H457 C445 0.929 . S
H458 C446 0.960 . S
H459 C446 0.962 . S
H460 C446 0.960 . S
H461 C447 0.961 . S
H462 C447 0.961 . S
H463 C447 0.961 . S
H464 C448 0.931 . S
H465 C453 0.930 . S
H466 C454 0.956 . S
H467 C454 0.961 . S
H468 C454 0.961 . S
H469 C455 0.958 . S
H470 C455 0.961 . S
H471 C455 0.960 . S
C472 C473 1.391 . S
C472 C474 1.394 . S
C472 H488 0.931 . S
C473 C472 1.391 . S
C473 C477 1.376 1_554 S
C474 C472 1.394 . S
C474 C475 1.369 . S
C474 C478 1.531 . S
C475 C474 1.369 . S
C475 C476 1.410 . S
C475 C483 1.503 . S
C476 C475 1.410 . S
C476 C477 1.392 1_554 S
C476 C479 1.511 . S
C477 C473 1.376 1_556 S
C477 C476 1.392 1_556 S
C477 H489 0.929 . S
C478 C474 1.531 . S
C478 H490 0.960 . S
C478 H491 0.962 . S
C478 H492 0.960 . S
C479 C476 1.511 . S
C479 H493 0.961 1_554 S
C479 H494 0.961 . S
C479 H495 0.961 . S
C480 C481 1.370 . S
C480 C482 1.363 . S
C480 H496 0.931 . S
C481 C480 1.370 . S
C481 C485 1.408 . S
C482 C480 1.363 . S
C482 C483 1.370 . S
C482 C486 1.524 1_554 S
C483 C475 1.503 . S
C483 C482 1.370 . S
C483 C484 1.403 . S
C484 C483 1.403 . S
C484 C485 1.404 . S
C484 C487 1.539 . S
C485 C481 1.408 . S
C485 C484 1.404 . S
C485 H497 0.930 . S
C486 C482 1.524 1_556 S
C486 H498 0.956 . S
C486 H499 0.961 . S
C486 H500 0.961 . S
C487 C484 1.539 . S
C487 H501 0.958 . S
C487 H502 0.961 . S
C487 H503 0.960 . S
H488 C472 0.931 . S
H489 C477 0.929 . S
H490 C478 0.960 . S
H491 C478 0.962 . S
H492 C478 0.960 . S
H493 C479 0.961 1_556 S
H494 C479 0.961 . S
H495 C479 0.961 . S
H496 C480 0.931 . S
H497 C485 0.930 . S
H498 C486 0.956 . S
H499 C486 0.961 . S
H500 C486 0.961 . S
H501 C487 0.958 . S
H502 C487 0.961 . S
H503 C487 0.960 . S
C504 C505 1.391 1_565 S
C504 C506 1.394 . S
C504 H520 0.931 . S
C505 C504 1.391 1_545 S
C505 C509 1.376 . S
C506 C504 1.394 . S
C506 C507 1.369 1_565 S
C506 C510 1.531 . S
C507 C506 1.369 1_545 S
C507 C508 1.410 . S
C507 C515 1.510 . S
C508 C507 1.410 . S
C508 C509 1.392 . S
C508 C511 1.511 . S
C509 C505 1.376 . S
C509 C508 1.392 . S
C509 H521 0.929 . S
C510 C506 1.531 . S
C510 H522 0.960 . S
C510 H523 0.962 . S
C510 H524 0.960 . S
C511 C508 1.511 . S
C511 H525 0.961 . S
C511 H526 0.961 . S
C511 H527 0.961 . S
C512 C513 1.370 . S
C512 C514 1.363 . S
C512 H528 0.931 . S
C513 C512 1.370 . S
C513 C517 1.408 1_565 S
C514 C512 1.363 . S
C514 C515 1.343 1_565 S
C514 C518 1.524 . S
C515 C507 1.510 . S
C515 C514 1.343 1_545 S
C515 C516 1.424 . S
C516 C515 1.424 . S
C516 C517 1.404 . S
C516 C519 1.539 . S
C517 C513 1.408 1_545 S
C517 C516 1.404 . S
C517 H529 0.930 . S
C518 C514 1.524 . S
C518 H530 0.956 . S
C518 H531 0.961 . S
C518 H532 0.961 . S
C519 C516 1.539 . S
C519 H533 0.958 . S
C519 H534 0.961 . S
C519 H535 0.960 . S
H520 C504 0.931 . S
H521 C509 0.929 . S
H522 C510 0.960 . S
H523 C510 0.962 . S
H524 C510 0.960 . S
H525 C511 0.961 . S
H526 C511 0.961 . S
H527 C511 0.961 . S
H528 C512 0.931 . S
H529 C517 0.930 . S
H530 C518 0.956 . S
H531 C518 0.961 . S
H532 C518 0.961 . S
H533 C519 0.958 . S
H534 C519 0.961 . S
H535 C519 0.960 . S
C536 C537 1.391 . S
C536 C538 1.394 . S
C536 H552 0.931 . S
C537 C536 1.391 . S
C537 C541 1.376 . S
C538 C536 1.394 . S
C538 C539 1.369 . S
C538 C542 1.531 . S
C539 C538 1.369 . S
C539 C540 1.410 . S
C539 C547 1.503 . S
C540 C539 1.410 . S
C540 C541 1.392 . S
C540 C543 1.511 . S
C541 C537 1.376 . S
C541 C540 1.392 . S
C541 H553 0.929 . S
C542 C538 1.531 . S
C542 H554 0.960 . S
C542 H555 0.962 . S
C542 H556 0.960 . S
C543 C540 1.511 . S
C543 H557 0.961 . S
C543 H558 0.961 . S
C543 H559 0.961 . S
C544 C545 1.370 . S
C544 C546 1.363 1_565 S
C544 H560 0.931 . S
C545 C544 1.370 . S
C545 C549 1.408 1_565 S
C546 C544 1.363 1_545 S
C546 C547 1.370 . S
C546 C550 1.524 . S
C547 C539 1.503 . S
C547 C546 1.370 . S
C547 C548 1.403 . S
C548 C547 1.403 . S
C548 C549 1.404 . S
C548 C551 1.539 . S
C549 C545 1.408 1_545 S
C549 C548 1.404 . S
C549 H561 0.930 1_545 S
C550 C546 1.524 . S
C550 H562 0.956 . S
C550 H563 0.961 . S
C550 H564 0.961 . S
C551 C548 1.539 . S
C551 H565 0.958 . S
C551 H566 0.961 . S
C551 H567 0.960 . S
H552 C536 0.931 . S
H553 C541 0.929 . S
H554 C542 0.960 . S
H555 C542 0.962 . S
H556 C542 0.960 . S
H557 C543 0.961 . S
H558 C543 0.961 . S
H559 C543 0.961 . S
H560 C544 0.931 . S
H561 C549 0.930 1_565 S
H562 C550 0.956 . S
H563 C550 0.961 . S
H564 C550 0.961 . S
H565 C551 0.958 . S
H566 C551 0.961 . S
H567 C551 0.960 . S
C568 C569 1.391 . S
C568 C570 1.394 . S
C568 H584 0.931 . S
C569 C568 1.391 . S
C569 C573 1.376 . S
C570 C568 1.394 . S
C570 C571 1.369 . S
C570 C574 1.531 . S
C571 C570 1.369 . S
C571 C572 1.410 . S
C571 C579 1.503 . S
C572 C571 1.410 . S
C572 C573 1.392 . S
C572 C575 1.511 . S
C573 C569 1.376 . S
C573 C572 1.392 . S
C573 H585 0.929 . S
C574 C570 1.531 . S
C574 H586 0.960 . S
C574 H587 0.962 . S
C574 H588 0.960 . S
C575 C572 1.511 . S
C575 H589 0.961 . S
C575 H590 0.961 . S
C575 H591 0.961 . S
C576 C577 1.370 . S
C576 C578 1.363 . S
C576 H592 0.931 . S
C577 C576 1.370 . S
C577 C581 1.408 . S
C578 C576 1.363 . S
C578 C579 1.370 . S
C578 C582 1.524 . S
C579 C571 1.503 . S
C579 C578 1.370 . S
C579 C580 1.403 . S
C580 C579 1.403 . S
C580 C581 1.404 . S
C580 C583 1.539 . S
C581 C577 1.408 . S
C581 C580 1.404 . S
C581 H593 0.930 . S
C582 C578 1.524 . S
C582 H594 0.956 . S
C582 H595 0.961 . S
C582 H596 0.961 . S
C583 C580 1.539 . S
C583 H597 0.958 . S
C583 H598 0.961 . S
C583 H599 0.960 . S
H584 C568 0.931 . S
H585 C573 0.929 . S
H586 C574 0.960 . S
H587 C574 0.962 . S
H588 C574 0.960 . S
H589 C575 0.961 . S
H590 C575 0.961 . S
H591 C575 0.961 . S
H592 C576 0.931 . S
H593 C581 0.930 . S
H594 C582 0.956 . S
H595 C582 0.961 . S
H596 C582 0.961 . S
H597 C583 0.958 . S
H598 C583 0.961 . S
H599 C583 0.960 . S
C600 C601 1.391 . S
C600 C602 1.394 . S
C600 H616 0.931 . S
C601 C600 1.391 . S
C601 C605 1.376 . S
C602 C600 1.394 . S
C602 C603 1.369 . S
C602 C606 1.531 . S
C603 C602 1.369 . S
C603 C604 1.410 . S
C603 C611 1.503 . S
C604 C603 1.410 . S
C604 C605 1.392 . S
C604 C607 1.511 . S
C605 C601 1.376 . S
C605 C604 1.392 . S
C605 H617 0.929 . S
C606 C602 1.531 . S
C606 H618 0.960 . S
C606 H619 0.962 1_556 S
C606 H620 0.960 1_556 S
C607 C604 1.511 . S
C607 H621 0.961 . S
C607 H622 0.961 . S
C607 H623 0.961 . S
C608 C609 1.370 . S
C608 C610 1.363 . S
C608 H624 0.931 . S
C609 C608 1.370 . S
C609 C613 1.408 . S
C610 C608 1.363 . S
C610 C611 1.370 . S
C610 C614 1.524 . S
C611 C603 1.503 . S
C611 C610 1.370 . S
C611 C612 1.403 . S
C612 C611 1.403 . S
C612 C613 1.404 . S
C612 C615 1.539 . S
C613 C609 1.408 . S
C613 C612 1.404 . S
C613 H625 0.930 . S
C614 C610 1.524 . S
C614 H626 0.956 . S
C614 H627 0.961 . S
C614 H628 0.961 . S
C615 C612 1.539 . S
C615 H629 0.958 . S
C615 H630 0.961 . S
C615 H631 0.960 . S
H616 C600 0.931 . S
H617 C605 0.929 . S
H618 C606 0.960 . S
H619 C606 0.962 1_554 S
H620 C606 0.960 1_554 S
H621 C607 0.961 . S
H622 C607 0.961 . S
H623 C607 0.961 . S
H624 C608 0.931 . S
H625 C613 0.930 . S
H626 C614 0.956 . S
H627 C614 0.961 . S
H628 C614 0.961 . S
H629 C615 0.958 . S
H630 C615 0.961 . S
H631 C615 0.960 . S
C632 C633 1.391 . S
C632 C634 1.394 . S
C632 H648 0.931 . S
C633 C632 1.391 . S
C633 C637 1.376 . S
C634 C632 1.394 . S
C634 C635 1.369 . S
C634 C638 1.531 . S
C635 C634 1.369 . S
C635 C636 1.410 . S
C635 C643 1.503 . S
C636 C635 1.410 . S
C636 C637 1.392 . S
C636 C639 1.511 . S
C637 C633 1.376 . S
C637 C636 1.392 . S
C637 H649 0.929 . S
C638 C634 1.531 . S
C638 H650 0.960 . S
C638 H651 0.962 . S
C638 H652 0.960 . S
C639 C636 1.511 . S
C639 H653 0.961 . S
C639 H654 0.961 . S
C639 H655 0.961 . S
C640 C641 1.370 . S
C640 C642 1.363 . S
C640 H656 0.931 . S
C641 C640 1.370 . S
C641 C645 1.408 . S
C642 C640 1.363 . S
C642 C643 1.370 . S
C642 C646 1.524 . S
C643 C635 1.503 . S
C643 C642 1.370 . S
C643 C644 1.403 . S
C644 C643 1.403 . S
C644 C645 1.404 . S
C644 C647 1.539 . S
C645 C641 1.408 . S
C645 C644 1.404 . S
C645 H657 0.930 . S
C646 C642 1.524 . S
C646 H658 0.956 . S
C646 H659 0.961 . S
C646 H660 0.961 . S
C647 C644 1.539 . S
C647 H661 0.958 . S
C647 H662 0.961 . S
C647 H663 0.960 . S
H648 C632 0.931 . S
H649 C637 0.929 . S
H650 C638 0.960 . S
H651 C638 0.962 . S
H652 C638 0.960 . S
H653 C639 0.961 . S
H654 C639 0.961 . S
H655 C639 0.961 . S
H656 C640 0.931 . S
H657 C645 0.930 . S
H658 C646 0.956 . S
H659 C646 0.961 . S
H660 C646 0.961 . S
H661 C647 0.958 . S
H662 C647 0.961 . S
H663 C647 0.960 . S
C664 C665 1.391 . S
C664 C666 1.394 . S
C664 H680 0.931 . S
C665 C664 1.391 . S
C665 C669 1.376 . S
C666 C664 1.394 . S
C666 C667 1.369 . S
C666 C670 1.531 . S
C667 C666 1.369 . S
C667 C668 1.410 . S
C667 C675 1.503 . S
C668 C667 1.410 . S
C668 C669 1.392 . S
C668 C671 1.511 . S
C669 C665 1.376 . S
C669 C668 1.392 . S
C669 H681 0.929 . S
C670 C666 1.531 . S
C670 H682 0.960 . S
C670 H683 0.962 . S
C670 H684 0.960 . S
C671 C668 1.511 . S
C671 H685 0.961 . S
C671 H686 0.961 . S
C671 H687 0.961 . S
C672 C673 1.370 . S
C672 C674 1.363 . S
C672 H688 0.931 . S
C673 C672 1.370 . S
C673 C677 1.408 . S
C674 C672 1.363 . S
C674 C675 1.370 . S
C674 C678 1.524 . S
C675 C667 1.503 . S
C675 C674 1.370 . S
C675 C676 1.403 . S
C676 C675 1.403 . S
C676 C677 1.404 . S
C676 C679 1.539 . S
C677 C673 1.408 . S
C677 C676 1.404 . S
C677 H689 0.930 . S
C678 C674 1.524 . S
C678 H690 0.956 . S
C678 H691 0.961 . S
C678 H692 0.961 . S
C679 C676 1.539 . S
C679 H693 0.958 . S
C679 H694 0.961 . S
C679 H695 0.960 . S
H680 C664 0.931 . S
H681 C669 0.929 . S
H682 C670 0.960 . S
H683 C670 0.962 . S
H684 C670 0.960 . S
H685 C671 0.961 . S
H686 C671 0.961 . S
H687 C671 0.961 . S
H688 C672 0.931 . S
H689 C677 0.930 . S
H690 C678 0.956 . S
H691 C678 0.961 . S
H692 C678 0.961 . S
H693 C679 0.958 . S
H694 C679 0.961 . S
H695 C679 0.960 . S
C696 C697 1.391 . S
C696 C698 1.394 . S
C696 H712 0.931 . S
C697 C696 1.391 . S
C697 C701 1.376 . S
C698 C696 1.394 . S
C698 C699 1.369 . S
C698 C702 1.531 . S
C699 C698 1.369 . S
C699 C700 1.410 . S
C699 C707 1.503 . S
C700 C699 1.410 . S
C700 C701 1.392 . S
C700 C703 1.511 1_455 S
C701 C697 1.376 . S
C701 C700 1.392 . S
C701 H713 0.929 . S
C702 C698 1.531 . S
C702 H714 0.960 . S
C702 H715 0.962 . S
C702 H716 0.960 . S
C703 C700 1.511 1_655 S
C703 H717 0.961 . S
C703 H718 0.961 . S
C703 H719 0.961 . S
C704 C705 1.370 . S
C704 C706 1.348 1_655 S
C704 H720 0.931 . S
C705 C704 1.370 . S
C705 C709 1.408 . S
C706 C704 1.348 1_455 S
C706 C707 1.378 . S
C706 C710 1.533 . S
C707 C699 1.503 . S
C707 C706 1.378 . S
C707 C708 1.403 . S
C708 C707 1.403 . S
C708 C709 1.404 1_455 S
C708 C711 1.539 . S
C709 C705 1.408 . S
C709 C708 1.404 1_655 S
C709 H721 0.930 . S
C710 C706 1.533 . S
C710 H722 0.956 . S
C710 H723 0.961 1_455 S
C710 H724 0.961 1_455 S
C711 C708 1.539 . S
C711 H725 0.958 . S
C711 H726 0.964 1_455 S
C711 H727 0.960 . S
H712 C696 0.931 . S
H713 C701 0.929 . S
H714 C702 0.960 . S
H715 C702 0.962 . S
H716 C702 0.960 . S
H717 C703 0.961 . S
H718 C703 0.961 . S
H719 C703 0.961 . S
H720 C704 0.931 . S
H721 C709 0.930 . S
H722 C710 0.956 . S
H723 C710 0.961 1_655 S
H724 C710 0.961 1_655 S
H725 C711 0.958 . S
H726 C711 0.964 1_655 S
H727 C711 0.960 . S
C728 C729 1.391 . S
C728 C730 1.386 1_455 S
C728 H744 0.931 . S
C729 C728 1.391 . S
C729 C733 1.376 . S
C730 C728 1.386 1_655 S
C730 C731 1.367 1_655 S
C730 C734 1.541 . S
C731 C730 1.367 1_455 S
C731 C732 1.410 . S
C731 C739 1.503 1_455 S
C732 C731 1.410 . S
C732 C733 1.392 . S
C732 C735 1.511 . S
C733 C729 1.376 . S
C733 C732 1.392 . S
C733 H745 0.929 . S
C734 C730 1.541 . S
C734 H746 0.960 . S
C734 H747 0.962 . S
C734 H748 0.960 . S
C735 C732 1.511 . S
C735 H749 0.961 . S
C735 H750 0.961 . S
C735 H751 0.961 . S
C736 C737 1.370 . S
C736 C738 1.363 . S
C736 H752 0.931 . S
C737 C736 1.370 . S
C737 C741 1.408 . S
C738 C736 1.363 . S
C738 C739 1.370 . S
C738 C742 1.524 . S
C739 C731 1.503 1_655 S
C739 C738 1.370 . S
C739 C740 1.403 1_655 S
C740 C739 1.403 1_455 S
C740 C741 1.404 1_455 S
C740 C743 1.539 . S
C741 C737 1.408 . S
C741 C740 1.404 1_655 S
C741 H753 0.930 . S
C742 C738 1.524 . S
C742 H754 0.956 . S
C742 H755 0.961 . S
C742 H756 0.961 . S
C743 C740 1.539 . S
C743 H757 0.958 . S
C743 H758 0.961 . S
C743 H759 0.960 . S
H744 C728 0.931 . S
H745 C733 0.929 . S
H746 C734 0.960 . S
H747 C734 0.962 . S
H748 C734 0.960 . S
H749 C735 0.961 . S
H750 C735 0.961 . S
H751 C735 0.961 . S
H752 C736 0.931 . S
H753 C741 0.930 . S
H754 C742 0.956 . S
H755 C742 0.961 . S
H756 C742 0.961 . S
H757 C743 0.958 . S
H758 C743 0.961 . S
H759 C743 0.960 . S
C760 C761 1.391 . S
C760 C762 1.394 . S
C760 H776 0.931 . S
C761 C760 1.391 . S
C761 C765 1.376 . S
C762 C760 1.394 . S
C762 C763 1.369 . S
C762 C766 1.531 . S
C763 C762 1.369 . S
C763 C764 1.410 . S
C763 C771 1.503 . S
C764 C763 1.410 . S
C764 C765 1.392 . S
C764 C767 1.511 . S
C765 C761 1.376 . S
C765 C764 1.392 . S
C765 H777 0.929 . S
C766 C762 1.531 . S
C766 H778 0.960 . S
C766 H779 0.962 . S
C766 H780 0.960 . S
C767 C764 1.511 . S
C767 H781 0.961 . S
C767 H782 0.961 . S
C767 H783 0.961 . S
C768 C769 1.370 . S
C768 C770 1.363 . S
C768 H784 0.931 . S
C769 C768 1.370 . S
C769 C773 1.408 . S
C770 C768 1.363 . S
C770 C771 1.370 . S
C770 C774 1.524 . S
C771 C763 1.503 . S
C771 C770 1.370 . S
C771 C772 1.403 . S
C772 C771 1.403 . S
C772 C773 1.404 . S
C772 C775 1.539 . S
C773 C769 1.408 . S
C773 C772 1.404 . S
C773 H785 0.930 . S
C774 C770 1.524 . S
C774 H786 0.956 . S
C774 H787 0.961 . S
C774 H788 0.961 . S
C775 C772 1.539 . S
C775 H789 0.958 . S
C775 H790 0.961 . S
C775 H791 0.960 . S
H776 C760 0.931 . S
H777 C765 0.929 . S
H778 C766 0.960 . S
H779 C766 0.962 . S
H780 C766 0.960 . S
H781 C767 0.961 . S
H782 C767 0.961 . S
H783 C767 0.961 . S
H784 C768 0.931 . S
H785 C773 0.930 . S
H786 C774 0.956 . S
H787 C774 0.961 . S
H788 C774 0.961 . S
H789 C775 0.958 . S
H790 C775 0.961 . S
H791 C775 0.960 . S
C792 C793 1.391 . S
C792 C794 1.394 . S
C792 H808 0.931 . S
C793 C792 1.391 . S
C793 C797 1.376 . S
C794 C792 1.394 . S
C794 C795 1.369 . S
C794 C798 1.531 . S
C795 C794 1.369 . S
C795 C796 1.410 . S
C795 C803 1.503 . S
C796 C795 1.410 . S
C796 C797 1.392 . S
C796 C799 1.511 . S
C797 C793 1.376 . S
C797 C796 1.392 . S
C797 H809 0.929 . S
C798 C794 1.531 . S
C798 H810 0.960 . S
C798 H811 0.962 . S
C798 H812 0.960 . S
C799 C796 1.511 . S
C799 H813 0.961 . S
C799 H814 0.961 . S
C799 H815 0.961 . S
C800 C801 1.370 . S
C800 C802 1.363 . S
C800 H816 0.931 . S
C801 C800 1.370 . S
C801 C805 1.408 . S
C802 C800 1.363 . S
C802 C803 1.370 . S
C802 C806 1.524 . S
C803 C795 1.503 . S
C803 C802 1.370 . S
C803 C804 1.403 . S
C804 C803 1.403 . S
C804 C805 1.404 . S
C804 C807 1.539 . S
C805 C801 1.408 . S
C805 C804 1.404 . S
C805 H817 0.930 . S
C806 C802 1.524 . S
C806 H818 0.956 . S
C806 H819 0.961 . S
C806 H820 0.961 . S
C807 C804 1.539 . S
C807 H821 0.958 . S
C807 H822 0.961 . S
C807 H823 0.960 . S
H808 C792 0.931 . S
H809 C797 0.929 . S
H810 C798 0.960 . S
H811 C798 0.962 . S
H812 C798 0.960 . S
H813 C799 0.961 . S
H814 C799 0.961 . S
H815 C799 0.961 . S
H816 C800 0.931 . S
H817 C805 0.930 . S
H818 C806 0.956 . S
H819 C806 0.961 . S
H820 C806 0.961 . S
H821 C807 0.958 . S
H822 C807 0.961 . S
H823 C807 0.960 . S
C824 C825 1.391 . S
C824 C826 1.394 . S
C824 H840 0.931 . S
C825 C824 1.391 . S
C825 C829 1.376 1_455 S
C826 C824 1.394 . S
C826 C827 1.369 1_455 S
C826 C830 1.531 . S
C827 C826 1.369 1_655 S
C827 C828 1.410 . S
C827 C835 1.503 . S
C828 C827 1.410 . S
C828 C829 1.392 . S
C828 C831 1.511 . S
C829 C825 1.376 1_655 S
C829 C828 1.392 . S
C829 H841 0.929 . S
C830 C826 1.531 . S
C830 H842 0.960 . S
C830 H843 0.962 . S
C830 H844 0.960 . S
C831 C828 1.511 . S
C831 H845 0.961 . S
C831 H846 0.961 . S
C831 H847 0.961 . S
C832 C833 1.370 . S
C832 C834 1.363 . S
C832 H848 0.931 . S
C833 C832 1.370 . S
C833 C837 1.408 . S
C834 C832 1.363 . S
C834 C835 1.370 . S
C834 C838 1.532 . S
C835 C827 1.503 . S
C835 C834 1.370 . S
C835 C836 1.403 . S
C836 C835 1.403 . S
C836 C837 1.404 . S
C836 C839 1.539 . S
C837 C833 1.408 . S
C837 C836 1.404 . S
C837 H849 0.930 . S
C838 C834 1.532 . S
C838 H850 0.945 1_655 S
C838 H851 0.963 . S
C838 H852 0.962 . S
C839 C836 1.539 . S
C839 H853 0.958 . S
C839 H854 0.961 . S
C839 H855 0.960 . S
H840 C824 0.931 . S
H841 C829 0.929 . S
H842 C830 0.960 . S
H843 C830 0.962 . S
H844 C830 0.960 . S
H845 C831 0.961 . S
H846 C831 0.961 . S
H847 C831 0.961 . S
H848 C832 0.931 . S
H849 C837 0.930 . S
H850 C838 0.945 1_455 S
H851 C838 0.963 . S
H852 C838 0.962 . S
H853 C839 0.958 . S
H854 C839 0.961 . S
H855 C839 0.960 . S
C856 C857 1.391 . S
C856 C858 1.394 . S
C856 H872 0.931 . S
C857 C856 1.391 . S
C857 C861 1.376 . S
C858 C856 1.394 . S
C858 C859 1.369 . S
C858 C862 1.531 . S
C859 C858 1.369 . S
C859 C860 1.410 . S
C859 C867 1.503 . S
C860 C859 1.410 . S
C860 C861 1.392 . S
C860 C863 1.511 . S
C861 C857 1.376 . S
C861 C860 1.392 . S
C861 H873 0.929 . S
C862 C858 1.531 . S
C862 H874 0.960 . S
C862 H875 0.962 . S
C862 H876 0.960 . S
C863 C860 1.511 . S
C863 H877 0.961 . S
C863 H878 0.961 . S
C863 H879 0.961 . S
C864 C865 1.370 . S
C864 C866 1.363 . S
C864 H880 0.931 . S
C865 C864 1.370 . S
C865 C869 1.408 . S
C866 C864 1.363 . S
C866 C867 1.370 . S
C866 C870 1.524 . S
C867 C859 1.503 . S
C867 C866 1.370 . S
C867 C868 1.403 . S
C868 C867 1.403 . S
C868 C869 1.404 . S
C868 C871 1.539 . S
C869 C865 1.408 . S
C869 C868 1.404 . S
C869 H881 0.930 . S
C870 C866 1.524 . S
C870 H882 0.956 . S
C870 H883 0.961 . S
C870 H884 0.961 . S
C871 C868 1.539 . S
C871 H885 0.958 . S
C871 H886 0.961 . S
C871 H887 0.960 . S
H872 C856 0.931 . S
H873 C861 0.929 . S
H874 C862 0.960 . S
H875 C862 0.962 . S
H876 C862 0.960 . S
H877 C863 0.961 . S
H878 C863 0.961 . S
H879 C863 0.961 . S
H880 C864 0.931 . S
H881 C869 0.930 . S
H882 C870 0.956 . S
H883 C870 0.961 . S
H884 C870 0.961 . S
H885 C871 0.958 . S
H886 C871 0.961 . S
H887 C871 0.960 . S
C888 C889 1.391 . S
C888 C890 1.394 . S
C888 H904 0.931 . S
C889 C888 1.391 . S
C889 C893 1.376 . S
C890 C888 1.394 . S
C890 C891 1.369 . S
C890 C894 1.531 . S
C891 C890 1.369 . S
C891 C892 1.410 . S
C891 C899 1.503 . S
C892 C891 1.410 . S
C892 C893 1.392 . S
C892 C895 1.511 . S
C893 C889 1.376 . S
C893 C892 1.392 . S
C893 H905 0.929 . S
C894 C890 1.531 . S
C894 H906 0.960 . S
C894 H907 0.962 . S
C894 H908 0.960 . S
C895 C892 1.511 . S
C895 H909 0.961 . S
C895 H910 0.961 . S
C895 H911 0.961 . S
C896 C897 1.370 1_554 S
C896 C898 1.363 . S
C896 H912 0.931 1_554 S
C897 C896 1.370 1_556 S
C897 C901 1.408 1_556 S
C898 C896 1.363 . S
C898 C899 1.370 . S
C898 C902 1.524 . S
C899 C891 1.503 . S
C899 C898 1.370 . S
C899 C900 1.403 . S
C900 C899 1.403 . S
C900 C901 1.404 . S
C900 C903 1.539 . S
C901 C897 1.408 1_554 S
C901 C900 1.404 . S
C901 H913 0.930 . S
C902 C898 1.524 . S
C902 H914 0.956 . S
C902 H915 0.961 . S
C902 H916 0.961 . S
C903 C900 1.539 . S
C903 H917 0.958 . S
C903 H918 0.961 . S
C903 H919 0.960 . S
H904 C888 0.931 . S
H905 C893 0.929 . S
H906 C894 0.960 . S
H907 C894 0.962 . S
H908 C894 0.960 . S
H909 C895 0.961 . S
H910 C895 0.961 . S
H911 C895 0.961 . S
H912 C896 0.931 1_556 S
H913 C901 0.930 . S
H914 C902 0.956 . S
H915 C902 0.961 . S
H916 C902 0.961 . S
H917 C903 0.958 . S
H918 C903 0.961 . S
H919 C903 0.960 . S
C920 C921 1.391 . S
C920 C922 1.394 . S
C920 H936 0.931 . S
C921 C920 1.391 . S
C921 C925 1.376 . S
C922 C920 1.394 . S
C922 C923 1.369 . S
C922 C926 1.531 . S
C923 C922 1.369 . S
C923 C924 1.410 . S
C923 C931 1.503 . S
C924 C923 1.410 . S
C924 C925 1.392 . S
C924 C927 1.511 . S
C925 C921 1.376 . S
C925 C924 1.392 . S
C925 H937 0.929 . S
C926 C922 1.531 . S
C926 H938 0.960 . S
C926 H939 0.962 . S
C926 H940 0.960 . S
C927 C924 1.511 . S
C927 H941 0.961 . S
C927 H942 0.961 . S
C927 H943 0.961 . S
C928 C929 1.370 . S
C928 C930 1.363 . S
C928 H944 0.931 . S
C929 C928 1.370 . S
C929 C933 1.408 . S
C930 C928 1.363 . S
C930 C931 1.370 . S
C930 C934 1.524 . S
C931 C923 1.503 . S
C931 C930 1.370 . S
C931 C932 1.403 . S
C932 C931 1.403 . S
C932 C933 1.404 . S
C932 C935 1.539 . S
C933 C929 1.408 . S
C933 C932 1.404 . S
C933 H945 0.930 . S
C934 C930 1.524 . S
C934 H946 0.956 . S
C934 H947 0.961 . S
C934 H948 0.961 . S
C935 C932 1.539 . S
C935 H949 0.958 . S
C935 H950 0.961 . S
C935 H951 0.960 . S
H936 C920 0.931 . S
H937 C925 0.929 . S
H938 C926 0.960 . S
H939 C926 0.962 . S
H940 C926 0.960 . S
H941 C927 0.961 . S
H942 C927 0.961 . S
H943 C927 0.961 . S
H944 C928 0.931 . S
H945 C933 0.930 . S
H946 C934 0.956 . S
H947 C934 0.961 . S
H948 C934 0.961 . S
H949 C935 0.958 . S
H950 C935 0.961 . S
H951 C935 0.960 . S
C952 C953 1.391 1_556 S
C952 C954 1.394 . S
C952 H968 0.931 . S
C953 C952 1.391 1_554 S
C953 C957 1.376 . S
C954 C952 1.394 . S
C954 C955 1.369 . S
C954 C958 1.531 . S
C955 C954 1.369 . S
C955 C956 1.410 . S
C955 C963 1.503 . S
C956 C955 1.410 . S
C956 C957 1.392 1_556 S
C956 C959 1.511 . S
C957 C953 1.376 . S
C957 C956 1.392 1_554 S
C957 H969 0.929 . S
C958 C954 1.531 . S
C958 H970 0.960 . S
C958 H971 0.962 . S
C958 H972 0.960 . S
C959 C956 1.511 . S
C959 H973 0.961 1_556 S
C959 H974 0.961 1_455 S
C959 H975 0.961 . S
C960 C961 1.370 . S
C960 C962 1.363 1_655 S
C960 H976 0.931 . S
C961 C960 1.370 . S
C961 C965 1.408 1_655 S
C962 C960 1.363 1_455 S
C962 C963 1.370 . S
C962 C966 1.524 . S
C963 C955 1.503 . S
C963 C962 1.370 . S
C963 C964 1.403 . S
C964 C963 1.403 . S
C964 C965 1.404 . S
C964 C967 1.539 . S
C965 C961 1.408 1_455 S
C965 C964 1.404 . S
C965 H977 0.930 . S
C966 C962 1.524 . S
C966 H978 0.956 . S
C966 H979 0.961 . S
C966 H980 0.961 1_455 S
C967 C964 1.539 . S
C967 H981 0.958 . S
C967 H982 0.961 . S
C967 H983 0.960 . S
H968 C952 0.931 . S
H969 C957 0.929 . S
H970 C958 0.960 . S
H971 C958 0.962 . S
H972 C958 0.960 . S
H973 C959 0.961 1_554 S
H974 C959 0.961 1_655 S
H975 C959 0.961 . S
H976 C960 0.931 . S
H977 C965 0.930 . S
H978 C966 0.956 . S
H979 C966 0.961 . S
H980 C966 0.961 1_655 S
H981 C967 0.958 . S
H982 C967 0.961 . S
H983 C967 0.960 . S
C984 C985 1.391 . S
C984 C986 1.394 . S
C984 H1000 0.931 . S
C985 C984 1.391 . S
C985 C989 1.376 . S
C986 C984 1.394 . S
C986 C987 1.369 . S
C986 C990 1.531 . S
C987 C986 1.369 . S
C987 C988 1.410 . S
C987 C995 1.503 . S
C988 C987 1.410 . S
C988 C989 1.392 . S
C988 C991 1.511 . S
C989 C985 1.376 . S
C989 C988 1.392 . S
C989 H1001 0.929 . S
C990 C986 1.531 . S
C990 H1002 0.960 . S
C990 H1003 0.962 . S
C990 H1004 0.960 . S
C991 C988 1.511 . S
C991 H1005 0.961 . S
C991 H1006 0.961 . S
C991 H1007 0.961 . S
C992 C993 1.370 . S
C992 C994 1.363 . S
C992 H1008 0.931 . S
C993 C992 1.370 . S
C993 C997 1.408 . S
C994 C992 1.363 . S
C994 C995 1.370 . S
C994 C998 1.524 . S
C995 C987 1.503 . S
C995 C994 1.370 . S
C995 C996 1.403 . S
C996 C995 1.403 . S
C996 C997 1.404 . S
C996 C999 1.539 . S
C997 C993 1.408 . S
C997 C996 1.404 . S
C997 H1009 0.930 . S
C998 C994 1.524 . S
C998 H1010 0.956 . S
C998 H1011 0.961 . S
C998 H1012 0.961 . S
C999 C996 1.539 . S
C999 H1013 0.958 . S
C999 H1014 0.961 . S
C999 H1015 0.960 . S
H1000 C984 0.931 . S
H1001 C989 0.929 . S
H1002 C990 0.960 . S
H1003 C990 0.962 . S
H1004 C990 0.960 . S
H1005 C991 0.961 . S
H1006 C991 0.961 . S
H1007 C991 0.961 . S
H1008 C992 0.931 . S
H1009 C997 0.930 . S
H1010 C998 0.956 . S
H1011 C998 0.961 . S
H1012 C998 0.961 . S
H1013 C999 0.958 . S
H1014 C999 0.961 . S
H1015 C999 0.960 . S
C1016 C1017 1.391 . S
C1016 C1018 1.394 . S
C1016 H1032 0.931 . S
C1017 C1016 1.391 . S
C1017 C1021 1.376 . S
C1018 C1016 1.394 . S
C1018 C1019 1.369 . S
C1018 C1022 1.531 . S
C1019 C1018 1.369 . S
C1019 C1020 1.410 . S
C1019 C1027 1.503 . S
C1020 C1019 1.410 . S
C1020 C1021 1.392 . S
C1020 C1023 1.511 . S
C1021 C1017 1.376 . S
C1021 C1020 1.392 . S
C1021 H1033 0.929 . S
C1022 C1018 1.531 . S
C1022 H1034 0.960 . S
C1022 H1035 0.962 . S
C1022 H1036 0.960 . S
C1023 C1020 1.511 . S
C1023 H1037 0.961 . S
C1023 H1038 0.961 . S
C1023 H1039 0.961 . S
C1024 C1025 1.370 . S
C1024 C1026 1.363 . S
C1024 H1040 0.931 . S
C1025 C1024 1.370 . S
C1025 C1029 1.408 . S
C1026 C1024 1.363 . S
C1026 C1027 1.370 . S
C1026 C1030 1.524 . S
C1027 C1019 1.503 . S
C1027 C1026 1.370 . S
C1027 C1028 1.403 . S
C1028 C1027 1.403 . S
C1028 C1029 1.404 . S
C1028 C1031 1.539 . S
C1029 C1025 1.408 . S
C1029 C1028 1.404 . S
C1029 H1041 0.930 . S
C1030 C1026 1.524 . S
C1030 H1042 0.956 . S
C1030 H1043 0.961 . S
C1030 H1044 0.961 . S
C1031 C1028 1.539 . S
C1031 H1045 0.958 . S
C1031 H1046 0.961 . S
C1031 H1047 0.960 . S
H1032 C1016 0.931 . S
H1033 C1021 0.929 . S
H1034 C1022 0.960 . S
H1035 C1022 0.962 . S
H1036 C1022 0.960 . S
H1037 C1023 0.961 . S
H1038 C1023 0.961 . S
H1039 C1023 0.961 . S
H1040 C1024 0.931 . S
H1041 C1029 0.930 . S
H1042 C1030 0.956 . S
H1043 C1030 0.961 . S
H1044 C1030 0.961 . S
H1045 C1031 0.958 . S
H1046 C1031 0.961 . S
H1047 C1031 0.960 . S
C1048 C1049 1.391 . S
C1048 C1050 1.394 . S
C1048 H1064 0.931 . S
C1049 C1048 1.391 . S
C1049 C1053 1.376 . S
C1050 C1048 1.394 . S
C1050 C1051 1.369 . S
C1050 C1054 1.531 . S
C1051 C1050 1.369 . S
C1051 C1052 1.410 . S
C1051 C1059 1.503 . S
C1052 C1051 1.410 . S
C1052 C1053 1.392 . S
C1052 C1055 1.511 . S
C1053 C1049 1.376 . S
C1053 C1052 1.392 . S
C1053 H1065 0.929 . S
C1054 C1050 1.531 . S
C1054 H1066 0.960 . S
C1054 H1067 0.962 . S
C1054 H1068 0.960 . S
C1055 C1052 1.511 . S
C1055 H1069 0.961 . S
C1055 H1070 0.961 . S
C1055 H1071 0.961 . S
C1056 C1057 1.370 . S
C1056 C1058 1.363 . S
C1056 H1072 0.931 . S
C1057 C1056 1.370 . S
C1057 C1061 1.408 . S
C1058 C1056 1.363 . S
C1058 C1059 1.370 . S
C1058 C1062 1.524 . S
C1059 C1051 1.503 . S
C1059 C1058 1.370 . S
C1059 C1060 1.403 . S
C1060 C1059 1.403 . S
C1060 C1061 1.404 . S
C1060 C1063 1.539 . S
C1061 C1057 1.408 . S
C1061 C1060 1.404 . S
C1061 H1073 0.930 . S
C1062 C1058 1.524 . S
C1062 H1074 0.956 . S
C1062 H1075 0.961 . S
C1062 H1076 0.961 . S
C1063 C1060 1.539 . S
C1063 H1077 0.958 . S
C1063 H1078 0.961 . S
C1063 H1079 0.960 . S
H1064 C1048 0.931 . S
H1065 C1053 0.929 . S
H1066 C1054 0.960 . S
H1067 C1054 0.962 . S
H1068 C1054 0.960 . S
H1069 C1055 0.961 . S
H1070 C1055 0.961 . S
H1071 C1055 0.961 . S
H1072 C1056 0.931 . S
H1073 C1061 0.930 . S
H1074 C1062 0.956 . S
H1075 C1062 0.961 . S
H1076 C1062 0.961 . S
H1077 C1063 0.958 . S
H1078 C1063 0.961 . S
H1079 C1063 0.960 . S
C1080 C1081 1.391 . S
C1080 C1082 1.394 . S
C1080 H1096 0.931 . S
C1081 C1080 1.391 . S
C1081 C1085 1.376 . S
C1082 C1080 1.394 . S
C1082 C1083 1.369 . S
C1082 C1086 1.531 . S
C1083 C1082 1.369 . S
C1083 C1084 1.410 . S
C1083 C1091 1.503 . S
C1084 C1083 1.410 . S
C1084 C1085 1.392 . S
C1084 C1087 1.511 . S
C1085 C1081 1.376 . S
C1085 C1084 1.392 . S
C1085 H1097 0.929 . S
C1086 C1082 1.531 . S
C1086 H1098 0.960 . S
C1086 H1099 0.962 . S
C1086 H1100 0.960 . S
C1087 C1084 1.511 . S
C1087 H1101 0.961 . S
C1087 H1102 0.961 . S
C1087 H1103 0.961 . S
C1088 C1089 1.359 1_545 S
C1088 C1090 1.383 . S
C1088 H1104 0.923 1_545 S
C1089 C1088 1.359 1_565 S
C1089 C1093 1.408 1_565 S
C1090 C1088 1.383 . S
C1090 C1091 1.370 . S
C1090 C1094 1.524 . S
C1091 C1083 1.503 . S
C1091 C1090 1.370 . S
C1091 C1092 1.403 . S
C1092 C1091 1.403 . S
C1092 C1093 1.404 . S
C1092 C1095 1.539 . S
C1093 C1089 1.408 1_545 S
C1093 C1092 1.404 . S
C1093 H1105 0.930 1_545 S
C1094 C1090 1.524 . S
C1094 H1106 0.956 . S
C1094 H1107 0.961 . S
C1094 H1108 0.961 . S
C1095 C1092 1.539 . S
C1095 H1109 0.958 . S
C1095 H1110 0.961 . S
C1095 H1111 0.960 . S
H1096 C1080 0.931 . S
H1097 C1085 0.929 . S
H1098 C1086 0.960 . S
H1099 C1086 0.962 . S
H1100 C1086 0.960 . S
H1101 C1087 0.961 . S
H1102 C1087 0.961 . S
H1103 C1087 0.961 . S
H1104 C1088 0.923 1_565 S
H1105 C1093 0.930 1_565 S
H1106 C1094 0.956 . S
H1107 C1094 0.961 . S
H1108 C1094 0.961 . S
H1109 C1095 0.958 . S
H1110 C1095 0.961 . S
H1111 C1095 0.960 . S
C1112 C1113 1.391 . S
C1112 C1114 1.394 . S
C1112 H1128 0.931 . S
C1113 C1112 1.391 . S
C1113 C1117 1.376 . S
C1114 C1112 1.394 . S
C1114 C1115 1.369 . S
C1114 C1118 1.531 . S
C1115 C1114 1.369 . S
C1115 C1116 1.410 . S
C1115 C1123 1.503 . S
C1116 C1115 1.410 . S
C1116 C1117 1.392 . S
C1116 C1119 1.511 . S
C1117 C1113 1.376 . S
C1117 C1116 1.392 . S
C1117 H1129 0.929 . S
C1118 C1114 1.531 . S
C1118 H1130 0.960 . S
C1118 H1131 0.962 . S
C1118 H1132 0.960 . S
C1119 C1116 1.511 . S
C1119 H1133 0.961 . S
C1119 H1134 0.961 . S
C1119 H1135 0.961 . S
C1120 C1121 1.370 . S
C1120 C1122 1.363 . S
C1120 H1136 0.931 . S
C1121 C1120 1.370 . S
C1121 C1125 1.408 . S
C1122 C1120 1.363 . S
C1122 C1123 1.370 . S
C1122 C1126 1.524 . S
C1123 C1115 1.503 . S
C1123 C1122 1.370 . S
C1123 C1124 1.403 . S
C1124 C1123 1.403 . S
C1124 C1125 1.404 . S
C1124 C1127 1.539 . S
C1125 C1121 1.408 . S
C1125 C1124 1.404 . S
C1125 H1137 0.930 . S
C1126 C1122 1.524 . S
C1126 H1138 0.956 . S
C1126 H1139 0.961 . S
C1126 H1140 0.961 . S
C1127 C1124 1.539 . S
C1127 H1141 0.958 . S
C1127 H1142 0.961 . S
C1127 H1143 0.960 . S
H1128 C1112 0.931 . S
H1129 C1117 0.929 . S
H1130 C1118 0.960 . S
H1131 C1118 0.962 . S
H1132 C1118 0.960 . S
H1133 C1119 0.961 . S
H1134 C1119 0.961 . S
H1135 C1119 0.961 . S
H1136 C1120 0.931 . S
H1137 C1125 0.930 . S
H1138 C1126 0.956 . S
H1139 C1126 0.961 . S
H1140 C1126 0.961 . S
H1141 C1127 0.958 . S
H1142 C1127 0.961 . S
H1143 C1127 0.960 . S
C1144 C1145 1.391 . S
C1144 C1146 1.398 . S
C1144 H1160 0.931 . S
C1145 C1144 1.391 . S
C1145 C1149 1.376 . S
C1146 C1144 1.398 . S
C1146 C1147 1.370 . S
C1146 C1150 1.525 1_545 S
C1147 C1146 1.370 . S
C1147 C1148 1.410 . S
C1147 C1155 1.503 1_545 S
C1148 C1147 1.410 . S
C1148 C1149 1.392 . S
C1148 C1151 1.511 . S
C1149 C1145 1.376 . S
C1149 C1148 1.392 . S
C1149 H1161 0.929 . S
C1150 C1146 1.525 1_565 S
C1150 H1162 0.960 . S
C1150 H1163 0.962 . S
C1150 H1164 0.960 . S
C1151 C1148 1.511 . S
C1151 H1165 0.961 . S
C1151 H1166 0.961 . S
C1151 H1167 0.961 . S
C1152 C1153 1.370 . S
C1152 C1154 1.363 . S
C1152 H1168 0.931 . S
C1153 C1152 1.370 . S
C1153 C1157 1.408 . S
C1154 C1152 1.363 . S
C1154 C1155 1.370 . S
C1154 C1158 1.524 1_565 S
C1155 C1147 1.503 1_565 S
C1155 C1154 1.370 . S
C1155 C1156 1.403 . S
C1156 C1155 1.403 . S
C1156 C1157 1.404 . S
C1156 C1159 1.539 . S
C1157 C1153 1.408 . S
C1157 C1156 1.404 . S
C1157 H1169 0.930 . S
C1158 C1154 1.524 1_545 S
C1158 H1170 0.959 . S
C1158 H1171 0.961 . S
C1158 H1172 0.961 1_545 S
C1159 C1156 1.539 . S
C1159 H1173 0.958 . S
C1159 H1174 0.961 . S
C1159 H1175 0.960 . S
H1160 C1144 0.931 . S
H1161 C1149 0.929 . S
H1162 C1150 0.960 . S
H1163 C1150 0.962 . S
H1164 C1150 0.960 . S
H1165 C1151 0.961 . S
H1166 C1151 0.961 . S
H1167 C1151 0.961 . S
H1168 C1152 0.931 . S
H1169 C1157 0.930 . S
H1170 C1158 0.959 . S
H1171 C1158 0.961 . S
H1172 C1158 0.961 1_565 S
H1173 C1159 0.958 . S
H1174 C1159 0.961 . S
H1175 C1159 0.960 . S
C1176 C1177 1.391 . S
C1176 C1178 1.394 . S
C1176 H1192 0.931 . S
C1177 C1176 1.391 . S
C1177 C1181 1.376 . S
C1178 C1176 1.394 . S
C1178 C1179 1.369 . S
C1178 C1182 1.531 . S
C1179 C1178 1.369 . S
C1179 C1180 1.410 . S
C1179 C1187 1.503 . S
C1180 C1179 1.410 . S
C1180 C1181 1.392 . S
C1180 C1183 1.511 . S
C1181 C1177 1.376 . S
C1181 C1180 1.392 . S
C1181 H1193 0.929 . S
C1182 C1178 1.531 . S
C1182 H1194 0.960 . S
C1182 H1195 0.962 . S
C1182 H1196 0.960 . S
C1183 C1180 1.511 . S
C1183 H1197 0.961 . S
C1183 H1198 0.961 . S
C1183 H1199 0.961 . S
C1184 C1185 1.370 . S
C1184 C1186 1.363 . S
C1184 H1200 0.931 . S
C1185 C1184 1.370 . S
C1185 C1189 1.408 . S
C1186 C1184 1.363 . S
C1186 C1187 1.370 . S
C1186 C1190 1.524 . S
C1187 C1179 1.503 . S
C1187 C1186 1.370 . S
C1187 C1188 1.403 . S
C1188 C1187 1.403 . S
C1188 C1189 1.404 . S
C1188 C1191 1.539 . S
C1189 C1185 1.408 . S
C1189 C1188 1.404 . S
C1189 H1201 0.930 . S
C1190 C1186 1.524 . S
C1190 H1202 0.956 . S
C1190 H1203 0.961 . S
C1190 H1204 0.961 . S
C1191 C1188 1.539 . S
C1191 H1205 0.958 . S
C1191 H1206 0.961 . S
C1191 H1207 0.960 . S
H1192 C1176 0.931 . S
H1193 C1181 0.929 . S
H1194 C1182 0.960 . S
H1195 C1182 0.962 . S
H1196 C1182 0.960 . S
H1197 C1183 0.961 . S
H1198 C1183 0.961 . S
H1199 C1183 0.961 . S
H1200 C1184 0.931 . S
H1201 C1189 0.930 . S
H1202 C1190 0.956 . S
H1203 C1190 0.961 . S
H1204 C1190 0.961 . S
H1205 C1191 0.958 . S
H1206 C1191 0.961 . S
H1207 C1191 0.960 . S
C1208 C1209 1.391 . S
C1208 C1210 1.394 . S
C1208 H1224 0.931 . S
C1209 C1208 1.391 . S
C1209 C1213 1.376 . S
C1210 C1208 1.394 . S
C1210 C1211 1.369 . S
C1210 C1214 1.531 . S
C1211 C1210 1.369 . S
C1211 C1212 1.410 . S
C1211 C1219 1.503 . S
C1212 C1211 1.410 . S
C1212 C1213 1.392 . S
C1212 C1215 1.511 . S
C1213 C1209 1.376 . S
C1213 C1212 1.392 . S
C1213 H1225 0.929 . S
C1214 C1210 1.531 . S
C1214 H1226 0.960 . S
C1214 H1227 0.962 . S
C1214 H1228 0.960 . S
C1215 C1212 1.511 . S
C1215 H1229 0.961 . S
C1215 H1230 0.961 . S
C1215 H1231 0.961 . S
C1216 C1217 1.370 . S
C1216 C1218 1.363 . S
C1216 H1232 0.931 . S
C1217 C1216 1.370 . S
C1217 C1221 1.408 . S
C1218 C1216 1.363 . S
C1218 C1219 1.370 . S
C1218 C1222 1.524 . S
C1219 C1211 1.503 . S
C1219 C1218 1.370 . S
C1219 C1220 1.403 . S
C1220 C1219 1.403 . S
C1220 C1221 1.404 . S
C1220 C1223 1.539 . S
C1221 C1217 1.408 . S
C1221 C1220 1.404 . S
C1221 H1233 0.930 . S
C1222 C1218 1.524 . S
C1222 H1234 0.956 . S
C1222 H1235 0.961 . S
C1222 H1236 0.961 . S
C1223 C1220 1.539 . S
C1223 H1237 0.958 . S
C1223 H1238 0.961 . S
C1223 H1239 0.960 . S
H1224 C1208 0.931 . S
H1225 C1213 0.929 . S
H1226 C1214 0.960 . S
H1227 C1214 0.962 . S
H1228 C1214 0.960 . S
H1229 C1215 0.961 . S
H1230 C1215 0.961 . S
H1231 C1215 0.961 . S
H1232 C1216 0.931 . S
H1233 C1221 0.930 . S
H1234 C1222 0.956 . S
H1235 C1222 0.961 . S
H1236 C1222 0.961 . S
H1237 C1223 0.958 . S
H1238 C1223 0.961 . S
H1239 C1223 0.960 . S
C1240 C1241 1.391 . S
C1240 C1242 1.394 . S
C1240 H1256 0.931 . S
C1241 C1240 1.391 . S
C1241 C1245 1.376 . S
C1242 C1240 1.394 . S
C1242 C1243 1.369 . S
C1242 C1246 1.531 . S
C1243 C1242 1.369 . S
C1243 C1244 1.410 . S
C1243 C1251 1.503 . S
C1244 C1243 1.410 . S
C1244 C1245 1.392 . S
C1244 C1247 1.511 . S
C1245 C1241 1.376 . S
C1245 C1244 1.392 . S
C1245 H1257 0.929 . S
C1246 C1242 1.531 . S
C1246 H1258 0.960 . S
C1246 H1259 0.962 . S
C1246 H1260 0.960 . S
C1247 C1244 1.511 . S
C1247 H1261 0.961 . S
C1247 H1262 0.961 . S
C1247 H1263 0.961 . S
C1248 C1249 1.370 . S
C1248 C1250 1.363 . S
C1248 H1264 0.931 . S
C1249 C1248 1.370 . S
C1249 C1253 1.408 . S
C1250 C1248 1.363 . S
C1250 C1251 1.370 . S
C1250 C1254 1.524 . S
C1251 C1243 1.503 . S
C1251 C1250 1.370 . S
C1251 C1252 1.403 . S
C1252 C1251 1.403 . S
C1252 C1253 1.404 . S
C1252 C1255 1.539 . S
C1253 C1249 1.408 . S
C1253 C1252 1.404 . S
C1253 H1265 0.930 . S
C1254 C1250 1.524 . S
C1254 H1266 0.956 . S
C1254 H1267 0.961 . S
C1254 H1268 0.961 . S
C1255 C1252 1.539 . S
C1255 H1269 0.958 . S
C1255 H1270 0.961 . S
C1255 H1271 0.960 . S
H1256 C1240 0.931 . S
H1257 C1245 0.929 . S
H1258 C1246 0.960 . S
H1259 C1246 0.962 . S
H1260 C1246 0.960 . S
H1261 C1247 0.961 . S
H1262 C1247 0.961 . S
H1263 C1247 0.961 . S
H1264 C1248 0.931 . S
H1265 C1253 0.930 . S
H1266 C1254 0.956 . S
H1267 C1254 0.961 . S
H1268 C1254 0.961 . S
H1269 C1255 0.958 . S
H1270 C1255 0.961 . S
H1271 C1255 0.960 . S
C1272 C1273 1.391 . S
C1272 C1274 1.394 . S
C1272 H1288 0.931 . S
C1273 C1272 1.391 . S
C1273 C1277 1.376 . S
C1274 C1272 1.394 . S
C1274 C1275 1.369 . S
C1274 C1278 1.531 . S
C1275 C1274 1.369 . S
C1275 C1276 1.410 . S
C1275 C1283 1.503 . S
C1276 C1275 1.410 . S
C1276 C1277 1.392 . S
C1276 C1279 1.511 . S
C1277 C1273 1.376 . S
C1277 C1276 1.392 . S
C1277 H1289 0.929 . S
C1278 C1274 1.531 . S
C1278 H1290 0.960 . S
C1278 H1291 0.962 . S
C1278 H1292 0.960 . S
C1279 C1276 1.511 . S
C1279 H1293 0.961 . S
C1279 H1294 0.961 . S
C1279 H1295 0.961 . S
C1280 C1281 1.370 . S
C1280 C1282 1.363 . S
C1280 H1296 0.931 . S
C1281 C1280 1.370 . S
C1281 C1285 1.408 . S
C1282 C1280 1.363 . S
C1282 C1283 1.370 . S
C1282 C1286 1.524 . S
C1283 C1275 1.503 . S
C1283 C1282 1.370 . S
C1283 C1284 1.403 . S
C1284 C1283 1.403 . S
C1284 C1285 1.404 . S
C1284 C1287 1.539 . S
C1285 C1281 1.408 . S
C1285 C1284 1.404 . S
C1285 H1297 0.930 . S
C1286 C1282 1.524 . S
C1286 H1298 0.956 . S
C1286 H1299 0.961 . S
C1286 H1300 0.961 . S
C1287 C1284 1.539 . S
C1287 H1301 0.958 . S
C1287 H1302 0.961 . S
C1287 H1303 0.960 . S
H1288 C1272 0.931 . S
H1289 C1277 0.929 . S
H1290 C1278 0.960 . S
H1291 C1278 0.962 . S
H1292 C1278 0.960 . S
H1293 C1279 0.961 . S
H1294 C1279 0.961 . S
H1295 C1279 0.961 . S
H1296 C1280 0.931 . S
H1297 C1285 0.930 . S
H1298 C1286 0.956 . S
H1299 C1286 0.961 . S
H1300 C1286 0.961 . S
H1301 C1287 0.958 . S
H1302 C1287 0.961 . S
H1303 C1287 0.960 . S
C1304 C1305 1.391 . S
C1304 C1306 1.394 . S
C1304 H1320 0.931 . S
C1305 C1304 1.391 . S
C1305 C1309 1.376 . S
C1306 C1304 1.394 . S
C1306 C1307 1.369 . S
C1306 C1310 1.531 . S
C1307 C1306 1.369 . S
C1307 C1308 1.410 . S
C1307 C1315 1.503 . S
C1308 C1307 1.410 . S
C1308 C1309 1.392 . S
C1308 C1311 1.511 . S
C1309 C1305 1.376 . S
C1309 C1308 1.392 . S
C1309 H1321 0.929 . S
C1310 C1306 1.531 . S
C1310 H1322 0.960 . S
C1310 H1323 0.962 . S
C1310 H1324 0.960 . S
C1311 C1308 1.511 . S
C1311 H1325 0.961 . S
C1311 H1326 0.961 . S
C1311 H1327 0.961 . S
C1312 C1313 1.370 . S
C1312 C1314 1.363 . S
C1312 H1328 0.931 . S
C1313 C1312 1.370 . S
C1313 C1317 1.408 . S
C1314 C1312 1.363 . S
C1314 C1315 1.370 . S
C1314 C1318 1.524 . S
C1315 C1307 1.503 . S
C1315 C1314 1.370 . S
C1315 C1316 1.403 . S
C1316 C1315 1.403 . S
C1316 C1317 1.404 . S
C1316 C1319 1.539 . S
C1317 C1313 1.408 . S
C1317 C1316 1.404 . S
C1317 H1329 0.930 . S
C1318 C1314 1.524 . S
C1318 H1330 0.956 . S
C1318 H1331 0.961 . S
C1318 H1332 0.961 . S
C1319 C1316 1.539 . S
C1319 H1333 0.958 . S
C1319 H1334 0.961 . S
C1319 H1335 0.960 . S
H1320 C1304 0.931 . S
H1321 C1309 0.929 . S
H1322 C1310 0.960 . S
H1323 C1310 0.962 . S
H1324 C1310 0.960 . S
H1325 C1311 0.961 . S
H1326 C1311 0.961 . S
H1327 C1311 0.961 . S
H1328 C1312 0.931 . S
H1329 C1317 0.930 . S
H1330 C1318 0.956 . S
H1331 C1318 0.961 . S
H1332 C1318 0.961 . S
H1333 C1319 0.958 . S
H1334 C1319 0.961 . S
H1335 C1319 0.960 . S
C1336 C1337 1.391 . S
C1336 C1338 1.394 . S
C1336 H1352 0.931 . S
C1337 C1336 1.391 . S
C1337 C1341 1.376 . S
C1338 C1336 1.394 . S
C1338 C1339 1.369 . S
C1338 C1342 1.531 . S
C1339 C1338 1.369 . S
C1339 C1340 1.410 . S
C1339 C1347 1.503 . S
C1340 C1339 1.410 . S
C1340 C1341 1.392 . S
C1340 C1343 1.511 . S
C1341 C1337 1.376 . S
C1341 C1340 1.392 . S
C1341 H1353 0.929 . S
C1342 C1338 1.531 . S
C1342 H1354 0.960 . S
C1342 H1355 0.962 . S
C1342 H1356 0.960 . S
C1343 C1340 1.511 . S
C1343 H1357 0.961 . S
C1343 H1358 0.961 . S
C1343 H1359 0.961 . S
C1344 C1345 1.370 . S
C1344 C1346 1.363 . S
C1344 H1360 0.931 . S
C1345 C1344 1.370 . S
C1345 C1349 1.408 . S
C1346 C1344 1.363 . S
C1346 C1347 1.370 . S
C1346 C1350 1.524 . S
C1347 C1339 1.503 . S
C1347 C1346 1.370 . S
C1347 C1348 1.403 . S
C1348 C1347 1.403 . S
C1348 C1349 1.404 . S
C1348 C1351 1.539 . S
C1349 C1345 1.408 . S
C1349 C1348 1.404 . S
C1349 H1361 0.930 . S
C1350 C1346 1.524 . S
C1350 H1362 0.956 . S
C1350 H1363 0.961 . S
C1350 H1364 0.961 . S
C1351 C1348 1.539 . S
C1351 H1365 0.958 . S
C1351 H1366 0.961 . S
C1351 H1367 0.960 . S
H1352 C1336 0.931 . S
H1353 C1341 0.929 . S
H1354 C1342 0.960 . S
H1355 C1342 0.962 . S
H1356 C1342 0.960 . S
H1357 C1343 0.961 . S
H1358 C1343 0.961 . S
H1359 C1343 0.961 . S
H1360 C1344 0.931 . S
H1361 C1349 0.930 . S
H1362 C1350 0.956 . S
H1363 C1350 0.961 . S
H1364 C1350 0.961 . S
H1365 C1351 0.958 . S
H1366 C1351 0.961 . S
H1367 C1351 0.960 . S
C1368 C1369 1.391 . S
C1368 C1370 1.394 . S
C1368 H1384 0.931 . S
C1369 C1368 1.391 . S
C1369 C1373 1.376 . S
C1370 C1368 1.394 . S
C1370 C1371 1.369 . S
C1370 C1374 1.531 . S
C1371 C1370 1.369 . S
C1371 C1372 1.410 . S
C1371 C1379 1.503 . S
C1372 C1371 1.410 . S
C1372 C1373 1.392 . S
C1372 C1375 1.511 . S
C1373 C1369 1.376 . S
C1373 C1372 1.392 . S
C1373 H1385 0.929 . S
C1374 C1370 1.531 . S
C1374 H1386 0.960 . S
C1374 H1387 0.962 . S
C1374 H1388 0.960 . S
C1375 C1372 1.511 . S
C1375 H1389 0.961 . S
C1375 H1390 0.961 . S
C1375 H1391 0.961 . S
C1376 C1377 1.370 . S
C1376 C1378 1.363 . S
C1376 H1392 0.931 . S
C1377 C1376 1.370 . S
C1377 C1381 1.408 . S
C1378 C1376 1.363 . S
C1378 C1379 1.370 . S
C1378 C1382 1.524 . S
C1379 C1371 1.503 . S
C1379 C1378 1.370 . S
C1379 C1380 1.403 . S
C1380 C1379 1.403 . S
C1380 C1381 1.404 . S
C1380 C1383 1.539 . S
C1381 C1377 1.408 . S
C1381 C1380 1.404 . S
C1381 H1393 0.930 . S
C1382 C1378 1.524 . S
C1382 H1394 0.956 . S
C1382 H1395 0.961 . S
C1382 H1396 0.961 . S
C1383 C1380 1.539 . S
C1383 H1397 0.958 . S
C1383 H1398 0.961 . S
C1383 H1399 0.960 . S
H1384 C1368 0.931 . S
H1385 C1373 0.929 . S
H1386 C1374 0.960 . S
H1387 C1374 0.962 . S
H1388 C1374 0.960 . S
H1389 C1375 0.961 . S
H1390 C1375 0.961 . S
H1391 C1375 0.961 . S
H1392 C1376 0.931 . S
H1393 C1381 0.930 . S
H1394 C1382 0.956 . S
H1395 C1382 0.961 . S
H1396 C1382 0.961 . S
H1397 C1383 0.958 . S
H1398 C1383 0.961 . S
H1399 C1383 0.960 . S
C1400 C1401 1.391 . S
C1400 C1402 1.394 . S
C1400 H1416 0.931 . S
C1401 C1400 1.391 . S
C1401 C1405 1.376 . S
C1402 C1400 1.394 . S
C1402 C1403 1.369 . S
C1402 C1406 1.531 . S
C1403 C1402 1.369 . S
C1403 C1404 1.410 . S
C1403 C1411 1.503 . S
C1404 C1403 1.410 . S
C1404 C1405 1.392 . S
C1404 C1407 1.511 . S
C1405 C1401 1.376 . S
C1405 C1404 1.392 . S
C1405 H1417 0.929 . S
C1406 C1402 1.531 . S
C1406 H1418 0.960 . S
C1406 H1419 0.962 . S
C1406 H1420 0.960 . S
C1407 C1404 1.511 . S
C1407 H1421 0.961 . S
C1407 H1422 0.961 . S
C1407 H1423 0.961 . S
C1408 C1409 1.370 . S
C1408 C1410 1.363 . S
C1408 H1424 0.931 . S
C1409 C1408 1.370 . S
C1409 C1413 1.408 . S
C1410 C1408 1.363 . S
C1410 C1411 1.370 . S
C1410 C1414 1.524 . S
C1411 C1403 1.503 . S
C1411 C1410 1.370 . S
C1411 C1412 1.403 . S
C1412 C1411 1.403 . S
C1412 C1413 1.404 . S
C1412 C1415 1.539 . S
C1413 C1409 1.408 . S
C1413 C1412 1.404 . S
C1413 H1425 0.930 . S
C1414 C1410 1.524 . S
C1414 H1426 0.956 . S
C1414 H1427 0.961 . S
C1414 H1428 0.961 . S
C1415 C1412 1.539 . S
C1415 H1429 0.958 . S
C1415 H1430 0.961 . S
C1415 H1431 0.960 . S
H1416 C1400 0.931 . S
H1417 C1405 0.929 . S
H1418 C1406 0.960 . S
H1419 C1406 0.962 . S
H1420 C1406 0.960 . S
H1421 C1407 0.961 . S
H1422 C1407 0.961 . S
H1423 C1407 0.961 . S
H1424 C1408 0.931 . S
H1425 C1413 0.930 . S
H1426 C1414 0.956 . S
H1427 C1414 0.961 . S
H1428 C1414 0.961 . S
H1429 C1415 0.958 . S
H1430 C1415 0.961 . S
H1431 C1415 0.960 . S
C1432 C1433 1.391 . S
C1432 C1434 1.394 . S
C1432 H1448 0.931 . S
C1433 C1432 1.391 . S
C1433 C1437 1.376 . S
C1434 C1432 1.394 . S
C1434 C1435 1.369 . S
C1434 C1438 1.531 . S
C1435 C1434 1.369 . S
C1435 C1436 1.410 . S
C1435 C1443 1.503 . S
C1436 C1435 1.410 . S
C1436 C1437 1.392 . S
C1436 C1439 1.511 . S
C1437 C1433 1.376 . S
C1437 C1436 1.392 . S
C1437 H1449 0.929 . S
C1438 C1434 1.531 . S
C1438 H1450 0.960 . S
C1438 H1451 0.962 . S
C1438 H1452 0.960 . S
C1439 C1436 1.511 . S
C1439 H1453 0.961 . S
C1439 H1454 0.961 . S
C1439 H1455 0.961 . S
C1440 C1441 1.370 . S
C1440 C1442 1.363 . S
C1440 H1456 0.931 . S
C1441 C1440 1.370 . S
C1441 C1445 1.408 . S
C1442 C1440 1.363 . S
C1442 C1443 1.370 . S
C1442 C1446 1.524 . S
C1443 C1435 1.503 . S
C1443 C1442 1.370 . S
C1443 C1444 1.403 . S
C1444 C1443 1.403 . S
C1444 C1445 1.404 . S
C1444 C1447 1.539 . S
C1445 C1441 1.408 . S
C1445 C1444 1.404 . S
C1445 H1457 0.930 . S
C1446 C1442 1.524 . S
C1446 H1458 0.956 . S
C1446 H1459 0.961 . S
C1446 H1460 0.961 . S
C1447 C1444 1.539 . S
C1447 H1461 0.958 . S
C1447 H1462 0.961 . S
C1447 H1463 0.960 . S
H1448 C1432 0.931 . S
H1449 C1437 0.929 . S
H1450 C1438 0.960 . S
H1451 C1438 0.962 . S
H1452 C1438 0.960 . S
H1453 C1439 0.961 . S
H1454 C1439 0.961 . S
H1455 C1439 0.961 . S
H1456 C1440 0.931 . S
H1457 C1445 0.930 . S
H1458 C1446 0.956 . S
H1459 C1446 0.961 . S
H1460 C1446 0.961 . S
H1461 C1447 0.958 . S
H1462 C1447 0.961 . S
H1463 C1447 0.960 . S
C1464 C1465 1.391 . S
C1464 C1466 1.394 . S
C1464 H1480 0.931 . S
C1465 C1464 1.391 . S
C1465 C1469 1.376 . S
C1466 C1464 1.394 . S
C1466 C1467 1.369 . S
C1466 C1470 1.531 . S
C1467 C1466 1.369 . S
C1467 C1468 1.410 . S
C1467 C1475 1.503 . S
C1468 C1467 1.410 . S
C1468 C1469 1.392 . S
C1468 C1471 1.511 . S
C1469 C1465 1.376 . S
C1469 C1468 1.392 . S
C1469 H1481 0.929 . S
C1470 C1466 1.531 . S
C1470 H1482 0.960 . S
C1470 H1483 0.962 . S
C1470 H1484 0.960 . S
C1471 C1468 1.511 . S
C1471 H1485 0.961 . S
C1471 H1486 0.961 . S
C1471 H1487 0.961 . S
C1472 C1473 1.370 . S
C1472 C1474 1.363 . S
C1472 H1488 0.931 . S
C1473 C1472 1.370 . S
C1473 C1477 1.408 . S
C1474 C1472 1.363 . S
C1474 C1475 1.370 . S
C1474 C1478 1.524 . S
C1475 C1467 1.503 . S
C1475 C1474 1.370 . S
C1475 C1476 1.403 . S
C1476 C1475 1.403 . S
C1476 C1477 1.404 . S
C1476 C1479 1.539 . S
C1477 C1473 1.408 . S
C1477 C1476 1.404 . S
C1477 H1489 0.930 . S
C1478 C1474 1.524 . S
C1478 H1490 0.956 . S
C1478 H1491 0.961 . S
C1478 H1492 0.961 . S
C1479 C1476 1.539 . S
C1479 H1493 0.958 . S
C1479 H1494 0.961 . S
C1479 H1495 0.960 . S
H1480 C1464 0.931 . S
H1481 C1469 0.929 . S
H1482 C1470 0.960 . S
H1483 C1470 0.962 . S
H1484 C1470 0.960 . S
H1485 C1471 0.961 . S
H1486 C1471 0.961 . S
H1487 C1471 0.961 . S
H1488 C1472 0.931 . S
H1489 C1477 0.930 . S
H1490 C1478 0.956 . S
H1491 C1478 0.961 . S
H1492 C1478 0.961 . S
H1493 C1479 0.958 . S
H1494 C1479 0.961 . S
H1495 C1479 0.960 . S
C1496 C1497 1.391 . S
C1496 C1498 1.394 . S
C1496 H1512 0.931 . S
C1497 C1496 1.391 . S
C1497 C1501 1.376 . S
C1498 C1496 1.394 . S
C1498 C1499 1.369 . S
C1498 C1502 1.531 . S
C1499 C1498 1.369 . S
C1499 C1500 1.410 . S
C1499 C1507 1.503 . S
C1500 C1499 1.410 . S
C1500 C1501 1.392 . S
C1500 C1503 1.511 . S
C1501 C1497 1.376 . S
C1501 C1500 1.392 . S
C1501 H1513 0.929 . S
C1502 C1498 1.531 . S
C1502 H1514 0.960 . S
C1502 H1515 0.962 . S
C1502 H1516 0.960 . S
C1503 C1500 1.511 . S
C1503 H1517 0.961 . S
C1503 H1518 0.961 . S
C1503 H1519 0.961 . S
C1504 C1505 1.370 . S
C1504 C1506 1.363 . S
C1504 H1520 0.931 1_565 S
C1505 C1504 1.370 . S
C1505 C1509 1.408 . S
C1506 C1504 1.363 . S
C1506 C1507 1.370 . S
C1506 C1510 1.524 . S
C1507 C1499 1.503 . S
C1507 C1506 1.370 . S
C1507 C1508 1.403 . S
C1508 C1507 1.403 . S
C1508 C1509 1.404 . S
C1508 C1511 1.539 . S
C1509 C1505 1.408 . S
C1509 C1508 1.404 . S
C1509 H1521 0.930 . S
C1510 C1506 1.524 . S
C1510 H1522 0.956 . S
C1510 H1523 0.961 . S
C1510 H1524 0.961 1_565 S
C1511 C1508 1.539 . S
C1511 H1525 0.958 . S
C1511 H1526 0.961 . S
C1511 H1527 0.960 . S
H1512 C1496 0.931 . S
H1513 C1501 0.929 . S
H1514 C1502 0.960 . S
H1515 C1502 0.962 . S
H1516 C1502 0.960 . S
H1517 C1503 0.961 . S
H1518 C1503 0.961 . S
H1519 C1503 0.961 . S
H1520 C1504 0.931 1_545 S
H1521 C1509 0.930 . S
H1522 C1510 0.956 . S
H1523 C1510 0.961 . S
H1524 C1510 0.961 1_545 S
H1525 C1511 0.958 . S
H1526 C1511 0.961 . S
H1527 C1511 0.960 . S
C1528 C1529 1.391 1_545 S
C1528 C1530 1.394 . S
C1528 H1544 0.931 . S
C1529 C1528 1.391 1_565 S
C1529 C1533 1.376 . S
C1530 C1528 1.394 . S
C1530 C1531 1.369 . S
C1530 C1534 1.531 . S
C1531 C1530 1.369 . S
C1531 C1532 1.410 . S
C1531 C1539 1.503 . S
C1532 C1531 1.410 . S
C1532 C1533 1.392 1_545 S
C1532 C1535 1.511 1_545 S
C1533 C1529 1.376 . S
C1533 C1532 1.392 1_565 S
C1533 H1545 0.929 . S
C1534 C1530 1.531 . S
C1534 H1546 0.960 . S
C1534 H1547 0.962 . S
C1534 H1548 0.960 . S
C1535 C1532 1.511 1_565 S
C1535 H1549 0.961 . S
C1535 H1550 0.961 1_565 S
C1535 H1551 0.961 . S
C1536 C1537 1.370 . S
C1536 C1538 1.363 1_455 S
C1536 H1552 0.931 . S
C1537 C1536 1.370 . S
C1537 C1541 1.408 1_455 S
C1538 C1536 1.363 1_655 S
C1538 C1539 1.370 . S
C1538 C1542 1.524 . S
C1539 C1531 1.503 . S
C1539 C1538 1.370 . S
C1539 C1540 1.403 . S
C1540 C1539 1.403 . S
C1540 C1541 1.404 . S
C1540 C1543 1.539 . S
C1541 C1537 1.408 1_655 S
C1541 C1540 1.404 . S
C1541 H1553 0.930 1_655 S
C1542 C1538 1.524 . S
C1542 H1554 0.956 . S
C1542 H1555 0.961 . S
C1542 H1556 0.961 . S
C1543 C1540 1.539 . S
C1543 H1557 0.958 . S
C1543 H1558 0.961 . S
C1543 H1559 0.960 . S
H1544 C1528 0.931 . S
H1545 C1533 0.929 . S
H1546 C1534 0.960 . S
H1547 C1534 0.962 . S
H1548 C1534 0.960 . S
H1549 C1535 0.961 . S
H1550 C1535 0.961 1_545 S
H1551 C1535 0.961 . S
H1552 C1536 0.931 . S
H1553 C1541 0.930 1_455 S
H1554 C1542 0.956 . S
H1555 C1542 0.961 . S
H1556 C1542 0.961 . S
H1557 C1543 0.958 . S
H1558 C1543 0.961 . S
H1559 C1543 0.960 . S
C409 C13 1.233 . S
C417 C382 1.189 . S
C441 C319 1.315 . S
C449 C47 1.415 1_545 S
C473 C76 2.460 1_554 S
C481 C280 2.447 . S
C505 C115 1.532 . S
C513 C353 1.569 . S
C537 C149 1.443 . S
C545 C348 1.410 . S
C569 C183 1.200 . S
C577 C387 1.184 . S
C601 C314 1.655 1_565 S
C609 C217 1.697 . S
C633 C246 2.150 . S
C641 C285 2.119 . S
C665 C110 2.424 . S
C673 C144 2.483 . S
C697 C8 2.401 . S
C705 C178 2.360 . S
C729 C42 2.442 . S
C737 C212 2.471 . S
C761 C251 0.469 . S
C769 C81 0.470 . S
C793 C29 1.910 . S
C801 C289 1.916 . S
C825 C63 0.714 . S
C833 C344 0.716 . S
C857 C391 1.339 . S
C865 C68 1.354 . S
C889 C131 0.617 . S
C897 C310 0.570 . S
C921 C165 1.445 . S
C929 C323 1.412 . S
C953 C276 1.128 . S
C961 C199 1.133 . S
C985 C357 1.221 . S
C993 C233 1.211 . S
C1017 C378 0.754 . S
C1025 C238 0.717 . S
C1049 C17 1.371 . S
C1057 C102 1.373 . S
C1081 C0 1.844 . S
C1089 C51 1.832 . S
C1113 C34 0.674 . S
C1121 C72 0.646 . S
C1145 C119 1.518 . S
C1153 C97 1.541 . S
C1177 C170 1.586 . S
C1185 C153 1.641 . S
C1209 C187 1.653 . S
C1217 C204 1.661 . S
C1241 C221 1.241 . S
C1249 C267 1.232 . S
C1273 C136 1.147 . S
C1281 C242 1.104 . S
C1305 C301 0.730 . S
C1313 C106 0.779 . S
C1337 C174 0.390 . S
C1345 C335 0.419 . S
C1369 C272 1.108 . S
C1377 C208 1.091 1_455 S
C1401 C369 0.638 . S
C1409 C255 0.690 . S
C1433 C140 1.109 . S
C1441 C374 1.102 . S
C1465 C403 0.835 . S
C1473 C38 0.835 . S
C1497 C85 1.001 . S
C1505 C306 1.017 1_565 S
C1529 C340 0.741 . S
C1537 C4 0.746 . S
