# Generated by pormake.
# Topology rkf, (6)-cn, num edge types: 1
# Building blocks:
#     Node 0, Type 0, BuildingBlock: NUHQIS_clean_sbu_0, # of connection points: 6
#     Node 1, Type 0, BuildingBlock: NUHQIS_clean_sbu_0, # of connection points: 6
#     Node 2, Type 0, BuildingBlock: NUHQIS_clean_sbu_0, # of connection points: 6
#     Node 3, Type 0, BuildingBlock: NUHQIS_clean_sbu_0, # of connection points: 6
#     Node 4, Type 0, BuildingBlock: NUHQIS_clean_sbu_0, # of connection points: 6
#     Node 5, Type 0, BuildingBlock: NUHQIS_clean_sbu_0, # of connection points: 6
#     Edge 6, Type (0, 0), BuildingBlock: FUNLAD_clean_linker_0, # of connection points: 2
#     Edge 7, Type (0, 0), BuildingBlock: FUNLAD_clean_linker_0, # of connection points: 2
#     Edge 8, Type (0, 0), BuildingBlock: FUNLAD_clean_linker_0, # of connection points: 2
#     Edge 9, Type (0, 0), BuildingBlock: FUNLAD_clean_linker_0, # of connection points: 2
#     Edge 10, Type (0, 0), BuildingBlock: FUNLAD_clean_linker_0, # of connection points: 2
#     Edge 11, Type (0, 0), BuildingBlock: FUNLAD_clean_linker_0, # of connection points: 2
#     Edge 12, Type (0, 0), BuildingBlock: FUNLAD_clean_linker_0, # of connection points: 2
#     Edge 13, Type (0, 0), BuildingBlock: FUNLAD_clean_linker_0, # of connection points: 2
#     Edge 14, Type (0, 0), BuildingBlock: FUNLAD_clean_linker_0, # of connection points: 2
#     Edge 15, Type (0, 0), BuildingBlock: FUNLAD_clean_linker_0, # of connection points: 2
#     Edge 16, Type (0, 0), BuildingBlock: FUNLAD_clean_linker_0, # of connection points: 2
#     Edge 17, Type (0, 0), BuildingBlock: FUNLAD_clean_linker_0, # of connection points: 2
#     Edge 18, Type (0, 0), BuildingBlock: FUNLAD_clean_linker_0, # of connection points: 2
#     Edge 19, Type (0, 0), BuildingBlock: FUNLAD_clean_linker_0, # of connection points: 2
#     Edge 20, Type (0, 0), BuildingBlock: FUNLAD_clean_linker_0, # of connection points: 2
#     Edge 21, Type (0, 0), BuildingBlock: FUNLAD_clean_linker_0, # of connection points: 2
#     Edge 22, Type (0, 0), BuildingBlock: FUNLAD_clean_linker_0, # of connection points: 2
#     Edge 23, Type (0, 0), BuildingBlock: FUNLAD_clean_linker_0, # of connection points: 2
# Relax obj value: 0.599
# Max RMSD: 0.255
# Mean RMSD: 0.255
data_MOF--net-rkf--node1-NUHQIS_clean_sbu_0--edge1-FUNLAD_clean_linker_0
_symmetry_space_group_name_H-M    P1
_symmetry_Int_Tables_number       1
_symmetry_cell_setting            triclinic
loop_
_symmetry_equiv_pos_as_xyz
'x, y, z'
_cell_length_a     28.605247
_cell_length_b     28.984335
_cell_length_c     52.220551
_cell_angle_alpha  89.671565
_cell_angle_beta   89.995082
_cell_angle_gamma 121.11277
loop_
_atom_site_label
_atom_site_type_symbol
_atom_site_fract_x
_atom_site_fract_y
_atom_site_fract_z
_atom_type_partial_charge
Tb0 Tb 0.28332 0.10593 0.149 0.0
Eu1 Eu 0.36993 0.23436 0.13434 0.0
C2 C 0.24651 0.1743 0.11833 0.0
C3 C 0.31859 0.1398 1.08946 0.0
C4 C 0.20791 0.96522 0.17593 0.0
C5 C 0.16885 0.86944 0.18339 0.0
C6 C 0.17487 0.91173 0.168 0.0
C7 C 0.23601 0.97622 0.19921 0.0
C8 C 0.22983 0.93389 0.21471 0.0
C9 C 0.19574 0.87995 0.20707 0.0
C10 C 0.21321 0.0086 0.15926 0.0
O11 O 0.36224 0.11188 0.15178 0.0
O12 O 0.42104 0.20391 0.15158 0.0
O13 O 0.33322 0.23143 0.17376 0.0
O14 O 0.30684 0.14558 0.18665 0.0
C15 C 0.41139 0.15465 0.15412 0.0
O16 O 0.4479 0.29938 0.11933 0.0
O17 O 0.39241 0.31786 0.1387 0.0
O18 O 0.29528 0.2136 1.11211 0.0
O19 O 0.2395 0.147 0.13959 0.0
O20 O 0.28706 0.10457 1.1071 0.0
O21 O 0.35576 0.19029 1.09557 0.0
C22 C 0.31741 0.19456 0.19201 0.0
O23 O 0.21456 0.04956 0.17022 0.0
O24 O 0.24951 0.02383 0.14116 0.0
C25 C 0.44809 0.37758 1.10632 0.0
C26 C 0.46643 0.45793 1.07037 0.0
C27 C 0.50684 0.46703 1.08833 0.0
C28 C 0.49757 0.42713 1.10627 0.0
C29 C 0.40801 0.36798 1.08819 0.0
C30 C 0.41706 0.40787 1.0704 0.0
C31 C 0.43796 0.33694 0.12586 0.0
H32 H 0.14292 0.82848 0.17678 0.0
H33 H 0.15346 0.90263 0.14989 0.0
H34 H 0.26218 0.01738 0.20552 0.0
H35 H 0.25053 0.94342 0.23299 0.0
H36 H 0.5452 0.50517 1.08872 0.0
H37 H 0.52885 0.43508 0.12023 0.0
H38 H 0.36965 0.32978 1.0879 0.0
H39 H 0.38563 0.39927 1.05642 0.0
Tb40 Tb 0.27876 0.31724 0.47603 0.0
Eu41 Eu 0.25448 0.40989 0.45767 0.0
C42 C 0.15956 0.2935 0.47013 0.0
C43 C 0.27569 0.33938 0.41698 0.0
C44 C 0.32704 0.23103 0.50535 0.0
C45 C 0.37537 0.18543 0.51655 0.0
C46 C 0.34473 0.19558 0.49911 0.0
C47 C 0.34047 0.25661 0.5292 0.0
C48 C 0.37094 0.2463 0.54675 0.0
C49 C 0.38873 0.21054 0.54061 0.0
C50 C 0.29699 0.24257 0.48619 0.0
O51 O 0.35032 0.39237 0.48847 0.0
O52 O 0.34533 0.44524 0.45742 0.0
O53 O 0.24305 0.40551 0.50169 0.0
O54 O 0.25637 0.33597 0.51312 0.0
C55 C 0.3734 0.43675 0.47463 0.0
O56 O 0.23461 0.44659 0.42655 0.0
O57 O 0.25714 0.48621 0.46334 0.0
O58 O 0.17429 0.34404 0.47205 0.0
O59 O 0.19467 0.28029 0.462 0.0
O60 O 0.30376 0.33438 0.43556 0.0
O61 O 0.24313 0.35762 0.42241 0.0
C62 C 0.24357 0.37228 0.51924 0.0
O63 O 0.25401 0.24307 0.49406 0.0
O64 O 0.32706 0.2829 0.47093 0.0
C65 C 0.19783 0.4997 0.43649 0.0
C66 C 0.10915 0.50515 0.4168 0.0
C67 C 0.16285 0.5417 0.40844 0.0
C68 C 0.20669 0.53895 0.41824 0.0
C69 C 0.14553 0.46696 0.44695 0.0
C70 C 0.10156 0.4702 0.43741 0.0
C71 C 0.24065 0.48684 0.44013 0.0
H72 H 0.38899 0.15826 0.51108 0.0
H73 H 0.3352 0.17603 0.48062 0.0
H74 H 0.32744 0.28449 0.53423 0.0
H75 H 0.3798 0.26567 0.56525 0.0
H76 H 0.17083 0.56898 0.39255 0.0
H77 H 0.24687 0.56441 0.40991 0.0
H78 H 0.13803 0.43637 0.4611 0.0
H79 H 0.06107 0.44243 0.44483 0.0
Tb80 Tb 0.11944 0.3312 0.8133 0.0
Eu81 Eu -0.00998 0.26914 0.79667 0.0
C82 C 0.06513 0.22331 0.78372 0.0
C83 C 0.08852 0.32755 0.75305 0.0
C84 C 0.25471 0.41533 0.84468 0.0
C85 C 0.34636 0.48357 0.85741 0.0
C86 C 0.31095 0.44535 0.83981 0.0
C87 C 0.23384 0.4251 0.86693 0.0
C88 C 0.26923 0.46309 0.88463 0.0
C89 C 0.32602 0.49222 0.88026 0.0
C90 C 0.2185 0.37469 0.82615 0.0
O91 O 0.10196 0.39568 0.81361 0.0
O92 O 0.0082 0.34685 0.81476 0.0
O93 O -0.00405 0.23891 0.83647 0.0
O94 O 0.07506 0.31236 0.85027 0.0
C95 C 0.05483 0.39257 0.81651 0.0
O96 O 0.9191 0.27042 0.78216 0.0
O97 O 0.90931 0.19687 0.79865 0.0
O98 O 0.02317 0.22551 0.77558 0.0
O99 O 0.08781 0.24626 0.80552 0.0
O100 O 0.1241 0.33502 0.77114 0.0
O101 O 0.03618 0.30801 0.7587 0.0
C102 C 0.02866 0.26721 0.85542 0.0
O103 O 0.17954 0.32896 0.83545 0.0
O104 O 0.20114 0.3924 0.80776 0.0
C105 C 0.84614 0.18786 0.76707 0.0
C106 C 0.76904 0.12715 0.72918 0.0
C107 C 0.75922 0.15833 0.74635 0.0
C108 C 0.79748 0.18831 0.76524 0.0
C109 C 0.85628 0.15706 0.74989 0.0
C110 C 0.81794 0.1268 0.73115 0.0
C111 C 0.8855 0.21939 0.78712 0.0
H112 H 0.38973 0.50578 0.8533 0.0
H113 H 0.32756 0.43879 0.82249 0.0
H114 H 0.19036 0.40267 0.87084 0.0
H115 H 0.2522 0.46811 0.90218 0.0
H116 H 0.72194 0.15934 0.74523 0.0
H117 H 0.78912 0.21195 0.77841 0.0
H118 H 0.89387 0.15659 0.7509 0.0
H119 H 0.82713 0.10405 0.71781 0.0
Tb120 Tb 0.92957 0.14308 0.15089 0.0
Eu121 Eu 0.85945 0.01639 0.13242 0.0
C122 C -0.01585 0.08519 0.1264 0.0
C123 C 0.90868 0.11442 1.08964 0.0
C124 C 0.96437 0.26465 0.18815 0.0
C125 C -0.00414 0.34042 0.21696 0.0
C126 C 0.00549 0.31551 0.19646 0.0
C127 C 0.91336 0.23902 0.20047 0.0
C128 C 0.90351 0.264 0.22079 0.0
C129 C 0.94473 0.31491 0.22942 0.0
C130 C 0.97425 0.23902 0.16629 0.0
O131 O 0.8439 0.10938 0.16149 0.0
O132 O 0.80416 0.04949 0.12909 0.0
O133 O 0.86405 0.01355 0.17609 0.0
O134 O 0.93627 0.09878 0.18407 0.0
C135 C 0.80216 0.08098 0.14631 0.0
O136 O 0.78598 0.93683 0.13555 0.0
O137 O 0.85468 0.94798 1.11272 0.0
O138 O 0.94694 0.04384 0.1394 0.0
O139 O -0.01455 0.13093 0.12787 0.0
O140 O 0.92283 0.14941 1.1087 0.0
O141 O 0.88589 0.06211 1.09417 0.0
C142 C 0.90239 0.0485 0.19161 0.0
O143 O -0.00739 0.20716 0.17167 0.0
O144 O 0.9351 0.21786 0.14946 0.0
C145 C 0.76701 0.88061 1.09943 0.0
C146 C 0.70414 0.81991 1.05727 0.0
C147 C 0.69553 0.85915 1.06832 0.0
C148 C 0.72696 0.88951 1.08914 0.0
C149 C 0.77378 0.83982 1.08934 0.0
C150 C 0.74285 0.80987 1.06845 0.0
C151 C 0.80416 0.91487 0.11971 0.0
H152 H 0.02886 0.37914 0.22338 0.0
H153 H 0.04513 0.33584 0.18717 0.0
H154 H 0.88102 0.19971 0.1943 0.0
H155 H 0.86351 0.24343 0.22969 0.0
H156 H 0.66571 0.86758 1.06041 0.0
H157 H 0.72097 0.92083 1.09669 0.0
H158 H 0.80454 0.83245 1.09703 0.0
H159 H 0.75161 0.7809 1.06024 0.0
Tb160 Tb 0.93669 0.93072 0.47782 0.0
Eu161 Eu -0.01251 0.85557 0.4635 0.0
C162 C 0.06016 0.97656 0.47879 0.0
C163 C 0.95747 0.91669 0.41885 0.0
C164 C 0.85813 -0.01171 0.50507 0.0
C165 C 0.79401 0.01576 0.51664 0.0
C166 C 0.83375 0.01863 0.50006 0.0
C167 C 0.84208 0.95448 0.52665 0.0
C168 C 0.8025 0.9517 0.5433 0.0
C169 C 0.77809 0.98242 0.53851 0.0
C170 C 0.89741 -0.01052 0.48675 0.0
O171 O 0.87226 0.84817 0.48632 0.0
O172 O 0.89679 0.80707 0.45664 0.0
O173 O -0.01772 0.85276 0.50766 0.0
O174 O 0.95837 0.91606 0.51609 0.0
C175 C 0.85991 0.80682 0.47165 0.0
O176 O -0.01964 0.77696 0.46541 0.0
O177 O 0.05116 0.84474 0.44723 0.0
O178 O 0.05274 0.929 0.48329 0.0
O179 O 0.02223 0.98032 0.46657 0.0
O180 O 0.92755 0.92243 0.43622 0.0
O181 O -0.01092 0.89748 0.42532 0.0
C182 C 0.97385 0.88262 0.52404 0.0
O183 O 0.94383 -0.00138 0.49599 0.0
O184 O 0.87677 0.94992 0.47051 0.0
C185 C 0.02335 0.75803 0.43204 0.0
C186 C 0.03067 0.69938 0.39106 0.0
C187 C 0.0508 0.69751 0.41537 0.0
C188 C 0.04719 0.72671 0.43569 0.0
C189 C 0.00056 0.75779 0.40828 0.0
C190 C 0.0042 0.72873 0.38795 0.0
C191 C 0.02556 0.79322 0.45262 0.0
H192 H 0.77567 0.03953 0.5123 0.0
H193 H 0.8452 0.04428 0.48321 0.0
H194 H 0.86017 0.9303 0.5306 0.0
H195 H 0.79192 0.92638 0.56021 0.0
H196 H 0.07095 0.67496 0.41844 0.0
H197 H 0.06467 0.72629 0.45404 0.0
H198 H -0.01807 0.78178 0.4052 0.0
H199 H -0.01093 0.7319 0.36941 0.0
Tb200 Tb 0.10715 0.94255 0.81272 0.0
Eu201 Eu 0.22754 0.95957 0.8017 0.0
C202 C 0.19973 0.04779 0.78334 0.0
C203 C 0.13692 0.9287 0.75553 0.0
C204 C 0.96564 0.89255 0.83848 0.0
C205 C 0.86811 0.84904 0.84594 0.0
C206 C 0.91375 0.88025 0.83046 0.0
C207 C 0.97149 0.87245 0.86197 0.0
C208 C 0.9258 0.84132 0.87756 0.0
C209 C 0.87362 0.82964 0.86979 0.0
C210 C 0.01246 0.92523 0.82159 0.0
O211 O 0.09791 0.86276 0.81389 0.0
O212 O 0.18296 0.88908 0.82818 0.0
O213 O 0.23608 0.00558 0.83834 0.0
O214 O 0.1465 0.95946 0.85092 0.0
C215 C 0.13206 0.85148 0.82487 0.0
O216 O 0.2756 0.92589 0.78747 0.0
O217 O 0.31581 0.0039 0.80593 0.0
O218 O 0.23124 0.02785 0.78054 0.0
O219 O 0.1554 0.02501 0.79781 0.0
O220 O 0.10966 0.94252 0.77082 0.0
O221 O 0.17823 0.92476 0.76437 0.0
C222 C 0.19873 -0.00763 0.85627 0.0
O223 O 0.05674 0.96413 0.832 0.0
O224 O 0.02319 0.89839 0.80515 0.0
C225 C 0.36157 -0.0075 0.77109 0.0
C226 C 0.42913 0.03189 0.72736 0.0
C227 C 0.41335 0.9808 0.73749 0.0
C228 C 0.38 0.96137 0.75928 0.0
C229 C 0.37874 0.0442 0.76142 0.0
C230 C 0.41233 0.06373 0.73988 0.0
C231 C 0.32209 0.9697 0.79243 0.0
H232 H 0.8285 0.8402 0.83923 0.0
H233 H 0.90853 0.89495 0.8122 0.0
H234 H 0.01131 0.88123 0.86833 0.0
H235 H 0.93158 0.82762 0.89596 0.0
H236 H 0.42571 0.95543 0.72821 0.0
H237 H 0.36726 0.9214 0.76646 0.0
H238 H 0.36484 0.06903 0.76995 0.0
H239 H 0.42274 0.10276 0.73225 0.0
C240 C -0.00933 0.02205 1.09605 0.0
C241 C 0.00608 0.07501 1.10286 0.0
C242 C 0.00451 0.01138 1.07205 0.0
C243 C 0.03476 0.05358 1.0547 0.0
C244 C 0.04959 0.1063 1.06124 0.0
C245 C 0.03565 0.11699 1.08511 0.0
C246 C 0.05971 0.04453 1.03197 0.0
C247 C 0.1139 0.06462 1.03082 0.0
C248 C 0.14947 0.09254 1.05299 0.0
C249 C 0.13995 0.06541 1.07653 0.0
C250 C 0.16813 0.09315 1.09841 0.0
C251 C 0.20764 0.14837 1.09701 0.0
H252 H 0.19586 0.16924 1.0335 0.0
C253 C 0.21715 0.1754 1.07332 0.0
C254 C 0.1884 0.14761 1.05146 0.0
H255 H 0.24802 0.21774 1.07149 0.0
H256 H 0.96742 -0.01133 1.10913 0.0
H257 H -0.00627 0.97064 1.06748 0.0
H258 H 0.07353 0.13946 1.04812 0.0
H259 H 0.04746 0.15809 1.08949 0.0
H260 H 0.03398 0.02178 1.01599 0.0
H261 H 0.13205 0.06088 1.01329 0.0
H262 H 0.11027 0.02267 1.078 0.0
H263 H 0.16071 0.07068 1.1161 0.0
C264 C 0.12219 0.07423 0.48669 0.0
C265 C 0.09653 0.0211 0.49572 0.0
C266 C 0.1382 0.11627 0.50396 0.0
C267 C 0.12441 0.10484 0.53002 0.0
C268 C 0.10564 0.05285 0.53939 0.0
C269 C 0.09383 0.01143 0.52226 0.0
C270 C 0.11435 0.14242 0.54444 0.0
C271 C 0.06449 0.136 0.54119 0.0
C272 C 0.06222 0.17378 0.52295 0.0
C273 C 0.05584 0.1597 0.49691 0.0
C274 C 0.08324 0.19971 0.47832 0.0
C275 C 0.11285 0.25388 0.48558 0.0
H276 H 0.08908 0.23943 0.54963 0.0
C277 C 0.10787 0.26771 0.5108 0.0
C278 C 0.08432 0.22779 0.52968 0.0
H279 H 0.12875 0.30938 0.51666 0.0
H280 H 0.12531 0.08271 0.46632 0.0
H281 H 0.15356 0.1565 0.49646 0.0
H282 H 0.09536 0.04334 0.55947 0.0
H283 H 0.07628 0.97099 0.52969 0.0
H284 H 0.14932 0.18342 0.54487 0.0
H285 H 0.02988 0.09488 0.54007 0.0
H286 H 0.03805 0.11794 0.49137 0.0
H287 H 0.08588 0.18815 0.45892 0.0
C288 C 0.2619 0.12912 0.75712 0.0
C289 C 0.20888 0.09116 0.76559 0.0
C290 C 0.26977 0.16495 0.73722 0.0
C291 C 0.22475 0.16287 0.7254 0.0
C292 C 0.17173 0.12355 0.73332 0.0
C293 C 0.16391 0.0889 0.75362 0.0
C294 C 0.23338 0.202 0.70483 0.0
C295 C 0.20611 0.2284 0.70376 0.0
C296 C 0.16949 0.22551 0.72453 0.0
C297 C 0.18808 0.23694 0.74991 0.0
C298 C 0.15276 0.23186 0.76962 0.0
C299 C 0.09836 0.21606 0.76425 0.0
H300 H 0.10012 0.19974 0.69963 0.0
C301 C 0.07965 0.20354 0.73882 0.0
C302 C 0.11514 0.20884 0.7191 0.0
H303 H 0.03821 0.19195 0.73391 0.0
H304 H 0.29715 0.13053 0.76564 0.0
H305 H 0.31092 0.19436 0.73111 0.0
H306 H 0.13619 0.11925 0.72369 0.0
H307 H 0.12259 0.05845 0.75901 0.0
H308 H 0.26309 0.20967 0.68993 0.0
H309 H 0.21133 0.25314 0.68706 0.0
H310 H 0.23014 0.25024 0.75445 0.0
H311 H 0.16885 0.24268 0.78885 0.0
C312 C 0.43368 0.50891 1.04492 0.0
C313 C 0.47574 0.49937 1.05097 0.0
C314 C 0.43803 0.54014 1.02363 0.0
C315 C 0.48488 0.56273 1.00785 0.0
C316 C 0.52889 0.55709 1.01533 0.0
C317 C 0.52444 0.52575 1.03671 0.0
C318 C 0.48473 0.58194 0.98136 0.0
C319 C 0.44435 0.58837 0.97226 0.0
C320 C 0.42456 0.57633 0.94535 0.0
C321 C 0.38074 0.58261 0.93829 0.0
C322 C 0.35069 0.55835 0.91615 0.0
C323 C 0.36385 0.52723 0.9006 0.0
H324 H 0.4735 0.54247 0.93297 0.0
C325 C 0.41056 0.52494 0.90642 0.0
C326 C 0.44058 0.54914 0.92849 0.0
H327 H 0.42172 0.50102 0.89498 0.0
H328 H 0.39611 0.48994 1.05594 0.0
H329 H 0.40272 0.54269 1.01881 0.0
H330 H 0.56542 0.57387 1.00361 0.0
H331 H 0.55764 0.51922 1.04098 0.0
H332 H 0.51418 0.5823 0.96815 0.0
H333 H 0.41889 0.59427 0.98562 0.0
H334 H 0.36741 0.60334 0.95079 0.0
H335 H 0.31559 0.56185 0.91189 0.0
C336 C 0.02023 0.44259 0.39549 0.0
C337 C 0.0623 0.49578 0.40042 0.0
C338 C -0.01355 0.43092 0.37428 0.0
C339 C -0.00611 0.47222 0.35736 0.0
C340 C 0.03138 0.5259 0.36398 0.0
C341 C 0.06486 0.53768 0.38548 0.0
C342 C 0.97308 0.45989 0.33064 0.0
C343 C 0.9316 0.41106 0.32357 0.0
C344 C 0.92782 0.38807 0.29771 0.0
C345 C 0.90198 0.33182 0.29576 0.0
C346 C 0.906 0.30807 0.27336 0.0
C347 C 0.93545 0.34 0.25214 0.0
H348 H 0.97319 0.46328 0.27628 0.0
C349 C 0.95811 0.39609 0.25343 0.0
C350 C 0.95429 0.41995 0.27594 0.0
H351 H -0.02029 0.42173 0.23717 0.0
H352 H 0.01677 0.40895 0.40627 0.0
H353 H 0.95878 0.38889 0.36995 0.0
H354 H 0.03772 0.55857 0.35145 0.0
H355 H 0.09563 0.57933 0.38912 0.0
H356 H -0.00117 0.48908 0.31619 0.0
H357 H 0.90503 0.38321 0.3383 0.0
H358 H 0.88122 0.30615 0.31214 0.0
H359 H 0.88825 0.26481 0.27319 0.0
C360 C 0.71827 0.04528 0.70198 0.0
C361 C 0.73031 0.09728 0.70825 0.0
C362 C 0.69126 0.02123 0.67927 0.0
C363 C 0.67572 0.0489 0.66225 0.0
C364 C 0.68302 0.09863 0.66988 0.0
C365 C 0.71006 0.12265 0.69268 0.0
C366 C 0.6633 0.0335 0.63485 0.0
C367 C 0.65876 -0.0116 0.62515 0.0
C368 C 0.67863 -0.01395 0.59914 0.0
C369 C 0.67099 0.93666 0.59075 0.0
C370 C 0.70088 0.93481 0.57003 0.0
C371 C 0.73917 0.98244 0.55729 0.0
H372 H 0.72214 0.07237 0.59082 0.0
C373 C 0.74365 0.03123 0.56434 0.0
C374 C 0.71385 0.03313 0.58501 0.0
H375 H 0.77307 0.06874 0.55507 0.0
H376 H 0.73244 0.02437 0.71399 0.0
H377 H 0.68676 0.98293 0.67454 0.0
H378 H 0.67151 0.12092 0.65727 0.0
H379 H 0.71862 0.16276 0.6971 0.0
H380 H 0.66742 0.06474 0.62184 0.0
H381 H 0.64831 0.9545 0.63773 0.0
H382 H 0.6443 0.89977 0.60122 0.0
H383 H 0.69569 0.89638 0.56469 0.0
C384 C 0.66742 0.74265 1.02632 0.0
C385 C 0.67916 0.79491 1.03228 0.0
C386 C 0.65935 0.72532 1.00091 0.0
C387 C 0.66238 0.75987 0.98114 0.0
C388 C 0.66639 0.80872 0.98746 0.0
C389 C 0.67522 0.82639 1.01276 0.0
C390 C 0.67225 0.75178 0.95416 0.0
C391 C 0.7086 0.73693 0.94848 0.0
C392 C 0.74251 0.75362 0.92476 0.0
C393 C 0.7776 0.73382 0.92083 0.0
C394 C 0.81877 0.75682 0.90225 0.0
C395 C 0.8258 0.80027 0.88717 0.0
H396 H 0.72262 0.81268 0.91101 0.0
C397 C 0.78873 0.81799 0.89002 0.0
C398 C 0.74762 0.79507 0.90857 0.0
H399 H 0.79332 0.85178 0.87892 0.0
H400 H 0.66812 0.71654 1.04104 0.0
H401 H 0.6544 0.68652 0.99661 0.0
H402 H 0.66834 0.83583 0.97254 0.0
H403 H 0.6839 0.86677 1.0165 0.0
H404 H 0.6594 0.76964 0.93958 0.0
H405 H 0.72082 0.7192 0.96349 0.0
H406 H 0.77487 0.70211 0.933 0.0
H407 H 0.84607 0.74159 0.9002 0.0
C408 C 0.09694 0.68754 0.36481 0.0
C409 C 0.04381 0.67788 0.36819 0.0
C410 C 0.11468 0.68254 0.34064 0.0
C411 C 0.07969 0.6684 0.31943 0.0
C412 C 0.02454 0.65112 0.32361 0.0
C413 C 0.00673 0.656 0.34778 0.0
C414 C 0.10078 0.68116 0.29275 0.0
C415 C 0.14945 0.72566 0.28737 0.0
C416 C 0.16196 0.75689 0.26306 0.0
C417 C 0.21577 0.79938 0.25877 0.0
C418 C 0.22743 0.83794 0.23971 0.0
C419 C 0.18537 0.83496 0.22456 0.0
H420 H 0.07819 0.72092 0.24956 0.0
C421 C 0.13212 0.79056 0.22771 0.0
C422 C 0.12045 0.75199 0.24673 0.0
H423 H 0.0986 0.78729 0.21658 0.0
H424 H 0.12643 0.70368 0.3802 0.0
H425 H 0.15686 0.69369 0.33831 0.0
H426 H -0.00363 0.63888 0.30769 0.0
H427 H 0.96503 0.64653 0.35001 0.0
H428 H 0.07151 0.66077 0.27752 0.0
H429 H 0.17875 0.74553 0.30267 0.0
H430 H 0.24855 0.80438 0.27109 0.0
H431 H 0.26909 0.87111 0.23745 0.0
C432 C 0.49685 0.1042 0.69791 0.0
C433 C 0.45683 0.04981 0.70215 0.0
C434 C 0.51193 0.12427 0.67299 0.0
C435 C 0.48681 0.09024 0.65193 0.0
C436 C 0.45217 0.03474 0.65628 0.0
C437 C 0.43706 0.01465 0.68119 0.0
C438 C 0.48854 0.11164 0.62585 0.0
C439 C 0.49002 0.15847 0.62221 0.0
C440 C 0.47057 0.17201 0.59859 0.0
C441 C 0.48401 0.22549 0.59473 0.0
C442 C 0.45892 0.23844 0.57538 0.0
C443 C 0.4194 0.19801 0.55956 0.0
H444 H 0.41951 0.08988 0.58481 0.0
C445 C 0.40742 0.1448 0.56279 0.0
C446 C 0.43258 0.13187 0.58208 0.0
H447 H 0.37654 0.11252 0.55123 0.0
H448 H 0.51393 0.13189 0.7138 0.0
H449 H 0.54077 0.1669 0.67031 0.0
H450 H 0.43286 0.00753 0.64037 0.0
H451 H 0.40627 0.9725 0.68383 0.0
H452 H 0.47895 0.08425 0.60994 0.0
H453 H 0.49976 0.18582 0.63817 0.0
H454 H 0.51274 0.25714 0.60729 0.0
H455 H 0.46972 0.27999 0.57312 0.0
C456 C 0.4525 0.09605 0.15786 0.0
C457 C 0.45868 0.14746 0.15855 0.0
C458 C 0.49801 0.09011 0.15992 0.0
C459 C 0.55091 0.13555 0.16268 0.0
C460 C 0.55666 0.18657 0.16436 0.0
C461 C 0.51132 0.19254 0.1622 0.0
C462 C 0.60107 0.13184 0.16386 0.0
C463 C 0.60446 0.09084 0.15378 0.0
C464 C 0.65573 0.08902 0.15285 0.0
C465 C 0.65917 0.05461 0.13512 0.0
C466 C 0.70645 0.05189 0.13312 0.0
C467 C 0.75164 0.0833 0.14897 0.0
H468 H 0.69939 0.14576 0.18353 0.0
C469 C 0.74803 0.11709 0.16708 0.0
C470 C 0.70063 0.11986 0.16907 0.0
H471 H 0.78183 0.14152 0.17975 0.0
H472 H 0.41259 0.06035 0.15528 0.0
H473 H 0.49138 0.04985 0.1594 0.0
H474 H 0.59667 0.22228 0.16677 0.0
H475 H 0.51783 0.23278 0.16301 0.0
H476 H 0.63749 0.16634 0.1716 0.0
H477 H 0.5691 0.05858 0.14416 0.0
H478 H 0.62528 0.03004 0.12248 0.0
H479 H 0.70753 0.02521 0.11901 0.0
C480 C 0.45903 0.51895 0.45926 0.0
C481 C 0.43219 0.478 0.4778 0.0
C482 C 0.51404 0.55868 0.462 0.0
C483 C 0.54381 0.55872 0.48344 0.0
C484 C 0.51697 0.51821 0.50215 0.0
C485 C 0.46187 0.47787 0.49924 0.0
C486 C 0.60202 0.60192 0.48708 0.0
C487 C 0.63669 0.62608 0.46724 0.0
C488 C 0.69443 0.67087 0.46996 0.0
C489 C 0.73232 0.67791 0.45095 0.0
C490 C 0.78616 0.72134 0.45183 0.0
C491 C 0.80324 0.75959 0.4715 0.0
H492 H 0.68316 0.70526 0.50456 0.0
C493 C 0.76534 0.75268 0.49058 0.0
C494 C 0.71155 0.70864 0.48991 0.0
H495 H 0.77711 0.78147 0.50598 0.0
H496 H 0.43752 0.52051 0.44252 0.0
H497 H 0.53275 0.59002 0.44754 0.0
H498 H 0.53877 0.51758 0.51898 0.0
H499 H 0.44237 0.44713 0.51394 0.0
H500 H 0.61695 0.61267 0.50656 0.0
H501 H 0.62284 0.6113 0.44799 0.0
H502 H 0.72017 0.64975 0.43524 0.0
H503 H 0.81409 0.72547 0.43674 0.0
C504 C 0.1031 0.49221 0.82424 0.0
C505 C 0.05411 0.44273 0.82097 0.0
C506 C 0.1027 0.54 0.82682 0.0
C507 C 0.05316 0.53944 0.82631 0.0
C508 C 0.00423 0.48997 0.82323 0.0
C509 C 0.00459 0.44211 0.82076 0.0
C510 C 0.05155 0.58998 0.82706 0.0
C511 C 0.09059 0.63534 0.83841 0.0
C512 C 0.09496 0.68892 0.837 0.0
C513 C 0.1395 0.73248 0.84922 0.0
C514 C 0.14989 0.78482 0.84621 0.0
C515 C 0.11578 0.79512 0.83097 0.0
H516 H 0.02409 0.66692 0.81298 0.0
C517 C 0.06938 0.75145 0.81984 0.0
C518 C 0.05911 0.69885 0.8227 0.0
H519 H 0.04233 0.75811 0.80797 0.0
H520 H 0.14203 0.49432 0.82433 0.0
H521 H 0.14151 0.57738 0.8283 0.0
H522 H 0.96555 0.48835 0.8225 0.0
H523 H 0.96605 0.40481 0.81814 0.0
H524 H 0.01711 0.58906 0.81789 0.0
H525 H 0.12257 0.63382 0.84888 0.0
H526 H 0.16769 0.72637 0.86049 0.0
H527 H 0.18575 0.81748 0.85526 0.0
C528 C 0.33565 0.26218 0.22776 0.0
C529 C 0.30958 0.2083 0.21914 0.0
C530 C 0.32695 0.27493 0.25284 0.0
C531 C 0.29078 0.23432 0.27008 0.0
C532 C 0.26456 0.18062 0.26136 0.0
C533 C 0.27435 0.16778 0.23659 0.0
C534 C 0.27692 0.24629 0.2965 0.0
C535 C 0.31216 0.28778 0.31181 0.0
C536 C 0.29982 0.29827 0.33883 0.0
C537 C 0.34174 0.31907 0.35725 0.0
C538 C 0.33341 0.33166 0.38227 0.0
C539 C 0.28331 0.32596 0.38979 0.0
H540 H 0.21598 0.27665 0.33271 0.0
C541 C 0.24132 0.30599 0.37127 0.0
C542 C 0.24917 0.29166 0.34631 0.0
H543 H 0.20203 0.30065 0.3762 0.0
H544 H 0.36298 0.29477 0.21507 0.0
H545 H 0.34743 0.31684 0.2584 0.0
H546 H 0.23618 0.14812 0.27383 0.0
H547 H 0.25305 0.1259 0.2309 0.0
H548 H 0.23682 0.2176 0.30423 0.0
H549 H 0.35381 0.31351 0.30504 0.0
H550 H 0.3814 0.32529 0.35233 0.0
H551 H 0.36692 0.34687 0.39572 0.0
C552 C 0.22908 0.34049 0.56613 0.0
C553 C 0.22508 0.37248 0.54665 0.0
C554 C 0.20851 0.33751 0.5912 0.0
C555 C 0.18242 0.36599 0.59785 0.0
C556 C 0.17839 0.3978 0.57836 0.0
C557 C 0.19959 0.40136 0.55341 0.0
C558 C 0.15699 0.36205 0.62421 0.0
C559 C 0.17113 0.34741 0.64648 0.0
C560 C 0.14834 0.34533 0.67325 0.0
C561 C 0.18026 0.34931 0.69462 0.0
C562 C 0.16122 0.34525 0.71991 0.0
C563 C 0.1085 0.33564 0.72531 0.0
H564 H 0.06912 0.33243 0.66269 0.0
C565 C 0.07602 0.33147 0.70397 0.0
C566 C 0.09575 0.33669 0.67838 0.0
H567 H 0.03512 0.3237 0.70698 0.0
H568 H 0.24765 0.31693 0.56195 0.0
H569 H 0.21191 0.31157 0.60509 0.0
H570 H 0.15842 0.42013 0.58239 0.0
H571 H 0.19472 0.42592 0.53921 0.0
H572 H 0.12699 0.37425 0.62535 0.0
H573 H 0.20394 0.33904 0.64553 0.0
H574 H 0.22062 0.35545 0.69178 0.0
H575 H 0.18793 0.34829 0.73534 0.0
C576 C 0.0427 0.2764 0.90444 0.0
C577 C 0.01256 0.24647 0.88286 0.0
C578 C 0.02669 0.25592 0.92981 0.0
C579 C -0.01999 0.20443 0.93457 0.0
C580 C 0.9504 0.17481 0.91292 0.0
C581 C 0.966 0.19532 0.88777 0.0
C582 C 0.96099 0.17871 0.96116 0.0
C583 C 0.97705 0.20446 0.98419 0.0
C584 C 0.9566 0.17878 1.0107 0.0
C585 C 0.96789 0.21263 1.03204 0.0
C586 C 0.95148 0.19182 1.05712 0.0
C587 C 0.92317 0.1359 1.06223 0.0
H588 H 0.91895 0.09449 1.00027 0.0
C589 C 0.91184 0.10169 1.04094 0.0
C590 C 0.92805 0.12261 1.01569 0.0
H591 H 0.89087 0.05847 1.04379 0.0
H592 H 0.07887 0.31584 0.90176 0.0
H593 H 0.05159 0.28034 0.94555 0.0
H594 H 0.91449 0.13509 0.91542 0.0
H595 H 0.94138 0.17047 0.87204 0.0
H596 H 0.93025 0.13609 0.96147 0.0
H597 H 0.00569 0.24762 0.98384 0.0
H598 H -0.0101 0.25595 1.02936 0.0
H599 H 0.96178 0.22006 1.07264 0.0
C600 C 0.94218 0.06584 0.23722 0.0
C601 C 0.90883 0.02954 0.21796 0.0
C602 C 0.94868 0.04734 0.26146 0.0
C603 C 0.92263 -0.00834 0.26729 0.0
C604 C 0.88973 0.95567 0.24794 0.0
C605 C 0.88254 0.97408 0.22398 0.0
C606 C 0.92979 0.96906 0.29256 0.0
C607 C 0.94386 -0.00455 0.31539 0.0
C608 C 0.94711 0.97223 0.34122 0.0
C609 C 0.93865 -0.0062 0.36362 0.0
C610 C 0.94209 0.97544 0.38817 0.0
C611 C 0.95562 0.93539 0.39175 0.0
H612 H 0.96832 0.91452 0.32793 0.0
C613 C 0.96531 0.91414 0.3694 0.0
C614 C 0.96053 0.93183 0.34451 0.0
H615 H 0.97575 0.88328 0.37111 0.0
H616 H 0.96348 0.10883 0.23356 0.0
H617 H 0.97517 0.07687 0.27536 0.0
H618 H 0.8691 0.91262 0.25138 0.0
H619 H 0.85681 0.94441 0.20994 0.0
H620 H 0.91976 0.92745 0.29252 0.0
H621 H 0.94979 0.03558 0.31577 0.0
H622 H 0.92874 0.0251 0.36217 0.0
H623 H 0.93461 -0.00654 0.40458 0.0
C624 C 0.975 0.9125 0.56984 0.0
C625 C -0.0126 0.88349 0.5523 0.0
C626 C -0.00865 0.91821 0.59566 0.0
C627 C 0.02136 0.89571 0.60532 0.0
C628 C 0.03347 0.86601 0.58792 0.0
C629 C 0.0167 0.85999 0.56189 0.0
C630 C 0.03763 0.9043 0.63355 0.0
C631 C 0.07229 0.89215 0.64576 0.0
C632 C 0.08825 0.90231 0.67408 0.0
C633 C 0.1305 0.89505 0.68342 0.0
C634 C 0.14648 0.90345 0.70949 0.0
C635 C 0.12062 0.91921 0.72743 0.0
H636 H 0.02928 0.92364 0.68653 0.0
C637 C 0.0783 0.92635 0.71813 0.0
C638 C 0.06239 0.91806 0.69212 0.0
H639 H 0.05697 0.93846 0.73103 0.0
H640 H 0.95296 0.93167 0.56359 0.0
H641 H -0.01921 0.94118 0.60816 0.0
H642 H 0.05588 0.84732 0.5942 0.0
H643 H 0.02774 0.83776 0.54916 0.0
H644 H 0.02045 0.92347 0.64468 0.0
H645 H 0.09123 0.87482 0.6345 0.0
H646 H 0.15157 0.88283 0.67043 0.0
H647 H 0.17917 0.89745 0.71556 0.0
C648 C 0.17988 -0.00237 0.90406 0.0
C649 C 0.21668 0.01459 0.88316 0.0
C650 C 0.19762 0.0185 0.92905 0.0
C651 C 0.25297 0.05743 0.93409 0.0
C652 C 0.28932 0.07453 0.91308 0.0
C653 C 0.27176 0.05347 0.88828 0.0
C654 C 0.27486 0.08233 0.96036 0.0
C655 C 0.24901 0.0621 0.98324 0.0
C656 C 0.27119 0.08454 1.0098 0.0
C657 C 0.24541 0.05101 1.03118 0.0
C658 C 0.2622 0.06881 1.05636 0.0
C659 C 0.30536 0.12162 1.06169 0.0
H660 H 0.33582 0.16534 0.99919 0.0
C661 C 0.33159 0.15574 1.04036 0.0
C662 C 0.31499 0.13747 1.01483 0.0
H663 H 0.36446 0.19683 1.04337 0.0
H664 H 0.13712 0.968 0.90116 0.0
H665 H 0.16749 0.0044 0.94421 0.0
H666 H 0.33207 0.10444 0.91585 0.0
H667 H 0.30175 0.06809 0.87301 0.0
H668 H 0.31554 0.1179 0.96076 0.0
H669 H 0.20965 0.02489 0.98286 0.0
H670 H 0.21147 0.01028 1.02845 0.0
H671 H 0.24007 0.04077 1.0718 0.0
loop_
_geom_bond_atom_site_label_1
_geom_bond_atom_site_label_2
_geom_bond_distance
_geom_bond_site_symmetry_2
_ccdc_geom_bond_type
Tb0 C10 2.825 . S
Tb0 O11 2.347 . S
Tb0 O14 2.366 . S
Tb0 O19 2.418 . S
Tb0 O20 2.384 1_554 S
Tb0 O23 2.479 . S
Tb0 O24 2.471 . S
Eu1 O12 2.418 . S
Eu1 O13 2.384 . S
Eu1 O16 2.479 1_554 S
Eu1 O17 2.471 1_554 S
Eu1 O18 2.347 . S
Eu1 O21 2.366 1_554 S
Eu1 C31 2.825 1_554 S
C2 O18 1.259 . S
C2 O19 1.265 . S
C3 O20 1.255 . S
C3 O21 1.265 . S
C4 C6 1.380 . S
C4 C7 1.374 . S
C4 C10 1.507 . S
C5 C6 1.384 . S
C5 C9 1.387 . S
C5 H32 0.930 . S
C6 C4 1.380 . S
C6 C5 1.384 . S
C6 H33 0.931 . S
C7 C4 1.374 . S
C7 C8 1.390 . S
C7 H34 0.930 . S
C8 C7 1.390 . S
C8 C9 1.391 . S
C8 H35 0.930 . S
C9 C5 1.387 . S
C9 C8 1.391 . S
C10 Tb0 2.825 . S
C10 C4 1.507 . S
C10 O23 1.238 . S
C10 O24 1.247 . S
O11 Tb0 2.347 . S
O11 C15 1.259 . S
O12 Eu1 2.418 . S
O12 C15 1.265 . S
O13 Eu1 2.384 . S
O13 C22 1.255 . S
O14 Tb0 2.366 . S
O14 C22 1.265 . S
C15 O11 1.259 . S
C15 O12 1.265 . S
O16 Eu1 2.479 1_556 S
O16 C31 1.238 . S
O17 Eu1 2.471 1_556 S
O17 C31 1.247 . S
O18 Eu1 2.347 . S
O18 C2 1.259 . S
O19 Tb0 2.418 . S
O19 C2 1.265 . S
O20 Tb0 2.384 1_556 S
O20 C3 1.255 . S
O21 Eu1 2.366 1_556 S
O21 C3 1.265 . S
C22 O13 1.255 . S
C22 O14 1.265 . S
O23 Tb0 2.479 . S
O23 C10 1.238 . S
O24 Tb0 2.471 . S
O24 C10 1.247 . S
C25 C28 1.380 . S
C25 C29 1.374 . S
C25 C31 1.507 . S
C26 C27 1.387 . S
C26 C30 1.391 . S
C27 C26 1.387 . S
C27 C28 1.384 . S
C27 H36 0.930 . S
C28 C25 1.380 . S
C28 C27 1.384 . S
C28 H37 0.931 . S
C29 C25 1.374 . S
C29 C30 1.390 . S
C29 H38 0.930 . S
C30 C26 1.391 . S
C30 C29 1.390 . S
C30 H39 0.930 . S
C31 Eu1 2.825 1_556 S
C31 O16 1.238 . S
C31 O17 1.247 . S
C31 C25 1.507 . S
H32 C5 0.930 . S
H33 C6 0.931 . S
H34 C7 0.930 . S
H35 C8 0.930 . S
H36 C27 0.930 . S
H37 C28 0.931 . S
H38 C29 0.930 . S
H39 C30 0.930 . S
Tb40 C50 2.825 . S
Tb40 O51 2.347 . S
Tb40 O54 2.366 . S
Tb40 O59 2.418 . S
Tb40 O60 2.384 . S
Tb40 O63 2.479 . S
Tb40 O64 2.471 . S
Eu41 O52 2.418 . S
Eu41 O53 2.384 . S
Eu41 O56 2.479 . S
Eu41 O57 2.471 . S
Eu41 O58 2.347 . S
Eu41 O61 2.366 . S
Eu41 C71 2.825 . S
C42 O58 1.259 . S
C42 O59 1.265 . S
C43 O60 1.255 . S
C43 O61 1.265 . S
C44 C46 1.380 . S
C44 C47 1.374 . S
C44 C50 1.507 . S
C45 C46 1.384 . S
C45 C49 1.387 . S
C45 H72 0.930 . S
C46 C44 1.380 . S
C46 C45 1.384 . S
C46 H73 0.931 . S
C47 C44 1.374 . S
C47 C48 1.390 . S
C47 H74 0.930 . S
C48 C47 1.390 . S
C48 C49 1.391 . S
C48 H75 0.930 . S
C49 C45 1.387 . S
C49 C48 1.391 . S
C50 Tb40 2.825 . S
C50 C44 1.507 . S
C50 O63 1.238 . S
C50 O64 1.247 . S
O51 Tb40 2.347 . S
O51 C55 1.259 . S
O52 Eu41 2.418 . S
O52 C55 1.265 . S
O53 Eu41 2.384 . S
O53 C62 1.255 . S
O54 Tb40 2.366 . S
O54 C62 1.265 . S
C55 O51 1.259 . S
C55 O52 1.265 . S
O56 Eu41 2.479 . S
O56 C71 1.238 . S
O57 Eu41 2.471 . S
O57 C71 1.247 . S
O58 Eu41 2.347 . S
O58 C42 1.259 . S
O59 Tb40 2.418 . S
O59 C42 1.265 . S
O60 Tb40 2.384 . S
O60 C43 1.255 . S
O61 Eu41 2.366 . S
O61 C43 1.265 . S
C62 O53 1.255 . S
C62 O54 1.265 . S
O63 Tb40 2.479 . S
O63 C50 1.238 . S
O64 Tb40 2.471 . S
O64 C50 1.247 . S
C65 C68 1.380 . S
C65 C69 1.374 . S
C65 C71 1.507 . S
C66 C67 1.387 . S
C66 C70 1.391 . S
C67 C66 1.387 . S
C67 C68 1.384 . S
C67 H76 0.930 . S
C68 C65 1.380 . S
C68 C67 1.384 . S
C68 H77 0.931 . S
C69 C65 1.374 . S
C69 C70 1.390 . S
C69 H78 0.930 . S
C70 C66 1.391 . S
C70 C69 1.390 . S
C70 H79 0.930 . S
C71 Eu41 2.825 . S
C71 O56 1.238 . S
C71 O57 1.247 . S
C71 C65 1.507 . S
H72 C45 0.930 . S
H73 C46 0.931 . S
H74 C47 0.930 . S
H75 C48 0.930 . S
H76 C67 0.930 . S
H77 C68 0.931 . S
H78 C69 0.930 . S
H79 C70 0.930 . S
Tb80 C90 2.825 . S
Tb80 O91 2.347 . S
Tb80 O94 2.366 . S
Tb80 O99 2.418 . S
Tb80 O100 2.384 . S
Tb80 O103 2.479 . S
Tb80 O104 2.471 . S
Eu81 O92 2.418 . S
Eu81 O93 2.384 . S
Eu81 O96 2.479 . S
Eu81 O97 2.471 . S
Eu81 O98 2.347 . S
Eu81 O101 2.366 1_655 S
Eu81 C111 2.825 . S
C82 O98 1.259 1_455 S
C82 O99 1.265 . S
C83 O100 1.255 . S
C83 O101 1.265 . S
C84 C86 1.380 . S
C84 C87 1.374 . S
C84 C90 1.507 . S
C85 C86 1.384 . S
C85 C89 1.387 . S
C85 H112 0.930 . S
C86 C84 1.380 . S
C86 C85 1.384 . S
C86 H113 0.931 . S
C87 C84 1.374 . S
C87 C88 1.390 . S
C87 H114 0.930 . S
C88 C87 1.390 . S
C88 C89 1.391 . S
C88 H115 0.930 . S
C89 C85 1.387 . S
C89 C88 1.391 . S
C90 Tb80 2.825 . S
C90 C84 1.507 . S
C90 O103 1.238 . S
C90 O104 1.247 . S
O91 Tb80 2.347 . S
O91 C95 1.259 1_455 S
O92 Eu81 2.418 . S
O92 C95 1.265 . S
O93 Eu81 2.384 . S
O93 C102 1.255 . S
O94 Tb80 2.366 . S
O94 C102 1.265 1_455 S
C95 O91 1.259 1_655 S
C95 O92 1.265 . S
O96 Eu81 2.479 . S
O96 C111 1.238 . S
O97 Eu81 2.471 . S
O97 C111 1.247 . S
O98 Eu81 2.347 . S
O98 C82 1.259 1_655 S
O99 Tb80 2.418 . S
O99 C82 1.265 . S
O100 Tb80 2.384 . S
O100 C83 1.255 . S
O101 Eu81 2.366 1_455 S
O101 C83 1.265 . S
C102 O93 1.255 . S
C102 O94 1.265 1_655 S
O103 Tb80 2.479 . S
O103 C90 1.238 . S
O104 Tb80 2.471 . S
O104 C90 1.247 . S
C105 C108 1.380 . S
C105 C109 1.374 . S
C105 C111 1.507 . S
C106 C107 1.387 . S
C106 C110 1.391 . S
C107 C106 1.387 . S
C107 C108 1.384 . S
C107 H116 0.930 . S
C108 C105 1.380 . S
C108 C107 1.384 . S
C108 H117 0.931 . S
C109 C105 1.374 . S
C109 C110 1.390 . S
C109 H118 0.930 . S
C110 C106 1.391 . S
C110 C109 1.390 . S
C110 H119 0.930 . S
C111 Eu81 2.825 . S
C111 O96 1.238 . S
C111 O97 1.247 . S
C111 C105 1.507 . S
H112 C85 0.930 . S
H113 C86 0.931 . S
H114 C87 0.930 . S
H115 C88 0.930 . S
H116 C107 0.930 . S
H117 C108 0.931 . S
H118 C109 0.930 . S
H119 C110 0.930 . S
Tb120 C130 2.825 . S
Tb120 O131 2.347 . S
Tb120 O134 2.366 . S
Tb120 O139 2.418 . S
Tb120 O140 2.384 1_554 S
Tb120 O143 2.479 . S
Tb120 O144 2.471 . S
Eu121 O132 2.418 . S
Eu121 O133 2.384 . S
Eu121 O136 2.479 1_554 S
Eu121 O137 2.471 1_554 S
Eu121 O138 2.347 1_565 S
Eu121 O141 2.366 1_564 S
Eu121 C151 2.825 1_554 S
C122 O138 1.259 . S
C122 O139 1.265 . S
C123 O140 1.255 . S
C123 O141 1.265 . S
C124 C126 1.380 . S
C124 C127 1.374 . S
C124 C130 1.507 . S
C125 C126 1.384 . S
C125 C129 1.387 . S
C125 H152 0.930 . S
C126 C124 1.380 . S
C126 C125 1.384 . S
C126 H153 0.931 . S
C127 C124 1.374 . S
C127 C128 1.390 . S
C127 H154 0.930 . S
C128 C127 1.390 . S
C128 C129 1.391 . S
C128 H155 0.930 . S
C129 C125 1.387 . S
C129 C128 1.391 . S
C130 Tb120 2.825 . S
C130 C124 1.507 . S
C130 O143 1.238 . S
C130 O144 1.247 . S
O131 Tb120 2.347 . S
O131 C135 1.259 1_545 S
O132 Eu121 2.418 . S
O132 C135 1.265 . S
O133 Eu121 2.384 . S
O133 C142 1.255 . S
O134 Tb120 2.366 . S
O134 C142 1.265 1_545 S
C135 O131 1.259 1_565 S
C135 O132 1.265 . S
O136 Eu121 2.479 1_556 S
O136 C151 1.238 . S
O137 Eu121 2.471 1_556 S
O137 C151 1.247 . S
O138 Eu121 2.347 1_545 S
O138 C122 1.259 . S
O139 Tb120 2.418 . S
O139 C122 1.265 . S
O140 Tb120 2.384 1_556 S
O140 C123 1.255 . S
O141 Eu121 2.366 1_546 S
O141 C123 1.265 . S
C142 O133 1.255 . S
C142 O134 1.265 1_565 S
O143 Tb120 2.479 . S
O143 C130 1.238 . S
O144 Tb120 2.471 . S
O144 C130 1.247 . S
C145 C148 1.380 . S
C145 C149 1.374 . S
C145 C151 1.507 . S
C146 C147 1.387 . S
C146 C150 1.391 . S
C147 C146 1.387 . S
C147 C148 1.384 . S
C147 H156 0.930 . S
C148 C145 1.380 . S
C148 C147 1.384 . S
C148 H157 0.931 . S
C149 C145 1.374 . S
C149 C150 1.390 . S
C149 H158 0.930 . S
C150 C146 1.391 . S
C150 C149 1.390 . S
C150 H159 0.930 . S
C151 Eu121 2.825 1_556 S
C151 O136 1.238 . S
C151 O137 1.247 . S
C151 C145 1.507 . S
H152 C125 0.930 . S
H153 C126 0.931 . S
H154 C127 0.930 . S
H155 C128 0.930 . S
H156 C147 0.930 . S
H157 C148 0.931 . S
H158 C149 0.930 . S
H159 C150 0.930 . S
Tb160 C170 2.825 . S
Tb160 O171 2.347 . S
Tb160 O174 2.366 . S
Tb160 O179 2.418 1_655 S
Tb160 O180 2.384 . S
Tb160 O183 2.479 . S
Tb160 O184 2.471 . S
Eu161 O172 2.418 . S
Eu161 O173 2.384 1_655 S
Eu161 O176 2.479 . S
Eu161 O177 2.471 1_655 S
Eu161 O178 2.347 1_655 S
Eu161 O181 2.366 . S
Eu161 C191 2.825 1_655 S
C162 O178 1.259 . S
C162 O179 1.265 . S
C163 O180 1.255 . S
C163 O181 1.265 . S
C164 C166 1.380 . S
C164 C167 1.374 . S
C164 C170 1.507 . S
C165 C166 1.384 . S
C165 C169 1.387 . S
C165 H192 0.930 . S
C166 C164 1.380 . S
C166 C165 1.384 . S
C166 H193 0.931 . S
C167 C164 1.374 . S
C167 C168 1.390 . S
C167 H194 0.930 . S
C168 C167 1.390 . S
C168 C169 1.391 . S
C168 H195 0.930 . S
C169 C165 1.387 . S
C169 C168 1.391 . S
C170 Tb160 2.825 . S
C170 C164 1.507 . S
C170 O183 1.238 . S
C170 O184 1.247 . S
O171 Tb160 2.347 . S
O171 C175 1.259 . S
O172 Eu161 2.418 . S
O172 C175 1.265 . S
O173 Eu161 2.384 1_455 S
O173 C182 1.255 1_455 S
O174 Tb160 2.366 . S
O174 C182 1.265 . S
C175 O171 1.259 . S
C175 O172 1.265 . S
O176 Eu161 2.479 . S
O176 C191 1.238 1_655 S
O177 Eu161 2.471 1_455 S
O177 C191 1.247 . S
O178 Eu161 2.347 1_455 S
O178 C162 1.259 . S
O179 Tb160 2.418 1_455 S
O179 C162 1.265 . S
O180 Tb160 2.384 . S
O180 C163 1.255 . S
O181 Eu161 2.366 . S
O181 C163 1.265 . S
C182 O173 1.255 1_655 S
C182 O174 1.265 . S
O183 Tb160 2.479 . S
O183 C170 1.238 . S
O184 Tb160 2.471 . S
O184 C170 1.247 . S
C185 C188 1.380 . S
C185 C189 1.374 . S
C185 C191 1.507 . S
C186 C187 1.387 . S
C186 C190 1.391 . S
C187 C186 1.387 . S
C187 C188 1.384 . S
C187 H196 0.930 . S
C188 C185 1.380 . S
C188 C187 1.384 . S
C188 H197 0.931 . S
C189 C185 1.374 . S
C189 C190 1.390 . S
C189 H198 0.930 . S
C190 C186 1.391 . S
C190 C189 1.390 . S
C190 H199 0.930 . S
C191 Eu161 2.825 1_455 S
C191 O176 1.238 1_455 S
C191 O177 1.247 . S
C191 C185 1.507 . S
H192 C165 0.930 . S
H193 C166 0.931 . S
H194 C167 0.930 . S
H195 C168 0.930 . S
H196 C187 0.930 . S
H197 C188 0.931 . S
H198 C189 0.930 . S
H199 C190 0.930 . S
Tb200 C210 2.825 . S
Tb200 O211 2.347 . S
Tb200 O214 2.366 . S
Tb200 O219 2.418 1_565 S
Tb200 O220 2.384 . S
Tb200 O223 2.479 . S
Tb200 O224 2.471 . S
Eu201 O212 2.418 1_545 S
Eu201 O213 2.384 . S
Eu201 O216 2.479 . S
Eu201 O217 2.471 . S
Eu201 O218 2.347 . S
Eu201 O221 2.366 1_545 S
Eu201 C231 2.825 . S
C202 O218 1.259 . S
C202 O219 1.265 . S
C203 O220 1.255 . S
C203 O221 1.265 . S
C204 C206 1.380 . S
C204 C207 1.374 . S
C204 C210 1.507 . S
C205 C206 1.384 . S
C205 C209 1.387 . S
C205 H232 0.930 . S
C206 C204 1.380 . S
C206 C205 1.384 . S
C206 H233 0.931 . S
C207 C204 1.374 . S
C207 C208 1.390 . S
C207 H234 0.930 . S
C208 C207 1.390 . S
C208 C209 1.391 . S
C208 H235 0.930 . S
C209 C205 1.387 . S
C209 C208 1.391 . S
C210 Tb200 2.825 . S
C210 C204 1.507 . S
C210 O223 1.238 . S
C210 O224 1.247 . S
O211 Tb200 2.347 . S
O211 C215 1.259 . S
O212 Eu201 2.418 1_565 S
O212 C215 1.265 . S
O213 Eu201 2.384 . S
O213 C222 1.255 . S
O214 Tb200 2.366 . S
O214 C222 1.265 1_565 S
C215 O211 1.259 . S
C215 O212 1.265 . S
O216 Eu201 2.479 . S
O216 C231 1.238 . S
O217 Eu201 2.471 . S
O217 C231 1.247 . S
O218 Eu201 2.347 . S
O218 C202 1.259 . S
O219 Tb200 2.418 1_545 S
O219 C202 1.265 . S
O220 Tb200 2.384 . S
O220 C203 1.255 . S
O221 Eu201 2.366 1_565 S
O221 C203 1.265 . S
C222 O213 1.255 . S
C222 O214 1.265 1_545 S
O223 Tb200 2.479 . S
O223 C210 1.238 . S
O224 Tb200 2.471 . S
O224 C210 1.247 . S
C225 C228 1.380 . S
C225 C229 1.374 . S
C225 C231 1.507 . S
C226 C227 1.387 . S
C226 C230 1.391 . S
C227 C226 1.387 . S
C227 C228 1.384 . S
C227 H236 0.930 . S
C228 C225 1.380 . S
C228 C227 1.384 . S
C228 H237 0.931 . S
C229 C225 1.374 . S
C229 C230 1.390 . S
C229 H238 0.930 . S
C230 C226 1.391 . S
C230 C229 1.390 . S
C230 H239 0.930 . S
C231 Eu201 2.825 . S
C231 O216 1.238 . S
C231 O217 1.247 . S
C231 C225 1.507 . S
H232 C205 0.930 . S
H233 C206 0.931 . S
H234 C207 0.930 . S
H235 C208 0.930 . S
H236 C227 0.930 . S
H237 C228 0.931 . S
H238 C229 0.930 . S
H239 C230 0.930 . S
C240 C241 1.386 . S
C240 C242 1.383 1_655 S
C240 H256 0.951 1_545 S
C241 C240 1.386 . S
C241 C245 1.383 . S
C242 C240 1.383 1_455 S
C242 C243 1.402 . S
C242 H257 0.951 . S
C243 C242 1.402 . S
C243 C244 1.395 . S
C243 C246 1.481 . S
C244 C243 1.395 . S
C244 C245 1.373 1_455 S
C244 H258 0.927 1_554 S
C245 C241 1.383 . S
C245 C244 1.373 1_655 S
C245 H259 0.950 1_554 S
C246 C243 1.481 . S
C246 C247 1.297 . S
C246 H260 0.923 1_554 S
C247 C246 1.297 . S
C247 C248 1.479 . S
C247 H261 0.950 . S
C248 C247 1.479 . S
C248 C249 1.375 . S
C248 C254 1.426 . S
C249 C248 1.375 . S
C249 C250 1.369 . S
C249 H262 0.950 . S
C250 C249 1.369 . S
C250 C251 1.392 . S
C250 H263 0.951 . S
C251 C250 1.392 . S
C251 C253 1.384 . S
H252 C254 0.925 1_556 S
C253 C251 1.384 . S
C253 C254 1.388 . S
C253 H255 0.950 1_554 S
C254 C248 1.426 . S
C254 H252 0.925 1_554 S
C254 C253 1.388 . S
H255 C253 0.950 1_556 S
H256 C240 0.951 1_565 S
H257 C242 0.951 . S
H258 C244 0.927 1_556 S
H259 C245 0.950 1_556 S
H260 C246 0.923 1_556 S
H261 C247 0.950 . S
H262 C249 0.950 . S
H263 C250 0.951 . S
C264 C265 1.386 . S
C264 C266 1.383 1_565 S
C264 H280 0.951 . S
C265 C264 1.386 . S
C265 C269 1.383 . S
C266 C264 1.383 1_545 S
C266 C267 1.402 . S
C266 H281 0.951 . S
C267 C266 1.402 . S
C267 C268 1.375 . S
C267 C270 1.481 . S
C268 C267 1.375 . S
C268 C269 1.367 1_545 S
C268 H282 0.951 . S
C269 C265 1.383 . S
C269 C268 1.367 1_565 S
C269 H283 0.950 . S
C270 C267 1.481 . S
C270 C271 1.297 . S
C270 H284 0.950 . S
C271 C270 1.297 . S
C271 C272 1.479 . S
C271 H285 0.950 . S
C272 C271 1.479 . S
C272 C273 1.375 . S
C272 C278 1.404 . S
C273 C272 1.375 . S
C273 C274 1.369 . S
C273 H286 0.950 . S
C274 C273 1.369 . S
C274 C275 1.392 . S
C274 H287 0.951 . S
C275 C274 1.392 . S
C275 C277 1.384 . S
H276 C278 0.949 . S
C277 C275 1.384 . S
C277 C278 1.385 . S
C277 H279 0.950 . S
C278 C272 1.404 . S
C278 H276 0.949 . S
C278 C277 1.385 . S
H279 C277 0.950 . S
H280 C264 0.951 . S
H281 C266 0.951 . S
H282 C268 0.951 . S
H283 C269 0.950 . S
H284 C270 0.950 . S
H285 C271 0.950 . S
H286 C273 0.950 . S
H287 C274 0.951 . S
C288 C289 1.386 . S
C288 C290 1.383 . S
C288 H304 0.951 . S
C289 C288 1.386 . S
C289 C293 1.383 . S
C290 C288 1.383 . S
C290 C291 1.402 . S
C290 H305 0.951 . S
C291 C290 1.402 . S
C291 C292 1.375 . S
C291 C294 1.481 . S
C292 C291 1.375 . S
C292 C293 1.367 . S
C292 H306 0.951 . S
C293 C289 1.383 . S
C293 C292 1.367 . S
C293 H307 0.950 . S
C294 C291 1.481 . S
C294 C295 1.297 . S
C294 H308 0.950 . S
C295 C294 1.297 . S
C295 C296 1.479 . S
C295 H309 0.950 . S
C296 C295 1.479 . S
C296 C297 1.375 . S
C296 C302 1.404 . S
C297 C296 1.375 . S
C297 C298 1.369 . S
C297 H310 0.950 . S
C298 C297 1.369 . S
C298 C299 1.392 . S
C298 H311 0.959 . S
C299 C298 1.392 . S
C299 C301 1.384 . S
H300 C302 0.949 . S
C301 C299 1.384 . S
C301 C302 1.385 . S
C301 H303 0.950 . S
C302 C296 1.404 . S
C302 H300 0.949 . S
C302 C301 1.385 . S
H303 C301 0.950 . S
H304 C288 0.951 . S
H305 C290 0.951 . S
H306 C292 0.951 . S
H307 C293 0.950 . S
H308 C294 0.950 . S
H309 C295 0.950 . S
H310 C297 0.950 . S
H311 C298 0.959 . S
C312 C313 1.386 . S
C312 C314 1.383 . S
C312 H328 0.951 . S
C313 C312 1.386 . S
C313 C317 1.383 . S
C314 C312 1.383 . S
C314 C315 1.402 . S
C314 H329 0.951 . S
C315 C314 1.402 . S
C315 C316 1.375 . S
C315 C318 1.481 . S
C316 C315 1.375 . S
C316 C317 1.367 . S
C316 H330 0.951 . S
C317 C313 1.383 . S
C317 C316 1.367 . S
C317 H331 0.950 . S
C318 C315 1.481 . S
C318 C319 1.297 . S
C318 H332 0.950 . S
C319 C318 1.297 . S
C319 C320 1.479 . S
C319 H333 0.950 . S
C320 C319 1.479 . S
C320 C321 1.375 . S
C320 C326 1.404 . S
C321 C320 1.375 . S
C321 C322 1.369 . S
C321 H334 0.950 . S
C322 C321 1.369 . S
C322 C323 1.392 . S
C322 H335 0.951 . S
C323 C322 1.392 . S
C323 C325 1.384 . S
H324 C326 0.949 . S
C325 C323 1.384 . S
C325 C326 1.385 . S
C325 H327 0.950 . S
C326 C320 1.404 . S
C326 H324 0.949 . S
C326 C325 1.385 . S
H327 C325 0.950 . S
H328 C312 0.951 . S
H329 C314 0.951 . S
H330 C316 0.951 . S
H331 C317 0.950 . S
H332 C318 0.950 . S
H333 C319 0.950 . S
H334 C321 0.950 . S
H335 C322 0.951 . S
C336 C337 1.386 . S
C336 C338 1.383 . S
C336 H352 0.951 . S
C337 C336 1.386 . S
C337 C341 1.383 . S
C338 C336 1.383 . S
C338 C339 1.402 . S
C338 H353 0.951 . S
C339 C338 1.402 . S
C339 C340 1.375 . S
C339 C342 1.481 . S
C340 C339 1.375 . S
C340 C341 1.367 . S
C340 H354 0.951 . S
C341 C337 1.383 . S
C341 C340 1.367 . S
C341 H355 0.950 . S
C342 C339 1.481 . S
C342 C343 1.297 1_455 S
C342 H356 0.950 1_455 S
C343 C342 1.297 1_655 S
C343 C344 1.479 . S
C343 H357 0.950 1_655 S
C344 C343 1.479 . S
C344 C345 1.375 . S
C344 C350 1.404 . S
C345 C344 1.375 . S
C345 C346 1.369 . S
C345 H358 0.950 . S
C346 C345 1.369 . S
C346 C347 1.392 . S
C346 H359 0.951 . S
C347 C346 1.392 . S
C347 C349 1.384 . S
H348 C350 0.949 . S
C349 C347 1.384 . S
C349 C350 1.385 . S
C349 H351 0.950 . S
C350 C344 1.404 . S
C350 H348 0.949 . S
C350 C349 1.385 . S
H351 C349 0.950 . S
H352 C336 0.951 . S
H353 C338 0.951 . S
H354 C340 0.951 . S
H355 C341 0.950 . S
H356 C342 0.950 1_655 S
H357 C343 0.950 1_455 S
H358 C345 0.950 . S
H359 C346 0.951 . S
C360 C361 1.386 . S
C360 C362 1.383 . S
C360 H376 0.951 . S
C361 C360 1.386 . S
C361 C365 1.383 . S
C362 C360 1.383 . S
C362 C363 1.402 . S
C362 H377 0.951 . S
C363 C362 1.402 . S
C363 C364 1.375 . S
C363 C366 1.481 . S
C364 C363 1.375 . S
C364 C365 1.367 . S
C364 H378 0.951 . S
C365 C361 1.383 . S
C365 C364 1.367 . S
C365 H379 0.950 . S
C366 C363 1.481 . S
C366 C367 1.297 . S
C366 H380 0.950 . S
C367 C366 1.297 . S
C367 C368 1.479 1_545 S
C367 H381 0.950 . S
C368 C367 1.479 1_565 S
C368 C369 1.375 . S
C368 C374 1.404 . S
C369 C368 1.375 . S
C369 C370 1.369 . S
C369 H382 0.950 . S
C370 C369 1.369 . S
C370 C371 1.392 . S
C370 H383 0.951 . S
C371 C370 1.392 . S
C371 C373 1.384 . S
H372 C374 0.949 1_545 S
C373 C371 1.384 . S
C373 C374 1.385 . S
C373 H375 0.950 . S
C374 C368 1.404 . S
C374 H372 0.949 1_565 S
C374 C373 1.385 . S
H375 C373 0.950 . S
H376 C360 0.951 . S
H377 C362 0.951 . S
H378 C364 0.951 . S
H379 C365 0.950 . S
H380 C366 0.950 . S
H381 C367 0.950 . S
H382 C369 0.950 . S
H383 C370 0.951 . S
C384 C385 1.386 . S
C384 C386 1.383 . S
C384 H400 0.951 . S
C385 C384 1.386 . S
C385 C389 1.383 . S
C386 C384 1.383 . S
C386 C387 1.402 . S
C386 H401 0.951 . S
C387 C386 1.402 . S
C387 C388 1.375 . S
C387 C390 1.481 . S
C388 C387 1.375 . S
C388 C389 1.367 . S
C388 H402 0.951 . S
C389 C385 1.383 . S
C389 C388 1.367 . S
C389 H403 0.950 . S
C390 C387 1.481 . S
C390 C391 1.297 . S
C390 H404 0.950 . S
C391 C390 1.297 . S
C391 C392 1.479 . S
C391 H405 0.950 . S
C392 C391 1.479 . S
C392 C393 1.375 . S
C392 C398 1.404 1_655 S
C393 C392 1.375 . S
C393 C394 1.369 1_655 S
C393 H406 0.950 . S
C394 C393 1.369 1_455 S
C394 C395 1.392 . S
C394 H407 0.951 . S
C395 C394 1.392 . S
C395 C397 1.384 . S
H396 C398 0.949 . S
C397 C395 1.384 . S
C397 C398 1.385 . S
C397 H399 0.950 . S
C398 C392 1.404 1_455 S
C398 H396 0.949 . S
C398 C397 1.385 . S
H399 C397 0.950 . S
H400 C384 0.951 . S
H401 C386 0.951 . S
H402 C388 0.951 . S
H403 C389 0.950 . S
H404 C390 0.950 . S
H405 C391 0.950 . S
H406 C393 0.950 . S
H407 C394 0.951 . S
C408 C409 1.386 . S
C408 C410 1.383 . S
C408 H424 0.951 . S
C409 C408 1.386 . S
C409 C413 1.383 . S
C410 C408 1.383 . S
C410 C411 1.402 . S
C410 H425 0.951 . S
C411 C410 1.402 . S
C411 C412 1.375 . S
C411 C414 1.481 . S
C412 C411 1.375 . S
C412 C413 1.367 . S
C412 H426 0.951 . S
C413 C409 1.383 . S
C413 C412 1.367 . S
C413 H427 0.950 . S
C414 C411 1.481 . S
C414 C415 1.297 . S
C414 H428 0.950 . S
C415 C414 1.297 . S
C415 C416 1.479 . S
C415 H429 0.950 . S
C416 C415 1.479 . S
C416 C417 1.375 . S
C416 C422 1.404 1_565 S
C417 C416 1.375 . S
C417 C418 1.369 1_565 S
C417 H430 0.950 . S
C418 C417 1.369 1_545 S
C418 C419 1.392 . S
C418 H431 0.951 . S
C419 C418 1.392 . S
C419 C421 1.384 . S
H420 C422 0.949 . S
C421 C419 1.384 . S
C421 C422 1.385 . S
C421 H423 0.950 . S
C422 C416 1.404 1_545 S
C422 H420 0.949 . S
C422 C421 1.385 . S
H423 C421 0.950 . S
H424 C408 0.951 . S
H425 C410 0.951 . S
H426 C412 0.951 . S
H427 C413 0.950 . S
H428 C414 0.950 . S
H429 C415 0.950 . S
H430 C417 0.950 . S
H431 C418 0.951 . S
C432 C433 1.386 . S
C432 C434 1.383 . S
C432 H448 0.951 . S
C433 C432 1.386 . S
C433 C437 1.383 . S
C434 C432 1.383 . S
C434 C435 1.402 . S
C434 H449 0.951 . S
C435 C434 1.402 . S
C435 C436 1.375 . S
C435 C438 1.481 . S
C436 C435 1.375 . S
C436 C437 1.367 . S
C436 H450 0.951 . S
C437 C433 1.383 . S
C437 C436 1.367 . S
C437 H451 0.950 . S
C438 C435 1.481 . S
C438 C439 1.297 . S
C438 H452 0.950 . S
C439 C438 1.297 . S
C439 C440 1.479 . S
C439 H453 0.950 . S
C440 C439 1.479 . S
C440 C441 1.375 . S
C440 C446 1.404 . S
C441 C440 1.375 . S
C441 C442 1.369 . S
C441 H454 0.950 . S
C442 C441 1.369 . S
C442 C443 1.392 . S
C442 H455 0.951 . S
C443 C442 1.392 . S
C443 C445 1.384 . S
H444 C446 0.949 . S
C445 C443 1.384 . S
C445 C446 1.385 . S
C445 H447 0.950 . S
C446 C440 1.404 . S
C446 H444 0.949 . S
C446 C445 1.385 . S
H447 C445 0.950 . S
H448 C432 0.951 . S
H449 C434 0.951 . S
H450 C436 0.951 . S
H451 C437 0.950 . S
H452 C438 0.950 . S
H453 C439 0.950 . S
H454 C441 0.950 . S
H455 C442 0.951 . S
C456 C457 1.386 . S
C456 C458 1.383 . S
C456 H472 0.951 . S
C457 C456 1.386 . S
C457 C461 1.383 . S
C458 C456 1.383 . S
C458 C459 1.402 . S
C458 H473 0.951 . S
C459 C458 1.402 . S
C459 C460 1.375 . S
C459 C462 1.481 . S
C460 C459 1.375 . S
C460 C461 1.367 . S
C460 H474 0.951 1_554 S
C461 C457 1.383 . S
C461 C460 1.367 . S
C461 H475 0.950 1_554 S
C462 C459 1.481 . S
C462 C463 1.297 . S
C462 H476 0.950 . S
C463 C462 1.297 . S
C463 C464 1.479 . S
C463 H477 0.950 . S
C464 C463 1.479 . S
C464 C465 1.375 . S
C464 C470 1.404 . S
C465 C464 1.375 . S
C465 C466 1.369 . S
C465 H478 0.950 . S
C466 C465 1.369 . S
C466 C467 1.392 . S
C466 H479 0.951 . S
C467 C466 1.392 . S
C467 C469 1.384 . S
H468 C470 0.990 . S
C469 C467 1.384 . S
C469 C470 1.385 . S
C469 H471 0.950 1_544 S
C470 C464 1.404 . S
C470 H468 0.990 . S
C470 C469 1.385 . S
H471 C469 0.950 1_566 S
H472 C456 0.951 . S
H473 C458 0.951 . S
H474 C460 0.951 1_556 S
H475 C461 0.950 1_556 S
H476 C462 0.950 . S
H477 C463 0.950 . S
H478 C465 0.950 . S
H479 C466 0.951 . S
C480 C481 1.386 . S
C480 C482 1.383 . S
C480 H496 0.951 . S
C481 C480 1.386 . S
C481 C485 1.383 . S
C482 C480 1.383 . S
C482 C483 1.402 . S
C482 H497 0.951 . S
C483 C482 1.402 . S
C483 C484 1.375 . S
C483 C486 1.481 . S
C484 C483 1.375 . S
C484 C485 1.367 . S
C484 H498 0.951 . S
C485 C481 1.383 . S
C485 C484 1.367 . S
C485 H499 0.950 . S
C486 C483 1.481 . S
C486 C487 1.297 . S
C486 H500 0.950 . S
C487 C486 1.297 . S
C487 C488 1.479 . S
C487 H501 0.950 . S
C488 C487 1.479 . S
C488 C489 1.375 . S
C488 C494 1.404 . S
C489 C488 1.375 . S
C489 C490 1.369 . S
C489 H502 0.950 . S
C490 C489 1.369 . S
C490 C491 1.392 . S
C490 H503 0.951 . S
C491 C490 1.392 . S
C491 C493 1.384 . S
H492 C494 0.949 . S
C493 C491 1.384 . S
C493 C494 1.385 . S
C493 H495 0.950 . S
C494 C488 1.404 . S
C494 H492 0.949 . S
C494 C493 1.385 . S
H495 C493 0.950 . S
H496 C480 0.951 . S
H497 C482 0.951 . S
H498 C484 0.951 . S
H499 C485 0.950 . S
H500 C486 0.950 . S
H501 C487 0.950 . S
H502 C489 0.950 . S
H503 C490 0.951 . S
C504 C505 1.386 . S
C504 C506 1.383 . S
C504 H520 0.951 . S
C505 C504 1.386 . S
C505 C509 1.383 1_455 S
C506 C504 1.383 . S
C506 C507 1.402 . S
C506 H521 0.951 . S
C507 C506 1.402 . S
C507 C508 1.375 . S
C507 C510 1.481 . S
C508 C507 1.375 . S
C508 C509 1.367 1_455 S
C508 H522 0.951 1_455 S
C509 C505 1.383 1_655 S
C509 C508 1.367 1_655 S
C509 H523 0.950 . S
C510 C507 1.481 . S
C510 C511 1.297 . S
C510 H524 0.950 . S
C511 C510 1.297 . S
C511 C512 1.479 . S
C511 H525 0.950 . S
C512 C511 1.479 . S
C512 C513 1.375 . S
C512 C518 1.404 . S
C513 C512 1.375 . S
C513 C514 1.369 . S
C513 H526 0.950 . S
C514 C513 1.369 . S
C514 C515 1.392 . S
C514 H527 0.951 . S
C515 C514 1.392 . S
C515 C517 1.384 . S
H516 C518 0.949 . S
C517 C515 1.384 . S
C517 C518 1.385 . S
C517 H519 0.950 . S
C518 C512 1.404 . S
C518 H516 0.949 . S
C518 C517 1.385 . S
H519 C517 0.950 . S
H520 C504 0.951 . S
H521 C506 0.951 . S
H522 C508 0.951 1_655 S
H523 C509 0.950 . S
H524 C510 0.950 . S
H525 C511 0.950 . S
H526 C513 0.950 . S
H527 C514 0.951 . S
C528 C529 1.386 . S
C528 C530 1.383 . S
C528 H544 0.951 . S
C529 C528 1.386 . S
C529 C533 1.383 . S
C530 C528 1.383 . S
C530 C531 1.402 . S
C530 H545 0.951 . S
C531 C530 1.402 . S
C531 C532 1.375 . S
C531 C534 1.481 . S
C532 C531 1.375 . S
C532 C533 1.367 . S
C532 H546 0.951 . S
C533 C529 1.383 . S
C533 C532 1.367 . S
C533 H547 0.950 . S
C534 C531 1.481 . S
C534 C535 1.297 . S
C534 H548 0.950 . S
C535 C534 1.297 . S
C535 C536 1.479 . S
C535 H549 0.950 . S
C536 C535 1.479 . S
C536 C537 1.375 . S
C536 C542 1.404 . S
C537 C536 1.375 . S
C537 C538 1.369 . S
C537 H550 0.950 . S
C538 C537 1.369 . S
C538 C539 1.392 . S
C538 H551 0.951 . S
C539 C538 1.392 . S
C539 C541 1.384 . S
H540 C542 0.949 . S
C541 C539 1.384 . S
C541 C542 1.385 . S
C541 H543 0.950 . S
C542 C536 1.404 . S
C542 H540 0.949 . S
C542 C541 1.385 . S
H543 C541 0.950 . S
H544 C528 0.951 . S
H545 C530 0.951 . S
H546 C532 0.951 . S
H547 C533 0.950 . S
H548 C534 0.950 . S
H549 C535 0.950 . S
H550 C537 0.950 . S
H551 C538 0.951 . S
C552 C553 1.386 . S
C552 C554 1.383 . S
C552 H568 0.951 . S
C553 C552 1.386 . S
C553 C557 1.383 . S
C554 C552 1.383 . S
C554 C555 1.402 . S
C554 H569 0.951 . S
C555 C554 1.402 . S
C555 C556 1.375 . S
C555 C558 1.481 . S
C556 C555 1.375 . S
C556 C557 1.367 . S
C556 H570 0.951 . S
C557 C553 1.383 . S
C557 C556 1.367 . S
C557 H571 0.950 . S
C558 C555 1.481 . S
C558 C559 1.297 . S
C558 H572 0.950 . S
C559 C558 1.297 . S
C559 C560 1.479 . S
C559 H573 0.950 . S
C560 C559 1.479 . S
C560 C561 1.375 . S
C560 C566 1.404 . S
C561 C560 1.375 . S
C561 C562 1.369 . S
C561 H574 0.950 . S
C562 C561 1.369 . S
C562 C563 1.392 . S
C562 H575 0.951 . S
C563 C562 1.392 . S
C563 C565 1.384 . S
H564 C566 0.949 . S
C565 C563 1.384 . S
C565 C566 1.385 . S
C565 H567 0.950 . S
C566 C560 1.404 . S
C566 H564 0.949 . S
C566 C565 1.385 . S
H567 C565 0.950 . S
H568 C552 0.951 . S
H569 C554 0.951 . S
H570 C556 0.951 . S
H571 C557 0.950 . S
H572 C558 0.950 . S
H573 C559 0.950 . S
H574 C561 0.950 . S
H575 C562 0.951 . S
C576 C577 1.386 . S
C576 C578 1.383 . S
C576 H592 0.951 . S
C577 C576 1.386 . S
C577 C581 1.383 . S
C578 C576 1.383 . S
C578 C579 1.402 . S
C578 H593 0.951 . S
C579 C578 1.402 . S
C579 C580 1.375 . S
C579 C582 1.481 . S
C580 C579 1.375 . S
C580 C581 1.367 . S
C580 H594 0.951 . S
C581 C577 1.383 . S
C581 C580 1.367 . S
C581 H595 0.950 . S
C582 C579 1.481 . S
C582 C583 1.297 . S
C582 H596 0.950 . S
C583 C582 1.297 . S
C583 C584 1.479 . S
C583 H597 0.950 . S
C584 C583 1.479 . S
C584 C585 1.375 . S
C584 C590 1.404 . S
C585 C584 1.375 . S
C585 C586 1.369 . S
C585 H598 0.950 . S
C586 C585 1.369 . S
C586 C587 1.392 . S
C586 H599 0.951 . S
C587 C586 1.392 . S
C587 C589 1.384 . S
H588 C590 0.949 . S
C589 C587 1.384 . S
C589 C590 1.385 . S
C589 H591 0.950 . S
C590 C584 1.404 . S
C590 H588 0.949 . S
C590 C589 1.385 . S
H591 C589 0.950 . S
H592 C576 0.951 . S
H593 C578 0.951 . S
H594 C580 0.951 . S
H595 C581 0.950 . S
H596 C582 0.950 . S
H597 C583 0.950 . S
H598 C585 0.950 . S
H599 C586 0.951 . S
C600 C601 1.386 . S
C600 C602 1.383 . S
C600 H616 0.951 . S
C601 C600 1.386 . S
C601 C605 1.383 . S
C602 C600 1.383 . S
C602 C603 1.402 . S
C602 H617 0.951 . S
C603 C602 1.402 . S
C603 C604 1.375 . S
C603 C606 1.481 . S
C604 C603 1.375 . S
C604 C605 1.367 . S
C604 H618 0.951 . S
C605 C601 1.383 . S
C605 C604 1.367 . S
C605 H619 0.950 . S
C606 C603 1.481 . S
C606 C607 1.297 . S
C606 H620 0.950 . S
C607 C606 1.297 . S
C607 C608 1.479 . S
C607 H621 0.950 . S
C608 C607 1.479 . S
C608 C609 1.375 . S
C608 C614 1.404 . S
C609 C608 1.375 . S
C609 C610 1.369 . S
C609 H622 0.950 . S
C610 C609 1.369 . S
C610 C611 1.392 . S
C610 H623 0.951 . S
C611 C610 1.392 . S
C611 C613 1.384 . S
H612 C614 0.949 . S
C613 C611 1.384 . S
C613 C614 1.385 . S
C613 H615 0.950 . S
C614 C608 1.404 . S
C614 H612 0.949 . S
C614 C613 1.385 . S
H615 C613 0.950 . S
H616 C600 0.951 . S
H617 C602 0.951 . S
H618 C604 0.951 . S
H619 C605 0.950 . S
H620 C606 0.950 . S
H621 C607 0.950 . S
H622 C609 0.950 . S
H623 C610 0.951 . S
C624 C625 1.386 . S
C624 C626 1.383 . S
C624 H640 0.951 . S
C625 C624 1.386 . S
C625 C629 1.383 . S
C626 C624 1.383 . S
C626 C627 1.402 . S
C626 H641 0.951 . S
C627 C626 1.402 . S
C627 C628 1.375 . S
C627 C630 1.481 . S
C628 C627 1.375 . S
C628 C629 1.367 . S
C628 H642 0.951 . S
C629 C625 1.383 . S
C629 C628 1.367 . S
C629 H643 0.950 1_455 S
C630 C627 1.481 . S
C630 C631 1.297 . S
C630 H644 0.950 . S
C631 C630 1.297 . S
C631 C632 1.479 . S
C631 H645 0.950 . S
C632 C631 1.479 . S
C632 C633 1.375 . S
C632 C638 1.404 . S
C633 C632 1.375 . S
C633 C634 1.369 . S
C633 H646 0.950 . S
C634 C633 1.369 . S
C634 C635 1.392 . S
C634 H647 0.951 . S
C635 C634 1.392 . S
C635 C637 1.384 . S
H636 C638 0.949 . S
C637 C635 1.384 . S
C637 C638 1.385 . S
C637 H639 0.950 . S
C638 C632 1.404 . S
C638 H636 0.949 . S
C638 C637 1.385 . S
H639 C637 0.950 . S
H640 C624 0.951 . S
H641 C626 0.951 . S
H642 C628 0.951 . S
H643 C629 0.950 1_655 S
H644 C630 0.950 . S
H645 C631 0.950 . S
H646 C633 0.950 . S
H647 C634 0.951 . S
C648 C649 1.386 . S
C648 C650 1.383 . S
C648 H664 0.951 1_545 S
C649 C648 1.386 . S
C649 C653 1.383 . S
C650 C648 1.383 . S
C650 C651 1.402 . S
C650 H665 0.951 . S
C651 C650 1.402 . S
C651 C652 1.375 . S
C651 C654 1.481 . S
C652 C651 1.375 . S
C652 C653 1.367 . S
C652 H666 0.951 . S
C653 C649 1.383 . S
C653 C652 1.367 . S
C653 H667 0.950 . S
C654 C651 1.481 . S
C654 C655 1.297 . S
C654 H668 0.950 . S
C655 C654 1.297 . S
C655 C656 1.479 . S
C655 H669 0.950 . S
C656 C655 1.479 . S
C656 C657 1.375 . S
C656 C662 1.404 . S
C657 C656 1.375 . S
C657 C658 1.369 . S
C657 H670 0.950 . S
C658 C657 1.369 . S
C658 C659 1.392 . S
C658 H671 0.951 . S
C659 C658 1.392 . S
C659 C661 1.384 . S
H660 C662 0.949 . S
C661 C659 1.384 . S
C661 C662 1.385 . S
C661 H663 0.950 . S
C662 C656 1.404 . S
C662 H660 0.949 . S
C662 C661 1.385 . S
H663 C661 0.950 . S
H664 C648 0.951 1_565 S
H665 C650 0.951 . S
H666 C652 0.951 . S
H667 C653 0.950 . S
H668 C654 0.950 . S
H669 C655 0.950 . S
H670 C657 0.950 . S
H671 C658 0.951 . S
C241 C122 0.713 . S
C251 C2 0.641 . S
C265 C162 0.597 . S
C275 C42 0.868 . S
C289 C202 0.782 . S
C299 C82 0.540 . S
C313 C26 0.659 . S
C323 C89 0.507 . S
C337 C66 0.636 . S
C347 C129 0.808 . S
C361 C106 0.685 . S
C371 C169 0.516 . S
C385 C146 0.707 . S
C395 C209 0.537 . S
C409 C186 0.678 . S
C419 C9 0.512 . S
C433 C226 0.722 . S
C443 C49 0.561 . S
C457 C15 1.501 . S
C467 C135 1.556 1_545 S
C481 C55 1.547 . S
C491 C175 1.481 . S
C505 C95 1.528 1_455 S
C515 C215 1.507 . S
C529 C22 3.958 . S
C539 C43 3.968 . S
C553 C62 3.966 . S
C563 C83 3.977 . S
C577 C102 3.964 . S
C587 C123 3.974 . S
C601 C142 3.963 . S
C611 C163 3.973 . S
C625 C182 3.962 1_455 S
C635 C203 3.974 . S
C649 C222 3.967 . S
C659 C3 3.977 . S
