# Generated by pormake.
# Topology umw, (4)-cn, num edge types: 1
# Building blocks:
#     Node 0, Type 0, BuildingBlock: KUFVIS_clean_sbu_0, # of connection points: 4
#     Node 1, Type 0, BuildingBlock: KUFVIS_clean_sbu_0, # of connection points: 4
#     Node 2, Type 0, BuildingBlock: KUFVIS_clean_sbu_0, # of connection points: 4
#     Node 3, Type 0, BuildingBlock: KUFVIS_clean_sbu_0, # of connection points: 4
#     Node 4, Type 0, BuildingBlock: KUFVIS_clean_sbu_0, # of connection points: 4
#     Node 5, Type 0, BuildingBlock: KUFVIS_clean_sbu_0, # of connection points: 4
#     Node 6, Type 0, BuildingBlock: KUFVIS_clean_sbu_0, # of connection points: 4
#     Node 7, Type 0, BuildingBlock: KUFVIS_clean_sbu_0, # of connection points: 4
#     Edge 8, Type (0, 0), BuildingBlock: EZIPEK_clean_linker_0, # of connection points: 2
#     Edge 9, Type (0, 0), BuildingBlock: EZIPEK_clean_linker_0, # of connection points: 2
#     Edge 10, Type (0, 0), BuildingBlock: EZIPEK_clean_linker_0, # of connection points: 2
#     Edge 11, Type (0, 0), BuildingBlock: EZIPEK_clean_linker_0, # of connection points: 2
#     Edge 12, Type (0, 0), BuildingBlock: EZIPEK_clean_linker_0, # of connection points: 2
#     Edge 13, Type (0, 0), BuildingBlock: EZIPEK_clean_linker_0, # of connection points: 2
#     Edge 14, Type (0, 0), BuildingBlock: EZIPEK_clean_linker_0, # of connection points: 2
#     Edge 15, Type (0, 0), BuildingBlock: EZIPEK_clean_linker_0, # of connection points: 2
#     Edge 16, Type (0, 0), BuildingBlock: EZIPEK_clean_linker_0, # of connection points: 2
#     Edge 17, Type (0, 0), BuildingBlock: EZIPEK_clean_linker_0, # of connection points: 2
#     Edge 18, Type (0, 0), BuildingBlock: EZIPEK_clean_linker_0, # of connection points: 2
#     Edge 19, Type (0, 0), BuildingBlock: EZIPEK_clean_linker_0, # of connection points: 2
#     Edge 20, Type (0, 0), BuildingBlock: EZIPEK_clean_linker_0, # of connection points: 2
#     Edge 21, Type (0, 0), BuildingBlock: EZIPEK_clean_linker_0, # of connection points: 2
#     Edge 22, Type (0, 0), BuildingBlock: EZIPEK_clean_linker_0, # of connection points: 2
#     Edge 23, Type (0, 0), BuildingBlock: EZIPEK_clean_linker_0, # of connection points: 2
# Relax obj value: 0.127
# Max RMSD: 0.104
# Mean RMSD: 0.104
data_MOF--net-umw--node1-KUFVIS_clean_sbu_0--edge1-EZIPEK_clean_linker_0
_symmetry_space_group_name_H-M    P1
_symmetry_Int_Tables_number       1
_symmetry_cell_setting            triclinic
loop_
_symmetry_equiv_pos_as_xyz
'x, y, z'
_cell_length_a     30.030941
_cell_length_b     30.619813
_cell_length_c     19.081375
_cell_angle_alpha  89.461802
_cell_angle_beta   90.366362
_cell_angle_gamma 89.783902
loop_
_atom_site_label
_atom_site_type_symbol
_atom_site_fract_x
_atom_site_fract_y
_atom_site_fract_z
_atom_type_partial_charge
Mn0 Mn 0.43462 0.20637 0.2897 0.0
Mn1 Mn 0.53975 0.1669 0.2694 0.0
C2 C 0.47705 0.185 0.38511 0.0
C3 C 0.38572 0.26373 0.319 0.0
C4 C 0.4567 0.11049 0.25464 0.0
O5 O 0.4485 0.22517 0.18783 0.0
O6 O 0.51718 0.19553 0.18358 0.0
C7 C 0.58005 0.25497 0.25825 0.0
N8 N 0.57812 0.21506 0.29013 0.0
C9 C 0.63235 0.23657 0.37664 0.0
C10 C 0.63486 0.27785 0.3446 0.0
C11 C 0.60855 0.28708 0.28514 0.0
C12 C 0.60262 0.20621 0.34829 0.0
H13 H 0.55978 0.26238 0.21299 0.0
C14 C 0.48511 0.21713 0.15604 0.0
O15 O 0.37126 0.22886 0.28791 0.0
O16 O 0.42849 0.2679 0.32251 0.0
N17 N 0.56859 0.13817 0.34683 0.0
C18 C 0.57076 0.09426 0.35915 0.0
C19 C 0.59881 0.0779 0.4125 0.0
C20 C 0.62621 0.10659 0.45003 0.0
C21 C 0.62683 0.15097 0.43145 0.0
C22 C 0.59841 0.16513 0.37725 0.0
H23 H 0.55062 0.07194 0.32911 0.0
O24 O 0.43424 0.18774 0.38971 0.0
O25 O 0.49428 0.19546 0.32534 0.0
O26 O 0.4282 0.14153 0.26113 0.0
O27 O 0.49914 0.11625 0.25431 0.0
C28 C 0.65628 0.18117 0.46187 0.0
C29 C 0.65871 0.22413 0.4349 0.0
H30 H 0.65708 0.30257 0.36489 0.0
H31 H 0.61024 0.31888 0.26007 0.0
H32 H 0.59945 0.04328 0.42443 0.0
H33 H 0.64786 0.09393 0.49109 0.0
H34 H 0.67801 0.1714 0.50479 0.0
H35 H 0.68196 0.24691 0.45798 0.0
Mn36 Mn 0.83187 0.4227 0.54283 0.0
Mn37 Mn 0.88467 0.51993 0.54125 0.0
C38 C 0.83836 0.4625 0.64474 0.0
C39 C 0.77189 0.37464 0.55876 0.0
C40 C 0.93252 0.43364 0.53279 0.0
O41 O 0.82326 0.44103 0.43893 0.0
O42 O 0.8646 0.50232 0.44734 0.0
C43 C 0.81389 0.58015 0.48977 0.0
N44 N 0.84544 0.56919 0.53856 0.0
C45 C 0.84202 0.64079 0.58935 0.0
C46 C 0.80923 0.65269 0.54007 0.0
C47 C 0.79482 0.62209 0.4905 0.0
C48 C 0.85894 0.59815 0.58725 0.0
H49 H 0.80366 0.55728 0.45015 0.0
C50 C 0.84112 0.47547 0.41195 0.0
O51 O 0.80944 0.36137 0.53323 0.0
O52 O 0.76661 0.41659 0.56316 0.0
N53 N 0.90462 0.54207 0.6292 0.0
C54 C 0.93507 0.52475 0.67483 0.0
C55 C 0.95138 0.55046 0.72983 0.0
C56 C 0.93684 0.59385 0.73639 0.0
C57 C 0.90578 0.61108 0.68844 0.0
C58 C 0.89006 0.58366 0.63562 0.0
H59 H 0.94743 0.49194 0.66827 0.0
O60 O 0.84165 0.4204 0.64541 0.0
O61 O 0.83935 0.48122 0.58321 0.0
O62 O 0.89807 0.4102 0.52607 0.0
O63 O 0.93092 0.47444 0.54316 0.0
C64 C 0.89018 0.65453 0.69048 0.0
C65 C 0.85841 0.66944 0.6408 0.0
H66 H 0.79485 0.68518 0.53987 0.0
H67 H 0.76964 0.63108 0.45212 0.0
H68 H 0.97594 0.5373 0.76606 0.0
H69 H 0.9501 0.61384 0.77786 0.0
H70 H 0.90205 0.67662 0.73042 0.0
H71 H 0.84623 0.70272 0.64342 0.0
Mn72 Mn 0.60936 0.82535 0.78829 0.0
Mn73 Mn 0.50566 0.87006 0.78203 0.0
C74 C 0.57202 0.84364 0.88995 0.0
C75 C 0.65713 0.7654 0.80944 0.0
C76 C 0.59061 0.9232 0.76282 0.0
O77 O 0.59011 0.81233 0.68492 0.0
O78 O 0.5233 0.84459 0.69377 0.0
C79 C 0.46264 0.78364 0.76733 0.0
N80 N 0.46641 0.82242 0.80136 0.0
C81 C 0.41433 0.79923 0.88928 0.0
C82 C 0.40974 0.75919 0.85506 0.0
C83 C 0.43406 0.75135 0.79382 0.0
C84 C 0.44401 0.82978 0.86126 0.0
H85 H 0.48161 0.77712 0.72072 0.0
C86 C 0.55237 0.82435 0.65857 0.0
O87 O 0.6716 0.80094 0.77962 0.0
O88 O 0.6144 0.76234 0.81585 0.0
N89 N 0.48066 0.89656 0.863 0.0
C90 C 0.48009 0.94011 0.87754 0.0
C91 C 0.453 0.95571 0.93163 0.0
C92 C 0.42499 0.92673 0.96771 0.0
C93 C 0.42323 0.8829 0.94775 0.0
C94 C 0.45042 0.86959 0.89255 0.0
H95 H 0.50043 0.96272 0.84815 0.0
O96 O 0.61475 0.83915 0.89017 0.0
O97 O 0.55191 0.83699 0.83102 0.0
O98 O 0.61774 0.89079 0.76453 0.0
O99 O 0.54801 0.91951 0.76747 0.0
C100 C 0.39371 0.85254 -0.02226 0.0
C101 C 0.3901 0.81032 0.94947 0.0
H102 H 0.38739 0.73439 0.87502 0.0
H103 H 0.43083 0.72049 0.76713 0.0
H104 H 0.45336 0.98999 0.94493 0.0
H105 H 0.40363 0.93873 0.00867 0.0
H106 H 0.37305 0.86166 0.02155 0.0
H107 H 0.36762 0.78708 0.97294 0.0
Mn108 Mn 0.21446 0.59658 0.04634 0.0
Mn109 Mn 0.17168 0.49523 0.04873 0.0
C110 C 0.20871 0.55833 0.15179 0.0
C111 C 0.2731 0.64675 0.06398 0.0
C112 C 0.11456 0.57645 0.03594 0.0
O113 O 0.22473 0.57913 0.94366 0.0
O114 O 0.18775 0.51541 0.95424 0.0
C115 C 0.25144 0.44689 0.00024 0.0
N116 N 0.21784 0.45203 0.04714 0.0
C117 C 0.23478 0.38283 0.10203 0.0
C118 C 0.2695 0.37677 0.05429 0.0
C119 C 0.27812 0.40915 0.00359 0.0
C120 C 0.20993 0.42154 0.09703 0.0
H121 H 0.25771 0.47118 0.96028 0.0
C122 C 0.20869 0.54384 0.91803 0.0
O123 O 0.23457 0.6591 0.03926 0.0
O124 O 0.27975 0.60502 0.06539 0.0
N125 N 0.15548 0.46954 0.13645 0.0
C126 C 0.12239 0.4814 0.18076 0.0
C127 C 0.11038 0.45314 0.23567 0.0
C128 C 0.1321 0.41265 0.24376 0.0
C129 C 0.16605 0.4011 0.19761 0.0
C130 C 0.17678 0.43075 0.14421 0.0
H131 H 0.10468 0.51165 0.17317 0.0
O132 O 0.20383 0.59998 0.14758 0.0
O133 O 0.21139 0.53846 0.09174 0.0
O134 O 0.14662 0.60326 0.02812 0.0
O135 O 0.12058 0.53601 0.04995 0.0
C136 C 0.18949 0.36119 0.20226 0.0
C137 C 0.22398 0.35212 0.15462 0.0
H138 H 0.28986 0.3475 0.05628 0.0
H139 H 0.30489 0.40477 0.96658 0.0
H140 H 0.08368 0.46215 0.27034 0.0
H141 H 0.12227 0.39025 0.28485 0.0
H142 H 0.18172 0.33755 0.24293 0.0
H143 H 0.24233 0.32171 0.15946 0.0
Mn144 Mn 0.4343 0.82995 0.24324 0.0
Mn145 Mn 0.5392 0.86902 0.26819 0.0
C146 C 0.4786 0.84868 0.14923 0.0
C147 C 0.38485 0.77262 0.216 0.0
C148 C 0.4558 0.92605 0.27742 0.0
O149 O 0.44716 0.81237 0.34672 0.0
O150 O 0.51624 0.8406 0.35321 0.0
C151 C 0.57975 0.78086 0.28155 0.0
N152 N 0.57805 0.82078 0.24954 0.0
C153 C 0.63188 0.79844 0.16391 0.0
C154 C 0.6342 0.75715 0.19609 0.0
C155 C 0.60803 0.74836 0.25525 0.0
C156 C 0.60263 0.82929 0.19194 0.0
H157 H 0.5594 0.77371 0.32634 0.0
C158 C 0.48381 0.81959 0.37967 0.0
O159 O 0.37075 0.80869 0.24377 0.0
O160 O 0.42762 0.76785 0.21277 0.0
N161 N 0.56843 0.89749 0.19175 0.0
C162 C 0.57039 0.94135 0.17891 0.0
C163 C 0.59859 0.95737 0.12619 0.0
C164 C 0.62622 0.92838 0.08978 0.0
C165 C 0.62686 0.88406 0.10879 0.0
C166 C 0.59852 0.87033 0.16263 0.0
H167 H 0.54993 0.96386 0.20792 0.0
O168 O 0.43582 0.84662 0.14213 0.0
O169 O 0.49453 0.83973 0.21082 0.0
O170 O 0.42752 0.89526 0.2687 0.0
O171 O 0.49817 0.9199 0.28107 0.0
C172 C 0.65579 0.85334 0.07857 0.0
C173 C 0.65773 0.81032 0.10547 0.0
H174 H 0.65614 0.73209 0.1761 0.0
H175 H 0.60954 0.71655 0.28039 0.0
H176 H 0.59909 0.99192 0.1138 0.0
H177 H 0.64786 0.94072 0.04905 0.0
H178 H 0.67723 0.86264 0.03554 0.0
H179 H 0.68001 0.78693 0.08205 0.0
Mn180 Mn 0.21579 0.4257 0.5074 0.0
Mn181 Mn 0.15908 0.52071 0.51494 0.0
C182 C 0.20612 0.46727 0.40684 0.0
C183 C 0.27945 0.38062 0.49175 0.0
C184 C 0.11468 0.43277 0.52167 0.0
O185 O 0.22562 0.44183 0.61116 0.0
O186 O 0.1806 0.50119 0.60742 0.0
C187 C 0.22872 0.58128 0.5661 0.0
N188 N 0.19646 0.571 0.51857 0.0
C189 C 0.19599 0.64424 0.47162 0.0
C190 C 0.22948 0.65551 0.51963 0.0
C191 C 0.24621 0.62375 0.5666 0.0
C192 C 0.18082 0.60107 0.47224 0.0
H193 H 0.2407 0.55744 0.60377 0.0
C194 C 0.20642 0.47462 0.64007 0.0
O195 O 0.24184 0.36551 0.51445 0.0
O196 O 0.28109 0.42278 0.4861 0.0
N197 N 0.13693 0.54484 0.42925 0.0
C198 C 0.10593 0.52805 0.38497 0.0
C199 C 0.08652 0.55509 0.33356 0.0
C200 C 0.0987 0.59934 0.32893 0.0
C201 C 0.13068 0.6159 0.37525 0.0
C202 C 0.14931 0.58715 0.42477 0.0
H203 H 0.09526 0.49463 0.39027 0.0
O204 O 0.20471 0.42506 0.40532 0.0
O205 O 0.20523 0.48474 0.46895 0.0
O206 O 0.15015 0.41018 0.52598 0.0
O207 O 0.11469 0.47384 0.51257 0.0
C208 C 0.1443 0.65992 0.37503 0.0
C209 C 0.17704 0.67408 0.42311 0.0
H210 H 0.24258 0.6884 0.5209 0.0
H211 H 0.27194 0.63223 0.604 0.0
H212 H 0.06129 0.5419 0.29927 0.0
H213 H 0.08297 0.62059 0.29045 0.0
H214 H 0.13021 0.68303 0.33762 0.0
H215 H 0.18775 0.70782 0.4218 0.0
Mn216 Mn 0.60613 0.202 0.74806 0.0
Mn217 Mn 0.50323 0.15677 0.75753 0.0
C218 C 0.56704 0.18279 0.6483 0.0
C219 C 0.65251 0.26193 0.72221 0.0
C220 C 0.58926 0.10448 0.77644 0.0
O221 O 0.58863 0.21598 0.85124 0.0
O222 O 0.52163 0.18392 0.84455 0.0
C223 C 0.45781 0.24245 0.77008 0.0
N224 N 0.46253 0.20348 0.73692 0.0
C225 C 0.40937 0.22489 0.64807 0.0
C226 C 0.4038 0.26511 0.68142 0.0
C227 C 0.42818 0.27393 0.74268 0.0
C228 C 0.43993 0.19511 0.67712 0.0
H229 H 0.47682 0.24973 0.81669 0.0
C230 C 0.5512 0.20468 0.87841 0.0
O231 O 0.66812 0.2266 0.75195 0.0
O232 O 0.60956 0.26519 0.71962 0.0
N233 N 0.47843 0.12906 0.67705 0.0
C234 C 0.47988 0.08562 0.66201 0.0
C235 C 0.45382 0.06939 0.6068 0.0
C236 C 0.42482 0.09757 0.57003 0.0
C237 C 0.42104 0.14124 0.59039 0.0
C238 C 0.44736 0.15521 0.64662 0.0
H239 H 0.50119 0.0636 0.69158 0.0
O240 O 0.60974 0.18696 0.64678 0.0
O241 O 0.54806 0.1899 0.70754 0.0
O242 O 0.61598 0.13692 0.7729 0.0
O243 O 0.54658 0.108 0.77329 0.0
C244 C 0.39065 0.17086 0.55941 0.0
C245 C 0.38544 0.21297 0.58756 0.0
H246 H 0.38074 0.28934 0.66066 0.0
H247 H 0.4242 0.30496 0.76866 0.0
H248 H 0.45579 0.03523 0.59305 0.0
H249 H 0.4044 0.08499 0.52806 0.0
H250 H 0.37058 0.16132 0.51477 0.0
H251 H 0.3621 0.23554 0.56357 0.0
Mn252 Mn 0.82722 0.59136 -0.0032 0.0
Mn253 Mn 0.87079 0.49014 0.00571 0.0
C254 C 0.83429 0.55097 0.89605 0.0
C255 C 0.76784 0.64073 0.97169 0.0
C256 C 0.92688 0.57121 0.01257 0.0
O257 O 0.81465 0.57636 0.09989 0.0
O258 O 0.85224 0.51211 0.09903 0.0
C259 C 0.7924 0.43997 0.05442 0.0
N260 N 0.82605 0.4459 0.00789 0.0
C261 C 0.81298 0.3754 0.95708 0.0
C262 C 0.77803 0.36868 0.00428 0.0
C263 C 0.76744 0.4013 0.05275 0.0
C264 C 0.83601 0.41501 0.96028 0.0
H265 H 0.78501 0.46431 0.09289 0.0
C266 C 0.82995 0.54184 0.13041 0.0
O267 O 0.80587 0.65397 -0.00352 0.0
O268 O 0.76221 0.59901 0.97388 0.0
N269 N 0.88932 0.46395 0.92012 0.0
C270 C 0.92229 0.47662 0.87577 0.0
C271 C 0.93576 0.44834 0.82233 0.0
C272 C 0.91558 0.40726 0.81557 0.0
C273 C 0.88184 0.39493 0.86193 0.0
C274 C 0.86946 0.42463 0.91364 0.0
H275 H 0.93868 0.50769 0.88204 0.0
O276 O 0.84035 0.5925 0.8965 0.0
O277 O 0.83095 0.53222 0.95755 0.0
O278 O 0.89463 0.59822 0.01794 0.0
O279 O 0.92129 0.53057 0.00357 0.0
C280 C 0.86022 0.3542 0.85925 0.0
C281 C 0.82587 0.3444 0.90694 0.0
H282 H 0.75904 0.33867 0.00364 0.0
H283 H 0.74058 0.39636 0.0895 0.0
H284 H 0.96237 0.45772 0.78751 0.0
H285 H 0.92644 0.38521 0.77509 0.0
H286 H 0.86945 0.33036 0.8203 0.0
H287 H 0.80931 0.31311 0.90424 0.0
C288 C 0.5132 0.22371 0.48274 0.0
C289 C 0.50321 0.18376 0.44952 0.0
C290 C 0.53695 0.14327 0.54593 0.0
C291 C 0.54221 0.18259 0.58263 0.0
N292 N 0.52572 0.25961 0.59301 0.0
N293 N 0.49967 0.10475 0.45653 0.0
C294 C 0.52744 0.22275 0.55329 0.0
C295 C 0.51288 0.14355 0.48313 0.0
N296 N 0.51004 0.26241 0.44679 0.0
N297 N 0.55327 0.10498 0.57233 0.0
H298 H 0.48308 0.10194 0.40884 0.0
H299 H 0.48308 0.10194 0.40884 0.0
H300 H 0.56665 0.10303 0.62246 0.0
H301 H 0.55079 0.07539 0.54581 0.0
H302 H 0.52131 0.2919 0.46699 0.0
H303 H 0.50072 0.26442 0.39422 0.0
H304 H 0.51065 0.28851 0.57574 0.0
H305 H 0.53543 0.26025 0.64547 0.0
C306 C 0.80572 0.46267 0.76866 0.0
C307 C 0.81926 0.48501 0.7068 0.0
C308 C 0.8124 0.55411 0.76547 0.0
C309 C 0.81766 0.53056 0.83016 0.0
N310 N 0.7739 0.47424 0.88361 0.0
N311 N 0.78437 0.54507 0.64724 0.0
C312 C 0.80109 0.4875 0.83066 0.0
C313 C 0.8079 0.52947 0.70348 0.0
N314 N 0.79187 0.42043 0.76636 0.0
N315 N 0.8075 0.59841 0.76256 0.0
H316 H 0.77471 0.52479 0.60624 0.0
H317 H 0.76946 0.57585 0.64573 0.0
H318 H 0.80244 0.61838 0.80538 0.0
H319 H 0.80512 0.61553 0.71549 0.0
H320 H 0.78466 0.40204 0.81091 0.0
H321 H 0.78364 0.40535 0.71948 0.0
H322 H 0.75638 0.44497 0.88322 0.0
H323 H 0.76451 0.49526 0.92367 0.0
C324 C 0.51674 0.88699 0.05099 0.0
C325 C 0.50626 0.84781 0.08661 0.0
C326 C 0.53494 0.80563 -0.01107 0.0
C327 C 0.5483 0.84517 0.95638 0.0
N328 N 0.55737 0.92315 0.96073 0.0
N329 N 0.51423 0.76944 0.0969 0.0
C330 C 0.54166 0.88551 -0.01045 0.0
C331 C 0.51811 0.8069 0.05793 0.0
N332 N 0.50331 0.92656 0.07434 0.0
N333 N 0.53703 0.76716 0.95335 0.0
H334 H 0.50259 0.76907 0.14815 0.0
H335 H 0.5268 0.7394 0.08106 0.0
H336 H 0.54909 0.76491 0.90248 0.0
H337 H 0.523 0.73822 0.97177 0.0
H338 H 0.48605 0.93072 0.12078 0.0
H339 H 0.48605 0.93072 0.12078 0.0
H340 H 0.55427 0.95351 -0.0152 0.0
H341 H 0.5705 0.92374 0.9107 0.0
C342 C 0.23973 0.47046 0.28334 0.0
C343 C 0.22367 0.49147 0.34441 0.0
C344 C 0.22544 0.56129 0.28461 0.0
C345 C 0.22387 0.53813 0.21973 0.0
N346 N 0.2714 0.4841 0.16835 0.0
N347 N 0.25416 0.55321 0.40259 0.0
C348 C 0.24337 0.49597 0.2209 0.0
C349 C 0.23141 0.53655 0.347 0.0
N350 N 0.25633 0.42897 0.28669 0.0
N351 N 0.22559 0.60579 0.28801 0.0
H352 H 0.26564 0.5333 0.44361 0.0
H353 H 0.26693 0.58482 0.40308 0.0
H354 H 0.22972 0.62708 0.24608 0.0
H355 H 0.22491 0.62205 0.33549 0.0
H356 H 0.26563 0.41148 0.24269 0.0
H357 H 0.26414 0.41324 0.33379 0.0
H358 H 0.29051 0.45567 0.1693 0.0
H359 H 0.27979 0.50559 0.12784 0.0
C360 C 0.36162 0.33906 0.35563 0.0
C361 C 0.35661 0.29315 0.36217 0.0
C362 C 0.31019 0.30468 0.46755 0.0
C363 C 0.31368 0.35071 0.4584 0.0
N364 N 0.3605 0.40864 0.4143 0.0
N365 N 0.32599 0.23147 0.42566 0.0
C366 C 0.34443 0.36718 0.40827 0.0
C367 C 0.3306 0.27571 0.41834 0.0
N368 N 0.3817 0.35612 0.29748 0.0
N369 N 0.29079 0.28891 0.52728 0.0
H370 H 0.34368 0.20878 0.39669 0.0
H371 H 0.30353 0.21647 0.45926 0.0
H372 H 0.28324 0.30906 0.56938 0.0
H373 H 0.28621 0.2561 0.53936 0.0
H374 H 0.38188 0.38942 0.2857 0.0
H375 H 0.39388 0.33668 0.25721 0.0
H376 H 0.38522 0.42136 0.38205 0.0
H377 H 0.355 0.42765 0.45839 0.0
C378 C 0.75633 0.32378 0.66147 0.0
C379 C 0.74161 0.34407 0.5977 0.0
C380 C 0.66948 0.30752 0.61193 0.0
C381 C 0.68204 0.29243 0.68068 0.0
N382 N 0.73487 0.29645 0.77583 0.0
N383 N 0.68118 0.3603 0.51807 0.0
C384 C 0.7248 0.30341 0.70671 0.0
C385 C 0.69706 0.33795 0.57535 0.0
N386 N 0.80044 0.3235 0.67949 0.0
N387 N 0.63336 0.29032 0.57843 0.0
H388 H 0.7011 0.38064 0.48742 0.0
H389 H 0.64758 0.36093 0.5041 0.0
H390 H 0.61515 0.26442 0.59841 0.0
H391 H 0.62495 0.29767 0.52659 0.0
H392 H 0.81309 0.30507 0.72133 0.0
H393 H 0.82507 0.33839 0.64977 0.0
H394 H 0.76387 0.3081 0.79915 0.0
H395 H 0.71206 0.28379 0.81158 0.0
C396 C 0.71249 0.65785 0.87015 0.0
C397 C 0.73611 0.67122 0.93222 0.0
C398 C 0.713 0.74748 0.90652 0.0
C399 C 0.68721 0.73357 0.84774 0.0
N400 N 0.65603 0.6743 0.78197 0.0
N401 N 0.74784 0.72747 0.01763 0.0
C402 C 0.68483 0.6884 0.83271 0.0
C403 C 0.73334 0.71577 0.95236 0.0
N404 N 0.71802 0.61696 0.84311 0.0
N405 N 0.71736 0.79103 0.92009 0.0
H406 H 0.75794 0.70469 0.05551 0.0
H407 H 0.74544 0.75886 0.03753 0.0
H408 H 0.70074 0.8155 0.89219 0.0
H409 H 0.7401 0.80337 0.95615 0.0
H410 H 0.7068 0.60835 0.79338 0.0
H411 H 0.73739 0.59228 0.86496 0.0
H412 H 0.6473 0.64163 0.776 0.0
H413 H 0.63854 0.69542 0.7485 0.0
C414 C 0.30738 0.72212 0.07748 0.0
C415 C 0.30388 0.67815 0.10162 0.0
C416 C 0.35501 0.69613 0.19988 0.0
C417 C 0.35442 0.74083 0.17993 0.0
N418 N 0.3249 0.79756 0.10361 0.0
N419 N 0.3169 0.62716 0.19879 0.0
C420 C 0.32861 0.75421 0.12039 0.0
C421 C 0.32593 0.66601 0.16598 0.0
N422 N 0.29246 0.73284 0.01163 0.0
N423 N 0.38295 0.68216 0.2524 0.0
H424 H 0.29441 0.60423 0.1808 0.0
H425 H 0.32782 0.61957 0.2494 0.0
H426 H 0.40152 0.70331 0.28344 0.0
H427 H 0.38977 0.64926 0.26224 0.0
H428 H 0.29527 0.76374 -0.01093 0.0
H429 H 0.28117 0.70966 -0.0239 0.0
H430 H 0.30211 0.80977 0.06697 0.0
H431 H 0.34244 0.82201 0.12915 0.0
C432 C 0.433 0.99205 0.20612 0.0
C433 C 0.43979 0.97235 0.27282 0.0
C434 C 0.42945 0.04483 0.32241 0.0
C435 C 0.44065 0.06433 0.2571 0.0
N436 N 0.45195 0.05404 0.13337 0.0
N437 N 0.44156 0.98198 0.39789 0.0
C438 C 0.44188 0.03726 0.19757 0.0
C439 C 0.43688 0.99929 0.33234 0.0
N440 N 0.41527 0.96876 0.15253 0.0
N441 N 0.40961 0.06879 0.37323 0.0
H442 H 0.44614 0.94862 0.40608 0.0
H443 H 0.44324 1.00131 0.44258 0.0
H444 H 0.40231 0.1019 0.3666 0.0
H445 H 0.39688 0.05434 0.41849 0.0
H446 H 0.40596 0.98359 0.10524 0.0
H447 H 0.40636 0.93603 0.15839 0.0
H448 H 0.45623 0.03435 0.08954 0.0
H449 H 0.45883 0.08704 0.12599 0.0
C450 C 0.99789 0.40909 0.46312 0.0
C451 C 0.97732 0.41346 0.52916 0.0
C452 C 0.04955 0.40329 0.58742 0.0
C453 C 0.07041 0.41132 0.5226 0.0
N454 N 0.06709 0.41045 0.39739 0.0
N455 N 0.98126 0.40719 0.65463 0.0
C456 C 0.04524 0.40986 0.45973 0.0
C457 C 1.00246 0.40735 0.59163 0.0
N458 N 0.97194 0.40542 0.40444 0.0
N459 N 0.07496 0.39144 0.64396 0.0
H460 H 0.9466 0.40812 0.65815 0.0
H461 H 0.99781 0.40732 0.70271 0.0
H462 H 0.10912 0.38591 0.63925 0.0
H463 H 0.06201 0.38282 0.6926 0.0
H464 H 0.98415 0.40124 0.35409 0.0
H465 H 0.9373 0.40364 0.40715 0.0
H466 H 0.05143 0.41144 0.34872 0.0
H467 H 0.1018 0.40971 0.39536 0.0
C468 C 0.61191 0.99409 0.70273 0.0
C469 C 0.60922 0.96823 0.76415 0.0
C470 C 0.61185 0.03365 0.83632 0.0
C471 C 0.60825 0.05952 0.77493 0.0
N472 N 0.63389 0.06451 0.65594 0.0
N473 N 0.63688 0.96382 0.88254 0.0
C474 C 0.61725 0.03995 0.70947 0.0
C475 C 0.61851 0.98796 0.82945 0.0
N476 N 0.60978 0.97506 0.6386 0.0
N477 N 0.60913 0.05243 0.90056 0.0
H478 H 0.64475 0.93084 0.87629 0.0
H479 H 0.64774 0.97751 0.92942 0.0
H480 H 0.60813 0.08625 0.90644 0.0
H481 H 0.60705 0.03417 0.94685 0.0
H482 H 0.60673 0.99302 0.5921 0.0
H483 H 0.61061 0.94121 0.63306 0.0
H484 H 0.64441 0.05114 0.60879 0.0
H485 H 0.64074 0.09767 0.66186 0.0
C486 C 0.99604 0.57268 0.08645 0.0
C487 C 0.97364 0.58551 0.02397 0.0
C488 C 0.04562 0.60698 0.97299 0.0
C489 C 0.06736 0.59215 0.03513 0.0
N490 N 0.06075 0.58354 0.15922 0.0
N491 N 0.97541 0.62536 0.91472 0.0
C492 C 0.04163 0.58252 0.09454 0.0
C493 C 0.99788 0.60652 0.96956 0.0
N494 N 0.9749 0.54847 0.13651 0.0
N495 N 0.07038 0.62006 0.91702 0.0
H496 H 0.94076 0.62452 0.91057 0.0
H497 H 0.99068 0.64473 0.87682 0.0
H498 H 0.10476 0.62414 0.92054 0.0
H499 H 0.0571 0.62598 0.86729 0.0
H500 H 0.99154 0.53489 0.1797 0.0
H501 H 0.94193 0.53857 0.13153 0.0
H502 H 0.04157 0.58209 0.2044 0.0
H503 H 0.09429 0.59138 0.16646 0.0
C504 C 0.51421 0.17696 -0.01448 0.0
C505 C 0.5386 0.21157 0.95348 0.0
C506 C 0.51753 0.25799 0.05297 0.0
C507 C 0.49007 0.22399 0.07947 0.0
N508 N 0.44995 0.15853 0.05478 0.0
N509 N 0.55646 0.28844 0.95223 0.0
C510 C 0.48403 0.18624 0.03961 0.0
C511 C 0.53842 0.25329 -0.01411 0.0
N512 N 0.52064 0.13475 0.96529 0.0
N513 N 0.52362 0.29449 0.09215 0.0
H514 H 0.57216 0.28607 0.90389 0.0
H515 H 0.55338 0.32029 0.97034 0.0
H516 H 0.50593 0.29954 0.13836 0.0
H517 H 0.54694 0.31847 0.0801 0.0
H518 H 0.5059 0.10828 -0.00917 0.0
H519 H 0.5444 0.12615 0.92827 0.0
H520 H 0.44181 0.13219 0.02292 0.0
H521 H 0.42735 0.16495 0.0948 0.0
C522 C 0.7887 0.51215 0.23563 0.0
C523 C 0.82559 0.53495 0.20723 0.0
C524 C 0.87215 0.5092 0.30371 0.0
C525 C 0.83508 0.48882 0.33664 0.0
N526 N 0.75489 0.48023 0.33933 0.0
N527 N 0.89545 0.56935 0.23014 0.0
C528 C 0.79225 0.49271 0.30414 0.0
C529 C 0.865 0.5381 0.24671 0.0
N530 N 0.75042 0.5091 0.19717 0.0
N531 N 0.91459 0.50022 0.32579 0.0
H532 H 0.89005 0.59159 0.18906 0.0
H533 H 0.9234 0.57551 0.26121 0.0
H534 H 0.92164 0.47725 0.36499 0.0
H535 H 0.9426 0.51201 0.2998 0.0
H536 H 0.72412 0.48873 0.2109 0.0
H537 H 0.74621 0.52571 0.14952 0.0
H538 H 0.72278 0.48658 0.32086 0.0
H539 H 0.75561 0.46659 0.38948 0.0
C540 C 0.51537 0.85563 0.55277 0.0
C541 C 0.53894 0.81951 0.58307 0.0
C542 C 0.51548 0.77579 0.48135 0.0
C543 C 0.48914 0.8114 0.45615 0.0
N544 N 0.45187 0.8782 0.48301 0.0
N545 N 0.55442 0.74213 0.58061 0.0
C546 C 0.48483 0.84872 0.49757 0.0
C547 C 0.53713 0.77848 0.54862 0.0
N548 N 0.52286 0.89705 0.57589 0.0
N549 N 0.51987 0.73971 0.44067 0.0
H550 H 0.57073 0.74314 0.62893 0.0
H551 H 0.55019 0.71073 0.56117 0.0
H552 H 0.50176 0.73624 0.39413 0.0
H553 H 0.54231 0.71451 0.45174 0.0
H554 H 0.50907 0.92466 0.55163 0.0
H555 H 0.54651 0.90389 0.61434 0.0
H556 H 0.44485 0.90449 0.51556 0.0
H557 H 0.42879 0.87319 0.44271 0.0
C558 C 0.2524 0.52166 0.81052 0.0
C559 C 0.21129 0.53287 0.84242 0.0
C560 C 0.17129 0.49186 0.7526 0.0
C561 C 0.21141 0.48485 0.71573 0.0
N562 N 0.29009 0.49862 0.70465 0.0
N563 N 0.13132 0.53688 0.83415 0.0
C564 C 0.25213 0.50113 0.7434 0.0
C565 C 0.1707 0.52062 0.80997 0.0
N566 N 0.29152 0.52904 0.84518 0.0
N567 N 0.13345 0.47073 0.73233 0.0
H568 H 0.12995 0.55839 0.87604 0.0
H569 H 0.1009 0.53257 0.80862 0.0
H570 H 0.13324 0.44916 0.69051 0.0
H571 H 0.10398 0.4712 0.76086 0.0
H572 H 0.32208 0.51702 0.8283 0.0
H573 H 0.29298 0.54498 0.89318 0.0
H574 H 0.3195 0.51442 0.71835 0.0
H575 H 0.29135 0.4828 0.65655 0.0
loop_
_geom_bond_atom_site_label_1
_geom_bond_atom_site_label_2
_geom_bond_distance
_geom_bond_site_symmetry_2
_ccdc_geom_bond_type
Mn0 O5 2.095 . S
Mn0 O15 2.162 . S
Mn0 O16 2.297 . S
Mn0 O24 2.385 . S
Mn0 O25 2.209 . S
Mn0 O26 2.094 . S
Mn1 O6 2.121 . S
Mn1 N8 2.257 . S
Mn1 N17 2.282 . S
Mn1 O25 2.215 . S
Mn1 O27 2.117 . S
C2 O24 1.234 . S
C2 O25 1.283 . S
C3 O15 1.281 . S
C3 O16 1.236 . S
C4 O26 1.240 . S
C4 O27 1.264 . S
O5 Mn0 2.095 . S
O5 C14 1.250 . S
O6 Mn1 2.121 . S
O6 C14 1.258 . S
C7 N8 1.326 . S
C7 C11 1.460 . S
C7 H13 0.929 . S
N8 Mn1 2.257 . S
N8 C7 1.326 . S
N8 C12 1.362 . S
C9 C10 1.258 . S
C9 C12 1.431 . S
C9 C29 1.449 . S
C10 C9 1.258 . S
C10 C11 1.477 . S
C10 H30 0.931 . S
C11 C7 1.460 . S
C11 C10 1.477 . S
C11 H31 0.930 . S
C12 N8 1.362 . S
C12 C9 1.431 . S
C12 C22 1.476 . S
H13 C7 0.929 . S
C14 O5 1.250 . S
C14 O6 1.258 . S
O15 Mn0 2.162 . S
O15 C3 1.281 . S
O16 Mn0 2.297 . S
O16 C3 1.236 . S
N17 Mn1 2.282 . S
N17 C18 1.328 . S
N17 C22 1.318 . S
C18 N17 1.328 . S
C18 C19 1.457 . S
C18 H23 0.929 . S
C19 C18 1.457 . S
C19 C20 1.291 . S
C19 H32 0.931 . S
C20 C19 1.291 . S
C20 C21 1.373 . S
C20 H33 0.929 . S
C21 C20 1.373 . S
C21 C22 1.396 . S
C21 C28 1.403 . S
C22 C12 1.476 . S
C22 N17 1.318 . S
C22 C21 1.396 . S
H23 C18 0.929 . S
O24 Mn0 2.385 . S
O24 C2 1.234 . S
O25 Mn0 2.209 . S
O25 Mn1 2.215 . S
O25 C2 1.283 . S
O26 Mn0 2.094 . S
O26 C4 1.240 . S
O27 Mn1 2.117 . S
O27 C4 1.264 . S
C28 C21 1.403 . S
C28 C29 1.399 . S
C28 H34 0.929 . S
C29 C9 1.449 . S
C29 C28 1.399 . S
C29 H35 0.930 . S
H30 C10 0.931 . S
H31 C11 0.930 . S
H32 C19 0.931 . S
H33 C20 0.929 . S
H34 C28 0.929 . S
H35 C29 0.930 . S
Mn36 O41 2.095 . S
Mn36 O51 2.162 . S
Mn36 O52 2.297 . S
Mn36 O60 2.385 . S
Mn36 O61 2.209 . S
Mn36 O62 2.094 . S
Mn37 O42 2.121 . S
Mn37 N44 2.257 . S
Mn37 N53 2.282 . S
Mn37 O61 2.215 . S
Mn37 O63 2.117 . S
C38 O60 1.234 . S
C38 O61 1.283 . S
C39 O51 1.281 . S
C39 O52 1.236 . S
C40 O62 1.240 . S
C40 O63 1.264 . S
O41 Mn36 2.095 . S
O41 C50 1.250 . S
O42 Mn37 2.121 . S
O42 C50 1.258 . S
C43 N44 1.326 . S
C43 C47 1.460 . S
C43 H49 0.929 . S
N44 Mn37 2.257 . S
N44 C43 1.326 . S
N44 C48 1.362 . S
C45 C46 1.258 . S
C45 C48 1.431 . S
C45 C65 1.449 . S
C46 C45 1.258 . S
C46 C47 1.477 . S
C46 H66 0.931 . S
C47 C43 1.460 . S
C47 C46 1.477 . S
C47 H67 0.930 . S
C48 N44 1.362 . S
C48 C45 1.431 . S
C48 C58 1.476 . S
H49 C43 0.929 . S
C50 O41 1.250 . S
C50 O42 1.258 . S
O51 Mn36 2.162 . S
O51 C39 1.281 . S
O52 Mn36 2.297 . S
O52 C39 1.236 . S
N53 Mn37 2.282 . S
N53 C54 1.328 . S
N53 C58 1.318 . S
C54 N53 1.328 . S
C54 C55 1.457 . S
C54 H59 0.929 . S
C55 C54 1.457 . S
C55 C56 1.291 . S
C55 H68 0.931 . S
C56 C55 1.291 . S
C56 C57 1.373 . S
C56 H69 0.929 . S
C57 C56 1.373 . S
C57 C58 1.396 . S
C57 C64 1.403 . S
C58 C48 1.476 . S
C58 N53 1.318 . S
C58 C57 1.396 . S
H59 C54 0.929 . S
O60 Mn36 2.385 . S
O60 C38 1.234 . S
O61 Mn36 2.209 . S
O61 Mn37 2.215 . S
O61 C38 1.283 . S
O62 Mn36 2.094 . S
O62 C40 1.240 . S
O63 Mn37 2.117 . S
O63 C40 1.264 . S
C64 C57 1.403 . S
C64 C65 1.399 . S
C64 H70 0.929 . S
C65 C45 1.449 . S
C65 C64 1.399 . S
C65 H71 0.930 . S
H66 C46 0.931 . S
H67 C47 0.930 . S
H68 C55 0.931 . S
H69 C56 0.929 . S
H70 C64 0.929 . S
H71 C65 0.930 . S
Mn72 O77 2.095 . S
Mn72 O87 2.162 . S
Mn72 O88 2.297 . S
Mn72 O96 2.385 . S
Mn72 O97 2.209 . S
Mn72 O98 2.094 . S
Mn73 O78 2.121 . S
Mn73 N80 2.257 . S
Mn73 N89 2.282 . S
Mn73 O97 2.215 . S
Mn73 O99 2.117 . S
C74 O96 1.234 . S
C74 O97 1.283 . S
C75 O87 1.281 . S
C75 O88 1.236 . S
C76 O98 1.240 . S
C76 O99 1.264 . S
O77 Mn72 2.095 . S
O77 C86 1.250 . S
O78 Mn73 2.121 . S
O78 C86 1.258 . S
C79 N80 1.326 . S
C79 C83 1.460 . S
C79 H85 0.929 . S
N80 Mn73 2.257 . S
N80 C79 1.326 . S
N80 C84 1.362 . S
C81 C82 1.258 . S
C81 C84 1.431 . S
C81 C101 1.449 . S
C82 C81 1.258 . S
C82 C83 1.477 . S
C82 H102 0.931 . S
C83 C79 1.460 . S
C83 C82 1.477 . S
C83 H103 0.930 . S
C84 N80 1.362 . S
C84 C81 1.431 . S
C84 C94 1.476 . S
H85 C79 0.929 . S
C86 O77 1.250 . S
C86 O78 1.258 . S
O87 Mn72 2.162 . S
O87 C75 1.281 . S
O88 Mn72 2.297 . S
O88 C75 1.236 . S
N89 Mn73 2.282 . S
N89 C90 1.328 . S
N89 C94 1.318 . S
C90 N89 1.328 . S
C90 C91 1.457 1_556 S
C90 H95 0.929 . S
C91 C90 1.457 1_554 S
C91 C92 1.291 . S
C91 H104 0.931 . S
C92 C91 1.291 . S
C92 C93 1.373 1_554 S
C92 H105 0.929 . S
C93 C92 1.373 1_556 S
C93 C94 1.396 . S
C93 C100 1.403 1_556 S
C94 C84 1.476 . S
C94 N89 1.318 . S
C94 C93 1.396 . S
H95 C90 0.929 . S
O96 Mn72 2.385 . S
O96 C74 1.234 . S
O97 Mn72 2.209 . S
O97 Mn73 2.215 . S
O97 C74 1.283 . S
O98 Mn72 2.094 . S
O98 C76 1.240 . S
O99 Mn73 2.117 . S
O99 C76 1.264 . S
C100 C93 1.403 1_554 S
C100 C101 1.399 1_554 S
C100 H106 0.929 . S
C101 C81 1.449 . S
C101 C100 1.399 1_556 S
C101 H107 0.930 . S
H102 C82 0.931 . S
H103 C83 0.930 . S
H104 C91 0.931 . S
H105 C92 0.929 . S
H106 C100 0.929 . S
H107 C101 0.930 . S
Mn108 O113 2.095 1_554 S
Mn108 O123 2.162 . S
Mn108 O124 2.297 . S
Mn108 O132 2.385 . S
Mn108 O133 2.209 . S
Mn108 O134 2.094 . S
Mn109 O114 2.121 1_554 S
Mn109 N116 2.257 . S
Mn109 N125 2.282 . S
Mn109 O133 2.215 . S
Mn109 O135 2.117 . S
C110 O132 1.234 . S
C110 O133 1.283 . S
C111 O123 1.281 . S
C111 O124 1.236 . S
C112 O134 1.240 . S
C112 O135 1.264 . S
O113 Mn108 2.095 1_556 S
O113 C122 1.250 . S
O114 Mn109 2.121 1_556 S
O114 C122 1.258 . S
C115 N116 1.326 . S
C115 C119 1.460 . S
C115 H121 0.929 1_554 S
N116 Mn109 2.257 . S
N116 C115 1.326 . S
N116 C120 1.362 . S
C117 C118 1.258 . S
C117 C120 1.431 . S
C117 C137 1.449 . S
C118 C117 1.258 . S
C118 C119 1.477 . S
C118 H138 0.931 . S
C119 C115 1.460 . S
C119 C118 1.477 . S
C119 H139 0.930 . S
C120 N116 1.362 . S
C120 C117 1.431 . S
C120 C130 1.476 . S
H121 C115 0.929 1_556 S
C122 O113 1.250 . S
C122 O114 1.258 . S
O123 Mn108 2.162 . S
O123 C111 1.281 . S
O124 Mn108 2.297 . S
O124 C111 1.236 . S
N125 Mn109 2.282 . S
N125 C126 1.328 . S
N125 C130 1.318 . S
C126 N125 1.328 . S
C126 C127 1.457 . S
C126 H131 0.929 . S
C127 C126 1.457 . S
C127 C128 1.291 . S
C127 H140 0.931 . S
C128 C127 1.291 . S
C128 C129 1.373 . S
C128 H141 0.929 . S
C129 C128 1.373 . S
C129 C130 1.396 . S
C129 C136 1.403 . S
C130 C120 1.476 . S
C130 N125 1.318 . S
C130 C129 1.396 . S
H131 C126 0.929 . S
O132 Mn108 2.385 . S
O132 C110 1.234 . S
O133 Mn108 2.209 . S
O133 Mn109 2.215 . S
O133 C110 1.283 . S
O134 Mn108 2.094 . S
O134 C112 1.240 . S
O135 Mn109 2.117 . S
O135 C112 1.264 . S
C136 C129 1.403 . S
C136 C137 1.399 . S
C136 H142 0.929 . S
C137 C117 1.449 . S
C137 C136 1.399 . S
C137 H143 0.930 . S
H138 C118 0.931 . S
H139 C119 0.930 . S
H140 C127 0.931 . S
H141 C128 0.929 . S
H142 C136 0.929 . S
H143 C137 0.930 . S
Mn144 O149 2.095 . S
Mn144 O159 2.162 . S
Mn144 O160 2.297 . S
Mn144 O168 2.385 . S
Mn144 O169 2.209 . S
Mn144 O170 2.094 . S
Mn145 O150 2.121 . S
Mn145 N152 2.257 . S
Mn145 N161 2.282 . S
Mn145 O169 2.215 . S
Mn145 O171 2.117 . S
C146 O168 1.234 . S
C146 O169 1.283 . S
C147 O159 1.281 . S
C147 O160 1.236 . S
C148 O170 1.240 . S
C148 O171 1.264 . S
O149 Mn144 2.095 . S
O149 C158 1.250 . S
O150 Mn145 2.121 . S
O150 C158 1.258 . S
C151 N152 1.326 . S
C151 C155 1.460 . S
C151 H157 0.929 . S
N152 Mn145 2.257 . S
N152 C151 1.326 . S
N152 C156 1.362 . S
C153 C154 1.258 . S
C153 C156 1.431 . S
C153 C173 1.449 . S
C154 C153 1.258 . S
C154 C155 1.477 . S
C154 H174 0.931 . S
C155 C151 1.460 . S
C155 C154 1.477 . S
C155 H175 0.930 . S
C156 N152 1.362 . S
C156 C153 1.431 . S
C156 C166 1.476 . S
H157 C151 0.929 . S
C158 O149 1.250 . S
C158 O150 1.258 . S
O159 Mn144 2.162 . S
O159 C147 1.281 . S
O160 Mn144 2.297 . S
O160 C147 1.236 . S
N161 Mn145 2.282 . S
N161 C162 1.328 . S
N161 C166 1.318 . S
C162 N161 1.328 . S
C162 C163 1.457 . S
C162 H167 0.929 . S
C163 C162 1.457 . S
C163 C164 1.291 . S
C163 H176 0.931 . S
C164 C163 1.291 . S
C164 C165 1.373 . S
C164 H177 0.929 . S
C165 C164 1.373 . S
C165 C166 1.396 . S
C165 C172 1.403 . S
C166 C156 1.476 . S
C166 N161 1.318 . S
C166 C165 1.396 . S
H167 C162 0.929 . S
O168 Mn144 2.385 . S
O168 C146 1.234 . S
O169 Mn144 2.209 . S
O169 Mn145 2.215 . S
O169 C146 1.283 . S
O170 Mn144 2.094 . S
O170 C148 1.240 . S
O171 Mn145 2.117 . S
O171 C148 1.264 . S
C172 C165 1.403 . S
C172 C173 1.399 . S
C172 H178 0.929 . S
C173 C153 1.449 . S
C173 C172 1.399 . S
C173 H179 0.930 . S
H174 C154 0.931 . S
H175 C155 0.930 . S
H176 C163 0.931 . S
H177 C164 0.929 . S
H178 C172 0.929 . S
H179 C173 0.930 . S
Mn180 O185 2.095 . S
Mn180 O195 2.162 . S
Mn180 O196 2.297 . S
Mn180 O204 2.385 . S
Mn180 O205 2.209 . S
Mn180 O206 2.094 . S
Mn181 O186 2.121 . S
Mn181 N188 2.257 . S
Mn181 N197 2.282 . S
Mn181 O205 2.215 . S
Mn181 O207 2.117 . S
C182 O204 1.234 . S
C182 O205 1.283 . S
C183 O195 1.281 . S
C183 O196 1.236 . S
C184 O206 1.240 . S
C184 O207 1.264 . S
O185 Mn180 2.095 . S
O185 C194 1.250 . S
O186 Mn181 2.121 . S
O186 C194 1.258 . S
C187 N188 1.326 . S
C187 C191 1.460 . S
C187 H193 0.929 . S
N188 Mn181 2.257 . S
N188 C187 1.326 . S
N188 C192 1.362 . S
C189 C190 1.258 . S
C189 C192 1.431 . S
C189 C209 1.449 . S
C190 C189 1.258 . S
C190 C191 1.477 . S
C190 H210 0.931 . S
C191 C187 1.460 . S
C191 C190 1.477 . S
C191 H211 0.930 . S
C192 N188 1.362 . S
C192 C189 1.431 . S
C192 C202 1.476 . S
H193 C187 0.929 . S
C194 O185 1.250 . S
C194 O186 1.258 . S
O195 Mn180 2.162 . S
O195 C183 1.281 . S
O196 Mn180 2.297 . S
O196 C183 1.236 . S
N197 Mn181 2.282 . S
N197 C198 1.328 . S
N197 C202 1.318 . S
C198 N197 1.328 . S
C198 C199 1.457 . S
C198 H203 0.929 . S
C199 C198 1.457 . S
C199 C200 1.291 . S
C199 H212 0.931 . S
C200 C199 1.291 . S
C200 C201 1.373 . S
C200 H213 0.929 . S
C201 C200 1.373 . S
C201 C202 1.396 . S
C201 C208 1.403 . S
C202 C192 1.476 . S
C202 N197 1.318 . S
C202 C201 1.396 . S
H203 C198 0.929 . S
O204 Mn180 2.385 . S
O204 C182 1.234 . S
O205 Mn180 2.209 . S
O205 Mn181 2.215 . S
O205 C182 1.283 . S
O206 Mn180 2.094 . S
O206 C184 1.240 . S
O207 Mn181 2.117 . S
O207 C184 1.264 . S
C208 C201 1.403 . S
C208 C209 1.399 . S
C208 H214 0.929 . S
C209 C189 1.449 . S
C209 C208 1.399 . S
C209 H215 0.930 . S
H210 C190 0.931 . S
H211 C191 0.930 . S
H212 C199 0.931 . S
H213 C200 0.929 . S
H214 C208 0.929 . S
H215 C209 0.930 . S
Mn216 O221 2.095 . S
Mn216 O231 2.162 . S
Mn216 O232 2.297 . S
Mn216 O240 2.385 . S
Mn216 O241 2.209 . S
Mn216 O242 2.094 . S
Mn217 O222 2.121 . S
Mn217 N224 2.257 . S
Mn217 N233 2.282 . S
Mn217 O241 2.215 . S
Mn217 O243 2.117 . S
C218 O240 1.234 . S
C218 O241 1.283 . S
C219 O231 1.281 . S
C219 O232 1.236 . S
C220 O242 1.240 . S
C220 O243 1.264 . S
O221 Mn216 2.095 . S
O221 C230 1.250 . S
O222 Mn217 2.121 . S
O222 C230 1.258 . S
C223 N224 1.326 . S
C223 C227 1.460 . S
C223 H229 0.929 . S
N224 Mn217 2.257 . S
N224 C223 1.326 . S
N224 C228 1.362 . S
C225 C226 1.258 . S
C225 C228 1.431 . S
C225 C245 1.449 . S
C226 C225 1.258 . S
C226 C227 1.477 . S
C226 H246 0.931 . S
C227 C223 1.460 . S
C227 C226 1.477 . S
C227 H247 0.930 . S
C228 N224 1.362 . S
C228 C225 1.431 . S
C228 C238 1.476 . S
H229 C223 0.929 . S
C230 O221 1.250 . S
C230 O222 1.258 . S
O231 Mn216 2.162 . S
O231 C219 1.281 . S
O232 Mn216 2.297 . S
O232 C219 1.236 . S
N233 Mn217 2.282 . S
N233 C234 1.328 . S
N233 C238 1.318 . S
C234 N233 1.328 . S
C234 C235 1.457 . S
C234 H239 0.929 . S
C235 C234 1.457 . S
C235 C236 1.291 . S
C235 H248 0.931 . S
C236 C235 1.291 . S
C236 C237 1.373 . S
C236 H249 0.929 . S
C237 C236 1.373 . S
C237 C238 1.396 . S
C237 C244 1.403 . S
C238 C228 1.476 . S
C238 N233 1.318 . S
C238 C237 1.396 . S
H239 C234 0.929 . S
O240 Mn216 2.385 . S
O240 C218 1.234 . S
O241 Mn216 2.209 . S
O241 Mn217 2.215 . S
O241 C218 1.283 . S
O242 Mn216 2.094 . S
O242 C220 1.240 . S
O243 Mn217 2.117 . S
O243 C220 1.264 . S
C244 C237 1.403 . S
C244 C245 1.399 . S
C244 H250 0.929 . S
C245 C225 1.449 . S
C245 C244 1.399 . S
C245 H251 0.930 . S
H246 C226 0.931 . S
H247 C227 0.930 . S
H248 C235 0.931 . S
H249 C236 0.929 . S
H250 C244 0.929 . S
H251 C245 0.930 . S
Mn252 O257 2.095 . S
Mn252 O267 2.162 . S
Mn252 O268 2.297 . S
Mn252 O276 2.385 1_554 S
Mn252 O277 2.209 1_554 S
Mn252 O278 2.094 . S
Mn253 O258 2.121 . S
Mn253 N260 2.257 . S
Mn253 N269 2.282 1_554 S
Mn253 O277 2.215 1_554 S
Mn253 O279 2.117 . S
C254 O276 1.234 . S
C254 O277 1.283 . S
C255 O267 1.281 . S
C255 O268 1.236 . S
C256 O278 1.240 . S
C256 O279 1.264 . S
O257 Mn252 2.095 . S
O257 C266 1.250 . S
O258 Mn253 2.121 . S
O258 C266 1.258 . S
C259 N260 1.326 . S
C259 C263 1.460 . S
C259 H265 0.929 . S
N260 Mn253 2.257 . S
N260 C259 1.326 . S
N260 C264 1.362 1_554 S
C261 C262 1.258 . S
C261 C264 1.431 . S
C261 C281 1.449 . S
C262 C261 1.258 . S
C262 C263 1.477 1_556 S
C262 H282 0.931 . S
C263 C259 1.460 . S
C263 C262 1.477 1_554 S
C263 H283 0.930 . S
C264 N260 1.362 1_556 S
C264 C261 1.431 . S
C264 C274 1.476 . S
H265 C259 0.929 . S
C266 O257 1.250 . S
C266 O258 1.258 . S
O267 Mn252 2.162 . S
O267 C255 1.281 . S
O268 Mn252 2.297 . S
O268 C255 1.236 . S
N269 Mn253 2.282 1_556 S
N269 C270 1.328 . S
N269 C274 1.318 . S
C270 N269 1.328 . S
C270 C271 1.457 . S
C270 H275 0.929 . S
C271 C270 1.457 . S
C271 C272 1.291 . S
C271 H284 0.931 . S
C272 C271 1.291 . S
C272 C273 1.373 . S
C272 H285 0.929 . S
C273 C272 1.373 . S
C273 C274 1.396 . S
C273 C280 1.403 . S
C274 C264 1.476 . S
C274 N269 1.318 . S
C274 C273 1.396 . S
H275 C270 0.929 . S
O276 Mn252 2.385 1_556 S
O276 C254 1.234 . S
O277 Mn252 2.209 1_556 S
O277 Mn253 2.215 1_556 S
O277 C254 1.283 . S
O278 Mn252 2.094 . S
O278 C256 1.240 . S
O279 Mn253 2.117 . S
O279 C256 1.264 . S
C280 C273 1.403 . S
C280 C281 1.399 . S
C280 H286 0.929 . S
C281 C261 1.449 . S
C281 C280 1.399 . S
C281 H287 0.930 . S
H282 C262 0.931 . S
H283 C263 0.930 . S
H284 C271 0.931 . S
H285 C272 0.929 . S
H286 C280 0.929 . S
H287 C281 0.930 . S
C288 C289 1.363 . S
C288 C294 1.379 . S
C288 N296 1.356 . S
C289 C288 1.363 . S
C289 C295 1.363 . S
C290 C291 1.363 . S
C290 C295 1.379 . S
C290 N297 1.356 . S
C291 C290 1.363 . S
C291 C294 1.363 . S
N292 C294 1.356 . S
N292 H304 0.984 . S
N292 H305 0.985 . S
N293 C295 1.356 . S
N293 H298 0.984 . S
N293 H299 0.985 . S
C294 C288 1.379 . S
C294 C291 1.363 . S
C294 N292 1.356 . S
C295 C289 1.363 . S
C295 C290 1.379 . S
C295 N293 1.356 . S
N296 C288 1.356 . S
N296 H302 0.984 . S
N296 H303 0.984 . S
N297 C290 1.356 . S
N297 H300 0.984 . S
N297 H301 0.985 . S
H298 N293 0.984 . S
H299 N293 0.985 . S
H300 N297 0.984 . S
H301 N297 0.985 . S
H302 N296 0.984 . S
H303 N296 0.984 . S
H304 N292 0.984 . S
H305 N292 0.985 . S
C306 C307 1.363 . S
C306 C312 1.379 . S
C306 N314 1.356 . S
C307 C306 1.363 . S
C307 C313 1.363 . S
C308 C309 1.363 . S
C308 C313 1.379 . S
C308 N315 1.356 . S
C309 C308 1.363 . S
C309 C312 1.363 . S
N310 C312 1.356 . S
N310 H322 0.984 . S
N310 H323 0.985 . S
N311 C313 1.356 . S
N311 H316 0.984 . S
N311 H317 0.985 . S
C312 C306 1.379 . S
C312 C309 1.363 . S
C312 N310 1.356 . S
C313 C307 1.363 . S
C313 C308 1.379 . S
C313 N311 1.356 . S
N314 C306 1.356 . S
N314 H320 0.984 . S
N314 H321 0.984 . S
N315 C308 1.356 . S
N315 H318 0.984 . S
N315 H319 0.985 . S
H316 N311 0.984 . S
H317 N311 0.985 . S
H318 N315 0.984 . S
H319 N315 0.985 . S
H320 N314 0.984 . S
H321 N314 0.984 . S
H322 N310 0.984 . S
H323 N310 0.985 . S
C324 C325 1.363 . S
C324 C330 1.379 1_554 S
C324 N332 1.356 . S
C325 C324 1.363 . S
C325 C331 1.363 . S
C326 C327 1.363 1_554 S
C326 C331 1.379 . S
C326 N333 1.356 1_554 S
C327 C326 1.363 1_556 S
C327 C330 1.363 . S
N328 C330 1.356 . S
N328 H340 0.984 . S
N328 H341 0.985 . S
N329 C331 1.356 . S
N329 H334 0.984 . S
N329 H335 0.985 . S
C330 C324 1.379 1_556 S
C330 C327 1.363 . S
C330 N328 1.356 . S
C331 C325 1.363 . S
C331 C326 1.379 . S
C331 N329 1.356 . S
N332 C324 1.356 . S
N332 H338 0.984 . S
N332 H339 0.984 . S
N333 C326 1.356 1_556 S
N333 H336 0.984 . S
N333 H337 0.985 1_556 S
H334 N329 0.984 . S
H335 N329 0.985 . S
H336 N333 0.984 . S
H337 N333 0.985 1_554 S
H338 N332 0.984 . S
H339 N332 0.984 . S
H340 N328 0.984 . S
H341 N328 0.985 . S
C342 C343 1.363 . S
C342 C348 1.379 . S
C342 N350 1.356 . S
C343 C342 1.363 . S
C343 C349 1.363 . S
C344 C345 1.363 . S
C344 C349 1.379 . S
C344 N351 1.356 . S
C345 C344 1.363 . S
C345 C348 1.363 . S
N346 C348 1.356 . S
N346 H358 0.984 . S
N346 H359 0.985 . S
N347 C349 1.356 . S
N347 H352 0.984 . S
N347 H353 0.985 . S
C348 C342 1.379 . S
C348 C345 1.363 . S
C348 N346 1.356 . S
C349 C343 1.363 . S
C349 C344 1.379 . S
C349 N347 1.356 . S
N350 C342 1.356 . S
N350 H356 0.984 . S
N350 H357 0.984 . S
N351 C344 1.356 . S
N351 H354 0.984 . S
N351 H355 0.985 . S
H352 N347 0.984 . S
H353 N347 0.985 . S
H354 N351 0.984 . S
H355 N351 0.985 . S
H356 N350 0.984 . S
H357 N350 0.984 . S
H358 N346 0.984 . S
H359 N346 0.985 . S
C360 C361 1.363 . S
C360 C366 1.379 . S
C360 N368 1.356 . S
C361 C360 1.363 . S
C361 C367 1.363 . S
C362 C363 1.363 . S
C362 C367 1.379 . S
C362 N369 1.356 . S
C363 C362 1.363 . S
C363 C366 1.363 . S
N364 C366 1.356 . S
N364 H376 0.984 . S
N364 H377 0.985 . S
N365 C367 1.356 . S
N365 H370 0.984 . S
N365 H371 0.985 . S
C366 C360 1.379 . S
C366 C363 1.363 . S
C366 N364 1.356 . S
C367 C361 1.363 . S
C367 C362 1.379 . S
C367 N365 1.356 . S
N368 C360 1.356 . S
N368 H374 0.984 . S
N368 H375 0.984 . S
N369 C362 1.356 . S
N369 H372 0.984 . S
N369 H373 0.985 . S
H370 N365 0.984 . S
H371 N365 0.985 . S
H372 N369 0.984 . S
H373 N369 0.985 . S
H374 N368 0.984 . S
H375 N368 0.984 . S
H376 N364 0.984 . S
H377 N364 0.985 . S
C378 C379 1.363 . S
C378 C384 1.379 . S
C378 N386 1.356 . S
C379 C378 1.363 . S
C379 C385 1.363 . S
C380 C381 1.363 . S
C380 C385 1.379 . S
C380 N387 1.356 . S
C381 C380 1.363 . S
C381 C384 1.363 . S
N382 C384 1.356 . S
N382 H394 0.984 . S
N382 H395 0.985 . S
N383 C385 1.356 . S
N383 H388 0.984 . S
N383 H389 0.985 . S
C384 C378 1.379 . S
C384 C381 1.363 . S
C384 N382 1.356 . S
C385 C379 1.363 . S
C385 C380 1.379 . S
C385 N383 1.356 . S
N386 C378 1.356 . S
N386 H392 0.984 . S
N386 H393 0.984 . S
N387 C380 1.356 . S
N387 H390 0.984 . S
N387 H391 0.985 . S
H388 N383 0.984 . S
H389 N383 0.985 . S
H390 N387 0.984 . S
H391 N387 0.985 . S
H392 N386 0.984 . S
H393 N386 0.984 . S
H394 N382 0.984 . S
H395 N382 0.985 . S
C396 C397 1.363 . S
C396 C402 1.379 . S
C396 N404 1.356 . S
C397 C396 1.363 . S
C397 C403 1.363 . S
C398 C399 1.363 . S
C398 C403 1.379 . S
C398 N405 1.356 . S
C399 C398 1.363 . S
C399 C402 1.363 . S
N400 C402 1.356 . S
N400 H412 0.984 . S
N400 H413 0.985 . S
N401 C403 1.356 1_554 S
N401 H406 0.984 . S
N401 H407 0.985 . S
C402 C396 1.379 . S
C402 C399 1.363 . S
C402 N400 1.356 . S
C403 C397 1.363 . S
C403 C398 1.379 . S
C403 N401 1.356 1_556 S
N404 C396 1.356 . S
N404 H410 0.984 . S
N404 H411 0.984 . S
N405 C398 1.356 . S
N405 H408 0.984 . S
N405 H409 0.985 . S
H406 N401 0.984 . S
H407 N401 0.985 . S
H408 N405 0.984 . S
H409 N405 0.985 . S
H410 N404 0.984 . S
H411 N404 0.984 . S
H412 N400 0.984 . S
H413 N400 0.985 . S
C414 C415 1.363 . S
C414 C420 1.379 . S
C414 N422 1.356 . S
C415 C414 1.363 . S
C415 C421 1.363 . S
C416 C417 1.363 . S
C416 C421 1.379 . S
C416 N423 1.356 . S
C417 C416 1.363 . S
C417 C420 1.363 . S
N418 C420 1.356 . S
N418 H430 0.984 . S
N418 H431 0.985 . S
N419 C421 1.356 . S
N419 H424 0.984 . S
N419 H425 0.985 . S
C420 C414 1.379 . S
C420 C417 1.363 . S
C420 N418 1.356 . S
C421 C415 1.363 . S
C421 C416 1.379 . S
C421 N419 1.356 . S
N422 C414 1.356 . S
N422 H428 0.984 . S
N422 H429 0.984 . S
N423 C416 1.356 . S
N423 H426 0.984 . S
N423 H427 0.985 . S
H424 N419 0.984 . S
H425 N419 0.985 . S
H426 N423 0.984 . S
H427 N423 0.985 . S
H428 N422 0.984 . S
H429 N422 0.984 . S
H430 N418 0.984 . S
H431 N418 0.985 . S
C432 C433 1.363 . S
C432 C438 1.379 1_565 S
C432 N440 1.356 . S
C433 C432 1.363 . S
C433 C439 1.363 . S
C434 C435 1.363 . S
C434 C439 1.379 1_545 S
C434 N441 1.356 . S
C435 C434 1.363 . S
C435 C438 1.363 . S
N436 C438 1.356 . S
N436 H448 0.984 . S
N436 H449 0.985 . S
N437 C439 1.356 . S
N437 H442 0.984 . S
N437 H443 0.985 . S
C438 C432 1.379 1_545 S
C438 C435 1.363 . S
C438 N436 1.356 . S
C439 C433 1.363 . S
C439 C434 1.379 1_565 S
C439 N437 1.356 . S
N440 C432 1.356 . S
N440 H446 0.984 . S
N440 H447 0.984 . S
N441 C434 1.356 . S
N441 H444 0.984 . S
N441 H445 0.985 . S
H442 N437 0.984 . S
H443 N437 0.985 . S
H444 N441 0.984 . S
H445 N441 0.985 . S
H446 N440 0.984 . S
H447 N440 0.984 . S
H448 N436 0.984 . S
H449 N436 0.985 . S
C450 C451 1.363 . S
C450 C456 1.379 1_655 S
C450 N458 1.356 . S
C451 C450 1.363 . S
C451 C457 1.363 . S
C452 C453 1.363 . S
C452 C457 1.379 1_455 S
C452 N459 1.356 . S
C453 C452 1.363 . S
C453 C456 1.363 . S
N454 C456 1.356 . S
N454 H466 0.984 . S
N454 H467 0.985 . S
N455 C457 1.356 . S
N455 H460 0.984 . S
N455 H461 0.985 . S
C456 C450 1.379 1_455 S
C456 C453 1.363 . S
C456 N454 1.356 . S
C457 C451 1.363 . S
C457 C452 1.379 1_655 S
C457 N455 1.356 . S
N458 C450 1.356 . S
N458 H464 0.984 . S
N458 H465 0.984 . S
N459 C452 1.356 . S
N459 H462 0.984 . S
N459 H463 0.985 . S
H460 N455 0.984 . S
H461 N455 0.985 . S
H462 N459 0.984 . S
H463 N459 0.985 . S
H464 N458 0.984 . S
H465 N458 0.984 . S
H466 N454 0.984 . S
H467 N454 0.985 . S
C468 C469 1.363 . S
C468 C474 1.379 1_565 S
C468 N476 1.356 . S
C469 C468 1.363 . S
C469 C475 1.363 . S
C470 C471 1.363 . S
C470 C475 1.379 1_545 S
C470 N477 1.356 . S
C471 C470 1.363 . S
C471 C474 1.363 . S
N472 C474 1.356 . S
N472 H484 0.984 . S
N472 H485 0.985 . S
N473 C475 1.356 . S
N473 H478 0.984 . S
N473 H479 0.985 . S
C474 C468 1.379 1_545 S
C474 C471 1.363 . S
C474 N472 1.356 . S
C475 C469 1.363 . S
C475 C470 1.379 1_565 S
C475 N473 1.356 . S
N476 C468 1.356 . S
N476 H482 0.984 . S
N476 H483 0.984 . S
N477 C470 1.356 . S
N477 H480 0.984 . S
N477 H481 0.985 . S
H478 N473 0.984 . S
H479 N473 0.985 . S
H480 N477 0.984 . S
H481 N477 0.985 . S
H482 N476 0.984 . S
H483 N476 0.984 . S
H484 N472 0.984 . S
H485 N472 0.985 . S
C486 C487 1.363 . S
C486 C492 1.379 1_655 S
C486 N494 1.356 . S
C487 C486 1.363 . S
C487 C493 1.363 . S
C488 C489 1.363 . S
C488 C493 1.379 1_455 S
C488 N495 1.356 1_554 S
C489 C488 1.363 . S
C489 C492 1.363 . S
N490 C492 1.356 . S
N490 H502 0.984 . S
N490 H503 0.985 . S
N491 C493 1.356 1_556 S
N491 H496 0.984 . S
N491 H497 0.985 . S
C492 C486 1.379 1_455 S
C492 C489 1.363 . S
C492 N490 1.356 . S
C493 C487 1.363 . S
C493 C488 1.379 1_655 S
C493 N491 1.356 1_554 S
N494 C486 1.356 . S
N494 H500 0.984 . S
N494 H501 0.984 . S
N495 C488 1.356 1_556 S
N495 H498 0.984 . S
N495 H499 0.985 . S
H496 N491 0.984 . S
H497 N491 0.985 . S
H498 N495 0.984 . S
H499 N495 0.985 . S
H500 N494 0.984 . S
H501 N494 0.984 . S
H502 N490 0.984 . S
H503 N490 0.985 . S
C504 C505 1.363 . S
C504 C510 1.379 1_556 S
C504 N512 1.356 . S
C505 C504 1.363 . S
C505 C511 1.363 1_556 S
C506 C507 1.363 . S
C506 C511 1.379 . S
C506 N513 1.356 . S
C507 C506 1.363 . S
C507 C510 1.363 . S
N508 C510 1.356 . S
N508 H520 0.984 . S
N508 H521 0.985 . S
N509 C511 1.356 . S
N509 H514 0.984 1_554 S
N509 H515 0.985 . S
C510 C504 1.379 1_554 S
C510 C507 1.363 . S
C510 N508 1.356 . S
C511 C505 1.363 1_554 S
C511 C506 1.379 . S
C511 N509 1.356 . S
N512 C504 1.356 . S
N512 H518 0.984 . S
N512 H519 0.984 . S
N513 C506 1.356 . S
N513 H516 0.984 . S
N513 H517 0.985 . S
H514 N509 0.984 1_556 S
H515 N509 0.985 . S
H516 N513 0.984 . S
H517 N513 0.985 . S
H518 N512 0.984 . S
H519 N512 0.984 . S
H520 N508 0.984 . S
H521 N508 0.985 . S
C522 C523 1.363 . S
C522 C528 1.379 . S
C522 N530 1.356 . S
C523 C522 1.363 . S
C523 C529 1.363 . S
C524 C525 1.363 . S
C524 C529 1.379 . S
C524 N531 1.356 . S
C525 C524 1.363 . S
C525 C528 1.363 . S
N526 C528 1.356 . S
N526 H538 0.984 . S
N526 H539 0.985 . S
N527 C529 1.356 . S
N527 H532 0.984 . S
N527 H533 0.985 . S
C528 C522 1.379 . S
C528 C525 1.363 . S
C528 N526 1.356 . S
C529 C523 1.363 . S
C529 C524 1.379 . S
C529 N527 1.356 . S
N530 C522 1.356 . S
N530 H536 0.984 . S
N530 H537 0.984 . S
N531 C524 1.356 . S
N531 H534 0.984 . S
N531 H535 0.985 . S
H532 N527 0.984 . S
H533 N527 0.985 . S
H534 N531 0.984 . S
H535 N531 0.985 . S
H536 N530 0.984 . S
H537 N530 0.984 . S
H538 N526 0.984 . S
H539 N526 0.985 . S
C540 C541 1.363 . S
C540 C546 1.379 . S
C540 N548 1.356 . S
C541 C540 1.363 . S
C541 C547 1.363 . S
C542 C543 1.363 . S
C542 C547 1.379 . S
C542 N549 1.356 . S
C543 C542 1.363 . S
C543 C546 1.363 . S
N544 C546 1.356 . S
N544 H556 0.984 . S
N544 H557 0.985 . S
N545 C547 1.356 . S
N545 H550 0.984 . S
N545 H551 0.985 . S
C546 C540 1.379 . S
C546 C543 1.363 . S
C546 N544 1.356 . S
C547 C541 1.363 . S
C547 C542 1.379 . S
C547 N545 1.356 . S
N548 C540 1.356 . S
N548 H554 0.984 . S
N548 H555 0.984 . S
N549 C542 1.356 . S
N549 H552 0.984 . S
N549 H553 0.985 . S
H550 N545 0.984 . S
H551 N545 0.985 . S
H552 N549 0.984 . S
H553 N549 0.985 . S
H554 N548 0.984 . S
H555 N548 0.984 . S
H556 N544 0.984 . S
H557 N544 0.985 . S
C558 C559 1.363 . S
C558 C564 1.379 . S
C558 N566 1.356 . S
C559 C558 1.363 . S
C559 C565 1.363 . S
C560 C561 1.363 . S
C560 C565 1.379 . S
C560 N567 1.356 . S
C561 C560 1.363 . S
C561 C564 1.363 . S
N562 C564 1.356 . S
N562 H574 0.984 . S
N562 H575 0.985 . S
N563 C565 1.356 . S
N563 H568 0.984 . S
N563 H569 0.985 . S
C564 C558 1.379 . S
C564 C561 1.363 . S
C564 N562 1.356 . S
C565 C559 1.363 . S
C565 C560 1.379 . S
C565 N563 1.356 . S
N566 C558 1.356 . S
N566 H572 0.984 . S
N566 H573 0.984 . S
N567 C560 1.356 . S
N567 H570 0.984 . S
N567 H571 0.985 . S
H568 N563 0.984 . S
H569 N563 0.985 . S
H570 N567 0.984 . S
H571 N567 0.985 . S
H572 N566 0.984 . S
H573 N566 0.984 . S
H574 N562 0.984 . S
H575 N562 0.985 . S
C289 C2 1.014 . S
C291 C218 1.014 . S
C307 C38 1.014 . S
C309 C254 1.014 . S
C325 C146 1.014 . S
C327 C74 1.014 . S
C343 C182 1.014 . S
C345 C110 1.014 . S
C361 C3 1.526 . S
C363 C183 1.526 . S
C379 C39 1.526 . S
C381 C219 1.526 . S
C397 C255 1.526 1_556 S
C399 C75 1.526 . S
C415 C111 1.526 . S
C417 C147 1.526 . S
C433 C148 1.479 . S
C435 C4 1.479 . S
C451 C40 1.479 . S
C453 C184 1.479 . S
C469 C76 1.479 . S
C471 C220 1.479 . S
C487 C256 1.479 . S
C489 C112 1.479 . S
C505 C230 1.382 . S
C507 C14 1.382 . S
C523 C266 1.382 . S
C525 C50 1.382 . S
C541 C86 1.382 . S
C543 C158 1.382 . S
C559 C122 1.382 . S
C561 C194 1.382 . S
