# Generated by pormake.
# Topology vby, (6)-cn, num edge types: 1
# Building blocks:
#     Node 0, Type 0, BuildingBlock: KUMBOL_clean_sbu_1, # of connection points: 6
#     Node 1, Type 0, BuildingBlock: KUMBOL_clean_sbu_1, # of connection points: 6
#     Node 2, Type 0, BuildingBlock: KUMBOL_clean_sbu_1, # of connection points: 6
#     Node 3, Type 0, BuildingBlock: KUMBOL_clean_sbu_1, # of connection points: 6
#     Node 4, Type 0, BuildingBlock: KUMBOL_clean_sbu_1, # of connection points: 6
#     Node 5, Type 0, BuildingBlock: KUMBOL_clean_sbu_1, # of connection points: 6
#     Node 6, Type 0, BuildingBlock: KUMBOL_clean_sbu_1, # of connection points: 6
#     Node 7, Type 0, BuildingBlock: KUMBOL_clean_sbu_1, # of connection points: 6
#     Edge 8, Type (0, 0), BuildingBlock: ZUJKAS_clean_linker_0, # of connection points: 2
#     Edge 9, Type (0, 0), BuildingBlock: ZUJKAS_clean_linker_0, # of connection points: 2
#     Edge 10, Type (0, 0), BuildingBlock: ZUJKAS_clean_linker_0, # of connection points: 2
#     Edge 11, Type (0, 0), BuildingBlock: ZUJKAS_clean_linker_0, # of connection points: 2
#     Edge 12, Type (0, 0), BuildingBlock: ZUJKAS_clean_linker_0, # of connection points: 2
#     Edge 13, Type (0, 0), BuildingBlock: ZUJKAS_clean_linker_0, # of connection points: 2
#     Edge 14, Type (0, 0), BuildingBlock: ZUJKAS_clean_linker_0, # of connection points: 2
#     Edge 15, Type (0, 0), BuildingBlock: ZUJKAS_clean_linker_0, # of connection points: 2
#     Edge 16, Type (0, 0), BuildingBlock: ZUJKAS_clean_linker_0, # of connection points: 2
#     Edge 17, Type (0, 0), BuildingBlock: ZUJKAS_clean_linker_0, # of connection points: 2
#     Edge 18, Type (0, 0), BuildingBlock: ZUJKAS_clean_linker_0, # of connection points: 2
#     Edge 19, Type (0, 0), BuildingBlock: ZUJKAS_clean_linker_0, # of connection points: 2
#     Edge 20, Type (0, 0), BuildingBlock: ZUJKAS_clean_linker_0, # of connection points: 2
#     Edge 21, Type (0, 0), BuildingBlock: ZUJKAS_clean_linker_0, # of connection points: 2
#     Edge 22, Type (0, 0), BuildingBlock: ZUJKAS_clean_linker_0, # of connection points: 2
#     Edge 23, Type (0, 0), BuildingBlock: ZUJKAS_clean_linker_0, # of connection points: 2
#     Edge 24, Type (0, 0), BuildingBlock: ZUJKAS_clean_linker_0, # of connection points: 2
#     Edge 25, Type (0, 0), BuildingBlock: ZUJKAS_clean_linker_0, # of connection points: 2
#     Edge 26, Type (0, 0), BuildingBlock: ZUJKAS_clean_linker_0, # of connection points: 2
#     Edge 27, Type (0, 0), BuildingBlock: ZUJKAS_clean_linker_0, # of connection points: 2
#     Edge 28, Type (0, 0), BuildingBlock: ZUJKAS_clean_linker_0, # of connection points: 2
#     Edge 29, Type (0, 0), BuildingBlock: ZUJKAS_clean_linker_0, # of connection points: 2
#     Edge 30, Type (0, 0), BuildingBlock: ZUJKAS_clean_linker_0, # of connection points: 2
#     Edge 31, Type (0, 0), BuildingBlock: ZUJKAS_clean_linker_0, # of connection points: 2
# Relax obj value: 0.079
# Max RMSD: 0.151
# Mean RMSD: 0.151
data_MOF--net-vby--node1-KUMBOL_clean_sbu_1--edge1-ZUJKAS_clean_linker_0
_symmetry_space_group_name_H-M    P1
_symmetry_Int_Tables_number       1
_symmetry_cell_setting            triclinic
loop_
_symmetry_equiv_pos_as_xyz
'x, y, z'
_cell_length_a     19.513592
_cell_length_b     115.92644
_cell_length_c     38.548918
_cell_angle_alpha  113.98655
_cell_angle_beta   89.951765
_cell_angle_gamma 90.04468
loop_
_atom_site_label
_atom_site_type_symbol
_atom_site_fract_x
_atom_site_fract_y
_atom_site_fract_z
_atom_type_partial_charge
C0 C 0.24018 0.41329 0.07886 0.0
C1 C 0.31714 0.41409 0.03024 0.0
C2 C 0.25301 0.41094 0.04086 0.0
C3 C 0.36774 0.41963 0.05796 0.0
C4 C 0.29111 0.41878 0.10663 0.0
C5 C 0.35474 0.42199 0.096 0.0
N6 N 0.17908 0.40968 0.0883 0.0
C7 C 0.16459 0.41163 0.12487 0.0
C8 C 0.27696 0.42071 0.14423 0.0
C9 C 0.21339 0.41713 0.15338 0.0
Gd10 Gd 0.08897 0.36334 0.99126 0.0
Gd11 Gd 0.10025 0.40152 0.03891 0.0
N12 N 0.20376 0.40522 0.01425 0.0
C13 C 0.32871 0.41155 0.99199 0.0
C14 C 0.21353 0.40338 0.97735 0.0
C15 C 0.27645 0.40629 0.96553 0.0
H16 H 0.17275 0.40006 0.95704 0.0
H17 H 0.28422 0.40465 0.93609 0.0
H18 H 0.98692 0.36347 0.06147 0.0
H19 H 0.11495 0.40921 0.13224 0.0
H20 H 0.87223 0.35603 0.06938 0.0
H21 H 0.37738 0.4138 0.9827 0.0
H22 H 0.41733 0.42208 0.05023 0.0
H23 H 0.1232 0.34986 0.89875 0.0
H24 H 0.31477 0.42492 0.16638 0.0
H25 H 0.20181 0.41868 0.1824 0.0
H26 H 0.79169 0.33373 0.94161 0.0
H27 H 0.39452 0.4262 0.11695 0.0
H28 H 0.94398 0.33027 0.84009 0.0
H29 H 0.06322 0.33735 0.83855 0.0
N30 N 0.0366 0.35106 0.93316 0.0
C31 C 0.97254 0.34672 0.93479 0.0
C32 C 0.06999 0.34744 0.89933 0.0
C33 C 0.96946 0.33608 0.86639 0.0
C34 C 0.03666 0.34009 0.86538 0.0
C35 C 0.93699 0.33917 0.90143 0.0
H36 H 0.84298 0.3289 0.87886 0.0
N37 N 0.98071 0.35634 0.00153 0.0
C38 C 0.94424 0.34921 0.97006 0.0
C39 C 0.8523 0.34721 0.00925 0.0
C40 C 0.8788 0.34454 0.97305 0.0
C41 C 0.95646 0.35847 0.03679 0.0
C42 C 0.89161 0.35412 0.04126 0.0
O43 O 0.18838 0.38932 0.04315 0.0
O44 O 0.18677 0.37272 0.98553 0.0
O45 O 0.1191 0.35083 0.01853 0.0
O46 O 0.15143 0.34686 0.96131 0.0
O47 O 0.06647 0.39195 0.97772 0.0
O48 O 0.12133 0.37262 0.95251 0.0
O49 O 0.98888 0.37356 0.99291 0.0
O50 O 0.99195 0.3944 0.03824 0.0
O51 O 0.07823 0.41677 0.02123 0.0
O52 O 0.07038 0.41995 0.08049 0.0
O53 O 0.10602 0.37413 0.05461 0.0
O54 O 0.05044 0.39339 0.0765 0.0
C55 C 0.22075 0.38064 0.01469 0.0
C56 C 0.0889 0.38198 0.94859 0.0
C57 C 0.13114 0.32928 0.9756 0.0
C58 C 0.15381 0.30868 0.97607 0.0
C59 C 0.07182 0.3106 0.93159 0.0
C60 C 0.08414 0.32353 0.9459 0.0
C61 C 0.10682 0.30317 0.94637 0.0
C62 C 0.16552 0.32179 0.99104 0.0
C63 C 0.14874 0.34276 0.98802 0.0
C64 C 0.84218 0.33736 0.93991 0.0
C65 C 0.87127 0.33466 0.90418 0.0
H66 H 0.80208 0.34385 0.01279 0.0
C67 C 0.95891 0.38424 0.01503 0.0
C68 C 0.06943 0.38309 0.08044 0.0
C69 C 1.00989 0.43408 0.06106 0.0
C70 C 0.97384 0.45403 0.05889 0.0
C71 C 0.9016 0.4435 0.08893 0.0
C72 C 0.94922 0.43375 0.08009 0.0
C73 C 0.91403 0.45362 0.07894 0.0
C74 C 1.02144 0.44407 0.04993 0.0
C75 C 0.06493 0.42485 0.05565 0.0
H76 H 0.03592 0.30629 0.90849 0.0
H77 H 0.05823 0.3289 0.93286 0.0
H78 H 0.09745 0.29308 0.93455 0.0
H79 H 0.20265 0.32603 0.0136 0.0
H80 H 0.8554 0.44334 0.10428 0.0
H81 H 0.9394 0.42614 0.0889 0.0
H82 H 0.87705 0.46122 0.08768 0.0
H83 H 0.06806 0.44408 0.03466 0.0
C84 C 0.10731 0.66772 0.0799 0.0
C85 C 0.17253 0.67326 0.03508 0.0
C86 C 0.11355 0.6681 0.0444 0.0
C87 C 0.22548 0.67797 0.06181 0.0
C88 C 0.15919 0.67295 0.10733 0.0
C89 C 0.21879 0.67783 0.09784 0.0
N90 N 0.04936 0.66278 0.08817 0.0
C91 C 0.03589 0.66465 0.12485 0.0
C92 C 0.14865 0.67351 0.14389 0.0
C93 C 0.08598 0.66962 0.15292 0.0
Gd94 Gd 0.97051 0.61624 0.99872 0.0
Gd95 Gd 0.96997 0.65435 0.03809 0.0
N96 N 0.06248 0.66309 0.01857 0.0
C97 C 0.17673 0.67341 0.99898 0.0
C98 C 0.06533 0.66349 0.98373 0.0
C99 C 0.12271 0.66857 0.9733 0.0
H100 H 1.02327 0.65988 0.96408 0.0
H101 H 0.12529 0.66875 0.94547 0.0
H102 H 0.91465 0.61134 0.07321 0.0
H103 H 0.98593 0.66271 0.13307 0.0
H104 H 0.81181 0.60251 0.09139 0.0
H105 H 0.22132 0.67727 0.99071 0.0
H106 H 0.27156 0.68185 0.05504 0.0
H107 H 0.94848 0.6104 0.90505 0.0
H108 H 0.18717 0.67748 0.16579 0.0
H109 H 0.0756 0.67071 0.18168 0.0
H110 H 0.66365 0.59088 0.98304 0.0
H111 H 0.2595 0.68174 0.11842 0.0
H112 H 0.74467 0.59694 0.87445 0.0
H113 H 0.85581 0.60374 0.85829 0.0
N114 N 0.88765 0.60958 0.95006 0.0
C115 C 0.82922 0.60475 0.95839 0.0
C116 C 0.89893 0.6085 0.91386 0.0
C117 C 0.78455 0.60035 0.89578 0.0
C118 C 0.84699 0.60427 0.88663 0.0
C119 C 0.77568 0.60022 0.93163 0.0
H120 H 0.67411 0.59194 0.92086 0.0
N121 N 0.87528 0.60849 0.01899 0.0
C122 C 0.82346 0.60394 0.9934 0.0
C123 C 0.75991 0.5984 0.03831 0.0
C124 C 0.7639 0.5989 0.00264 0.0
C125 C 0.87233 0.60789 0.05358 0.0
C126 C 0.81444 0.60288 0.06382 0.0
O127 O 0.06966 0.64411 0.01334 0.0
O128 O 0.07039 0.62593 0.02413 0.0
O129 O 0.99939 0.59959 0.009 0.0
O130 O 1.02086 0.60046 0.95442 0.0
O131 O 0.94062 0.6433 0.97687 0.0
O132 O 1.00613 0.6252 0.95922 0.0
O133 O 0.87537 0.62747 0.02732 0.0
O134 O 0.87527 0.64376 0.00852 0.0
O135 O 0.93832 0.67134 0.02992 0.0
O136 O 0.9075 0.66845 0.08037 0.0
O137 O 1.00738 0.62657 0.05851 0.0
O138 O 0.94485 0.64513 0.07895 0.0
C139 C 0.10233 0.63517 0.01931 0.0
C140 C 0.97828 0.63435 0.95202 0.0
C141 C 0.05591 0.58126 0.96042 0.0
C142 C 0.07609 0.56084 0.96348 0.0
C143 C 0.12864 0.56564 0.91361 0.0
C144 C 0.09794 0.57749 0.92811 0.0
C145 C 0.11787 0.55737 0.93105 0.0
C146 C 0.04476 0.57286 0.97806 0.0
C147 C 1.02421 0.59392 0.97495 0.0
C148 C 0.71002 0.5947 0.97635 0.0
C149 C 0.71587 0.59537 0.941 0.0
H150 H 0.7149 0.59462 0.04645 0.0
C151 C 0.84222 0.63565 0.01802 0.0
C152 C 0.97918 0.63641 0.08561 0.0
C153 C 0.86886 0.68796 0.07785 0.0
C154 C 0.82599 0.70722 0.07366 0.0
C155 C 0.80332 0.70325 0.12987 0.0
C156 C 0.83883 0.69189 0.11401 0.0
C157 C 0.79678 0.71085 0.10992 0.0
C158 C 0.863 0.69577 0.05776 0.0
C159 C 0.90611 0.67579 0.06226 0.0
H160 H 0.1608 0.56282 0.88864 0.0
H161 H 0.10739 0.58374 0.91403 0.0
H162 H 0.14157 0.54813 0.91872 0.0
H163 H 1.01233 0.57567 0.00299 0.0
H164 H 0.78066 0.70618 0.15779 0.0
H165 H 0.84284 0.68619 0.13027 0.0
H166 H 0.76911 0.71967 0.12306 0.0
H167 H 0.88585 0.69289 0.02985 0.0
C168 C 0.21881 0.60114 0.45336 0.0
C169 C 0.29355 0.59945 0.5015 0.0
C170 C 0.2317 0.60355 0.49137 0.0
C171 C 0.34161 0.59286 0.47324 0.0
C172 C 0.26733 0.59465 0.42505 0.0
C173 C 0.32848 0.59044 0.43517 0.0
N174 N 0.1607 0.60582 0.44444 0.0
C175 C 0.14686 0.60411 0.40801 0.0
C176 C 0.25365 0.59284 0.3875 0.0
C177 C 0.19317 0.59759 0.37897 0.0
Gd178 Gd 0.09295 0.65412 0.54202 0.0
Gd179 Gd 0.08551 0.6157 0.49468 0.0
N180 N 0.1851 0.61028 0.51847 0.0
C181 C 0.30558 0.60218 0.53983 0.0
C182 C 0.19527 0.61247 0.5556 0.0
C183 C 0.25601 0.60863 0.56692 0.0
H184 H 0.15647 0.61689 0.57655 0.0
H185 H 0.26423 0.61052 0.5965 0.0
H186 H 1.01687 0.65757 0.46895 0.0
H187 H 0.09964 0.6076 0.40126 0.0
H188 H 0.91413 0.6677 0.45693 0.0
H189 H 0.35262 0.59924 0.54876 0.0
H190 H 0.3894 0.58966 0.48057 0.0
H191 H 0.10382 0.66364 0.63631 0.0
H192 H 0.28966 0.58787 0.36494 0.0
H193 H 0.18216 0.59622 0.35003 0.0
H194 H 0.81493 0.68958 0.5806 0.0
H195 H 0.36642 0.58544 0.4138 0.0
H196 H 0.92979 0.68682 0.68693 0.0
H197 H 0.03607 0.67621 0.6933 0.0
N198 N 0.03359 0.66616 0.59796 0.0
C199 C 0.97694 0.67232 0.59395 0.0
C200 C 0.056 0.66775 0.6331 0.0
C201 C 0.95864 0.6811 0.66178 0.0
C202 C 1.01843 0.67508 0.66548 0.0
C203 C 0.93759 0.67988 0.62574 0.0
H204 H 0.84794 0.69185 0.64467 0.0
N205 N 0.99689 0.66353 0.52777 0.0
C206 C 0.95845 0.67109 0.55784 0.0
C207 C 0.88331 0.67588 0.5157 0.0
C208 C 0.89999 0.67732 0.55256 0.0
C209 C 0.98296 0.66262 0.49211 0.0
C210 C 0.92544 0.66859 0.4854 0.0
O211 O 0.18121 0.626 0.48853 0.0
O212 O 0.18134 0.64243 0.54614 0.0
O213 O 0.14005 0.66694 0.5199 0.0
O214 O 0.15934 0.6692 0.57742 0.0
O215 O 0.05239 0.62562 0.556 0.0
O216 O 0.11808 0.64365 0.57853 0.0
O217 O 0.98581 0.6461 0.53965 0.0
O218 O 0.98258 0.62482 0.49779 0.0
O219 O 0.05433 0.60012 0.51024 0.0
O220 O 0.03824 0.59911 0.45279 0.0
O221 O 0.10925 0.64333 0.47836 0.0
O222 O 0.04349 0.62509 0.45846 0.0
C223 C 0.21448 0.63482 0.51622 0.0
C224 C 0.07685 0.63562 0.58421 0.0
C225 C 0.15398 0.68791 0.56726 0.0
C226 C 0.17436 0.70822 0.56403 0.0
C227 C 0.11115 0.70732 0.617 0.0
C228 C 0.11831 0.69424 0.60161 0.0
C229 C 0.13924 0.71429 0.59843 0.0
C230 C 0.18171 0.695 0.54832 0.0
C231 C 0.16604 0.67413 0.55278 0.0
C232 C 0.86019 0.68475 0.5841 0.0
C233 C 0.87895 0.68603 0.62059 0.0
H234 H 0.83876 0.6805 0.51042 0.0
C235 C 0.95278 0.63557 0.51922 0.0
C236 C 0.07016 0.63466 0.45314 0.0
C237 C 0.99789 0.58116 0.46344 0.0
C238 C 0.97616 0.56114 0.46872 0.0
C239 C 0.91676 0.56613 0.42109 0.0
C240 C 0.95073 0.57766 0.4334 0.0
C241 C 0.92926 0.55792 0.43854 0.0
C242 C 1.01087 0.57283 0.48108 0.0
C243 C 0.03167 0.59359 0.47598 0.0
H244 H 0.08428 0.71207 0.64362 0.0
H245 H 0.09699 0.68915 0.61716 0.0
H246 H 0.13367 0.72448 0.61094 0.0
H247 H 0.20963 0.69031 0.52196 0.0
H248 H 0.88055 0.56353 0.3979 0.0
H249 H 0.93957 0.58391 0.41952 0.0
H250 H 0.90271 0.54894 0.42803 0.0
H251 H 0.04713 0.57544 0.50432 0.0
C252 C 0.10614 0.34968 0.44792 0.0
C253 C 0.18285 0.34535 0.49079 0.0
C254 C 0.12143 0.35046 0.48398 0.0
C255 C 0.23079 0.34014 0.46133 0.0
C256 C 0.15271 0.34387 0.41783 0.0
C257 C 0.21591 0.33946 0.42499 0.0
N258 N 0.04356 0.35364 0.44165 0.0
C259 C 1.02165 0.35063 0.40536 0.0
C260 C 0.13303 0.3421 0.3811 0.0
C261 C 0.06663 0.34525 0.37474 0.0
Gd262 Gd 0.97061 0.40135 0.5345 0.0
Gd263 Gd 0.97401 0.36317 0.49586 0.0
N264 N 0.07485 0.35581 0.51219 0.0
C265 C 0.19339 0.34536 0.52677 0.0
C266 C 0.08277 0.35522 0.5466 0.0
C267 C 0.1426 0.35014 0.55461 0.0
H268 H 0.04299 0.35876 0.56779 0.0
H269 H 0.14951 0.34991 0.58218 0.0
H270 H 0.92103 0.40334 0.45317 0.0
H271 H 0.96898 0.35204 0.3997 0.0
H272 H 0.82485 0.41225 0.431 0.0
H273 H 0.23982 0.34147 0.53307 0.0
H274 H 0.27876 0.33632 0.46613 0.0
H275 H 0.94087 0.40864 0.62708 0.0
H276 H 0.16737 0.33769 0.35723 0.0
H277 H 0.04946 0.34324 0.34617 0.0
H278 H 0.68075 0.43105 0.54056 0.0
H279 H 0.25255 0.33508 0.40227 0.0
H280 H 0.75034 0.42834 0.65611 0.0
H281 H 0.85176 0.4193 0.67434 0.0
N282 N 0.88778 0.41053 0.58145 0.0
C283 C 0.83394 0.41588 0.57109 0.0
C284 C 0.89558 0.41199 0.61818 0.0
C285 C 0.78869 0.42341 0.63493 0.0
C286 C 0.84568 0.41826 0.64531 0.0
C287 C 0.7826 0.42238 0.59759 0.0
H288 H 0.68744 0.43279 0.60618 0.0
N289 N 0.88002 0.40841 0.50855 0.0
C290 C 0.83009 0.41483 0.53377 0.0
C291 C 0.77292 0.4193 0.48499 0.0
C292 C 0.77495 0.42038 0.52249 0.0
C293 C 0.87926 0.40764 0.47229 0.0
C294 C 0.82539 0.41294 0.45985 0.0
O295 O 0.06956 0.37453 0.52226 0.0
O296 O 0.06684 0.39113 0.50462 0.0
O297 O 0.99284 0.4188 0.52792 0.0
O298 O 0.03364 0.41578 0.57658 0.0
O299 O 0.9439 0.37524 0.55657 0.0
O300 O 1.00828 0.39344 0.57546 0.0
O301 O 0.87248 0.39071 0.53561 0.0
O302 O 0.87571 0.37125 0.48461 0.0
O303 O 0.91548 0.35312 0.52301 0.0
O304 O 0.95167 0.34326 0.46546 0.0
O305 O 0.99885 0.3904 0.47331 0.0
O306 O 0.94269 0.37114 0.45307 0.0
C307 C 0.1012 0.3828 0.51269 0.0
C308 C 0.98111 0.38412 0.58205 0.0
C309 C 0.06168 0.43584 0.57314 0.0
C310 C 0.08114 0.45629 0.57008 0.0
C311 C 0.14182 0.45083 0.61642 0.0
C312 C 0.10889 0.43916 0.60309 0.0
C313 C 0.12825 0.45932 0.60009 0.0
C314 C 0.04743 0.44451 0.55681 0.0
C315 C 0.02854 0.4233 0.55907 0.0
C316 C 0.72359 0.42678 0.54882 0.0
C317 C 0.72735 0.42776 0.5862 0.0
H318 H 0.73137 0.42342 0.47525 0.0
C319 C 0.84201 0.38108 0.50858 0.0
C320 C 0.97162 0.38035 0.44648 0.0
C321 C 0.85833 0.33427 0.484 0.0
C322 C 0.80471 0.3146 0.47861 0.0
C323 C 0.74585 0.32866 0.45569 0.0
C324 C 0.80108 0.33705 0.4669 0.0
C325 C 0.74766 0.31748 0.46129 0.0
C326 C 0.85983 0.32313 0.49012 0.0
C327 C 0.91903 0.34237 0.49363 0.0
H328 H 0.17811 0.4533 0.63954 0.0
H329 H 0.12076 0.43271 0.61614 0.0
H330 H 0.15416 0.46837 0.6113 0.0
H331 H 1.01112 0.44205 0.53363 0.0
H332 H 0.70164 0.33079 0.44241 0.0
H333 H 0.79956 0.34558 0.46187 0.0
H334 H 0.70412 0.31115 0.45247 0.0
H335 H 0.9047 0.32095 0.50294 0.0
C336 C 0.72422 0.91161 0.08815 0.0
C337 C 0.80355 0.91865 0.05214 0.0
C338 C 0.73948 0.91365 0.05593 0.0
C339 C 0.85331 0.92105 0.08051 0.0
C340 C 0.77247 0.91489 0.11791 0.0
C341 C 0.83781 0.91917 0.11333 0.0
N342 N 0.66021 0.90757 0.09191 0.0
C343 C 0.63793 0.90907 0.12716 0.0
C344 C 0.7523 0.9145 0.15223 0.0
C345 C 0.68403 0.91197 0.15726 0.0
Gd346 Gd 0.59697 0.8634 0.99915 0.0
Gd347 Gd 0.58865 0.90202 0.03785 0.0
N348 N 0.69088 0.911 0.02853 0.0
C349 C 0.81525 0.92125 0.02018 0.0
C350 C 0.7007 0.91403 0.99818 0.0
C351 C 0.76321 0.9191 0.99336 0.0
H352 H 0.66039 0.91237 0.97756 0.0
H353 H 0.77133 0.92128 0.96892 0.0
H354 H 0.53172 0.8598 0.07452 0.0
H355 H 0.5843 0.90835 0.13271 0.0
H356 H 0.43055 0.85002 0.09005 0.0
H357 H 0.86379 0.9251 0.01627 0.0
H358 H 0.90325 0.9247 0.07783 0.0
H359 H 0.60747 0.85105 0.90314 0.0
H360 H 0.78773 0.91696 0.17579 0.0
H361 H 0.66639 0.9126 0.18461 0.0
H362 H 0.31954 0.82822 0.96987 0.0
H363 H 0.87579 0.92155 0.13566 0.0
H364 H 0.43014 0.82814 0.85897 0.0
H365 H 0.53864 0.8373 0.8486 0.0
N366 N 0.53562 0.85074 0.94448 0.0
C367 C 0.47899 0.845 0.9508 0.0
C368 C 0.55877 0.8476 0.90831 0.0
C369 C 0.45946 0.8344 0.88317 0.0
C370 C 0.52055 0.83958 0.87719 0.0
C371 C 0.43865 0.83687 0.92026 0.0
H372 H 0.34852 0.82491 0.90443 0.0
N373 N 0.50509 0.85392 0.01656 0.0
C374 C 0.46344 0.84658 0.98775 0.0
C375 C 0.39352 0.84198 0.03239 0.0
C376 C 0.40615 0.84047 0.99501 0.0
C377 C 0.4953 0.85484 0.05262 0.0
C378 C 0.43875 0.84908 0.06125 0.0
O379 O 0.68319 0.89142 0.00611 0.0
O380 O 0.68309 0.87648 0.02943 0.0
O381 O 0.6319 0.84838 0.01503 0.0
O382 O 0.67784 0.85064 0.96709 0.0
O383 O 0.56387 0.89204 0.97568 0.0
O384 O 0.60931 0.87152 0.9543 0.0
O385 O 0.49035 0.87202 0.01474 0.0
O386 O 0.48987 0.8918 0.01226 0.0
O387 O 0.55574 0.91792 0.02412 0.0
O388 O 0.53821 0.91811 0.08023 0.0
O389 O 0.61777 0.87584 0.06031 0.0
O390 O 0.54439 0.8925 0.07417 0.0
C391 C 0.71624 0.88293 0.01389 0.0
C392 C 0.58271 0.88116 0.94864 0.0
C393 C 0.67255 0.82979 0.96508 0.0
C394 C 0.69069 0.80865 0.96294 0.0
C395 C 0.65635 0.81125 0.90611 0.0
C396 C 0.65626 0.82433 0.92621 0.0
C397 C 0.67354 0.80344 0.92431 0.0
C398 C 0.68985 0.82185 0.98342 0.0
C399 C 0.67389 0.84368 0.98649 0.0
C400 C 0.36403 0.83292 0.96481 0.0
C401 C 0.3804 0.83108 0.92754 0.0
H402 H 0.34991 0.83747 0.03912 0.0
C403 C 0.45854 0.88164 0.01178 0.0
C404 C 0.57252 0.88368 0.08273 0.0
C405 C 0.4967 0.93633 0.0715 0.0
C406 C 0.47373 0.95659 0.06815 0.0
C407 C 0.41741 0.95118 0.11588 0.0
C408 C 0.45113 0.93962 0.10223 0.0
C409 C 0.42865 0.95962 0.09913 0.0
C410 C 0.50805 0.94485 0.0544 0.0
C411 C 0.5317 0.92401 0.05812 0.0
H412 H 0.64376 0.80715 0.87619 0.0
H413 H 0.64444 0.83012 0.91108 0.0
H414 H 0.67412 0.7933 0.90815 0.0
H415 H 0.70327 0.8259 0.01329 0.0
H416 H 0.3826 0.95364 0.13969 0.0
H417 H 0.4413 0.93322 0.11577 0.0
H418 H 0.40266 0.96865 0.11089 0.0
H419 H 0.54307 0.94237 0.03062 0.0
C420 C 0.57925 0.16928 0.09867 0.0
C421 C 0.66757 0.17309 0.06023 0.0
C422 C 0.6039 0.16787 0.06341 0.0
C423 C 0.70611 0.17975 0.0931 0.0
C424 C 0.61721 0.17612 0.1318 0.0
C425 C 0.68097 0.18127 0.12879 0.0
N426 N 0.51716 0.16427 0.10063 0.0
C427 C 0.48843 0.16631 0.13489 0.0
C428 C 0.58941 0.17774 0.16698 0.0
C429 C 0.52446 0.17289 0.16854 0.0
Gd430 Gd 0.45655 0.11522 0.99317 0.0
Gd431 Gd 0.46085 0.15329 0.04279 0.0
N432 N 0.56596 0.16114 0.03209 0.0
C433 C 0.69049 0.17145 0.0241 0.0
C434 C 0.58675 0.15992 0.99701 0.0
C435 C 0.64963 0.16491 0.99239 0.0
H436 H 0.55487 0.15521 0.9726 0.0
H437 H 0.66631 0.16379 0.96441 0.0
H438 H 0.39168 0.11581 0.07594 0.0
H439 H 0.43702 0.1631 0.13628 0.0
H440 H 0.28428 0.11029 0.09827 0.0
H441 H 0.7392 0.1753 0.02043 0.0
H442 H 0.75525 0.18382 0.09123 0.0
H443 H 0.43561 0.10767 0.90044 0.0
H444 H 0.617 0.18292 0.19311 0.0
H445 H 0.50178 0.17435 0.19564 0.0
H446 H 0.14677 0.09198 0.98609 0.0
H447 H 0.71099 0.18654 0.15392 0.0
H448 H 0.23966 0.0899 0.86862 0.0
H449 H 0.3483 0.09723 0.85123 0.0
N450 N 0.37584 0.1066 0.94509 0.0
C451 C 0.31711 0.10248 0.95534 0.0
C452 C 0.3877 0.10477 0.90835 0.0
C453 C 0.27762 0.09455 0.89034 0.0
C454 C 0.33872 0.09873 0.88042 0.0
C455 C 0.26604 0.09644 0.92816 0.0
H456 H 0.16498 0.088 0.91909 0.0
N457 N 0.35645 0.11092 0.0195 0.0
C458 C 0.30683 0.10482 0.99353 0.0
C459 C 0.23657 0.10332 0.04319 0.0
C460 C 0.24521 0.10101 0.0049 0.0
C461 C 0.34992 0.11242 0.05632 0.0
C462 C 0.28945 0.10892 0.06889 0.0
O463 O 0.5625 0.14348 0.04064 0.0
O464 O 0.56147 0.1233 0.99178 0.0
O465 O 0.48553 0.09978 0.0089 0.0
O466 O 0.48845 0.09727 0.94999 0.0
O467 O 0.4455 0.14352 0.97876 0.0
O468 O 0.50083 0.1241 0.95606 0.0
O469 O 0.36568 0.12673 0.98812 0.0
O470 O 0.36513 0.14305 0.04622 0.0
O471 O 0.4235 0.16656 0.01983 0.0
O472 O 0.40108 0.16956 0.07773 0.0
O473 O 0.49236 0.12459 0.05417 0.0
O474 O 0.42746 0.14261 0.07722 0.0
C475 C 0.59358 0.13338 0.01601 0.0
C476 C 0.4786 0.1342 0.95188 0.0
C477 C 0.54708 0.08186 0.96507 0.0
C478 C 0.5783 0.06183 0.96799 0.0
C479 C 0.63973 0.0693 0.92601 0.0
C480 C 0.59889 0.0801 0.93814 0.0
C481 C 0.62927 0.06019 0.94049 0.0
C482 C 0.53752 0.07279 0.98022 0.0
C483 C 0.49619 0.09201 0.97378 0.0
C484 C 0.19441 0.09495 0.97779 0.0
C485 C 0.20483 0.09265 0.93958 0.0
H486 H 0.18996 0.10053 0.05302 0.0
C487 C 0.33229 0.13532 0.01629 0.0
C488 C 0.46769 0.13446 0.08273 0.0
C489 C 0.41679 0.18777 0.06593 0.0
C490 C 0.39672 0.20856 0.06623 0.0
C491 C 0.47631 0.2062 0.11112 0.0
C492 C 0.46304 0.19329 0.0962 0.0
C493 C 0.44297 0.21384 0.09644 0.0
C494 C 0.38416 0.19548 0.05062 0.0
C495 C 0.39861 0.17428 0.05241 0.0
H496 H 0.67872 0.06785 0.90466 0.0
H497 H 0.60654 0.08686 0.92569 0.0
H498 H 0.66024 0.05171 0.92943 0.0
H499 H 0.49726 0.07418 0.00093 0.0
H500 H 0.51166 0.21034 0.13458 0.0
H501 H 0.4877 0.18773 0.10916 0.0
H502 H 0.45305 0.2239 0.10874 0.0
H503 H 0.34768 0.19141 0.02762 0.0
C504 C 0.72612 0.10217 0.4499 0.0
C505 C 0.80141 0.09984 0.49686 0.0
C506 C 0.73934 0.10409 0.48752 0.0
C507 C 0.84969 0.09368 0.46825 0.0
C508 C 0.77473 0.09606 0.42124 0.0
C509 C 0.83637 0.09179 0.43061 0.0
N510 N 0.66718 0.10682 0.44172 0.0
C511 C 0.65256 0.10538 0.40559 0.0
C512 C 0.76043 0.09463 0.38408 0.0
C513 C 0.69905 0.09929 0.37624 0.0
Gd514 Gd 0.59204 0.15387 0.54117 0.0
Gd515 Gd 0.59151 0.11577 0.49239 0.0
N516 N 0.69256 0.11043 0.51502 0.0
C517 C 0.81324 0.1019 0.53474 0.0
C518 C 0.70233 0.11187 0.55157 0.0
C519 C 0.76321 0.10783 0.56211 0.0
H520 H 0.66294 0.11575 0.57257 0.0
H521 H 0.77107 0.10913 0.59125 0.0
H522 H 0.51527 0.15666 0.46681 0.0
H523 H 0.60437 0.10865 0.39919 0.0
H524 H 0.40638 0.16442 0.45243 0.0
H525 H 0.86033 0.09878 0.54304 0.0
H526 H 0.89772 0.09038 0.47498 0.0
H527 H 0.60139 0.16469 0.63552 0.0
H528 H 0.79649 0.08996 0.36127 0.0
H529 H 0.68736 0.09813 0.34756 0.0
H530 H 0.2954 0.18391 0.5737 0.0
H531 H 0.87441 0.08709 0.40896 0.0
H532 H 0.41558 0.18441 0.68282 0.0
H533 H 0.52864 0.17627 0.69143 0.0
N534 N 0.52821 0.16538 0.59587 0.0
C535 C 0.46763 0.1702 0.5906 0.0
C536 C 0.55104 0.16774 0.63151 0.0
C537 C 0.44683 0.17913 0.65822 0.0
C538 C 0.51048 0.17451 0.66319 0.0
C539 C 0.42499 0.17713 0.62162 0.0
H540 H 0.32888 0.18723 0.63863 0.0
N541 N 0.4915 0.16165 0.52482 0.0
C542 C 0.44889 0.16836 0.55401 0.0
C543 C 0.3707 0.17161 0.5103 0.0
C544 C 0.38684 0.17336 0.54747 0.0
C545 C 0.47821 0.16069 0.48905 0.0
C546 C 0.41711 0.1654 0.48105 0.0
O547 O 0.68591 0.12677 0.48858 0.0
O548 O 0.68573 0.14344 0.54609 0.0
O549 O 0.63671 0.16674 0.51872 0.0
O550 O 0.65009 0.17019 0.57771 0.0
O551 O 0.56087 0.12526 0.55429 0.0
O552 O 0.62257 0.14387 0.57832 0.0
O553 O 0.49056 0.14437 0.54237 0.0
O554 O 0.48868 0.12464 0.49182 0.0
O555 O 0.55695 0.10071 0.50928 0.0
O556 O 0.55709 0.09797 0.44997 0.0
O557 O 0.61028 0.14348 0.47741 0.0
O558 O 0.54645 0.12505 0.45677 0.0
C559 C 0.71892 0.13542 0.51681 0.0
C560 C 0.5862 0.13504 0.58305 0.0
C561 C 0.64119 0.18811 0.56356 0.0
C562 C 0.6599 0.20821 0.55869 0.0
C563 C 0.57868 0.20687 0.60454 0.0
C564 C 0.5932 0.19406 0.59265 0.0
C565 C 0.61177 0.21392 0.58767 0.0
C566 C 0.67474 0.19528 0.5466 0.0
C567 C 0.65809 0.17463 0.55196 0.0
C568 C 0.34346 0.18004 0.57819 0.0
C569 C 0.36251 0.18194 0.61517 0.0
H570 H 0.32351 0.1753 0.50406 0.0
C571 C 0.45778 0.13461 0.51727 0.0
C572 C 0.57336 0.1346 0.45144 0.0
C573 C 0.5022 0.08182 0.46338 0.0
C574 C 0.47714 0.06146 0.46566 0.0
C575 C 0.41702 0.06788 0.42111 0.0
C576 C 0.4533 0.07923 0.43448 0.0
C577 C 0.42885 0.05904 0.43646 0.0
C578 C 0.51398 0.07289 0.4789 0.0
C579 C 0.54757 0.09289 0.47405 0.0
H580 H 0.54188 0.21135 0.62704 0.0
H581 H 0.56746 0.18891 0.60668 0.0
H582 H 0.59999 0.22387 0.5973 0.0
H583 H 0.71204 0.19085 0.52425 0.0
H584 H 0.38026 0.06583 0.39837 0.0
H585 H 0.44427 0.08583 0.42158 0.0
H586 H 0.40101 0.0502 0.42498 0.0
H587 H 0.55244 0.07478 0.50083 0.0
C588 C 0.58126 0.84791 0.44582 0.0
C589 C 0.65675 0.84221 0.48656 0.0
C590 C 0.59688 0.84811 0.48131 0.0
C591 C 0.70162 0.83635 0.45592 0.0
C592 C 0.62475 0.84147 0.41462 0.0
C593 C 0.68563 0.83597 0.42006 0.0
N594 N 0.52176 0.85327 0.44126 0.0
C595 C 0.49887 0.85101 0.40553 0.0
C596 C 0.60455 0.84033 0.37855 0.0
C597 C 0.54065 0.84487 0.37389 0.0
Gd598 Gd 0.46397 0.90154 0.53408 0.0
Gd599 Gd 0.45702 0.86343 0.49718 0.0
N600 N 0.55322 0.85401 0.51075 0.0
C601 C 0.6694 0.84226 0.5224 0.0
C602 C 0.56394 0.85375 0.54541 0.0
C603 C 0.62244 0.84796 0.55185 0.0
H604 H 0.52746 0.8581 0.56802 0.0
H605 H 0.63138 0.84792 0.5795 0.0
H606 H 0.41035 0.90612 0.4587 0.0
H607 H 0.44774 0.85365 0.40092 0.0
H608 H 0.30913 0.9151 0.43975 0.0
H609 H 0.71485 0.83783 0.52752 0.0
H610 H 0.74822 0.83187 0.45949 0.0
H611 H 0.43916 0.90758 0.62782 0.0
H612 H 0.63647 0.83544 0.35389 0.0
H613 H 0.5229 0.84344 0.34583 0.0
H614 H 0.15967 0.92769 0.54792 0.0
H615 H 0.71989 0.83111 0.39647 0.0
H616 H 0.2367 0.92185 0.65749 0.0
H617 H 0.3461 0.91468 0.6742 0.0
N618 N 0.38048 0.90862 0.5825 0.0
C619 C 0.32309 0.91364 0.57388 0.0
C620 C 0.39043 0.90966 0.61875 0.0
C621 C 0.27682 0.91828 0.63634 0.0
C622 C 0.33824 0.91414 0.64578 0.0
C623 C 0.26924 0.91837 0.60038 0.0
H624 H 0.16825 0.92688 0.61049 0.0
N625 N 0.3703 0.9095 0.51322 0.0
C626 C 0.31849 0.91435 0.53868 0.0
C627 C 0.25662 0.91971 0.49297 0.0
C628 C 0.25971 0.91944 0.52895 0.0
C629 C 0.36813 0.90984 0.47827 0.0
C630 C 0.31113 0.91492 0.46758 0.0
O631 O 0.56029 0.87286 0.51873 0.0
O632 O 0.56235 0.89124 0.50866 0.0
O633 O 0.496 0.91767 0.52178 0.0
O634 O 0.51472 0.91749 0.57749 0.0
O635 O 0.43499 0.87521 0.55889 0.0
O636 O 0.50079 0.89316 0.57495 0.0
O637 O 0.3671 0.89076 0.50663 0.0
O638 O 0.36712 0.87529 0.5284 0.0
O639 O 0.42569 0.84809 0.51251 0.0
O640 O 0.38315 0.84948 0.46268 0.0
O641 O 0.49949 0.89052 0.47417 0.0
O642 O 0.43247 0.87251 0.45595 0.0
C643 C 0.59347 0.88185 0.51307 0.0
C644 C 0.47522 0.88392 0.58272 0.0
C645 C 0.55359 0.9361 0.56928 0.0
C646 C 0.57496 0.95631 0.56514 0.0
C647 C 0.63201 0.95127 0.61333 0.0
C648 C 0.59897 0.93963 0.60012 0.0
C649 C 0.62023 0.95955 0.59605 0.0
C650 C 0.54129 0.94451 0.55184 0.0
C651 C 0.52021 0.92361 0.55583 0.0
C652 C 0.20552 0.92384 0.555 0.0
C653 C 0.21026 0.92331 0.59057 0.0
H654 H 0.21224 0.92354 0.48445 0.0
C655 C 0.3338 0.88275 0.51652 0.0
C656 C 0.47046 0.88055 0.44797 0.0
C657 C 0.39595 0.82895 0.46164 0.0
C658 C 0.37623 0.80762 0.45732 0.0
C659 C 0.42984 0.81077 0.40501 0.0
C660 C 0.42547 0.82383 0.42524 0.0
C661 C 0.40486 0.8027 0.42079 0.0
C662 C 0.37219 0.82078 0.47785 0.0
C663 C 0.38775 0.84272 0.48257 0.0
H664 H 0.66688 0.9539 0.63713 0.0
H665 H 0.60937 0.93334 0.61394 0.0
H666 H 0.64597 0.96861 0.60727 0.0
H667 H 0.50624 0.94189 0.52806 0.0
H668 H 0.45219 0.80689 0.37688 0.0
H669 H 0.44443 0.82987 0.41219 0.0
H670 H 0.40818 0.79258 0.40458 0.0
H671 H 0.34949 0.82462 0.50596 0.0
H672 H 0.30671 0.37144 0.95323 0.0
H673 H 0.43252 0.37225 0.95337 0.0
H674 H 0.43185 0.39087 0.07555 0.0
H675 H 0.30651 0.38994 0.0757 0.0
H676 H 0.51958 0.39619 0.99197 0.0
H677 H 0.56189 0.3585 0.04433 0.0
H678 H 0.48446 0.35942 0.01987 0.0
H679 H 0.49801 0.37029 0.06815 0.0
C680 C 0.33344 0.37559 0.98013 0.0
C681 C 0.29673 0.38062 0.01447 0.0
C682 C 0.40519 0.37612 0.98014 0.0
C683 C 0.44138 0.38155 0.01448 0.0
C684 C 0.40489 0.38654 0.04877 0.0
H685 H 0.87198 0.40067 0.06854 0.0
H686 H 0.74612 0.40028 0.06846 0.0
C687 C 0.33329 0.38605 0.04878 0.0
C688 C 0.51738 0.38201 0.01458 0.0
H689 H 0.65984 0.36933 0.03714 0.0
C690 C 0.55031 0.39033 0.00182 0.0
C691 C 0.55717 0.37432 0.02739 0.0
C692 C 0.52399 0.36505 0.04056 0.0
C693 C 0.62221 0.39124 0.00194 0.0
C694 C 0.6619 0.38363 0.015 0.0
C695 C 0.62906 0.37522 0.02743 0.0
C696 C 0.73783 0.38404 0.0149 0.0
C697 C 0.6558 0.40026 0.98793 0.0
C698 C 0.7745 0.37512 0.98462 0.0
C699 C 0.8461 0.37544 0.98426 0.0
C700 C 0.88271 0.38452 0.01458 0.0
C701 C 0.84559 0.39354 0.04474 0.0
C702 C 0.77373 0.3933 0.04486 0.0
H703 H 0.61789 0.40521 0.97736 0.0
H704 H 0.68568 0.40741 0.01133 0.0
H705 H 0.69228 0.39505 0.96469 0.0
H706 H 0.74765 0.36795 0.96112 0.0
H707 H 0.8727 0.36858 0.96005 0.0
H708 H 0.18935 0.6237 0.05112 0.0
H709 H 0.31491 0.62405 0.05124 0.0
H710 H 0.31258 0.64663 0.98576 0.0
H711 H 0.1874 0.64617 0.98516 0.0
H712 H 0.4064 0.61555 0.9926 0.0
H713 H 0.43755 0.66723 0.07265 0.0
H714 H 0.35659 0.65934 0.06958 0.0
H715 H 0.38546 0.66304 0.03095 0.0
C716 C 0.21562 0.62876 0.0368 0.0
C717 C 0.17835 0.63517 0.01889 0.0
C718 C 0.2874 0.62897 0.03695 0.0
C719 C 0.32335 0.63561 0.01929 0.0
C720 C 0.28617 0.64176 0.0006 0.0
H721 H 0.75557 0.64595 0.9825 0.0
H722 H 0.62994 0.64576 0.98259 0.0
C723 C 0.21449 0.64153 0.00039 0.0
C724 C 0.39967 0.63582 0.01957 0.0
H725 H 0.53833 0.65558 0.04492 0.0
C726 C 0.43522 0.6243 0.00425 0.0
C727 C 0.43737 0.64725 0.0347 0.0
C728 C 0.4024 0.65991 0.05323 0.0
C729 C 0.50725 0.62389 0.00305 0.0
C730 C 0.54489 0.63531 0.01805 0.0
C731 C 0.50942 0.64683 0.03334 0.0
C732 C 0.62113 0.63548 0.01832 0.0
C733 C 0.54251 0.61125 0.98495 0.0
C734 C 0.65798 0.63001 0.03902 0.0
C735 C 0.72968 0.63023 0.03935 0.0
C736 C 0.76614 0.6358 0.01866 0.0
C737 C 0.7291 0.6415 0.99856 0.0
C738 C 0.65731 0.64138 0.9985 0.0
H739 H 0.50699 0.60373 0.9668 0.0
H740 H 0.58663 0.61174 0.96739 0.0
H741 H 0.56223 0.60852 0.00753 0.0
H742 H 0.63126 0.62567 0.05529 0.0
H743 H 0.75655 0.62613 0.05615 0.0
H744 H 0.86555 0.61725 0.47294 0.0
H745 H 0.74054 0.61751 0.47269 0.0
H746 H 0.74122 0.65438 0.5651 0.0
H747 H 0.86627 0.65409 0.56631 0.0
H748 H 0.64893 0.61994 0.53195 0.0
H749 H 0.61807 0.65901 0.48474 0.0
H750 H 0.69803 0.65069 0.4803 0.0
H751 H 0.67231 0.66255 0.52546 0.0
C752 C 0.83941 0.62546 0.49326 0.0
C753 C 0.87654 0.63579 0.51921 0.0
C754 C 0.76777 0.62557 0.49301 0.0
C755 C 0.73156 0.63604 0.51841 0.0
C756 C 0.76815 0.64631 0.54465 0.0
H757 H 0.29989 0.64874 0.57445 0.0
H758 H 0.42533 0.64894 0.57453 0.0
C759 C 0.83986 0.64616 0.54516 0.0
C760 C 0.65548 0.63607 0.51782 0.0
H761 H 0.51685 0.65145 0.5027 0.0
C762 C 0.62008 0.6268 0.52545 0.0
C763 C 0.61794 0.64501 0.50916 0.0
C764 C 0.65332 0.65482 0.49911 0.0
C765 C 0.5481 0.62636 0.52517 0.0
C766 C 0.51083 0.63536 0.51691 0.0
C767 C 0.54594 0.6446 0.50913 0.0
C768 C 0.43506 0.63532 0.51644 0.0
C769 C 0.51183 0.61636 0.53393 0.0
C770 C 0.39933 0.62767 0.48356 0.0
C771 C 0.32763 0.62764 0.48322 0.0
C772 C 0.29048 0.63511 0.51595 0.0
C773 C 0.32676 0.64283 0.54876 0.0
C774 C 0.39842 0.64295 0.54894 0.0
H775 H 0.54816 0.61025 0.54093 0.0
H776 H 0.4763 0.62089 0.55823 0.0
H777 H 0.48048 0.61035 0.50912 0.0
H778 H 0.42696 0.62175 0.45816 0.0
H779 H 0.30143 0.62181 0.45727 0.0
H780 H 0.75685 0.3665 0.53004 0.0
H781 H 0.63059 0.36645 0.52963 0.0
H782 H 0.63181 0.39496 0.48453 0.0
H783 H 0.75707 0.39426 0.48252 0.0
H784 H 0.54194 0.38628 0.56798 0.0
H785 H 0.50092 0.36943 0.41279 0.0
H786 H 0.58292 0.3683 0.43284 0.0
H787 H 0.55527 0.38305 0.43243 0.0
C788 C 0.72979 0.37267 0.51984 0.0
C789 C 0.76636 0.38071 0.50737 0.0
C790 C 0.65785 0.37267 0.5197 0.0
C791 C 0.62141 0.38065 0.50682 0.0
C792 C 0.65836 0.38859 0.4941 0.0
H793 H 0.18809 0.39454 0.4809 0.0
H794 H 0.31378 0.39452 0.48141 0.0
C795 C 0.73004 0.38845 0.49383 0.0
C796 C 0.545 0.38094 0.50765 0.0
H797 H 0.40318 0.37707 0.452 0.0
C798 C 0.51151 0.38421 0.5426 0.0
C799 C 0.50524 0.37836 0.4746 0.0
C800 C 0.5378 0.37448 0.43598 0.0
C801 C 0.43969 0.38524 0.54564 0.0
C802 C 0.39963 0.38252 0.51248 0.0
C803 C 0.43335 0.3792 0.47748 0.0
C804 C 0.32296 0.38289 0.51322 0.0
C805 C 0.40818 0.38967 0.58471 0.0
C806 C 0.28561 0.3764 0.53084 0.0
C807 C 0.21408 0.37686 0.53185 0.0
C808 C 0.17745 0.38315 0.51337 0.0
C809 C 0.21456 0.38954 0.49531 0.0
C810 C 0.28653 0.38945 0.49537 0.0
H811 H 0.44482 0.39548 0.60704 0.0
H812 H 0.36119 0.39534 0.58712 0.0
H813 H 0.39472 0.38134 0.59061 0.0
H814 H 0.3116 0.37092 0.54382 0.0
H815 H 0.18751 0.37227 0.54729 0.0
H816 H 0.80208 0.89299 0.97696 0.0
H817 H 0.9277 0.89296 0.97646 0.0
H818 H 0.92878 0.87097 0.04364 0.0
H819 H 0.8034 0.87131 0.04529 0.0
H820 H 1.02058 0.90184 0.04169 0.0
H821 H 0.05231 0.85078 0.9506 0.0
H822 H 0.97278 0.85907 0.95331 0.0
H823 H 0.99655 0.85445 0.99084 0.0
C824 C 0.82901 0.88827 0.99196 0.0
C825 C 0.79247 0.88233 0.01163 0.0
C826 C 0.90088 0.88819 0.99147 0.0
C827 C 0.93778 0.88188 0.00976 0.0
C828 C 0.90148 0.87578 0.02895 0.0
H829 H 0.36952 0.86747 0.03365 0.0
H830 H 0.24434 0.86776 0.03314 0.0
C831 C 0.82968 0.87599 0.02987 0.0
C832 C 1.01417 0.88178 0.0092 0.0
H833 H 0.15283 0.86222 0.97821 0.0
C834 C 0.04962 0.8932 0.02766 0.0
C835 C 0.05198 0.87049 0.99114 0.0
C836 C 1.01671 0.85799 0.97005 0.0
C837 C 0.12176 0.8936 0.02929 0.0
C838 C 0.15983 0.8823 0.01088 0.0
C839 C 0.12409 0.87089 0.99231 0.0
C840 C 0.23652 0.88206 0.01068 0.0
C841 C 0.15614 0.90609 0.05183 0.0
C842 C 0.27455 0.88979 0.99752 0.0
C843 C 0.34639 0.88961 0.99777 0.0
C844 C 0.38215 0.88152 0.0105 0.0
C845 C 0.34399 0.87362 0.02297 0.0
C846 C 0.27215 0.87386 0.02296 0.0
H847 H 0.12101 0.91271 0.07347 0.0
H848 H 0.20276 0.90484 0.06644 0.0
H849 H 0.1713 0.91053 0.03234 0.0
H850 H 0.24873 0.89593 0.98681 0.0
H851 H 0.37391 0.89577 0.98771 0.0
H852 H 0.24709 0.12434 0.95532 0.0
H853 H 0.12177 0.12386 0.95525 0.0
H854 H 0.12045 0.14591 0.07626 0.0
H855 H 0.24576 0.14628 0.07664 0.0
H856 H 0.03163 0.11466 0.99374 0.0
H857 H 0.9944 0.16615 0.03802 0.0
H858 H 0.07623 0.15856 0.02233 0.0
H859 H 0.04666 0.16214 0.06979 0.0
C860 C 0.22015 0.12902 0.98196 0.0
C861 C 0.2564 0.13532 0.01599 0.0
C862 C 0.14851 0.12879 0.98184 0.0
C863 C 0.1117 0.13504 0.01563 0.0
C864 C 0.14775 0.14126 0.04971 0.0
H865 H 0.68023 0.14688 0.07398 0.0
H866 H 0.80536 0.14705 0.07306 0.0
C867 C 0.2194 0.14145 0.04988 0.0
C868 C 0.03562 0.13492 0.01525 0.0
H869 H 0.89504 0.15408 0.03558 0.0
C870 C 1.00163 0.12326 0.00273 0.0
C871 C 0.99669 0.14617 0.02715 0.0
C872 C 0.03024 0.15896 0.03977 0.0
C873 C 0.92974 0.12254 0.00259 0.0
C874 C 0.8906 0.13379 0.01425 0.0
C875 C 0.9248 0.14545 0.02664 0.0
C876 C 0.81426 0.13373 0.01436 0.0
C877 C 0.89684 0.10972 0.99108 0.0
C878 C 0.77715 0.1264 0.98149 0.0
C879 C 0.70548 0.12615 0.98213 0.0
C880 C 0.66942 0.13348 0.01538 0.0
C881 C 0.7065 0.14112 0.0479 0.0
C882 C 0.77812 0.14122 0.04741 0.0
H883 H 0.93255 0.10285 0.99479 0.0
H884 H 0.84977 0.11025 0.00785 0.0
H885 H 0.88283 0.106 0.96058 0.0
H886 H 0.80353 0.12092 0.95522 0.0
H887 H 0.6783 0.12037 0.95641 0.0
H888 H 0.37192 0.14872 0.57529 0.0
H889 H 0.24663 0.14881 0.57508 0.0
H890 H 0.24689 0.12171 0.45837 0.0
H891 H 0.37194 0.12132 0.45875 0.0
H892 H 0.1551 0.15511 0.53596 0.0
H893 H 0.12088 0.10424 0.50212 0.0
H894 H 0.20324 0.11188 0.51425 0.0
H895 H 0.17015 0.10682 0.4667 0.0
C896 C 0.34529 0.14277 0.5496 0.0
C897 C 0.38191 0.1349 0.51717 0.0
C898 C 0.27359 0.14281 0.54953 0.0
C899 C 0.23704 0.135 0.51704 0.0
C900 C 0.27366 0.12746 0.48425 0.0
H901 H 0.80559 0.12371 0.45681 0.0
H902 H 0.9309 0.12356 0.45749 0.0
C903 C 0.34528 0.12731 0.48443 0.0
C904 C 0.16074 0.13491 0.51726 0.0
H905 H 1.021 0.1155 0.49864 0.0
C906 C 0.12585 0.14645 0.52805 0.0
C907 C 0.12234 0.12361 0.50694 0.0
C908 C 0.15608 0.11097 0.49723 0.0
C909 C 0.05391 0.14698 0.5281 0.0
C910 C 1.01569 0.13568 0.51743 0.0
C911 C 0.05042 0.12415 0.50665 0.0
C912 C 0.93959 0.1356 0.51735 0.0
C913 C 1.01958 0.15963 0.53881 0.0
C914 C 0.90275 0.1422 0.55092 0.0
C915 C 0.8311 0.14219 0.55068 0.0
C916 C 0.79485 0.13549 0.5169 0.0
C917 C 0.83188 0.12881 0.48339 0.0
C918 C 0.90355 0.12878 0.48369 0.0
H919 H 0.05512 0.16672 0.53615 0.0
H920 H 0.97391 0.15882 0.5208 0.0
H921 H 1.00253 0.16321 0.56883 0.0
H922 H 0.92944 0.14729 0.57741 0.0
H923 H 0.80418 0.14734 0.57707 0.0
H924 H 0.68002 0.8941 0.48336 0.0
H925 H 0.80542 0.89386 0.48276 0.0
H926 H 0.80485 0.86934 0.54211 0.0
H927 H 0.67974 0.86965 0.54303 0.0
H928 H 0.89651 0.90162 0.54036 0.0
H929 H 0.93175 0.85036 0.45509 0.0
H930 H 0.84981 0.85803 0.45953 0.0
H931 H 0.88029 0.85371 0.49665 0.0
C932 C 0.70656 0.8886 0.49614 0.0
C933 C 0.66964 0.88165 0.51253 0.0
C934 C 0.77833 0.88846 0.49574 0.0
C935 C 0.81485 0.88135 0.51162 0.0
C936 C 0.77809 0.87459 0.5286 0.0
H937 H 0.24653 0.87194 0.5504 0.0
H938 H 0.12096 0.87178 0.54909 0.0
C939 C 0.70635 0.87473 0.52901 0.0
C940 C 0.89126 0.88136 0.51148 0.0
H941 H 0.03154 0.86203 0.48485 0.0
C942 C 0.92598 0.89296 0.52799 0.0
C943 C 0.92992 0.87007 0.49534 0.0
C944 C 0.89611 0.85735 0.47532 0.0
C945 C 0.99799 0.89357 0.52946 0.0
C946 C 0.03649 0.88227 0.51366 0.0
C947 C 1.00193 0.87067 0.49709 0.0
C948 C 0.11272 0.8823 0.51404 0.0
C949 C 0.03238 0.90626 0.54865 0.0
C950 C 0.14988 0.88803 0.49411 0.0
C951 C 0.2216 0.888 0.49444 0.0
C952 C 0.25773 0.88238 0.51509 0.0
C953 C 0.22037 0.87643 0.53443 0.0
C954 C 0.14859 0.87636 0.53378 0.0
H955 H 0.99615 0.91363 0.56684 0.0
H956 H 0.07609 0.90573 0.56637 0.0
H957 H 0.05269 0.90926 0.5267 0.0
H958 H 0.1234 0.89243 0.47796 0.0
H959 H 0.24872 0.89228 0.47821 0.0
H960 H 0.17247 0.54648 0.97835 0.0
H961 H 0.15373 0.52892 0.99682 0.0
H962 H 0.93699 0.53684 0.00721 0.0
H963 H 0.95521 0.55428 0.98751 0.0
H964 H 0.09652 0.52724 0.06031 0.0
H965 H 0.94471 0.4999 0.93087 0.0
H966 H 0.99349 0.51373 0.93598 0.0
H967 H 0.91205 0.51536 0.95931 0.0
C968 C 0.12077 0.54452 0.98467 0.0
C969 C 0.06516 0.55163 0.98082 0.0
C970 C 0.11021 0.53451 0.99537 0.0
C971 C 0.04384 0.53138 0.00251 0.0
C972 C 0.9885 0.53892 0.00095 0.0
H973 H 0.8793 0.4683 0.04076 0.0
H974 H 0.89875 0.48713 0.02931 0.0
C975 C 0.99904 0.54897 0.99016 0.0
C976 C 0.03309 0.51999 0.01041 0.0
H977 H 0.9573 0.49094 0.97548 0.0
C978 C 0.06591 0.5193 0.04188 0.0
C979 C 0.99366 0.50962 0.9861 0.0
C980 C 0.95938 0.50958 0.95096 0.0
C981 C 0.05906 0.50864 0.05031 0.0
C982 C 1.01973 0.49821 0.0259 0.0
C983 C 0.98733 0.49891 0.99425 0.0
C984 C 1.00927 0.48665 0.03316 0.0
C985 C 0.09259 0.50889 0.08587 0.0
C986 C 0.06488 0.47986 0.03858 0.0
C987 C 0.0538 0.46928 0.04672 0.0
C988 C 0.98676 0.46498 0.04849 0.0
C989 C 0.93154 0.47147 0.04107 0.0
C990 C 0.94262 0.48221 0.03394 0.0
H991 H 0.1023 0.5187 0.10676 0.0
H992 H 0.06052 0.50404 0.09968 0.0
H993 H 0.14283 0.50401 0.0784 0.0
H994 H 0.11698 0.48278 0.03676 0.0
H995 H 0.09798 0.46467 0.05235 0.0
H996 H 0.95724 0.46449 0.55479 0.0
H997 H 0.93752 0.48209 0.5359 0.0
H998 H 0.15582 0.48708 0.53099 0.0
H999 H 0.17565 0.46944 0.54885 0.0
H1000 H 0.98032 0.50684 0.57701 0.0
H1001 H 0.09278 0.4884 0.43258 0.0
H1002 H 0.07132 0.47829 0.45637 0.0
H1003 H 0.14983 0.48721 0.46745 0.0
C1004 C 1.00088 0.46916 0.54873 0.0
C1005 C 0.06801 0.46564 0.55348 0.0
C1006 C 0.9896 0.47925 0.53821 0.0
C1007 C 0.04523 0.48584 0.53174 0.0
C1008 C 0.11211 0.48202 0.53516 0.0
H1009 H 0.09912 0.55269 0.48408 0.0
H1010 H 0.11695 0.53504 0.50298 0.0
C1011 C 0.12336 0.472 0.54571 0.0
C1012 C 0.03407 0.49729 0.52419 0.0
H1013 H 0.07241 0.51058 0.46204 0.0
C1014 C 0.99989 0.50763 0.55171 0.0
C1015 C 0.06025 0.49836 0.49137 0.0
C1016 C 0.09503 0.48743 0.46008 0.0
C1017 C 0.9924 0.51908 0.54767 0.0
C1018 C 1.01888 0.52016 0.51492 0.0
C1019 C 0.05279 0.5098 0.48733 0.0
C1020 C 1.00885 0.53169 0.50766 0.0
C1021 C 0.9575 0.52999 0.57895 0.0
C1022 C 0.9424 0.53578 0.50466 0.0
C1023 C 0.93225 0.54586 0.49426 0.0
C1024 C 0.98829 0.55199 0.4861 0.0
C1025 C 0.05502 0.54822 0.49052 0.0
C1026 C 0.06518 0.53809 0.50099 0.0
H1027 H 0.9595 0.529 0.60641 0.0
H1028 H 0.98129 0.53913 0.58279 0.0
H1029 H 0.90277 0.53022 0.57148 0.0
H1030 H 0.89813 0.53087 0.50894 0.0
H1031 H 0.88026 0.5486 0.4913 0.0
H1032 H 0.37722 0.97067 0.05207 0.0
H1033 H 0.39581 0.98839 0.03436 0.0
H1034 H 0.61361 0.98162 0.02887 0.0
H1035 H 0.59548 0.9639 0.04724 0.0
H1036 H 0.47549 1.00993 0.07741 0.0
H1037 H 0.56954 0.98555 0.9291 0.0
H1038 H 0.52359 0.97743 0.95319 0.0
H1039 H 0.61245 0.98134 0.96356 0.0
C1040 C 0.42912 0.97288 0.04685 0.0
C1041 C 0.48497 0.96597 0.05149 0.0
C1042 C 0.43957 0.98299 0.03666 0.0
C1043 C 0.50597 0.98631 0.03035 0.0
C1044 C 0.56183 0.97911 0.03325 0.0
H1045 H 0.67425 0.04737 0.98352 0.0
H1046 H 0.65493 0.02957 0.00072 0.0
C1047 C 0.55141 0.96897 0.04362 0.0
C1048 C 0.51651 0.99775 0.02286 0.0
H1049 H 0.57441 1.00788 0.95648 0.0
C1050 C 0.49701 1.0095 0.05096 0.0
C1051 C 0.54428 0.99712 0.98829 0.0
C1052 C 0.56323 0.98469 0.95659 0.0
C1053 C 0.50578 0.0207 0.04563 0.0
C1054 C 0.53383 0.02006 0.0111 0.0
C1055 C 0.55307 1.00831 0.98298 0.0
C1056 C 0.54467 0.03147 0.00354 0.0
C1057 C 0.48644 0.03313 0.07721 0.0
C1058 C 0.48892 0.03851 -0.00028 0.0
C1059 C 0.49965 0.04861 0.98925 0.0
C1060 C 0.56644 0.05184 0.98243 0.0
C1061 C 0.62208 0.045 0.98766 0.0
C1062 C 0.61125 0.03487 0.99779 0.0
H1063 H 0.4792 0.03227 0.10466 0.0
H1064 H 0.52633 0.04038 0.08091 0.0
H1065 H 0.43763 0.03651 0.06987 0.0
H1066 H 0.43701 0.03592 0.00359 0.0
H1067 H 0.45542 0.05354 0.98511 0.0
H1068 H 0.38159 0.04829 0.48619 0.0
H1069 H 0.40034 0.03049 0.50372 0.0
H1070 H 0.61875 0.03477 0.49739 0.0
H1071 H 0.6005 0.05263 0.47944 0.0
H1072 H 0.52388 1.00784 0.44905 0.0
H1073 H 0.52166 0.03163 0.6072 0.0
H1074 H 0.46704 0.03729 0.57969 0.0
H1075 H 0.55795 0.03925 0.57878 0.0
C1076 C 0.43366 0.0455 0.48875 0.0
C1077 C 0.48952 0.05177 0.48102 0.0
C1078 C 0.44421 0.03537 0.49888 0.0
C1079 C 0.51077 0.03133 0.50159 0.0
C1080 C 0.56697 0.03781 0.49538 0.0
H1081 H 0.67128 0.96932 0.54458 0.0
H1082 H 0.65304 0.98703 0.52656 0.0
C1083 C 0.55646 0.04803 0.48536 0.0
C1084 C 0.52074 0.01985 0.50874 0.0
H1085 H 0.52971 1.00938 0.57957 0.0
C1086 C 0.52544 1.00815 0.47754 0.0
C1087 C 0.52204 0.02035 0.54594 0.0
C1088 C 0.51702 0.03277 0.58005 0.0
C1089 C 0.53148 0.99687 0.48269 0.0
C1090 C 0.53274 0.99737 0.51987 0.0
C1091 C 0.52813 1.00908 0.55109 0.0
C1092 C 0.54257 0.98589 0.52698 0.0
C1093 C 0.53658 0.98446 0.44857 0.0
C1094 C 0.48623 0.97922 0.53221 0.0
C1095 C 0.49645 0.96905 0.54247 0.0
C1096 C 0.56318 0.96553 0.548 0.0
C1097 C 0.61929 0.97191 0.54097 0.0
C1098 C 0.60905 0.98201 0.53065 0.0
H1099 H 0.53246 0.98561 0.42142 0.0
H1100 H 0.58635 0.9799 0.44912 0.0
H1101 H 0.49534 0.97801 0.44969 0.0
H1102 H 0.43451 0.98213 0.52942 0.0
H1103 H 0.4523 0.96435 0.54789 0.0
H1104 H 0.13384 0.30627 0.04255 0.0
H1105 H 0.17787 0.28924 0.05895 0.0
H1106 H 0.29687 0.27492 0.95567 0.0
H1107 H 0.25287 0.29188 0.93936 0.0
H1108 H 0.15591 0.26325 0.01084 0.0
H1109 H 0.43285 0.27447 0.03707 0.0
H1110 H 0.36993 0.2861 0.03868 0.0
H1111 H 0.4006 0.27478 0.9938 0.0
C1112 C 0.17113 0.2997 0.02413 0.0
C1113 C 0.19092 0.30038 0.99004 0.0
C1114 C 0.19574 0.28996 0.03329 0.0
C1115 C 0.24096 0.2809 0.00863 0.0
C1116 C 0.26296 0.28193 0.97536 0.0
H1117 H 0.41739 0.21085 -0.00045 0.0
H1118 H 0.37455 0.22789 0.98281 0.0
C1119 C 0.23797 0.29159 0.96609 0.0
C1120 C 0.26038 0.26974 0.0158 0.0
H1121 H 0.39749 0.25408 0.03068 0.0
C1122 C 0.20865 0.26127 0.01545 0.0
C1123 C 0.32927 0.26715 0.02136 0.0
C1124 C 0.38642 0.27614 0.02309 0.0
C1125 C 0.22415 0.25018 0.02014 0.0
C1126 C 0.29301 0.24761 0.02578 0.0
C1127 C 0.34477 0.25606 0.02604 0.0
C1128 C 0.31225 0.23651 0.03333 0.0
C1129 C 0.16701 0.24119 0.01841 0.0
C1130 C 0.29042 0.23566 0.06688 0.0
C1131 C 0.31483 0.22601 0.07639 0.0
C1132 C 0.3611 0.21705 0.05239 0.0
C1133 C 0.38081 0.21757 0.01806 0.0
C1134 C 0.35683 0.22731 0.00869 0.0
H1135 H 0.12056 0.24286 0.00444 0.0
H1136 H 0.18352 0.23123 0.00281 0.0
H1137 H 0.15286 0.24255 0.04771 0.0
H1138 H 0.25693 0.24278 0.08653 0.0
H1139 H 0.29986 0.22583 0.10324 0.0
H1140 H 0.60682 0.79697 0.99475 0.0
H1141 H 0.63705 0.77964 0.01305 0.0
H1142 H 0.84874 0.78285 0.98576 0.0
H1143 H 0.81847 0.80032 0.96815 0.0
H1144 H 0.69216 0.75707 0.96397 0.0
H1145 H 0.86625 0.77992 0.0869 0.0
H1146 H 0.81079 0.78887 0.06957 0.0
H1147 H 0.88961 0.78238 0.04536 0.0
C1148 C 0.66002 0.7942 0.99387 0.0
C1149 C 0.71063 0.80005 0.98078 0.0
C1150 C 0.67722 0.78426 0.00401 0.0
C1151 C 0.74531 0.78001 0.00115 0.0
C1152 C 0.79621 0.78613 0.98905 0.0
H1153 H 0.92381 0.71684 0.04127 0.0
H1154 H 0.9077 0.73371 0.0187 0.0
C1155 C 0.77899 0.79609 0.97901 0.0
C1156 C 0.76178 0.76854 0.00775 0.0
H1157 H 0.85825 0.7576 0.06192 0.0
C1158 C 0.72842 0.7572 0.98544 0.0
C1159 C 0.80975 0.76866 0.03541 0.0
C1160 C 0.8458 0.78062 0.06094 0.0
C1161 C 0.74141 0.746 0.9901 0.0
C1162 C 0.78824 0.74616 0.01832 0.0
C1163 C 0.82268 0.75745 0.04014 0.0
C1164 C 0.79794 0.73504 0.02777 0.0
C1165 C 0.70506 0.73408 0.96451 0.0
C1166 C 0.74166 0.73006 0.03973 0.0
C1167 C 0.75069 0.72043 0.05219 0.0
C1168 C 0.81635 0.71564 0.05352 0.0
C1169 C 0.87257 0.72026 0.04017 0.0
C1170 C 0.86346 0.72996 0.02762 0.0
H1171 H 0.69013 0.73446 0.93719 0.0
H1172 H 0.73758 0.72562 0.95838 0.0
H1173 H 0.65746 0.733 0.97868 0.0
H1174 H 0.69089 0.73396 0.04089 0.0
H1175 H 0.70644 0.71704 0.06227 0.0
H1176 H 0.11131 0.71523 0.51317 0.0
H1177 H 0.14823 0.7319 0.49333 0.0
H1178 H 0.33546 0.73639 0.55702 0.0
H1179 H 0.29871 0.71962 0.57639 0.0
H1180 H 0.17206 0.75649 0.54341 0.0
H1181 H 0.40466 0.73635 0.45721 0.0
H1182 H 0.34317 0.72677 0.46856 0.0
H1183 H 0.40585 0.73581 0.50309 0.0
C1184 C 0.16133 0.71951 0.52172 0.0
C1185 C 0.20299 0.71605 0.54554 0.0
C1186 C 0.18212 0.72907 0.51073 0.0
C1187 C 0.24489 0.7353 0.52339 0.0
C1188 C 0.28756 0.73153 0.54622 0.0
H1189 H 0.43524 0.80166 0.51177 0.0
H1190 H 0.40107 0.78457 0.5306 0.0
C1191 C 0.26672 0.72196 0.55722 0.0
C1192 C 0.2629 0.74643 0.51543 0.0
H1193 H 0.38492 0.75831 0.47539 0.0
C1194 C 0.2184 0.75686 0.52833 0.0
C1195 C 0.32355 0.74692 0.49596 0.0
C1196 C 0.37181 0.73583 0.48008 0.0
C1197 C 0.2333 0.76781 0.52262 0.0
C1198 C 0.29399 0.7683 0.50327 0.0
C1199 C 0.33863 0.75791 0.49047 0.0
C1200 C 0.31102 0.77933 0.49479 0.0
C1201 C 0.18459 0.77885 0.53774 0.0
C1202 C 0.27123 0.78209 0.46882 0.0
C1203 C 0.29088 0.79174 0.45796 0.0
C1204 C 0.35023 0.79883 0.47317 0.0
C1205 C 0.3888 0.79638 0.50013 0.0
C1206 C 0.36956 0.78662 0.51067 0.0
H1207 H 0.14853 0.77807 0.559 0.0
H1208 H 0.21323 0.78788 0.55099 0.0
H1209 H 0.15406 0.77918 0.51389 0.0
H1210 H 0.22639 0.77648 0.45591 0.0
H1211 H 0.26093 0.79343 0.43684 0.0
H1212 H 0.7719 0.29084 0.42773 0.0
H1213 H 0.76435 0.27159 0.43925 0.0
H1214 H 0.83367 0.29221 0.55421 0.0
H1215 H 0.84135 0.31155 0.54295 0.0
H1216 H 0.8752 0.25961 0.47512 0.0
H1217 H 0.62943 0.27669 0.55304 0.0
H1218 H 0.66062 0.28235 0.51866 0.0
H1219 H 0.70093 0.28745 0.56424 0.0
C1220 C 0.78589 0.29126 0.45539 0.0
C1221 C 0.80632 0.30273 0.48459 0.0
C1222 C 0.78211 0.28025 0.46181 0.0
C1223 C 0.79823 0.28054 0.49757 0.0
C1224 C 0.82111 0.29184 0.52641 0.0
H1225 H 0.78577 0.21925 0.57456 0.0
H1226 H 0.82736 0.23627 0.55731 0.0
C1227 C 0.82551 0.30285 0.51992 0.0
C1228 C 0.78538 0.26928 0.50548 0.0
H1229 H 0.66868 0.25677 0.54643 0.0
C1230 C 0.83038 0.25897 0.4909 0.0
C1231 C 0.72653 0.26851 0.52577 0.0
C1232 C 0.67614 0.27928 0.5413 0.0
C1233 C 0.81769 0.24782 0.49605 0.0
C1234 C 0.75854 0.24704 0.51619 0.0
C1235 C 0.71394 0.2574 0.53094 0.0
C1236 C 0.74023 0.23549 0.52169 0.0
C1237 C 0.86651 0.23686 0.47923 0.0
C1238 C 0.67824 0.2293 0.50688 0.0
C1239 C 0.65466 0.21966 0.51671 0.0
C1240 C 0.69278 0.21603 0.54141 0.0
C1241 C 0.75643 0.22176 0.55479 0.0
C1242 C 0.78004 0.23146 0.54502 0.0
H1243 H 0.9023 0.23809 0.45855 0.0
H1244 H 0.89728 0.23605 0.50234 0.0
H1245 H 0.83787 0.22789 0.46482 0.0
H1246 H 0.64663 0.23233 0.48902 0.0
H1247 H 0.60492 0.21548 0.50663 0.0
H1248 H 1.0047 0.40026 0.14369 0.0
H1249 H 0.9861 0.39871 0.20434 0.0
H1250 H 0.08086 0.36191 0.15978 0.0
H1251 H 0.10368 0.36372 0.10017 0.0
H1252 H 0.91437 0.38308 0.22384 0.0
H1253 H 0.18746 0.37839 0.25487 0.0
H1254 H 0.16125 0.3825 0.21655 0.0
H1255 H 0.16107 0.36625 0.21055 0.0
C1256 C 1.02261 0.39192 0.14698 0.0
C1257 C 0.05689 0.38223 0.11723 0.0
C1258 C 1.01143 0.391 0.18159 0.0
C1259 C 0.03342 0.38031 0.18693 0.0
C1260 C 0.06548 0.37044 0.15684 0.0
H1261 H 0.89627 0.36564 0.38332 0.0
H1262 H 0.90943 0.3644 0.31858 0.0
C1263 C 0.07808 0.37147 0.1226 0.0
C1264 C 1.02262 0.37945 0.22391 0.0
H1265 H 0.10584 0.37443 0.29431 0.0
C1266 C 0.95625 0.38124 0.23937 0.0
C1267 C 0.07743 0.37716 0.2443 0.0
C1268 C 0.15085 0.3761 0.23092 0.0
C1269 C 0.94328 0.38092 0.27481 0.0
C1270 C 0.9978 0.37827 0.29464 0.0
C1271 C 0.06391 0.37632 0.27889 0.0
C1272 C 0.98933 0.37858 0.33325 0.0
C1273 C 0.87194 0.38388 0.29119 0.0
C1274 C 0.03124 0.38662 0.36265 0.0
C1275 C 1.02553 0.38701 0.39906 0.0
C1276 C 0.97719 0.37945 0.40718 0.0
C1277 C 0.93472 0.37143 0.37783 0.0
C1278 C 0.94142 0.37087 0.34098 0.0
H1279 H 0.84129 0.3889 0.27734 0.0
H1280 H 0.84509 0.37494 0.28657 0.0
H1281 H 0.87353 0.3898 0.32219 0.0
H1282 H 0.06854 0.39267 0.35746 0.0
H1283 H 0.05927 0.39328 0.42089 0.0
H1284 H 0.08006 0.6266 0.11383 0.0
H1285 H 0.09045 0.62746 0.17804 0.0
H1286 H 0.90357 0.649 0.21055 0.0
H1287 H 0.8924 0.64815 0.14594 0.0
H1288 H 0.06042 0.65571 0.25887 0.0
H1289 H 0.91622 0.611 0.22655 0.0
H1290 H 0.96893 0.61273 0.19041 0.0
H1291 H 0.89225 0.62187 0.20584 0.0
C1292 C 0.041 0.6315 0.13457 0.0
C1293 C 0.98527 0.63729 0.12486 0.0
C1294 C 0.04728 0.63203 0.17124 0.0
C1295 C 0.99782 0.63829 0.19882 0.0
C1296 C 0.94231 0.64417 0.1895 0.0
H1297 H 0.95062 0.63153 0.41465 0.0
H1298 H 0.93125 0.63333 0.35424 0.0
C1299 C 0.93603 0.64368 0.15272 0.0
C1300 C 1.00385 0.6383 0.23704 0.0
H1301 H 0.96892 0.62038 0.28642 0.0
C1302 C 0.04005 0.64807 0.2652 0.0
C1303 C 0.9767 0.62836 0.24498 0.0
C1304 C 0.93613 0.61785 0.21555 0.0
C1305 C 0.05035 0.64812 0.30135 0.0
C1306 C 1.0257 0.63786 0.30898 0.0
C1307 C 0.98833 0.6282 0.28072 0.0
C1308 C 0.03775 0.63692 0.34594 0.0
C1309 C 0.08634 0.65931 0.33101 0.0
C1310 C 0.10408 0.63815 0.36134 0.0
C1311 C 0.11467 0.63753 0.39643 0.0
C1312 C 0.05961 0.63513 0.41592 0.0
C1313 C 0.99383 0.63336 0.39993 0.0
C1314 C 0.98284 0.63439 0.36548 0.0
H1315 H 0.08033 0.66791 0.32526 0.0
H1316 H 0.06648 0.6614 0.35994 0.0
H1317 H 0.142 0.65728 0.33036 0.0
H1318 H 0.14784 0.63954 0.34621 0.0
H1319 H 0.16604 0.63871 0.40802 0.0
H1320 H 0.88418 0.63803 0.90574 0.0
H1321 H 0.90389 0.63819 0.84313 0.0
H1322 H 0.12034 0.63257 0.85369 0.0
H1323 H 0.09958 0.63151 0.91502 0.0
H1324 H 0.97084 0.65307 0.82131 0.0
H1325 H 0.09244 0.60601 0.75139 0.0
H1326 H 0.0526 0.61115 0.79742 0.0
H1327 H 0.13853 0.61608 0.79278 0.0
C1328 C 0.93576 0.63672 0.89435 0.0
C1329 C 0.99029 0.63461 0.91467 0.0
C1330 C 0.9471 0.63682 0.85867 0.0
C1331 C 1.01347 0.63511 0.8431 0.0
C1332 C 0.06833 0.63341 0.8642 0.0
H1333 H 0.1622 0.64642 0.64548 0.0
H1334 H 0.14665 0.64703 0.70938 0.0
C1335 C 0.05661 0.6329 0.89935 0.0
C1336 C 1.02502 0.63543 0.80531 0.0
H1337 H 0.09684 0.61926 0.71782 0.0
C1338 C 0.9982 0.64563 0.79873 0.0
C1339 C 0.0605 0.62571 0.77555 0.0
C1340 C 0.08701 0.61407 0.77949 0.0
C1341 C 1.00601 0.64637 0.76347 0.0
C1342 C 0.04235 0.63679 0.73427 0.0
C1343 C 0.06954 0.62664 0.74063 0.0
C1344 C 0.05044 0.63691 0.69634 0.0
C1345 C 0.97487 0.65727 0.75723 0.0
C1346 C 1.00129 0.63104 0.66815 0.0
C1347 C 1.00972 0.63075 0.63181 0.0
C1348 C 0.06742 0.63635 0.62312 0.0
C1349 C 0.11658 0.64224 0.65153 0.0
C1350 C 0.10805 0.64253 0.68792 0.0
H1351 H 0.94943 0.66416 0.78316 0.0
H1352 H 1.01519 0.66223 0.74815 0.0
H1353 H 0.93646 0.65365 0.73403 0.0
H1354 H 0.95663 0.62662 0.67424 0.0
H1355 H 0.97104 0.62615 0.61049 0.0
H1356 H 0.91853 0.36879 0.61084 0.0
H1357 H 0.93845 0.36806 0.67249 0.0
H1358 H 0.08737 0.39799 0.69975 0.0
H1359 H 0.06907 0.39858 0.63785 0.0
H1360 H 0.13265 0.37883 0.7172 0.0
H1361 H 0.87161 0.39355 0.77485 0.0
H1362 H 0.87208 0.38002 0.73026 0.0
H1363 H 0.90227 0.39498 0.73262 0.0
C1364 C 0.95542 0.37524 0.62997 0.0
C1365 C 0.99189 0.3838 0.61956 0.0
C1366 C 0.96642 0.37486 0.66528 0.0
C1367 C 1.01355 0.38311 0.69089 0.0
C1368 C 0.05047 0.39159 0.68044 0.0
H1369 H 1.0225 0.39942 0.93012 0.0
H1370 H 1.00964 0.39972 0.86782 0.0
C1371 C 0.0397 0.39195 0.64512 0.0
C1372 C 1.02526 0.38282 0.72842 0.0
H1373 H 0.94455 0.386 0.81021 0.0
C1374 C 0.09173 0.38047 0.73773 0.0
C1375 C 0.97194 0.38516 0.75524 0.0
C1376 C 0.90061 0.3887 0.74799 0.0
C1377 C 0.10652 0.38038 0.77323 0.0
C1378 C 0.05254 0.38218 0.7996 0.0
C1379 C 0.98598 0.38453 0.79008 0.0
C1380 C 0.06369 0.38212 0.83768 0.0
C1381 C 0.18027 0.37877 0.78222 0.0
C1382 C 0.0992 0.37225 0.84193 0.0
C1383 C 0.10985 0.37242 0.87797 0.0
C1384 C 0.08109 0.38198 0.9103 0.0
C1385 C 0.04474 0.39178 0.9059 0.0
C1386 C 0.03692 0.39192 0.87012 0.0
H1387 H 0.21611 0.38185 0.76523 0.0
H1388 H 0.19192 0.38423 0.81275 0.0
H1389 H 0.1904 0.36862 0.77484 0.0
H1390 H 0.11893 0.36438 0.81745 0.0
H1391 H 0.14121 0.36513 0.88028 0.0
H1392 H 0.65533 0.87438 0.12221 0.0
H1393 H 0.633 0.8737 0.18384 0.0
H1394 H 0.43811 0.89191 0.19018 0.0
H1395 H 0.4602 0.89271 0.12838 0.0
H1396 H 0.58656 0.89787 0.25799 0.0
H1397 H 0.41294 0.85609 0.20381 0.0
H1398 H 0.47838 0.85847 0.17414 0.0
H1399 H 0.40378 0.8683 0.18645 0.0
C1400 C 0.60766 0.87824 0.13668 0.0
C1401 C 0.55935 0.88356 0.12045 0.0
C1402 C 0.59511 0.87786 0.17188 0.0
C1403 C 0.53381 0.88268 0.1913 0.0
C1404 C 0.48559 0.88809 0.17542 0.0
H1405 H 0.36895 0.87904 0.39766 0.0
H1406 H 0.38301 0.87953 0.33485 0.0
C1407 C 0.49836 0.88858 0.14027 0.0
C1408 C 0.52073 0.88205 0.22831 0.0
H1409 H 0.43696 0.86494 0.26937 0.0
C1410 C 0.55374 0.89071 0.26065 0.0
C1411 C 0.47742 0.87277 0.23149 0.0
C1412 C 0.44097 0.86331 0.19724 0.0
C1413 C 0.54443 0.89038 0.29637 0.0
C1414 C 0.50292 0.88079 0.29954 0.0
C1415 C 0.46915 0.87222 0.26705 0.0
C1416 C 0.49406 0.87954 0.33627 0.0
C1417 C 0.57798 0.90054 0.33039 0.0
C1418 C 0.55149 0.87891 0.35742 0.0
C1419 C 0.54339 0.87898 0.3935 0.0
C1420 C 0.47771 0.87912 0.40844 0.0
C1421 C 0.42006 0.87888 0.38647 0.0
C1422 C 0.42817 0.87918 0.35071 0.0
H1423 H 0.58772 0.9092 0.32546 0.0
H1424 H 0.5459 0.90314 0.35626 0.0
H1425 H 0.62824 0.89708 0.33564 0.0
H1426 H 0.60276 0.87863 0.34638 0.0
H1427 H 0.5885 0.87899 0.40991 0.0
H1428 H 0.38545 0.14559 0.14519 0.0
H1429 H 0.40549 0.1468 0.20942 0.0
H1430 H 0.59353 0.12593 0.17164 0.0
H1431 H 0.57508 0.12502 0.10771 0.0
H1432 H 0.48089 0.11713 0.21373 0.0
H1433 H 0.57549 0.1666 0.28552 0.0
H1434 H 0.50429 0.16334 0.25304 0.0
H1435 H 0.58759 0.15735 0.23529 0.0
C1436 C 0.43172 0.14148 0.15078 0.0
C1437 C 0.47922 0.13535 0.12162 0.0
C1438 C 0.44287 0.14213 0.18735 0.0
C1439 C 0.50121 0.13654 0.19513 0.0
C1440 C 0.54843 0.13035 0.16608 0.0
H1441 H 0.66421 0.14226 0.41116 0.0
H1442 H 0.64637 0.1425 0.34843 0.0
C1443 C 0.53764 0.12979 0.12963 0.0
C1444 C 0.51143 0.13656 0.23309 0.0
H1445 H 0.56226 0.15508 0.32335 0.0
C1446 C 0.49862 0.1254 0.23781 0.0
C1447 C 0.53534 0.14734 0.26402 0.0
C1448 C 0.55192 0.15937 0.25953 0.0
C1449 C 0.50904 0.12471 0.27291 0.0
C1450 C 0.53143 0.1356 0.30437 0.0
C1451 C 0.54471 0.14676 0.2994 0.0
C1452 C 0.54197 0.13558 0.34253 0.0
C1453 C 0.4976 0.11219 0.27545 0.0
C1454 C 0.48905 0.1318 0.36035 0.0
C1455 C 0.49989 0.13132 0.39553 0.0
C1456 C 0.563 0.13506 0.41418 0.0
C1457 C 0.61515 0.13931 0.3972 0.0
C1458 C 0.6049 0.13947 0.36147 0.0
H1459 H 0.50207 0.10418 0.24717 0.0
H1460 H 0.53482 0.11072 0.29502 0.0
H1461 H 0.44503 0.11196 0.28615 0.0
H1462 H 0.43924 0.12922 0.34709 0.0
H1463 H 0.45842 0.12827 0.40853 0.0
H1464 H 0.54579 0.11726 0.88953 0.0
H1465 H 0.56277 0.11835 0.82832 0.0
H1466 H 0.45452 0.15383 0.86849 0.0
H1467 H 0.43442 0.15254 0.92938 0.0
H1468 H 0.41635 0.13933 0.79849 0.0
H1469 H 0.69928 0.13985 0.80446 0.0
H1470 H 0.6649 0.12619 0.809 0.0
H1471 H 0.64681 0.14169 0.8449 0.0
C1472 C 0.52516 0.12528 0.8854 0.0
C1473 C 0.4887 0.13482 0.91451 0.0
C1474 C 0.53565 0.12595 0.85043 0.0
C1475 C 0.51139 0.13632 0.84405 0.0
C1476 C 0.47419 0.14578 0.87283 0.0
H1477 H 0.65606 0.14942 0.64842 0.0
H1478 H 0.63402 0.15098 0.71258 0.0
C1479 C 0.46286 0.14503 0.90769 0.0
C1480 C 0.52378 0.13716 0.80711 0.0
H1481 H 0.64953 0.13544 0.74359 0.0
C1482 C 0.4674 0.13859 0.78662 0.0
C1483 C 0.5905 0.13651 0.79198 0.0
C1484 C 0.65383 0.13612 0.81394 0.0
C1485 C 0.47568 0.13902 0.75097 0.0
C1486 C 0.54199 0.13748 0.73464 0.0
C1487 C 0.59855 0.13642 0.75569 0.0
C1488 C 0.55387 0.13682 0.69573 0.0
C1489 C 0.41325 0.14137 0.73166 0.0
C1490 C 0.51713 0.12822 0.66467 0.0
C1491 C 0.52768 0.1277 0.62823 0.0
C1492 C 0.57658 0.13553 0.62179 0.0
C1493 C 0.61587 0.14366 0.65258 0.0
C1494 C 0.604 0.14443 0.68925 0.0
H1495 H 0.37322 0.14662 0.75267 0.0
H1496 H 0.42632 0.14683 0.71464 0.0
H1497 H 0.3908 0.13219 0.71253 0.0
H1498 H 0.48031 0.12185 0.66851 0.0
H1499 H 0.49728 0.12115 0.6051 0.0
H1500 H 0.41549 0.86876 0.61309 0.0
H1501 H 0.43809 0.86815 0.67468 0.0
H1502 H 0.58649 0.89801 0.69995 0.0
H1503 H 0.56516 0.89858 0.63794 0.0
H1504 H 0.5886 0.86591 0.70481 0.0
H1505 H 0.42991 0.90784 0.79042 0.0
H1506 H 0.41073 0.89809 0.74127 0.0
H1507 H 0.48323 0.90846 0.75296 0.0
C1508 C 0.45308 0.8752 0.63162 0.0
C1509 C 0.48846 0.88374 0.62048 0.0
C1510 C 0.4659 0.87482 0.66682 0.0
C1511 C 0.51376 0.88305 0.69181 0.0
C1512 C 0.54914 0.89161 0.68102 0.0
H1513 H 0.64807 0.8959 0.9195 0.0
H1514 H 0.63274 0.89618 0.8567 0.0
C1515 C 0.53678 0.89194 0.64562 0.0
C1516 C 0.52655 0.88263 0.72919 0.0
H1517 H 0.48862 0.8977 0.8236 0.0
C1518 C 0.56687 0.87285 0.73082 0.0
C1519 C 0.49786 0.89168 0.76292 0.0
C1520 C 0.4527 0.90213 0.76219 0.0
C1521 C 0.57968 0.87195 0.76556 0.0
C1522 C 0.55088 0.88099 0.79931 0.0
C1523 C 0.51068 0.89079 0.79764 0.0
C1524 C 0.56205 0.88046 0.83671 0.0
C1525 C 0.62445 0.86145 0.7662 0.0
C1526 C 0.52681 0.87162 0.84641 0.0
C1527 C 0.53426 0.87169 0.88267 0.0
C1528 C 0.57853 0.88034 0.90938 0.0
C1529 C 0.61405 0.88909 0.89942 0.0
C1530 C 0.60557 0.88921 0.86351 0.0
H1531 H 0.65036 0.85623 0.73853 0.0
H1532 H 0.66397 0.8653 0.78873 0.0
H1533 H 0.59257 0.8547 0.77295 0.0
H1534 H 0.49193 0.86495 0.82636 0.0
H1535 H 0.50301 0.8654 0.89031 0.0
loop_
_geom_bond_atom_site_label_1
_geom_bond_atom_site_label_2
_geom_bond_distance
_geom_bond_site_symmetry_2
_ccdc_geom_bond_type
C0 C2 1.422 . S
C0 C4 1.415 . S
C0 N6 1.369 . S
C1 C2 1.421 . S
C1 C3 1.417 . S
C1 C13 1.422 . S
C2 C0 1.422 . S
C2 C1 1.421 . S
C2 N12 1.359 . S
C3 C1 1.417 . S
C3 C5 1.329 . S
C3 H22 0.930 . S
C4 C0 1.415 . S
C4 C5 1.437 . S
C4 C8 1.413 . S
C5 C3 1.329 . S
C5 C4 1.437 . S
C5 H27 0.929 . S
N6 C0 1.369 . S
N6 C7 1.338 . S
N6 Gd11 2.622 . S
C7 N6 1.338 . S
C7 C9 1.378 . S
C7 H19 0.929 . S
C8 C4 1.413 . S
C8 C9 1.348 . S
C8 H24 0.931 . S
C9 C7 1.378 . S
C9 C8 1.348 . S
C9 H25 0.930 . S
Gd10 N30 2.622 1_455 S
Gd10 N37 2.583 1_455 S
Gd10 O44 2.354 . S
Gd10 O45 2.468 1_556 S
Gd10 O46 2.427 . S
Gd10 O48 2.388 . S
Gd10 O49 2.386 1_455 S
Gd10 O53 2.307 1_556 S
Gd10 C63 2.805 . S
Gd11 N6 2.622 . S
Gd11 N12 2.570 . S
Gd11 O43 2.386 . S
Gd11 O47 2.307 1_554 S
Gd11 O50 2.353 1_455 S
Gd11 O51 2.468 . S
Gd11 O52 2.427 . S
Gd11 O54 2.388 . S
Gd11 C75 2.805 . S
N12 C2 1.359 . S
N12 Gd11 2.570 . S
N12 C14 1.343 1_554 S
C13 C1 1.422 . S
C13 C15 1.321 1_554 S
C13 H21 0.931 . S
C14 N12 1.343 1_556 S
C14 C15 1.390 . S
C14 H16 0.931 . S
C15 C13 1.321 1_556 S
C15 C14 1.390 . S
C15 H17 0.930 . S
H16 C14 0.931 . S
H17 C15 0.930 . S
H18 C41 0.931 . S
H19 C7 0.929 . S
H20 C42 0.930 . S
H21 C13 0.931 . S
H22 C3 0.930 . S
H23 C32 0.929 1_455 S
H24 C8 0.931 . S
H25 C9 0.930 . S
H26 C64 0.930 . S
H27 C5 0.929 . S
H28 C33 0.931 . S
H29 C34 0.930 . S
N30 Gd10 2.622 1_655 S
N30 C31 1.369 . S
N30 C32 1.338 . S
C31 N30 1.369 . S
C31 C35 1.415 . S
C31 C38 1.422 . S
C32 H23 0.929 1_655 S
C32 N30 1.338 . S
C32 C34 1.378 . S
C33 H28 0.931 . S
C33 C34 1.348 . S
C33 C35 1.413 . S
C34 H29 0.930 . S
C34 C32 1.378 . S
C34 C33 1.348 . S
C35 C31 1.415 . S
C35 C33 1.413 . S
C35 C65 1.437 . S
H36 C65 0.929 . S
N37 Gd10 2.583 1_655 S
N37 C38 1.377 . S
N37 C41 1.313 1_556 S
C38 C31 1.422 . S
C38 N37 1.377 . S
C38 C40 1.421 . S
C39 C40 1.422 1_554 S
C39 C42 1.321 . S
C39 H66 0.931 . S
C40 C38 1.421 . S
C40 C39 1.422 1_556 S
C40 C64 1.417 . S
C41 H18 0.931 . S
C41 N37 1.313 1_554 S
C41 C42 1.390 . S
C42 H20 0.930 . S
C42 C39 1.321 . S
C42 C41 1.390 . S
O43 Gd11 2.386 . S
O43 C55 1.265 . S
O44 Gd10 2.354 . S
O44 C55 1.241 1_556 S
O45 Gd10 2.468 1_554 S
O45 C63 1.263 1_554 S
O46 Gd10 2.427 . S
O46 C63 1.252 . S
O47 Gd11 2.307 1_556 S
O47 C56 1.261 . S
O48 Gd10 2.388 . S
O48 C56 1.252 . S
O49 Gd10 2.386 1_655 S
O49 C67 1.265 1_556 S
O50 Gd11 2.353 1_655 S
O50 C67 1.242 . S
O51 Gd11 2.468 . S
O51 C75 1.263 . S
O52 Gd11 2.427 . S
O52 C75 1.252 . S
O53 Gd10 2.307 1_554 S
O53 C68 1.261 . S
O54 Gd11 2.388 . S
O54 C68 1.252 . S
C55 O43 1.265 . S
C55 O44 1.241 1_554 S
C56 O47 1.261 . S
C56 O48 1.252 . S
C57 C60 1.394 . S
C57 C62 1.370 1_556 S
C57 C63 1.500 . S
C58 C61 1.385 1_554 S
C58 C62 1.396 . S
C59 C60 1.396 . S
C59 C61 1.365 . S
C59 H76 0.929 . S
C60 C57 1.394 . S
C60 C59 1.396 . S
C60 H77 0.930 . S
C61 C58 1.385 1_556 S
C61 C59 1.365 . S
C61 H78 0.931 . S
C62 C57 1.370 1_554 S
C62 C58 1.396 . S
C62 H79 0.930 . S
C63 Gd10 2.805 . S
C63 O45 1.263 1_556 S
C63 O46 1.252 . S
C63 C57 1.500 . S
C64 H26 0.930 . S
C64 C40 1.417 . S
C64 C65 1.329 . S
C65 C35 1.437 . S
C65 H36 0.929 . S
C65 C64 1.329 . S
H66 C39 0.931 . S
C67 O49 1.265 1_554 S
C67 O50 1.242 . S
C68 O53 1.261 . S
C68 O54 1.252 . S
C69 C72 1.394 . S
C69 C74 1.370 . S
C69 C75 1.500 1_655 S
C70 C73 1.383 . S
C70 C74 1.395 . S
C71 C72 1.396 . S
C71 C73 1.365 . S
C71 H80 0.929 . S
C72 C69 1.394 . S
C72 C71 1.396 . S
C72 H81 0.930 . S
C73 C70 1.383 . S
C73 C71 1.365 . S
C73 H82 0.931 . S
C74 C69 1.370 . S
C74 C70 1.395 . S
C74 H83 0.930 1_554 S
C75 Gd11 2.805 . S
C75 O51 1.263 . S
C75 O52 1.252 . S
C75 C69 1.500 1_455 S
H76 C59 0.929 . S
H77 C60 0.930 . S
H78 C61 0.931 . S
H79 C62 0.930 . S
H80 C71 0.929 . S
H81 C72 0.930 . S
H82 C73 0.931 . S
H83 C74 0.930 1_556 S
C84 C86 1.422 . S
C84 C88 1.415 . S
C84 N90 1.369 . S
C85 C86 1.421 . S
C85 C87 1.417 . S
C85 C97 1.422 . S
C86 C84 1.422 . S
C86 C85 1.421 . S
C86 N96 1.359 . S
C87 C85 1.417 . S
C87 C89 1.329 . S
C87 H106 0.930 . S
C88 C84 1.415 . S
C88 C89 1.437 . S
C88 C92 1.413 . S
C89 C87 1.329 . S
C89 C88 1.437 . S
C89 H111 0.929 . S
N90 C84 1.369 . S
N90 C91 1.338 . S
N90 Gd95 2.622 1_455 S
C91 N90 1.338 . S
C91 C93 1.378 . S
C91 H103 0.929 1_455 S
C92 C88 1.413 . S
C92 C93 1.348 . S
C92 H108 0.931 . S
C93 C91 1.378 . S
C93 C92 1.348 . S
C93 H109 0.930 . S
Gd94 N114 2.622 . S
Gd94 N121 2.570 1_556 S
Gd94 O128 2.353 1_656 S
Gd94 O129 2.468 1_556 S
Gd94 O130 2.427 . S
Gd94 O132 2.388 . S
Gd94 O133 2.386 . S
Gd94 O137 2.307 1_556 S
Gd94 C147 2.805 . S
Gd95 N90 2.622 1_655 S
Gd95 N96 2.570 1_655 S
Gd95 O127 2.386 1_655 S
Gd95 O131 2.307 1_554 S
Gd95 O134 2.353 . S
Gd95 O135 2.468 . S
Gd95 O136 2.427 . S
Gd95 O138 2.388 . S
Gd95 C159 2.805 . S
N96 C86 1.359 . S
N96 Gd95 2.570 1_455 S
N96 C98 1.325 1_554 S
C97 C85 1.422 . S
C97 C99 1.321 1_554 S
C97 H105 0.931 . S
C98 N96 1.325 1_556 S
C98 C99 1.398 . S
C98 H100 0.942 . S
C99 C97 1.321 1_556 S
C99 C98 1.398 . S
C99 H101 0.930 . S
H100 C98 0.942 . S
H101 C99 0.930 . S
H102 C125 0.931 . S
H103 C91 0.929 1_655 S
H104 C126 0.930 . S
H105 C97 0.931 . S
H106 C87 0.930 . S
H107 C116 0.929 . S
H108 C92 0.931 . S
H109 C93 0.930 . S
H110 C148 0.930 . S
H111 C89 0.929 . S
H112 C117 0.931 . S
H113 C118 0.930 . S
N114 Gd94 2.622 . S
N114 C115 1.369 . S
N114 C116 1.338 . S
C115 N114 1.369 . S
C115 C119 1.415 . S
C115 C122 1.422 . S
C116 H107 0.929 . S
C116 N114 1.338 . S
C116 C118 1.378 . S
C117 H112 0.931 . S
C117 C118 1.348 . S
C117 C119 1.413 . S
C118 H113 0.930 . S
C118 C116 1.378 . S
C118 C117 1.348 . S
C119 C115 1.415 . S
C119 C117 1.413 . S
C119 C149 1.437 . S
H120 C149 0.929 . S
N121 Gd94 2.570 1_554 S
N121 C122 1.359 1_554 S
N121 C125 1.343 . S
C122 C115 1.422 . S
C122 N121 1.359 1_556 S
C122 C124 1.421 . S
C123 C124 1.422 1_554 S
C123 C126 1.321 . S
C123 H150 0.931 . S
C124 C122 1.421 . S
C124 C123 1.422 1_556 S
C124 C148 1.417 . S
C125 H102 0.931 . S
C125 N121 1.343 . S
C125 C126 1.390 . S
C126 H104 0.930 . S
C126 C123 1.321 . S
C126 C125 1.390 . S
O127 Gd95 2.386 1_455 S
O127 C139 1.265 . S
O128 Gd94 2.353 1_454 S
O128 C139 1.242 . S
O129 Gd94 2.468 1_554 S
O129 C147 1.263 1_554 S
O130 Gd94 2.427 . S
O130 C147 1.252 . S
O131 Gd95 2.307 1_556 S
O131 C140 1.261 . S
O132 Gd94 2.388 . S
O132 C140 1.252 . S
O133 Gd94 2.386 . S
O133 C151 1.265 1_556 S
O134 Gd95 2.353 . S
O134 C151 1.242 . S
O135 Gd95 2.468 . S
O135 C159 1.263 . S
O136 Gd95 2.427 . S
O136 C159 1.252 . S
O137 Gd94 2.307 1_554 S
O137 C152 1.261 . S
O138 Gd95 2.388 . S
O138 C152 1.252 . S
C139 O127 1.265 . S
C139 O128 1.242 . S
C140 O131 1.261 . S
C140 O132 1.252 . S
C141 C144 1.394 . S
C141 C146 1.370 1_556 S
C141 C147 1.500 1_455 S
C142 C145 1.383 1_554 S
C142 C146 1.395 . S
C143 C144 1.396 . S
C143 C145 1.365 . S
C143 H160 0.929 . S
C144 C141 1.394 . S
C144 C143 1.396 . S
C144 H161 0.930 . S
C145 C142 1.383 1_556 S
C145 C143 1.365 . S
C145 H162 0.931 . S
C146 C141 1.370 1_554 S
C146 C142 1.395 . S
C146 H163 0.930 . S
C147 Gd94 2.805 . S
C147 O129 1.263 1_556 S
C147 O130 1.252 . S
C147 C141 1.500 1_655 S
C148 H110 0.930 . S
C148 C124 1.417 . S
C148 C149 1.329 . S
C149 C119 1.437 . S
C149 H120 0.929 . S
C149 C148 1.329 . S
H150 C123 0.931 . S
C151 O133 1.265 1_554 S
C151 O134 1.242 . S
C152 O137 1.261 . S
C152 O138 1.252 . S
C153 C156 1.394 . S
C153 C158 1.370 . S
C153 C159 1.500 . S
C154 C157 1.383 . S
C154 C158 1.395 . S
C155 C156 1.396 . S
C155 C157 1.365 . S
C155 H164 0.929 . S
C156 C153 1.394 . S
C156 C155 1.396 . S
C156 H165 0.930 . S
C157 C154 1.383 . S
C157 C155 1.365 . S
C157 H166 0.931 . S
C158 C153 1.370 . S
C158 C154 1.395 . S
C158 H167 0.930 . S
C159 Gd95 2.805 . S
C159 O135 1.263 . S
C159 O136 1.252 . S
C159 C153 1.500 . S
H160 C143 0.929 . S
H161 C144 0.930 . S
H162 C145 0.931 . S
H163 C146 0.930 . S
H164 C155 0.929 . S
H165 C156 0.930 . S
H166 C157 0.931 . S
H167 C158 0.930 . S
C168 C170 1.422 . S
C168 C172 1.415 . S
C168 N174 1.369 . S
C169 C170 1.421 . S
C169 C171 1.417 . S
C169 C181 1.422 . S
C170 C168 1.422 . S
C170 C169 1.421 . S
C170 N180 1.359 . S
C171 C169 1.417 . S
C171 C173 1.329 . S
C171 H190 0.930 . S
C172 C168 1.415 . S
C172 C173 1.437 . S
C172 C176 1.413 . S
C173 C171 1.329 . S
C173 C172 1.437 . S
C173 H195 0.929 . S
N174 C168 1.369 . S
N174 C175 1.338 . S
N174 Gd179 2.622 . S
C175 N174 1.338 . S
C175 C177 1.378 . S
C175 H187 0.929 . S
C176 C172 1.413 . S
C176 C177 1.348 . S
C176 H192 0.931 . S
C177 C175 1.378 . S
C177 C176 1.348 . S
C177 H193 0.930 . S
Gd178 N198 2.622 1_455 S
Gd178 N205 2.570 1_455 S
Gd178 O212 2.353 . S
Gd178 O213 2.468 . S
Gd178 O214 2.427 . S
Gd178 O216 2.388 . S
Gd178 O217 2.386 1_455 S
Gd178 O221 2.307 . S
Gd178 C231 2.805 . S
Gd179 N174 2.622 . S
Gd179 N180 2.570 . S
Gd179 O211 2.386 . S
Gd179 O215 2.307 . S
Gd179 O218 2.353 1_455 S
Gd179 O219 2.468 . S
Gd179 O220 2.427 . S
Gd179 O222 2.388 . S
Gd179 C243 2.805 . S
N180 C170 1.359 . S
N180 Gd179 2.570 . S
N180 C182 1.343 . S
C181 C169 1.422 . S
C181 C183 1.321 . S
C181 H189 0.931 . S
C182 N180 1.343 . S
C182 C183 1.390 . S
C182 H184 0.931 . S
C183 C181 1.321 . S
C183 C182 1.390 . S
C183 H185 0.930 . S
H184 C182 0.931 . S
H185 C183 0.930 . S
H186 C209 0.931 . S
H187 C175 0.929 . S
H188 C210 0.930 . S
H189 C181 0.931 . S
H190 C171 0.930 . S
H191 C200 0.929 1_455 S
H192 C176 0.931 . S
H193 C177 0.930 . S
H194 C232 0.930 . S
H195 C173 0.929 . S
H196 C201 0.931 . S
H197 C202 0.930 . S
N198 Gd178 2.622 1_655 S
N198 C199 1.369 . S
N198 C200 1.338 . S
C199 N198 1.369 . S
C199 C203 1.415 . S
C199 C206 1.422 . S
C200 H191 0.929 1_655 S
C200 N198 1.338 . S
C200 C202 1.378 . S
C201 H196 0.931 . S
C201 C202 1.348 . S
C201 C203 1.413 . S
C202 H197 0.930 . S
C202 C200 1.378 . S
C202 C201 1.348 . S
C203 C199 1.415 . S
C203 C201 1.413 . S
C203 C233 1.437 . S
H204 C233 0.929 . S
N205 Gd178 2.570 1_655 S
N205 C206 1.359 . S
N205 C209 1.343 . S
C206 C199 1.422 . S
C206 N205 1.359 . S
C206 C208 1.421 . S
C207 C208 1.422 . S
C207 C210 1.321 . S
C207 H234 0.931 . S
C208 C206 1.421 . S
C208 C207 1.422 . S
C208 C232 1.417 . S
C209 H186 0.931 . S
C209 N205 1.343 . S
C209 C210 1.390 . S
C210 H188 0.930 . S
C210 C207 1.321 . S
C210 C209 1.390 . S
O211 Gd179 2.386 . S
O211 C223 1.265 . S
O212 Gd178 2.353 . S
O212 C223 1.242 . S
O213 Gd178 2.468 . S
O213 C231 1.263 . S
O214 Gd178 2.427 . S
O214 C231 1.252 . S
O215 Gd179 2.307 . S
O215 C224 1.261 . S
O216 Gd178 2.388 . S
O216 C224 1.252 . S
O217 Gd178 2.386 1_655 S
O217 C235 1.265 . S
O218 Gd179 2.353 1_655 S
O218 C235 1.242 . S
O219 Gd179 2.468 . S
O219 C243 1.263 . S
O220 Gd179 2.427 . S
O220 C243 1.252 . S
O221 Gd178 2.307 . S
O221 C236 1.261 . S
O222 Gd179 2.388 . S
O222 C236 1.252 . S
C223 O211 1.265 . S
C223 O212 1.242 . S
C224 O215 1.261 . S
C224 O216 1.252 . S
C225 C228 1.394 . S
C225 C230 1.370 . S
C225 C231 1.500 . S
C226 C229 1.383 . S
C226 C230 1.395 . S
C227 C228 1.396 . S
C227 C229 1.365 . S
C227 H244 0.929 . S
C228 C225 1.394 . S
C228 C227 1.396 . S
C228 H245 0.930 . S
C229 C226 1.383 . S
C229 C227 1.365 . S
C229 H246 0.931 . S
C230 C225 1.370 . S
C230 C226 1.395 . S
C230 H247 0.930 . S
C231 Gd178 2.805 . S
C231 O213 1.263 . S
C231 O214 1.252 . S
C231 C225 1.500 . S
C232 H194 0.930 . S
C232 C208 1.417 . S
C232 C233 1.329 . S
C233 C203 1.437 . S
C233 H204 0.929 . S
C233 C232 1.329 . S
H234 C207 0.931 . S
C235 O217 1.265 . S
C235 O218 1.242 . S
C236 O221 1.261 . S
C236 O222 1.252 . S
C237 C240 1.394 . S
C237 C242 1.370 . S
C237 C243 1.500 1_655 S
C238 C241 1.383 . S
C238 C242 1.395 . S
C239 C240 1.396 . S
C239 C241 1.365 . S
C239 H248 0.929 . S
C240 C237 1.394 . S
C240 C239 1.396 . S
C240 H249 0.930 . S
C241 C238 1.383 . S
C241 C239 1.365 . S
C241 H250 0.931 . S
C242 C237 1.370 . S
C242 C238 1.395 . S
C242 H251 0.930 . S
C243 Gd179 2.805 . S
C243 O219 1.263 . S
C243 O220 1.252 . S
C243 C237 1.500 1_455 S
H244 C227 0.929 . S
H245 C228 0.930 . S
H246 C229 0.931 . S
H247 C230 0.930 . S
H248 C239 0.929 . S
H249 C240 0.930 . S
H250 C241 0.931 . S
H251 C242 0.930 . S
C252 C254 1.422 . S
C252 C256 1.415 . S
C252 N258 1.369 . S
C253 C254 1.421 . S
C253 C255 1.417 . S
C253 C265 1.422 . S
C254 C252 1.422 . S
C254 C253 1.421 . S
C254 N264 1.359 . S
C255 C253 1.417 . S
C255 C257 1.329 . S
C255 H274 0.930 . S
C256 C252 1.415 . S
C256 C257 1.437 . S
C256 C260 1.413 . S
C257 C255 1.329 . S
C257 C256 1.437 . S
C257 H279 0.929 . S
N258 C252 1.369 . S
N258 C259 1.338 . S
N258 Gd263 2.622 1_455 S
C259 N258 1.338 . S
C259 C261 1.378 . S
C259 H271 0.929 1_455 S
C260 C256 1.413 . S
C260 C261 1.348 . S
C260 H276 0.931 . S
C261 C259 1.378 . S
C261 C260 1.348 . S
C261 H277 0.930 . S
Gd262 N282 2.622 . S
Gd262 N289 2.570 . S
Gd262 O296 2.353 1_655 S
Gd262 O297 2.468 . S
Gd262 O298 2.427 . S
Gd262 O300 2.388 . S
Gd262 O301 2.386 . S
Gd262 O305 2.307 . S
Gd262 C315 2.805 . S
Gd263 N258 2.622 1_655 S
Gd263 N264 2.570 1_655 S
Gd263 O295 2.386 1_655 S
Gd263 O299 2.307 . S
Gd263 O302 2.353 . S
Gd263 O303 2.468 . S
Gd263 O304 2.427 . S
Gd263 O306 2.388 . S
Gd263 C327 2.805 . S
N264 C254 1.359 . S
N264 Gd263 2.570 1_455 S
N264 C266 1.343 . S
C265 C253 1.422 . S
C265 C267 1.321 . S
C265 H273 0.931 . S
C266 N264 1.343 . S
C266 C267 1.390 . S
C266 H268 0.931 . S
C267 C265 1.321 . S
C267 C266 1.390 . S
C267 H269 0.930 . S
H268 C266 0.931 . S
H269 C267 0.930 . S
H270 C293 0.931 . S
H271 C259 0.929 1_655 S
H272 C294 0.930 . S
H273 C265 0.931 . S
H274 C255 0.930 . S
H275 C284 0.929 . S
H276 C260 0.931 . S
H277 C261 0.930 . S
H278 C316 0.930 . S
H279 C257 0.929 . S
H280 C285 0.931 . S
H281 C286 0.930 . S
N282 Gd262 2.622 . S
N282 C283 1.369 . S
N282 C284 1.338 . S
C283 N282 1.369 . S
C283 C287 1.415 . S
C283 C290 1.422 . S
C284 H275 0.929 . S
C284 N282 1.338 . S
C284 C286 1.378 . S
C285 H280 0.931 . S
C285 C286 1.348 . S
C285 C287 1.413 . S
C286 H281 0.930 . S
C286 C284 1.378 . S
C286 C285 1.348 . S
C287 C283 1.415 . S
C287 C285 1.413 . S
C287 C317 1.437 . S
H288 C317 0.929 . S
N289 Gd262 2.570 . S
N289 C290 1.359 . S
N289 C293 1.343 . S
C290 C283 1.422 . S
C290 N289 1.359 . S
C290 C292 1.421 . S
C291 C292 1.422 . S
C291 C294 1.321 . S
C291 H318 0.931 . S
C292 C290 1.421 . S
C292 C291 1.422 . S
C292 C316 1.417 . S
C293 H270 0.931 . S
C293 N289 1.343 . S
C293 C294 1.390 . S
C294 H272 0.930 . S
C294 C291 1.321 . S
C294 C293 1.390 . S
O295 Gd263 2.386 1_455 S
O295 C307 1.265 . S
O296 Gd262 2.353 1_455 S
O296 C307 1.242 . S
O297 Gd262 2.468 . S
O297 C315 1.263 . S
O298 Gd262 2.427 . S
O298 C315 1.252 . S
O299 Gd263 2.307 . S
O299 C308 1.261 . S
O300 Gd262 2.388 . S
O300 C308 1.252 . S
O301 Gd262 2.386 . S
O301 C319 1.265 . S
O302 Gd263 2.353 . S
O302 C319 1.242 . S
O303 Gd263 2.468 . S
O303 C327 1.263 . S
O304 Gd263 2.427 . S
O304 C327 1.252 . S
O305 Gd262 2.307 . S
O305 C320 1.261 . S
O306 Gd263 2.388 . S
O306 C320 1.252 . S
C307 O295 1.265 . S
C307 O296 1.242 . S
C308 O299 1.261 . S
C308 O300 1.252 . S
C309 C312 1.394 . S
C309 C314 1.370 . S
C309 C315 1.500 1_455 S
C310 C313 1.383 . S
C310 C314 1.395 . S
C311 C312 1.396 . S
C311 C313 1.365 . S
C311 H328 0.929 . S
C312 C309 1.394 . S
C312 C311 1.396 . S
C312 H329 0.930 . S
C313 C310 1.383 . S
C313 C311 1.365 . S
C313 H330 0.931 . S
C314 C309 1.370 . S
C314 C310 1.395 . S
C314 H331 0.930 . S
C315 Gd262 2.805 . S
C315 O297 1.263 . S
C315 O298 1.252 . S
C315 C309 1.500 1_655 S
C316 H278 0.930 . S
C316 C292 1.417 . S
C316 C317 1.329 . S
C317 C287 1.437 . S
C317 H288 0.929 . S
C317 C316 1.329 . S
H318 C291 0.931 . S
C319 O301 1.265 . S
C319 O302 1.242 . S
C320 O305 1.261 . S
C320 O306 1.252 . S
C321 C324 1.394 . S
C321 C326 1.370 . S
C321 C327 1.500 . S
C322 C325 1.383 . S
C322 C326 1.395 . S
C323 C324 1.396 . S
C323 C325 1.365 . S
C323 H332 0.929 . S
C324 C321 1.394 . S
C324 C323 1.396 . S
C324 H333 0.930 . S
C325 C322 1.383 . S
C325 C323 1.365 . S
C325 H334 0.931 . S
C326 C321 1.370 . S
C326 C322 1.395 . S
C326 H335 0.930 . S
C327 Gd263 2.805 . S
C327 O303 1.263 . S
C327 O304 1.252 . S
C327 C321 1.500 . S
H328 C311 0.929 . S
H329 C312 0.930 . S
H330 C313 0.931 . S
H331 C314 0.930 . S
H332 C323 0.929 . S
H333 C324 0.930 . S
H334 C325 0.931 . S
H335 C326 0.930 . S
C336 C338 1.422 . S
C336 C340 1.415 . S
C336 N342 1.369 . S
C337 C338 1.421 . S
C337 C339 1.417 . S
C337 C349 1.422 . S
C338 C336 1.422 . S
C338 C337 1.421 . S
C338 N348 1.359 . S
C339 C337 1.417 . S
C339 C341 1.329 . S
C339 H358 0.930 . S
C340 C336 1.415 . S
C340 C341 1.437 . S
C340 C344 1.413 . S
C341 C339 1.329 . S
C341 C340 1.437 . S
C341 H363 0.929 . S
N342 C336 1.369 . S
N342 C343 1.338 . S
N342 Gd347 2.622 . S
C343 N342 1.338 . S
C343 C345 1.378 . S
C343 H355 0.929 . S
C344 C340 1.413 . S
C344 C345 1.348 . S
C344 H360 0.931 . S
C345 C343 1.378 . S
C345 C344 1.348 . S
C345 H361 0.930 . S
Gd346 N366 2.622 . S
Gd346 N373 2.581 . S
Gd346 O380 2.354 . S
Gd346 O381 2.468 1_556 S
Gd346 O382 2.427 . S
Gd346 O384 2.388 . S
Gd346 O385 2.386 . S
Gd346 O389 2.307 1_556 S
Gd346 C399 2.805 . S
Gd347 N342 2.622 . S
Gd347 N348 2.570 . S
Gd347 O379 2.386 . S
Gd347 O383 2.307 1_554 S
Gd347 O386 2.353 . S
Gd347 O387 2.468 . S
Gd347 O388 2.427 . S
Gd347 O390 2.388 . S
Gd347 C411 2.805 . S
N348 C338 1.359 . S
N348 Gd347 2.570 . S
N348 C350 1.343 1_554 S
C349 C337 1.422 . S
C349 C351 1.321 1_554 S
C349 H357 0.931 . S
C350 N348 1.343 1_556 S
C350 C351 1.390 . S
C350 H352 0.931 . S
C351 C349 1.321 1_556 S
C351 C350 1.390 . S
C351 H353 0.930 . S
H352 C350 0.931 . S
H353 C351 0.930 . S
H354 C377 0.931 . S
H355 C343 0.929 . S
H356 C378 0.930 . S
H357 C349 0.931 . S
H358 C339 0.930 . S
H359 C368 0.929 . S
H360 C344 0.931 . S
H361 C345 0.930 . S
H362 C400 0.930 . S
H363 C341 0.929 . S
H364 C369 0.931 . S
H365 C370 0.930 . S
N366 Gd346 2.622 . S
N366 C367 1.369 . S
N366 C368 1.338 . S
C367 N366 1.369 . S
C367 C371 1.415 . S
C367 C374 1.422 . S
C368 H359 0.929 . S
C368 N366 1.338 . S
C368 C370 1.378 . S
C369 H364 0.931 . S
C369 C370 1.348 . S
C369 C371 1.413 . S
C370 H365 0.930 . S
C370 C368 1.378 . S
C370 C369 1.348 . S
C371 C367 1.415 . S
C371 C369 1.413 . S
C371 C401 1.437 . S
H372 C401 0.929 . S
N373 Gd346 2.581 . S
N373 C374 1.374 . S
N373 C377 1.317 1_556 S
C374 C367 1.422 . S
C374 N373 1.374 . S
C374 C376 1.421 . S
C375 C376 1.422 1_554 S
C375 C378 1.321 . S
C375 H402 0.931 . S
C376 C374 1.421 . S
C376 C375 1.422 1_556 S
C376 C400 1.417 . S
C377 H354 0.931 . S
C377 N373 1.317 1_554 S
C377 C378 1.390 . S
C378 H356 0.930 . S
C378 C375 1.321 . S
C378 C377 1.390 . S
O379 Gd347 2.386 . S
O379 C391 1.265 . S
O380 Gd346 2.354 . S
O380 C391 1.241 1_556 S
O381 Gd346 2.468 1_554 S
O381 C399 1.263 1_554 S
O382 Gd346 2.427 . S
O382 C399 1.252 . S
O383 Gd347 2.307 1_556 S
O383 C392 1.261 . S
O384 Gd346 2.388 . S
O384 C392 1.252 . S
O385 Gd346 2.386 . S
O385 C403 1.265 1_556 S
O386 Gd347 2.353 . S
O386 C403 1.242 . S
O387 Gd347 2.468 . S
O387 C411 1.263 . S
O388 Gd347 2.427 . S
O388 C411 1.252 . S
O389 Gd346 2.307 1_554 S
O389 C404 1.261 . S
O390 Gd347 2.388 . S
O390 C404 1.252 . S
C391 O379 1.265 . S
C391 O380 1.241 1_554 S
C392 O383 1.261 . S
C392 O384 1.252 . S
C393 C396 1.394 . S
C393 C398 1.370 1_556 S
C393 C399 1.500 . S
C394 C397 1.382 1_554 S
C394 C398 1.395 . S
C395 C396 1.396 . S
C395 C397 1.365 . S
C395 H412 0.929 . S
C396 C393 1.394 . S
C396 C395 1.396 . S
C396 H413 0.930 . S
C397 C394 1.382 1_556 S
C397 C395 1.365 . S
C397 H414 0.931 . S
C398 C393 1.370 1_554 S
C398 C394 1.395 . S
C398 H415 0.930 . S
C399 Gd346 2.805 . S
C399 O381 1.263 1_556 S
C399 O382 1.252 . S
C399 C393 1.500 . S
C400 H362 0.930 . S
C400 C376 1.417 . S
C400 C401 1.329 . S
C401 C371 1.437 . S
C401 H372 0.929 . S
C401 C400 1.329 . S
H402 C375 0.931 . S
C403 O385 1.265 1_554 S
C403 O386 1.242 . S
C404 O389 1.261 . S
C404 O390 1.252 . S
C405 C408 1.394 . S
C405 C410 1.370 . S
C405 C411 1.500 . S
C406 C409 1.383 . S
C406 C410 1.395 . S
C407 C408 1.396 . S
C407 C409 1.365 . S
C407 H416 0.929 . S
C408 C405 1.394 . S
C408 C407 1.396 . S
C408 H417 0.930 . S
C409 C406 1.383 . S
C409 C407 1.365 . S
C409 H418 0.931 . S
C410 C405 1.370 . S
C410 C406 1.395 . S
C410 H419 0.930 1_554 S
C411 Gd347 2.805 . S
C411 O387 1.263 . S
C411 O388 1.252 . S
C411 C405 1.500 . S
H412 C395 0.929 . S
H413 C396 0.930 . S
H414 C397 0.931 . S
H415 C398 0.930 . S
H416 C407 0.929 . S
H417 C408 0.930 . S
H418 C409 0.931 . S
H419 C410 0.930 1_556 S
C420 C422 1.422 . S
C420 C424 1.415 . S
C420 N426 1.369 . S
C421 C422 1.421 . S
C421 C423 1.417 . S
C421 C433 1.422 . S
C422 C420 1.422 . S
C422 C421 1.421 . S
C422 N432 1.359 . S
C423 C421 1.417 . S
C423 C425 1.329 . S
C423 H442 0.930 . S
C424 C420 1.415 . S
C424 C425 1.437 . S
C424 C428 1.413 . S
C425 C423 1.329 . S
C425 C424 1.437 . S
C425 H447 0.929 . S
N426 C420 1.369 . S
N426 C427 1.338 . S
N426 Gd431 2.622 . S
C427 N426 1.338 . S
C427 C429 1.378 . S
C427 H439 0.929 . S
C428 C424 1.413 . S
C428 C429 1.348 . S
C428 H444 0.931 . S
C429 C427 1.378 . S
C429 C428 1.348 . S
C429 H445 0.930 . S
Gd430 N450 2.622 . S
Gd430 N457 2.570 1_556 S
Gd430 O464 2.353 1_556 S
Gd430 O465 2.468 1_556 S
Gd430 O466 2.427 . S
Gd430 O468 2.388 . S
Gd430 O469 2.386 . S
Gd430 O473 2.307 1_556 S
Gd430 C483 2.805 . S
Gd431 N426 2.622 . S
Gd431 N432 2.570 . S
Gd431 O463 2.386 . S
Gd431 O467 2.307 1_554 S
Gd431 O470 2.353 . S
Gd431 O471 2.468 . S
Gd431 O472 2.427 . S
Gd431 O474 2.388 . S
Gd431 C495 2.805 . S
N432 C422 1.359 . S
N432 Gd431 2.570 . S
N432 C434 1.320 1_554 S
C433 C421 1.422 . S
C433 C435 1.321 1_554 S
C433 H441 0.931 . S
C434 N432 1.320 1_556 S
C434 C435 1.400 . S
C434 H436 0.945 . S
C435 C433 1.321 1_556 S
C435 C434 1.400 . S
C435 H437 0.930 . S
H436 C434 0.945 . S
H437 C435 0.930 . S
H438 C461 0.931 . S
H439 C427 0.929 . S
H440 C462 0.930 . S
H441 C433 0.931 . S
H442 C423 0.930 . S
H443 C452 0.929 . S
H444 C428 0.931 . S
H445 C429 0.930 . S
H446 C484 0.930 . S
H447 C425 0.929 . S
H448 C453 0.931 . S
H449 C454 0.930 . S
N450 Gd430 2.622 . S
N450 C451 1.369 . S
N450 C452 1.338 . S
C451 N450 1.369 . S
C451 C455 1.415 . S
C451 C458 1.422 . S
C452 H443 0.929 . S
C452 N450 1.338 . S
C452 C454 1.378 . S
C453 H448 0.931 . S
C453 C454 1.348 . S
C453 C455 1.413 . S
C454 H449 0.930 . S
C454 C452 1.378 . S
C454 C453 1.348 . S
C455 C451 1.415 . S
C455 C453 1.413 . S
C455 C485 1.437 . S
H456 C485 0.929 . S
N457 Gd430 2.570 1_554 S
N457 C458 1.359 1_554 S
N457 C461 1.343 . S
C458 C451 1.422 . S
C458 N457 1.359 1_556 S
C458 C460 1.421 . S
C459 C460 1.422 1_554 S
C459 C462 1.321 . S
C459 H486 0.931 . S
C460 C458 1.421 . S
C460 C459 1.422 1_556 S
C460 C484 1.417 . S
C461 H438 0.931 . S
C461 N457 1.343 . S
C461 C462 1.390 . S
C462 H440 0.930 . S
C462 C459 1.321 . S
C462 C461 1.390 . S
O463 Gd431 2.386 . S
O463 C475 1.265 . S
O464 Gd430 2.353 1_554 S
O464 C475 1.242 . S
O465 Gd430 2.468 1_554 S
O465 C483 1.263 1_554 S
O466 Gd430 2.427 . S
O466 C483 1.252 . S
O467 Gd431 2.307 1_556 S
O467 C476 1.261 . S
O468 Gd430 2.388 . S
O468 C476 1.252 . S
O469 Gd430 2.386 . S
O469 C487 1.265 1_556 S
O470 Gd431 2.353 . S
O470 C487 1.242 . S
O471 Gd431 2.468 . S
O471 C495 1.263 . S
O472 Gd431 2.427 . S
O472 C495 1.252 . S
O473 Gd430 2.307 1_554 S
O473 C488 1.261 . S
O474 Gd431 2.388 . S
O474 C488 1.252 . S
C475 O463 1.265 . S
C475 O464 1.242 . S
C476 O467 1.261 . S
C476 O468 1.252 . S
C477 C480 1.394 . S
C477 C482 1.370 1_556 S
C477 C483 1.500 . S
C478 C481 1.383 1_554 S
C478 C482 1.395 . S
C479 C480 1.396 . S
C479 C481 1.365 . S
C479 H496 0.929 . S
C480 C477 1.394 . S
C480 C479 1.396 . S
C480 H497 0.930 . S
C481 C478 1.383 1_556 S
C481 C479 1.365 . S
C481 H498 0.931 . S
C482 C477 1.370 1_554 S
C482 C478 1.395 . S
C482 H499 0.930 . S
C483 Gd430 2.805 . S
C483 O465 1.263 1_556 S
C483 O466 1.252 . S
C483 C477 1.500 . S
C484 H446 0.930 . S
C484 C460 1.417 . S
C484 C485 1.329 . S
C485 C455 1.437 . S
C485 H456 0.929 . S
C485 C484 1.329 . S
H486 C459 0.931 . S
C487 O469 1.265 1_554 S
C487 O470 1.242 . S
C488 O473 1.261 . S
C488 O474 1.252 . S
C489 C492 1.394 . S
C489 C494 1.370 . S
C489 C495 1.500 . S
C490 C493 1.383 . S
C490 C494 1.395 . S
C491 C492 1.396 . S
C491 C493 1.365 . S
C491 H500 0.929 . S
C492 C489 1.394 . S
C492 C491 1.396 . S
C492 H501 0.930 . S
C493 C490 1.383 . S
C493 C491 1.365 . S
C493 H502 0.931 . S
C494 C489 1.370 . S
C494 C490 1.395 . S
C494 H503 0.930 . S
C495 Gd431 2.805 . S
C495 O471 1.263 . S
C495 O472 1.252 . S
C495 C489 1.500 . S
H496 C479 0.929 . S
H497 C480 0.930 . S
H498 C481 0.931 . S
H499 C482 0.930 . S
H500 C491 0.929 . S
H501 C492 0.930 . S
H502 C493 0.931 . S
H503 C494 0.930 . S
C504 C506 1.422 . S
C504 C508 1.415 . S
C504 N510 1.369 . S
C505 C506 1.421 . S
C505 C507 1.417 . S
C505 C517 1.422 . S
C506 C504 1.422 . S
C506 C505 1.421 . S
C506 N516 1.359 . S
C507 C505 1.417 . S
C507 C509 1.329 . S
C507 H526 0.930 . S
C508 C504 1.415 . S
C508 C509 1.437 . S
C508 C512 1.413 . S
C509 C507 1.329 . S
C509 C508 1.437 . S
C509 H531 0.929 . S
N510 C504 1.369 . S
N510 C511 1.338 . S
N510 Gd515 2.622 . S
C511 N510 1.338 . S
C511 C513 1.378 . S
C511 H523 0.929 . S
C512 C508 1.413 . S
C512 C513 1.348 . S
C512 H528 0.931 . S
C513 C511 1.378 . S
C513 C512 1.348 . S
C513 H529 0.930 . S
Gd514 N534 2.622 . S
Gd514 N541 2.570 . S
Gd514 O548 2.353 . S
Gd514 O549 2.468 . S
Gd514 O550 2.427 . S
Gd514 O552 2.388 . S
Gd514 O553 2.386 . S
Gd514 O557 2.307 . S
Gd514 C567 2.805 . S
Gd515 N510 2.622 . S
Gd515 N516 2.570 . S
Gd515 O547 2.386 . S
Gd515 O551 2.307 . S
Gd515 O554 2.353 . S
Gd515 O555 2.468 . S
Gd515 O556 2.427 . S
Gd515 O558 2.388 . S
Gd515 C579 2.805 . S
N516 C506 1.359 . S
N516 Gd515 2.570 . S
N516 C518 1.343 . S
C517 C505 1.422 . S
C517 C519 1.321 . S
C517 H525 0.931 . S
C518 N516 1.343 . S
C518 C519 1.390 . S
C518 H520 0.931 . S
C519 C517 1.321 . S
C519 C518 1.390 . S
C519 H521 0.930 . S
H520 C518 0.931 . S
H521 C519 0.930 . S
H522 C545 0.931 . S
H523 C511 0.929 . S
H524 C546 0.930 . S
H525 C517 0.931 . S
H526 C507 0.930 . S
H527 C536 0.929 . S
H528 C512 0.931 . S
H529 C513 0.930 . S
H530 C568 0.930 . S
H531 C509 0.929 . S
H532 C537 0.931 . S
H533 C538 0.930 . S
N534 Gd514 2.622 . S
N534 C535 1.369 . S
N534 C536 1.338 . S
C535 N534 1.369 . S
C535 C539 1.415 . S
C535 C542 1.422 . S
C536 H527 0.929 . S
C536 N534 1.338 . S
C536 C538 1.378 . S
C537 H532 0.931 . S
C537 C538 1.348 . S
C537 C539 1.413 . S
C538 H533 0.930 . S
C538 C536 1.378 . S
C538 C537 1.348 . S
C539 C535 1.415 . S
C539 C537 1.413 . S
C539 C569 1.437 . S
H540 C569 0.929 . S
N541 Gd514 2.570 . S
N541 C542 1.359 . S
N541 C545 1.343 . S
C542 C535 1.422 . S
C542 N541 1.359 . S
C542 C544 1.421 . S
C543 C544 1.422 . S
C543 C546 1.321 . S
C543 H570 0.931 . S
C544 C542 1.421 . S
C544 C543 1.422 . S
C544 C568 1.417 . S
C545 H522 0.931 . S
C545 N541 1.343 . S
C545 C546 1.390 . S
C546 H524 0.930 . S
C546 C543 1.321 . S
C546 C545 1.390 . S
O547 Gd515 2.386 . S
O547 C559 1.265 . S
O548 Gd514 2.353 . S
O548 C559 1.242 . S
O549 Gd514 2.468 . S
O549 C567 1.263 . S
O550 Gd514 2.427 . S
O550 C567 1.252 . S
O551 Gd515 2.307 . S
O551 C560 1.261 . S
O552 Gd514 2.388 . S
O552 C560 1.252 . S
O553 Gd514 2.386 . S
O553 C571 1.265 . S
O554 Gd515 2.353 . S
O554 C571 1.242 . S
O555 Gd515 2.468 . S
O555 C579 1.263 . S
O556 Gd515 2.427 . S
O556 C579 1.252 . S
O557 Gd514 2.307 . S
O557 C572 1.261 . S
O558 Gd515 2.388 . S
O558 C572 1.252 . S
C559 O547 1.265 . S
C559 O548 1.242 . S
C560 O551 1.261 . S
C560 O552 1.252 . S
C561 C564 1.394 . S
C561 C566 1.370 . S
C561 C567 1.500 . S
C562 C565 1.383 . S
C562 C566 1.395 . S
C563 C564 1.396 . S
C563 C565 1.365 . S
C563 H580 0.929 . S
C564 C561 1.394 . S
C564 C563 1.396 . S
C564 H581 0.930 . S
C565 C562 1.383 . S
C565 C563 1.365 . S
C565 H582 0.931 . S
C566 C561 1.370 . S
C566 C562 1.395 . S
C566 H583 0.930 . S
C567 Gd514 2.805 . S
C567 O549 1.263 . S
C567 O550 1.252 . S
C567 C561 1.500 . S
C568 H530 0.930 . S
C568 C544 1.417 . S
C568 C569 1.329 . S
C569 C539 1.437 . S
C569 H540 0.929 . S
C569 C568 1.329 . S
H570 C543 0.931 . S
C571 O553 1.265 . S
C571 O554 1.242 . S
C572 O557 1.261 . S
C572 O558 1.252 . S
C573 C576 1.394 . S
C573 C578 1.370 . S
C573 C579 1.500 . S
C574 C577 1.383 . S
C574 C578 1.395 . S
C575 C576 1.396 . S
C575 C577 1.365 . S
C575 H584 0.929 . S
C576 C573 1.394 . S
C576 C575 1.396 . S
C576 H585 0.930 . S
C577 C574 1.383 . S
C577 C575 1.365 . S
C577 H586 0.931 . S
C578 C573 1.370 . S
C578 C574 1.395 . S
C578 H587 0.930 . S
C579 Gd515 2.805 . S
C579 O555 1.263 . S
C579 O556 1.252 . S
C579 C573 1.500 . S
H580 C563 0.929 . S
H581 C564 0.930 . S
H582 C565 0.931 . S
H583 C566 0.930 . S
H584 C575 0.929 . S
H585 C576 0.930 . S
H586 C577 0.931 . S
H587 C578 0.930 . S
C588 C590 1.422 . S
C588 C592 1.415 . S
C588 N594 1.369 . S
C589 C590 1.421 . S
C589 C591 1.417 . S
C589 C601 1.422 . S
C590 C588 1.422 . S
C590 C589 1.421 . S
C590 N600 1.359 . S
C591 C589 1.417 . S
C591 C593 1.329 . S
C591 H610 0.930 . S
C592 C588 1.415 . S
C592 C593 1.437 . S
C592 C596 1.413 . S
C593 C591 1.329 . S
C593 C592 1.437 . S
C593 H615 0.929 . S
N594 C588 1.369 . S
N594 C595 1.338 . S
N594 Gd599 2.622 . S
C595 N594 1.338 . S
C595 C597 1.378 . S
C595 H607 0.929 . S
C596 C592 1.413 . S
C596 C597 1.348 . S
C596 H612 0.931 . S
C597 C595 1.378 . S
C597 C596 1.348 . S
C597 H613 0.930 . S
Gd598 N618 2.622 . S
Gd598 N625 2.570 . S
Gd598 O632 2.353 . S
Gd598 O633 2.468 . S
Gd598 O634 2.427 . S
Gd598 O636 2.388 . S
Gd598 O637 2.386 . S
Gd598 O641 2.307 . S
Gd598 C651 2.805 . S
Gd599 N594 2.622 . S
Gd599 N600 2.570 . S
Gd599 O631 2.386 . S
Gd599 O635 2.307 . S
Gd599 O638 2.353 . S
Gd599 O639 2.468 . S
Gd599 O640 2.427 . S
Gd599 O642 2.388 . S
Gd599 C663 2.805 . S
N600 C590 1.359 . S
N600 Gd599 2.570 . S
N600 C602 1.343 . S
C601 C589 1.422 . S
C601 C603 1.321 . S
C601 H609 0.931 . S
C602 N600 1.343 . S
C602 C603 1.390 . S
C602 H604 0.931 . S
C603 C601 1.321 . S
C603 C602 1.390 . S
C603 H605 0.930 . S
H604 C602 0.931 . S
H605 C603 0.930 . S
H606 C629 0.931 . S
H607 C595 0.929 . S
H608 C630 0.930 . S
H609 C601 0.931 . S
H610 C591 0.930 . S
H611 C620 0.929 . S
H612 C596 0.931 . S
H613 C597 0.930 . S
H614 C652 0.930 . S
H615 C593 0.929 . S
H616 C621 0.931 . S
H617 C622 0.930 . S
N618 Gd598 2.622 . S
N618 C619 1.369 . S
N618 C620 1.338 . S
C619 N618 1.369 . S
C619 C623 1.415 . S
C619 C626 1.422 . S
C620 H611 0.929 . S
C620 N618 1.338 . S
C620 C622 1.378 . S
C621 H616 0.931 . S
C621 C622 1.348 . S
C621 C623 1.413 . S
C622 H617 0.930 . S
C622 C620 1.378 . S
C622 C621 1.348 . S
C623 C619 1.415 . S
C623 C621 1.413 . S
C623 C653 1.437 . S
H624 C653 0.929 . S
N625 Gd598 2.570 . S
N625 C626 1.359 . S
N625 C629 1.343 . S
C626 C619 1.422 . S
C626 N625 1.359 . S
C626 C628 1.421 . S
C627 C628 1.422 . S
C627 C630 1.321 . S
C627 H654 0.931 . S
C628 C626 1.421 . S
C628 C627 1.422 . S
C628 C652 1.417 . S
C629 H606 0.931 . S
C629 N625 1.343 . S
C629 C630 1.390 . S
C630 H608 0.930 . S
C630 C627 1.321 . S
C630 C629 1.390 . S
O631 Gd599 2.386 . S
O631 C643 1.265 . S
O632 Gd598 2.353 . S
O632 C643 1.242 . S
O633 Gd598 2.468 . S
O633 C651 1.263 . S
O634 Gd598 2.427 . S
O634 C651 1.252 . S
O635 Gd599 2.307 . S
O635 C644 1.261 . S
O636 Gd598 2.388 . S
O636 C644 1.252 . S
O637 Gd598 2.386 . S
O637 C655 1.265 . S
O638 Gd599 2.353 . S
O638 C655 1.242 . S
O639 Gd599 2.468 . S
O639 C663 1.263 . S
O640 Gd599 2.427 . S
O640 C663 1.252 . S
O641 Gd598 2.307 . S
O641 C656 1.261 . S
O642 Gd599 2.388 . S
O642 C656 1.252 . S
C643 O631 1.265 . S
C643 O632 1.242 . S
C644 O635 1.261 . S
C644 O636 1.252 . S
C645 C648 1.394 . S
C645 C650 1.370 . S
C645 C651 1.500 . S
C646 C649 1.383 . S
C646 C650 1.395 . S
C647 C648 1.396 . S
C647 C649 1.365 . S
C647 H664 0.929 . S
C648 C645 1.394 . S
C648 C647 1.396 . S
C648 H665 0.930 . S
C649 C646 1.383 . S
C649 C647 1.365 . S
C649 H666 0.931 . S
C650 C645 1.370 . S
C650 C646 1.395 . S
C650 H667 0.930 . S
C651 Gd598 2.805 . S
C651 O633 1.263 . S
C651 O634 1.252 . S
C651 C645 1.500 . S
C652 H614 0.930 . S
C652 C628 1.417 . S
C652 C653 1.329 . S
C653 C623 1.437 . S
C653 H624 0.929 . S
C653 C652 1.329 . S
H654 C627 0.931 . S
C655 O637 1.265 . S
C655 O638 1.242 . S
C656 O641 1.261 . S
C656 O642 1.252 . S
C657 C660 1.394 . S
C657 C662 1.370 . S
C657 C663 1.500 . S
C658 C661 1.383 . S
C658 C662 1.395 . S
C659 C660 1.396 . S
C659 C661 1.365 . S
C659 H668 0.929 . S
C660 C657 1.394 . S
C660 C659 1.396 . S
C660 H669 0.930 . S
C661 C658 1.383 . S
C661 C659 1.365 . S
C661 H670 0.931 . S
C662 C657 1.370 . S
C662 C658 1.395 . S
C662 H671 0.930 . S
C663 Gd599 2.805 . S
C663 O639 1.263 . S
C663 O640 1.252 . S
C663 C657 1.500 . S
H664 C647 0.929 . S
H665 C648 0.930 . S
H666 C649 0.931 . S
H667 C650 0.930 . S
H668 C659 0.929 . S
H669 C660 0.930 . S
H670 C661 0.931 . S
H671 C662 0.930 . S
H672 C680 0.929 . S
H673 C682 0.930 . S
H674 C684 0.930 . S
H675 C687 0.929 . S
H676 C690 0.930 . S
H677 C692 0.960 . S
H678 C692 0.960 1_556 S
H679 C692 0.960 . S
C680 H672 0.929 . S
C680 C681 1.377 1_556 S
C680 C682 1.384 . S
C681 C680 1.377 1_554 S
C681 C687 1.390 . S
C682 H673 0.930 . S
C682 C680 1.384 . S
C682 C683 1.372 1_556 S
C683 C682 1.372 1_554 S
C683 C684 1.400 . S
C683 C688 1.490 . S
C684 H674 0.930 . S
C684 C683 1.400 . S
C684 C687 1.386 . S
H685 C701 0.930 . S
H686 C702 0.931 . S
C687 H675 0.929 . S
C687 C681 1.390 . S
C687 C684 1.386 . S
C688 C683 1.490 . S
C688 C690 1.395 . S
C688 C691 1.403 . S
H689 C695 0.930 . S
C690 H676 0.930 . S
C690 C688 1.395 . S
C690 C693 1.403 . S
C691 C688 1.403 . S
C691 C692 1.524 . S
C691 C695 1.400 . S
C692 H677 0.960 . S
C692 H678 0.960 1_554 S
C692 H679 0.960 . S
C692 C691 1.524 . S
C693 C690 1.403 . S
C693 C694 1.392 . S
C693 C697 1.495 . S
C694 C693 1.392 . S
C694 C695 1.385 . S
C694 C696 1.478 . S
C695 H689 0.930 . S
C695 C691 1.400 . S
C695 C694 1.385 . S
C696 C694 1.478 . S
C696 C698 1.381 1_554 S
C696 C702 1.383 . S
C697 C693 1.495 . S
C697 H703 0.972 . S
C697 H704 0.961 . S
C697 H705 0.960 1_554 S
C698 C696 1.381 1_556 S
C698 C699 1.394 . S
C698 H706 0.930 . S
C699 C698 1.394 . S
C699 C700 1.383 1_556 S
C699 H707 0.929 . S
C700 C699 1.383 1_554 S
C700 C701 1.377 . S
C701 H685 0.930 . S
C701 C700 1.377 . S
C701 C702 1.379 . S
C702 H686 0.931 . S
C702 C696 1.383 . S
C702 C701 1.379 . S
H703 C697 0.972 . S
H704 C697 0.961 . S
H705 C697 0.960 1_556 S
H706 C698 0.930 . S
H707 C699 0.929 . S
H708 C716 0.929 . S
H709 C718 0.930 . S
H710 C720 0.930 1_556 S
H711 C723 0.929 1_556 S
H712 C726 0.930 1_556 S
H713 C728 0.960 . S
H714 C728 0.960 . S
H715 C728 0.960 . S
C716 H708 0.929 . S
C716 C717 1.377 . S
C716 C718 1.384 . S
C717 C716 1.377 . S
C717 C723 1.390 . S
C718 H709 0.930 . S
C718 C716 1.384 . S
C718 C719 1.372 . S
C719 C718 1.372 . S
C719 C720 1.400 . S
C719 C724 1.490 . S
C720 H710 0.930 1_554 S
C720 C719 1.400 . S
C720 C723 1.386 . S
H721 C737 0.947 . S
H722 C738 0.931 . S
C723 H711 0.929 1_554 S
C723 C717 1.390 . S
C723 C720 1.386 . S
C724 C719 1.490 . S
C724 C726 1.395 . S
C724 C727 1.403 . S
H725 C731 0.930 . S
C726 H712 0.930 1_554 S
C726 C724 1.395 . S
C726 C729 1.404 . S
C727 C724 1.403 . S
C727 C728 1.524 . S
C727 C731 1.400 . S
C728 H713 0.960 . S
C728 H714 0.960 . S
C728 H715 0.960 . S
C728 C727 1.524 . S
C729 C726 1.404 . S
C729 C730 1.393 . S
C729 C733 1.494 1_554 S
C730 C729 1.393 . S
C730 C731 1.385 . S
C730 C732 1.478 . S
C731 H725 0.930 . S
C731 C727 1.400 . S
C731 C730 1.385 . S
C732 C730 1.478 . S
C732 C734 1.381 . S
C732 C738 1.383 1_554 S
C733 C729 1.494 1_556 S
C733 H739 0.959 . S
C733 H740 0.961 . S
C733 H741 0.960 . S
C734 C732 1.381 . S
C734 C735 1.394 . S
C734 H742 0.930 . S
C735 C734 1.394 . S
C735 C736 1.383 . S
C735 H743 0.929 . S
C736 C735 1.383 . S
C736 C737 1.360 1_554 S
C737 H721 0.947 . S
C737 C736 1.360 1_556 S
C737 C738 1.379 . S
C738 H722 0.931 . S
C738 C732 1.383 1_556 S
C738 C737 1.379 . S
H739 C733 0.959 . S
H740 C733 0.961 . S
H741 C733 0.960 . S
H742 C734 0.930 . S
H743 C735 0.929 . S
H744 C752 0.929 . S
H745 C754 0.930 . S
H746 C756 0.930 . S
H747 C759 0.929 . S
H748 C762 0.930 . S
H749 C764 0.960 . S
H750 C764 0.960 . S
H751 C764 0.960 . S
C752 H744 0.929 . S
C752 C753 1.377 . S
C752 C754 1.384 . S
C753 C752 1.377 . S
C753 C759 1.390 . S
C754 H745 0.930 . S
C754 C752 1.384 . S
C754 C755 1.372 . S
C755 C754 1.372 . S
C755 C756 1.400 . S
C755 C760 1.490 . S
C756 H746 0.930 . S
C756 C755 1.400 . S
C756 C759 1.386 . S
H757 C773 0.930 . S
H758 C774 0.931 . S
C759 H747 0.929 . S
C759 C753 1.390 . S
C759 C756 1.386 . S
C760 C755 1.490 . S
C760 C762 1.395 . S
C760 C763 1.403 . S
H761 C767 0.930 . S
C762 H748 0.930 . S
C762 C760 1.395 . S
C762 C765 1.403 . S
C763 C760 1.403 . S
C763 C764 1.524 . S
C763 C767 1.400 . S
C764 H749 0.960 . S
C764 H750 0.960 . S
C764 H751 0.960 . S
C764 C763 1.524 . S
C765 C762 1.403 . S
C765 C766 1.392 . S
C765 C769 1.495 . S
C766 C765 1.392 . S
C766 C767 1.385 . S
C766 C768 1.478 . S
C767 H761 0.930 . S
C767 C763 1.400 . S
C767 C766 1.385 . S
C768 C766 1.478 . S
C768 C770 1.381 . S
C768 C774 1.383 . S
C769 C765 1.495 . S
C769 H775 0.959 . S
C769 H776 0.961 . S
C769 H777 0.960 . S
C770 C768 1.381 . S
C770 C771 1.394 . S
C770 H778 0.930 . S
C771 C770 1.394 . S
C771 C772 1.383 . S
C771 H779 0.929 . S
C772 C771 1.383 . S
C772 C773 1.377 . S
C773 H757 0.930 . S
C773 C772 1.377 . S
C773 C774 1.379 . S
C774 H758 0.931 . S
C774 C768 1.383 . S
C774 C773 1.379 . S
H775 C769 0.959 . S
H776 C769 0.961 . S
H777 C769 0.960 . S
H778 C770 0.930 . S
H779 C771 0.929 . S
H780 C788 0.929 . S
H781 C790 0.930 . S
H782 C792 0.930 . S
H783 C795 0.929 . S
H784 C798 0.930 . S
H785 C800 0.960 . S
H786 C800 0.960 . S
H787 C800 0.960 . S
C788 H780 0.929 . S
C788 C789 1.377 . S
C788 C790 1.384 . S
C789 C788 1.377 . S
C789 C795 1.390 . S
C790 H781 0.930 . S
C790 C788 1.384 . S
C790 C791 1.372 . S
C791 C790 1.372 . S
C791 C792 1.400 . S
C791 C796 1.490 . S
C792 H782 0.930 . S
C792 C791 1.400 . S
C792 C795 1.386 . S
H793 C809 0.930 . S
H794 C810 0.931 . S
C795 H783 0.929 . S
C795 C789 1.390 . S
C795 C792 1.386 . S
C796 C791 1.490 . S
C796 C798 1.395 . S
C796 C799 1.403 . S
H797 C803 0.930 . S
C798 H784 0.930 . S
C798 C796 1.395 . S
C798 C801 1.403 . S
C799 C796 1.403 . S
C799 C800 1.524 . S
C799 C803 1.400 . S
C800 H785 0.960 . S
C800 H786 0.960 . S
C800 H787 0.960 . S
C800 C799 1.524 . S
C801 C798 1.403 . S
C801 C802 1.392 . S
C801 C805 1.495 . S
C802 C801 1.392 . S
C802 C803 1.385 . S
C802 C804 1.478 . S
C803 H797 0.930 . S
C803 C799 1.400 . S
C803 C802 1.385 . S
C804 C802 1.478 . S
C804 C806 1.381 . S
C804 C810 1.383 . S
C805 C801 1.495 . S
C805 H811 0.959 . S
C805 H812 0.961 . S
C805 H813 0.960 . S
C806 C804 1.381 . S
C806 C807 1.394 . S
C806 H814 0.930 . S
C807 C806 1.394 . S
C807 C808 1.383 . S
C807 H815 0.929 . S
C808 C807 1.383 . S
C808 C809 1.377 . S
C809 H793 0.930 . S
C809 C808 1.377 . S
C809 C810 1.379 . S
C810 H794 0.931 . S
C810 C804 1.383 . S
C810 C809 1.379 . S
H811 C805 0.959 . S
H812 C805 0.961 . S
H813 C805 0.960 . S
H814 C806 0.930 . S
H815 C807 0.929 . S
H816 C824 0.929 . S
H817 C826 0.930 . S
H818 C828 0.930 . S
H819 C831 0.929 . S
H820 C834 0.930 1_655 S
H821 C836 0.960 . S
H822 C836 0.960 1_655 S
H823 C836 0.960 1_655 S
C824 H816 0.929 . S
C824 C825 1.377 1_556 S
C824 C826 1.384 . S
C825 C824 1.377 1_554 S
C825 C831 1.390 . S
C826 H817 0.930 . S
C826 C824 1.384 . S
C826 C827 1.372 1_556 S
C827 C826 1.372 1_554 S
C827 C828 1.400 . S
C827 C832 1.490 . S
C828 H818 0.930 . S
C828 C827 1.400 . S
C828 C831 1.386 . S
H829 C845 0.930 . S
H830 C846 0.931 . S
C831 H819 0.929 . S
C831 C825 1.390 . S
C831 C828 1.386 . S
C832 C827 1.490 . S
C832 C834 1.395 1_655 S
C832 C835 1.403 1_654 S
H833 C839 0.930 . S
C834 H820 0.930 1_455 S
C834 C832 1.395 1_455 S
C834 C837 1.403 . S
C835 C832 1.403 1_456 S
C835 C836 1.524 . S
C835 C839 1.400 . S
C836 H821 0.960 . S
C836 H822 0.960 1_455 S
C836 H823 0.960 1_455 S
C836 C835 1.524 . S
C837 C834 1.403 . S
C837 C838 1.392 . S
C837 C841 1.495 . S
C838 C837 1.392 . S
C838 C839 1.385 1_554 S
C838 C840 1.478 . S
C839 H833 0.930 . S
C839 C835 1.400 . S
C839 C838 1.385 1_556 S
C840 C838 1.478 . S
C840 C842 1.381 . S
C840 C846 1.383 . S
C841 C837 1.495 . S
C841 H847 0.959 . S
C841 H848 0.961 . S
C841 H849 0.960 . S
C842 C840 1.381 . S
C842 C843 1.394 . S
C842 H850 0.930 1_554 S
C843 C842 1.394 . S
C843 C844 1.383 . S
C843 H851 0.929 1_554 S
C844 C843 1.383 . S
C844 C845 1.377 . S
C845 H829 0.930 . S
C845 C844 1.377 . S
C845 C846 1.379 . S
C846 H830 0.931 . S
C846 C840 1.383 . S
C846 C845 1.379 . S
H847 C841 0.959 . S
H848 C841 0.961 . S
H849 C841 0.960 . S
H850 C842 0.930 1_556 S
H851 C843 0.929 1_556 S
H852 C860 0.929 . S
H853 C862 0.930 . S
H854 C864 0.930 . S
H855 C867 0.929 . S
H856 C870 0.930 1_455 S
H857 C872 0.960 . S
H858 C872 0.960 1_455 S
H859 C872 0.960 1_455 S
C860 H852 0.929 . S
C860 C861 1.377 1_556 S
C860 C862 1.384 . S
C861 C860 1.377 1_554 S
C861 C867 1.390 . S
C862 H853 0.930 . S
C862 C860 1.384 . S
C862 C863 1.372 1_556 S
C863 C862 1.372 1_554 S
C863 C864 1.400 . S
C863 C868 1.490 . S
C864 H854 0.930 . S
C864 C863 1.400 . S
C864 C867 1.386 . S
H865 C881 0.930 . S
H866 C882 0.931 . S
C867 H855 0.929 . S
C867 C861 1.390 . S
C867 C864 1.386 . S
C868 C863 1.490 . S
C868 C870 1.395 1_454 S
C868 C871 1.403 1_455 S
H869 C875 0.930 . S
C870 H856 0.930 1_655 S
C870 C868 1.395 1_656 S
C870 C873 1.403 . S
C871 C868 1.403 1_655 S
C871 C872 1.524 . S
C871 C875 1.400 . S
C872 H857 0.960 . S
C872 H858 0.960 1_655 S
C872 H859 0.960 1_655 S
C872 C871 1.524 . S
C873 C870 1.403 . S
C873 C874 1.392 1_556 S
C873 C877 1.495 . S
C874 C873 1.392 1_554 S
C874 C875 1.385 . S
C874 C876 1.478 . S
C875 H869 0.930 . S
C875 C871 1.400 . S
C875 C874 1.385 . S
C876 C874 1.478 . S
C876 C878 1.381 1_554 S
C876 C882 1.383 . S
C877 C873 1.495 . S
C877 H883 0.959 . S
C877 H884 0.961 . S
C877 H885 0.960 . S
C878 C876 1.381 1_556 S
C878 C879 1.394 . S
C878 H886 0.930 . S
C879 C878 1.394 . S
C879 C880 1.383 1_556 S
C879 H887 0.929 . S
C880 C879 1.383 1_554 S
C880 C881 1.377 . S
C881 H865 0.930 . S
C881 C880 1.377 . S
C881 C882 1.379 . S
C882 H866 0.931 . S
C882 C876 1.383 . S
C882 C881 1.379 . S
H883 C877 0.959 . S
H884 C877 0.961 . S
H885 C877 0.960 . S
H886 C878 0.930 . S
H887 C879 0.929 . S
H888 C896 0.929 . S
H889 C898 0.930 . S
H890 C900 0.930 . S
H891 C903 0.929 . S
H892 C906 0.930 . S
H893 C908 0.960 . S
H894 C908 0.960 . S
H895 C908 0.960 . S
C896 H888 0.929 . S
C896 C897 1.377 . S
C896 C898 1.384 . S
C897 C896 1.377 . S
C897 C903 1.390 . S
C898 H889 0.930 . S
C898 C896 1.384 . S
C898 C899 1.372 . S
C899 C898 1.372 . S
C899 C900 1.400 . S
C899 C904 1.490 . S
C900 H890 0.930 . S
C900 C899 1.400 . S
C900 C903 1.386 . S
H901 C917 0.930 . S
H902 C918 0.931 . S
C903 H891 0.929 . S
C903 C897 1.390 . S
C903 C900 1.386 . S
C904 C899 1.490 . S
C904 C906 1.395 . S
C904 C907 1.403 . S
H905 C911 0.930 1_655 S
C906 H892 0.930 . S
C906 C904 1.395 . S
C906 C909 1.403 . S
C907 C904 1.403 . S
C907 C908 1.524 . S
C907 C911 1.400 . S
C908 H893 0.960 . S
C908 H894 0.960 . S
C908 H895 0.960 . S
C908 C907 1.524 . S
C909 C906 1.403 . S
C909 C910 1.392 1_455 S
C909 C913 1.495 . S
C910 C909 1.392 1_655 S
C910 C911 1.385 1_655 S
C910 C912 1.478 . S
C911 H905 0.930 1_455 S
C911 C907 1.400 . S
C911 C910 1.385 1_455 S
C912 C910 1.478 . S
C912 C914 1.381 . S
C912 C918 1.383 . S
C913 C909 1.495 . S
C913 H919 0.959 . S
C913 H920 0.961 1_455 S
C913 H921 0.960 1_455 S
C914 C912 1.381 . S
C914 C915 1.394 . S
C914 H922 0.930 . S
C915 C914 1.394 . S
C915 C916 1.383 . S
C915 H923 0.929 . S
C916 C915 1.383 . S
C916 C917 1.377 . S
C917 H901 0.930 . S
C917 C916 1.377 . S
C917 C918 1.379 . S
C918 H902 0.931 . S
C918 C912 1.383 . S
C918 C917 1.379 . S
H919 C913 0.959 . S
H920 C913 0.961 1_655 S
H921 C913 0.960 1_655 S
H922 C914 0.930 . S
H923 C915 0.929 . S
H924 C932 0.929 . S
H925 C934 0.930 . S
H926 C936 0.930 . S
H927 C939 0.929 . S
H928 C942 0.930 . S
H929 C944 0.960 . S
H930 C944 0.960 . S
H931 C944 0.960 . S
C932 H924 0.929 . S
C932 C933 1.377 . S
C932 C934 1.384 . S
C933 C932 1.377 . S
C933 C939 1.390 . S
C934 H925 0.930 . S
C934 C932 1.384 . S
C934 C935 1.372 . S
C935 C934 1.372 . S
C935 C936 1.400 . S
C935 C940 1.490 . S
C936 H926 0.930 . S
C936 C935 1.400 . S
C936 C939 1.386 . S
H937 C953 0.930 . S
H938 C954 0.931 . S
C939 H927 0.929 . S
C939 C933 1.390 . S
C939 C936 1.386 . S
C940 C935 1.490 . S
C940 C942 1.395 . S
C940 C943 1.403 . S
H941 C947 0.930 . S
C942 H928 0.930 . S
C942 C940 1.395 . S
C942 C945 1.403 . S
C943 C940 1.403 . S
C943 C944 1.524 . S
C943 C947 1.400 . S
C944 H929 0.960 . S
C944 H930 0.960 . S
C944 H931 0.960 . S
C944 C943 1.524 . S
C945 C942 1.403 . S
C945 C946 1.392 1_655 S
C945 C949 1.495 1_655 S
C946 C945 1.392 1_455 S
C946 C947 1.385 1_455 S
C946 C948 1.478 . S
C947 H941 0.930 . S
C947 C943 1.400 . S
C947 C946 1.385 1_655 S
C948 C946 1.478 . S
C948 C950 1.381 . S
C948 C954 1.383 . S
C949 C945 1.495 1_455 S
C949 H955 0.959 1_455 S
C949 H956 0.961 . S
C949 H957 0.960 . S
C950 C948 1.381 . S
C950 C951 1.394 . S
C950 H958 0.930 . S
C951 C950 1.394 . S
C951 C952 1.383 . S
C951 H959 0.929 . S
C952 C951 1.383 . S
C952 C953 1.377 . S
C953 H937 0.930 . S
C953 C952 1.377 . S
C953 C954 1.379 . S
C954 H938 0.931 . S
C954 C948 1.383 . S
C954 C953 1.379 . S
H955 C949 0.959 1_655 S
H956 C949 0.961 . S
H957 C949 0.960 . S
H958 C950 0.930 . S
H959 C951 0.929 . S
H960 C968 0.918 1_556 S
H961 C970 0.930 1_556 S
H962 C972 0.930 . S
H963 C975 0.929 . S
H964 C978 0.930 . S
H965 C980 0.960 . S
H966 C980 0.960 . S
H967 C980 0.960 . S
C968 H960 0.918 1_554 S
C968 C969 1.377 . S
C968 C970 1.384 . S
C969 C968 1.377 . S
C969 C975 1.390 1_455 S
C970 H961 0.930 1_554 S
C970 C968 1.384 . S
C970 C971 1.372 . S
C971 C970 1.372 . S
C971 C972 1.400 1_455 S
C971 C976 1.490 . S
C972 H962 0.930 . S
C972 C971 1.400 1_655 S
C972 C975 1.386 . S
H973 C989 0.930 . S
H974 C990 0.931 . S
C975 H963 0.929 . S
C975 C969 1.390 1_655 S
C975 C972 1.386 . S
C976 C971 1.490 . S
C976 C978 1.395 . S
C976 C979 1.403 1_454 S
H977 C983 0.930 . S
C978 H964 0.930 . S
C978 C976 1.395 . S
C978 C981 1.403 . S
C979 C976 1.403 1_656 S
C979 C980 1.524 . S
C979 C983 1.400 . S
C980 H965 0.960 . S
C980 H966 0.960 . S
C980 H967 0.960 . S
C980 C979 1.524 . S
C981 C978 1.403 . S
C981 C982 1.392 1_455 S
C981 C985 1.495 . S
C982 C981 1.392 1_655 S
C982 C983 1.385 1_554 S
C982 C984 1.478 . S
C983 H977 0.930 . S
C983 C979 1.400 . S
C983 C982 1.385 1_556 S
C984 C982 1.478 . S
C984 C986 1.381 1_655 S
C984 C990 1.383 . S
C985 C981 1.495 . S
C985 H991 0.959 . S
C985 H992 0.961 . S
C985 H993 0.960 . S
C986 C984 1.381 1_455 S
C986 C987 1.402 1_554 S
C986 H994 0.930 1_554 S
C987 C986 1.402 1_556 S
C987 C988 1.373 1_456 S
C987 H995 0.932 . S
C988 C987 1.373 1_654 S
C988 C989 1.377 . S
C989 H973 0.930 . S
C989 C988 1.377 . S
C989 C990 1.379 . S
C990 H974 0.931 . S
C990 C984 1.383 . S
C990 C989 1.379 . S
H991 C985 0.959 . S
H992 C985 0.961 . S
H993 C985 0.960 . S
H994 C986 0.930 1_556 S
H995 C987 0.932 . S
H996 C1004 0.929 . S
H997 C1006 0.930 . S
H998 C1008 0.930 . S
H999 C1011 0.929 . S
H1000 C1014 0.930 . S
H1001 C1016 0.960 . S
H1002 C1016 0.960 . S
H1003 C1016 0.960 . S
C1004 H996 0.929 . S
C1004 C1005 1.377 1_655 S
C1004 C1006 1.384 . S
C1005 C1004 1.377 1_455 S
C1005 C1011 1.390 . S
C1006 H997 0.930 . S
C1006 C1004 1.384 . S
C1006 C1007 1.372 1_655 S
C1007 C1006 1.372 1_455 S
C1007 C1008 1.400 . S
C1007 C1012 1.490 . S
C1008 H998 0.930 . S
C1008 C1007 1.400 . S
C1008 C1011 1.386 . S
H1009 C1025 0.930 . S
H1010 C1026 0.931 . S
C1011 H999 0.929 . S
C1011 C1005 1.390 . S
C1011 C1008 1.386 . S
C1012 C1007 1.490 . S
C1012 C1014 1.395 1_455 S
C1012 C1015 1.403 . S
H1013 C1019 0.930 . S
C1014 H1000 0.930 . S
C1014 C1012 1.395 1_655 S
C1014 C1017 1.403 . S
C1015 C1012 1.403 . S
C1015 C1016 1.524 . S
C1015 C1019 1.400 . S
C1016 H1001 0.960 . S
C1016 H1002 0.960 . S
C1016 H1003 0.960 . S
C1016 C1015 1.524 . S
C1017 C1014 1.403 . S
C1017 C1018 1.392 . S
C1017 C1021 1.495 . S
C1018 C1017 1.392 . S
C1018 C1019 1.385 1_655 S
C1018 C1020 1.478 . S
C1019 H1013 0.930 . S
C1019 C1015 1.400 . S
C1019 C1018 1.385 1_455 S
C1020 C1018 1.478 . S
C1020 C1022 1.381 . S
C1020 C1026 1.383 1_655 S
C1021 C1017 1.495 . S
C1021 H1027 0.959 . S
C1021 H1028 0.961 . S
C1021 H1029 0.960 . S
C1022 C1020 1.381 . S
C1022 C1023 1.394 . S
C1022 H1030 0.930 . S
C1023 C1022 1.394 . S
C1023 C1024 1.383 . S
C1023 H1031 0.929 . S
C1024 C1023 1.383 . S
C1024 C1025 1.377 1_655 S
C1025 H1009 0.930 . S
C1025 C1024 1.377 1_455 S
C1025 C1026 1.379 . S
C1026 H1010 0.931 . S
C1026 C1020 1.383 1_455 S
C1026 C1025 1.379 . S
H1027 C1021 0.959 . S
H1028 C1021 0.961 . S
H1029 C1021 0.960 . S
H1030 C1022 0.930 . S
H1031 C1023 0.929 . S
H1032 C1040 0.929 . S
H1033 C1042 0.930 . S
H1034 C1044 0.930 1_556 S
H1035 C1047 0.929 1_556 S
H1036 C1050 0.930 . S
H1037 C1052 0.960 . S
H1038 C1052 0.960 . S
H1039 C1052 0.960 . S
C1040 H1032 0.929 . S
C1040 C1041 1.377 . S
C1040 C1042 1.384 . S
C1041 C1040 1.377 . S
C1041 C1047 1.400 . S
C1042 H1033 0.930 . S
C1042 C1040 1.384 . S
C1042 C1043 1.372 . S
C1043 C1042 1.372 . S
C1043 C1044 1.400 . S
C1043 C1048 1.490 . S
C1044 H1034 0.930 1_554 S
C1044 C1043 1.400 . S
C1044 C1047 1.376 . S
H1045 C1061 0.930 . S
H1046 C1062 0.931 . S
C1047 H1035 0.929 1_554 S
C1047 C1041 1.400 . S
C1047 C1044 1.376 . S
C1048 C1043 1.490 . S
C1048 C1050 1.395 . S
C1048 C1051 1.403 1_554 S
H1049 C1055 0.930 . S
C1050 H1036 0.930 . S
C1050 C1048 1.395 . S
C1050 C1053 1.403 1_565 S
C1051 C1048 1.403 1_556 S
C1051 C1052 1.524 . S
C1051 C1055 1.400 1_565 S
C1052 H1037 0.960 . S
C1052 H1038 0.960 . S
C1052 H1039 0.960 . S
C1052 C1051 1.524 . S
C1053 C1050 1.403 1_545 S
C1053 C1054 1.392 . S
C1053 C1057 1.495 . S
C1054 C1053 1.392 . S
C1054 C1055 1.385 1_554 S
C1054 C1056 1.478 . S
C1055 H1049 0.930 . S
C1055 C1051 1.400 1_545 S
C1055 C1054 1.385 1_556 S
C1056 C1054 1.478 . S
C1056 C1058 1.381 . S
C1056 C1062 1.383 . S
C1057 C1053 1.495 . S
C1057 H1063 0.959 . S
C1057 H1064 0.961 . S
C1057 H1065 0.960 . S
C1058 C1056 1.381 . S
C1058 C1059 1.394 . S
C1058 H1066 0.930 . S
C1059 C1058 1.394 . S
C1059 C1060 1.383 . S
C1059 H1067 0.929 . S
C1060 C1059 1.383 . S
C1060 C1061 1.377 . S
C1061 H1045 0.930 . S
C1061 C1060 1.377 . S
C1061 C1062 1.379 . S
C1062 H1046 0.931 . S
C1062 C1056 1.383 . S
C1062 C1061 1.379 . S
H1063 C1057 0.959 . S
H1064 C1057 0.961 . S
H1065 C1057 0.960 . S
H1066 C1058 0.930 . S
H1067 C1059 0.929 . S
H1068 C1076 0.929 . S
H1069 C1078 0.930 . S
H1070 C1080 0.930 . S
H1071 C1083 0.929 . S
H1072 C1086 0.936 1_545 S
H1073 C1088 0.960 . S
H1074 C1088 0.960 . S
H1075 C1088 0.960 . S
C1076 H1068 0.929 . S
C1076 C1077 1.377 . S
C1076 C1078 1.384 . S
C1077 C1076 1.377 . S
C1077 C1083 1.390 . S
C1078 H1069 0.930 . S
C1078 C1076 1.384 . S
C1078 C1079 1.372 . S
C1079 C1078 1.372 . S
C1079 C1080 1.400 . S
C1079 C1084 1.490 . S
C1080 H1070 0.930 . S
C1080 C1079 1.400 . S
C1080 C1083 1.386 . S
H1081 C1097 0.930 . S
H1082 C1098 0.931 . S
C1083 H1071 0.929 . S
C1083 C1077 1.390 . S
C1083 C1080 1.386 . S
C1084 C1079 1.490 . S
C1084 C1086 1.399 1_545 S
C1084 C1087 1.403 . S
H1085 C1091 0.930 . S
C1086 H1072 0.936 1_565 S
C1086 C1084 1.399 1_565 S
C1086 C1089 1.393 . S
C1087 C1084 1.403 . S
C1087 C1088 1.524 . S
C1087 C1091 1.400 1_545 S
C1088 H1073 0.960 . S
C1088 H1074 0.960 . S
C1088 H1075 0.960 . S
C1088 C1087 1.524 . S
C1089 C1086 1.393 . S
C1089 C1090 1.392 . S
C1089 C1093 1.495 . S
C1090 C1089 1.392 . S
C1090 C1091 1.385 . S
C1090 C1092 1.478 . S
C1091 H1085 0.930 . S
C1091 C1087 1.400 1_565 S
C1091 C1090 1.385 . S
C1092 C1090 1.478 . S
C1092 C1094 1.381 . S
C1092 C1098 1.383 . S
C1093 C1089 1.495 . S
C1093 H1099 0.959 . S
C1093 H1100 0.961 . S
C1093 H1101 0.960 . S
C1094 C1092 1.381 . S
C1094 C1095 1.394 . S
C1094 H1102 0.930 . S
C1095 C1094 1.394 . S
C1095 C1096 1.383 . S
C1095 H1103 0.929 . S
C1096 C1095 1.383 . S
C1096 C1097 1.377 . S
C1097 H1081 0.930 . S
C1097 C1096 1.377 . S
C1097 C1098 1.379 . S
C1098 H1082 0.931 . S
C1098 C1092 1.383 . S
C1098 C1097 1.379 . S
H1099 C1093 0.959 . S
H1100 C1093 0.961 . S
H1101 C1093 0.960 . S
H1102 C1094 0.930 . S
H1103 C1095 0.929 . S
H1104 C1112 0.929 . S
H1105 C1114 0.930 . S
H1106 C1116 0.930 . S
H1107 C1119 0.929 . S
H1108 C1122 0.930 . S
H1109 C1124 0.960 . S
H1110 C1124 0.960 . S
H1111 C1124 0.960 1_556 S
C1112 H1104 0.929 . S
C1112 C1113 1.377 . S
C1112 C1114 1.384 . S
C1113 C1112 1.377 . S
C1113 C1119 1.390 1_554 S
C1114 H1105 0.930 . S
C1114 C1112 1.384 . S
C1114 C1115 1.372 . S
C1115 C1114 1.372 . S
C1115 C1116 1.400 1_554 S
C1115 C1120 1.490 . S
C1116 H1106 0.930 . S
C1116 C1115 1.400 1_556 S
C1116 C1119 1.386 . S
H1117 C1133 0.930 . S
H1118 C1134 0.931 . S
C1119 H1107 0.929 . S
C1119 C1113 1.390 1_556 S
C1119 C1116 1.386 . S
C1120 C1115 1.490 . S
C1120 C1122 1.395 . S
C1120 C1123 1.403 . S
H1121 C1127 0.930 . S
C1122 H1108 0.930 . S
C1122 C1120 1.395 . S
C1122 C1125 1.403 . S
C1123 C1120 1.403 . S
C1123 C1124 1.524 . S
C1123 C1127 1.400 . S
C1124 H1109 0.960 . S
C1124 H1110 0.960 . S
C1124 H1111 0.960 1_554 S
C1124 C1123 1.524 . S
C1125 C1122 1.403 . S
C1125 C1126 1.392 . S
C1125 C1129 1.495 . S
C1126 C1125 1.392 . S
C1126 C1127 1.385 . S
C1126 C1128 1.478 . S
C1127 H1121 0.930 . S
C1127 C1123 1.400 . S
C1127 C1126 1.385 . S
C1128 C1126 1.478 . S
C1128 C1130 1.381 . S
C1128 C1134 1.383 1_554 S
C1129 C1125 1.495 . S
C1129 H1135 0.959 . S
C1129 H1136 0.961 . S
C1129 H1137 0.960 . S
C1130 C1128 1.381 . S
C1130 C1131 1.394 . S
C1130 H1138 0.930 . S
C1131 C1130 1.394 . S
C1131 C1132 1.383 . S
C1131 H1139 0.929 . S
C1132 C1131 1.383 . S
C1132 C1133 1.377 1_554 S
C1133 H1117 0.930 . S
C1133 C1132 1.377 1_556 S
C1133 C1134 1.379 . S
C1134 H1118 0.931 . S
C1134 C1128 1.383 1_556 S
C1134 C1133 1.379 . S
H1135 C1129 0.959 . S
H1136 C1129 0.961 . S
H1137 C1129 0.960 . S
H1138 C1130 0.930 . S
H1139 C1131 0.929 . S
H1140 C1148 0.929 . S
H1141 C1150 0.930 . S
H1142 C1152 0.930 1_556 S
H1143 C1155 0.929 1_556 S
H1144 C1158 0.930 . S
H1145 C1160 0.960 . S
H1146 C1160 0.960 . S
H1147 C1160 0.960 . S
C1148 H1140 0.929 . S
C1148 C1149 1.377 . S
C1148 C1150 1.384 . S
C1149 C1148 1.377 . S
C1149 C1155 1.390 . S
C1150 H1141 0.930 . S
C1150 C1148 1.384 . S
C1150 C1151 1.372 . S
C1151 C1150 1.372 . S
C1151 C1152 1.400 . S
C1151 C1156 1.490 . S
C1152 H1142 0.930 1_554 S
C1152 C1151 1.400 . S
C1152 C1155 1.386 . S
H1153 C1169 0.936 . S
H1154 C1170 0.931 . S
C1155 H1143 0.929 1_554 S
C1155 C1149 1.390 . S
C1155 C1152 1.386 . S
C1156 C1151 1.490 . S
C1156 C1158 1.395 1_554 S
C1156 C1159 1.403 . S
H1157 C1163 0.930 . S
C1158 H1144 0.930 . S
C1158 C1156 1.395 1_556 S
C1158 C1161 1.403 . S
C1159 C1156 1.403 . S
C1159 C1160 1.524 . S
C1159 C1163 1.400 . S
C1160 H1145 0.960 . S
C1160 H1146 0.960 . S
C1160 H1147 0.960 . S
C1160 C1159 1.524 . S
C1161 C1158 1.403 . S
C1161 C1162 1.392 1_556 S
C1161 C1165 1.495 . S
C1162 C1161 1.392 1_554 S
C1162 C1163 1.385 . S
C1162 C1164 1.478 . S
C1163 H1157 0.930 . S
C1163 C1159 1.400 . S
C1163 C1162 1.385 . S
C1164 C1162 1.478 . S
C1164 C1166 1.381 . S
C1164 C1170 1.383 1_554 S
C1165 C1161 1.495 . S
C1165 H1171 0.959 . S
C1165 H1172 0.961 . S
C1165 H1173 0.960 . S
C1166 C1164 1.381 . S
C1166 C1167 1.394 . S
C1166 H1174 0.930 . S
C1167 C1166 1.394 . S
C1167 C1168 1.383 . S
C1167 H1175 0.929 . S
C1168 C1167 1.383 . S
C1168 C1169 1.356 1_554 S
C1169 H1153 0.936 . S
C1169 C1168 1.356 1_556 S
C1169 C1170 1.394 . S
C1170 H1154 0.931 . S
C1170 C1164 1.383 1_556 S
C1170 C1169 1.394 . S
H1171 C1165 0.959 . S
H1172 C1165 0.961 . S
H1173 C1165 0.960 . S
H1174 C1166 0.930 . S
H1175 C1167 0.929 . S
H1176 C1184 0.929 . S
H1177 C1186 0.930 . S
H1178 C1188 0.930 . S
H1179 C1191 0.929 . S
H1180 C1194 0.930 . S
H1181 C1196 0.960 . S
H1182 C1196 0.960 . S
H1183 C1196 0.960 . S
C1184 H1176 0.929 . S
C1184 C1185 1.377 . S
C1184 C1186 1.384 . S
C1185 C1184 1.377 . S
C1185 C1191 1.390 . S
C1186 H1177 0.930 . S
C1186 C1184 1.384 . S
C1186 C1187 1.372 . S
C1187 C1186 1.372 . S
C1187 C1188 1.400 . S
C1187 C1192 1.490 . S
C1188 H1178 0.930 . S
C1188 C1187 1.400 . S
C1188 C1191 1.386 . S
H1189 C1205 0.930 . S
H1190 C1206 0.931 . S
C1191 H1179 0.929 . S
C1191 C1185 1.390 . S
C1191 C1188 1.386 . S
C1192 C1187 1.490 . S
C1192 C1194 1.395 . S
C1192 C1195 1.403 . S
H1193 C1199 0.930 . S
C1194 H1180 0.930 . S
C1194 C1192 1.395 . S
C1194 C1197 1.403 . S
C1195 C1192 1.403 . S
C1195 C1196 1.524 . S
C1195 C1199 1.400 . S
C1196 H1181 0.960 . S
C1196 H1182 0.960 . S
C1196 H1183 0.960 . S
C1196 C1195 1.524 . S
C1197 C1194 1.403 . S
C1197 C1198 1.392 . S
C1197 C1201 1.495 . S
C1198 C1197 1.392 . S
C1198 C1199 1.385 . S
C1198 C1200 1.478 . S
C1199 H1193 0.930 . S
C1199 C1195 1.400 . S
C1199 C1198 1.385 . S
C1200 C1198 1.478 . S
C1200 C1202 1.381 . S
C1200 C1206 1.383 . S
C1201 C1197 1.495 . S
C1201 H1207 0.959 . S
C1201 H1208 0.961 . S
C1201 H1209 0.960 . S
C1202 C1200 1.381 . S
C1202 C1203 1.394 . S
C1202 H1210 0.930 . S
C1203 C1202 1.394 . S
C1203 C1204 1.383 . S
C1203 H1211 0.929 . S
C1204 C1203 1.383 . S
C1204 C1205 1.377 . S
C1205 H1189 0.930 . S
C1205 C1204 1.377 . S
C1205 C1206 1.379 . S
C1206 H1190 0.931 . S
C1206 C1200 1.383 . S
C1206 C1205 1.379 . S
H1207 C1201 0.959 . S
H1208 C1201 0.961 . S
H1209 C1201 0.960 . S
H1210 C1202 0.930 . S
H1211 C1203 0.929 . S
H1212 C1220 0.929 . S
H1213 C1222 0.930 . S
H1214 C1224 0.930 . S
H1215 C1227 0.929 . S
H1216 C1230 0.930 . S
H1217 C1232 0.960 . S
H1218 C1232 0.960 . S
H1219 C1232 0.960 . S
C1220 H1212 0.929 . S
C1220 C1221 1.377 . S
C1220 C1222 1.384 . S
C1221 C1220 1.377 . S
C1221 C1227 1.390 . S
C1222 H1213 0.930 . S
C1222 C1220 1.384 . S
C1222 C1223 1.372 . S
C1223 C1222 1.372 . S
C1223 C1224 1.400 . S
C1223 C1228 1.490 . S
C1224 H1214 0.930 . S
C1224 C1223 1.400 . S
C1224 C1227 1.386 . S
H1225 C1241 0.930 . S
H1226 C1242 0.931 . S
C1227 H1215 0.929 . S
C1227 C1221 1.390 . S
C1227 C1224 1.386 . S
C1228 C1223 1.490 . S
C1228 C1230 1.395 . S
C1228 C1231 1.403 . S
H1229 C1235 0.930 . S
C1230 H1216 0.930 . S
C1230 C1228 1.395 . S
C1230 C1233 1.403 . S
C1231 C1228 1.403 . S
C1231 C1232 1.524 . S
C1231 C1235 1.400 . S
C1232 H1217 0.960 . S
C1232 H1218 0.960 . S
C1232 H1219 0.960 . S
C1232 C1231 1.524 . S
C1233 C1230 1.403 . S
C1233 C1234 1.392 . S
C1233 C1237 1.495 . S
C1234 C1233 1.392 . S
C1234 C1235 1.385 . S
C1234 C1236 1.478 . S
C1235 H1229 0.930 . S
C1235 C1231 1.400 . S
C1235 C1234 1.385 . S
C1236 C1234 1.478 . S
C1236 C1238 1.381 . S
C1236 C1242 1.383 . S
C1237 C1233 1.495 . S
C1237 H1243 0.959 . S
C1237 H1244 0.961 . S
C1237 H1245 0.960 . S
C1238 C1236 1.381 . S
C1238 C1239 1.394 . S
C1238 H1246 0.930 . S
C1239 C1238 1.394 . S
C1239 C1240 1.383 . S
C1239 H1247 0.929 . S
C1240 C1239 1.383 . S
C1240 C1241 1.377 . S
C1241 H1225 0.930 . S
C1241 C1240 1.377 . S
C1241 C1242 1.379 . S
C1242 H1226 0.931 . S
C1242 C1236 1.383 . S
C1242 C1241 1.379 . S
H1243 C1237 0.959 . S
H1244 C1237 0.961 . S
H1245 C1237 0.960 . S
H1246 C1238 0.930 . S
H1247 C1239 0.929 . S
H1248 C1256 0.929 . S
H1249 C1258 0.930 . S
H1250 C1260 0.930 . S
H1251 C1263 0.929 . S
H1252 C1266 0.930 . S
H1253 C1268 0.960 . S
H1254 C1268 0.960 . S
H1255 C1268 0.960 . S
C1256 H1248 0.929 . S
C1256 C1257 1.377 . S
C1256 C1258 1.384 . S
C1257 C1256 1.377 . S
C1257 C1263 1.390 . S
C1258 H1249 0.930 . S
C1258 C1256 1.384 . S
C1258 C1259 1.372 . S
C1259 C1258 1.372 . S
C1259 C1260 1.400 . S
C1259 C1264 1.490 . S
C1260 H1250 0.930 . S
C1260 C1259 1.400 . S
C1260 C1263 1.386 . S
H1261 C1277 0.930 . S
H1262 C1278 0.931 . S
C1263 H1251 0.929 . S
C1263 C1257 1.390 . S
C1263 C1260 1.386 . S
C1264 C1259 1.490 . S
C1264 C1266 1.395 1_455 S
C1264 C1267 1.403 . S
H1265 C1271 0.930 . S
C1266 H1252 0.930 . S
C1266 C1264 1.395 1_655 S
C1266 C1269 1.403 . S
C1267 C1264 1.403 . S
C1267 C1268 1.524 . S
C1267 C1271 1.400 . S
C1268 H1253 0.960 . S
C1268 H1254 0.960 . S
C1268 H1255 0.960 . S
C1268 C1267 1.524 . S
C1269 C1266 1.403 . S
C1269 C1270 1.392 . S
C1269 C1273 1.495 . S
C1270 C1269 1.392 . S
C1270 C1271 1.385 1_655 S
C1270 C1272 1.478 . S
C1271 H1265 0.930 . S
C1271 C1267 1.400 . S
C1271 C1270 1.385 1_455 S
C1272 C1270 1.478 . S
C1272 C1274 1.381 . S
C1272 C1278 1.383 . S
C1273 C1269 1.495 . S
C1273 H1279 0.959 . S
C1273 H1280 0.961 . S
C1273 H1281 0.960 . S
C1274 C1272 1.381 . S
C1274 C1275 1.394 . S
C1274 H1282 0.930 . S
C1275 C1274 1.394 . S
C1275 C1276 1.383 . S
C1275 H1283 0.929 . S
C1276 C1275 1.383 . S
C1276 C1277 1.377 . S
C1277 H1261 0.930 . S
C1277 C1276 1.377 . S
C1277 C1278 1.379 . S
C1278 H1262 0.931 . S
C1278 C1272 1.383 . S
C1278 C1277 1.379 . S
H1279 C1273 0.959 . S
H1280 C1273 0.961 . S
H1281 C1273 0.960 . S
H1282 C1274 0.930 . S
H1283 C1275 0.929 . S
H1284 C1292 0.929 . S
H1285 C1294 0.930 . S
H1286 C1296 0.930 . S
H1287 C1299 0.929 . S
H1288 C1302 0.930 . S
H1289 C1304 0.960 . S
H1290 C1304 0.960 . S
H1291 C1304 0.960 . S
C1292 H1284 0.929 . S
C1292 C1293 1.377 1_455 S
C1292 C1294 1.384 . S
C1293 C1292 1.377 1_655 S
C1293 C1299 1.390 . S
C1294 H1285 0.930 . S
C1294 C1292 1.384 . S
C1294 C1295 1.372 1_455 S
C1295 C1294 1.372 1_655 S
C1295 C1296 1.400 . S
C1295 C1300 1.490 . S
C1296 H1286 0.930 . S
C1296 C1295 1.400 . S
C1296 C1299 1.386 . S
H1297 C1313 0.930 . S
H1298 C1314 0.931 . S
C1299 H1287 0.929 . S
C1299 C1293 1.390 . S
C1299 C1296 1.386 . S
C1300 C1295 1.490 . S
C1300 C1302 1.395 1_655 S
C1300 C1303 1.403 . S
H1301 C1307 0.930 . S
C1302 H1288 0.930 . S
C1302 C1300 1.395 1_455 S
C1302 C1305 1.403 . S
C1303 C1300 1.403 . S
C1303 C1304 1.524 . S
C1303 C1307 1.400 . S
C1304 H1289 0.960 . S
C1304 H1290 0.960 . S
C1304 H1291 0.960 . S
C1304 C1303 1.524 . S
C1305 C1302 1.403 . S
C1305 C1306 1.392 . S
C1305 C1309 1.495 . S
C1306 C1305 1.392 . S
C1306 C1307 1.385 1_455 S
C1306 C1308 1.478 . S
C1307 H1301 0.930 . S
C1307 C1303 1.400 . S
C1307 C1306 1.385 1_655 S
C1308 C1306 1.478 . S
C1308 C1310 1.381 . S
C1308 C1314 1.383 1_455 S
C1309 C1305 1.495 . S
C1309 H1315 0.959 . S
C1309 H1316 0.961 . S
C1309 H1317 0.960 . S
C1310 C1308 1.381 . S
C1310 C1311 1.394 . S
C1310 H1318 0.930 . S
C1311 C1310 1.394 . S
C1311 C1312 1.383 . S
C1311 H1319 0.929 . S
C1312 C1311 1.383 . S
C1312 C1313 1.377 1_455 S
C1313 H1297 0.930 . S
C1313 C1312 1.377 1_655 S
C1313 C1314 1.379 . S
C1314 H1298 0.931 . S
C1314 C1308 1.383 1_655 S
C1314 C1313 1.379 . S
H1315 C1309 0.959 . S
H1316 C1309 0.961 . S
H1317 C1309 0.960 . S
H1318 C1310 0.930 . S
H1319 C1311 0.929 . S
H1320 C1328 0.929 . S
H1321 C1330 0.930 . S
H1322 C1332 0.930 . S
H1323 C1335 0.929 . S
H1324 C1338 0.930 . S
H1325 C1340 0.960 . S
H1326 C1340 0.960 . S
H1327 C1340 0.960 . S
C1328 H1320 0.929 . S
C1328 C1329 1.377 . S
C1328 C1330 1.384 . S
C1329 C1328 1.377 . S
C1329 C1335 1.390 1_655 S
C1330 H1321 0.930 . S
C1330 C1328 1.384 . S
C1330 C1331 1.372 . S
C1331 C1330 1.372 . S
C1331 C1332 1.400 1_655 S
C1331 C1336 1.490 . S
C1332 H1322 0.930 . S
C1332 C1331 1.400 1_455 S
C1332 C1335 1.386 . S
H1333 C1349 0.930 . S
H1334 C1350 0.931 . S
C1335 H1323 0.929 . S
C1335 C1329 1.390 1_455 S
C1335 C1332 1.386 . S
C1336 C1331 1.490 . S
C1336 C1338 1.395 . S
C1336 C1339 1.403 1_655 S
H1337 C1343 0.930 . S
C1338 H1324 0.930 . S
C1338 C1336 1.395 . S
C1338 C1341 1.403 . S
C1339 C1336 1.403 1_455 S
C1339 C1340 1.524 . S
C1339 C1343 1.400 . S
C1340 H1325 0.960 . S
C1340 H1326 0.960 . S
C1340 H1327 0.960 . S
C1340 C1339 1.524 . S
C1341 C1338 1.403 . S
C1341 C1342 1.392 1_655 S
C1341 C1345 1.495 . S
C1342 C1341 1.392 1_455 S
C1342 C1343 1.385 . S
C1342 C1344 1.478 . S
C1343 H1337 0.930 . S
C1343 C1339 1.400 . S
C1343 C1342 1.385 . S
C1344 C1342 1.478 . S
C1344 C1346 1.381 1_455 S
C1344 C1350 1.383 . S
C1345 C1341 1.495 . S
C1345 H1351 0.959 . S
C1345 H1352 0.961 . S
C1345 H1353 0.960 . S
C1346 C1344 1.381 1_655 S
C1346 C1347 1.394 . S
C1346 H1354 0.930 . S
C1347 C1346 1.394 . S
C1347 C1348 1.383 1_655 S
C1347 H1355 0.929 . S
C1348 C1347 1.383 1_455 S
C1348 C1349 1.377 . S
C1349 H1333 0.930 . S
C1349 C1348 1.377 . S
C1349 C1350 1.379 . S
C1350 H1334 0.931 . S
C1350 C1344 1.383 . S
C1350 C1349 1.379 . S
H1351 C1345 0.959 . S
H1352 C1345 0.961 . S
H1353 C1345 0.960 . S
H1354 C1346 0.930 . S
H1355 C1347 0.929 . S
H1356 C1364 0.929 . S
H1357 C1366 0.930 . S
H1358 C1368 0.930 . S
H1359 C1371 0.929 . S
H1360 C1374 0.930 . S
H1361 C1376 0.960 . S
H1362 C1376 0.960 . S
H1363 C1376 0.960 . S
C1364 H1356 0.929 . S
C1364 C1365 1.377 . S
C1364 C1366 1.384 . S
C1365 C1364 1.377 . S
C1365 C1371 1.390 . S
C1366 H1357 0.930 . S
C1366 C1364 1.384 . S
C1366 C1367 1.372 . S
C1367 C1366 1.372 . S
C1367 C1368 1.400 . S
C1367 C1372 1.490 . S
C1368 H1358 0.930 . S
C1368 C1367 1.400 . S
C1368 C1371 1.386 . S
H1369 C1385 0.930 . S
H1370 C1386 0.931 . S
C1371 H1359 0.929 . S
C1371 C1365 1.390 . S
C1371 C1368 1.386 . S
C1372 C1367 1.490 . S
C1372 C1374 1.395 1_655 S
C1372 C1375 1.403 . S
H1373 C1379 0.930 . S
C1374 H1360 0.930 . S
C1374 C1372 1.395 1_455 S
C1374 C1377 1.403 . S
C1375 C1372 1.403 . S
C1375 C1376 1.524 . S
C1375 C1379 1.400 . S
C1376 H1361 0.960 . S
C1376 H1362 0.960 . S
C1376 H1363 0.960 . S
C1376 C1375 1.524 . S
C1377 C1374 1.403 . S
C1377 C1378 1.392 . S
C1377 C1381 1.495 . S
C1378 C1377 1.392 . S
C1378 C1379 1.385 1_455 S
C1378 C1380 1.478 . S
C1379 H1373 0.930 . S
C1379 C1375 1.400 . S
C1379 C1378 1.385 1_655 S
C1380 C1378 1.478 . S
C1380 C1382 1.381 . S
C1380 C1386 1.383 . S
C1381 C1377 1.495 . S
C1381 H1387 0.959 . S
C1381 H1388 0.961 . S
C1381 H1389 0.960 . S
C1382 C1380 1.381 . S
C1382 C1383 1.394 . S
C1382 H1390 0.930 . S
C1383 C1382 1.394 . S
C1383 C1384 1.383 . S
C1383 H1391 0.929 . S
C1384 C1383 1.383 . S
C1384 C1385 1.377 . S
C1385 H1369 0.930 . S
C1385 C1384 1.377 . S
C1385 C1386 1.379 . S
C1386 H1370 0.931 . S
C1386 C1380 1.383 . S
C1386 C1385 1.379 . S
H1387 C1381 0.959 . S
H1388 C1381 0.961 . S
H1389 C1381 0.960 . S
H1390 C1382 0.930 . S
H1391 C1383 0.929 . S
H1392 C1400 0.929 . S
H1393 C1402 0.930 . S
H1394 C1404 0.930 . S
H1395 C1407 0.929 . S
H1396 C1410 0.930 . S
H1397 C1412 0.960 . S
H1398 C1412 0.960 . S
H1399 C1412 0.960 . S
C1400 H1392 0.929 . S
C1400 C1401 1.377 . S
C1400 C1402 1.384 . S
C1401 C1400 1.377 . S
C1401 C1407 1.390 . S
C1402 H1393 0.930 . S
C1402 C1400 1.384 . S
C1402 C1403 1.372 . S
C1403 C1402 1.372 . S
C1403 C1404 1.400 . S
C1403 C1408 1.490 . S
C1404 H1394 0.930 . S
C1404 C1403 1.400 . S
C1404 C1407 1.386 . S
H1405 C1421 0.930 . S
H1406 C1422 0.931 . S
C1407 H1395 0.929 . S
C1407 C1401 1.390 . S
C1407 C1404 1.386 . S
C1408 C1403 1.490 . S
C1408 C1410 1.395 . S
C1408 C1411 1.403 . S
H1409 C1415 0.930 . S
C1410 H1396 0.930 . S
C1410 C1408 1.395 . S
C1410 C1413 1.403 . S
C1411 C1408 1.403 . S
C1411 C1412 1.524 . S
C1411 C1415 1.400 . S
C1412 H1397 0.960 . S
C1412 H1398 0.960 . S
C1412 H1399 0.960 . S
C1412 C1411 1.524 . S
C1413 C1410 1.403 . S
C1413 C1414 1.392 . S
C1413 C1417 1.495 . S
C1414 C1413 1.392 . S
C1414 C1415 1.385 . S
C1414 C1416 1.478 . S
C1415 H1409 0.930 . S
C1415 C1411 1.400 . S
C1415 C1414 1.385 . S
C1416 C1414 1.478 . S
C1416 C1418 1.381 . S
C1416 C1422 1.383 . S
C1417 C1413 1.495 . S
C1417 H1423 0.959 . S
C1417 H1424 0.961 . S
C1417 H1425 0.960 . S
C1418 C1416 1.381 . S
C1418 C1419 1.394 . S
C1418 H1426 0.930 . S
C1419 C1418 1.394 . S
C1419 C1420 1.383 . S
C1419 H1427 0.929 . S
C1420 C1419 1.383 . S
C1420 C1421 1.377 . S
C1421 H1405 0.930 . S
C1421 C1420 1.377 . S
C1421 C1422 1.379 . S
C1422 H1406 0.931 . S
C1422 C1416 1.383 . S
C1422 C1421 1.379 . S
H1423 C1417 0.959 . S
H1424 C1417 0.961 . S
H1425 C1417 0.960 . S
H1426 C1418 0.930 . S
H1427 C1419 0.929 . S
H1428 C1436 0.929 . S
H1429 C1438 0.930 . S
H1430 C1440 0.930 . S
H1431 C1443 0.929 . S
H1432 C1446 0.930 . S
H1433 C1448 0.960 . S
H1434 C1448 0.960 . S
H1435 C1448 0.960 . S
C1436 H1428 0.929 . S
C1436 C1437 1.377 . S
C1436 C1438 1.384 . S
C1437 C1436 1.377 . S
C1437 C1443 1.390 . S
C1438 H1429 0.930 . S
C1438 C1436 1.384 . S
C1438 C1439 1.372 . S
C1439 C1438 1.372 . S
C1439 C1440 1.400 . S
C1439 C1444 1.490 . S
C1440 H1430 0.930 . S
C1440 C1439 1.400 . S
C1440 C1443 1.386 . S
H1441 C1457 0.930 . S
H1442 C1458 0.931 . S
C1443 H1431 0.929 . S
C1443 C1437 1.390 . S
C1443 C1440 1.386 . S
C1444 C1439 1.490 . S
C1444 C1446 1.395 . S
C1444 C1447 1.403 . S
H1445 C1451 0.930 . S
C1446 H1432 0.930 . S
C1446 C1444 1.395 . S
C1446 C1449 1.403 . S
C1447 C1444 1.403 . S
C1447 C1448 1.524 . S
C1447 C1451 1.400 . S
C1448 H1433 0.960 . S
C1448 H1434 0.960 . S
C1448 H1435 0.960 . S
C1448 C1447 1.524 . S
C1449 C1446 1.403 . S
C1449 C1450 1.392 . S
C1449 C1453 1.495 . S
C1450 C1449 1.392 . S
C1450 C1451 1.385 . S
C1450 C1452 1.478 . S
C1451 H1445 0.930 . S
C1451 C1447 1.400 . S
C1451 C1450 1.385 . S
C1452 C1450 1.478 . S
C1452 C1454 1.381 . S
C1452 C1458 1.383 . S
C1453 C1449 1.495 . S
C1453 H1459 0.959 . S
C1453 H1460 0.961 . S
C1453 H1461 0.960 . S
C1454 C1452 1.381 . S
C1454 C1455 1.394 . S
C1454 H1462 0.930 . S
C1455 C1454 1.394 . S
C1455 C1456 1.383 . S
C1455 H1463 0.929 . S
C1456 C1455 1.383 . S
C1456 C1457 1.377 . S
C1457 H1441 0.930 . S
C1457 C1456 1.377 . S
C1457 C1458 1.379 . S
C1458 H1442 0.931 . S
C1458 C1452 1.383 . S
C1458 C1457 1.379 . S
H1459 C1453 0.959 . S
H1460 C1453 0.961 . S
H1461 C1453 0.960 . S
H1462 C1454 0.930 . S
H1463 C1455 0.929 . S
H1464 C1472 0.929 . S
H1465 C1474 0.930 . S
H1466 C1476 0.930 . S
H1467 C1479 0.929 . S
H1468 C1482 0.930 . S
H1469 C1484 0.960 . S
H1470 C1484 0.960 . S
H1471 C1484 0.960 . S
C1472 H1464 0.929 . S
C1472 C1473 1.377 . S
C1472 C1474 1.384 . S
C1473 C1472 1.377 . S
C1473 C1479 1.390 . S
C1474 H1465 0.930 . S
C1474 C1472 1.384 . S
C1474 C1475 1.372 . S
C1475 C1474 1.372 . S
C1475 C1476 1.400 . S
C1475 C1480 1.490 . S
C1476 H1466 0.930 . S
C1476 C1475 1.400 . S
C1476 C1479 1.386 . S
H1477 C1493 0.930 . S
H1478 C1494 0.931 . S
C1479 H1467 0.929 . S
C1479 C1473 1.390 . S
C1479 C1476 1.386 . S
C1480 C1475 1.490 . S
C1480 C1482 1.395 . S
C1480 C1483 1.403 . S
H1481 C1487 0.930 . S
C1482 H1468 0.930 . S
C1482 C1480 1.395 . S
C1482 C1485 1.403 . S
C1483 C1480 1.403 . S
C1483 C1484 1.524 . S
C1483 C1487 1.400 . S
C1484 H1469 0.960 . S
C1484 H1470 0.960 . S
C1484 H1471 0.960 . S
C1484 C1483 1.524 . S
C1485 C1482 1.403 . S
C1485 C1486 1.392 . S
C1485 C1489 1.495 . S
C1486 C1485 1.392 . S
C1486 C1487 1.385 . S
C1486 C1488 1.478 . S
C1487 H1481 0.930 . S
C1487 C1483 1.400 . S
C1487 C1486 1.385 . S
C1488 C1486 1.478 . S
C1488 C1490 1.381 . S
C1488 C1494 1.383 . S
C1489 C1485 1.495 . S
C1489 H1495 0.959 . S
C1489 H1496 0.961 . S
C1489 H1497 0.960 . S
C1490 C1488 1.381 . S
C1490 C1491 1.394 . S
C1490 H1498 0.930 . S
C1491 C1490 1.394 . S
C1491 C1492 1.383 . S
C1491 H1499 0.929 . S
C1492 C1491 1.383 . S
C1492 C1493 1.377 . S
C1493 H1477 0.930 . S
C1493 C1492 1.377 . S
C1493 C1494 1.379 . S
C1494 H1478 0.931 . S
C1494 C1488 1.383 . S
C1494 C1493 1.379 . S
H1495 C1489 0.959 . S
H1496 C1489 0.961 . S
H1497 C1489 0.960 . S
H1498 C1490 0.930 . S
H1499 C1491 0.929 . S
H1500 C1508 0.929 . S
H1501 C1510 0.930 . S
H1502 C1512 0.930 . S
H1503 C1515 0.929 . S
H1504 C1518 0.930 . S
H1505 C1520 0.960 . S
H1506 C1520 0.960 . S
H1507 C1520 0.960 . S
C1508 H1500 0.929 . S
C1508 C1509 1.377 . S
C1508 C1510 1.384 . S
C1509 C1508 1.377 . S
C1509 C1515 1.390 . S
C1510 H1501 0.930 . S
C1510 C1508 1.384 . S
C1510 C1511 1.372 . S
C1511 C1510 1.372 . S
C1511 C1512 1.400 . S
C1511 C1516 1.490 . S
C1512 H1502 0.930 . S
C1512 C1511 1.400 . S
C1512 C1515 1.386 . S
H1513 C1529 0.930 . S
H1514 C1530 0.931 . S
C1515 H1503 0.929 . S
C1515 C1509 1.390 . S
C1515 C1512 1.386 . S
C1516 C1511 1.490 . S
C1516 C1518 1.395 . S
C1516 C1519 1.403 . S
H1517 C1523 0.930 . S
C1518 H1504 0.930 . S
C1518 C1516 1.395 . S
C1518 C1521 1.403 . S
C1519 C1516 1.403 . S
C1519 C1520 1.524 . S
C1519 C1523 1.400 . S
C1520 H1505 0.960 . S
C1520 H1506 0.960 . S
C1520 H1507 0.960 . S
C1520 C1519 1.524 . S
C1521 C1518 1.403 . S
C1521 C1522 1.392 . S
C1521 C1525 1.495 . S
C1522 C1521 1.392 . S
C1522 C1523 1.385 . S
C1522 C1524 1.478 . S
C1523 H1517 0.930 . S
C1523 C1519 1.400 . S
C1523 C1522 1.385 . S
C1524 C1522 1.478 . S
C1524 C1526 1.381 . S
C1524 C1530 1.383 . S
C1525 C1521 1.495 . S
C1525 H1531 0.959 . S
C1525 H1532 0.961 . S
C1525 H1533 0.960 . S
C1526 C1524 1.381 . S
C1526 C1527 1.394 . S
C1526 H1534 0.930 . S
C1527 C1526 1.394 . S
C1527 C1528 1.383 . S
C1527 H1535 0.929 . S
C1528 C1527 1.383 . S
C1528 C1529 1.377 . S
C1529 H1513 0.930 . S
C1529 C1528 1.377 . S
C1529 C1530 1.379 . S
C1530 H1514 0.931 . S
C1530 C1524 1.383 . S
C1530 C1529 1.379 . S
H1531 C1525 0.959 . S
H1532 C1525 0.961 . S
H1533 C1525 0.960 . S
H1534 C1526 0.930 . S
H1535 C1527 0.929 . S
C681 C55 1.974 . S
C700 C67 1.974 . S
C717 C139 1.972 . S
C736 C151 1.961 . S
C753 C235 1.974 . S
C772 C223 1.968 . S
C789 C319 1.974 . S
C808 C307 1.973 . S
C825 C391 1.974 . S
C844 C403 1.977 . S
C861 C487 1.973 . S
C880 C475 1.977 . S
C897 C571 1.973 . S
C916 C559 1.976 . S
C933 C643 1.972 . S
C952 C655 1.961 . S
C969 C142 1.839 . S
C988 C70 1.809 . S
C1005 C310 1.849 . S
C1024 C238 1.876 . S
C1041 C406 1.851 . S
C1060 C478 1.873 . S
C1077 C574 1.850 . S
C1096 C646 1.875 . S
C1113 C58 1.429 . S
C1132 C490 1.424 . S
C1149 C394 1.432 . S
C1168 C154 1.452 . S
C1185 C226 1.430 . S
C1204 C658 1.442 . S
C1221 C322 1.418 . S
C1240 C562 1.443 . S
C1257 C68 1.554 . S
C1276 C320 1.583 . S
C1293 C152 1.583 . S
C1312 C236 1.570 . S
C1329 C140 1.550 . S
C1348 C224 1.568 . S
C1365 C308 1.557 . S
C1384 C56 1.570 . S
C1401 C404 1.556 . S
C1420 C656 1.587 . S
C1437 C488 1.578 . S
C1456 C572 1.529 . S
C1473 C476 1.548 . S
C1492 C560 1.577 . S
C1509 C644 1.556 . S
C1528 C392 1.568 . S
