# Generated by pormake.
# Topology wkh, (6)-cn, num edge types: 1
# Building blocks:
#     Node 0, Type 0, BuildingBlock: VOLQOD_clean_sbu_1, # of connection points: 6
#     Node 1, Type 0, BuildingBlock: VOLQOD_clean_sbu_1, # of connection points: 6
#     Node 2, Type 0, BuildingBlock: VOLQOD_clean_sbu_1, # of connection points: 6
#     Node 3, Type 0, BuildingBlock: VOLQOD_clean_sbu_1, # of connection points: 6
#     Node 4, Type 0, BuildingBlock: VOLQOD_clean_sbu_1, # of connection points: 6
#     Node 5, Type 0, BuildingBlock: VOLQOD_clean_sbu_1, # of connection points: 6
#     Node 6, Type 0, BuildingBlock: VOLQOD_clean_sbu_1, # of connection points: 6
#     Node 7, Type 0, BuildingBlock: VOLQOD_clean_sbu_1, # of connection points: 6
#     Node 8, Type 0, BuildingBlock: VOLQOD_clean_sbu_1, # of connection points: 6
#     Node 9, Type 0, BuildingBlock: VOLQOD_clean_sbu_1, # of connection points: 6
#     Node 10, Type 0, BuildingBlock: VOLQOD_clean_sbu_1, # of connection points: 6
#     Node 11, Type 0, BuildingBlock: VOLQOD_clean_sbu_1, # of connection points: 6
#     Edge 12, Type (0, 0), BuildingBlock: ZUJKAS_clean_linker_0, # of connection points: 2
#     Edge 13, Type (0, 0), BuildingBlock: ZUJKAS_clean_linker_0, # of connection points: 2
#     Edge 14, Type (0, 0), BuildingBlock: ZUJKAS_clean_linker_0, # of connection points: 2
#     Edge 15, Type (0, 0), BuildingBlock: ZUJKAS_clean_linker_0, # of connection points: 2
#     Edge 16, Type (0, 0), BuildingBlock: ZUJKAS_clean_linker_0, # of connection points: 2
#     Edge 17, Type (0, 0), BuildingBlock: ZUJKAS_clean_linker_0, # of connection points: 2
#     Edge 18, Type (0, 0), BuildingBlock: ZUJKAS_clean_linker_0, # of connection points: 2
#     Edge 19, Type (0, 0), BuildingBlock: ZUJKAS_clean_linker_0, # of connection points: 2
#     Edge 20, Type (0, 0), BuildingBlock: ZUJKAS_clean_linker_0, # of connection points: 2
#     Edge 21, Type (0, 0), BuildingBlock: ZUJKAS_clean_linker_0, # of connection points: 2
#     Edge 22, Type (0, 0), BuildingBlock: ZUJKAS_clean_linker_0, # of connection points: 2
#     Edge 23, Type (0, 0), BuildingBlock: ZUJKAS_clean_linker_0, # of connection points: 2
#     Edge 24, Type (0, 0), BuildingBlock: ZUJKAS_clean_linker_0, # of connection points: 2
#     Edge 25, Type (0, 0), BuildingBlock: ZUJKAS_clean_linker_0, # of connection points: 2
#     Edge 26, Type (0, 0), BuildingBlock: ZUJKAS_clean_linker_0, # of connection points: 2
#     Edge 27, Type (0, 0), BuildingBlock: ZUJKAS_clean_linker_0, # of connection points: 2
#     Edge 28, Type (0, 0), BuildingBlock: ZUJKAS_clean_linker_0, # of connection points: 2
#     Edge 29, Type (0, 0), BuildingBlock: ZUJKAS_clean_linker_0, # of connection points: 2
#     Edge 30, Type (0, 0), BuildingBlock: ZUJKAS_clean_linker_0, # of connection points: 2
#     Edge 31, Type (0, 0), BuildingBlock: ZUJKAS_clean_linker_0, # of connection points: 2
#     Edge 32, Type (0, 0), BuildingBlock: ZUJKAS_clean_linker_0, # of connection points: 2
#     Edge 33, Type (0, 0), BuildingBlock: ZUJKAS_clean_linker_0, # of connection points: 2
#     Edge 34, Type (0, 0), BuildingBlock: ZUJKAS_clean_linker_0, # of connection points: 2
#     Edge 35, Type (0, 0), BuildingBlock: ZUJKAS_clean_linker_0, # of connection points: 2
#     Edge 36, Type (0, 0), BuildingBlock: ZUJKAS_clean_linker_0, # of connection points: 2
#     Edge 37, Type (0, 0), BuildingBlock: ZUJKAS_clean_linker_0, # of connection points: 2
#     Edge 38, Type (0, 0), BuildingBlock: ZUJKAS_clean_linker_0, # of connection points: 2
#     Edge 39, Type (0, 0), BuildingBlock: ZUJKAS_clean_linker_0, # of connection points: 2
#     Edge 40, Type (0, 0), BuildingBlock: ZUJKAS_clean_linker_0, # of connection points: 2
#     Edge 41, Type (0, 0), BuildingBlock: ZUJKAS_clean_linker_0, # of connection points: 2
#     Edge 42, Type (0, 0), BuildingBlock: ZUJKAS_clean_linker_0, # of connection points: 2
#     Edge 43, Type (0, 0), BuildingBlock: ZUJKAS_clean_linker_0, # of connection points: 2
#     Edge 44, Type (0, 0), BuildingBlock: ZUJKAS_clean_linker_0, # of connection points: 2
#     Edge 45, Type (0, 0), BuildingBlock: ZUJKAS_clean_linker_0, # of connection points: 2
#     Edge 46, Type (0, 0), BuildingBlock: ZUJKAS_clean_linker_0, # of connection points: 2
#     Edge 47, Type (0, 0), BuildingBlock: ZUJKAS_clean_linker_0, # of connection points: 2
# Relax obj value: 0.364
# Max RMSD: 0.262
# Mean RMSD: 0.262
data_MOF--net-wkh--node1-VOLQOD_clean_sbu_1--edge1-ZUJKAS_clean_linker_0
_symmetry_space_group_name_H-M    P1
_symmetry_Int_Tables_number       1
_symmetry_cell_setting            triclinic
loop_
_symmetry_equiv_pos_as_xyz
'x, y, z'
_cell_length_a     34.81759
_cell_length_b     34.810981
_cell_length_c     111.63992
_cell_angle_alpha  90.000506
_cell_angle_beta   90.045281
_cell_angle_gamma 120.0302
loop_
_atom_site_label
_atom_site_type_symbol
_atom_site_fract_x
_atom_site_fract_y
_atom_site_fract_z
_atom_type_partial_charge
O0 O 0.15339 0.33022 0.04108 0.0
Zn1 Zn 0.16051 0.31459 0.02429 0.0
O2 O 0.2218 0.33247 0.02109 0.0
Zn3 Zn 0.22703 0.2804 0.01804 0.0
Zn4 Zn 0.25755 0.36339 0.0351 0.0
Zn5 Zn 0.24206 0.37083 0.00697 0.0
O6 O 0.25563 0.28458 0.00215 0.0
O7 O 0.25238 0.33973 0.9931 0.0
O8 O 0.11929 0.24929 0.02134 0.0
O9 O 0.16686 0.22609 0.0174 0.0
O10 O 0.26053 0.26992 0.03101 0.0
O11 O 0.27744 0.32527 0.04365 0.0
O12 O 0.31356 0.41829 0.02993 0.0
O13 O 0.14122 0.34793 0.01381 0.0
O14 O 0.30286 0.42287 0.01045 0.0
O15 O 0.19786 0.39024 0.00187 0.0
C16 C 0.18034 0.3569 0.04885 0.0
C17 C 0.26056 0.3079 0.99287 0.0
C18 C 0.27745 0.28984 0.04083 0.0
C19 C 0.12735 0.2184 0.01876 0.0
C20 C 0.32731 0.43695 0.01977 0.0
C21 C 0.15841 0.37676 0.00555 0.0
O22 O 0.22222 0.37581 0.04734 0.0
O23 O 0.82168 0.15489 0.20465 0.0
Zn24 Zn 0.84962 0.16857 0.18828 0.0
O25 O 0.89104 0.23151 0.18664 0.0
Zn26 Zn 0.94946 0.2409 0.18296 0.0
Zn27 Zn 0.89441 0.26122 0.20168 0.0
Zn28 Zn 0.87192 0.25599 0.17372 0.0
O29 O 0.97426 0.27777 0.16823 0.0
O30 O 0.91471 0.27388 0.15971 0.0
O31 O 0.878 0.13146 0.18495 0.0
O32 O 0.94592 0.18282 0.17958 0.0
O33 O 0.992 0.26821 0.19669 0.0
O34 O 0.95117 0.27721 0.21039 0.0
O35 O 0.89623 0.31893 0.19839 0.0
O36 O 0.80061 0.14979 0.17641 0.0
O37 O 0.87752 0.31388 0.17918 0.0
O38 O 0.8095 0.21149 0.16785 0.0
C39 C 0.821 0.17896 0.21317 0.0
C40 C 0.95558 0.28489 0.15938 0.0
C41 C 0.98734 0.27951 0.20718 0.0
C42 C 0.91645 0.14233 0.18105 0.0
C43 C 0.88928 0.33545 0.18901 0.0
C44 C 0.78751 0.16949 0.16933 0.0
O45 O 0.84491 0.22115 0.21286 0.0
O46 O 0.67085 0.82553 0.37089 0.0
Zn47 Zn 0.68379 0.85172 0.35431 0.0
O48 O 0.66245 0.89313 0.35238 0.0
Zn49 Zn 0.71108 0.95092 0.3479 0.0
Zn50 Zn 0.63846 0.89894 0.36754 0.0
Zn51 Zn 0.61703 0.87202 0.33988 0.0
O52 O 0.6981 0.97259 0.3327 0.0
O53 O 0.64028 0.912 0.32527 0.0
O54 O 0.74895 0.87963 0.3508 0.0
O55 O 0.76566 0.94704 0.34486 0.0
O56 O 0.72705 0.99616 0.36096 0.0
O57 O 0.68056 0.95703 0.37552 0.0
O58 O 0.58213 0.90001 0.36459 0.0
O59 O 0.65282 0.80168 0.3428 0.0
O60 O 0.56566 0.87878 0.3456 0.0
O61 O 0.59834 0.80881 0.33464 0.0
C62 C 0.64759 0.8266 0.37955 0.0
C63 C 0.67089 0.95239 0.32422 0.0
C64 C 0.71315 0.99302 0.37165 0.0
C65 C 0.77657 0.91765 0.34665 0.0
C66 C 0.55728 0.89177 0.35544 0.0
C67 C 0.619 0.78745 0.33604 0.0
O68 O 0.63009 0.85116 0.37919 0.0
O69 O 0.84917 0.66922 0.53716 0.0
Zn70 Zn 0.83682 0.68531 0.52088 0.0
O71 O 0.77429 0.66565 0.51924 0.0
Zn72 Zn 0.76677 0.71589 0.5154 0.0
Zn73 Zn 0.7435 0.6395 0.53425 0.0
Zn74 Zn 0.74979 0.62215 0.5063 0.0
O75 O 0.73594 0.70733 0.49966 0.0
O76 O 0.73522 0.64815 0.49195 0.0
O77 O 0.87545 0.75089 0.51813 0.0
O78 O 0.82595 0.7714 0.51398 0.0
O79 O 0.73386 0.72778 0.52823 0.0
O80 O 0.72631 0.68029 0.54254 0.0
O81 O 0.68569 0.58319 0.53084 0.0
O82 O 0.85516 0.65513 0.5089 0.0
O83 O 0.69076 0.57148 0.51148 0.0
O84 O 0.79259 0.60166 0.50088 0.0
C85 C 0.82497 0.64617 0.54587 0.0
C86 C 0.72809 0.68055 0.49101 0.0
C87 C 0.72211 0.71254 0.53878 0.0
C88 C 0.86597 0.78061 0.51533 0.0
C89 C 0.66907 0.56088 0.52128 0.0
C90 C 0.83466 0.62156 0.5021 0.0
O91 O 0.78303 0.63018 0.54578 0.0
O92 O 0.1658 0.83402 0.70596 0.0
Zn93 Zn 0.14431 0.82491 0.68902 0.0
O94 O 0.10394 0.7629 0.68565 0.0
Zn95 Zn 0.04871 0.75685 0.68007 0.0
Zn96 Zn 0.0936 0.72925 0.70038 0.0
Zn97 Zn 0.1274 0.74125 0.67307 0.0
O98 O 0.02667 0.71984 0.66524 0.0
O99 O 0.08845 0.72438 0.65823 0.0
O100 O 0.11858 0.86411 0.68527 0.0
O101 O 0.05739 0.81607 0.67557 0.0
O102 O 0.00237 0.73256 0.69297 0.0
O103 O 0.03297 0.71102 0.70697 0.0
O104 O 0.09497 0.67351 0.69688 0.0
O105 O 0.19747 0.84605 0.67871 0.0
O106 O 0.12243 0.68334 0.67843 0.0
O107 O 0.19047 0.78831 0.66838 0.0
C108 C 0.16222 0.80787 0.71441 0.0
C109 C 0.04787 0.71356 0.65691 0.0
C110 C 0.0008 0.71514 0.70311 0.0
C111 C 0.08502 0.8554 0.67884 0.0
C112 C 0.10704 0.65972 0.68786 0.0
C113 C 0.2125 0.82934 0.67122 0.0
O114 O 0.1375 0.76594 0.71337 0.0
O115 O 0.32136 0.16847 0.87279 0.0
Zn116 Zn 0.30817 0.14624 0.85588 0.0
O117 O 0.32699 0.10324 0.85294 0.0
Zn118 Zn 0.27543 0.04698 0.8489 0.0
Zn119 Zn 0.35373 0.09574 0.86747 0.0
Zn120 Zn 0.36897 0.1226 0.83953 0.0
O121 O 0.28498 0.02226 0.8338 0.0
O122 O 0.34211 0.08068 0.82536 0.0
O123 O 0.24337 0.12241 0.8522 0.0
O124 O 0.22298 0.05435 0.84601 0.0
O125 O 0.25873 0.00239 0.86205 0.0
O126 O 0.3145 0.03574 0.87492 0.0
O127 O 0.41062 0.09736 0.86349 0.0
O128 O 0.34163 0.19844 0.84527 0.0
O129 O 0.42177 0.11643 0.84427 0.0
O130 O 0.3873 0.18582 0.83425 0.0
C131 C 0.34436 0.16522 0.88119 0.0
C132 C 0.31072 0.04041 0.82493 0.0
C133 C 0.27775 0.00245 0.87178 0.0
C134 C 0.21428 0.08521 0.84791 0.0
C135 C 0.43314 0.10504 0.85391 0.0
C136 C 0.37166 0.21064 0.83732 0.0
O137 O 0.36163 0.14059 0.88015 0.0
O138 O 0.66709 0.84303 0.79094 0.0
Zn139 Zn 0.68075 0.83333 0.80773 0.0
O140 O 0.66134 0.77143 0.81054 0.0
Zn141 Zn 0.71238 0.76608 0.81474 0.0
Zn142 Zn 0.63492 0.7381 0.79589 0.0
Zn143 Zn 0.61869 0.74845 0.82374 0.0
O144 O 0.70184 0.73095 0.82981 0.0
O145 O 0.64538 0.73413 0.83803 0.0
O146 O 0.74551 0.87388 0.81143 0.0
O147 O 0.76481 0.8258 0.81797 0.0
O148 O 0.73004 0.73989 0.80131 0.0
O149 O 0.67592 0.7205 0.78801 0.0
O150 O 0.57934 0.68125 0.79982 0.0
O151 O 0.64758 0.85193 0.81842 0.0
O152 O 0.56675 0.68886 0.81896 0.0
O153 O 0.59976 0.793 0.82891 0.0
C154 C 0.64255 0.81707 0.78268 0.0
C155 C 0.67618 0.72449 0.83864 0.0
C156 C 0.71233 0.72335 0.79124 0.0
C157 C 0.77404 0.86549 0.81598 0.0
C158 C 0.55652 0.66593 0.80935 0.0
C159 C 0.61661 0.83389 0.8261 0.0
O160 O 0.62466 0.77505 0.78367 0.0
O161 O 0.8241 0.67288 0.95897 0.0
Zn162 Zn 0.84885 0.68657 0.97571 0.0
O163 O 0.89239 0.66781 0.97792 0.0
Zn164 Zn 0.94909 0.71936 0.98192 0.0
Zn165 Zn 0.89895 0.64205 0.96307 0.0
Zn166 Zn 0.87338 0.62401 0.99089 0.0
O167 O 0.97205 0.71041 0.99747 0.0
O168 O 0.91438 0.65051 0.00524 0.0
O169 O 0.87347 0.75158 0.97915 0.0
O170 O 0.94333 0.77337 0.98384 0.0
O171 O 0.99435 0.73425 0.96904 0.0
O172 O 0.95855 0.68152 0.95548 0.0
O173 O 0.89806 0.58504 0.9664 0.0
O174 O 0.79836 0.65379 0.98693 0.0
O175 O 0.88104 0.57241 0.98572 0.0
O176 O 0.80967 0.60355 0.99613 0.0
C177 C 0.82725 0.65083 0.95028 0.0
C178 C 0.95378 0.68335 0.0061 0.0
C179 C 0.99312 0.71652 0.95899 0.0
C180 C 0.91195 0.78165 0.9824 0.0
C181 C 0.89175 0.56197 0.97582 0.0
C182 C 0.78595 0.62138 0.99412 0.0
O183 O 0.85293 0.63462 0.95084 0.0
O184 O 0.15798 0.83093 0.12569 0.0
Zn185 Zn 0.16918 0.85508 0.14245 0.0
O186 O 0.23174 0.896 0.14504 0.0
Zn187 Zn 0.24058 0.95382 0.14927 0.0
Zn188 Zn 0.26387 0.90153 0.13024 0.0
Zn189 Zn 0.25358 0.87492 0.15819 0.0
O190 O 0.27391 0.97594 0.16462 0.0
O191 O 0.26924 0.91542 0.17267 0.0
O192 O 0.13148 0.88267 0.14594 0.0
O193 O 0.18208 0.95031 0.15178 0.0
O194 O 0.27184 0.99883 0.13638 0.0
O195 O 0.28307 0.96056 0.12231 0.0
O196 O 0.3199 0.9005 0.13405 0.0
O197 O 0.14868 0.80315 0.15332 0.0
O198 O 0.31212 0.88091 0.15325 0.0
O199 O 0.2078 0.81178 0.16326 0.0
C200 C 0.18306 0.83165 0.11729 0.0
C201 C 0.27975 0.95609 0.17339 0.0
C202 C 0.28547 0.99632 0.126 0.0
C203 C 0.14181 0.92088 0.14995 0.0
C204 C 0.33483 0.89263 0.14361 0.0
C205 C 0.16649 0.7891 0.16076 0.0
O206 O 0.2252 0.85497 0.11809 0.0
O207 O 0.32977 0.15832 0.29271 0.0
Zn208 Zn 0.31692 0.16948 0.30945 0.0
O209 O 0.33834 0.23192 0.31206 0.0
Zn210 Zn 0.28935 0.24049 0.31643 0.0
Zn211 Zn 0.3644 0.26392 0.29723 0.0
Zn212 Zn 0.38167 0.25399 0.32509 0.0
O213 O 0.30128 0.27475 0.33168 0.0
O214 O 0.3573 0.26992 0.33956 0.0
O215 O 0.25179 0.13157 0.31301 0.0
O216 O 0.23489 0.18178 0.31927 0.0
O217 O 0.27411 0.27013 0.30338 0.0
O218 O 0.32353 0.28173 0.28927 0.0
O219 O 0.42114 0.32034 0.30096 0.0
O220 O 0.34848 0.14913 0.32029 0.0
O221 O 0.43423 0.31235 0.32005 0.0
O222 O 0.39882 0.20828 0.33025 0.0
C223 C 0.35437 0.1835 0.28435 0.0
C224 C 0.32731 0.2806 0.34038 0.0
C225 C 0.28973 0.28334 0.29293 0.0
C226 C 0.2241 0.14161 0.3173 0.0
C227 C 0.44457 0.33516 0.31043 0.0
C228 C 0.38027 0.16699 0.32776 0.0
O229 O 0.37315 0.22563 0.28518 0.0
O230 O 0.18358 0.3357 0.46015 0.0
Zn231 Zn 0.15469 0.31781 0.47635 0.0
O232 O 0.11043 0.33586 0.47809 0.0
Zn233 Zn 0.05287 0.28374 0.48116 0.0
Zn234 Zn 0.10656 0.36397 0.46338 0.0
Zn235 Zn 0.12732 0.37789 0.49138 0.0
O236 O 0.02915 0.28815 0.49713 0.0
O237 O 0.08399 0.3501 0.50503 0.0
O238 O 0.12917 0.252 0.47858 0.0
O239 O 0.05805 0.22914 0.48178 0.0
O240 O 0.00873 0.27277 0.46809 0.0
O241 O 0.04959 0.32394 0.45465 0.0
O242 O 0.10444 0.41962 0.4671 0.0
O243 O 0.20235 0.34773 0.48861 0.0
O244 O 0.12024 0.42955 0.48652 0.0
O245 O 0.18979 0.39764 0.4975 0.0
C246 C 0.18226 0.35951 0.45166 0.0
C247 C 0.04582 0.31545 0.50579 0.0
C248 C 0.01317 0.29019 0.45779 0.0
C249 C 0.08972 0.22114 0.48067 0.0
C250 C 0.10977 0.44113 0.47678 0.0
C251 C 0.21344 0.37948 0.49596 0.0
O252 O 0.156 0.37508 0.452 0.0
O253 O 0.83752 0.16015 0.62468 0.0
Zn254 Zn 0.82411 0.13832 0.64158 0.0
O255 O 0.76117 0.10117 0.64397 0.0
Zn256 Zn 0.74785 0.04177 0.64803 0.0
Zn257 Zn 0.73158 0.09958 0.62907 0.0
Zn258 Zn 0.74099 0.12392 0.65701 0.0
O259 O 0.71111 0.01987 0.66286 0.0
O260 O 0.72283 0.08254 0.67137 0.0
O261 O 0.8578 0.10731 0.64569 0.0
O262 O 0.80394 0.04124 0.65157 0.0
O263 O 0.71828 -0.00072 0.63443 0.0
O264 O 0.71149 0.04134 0.62063 0.0
O265 O 0.67668 0.10242 0.63267 0.0
O266 O 0.84697 0.19156 0.65206 0.0
O267 O 0.68426 0.12173 0.65189 0.0
O268 O 0.78918 0.18597 0.66205 0.0
C269 C 0.8145 0.16452 0.61649 0.0
C270 C 0.70798 0.0408 0.67181 0.0
C271 C 0.70712 0.00435 0.62395 0.0
C272 C 0.84489 0.06889 0.64997 0.0
C273 C 0.66202 0.11103 0.64215 0.0
C274 C 0.83045 0.20712 0.65946 0.0
O275 O 0.77258 0.14725 0.61747 0.0
H276 H 0.7201 0.53513 0.99712 0.0
H277 H 0.64337 0.5097 0.00338 0.0
H278 H 0.67848 0.64501 0.01093 0.0
H279 H 0.75407 0.67047 0.00407 0.0
H280 H 0.60138 0.5131 0.02278 0.0
H281 H 0.5816 0.6128 0.98722 0.0
H282 H 0.62973 0.60637 0.98816 0.0
H283 H 0.62548 0.6465 0.99742 0.0
C284 C 0.71139 0.5592 0.00028 0.0
C285 C 0.74259 0.6047 -1e-05 0.0
C286 C 0.66763 0.54476 0.00382 0.0
C287 C 0.6548 0.57563 0.00726 0.0
C288 C 0.68709 0.62074 0.00789 0.0
H289 H 0.38917 0.48227 0.0373 0.0
H290 H 0.4699 0.52171 0.03498 0.0
C291 C 0.73035 0.63521 0.00409 0.0
C292 C 0.60744 0.56103 0.00964 0.0
H293 H 0.52295 0.57836 0.00122 0.0
C294 C 0.58418 0.52732 0.01807 0.0
C295 C 0.58479 0.57913 0.00334 0.0
C296 C 0.60654 0.61284 0.99344 0.0
C297 C 0.53893 0.51107 0.02034 0.0
C298 C 0.5167 0.53025 0.01433 0.0
C299 C 0.54011 0.56417 0.00597 0.0
C300 C 0.4683 0.51291 0.01575 0.0
C301 C 0.51512 0.47226 0.02878 0.0
C302 C 0.44064 0.49818 0.00563 0.0
C303 C 0.39462 0.47689 0.00688 0.0
C304 C 0.3752 0.46936 0.01831 0.0
C305 C 0.40303 0.4871 0.02837 0.0
C306 C 0.4492 0.50913 0.02708 0.0
H307 H 0.53369 0.45429 0.03008 0.0
H308 H 0.51176 0.48454 0.03767 0.0
H309 H 0.48144 0.44834 0.02541 0.0
H310 H 0.45453 0.50112 0.99677 0.0
H311 H 0.37432 0.46373 -0.00108 0.0
H312 H 0.19118 0.73776 0.17388 0.0
H313 H 0.14211 0.66278 0.18177 0.0
H314 H 0.02822 0.66678 0.16817 0.0
H315 H 0.07635 0.74106 0.16041 0.0
H316 H 0.01684 0.6301 0.19178 0.0
H317 H 0.07946 0.55494 0.15861 0.0
H318 H 0.12029 0.59817 0.16797 0.0
H319 H 0.09013 0.61109 0.1572 0.0
C320 C 0.15568 0.72278 0.17268 0.0
C321 C 0.13779 0.74522 0.16638 0.0
C322 C 0.12773 0.67997 0.17716 0.0
C323 C 0.08161 0.65918 0.17543 0.0
C324 C 0.0637 0.68222 0.16959 0.0
H325 H 0.8857 0.38437 0.17029 0.0
H326 H 0.92896 0.46488 0.16822 0.0
C327 C 0.09142 0.72466 0.16508 0.0
C328 C 0.05168 0.61245 0.17898 0.0
H329 H 0.02224 0.50626 0.17142 0.0
C330 C 0.01819 0.60293 0.18743 0.0
C331 C 0.05319 0.57723 0.17313 0.0
C332 C 0.08742 0.58557 0.16365 0.0
C333 C 0.98588 0.55894 0.19012 0.0
C334 C 0.98734 0.52381 0.18421 0.0
C335 C 0.02116 0.53338 0.17589 0.0
C336 C 0.95414 0.47661 0.18636 0.0
C337 C 0.94971 0.55032 0.19896 0.0
C338 C 0.95239 0.45674 0.19743 0.0
C339 C 0.92749 0.41061 0.19867 0.0
C340 C 0.90433 0.38357 0.18882 0.0
C341 C 0.90325 0.40402 0.17805 0.0
C342 C 0.92813 0.45009 0.17682 0.0
H343 H 0.94791 0.58073 0.20083 0.0
H344 H 0.91697 0.52408 0.19558 0.0
H345 H 0.95641 0.53854 0.20752 0.0
H346 H 0.97254 0.47658 0.20487 0.0
H347 H 0.92912 0.39609 0.2071 0.0
H348 H 0.34101 0.07712 0.32623 0.0
H349 H 0.36619 0.02927 0.33466 0.0
H350 H 0.47793 0.14255 0.35087 0.0
H351 H 0.45305 0.19145 0.34229 0.0
H352 H 0.50076 0.08945 0.33772 0.0
H353 H 0.36341 0.98566 0.36868 0.0
H354 H 0.3439 0.98815 0.35398 0.0
H355 H 0.37222 0.03789 0.36285 0.0
C356 C 0.37079 0.09211 0.33167 0.0
C357 C 0.39514 0.1383 0.33354 0.0
C358 C 0.38484 0.06447 0.3366 0.0
C359 C 0.4234 0.08219 0.34358 0.0
C360 C 0.44773 0.1282 0.34561 0.0
H361 H 0.53478 0.92791 0.3741 0.0
H362 H 0.49802 0.97189 0.37246 0.0
C363 C 0.43355 0.15607 0.34069 0.0
C364 C 0.4401 0.05278 0.34769 0.0
H365 H 0.40888 0.95512 0.36227 0.0
C366 C 0.48101 0.0605 0.34325 0.0
C367 C 0.41434 0.0151 0.35496 0.0
C368 C 0.37123 0.00641 0.3605 0.0
C369 C 0.49587 0.03042 0.34538 0.0
C370 C 0.46886 0.99142 0.35202 0.0
C371 C 0.42901 0.98469 0.35699 0.0
C372 C 0.48195 0.95744 0.35369 0.0
C373 C 0.54008 0.04014 0.34035 0.0
C374 C 0.48262 0.93279 0.34385 0.0
C375 C 0.50343 0.90748 0.34473 0.0
C376 C 0.52417 0.90669 0.35549 0.0
C377 C 0.5195 0.92802 0.36565 0.0
C378 C 0.49857 0.95327 0.36475 0.0
H379 H 0.56068 0.07539 0.33759 0.0
H380 H 0.55886 0.0324 0.34704 0.0
H381 H 0.53445 0.01896 0.33237 0.0
H382 H 0.46943 0.93531 0.33528 0.0
H383 H 0.50605 0.89128 0.33675 0.0
H384 H 0.28168 0.46466 0.49814 0.0
H385 H 0.3568 0.488 0.50542 0.0
H386 H 0.31382 0.35332 0.51615 0.0
H387 H 0.23983 0.32967 0.50816 0.0
H388 H 0.39642 0.48836 0.52541 0.0
H389 H 0.41057 0.37298 0.49391 0.0
H390 H 0.36414 0.38225 0.49365 0.0
H391 H 0.36622 0.34473 0.50441 0.0
C392 C 0.28831 0.44034 0.50223 0.0
C393 C 0.25542 0.39541 0.5025 0.0
C394 C 0.33116 0.45357 0.50636 0.0
C395 C 0.34139 0.42212 0.51099 0.0
C396 C 0.30728 0.37788 0.5122 0.0
H397 H 0.61109 0.52449 0.54017 0.0
H398 H 0.52994 0.48398 0.53906 0.0
C399 C 0.26493 0.36448 0.50777 0.0
C400 C 0.38808 0.43518 0.51388 0.0
H401 H 0.4701 0.41187 0.50731 0.0
C402 C 0.41255 0.4716 0.52147 0.0
C403 C 0.40933 0.41363 0.50861 0.0
C404 C 0.38638 0.37656 0.4996 0.0
C405 C 0.45779 0.48771 0.52375 0.0
C406 C 0.47876 0.46558 0.51867 0.0
C407 C 0.45394 0.42846 0.51133 0.0
C408 C 0.52739 0.48332 0.51967 0.0
C409 C 0.483 0.5296 0.53105 0.0
C410 C 0.55288 0.49305 0.50919 0.0
C411 C 0.59906 0.51484 0.50981 0.0
C412 C 0.62094 0.52801 0.52092 0.0
C413 C 0.59532 0.51527 0.53146 0.0
C414 C 0.54891 0.49265 0.53083 0.0
H415 H 0.46484 0.54821 0.5317 0.0
H416 H 0.48769 0.52085 0.54028 0.0
H417 H 0.51617 0.55189 0.52712 0.0
H418 H 0.53716 0.48583 0.50046 0.0
H419 H 0.61756 0.52393 0.50149 0.0
H420 H 0.80874 0.2608 0.67249 0.0
H421 H 0.8599 0.33582 0.68001 0.0
H422 H 0.97091 0.32721 0.66615 0.0
H423 H 0.92067 0.25279 0.65874 0.0
H424 H 0.98459 0.3658 0.68964 0.0
H425 H 0.92346 0.44144 0.65619 0.0
H426 H 0.88222 0.39945 0.66572 0.0
H427 H 0.91127 0.38471 0.65507 0.0
C428 C 0.84406 0.27476 0.67116 0.0
C429 C 0.86052 0.251 0.66488 0.0
C430 C 0.87319 0.31758 0.67542 0.0
C431 C 0.91908 0.33708 0.67351 0.0
C432 C 0.93562 0.31275 0.6677 0.0
H433 H 0.11396 0.61362 0.66889 0.0
H434 H 0.07328 0.53319 0.66637 0.0
C435 C 0.9067 0.27025 0.66341 0.0
C436 C 0.95008 0.38379 0.67681 0.0
H437 H 0.98039 0.49006 0.66915 0.0
C438 C 0.98361 0.39307 0.68524 0.0
C439 C 0.94905 0.4191 0.67087 0.0
C440 C 0.91485 0.41096 0.66139 0.0
C441 C 0.01619 0.43697 0.68791 0.0
C442 C 0.01494 0.47222 0.682 0.0
C443 C 0.98133 0.46286 0.67361 0.0
C444 C 0.04746 0.51937 0.68444 0.0
C445 C 0.0522 0.44535 0.6968 0.0
C446 C 0.04807 0.53803 0.69561 0.0
C447 C 0.07143 0.58407 0.69711 0.0
C448 C 0.09416 0.6122 0.6874 0.0
C449 C 0.0967 0.59309 0.67654 0.0
C450 C 0.07331 0.54707 0.67506 0.0
H451 H 0.05456 0.41509 0.69841 0.0
H452 H 0.08489 0.47235 0.69363 0.0
H453 H 0.04477 0.45585 0.70546 0.0
H454 H 0.02798 0.51728 0.70293 0.0
H455 H 0.06886 0.59757 0.70562 0.0
H456 H 0.54161 0.80832 0.8398 0.0
H457 H 0.51449 0.85656 0.84758 0.0
H458 H 0.62871 0.97084 0.83266 0.0
H459 H 0.65608 0.92369 0.82504 0.0
H460 H 0.60651 0.98486 0.85602 0.0
H461 H 0.46261 0.91288 0.82468 0.0
H462 H 0.46776 0.87454 0.83441 0.0
H463 H 0.50863 0.90321 0.82301 0.0
C464 C 0.56105 0.84376 0.83828 0.0
C465 C 0.60067 0.86201 0.83166 0.0
C466 C 0.5455 0.87121 0.8427 0.0
C467 C 0.56944 0.91718 0.84056 0.0
C468 C 0.60973 0.93549 0.83439 0.0
H469 H 0.481 0.10546 0.83439 0.0
H470 H 0.5197 0.06365 0.83222 0.0
C471 C 0.62514 0.90829 0.82997 0.0
C472 C 0.55192 0.94653 0.84404 0.0
H473 H 0.472 0.97195 0.83684 0.0
C474 C 0.57685 0.98188 0.85194 0.0
C475 C 0.51368 0.94287 0.83852 0.0
C476 C 0.48665 0.90659 0.82961 0.0
C477 C 0.56476 0.01403 0.85436 0.0
C478 C 0.52664 0.01042 0.84879 0.0
C479 C 0.50138 0.97469 0.84105 0.0
C480 C 0.51188 0.04308 0.85077 0.0
C481 C 0.5935 0.05227 0.86255 0.0
C482 C 0.4965 0.04702 0.86204 0.0
C483 C 0.47453 0.07113 0.86334 0.0
C484 C 0.4671 0.09126 0.85334 0.0
C485 C 0.4859 0.09029 0.84227 0.0
C486 C 0.50788 0.0662 0.841 0.0
H487 H 0.62672 0.05576 0.86389 0.0
H488 H 0.59785 0.0839 0.85891 0.0
H489 H 0.57719 0.04655 0.87142 0.0
H490 H 0.49886 0.02909 0.86967 0.0
H491 H 0.46061 0.07121 0.87201 0.0
H492 H 0.51034 0.61734 0.82894 0.0
H493 H 0.47337 0.53676 0.83098 0.0
H494 H 0.49274 0.52438 0.79336 0.0
H495 H 0.52955 0.60494 0.79115 0.0
H496 H 0.40837 0.45515 0.80341 0.0
H497 H 0.55724 0.48269 0.82886 0.0
H498 H 0.53133 0.51263 0.83445 0.0
H499 H 0.55643 0.52538 0.81986 0.0
C500 C 0.50569 0.59756 0.821 0.0
C501 C 0.52368 0.6178 0.80991 0.0
C502 C 0.48481 0.55148 0.82222 0.0
C503 C 0.48145 0.5249 0.81238 0.0
C504 C 0.49549 0.54448 0.80108 0.0
H505 H 0.44538 0.25844 0.82308 0.0
H506 H 0.47254 0.33328 0.8149 0.0
C507 C 0.51644 0.59058 0.79984 0.0
C508 C 0.46717 0.47748 0.81413 0.0
H509 H 0.49588 0.40921 0.82865 0.0
C510 C 0.42756 0.445 0.80886 0.0
C511 C 0.49296 0.46445 0.82098 0.0
C512 C 0.53709 0.49803 0.82628 0.0
C513 C 0.41193 0.39965 0.81075 0.0
C514 C 0.43643 0.38671 0.8182 0.0
C515 C 0.47708 0.4192 0.82299 0.0
C516 C 0.41858 0.34016 0.82209 0.0
C517 C 0.36914 0.36598 0.80487 0.0
C518 C 0.37956 0.31955 0.82888 0.0
C519 C 0.36427 0.27732 0.83359 0.0
C520 C 0.38773 0.25463 0.83168 0.0
C521 C 0.42652 0.27497 0.82469 0.0
C522 C 0.44203 0.31763 0.82001 0.0
H523 H 0.3622 0.37976 0.79671 0.0
H524 H 0.37 0.33553 0.80239 0.0
H525 H 0.34133 0.35656 0.81122 0.0
H526 H 0.36151 0.33669 0.83083 0.0
H527 H 0.33418 0.26272 0.83888 0.0
H528 H 0.9311 0.5418 0.95756 0.0
H529 H 0.97114 0.50114 0.9592 0.0
H530 H 0.92604 0.46594 0.99561 0.0
H531 H 0.88605 0.5068 0.99414 0.0
H532 H 0.03948 0.52944 0.97752 0.0
H533 H 0.91443 0.35026 0.98061 0.0
H534 H 0.90271 0.39034 0.97374 0.0
H535 H 0.90332 0.3861 0.98976 0.0
C536 C 0.92848 0.52434 0.96582 0.0
C537 C 0.90566 0.52803 0.97577 0.0
C538 C 0.95156 0.5012 0.96673 0.0
C539 C 0.95156 0.48063 0.97751 0.0
C540 C 0.92606 0.48125 0.98716 0.0
H541 H 0.08596 0.3739 0.01548 0.0
H542 H 0.03817 0.39913 0.00698 0.0
C543 C 0.90325 0.50471 0.9863 0.0
C544 C 0.98278 0.46393 0.97928 0.0
H545 H 0.98784 0.3719 0.98707 0.0
C546 C 0.0284 0.49487 0.97942 0.0
C547 C 0.96802 0.41894 0.98177 0.0
C548 C 0.91946 0.38431 0.98138 0.0
C549 C 0.05962 0.48244 0.98267 0.0
C550 C 0.04478 0.43757 0.98555 0.0
C551 C -0.00079 0.4063 0.98487 0.0
C552 C 0.07511 0.42306 0.99046 0.0
C553 C 0.10782 0.51791 0.98366 0.0
C554 C 0.1122 0.42838 0.98403 0.0
C555 C 0.14027 0.41445 0.98899 0.0
C556 C 0.13111 0.39428 0.00034 0.0
C557 C 0.09392 0.38907 0.00669 0.0
C558 C 0.06639 0.40337 0.00182 0.0
H559 H 0.11221 0.5518 0.98372 0.0
H560 H 0.12292 0.51353 0.99194 0.0
H561 H 0.12624 0.5155 0.97586 0.0
H562 H 0.11914 0.44275 0.97515 0.0
H563 H 0.16841 0.4185 0.98384 0.0
H564 H 0.39315 0.91282 0.12496 0.0
H565 H 0.47414 0.95177 0.12628 0.0
H566 H 0.4654 0.94607 0.16485 0.0
H567 H 0.38501 0.90568 0.16361 0.0
H568 H 0.52286 0.03075 0.13496 0.0
H569 H 0.56275 0.92017 0.16064 0.0
H570 H 0.50847 0.90086 0.15428 0.0
H571 H 0.52273 0.92794 0.1687 0.0
C572 C 0.4085 0.9185 0.13371 0.0
C573 C 0.38249 0.90612 0.14417 0.0
C574 C 0.45484 0.94103 0.13446 0.0
C575 C 0.47606 0.95174 0.14567 0.0
C576 C 0.45006 0.9373 0.15609 0.0
H577 H 0.71892 0.18548 0.16599 0.0
H578 H 0.64464 0.13272 0.15845 0.0
C579 C 0.40384 0.91423 0.15535 0.0
C580 C 0.52478 0.98223 0.14659 0.0
H581 H 0.61642 0.99882 0.16198 0.0
C582 C 0.54355 0.0234 0.14069 0.0
C583 C 0.55213 0.97261 0.15388 0.0
C584 C 0.53548 0.92775 0.15961 0.0
C585 C 0.58827 0.05587 0.14233 0.0
C586 C 0.61457 0.04763 0.15044 0.0
C587 C 0.59629 0.00568 0.1559 0.0
C588 C 0.66069 0.08194 0.1537 0.0
C589 C 0.60667 0.09846 0.13529 0.0
C590 C 0.69449 0.07111 0.15367 0.0
C591 C 0.73629 0.1006 0.15832 0.0
C592 C 0.74554 0.14197 0.16287 0.0
C593 C 0.71269 0.15401 0.16235 0.0
C594 C 0.67033 0.12391 0.15798 0.0
H595 H 0.58866 0.09313 0.12667 0.0
H596 H 0.60226 0.12307 0.14053 0.0
H597 H 0.64251 0.11258 0.13333 0.0
H598 H 0.68809 0.03911 0.15041 0.0
H599 H 0.76119 0.09063 0.15862 0.0
H600 H 0.48195 0.39344 0.29173 0.0
H601 H 0.52394 0.47444 0.29305 0.0
H602 H 0.52256 0.46566 0.33162 0.0
H603 H 0.48261 0.38526 0.33037 0.0
H604 H 0.49335 0.52247 0.30197 0.0
H605 H 0.64538 0.56375 0.32709 0.0
H606 H 0.61047 0.50939 0.32076 0.0
H607 H 0.5981 0.52342 0.33526 0.0
C608 C 0.49199 0.40879 0.30048 0.0
C609 C 0.47881 0.38279 0.31094 0.0
C610 C 0.51577 0.45512 0.30122 0.0
C611 C 0.52669 0.47632 0.31243 0.0
C612 C 0.51566 0.45033 0.32285 0.0
H613 H 0.53446 0.71797 0.33321 0.0
H614 H 0.51315 0.64368 0.32572 0.0
C615 C 0.49254 0.40411 0.32211 0.0
C616 C 0.54459 0.52494 0.31337 0.0
H617 H 0.61977 0.61686 0.32866 0.0
C618 C 0.52159 0.54334 0.30762 0.0
C619 C 0.5818 0.55252 0.32057 0.0
C620 C 0.61057 0.53625 0.32614 0.0
C621 C 0.53348 0.58792 0.30931 0.0
C622 C 0.56831 0.61443 0.31734 0.0
C623 C 0.59256 0.59653 0.32265 0.0
C624 C 0.57988 0.66041 0.32063 0.0
C625 C 0.50863 0.60597 0.30243 0.0
C626 C 0.62438 0.69452 0.3204 0.0
C627 C 0.63659 0.73631 0.32502 0.0
C628 C 0.60448 0.7452 0.32974 0.0
C629 C 0.55967 0.71198 0.32945 0.0
C630 C 0.54752 0.66964 0.3251 0.0
H631 H 0.49555 0.58788 0.29385 0.0
H632 H 0.47983 0.60135 0.30781 0.0
H633 H 0.53003 0.64184 0.30044 0.0
H634 H 0.64997 0.68842 0.31699 0.0
H635 H 0.6714 0.76152 0.32513 0.0
H636 H 0.09484 0.4768 0.49676 0.0
H637 H 0.05261 0.51491 0.49798 0.0
H638 H 0.04851 0.51953 0.4594 0.0
H639 H 0.08914 0.47909 0.45808 0.0
H640 H 0.0597 0.58946 0.49142 0.0
H641 H 0.91882 0.45398 0.46653 0.0
H642 H 0.96648 0.4503 0.47112 0.0
H643 H 0.96925 0.48191 0.45806 0.0
C644 C 0.08577 0.48654 0.48849 0.0
C645 C 0.09476 0.47413 0.47731 0.0
C646 C 0.06141 0.50832 0.48921 0.0
C647 C 0.04602 0.51878 0.47878 0.0
C648 C 0.05857 0.51029 0.46758 0.0
H649 H 0.9115 0.67144 0.49019 0.0
H650 H 0.96215 0.64791 0.48244 0.0
C651 C 0.08234 0.4877 0.46684 0.0
C652 C 0.01497 0.53625 0.47986 0.0
H653 H 0.90987 0.51337 0.47302 0.0
C654 C 0.02703 0.57298 0.48733 0.0
C655 C 0.97197 0.51419 0.4747 0.0
C656 C 0.95558 0.47267 0.46725 0.0
C657 C 0.99709 0.58755 0.49007 0.0
C658 C 0.95441 0.56611 0.48472 0.0
C659 C 0.94267 0.53003 0.47702 0.0
C660 C 0.92075 0.57909 0.48756 0.0
C661 C 0.01091 0.62425 0.49918 0.0
C662 C 0.87896 0.54759 0.49211 0.0
C663 C 0.8492 0.56076 0.49613 0.0
C664 C 0.86122 0.60567 0.49582 0.0
C665 C 0.90182 0.63665 0.49064 0.0
C666 C 0.93094 0.62332 0.48633 0.0
H667 H 0.03854 0.62764 0.50492 0.0
H668 H 0.02269 0.65626 0.49446 0.0
H669 H 0.98279 0.61828 0.50508 0.0
H670 H 0.87015 0.51316 0.49304 0.0
H671 H 0.81809 0.53637 0.50013 0.0
H672 H 0.60074 0.0768 0.62404 0.0
H673 H 0.52041 0.03415 0.62654 0.0
H674 H 0.5348 0.07194 0.66375 0.0
H675 H 0.6152 0.11441 0.66142 0.0
H676 H 0.49481 0.97881 0.6591 0.0
H677 H 0.41531 0.05634 0.63292 0.0
H678 H 0.45808 0.05087 0.62543 0.0
H679 H 0.47211 0.08736 0.63807 0.0
C680 C 0.58687 0.07745 0.63266 0.0
C681 C 0.61458 0.09838 0.64259 0.0
C682 C 0.54082 0.05304 0.63405 0.0
C683 C 0.52181 0.04965 0.64534 0.0
C684 C 0.549 0.07407 0.65497 0.0
H685 H 0.26061 0.91919 0.67313 0.0
H686 H 0.33404 0.96928 0.66524 0.0
C687 C 0.59499 0.09849 0.6536 0.0
C688 C 0.4751 0.01554 0.64759 0.0
H689 H 0.36776 0.98553 0.6413 0.0
C690 C 0.46697 0.98017 0.6552 0.0
C691 C 0.4391 0.0174 0.64238 0.0
C692 C 0.4463 0.05513 0.6343 0.0
C693 C 0.42366 0.94695 0.65797 0.0
C694 C 0.38755 0.9489 0.65285 0.0
C695 C 0.39564 0.98392 0.64508 0.0
C696 C 0.34143 0.91781 0.65659 0.0
C697 C 0.41685 0.91096 0.6667 0.0
C698 C 0.32091 0.87212 0.65418 0.0
C699 C 0.27858 0.84298 0.65874 0.0
C700 C 0.25638 0.85926 0.66579 0.0
C701 C 0.27679 0.90527 0.66785 0.0
C702 C 0.31874 0.93415 0.66328 0.0
H703 H 0.44812 0.91838 0.67131 0.0
H704 H 0.39189 0.90645 0.67358 0.0
H705 H 0.4042 0.87912 0.66181 0.0
H706 H 0.33788 0.859 0.64892 0.0
H707 H 0.26366 0.80781 0.65693 0.0
H708 H 0.26157 0.33944 0.97031 0.0
H709 H 0.28421 0.31931 0.95168 0.0
H710 H 0.31842 0.23413 0.97142 0.0
H711 H 0.29489 0.25307 0.99001 0.0
H712 H 0.36397 0.32776 0.94444 0.0
H713 H 0.23288 0.15028 0.9465 0.0
H714 H 0.23258 0.19186 0.95607 0.0
H715 H 0.26773 0.16918 0.95953 0.0
C716 C 0.2739 0.31641 0.97069 0.0
C717 C 0.27587 0.29741 0.98162 0.0
C718 C 0.28691 0.30503 0.96004 0.0
C719 C 0.30219 0.2746 0.96015 0.0
C720 C 0.30567 0.25682 0.9711 0.0
H721 H 0.37312 0.15193 0.90283 0.0
H722 H 0.36957 0.18267 0.92225 0.0
C723 C 0.29232 0.26782 0.98172 0.0
C724 C 0.31377 0.26086 0.9488 0.0
H725 H 0.28654 0.17059 0.9312 0.0
C726 C 0.34708 0.29341 0.94154 0.0
C727 C 0.29159 0.21601 0.94503 0.0
C728 C 0.25392 0.17985 0.95212 0.0
C729 C 0.35892 0.28221 0.93061 0.0
C730 C 0.33666 0.23743 0.92687 0.0
C731 C 0.3038 0.20486 0.93418 0.0
C732 C 0.34467 0.2237 0.91504 0.0
C733 C 0.39517 0.31822 0.92316 0.0
C734 C 0.33231 0.23707 0.90459 0.0
C735 C 0.334 0.21942 0.89351 0.0
C736 C 0.34808 0.18802 0.89269 0.0
C737 C 0.36224 0.17611 0.90314 0.0
C738 C 0.3602 0.19358 0.91424 0.0
H739 H 0.41617 0.34853 0.92853 0.0
H740 H 0.41662 0.30649 0.91913 0.0
H741 H 0.37996 0.32736 0.91576 0.0
H742 H 0.31956 0.25975 0.90506 0.0
H743 H 0.32296 0.22939 0.88564 0.0
H744 H 0.04557 0.3276 0.15709 0.0
H745 H 0.08905 0.35466 0.13876 0.0
H746 H 0.96913 0.31304 0.11844 0.0
H747 H 0.92534 0.28684 0.13683 0.0
H748 H 0.08276 0.30299 0.12034 0.0
H749 H 0.04958 0.43401 0.10418 0.0
H750 H 0.03653 0.41223 0.11923 0.0
H751 H -0.00029 0.38247 0.10703 0.0
C752 C 0.02842 0.32476 0.14875 0.0
C753 C 0.98193 0.30483 0.14841 0.0
C754 C 0.05338 0.34038 0.13828 0.0
C755 C 0.03245 0.33634 0.12724 0.0
C756 C 0.98613 0.31751 0.12689 0.0
H757 H 0.094 0.33097 0.05382 0.0
H758 H 0.06239 0.33311 0.07313 0.0
C759 C 0.96109 0.30222 0.1374 0.0
C760 C 0.0586 0.34748 0.11602 0.0
H761 H 0.08081 0.40573 0.08987 0.0
C762 C 0.0829 0.32601 0.11377 0.0
C763 C 0.05865 0.37744 0.10745 0.0
C764 C 0.03507 0.4032 0.10963 0.0
C765 C 0.10593 0.3324 0.10299 0.0
C766 C 0.10501 0.36141 0.09429 0.0
C767 C 0.08149 0.38363 0.09661 0.0
C768 C 0.1254 0.36607 0.08239 0.0
C769 C 0.12959 0.30667 0.10078 0.0
C770 C 0.17149 0.38517 0.08115 0.0
C771 C 0.1898 0.38399 0.0701 0.0
C772 C 0.16218 0.36355 0.06015 0.0
C773 C 0.11621 0.34656 0.06133 0.0
C774 C 0.09805 0.34793 0.07234 0.0
H775 H 0.12089 0.28019 0.10756 0.0
H776 H 0.1214 0.29124 0.09175 0.0
H777 H 0.16596 0.32966 0.10116 0.0
H778 H 0.19312 0.39971 0.08882 0.0
H779 H 0.22532 0.39755 0.06949 0.0
H780 H 0.75969 0.09112 0.21623 0.0
H781 H 0.72427 0.05369 0.23493 0.0
H782 H 0.78776 0.17923 0.25344 0.0
H783 H 0.82339 0.21715 0.2348 0.0
H784 H 0.80399 0.10978 0.26254 0.0
H785 H 0.62453 0.05201 0.25654 0.0
H786 H 0.65212 0.04235 0.24426 0.0
H787 H 0.66739 0.09815 0.24824 0.0
C788 C 0.76551 0.11095 0.22422 0.0
C789 C 0.79466 0.15714 0.22403 0.0
C790 C 0.74498 0.08949 0.23488 0.0
C791 C 0.7532 0.11379 0.24552 0.0
C792 C 0.78081 0.16002 0.24528 0.0
H793 H 0.7173 0.04168 0.3205 0.0
H794 H 0.73366 0.0809 0.30142 0.0
C795 C 0.80113 0.18159 0.23461 0.0
C796 C 0.73746 0.0905 0.25709 0.0
H797 H 0.64467 0.02536 0.27361 0.0
C798 C 0.7692 0.0916 0.26502 0.0
C799 C 0.69203 0.0663 0.26014 0.0
C800 C 0.65689 0.06468 0.25192 0.0
C801 C 0.75673 0.06866 0.27592 0.0
C802 C 0.71131 0.04503 0.27913 0.0
C803 C 0.67945 0.04372 0.27115 0.0
C804 C 0.69668 0.02157 0.29074 0.0
C805 C 0.79231 0.06899 0.28375 0.0
C806 C 0.66843 0.97539 0.29112 0.0
C807 C 0.65845 0.95281 0.30206 0.0
C808 C 0.67681 0.97614 0.31278 0.0
C809 C 0.70325 0.02264 0.31239 0.0
C810 C 0.71275 0.04513 0.30149 0.0
H811 H 0.8228 0.0776 0.27856 0.0
H812 H 0.80144 0.09428 0.29089 0.0
H813 H 0.78045 0.03623 0.28807 0.0
H814 H 0.65543 0.95666 0.28291 0.0
H815 H 0.63784 0.91701 0.30208 0.0
H816 H 0.61218 0.83049 0.40111 0.0
H817 H 0.61613 0.79743 0.42007 0.0
H818 H 0.67935 0.73397 0.40222 0.0
H819 H 0.6757 0.7668 0.38319 0.0
H820 H 0.60708 0.68093 0.42121 0.0
H821 H 0.74586 0.84639 0.43505 0.0
H822 H 0.69646 0.84419 0.42932 0.0
H823 H 0.73007 0.83227 0.41956 0.0
C824 C 0.62625 0.8089 0.40115 0.0
C825 C 0.64411 0.80172 0.39065 0.0
C826 C 0.62847 0.7901 0.41199 0.0
C827 C 0.64835 0.76368 0.4125 0.0
C828 C 0.66391 0.75434 0.40196 0.0
H829 H 0.72329 0.64277 0.4691 0.0
H830 H 0.7001 0.65976 0.45007 0.0
C831 C 0.66192 0.77328 0.39111 0.0
C832 C 0.65661 0.7492 0.42416 0.0
H833 H 0.72244 0.78823 0.44892 0.0
C834 C 0.63218 0.70423 0.42731 0.0
C835 C 0.68946 0.77987 0.43202 0.0
C836 C 0.7173 0.82839 0.42885 0.0
C837 C 0.63938 0.68915 0.43831 0.0
C838 C 0.67258 0.71983 0.44614 0.0
C839 C 0.69693 0.7648 0.44292 0.0
C840 C 0.6831 0.70646 0.45773 0.0
C841 C 0.61084 0.6408 0.44152 0.0
C842 C 0.68183 0.72749 0.46832 0.0
C843 C 0.69573 0.71845 0.47914 0.0
C844 C 0.71113 0.68805 0.47961 0.0
C845 C 0.71139 0.66618 0.46904 0.0
C846 C 0.69782 0.67559 0.45818 0.0
H847 H 0.57933 0.62486 0.43634 0.0
H848 H 0.62905 0.62309 0.43938 0.0
H849 H 0.60285 0.63662 0.45123 0.0
H850 H 0.67072 0.75153 0.46817 0.0
H851 H 0.69482 0.73569 0.48712 0.0
H852 H 0.91023 0.66305 0.54789 0.0
H853 H 0.94876 0.66224 0.56608 0.0
H854 H 0.82853 0.61792 0.58642 0.0
H855 H 0.78939 0.6176 0.56821 0.0
H856 H 0.96167 0.71426 0.58505 0.0
H857 H 0.87219 0.53894 0.59979 0.0
H858 H 0.86618 0.5556 0.58491 0.0
H859 H 0.83562 0.56047 0.59725 0.0
C860 C 0.89171 0.65234 0.55619 0.0
C861 C 0.84673 0.64055 0.5566 0.0
C862 C 0.91381 0.65185 0.56658 0.0
C863 C 0.89148 0.6396 0.5776 0.0
C864 C 0.84622 0.62647 0.57798 0.0
H865 H 0.96031 0.68094 0.6516 0.0
H866 H 0.92463 0.65902 0.63201 0.0
C867 C 0.82394 0.62658 0.56756 0.0
C868 C 0.91662 0.64522 0.58882 0.0
H869 H 0.91782 0.59286 0.61458 0.0
C870 C 0.95253 0.68751 0.59142 0.0
C871 C 0.90456 0.61033 0.59713 0.0
C872 C 0.8678 0.56368 0.59458 0.0
C873 C 0.97565 0.69632 0.60228 0.0
C874 C 0.96282 0.66177 0.61072 0.0
C875 C 0.92755 0.61922 0.60805 0.0
C876 C 0.98379 0.67027 0.62269 0.0
C877 C 0.01246 0.74298 0.60486 0.0
C878 C 0.02864 0.68274 0.62397 0.0
C879 C 0.04929 0.69538 0.63517 0.0
C880 C 0.02535 0.69581 0.64527 0.0
C881 C 0.97988 0.68138 0.64401 0.0
C882 C 0.95932 0.66864 0.63283 0.0
H883 H 0.01308 0.76732 0.59832 0.0
H884 H 0.0089 0.75333 0.61401 0.0
H885 H 0.04486 0.74412 0.60442 0.0
H886 H 0.04791 0.68372 0.61624 0.0
H887 H 0.08426 0.70607 0.63584 0.0
H888 H 0.34295 0.07033 0.80233 0.0
H889 H 0.3233 0.02648 0.78383 0.0
H890 H 0.24178 0.9073 0.80407 0.0
H891 H 0.26026 0.95069 0.82248 0.0
H892 H 0.33152 0.95398 0.77641 0.0
H893 H 0.1546 0.90838 0.77998 0.0
H894 H 0.19748 0.95109 0.78911 0.0
H895 H 0.17514 0.89355 0.79288 0.0
C896 C 0.32106 0.03476 0.80284 0.0
C897 C 0.3026 0.0141 0.81384 0.0
C898 C 0.30992 0.00977 0.79228 0.0
C899 C 0.28034 0.96382 0.79257 0.0
C900 C 0.26377 0.94288 0.80362 0.0
H901 H 0.14891 0.76691 0.73624 0.0
H902 H 0.18174 0.80202 0.75548 0.0
C903 C 0.27449 0.96777 0.81413 0.0
C904 C 0.26532 0.93792 0.78132 0.0
H905 H 0.17282 0.87381 0.76455 0.0
C906 C 0.29685 0.93643 0.7738 0.0
C907 C 0.22003 0.91511 0.77795 0.0
C908 C 0.18488 0.91736 0.78533 0.0
C909 C 0.28418 0.91242 0.76301 0.0
C910 C 0.23894 0.88976 0.75966 0.0
C911 C 0.20742 0.89087 0.76724 0.0
C912 C 0.22365 0.86729 0.74795 0.0
C913 C 0.31916 0.9113 0.7553 0.0
C914 C 0.23668 0.89235 0.73739 0.0
C915 C 0.21786 0.87256 0.72643 0.0
C916 C 0.18554 0.82726 0.72584 0.0
C917 C 0.17378 0.80181 0.73639 0.0
C918 C 0.19245 0.82179 0.74738 0.0
H919 H 0.34971 0.92009 0.7605 0.0
H920 H 0.30654 0.87798 0.75125 0.0
H921 H 0.32823 0.93572 0.74793 0.0
H922 H 0.26009 0.92766 0.73767 0.0
H923 H 0.22779 0.89311 0.71848 0.0
H924 H 0.72835 0.68744 0.84205 0.0
H925 H 0.74546 0.66376 0.86089 0.0
H926 H 0.65981 0.69955 0.87975 0.0
H927 H 0.64158 0.72237 0.86086 0.0
H928 H 0.78659 0.71724 0.8796 0.0
H929 H 0.62324 0.57966 0.8943 0.0
H930 H 0.6332 0.60129 0.87923 0.0
H931 H 0.6227 0.62988 0.89107 0.0
C932 C 0.71264 0.68977 0.85017 0.0
C933 C 0.6837 0.70697 0.84995 0.0
C934 C 0.72242 0.67612 0.86094 0.0
C935 C 0.70356 0.6794 0.87171 0.0
C936 C 0.67394 0.69571 0.87151 0.0
H937 H 0.76629 0.67709 0.94615 0.0
H938 H 0.73354 0.67911 0.92695 0.0
C939 C 0.66381 0.70906 0.86071 0.0
C940 C 0.71813 0.66958 0.88322 0.0
H941 H 0.68133 0.60854 0.90893 0.0
C942 C 0.7636 0.6931 0.88594 0.0
C943 C 0.68806 0.6382 0.89151 0.0
C944 C 0.63913 0.61048 0.88885 0.0
C945 C 0.77975 0.68684 0.89683 0.0
C946 C 0.74967 0.65591 0.90517 0.0
C947 C 0.70422 0.63214 0.90247 0.0
C948 C 0.76506 0.64933 0.91693 0.0
C949 C 0.82876 0.71423 0.89948 0.0
C950 C 0.79255 0.63066 0.91766 0.0
C951 C 0.81137 0.62941 0.92861 0.0
C952 C 0.80305 0.64693 0.93901 0.0
C953 C 0.77369 0.66361 0.93831 0.0
C954 C 0.7548 0.66468 0.92736 0.0
H955 H 0.84615 0.74223 0.8931 0.0
H956 H 0.83436 0.72781 0.90872 0.0
H957 H 0.84392 0.69285 0.89882 0.0
H958 H 0.80046 0.61826 0.90969 0.0
H959 H 0.83363 0.61614 0.92883 0.0
H960 H 0.92163 0.64917 0.0284 0.0
H961 H 0.96319 0.66838 0.04729 0.0
H962 H 0.08413 0.75355 0.02816 0.0
H963 H 0.04292 0.73563 0.00937 0.0
H964 H 0.03447 0.66128 0.05551 0.0
H965 H 0.07942 0.83797 0.05226 0.0
H966 H 0.03847 0.79562 0.04264 0.0
H967 H 0.09666 0.81909 0.0395 0.0
C968 C 0.95711 0.67181 0.02822 0.0
C969 C 0.97887 0.69144 0.01742 0.0
C970 C 0.9808 0.68271 0.03901 0.0
C971 C 0.02655 0.71317 0.03914 0.0
C972 C 0.04864 0.73093 0.0283 0.0
H973 H 0.2227 0.84026 0.09549 0.0
H974 H 0.18613 0.80686 0.07647 0.0
C975 C 0.02501 0.72051 0.01756 0.0
C976 C 0.05106 0.7277 0.05063 0.0
H977 H 0.11416 0.81963 0.0677 0.0
C978 C 0.05183 0.69586 0.0582 0.0
C979 C 0.07349 0.77286 0.05414 0.0
C980 C 0.07168 0.80831 0.04678 0.0
C981 C 0.07503 0.70815 0.06913 0.0
C982 C 0.09777 0.75331 0.07252 0.0
C983 C 0.09708 0.78509 0.06496 0.0
C984 C 0.12067 0.76844 0.08418 0.0
C985 C 0.07543 0.67298 0.07692 0.0
C986 C 0.09593 0.75743 0.09479 0.0
C987 C 0.11659 0.77667 0.10565 0.0
C988 C 0.16241 0.80727 0.10607 0.0
C989 C 0.18741 0.81676 0.09548 0.0
C990 C 0.1666 0.79775 0.08461 0.0
H991 H 0.0646 0.64158 0.07192 0.0
H992 H 0.10913 0.68472 0.08062 0.0
H993 H 0.05247 0.66579 0.08456 0.0
H994 H 0.06033 0.73538 0.09461 0.0
H995 H 0.09637 0.76852 0.11364 0.0
H996 H 0.32096 0.04559 0.17662 0.0
H997 H 0.34534 0.0866 0.1954 0.0
H998 H 0.30261 0.96428 0.21461 0.0
H999 H 0.27899 0.92288 0.19575 0.0
H1000 H 0.29101 0.07682 0.21367 0.0
H1001 H 0.42287 0.04428 0.22968 0.0
H1002 H 0.40234 0.03314 0.21448 0.0
H1003 H 0.3716 0.99475 0.22628 0.0
C1004 C 0.31723 0.02736 0.18481 0.0
C1005 C 0.2978 0.9809 0.1847 0.0
C1006 C 0.33131 0.05092 0.19554 0.0
C1007 C 0.32621 0.0286 0.20639 0.0
C1008 C 0.3078 0.98231 0.20631 0.0
H1009 H 0.32598 0.09588 0.28028 0.0
H1010 H 0.3246 0.06077 0.26122 0.0
C1011 C 0.29402 0.95866 0.19553 0.0
C1012 C 0.33626 0.05344 0.21782 0.0
H1013 H 0.39554 0.07646 0.24383 0.0
C1014 C 0.31426 0.07714 0.2202 0.0
C1015 C 0.36648 0.05366 0.22634 0.0
C1016 C 0.39252 0.03044 0.22404 0.0
C1017 C 0.32088 0.10027 0.23097 0.0
C1018 C 0.35063 0.10004 0.23955 0.0
C1019 C 0.3729 0.07662 0.23718 0.0
C1020 C 0.35701 0.12221 0.25125 0.0
C1021 C 0.295 0.12371 0.23326 0.0
C1022 C 0.37692 0.16853 0.25198 0.0
C1023 C 0.37779 0.18882 0.26286 0.0
C1024 C 0.35861 0.163 0.27318 0.0
C1025 C 0.34069 0.11675 0.2725 0.0
C1026 C 0.34001 0.09658 0.26163 0.0
H1027 H 0.26766 0.11403 0.2267 0.0
H1028 H 0.28071 0.11637 0.24243 0.0
H1029 H 0.31763 0.16009 0.23258 0.0
H1030 H 0.39057 0.18882 0.24405 0.0
H1031 H 0.39202 0.2245 0.26308 0.0
H1032 H 0.36013 0.27892 0.3626 0.0
H1033 H 0.34332 0.3025 0.38162 0.0
H1034 H 0.2651 0.34779 0.36281 0.0
H1035 H 0.28069 0.32342 0.34387 0.0
H1036 H 0.35551 0.38323 0.39032 0.0
H1037 H 0.17665 0.25796 0.38633 0.0
H1038 H 0.21824 0.25762 0.37678 0.0
H1039 H 0.19782 0.29501 0.37378 0.0
C1040 C 0.33961 0.29418 0.36251 0.0
C1041 C 0.32113 0.29863 0.35175 0.0
C1042 C 0.33011 0.30769 0.37337 0.0
C1043 C 0.30221 0.32599 0.37363 0.0
C1044 C 0.2858 0.33271 0.36284 0.0
H1045 H 0.17743 0.39487 0.43019 0.0
H1046 H 0.21235 0.39362 0.41132 0.0
C1047 C 0.29485 0.31884 0.35201 0.0
C1048 C 0.2884 0.33609 0.38519 0.0
H1049 H 0.19705 0.30967 0.40218 0.0
C1050 C 0.32091 0.36716 0.39294 0.0
C1051 C 0.24322 0.3148 0.3886 0.0
C1052 C 0.20699 0.27918 0.381 0.0
C1053 C 0.30924 0.37799 0.40396 0.0
C1054 C 0.26405 0.35703 0.40727 0.0
C1055 C 0.23165 0.32605 0.39952 0.0
C1056 C 0.24926 0.3648 0.41896 0.0
C1057 C 0.3451 0.412 0.41194 0.0
C1058 C 0.25918 0.34972 0.42952 0.0
C1059 C 0.23911 0.35012 0.44031 0.0
C1060 C 0.20867 0.36552 0.44071 0.0
C1061 C 0.20067 0.38278 0.43021 0.0
C1062 C 0.22058 0.38212 0.41941 0.0
H1063 H 0.37673 0.43211 0.40702 0.0
H1064 H 0.3346 0.43458 0.41589 0.0
H1065 H 0.35135 0.39478 0.41941 0.0
H1066 H 0.28071 0.33559 0.4293 0.0
H1067 H 0.24612 0.3367 0.44823 0.0
H1068 H 0.04758 0.37512 0.522 0.0
H1069 H 0.00481 0.35893 0.54058 0.0
H1070 H 0.94575 0.21858 0.53364 0.0
H1071 H 0.98631 0.23469 0.51478 0.0
H1072 H 0.88567 0.2349 0.54167 0.0
H1073 H 0.03324 0.32129 0.5712 0.0
H1074 H 0.02898 0.35715 0.56042 0.0
H1075 H 0.03785 0.31296 0.55547 0.0
C1076 C 0.02543 0.34085 0.52448 0.0
C1077 C 0.02042 0.30612 0.51702 0.0
C1078 C 0.00122 0.33162 0.53512 0.0
C1079 C 0.97277 0.2875 0.53867 0.0
C1080 C 0.96749 0.25289 0.53112 0.0
H1081 H 0.89228 0.17625 0.60775 0.0
H1082 H 0.92798 0.21017 0.58888 0.0
C1083 C 0.99077 0.2621 0.52036 0.0
C1084 C 0.94858 0.27677 0.55024 0.0
H1085 H 0.96335 0.28999 0.58049 0.0
C1086 C 0.90263 0.24701 0.55017 0.0
C1087 C 0.97078 0.29251 0.56133 0.0
C1088 C 0.02046 0.32239 0.56216 0.0
C1089 C 0.87858 0.23098 0.56086 0.0
C1090 C 0.90079 0.24675 0.57194 0.0
C1091 C 0.94634 0.27808 0.57199 0.0
C1092 C 0.87888 0.22775 0.58358 0.0
C1093 C 0.83029 0.1955 0.56011 0.0
C1094 C 0.83951 0.22669 0.587 0.0
C1095 C 0.81833 0.20622 0.59773 0.0
C1096 C 0.83696 0.18773 0.60535 0.0
C1097 C 0.87718 0.19037 0.6021 0.0
C1098 C 0.89769 0.20984 0.59131 0.0
H1099 H 0.82159 0.17935 0.55116 0.0
H1100 H 0.82193 0.16946 0.56699 0.0
H1101 H 0.80934 0.21074 0.56166 0.0
H1102 H 0.82502 0.24142 0.58137 0.0
H1103 H 0.78759 0.20506 0.60009 0.0
H1104 H 0.6014 0.77416 0.76186 0.0
H1105 H 0.59971 0.80812 0.7428 0.0
H1106 H 0.6698 0.93781 0.75902 0.0
H1107 H 0.67136 0.90443 0.7781 0.0
H1108 H 0.59841 0.92387 0.74301 0.0
H1109 H 0.71625 0.87734 0.72324 0.0
H1110 H 0.66646 0.83272 0.72961 0.0
H1111 H 0.70649 0.87566 0.73915 0.0
C1112 C 0.61597 0.80986 0.76142 0.0
C1113 C 0.63702 0.8366 0.77148 0.0
C1114 C 0.61506 0.82918 0.75052 0.0
C1115 C 0.63519 0.87545 0.7495 0.0
C1116 C 0.65421 0.90202 0.75964 0.0
H1117 H 0.71334 0.07434 0.69439 0.0
H1118 H 0.68955 0.03259 0.71316 0.0
C1119 C 0.65521 0.88283 0.77052 0.0
C1120 C 0.63938 0.89665 0.73773 0.0
H1121 H 0.69228 0.9157 0.71085 0.0
C1122 C 0.61867 0.92193 0.73592 0.0
C1123 C 0.66604 0.89415 0.72856 0.0
C1124 C 0.69044 0.86883 0.7302 0.0
C1125 C 0.62381 0.94473 0.72512 0.0
C1126 C 0.65107 0.94279 0.71604 0.0
C1127 C 0.67126 0.91701 0.71781 0.0
C1128 C 0.66044 0.96803 0.70469 0.0
C1129 C 0.59975 0.97033 0.72351 0.0
C1130 C 0.65206 0.94566 0.69372 0.0
C1131 C 0.66614 0.96938 0.68302 0.0
C1132 C 0.68893 0.01606 0.68307 0.0
C1133 C 0.69571 0.03843 0.69404 0.0
C1134 C 0.68186 0.01459 0.70477 0.0
H1135 H 0.57068 0.95801 0.72958 0.0
H1136 H 0.62267 0.00577 0.72566 0.0
H1137 H 0.58824 0.96818 0.71412 0.0
H1138 H 0.63567 0.90976 0.69345 0.0
H1139 H 0.66006 0.95107 0.67472 0.0
H1140 H 0.29902 0.99829 0.1018 0.0
H1141 H 0.31432 0.05873 0.08801 0.0
H1142 H 0.32295 0.14165 0.1178 0.0
H1143 H 0.3066 0.08105 0.13164 0.0
H1144 H 0.2648 0.1362 0.10129 0.0
H1145 H 0.42144 0.17504 0.07862 0.0
H1146 H 0.38108 0.11702 0.07805 0.0
H1147 H 0.40325 0.1431 0.09229 0.0
C1148 C 0.30511 0.02968 0.10545 0.0
C1149 C 0.30121 0.03472 0.11781 0.0
C1150 C 0.31421 0.06437 0.09755 0.0
C1151 C 0.3203 0.10491 0.10188 0.0
C1152 C 0.31853 0.11069 0.11427 0.0
H1153 H 0.31068 0.31911 0.06336 0.0
H1154 H 0.3286 0.27975 0.07852 0.0
C1155 C 0.30908 0.07596 0.12216 0.0
C1156 C 0.32264 0.13892 0.09347 0.0
H1157 H 0.37615 0.19977 0.06869 0.0
C1158 C 0.28965 0.15073 0.0943 0.0
C1159 C 0.35494 0.15762 0.08431 0.0
C1160 C 0.39243 0.14788 0.08332 0.0
C1161 C 0.28692 0.17929 0.08594 0.0
C1162 C 0.31844 0.197 0.0766 0.0
C1163 C 0.35212 0.18613 0.0759 0.0
C1164 C 0.31462 0.22422 0.06702 0.0
C1165 C 0.24914 0.18871 0.08688 0.0
C1166 C 0.30271 0.20682 0.05542 0.0
C1167 C 0.29251 0.22917 0.04673 0.0
C1168 C 0.29413 0.2694 0.0495 0.0
C1169 C 0.3087 0.28802 0.06095 0.0
C1170 C 0.3189 0.26559 0.06963 0.0
H1171 H 0.22319 0.16602 0.09326 0.0
H1172 H 0.26213 0.22324 0.09006 0.0
H1173 H 0.23349 0.18551 0.07798 0.0
H1174 H 0.29933 0.17494 0.05325 0.0
H1175 H 0.28177 0.21403 0.03799 0.0
H1176 H 0.06859 0.28677 0.20373 0.0
H1177 H 0.12445 0.29992 0.21893 0.0
H1178 H 0.04433 0.31519 0.24583 0.0
H1179 H 0.98799 0.30175 0.23075 0.0
H1180 H 0.1728 0.37196 0.23613 0.0
H1181 H 0.05851 0.20899 0.25721 0.0
H1182 H 0.0493 0.22345 0.24239 0.0
H1183 H 0.03687 0.24589 0.25533 0.0
C1184 C 0.06298 0.29341 0.21285 0.0
C1185 C 0.02349 0.29262 0.21605 0.0
C1186 C 0.09504 0.30106 0.22151 0.0
C1187 C 0.08814 0.30791 0.2335 0.0
C1188 C 0.0499 0.30938 0.23663 0.0
H1189 H 0.221 0.29737 0.29813 0.0
H1190 H 0.17543 0.31081 0.28402 0.0
C1191 C 0.01781 0.30176 0.22799 0.0
C1192 C 0.11939 0.31027 0.24283 0.0
H1193 H 0.128 0.25255 0.26635 0.0
C1194 C 0.1631 0.34604 0.24279 0.0
C1195 C 0.10648 0.27627 0.25145 0.0
C1196 C 0.06037 0.23624 0.2516 0.0
C1197 C 0.19432 0.34879 0.25124 0.0
C1198 C 0.18153 0.31443 0.25976 0.0
C1199 C 0.13765 0.27898 0.25985 0.0
C1200 C 0.2132 0.31313 0.26838 0.0
C1201 C 0.2405 0.38856 0.25103 0.0
C1202 C 0.25005 0.31074 0.26429 0.0
C1203 C 0.27635 0.3032 0.27235 0.0
C1204 C 0.26587 0.29735 0.28463 0.0
C1205 C 0.22991 0.30149 0.28873 0.0
C1206 C 0.20383 0.30923 0.28069 0.0
H1207 H 0.24115 0.41739 0.24656 0.0
H1208 H 0.254 0.39845 0.26024 0.0
H1209 H 0.26265 0.38011 0.24595 0.0
H1210 H 0.25734 0.31267 0.25481 0.0
H1211 H 0.30366 0.30003 0.26887 0.0
H1212 H 0.77775 0.07775 0.36619 0.0
H1213 H 0.82377 0.13728 0.38017 0.0
H1214 H 0.75082 0.05324 0.40989 0.0
H1215 H 0.70391 0.99381 0.39599 0.0
H1216 H 0.77201 0.14146 0.413 0.0
H1217 H 0.91937 0.12972 0.39939 0.0
H1218 H 0.89237 0.14113 0.38734 0.0
H1219 H 0.86371 0.08887 0.39506 0.0
C1220 C 0.77112 0.07205 0.37569 0.0
C1221 C 0.73753 0.03078 0.37997 0.0
C1222 C 0.79757 0.10607 0.38367 0.0
C1223 C 0.79131 0.09927 0.39607 0.0
C1224 C 0.75633 0.05904 0.40035 0.0
H1225 H 0.93085 0.21744 0.46114 0.0
H1226 H 0.87472 0.17633 0.44589 0.0
C1227 C 0.7296 0.02509 0.39238 0.0
C1228 C 0.82286 0.13282 0.4046 0.0
H1229 H 0.93105 0.18444 0.41359 0.0
C1230 C 0.80684 0.15107 0.41311 0.0
C1231 C 0.86824 0.14511 0.40474 0.0
C1232 C 0.887 0.12496 0.39623 0.0
C1233 C 0.83509 0.18132 0.42177 0.0
C1234 C 0.88028 0.19313 0.42198 0.0
C1235 C 0.89641 0.17552 0.41334 0.0
C1236 C 0.91117 0.2215 0.43147 0.0
C1237 C 0.81643 0.20043 0.43063 0.0
C1238 C 0.95022 0.26064 0.42842 0.0
C1239 C 0.98253 0.28416 0.4371 0.0
C1240 C 0.97656 0.26866 0.44898 0.0
C1241 C 0.93657 0.23034 0.45209 0.0
C1242 C 0.90424 0.20693 0.4434 0.0
H1243 H 0.78519 0.19796 0.4273 0.0
H1244 H 0.80895 0.18162 0.43915 0.0
H1245 H 0.84071 0.23577 0.43256 0.0
H1246 H 0.95627 0.27224 0.41923 0.0
H1247 H 0.01287 0.31355 0.43439 0.0
H1248 H 0.69793 0.77391 0.53314 0.0
H1249 H 0.68053 0.8174 0.54698 0.0
H1250 H 0.69394 0.74646 0.57686 0.0
H1251 H 0.71053 0.70205 0.56307 0.0
H1252 H 0.6231 0.76415 0.57931 0.0
H1253 H 0.78147 0.91471 0.56676 0.0
H1254 H 0.74474 0.88682 0.55445 0.0
H1255 H 0.76888 0.85955 0.5626 0.0
C1256 C 0.6967 0.76715 0.54265 0.0
C1257 C 0.70629 0.73496 0.54702 0.0
C1258 C 0.68683 0.79211 0.55054 0.0
C1259 C 0.6869 0.78573 0.56294 0.0
C1260 C 0.69396 0.75199 0.56731 0.0
H1261 H 0.69619 0.9217 0.62759 0.0
H1262 H 0.68319 0.86595 0.61245 0.0
C1263 C 0.70352 0.72672 0.55942 0.0
C1264 C 0.6829 0.81633 0.57137 0.0
H1265 H 0.73573 0.9244 0.58045 0.0
C1266 C 0.64755 0.79924 0.57955 0.0
C1267 C 0.71501 0.86204 0.57166 0.0
C1268 C 0.7549 0.88194 0.56348 0.0
C1269 C 0.64346 0.8268 0.58803 0.0
C1270 C 0.67586 0.87237 0.58838 0.0
C1271 C 0.71073 0.88949 0.58008 0.0
C1272 C 0.67641 0.90268 0.59776 0.0
C1273 C 0.60452 0.80702 0.5965 0.0
C1274 C 0.67668 0.94177 0.59453 0.0
C1275 C 0.68446 0.97396 0.60316 0.0
C1276 C 0.69251 0.96776 0.61516 0.0
C1277 C 0.69016 0.92761 0.61844 0.0
C1278 C 0.68236 0.89546 0.60981 0.0
H1279 H 0.57652 0.77577 0.59288 0.0
H1280 H 0.6149 0.79914 0.60512 0.0
H1281 H 0.59264 0.8307 0.59833 0.0
H1282 H 0.67242 0.94805 0.58526 0.0
H1283 H 0.68592 0.00441 0.60032 0.0
H1284 H 0.95383 0.75766 0.7051 0.0
H1285 H 0.8976 0.74505 0.72001 0.0
H1286 H 0.90351 0.6318 0.73346 0.0
H1287 H 0.96252 0.64662 0.71908 0.0
H1288 H 0.81933 0.68468 0.7251 0.0
H1289 H 0.92563 0.69735 0.7637 0.0
H1290 H 0.94629 0.70842 0.74859 0.0
H1291 H 0.91409 0.65211 0.75388 0.0
C1292 C 0.94293 0.72992 0.7112 0.0
C1293 C 0.96277 0.7034 0.71106 0.0
C1294 C 0.91073 0.72267 0.71973 0.0
C1295 C 0.897 0.68813 0.72811 0.0
C1296 C 0.91471 0.6597 0.72742 0.0
H1297 H 0.67753 0.65677 0.7746 0.0
H1298 H 0.71836 0.63942 0.75971 0.0
C1299 C 0.94805 0.66786 0.71913 0.0
C1300 C 0.86548 0.68351 0.73774 0.0
H1301 H 0.85349 0.68234 0.76811 0.0
C1302 C 0.82679 0.68413 0.73452 0.0
C1303 C 0.87531 0.68305 0.75005 0.0
C1304 C 0.91776 0.68563 0.75428 0.0
C1305 C 0.79887 0.68654 0.74317 0.0
C1306 C 0.80852 0.68573 0.75547 0.0
C1307 C 0.84599 0.68282 0.75869 0.0
C1308 C 0.78317 0.69251 0.76515 0.0
C1309 C 0.76104 0.69269 0.73897 0.0
C1310 C 0.80601 0.72619 0.77366 0.0
C1311 C 0.7829 0.73486 0.78244 0.0
C1312 C 0.73639 0.71068 0.78273 0.0
C1313 C 0.71342 0.67623 0.77444 0.0
C1314 C 0.7367 0.66662 0.76587 0.0
H1315 H 0.76582 0.70484 0.72958 0.0
H1316 H 0.7297 0.66034 0.7393 0.0
H1317 H 0.75739 0.71664 0.74474 0.0
H1318 H 0.84181 0.74665 0.77333 0.0
H1319 H 0.80141 0.76174 0.78869 0.0
H1320 H 0.02211 0.67836 0.94262 0.0
H1321 H 0.08349 0.71647 0.92841 0.0
H1322 H 0.10857 0.8428 0.94229 0.0
H1323 H 0.04982 0.80488 0.95696 0.0
H1324 H 0.09127 0.7636 0.91093 0.0
H1325 H 0.23183 0.87167 0.93974 0.0
H1326 H 0.18084 0.8277 0.94592 0.0
H1327 H 0.18787 0.88214 0.94333 0.0
C1328 C 0.04153 0.71427 0.94276 0.0
C1329 C 0.03157 0.73875 0.95092 0.0
C1330 C 0.07655 0.73603 0.93465 0.0
C1331 C 0.10156 0.78265 0.93441 0.0
C1332 C 0.09134 0.80692 0.94259 0.0
H1333 H 0.18918 0.94858 0.87459 0.0
H1334 H 0.15133 0.88958 0.88921 0.0
C1335 C 0.05731 0.7852 0.9509 0.0
C1336 C 0.1349 0.80627 0.92484 0.0
H1337 H 0.23238 0.90177 0.91969 0.0
C1338 C 0.12267 0.79319 0.91289 0.0
C1339 C 0.17678 0.84399 0.92726 0.0
C1340 C 0.19517 0.85669 0.93978 0.0
C1341 C 0.14925 0.81888 0.90335 0.0
C1342 C 0.18786 0.86001 0.9058 0.0
C1343 C 0.20211 0.871 0.91772 0.0
C1344 C 0.21133 0.89387 0.89634 0.0
C1345 C 0.13513 0.8017 0.89076 0.0
C1346 C 0.25792 0.91751 0.89573 0.0
C1347 C 0.27975 0.95265 0.88766 0.0
C1348 C 0.2553 0.96414 0.8799 0.0
C1349 C 0.20881 0.93991 0.88033 0.0
C1350 C 0.1871 0.90574 0.88861 0.0
H1351 H 0.11909 0.76494 0.89055 0.0
H1352 H 0.11017 0.81035 0.88761 0.0
H1353 H 0.1636 0.81578 0.88446 0.0
H1354 H 0.27745 0.9093 0.90165 0.0
H1355 H 0.31568 0.97088 0.88749 0.0
H1356 H 0.04219 0.19215 0.01183 0.0
H1357 H 0.98419 0.11674 0.00626 0.0
H1358 H 0.07158 0.06711 0.01562 0.0
H1359 H 0.1296 0.14192 0.02098 0.0
H1360 H 0.0033 0.06511 0.98774 0.0
H1361 H 0.94692 0.97966 0.03152 0.0
H1362 H 0.97091 0.039 0.02982 0.0
H1363 H 0.00603 0.01489 0.03025 0.0
C1364 C 0.04864 0.16496 0.0129 0.0
C1365 C 0.09043 0.17284 0.01678 0.0
C1366 C 0.01557 0.12206 0.00971 0.0
C1367 C 0.02363 0.08654 0.01067 0.0
C1368 C 0.06464 0.09412 0.01499 0.0
H1369 H 0.99169 0.85789 0.98235 0.0
H1370 H 0.00739 0.93198 0.98813 0.0
C1371 C 0.09781 0.13688 0.01797 0.0
C1372 C 0.99169 0.04215 0.00601 0.0
H1373 H 0.93745 0.93343 0.0144 0.0
C1374 C 0.98763 0.0363 0.99355 0.0
C1375 C 0.97129 0.00484 0.01363 0.0
C1376 C 0.97359 0.00977 0.02707 0.0
C1377 C 0.96699 0.99369 0.98851 0.0
C1378 C 0.95008 0.95644 0.99615 0.0
C1379 C 0.95062 0.96222 0.00859 0.0
C1380 C 0.93884 0.91234 0.99155 0.0
C1381 C 0.96584 0.9887 0.97508 0.0
C1382 C 0.89499 0.877 0.99152 0.0
C1383 C 0.8858 0.83453 0.98809 0.0
C1384 C 0.92053 0.82689 0.98493 0.0
C1385 C 0.96428 0.86269 0.9848 0.0
C1386 C 0.97329 0.90505 0.98803 0.0
H1387 H 0.97026 0.01894 0.97047 0.0
H1388 H 0.99314 0.98299 0.97226 0.0
H1389 H 0.93401 0.95971 0.97215 0.0
H1390 H 0.86812 0.88215 0.99432 0.0
H1391 H 0.8518 0.80747 0.98833 0.0
H1392 H 0.05191 0.86961 0.14611 0.0
H1393 H 0.9945 0.88816 0.15127 0.0
H1394 H 0.09487 0.01376 0.16559 0.0
H1395 H 0.15212 0.99593 0.16053 0.0
H1396 H 0.0129 0.95694 0.18064 0.0
H1397 H 0.983 0.99199 0.13383 0.0
H1398 H 0.98417 0.94189 0.13717 0.0
H1399 H 0.03439 0.99447 0.13791 0.0
C1400 C 0.06171 0.90117 0.15036 0.0
C1401 C 0.10664 0.93137 0.15287 0.0
C1402 C 0.0289 0.91162 0.15329 0.0
C1403 C 0.04067 0.95224 0.1588 0.0
C1404 C 0.08528 0.98216 0.16138 0.0
H1405 H 0.99199 0.15397 0.17049 0.0
H1406 H 0.01039 0.09742 0.16503 0.0
C1407 C 0.11796 0.97194 0.15842 0.0
C1408 C 0.00735 0.96505 0.16173 0.0
H1409 H 0.95613 0.01732 0.14944 0.0
C1410 C -0.0008 0.96893 0.17384 0.0
C1411 C 0.98991 0.9807 0.15278 0.0
C1412 C 0.99814 0.97728 0.13967 0.0
C1413 C 0.97663 0.99106 0.17729 0.0
C1414 C 0.96201 0.00955 0.16836 0.0
C1415 C 0.96735 0.00285 0.15623 0.0
C1416 C 0.9487 0.04242 0.17143 0.0
C1417 C 0.9717 0.99775 0.19043 0.0
C1418 C 0.90778 0.02997 0.17683 0.0
C1419 C 0.89703 0.06237 0.18 0.0
C1420 C 0.9272 0.10757 0.17783 0.0
C1421 C 0.96803 0.11957 0.17235 0.0
C1422 C 0.97856 0.0873 0.16916 0.0
H1423 H 0.98629 0.98245 0.19625 0.0
H1424 H 0.98809 0.03376 0.19248 0.0
H1425 H 0.936 0.98288 0.19267 0.0
H1426 H 0.88435 0.99536 0.17861 0.0
H1427 H 0.86526 0.05205 0.18418 0.0
H1428 H 0.18529 0.05208 0.31288 0.0
H1429 H 0.10929 0.99431 0.31789 0.0
H1430 H 0.08486 0.0934 0.33347 0.0
H1431 H 0.16004 0.15099 0.32859 0.0
H1432 H 0.05757 0.01066 0.34765 0.0
H1433 H 0.99604 0.98499 0.30051 0.0
H1434 H 0.04607 0.98392 0.30398 0.0
H1435 H 0.04572 0.03514 0.30493 0.0
C1436 C 0.16371 0.06151 0.3174 0.0
C1437 C 0.17864 0.10619 0.32028 0.0
C1438 C 0.12044 0.0285 0.32024 0.0
C1439 C 0.09176 0.03982 0.32602 0.0
C1440 C 0.10673 0.08414 0.32904 0.0
H1441 H 0.84131 0.99268 0.33605 0.0
H1442 H 0.91635 0.01038 0.33095 0.0
C1443 C 0.14966 0.11703 0.32618 0.0
C1444 C 0.04534 0.00645 0.32867 0.0
H1445 H 0.94278 0.9568 0.31581 0.0
C1446 C 0.03237 0.9976 0.34071 0.0
C1447 C 0.0129 0.98982 0.31954 0.0
C1448 C 0.02551 0.99882 0.30649 0.0
C1449 C 0.98741 0.97526 0.34391 0.0
C1450 C 0.95501 0.96152 0.33479 0.0
C1451 C 0.96795 0.9674 0.32273 0.0
C1452 C 0.90875 0.9486 0.3376 0.0
C1453 C 0.97486 0.96971 0.35698 0.0
C1454 C 0.87974 0.90786 0.34302 0.0
C1455 C 0.83657 0.89754 0.34598 0.0
C1456 C 0.82204 0.92795 0.34359 0.0
C1457 C 0.85136 0.96856 0.33808 0.0
C1458 C 0.89421 0.97868 0.33509 0.0
H1459 H 0.00435 0.98418 0.36296 0.0
H1460 H 0.95494 0.98582 0.35895 0.0
H1461 H 0.95403 0.93389 0.3591 0.0
H1462 H 0.89052 0.88424 0.34497 0.0
H1463 H 0.81473 0.86592 0.35019 0.0
H1464 H 0.14701 0.19345 0.48803 0.0
H1465 H 0.12796 0.11743 0.49337 0.0
H1466 H 0.99245 0.06994 0.48273 0.0
H1467 H 0.01084 0.14537 0.47757 0.0
H1468 H 0.05513 0.0657 0.51123 0.0
H1469 H 0.02966 0.98209 0.46725 0.0
H1470 H 0.06525 0.04129 0.4692 0.0
H1471 H 0.00611 0.01762 0.46837 0.0
C1472 C 0.11338 0.16661 0.48662 0.0
C1473 C 0.08031 0.17525 0.48244 0.0
C1474 C 0.10262 0.12337 0.48968 0.0
C1475 C 0.05898 0.08827 0.48832 0.0
C1476 C 0.02645 0.09662 0.48368 0.0
H1477 H 0.86028 0.85574 0.51566 0.0
H1478 H 0.91779 0.93074 0.51023 0.0
C1479 C 0.03695 0.13972 0.48081 0.0
C1480 C 0.04544 0.04354 0.49289 0.0
H1481 H 0.99167 0.9352 0.48412 0.0
C1482 C 0.04243 0.03714 0.50533 0.0
C1483 C 0.02907 0.00657 0.48515 0.0
C1484 C 0.03297 0.0121 0.47173 0.0
C1485 C 0.02002 0.99432 0.51022 0.0
C1486 C 0.00045 0.95741 0.50244 0.0
C1487 C 0.00668 0.96374 0.49004 0.0
C1488 C 0.96801 0.91287 0.50685 0.0
C1489 C 0.01511 0.98873 0.52362 0.0
C1490 C 0.97757 0.87826 0.50679 0.0
C1491 C 0.94484 0.83533 0.51001 0.0
C1492 C 0.90195 0.82644 0.51307 0.0
C1493 C 0.89293 0.86151 0.5133 0.0
C1494 C 0.92575 0.90437 0.51026 0.0
H1495 H 0.04022 0.01894 0.5284 0.0
H1496 H 0.98166 0.98231 0.52624 0.0
H1497 H 0.01825 0.95993 0.52655 0.0
H1498 H 0.01001 0.88435 0.50407 0.0
H1499 H 0.95265 0.80888 0.50969 0.0
H1500 H 0.06968 0.87166 0.6563 0.0
H1501 H 0.04478 0.92282 0.64996 0.0
H1502 H 0.05382 0.96717 0.68653 0.0
H1503 H 0.08165 0.91795 0.69269 0.0
H1504 H 0.97003 0.91148 0.6565 0.0
H1505 H 0.09517 0.08195 0.66977 0.0
H1506 H 0.10732 0.03726 0.66944 0.0
H1507 H 0.08025 0.04478 0.68224 0.0
C1508 C 0.06766 0.89347 0.66287 0.0
C1509 C 0.07734 0.89113 0.67494 0.0
C1510 C 0.05348 0.92264 0.65927 0.0
C1511 C 0.04755 0.94904 0.66775 0.0
C1512 C 0.05922 0.9481 0.67976 0.0
H1513 H 0.83338 0.00159 0.66464 0.0
H1514 H 0.88615 0.97666 0.66885 0.0
C1515 C 0.07472 0.91975 0.68331 0.0
C1516 C 0.02265 0.97159 0.66433 0.0
H1517 H 0.02022 0.06807 0.66695 0.0
C1518 C 0.98153 0.94598 0.65862 0.0
C1519 C 0.03761 0.01666 0.66699 0.0
C1520 C 0.08274 0.04682 0.67233 0.0
C1521 C 0.9544 0.96366 0.65581 0.0
C1522 C 0.96788 0.00769 0.65925 0.0
C1523 C 0.00967 0.03402 0.66454 0.0
C1524 C 0.93815 0.02611 0.65766 0.0
C1525 C 0.91151 0.93485 0.64919 0.0
C1526 C 0.95082 0.06356 0.65045 0.0
C1527 C 0.92088 0.07835 0.64816 0.0
C1528 C 0.87784 0.05565 0.65301 0.0
C1529 C 0.86601 0.01925 0.66061 0.0
C1530 C 0.89608 0.00493 0.663 0.0
H1531 H 0.91295 0.90837 0.644 0.0
H1532 H 0.88405 0.91847 0.65575 0.0
H1533 H 0.90359 0.95475 0.64294 0.0
H1534 H 0.98331 0.08048 0.64632 0.0
H1535 H 0.93096 0.10665 0.64232 0.0
H1536 H 0.1797 0.14013 0.85171 0.0
H1537 H 0.10521 0.12573 0.84624 0.0
H1538 H 0.07447 0.99904 0.83147 0.0
H1539 H 0.14796 0.01278 0.8368 0.0
H1540 H 0.05282 0.05776 0.81656 0.0
H1541 H 0.98753 0.02587 0.86332 0.0
H1542 H 0.03955 0.07498 0.85988 0.0
H1543 H 0.03562 0.02166 0.85946 0.0
C1544 C 0.15703 0.10925 0.84728 0.0
C1545 C 0.16971 0.0775 0.84475 0.0
C1546 C 0.11463 0.10117 0.84417 0.0
C1547 C 0.08464 0.0614 0.83846 0.0
C1548 C 0.09738 0.03004 0.83583 0.0
H1549 H 0.83936 0.85901 0.82755 0.0
H1550 H 0.91284 0.91857 0.83303 0.0
C1551 C 0.13937 0.0379 0.83895 0.0
C1552 C 0.03904 0.05053 0.83547 0.0
H1553 H 0.93547 0.99899 0.84766 0.0
C1554 C 0.02709 0.0463 0.82334 0.0
C1555 C 0.00589 0.03565 0.84438 0.0
C1556 C 0.01741 0.03958 0.85752 0.0
C1557 C 0.98239 0.02387 0.81985 0.0
C1558 C 0.94923 0.00553 0.82875 0.0
C1559 C 0.9612 0.01328 0.84089 0.0
C1560 C 0.90355 0.97094 0.82575 0.0
C1561 C 0.97093 0.01626 0.8067 0.0
C1562 C 0.87403 0.98086 0.81984 0.0
C1563 C 0.83168 0.94666 0.81664 0.0
C1564 C 0.81853 0.90219 0.81929 0.0
C1565 C 0.84833 0.89276 0.82531 0.0
C1566 C 0.89031 0.92679 0.82852 0.0
H1567 H 0.00087 0.03189 0.80091 0.0
H1568 H 0.95208 0.98011 0.80479 0.0
H1569 H 0.94941 0.03018 0.80429 0.0
H1570 H 0.88381 0.01488 0.81767 0.0
H1571 H 0.80942 0.95501 0.81204 0.0
loop_
_geom_bond_atom_site_label_1
_geom_bond_atom_site_label_2
_geom_bond_distance
_geom_bond_site_symmetry_2
_ccdc_geom_bond_type
O0 Zn1 1.953 . S
O0 C16 1.225 . S
Zn1 O0 1.953 . S
Zn1 O2 1.949 . S
Zn1 O8 1.919 . S
Zn1 O13 1.924 . S
O2 Zn1 1.949 . S
O2 Zn3 1.923 . S
O2 Zn4 1.950 . S
O2 Zn5 1.945 . S
Zn3 O2 1.923 . S
Zn3 O6 1.933 1_554 S
Zn3 O9 1.941 . S
Zn3 O10 1.965 . S
Zn4 O2 1.950 . S
Zn4 O11 1.938 . S
Zn4 O12 1.906 . S
Zn4 O22 1.953 . S
Zn5 O2 1.945 . S
Zn5 O7 1.932 1_554 S
Zn5 O14 1.977 . S
Zn5 O15 1.910 . S
O6 Zn3 1.933 1_556 S
O6 C17 1.226 . S
O7 Zn5 1.932 1_556 S
O7 C17 1.307 . S
O8 Zn1 1.919 . S
O8 C19 1.253 . S
O9 Zn3 1.941 . S
O9 C19 1.283 . S
O10 Zn3 1.965 . S
O10 C18 1.303 . S
O11 Zn4 1.938 . S
O11 C18 1.247 . S
O12 Zn4 1.906 . S
O12 C20 1.304 . S
O13 Zn1 1.924 . S
O13 C21 1.311 . S
O14 Zn5 1.977 . S
O14 C20 1.272 . S
O15 Zn5 1.910 . S
O15 C21 1.231 . S
C16 O0 1.225 . S
C16 O22 1.298 . S
C17 O6 1.226 . S
C17 O7 1.307 . S
C18 O10 1.303 . S
C18 O11 1.247 . S
C19 O8 1.253 . S
C19 O9 1.283 . S
C20 O12 1.304 . S
C20 O14 1.272 . S
C21 O13 1.311 . S
C21 O15 1.231 . S
O22 Zn4 1.953 . S
O22 C16 1.298 . S
O23 Zn24 1.953 . S
O23 C39 1.225 . S
Zn24 O23 1.953 . S
Zn24 O25 1.949 . S
Zn24 O31 1.919 . S
Zn24 O36 1.924 . S
O25 Zn24 1.949 . S
O25 Zn26 1.923 . S
O25 Zn27 1.950 . S
O25 Zn28 1.945 . S
Zn26 O25 1.923 . S
Zn26 O29 1.933 1_655 S
Zn26 O32 1.941 . S
Zn26 O33 1.965 1_655 S
Zn27 O25 1.950 . S
Zn27 O34 1.938 . S
Zn27 O35 1.906 . S
Zn27 O45 1.953 . S
Zn28 O25 1.945 . S
Zn28 O30 1.932 . S
Zn28 O37 1.977 . S
Zn28 O38 1.910 . S
O29 Zn26 1.933 1_455 S
O29 C40 1.226 1_455 S
O30 Zn28 1.932 . S
O30 C40 1.307 . S
O31 Zn24 1.919 . S
O31 C42 1.253 . S
O32 Zn26 1.941 . S
O32 C42 1.283 . S
O33 Zn26 1.965 1_455 S
O33 C41 1.303 . S
O34 Zn27 1.938 . S
O34 C41 1.247 1_655 S
O35 Zn27 1.906 . S
O35 C43 1.304 . S
O36 Zn24 1.924 . S
O36 C44 1.311 . S
O37 Zn28 1.977 . S
O37 C43 1.272 . S
O38 Zn28 1.910 . S
O38 C44 1.231 . S
C39 O23 1.225 . S
C39 O45 1.298 . S
C40 O29 1.226 1_655 S
C40 O30 1.307 . S
C41 O33 1.303 . S
C41 O34 1.247 1_455 S
C42 O31 1.253 . S
C42 O32 1.283 . S
C43 O35 1.304 . S
C43 O37 1.272 . S
C44 O36 1.311 . S
C44 O38 1.231 . S
O45 Zn27 1.953 . S
O45 C39 1.298 . S
O46 Zn47 1.953 . S
O46 C62 1.225 . S
Zn47 O46 1.953 . S
Zn47 O48 1.949 . S
Zn47 O54 1.919 . S
Zn47 O59 1.924 . S
O48 Zn47 1.949 . S
O48 Zn49 1.923 . S
O48 Zn50 1.950 . S
O48 Zn51 1.945 . S
Zn49 O48 1.923 . S
Zn49 O52 1.933 1_565 S
Zn49 O55 1.941 . S
Zn49 O56 1.965 1_565 S
Zn50 O48 1.950 . S
Zn50 O57 1.938 . S
Zn50 O58 1.906 . S
Zn50 O68 1.953 . S
Zn51 O48 1.945 . S
Zn51 O53 1.932 . S
Zn51 O60 1.977 . S
Zn51 O61 1.910 . S
O52 Zn49 1.933 1_545 S
O52 C63 1.226 1_545 S
O53 Zn51 1.932 . S
O53 C63 1.307 . S
O54 Zn47 1.919 . S
O54 C65 1.253 . S
O55 Zn49 1.941 . S
O55 C65 1.283 . S
O56 Zn49 1.965 1_545 S
O56 C64 1.303 . S
O57 Zn50 1.938 . S
O57 C64 1.247 1_565 S
O58 Zn50 1.906 . S
O58 C66 1.304 . S
O59 Zn47 1.924 . S
O59 C67 1.311 . S
O60 Zn51 1.977 . S
O60 C66 1.272 . S
O61 Zn51 1.910 . S
O61 C67 1.231 . S
C62 O46 1.225 . S
C62 O68 1.298 . S
C63 O52 1.226 1_565 S
C63 O53 1.307 . S
C64 O56 1.303 . S
C64 O57 1.247 1_545 S
C65 O54 1.253 . S
C65 O55 1.283 . S
C66 O58 1.304 . S
C66 O60 1.272 . S
C67 O59 1.311 . S
C67 O61 1.231 . S
O68 Zn50 1.953 . S
O68 C62 1.298 . S
O69 Zn70 1.953 . S
O69 C85 1.225 . S
Zn70 O69 1.953 . S
Zn70 O71 1.949 . S
Zn70 O77 1.919 . S
Zn70 O82 1.924 . S
O71 Zn70 1.949 . S
O71 Zn72 1.923 . S
O71 Zn73 1.950 . S
O71 Zn74 1.945 . S
Zn72 O71 1.923 . S
Zn72 O75 1.933 . S
Zn72 O78 1.941 . S
Zn72 O79 1.965 . S
Zn73 O71 1.950 . S
Zn73 O80 1.938 . S
Zn73 O81 1.906 . S
Zn73 O91 1.953 . S
Zn74 O71 1.945 . S
Zn74 O76 1.932 . S
Zn74 O83 1.977 . S
Zn74 O84 1.910 . S
O75 Zn72 1.933 . S
O75 C86 1.226 . S
O76 Zn74 1.932 . S
O76 C86 1.307 . S
O77 Zn70 1.919 . S
O77 C88 1.253 . S
O78 Zn72 1.941 . S
O78 C88 1.283 . S
O79 Zn72 1.965 . S
O79 C87 1.303 . S
O80 Zn73 1.938 . S
O80 C87 1.247 . S
O81 Zn73 1.906 . S
O81 C89 1.304 . S
O82 Zn70 1.924 . S
O82 C90 1.311 . S
O83 Zn74 1.977 . S
O83 C89 1.272 . S
O84 Zn74 1.910 . S
O84 C90 1.231 . S
C85 O69 1.225 . S
C85 O91 1.298 . S
C86 O75 1.226 . S
C86 O76 1.307 . S
C87 O79 1.303 . S
C87 O80 1.247 . S
C88 O77 1.253 . S
C88 O78 1.283 . S
C89 O81 1.304 . S
C89 O83 1.272 . S
C90 O82 1.311 . S
C90 O84 1.231 . S
O91 Zn73 1.953 . S
O91 C85 1.298 . S
O92 Zn93 1.953 . S
O92 C108 1.225 . S
Zn93 O92 1.953 . S
Zn93 O94 1.949 . S
Zn93 O100 1.919 . S
Zn93 O105 1.924 . S
O94 Zn93 1.949 . S
O94 Zn95 1.923 . S
O94 Zn96 1.950 . S
O94 Zn97 1.945 . S
Zn95 O94 1.923 . S
Zn95 O98 1.933 1_455 S
Zn95 O101 1.941 . S
Zn95 O102 1.965 1_455 S
Zn96 O94 1.950 . S
Zn96 O103 1.938 . S
Zn96 O104 1.906 . S
Zn96 O114 1.953 . S
Zn97 O94 1.945 . S
Zn97 O99 1.932 . S
Zn97 O106 1.977 . S
Zn97 O107 1.910 . S
O98 Zn95 1.933 1_655 S
O98 C109 1.226 1_655 S
O99 Zn97 1.932 . S
O99 C109 1.307 . S
O100 Zn93 1.919 . S
O100 C111 1.253 . S
O101 Zn95 1.941 . S
O101 C111 1.283 . S
O102 Zn95 1.965 1_655 S
O102 C110 1.303 . S
O103 Zn96 1.938 . S
O103 C110 1.247 1_455 S
O104 Zn96 1.906 . S
O104 C112 1.304 . S
O105 Zn93 1.924 . S
O105 C113 1.311 . S
O106 Zn97 1.977 . S
O106 C112 1.272 . S
O107 Zn97 1.910 . S
O107 C113 1.231 . S
C108 O92 1.225 . S
C108 O114 1.298 . S
C109 O98 1.226 1_455 S
C109 O99 1.307 . S
C110 O102 1.303 . S
C110 O103 1.247 1_655 S
C111 O100 1.253 . S
C111 O101 1.283 . S
C112 O104 1.304 . S
C112 O106 1.272 . S
C113 O105 1.311 . S
C113 O107 1.231 . S
O114 Zn96 1.953 . S
O114 C108 1.298 . S
O115 Zn116 1.953 . S
O115 C131 1.225 . S
Zn116 O115 1.953 . S
Zn116 O117 1.949 . S
Zn116 O123 1.919 . S
Zn116 O128 1.924 . S
O117 Zn116 1.949 . S
O117 Zn118 1.923 . S
O117 Zn119 1.950 . S
O117 Zn120 1.945 . S
Zn118 O117 1.923 . S
Zn118 O121 1.933 1_545 S
Zn118 O124 1.941 . S
Zn118 O125 1.965 1_545 S
Zn119 O117 1.950 . S
Zn119 O126 1.938 . S
Zn119 O127 1.906 . S
Zn119 O137 1.953 . S
Zn120 O117 1.945 . S
Zn120 O122 1.932 . S
Zn120 O129 1.977 . S
Zn120 O130 1.910 . S
O121 Zn118 1.933 1_565 S
O121 C132 1.226 1_565 S
O122 Zn120 1.932 . S
O122 C132 1.307 . S
O123 Zn116 1.919 . S
O123 C134 1.253 . S
O124 Zn118 1.941 . S
O124 C134 1.283 . S
O125 Zn118 1.965 1_565 S
O125 C133 1.303 . S
O126 Zn119 1.938 . S
O126 C133 1.247 1_545 S
O127 Zn119 1.906 . S
O127 C135 1.304 . S
O128 Zn116 1.924 . S
O128 C136 1.311 . S
O129 Zn120 1.977 . S
O129 C135 1.272 . S
O130 Zn120 1.910 . S
O130 C136 1.231 . S
C131 O115 1.225 . S
C131 O137 1.298 . S
C132 O121 1.226 1_545 S
C132 O122 1.307 . S
C133 O125 1.303 . S
C133 O126 1.247 1_565 S
C134 O123 1.253 . S
C134 O124 1.283 . S
C135 O127 1.304 . S
C135 O129 1.272 . S
C136 O128 1.311 . S
C136 O130 1.231 . S
O137 Zn119 1.953 . S
O137 C131 1.298 . S
O138 Zn139 1.953 . S
O138 C154 1.225 . S
Zn139 O138 1.953 . S
Zn139 O140 1.949 . S
Zn139 O146 1.919 . S
Zn139 O151 1.924 . S
O140 Zn139 1.949 . S
O140 Zn141 1.923 . S
O140 Zn142 1.950 . S
O140 Zn143 1.945 . S
Zn141 O140 1.923 . S
Zn141 O144 1.933 . S
Zn141 O147 1.941 . S
Zn141 O148 1.965 . S
Zn142 O140 1.950 . S
Zn142 O149 1.938 . S
Zn142 O150 1.906 . S
Zn142 O160 1.953 . S
Zn143 O140 1.945 . S
Zn143 O145 1.932 . S
Zn143 O152 1.977 . S
Zn143 O153 1.910 . S
O144 Zn141 1.933 . S
O144 C155 1.226 . S
O145 Zn143 1.932 . S
O145 C155 1.307 . S
O146 Zn139 1.919 . S
O146 C157 1.253 . S
O147 Zn141 1.941 . S
O147 C157 1.283 . S
O148 Zn141 1.965 . S
O148 C156 1.303 . S
O149 Zn142 1.938 . S
O149 C156 1.247 . S
O150 Zn142 1.906 . S
O150 C158 1.304 . S
O151 Zn139 1.924 . S
O151 C159 1.311 . S
O152 Zn143 1.977 . S
O152 C158 1.272 . S
O153 Zn143 1.910 . S
O153 C159 1.231 . S
C154 O138 1.225 . S
C154 O160 1.298 . S
C155 O144 1.226 . S
C155 O145 1.307 . S
C156 O148 1.303 . S
C156 O149 1.247 . S
C157 O146 1.253 . S
C157 O147 1.283 . S
C158 O150 1.304 . S
C158 O152 1.272 . S
C159 O151 1.311 . S
C159 O153 1.231 . S
O160 Zn142 1.953 . S
O160 C154 1.298 . S
O161 Zn162 1.953 . S
O161 C177 1.225 . S
Zn162 O161 1.953 . S
Zn162 O163 1.949 . S
Zn162 O169 1.919 . S
Zn162 O174 1.924 . S
O163 Zn162 1.949 . S
O163 Zn164 1.923 . S
O163 Zn165 1.950 . S
O163 Zn166 1.945 . S
Zn164 O163 1.923 . S
Zn164 O167 1.933 1_656 S
Zn164 O170 1.941 . S
Zn164 O171 1.965 1_655 S
Zn165 O163 1.950 . S
Zn165 O172 1.938 . S
Zn165 O173 1.906 . S
Zn165 O183 1.953 . S
Zn166 O163 1.945 . S
Zn166 O168 1.932 1_556 S
Zn166 O175 1.977 . S
Zn166 O176 1.910 . S
O167 Zn164 1.933 1_454 S
O167 C178 1.226 1_455 S
O168 Zn166 1.932 1_554 S
O168 C178 1.307 . S
O169 Zn162 1.919 . S
O169 C180 1.253 . S
O170 Zn164 1.941 . S
O170 C180 1.283 . S
O171 Zn164 1.965 1_455 S
O171 C179 1.303 . S
O172 Zn165 1.938 . S
O172 C179 1.247 1_655 S
O173 Zn165 1.906 . S
O173 C181 1.304 . S
O174 Zn162 1.924 . S
O174 C182 1.311 . S
O175 Zn166 1.977 . S
O175 C181 1.272 . S
O176 Zn166 1.910 . S
O176 C182 1.231 . S
C177 O161 1.225 . S
C177 O183 1.298 . S
C178 O167 1.226 1_655 S
C178 O168 1.307 . S
C179 O171 1.303 . S
C179 O172 1.247 1_455 S
C180 O169 1.253 . S
C180 O170 1.283 . S
C181 O173 1.304 . S
C181 O175 1.272 . S
C182 O174 1.311 . S
C182 O176 1.231 . S
O183 Zn165 1.953 . S
O183 C177 1.298 . S
O184 Zn185 1.953 . S
O184 C200 1.225 . S
Zn185 O184 1.953 . S
Zn185 O186 1.949 . S
Zn185 O192 1.919 . S
Zn185 O197 1.924 . S
O186 Zn185 1.949 . S
O186 Zn187 1.923 . S
O186 Zn188 1.950 . S
O186 Zn189 1.945 . S
Zn187 O186 1.923 . S
Zn187 O190 1.933 1_565 S
Zn187 O193 1.941 . S
Zn187 O194 1.965 1_565 S
Zn188 O186 1.950 . S
Zn188 O195 1.938 . S
Zn188 O196 1.906 . S
Zn188 O206 1.953 . S
Zn189 O186 1.945 . S
Zn189 O191 1.932 . S
Zn189 O198 1.977 . S
Zn189 O199 1.910 . S
O190 Zn187 1.933 1_545 S
O190 C201 1.226 1_545 S
O191 Zn189 1.932 . S
O191 C201 1.307 . S
O192 Zn185 1.919 . S
O192 C203 1.253 . S
O193 Zn187 1.941 . S
O193 C203 1.283 . S
O194 Zn187 1.965 1_545 S
O194 C202 1.303 . S
O195 Zn188 1.938 . S
O195 C202 1.247 1_565 S
O196 Zn188 1.906 . S
O196 C204 1.304 . S
O197 Zn185 1.924 . S
O197 C205 1.311 . S
O198 Zn189 1.977 . S
O198 C204 1.272 . S
O199 Zn189 1.910 . S
O199 C205 1.231 . S
C200 O184 1.225 . S
C200 O206 1.298 . S
C201 O190 1.226 1_565 S
C201 O191 1.307 . S
C202 O194 1.303 . S
C202 O195 1.247 1_545 S
C203 O192 1.253 . S
C203 O193 1.283 . S
C204 O196 1.304 . S
C204 O198 1.272 . S
C205 O197 1.311 . S
C205 O199 1.231 . S
O206 Zn188 1.953 . S
O206 C200 1.298 . S
O207 Zn208 1.953 . S
O207 C223 1.225 . S
Zn208 O207 1.953 . S
Zn208 O209 1.949 . S
Zn208 O215 1.919 . S
Zn208 O220 1.924 . S
O209 Zn208 1.949 . S
O209 Zn210 1.923 . S
O209 Zn211 1.950 . S
O209 Zn212 1.945 . S
Zn210 O209 1.923 . S
Zn210 O213 1.933 . S
Zn210 O216 1.941 . S
Zn210 O217 1.965 . S
Zn211 O209 1.950 . S
Zn211 O218 1.938 . S
Zn211 O219 1.906 . S
Zn211 O229 1.953 . S
Zn212 O209 1.945 . S
Zn212 O214 1.932 . S
Zn212 O221 1.977 . S
Zn212 O222 1.910 . S
O213 Zn210 1.933 . S
O213 C224 1.226 . S
O214 Zn212 1.932 . S
O214 C224 1.307 . S
O215 Zn208 1.919 . S
O215 C226 1.253 . S
O216 Zn210 1.941 . S
O216 C226 1.283 . S
O217 Zn210 1.965 . S
O217 C225 1.303 . S
O218 Zn211 1.938 . S
O218 C225 1.247 . S
O219 Zn211 1.906 . S
O219 C227 1.304 . S
O220 Zn208 1.924 . S
O220 C228 1.311 . S
O221 Zn212 1.977 . S
O221 C227 1.272 . S
O222 Zn212 1.910 . S
O222 C228 1.231 . S
C223 O207 1.225 . S
C223 O229 1.298 . S
C224 O213 1.226 . S
C224 O214 1.307 . S
C225 O217 1.303 . S
C225 O218 1.247 . S
C226 O215 1.253 . S
C226 O216 1.283 . S
C227 O219 1.304 . S
C227 O221 1.272 . S
C228 O220 1.311 . S
C228 O222 1.231 . S
O229 Zn211 1.953 . S
O229 C223 1.298 . S
O230 Zn231 1.953 . S
O230 C246 1.225 . S
Zn231 O230 1.953 . S
Zn231 O232 1.949 . S
Zn231 O238 1.919 . S
Zn231 O243 1.924 . S
O232 Zn231 1.949 . S
O232 Zn233 1.923 . S
O232 Zn234 1.950 . S
O232 Zn235 1.945 . S
Zn233 O232 1.923 . S
Zn233 O236 1.933 1_455 S
Zn233 O239 1.941 . S
Zn233 O240 1.965 1_455 S
Zn234 O232 1.950 . S
Zn234 O241 1.938 . S
Zn234 O242 1.906 . S
Zn234 O252 1.953 . S
Zn235 O232 1.945 . S
Zn235 O237 1.932 . S
Zn235 O244 1.977 . S
Zn235 O245 1.910 . S
O236 Zn233 1.933 1_655 S
O236 C247 1.226 1_655 S
O237 Zn235 1.932 . S
O237 C247 1.307 . S
O238 Zn231 1.919 . S
O238 C249 1.253 . S
O239 Zn233 1.941 . S
O239 C249 1.283 . S
O240 Zn233 1.965 1_655 S
O240 C248 1.303 . S
O241 Zn234 1.938 . S
O241 C248 1.247 1_455 S
O242 Zn234 1.906 . S
O242 C250 1.304 . S
O243 Zn231 1.924 . S
O243 C251 1.311 . S
O244 Zn235 1.977 . S
O244 C250 1.272 . S
O245 Zn235 1.910 . S
O245 C251 1.231 . S
C246 O230 1.225 . S
C246 O252 1.298 . S
C247 O236 1.226 1_455 S
C247 O237 1.307 . S
C248 O240 1.303 . S
C248 O241 1.247 1_655 S
C249 O238 1.253 . S
C249 O239 1.283 . S
C250 O242 1.304 . S
C250 O244 1.272 . S
C251 O243 1.311 . S
C251 O245 1.231 . S
O252 Zn234 1.953 . S
O252 C246 1.298 . S
O253 Zn254 1.953 . S
O253 C269 1.225 . S
Zn254 O253 1.953 . S
Zn254 O255 1.949 . S
Zn254 O261 1.919 . S
Zn254 O266 1.924 . S
O255 Zn254 1.949 . S
O255 Zn256 1.923 . S
O255 Zn257 1.950 . S
O255 Zn258 1.945 . S
Zn256 O255 1.923 . S
Zn256 O259 1.933 1_545 S
Zn256 O262 1.941 . S
Zn256 O263 1.965 1_545 S
Zn257 O255 1.950 . S
Zn257 O264 1.938 . S
Zn257 O265 1.906 . S
Zn257 O275 1.953 . S
Zn258 O255 1.945 . S
Zn258 O260 1.932 . S
Zn258 O267 1.977 . S
Zn258 O268 1.910 . S
O259 Zn256 1.933 1_565 S
O259 C270 1.226 1_565 S
O260 Zn258 1.932 . S
O260 C270 1.307 . S
O261 Zn254 1.919 . S
O261 C272 1.253 . S
O262 Zn256 1.941 . S
O262 C272 1.283 . S
O263 Zn256 1.965 1_565 S
O263 C271 1.303 . S
O264 Zn257 1.938 . S
O264 C271 1.247 1_545 S
O265 Zn257 1.906 . S
O265 C273 1.304 . S
O266 Zn254 1.924 . S
O266 C274 1.311 . S
O267 Zn258 1.977 . S
O267 C273 1.272 . S
O268 Zn258 1.910 . S
O268 C274 1.231 . S
C269 O253 1.225 . S
C269 O275 1.298 . S
C270 O259 1.226 1_545 S
C270 O260 1.307 . S
C271 O263 1.303 . S
C271 O264 1.247 1_565 S
C272 O261 1.253 . S
C272 O262 1.283 . S
C273 O265 1.304 . S
C273 O267 1.272 . S
C274 O266 1.311 . S
C274 O268 1.231 . S
O275 Zn257 1.953 . S
O275 C269 1.298 . S
H276 C284 0.929 . S
H277 C286 0.930 . S
H278 C288 0.932 . S
H279 C291 0.929 . S
H280 C294 0.930 . S
H281 C296 0.960 . S
H282 C296 0.960 . S
H283 C296 0.960 . S
C284 H276 0.929 . S
C284 C285 1.377 . S
C284 C286 1.384 . S
C285 C284 1.377 . S
C285 C291 1.390 . S
C286 H277 0.930 . S
C286 C284 1.384 . S
C286 C287 1.365 1_556 S
C287 C286 1.365 1_554 S
C287 C288 1.399 . S
C287 C292 1.499 . S
C288 H278 0.932 . S
C288 C287 1.399 . S
C288 C291 1.384 1_554 S
H289 C305 0.930 . S
H290 C306 0.931 . S
C291 H279 0.929 . S
C291 C285 1.390 . S
C291 C288 1.384 1_556 S
C292 C287 1.499 . S
C292 C294 1.395 . S
C292 C295 1.403 1_554 S
H293 C299 0.937 . S
C294 H280 0.930 . S
C294 C292 1.395 . S
C294 C297 1.403 . S
C295 C292 1.403 1_556 S
C295 C296 1.524 . S
C295 C299 1.403 . S
C296 H281 0.960 . S
C296 H282 0.960 . S
C296 H283 0.960 . S
C296 C295 1.524 . S
C297 C294 1.403 . S
C297 C298 1.392 . S
C297 C301 1.495 . S
C298 C297 1.392 . S
C298 C299 1.376 1_554 S
C298 C300 1.478 . S
C299 H293 0.937 . S
C299 C295 1.403 . S
C299 C298 1.376 1_556 S
C300 C298 1.478 . S
C300 C302 1.381 . S
C300 C306 1.383 . S
C301 C297 1.495 . S
C301 H307 0.959 . S
C301 H308 0.961 . S
C301 H309 0.960 . S
C302 C300 1.381 . S
C302 C303 1.394 . S
C302 H310 0.930 . S
C303 C302 1.394 . S
C303 C304 1.383 . S
C303 H311 0.929 . S
C304 C303 1.383 . S
C304 C305 1.377 . S
C305 H289 0.930 . S
C305 C304 1.377 . S
C305 C306 1.379 . S
C306 H290 0.931 . S
C306 C300 1.383 . S
C306 C305 1.379 . S
H307 C301 0.959 . S
H308 C301 0.961 . S
H309 C301 0.960 . S
H310 C302 0.930 . S
H311 C303 0.929 . S
H312 C320 0.929 . S
H313 C322 0.930 . S
H314 C324 0.930 . S
H315 C327 0.929 . S
H316 C330 0.930 . S
H317 C332 0.960 . S
H318 C332 0.960 . S
H319 C332 0.960 . S
C320 H312 0.929 . S
C320 C321 1.377 . S
C320 C322 1.384 . S
C321 C320 1.377 . S
C321 C327 1.390 . S
C322 H313 0.930 . S
C322 C320 1.384 . S
C322 C323 1.372 . S
C323 C322 1.372 . S
C323 C324 1.400 . S
C323 C328 1.490 . S
C324 H314 0.930 . S
C324 C323 1.400 . S
C324 C327 1.386 . S
H325 C341 0.930 . S
H326 C342 0.931 . S
C327 H315 0.929 . S
C327 C321 1.390 . S
C327 C324 1.386 . S
C328 C323 1.490 . S
C328 C330 1.395 . S
C328 C331 1.403 . S
H329 C335 0.930 . S
C330 H316 0.930 . S
C330 C328 1.395 . S
C330 C333 1.403 . S
C331 C328 1.403 . S
C331 C332 1.524 . S
C331 C335 1.400 . S
C332 H317 0.960 . S
C332 H318 0.960 . S
C332 H319 0.960 . S
C332 C331 1.524 . S
C333 C330 1.403 . S
C333 C334 1.392 . S
C333 C337 1.495 . S
C334 C333 1.392 . S
C334 C335 1.385 . S
C334 C336 1.478 . S
C335 H329 0.930 . S
C335 C331 1.400 . S
C335 C334 1.385 . S
C336 C334 1.478 . S
C336 C338 1.381 . S
C336 C342 1.383 1_455 S
C337 C333 1.495 . S
C337 H343 0.959 . S
C337 H344 0.961 . S
C337 H345 0.960 . S
C338 C336 1.381 . S
C338 C339 1.394 . S
C338 H346 0.930 . S
C339 C338 1.394 . S
C339 C340 1.383 1_455 S
C339 H347 0.929 . S
C340 C339 1.383 1_655 S
C340 C341 1.377 . S
C341 H325 0.930 . S
C341 C340 1.377 . S
C341 C342 1.379 . S
C342 H326 0.931 . S
C342 C336 1.383 1_655 S
C342 C341 1.379 . S
H343 C337 0.959 . S
H344 C337 0.961 . S
H345 C337 0.960 . S
H346 C338 0.930 . S
H347 C339 0.929 . S
H348 C356 0.929 . S
H349 C358 0.930 . S
H350 C360 0.930 . S
H351 C363 0.929 . S
H352 C366 0.930 . S
H353 C368 0.960 1_565 S
H354 C368 0.960 . S
H355 C368 0.960 . S
C356 H348 0.929 . S
C356 C357 1.377 . S
C356 C358 1.384 . S
C357 C356 1.377 . S
C357 C363 1.390 . S
C358 H349 0.930 . S
C358 C356 1.384 . S
C358 C359 1.372 . S
C359 C358 1.372 . S
C359 C360 1.400 . S
C359 C364 1.490 . S
C360 H350 0.930 . S
C360 C359 1.400 . S
C360 C363 1.386 . S
H361 C377 0.930 . S
H362 C378 0.943 . S
C363 H351 0.929 . S
C363 C357 1.390 . S
C363 C360 1.386 . S
C364 C359 1.490 . S
C364 C366 1.395 . S
C364 C367 1.403 . S
H365 C371 0.930 1_565 S
C366 H352 0.930 . S
C366 C364 1.395 . S
C366 C369 1.403 . S
C367 C364 1.403 . S
C367 C368 1.524 . S
C367 C371 1.400 . S
C368 H353 0.960 1_545 S
C368 H354 0.960 . S
C368 H355 0.960 . S
C368 C367 1.524 . S
C369 C366 1.403 . S
C369 C370 1.392 . S
C369 C373 1.495 . S
C370 C369 1.392 . S
C370 C371 1.385 . S
C370 C372 1.478 . S
C371 H365 0.930 1_545 S
C371 C367 1.400 . S
C371 C370 1.385 . S
C372 C370 1.478 . S
C372 C374 1.381 . S
C372 C378 1.391 . S
C373 C369 1.495 . S
C373 H379 0.959 . S
C373 H380 0.961 . S
C373 H381 0.960 . S
C374 C372 1.381 . S
C374 C375 1.394 1_545 S
C374 H382 0.930 . S
C375 C374 1.394 1_565 S
C375 C376 1.383 . S
C375 H383 0.929 . S
C376 C375 1.383 . S
C376 C377 1.377 . S
C377 H361 0.930 . S
C377 C376 1.377 . S
C377 C378 1.360 1_565 S
C378 H362 0.943 . S
C378 C372 1.391 . S
C378 C377 1.360 1_545 S
H379 C373 0.959 . S
H380 C373 0.961 . S
H381 C373 0.960 . S
H382 C374 0.930 . S
H383 C375 0.929 . S
H384 C392 0.929 . S
H385 C394 0.930 . S
H386 C396 0.930 . S
H387 C399 0.929 . S
H388 C402 0.930 . S
H389 C404 0.960 . S
H390 C404 0.960 . S
H391 C404 0.960 . S
C392 H384 0.929 . S
C392 C393 1.377 . S
C392 C394 1.384 . S
C393 C392 1.377 . S
C393 C399 1.390 . S
C394 H385 0.930 . S
C394 C392 1.384 . S
C394 C395 1.372 . S
C395 C394 1.372 . S
C395 C396 1.400 . S
C395 C400 1.490 . S
C396 H386 0.930 . S
C396 C395 1.400 . S
C396 C399 1.386 . S
H397 C413 0.930 . S
H398 C414 0.931 . S
C399 H387 0.929 . S
C399 C393 1.390 . S
C399 C396 1.386 . S
C400 C395 1.490 . S
C400 C402 1.395 . S
C400 C403 1.403 . S
H401 C407 0.930 . S
C402 H388 0.930 . S
C402 C400 1.395 . S
C402 C405 1.403 . S
C403 C400 1.403 . S
C403 C404 1.524 . S
C403 C407 1.400 . S
C404 H389 0.960 . S
C404 H390 0.960 . S
C404 H391 0.960 . S
C404 C403 1.524 . S
C405 C402 1.403 . S
C405 C406 1.392 . S
C405 C409 1.495 . S
C406 C405 1.392 . S
C406 C407 1.385 . S
C406 C408 1.478 . S
C407 H401 0.930 . S
C407 C403 1.400 . S
C407 C406 1.385 . S
C408 C406 1.478 . S
C408 C410 1.381 . S
C408 C414 1.383 . S
C409 C405 1.495 . S
C409 H415 0.959 . S
C409 H416 0.961 . S
C409 H417 0.960 . S
C410 C408 1.381 . S
C410 C411 1.394 . S
C410 H418 0.930 . S
C411 C410 1.394 . S
C411 C412 1.383 . S
C411 H419 0.929 . S
C412 C411 1.383 . S
C412 C413 1.377 . S
C413 H397 0.930 . S
C413 C412 1.377 . S
C413 C414 1.379 . S
C414 H398 0.931 . S
C414 C408 1.383 . S
C414 C413 1.379 . S
H415 C409 0.959 . S
H416 C409 0.961 . S
H417 C409 0.960 . S
H418 C410 0.930 . S
H419 C411 0.929 . S
H420 C428 0.929 . S
H421 C430 0.930 . S
H422 C432 0.930 . S
H423 C435 0.929 . S
H424 C438 0.930 . S
H425 C440 0.960 . S
H426 C440 0.960 . S
H427 C440 0.960 . S
C428 H420 0.929 . S
C428 C429 1.377 . S
C428 C430 1.384 . S
C429 C428 1.377 . S
C429 C435 1.390 . S
C430 H421 0.930 . S
C430 C428 1.384 . S
C430 C431 1.372 . S
C431 C430 1.372 . S
C431 C432 1.400 . S
C431 C436 1.490 . S
C432 H422 0.930 . S
C432 C431 1.400 . S
C432 C435 1.386 . S
H433 C449 0.930 . S
H434 C450 0.931 . S
C435 H423 0.929 . S
C435 C429 1.390 . S
C435 C432 1.386 . S
C436 C431 1.490 . S
C436 C438 1.395 . S
C436 C439 1.403 . S
H437 C443 0.930 . S
C438 H424 0.930 . S
C438 C436 1.395 . S
C438 C441 1.403 . S
C439 C436 1.403 . S
C439 C440 1.524 . S
C439 C443 1.400 . S
C440 H425 0.960 . S
C440 H426 0.960 . S
C440 H427 0.960 . S
C440 C439 1.524 . S
C441 C438 1.403 . S
C441 C442 1.392 . S
C441 C445 1.495 1_655 S
C442 C441 1.392 . S
C442 C443 1.385 . S
C442 C444 1.478 . S
C443 H437 0.930 . S
C443 C439 1.400 . S
C443 C442 1.385 . S
C444 C442 1.478 . S
C444 C446 1.381 . S
C444 C450 1.383 1_655 S
C445 C441 1.495 1_455 S
C445 H451 0.959 . S
C445 H452 0.961 . S
C445 H453 0.960 1_455 S
C446 C444 1.381 . S
C446 C447 1.394 1_655 S
C446 H454 0.930 . S
C447 C446 1.394 1_455 S
C447 C448 1.383 . S
C447 H455 0.929 . S
C448 C447 1.383 . S
C448 C449 1.377 . S
C449 H433 0.930 . S
C449 C448 1.377 . S
C449 C450 1.379 . S
C450 H434 0.931 . S
C450 C444 1.383 1_455 S
C450 C449 1.379 . S
H451 C445 0.959 . S
H452 C445 0.961 . S
H453 C445 0.960 1_655 S
H454 C446 0.930 . S
H455 C447 0.929 . S
H456 C464 0.929 . S
H457 C466 0.930 . S
H458 C468 0.930 . S
H459 C471 0.929 . S
H460 C474 0.930 . S
H461 C476 0.960 . S
H462 C476 0.960 . S
H463 C476 0.960 . S
C464 H456 0.929 . S
C464 C465 1.377 . S
C464 C466 1.384 . S
C465 C464 1.377 . S
C465 C471 1.390 . S
C466 H457 0.930 . S
C466 C464 1.384 . S
C466 C467 1.372 . S
C467 C466 1.372 . S
C467 C468 1.400 . S
C467 C472 1.490 . S
C468 H458 0.930 . S
C468 C467 1.400 . S
C468 C471 1.386 . S
H469 C485 0.930 . S
H470 C486 0.931 . S
C471 H459 0.929 . S
C471 C465 1.390 . S
C471 C468 1.386 . S
C472 C467 1.490 . S
C472 C474 1.395 . S
C472 C475 1.403 . S
H473 C479 0.930 . S
C474 H460 0.930 . S
C474 C472 1.395 . S
C474 C477 1.403 . S
C475 C472 1.403 . S
C475 C476 1.524 . S
C475 C479 1.400 . S
C476 H461 0.960 . S
C476 H462 0.960 . S
C476 H463 0.960 . S
C476 C475 1.524 . S
C477 C474 1.403 . S
C477 C478 1.392 . S
C477 C481 1.495 1_565 S
C478 C477 1.392 . S
C478 C479 1.385 . S
C478 C480 1.478 . S
C479 H473 0.930 . S
C479 C475 1.400 . S
C479 C478 1.385 . S
C480 C478 1.478 . S
C480 C482 1.381 . S
C480 C486 1.383 1_565 S
C481 C477 1.495 1_545 S
C481 H487 0.959 . S
C481 H488 0.961 . S
C481 H489 0.960 . S
C482 C480 1.381 . S
C482 C483 1.394 1_565 S
C482 H490 0.930 . S
C483 C482 1.394 1_545 S
C483 C484 1.383 . S
C483 H491 0.929 . S
C484 C483 1.383 . S
C484 C485 1.377 . S
C485 H469 0.930 . S
C485 C484 1.377 . S
C485 C486 1.379 . S
C486 H470 0.931 . S
C486 C480 1.383 1_545 S
C486 C485 1.379 . S
H487 C481 0.959 . S
H488 C481 0.961 . S
H489 C481 0.960 . S
H490 C482 0.930 . S
H491 C483 0.929 . S
H492 C500 0.929 . S
H493 C502 0.930 . S
H494 C504 0.930 . S
H495 C507 0.929 . S
H496 C510 0.930 . S
H497 C512 0.960 . S
H498 C512 0.960 . S
H499 C512 0.960 . S
C500 H492 0.929 . S
C500 C501 1.377 . S
C500 C502 1.384 . S
C501 C500 1.377 . S
C501 C507 1.390 . S
C502 H493 0.930 . S
C502 C500 1.384 . S
C502 C503 1.372 . S
C503 C502 1.372 . S
C503 C504 1.400 . S
C503 C508 1.490 . S
C504 H494 0.930 . S
C504 C503 1.400 . S
C504 C507 1.386 . S
H505 C521 0.930 . S
H506 C522 0.931 . S
C507 H495 0.929 . S
C507 C501 1.390 . S
C507 C504 1.386 . S
C508 C503 1.490 . S
C508 C510 1.395 . S
C508 C511 1.403 . S
H509 C515 0.930 . S
C510 H496 0.930 . S
C510 C508 1.395 . S
C510 C513 1.403 . S
C511 C508 1.403 . S
C511 C512 1.524 . S
C511 C515 1.400 . S
C512 H497 0.960 . S
C512 H498 0.960 . S
C512 H499 0.960 . S
C512 C511 1.524 . S
C513 C510 1.403 . S
C513 C514 1.392 . S
C513 C517 1.495 . S
C514 C513 1.392 . S
C514 C515 1.385 . S
C514 C516 1.478 . S
C515 H509 0.930 . S
C515 C511 1.400 . S
C515 C514 1.385 . S
C516 C514 1.478 . S
C516 C518 1.381 . S
C516 C522 1.383 . S
C517 C513 1.495 . S
C517 H523 0.959 . S
C517 H524 0.961 . S
C517 H525 0.960 . S
C518 C516 1.381 . S
C518 C519 1.394 . S
C518 H526 0.930 . S
C519 C518 1.394 . S
C519 C520 1.383 . S
C519 H527 0.929 . S
C520 C519 1.383 . S
C520 C521 1.377 . S
C521 H505 0.930 . S
C521 C520 1.377 . S
C521 C522 1.379 . S
C522 H506 0.931 . S
C522 C516 1.383 . S
C522 C521 1.379 . S
H523 C517 0.959 . S
H524 C517 0.961 . S
H525 C517 0.960 . S
H526 C518 0.930 . S
H527 C519 0.929 . S
H528 C536 0.929 . S
H529 C538 0.930 . S
H530 C540 0.930 1_554 S
H531 C543 0.929 1_554 S
H532 C546 0.930 . S
H533 C548 0.960 . S
H534 C548 0.960 . S
H535 C548 0.947 1_554 S
C536 H528 0.929 . S
C536 C537 1.377 . S
C536 C538 1.384 1_655 S
C537 C536 1.377 . S
C537 C543 1.390 . S
C538 H529 0.930 . S
C538 C536 1.384 1_455 S
C538 C539 1.372 . S
C539 C538 1.372 . S
C539 C540 1.400 1_455 S
C539 C544 1.490 . S
C540 H530 0.930 1_556 S
C540 C539 1.400 1_655 S
C540 C543 1.386 . S
H541 C557 0.930 . S
H542 C558 0.931 . S
C543 H531 0.929 1_556 S
C543 C537 1.390 . S
C543 C540 1.386 . S
C544 C539 1.490 . S
C544 C546 1.395 . S
C544 C547 1.403 . S
H545 C551 0.930 . S
C546 H532 0.930 . S
C546 C544 1.395 . S
C546 C549 1.403 . S
C547 C544 1.403 . S
C547 C548 1.524 1_455 S
C547 C551 1.400 . S
C548 H533 0.960 . S
C548 H534 0.960 . S
C548 H535 0.947 1_556 S
C548 C547 1.524 1_655 S
C549 C546 1.403 . S
C549 C550 1.392 . S
C549 C553 1.495 . S
C550 C549 1.392 . S
C550 C551 1.385 . S
C550 C552 1.478 . S
C551 H545 0.930 . S
C551 C547 1.400 . S
C551 C550 1.385 . S
C552 C550 1.478 . S
C552 C554 1.381 . S
C552 C558 1.383 1_556 S
C553 C549 1.495 . S
C553 H559 0.959 . S
C553 H560 0.970 1_556 S
C553 H561 0.960 . S
C554 C552 1.381 . S
C554 C555 1.394 . S
C554 H562 0.930 . S
C555 C554 1.394 . S
C555 C556 1.383 1_556 S
C555 H563 0.929 . S
C556 C555 1.383 1_554 S
C556 C557 1.377 . S
C557 H541 0.930 . S
C557 C556 1.377 . S
C557 C558 1.379 . S
C558 H542 0.931 . S
C558 C552 1.383 1_554 S
C558 C557 1.379 . S
H559 C553 0.959 . S
H560 C553 0.970 1_554 S
H561 C553 0.960 . S
H562 C554 0.930 . S
H563 C555 0.929 . S
H564 C572 0.929 . S
H565 C574 0.930 . S
H566 C576 0.930 . S
H567 C579 0.929 . S
H568 C582 0.930 . S
H569 C584 0.960 1_545 S
H570 C584 0.960 . S
H571 C584 0.960 1_545 S
C572 H564 0.929 . S
C572 C573 1.377 . S
C572 C574 1.384 . S
C573 C572 1.377 . S
C573 C579 1.390 . S
C574 H565 0.930 . S
C574 C572 1.384 . S
C574 C575 1.372 1_565 S
C575 C574 1.372 1_545 S
C575 C576 1.400 . S
C575 C580 1.490 . S
C576 H566 0.930 . S
C576 C575 1.400 . S
C576 C579 1.386 1_545 S
H577 C593 0.930 . S
H578 C594 0.931 . S
C579 H567 0.929 . S
C579 C573 1.390 . S
C579 C576 1.386 1_565 S
C580 C575 1.490 . S
C580 C582 1.395 . S
C580 C583 1.403 . S
H581 C587 0.930 . S
C582 H568 0.930 . S
C582 C580 1.395 . S
C582 C585 1.403 . S
C583 C580 1.403 . S
C583 C584 1.524 1_545 S
C583 C587 1.400 . S
C584 H569 0.960 1_565 S
C584 H570 0.960 . S
C584 H571 0.960 1_565 S
C584 C583 1.524 1_565 S
C585 C582 1.403 . S
C585 C586 1.392 . S
C585 C589 1.495 . S
C586 C585 1.392 . S
C586 C587 1.385 . S
C586 C588 1.478 . S
C587 H581 0.930 . S
C587 C583 1.400 . S
C587 C586 1.385 . S
C588 C586 1.478 . S
C588 C590 1.381 . S
C588 C594 1.383 . S
C589 C585 1.495 . S
C589 H595 0.959 . S
C589 H596 0.961 . S
C589 H597 0.960 . S
C590 C588 1.381 . S
C590 C591 1.394 . S
C590 H598 0.930 . S
C591 C590 1.394 . S
C591 C592 1.383 . S
C591 H599 0.929 . S
C592 C591 1.383 . S
C592 C593 1.377 . S
C593 H577 0.930 . S
C593 C592 1.377 . S
C593 C594 1.379 . S
C594 H578 0.931 . S
C594 C588 1.383 . S
C594 C593 1.379 . S
H595 C589 0.959 . S
H596 C589 0.961 . S
H597 C589 0.960 . S
H598 C590 0.930 . S
H599 C591 0.929 . S
H600 C608 0.929 . S
H601 C610 0.930 . S
H602 C612 0.930 . S
H603 C615 0.929 . S
H604 C618 0.930 . S
H605 C620 0.960 . S
H606 C620 0.960 . S
H607 C620 0.960 . S
C608 H600 0.929 . S
C608 C609 1.377 . S
C608 C610 1.384 . S
C609 C608 1.377 . S
C609 C615 1.390 . S
C610 H601 0.930 . S
C610 C608 1.384 . S
C610 C611 1.372 . S
C611 C610 1.372 . S
C611 C612 1.400 . S
C611 C616 1.490 . S
C612 H602 0.930 . S
C612 C611 1.400 . S
C612 C615 1.386 . S
H613 C629 0.930 . S
H614 C630 0.931 . S
C615 H603 0.929 . S
C615 C609 1.390 . S
C615 C612 1.386 . S
C616 C611 1.490 . S
C616 C618 1.395 . S
C616 C619 1.403 . S
H617 C623 0.930 . S
C618 H604 0.930 . S
C618 C616 1.395 . S
C618 C621 1.403 . S
C619 C616 1.403 . S
C619 C620 1.524 . S
C619 C623 1.400 . S
C620 H605 0.960 . S
C620 H606 0.960 . S
C620 H607 0.960 . S
C620 C619 1.524 . S
C621 C618 1.403 . S
C621 C622 1.392 . S
C621 C625 1.495 . S
C622 C621 1.392 . S
C622 C623 1.385 . S
C622 C624 1.478 . S
C623 H617 0.930 . S
C623 C619 1.400 . S
C623 C622 1.385 . S
C624 C622 1.478 . S
C624 C626 1.381 . S
C624 C630 1.383 . S
C625 C621 1.495 . S
C625 H631 0.959 . S
C625 H632 0.961 . S
C625 H633 0.960 . S
C626 C624 1.381 . S
C626 C627 1.394 . S
C626 H634 0.930 . S
C627 C626 1.394 . S
C627 C628 1.383 . S
C627 H635 0.929 . S
C628 C627 1.383 . S
C628 C629 1.377 . S
C629 H613 0.930 . S
C629 C628 1.377 . S
C629 C630 1.379 . S
C630 H614 0.931 . S
C630 C624 1.383 . S
C630 C629 1.379 . S
H631 C625 0.959 . S
H632 C625 0.961 . S
H633 C625 0.960 . S
H634 C626 0.930 . S
H635 C627 0.929 . S
H636 C644 0.929 . S
H637 C646 0.930 . S
H638 C648 0.930 . S
H639 C651 0.929 . S
H640 C654 0.930 . S
H641 C656 0.960 . S
H642 C656 0.960 . S
H643 C656 0.960 . S
C644 H636 0.929 . S
C644 C645 1.377 1_655 S
C644 C646 1.384 . S
C645 C644 1.377 1_455 S
C645 C651 1.390 . S
C646 H637 0.930 . S
C646 C644 1.384 . S
C646 C647 1.372 . S
C647 C646 1.372 . S
C647 C648 1.400 1_655 S
C647 C652 1.490 . S
C648 H638 0.930 . S
C648 C647 1.400 1_455 S
C648 C651 1.386 . S
H649 C665 0.930 . S
H650 C666 0.931 . S
C651 H639 0.929 . S
C651 C645 1.390 . S
C651 C648 1.386 . S
C652 C647 1.490 . S
C652 C654 1.395 . S
C652 C655 1.403 . S
H653 C659 0.930 . S
C654 H640 0.930 . S
C654 C652 1.395 . S
C654 C657 1.403 . S
C655 C652 1.403 . S
C655 C656 1.524 . S
C655 C659 1.400 . S
C656 H641 0.960 . S
C656 H642 0.960 . S
C656 H643 0.960 . S
C656 C655 1.524 . S
C657 C654 1.403 . S
C657 C658 1.392 . S
C657 C661 1.495 . S
C658 C657 1.392 . S
C658 C659 1.385 . S
C658 C660 1.478 . S
C659 H653 0.930 . S
C659 C655 1.400 . S
C659 C658 1.385 . S
C660 C658 1.478 . S
C660 C662 1.381 . S
C660 C666 1.383 . S
C661 C657 1.495 . S
C661 H667 0.959 . S
C661 H668 0.961 . S
C661 H669 0.960 . S
C662 C660 1.381 . S
C662 C663 1.394 . S
C662 H670 0.930 . S
C663 C662 1.394 . S
C663 C664 1.383 . S
C663 H671 0.929 . S
C664 C663 1.383 . S
C664 C665 1.377 . S
C665 H649 0.930 . S
C665 C664 1.377 . S
C665 C666 1.379 . S
C666 H650 0.931 . S
C666 C660 1.383 . S
C666 C665 1.379 . S
H667 C661 0.959 . S
H668 C661 0.961 . S
H669 C661 0.960 . S
H670 C662 0.930 . S
H671 C663 0.929 . S
H672 C680 0.940 . S
H673 C682 0.930 . S
H674 C684 0.930 . S
H675 C687 0.929 . S
H676 C690 0.930 . S
H677 C692 0.960 . S
H678 C692 0.960 . S
H679 C692 0.960 . S
C680 H672 0.940 . S
C680 C681 1.367 1_565 S
C680 C682 1.384 . S
C681 C680 1.367 1_545 S
C681 C687 1.390 . S
C682 H673 0.930 . S
C682 C680 1.384 . S
C682 C683 1.372 . S
C683 C682 1.372 . S
C683 C684 1.400 1_565 S
C683 C688 1.490 . S
C684 H674 0.930 . S
C684 C683 1.400 1_545 S
C684 C687 1.386 . S
H685 C701 0.930 . S
H686 C702 0.931 . S
C687 H675 0.929 . S
C687 C681 1.390 . S
C687 C684 1.386 . S
C688 C683 1.490 . S
C688 C690 1.395 . S
C688 C691 1.403 . S
H689 C695 0.930 . S
C690 H676 0.930 . S
C690 C688 1.395 . S
C690 C693 1.403 . S
C691 C688 1.403 . S
C691 C692 1.524 1_565 S
C691 C695 1.400 . S
C692 H677 0.960 . S
C692 H678 0.960 . S
C692 H679 0.960 . S
C692 C691 1.524 1_545 S
C693 C690 1.403 . S
C693 C694 1.392 . S
C693 C697 1.495 . S
C694 C693 1.392 . S
C694 C695 1.385 . S
C694 C696 1.478 . S
C695 H689 0.930 . S
C695 C691 1.400 . S
C695 C694 1.385 . S
C696 C694 1.478 . S
C696 C698 1.381 . S
C696 C702 1.383 . S
C697 C693 1.495 . S
C697 H703 0.959 . S
C697 H704 0.961 . S
C697 H705 0.960 . S
C698 C696 1.381 . S
C698 C699 1.394 . S
C698 H706 0.930 . S
C699 C698 1.394 . S
C699 C700 1.383 . S
C699 H707 0.929 . S
C700 C699 1.383 . S
C700 C701 1.377 . S
C701 H685 0.930 . S
C701 C700 1.377 . S
C701 C702 1.379 . S
C702 H686 0.931 . S
C702 C696 1.383 . S
C702 C701 1.379 . S
H703 C697 0.959 . S
H704 C697 0.961 . S
H705 C697 0.960 . S
H706 C698 0.930 . S
H707 C699 0.929 . S
H708 C716 0.929 . S
H709 C718 0.930 . S
H710 C720 0.930 . S
H711 C723 0.929 . S
H712 C726 0.930 . S
H713 C728 0.960 . S
H714 C728 0.960 . S
H715 C728 0.960 . S
C716 H708 0.929 . S
C716 C717 1.377 . S
C716 C718 1.384 . S
C717 C716 1.377 . S
C717 C723 1.390 . S
C718 H709 0.930 . S
C718 C716 1.384 . S
C718 C719 1.372 . S
C719 C718 1.372 . S
C719 C720 1.400 . S
C719 C724 1.490 . S
C720 H710 0.930 . S
C720 C719 1.400 . S
C720 C723 1.386 . S
H721 C737 0.930 . S
H722 C738 0.931 . S
C723 H711 0.929 . S
C723 C717 1.390 . S
C723 C720 1.386 . S
C724 C719 1.490 . S
C724 C726 1.395 . S
C724 C727 1.403 . S
H725 C731 0.930 . S
C726 H712 0.930 . S
C726 C724 1.395 . S
C726 C729 1.403 . S
C727 C724 1.403 . S
C727 C728 1.524 . S
C727 C731 1.400 . S
C728 H713 0.960 . S
C728 H714 0.960 . S
C728 H715 0.960 . S
C728 C727 1.524 . S
C729 C726 1.403 . S
C729 C730 1.392 . S
C729 C733 1.495 . S
C730 C729 1.392 . S
C730 C731 1.385 . S
C730 C732 1.478 . S
C731 H725 0.930 . S
C731 C727 1.400 . S
C731 C730 1.385 . S
C732 C730 1.478 . S
C732 C734 1.381 . S
C732 C738 1.383 . S
C733 C729 1.495 . S
C733 H739 0.959 . S
C733 H740 0.961 . S
C733 H741 0.960 . S
C734 C732 1.381 . S
C734 C735 1.394 . S
C734 H742 0.930 . S
C735 C734 1.394 . S
C735 C736 1.383 . S
C735 H743 0.929 . S
C736 C735 1.383 . S
C736 C737 1.377 . S
C737 H721 0.930 . S
C737 C736 1.377 . S
C737 C738 1.379 . S
C738 H722 0.931 . S
C738 C732 1.383 . S
C738 C737 1.379 . S
H739 C733 0.959 . S
H740 C733 0.961 . S
H741 C733 0.960 . S
H742 C734 0.930 . S
H743 C735 0.929 . S
H744 C752 0.929 . S
H745 C754 0.930 . S
H746 C756 0.930 1_655 S
H747 C759 0.929 . S
H748 C762 0.930 . S
H749 C764 0.960 1_655 S
H750 C764 0.960 . S
H751 C764 0.960 1_655 S
C752 H744 0.929 . S
C752 C753 1.377 . S
C752 C754 1.384 . S
C753 C752 1.377 . S
C753 C759 1.390 1_455 S
C754 H745 0.930 . S
C754 C752 1.384 . S
C754 C755 1.372 . S
C755 C754 1.372 . S
C755 C756 1.400 . S
C755 C760 1.490 . S
C756 H746 0.930 1_455 S
C756 C755 1.400 . S
C756 C759 1.386 1_455 S
H757 C773 0.930 . S
H758 C774 0.931 . S
C759 H747 0.929 . S
C759 C753 1.390 1_655 S
C759 C756 1.386 1_655 S
C760 C755 1.490 . S
C760 C762 1.395 . S
C760 C763 1.403 . S
H761 C767 0.930 . S
C762 H748 0.930 . S
C762 C760 1.395 . S
C762 C765 1.403 . S
C763 C760 1.403 . S
C763 C764 1.524 . S
C763 C767 1.400 . S
C764 H749 0.960 1_455 S
C764 H750 0.960 . S
C764 H751 0.960 1_455 S
C764 C763 1.524 . S
C765 C762 1.403 . S
C765 C766 1.392 . S
C765 C769 1.495 . S
C766 C765 1.392 . S
C766 C767 1.385 . S
C766 C768 1.478 . S
C767 H761 0.930 . S
C767 C763 1.400 . S
C767 C766 1.385 . S
C768 C766 1.478 . S
C768 C770 1.381 . S
C768 C774 1.383 . S
C769 C765 1.495 . S
C769 H775 0.959 . S
C769 H776 0.961 . S
C769 H777 0.960 . S
C770 C768 1.381 . S
C770 C771 1.394 . S
C770 H778 0.930 . S
C771 C770 1.394 . S
C771 C772 1.383 . S
C771 H779 0.929 . S
C772 C771 1.383 . S
C772 C773 1.377 . S
C773 H757 0.930 . S
C773 C772 1.377 . S
C773 C774 1.379 . S
C774 H758 0.931 . S
C774 C768 1.383 . S
C774 C773 1.379 . S
H775 C769 0.959 . S
H776 C769 0.961 . S
H777 C769 0.960 . S
H778 C770 0.930 . S
H779 C771 0.929 . S
H780 C788 0.929 . S
H781 C790 0.930 . S
H782 C792 0.930 . S
H783 C795 0.929 . S
H784 C798 0.930 . S
H785 C800 0.960 . S
H786 C800 0.960 . S
H787 C800 0.960 . S
C788 H780 0.929 . S
C788 C789 1.377 . S
C788 C790 1.384 . S
C789 C788 1.377 . S
C789 C795 1.390 . S
C790 H781 0.930 . S
C790 C788 1.384 . S
C790 C791 1.372 . S
C791 C790 1.372 . S
C791 C792 1.400 . S
C791 C796 1.490 . S
C792 H782 0.930 . S
C792 C791 1.400 . S
C792 C795 1.386 . S
H793 C809 0.930 . S
H794 C810 0.931 . S
C795 H783 0.929 . S
C795 C789 1.390 . S
C795 C792 1.386 . S
C796 C791 1.490 . S
C796 C798 1.395 . S
C796 C799 1.403 . S
H797 C803 0.930 . S
C798 H784 0.930 . S
C798 C796 1.395 . S
C798 C801 1.403 . S
C799 C796 1.403 . S
C799 C800 1.524 . S
C799 C803 1.400 . S
C800 H785 0.960 . S
C800 H786 0.960 . S
C800 H787 0.960 . S
C800 C799 1.524 . S
C801 C798 1.403 . S
C801 C802 1.392 . S
C801 C805 1.495 . S
C802 C801 1.392 . S
C802 C803 1.385 . S
C802 C804 1.478 . S
C803 H797 0.930 . S
C803 C799 1.400 . S
C803 C802 1.385 . S
C804 C802 1.478 . S
C804 C806 1.381 . S
C804 C810 1.383 . S
C805 C801 1.495 . S
C805 H811 0.959 . S
C805 H812 0.961 . S
C805 H813 0.960 . S
C806 C804 1.381 . S
C806 C807 1.394 1_545 S
C806 H814 0.930 . S
C807 C806 1.394 1_565 S
C807 C808 1.383 1_565 S
C807 H815 0.929 . S
C808 C807 1.383 1_545 S
C808 C809 1.377 . S
C809 H793 0.930 . S
C809 C808 1.377 . S
C809 C810 1.379 . S
C810 H794 0.931 . S
C810 C804 1.383 . S
C810 C809 1.379 . S
H811 C805 0.959 . S
H812 C805 0.961 . S
H813 C805 0.960 . S
H814 C806 0.930 . S
H815 C807 0.929 . S
H816 C824 0.929 . S
H817 C826 0.930 . S
H818 C828 0.930 . S
H819 C831 0.929 . S
H820 C834 0.930 . S
H821 C836 0.960 . S
H822 C836 0.960 . S
H823 C836 0.960 . S
C824 H816 0.929 . S
C824 C825 1.377 . S
C824 C826 1.384 . S
C825 C824 1.377 . S
C825 C831 1.390 . S
C826 H817 0.930 . S
C826 C824 1.384 . S
C826 C827 1.372 . S
C827 C826 1.372 . S
C827 C828 1.400 . S
C827 C832 1.490 . S
C828 H818 0.930 . S
C828 C827 1.400 . S
C828 C831 1.386 . S
H829 C845 0.930 . S
H830 C846 0.931 . S
C831 H819 0.929 . S
C831 C825 1.390 . S
C831 C828 1.386 . S
C832 C827 1.490 . S
C832 C834 1.395 . S
C832 C835 1.403 . S
H833 C839 0.930 . S
C834 H820 0.930 . S
C834 C832 1.395 . S
C834 C837 1.403 . S
C835 C832 1.403 . S
C835 C836 1.524 . S
C835 C839 1.400 . S
C836 H821 0.960 . S
C836 H822 0.960 . S
C836 H823 0.960 . S
C836 C835 1.524 . S
C837 C834 1.403 . S
C837 C838 1.392 . S
C837 C841 1.495 . S
C838 C837 1.392 . S
C838 C839 1.385 . S
C838 C840 1.478 . S
C839 H833 0.930 . S
C839 C835 1.400 . S
C839 C838 1.385 . S
C840 C838 1.478 . S
C840 C842 1.381 . S
C840 C846 1.383 . S
C841 C837 1.495 . S
C841 H847 0.959 . S
C841 H848 0.961 . S
C841 H849 0.960 . S
C842 C840 1.381 . S
C842 C843 1.394 . S
C842 H850 0.930 . S
C843 C842 1.394 . S
C843 C844 1.383 . S
C843 H851 0.929 . S
C844 C843 1.383 . S
C844 C845 1.377 . S
C845 H829 0.930 . S
C845 C844 1.377 . S
C845 C846 1.379 . S
C846 H830 0.931 . S
C846 C840 1.383 . S
C846 C845 1.379 . S
H847 C841 0.959 . S
H848 C841 0.961 . S
H849 C841 0.960 . S
H850 C842 0.930 . S
H851 C843 0.929 . S
H852 C860 0.929 . S
H853 C862 0.930 . S
H854 C864 0.930 . S
H855 C867 0.929 . S
H856 C870 0.930 . S
H857 C872 0.960 . S
H858 C872 0.960 . S
H859 C872 0.960 . S
C860 H852 0.929 . S
C860 C861 1.377 . S
C860 C862 1.384 . S
C861 C860 1.377 . S
C861 C867 1.390 . S
C862 H853 0.930 . S
C862 C860 1.384 . S
C862 C863 1.372 . S
C863 C862 1.372 . S
C863 C864 1.400 . S
C863 C868 1.490 . S
C864 H854 0.930 . S
C864 C863 1.400 . S
C864 C867 1.386 . S
H865 C881 0.930 . S
H866 C882 0.931 . S
C867 H855 0.929 . S
C867 C861 1.390 . S
C867 C864 1.386 . S
C868 C863 1.490 . S
C868 C870 1.395 . S
C868 C871 1.403 . S
H869 C875 0.930 . S
C870 H856 0.930 . S
C870 C868 1.395 . S
C870 C873 1.403 . S
C871 C868 1.403 . S
C871 C872 1.524 . S
C871 C875 1.400 . S
C872 H857 0.960 . S
C872 H858 0.960 . S
C872 H859 0.960 . S
C872 C871 1.524 . S
C873 C870 1.403 . S
C873 C874 1.392 . S
C873 C877 1.495 . S
C874 C873 1.392 . S
C874 C875 1.385 . S
C874 C876 1.478 . S
C875 H869 0.930 . S
C875 C871 1.400 . S
C875 C874 1.385 . S
C876 C874 1.478 . S
C876 C878 1.381 1_655 S
C876 C882 1.383 . S
C877 C873 1.495 . S
C877 H883 0.959 . S
C877 H884 0.961 . S
C877 H885 0.960 1_655 S
C878 C876 1.381 1_455 S
C878 C879 1.394 . S
C878 H886 0.930 . S
C879 C878 1.394 . S
C879 C880 1.371 1_455 S
C879 H887 0.929 . S
C880 C879 1.371 1_655 S
C880 C881 1.401 . S
C881 H865 0.930 . S
C881 C880 1.401 . S
C881 C882 1.379 . S
C882 H866 0.931 . S
C882 C876 1.383 . S
C882 C881 1.379 . S
H883 C877 0.959 . S
H884 C877 0.961 . S
H885 C877 0.960 1_455 S
H886 C878 0.930 . S
H887 C879 0.929 . S
H888 C896 0.929 . S
H889 C898 0.930 . S
H890 C900 0.930 . S
H891 C903 0.929 . S
H892 C906 0.930 . S
H893 C908 0.960 . S
H894 C908 0.960 . S
H895 C908 0.960 . S
C896 H888 0.929 . S
C896 C897 1.377 1_545 S
C896 C898 1.384 . S
C897 C896 1.377 1_565 S
C897 C903 1.390 . S
C898 H889 0.930 . S
C898 C896 1.384 . S
C898 C899 1.372 1_545 S
C899 C898 1.372 1_565 S
C899 C900 1.400 . S
C899 C904 1.490 . S
C900 H890 0.930 . S
C900 C899 1.400 . S
C900 C903 1.386 . S
H901 C917 0.930 . S
H902 C918 0.931 . S
C903 H891 0.929 . S
C903 C897 1.390 . S
C903 C900 1.386 . S
C904 C899 1.490 . S
C904 C906 1.395 . S
C904 C907 1.403 . S
H905 C911 0.930 . S
C906 H892 0.930 . S
C906 C904 1.395 . S
C906 C909 1.403 . S
C907 C904 1.403 . S
C907 C908 1.524 . S
C907 C911 1.400 . S
C908 H893 0.960 . S
C908 H894 0.960 . S
C908 H895 0.960 . S
C908 C907 1.524 . S
C909 C906 1.403 . S
C909 C910 1.392 . S
C909 C913 1.495 . S
C910 C909 1.392 . S
C910 C911 1.385 . S
C910 C912 1.478 . S
C911 H905 0.930 . S
C911 C907 1.400 . S
C911 C910 1.385 . S
C912 C910 1.478 . S
C912 C914 1.381 . S
C912 C918 1.383 . S
C913 C909 1.495 . S
C913 H919 0.959 . S
C913 H920 0.961 . S
C913 H921 0.960 . S
C914 C912 1.381 . S
C914 C915 1.394 . S
C914 H922 0.930 . S
C915 C914 1.394 . S
C915 C916 1.383 . S
C915 H923 0.929 . S
C916 C915 1.383 . S
C916 C917 1.377 . S
C917 H901 0.930 . S
C917 C916 1.377 . S
C917 C918 1.379 . S
C918 H902 0.931 . S
C918 C912 1.383 . S
C918 C917 1.379 . S
H919 C913 0.959 . S
H920 C913 0.961 . S
H921 C913 0.960 . S
H922 C914 0.930 . S
H923 C915 0.929 . S
H924 C932 0.929 . S
H925 C934 0.930 . S
H926 C936 0.930 . S
H927 C939 0.929 . S
H928 C942 0.930 . S
H929 C944 0.960 . S
H930 C944 0.960 . S
H931 C944 0.960 . S
C932 H924 0.929 . S
C932 C933 1.377 . S
C932 C934 1.384 . S
C933 C932 1.377 . S
C933 C939 1.390 . S
C934 H925 0.930 . S
C934 C932 1.384 . S
C934 C935 1.372 . S
C935 C934 1.372 . S
C935 C936 1.400 . S
C935 C940 1.490 . S
C936 H926 0.930 . S
C936 C935 1.400 . S
C936 C939 1.386 . S
H937 C953 0.930 . S
H938 C954 0.931 . S
C939 H927 0.929 . S
C939 C933 1.390 . S
C939 C936 1.386 . S
C940 C935 1.490 . S
C940 C942 1.395 . S
C940 C943 1.403 . S
H941 C947 0.930 . S
C942 H928 0.930 . S
C942 C940 1.395 . S
C942 C945 1.403 . S
C943 C940 1.403 . S
C943 C944 1.524 . S
C943 C947 1.400 . S
C944 H929 0.960 . S
C944 H930 0.960 . S
C944 H931 0.960 . S
C944 C943 1.524 . S
C945 C942 1.403 . S
C945 C946 1.392 . S
C945 C949 1.495 . S
C946 C945 1.392 . S
C946 C947 1.385 . S
C946 C948 1.478 . S
C947 H941 0.930 . S
C947 C943 1.400 . S
C947 C946 1.385 . S
C948 C946 1.478 . S
C948 C950 1.381 . S
C948 C954 1.383 . S
C949 C945 1.495 . S
C949 H955 0.959 . S
C949 H956 0.961 . S
C949 H957 0.960 . S
C950 C948 1.381 . S
C950 C951 1.394 . S
C950 H958 0.930 . S
C951 C950 1.394 . S
C951 C952 1.383 . S
C951 H959 0.929 . S
C952 C951 1.383 . S
C952 C953 1.377 . S
C953 H937 0.930 . S
C953 C952 1.377 . S
C953 C954 1.379 . S
C954 H938 0.931 . S
C954 C948 1.383 . S
C954 C953 1.379 . S
H955 C949 0.959 . S
H956 C949 0.961 . S
H957 C949 0.960 . S
H958 C950 0.930 . S
H959 C951 0.929 . S
H960 C968 0.929 . S
H961 C970 0.930 . S
H962 C972 0.930 . S
H963 C975 0.929 . S
H964 C978 0.930 . S
H965 C980 0.960 . S
H966 C980 0.960 . S
H967 C980 0.960 . S
C968 H960 0.929 . S
C968 C969 1.377 1_655 S
C968 C970 1.384 1_655 S
C969 C968 1.377 1_455 S
C969 C975 1.390 . S
C970 H961 0.930 . S
C970 C968 1.384 1_455 S
C970 C971 1.372 . S
C971 C970 1.372 . S
C971 C972 1.400 . S
C971 C976 1.490 . S
C972 H962 0.930 . S
C972 C971 1.400 . S
C972 C975 1.386 . S
H973 C989 0.930 . S
H974 C990 0.931 . S
C975 H963 0.929 . S
C975 C969 1.390 . S
C975 C972 1.386 . S
C976 C971 1.490 . S
C976 C978 1.395 . S
C976 C979 1.403 . S
H977 C983 0.930 . S
C978 H964 0.930 . S
C978 C976 1.395 . S
C978 C981 1.403 . S
C979 C976 1.403 . S
C979 C980 1.524 . S
C979 C983 1.400 . S
C980 H965 0.960 . S
C980 H966 0.960 . S
C980 H967 0.960 . S
C980 C979 1.524 . S
C981 C978 1.403 . S
C981 C982 1.392 . S
C981 C985 1.495 . S
C982 C981 1.392 . S
C982 C983 1.385 . S
C982 C984 1.478 . S
C983 H977 0.930 . S
C983 C979 1.400 . S
C983 C982 1.385 . S
C984 C982 1.478 . S
C984 C986 1.381 . S
C984 C990 1.383 . S
C985 C981 1.495 . S
C985 H991 0.959 1_455 S
C985 H992 0.961 . S
C985 H993 0.960 . S
C986 C984 1.381 . S
C986 C987 1.394 . S
C986 H994 0.930 . S
C987 C986 1.394 . S
C987 C988 1.383 . S
C987 H995 0.929 . S
C988 C987 1.383 . S
C988 C989 1.377 . S
C989 H973 0.930 . S
C989 C988 1.377 . S
C989 C990 1.379 . S
C990 H974 0.931 . S
C990 C984 1.383 . S
C990 C989 1.379 . S
H991 C985 0.959 1_655 S
H992 C985 0.961 . S
H993 C985 0.960 . S
H994 C986 0.930 . S
H995 C987 0.929 . S
H996 C1004 0.929 . S
H997 C1006 0.930 . S
H998 C1008 0.930 1_565 S
H999 C1011 0.929 . S
H1000 C1014 0.930 . S
H1001 C1016 0.960 . S
H1002 C1016 0.960 . S
H1003 C1016 0.960 . S
C1004 H996 0.929 . S
C1004 C1005 1.377 . S
C1004 C1006 1.384 . S
C1005 C1004 1.377 . S
C1005 C1011 1.390 1_545 S
C1006 H997 0.930 . S
C1006 C1004 1.384 . S
C1006 C1007 1.372 . S
C1007 C1006 1.372 . S
C1007 C1008 1.400 . S
C1007 C1012 1.490 . S
C1008 H998 0.930 1_545 S
C1008 C1007 1.400 . S
C1008 C1011 1.386 1_545 S
H1009 C1025 0.930 . S
H1010 C1026 0.931 . S
C1011 H999 0.929 . S
C1011 C1005 1.390 1_565 S
C1011 C1008 1.386 1_565 S
C1012 C1007 1.490 . S
C1012 C1014 1.395 . S
C1012 C1015 1.403 . S
H1013 C1019 0.930 . S
C1014 H1000 0.930 . S
C1014 C1012 1.395 . S
C1014 C1017 1.403 . S
C1015 C1012 1.403 . S
C1015 C1016 1.524 . S
C1015 C1019 1.400 . S
C1016 H1001 0.960 . S
C1016 H1002 0.960 . S
C1016 H1003 0.960 . S
C1016 C1015 1.524 . S
C1017 C1014 1.403 . S
C1017 C1018 1.392 . S
C1017 C1021 1.495 . S
C1018 C1017 1.392 . S
C1018 C1019 1.385 . S
C1018 C1020 1.478 . S
C1019 H1013 0.930 . S
C1019 C1015 1.400 . S
C1019 C1018 1.385 . S
C1020 C1018 1.478 . S
C1020 C1022 1.381 . S
C1020 C1026 1.383 . S
C1021 C1017 1.495 . S
C1021 H1027 0.959 . S
C1021 H1028 0.961 . S
C1021 H1029 0.960 . S
C1022 C1020 1.381 . S
C1022 C1023 1.394 . S
C1022 H1030 0.930 . S
C1023 C1022 1.394 . S
C1023 C1024 1.383 . S
C1023 H1031 0.929 . S
C1024 C1023 1.383 . S
C1024 C1025 1.377 . S
C1025 H1009 0.930 . S
C1025 C1024 1.377 . S
C1025 C1026 1.379 . S
C1026 H1010 0.931 . S
C1026 C1020 1.383 . S
C1026 C1025 1.379 . S
H1027 C1021 0.959 . S
H1028 C1021 0.961 . S
H1029 C1021 0.960 . S
H1030 C1022 0.930 . S
H1031 C1023 0.929 . S
H1032 C1040 0.929 . S
H1033 C1042 0.930 . S
H1034 C1044 0.930 . S
H1035 C1047 0.929 . S
H1036 C1050 0.930 . S
H1037 C1052 0.960 . S
H1038 C1052 0.960 . S
H1039 C1052 0.960 . S
C1040 H1032 0.929 . S
C1040 C1041 1.377 . S
C1040 C1042 1.384 . S
C1041 C1040 1.377 . S
C1041 C1047 1.390 . S
C1042 H1033 0.930 . S
C1042 C1040 1.384 . S
C1042 C1043 1.372 . S
C1043 C1042 1.372 . S
C1043 C1044 1.400 . S
C1043 C1048 1.490 . S
C1044 H1034 0.930 . S
C1044 C1043 1.400 . S
C1044 C1047 1.386 . S
H1045 C1061 0.930 . S
H1046 C1062 0.931 . S
C1047 H1035 0.929 . S
C1047 C1041 1.390 . S
C1047 C1044 1.386 . S
C1048 C1043 1.490 . S
C1048 C1050 1.395 . S
C1048 C1051 1.403 . S
H1049 C1055 0.930 . S
C1050 H1036 0.930 . S
C1050 C1048 1.395 . S
C1050 C1053 1.403 . S
C1051 C1048 1.403 . S
C1051 C1052 1.524 . S
C1051 C1055 1.400 . S
C1052 H1037 0.960 . S
C1052 H1038 0.960 . S
C1052 H1039 0.960 . S
C1052 C1051 1.524 . S
C1053 C1050 1.403 . S
C1053 C1054 1.392 . S
C1053 C1057 1.495 . S
C1054 C1053 1.392 . S
C1054 C1055 1.385 . S
C1054 C1056 1.478 . S
C1055 H1049 0.930 . S
C1055 C1051 1.400 . S
C1055 C1054 1.385 . S
C1056 C1054 1.478 . S
C1056 C1058 1.381 . S
C1056 C1062 1.383 . S
C1057 C1053 1.495 . S
C1057 H1063 0.959 . S
C1057 H1064 0.961 . S
C1057 H1065 0.960 . S
C1058 C1056 1.381 . S
C1058 C1059 1.394 . S
C1058 H1066 0.930 . S
C1059 C1058 1.394 . S
C1059 C1060 1.383 . S
C1059 H1067 0.929 . S
C1060 C1059 1.383 . S
C1060 C1061 1.377 . S
C1061 H1045 0.930 . S
C1061 C1060 1.377 . S
C1061 C1062 1.379 . S
C1062 H1046 0.931 . S
C1062 C1056 1.383 . S
C1062 C1061 1.379 . S
H1063 C1057 0.959 . S
H1064 C1057 0.961 . S
H1065 C1057 0.960 . S
H1066 C1058 0.930 . S
H1067 C1059 0.929 . S
H1068 C1076 0.929 . S
H1069 C1078 0.930 . S
H1070 C1080 0.930 . S
H1071 C1083 0.929 1_455 S
H1072 C1086 0.930 . S
H1073 C1088 0.960 . S
H1074 C1088 0.960 . S
H1075 C1088 0.960 . S
C1076 H1068 0.929 . S
C1076 C1077 1.377 . S
C1076 C1078 1.384 . S
C1077 C1076 1.377 . S
C1077 C1083 1.390 . S
C1078 H1069 0.930 . S
C1078 C1076 1.384 . S
C1078 C1079 1.372 . S
C1079 C1078 1.372 . S
C1079 C1080 1.400 . S
C1079 C1084 1.490 . S
C1080 H1070 0.930 . S
C1080 C1079 1.400 . S
C1080 C1083 1.386 . S
H1081 C1097 0.930 . S
H1082 C1098 0.931 . S
C1083 H1071 0.929 1_655 S
C1083 C1077 1.390 . S
C1083 C1080 1.386 . S
C1084 C1079 1.490 . S
C1084 C1086 1.395 . S
C1084 C1087 1.403 . S
H1085 C1091 0.930 . S
C1086 H1072 0.930 . S
C1086 C1084 1.395 . S
C1086 C1089 1.403 . S
C1087 C1084 1.403 . S
C1087 C1088 1.524 1_655 S
C1087 C1091 1.400 . S
C1088 H1073 0.960 . S
C1088 H1074 0.960 . S
C1088 H1075 0.960 . S
C1088 C1087 1.524 1_455 S
C1089 C1086 1.403 . S
C1089 C1090 1.392 . S
C1089 C1093 1.495 . S
C1090 C1089 1.392 . S
C1090 C1091 1.385 . S
C1090 C1092 1.478 . S
C1091 H1085 0.930 . S
C1091 C1087 1.400 . S
C1091 C1090 1.385 . S
C1092 C1090 1.478 . S
C1092 C1094 1.381 . S
C1092 C1098 1.383 . S
C1093 C1089 1.495 . S
C1093 H1099 0.959 . S
C1093 H1100 0.961 . S
C1093 H1101 0.960 . S
C1094 C1092 1.381 . S
C1094 C1095 1.394 . S
C1094 H1102 0.930 . S
C1095 C1094 1.394 . S
C1095 C1096 1.383 . S
C1095 H1103 0.929 . S
C1096 C1095 1.383 . S
C1096 C1097 1.377 . S
C1097 H1081 0.930 . S
C1097 C1096 1.377 . S
C1097 C1098 1.379 . S
C1098 H1082 0.931 . S
C1098 C1092 1.383 . S
C1098 C1097 1.379 . S
H1099 C1093 0.959 . S
H1100 C1093 0.961 . S
H1101 C1093 0.960 . S
H1102 C1094 0.930 . S
H1103 C1095 0.929 . S
H1104 C1112 0.929 . S
H1105 C1114 0.930 . S
H1106 C1116 0.930 . S
H1107 C1119 0.929 . S
H1108 C1122 0.930 . S
H1109 C1124 0.960 . S
H1110 C1124 0.960 . S
H1111 C1124 0.960 . S
C1112 H1104 0.929 . S
C1112 C1113 1.377 . S
C1112 C1114 1.384 . S
C1113 C1112 1.377 . S
C1113 C1119 1.390 . S
C1114 H1105 0.930 . S
C1114 C1112 1.384 . S
C1114 C1115 1.372 . S
C1115 C1114 1.372 . S
C1115 C1116 1.400 . S
C1115 C1120 1.490 . S
C1116 H1106 0.930 . S
C1116 C1115 1.400 . S
C1116 C1119 1.386 . S
H1117 C1133 0.930 . S
H1118 C1134 0.931 . S
C1119 H1107 0.929 . S
C1119 C1113 1.390 . S
C1119 C1116 1.386 . S
C1120 C1115 1.490 . S
C1120 C1122 1.395 . S
C1120 C1123 1.403 . S
H1121 C1127 0.930 . S
C1122 H1108 0.930 . S
C1122 C1120 1.395 . S
C1122 C1125 1.403 . S
C1123 C1120 1.403 . S
C1123 C1124 1.524 . S
C1123 C1127 1.400 . S
C1124 H1109 0.960 . S
C1124 H1110 0.960 . S
C1124 H1111 0.960 . S
C1124 C1123 1.524 . S
C1125 C1122 1.403 . S
C1125 C1126 1.392 . S
C1125 C1129 1.495 . S
C1126 C1125 1.392 . S
C1126 C1127 1.385 . S
C1126 C1128 1.478 . S
C1127 H1121 0.930 . S
C1127 C1123 1.400 . S
C1127 C1126 1.385 . S
C1128 C1126 1.478 . S
C1128 C1130 1.381 . S
C1128 C1134 1.383 . S
C1129 C1125 1.495 . S
C1129 H1135 0.965 . S
C1129 H1136 0.961 1_565 S
C1129 H1137 0.960 . S
C1130 C1128 1.381 . S
C1130 C1131 1.394 . S
C1130 H1138 0.930 . S
C1131 C1130 1.394 . S
C1131 C1132 1.383 1_565 S
C1131 H1139 0.929 . S
C1132 C1131 1.383 1_545 S
C1132 C1133 1.374 . S
C1133 H1117 0.930 . S
C1133 C1132 1.374 . S
C1133 C1134 1.379 1_545 S
C1134 H1118 0.931 . S
C1134 C1128 1.383 . S
C1134 C1133 1.379 1_565 S
H1135 C1129 0.965 . S
H1136 C1129 0.961 1_545 S
H1137 C1129 0.960 . S
H1138 C1130 0.930 . S
H1139 C1131 0.929 . S
H1140 C1148 0.929 1_565 S
H1141 C1150 0.930 . S
H1142 C1152 0.930 . S
H1143 C1155 0.929 . S
H1144 C1158 0.930 . S
H1145 C1160 0.960 . S
H1146 C1160 0.960 . S
H1147 C1160 0.960 . S
C1148 H1140 0.929 1_545 S
C1148 C1149 1.377 . S
C1148 C1150 1.384 . S
C1149 C1148 1.377 . S
C1149 C1155 1.390 . S
C1150 H1141 0.930 . S
C1150 C1148 1.384 . S
C1150 C1151 1.372 . S
C1151 C1150 1.372 . S
C1151 C1152 1.400 . S
C1151 C1156 1.490 . S
C1152 H1142 0.930 . S
C1152 C1151 1.400 . S
C1152 C1155 1.386 . S
H1153 C1169 0.930 . S
H1154 C1170 0.931 . S
C1155 H1143 0.929 . S
C1155 C1149 1.390 . S
C1155 C1152 1.386 . S
C1156 C1151 1.490 . S
C1156 C1158 1.395 . S
C1156 C1159 1.403 . S
H1157 C1163 0.930 . S
C1158 H1144 0.930 . S
C1158 C1156 1.395 . S
C1158 C1161 1.403 . S
C1159 C1156 1.403 . S
C1159 C1160 1.524 . S
C1159 C1163 1.400 . S
C1160 H1145 0.960 . S
C1160 H1146 0.960 . S
C1160 H1147 0.960 . S
C1160 C1159 1.524 . S
C1161 C1158 1.403 . S
C1161 C1162 1.392 . S
C1161 C1165 1.495 . S
C1162 C1161 1.392 . S
C1162 C1163 1.385 . S
C1162 C1164 1.478 . S
C1163 H1157 0.930 . S
C1163 C1159 1.400 . S
C1163 C1162 1.385 . S
C1164 C1162 1.478 . S
C1164 C1166 1.381 . S
C1164 C1170 1.383 . S
C1165 C1161 1.495 . S
C1165 H1171 0.959 . S
C1165 H1172 0.961 . S
C1165 H1173 0.960 . S
C1166 C1164 1.381 . S
C1166 C1167 1.394 . S
C1166 H1174 0.930 . S
C1167 C1166 1.394 . S
C1167 C1168 1.383 . S
C1167 H1175 0.929 . S
C1168 C1167 1.383 . S
C1168 C1169 1.377 . S
C1169 H1153 0.930 . S
C1169 C1168 1.377 . S
C1169 C1170 1.379 . S
C1170 H1154 0.931 . S
C1170 C1164 1.383 . S
C1170 C1169 1.379 . S
H1171 C1165 0.959 . S
H1172 C1165 0.961 . S
H1173 C1165 0.960 . S
H1174 C1166 0.930 . S
H1175 C1167 0.929 . S
H1176 C1184 0.929 . S
H1177 C1186 0.930 . S
H1178 C1188 0.930 . S
H1179 C1191 0.929 1_655 S
H1180 C1194 0.930 . S
H1181 C1196 0.960 . S
H1182 C1196 0.960 . S
H1183 C1196 0.960 . S
C1184 H1176 0.929 . S
C1184 C1185 1.377 . S
C1184 C1186 1.384 . S
C1185 C1184 1.377 . S
C1185 C1191 1.390 . S
C1186 H1177 0.930 . S
C1186 C1184 1.384 . S
C1186 C1187 1.372 . S
C1187 C1186 1.372 . S
C1187 C1188 1.400 . S
C1187 C1192 1.490 . S
C1188 H1178 0.930 . S
C1188 C1187 1.400 . S
C1188 C1191 1.386 . S
H1189 C1205 0.930 . S
H1190 C1206 0.931 . S
C1191 H1179 0.929 1_455 S
C1191 C1185 1.390 . S
C1191 C1188 1.386 . S
C1192 C1187 1.490 . S
C1192 C1194 1.395 . S
C1192 C1195 1.403 . S
H1193 C1199 0.930 . S
C1194 H1180 0.930 . S
C1194 C1192 1.395 . S
C1194 C1197 1.403 . S
C1195 C1192 1.403 . S
C1195 C1196 1.524 . S
C1195 C1199 1.400 . S
C1196 H1181 0.960 . S
C1196 H1182 0.960 . S
C1196 H1183 0.960 . S
C1196 C1195 1.524 . S
C1197 C1194 1.403 . S
C1197 C1198 1.392 . S
C1197 C1201 1.495 . S
C1198 C1197 1.392 . S
C1198 C1199 1.385 . S
C1198 C1200 1.478 . S
C1199 H1193 0.930 . S
C1199 C1195 1.400 . S
C1199 C1198 1.385 . S
C1200 C1198 1.478 . S
C1200 C1202 1.381 . S
C1200 C1206 1.383 . S
C1201 C1197 1.495 . S
C1201 H1207 0.959 . S
C1201 H1208 0.961 . S
C1201 H1209 0.960 . S
C1202 C1200 1.381 . S
C1202 C1203 1.394 . S
C1202 H1210 0.930 . S
C1203 C1202 1.394 . S
C1203 C1204 1.383 . S
C1203 H1211 0.929 . S
C1204 C1203 1.383 . S
C1204 C1205 1.377 . S
C1205 H1189 0.930 . S
C1205 C1204 1.377 . S
C1205 C1206 1.379 . S
C1206 H1190 0.931 . S
C1206 C1200 1.383 . S
C1206 C1205 1.379 . S
H1207 C1201 0.959 . S
H1208 C1201 0.961 . S
H1209 C1201 0.960 . S
H1210 C1202 0.930 . S
H1211 C1203 0.929 . S
H1212 C1220 0.929 . S
H1213 C1222 0.930 . S
H1214 C1224 0.930 . S
H1215 C1227 0.929 1_565 S
H1216 C1230 0.930 . S
H1217 C1232 0.960 . S
H1218 C1232 0.960 . S
H1219 C1232 0.960 . S
C1220 H1212 0.929 . S
C1220 C1221 1.377 . S
C1220 C1222 1.384 . S
C1221 C1220 1.377 . S
C1221 C1227 1.390 . S
C1222 H1213 0.930 . S
C1222 C1220 1.384 . S
C1222 C1223 1.372 . S
C1223 C1222 1.372 . S
C1223 C1224 1.400 . S
C1223 C1228 1.490 . S
C1224 H1214 0.930 . S
C1224 C1223 1.400 . S
C1224 C1227 1.386 . S
H1225 C1241 0.930 . S
H1226 C1242 0.931 . S
C1227 H1215 0.929 1_545 S
C1227 C1221 1.390 . S
C1227 C1224 1.386 . S
C1228 C1223 1.490 . S
C1228 C1230 1.395 . S
C1228 C1231 1.403 . S
H1229 C1235 0.930 . S
C1230 H1216 0.930 . S
C1230 C1228 1.395 . S
C1230 C1233 1.403 . S
C1231 C1228 1.403 . S
C1231 C1232 1.524 . S
C1231 C1235 1.400 . S
C1232 H1217 0.960 . S
C1232 H1218 0.960 . S
C1232 H1219 0.960 . S
C1232 C1231 1.524 . S
C1233 C1230 1.403 . S
C1233 C1234 1.392 . S
C1233 C1237 1.495 . S
C1234 C1233 1.392 . S
C1234 C1235 1.385 . S
C1234 C1236 1.478 . S
C1235 H1229 0.930 . S
C1235 C1231 1.400 . S
C1235 C1234 1.385 . S
C1236 C1234 1.478 . S
C1236 C1238 1.381 . S
C1236 C1242 1.383 . S
C1237 C1233 1.495 . S
C1237 H1243 0.959 . S
C1237 H1244 0.961 . S
C1237 H1245 0.960 . S
C1238 C1236 1.381 . S
C1238 C1239 1.394 . S
C1238 H1246 0.930 . S
C1239 C1238 1.394 . S
C1239 C1240 1.383 . S
C1239 H1247 0.929 . S
C1240 C1239 1.383 . S
C1240 C1241 1.377 . S
C1241 H1225 0.930 . S
C1241 C1240 1.377 . S
C1241 C1242 1.379 . S
C1242 H1226 0.931 . S
C1242 C1236 1.383 . S
C1242 C1241 1.379 . S
H1243 C1237 0.959 . S
H1244 C1237 0.961 . S
H1245 C1237 0.960 . S
H1246 C1238 0.930 . S
H1247 C1239 0.929 . S
H1248 C1256 0.929 . S
H1249 C1258 0.930 . S
H1250 C1260 0.930 . S
H1251 C1263 0.929 . S
H1252 C1266 0.930 . S
H1253 C1268 0.960 . S
H1254 C1268 0.960 . S
H1255 C1268 0.960 . S
C1256 H1248 0.929 . S
C1256 C1257 1.377 . S
C1256 C1258 1.384 . S
C1257 C1256 1.377 . S
C1257 C1263 1.390 . S
C1258 H1249 0.930 . S
C1258 C1256 1.384 . S
C1258 C1259 1.372 . S
C1259 C1258 1.372 . S
C1259 C1260 1.400 . S
C1259 C1264 1.490 . S
C1260 H1250 0.930 . S
C1260 C1259 1.400 . S
C1260 C1263 1.386 . S
H1261 C1277 0.930 . S
H1262 C1278 0.931 . S
C1263 H1251 0.929 . S
C1263 C1257 1.390 . S
C1263 C1260 1.386 . S
C1264 C1259 1.490 . S
C1264 C1266 1.395 . S
C1264 C1267 1.403 . S
H1265 C1271 0.930 . S
C1266 H1252 0.930 . S
C1266 C1264 1.395 . S
C1266 C1269 1.403 . S
C1267 C1264 1.403 . S
C1267 C1268 1.524 . S
C1267 C1271 1.400 . S
C1268 H1253 0.960 . S
C1268 H1254 0.960 . S
C1268 H1255 0.960 . S
C1268 C1267 1.524 . S
C1269 C1266 1.403 . S
C1269 C1270 1.392 . S
C1269 C1273 1.495 . S
C1270 C1269 1.392 . S
C1270 C1271 1.385 . S
C1270 C1272 1.478 . S
C1271 H1265 0.930 . S
C1271 C1267 1.400 . S
C1271 C1270 1.385 . S
C1272 C1270 1.478 . S
C1272 C1274 1.381 . S
C1272 C1278 1.383 . S
C1273 C1269 1.495 . S
C1273 H1279 0.959 . S
C1273 H1280 0.961 . S
C1273 H1281 0.960 . S
C1274 C1272 1.381 . S
C1274 C1275 1.394 . S
C1274 H1282 0.930 . S
C1275 C1274 1.394 . S
C1275 C1276 1.383 . S
C1275 H1283 0.929 . S
C1276 C1275 1.383 . S
C1276 C1277 1.377 . S
C1277 H1261 0.930 . S
C1277 C1276 1.377 . S
C1277 C1278 1.379 . S
C1278 H1262 0.931 . S
C1278 C1272 1.383 . S
C1278 C1277 1.379 . S
H1279 C1273 0.959 . S
H1280 C1273 0.961 . S
H1281 C1273 0.960 . S
H1282 C1274 0.930 . S
H1283 C1275 0.929 . S
H1284 C1292 0.929 . S
H1285 C1294 0.930 . S
H1286 C1296 0.930 . S
H1287 C1299 0.929 . S
H1288 C1302 0.930 . S
H1289 C1304 0.960 . S
H1290 C1304 0.960 . S
H1291 C1304 0.960 . S
C1292 H1284 0.929 . S
C1292 C1293 1.377 . S
C1292 C1294 1.384 . S
C1293 C1292 1.377 . S
C1293 C1299 1.390 . S
C1294 H1285 0.930 . S
C1294 C1292 1.384 . S
C1294 C1295 1.372 . S
C1295 C1294 1.372 . S
C1295 C1296 1.400 . S
C1295 C1300 1.490 . S
C1296 H1286 0.930 . S
C1296 C1295 1.400 . S
C1296 C1299 1.386 . S
H1297 C1313 0.930 . S
H1298 C1314 0.931 . S
C1299 H1287 0.929 . S
C1299 C1293 1.390 . S
C1299 C1296 1.386 . S
C1300 C1295 1.490 . S
C1300 C1302 1.395 . S
C1300 C1303 1.403 . S
H1301 C1307 0.930 . S
C1302 H1288 0.930 . S
C1302 C1300 1.395 . S
C1302 C1305 1.403 . S
C1303 C1300 1.403 . S
C1303 C1304 1.524 . S
C1303 C1307 1.400 . S
C1304 H1289 0.960 . S
C1304 H1290 0.960 . S
C1304 H1291 0.960 . S
C1304 C1303 1.524 . S
C1305 C1302 1.403 . S
C1305 C1306 1.392 . S
C1305 C1309 1.495 . S
C1306 C1305 1.392 . S
C1306 C1307 1.385 . S
C1306 C1308 1.478 . S
C1307 H1301 0.930 . S
C1307 C1303 1.400 . S
C1307 C1306 1.385 . S
C1308 C1306 1.478 . S
C1308 C1310 1.381 . S
C1308 C1314 1.383 . S
C1309 C1305 1.495 . S
C1309 H1315 0.959 . S
C1309 H1316 0.961 . S
C1309 H1317 0.960 . S
C1310 C1308 1.381 . S
C1310 C1311 1.394 . S
C1310 H1318 0.930 . S
C1311 C1310 1.394 . S
C1311 C1312 1.383 . S
C1311 H1319 0.929 . S
C1312 C1311 1.383 . S
C1312 C1313 1.377 . S
C1313 H1297 0.930 . S
C1313 C1312 1.377 . S
C1313 C1314 1.379 . S
C1314 H1298 0.931 . S
C1314 C1308 1.383 . S
C1314 C1313 1.379 . S
H1315 C1309 0.959 . S
H1316 C1309 0.961 . S
H1317 C1309 0.960 . S
H1318 C1310 0.930 . S
H1319 C1311 0.929 . S
H1320 C1328 0.929 . S
H1321 C1330 0.930 . S
H1322 C1332 0.930 . S
H1323 C1335 0.929 . S
H1324 C1338 0.930 . S
H1325 C1340 0.960 . S
H1326 C1340 0.960 . S
H1327 C1340 0.960 . S
C1328 H1320 0.929 . S
C1328 C1329 1.377 . S
C1328 C1330 1.384 . S
C1329 C1328 1.377 . S
C1329 C1335 1.390 . S
C1330 H1321 0.930 . S
C1330 C1328 1.384 . S
C1330 C1331 1.372 . S
C1331 C1330 1.372 . S
C1331 C1332 1.400 . S
C1331 C1336 1.490 . S
C1332 H1322 0.930 . S
C1332 C1331 1.400 . S
C1332 C1335 1.386 . S
H1333 C1349 0.930 . S
H1334 C1350 0.931 . S
C1335 H1323 0.929 . S
C1335 C1329 1.390 . S
C1335 C1332 1.386 . S
C1336 C1331 1.490 . S
C1336 C1338 1.395 . S
C1336 C1339 1.403 . S
H1337 C1343 0.930 . S
C1338 H1324 0.930 . S
C1338 C1336 1.395 . S
C1338 C1341 1.403 . S
C1339 C1336 1.403 . S
C1339 C1340 1.524 . S
C1339 C1343 1.400 . S
C1340 H1325 0.960 . S
C1340 H1326 0.960 . S
C1340 H1327 0.960 . S
C1340 C1339 1.524 . S
C1341 C1338 1.403 . S
C1341 C1342 1.392 . S
C1341 C1345 1.495 . S
C1342 C1341 1.392 . S
C1342 C1343 1.385 . S
C1342 C1344 1.478 . S
C1343 H1337 0.930 . S
C1343 C1339 1.400 . S
C1343 C1342 1.385 . S
C1344 C1342 1.478 . S
C1344 C1346 1.381 . S
C1344 C1350 1.383 . S
C1345 C1341 1.495 . S
C1345 H1351 0.959 . S
C1345 H1352 0.961 . S
C1345 H1353 0.960 . S
C1346 C1344 1.381 . S
C1346 C1347 1.394 . S
C1346 H1354 0.930 . S
C1347 C1346 1.394 . S
C1347 C1348 1.383 . S
C1347 H1355 0.929 . S
C1348 C1347 1.383 . S
C1348 C1349 1.377 . S
C1349 H1333 0.930 . S
C1349 C1348 1.377 . S
C1349 C1350 1.379 . S
C1350 H1334 0.931 . S
C1350 C1344 1.383 . S
C1350 C1349 1.379 . S
H1351 C1345 0.959 . S
H1352 C1345 0.961 . S
H1353 C1345 0.960 . S
H1354 C1346 0.930 . S
H1355 C1347 0.929 . S
H1356 C1364 0.999 . S
H1357 C1366 0.930 . S
H1358 C1368 0.930 . S
H1359 C1371 0.929 . S
H1360 C1374 0.930 . S
H1361 C1376 0.960 . S
H1362 C1376 0.960 . S
H1363 C1376 0.960 1_455 S
C1364 H1356 0.999 . S
C1364 C1365 1.292 1_556 S
C1364 C1366 1.409 . S
C1365 C1364 1.292 1_554 S
C1365 C1371 1.390 . S
C1366 H1357 0.930 . S
C1366 C1364 1.409 . S
C1366 C1367 1.372 1_556 S
C1367 C1366 1.372 1_554 S
C1367 C1368 1.400 . S
C1367 C1372 1.490 . S
C1368 H1358 0.930 . S
C1368 C1367 1.400 . S
C1368 C1371 1.386 . S
H1369 C1385 0.896 1_554 S
H1370 C1386 0.931 1_455 S
C1371 H1359 0.929 . S
C1371 C1365 1.390 . S
C1371 C1368 1.386 . S
C1372 C1367 1.490 . S
C1372 C1374 1.395 1_554 S
C1372 C1375 1.403 . S
H1373 C1379 0.930 . S
C1374 H1360 0.930 . S
C1374 C1372 1.395 1_556 S
C1374 C1377 1.403 1_545 S
C1375 C1372 1.403 . S
C1375 C1376 1.524 1_455 S
C1375 C1379 1.400 1_445 S
C1376 H1361 0.960 . S
C1376 H1362 0.960 . S
C1376 H1363 0.960 1_655 S
C1376 C1375 1.524 1_655 S
C1377 C1374 1.403 1_565 S
C1377 C1378 1.392 . S
C1377 C1381 1.495 . S
C1378 C1377 1.392 . S
C1378 C1379 1.385 1_456 S
C1378 C1380 1.478 1_455 S
C1379 H1373 0.930 . S
C1379 C1375 1.400 1_665 S
C1379 C1378 1.385 1_654 S
C1380 C1378 1.478 1_655 S
C1380 C1382 1.381 . S
C1380 C1386 1.383 1_556 S
C1381 C1377 1.495 . S
C1381 H1387 0.959 . S
C1381 H1388 0.961 . S
C1381 H1389 0.960 . S
C1382 C1380 1.381 . S
C1382 C1383 1.394 . S
C1382 H1390 0.930 . S
C1383 C1382 1.394 . S
C1383 C1384 1.383 . S
C1383 H1391 0.929 . S
C1384 C1383 1.383 . S
C1384 C1385 1.418 . S
C1385 H1369 0.896 1_556 S
C1385 C1384 1.418 . S
C1385 C1386 1.373 1_556 S
C1386 H1370 0.931 1_655 S
C1386 C1380 1.383 1_554 S
C1386 C1385 1.373 1_554 S
H1387 C1381 0.959 . S
H1388 C1381 0.961 . S
H1389 C1381 0.960 . S
H1390 C1382 0.930 . S
H1391 C1383 0.929 . S
H1392 C1400 0.929 . S
H1393 C1402 0.930 . S
H1394 C1404 0.930 1_545 S
H1395 C1407 0.929 . S
H1396 C1410 0.930 1_565 S
H1397 C1412 0.960 . S
H1398 C1412 0.959 1_565 S
H1399 C1412 0.960 . S
C1400 H1392 0.929 . S
C1400 C1401 1.377 . S
C1400 C1402 1.384 . S
C1401 C1400 1.377 . S
C1401 C1407 1.390 . S
C1402 H1393 0.930 . S
C1402 C1400 1.384 . S
C1402 C1403 1.372 . S
C1403 C1402 1.372 . S
C1403 C1404 1.400 . S
C1403 C1408 1.490 . S
C1404 H1394 0.930 1_565 S
C1404 C1403 1.400 . S
C1404 C1407 1.386 . S
H1405 C1421 0.930 . S
H1406 C1422 0.931 1_455 S
C1407 H1395 0.929 . S
C1407 C1401 1.390 . S
C1407 C1404 1.386 . S
C1408 C1403 1.490 . S
C1408 C1410 1.395 1_565 S
C1408 C1411 1.403 1_565 S
H1409 C1415 0.930 1_655 S
C1410 H1396 0.930 1_545 S
C1410 C1408 1.395 1_545 S
C1410 C1413 1.403 . S
C1411 C1408 1.403 1_545 S
C1411 C1412 1.524 . S
C1411 C1415 1.400 . S
C1412 H1397 0.960 . S
C1412 H1398 0.959 1_545 S
C1412 H1399 0.960 . S
C1412 C1411 1.524 . S
C1413 C1410 1.403 . S
C1413 C1414 1.402 . S
C1413 C1417 1.495 . S
C1414 C1413 1.402 . S
C1414 C1415 1.388 . S
C1414 C1416 1.465 1_455 S
C1415 H1409 0.930 1_455 S
C1415 C1411 1.400 . S
C1415 C1414 1.388 . S
C1416 C1414 1.465 1_655 S
C1416 C1418 1.381 . S
C1416 C1422 1.383 . S
C1417 C1413 1.495 . S
C1417 H1423 0.959 . S
C1417 H1424 0.961 . S
C1417 H1425 0.960 1_455 S
C1418 C1416 1.381 . S
C1418 C1419 1.394 . S
C1418 H1426 0.930 . S
C1419 C1418 1.394 . S
C1419 C1420 1.383 . S
C1419 H1427 0.929 . S
C1420 C1419 1.383 . S
C1420 C1421 1.377 . S
C1421 H1405 0.930 . S
C1421 C1420 1.377 . S
C1421 C1422 1.379 . S
C1422 H1406 0.931 1_655 S
C1422 C1416 1.383 . S
C1422 C1421 1.379 . S
H1423 C1417 0.959 . S
H1424 C1417 0.961 . S
H1425 C1417 0.960 1_655 S
H1426 C1418 0.930 . S
H1427 C1419 0.929 . S
H1428 C1436 0.929 . S
H1429 C1438 0.930 . S
H1430 C1440 0.930 . S
H1431 C1443 0.929 . S
H1432 C1446 0.930 1_565 S
H1433 C1448 0.960 . S
H1434 C1448 0.960 . S
H1435 C1448 0.960 . S
C1436 H1428 0.929 . S
C1436 C1437 1.377 . S
C1436 C1438 1.384 . S
C1437 C1436 1.377 . S
C1437 C1443 1.390 . S
C1438 H1429 0.930 . S
C1438 C1436 1.384 . S
C1438 C1439 1.372 . S
C1439 C1438 1.372 . S
C1439 C1440 1.400 . S
C1439 C1444 1.490 . S
C1440 H1430 0.930 . S
C1440 C1439 1.400 . S
C1440 C1443 1.386 . S
H1441 C1457 0.930 . S
H1442 C1458 0.931 1_545 S
C1443 H1431 0.929 . S
C1443 C1437 1.390 . S
C1443 C1440 1.386 . S
C1444 C1439 1.490 . S
C1444 C1446 1.395 . S
C1444 C1447 1.403 . S
H1445 C1451 0.930 . S
C1446 H1432 0.930 1_545 S
C1446 C1444 1.395 . S
C1446 C1449 1.403 1_445 S
C1447 C1444 1.403 . S
C1447 C1448 1.524 . S
C1447 C1451 1.400 1_455 S
C1448 H1433 0.960 . S
C1448 H1434 0.960 . S
C1448 H1435 0.960 . S
C1448 C1447 1.524 . S
C1449 C1446 1.403 1_665 S
C1449 C1450 1.392 . S
C1449 C1453 1.495 . S
C1450 C1449 1.392 . S
C1450 C1451 1.385 1_565 S
C1450 C1452 1.478 . S
C1451 H1445 0.930 . S
C1451 C1447 1.400 1_655 S
C1451 C1450 1.385 1_545 S
C1452 C1450 1.478 . S
C1452 C1454 1.381 . S
C1452 C1458 1.383 . S
C1453 C1449 1.495 . S
C1453 H1459 0.959 . S
C1453 H1460 0.961 . S
C1453 H1461 0.960 . S
C1454 C1452 1.381 . S
C1454 C1455 1.394 . S
C1454 H1462 0.930 . S
C1455 C1454 1.394 . S
C1455 C1456 1.383 . S
C1455 H1463 0.929 . S
C1456 C1455 1.383 . S
C1456 C1457 1.377 . S
C1457 H1441 0.930 . S
C1457 C1456 1.377 . S
C1457 C1458 1.379 . S
C1458 H1442 0.931 1_565 S
C1458 C1452 1.383 . S
C1458 C1457 1.379 . S
H1459 C1453 0.959 . S
H1460 C1453 0.961 . S
H1461 C1453 0.960 . S
H1462 C1454 0.930 . S
H1463 C1455 0.929 . S
H1464 C1472 0.929 . S
H1465 C1474 0.930 . S
H1466 C1476 0.930 1_655 S
H1467 C1479 0.929 . S
H1468 C1482 0.932 1_455 S
H1469 C1484 0.960 1_665 S
H1470 C1484 0.964 . S
H1471 C1484 0.957 1_655 S
C1472 H1464 0.929 . S
C1472 C1473 1.377 . S
C1472 C1474 1.384 . S
C1473 C1472 1.377 . S
C1473 C1479 1.390 . S
C1474 H1465 0.930 . S
C1474 C1472 1.384 . S
C1474 C1475 1.372 . S
C1475 C1474 1.372 . S
C1475 C1476 1.400 . S
C1475 C1480 1.490 . S
C1476 H1466 0.930 1_455 S
C1476 C1475 1.400 . S
C1476 C1479 1.386 . S
H1477 C1493 0.930 . S
H1478 C1494 0.931 . S
C1479 H1467 0.929 . S
C1479 C1473 1.390 . S
C1479 C1476 1.386 . S
C1480 C1475 1.490 . S
C1480 C1482 1.395 1_455 S
C1480 C1483 1.403 1_455 S
H1481 C1487 0.930 . S
C1482 H1468 0.932 1_655 S
C1482 C1480 1.395 1_655 S
C1482 C1485 1.403 1_545 S
C1483 C1480 1.403 1_655 S
C1483 C1484 1.523 1_655 S
C1483 C1487 1.400 1_545 S
C1484 H1469 0.960 1_445 S
C1484 H1470 0.964 . S
C1484 H1471 0.957 1_455 S
C1484 C1483 1.523 1_455 S
C1485 C1482 1.403 1_565 S
C1485 C1486 1.392 . S
C1485 C1489 1.495 . S
C1486 C1485 1.392 . S
C1486 C1487 1.385 . S
C1486 C1488 1.478 . S
C1487 H1481 0.930 . S
C1487 C1483 1.400 1_565 S
C1487 C1486 1.385 . S
C1488 C1486 1.478 . S
C1488 C1490 1.381 . S
C1488 C1494 1.383 . S
C1489 C1485 1.495 . S
C1489 H1495 0.959 1_565 S
C1489 H1496 0.961 . S
C1489 H1497 0.960 . S
C1490 C1488 1.381 . S
C1490 C1491 1.394 . S
C1490 H1498 0.930 . S
C1491 C1490 1.394 . S
C1491 C1492 1.383 . S
C1491 H1499 0.929 . S
C1492 C1491 1.383 . S
C1492 C1493 1.377 . S
C1493 H1477 0.930 . S
C1493 C1492 1.377 . S
C1493 C1494 1.379 . S
C1494 H1478 0.931 . S
C1494 C1488 1.383 . S
C1494 C1493 1.379 . S
H1495 C1489 0.959 1_545 S
H1496 C1489 0.961 . S
H1497 C1489 0.960 . S
H1498 C1490 0.930 . S
H1499 C1491 0.929 . S
H1500 C1508 0.929 . S
H1501 C1510 0.930 . S
H1502 C1512 0.930 . S
H1503 C1515 0.929 . S
H1504 C1518 0.930 . S
H1505 C1520 0.960 . S
H1506 C1520 0.960 . S
H1507 C1520 0.960 . S
C1508 H1500 0.929 . S
C1508 C1509 1.377 . S
C1508 C1510 1.384 . S
C1509 C1508 1.377 . S
C1509 C1515 1.390 . S
C1510 H1501 0.930 . S
C1510 C1508 1.384 . S
C1510 C1511 1.372 . S
C1511 C1510 1.372 . S
C1511 C1512 1.400 . S
C1511 C1516 1.490 1_455 S
C1512 H1502 0.930 . S
C1512 C1511 1.400 . S
C1512 C1515 1.386 . S
H1513 C1529 0.930 . S
H1514 C1530 0.931 . S
C1515 H1503 0.929 . S
C1515 C1509 1.390 . S
C1515 C1512 1.386 . S
C1516 C1511 1.490 1_655 S
C1516 C1518 1.395 . S
C1516 C1519 1.403 1_655 S
H1517 C1523 0.930 . S
C1518 H1504 0.930 . S
C1518 C1516 1.395 . S
C1518 C1521 1.403 . S
C1519 C1516 1.403 1_455 S
C1519 C1520 1.524 1_565 S
C1519 C1523 1.400 1_465 S
C1520 H1505 0.960 . S
C1520 H1506 0.960 . S
C1520 H1507 0.960 . S
C1520 C1519 1.524 1_545 S
C1521 C1518 1.403 . S
C1521 C1522 1.392 . S
C1521 C1525 1.495 . S
C1522 C1521 1.392 . S
C1522 C1523 1.385 1_565 S
C1522 C1524 1.478 1_565 S
C1523 H1517 0.930 . S
C1523 C1519 1.400 1_645 S
C1523 C1522 1.385 1_545 S
C1524 C1522 1.478 1_545 S
C1524 C1526 1.381 . S
C1524 C1530 1.383 . S
C1525 C1521 1.495 . S
C1525 H1531 0.959 . S
C1525 H1532 0.961 . S
C1525 H1533 0.960 . S
C1526 C1524 1.381 . S
C1526 C1527 1.394 . S
C1526 H1534 0.930 . S
C1527 C1526 1.394 . S
C1527 C1528 1.383 . S
C1527 H1535 0.929 . S
C1528 C1527 1.383 . S
C1528 C1529 1.377 . S
C1529 H1513 0.930 . S
C1529 C1528 1.377 . S
C1529 C1530 1.379 . S
C1530 H1514 0.931 . S
C1530 C1524 1.383 . S
C1530 C1529 1.379 . S
H1531 C1525 0.959 . S
H1532 C1525 0.961 . S
H1533 C1525 0.960 . S
H1534 C1526 0.930 . S
H1535 C1527 0.929 . S
H1536 C1544 0.929 . S
H1537 C1546 0.930 . S
H1538 C1548 0.930 1_565 S
H1539 C1551 0.929 . S
H1540 C1554 0.930 1_545 S
H1541 C1556 0.960 1_655 S
H1542 C1556 0.960 1_545 S
H1543 C1556 0.960 . S
C1544 H1536 0.929 . S
C1544 C1545 1.377 . S
C1544 C1546 1.384 . S
C1545 C1544 1.377 . S
C1545 C1551 1.390 . S
C1546 H1537 0.930 . S
C1546 C1544 1.384 . S
C1546 C1547 1.372 . S
C1547 C1546 1.372 . S
C1547 C1548 1.400 . S
C1547 C1552 1.490 . S
C1548 H1538 0.930 1_545 S
C1548 C1547 1.400 . S
C1548 C1551 1.386 . S
H1549 C1565 0.930 . S
H1550 C1566 0.931 . S
C1551 H1539 0.929 . S
C1551 C1545 1.390 . S
C1551 C1548 1.386 . S
C1552 C1547 1.490 . S
C1552 C1554 1.395 1_545 S
C1552 C1555 1.403 1_545 S
H1553 C1559 0.930 . S
C1554 H1540 0.930 1_565 S
C1554 C1552 1.395 1_565 S
C1554 C1557 1.403 1_455 S
C1555 C1552 1.403 1_565 S
C1555 C1556 1.524 . S
C1555 C1559 1.400 1_455 S
C1556 H1541 0.960 1_455 S
C1556 H1542 0.960 1_565 S
C1556 H1543 0.960 . S
C1556 C1555 1.524 . S
C1557 C1554 1.403 1_655 S
C1557 C1558 1.392 . S
C1557 C1561 1.495 . S
C1558 C1557 1.392 . S
C1558 C1559 1.385 . S
C1558 C1560 1.478 . S
C1559 H1553 0.930 . S
C1559 C1555 1.400 1_655 S
C1559 C1558 1.385 . S
C1560 C1558 1.478 . S
C1560 C1562 1.381 . S
C1560 C1566 1.383 . S
C1561 C1557 1.495 . S
C1561 H1567 0.959 1_655 S
C1561 H1568 0.961 . S
C1561 H1569 0.960 . S
C1562 C1560 1.381 . S
C1562 C1563 1.394 . S
C1562 H1570 0.930 . S
C1563 C1562 1.394 . S
C1563 C1564 1.383 . S
C1563 H1571 0.929 . S
C1564 C1563 1.383 . S
C1564 C1565 1.377 . S
C1565 H1549 0.930 . S
C1565 C1564 1.377 . S
C1565 C1566 1.379 . S
C1566 H1550 0.931 . S
C1566 C1560 1.383 . S
C1566 C1565 1.379 . S
H1567 C1561 0.959 1_455 S
H1568 C1561 0.961 . S
H1569 C1561 0.960 . S
H1570 C1562 0.930 . S
H1571 C1563 0.929 . S
C285 C182 1.822 . S
C304 C20 1.823 . S
C321 C205 1.822 . S
C340 C43 1.825 . S
C357 C228 1.821 . S
C376 C66 1.817 . S
C393 C251 1.822 . S
C412 C89 1.820 . S
C429 C274 1.822 . S
C448 C112 1.829 . S
C465 C159 1.822 . S
C484 C135 1.830 . S
C501 C158 1.827 . S
C520 C136 1.807 . S
C537 C181 1.828 . S
C556 C21 1.825 . S
C573 C204 1.828 . S
C592 C44 1.815 . S
C609 C227 1.828 . S
C628 C67 1.814 . S
C645 C250 1.826 . S
C664 C90 1.823 . S
C681 C273 1.828 . S
C700 C113 1.826 . S
C717 C17 1.242 . S
C736 C131 1.227 . S
C753 C40 1.246 1_455 S
C772 C16 1.228 . S
C789 C39 1.228 . S
C808 C63 1.234 1_545 S
C825 C62 1.233 . S
C844 C86 1.250 . S
C861 C85 1.233 . S
C880 C109 1.223 1_655 S
C897 C132 1.242 1_565 S
C916 C108 1.234 . S
C933 C155 1.246 . S
C952 C177 1.225 . S
C969 C178 1.242 1_455 S
C988 C200 1.221 . S
C1005 C201 1.245 1_545 S
C1024 C223 1.212 . S
C1041 C224 1.242 . S
C1060 C246 1.235 . S
C1077 C247 1.245 1_655 S
C1096 C269 1.242 . S
C1113 C154 1.235 . S
C1132 C270 1.250 . S
C1149 C202 0.765 . S
C1168 C18 0.761 . S
C1185 C41 0.771 . S
C1204 C225 0.761 . S
C1221 C64 0.770 . S
C1240 C248 0.773 . S
C1257 C87 0.770 . S
C1276 C271 0.773 . S
C1293 C110 0.767 . S
C1312 C156 0.754 . S
C1329 C179 0.768 . S
C1348 C133 0.780 . S
C1365 C19 0.518 . S
C1384 C180 0.423 . S
C1401 C203 0.512 . S
C1420 C42 0.438 . S
C1437 C226 0.494 . S
C1456 C65 0.519 . S
C1473 C249 0.512 . S
C1492 C88 0.437 . S
C1509 C111 0.521 . S
C1528 C272 0.434 . S
C1545 C134 0.511 . S
C1564 C157 0.440 . S
