# Generated by pormake.
# Topology uop, (4)-cn, num edge types: 1
# Building blocks:
#     Node 0, Type 0, BuildingBlock: MUDLON_clean_sbu_0, # of connection points: 4
#     Node 1, Type 0, BuildingBlock: MUDLON_clean_sbu_0, # of connection points: 4
#     Node 2, Type 0, BuildingBlock: MUDLON_clean_sbu_0, # of connection points: 4
#     Node 3, Type 0, BuildingBlock: MUDLON_clean_sbu_0, # of connection points: 4
#     Node 4, Type 0, BuildingBlock: MUDLON_clean_sbu_0, # of connection points: 4
#     Node 5, Type 0, BuildingBlock: MUDLON_clean_sbu_0, # of connection points: 4
#     Node 6, Type 0, BuildingBlock: MUDLON_clean_sbu_0, # of connection points: 4
#     Node 7, Type 0, BuildingBlock: MUDLON_clean_sbu_0, # of connection points: 4
#     Node 8, Type 0, BuildingBlock: MUDLON_clean_sbu_0, # of connection points: 4
#     Node 9, Type 0, BuildingBlock: MUDLON_clean_sbu_0, # of connection points: 4
#     Node 10, Type 0, BuildingBlock: MUDLON_clean_sbu_0, # of connection points: 4
#     Node 11, Type 0, BuildingBlock: MUDLON_clean_sbu_0, # of connection points: 4
#     Edge 12, Type (0, 0), BuildingBlock: MIFKUJ_clean_linker_0, # of connection points: 2
#     Edge 13, Type (0, 0), BuildingBlock: MIFKUJ_clean_linker_0, # of connection points: 2
#     Edge 14, Type (0, 0), BuildingBlock: MIFKUJ_clean_linker_0, # of connection points: 2
#     Edge 15, Type (0, 0), BuildingBlock: MIFKUJ_clean_linker_0, # of connection points: 2
#     Edge 16, Type (0, 0), BuildingBlock: MIFKUJ_clean_linker_0, # of connection points: 2
#     Edge 17, Type (0, 0), BuildingBlock: MIFKUJ_clean_linker_0, # of connection points: 2
#     Edge 18, Type (0, 0), BuildingBlock: MIFKUJ_clean_linker_0, # of connection points: 2
#     Edge 19, Type (0, 0), BuildingBlock: MIFKUJ_clean_linker_0, # of connection points: 2
#     Edge 20, Type (0, 0), BuildingBlock: MIFKUJ_clean_linker_0, # of connection points: 2
#     Edge 21, Type (0, 0), BuildingBlock: MIFKUJ_clean_linker_0, # of connection points: 2
#     Edge 22, Type (0, 0), BuildingBlock: MIFKUJ_clean_linker_0, # of connection points: 2
#     Edge 23, Type (0, 0), BuildingBlock: MIFKUJ_clean_linker_0, # of connection points: 2
#     Edge 24, Type (0, 0), BuildingBlock: MIFKUJ_clean_linker_0, # of connection points: 2
#     Edge 25, Type (0, 0), BuildingBlock: MIFKUJ_clean_linker_0, # of connection points: 2
#     Edge 26, Type (0, 0), BuildingBlock: MIFKUJ_clean_linker_0, # of connection points: 2
#     Edge 27, Type (0, 0), BuildingBlock: MIFKUJ_clean_linker_0, # of connection points: 2
#     Edge 28, Type (0, 0), BuildingBlock: MIFKUJ_clean_linker_0, # of connection points: 2
#     Edge 29, Type (0, 0), BuildingBlock: MIFKUJ_clean_linker_0, # of connection points: 2
#     Edge 30, Type (0, 0), BuildingBlock: MIFKUJ_clean_linker_0, # of connection points: 2
#     Edge 31, Type (0, 0), BuildingBlock: MIFKUJ_clean_linker_0, # of connection points: 2
#     Edge 32, Type (0, 0), BuildingBlock: MIFKUJ_clean_linker_0, # of connection points: 2
#     Edge 33, Type (0, 0), BuildingBlock: MIFKUJ_clean_linker_0, # of connection points: 2
#     Edge 34, Type (0, 0), BuildingBlock: MIFKUJ_clean_linker_0, # of connection points: 2
#     Edge 35, Type (0, 0), BuildingBlock: MIFKUJ_clean_linker_0, # of connection points: 2
# Relax obj value: 0.172
# Max RMSD: 0.294
# Mean RMSD: 0.294
data_MOF--net-uop--node1-MUDLON_clean_sbu_0--edge1-MIFKUJ_clean_linker_0
_symmetry_space_group_name_H-M    P1
_symmetry_Int_Tables_number       1
_symmetry_cell_setting            triclinic
loop_
_symmetry_equiv_pos_as_xyz
'x, y, z'
_cell_length_a     44.400853
_cell_length_b     44.448583
_cell_length_c     61.447831
_cell_angle_alpha  90.04456
_cell_angle_beta   89.963942
_cell_angle_gamma 119.80481
loop_
_atom_site_label
_atom_site_type_symbol
_atom_site_fract_x
_atom_site_fract_y
_atom_site_fract_z
_atom_type_partial_charge
Mg0 Mg 0.26811 0.40905 0.19796 0.0
C1 C 0.25428 0.46379 0.18403 0.0
O2 O 0.24653 0.44324 0.16706 0.0
C3 C 0.27475 0.36029 0.22912 0.0
O4 O 0.26489 0.34122 0.21139 0.0
C5 C 0.19463 0.34791 0.19505 0.0
O6 O 0.20108 0.34531 0.2156 0.0
O7 O 0.21852 0.37107 0.18326 0.0
O8 O 0.26408 0.45562 0.20142 0.0
O9 O 0.31509 0.42775 0.17805 0.0
C10 C 0.33567 0.41561 0.17917 0.0
O11 O 0.32658 0.38754 0.19069 0.0
O12 O 0.27718 0.39006 0.22873 0.0
Mg13 Mg 0.85521 0.2606 0.53443 0.0
C14 C 0.88341 0.322 0.50352 0.0
O15 O 0.85021 0.3116 0.50152 0.0
C16 C 0.82275 0.18506 0.53591 0.0
O17 O 0.80778 0.19286 0.55167 0.0
C18 C 0.90116 0.3009 0.57196 0.0
O19 O 0.91096 0.32552 0.55731 0.0
O20 O 0.87637 0.27072 0.56741 0.0
O21 O 0.89255 0.30364 0.51454 0.0
O22 O 0.80513 0.25786 0.53166 0.0
C23 C 0.79676 0.27842 0.54066 0.0
O24 O 0.81899 0.30285 0.55366 0.0
O25 O 0.84621 0.20967 0.52475 0.0
Mg26 Mg 0.60702 0.85496 0.87126 0.0
C27 C 0.55366 0.78818 0.8518 0.0
O28 O 0.57727 0.8009 0.83639 0.0
C29 C 0.64331 0.90652 0.90585 0.0
O30 O 0.66097 0.92201 0.8882 0.0
C31 C 0.66207 0.84497 0.84467 0.0
O32 O 0.65265 0.85621 0.82766 0.0
O33 O 0.64858 0.84389 0.86313 0.0
O34 O 0.55894 0.80538 0.86932 0.0
O35 O 0.60089 0.89361 0.8524 0.0
C36 C 0.57311 0.88471 0.84172 0.0
O37 O 0.55044 0.85161 0.83965 0.0
O38 O 0.61759 0.87594 0.90416 0.0
Mg39 Mg 0.76391 0.60463 0.19728 0.0
C40 C 0.74071 0.52843 0.19279 0.0
O41 O 0.71235 0.52807 0.18632 0.0
C42 C 0.72459 0.6085 0.23636 0.0
O43 O 0.69888 0.58327 0.2256 0.0
C44 C 0.83612 0.66749 0.1963 0.0
O45 O 0.82665 0.6702 0.21613 0.0
O46 O 0.81426 0.64344 0.18401 0.0
O47 O 0.76615 0.55679 0.19951 0.0
O48 O 0.7184 0.59224 0.17739 0.0
C49 C 0.70263 0.60956 0.1773 0.0
O50 O 0.71666 0.63963 0.18733 0.0
O51 O 0.75525 0.62151 0.22883 0.0
Mg52 Mg 0.16501 0.75066 0.53849 0.0
C53 C 0.1271 0.67714 0.52723 0.0
O54 O 0.14919 0.67991 0.54241 0.0
C55 C 0.18611 0.82551 0.53902 0.0
O56 O 0.19141 0.81996 0.55929 0.0
C57 C 0.1121 0.73295 0.57239 0.0
O58 O 0.09525 0.72917 0.55409 0.0
O59 O 0.14441 0.74317 0.57147 0.0
O60 O 0.12712 0.70447 0.52105 0.0
O61 O 0.21459 0.75182 0.53583 0.0
C62 C 0.21978 0.74058 0.51797 0.0
O63 O 0.19558 0.72934 0.50292 0.0
O64 O 0.17332 0.80004 0.52583 0.0
Mg65 Mg 0.41197 0.157 0.86573 0.0
C66 C 0.46454 0.22583 0.85 0.0
O67 O 0.44428 0.2117 0.83305 0.0
C68 C 0.37191 0.10049 0.8976 0.0
O69 O 0.36076 0.08446 0.87887 0.0
C70 C 0.34509 0.15916 0.86016 0.0
O71 O 0.34 0.14566 0.87974 0.0
O72 O 0.3719 0.16422 0.84956 0.0
O73 O 0.45701 0.20872 0.8677 0.0
O74 O 0.43257 0.12696 0.84985 0.0
C75 C 0.41744 0.0992 0.83871 0.0
O76 O 0.38446 0.08592 0.83379 0.0
O77 O 0.39393 0.13278 0.89753 0.0
Mg78 Mg 0.60973 0.76263 0.45725 0.0
C79 C 0.58868 0.68836 0.45902 0.0
O80 O 0.5875 0.69427 0.4382 0.0
C81 C 0.64579 0.82378 0.48742 0.0
O82 O 0.61456 0.80829 0.49601 0.0
C83 C 0.65315 0.76509 0.4195 0.0
O84 O 0.67592 0.77577 0.43541 0.0
O85 O 0.62275 0.75973 0.42345 0.0
O86 O 0.5986 0.71356 0.47229 0.0
O87 O 0.56313 0.76664 0.46075 0.0
C88 C 0.53309 0.74154 0.45641 0.0
O89 O 0.53009 0.71291 0.44815 0.0
O90 O 0.65208 0.80927 0.4716 0.0
Mg91 Mg 0.85542 0.59815 0.80291 0.0
C92 C 0.79276 0.5383 0.8201 0.0
O93 O 0.8133 0.55106 0.83707 0.0
C94 C 0.91285 0.63301 0.77094 0.0
O95 O 0.92892 0.64355 0.78968 0.0
C96 C 0.84423 0.6589 0.80365 0.0
O97 O 0.84672 0.65421 0.78276 0.0
O98 O 0.84901 0.6399 0.81714 0.0
O99 O 0.80343 0.55331 0.8018 0.0
O100 O 0.88523 0.57842 0.82003 0.0
C101 C 0.91349 0.59383 0.83068 0.0
O102 O 0.92787 0.62726 0.83445 0.0
O103 O 0.88001 0.61346 0.77093 0.0
Mg104 Mg 0.2693 0.85203 0.13076 0.0
C105 C 0.27439 0.79364 0.14931 0.0
O106 O 0.2793 0.8138 0.16615 0.0
C107 C 0.26996 0.89807 0.09487 0.0
O108 O 0.25144 0.90284 0.10972 0.0
C109 C 0.20464 0.84544 0.15653 0.0
O110 O 0.22648 0.86576 0.17145 0.0
O111 O 0.21619 0.83787 0.13968 0.0
O112 O 0.26933 0.80303 0.13073 0.0
O113 O 0.31259 0.88467 0.15224 0.0
C114 C 0.32757 0.91744 0.15436 0.0
O115 O 0.31409 0.93461 0.14502 0.0
O116 O 0.28089 0.87706 0.0989 0.0
Mg117 Mg 0.41097 0.25388 0.46395 0.0
C118 C 0.43796 0.32721 0.46681 0.0
O119 O 0.44779 0.32088 0.44799 0.0
C120 C 0.35756 0.17934 0.46608 0.0
O121 O 0.36425 0.18448 0.44516 0.0
C122 C 0.39842 0.25187 0.41318 0.0
O123 O 0.41821 0.23786 0.41077 0.0
O124 O 0.39214 0.2588 0.43214 0.0
O125 O 0.42011 0.30184 0.4795 0.0
O126 O 0.46106 0.25586 0.46457 0.0
C127 C 0.4786 0.26951 0.48177 0.0
O128 O 0.46549 0.28092 0.49666 0.0
O129 O 0.37291 0.20505 0.47896 0.0
Mg130 Mg 0.16867 0.41519 0.79438 0.0
C131 C 0.22924 0.47501 0.81375 0.0
O132 O 0.21156 0.45651 0.83063 0.0
C133 C 0.12271 0.37108 0.75811 0.0
O134 O 0.11559 0.3475 0.77318 0.0
C135 C 0.16789 0.35021 0.81628 0.0
O136 O 0.13802 0.34257 0.8252 0.0
O137 O 0.18336 0.37687 0.8042 0.0
O138 O 0.2173 0.46406 0.79479 0.0
O139 O 0.13416 0.42528 0.81484 0.0
C140 C 0.10222 0.41311 0.81021 0.0
O141 O 0.08825 0.38954 0.79487 0.0
O142 O 0.14559 0.40235 0.76206 0.0
Mg143 Mg 0.75712 0.15755 0.13821 0.0
C144 C 0.7807 0.23247 0.14731 0.0
O145 O 0.80267 0.22814 0.15937 0.0
C146 C 0.75123 0.10523 0.10441 0.0
O147 O 0.76429 0.09619 0.12065 0.0
C148 C 0.83148 0.17211 0.13805 0.0
O149 O 0.82456 0.16698 0.11716 0.0
O150 O 0.80758 0.16832 0.15114 0.0
O151 O 0.75911 0.20741 0.13555 0.0
O152 O 0.71165 0.12749 0.15892 0.0
C153 C 0.69234 0.09475 0.1574 0.0
O154 O 0.70225 0.07728 0.14492 0.0
O155 O 0.74636 0.13094 0.10684 0.0
H156 H 0.25392 0.73984 0.1203 0.0
H157 H 0.25049 0.68376 0.12674 0.0
H158 H 0.29002 0.71611 0.19176 0.0
H159 H 0.29356 0.77199 0.18549 0.0
H160 H 0.32039 0.68293 0.17139 0.0
H161 H 0.20569 0.66411 0.18454 0.0
H162 H 0.15236 0.66553 0.1755 0.0
H163 H 0.13458 0.59829 0.12093 0.0
H164 H 0.18821 0.59695 0.12945 0.0
H165 H 0.27629 0.51694 0.21375 0.0
H166 H 0.27906 0.57299 0.20869 0.0
H167 H 0.23482 0.54144 0.14458 0.0
H168 H 0.23151 0.4855 0.14958 0.0
H169 H 0.20682 0.57457 0.16522 0.0
H170 H 0.32185 0.59404 0.15154 0.0
H171 H 0.37541 0.59279 0.16032 0.0
H172 H 0.39272 0.65877 0.2155 0.0
H173 H 0.33896 0.66 0.20723 0.0
C174 C 0.26208 0.73507 0.13591 0.0
C175 C 0.27382 0.7603 0.15242 0.0
C176 C 0.26 0.70299 0.1396 0.0
C177 C 0.26972 0.69567 0.15981 0.0
C178 C 0.28236 0.72119 0.17606 0.0
C179 C 0.28422 0.75308 0.17246 0.0
C180 C 0.26598 0.66116 0.16431 0.0
C181 C 0.2955 0.65925 0.17028 0.0
C182 C 0.23359 0.63025 0.16255 0.0
C183 C 0.20116 0.63073 0.1575 0.0
C184 C 0.19056 0.64985 0.17051 0.0
C185 C 0.16024 0.6506 0.16549 0.0
C186 C 0.14011 0.63208 0.14761 0.0
C187 C 0.15022 0.61267 0.13475 0.0
C188 C 0.18057 0.61189 0.13968 0.0
C189 C 0.26687 0.52185 0.19866 0.0
C190 C 0.25389 0.49682 0.18202 0.0
C191 C 0.26863 0.55395 0.19575 0.0
C192 C 0.25757 0.56159 0.17612 0.0
C193 C 0.24357 0.53619 0.15983 0.0
C194 C 0.24182 0.50422 0.16271 0.0
C195 C 0.26127 0.59626 0.1722 0.0
C196 C 0.23172 0.59822 0.16635 0.0
C197 C 0.29366 0.62721 0.17402 0.0
C198 C 0.32618 0.6268 0.1789 0.0
C199 C 0.33694 0.60807 0.16564 0.0
C200 C 0.36735 0.6074 0.17051 0.0
C201 C 0.3874 0.6256 0.1885 0.0
C202 C 0.37714 0.64463 0.2016 0.0
C203 C 0.34671 0.64534 0.19682 0.0
H204 H 0.41093 0.62502 0.19225 0.0
H205 H 0.11665 0.63269 0.14373 0.0
H206 H 0.74978 0.23708 0.51 0.0
H207 H 0.69602 0.23542 0.49934 0.0
H208 H 0.71396 0.31315 0.54754 0.0
H209 H 0.76805 0.3151 0.55834 0.0
H210 H 0.6456 0.25798 0.54706 0.0
H211 H 0.73058 0.33658 0.49614 0.0
H212 H 0.77697 0.35434 0.46876 0.0
H213 H 0.70748 0.27143 0.4268 0.0
H214 H 0.6608 0.25283 0.4541 0.0
H215 H 0.52554 0.30677 0.51318 0.0
H216 H 0.57936 0.30754 0.52198 0.0
H217 H 0.56224 0.23718 0.46893 0.0
H218 H 0.50827 0.23686 0.45965 0.0
H219 H 0.62955 0.28643 0.47137 0.0
H220 H 0.54446 0.20773 0.52136 0.0
H221 H 0.49778 0.18824 0.54869 0.0
H222 H 0.56664 0.26876 0.59225 0.0
H223 H 0.61363 0.28905 0.56505 0.0
C224 C 0.7423 0.25375 0.51844 0.0
C225 C 0.76331 0.27632 0.53501 0.0
C226 C 0.7116 0.25286 0.51224 0.0
C227 C 0.7012 0.27442 0.52249 0.0
C228 C 0.72161 0.29637 0.53939 0.0
C229 C 0.75252 0.29749 0.54551 0.0
C230 C 0.66909 0.27413 0.51546 0.0
C231 C 0.64223 0.26464 0.5306 0.0
C232 C 0.66435 0.28177 0.49379 0.0
C233 C 0.69229 0.2931 0.47726 0.0
C234 C 0.72527 0.32196 0.48115 0.0
C235 C 0.7516 0.33221 0.46563 0.0
C236 C 0.7452 0.31397 0.44607 0.0
C237 C 0.71242 0.28551 0.44197 0.0
C238 C 0.686 0.27511 0.45745 0.0
C239 C 0.53319 0.29151 0.50328 0.0
C240 C 0.51241 0.27145 0.48583 0.0
C241 C 0.56397 0.29189 0.50841 0.0
C242 C 0.57449 0.27182 0.49644 0.0
C243 C 0.5545 0.25269 0.47849 0.0
C244 C 0.52368 0.25251 0.47321 0.0
C245 C 0.60606 0.27056 0.50304 0.0
C246 C 0.63282 0.27968 0.48783 0.0
C247 C 0.61064 0.26232 0.52463 0.0
C248 C 0.58248 0.2501 0.54108 0.0
C249 C 0.54958 0.22145 0.53671 0.0
C250 C 0.52307 0.21023 0.55218 0.0
C251 C 0.52922 0.2273 0.57217 0.0
C252 C 0.56191 0.25558 0.57674 0.0
C253 C 0.58851 0.26693 0.56131 0.0
H254 H 0.50866 0.21858 0.58413 0.0
H255 H 0.76563 0.32195 0.43408 0.0
H256 H 0.50366 0.74814 0.88162 0.0
H257 H 0.44873 0.69463 0.87467 0.0
H258 H 0.47371 0.70186 0.80636 0.0
H259 H 0.52867 0.75493 0.81315 0.0
H260 H 0.4053 0.68794 0.81497 0.0
H261 H 0.4825 0.64584 0.83436 0.0
H262 H 0.52518 0.64089 0.85749 0.0
H263 H 0.45126 0.6009 0.90974 0.0
H264 H 0.40828 0.60613 0.88701 0.0
H265 H 0.27476 0.51841 0.78278 0.0
H266 H 0.33009 0.57171 0.78887 0.0
H267 H 0.31395 0.55875 0.85825 0.0
H268 H 0.25916 0.50536 0.85235 0.0
H269 H 0.37863 0.57595 0.84865 0.0
H270 H 0.30157 0.61841 0.82996 0.0
H271 H 0.25884 0.62436 0.80748 0.0
H272 H 0.33188 0.66448 0.75475 0.0
H273 H 0.3749 0.65832 0.77684 0.0
C274 C 0.49746 0.73828 0.86514 0.0
C275 C 0.52055 0.75569 0.84795 0.0
C276 C 0.46614 0.70772 0.8612 0.0
C277 C 0.45727 0.69431 0.84001 0.0
C278 C 0.48008 0.71183 0.82282 0.0
C279 C 0.51155 0.74206 0.82677 0.0
C280 C 0.4242 0.66192 0.83571 0.0
C281 C 0.39957 0.66333 0.8221 0.0
C282 C 0.41658 0.63007 0.84539 0.0
C283 C 0.4423 0.62673 0.85906 0.0
C284 C 0.47545 0.63629 0.85085 0.0
C285 C 0.49968 0.63338 0.86387 0.0
C286 C 0.49097 0.62068 0.8851 0.0
C287 C 0.45798 0.61079 0.89331 0.0
C288 C 0.43367 0.6137 0.88036 0.0
C289 C 0.28298 0.52696 0.79932 0.0
C290 C 0.26251 0.50764 0.81707 0.0
C291 C 0.31456 0.5575 0.80278 0.0
C292 C 0.32606 0.56942 0.82403 0.0
C293 C 0.30568 0.55007 0.84173 0.0
C294 C 0.27425 0.51957 0.8383 0.0
C295 C 0.35945 0.60186 0.82795 0.0
C296 C 0.38424 0.6005 0.84149 0.0
C297 C 0.36713 0.63381 0.81829 0.0
C298 C 0.34131 0.63754 0.80497 0.0
C299 C 0.30841 0.62822 0.81351 0.0
C300 C 0.28416 0.63169 0.80085 0.0
C301 C 0.2926 0.64469 0.77968 0.0
C302 C 0.32535 0.65435 0.77114 0.0
C303 C 0.34969 0.6509 0.78373 0.0
H304 H 0.2738 0.64737 0.7699 0.0
H305 H 0.50976 0.61844 0.89515 0.0
H306 H 0.79515 0.51919 0.20472 0.0
H307 H 0.80235 0.46909 0.19705 0.0
H308 H 0.70203 0.41752 0.16588 0.0
H309 H 0.69424 0.46694 0.174 0.0
H310 H 0.70997 0.37267 0.18914 0.0
H311 H 0.77906 0.45939 0.13636 0.0
H312 H 0.8239 0.51718 0.12372 0.0
H313 H 0.90194 0.50622 0.15826 0.0
H314 H 0.85746 0.44853 0.17135 0.0
H315 H 0.73047 0.2455 0.13161 0.0
H316 H 0.72443 0.29645 0.1388 0.0
H317 H 0.81989 0.34279 0.17543 0.0
H318 H 0.82622 0.29214 0.16827 0.0
H319 H 0.81465 0.39015 0.14921 0.0
H320 H 0.7443 0.30268 0.20173 0.0
H321 H 0.6989 0.24453 0.21341 0.0
H322 H 0.62238 0.25677 0.17795 0.0
H323 H 0.66745 0.31484 0.16579 0.0
C324 C 0.77449 0.49705 0.19641 0.0
C325 C 0.74421 0.49719 0.18987 0.0
C326 C 0.77873 0.46851 0.1919 0.0
C327 C 0.75301 0.43976 0.1805 0.0
C328 C 0.7223 0.43941 0.17462 0.0
C329 C 0.71792 0.46777 0.17926 0.0
C330 C 0.75818 0.41026 0.17435 0.0
C331 C 0.73267 0.37651 0.18017 0.0
C332 C 0.78805 0.41519 0.16294 0.0
C333 C 0.81487 0.4498 0.15501 0.0
C334 C 0.80574 0.46942 0.14139 0.0
C335 C 0.8311 0.50213 0.13412 0.0
C336 C 0.86573 0.5154 0.14023 0.0
C337 C 0.8751 0.49593 0.15357 0.0
C338 C 0.84983 0.46321 0.1609 0.0
C339 C 0.75041 0.26671 0.14096 0.0
C340 C 0.7787 0.26464 0.14949 0.0
C341 C 0.74682 0.29573 0.14515 0.0
C342 C 0.77147 0.32319 0.15791 0.0
C343 C 0.80051 0.32185 0.16561 0.0
C344 C 0.80402 0.29281 0.16154 0.0
C345 C 0.76642 0.35272 0.16395 0.0
C346 C 0.79196 0.38641 0.15814 0.0
C347 C 0.73648 0.34773 0.17524 0.0
C348 C 0.7093 0.31295 0.18268 0.0
C349 C 0.71784 0.29286 0.19629 0.0
C350 C 0.69216 0.25994 0.20302 0.0
C351 C 0.65779 0.24692 0.19638 0.0
C352 C 0.64902 0.26686 0.18305 0.0
C353 C 0.67461 0.29979 0.17625 0.0
H354 H 0.63795 0.22142 0.2016 0.0
H355 H 0.88533 0.54074 0.13459 0.0
H356 H 0.46559 0.69597 0.44569 0.0
H357 H 0.41371 0.69804 0.4568 0.0
H358 H 0.47753 0.79313 0.49175 0.0
H359 H 0.52961 0.79144 0.48062 0.0
H360 H 0.42029 0.74351 0.51592 0.0
H361 H 0.44397 0.79792 0.4455 0.0
H362 H 0.45583 0.80211 0.40608 0.0
H363 H 0.35815 0.70962 0.39513 0.0
H364 H 0.34593 0.70459 0.43454 0.0
H365 H 0.28364 0.7809 0.53676 0.0
H366 H 0.33824 0.78306 0.52705 0.0
H367 H 0.28367 0.70107 0.48023 0.0
H368 H 0.22967 0.70002 0.48915 0.0
H369 H 0.3388 0.74738 0.46234 0.0
H370 H 0.31501 0.68992 0.53163 0.0
H371 H 0.30232 0.68251 0.57097 0.0
H372 H 0.39812 0.77595 0.58417 0.0
H373 H 0.41118 0.78414 0.54488 0.0
C374 C 0.46864 0.71746 0.45562 0.0
C375 C 0.50176 0.7436 0.4622 0.0
C376 C 0.43897 0.71861 0.46194 0.0
C377 C 0.44182 0.74581 0.47503 0.0
C378 C 0.4748 0.77192 0.48165 0.0
C379 C 0.50452 0.77099 0.47517 0.0
C380 C 0.4103 0.74675 0.48198 0.0
C381 C 0.40264 0.74484 0.50427 0.0
C382 C 0.38696 0.74763 0.46671 0.0
C383 C 0.39418 0.75072 0.443 0.0
C384 C 0.42514 0.77832 0.43471 0.0
C385 C 0.43191 0.78088 0.41236 0.0
C386 C 0.4078 0.7561 0.39812 0.0
C387 C 0.37682 0.72877 0.40619 0.0
C388 C 0.36995 0.72607 0.42853 0.0
C389 C 0.28335 0.76319 0.52453 0.0
C390 C 0.25245 0.74037 0.51367 0.0
C391 C 0.31454 0.76433 0.51904 0.0
C392 C 0.31517 0.74201 0.50299 0.0
C393 C 0.28404 0.71871 0.49254 0.0
C394 C 0.25312 0.71806 0.49771 0.0
C395 C 0.3482 0.74354 0.49639 0.0
C396 C 0.35631 0.74606 0.47411 0.0
C397 C 0.37168 0.74271 0.51168 0.0
C398 C 0.36388 0.73783 0.5353 0.0
C399 C 0.33324 0.70902 0.54291 0.0
C400 C 0.326 0.70466 0.5652 0.0
C401 C 0.34935 0.7288 0.58005 0.0
C402 C 0.38004 0.7573 0.57265 0.0
C403 C 0.38738 0.7618 0.55037 0.0
H404 H 0.3437 0.72537 0.5973 0.0
H405 H 0.41308 0.75813 0.38082 0.0
H406 H 0.51685 0.25975 0.87986 0.0
H407 H 0.57133 0.3143 0.87472 0.0
H408 H 0.53902 0.32354 0.81005 0.0
H409 H 0.48495 0.26898 0.81491 0.0
H410 H 0.6038 0.33534 0.80954 0.0
H411 H 0.53943 0.37471 0.85227 0.0
H412 H 0.50494 0.37491 0.88369 0.0
H413 H 0.58936 0.39575 0.92666 0.0
H414 H 0.6242 0.39522 0.89553 0.0
H415 H 0.74013 0.50822 0.79 0.0
H416 H 0.68299 0.45656 0.7949 0.0
H417 H 0.71053 0.44567 0.86058 0.0
H418 H 0.76704 0.49747 0.85601 0.0
H419 H 0.64711 0.43545 0.86001 0.0
H420 H 0.71067 0.39405 0.81794 0.0
H421 H 0.7454 0.39318 0.78686 0.0
H422 H 0.66286 0.37542 0.74305 0.0
H423 H 0.62779 0.37663 0.77386 0.0
C424 C 0.52123 0.27356 0.86462 0.0
C425 C 0.49656 0.25996 0.84779 0.0
C426 C 0.55235 0.3048 0.86172 0.0
C427 C 0.55921 0.32315 0.84202 0.0
C428 C 0.53437 0.30982 0.82536 0.0
C429 C 0.50339 0.27863 0.82821 0.0
C430 C 0.5927 0.35562 0.83842 0.0
C431 C 0.61303 0.35743 0.82041 0.0
C432 C 0.60516 0.38416 0.85285 0.0
C433 C 0.58429 0.3846 0.87158 0.0
C434 C 0.55054 0.37907 0.86844 0.0
C435 C 0.53094 0.37929 0.88619 0.0
C436 C 0.54491 0.38525 0.90716 0.0
C437 C 0.57855 0.3911 0.91042 0.0
C438 C 0.59824 0.39087 0.89272 0.0
C439 C 0.73398 0.49478 0.80547 0.0
C440 C 0.75817 0.50694 0.82259 0.0
C441 C 0.70136 0.46518 0.80823 0.0
C442 C 0.69254 0.44697 0.82806 0.0
C443 C 0.71664 0.45926 0.84516 0.0
C444 C 0.74905 0.48889 0.84248 0.0
C445 C 0.65829 0.41512 0.83117 0.0
C446 C 0.63782 0.41341 0.84909 0.0
C447 C 0.64575 0.3866 0.8167 0.0
C448 C 0.66677 0.3858 0.79817 0.0
C449 C 0.70004 0.39023 0.80166 0.0
C450 C 0.71976 0.38962 0.7841 0.0
C451 C 0.70639 0.38435 0.76299 0.0
C452 C 0.67321 0.37956 0.7594 0.0
C453 C 0.65339 0.38018 0.77691 0.0
H454 H 0.72169 0.38388 0.74941 0.0
H455 H 0.5297 0.38542 0.92089 0.0
H456 H 0.65907 0.54095 0.16869 0.0
H457 H 0.59693 0.51197 0.16209 0.0
H458 H 0.60051 0.61082 0.1621 0.0
H459 H 0.66281 0.63993 0.16991 0.0
H460 H 0.5498 0.57007 0.18538 0.0
H461 H 0.58352 0.55732 0.11426 0.0
H462 H 0.61398 0.54322 0.08598 0.0
H463 H 0.56122 0.4368 0.10645 0.0
H464 H 0.53077 0.45032 0.13506 0.0
H465 H 0.36876 0.48213 0.16323 0.0
H466 H 0.43077 0.51846 0.15543 0.0
H467 H 0.44658 0.4322 0.1692 0.0
H468 H 0.38474 0.39571 0.17695 0.0
H469 H 0.48645 0.47212 0.13411 0.0
H470 H 0.45989 0.48995 0.20856 0.0
H471 H 0.42868 0.50532 0.23562 0.0
H472 H 0.46794 0.60533 0.20589 0.0
H473 H 0.49913 0.59039 0.17853 0.0
C474 C 0.64685 0.55668 0.1669 0.0
C475 C 0.66601 0.59283 0.16982 0.0
C476 C 0.61115 0.54001 0.16297 0.0
C477 C 0.59377 0.55909 0.16123 0.0
C478 C 0.61315 0.59539 0.16335 0.0
C479 C 0.64884 0.61207 0.16771 0.0
C480 C 0.55514 0.54084 0.15909 0.0
C481 C 0.53613 0.54924 0.17376 0.0
C482 C 0.53686 0.51325 0.14416 0.0
C483 C 0.55501 0.50491 0.12691 0.0
C484 C 0.57856 0.53095 0.11283 0.0
C485 C 0.59581 0.52305 0.09672 0.0
C486 C 0.58958 0.48915 0.09444 0.0
C487 C 0.56602 0.46305 0.10824 0.0
C488 C 0.54872 0.47081 0.12438 0.0
C489 C 0.38528 0.47067 0.16418 0.0
C490 C 0.3718 0.43605 0.17092 0.0
C491 C 0.42077 0.49154 0.1598 0.0
C492 C 0.44339 0.47818 0.16203 0.0
C493 C 0.42963 0.44309 0.16742 0.0
C494 C 0.39425 0.42227 0.17191 0.0
C495 C 0.48165 0.50116 0.16056 0.0
C496 C 0.50043 0.4935 0.14533 0.0
C497 C 0.49975 0.52976 0.17472 0.0
C498 C 0.48154 0.53894 0.1914 0.0
C499 C 0.46172 0.51515 0.20774 0.0
C500 C 0.44407 0.52379 0.22314 0.0
C501 C 0.44626 0.55625 0.22244 0.0
C502 C 0.46624 0.58019 0.2064 0.0
C503 C 0.48394 0.57167 0.19096 0.0
H504 H 0.43254 0.56288 0.23436 0.0
H505 H 0.60296 0.48309 0.08197 0.0
H506 H 0.13068 0.61816 0.53118 0.0
H507 H 0.08894 0.56007 0.51877 0.0
H508 H 0.02607 0.59897 0.49054 0.0
H509 H 0.0681 0.65774 0.50303 0.0
H510 H 0.98838 0.54121 0.51628 0.0
H511 H 0.06799 0.57266 0.45742 0.0
H512 H 0.12527 0.59634 0.43986 0.0
H513 H 0.14039 0.51807 0.47052 0.0
H514 H 0.08341 0.49421 0.48854 0.0
H515 H 0.8725 0.36996 0.4824 0.0
H516 H 0.91372 0.43181 0.4781 0.0
H517 H 0.99441 0.41738 0.50657 0.0
H518 H 0.95357 0.35549 0.51066 0.0
H519 H 0.02004 0.46548 0.47434 0.0
H520 H 0.94693 0.44127 0.53774 0.0
H521 H 0.89088 0.41763 0.5569 0.0
H522 H 0.86505 0.48281 0.51903 0.0
H523 H 0.92079 0.50647 0.4994 0.0
C524 C 0.10816 0.61454 0.52217 0.0
C525 C 0.10265 0.64257 0.51814 0.0
C526 C 0.08441 0.58128 0.51495 0.0
C527 C 0.05456 0.57521 0.50353 0.0
C528 C 0.04906 0.60316 0.49922 0.0
C529 C 0.0731 0.63668 0.50631 0.0
C530 C 0.02829 0.53916 0.49752 0.0
C531 C 0.995 0.52488 0.50662 0.0
C532 C 0.03722 0.51765 0.48535 0.0
C533 C 0.07146 0.53176 0.47443 0.0
C534 C 0.08362 0.56063 0.46054 0.0
C535 C 0.11603 0.57407 0.45049 0.0
C536 C 0.13647 0.55875 0.4541 0.0
C537 C 0.12452 0.52991 0.46774 0.0
C538 C 0.09213 0.51638 0.47785 0.0
C539 C 0.8992 0.37977 0.48733 0.0
C540 C 0.90961 0.3578 0.49713 0.0
C541 C 0.9227 0.41519 0.48492 0.0
C542 C 0.95697 0.42934 0.4924 0.0
C543 C 0.96806 0.40707 0.50075 0.0
C544 C 0.94462 0.37164 0.50311 0.0
C545 C 0.98042 0.46749 0.49343 0.0
C546 C 0.01318 0.48206 0.48353 0.0
C547 C 0.97115 0.48927 0.50502 0.0
C548 C 0.9378 0.47531 0.51692 0.0
C549 C 0.92917 0.45036 0.53339 0.0
C550 C 0.89749 0.43699 0.54434 0.0
C551 C 0.87437 0.44863 0.53914 0.0
C552 C 0.88295 0.47376 0.52301 0.0
C553 C 0.91458 0.48716 0.51196 0.0
H554 H 0.84984 0.43824 0.54764 0.0
H555 H 0.16156 0.5692 0.4463 0.0
H556 H 0.48368 0.11678 0.85028 0.0
H557 H 0.51251 0.08276 0.84571 0.0
H558 H 0.42319 1.00425 0.81134 0.0
H559 H 0.39364 0.03788 0.81638 0.0
H560 H 0.44269 0.97523 0.84095 0.0
H561 H 0.50268 0.05942 0.78533 0.0
H562 H 0.53633 0.11805 0.76968 0.0
H563 H 0.61938 0.14195 0.81453 0.0
H564 H 0.58603 0.08361 0.83066 0.0
H565 H 0.51937 0.87467 0.81548 0.0
H566 H 0.49631 0.91376 0.80988 0.0
H567 H 0.57978 0.99224 0.84821 0.0
H568 H 0.60344 0.95334 0.85361 0.0
H569 H 0.56315 0.02096 0.81424 0.0
H570 H 0.5017 0.93901 0.87138 0.0
H571 H 0.46828 0.88071 0.88753 0.0
H572 H 0.38793 0.85327 0.83997 0.0
H573 H 0.42112 0.91129 0.82334 0.0
C574 C 0.47022 0.09249 0.84149 0.0
C575 C 0.43622 0.08008 0.83372 0.0
C576 C 0.48692 0.07309 0.83877 0.0
C577 C 0.47028 0.04101 0.82796 0.0
C578 C 0.43664 0.02893 0.81972 0.0
C579 C 0.4198 0.04826 0.82255 0.0
C580 C 0.48704 0.01911 0.82662 0.0
C581 C 0.46877 0.98509 0.83467 0.0
C582 C 0.52151 0.03215 0.81905 0.0
C583 C 0.54171 0.06721 0.80932 0.0
C584 C 0.52801 0.07726 0.79196 0.0
C585 C 0.54705 0.11043 0.78298 0.0
C586 C 0.57994 0.13374 0.79113 0.0
C587 C 0.59389 0.12388 0.80824 0.0
C588 C 0.57495 0.09075 0.81729 0.0
C589 C 0.53323 0.90046 0.82242 0.0
C590 C 0.56306 0.91071 0.8352 0.0
C591 C 0.51991 0.92276 0.81926 0.0
C592 C 0.53583 0.95568 0.82903 0.0
C593 C 0.56691 0.96689 0.84061 0.0
C594 C 0.58043 0.94462 0.84367 0.0
C595 C 0.51868 0.97721 0.82848 0.0
C596 C 0.53692 0.01111 0.82024 0.0
C597 C 0.48417 0.96416 0.83591 0.0
C598 C 0.46406 0.92936 0.84598 0.0
C599 C 0.47702 0.92046 0.86427 0.0
C600 C 0.4581 0.88748 0.87352 0.0
C601 C 0.42604 0.86327 0.86475 0.0
C602 C 0.41279 0.87203 0.84673 0.0
C603 C 0.43163 0.90496 0.83739 0.0
H604 H 0.41144 0.83775 0.87193 0.0
H605 H 0.59464 0.15941 0.78417 0.0
H606 H 0.57163 0.63218 0.43374 0.0
H607 H 0.54278 0.57161 0.44457 0.0
H608 H 0.54597 0.60106 0.51175 0.0
H609 H 0.57507 0.66258 0.50097 0.0
H610 H 0.56209 0.54347 0.50175 0.0
H611 H 0.47409 0.57426 0.49216 0.0
H612 H 0.44564 0.60273 0.47368 0.0
H613 H 0.43009 0.5406 0.41675 0.0
H614 H 0.459 0.51217 0.43474 0.0
H615 H 0.44449 0.35666 0.50735 0.0
H616 H 0.46597 0.41846 0.51528 0.0
H617 H 0.47493 0.44021 0.44644 0.0
H618 H 0.45402 0.37942 0.43851 0.0
H619 H 0.44539 0.47298 0.46874 0.0
H620 H 0.54424 0.45347 0.4748 0.0
H621 H 0.57561 0.42633 0.49121 0.0
H622 H 0.57158 0.46746 0.55372 0.0
H623 H 0.53974 0.49446 0.53769 0.0
C624 C 0.56661 0.62602 0.45088 0.0
C625 C 0.57529 0.65223 0.46647 0.0
C626 C 0.55011 0.59131 0.45703 0.0
C627 C 0.54185 0.58191 0.4789 0.0
C628 C 0.55207 0.60791 0.49477 0.0
C629 C 0.56864 0.64295 0.48859 0.0
C630 C 0.52059 0.54465 0.48438 0.0
C631 C 0.53613 0.52805 0.49516 0.0
C632 C 0.48687 0.52463 0.47559 0.0
C633 C 0.46882 0.54115 0.4648 0.0
C634 C 0.46477 0.56679 0.47566 0.0
C635 C 0.44855 0.58292 0.46527 0.0
C636 C 0.43608 0.57349 0.44405 0.0
C637 C 0.43974 0.54785 0.43319 0.0
C638 C 0.45599 0.53168 0.44349 0.0
C639 C 0.4507 0.37469 0.49399 0.0
C640 C 0.44779 0.36331 0.47232 0.0
C641 C 0.46305 0.40989 0.49852 0.0
C642 C 0.47212 0.43389 0.48143 0.0
C643 C 0.46801 0.42217 0.45987 0.0
C644 C 0.45621 0.38739 0.45537 0.0
C645 C 0.48736 0.47162 0.48536 0.0
C646 C 0.47071 0.48837 0.47619 0.0
C647 C 0.52003 0.49166 0.49556 0.0
C648 C 0.53921 0.47553 0.50513 0.0
C649 C 0.54978 0.45645 0.49208 0.0
C650 C 0.56769 0.44115 0.5013 0.0
C651 C 0.57546 0.44506 0.52351 0.0
C652 C 0.56544 0.46437 0.53653 0.0
C653 C 0.54747 0.47967 0.52739 0.0
H654 H 0.58934 0.43321 0.53062 0.0
H655 H 0.42355 0.58602 0.43603 0.0
H656 H 0.98046 0.62022 0.84533 0.0
H657 H 0.0136 0.58977 0.8479 0.0
H658 H 0.92291 0.4944 0.82872 0.0
H659 H 0.88958 0.52438 0.82644 0.0
H660 H 0.95847 0.48174 0.85886 0.0
H661 H 0.98322 0.54528 0.79234 0.0
H662 H 1.00148 0.59729 0.76974 0.0
H663 H 0.10326 0.6445 0.79808 0.0
H664 H 0.0852 0.59322 0.82148 0.0
H665 H 0.03264 0.38972 0.80705 0.0
H666 H 1.00196 0.42083 0.81655 0.0
H667 H 0.097 0.50587 0.8415 0.0
H668 H 0.12792 0.47476 0.83222 0.0
H669 H 0.06242 0.52613 0.81146 0.0
H670 H 0.03578 0.45743 0.87643 0.0
H671 H 0.01471 0.40333 0.89736 0.0
H672 H 0.9139 0.36254 0.86836 0.0
H673 H 0.93449 0.41623 0.84701 0.0
C674 C 0.96739 0.59264 0.84206 0.0
C675 C 0.93243 0.57486 0.83546 0.0
C676 C 0.98643 0.57529 0.84342 0.0
C677 C 0.97092 0.53988 0.83814 0.0
C678 C 0.93551 0.52171 0.83281 0.0
C679 C 0.91651 0.53899 0.83143 0.0
C680 C 0.99185 0.52216 0.83667 0.0
C681 C 0.98112 0.49139 0.84843 0.0
C682 C 0.02161 0.53485 0.82317 0.0
C683 C 0.0327 0.56557 0.80891 0.0
C684 C 1.00939 0.56689 0.79395 0.0
C685 C 0.01969 0.59626 0.781 0.0
C686 C 0.0535 0.62419 0.78248 0.0
C687 C 0.07705 0.62285 0.79698 0.0
C688 C 0.06675 0.59369 0.81015 0.0
C689 C 0.04693 0.41476 0.81493 0.0
C690 C 0.08276 0.4297 0.8189 0.0
C691 C 0.02933 0.43253 0.82036 0.0
C692 C 0.04718 0.46569 0.82975 0.0
C693 C 0.08273 0.48032 0.83426 0.0
C694 C 0.1003 0.46237 0.82908 0.0
C695 C 0.02903 0.48575 0.83366 0.0
C696 C 0.04014 0.51683 0.82218 0.0
C697 C 0.99928 0.47302 0.84709 0.0
C698 C 0.98677 0.44077 0.85999 0.0
C699 C 1.00919 0.43683 0.87438 0.0
C700 C 0.99732 0.40625 0.88635 0.0
C701 C 0.96301 0.37949 0.88416 0.0
C702 C 0.94047 0.38329 0.87003 0.0
C703 C 0.95222 0.4138 0.85802 0.0
H704 H 0.95387 0.35584 0.89344 0.0
H705 H 0.06147 0.64683 0.77235 0.0
H706 H 0.3639 0.98487 0.16865 0.0
H707 H 0.42528 0.01746 0.17898 0.0
H708 H 0.43359 0.92561 0.16957 0.0
H709 H 0.37213 0.89267 0.16062 0.0
H710 H 0.47471 0.96005 0.20035 0.0
H711 H 0.45292 0.99126 0.12921 0.0
H712 H 0.42586 0.01304 0.1035 0.0
H713 H 0.47364 0.11131 0.13646 0.0
H714 H 0.50007 0.08952 0.16293 0.0
H715 H 0.645 0.0254 0.15781 0.0
H716 H 0.58332 0.99796 0.16661 0.0
H717 H 0.59615 0.0972 0.18532 0.0
H718 H 0.65799 0.12495 0.17647 0.0
H719 H 0.54526 0.06487 0.15557 0.0
H720 H 0.5751 0.03424 0.22328 0.0
H721 H 0.60255 0.01057 0.24745 0.0
H722 H 0.54202 0.91012 0.21828 0.0
H723 H 0.51455 0.93328 0.1937 0.0
C724 C 0.3787 0.97152 0.16923 0.0
C725 C 0.36318 0.93627 0.16358 0.0
C726 C 0.41388 0.99021 0.17501 0.0
C727 C 0.43454 0.97434 0.17448 0.0
C728 C 0.41848 0.93865 0.17006 0.0
C729 C 0.3832 0.9198 0.16484 0.0
C730 C 0.47316 0.995 0.17667 0.0
C731 C 0.4901 0.9829 0.19049 0.0
C732 C 0.49355 0.02537 0.16421 0.0
C733 C 0.47806 0.03862 0.14819 0.0
C734 C 0.45745 0.01743 0.13106 0.0
C735 C 0.44223 0.02981 0.11635 0.0
C736 C 0.44807 0.06363 0.11828 0.0
C737 C 0.4691 0.0851 0.135 0.0
C738 C 0.4841 0.07271 0.14991 0.0
C739 C 0.63492 0.04134 0.16423 0.0
C740 C 0.65648 0.07744 0.1663 0.0
C741 C 0.5996 0.02555 0.16937 0.0
C742 C 0.58505 0.04547 0.1767 0.0
C743 C 0.6068 0.08129 0.17972 0.0
C744 C 0.6422 0.0971 0.1747 0.0
C745 C 0.54672 0.02949 0.17886 0.0
C746 C 0.52987 0.04243 0.16577 0.0
C747 C 0.52656 0.99967 0.19172 0.0
C748 C 0.54292 0.98558 0.20654 0.0
C749 C 0.56782 0.00716 0.2219 0.0
C750 C 0.58335 0.99381 0.2357 0.0
C751 C 0.57407 0.95887 0.23438 0.0
C752 C 0.54918 0.93718 0.21929 0.0
C753 C 0.53358 0.95039 0.20544 0.0
H754 H 0.58613 0.9486 0.24508 0.0
H755 H 0.43635 0.07328 0.10685 0.0
H756 H 0.28801 0.30678 0.23149 0.0
H757 H 0.30783 0.28787 0.26283 0.0
H758 H 0.30446 0.36642 0.30239 0.0
H759 H 0.2859 0.38646 0.27067 0.0
H760 H 0.36045 0.36541 0.31137 0.0
H761 H 0.24194 0.27709 0.30609 0.0
H762 H 0.18856 0.23197 0.28852 0.0
H763 H 0.23868 0.17282 0.27433 0.0
H764 H 0.29255 0.21782 0.29156 0.0
H765 H 0.36926 0.29326 0.41265 0.0
H766 H 0.34762 0.31056 0.38138 0.0
H767 H 0.37425 0.24985 0.3391 0.0
H768 H 0.39636 0.23244 0.37046 0.0
H769 H 0.30612 0.24138 0.33215 0.0
H770 H 0.42537 0.33294 0.339 0.0
H771 H 0.4757 0.37786 0.35917 0.0
H772 H 0.41931 0.43084 0.37341 0.0
H773 H 0.36844 0.38594 0.35357 0.0
C774 C 0.29124 0.31993 0.24688 0.0
C775 C 0.2852 0.34804 0.2486 0.0
C776 C 0.30244 0.30894 0.26487 0.0
C777 C 0.3071 0.32524 0.28516 0.0
C778 C 0.30101 0.35333 0.28694 0.0
C779 C 0.29028 0.36471 0.26882 0.0
C780 C 0.3193 0.31357 0.30428 0.0
C781 C 0.34817 0.33833 0.31605 0.0
C782 C 0.30374 0.27815 0.31032 0.0
C783 C 0.27139 0.25101 0.29994 0.0
C784 C 0.24167 0.25459 0.29907 0.0
C785 C 0.21131 0.22902 0.2892 0.0
C786 C 0.21026 0.19959 0.28026 0.0
C787 C 0.23955 0.19565 0.28123 0.0
C788 C 0.26999 0.22117 0.29107 0.0
C789 C 0.37046 0.28341 0.39674 0.0
C790 C 0.3846 0.26145 0.39406 0.0
C791 C 0.35817 0.29346 0.37887 0.0
C792 C 0.35955 0.28169 0.35793 0.0
C793 C 0.37302 0.25925 0.35516 0.0
C794 C 0.38573 0.24943 0.37306 0.0
C795 C 0.34714 0.29317 0.33898 0.0
C796 C 0.31826 0.2684 0.32733 0.0
C797 C 0.36223 0.3286 0.33332 0.0
C798 C 0.39299 0.35591 0.34496 0.0
C799 C 0.42362 0.35403 0.34656 0.0
C800 C 0.45226 0.37951 0.35792 0.0
C801 C 0.45067 0.40714 0.36762 0.0
C802 C 0.42048 0.40941 0.36591 0.0
C803 C 0.39176 0.38397 0.35459 0.0
H804 H 0.47286 0.42682 0.37642 0.0
H805 H 0.18672 0.17982 0.27263 0.0
H806 H 0.96167 0.35905 0.58272 0.0
H807 H 0.9981 0.36848 0.61455 0.0
H808 H 0.92384 0.26755 0.63918 0.0
H809 H 0.88707 0.25765 0.60712 0.0
H810 H 0.94998 0.32035 0.67133 0.0
H811 H 0.99266 0.27498 0.61643 0.0
H812 H 0.01385 0.27099 0.58005 0.0
H813 H 0.10045 0.37404 0.58697 0.0
H814 H 0.07946 0.37886 0.62328 0.0
H815 H 0.06306 0.31064 0.74924 0.0
H816 H 0.02493 0.29742 0.71775 0.0
H817 H 0.09517 0.39754 0.69028 0.0
H818 H 0.13349 0.41119 0.72188 0.0
H819 H 0.07005 0.34264 0.65978 0.0
H820 H 0.02643 0.3882 0.71449 0.0
H821 H 1.00562 0.39157 0.75113 0.0
H822 H 0.92078 0.28744 0.74467 0.0
H823 H 0.94146 0.28322 0.70812 0.0
C824 C 0.95282 0.33888 0.59495 0.0
C825 C 0.92147 0.30749 0.5923 0.0
C826 C 0.9738 0.34431 0.61311 0.0
C827 C 0.96387 0.31857 0.62909 0.0
C828 C 0.93201 0.28769 0.62697 0.0
C829 C 0.91107 0.28207 0.60865 0.0
C830 C 0.98736 0.32383 0.64766 0.0
C831 C 0.97604 0.32468 0.66885 0.0
C832 C 0.02159 0.33014 0.64435 0.0
C833 C 0.03427 0.32741 0.62249 0.0
C834 C 0.01603 0.29692 0.61011 0.0
C835 C 0.02804 0.29448 0.58952 0.0
C836 C 0.05842 0.32228 0.58118 0.0
C837 C 0.07689 0.35255 0.59344 0.0
C838 C 0.06496 0.35514 0.61404 0.0
C839 C 0.07063 0.32978 0.73643 0.0
C840 C 0.10128 0.36206 0.73812 0.0
C841 C 0.0487 0.3222 0.71848 0.0
C842 C 0.05706 0.34663 0.70181 0.0
C843 C 0.08824 0.37838 0.70302 0.0
C844 C 0.11004 0.38615 0.7211 0.0
C845 C 0.03277 0.33939 0.68341 0.0
C846 C 0.04395 0.33818 0.66225 0.0
C847 C 0.99842 0.3327 0.68677 0.0
C848 C 0.98572 0.33526 0.70866 0.0
C849 C 1.00351 0.3659 0.72096 0.0
C850 C 0.99172 0.36799 0.7417 0.0
C851 C 0.96195 0.3397 0.75025 0.0
C852 C 0.94387 0.30931 0.73804 0.0
C853 C 0.95561 0.30706 0.71731 0.0
H854 H 0.95285 0.34137 0.7663 0.0
H855 H 0.0677 0.32033 0.56524 0.0
H856 H 0.69745 0.97125 0.91398 0.0
H857 H 0.71426 1.00217 0.94855 0.0
H858 H 0.62917 0.91492 0.98047 0.0
H859 H 0.6118 0.88372 0.94569 0.0
H860 H 0.63437 0.97541 0.99373 0.0
H861 H 0.71069 0.92934 0.98674 0.0
H862 H 0.75304 0.91719 0.96856 0.0
H863 H 0.82556 0.02632 0.96437 0.0
H864 H 0.78345 0.03915 0.98226 0.0
H865 H 0.75593 0.0476 0.09515 0.0
H866 H 0.73601 0.01154 0.06253 0.0
H867 H 0.70282 0.07949 0.03492 0.0
H868 H 0.72218 0.11546 0.06774 0.0
H869 H 0.75461 0.02352 0.02142 0.0
H870 H 0.63081 0.032 0.0036 0.0
H871 H 0.58694 0.03966 0.02368 0.0
H872 H 0.6064 0.99716 0.08119 0.0
H873 H 0.65001 0.98879 0.06138 0.0
C874 C 0.68225 0.9585 0.92831 0.0
C875 C 0.65333 0.9249 0.92706 0.0
C876 C 0.692 0.97624 0.94812 0.0
C877 C 0.67324 0.96074 0.96717 0.0
C878 C 0.64407 0.92735 0.96597 0.0
C879 C 0.63426 0.90951 0.94611 0.0
C880 C 0.68423 0.97962 0.98823 0.0
C881 C 0.66063 0.98589 -0.00019 0.0
C882 C 0.71833 0.9928 0.99639 0.0
C883 C 0.74379 0.9852 0.98568 0.0
C884 C 0.73557 0.95076 0.9818 0.0
C885 C 0.75955 0.94375 0.97157 0.0
C886 C 0.79194 0.97097 0.96527 0.0
C887 C 0.80045 1.00526 0.96924 0.0
C888 C 0.77655 0.01242 0.97945 0.0
C889 C 0.74445 0.05497 0.08215 0.0
C890 C 0.74055 0.08439 0.08411 0.0
C891 C 0.73311 0.03432 0.06347 0.0
C892 C 0.71754 0.04252 0.04636 0.0
C893 C 0.71421 0.07228 0.04806 0.0
C894 C 0.72548 0.09294 0.06679 0.0
C895 C 0.70499 0.02 0.02672 0.0
C896 C 0.72832 0.01305 0.01538 0.0
C897 C 0.67046 0.00563 0.01905 0.0
C898 C 0.64393 0.01011 0.03104 0.0
C899 C 0.62562 0.02416 0.0205 0.0
C900 C 0.60082 0.02864 0.03184 0.0
C901 C 0.59397 0.019 0.05371 0.0
C902 C 0.61182 1.00474 0.06427 0.0
C903 C 0.63661 1.00016 0.053 0.0
H904 H 0.57478 0.02253 0.06247 0.0
H905 H 0.81047 0.96549 0.95735 0.0
H906 H 0.60796 0.72712 0.38693 0.0
H907 H 0.62029 0.70218 0.35494 0.0
H908 H 0.72835 0.7521 0.37299 0.0
H909 H 0.71633 0.77721 0.40496 0.0
H910 H 0.7189 0.75481 0.32856 0.0
H911 H 0.67638 0.66992 0.38619 0.0
H912 H 0.63426 0.63323 0.41418 0.0
H913 H 0.5562 0.58269 0.36506 0.0
H914 H 0.59767 0.61955 0.33681 0.0
H915 H 0.77145 0.65643 0.26481 0.0
H916 H 0.75937 0.68383 0.29555 0.0
H917 H 0.64966 0.62338 0.28214 0.0
H918 H 0.66146 0.59514 0.25187 0.0
H919 H 0.65933 0.62643 0.3241 0.0
H920 H 0.69983 0.71022 0.26652 0.0
H921 H 0.74023 0.74743 0.23797 0.0
H922 H 0.81984 0.80025 0.28592 0.0
H923 H 0.78003 0.76301 0.31473 0.0
C924 C 0.63446 0.73328 0.38391 0.0
C925 C 0.66114 0.75398 0.39858 0.0
C926 C 0.64141 0.71884 0.36568 0.0
C927 C 0.67514 0.72488 0.36178 0.0
C928 C 0.70212 0.747 0.37575 0.0
C929 C 0.69517 0.76127 0.39404 0.0
C930 C 0.68208 0.70684 0.34379 0.0
C931 C 0.70617 0.72675 0.32767 0.0
C932 C 0.66488 0.67022 0.34243 0.0
C933 C 0.64005 0.64775 0.3594 0.0
C934 C 0.65016 0.65118 0.38137 0.0
C935 C 0.62641 0.63033 0.39728 0.0
C936 C 0.59257 0.60569 0.3914 0.0
C937 C 0.58242 0.60182 0.36959 0.0
C938 C 0.60603 0.62268 0.35362 0.0
C939 C 0.74474 0.6488 0.2685 0.0
C940 C 0.71743 0.6237 0.25582 0.0
C941 C 0.73786 0.66465 0.28601 0.0
C942 C 0.70361 0.65618 0.29095 0.0
C943 C 0.67629 0.63045 0.27865 0.0
C944 C 0.68311 0.61434 0.2613 0.0
C945 C 0.69621 0.67437 0.30873 0.0
C946 C 0.67204 0.65449 0.32488 0.0
C947 C 0.71312 0.71104 0.31001 0.0
C948 C 0.73705 0.73361 0.29274 0.0
C949 C 0.72602 0.72961 0.27095 0.0
C950 C 0.7488 0.75073 0.25473 0.0
C951 C 0.7826 0.77613 0.26012 0.0
C952 C 0.79366 0.78053 0.28176 0.0
C953 C 0.771 0.75945 0.29805 0.0
H954 H 0.8002 0.79245 0.24754 0.0
H955 H 0.57423 0.58954 0.40374 0.0
H956 H 0.04253 0.70535 0.57838 0.0
H957 H 0.01034 0.68956 0.61245 0.0
H958 H 0.10571 0.72492 0.64817 0.0
H959 H 0.13829 0.74021 0.61385 0.0
H960 H 0.05634 0.66457 0.66391 0.0
H961 H 0.064 0.77282 0.64669 0.0
H962 H 0.05901 0.8157 0.62383 0.0
H963 H 0.94916 0.74706 0.61797 0.0
H964 H 0.95355 0.70354 0.64056 0.0
H965 H 0.98317 0.66504 0.76676 0.0
H966 H 0.01738 0.68192 0.73337 0.0
H967 H 0.92353 0.64073 0.69534 0.0
H968 H 0.88887 0.62374 0.72886 0.0
H969 H 0.97349 0.70541 0.68148 0.0
H970 H 0.96704 0.59684 0.69865 0.0
H971 H 0.97317 0.55464 0.72154 0.0
H972 H 0.08232 0.62585 0.72831 0.0
H973 H 0.07679 0.66868 0.70566 0.0
C974 C 0.05681 0.70996 0.59345 0.0
C975 C 0.09307 0.72423 0.59337 0.0
C976 C 0.0383 0.70102 0.61297 0.0
C977 C 0.0556 0.70653 0.63294 0.0
C978 C 0.0918 0.72055 0.63296 0.0
C979 C 0.1104 0.72937 0.61335 0.0
C980 C 0.0356 0.69697 0.65366 0.0
C981 C 0.03866 0.67397 0.66792 0.0
C982 C 0.01194 0.70863 0.65872 0.0
C983 C 1.00916 0.73478 0.64517 0.0
C984 C 0.03881 0.76675 0.64039 0.0
C985 C 0.03609 0.7912 0.62751 0.0
C986 C 1.0038 0.78408 0.61941 0.0
C987 C 0.97416 0.75252 0.62423 0.0
C988 C 0.97674 0.72797 0.6371 0.0
C989 C 0.96969 0.65955 0.75132 0.0
C990 C 0.93323 0.64307 0.75048 0.0
C991 C 0.98935 0.66906 0.73222 0.0
C992 C 0.97302 0.66232 0.71185 0.0
C993 C 0.93664 0.64611 0.71091 0.0
C994 C 0.91687 0.63635 0.73005 0.0
C995 C 0.99407 0.67285 0.69159 0.0
C996 C 0.99124 0.6961 0.67746 0.0
C997 C 0.01812 0.66163 0.68676 0.0
C998 C 0.02144 0.63607 0.70058 0.0
C999 C 0.9923 0.60362 0.70516 0.0
C1000 C 0.99569 0.57955 0.71804 0.0
C1001 C 0.02813 0.58752 0.7263 0.0
C1002 C 0.05723 0.61966 0.72181 0.0
C1003 C 0.05399 0.64384 0.70895 0.0
H1004 H 0.03071 0.56884 0.73626 0.0
H1005 H 1.00175 0.80304 0.60944 0.0
H1006 H 0.31231 0.89919 0.06187 0.0
H1007 H 0.32824 0.93389 0.02851 0.0
H1008 H 0.26421 0.97707 0.04791 0.0
H1009 H 0.24793 0.94233 0.08109 0.0
H1010 H 0.25534 0.9614 0.00584 0.0
H1011 H 0.35191 0.02485 0.05318 0.0
H1012 H 0.39984 0.03531 0.0777 0.0
H1013 H 0.44742 0.00662 0.02701 0.0
H1014 H 0.39941 0.99579 0.00213 0.0
H1015 H 0.38898 0.12479 0.93947 0.0
H1016 H 0.36953 0.09112 0.97321 0.0
H1017 H 0.30847 0.99775 0.93601 0.0
H1018 H 0.3272 0.03114 0.90237 0.0
H1019 H 0.37921 0.04078 0.98792 0.0
H1020 H 0.23701 0.94147 0.96479 0.0
H1021 H 0.18976 0.93858 0.94216 0.0
H1022 H 0.23327 0.04876 0.94796 0.0
H1023 H 0.28049 0.05225 0.97086 0.0
C1024 C 0.3015 0.91595 0.05899 0.0
C1025 C 0.27891 0.91802 0.07421 0.0
C1026 C 0.31075 0.93591 0.03995 0.0
C1027 C 0.29767 0.95836 0.03577 0.0
C1028 C 0.27462 0.95994 0.05074 0.0
C1029 C 0.26543 0.9401 0.06977 0.0
C1030 C 0.30824 0.98053 0.01594 0.0
C1031 C 0.28243 0.97866 0.00188 0.0
C1032 C 0.34352 1.00364 0.01094 0.0
C1033 C 0.37191 0.00915 0.02591 0.0
C1034 C 0.37241 0.02042 0.04734 0.0
C1035 C 0.39968 0.02652 0.06128 0.0
C1036 C 0.42671 0.02154 0.05397 0.0
C1037 C 0.42646 0.01042 0.03267 0.0
C1038 C 0.39924 1.00434 0.01862 0.0
C1039 C 0.37122 0.09713 0.93849 0.0
C1040 C 0.3596 0.0807 0.91821 0.0
C1041 C 0.3602 0.0779 0.95779 0.0
C1042 C 0.33728 0.04192 0.95719 0.0
C1043 C 0.32566 0.02552 0.93695 0.0
C1044 C 0.33656 0.0447 0.91769 0.0
C1045 C 0.32636 0.02132 0.97764 0.0
C1046 C 0.35211 0.0234 0.99178 0.0
C1047 C 0.29099 0.99899 0.98293 0.0
C1048 C 0.26248 0.99713 0.96936 0.0
C1049 C 0.23642 0.96506 0.9613 0.0
C1050 C 0.20965 0.96332 0.94842 0.0
C1051 C 0.20858 0.99348 0.94356 0.0
C1052 C 0.2342 0.02544 0.95166 0.0
C1053 C 0.261 0.02731 0.96456 0.0
H1054 H 0.18785 0.99208 0.93357 0.0
H1055 H 0.44792 0.02643 0.06477 0.0
H1056 H 0.86385 0.21555 0.17237 0.0
H1057 H 0.92567 0.24449 0.18146 0.0
H1058 H 0.94225 0.18755 0.13036 0.0
H1059 H 0.88097 0.16041 0.12039 0.0
H1060 H 0.96948 0.23015 0.19555 0.0
H1061 H 0.02077 0.23119 0.10812 0.0
H1062 H 1.00439 0.23353 0.07005 0.0
H1063 H 0.94626 0.28202 0.09068 0.0
H1064 H 0.96264 0.28038 0.12882 0.0
H1065 H 0.14595 0.28278 0.2074 0.0
H1066 H 0.08479 0.2507 0.19693 0.0
H1067 H 0.10025 0.33531 0.15516 0.0
H1068 H 0.16199 0.36633 0.16454 0.0
H1069 H 0.05695 0.28152 0.13658 0.0
H1070 H 0.06309 0.32047 0.20939 0.0
H1071 H 0.07939 0.32862 0.24821 0.0
H1072 H 0.02247 0.21842 0.25801 0.0
H1073 H 1.0062 0.20959 0.21917 0.0
C1074 C 0.8807 0.20906 0.16321 0.0
C1075 C 0.86768 0.18593 0.14557 0.0
C1076 C 0.9161 0.22563 0.1684 0.0
C1077 C 0.9391 0.21897 0.1563 0.0
C1078 C 0.92552 0.1942 0.13951 0.0
C1079 C 0.89037 0.17838 0.13395 0.0
C1080 C 0.97721 0.23831 0.16096 0.0
C1081 C 0.98853 0.24135 0.18261 0.0
C1082 C 1.00241 0.25396 0.14427 0.0
C1083 C 0.99264 0.2553 0.12135 0.0
C1084 C 1.00458 0.24245 0.10452 0.0
C1085 C 0.99528 0.24364 0.08293 0.0
C1086 C 0.9742 0.25781 0.07796 0.0
C1087 C 0.96247 0.27094 0.09456 0.0
C1088 C 0.97173 0.26985 0.11617 0.0
C1089 C 0.13634 0.29425 0.19572 0.0
C1090 C 0.15869 0.32705 0.18681 0.0
C1091 C 0.10125 0.27606 0.18991 0.0
C1092 C 0.08736 0.29087 0.17571 0.0
C1093 C 0.11005 0.3232 0.1662 0.0
C1094 C 0.14541 0.34096 0.17154 0.0
C1095 C 0.04923 0.2731 0.17115 0.0
C1096 C 0.0379 0.27031 0.14952 0.0
C1097 C 0.02402 0.2592 0.18797 0.0
C1098 C 0.03372 0.26436 0.21133 0.0
C1099 C 0.05425 0.29797 0.2198 0.0
C1100 C 0.06346 0.30271 0.2418 0.0
C1101 C 0.05205 0.27405 0.25555 0.0
C1102 C 0.03134 0.24059 0.24733 0.0
C1103 C 0.02209 0.2357 0.22533 0.0
H1104 H 0.0592 0.27778 0.27258 0.0
H1105 H 0.96701 0.25868 0.06125 0.0
H1106 H 0.77144 0.12814 0.5561 0.0
H1107 H 0.75056 0.06743 0.54787 0.0
H1108 H 0.82684 0.097 0.49681 0.0
H1109 H 0.84762 0.1584 0.50473 0.0
H1110 H 0.76497 0.04697 0.4832 0.0
H1111 H 0.83581 0.06233 0.54488 0.0
H1112 H 0.85877 0.08099 0.58196 0.0
H1113 H 0.75806 0.01261 0.60878 0.0
H1114 H 0.73435 0.99389 0.57184 0.0
H1115 H 0.70912 0.86749 0.46895 0.0
H1116 H 0.74792 0.9288 0.47743 0.0
H1117 H 0.67918 0.92263 0.52903 0.0
H1118 H 0.6405 0.86143 0.52083 0.0
H1119 H 0.74686 0.96158 0.54095 0.0
H1120 H 0.6753 0.95326 0.47905 0.0
H1121 H 0.65202 0.93511 0.44196 0.0
H1122 H 0.75518 0.99079 0.41569 0.0
H1123 H 0.77911 0.00889 0.45269 0.0
C1124 C 0.78403 0.12189 0.54319 0.0
C1125 C 0.81131 0.14821 0.53111 0.0
C1126 C 0.77215 0.08704 0.53858 0.0
C1127 C 0.78749 0.07754 0.52196 0.0
C1128 C 0.81474 0.10371 0.5098 0.0
C1129 C 0.82663 0.13876 0.51437 0.0
C1130 C 0.77376 0.04023 0.51688 0.0
C1131 C 0.76177 0.02841 0.49573 0.0
C1132 C 0.76908 0.01585 0.53326 0.0
C1133 C 0.78326 0.02685 0.55555 0.0
C1134 C 0.8185 0.05143 0.55867 0.0
C1135 C 0.83166 0.062 0.57967 0.0
C1136 C 0.80988 0.04803 0.59771 0.0
C1137 C 0.7749 0.02341 0.59479 0.0
C1138 C 0.7616 0.01277 0.57382 0.0
C1139 C 0.7025 0.87905 0.48231 0.0
C1140 C 0.67153 0.8596 0.4941 0.0
C1141 C 0.72465 0.91415 0.48706 0.0
C1142 C 0.71621 0.93043 0.50366 0.0
C1143 C 0.68619 0.91064 0.51612 0.0
C1144 C 0.66404 0.87564 0.51136 0.0
C1145 C 0.73741 0.9684 0.50746 0.0
C1146 C 0.75074 0.98028 0.52836 0.0
C1147 C 0.7434 0.99284 0.49085 0.0
C1148 C 0.72901 0.98206 0.46863 0.0
C1149 C 0.69303 0.96139 0.46537 0.0
C1150 C 0.67972 0.95116 0.44437 0.0
C1151 C 0.70212 0.96169 0.42649 0.0
C1152 C 0.73787 0.98258 0.42956 0.0
C1153 C 0.75132 0.99285 0.45054 0.0
H1154 H 0.69176 0.95375 0.41024 0.0
H1155 H 0.82011 0.05626 0.61396 0.0
H1156 H 0.83937 0.70731 0.77909 0.0
H1157 H 0.81331 0.74242 0.789 0.0
H1158 H 0.79455 0.70026 0.85397 0.0
H1159 H 0.82052 0.66457 0.84405 0.0
H1160 H 0.73718 0.69802 0.83721 0.0
H1161 H 0.85612 0.78433 0.84473 0.0
H1162 H 0.91759 0.81938 0.83407 0.0
H1163 H 0.88874 0.85963 0.77936 0.0
H1164 H 0.82701 0.82443 0.78951 0.0
H1165 H 0.67954 0.81179 0.87546 0.0
H1166 H 0.71453 0.78379 0.87075 0.0
H1167 H 0.73278 0.81633 0.80365 0.0
H1168 H 0.69769 0.84449 0.8082 0.0
H1169 H 0.79221 0.82464 0.82417 0.0
H1170 H 0.67313 0.7354 0.81561 0.0
H1171 H 0.61169 0.70052 0.82642 0.0
H1172 H 0.64131 0.66591 0.88352 0.0
H1173 H 0.70302 0.70103 0.87322 0.0
C1174 C 0.83013 0.70575 0.7956 0.0
C1175 C 0.83206 0.68306 0.81077 0.0
C1176 C 0.81532 0.72601 0.80127 0.0
C1177 C 0.80211 0.72424 0.82229 0.0
C1178 C 0.8046 0.70213 0.83766 0.0
C1179 C 0.81964 0.6819 0.832 0.0
C1180 C 0.78411 0.7441 0.82765 0.0
C1181 C 0.74949 0.72582 0.83478 0.0
C1182 C 0.79978 0.78028 0.82398 0.0
C1183 C 0.83689 0.8015 0.81779 0.0
C1184 C 0.86284 0.80043 0.83032 0.0
C1185 C 0.89774 0.82037 0.82439 0.0
C1186 C 0.90706 0.84166 0.80602 0.0
C1187 C 0.88148 0.8431 0.79357 0.0
C1188 C 0.84653 0.82319 0.79942 0.0
C1189 C 0.69118 0.81329 0.85971 0.0
C1190 C 0.68561 0.83031 0.84216 0.0
C1191 C 0.71111 0.79711 0.85704 0.0
C1192 C 0.72598 0.79759 0.83679 0.0
C1193 C 0.7215 0.81555 0.81943 0.0
C1194 C 0.70136 0.83158 0.82204 0.0
C1195 C 0.74533 0.7785 0.83357 0.0
C1196 C 0.7801 0.7969 0.8268 0.0
C1197 C 0.72983 0.74244 0.8376 0.0
C1198 C 0.69273 0.72116 0.84377 0.0
C1199 C 0.66657 0.72059 0.83057 0.0
C1200 C 0.63169 0.70074 0.83659 0.0
C1201 C 0.62261 0.68109 0.85568 0.0
C1202 C 0.64839 0.68119 0.86876 0.0
C1203 C 0.68332 0.70105 0.86283 0.0
H1204 H 0.59559 0.66574 0.86031 0.0
H1205 H 0.93409 0.85708 0.80146 0.0
H1206 H 0.88724 0.72383 0.21748 0.0
H1207 H 0.94895 0.75651 0.20859 0.0
H1208 H 0.93057 0.69388 0.15116 0.0
H1209 H 0.8686 0.66082 0.16003 0.0
H1210 H 0.98418 0.69864 0.17471 0.0
H1211 H 0.95079 0.77798 0.14681 0.0
H1212 H 0.92355 0.81464 0.14749 0.0
H1213 H 0.99048 0.87444 0.19996 0.0
H1214 H 0.01781 0.83781 0.19981 0.0
H1215 H 0.15298 0.79774 0.1305 0.0
H1216 H 0.09038 0.7701 0.13594 0.0
H1217 H 0.1067 0.82942 0.19467 0.0
H1218 H 0.1697 0.85744 0.18932 0.0
H1219 H 0.054 0.82682 0.1695 0.0
H1220 H 0.08608 0.7463 0.19797 0.0
H1221 H 0.11266 0.70903 0.19759 0.0
H1222 H 0.0476 0.6511 0.14398 0.0
H1223 H 0.02096 0.68837 0.14382 0.0
C1224 C 0.89618 0.71722 0.2028 0.0
C1225 C 0.87289 0.68962 0.18949 0.0
C1226 C 0.93153 0.73606 0.19769 0.0
C1227 C 0.94448 0.72782 0.17914 0.0
C1228 C 0.92121 0.70074 0.16556 0.0
C1229 C 0.88574 0.68197 0.1706 0.0
C1230 C 0.9825 0.74623 0.17465 0.0
C1231 C 0.99932 0.72663 0.17318 0.0
C1232 C 1.0025 0.78284 0.17326 0.0
C1233 C 0.98612 0.80492 0.17343 0.0
C1234 C 0.9595 0.79875 0.15863 0.0
C1235 C 0.94408 0.81957 0.15889 0.0
C1236 C 0.95522 0.84679 0.1738 0.0
C1237 C 0.98185 0.85331 0.18844 0.0
C1238 C 0.99734 0.83255 0.18826 0.0
C1239 C 0.14338 0.8051 0.14457 0.0
C1240 C 0.1665 0.82977 0.15954 0.0
C1241 C 0.10749 0.78912 0.14768 0.0
C1242 C 0.09378 0.79735 0.16584 0.0
C1243 C 0.11668 0.82258 0.18056 0.0
C1244 C 0.1527 0.83851 0.17751 0.0
C1245 C 0.05558 0.7792 0.16955 0.0
C1246 C 0.03878 0.79883 0.17092 0.0
C1247 C 0.03553 0.74258 0.17084 0.0
C1248 C 0.05178 0.72037 0.17074 0.0
C1249 C 0.07769 0.72584 0.18595 0.0
C1250 C 0.09271 0.70468 0.18586 0.0
C1251 C 0.08186 0.67776 0.17075 0.0
C1252 C 0.05599 0.67199 0.15566 0.0
C1253 C 0.04091 0.69311 0.15566 0.0
H1254 H 0.09336 0.66128 0.17079 0.0
H1255 H 0.94326 0.86289 0.17397 0.0
H1256 H 0.21239 0.88426 0.56371 0.0
H1257 H 0.23648 0.94396 0.55131 0.0
H1258 H 0.21094 0.90825 0.48502 0.0
H1259 H 0.18705 0.84822 0.49732 0.0
H1260 H 0.27677 0.96044 0.48837 0.0
H1261 H 0.16564 0.94013 0.5126 0.0
H1262 H 0.11714 0.92229 0.53841 0.0
H1263 H 0.18489 1.00087 0.58339 0.0
H1264 H 0.23393 0.01887 0.55797 0.0
H1265 H 0.31859 0.121 0.44212 0.0
H1266 H 0.28528 0.06135 0.45491 0.0
H1267 H 0.31194 0.09636 0.52124 0.0
H1268 H 0.34517 0.15656 0.50853 0.0
H1269 H 0.2444 0.04454 0.51777 0.0
H1270 H 0.35558 0.06347 0.49465 0.0
H1271 H 0.4048 0.08138 0.46943 0.0
H1272 H 0.33761 1.00516 0.42308 0.0
H1273 H 0.28786 0.98712 0.44791 0.0
C1274 C 0.21153 0.88898 0.5465 0.0
C1275 C 0.19782 0.86139 0.5315 0.0
C1276 C 0.2252 0.92321 0.53944 0.0
C1277 C 0.22531 0.93066 0.51724 0.0
C1278 C 0.21109 0.90314 0.50224 0.0
C1279 C 0.19733 0.86881 0.5093 0.0
C1280 C 0.24203 0.96724 0.50963 0.0
C1281 C 0.26924 0.97864 0.49452 0.0
C1282 C 0.23301 0.99134 0.51816 0.0
C1283 C 0.20354 0.98064 0.53346 0.0
C1284 C 0.17027 0.95343 0.52807 0.0
C1285 C 0.14266 0.94332 0.54261 0.0
C1286 C 0.14795 0.96038 0.56255 0.0
C1287 C 0.18084 0.98765 0.56795 0.0
C1288 C 0.20854 0.99784 0.55347 0.0
C1289 C 0.31723 0.11617 0.45947 0.0
C1290 C 0.33485 0.1436 0.47429 0.0
C1291 C 0.29821 0.08196 0.46674 0.0
C1292 C 0.29661 0.07428 0.489 0.0
C1293 C 0.31295 0.10167 0.50397 0.0
C1294 C 0.33196 0.13605 0.49668 0.0
C1295 C 0.27894 0.03758 0.49644 0.0
C1296 C 0.25173 0.02623 0.51155 0.0
C1297 C 0.28803 0.01348 0.488 0.0
C1298 C 0.31793 0.02419 0.47306 0.0
C1299 C 0.35124 0.05072 0.47901 0.0
C1300 C 0.37925 0.06086 0.4648 0.0
C1301 C 0.37432 0.04448 0.44464 0.0
C1302 C 0.34138 0.01786 0.43868 0.0
C1303 C 0.31327 0.00765 0.45283 0.0
H1304 H 0.39604 0.05237 0.43366 0.0
H1305 H 0.12654 0.95251 0.57378 0.0
H1306 H 0.22825 0.35814 0.79905 0.0
H1307 H 0.25474 0.32214 0.80501 0.0
H1308 H 0.17043 0.25577 0.84763 0.0
H1309 H 0.14377 0.29199 0.84189 0.0
H1310 H 0.23276 0.27148 0.86487 0.0
H1311 H 0.17585 0.2297 0.79606 0.0
H1312 H 0.16126 0.23504 0.75808 0.0
H1313 H 0.26839 0.27925 0.73992 0.0
H1314 H 0.28371 0.27461 0.77787 0.0
H1315 H 0.28097 0.14344 0.87501 0.0
H1316 H 0.24766 0.17184 0.86575 0.0
H1317 H 0.32606 0.23621 0.81913 0.0
H1318 H 0.35902 0.20702 0.82785 0.0
H1319 H 0.26453 0.2197 0.8037 0.0
H1320 H 0.32265 0.26508 0.8717 0.0
H1321 H 0.33925 0.26218 0.90961 0.0
H1322 H 0.23241 0.21423 0.92918 0.0
H1323 H 0.21512 0.21644 0.89132 0.0
C1324 C 0.2152 0.33586 0.80967 0.0
C1325 C 0.18375 0.32797 0.81996 0.0
C1326 C 0.23035 0.31515 0.81297 0.0
C1327 C 0.2144 0.28592 0.82655 0.0
C1328 C 0.18318 0.27811 0.83701 0.0
C1329 C 0.16792 0.29882 0.83368 0.0
C1330 C 0.23083 0.2641 0.83017 0.0
C1331 C 0.23915 0.25965 0.85152 0.0
C1332 C 0.24015 0.24948 0.81272 0.0
C1333 C 0.23096 0.25207 0.78986 0.0
C1334 C 0.19634 0.24079 0.784 0.0
C1335 C 0.18793 0.24365 0.76247 0.0
C1336 C 0.21389 0.25755 0.74661 0.0
C1337 C 0.24831 0.26852 0.75223 0.0
C1338 C 0.25686 0.26574 0.77375 0.0
C1339 C 0.29092 0.16331 0.86256 0.0
C1340 C 0.32281 0.17312 0.85229 0.0
C1341 C 0.27193 0.17973 0.85738 0.0
C1342 C 0.2847 0.20687 0.84214 0.0
C1343 C 0.31569 0.21552 0.83105 0.0
C1344 C 0.33452 0.19877 0.83603 0.0
C1345 C 0.26649 0.22706 0.83842 0.0
C1346 C 0.25794 0.23131 0.81707 0.0
C1347 C 0.25723 0.24182 0.85585 0.0
C1348 C 0.26757 0.24061 0.87864 0.0
C1349 C 0.30268 0.2537 0.88407 0.0
C1350 C 0.31221 0.25221 0.90555 0.0
C1351 C 0.28689 0.23794 0.92178 0.0
C1352 C 0.25199 0.22523 0.91658 0.0
C1353 C 0.24231 0.22662 0.89512 0.0
H1354 H 0.29432 0.23681 0.9384 0.0
H1355 H 0.20733 0.25976 0.72994 0.0
loop_
_geom_bond_atom_site_label_1
_geom_bond_atom_site_label_2
_geom_bond_distance
_geom_bond_site_symmetry_2
_ccdc_geom_bond_type
Mg0 O7 2.141 . S
Mg0 O8 2.048 . S
Mg0 O9 2.048 . S
Mg0 O12 2.141 . S
C1 O2 1.313 . S
C1 O8 1.195 . S
O2 C1 1.313 . S
C3 O4 1.245 . S
C3 O12 1.289 . S
O4 C3 1.245 . S
C5 O6 1.245 . S
C5 O7 1.289 . S
O6 C5 1.245 . S
O7 Mg0 2.141 . S
O7 C5 1.289 . S
O8 Mg0 2.048 . S
O8 C1 1.195 . S
O9 Mg0 2.048 . S
O9 C10 1.195 . S
C10 O9 1.195 . S
C10 O11 1.313 . S
O11 C10 1.313 . S
O12 Mg0 2.141 . S
O12 C3 1.289 . S
Mg13 O20 2.141 . S
Mg13 O21 2.048 . S
Mg13 O22 2.048 . S
Mg13 O25 2.141 . S
C14 O15 1.313 . S
C14 O21 1.195 . S
O15 C14 1.313 . S
C16 O17 1.245 . S
C16 O25 1.289 . S
O17 C16 1.245 . S
C18 O19 1.245 . S
C18 O20 1.289 . S
O19 C18 1.245 . S
O20 Mg13 2.141 . S
O20 C18 1.289 . S
O21 Mg13 2.048 . S
O21 C14 1.195 . S
O22 Mg13 2.048 . S
O22 C23 1.195 . S
C23 O22 1.195 . S
C23 O24 1.313 . S
O24 C23 1.313 . S
O25 Mg13 2.141 . S
O25 C16 1.289 . S
Mg26 O33 2.141 . S
Mg26 O34 2.048 . S
Mg26 O35 2.048 . S
Mg26 O38 2.141 . S
C27 O28 1.313 . S
C27 O34 1.195 . S
O28 C27 1.313 . S
C29 O30 1.245 . S
C29 O38 1.289 . S
O30 C29 1.245 . S
C31 O32 1.245 . S
C31 O33 1.289 . S
O32 C31 1.245 . S
O33 Mg26 2.141 . S
O33 C31 1.289 . S
O34 Mg26 2.048 . S
O34 C27 1.195 . S
O35 Mg26 2.048 . S
O35 C36 1.195 . S
C36 O35 1.195 . S
C36 O37 1.313 . S
O37 C36 1.313 . S
O38 Mg26 2.141 . S
O38 C29 1.289 . S
Mg39 O46 2.141 . S
Mg39 O47 2.048 . S
Mg39 O48 2.048 . S
Mg39 O51 2.141 . S
C40 O41 1.313 . S
C40 O47 1.195 . S
O41 C40 1.313 . S
C42 O43 1.245 . S
C42 O51 1.289 . S
O43 C42 1.245 . S
C44 O45 1.245 . S
C44 O46 1.289 . S
O45 C44 1.245 . S
O46 Mg39 2.141 . S
O46 C44 1.289 . S
O47 Mg39 2.048 . S
O47 C40 1.195 . S
O48 Mg39 2.048 . S
O48 C49 1.195 . S
C49 O48 1.195 . S
C49 O50 1.313 . S
O50 C49 1.313 . S
O51 Mg39 2.141 . S
O51 C42 1.289 . S
Mg52 O59 2.141 . S
Mg52 O60 2.048 . S
Mg52 O61 2.048 . S
Mg52 O64 2.141 . S
C53 O54 1.313 . S
C53 O60 1.195 . S
O54 C53 1.313 . S
C55 O56 1.245 . S
C55 O64 1.289 . S
O56 C55 1.245 . S
C57 O58 1.245 . S
C57 O59 1.289 . S
O58 C57 1.245 . S
O59 Mg52 2.141 . S
O59 C57 1.289 . S
O60 Mg52 2.048 . S
O60 C53 1.195 . S
O61 Mg52 2.048 . S
O61 C62 1.195 . S
C62 O61 1.195 . S
C62 O63 1.313 . S
O63 C62 1.313 . S
O64 Mg52 2.141 . S
O64 C55 1.289 . S
Mg65 O72 2.141 . S
Mg65 O73 2.048 . S
Mg65 O74 2.048 . S
Mg65 O77 2.141 . S
C66 O67 1.313 . S
C66 O73 1.195 . S
O67 C66 1.313 . S
C68 O69 1.245 . S
C68 O77 1.289 . S
O69 C68 1.245 . S
C70 O71 1.245 . S
C70 O72 1.289 . S
O71 C70 1.245 . S
O72 Mg65 2.141 . S
O72 C70 1.289 . S
O73 Mg65 2.048 . S
O73 C66 1.195 . S
O74 Mg65 2.048 . S
O74 C75 1.195 . S
C75 O74 1.195 . S
C75 O76 1.313 . S
O76 C75 1.313 . S
O77 Mg65 2.141 . S
O77 C68 1.289 . S
Mg78 O85 2.141 . S
Mg78 O86 2.048 . S
Mg78 O87 2.048 . S
Mg78 O90 2.141 . S
C79 O80 1.313 . S
C79 O86 1.195 . S
O80 C79 1.313 . S
C81 O82 1.245 . S
C81 O90 1.289 . S
O82 C81 1.245 . S
C83 O84 1.245 . S
C83 O85 1.289 . S
O84 C83 1.245 . S
O85 Mg78 2.141 . S
O85 C83 1.289 . S
O86 Mg78 2.048 . S
O86 C79 1.195 . S
O87 Mg78 2.048 . S
O87 C88 1.195 . S
C88 O87 1.195 . S
C88 O89 1.313 . S
O89 C88 1.313 . S
O90 Mg78 2.141 . S
O90 C81 1.289 . S
Mg91 O98 2.141 . S
Mg91 O99 2.048 . S
Mg91 O100 2.048 . S
Mg91 O103 2.141 . S
C92 O93 1.313 . S
C92 O99 1.195 . S
O93 C92 1.313 . S
C94 O95 1.245 . S
C94 O103 1.289 . S
O95 C94 1.245 . S
C96 O97 1.245 . S
C96 O98 1.289 . S
O97 C96 1.245 . S
O98 Mg91 2.141 . S
O98 C96 1.289 . S
O99 Mg91 2.048 . S
O99 C92 1.195 . S
O100 Mg91 2.048 . S
O100 C101 1.195 . S
C101 O100 1.195 . S
C101 O102 1.313 . S
O102 C101 1.313 . S
O103 Mg91 2.141 . S
O103 C94 1.289 . S
Mg104 O111 2.141 . S
Mg104 O112 2.048 . S
Mg104 O113 2.048 . S
Mg104 O116 2.141 . S
C105 O106 1.313 . S
C105 O112 1.195 . S
O106 C105 1.313 . S
C107 O108 1.245 . S
C107 O116 1.289 . S
O108 C107 1.245 . S
C109 O110 1.245 . S
C109 O111 1.289 . S
O110 C109 1.245 . S
O111 Mg104 2.141 . S
O111 C109 1.289 . S
O112 Mg104 2.048 . S
O112 C105 1.195 . S
O113 Mg104 2.048 . S
O113 C114 1.195 . S
C114 O113 1.195 . S
C114 O115 1.313 . S
O115 C114 1.313 . S
O116 Mg104 2.141 . S
O116 C107 1.289 . S
Mg117 O124 2.141 . S
Mg117 O125 2.048 . S
Mg117 O126 2.048 . S
Mg117 O129 2.141 . S
C118 O119 1.313 . S
C118 O125 1.195 . S
O119 C118 1.313 . S
C120 O121 1.245 . S
C120 O129 1.289 . S
O121 C120 1.245 . S
C122 O123 1.245 . S
C122 O124 1.289 . S
O123 C122 1.245 . S
O124 Mg117 2.141 . S
O124 C122 1.289 . S
O125 Mg117 2.048 . S
O125 C118 1.195 . S
O126 Mg117 2.048 . S
O126 C127 1.195 . S
C127 O126 1.195 . S
C127 O128 1.313 . S
O128 C127 1.313 . S
O129 Mg117 2.141 . S
O129 C120 1.289 . S
Mg130 O137 2.141 . S
Mg130 O138 2.048 . S
Mg130 O139 2.048 . S
Mg130 O142 2.141 . S
C131 O132 1.313 . S
C131 O138 1.195 . S
O132 C131 1.313 . S
C133 O134 1.245 . S
C133 O142 1.289 . S
O134 C133 1.245 . S
C135 O136 1.245 . S
C135 O137 1.289 . S
O136 C135 1.245 . S
O137 Mg130 2.141 . S
O137 C135 1.289 . S
O138 Mg130 2.048 . S
O138 C131 1.195 . S
O139 Mg130 2.048 . S
O139 C140 1.195 . S
C140 O139 1.195 . S
C140 O141 1.313 . S
O141 C140 1.313 . S
O142 Mg130 2.141 . S
O142 C133 1.289 . S
Mg143 O150 2.141 . S
Mg143 O151 2.048 . S
Mg143 O152 2.048 . S
Mg143 O155 2.141 . S
C144 O145 1.313 . S
C144 O151 1.195 . S
O145 C144 1.313 . S
C146 O147 1.245 . S
C146 O155 1.289 . S
O147 C146 1.245 . S
C148 O149 1.245 . S
C148 O150 1.289 . S
O149 C148 1.245 . S
O150 Mg143 2.141 . S
O150 C148 1.289 . S
O151 Mg143 2.048 . S
O151 C144 1.195 . S
O152 Mg143 2.048 . S
O152 C153 1.195 . S
C153 O152 1.195 . S
C153 O154 1.313 . S
O154 C153 1.313 . S
O155 Mg143 2.141 . S
O155 C146 1.289 . S
H156 C174 0.951 . S
H157 C176 0.951 . S
H158 C178 0.950 . S
H159 C179 0.950 . S
H160 C181 0.950 . S
H161 C184 0.950 . S
H162 C185 0.950 . S
H163 C187 0.950 . S
H164 C188 0.950 . S
H165 C189 0.951 . S
H166 C191 0.951 . S
H167 C193 0.950 . S
H168 C194 0.950 . S
H169 C196 0.950 . S
H170 C199 0.950 . S
H171 C200 0.950 . S
H172 C202 0.950 . S
H173 C203 0.950 . S
C174 H156 0.951 . S
C174 C175 1.366 . S
C174 C176 1.388 . S
C175 C174 1.366 . S
C175 C179 1.385 . S
C176 H157 0.951 . S
C176 C174 1.388 . S
C176 C177 1.366 . S
C177 C176 1.366 . S
C177 C178 1.414 . S
C177 C180 1.499 . S
C178 H158 0.950 . S
C178 C177 1.414 . S
C178 C179 1.374 . S
C179 H159 0.950 . S
C179 C175 1.385 . S
C179 C178 1.374 . S
C180 C177 1.499 . S
C180 C181 1.373 . S
C180 C182 1.389 . S
C181 H160 0.950 . S
C181 C180 1.373 . S
C181 C197 1.377 . S
C182 C180 1.389 . S
C182 C183 1.524 . S
C182 C196 1.377 . S
C183 C182 1.524 . S
C183 C184 1.397 . S
C183 C188 1.363 . S
C184 H161 0.950 . S
C184 C183 1.397 . S
C184 C185 1.334 . S
C185 H162 0.950 . S
C185 C184 1.334 . S
C185 C186 1.287 . S
C186 C185 1.287 . S
C186 C187 1.524 . S
C186 H205 0.913 . S
C187 H163 0.950 . S
C187 C186 1.524 . S
C187 C188 1.415 . S
C188 H164 0.950 . S
C188 C183 1.363 . S
C188 C187 1.415 . S
C189 H165 0.951 . S
C189 C190 1.366 . S
C189 C191 1.388 . S
C190 C189 1.366 . S
C190 C194 1.385 . S
C191 H166 0.951 . S
C191 C189 1.388 . S
C191 C192 1.366 . S
C192 C191 1.366 . S
C192 C193 1.414 . S
C192 C195 1.499 . S
C193 H167 0.950 . S
C193 C192 1.414 . S
C193 C194 1.374 . S
C194 H168 0.950 . S
C194 C190 1.385 . S
C194 C193 1.374 . S
C195 C192 1.499 . S
C195 C196 1.373 . S
C195 C197 1.389 . S
C196 H169 0.950 . S
C196 C182 1.377 . S
C196 C195 1.373 . S
C197 C181 1.377 . S
C197 C195 1.389 . S
C197 C198 1.524 . S
C198 C197 1.524 . S
C198 C199 1.397 . S
C198 C203 1.363 . S
C199 H170 0.950 . S
C199 C198 1.397 . S
C199 C200 1.334 . S
C200 H171 0.950 . S
C200 C199 1.334 . S
C200 C201 1.287 . S
C201 C200 1.287 . S
C201 C202 1.524 . S
C201 H204 0.999 . S
C202 H172 0.950 . S
C202 C201 1.524 . S
C202 C203 1.415 . S
C203 H173 0.950 . S
C203 C198 1.363 . S
C203 C202 1.415 . S
H204 C201 0.999 . S
H205 C186 0.913 . S
H206 C224 0.951 . S
H207 C226 0.951 . S
H208 C228 0.950 . S
H209 C229 0.950 . S
H210 C231 0.950 . S
H211 C234 0.950 . S
H212 C235 0.950 . S
H213 C237 0.950 . S
H214 C238 0.950 . S
H215 C239 0.951 . S
H216 C241 0.951 . S
H217 C243 0.950 . S
H218 C244 0.950 . S
H219 C246 0.950 . S
H220 C249 0.950 . S
H221 C250 0.950 . S
H222 C252 0.950 . S
H223 C253 0.950 . S
C224 H206 0.951 . S
C224 C225 1.366 . S
C224 C226 1.388 . S
C225 C224 1.366 . S
C225 C229 1.385 . S
C226 H207 0.951 . S
C226 C224 1.388 . S
C226 C227 1.366 . S
C227 C226 1.366 . S
C227 C228 1.414 . S
C227 C230 1.499 . S
C228 H208 0.950 . S
C228 C227 1.414 . S
C228 C229 1.374 . S
C229 H209 0.950 . S
C229 C225 1.385 . S
C229 C228 1.374 . S
C230 C227 1.499 . S
C230 C231 1.373 . S
C230 C232 1.389 . S
C231 H210 0.950 . S
C231 C230 1.373 . S
C231 C247 1.377 . S
C232 C230 1.389 . S
C232 C233 1.524 . S
C232 C246 1.377 . S
C233 C232 1.524 . S
C233 C234 1.397 . S
C233 C238 1.363 . S
C234 H211 0.950 . S
C234 C233 1.397 . S
C234 C235 1.334 . S
C235 H212 0.950 . S
C235 C234 1.334 . S
C235 C236 1.287 . S
C236 C235 1.287 . S
C236 C237 1.524 . S
C236 H255 0.913 . S
C237 H213 0.950 . S
C237 C236 1.524 . S
C237 C238 1.415 . S
C238 H214 0.950 . S
C238 C233 1.363 . S
C238 C237 1.415 . S
C239 H215 0.951 . S
C239 C240 1.366 . S
C239 C241 1.388 . S
C240 C239 1.366 . S
C240 C244 1.385 . S
C241 H216 0.951 . S
C241 C239 1.388 . S
C241 C242 1.366 . S
C242 C241 1.366 . S
C242 C243 1.414 . S
C242 C245 1.499 . S
C243 H217 0.950 . S
C243 C242 1.414 . S
C243 C244 1.374 . S
C244 H218 0.950 . S
C244 C240 1.385 . S
C244 C243 1.374 . S
C245 C242 1.499 . S
C245 C246 1.373 . S
C245 C247 1.389 . S
C246 H219 0.950 . S
C246 C232 1.377 . S
C246 C245 1.373 . S
C247 C231 1.377 . S
C247 C245 1.389 . S
C247 C248 1.524 . S
C248 C247 1.524 . S
C248 C249 1.397 . S
C248 C253 1.363 . S
C249 H220 0.950 . S
C249 C248 1.397 . S
C249 C250 1.334 . S
C250 H221 0.950 . S
C250 C249 1.334 . S
C250 C251 1.287 . S
C251 C250 1.287 . S
C251 C252 1.524 . S
C251 H254 0.999 . S
C252 H222 0.950 . S
C252 C251 1.524 . S
C252 C253 1.415 . S
C253 H223 0.950 . S
C253 C248 1.363 . S
C253 C252 1.415 . S
H254 C251 0.999 . S
H255 C236 0.913 . S
H256 C274 0.951 . S
H257 C276 0.951 . S
H258 C278 0.950 . S
H259 C279 0.950 . S
H260 C281 0.950 . S
H261 C284 0.950 . S
H262 C285 0.950 . S
H263 C287 0.950 . S
H264 C288 0.950 . S
H265 C289 0.951 . S
H266 C291 0.951 . S
H267 C293 0.950 . S
H268 C294 0.950 . S
H269 C296 0.950 . S
H270 C299 0.950 . S
H271 C300 0.950 . S
H272 C302 0.950 . S
H273 C303 0.950 . S
C274 H256 0.951 . S
C274 C275 1.366 . S
C274 C276 1.388 . S
C275 C274 1.366 . S
C275 C279 1.385 . S
C276 H257 0.951 . S
C276 C274 1.388 . S
C276 C277 1.366 . S
C277 C276 1.366 . S
C277 C278 1.414 . S
C277 C280 1.499 . S
C278 H258 0.950 . S
C278 C277 1.414 . S
C278 C279 1.374 . S
C279 H259 0.950 . S
C279 C275 1.385 . S
C279 C278 1.374 . S
C280 C277 1.499 . S
C280 C281 1.373 . S
C280 C282 1.389 . S
C281 H260 0.950 . S
C281 C280 1.373 . S
C281 C297 1.377 . S
C282 C280 1.389 . S
C282 C283 1.524 . S
C282 C296 1.377 . S
C283 C282 1.524 . S
C283 C284 1.397 . S
C283 C288 1.363 . S
C284 H261 0.950 . S
C284 C283 1.397 . S
C284 C285 1.334 . S
C285 H262 0.950 . S
C285 C284 1.334 . S
C285 C286 1.287 . S
C286 C285 1.287 . S
C286 C287 1.524 . S
C286 H305 0.913 . S
C287 H263 0.950 . S
C287 C286 1.524 . S
C287 C288 1.415 . S
C288 H264 0.950 . S
C288 C283 1.363 . S
C288 C287 1.415 . S
C289 H265 0.951 . S
C289 C290 1.366 . S
C289 C291 1.388 . S
C290 C289 1.366 . S
C290 C294 1.385 . S
C291 H266 0.951 . S
C291 C289 1.388 . S
C291 C292 1.366 . S
C292 C291 1.366 . S
C292 C293 1.414 . S
C292 C295 1.499 . S
C293 H267 0.950 . S
C293 C292 1.414 . S
C293 C294 1.374 . S
C294 H268 0.950 . S
C294 C290 1.385 . S
C294 C293 1.374 . S
C295 C292 1.499 . S
C295 C296 1.373 . S
C295 C297 1.389 . S
C296 H269 0.950 . S
C296 C282 1.377 . S
C296 C295 1.373 . S
C297 C281 1.377 . S
C297 C295 1.389 . S
C297 C298 1.524 . S
C298 C297 1.524 . S
C298 C299 1.397 . S
C298 C303 1.363 . S
C299 H270 0.950 . S
C299 C298 1.397 . S
C299 C300 1.334 . S
C300 H271 0.950 . S
C300 C299 1.334 . S
C300 C301 1.287 . S
C301 C300 1.287 . S
C301 C302 1.524 . S
C301 H304 0.999 . S
C302 H272 0.950 . S
C302 C301 1.524 . S
C302 C303 1.415 . S
C303 H273 0.950 . S
C303 C298 1.363 . S
C303 C302 1.415 . S
H304 C301 0.999 . S
H305 C286 0.913 . S
H306 C324 0.951 . S
H307 C326 0.951 . S
H308 C328 0.950 . S
H309 C329 0.950 . S
H310 C331 0.950 . S
H311 C334 0.950 . S
H312 C335 0.950 . S
H313 C337 0.950 . S
H314 C338 0.950 . S
H315 C339 0.951 . S
H316 C341 0.951 . S
H317 C343 0.950 . S
H318 C344 0.950 . S
H319 C346 0.950 . S
H320 C349 0.950 . S
H321 C350 0.950 . S
H322 C352 0.950 . S
H323 C353 0.950 . S
C324 H306 0.951 . S
C324 C325 1.366 . S
C324 C326 1.388 . S
C325 C324 1.366 . S
C325 C329 1.385 . S
C326 H307 0.951 . S
C326 C324 1.388 . S
C326 C327 1.366 . S
C327 C326 1.366 . S
C327 C328 1.414 . S
C327 C330 1.499 . S
C328 H308 0.950 . S
C328 C327 1.414 . S
C328 C329 1.374 . S
C329 H309 0.950 . S
C329 C325 1.385 . S
C329 C328 1.374 . S
C330 C327 1.499 . S
C330 C331 1.373 . S
C330 C332 1.389 . S
C331 H310 0.950 . S
C331 C330 1.373 . S
C331 C347 1.377 . S
C332 C330 1.389 . S
C332 C333 1.524 . S
C332 C346 1.377 . S
C333 C332 1.524 . S
C333 C334 1.397 . S
C333 C338 1.363 . S
C334 H311 0.950 . S
C334 C333 1.397 . S
C334 C335 1.334 . S
C335 H312 0.950 . S
C335 C334 1.334 . S
C335 C336 1.287 . S
C336 C335 1.287 . S
C336 C337 1.524 . S
C336 H355 0.913 . S
C337 H313 0.950 . S
C337 C336 1.524 . S
C337 C338 1.415 . S
C338 H314 0.950 . S
C338 C333 1.363 . S
C338 C337 1.415 . S
C339 H315 0.951 . S
C339 C340 1.366 . S
C339 C341 1.388 . S
C340 C339 1.366 . S
C340 C344 1.385 . S
C341 H316 0.951 . S
C341 C339 1.388 . S
C341 C342 1.366 . S
C342 C341 1.366 . S
C342 C343 1.414 . S
C342 C345 1.499 . S
C343 H317 0.950 . S
C343 C342 1.414 . S
C343 C344 1.374 . S
C344 H318 0.950 . S
C344 C340 1.385 . S
C344 C343 1.374 . S
C345 C342 1.499 . S
C345 C346 1.373 . S
C345 C347 1.389 . S
C346 H319 0.950 . S
C346 C332 1.377 . S
C346 C345 1.373 . S
C347 C331 1.377 . S
C347 C345 1.389 . S
C347 C348 1.524 . S
C348 C347 1.524 . S
C348 C349 1.397 . S
C348 C353 1.363 . S
C349 H320 0.950 . S
C349 C348 1.397 . S
C349 C350 1.334 . S
C350 H321 0.950 . S
C350 C349 1.334 . S
C350 C351 1.287 . S
C351 C350 1.287 . S
C351 C352 1.524 . S
C351 H354 0.999 . S
C352 H322 0.950 . S
C352 C351 1.524 . S
C352 C353 1.415 . S
C353 H323 0.950 . S
C353 C348 1.363 . S
C353 C352 1.415 . S
H354 C351 0.999 . S
H355 C336 0.913 . S
H356 C374 0.951 . S
H357 C376 0.951 . S
H358 C378 0.950 . S
H359 C379 0.950 . S
H360 C381 0.950 . S
H361 C384 0.950 . S
H362 C385 0.950 . S
H363 C387 0.950 . S
H364 C388 0.950 . S
H365 C389 0.951 . S
H366 C391 0.951 . S
H367 C393 0.950 . S
H368 C394 0.950 . S
H369 C396 0.950 . S
H370 C399 0.950 . S
H371 C400 0.950 . S
H372 C402 0.950 . S
H373 C403 0.950 . S
C374 H356 0.951 . S
C374 C375 1.366 . S
C374 C376 1.388 . S
C375 C374 1.366 . S
C375 C379 1.385 . S
C376 H357 0.951 . S
C376 C374 1.388 . S
C376 C377 1.366 . S
C377 C376 1.366 . S
C377 C378 1.414 . S
C377 C380 1.499 . S
C378 H358 0.950 . S
C378 C377 1.414 . S
C378 C379 1.374 . S
C379 H359 0.950 . S
C379 C375 1.385 . S
C379 C378 1.374 . S
C380 C377 1.499 . S
C380 C381 1.373 . S
C380 C382 1.389 . S
C381 H360 0.950 . S
C381 C380 1.373 . S
C381 C397 1.377 . S
C382 C380 1.389 . S
C382 C383 1.524 . S
C382 C396 1.377 . S
C383 C382 1.524 . S
C383 C384 1.397 . S
C383 C388 1.363 . S
C384 H361 0.950 . S
C384 C383 1.397 . S
C384 C385 1.334 . S
C385 H362 0.950 . S
C385 C384 1.334 . S
C385 C386 1.287 . S
C386 C385 1.287 . S
C386 C387 1.524 . S
C386 H405 0.913 . S
C387 H363 0.950 . S
C387 C386 1.524 . S
C387 C388 1.415 . S
C388 H364 0.950 . S
C388 C383 1.363 . S
C388 C387 1.415 . S
C389 H365 0.951 . S
C389 C390 1.366 . S
C389 C391 1.388 . S
C390 C389 1.366 . S
C390 C394 1.385 . S
C391 H366 0.951 . S
C391 C389 1.388 . S
C391 C392 1.366 . S
C392 C391 1.366 . S
C392 C393 1.414 . S
C392 C395 1.499 . S
C393 H367 0.950 . S
C393 C392 1.414 . S
C393 C394 1.374 . S
C394 H368 0.950 . S
C394 C390 1.385 . S
C394 C393 1.374 . S
C395 C392 1.499 . S
C395 C396 1.373 . S
C395 C397 1.389 . S
C396 H369 0.950 . S
C396 C382 1.377 . S
C396 C395 1.373 . S
C397 C381 1.377 . S
C397 C395 1.389 . S
C397 C398 1.524 . S
C398 C397 1.524 . S
C398 C399 1.397 . S
C398 C403 1.363 . S
C399 H370 0.950 . S
C399 C398 1.397 . S
C399 C400 1.334 . S
C400 H371 0.950 . S
C400 C399 1.334 . S
C400 C401 1.287 . S
C401 C400 1.287 . S
C401 C402 1.524 . S
C401 H404 0.999 . S
C402 H372 0.950 . S
C402 C401 1.524 . S
C402 C403 1.415 . S
C403 H373 0.950 . S
C403 C398 1.363 . S
C403 C402 1.415 . S
H404 C401 0.999 . S
H405 C386 0.913 . S
H406 C424 0.951 . S
H407 C426 0.951 . S
H408 C428 0.950 . S
H409 C429 0.950 . S
H410 C431 0.950 . S
H411 C434 0.950 . S
H412 C435 0.950 . S
H413 C437 0.950 . S
H414 C438 0.950 . S
H415 C439 0.951 . S
H416 C441 0.951 . S
H417 C443 0.950 . S
H418 C444 0.950 . S
H419 C446 0.950 . S
H420 C449 0.950 . S
H421 C450 0.950 . S
H422 C452 0.950 . S
H423 C453 0.950 . S
C424 H406 0.951 . S
C424 C425 1.366 . S
C424 C426 1.388 . S
C425 C424 1.366 . S
C425 C429 1.385 . S
C426 H407 0.951 . S
C426 C424 1.388 . S
C426 C427 1.366 . S
C427 C426 1.366 . S
C427 C428 1.414 . S
C427 C430 1.499 . S
C428 H408 0.950 . S
C428 C427 1.414 . S
C428 C429 1.374 . S
C429 H409 0.950 . S
C429 C425 1.385 . S
C429 C428 1.374 . S
C430 C427 1.499 . S
C430 C431 1.373 . S
C430 C432 1.389 . S
C431 H410 0.950 . S
C431 C430 1.373 . S
C431 C447 1.377 . S
C432 C430 1.389 . S
C432 C433 1.524 . S
C432 C446 1.377 . S
C433 C432 1.524 . S
C433 C434 1.397 . S
C433 C438 1.363 . S
C434 H411 0.950 . S
C434 C433 1.397 . S
C434 C435 1.334 . S
C435 H412 0.950 . S
C435 C434 1.334 . S
C435 C436 1.287 . S
C436 C435 1.287 . S
C436 C437 1.524 . S
C436 H455 0.913 . S
C437 H413 0.950 . S
C437 C436 1.524 . S
C437 C438 1.415 . S
C438 H414 0.950 . S
C438 C433 1.363 . S
C438 C437 1.415 . S
C439 H415 0.951 . S
C439 C440 1.366 . S
C439 C441 1.388 . S
C440 C439 1.366 . S
C440 C444 1.385 . S
C441 H416 0.951 . S
C441 C439 1.388 . S
C441 C442 1.366 . S
C442 C441 1.366 . S
C442 C443 1.414 . S
C442 C445 1.499 . S
C443 H417 0.950 . S
C443 C442 1.414 . S
C443 C444 1.374 . S
C444 H418 0.950 . S
C444 C440 1.385 . S
C444 C443 1.374 . S
C445 C442 1.499 . S
C445 C446 1.373 . S
C445 C447 1.389 . S
C446 H419 0.950 . S
C446 C432 1.377 . S
C446 C445 1.373 . S
C447 C431 1.377 . S
C447 C445 1.389 . S
C447 C448 1.524 . S
C448 C447 1.524 . S
C448 C449 1.397 . S
C448 C453 1.363 . S
C449 H420 0.950 . S
C449 C448 1.397 . S
C449 C450 1.334 . S
C450 H421 0.950 . S
C450 C449 1.334 . S
C450 C451 1.287 . S
C451 C450 1.287 . S
C451 C452 1.524 . S
C451 H454 0.999 . S
C452 H422 0.950 . S
C452 C451 1.524 . S
C452 C453 1.415 . S
C453 H423 0.950 . S
C453 C448 1.363 . S
C453 C452 1.415 . S
H454 C451 0.999 . S
H455 C436 0.913 . S
H456 C474 0.951 . S
H457 C476 0.951 . S
H458 C478 0.950 . S
H459 C479 0.950 . S
H460 C481 0.950 . S
H461 C484 0.950 . S
H462 C485 0.950 . S
H463 C487 0.950 . S
H464 C488 0.950 . S
H465 C489 0.951 . S
H466 C491 0.951 . S
H467 C493 0.950 . S
H468 C494 0.950 . S
H469 C496 0.950 . S
H470 C499 0.950 . S
H471 C500 0.950 . S
H472 C502 0.950 . S
H473 C503 0.950 . S
C474 H456 0.951 . S
C474 C475 1.366 . S
C474 C476 1.388 . S
C475 C474 1.366 . S
C475 C479 1.385 . S
C476 H457 0.951 . S
C476 C474 1.388 . S
C476 C477 1.366 . S
C477 C476 1.366 . S
C477 C478 1.414 . S
C477 C480 1.499 . S
C478 H458 0.950 . S
C478 C477 1.414 . S
C478 C479 1.374 . S
C479 H459 0.950 . S
C479 C475 1.385 . S
C479 C478 1.374 . S
C480 C477 1.499 . S
C480 C481 1.373 . S
C480 C482 1.389 . S
C481 H460 0.950 . S
C481 C480 1.373 . S
C481 C497 1.377 . S
C482 C480 1.389 . S
C482 C483 1.524 . S
C482 C496 1.377 . S
C483 C482 1.524 . S
C483 C484 1.397 . S
C483 C488 1.363 . S
C484 H461 0.950 . S
C484 C483 1.397 . S
C484 C485 1.334 . S
C485 H462 0.950 . S
C485 C484 1.334 . S
C485 C486 1.287 . S
C486 C485 1.287 . S
C486 C487 1.524 . S
C486 H505 0.913 . S
C487 H463 0.950 . S
C487 C486 1.524 . S
C487 C488 1.415 . S
C488 H464 0.950 . S
C488 C483 1.363 . S
C488 C487 1.415 . S
C489 H465 0.951 . S
C489 C490 1.366 . S
C489 C491 1.388 . S
C490 C489 1.366 . S
C490 C494 1.385 . S
C491 H466 0.951 . S
C491 C489 1.388 . S
C491 C492 1.366 . S
C492 C491 1.366 . S
C492 C493 1.414 . S
C492 C495 1.499 . S
C493 H467 0.950 . S
C493 C492 1.414 . S
C493 C494 1.374 . S
C494 H468 0.950 . S
C494 C490 1.385 . S
C494 C493 1.374 . S
C495 C492 1.499 . S
C495 C496 1.373 . S
C495 C497 1.389 . S
C496 H469 0.950 . S
C496 C482 1.377 . S
C496 C495 1.373 . S
C497 C481 1.377 . S
C497 C495 1.389 . S
C497 C498 1.524 . S
C498 C497 1.524 . S
C498 C499 1.397 . S
C498 C503 1.363 . S
C499 H470 0.950 . S
C499 C498 1.397 . S
C499 C500 1.334 . S
C500 H471 0.950 . S
C500 C499 1.334 . S
C500 C501 1.287 . S
C501 C500 1.287 . S
C501 C502 1.524 . S
C501 H504 0.999 . S
C502 H472 0.950 . S
C502 C501 1.524 . S
C502 C503 1.415 . S
C503 H473 0.950 . S
C503 C498 1.363 . S
C503 C502 1.415 . S
H504 C501 0.999 . S
H505 C486 0.913 . S
H506 C524 0.951 . S
H507 C526 0.951 . S
H508 C528 0.950 . S
H509 C529 0.950 . S
H510 C531 0.963 . S
H511 C534 0.950 . S
H512 C535 0.950 . S
H513 C537 0.950 . S
H514 C538 0.950 . S
H515 C539 0.951 . S
H516 C541 0.951 . S
H517 C543 0.950 . S
H518 C544 0.950 . S
H519 C546 0.963 . S
H520 C549 0.950 . S
H521 C550 0.950 . S
H522 C552 0.950 . S
H523 C553 0.950 . S
C524 H506 0.951 . S
C524 C525 1.366 . S
C524 C526 1.388 . S
C525 C524 1.366 . S
C525 C529 1.385 . S
C526 H507 0.951 . S
C526 C524 1.388 . S
C526 C527 1.366 . S
C527 C526 1.366 . S
C527 C528 1.414 . S
C527 C530 1.499 . S
C528 H508 0.950 . S
C528 C527 1.414 . S
C528 C529 1.374 . S
C529 H509 0.950 . S
C529 C525 1.385 . S
C529 C528 1.374 . S
C530 C527 1.499 . S
C530 C531 1.359 1_455 S
C530 C532 1.389 . S
C531 H510 0.963 . S
C531 C530 1.359 1_655 S
C531 C547 1.379 . S
C532 C530 1.389 . S
C532 C533 1.524 . S
C532 C546 1.379 . S
C533 C532 1.524 . S
C533 C534 1.397 . S
C533 C538 1.363 . S
C534 H511 0.950 . S
C534 C533 1.397 . S
C534 C535 1.334 . S
C535 H512 0.950 . S
C535 C534 1.334 . S
C535 C536 1.287 . S
C536 C535 1.287 . S
C536 C537 1.524 . S
C536 H555 0.913 . S
C537 H513 0.950 . S
C537 C536 1.524 . S
C537 C538 1.415 . S
C538 H514 0.950 . S
C538 C533 1.363 . S
C538 C537 1.415 . S
C539 H515 0.951 . S
C539 C540 1.366 . S
C539 C541 1.388 . S
C540 C539 1.366 . S
C540 C544 1.385 . S
C541 H516 0.951 . S
C541 C539 1.388 . S
C541 C542 1.366 . S
C542 C541 1.366 . S
C542 C543 1.414 . S
C542 C545 1.499 . S
C543 H517 0.950 . S
C543 C542 1.414 . S
C543 C544 1.374 . S
C544 H518 0.950 . S
C544 C540 1.385 . S
C544 C543 1.374 . S
C545 C542 1.499 . S
C545 C546 1.359 1_655 S
C545 C547 1.389 . S
C546 H519 0.963 . S
C546 C532 1.379 . S
C546 C545 1.359 1_455 S
C547 C531 1.379 . S
C547 C545 1.389 . S
C547 C548 1.524 . S
C548 C547 1.524 . S
C548 C549 1.397 . S
C548 C553 1.363 . S
C549 H520 0.950 . S
C549 C548 1.397 . S
C549 C550 1.334 . S
C550 H521 0.950 . S
C550 C549 1.334 . S
C550 C551 1.287 . S
C551 C550 1.287 . S
C551 C552 1.524 . S
C551 H554 0.999 . S
C552 H522 0.950 . S
C552 C551 1.524 . S
C552 C553 1.415 . S
C553 H523 0.950 . S
C553 C548 1.363 . S
C553 C552 1.415 . S
H554 C551 0.999 . S
H555 C536 0.913 . S
H556 C574 0.951 . S
H557 C576 0.951 . S
H558 C578 0.950 . S
H559 C579 0.950 . S
H560 C581 0.950 . S
H561 C584 0.950 . S
H562 C585 0.950 . S
H563 C587 0.950 . S
H564 C588 0.950 . S
H565 C589 0.951 . S
H566 C591 0.951 . S
H567 C593 0.950 . S
H568 C594 0.950 . S
H569 C596 0.950 . S
H570 C599 0.950 . S
H571 C600 0.950 . S
H572 C602 0.950 . S
H573 C603 0.950 . S
C574 H556 0.951 . S
C574 C575 1.366 . S
C574 C576 1.388 . S
C575 C574 1.366 . S
C575 C579 1.385 . S
C576 H557 0.951 . S
C576 C574 1.388 . S
C576 C577 1.366 . S
C577 C576 1.366 . S
C577 C578 1.414 . S
C577 C580 1.499 . S
C578 H558 0.950 . S
C578 C577 1.414 . S
C578 C579 1.374 . S
C579 H559 0.950 . S
C579 C575 1.385 . S
C579 C578 1.374 . S
C580 C577 1.499 . S
C580 C581 1.373 1_545 S
C580 C582 1.389 . S
C581 H560 0.950 . S
C581 C580 1.373 1_565 S
C581 C597 1.377 . S
C582 C580 1.389 . S
C582 C583 1.524 . S
C582 C596 1.377 . S
C583 C582 1.524 . S
C583 C584 1.397 . S
C583 C588 1.363 . S
C584 H561 0.950 . S
C584 C583 1.397 . S
C584 C585 1.334 . S
C585 H562 0.950 . S
C585 C584 1.334 . S
C585 C586 1.287 . S
C586 C585 1.287 . S
C586 C587 1.524 . S
C586 H605 0.913 . S
C587 H563 0.950 . S
C587 C586 1.524 . S
C587 C588 1.415 . S
C588 H564 0.950 . S
C588 C583 1.363 . S
C588 C587 1.415 . S
C589 H565 0.951 . S
C589 C590 1.366 . S
C589 C591 1.388 . S
C590 C589 1.366 . S
C590 C594 1.385 . S
C591 H566 0.951 . S
C591 C589 1.388 . S
C591 C592 1.366 . S
C592 C591 1.366 . S
C592 C593 1.414 . S
C592 C595 1.499 . S
C593 H567 0.950 . S
C593 C592 1.414 . S
C593 C594 1.374 . S
C594 H568 0.950 . S
C594 C590 1.385 . S
C594 C593 1.374 . S
C595 C592 1.499 . S
C595 C596 1.373 1_565 S
C595 C597 1.389 . S
C596 H569 0.950 . S
C596 C582 1.377 . S
C596 C595 1.373 1_545 S
C597 C581 1.377 . S
C597 C595 1.389 . S
C597 C598 1.524 . S
C598 C597 1.524 . S
C598 C599 1.397 . S
C598 C603 1.363 . S
C599 H570 0.950 . S
C599 C598 1.397 . S
C599 C600 1.334 . S
C600 H571 0.950 . S
C600 C599 1.334 . S
C600 C601 1.287 . S
C601 C600 1.287 . S
C601 C602 1.524 . S
C601 H604 0.999 . S
C602 H572 0.950 . S
C602 C601 1.524 . S
C602 C603 1.415 . S
C603 H573 0.950 . S
C603 C598 1.363 . S
C603 C602 1.415 . S
H604 C601 0.999 . S
H605 C586 0.913 . S
H606 C624 0.951 . S
H607 C626 0.951 . S
H608 C628 0.950 . S
H609 C629 0.950 . S
H610 C631 0.950 . S
H611 C634 0.950 . S
H612 C635 0.950 . S
H613 C637 0.950 . S
H614 C638 0.950 . S
H615 C639 0.951 . S
H616 C641 0.951 . S
H617 C643 0.950 . S
H618 C644 0.950 . S
H619 C646 0.950 . S
H620 C649 0.950 . S
H621 C650 0.950 . S
H622 C652 0.950 . S
H623 C653 0.950 . S
C624 H606 0.951 . S
C624 C625 1.366 . S
C624 C626 1.388 . S
C625 C624 1.366 . S
C625 C629 1.385 . S
C626 H607 0.951 . S
C626 C624 1.388 . S
C626 C627 1.366 . S
C627 C626 1.366 . S
C627 C628 1.414 . S
C627 C630 1.499 . S
C628 H608 0.950 . S
C628 C627 1.414 . S
C628 C629 1.374 . S
C629 H609 0.950 . S
C629 C625 1.385 . S
C629 C628 1.374 . S
C630 C627 1.499 . S
C630 C631 1.373 . S
C630 C632 1.389 . S
C631 H610 0.950 . S
C631 C630 1.373 . S
C631 C647 1.377 . S
C632 C630 1.389 . S
C632 C633 1.524 . S
C632 C646 1.377 . S
C633 C632 1.524 . S
C633 C634 1.397 . S
C633 C638 1.363 . S
C634 H611 0.950 . S
C634 C633 1.397 . S
C634 C635 1.334 . S
C635 H612 0.950 . S
C635 C634 1.334 . S
C635 C636 1.287 . S
C636 C635 1.287 . S
C636 C637 1.524 . S
C636 H655 0.913 . S
C637 H613 0.950 . S
C637 C636 1.524 . S
C637 C638 1.415 . S
C638 H614 0.950 . S
C638 C633 1.363 . S
C638 C637 1.415 . S
C639 H615 0.951 . S
C639 C640 1.366 . S
C639 C641 1.388 . S
C640 C639 1.366 . S
C640 C644 1.385 . S
C641 H616 0.951 . S
C641 C639 1.388 . S
C641 C642 1.366 . S
C642 C641 1.366 . S
C642 C643 1.414 . S
C642 C645 1.499 . S
C643 H617 0.950 . S
C643 C642 1.414 . S
C643 C644 1.374 . S
C644 H618 0.950 . S
C644 C640 1.385 . S
C644 C643 1.374 . S
C645 C642 1.499 . S
C645 C646 1.373 . S
C645 C647 1.389 . S
C646 H619 0.950 . S
C646 C632 1.377 . S
C646 C645 1.373 . S
C647 C631 1.377 . S
C647 C645 1.389 . S
C647 C648 1.524 . S
C648 C647 1.524 . S
C648 C649 1.397 . S
C648 C653 1.363 . S
C649 H620 0.950 . S
C649 C648 1.397 . S
C649 C650 1.334 . S
C650 H621 0.950 . S
C650 C649 1.334 . S
C650 C651 1.287 . S
C651 C650 1.287 . S
C651 C652 1.524 . S
C651 H654 0.999 . S
C652 H622 0.950 . S
C652 C651 1.524 . S
C652 C653 1.415 . S
C653 H623 0.950 . S
C653 C648 1.363 . S
C653 C652 1.415 . S
H654 C651 0.999 . S
H655 C636 0.913 . S
H656 C674 0.951 . S
H657 C676 0.951 . S
H658 C678 0.950 . S
H659 C679 0.950 . S
H660 C681 0.950 . S
H661 C684 0.932 1_655 S
H662 C685 0.950 1_655 S
H663 C687 0.950 . S
H664 C688 0.950 . S
H665 C689 0.951 . S
H666 C691 0.951 . S
H667 C693 0.950 . S
H668 C694 0.950 . S
H669 C696 0.950 . S
H670 C699 0.932 1_455 S
H671 C700 0.950 1_455 S
H672 C702 0.950 . S
H673 C703 0.950 . S
C674 H656 0.951 . S
C674 C675 1.366 . S
C674 C676 1.388 . S
C675 C674 1.366 . S
C675 C679 1.385 . S
C676 H657 0.951 . S
C676 C674 1.388 . S
C676 C677 1.366 . S
C677 C676 1.366 . S
C677 C678 1.414 . S
C677 C680 1.499 . S
C678 H658 0.950 . S
C678 C677 1.414 . S
C678 C679 1.374 . S
C679 H659 0.950 . S
C679 C675 1.385 . S
C679 C678 1.374 . S
C680 C677 1.499 . S
C680 C681 1.373 . S
C680 C682 1.389 1_655 S
C681 H660 0.950 . S
C681 C680 1.373 . S
C681 C697 1.377 . S
C682 C680 1.389 1_455 S
C682 C683 1.524 . S
C682 C696 1.377 . S
C683 C682 1.524 . S
C683 C684 1.419 . S
C683 C688 1.363 . S
C684 H661 0.932 1_455 S
C684 C683 1.419 . S
C684 C685 1.330 . S
C685 H662 0.950 1_455 S
C685 C684 1.330 . S
C685 C686 1.287 . S
C686 C685 1.287 . S
C686 C687 1.524 . S
C686 H705 0.913 . S
C687 H663 0.950 . S
C687 C686 1.524 . S
C687 C688 1.415 . S
C688 H664 0.950 . S
C688 C683 1.363 . S
C688 C687 1.415 . S
C689 H665 0.951 . S
C689 C690 1.366 . S
C689 C691 1.388 . S
C690 C689 1.366 . S
C690 C694 1.385 . S
C691 H666 0.951 . S
C691 C689 1.388 . S
C691 C692 1.366 . S
C692 C691 1.366 . S
C692 C693 1.414 . S
C692 C695 1.499 . S
C693 H667 0.950 . S
C693 C692 1.414 . S
C693 C694 1.374 . S
C694 H668 0.950 . S
C694 C690 1.385 . S
C694 C693 1.374 . S
C695 C692 1.499 . S
C695 C696 1.373 . S
C695 C697 1.389 1_455 S
C696 H669 0.950 . S
C696 C682 1.377 . S
C696 C695 1.373 . S
C697 C681 1.377 . S
C697 C695 1.389 1_655 S
C697 C698 1.524 . S
C698 C697 1.524 . S
C698 C699 1.419 . S
C698 C703 1.363 . S
C699 H670 0.932 1_655 S
C699 C698 1.419 . S
C699 C700 1.330 . S
C700 H671 0.950 1_655 S
C700 C699 1.330 . S
C700 C701 1.287 . S
C701 C700 1.287 . S
C701 C702 1.524 . S
C701 H704 0.999 . S
C702 H672 0.950 . S
C702 C701 1.524 . S
C702 C703 1.415 . S
C703 H673 0.950 . S
C703 C698 1.363 . S
C703 C702 1.415 . S
H704 C701 0.999 . S
H705 C686 0.913 . S
H706 C724 0.951 . S
H707 C726 0.951 . S
H708 C728 0.950 . S
H709 C729 0.950 . S
H710 C731 0.950 . S
H711 C734 0.945 . S
H712 C735 0.950 1_565 S
H713 C737 0.950 . S
H714 C738 0.950 . S
H715 C739 0.951 . S
H716 C741 0.951 . S
H717 C743 0.950 . S
H718 C744 0.950 . S
H719 C746 0.950 . S
H720 C749 0.945 . S
H721 C750 0.950 1_545 S
H722 C752 0.950 . S
H723 C753 0.950 . S
C724 H706 0.951 . S
C724 C725 1.366 . S
C724 C726 1.388 . S
C725 C724 1.366 . S
C725 C729 1.385 . S
C726 H707 0.951 . S
C726 C724 1.388 . S
C726 C727 1.366 . S
C727 C726 1.366 . S
C727 C728 1.414 . S
C727 C730 1.499 . S
C728 H708 0.950 . S
C728 C727 1.414 . S
C728 C729 1.374 . S
C729 H709 0.950 . S
C729 C725 1.385 . S
C729 C728 1.374 . S
C730 C727 1.499 . S
C730 C731 1.373 . S
C730 C732 1.389 1_565 S
C731 H710 0.950 . S
C731 C730 1.373 . S
C731 C747 1.377 . S
C732 C730 1.389 1_545 S
C732 C733 1.524 . S
C732 C746 1.377 . S
C733 C732 1.524 . S
C733 C734 1.398 1_545 S
C733 C738 1.363 . S
C734 H711 0.945 . S
C734 C733 1.398 1_565 S
C734 C735 1.337 1_565 S
C735 H712 0.950 1_545 S
C735 C734 1.337 1_545 S
C735 C736 1.287 . S
C736 C735 1.287 . S
C736 C737 1.524 . S
C736 H755 0.913 . S
C737 H713 0.950 . S
C737 C736 1.524 . S
C737 C738 1.415 . S
C738 H714 0.950 . S
C738 C733 1.363 . S
C738 C737 1.415 . S
C739 H715 0.951 . S
C739 C740 1.366 . S
C739 C741 1.388 . S
C740 C739 1.366 . S
C740 C744 1.385 . S
C741 H716 0.951 . S
C741 C739 1.388 . S
C741 C742 1.366 . S
C742 C741 1.366 . S
C742 C743 1.414 . S
C742 C745 1.499 . S
C743 H717 0.950 . S
C743 C742 1.414 . S
C743 C744 1.374 . S
C744 H718 0.950 . S
C744 C740 1.385 . S
C744 C743 1.374 . S
C745 C742 1.499 . S
C745 C746 1.373 . S
C745 C747 1.389 1_545 S
C746 H719 0.950 . S
C746 C732 1.377 . S
C746 C745 1.373 . S
C747 C731 1.377 . S
C747 C745 1.389 1_565 S
C747 C748 1.524 . S
C748 C747 1.524 . S
C748 C749 1.398 1_565 S
C748 C753 1.363 . S
C749 H720 0.945 . S
C749 C748 1.398 1_545 S
C749 C750 1.337 1_545 S
C750 H721 0.950 1_565 S
C750 C749 1.337 1_565 S
C750 C751 1.287 . S
C751 C750 1.287 . S
C751 C752 1.524 . S
C751 H754 0.999 . S
C752 H722 0.950 . S
C752 C751 1.524 . S
C752 C753 1.415 . S
C753 H723 0.950 . S
C753 C748 1.363 . S
C753 C752 1.415 . S
H754 C751 0.999 . S
H755 C736 0.913 . S
H756 C774 0.951 . S
H757 C776 0.951 . S
H758 C778 0.950 . S
H759 C779 0.950 . S
H760 C781 0.950 . S
H761 C784 0.950 . S
H762 C785 0.950 . S
H763 C787 0.950 . S
H764 C788 0.950 . S
H765 C789 0.951 . S
H766 C791 0.951 . S
H767 C793 0.950 . S
H768 C794 0.950 . S
H769 C796 0.950 . S
H770 C799 0.950 . S
H771 C800 0.950 . S
H772 C802 0.950 . S
H773 C803 0.950 . S
C774 H756 0.951 . S
C774 C775 1.366 . S
C774 C776 1.388 . S
C775 C774 1.366 . S
C775 C779 1.385 . S
C776 H757 0.951 . S
C776 C774 1.388 . S
C776 C777 1.366 . S
C777 C776 1.366 . S
C777 C778 1.414 . S
C777 C780 1.499 . S
C778 H758 0.950 . S
C778 C777 1.414 . S
C778 C779 1.374 . S
C779 H759 0.950 . S
C779 C775 1.385 . S
C779 C778 1.374 . S
C780 C777 1.499 . S
C780 C781 1.373 . S
C780 C782 1.389 . S
C781 H760 0.950 . S
C781 C780 1.373 . S
C781 C797 1.377 . S
C782 C780 1.389 . S
C782 C783 1.524 . S
C782 C796 1.377 . S
C783 C782 1.524 . S
C783 C784 1.397 . S
C783 C788 1.363 . S
C784 H761 0.950 . S
C784 C783 1.397 . S
C784 C785 1.334 . S
C785 H762 0.950 . S
C785 C784 1.334 . S
C785 C786 1.287 . S
C786 C785 1.287 . S
C786 C787 1.524 . S
C786 H805 0.913 . S
C787 H763 0.950 . S
C787 C786 1.524 . S
C787 C788 1.415 . S
C788 H764 0.950 . S
C788 C783 1.363 . S
C788 C787 1.415 . S
C789 H765 0.951 . S
C789 C790 1.366 . S
C789 C791 1.388 . S
C790 C789 1.366 . S
C790 C794 1.385 . S
C791 H766 0.951 . S
C791 C789 1.388 . S
C791 C792 1.366 . S
C792 C791 1.366 . S
C792 C793 1.414 . S
C792 C795 1.499 . S
C793 H767 0.950 . S
C793 C792 1.414 . S
C793 C794 1.374 . S
C794 H768 0.950 . S
C794 C790 1.385 . S
C794 C793 1.374 . S
C795 C792 1.499 . S
C795 C796 1.373 . S
C795 C797 1.389 . S
C796 H769 0.950 . S
C796 C782 1.377 . S
C796 C795 1.373 . S
C797 C781 1.377 . S
C797 C795 1.389 . S
C797 C798 1.524 . S
C798 C797 1.524 . S
C798 C799 1.397 . S
C798 C803 1.363 . S
C799 H770 0.950 . S
C799 C798 1.397 . S
C799 C800 1.334 . S
C800 H771 0.950 . S
C800 C799 1.334 . S
C800 C801 1.287 . S
C801 C800 1.287 . S
C801 C802 1.524 . S
C801 H804 0.999 . S
C802 H772 0.950 . S
C802 C801 1.524 . S
C802 C803 1.415 . S
C803 H773 0.950 . S
C803 C798 1.363 . S
C803 C802 1.415 . S
H804 C801 0.999 . S
H805 C786 0.913 . S
H806 C824 0.951 . S
H807 C826 0.951 1_455 S
H808 C828 0.950 . S
H809 C829 0.950 . S
H810 C831 0.950 . S
H811 C834 0.950 1_655 S
H812 C835 0.950 . S
H813 C837 0.950 . S
H814 C838 0.950 . S
H815 C839 0.951 . S
H816 C841 0.951 1_655 S
H817 C843 0.950 . S
H818 C844 0.950 . S
H819 C846 0.950 . S
H820 C849 0.950 1_455 S
H821 C850 0.950 . S
H822 C852 0.950 . S
H823 C853 0.950 . S
C824 H806 0.951 . S
C824 C825 1.366 . S
C824 C826 1.388 . S
C825 C824 1.366 . S
C825 C829 1.385 . S
C826 H807 0.951 1_655 S
C826 C824 1.388 . S
C826 C827 1.366 . S
C827 C826 1.366 . S
C827 C828 1.414 . S
C827 C830 1.499 . S
C828 H808 0.950 . S
C828 C827 1.414 . S
C828 C829 1.374 . S
C829 H809 0.950 . S
C829 C825 1.385 . S
C829 C828 1.374 . S
C830 C827 1.499 . S
C830 C831 1.373 . S
C830 C832 1.389 1_655 S
C831 H810 0.950 . S
C831 C830 1.373 . S
C831 C847 1.377 . S
C832 C830 1.389 1_455 S
C832 C833 1.524 . S
C832 C846 1.377 . S
C833 C832 1.524 . S
C833 C834 1.397 . S
C833 C838 1.363 . S
C834 H811 0.950 1_455 S
C834 C833 1.397 . S
C834 C835 1.334 . S
C835 H812 0.950 . S
C835 C834 1.334 . S
C835 C836 1.287 . S
C836 C835 1.287 . S
C836 C837 1.524 . S
C836 H855 0.913 . S
C837 H813 0.950 . S
C837 C836 1.524 . S
C837 C838 1.415 . S
C838 H814 0.950 . S
C838 C833 1.363 . S
C838 C837 1.415 . S
C839 H815 0.951 . S
C839 C840 1.366 . S
C839 C841 1.388 . S
C840 C839 1.366 . S
C840 C844 1.385 . S
C841 H816 0.951 1_455 S
C841 C839 1.388 . S
C841 C842 1.366 . S
C842 C841 1.366 . S
C842 C843 1.414 . S
C842 C845 1.499 . S
C843 H817 0.950 . S
C843 C842 1.414 . S
C843 C844 1.374 . S
C844 H818 0.950 . S
C844 C840 1.385 . S
C844 C843 1.374 . S
C845 C842 1.499 . S
C845 C846 1.373 . S
C845 C847 1.389 1_455 S
C846 H819 0.950 . S
C846 C832 1.377 . S
C846 C845 1.373 . S
C847 C831 1.377 . S
C847 C845 1.389 1_655 S
C847 C848 1.524 . S
C848 C847 1.524 . S
C848 C849 1.397 . S
C848 C853 1.363 . S
C849 H820 0.950 1_655 S
C849 C848 1.397 . S
C849 C850 1.334 . S
C850 H821 0.950 . S
C850 C849 1.334 . S
C850 C851 1.287 . S
C851 C850 1.287 . S
C851 C852 1.524 . S
C851 H854 0.999 . S
C852 H822 0.950 . S
C852 C851 1.524 . S
C852 C853 1.415 . S
C853 H823 0.950 . S
C853 C848 1.363 . S
C853 C852 1.415 . S
H854 C851 0.999 . S
H855 C836 0.913 . S
H856 C874 0.951 . S
H857 C876 0.951 . S
H858 C878 0.950 . S
H859 C879 0.950 . S
H860 C881 0.955 . S
H861 C884 0.950 . S
H862 C885 0.950 . S
H863 C887 0.950 . S
H864 C888 0.950 1_545 S
H865 C889 0.951 . S
H866 C891 0.951 . S
H867 C893 0.950 . S
H868 C894 0.950 . S
H869 C896 0.955 . S
H870 C899 0.950 . S
H871 C900 0.950 . S
H872 C902 0.950 . S
H873 C903 0.950 1_565 S
C874 H856 0.951 . S
C874 C875 1.366 . S
C874 C876 1.388 . S
C875 C874 1.366 . S
C875 C879 1.385 . S
C876 H857 0.951 . S
C876 C874 1.388 . S
C876 C877 1.366 . S
C877 C876 1.366 . S
C877 C878 1.414 . S
C877 C880 1.499 . S
C878 H858 0.950 . S
C878 C877 1.414 . S
C878 C879 1.374 . S
C879 H859 0.950 . S
C879 C875 1.385 . S
C879 C878 1.374 . S
C880 C877 1.499 . S
C880 C881 1.387 . S
C880 C882 1.389 . S
C881 H860 0.955 . S
C881 C880 1.387 . S
C881 C897 1.370 1_566 S
C882 C880 1.389 . S
C882 C883 1.524 . S
C882 C896 1.370 1_566 S
C883 C882 1.524 . S
C883 C884 1.397 . S
C883 C888 1.363 . S
C884 H861 0.950 . S
C884 C883 1.397 . S
C884 C885 1.334 . S
C885 H862 0.950 . S
C885 C884 1.334 . S
C885 C886 1.287 . S
C886 C885 1.287 . S
C886 C887 1.524 . S
C886 H905 0.913 . S
C887 H863 0.950 . S
C887 C886 1.524 . S
C887 C888 1.415 . S
C888 H864 0.950 1_565 S
C888 C883 1.363 . S
C888 C887 1.415 . S
C889 H865 0.951 . S
C889 C890 1.366 . S
C889 C891 1.388 . S
C890 C889 1.366 . S
C890 C894 1.385 . S
C891 H866 0.951 . S
C891 C889 1.388 . S
C891 C892 1.366 . S
C892 C891 1.366 . S
C892 C893 1.414 . S
C892 C895 1.499 . S
C893 H867 0.950 . S
C893 C892 1.414 . S
C893 C894 1.374 . S
C894 H868 0.950 . S
C894 C890 1.385 . S
C894 C893 1.374 . S
C895 C892 1.499 . S
C895 C896 1.387 . S
C895 C897 1.389 . S
C896 H869 0.955 . S
C896 C882 1.370 1_544 S
C896 C895 1.387 . S
C897 C881 1.370 1_544 S
C897 C895 1.389 . S
C897 C898 1.524 . S
C898 C897 1.524 . S
C898 C899 1.397 . S
C898 C903 1.363 . S
C899 H870 0.950 . S
C899 C898 1.397 . S
C899 C900 1.334 . S
C900 H871 0.950 . S
C900 C899 1.334 . S
C900 C901 1.287 . S
C901 C900 1.287 . S
C901 C902 1.524 . S
C901 H904 0.999 . S
C902 H872 0.950 . S
C902 C901 1.524 . S
C902 C903 1.415 . S
C903 H873 0.950 1_545 S
C903 C898 1.363 . S
C903 C902 1.415 . S
H904 C901 0.999 . S
H905 C886 0.913 . S
H906 C924 0.951 . S
H907 C926 0.951 . S
H908 C928 0.950 . S
H909 C929 0.950 . S
H910 C931 0.950 . S
H911 C934 0.950 . S
H912 C935 0.950 . S
H913 C937 0.950 . S
H914 C938 0.950 . S
H915 C939 0.951 . S
H916 C941 0.951 . S
H917 C943 0.950 . S
H918 C944 0.950 . S
H919 C946 0.950 . S
H920 C949 0.950 . S
H921 C950 0.950 . S
H922 C952 0.950 . S
H923 C953 0.950 . S
C924 H906 0.951 . S
C924 C925 1.366 . S
C924 C926 1.388 . S
C925 C924 1.366 . S
C925 C929 1.385 . S
C926 H907 0.951 . S
C926 C924 1.388 . S
C926 C927 1.366 . S
C927 C926 1.366 . S
C927 C928 1.414 . S
C927 C930 1.499 . S
C928 H908 0.950 . S
C928 C927 1.414 . S
C928 C929 1.374 . S
C929 H909 0.950 . S
C929 C925 1.385 . S
C929 C928 1.374 . S
C930 C927 1.499 . S
C930 C931 1.373 . S
C930 C932 1.389 . S
C931 H910 0.950 . S
C931 C930 1.373 . S
C931 C947 1.377 . S
C932 C930 1.389 . S
C932 C933 1.524 . S
C932 C946 1.377 . S
C933 C932 1.524 . S
C933 C934 1.397 . S
C933 C938 1.363 . S
C934 H911 0.950 . S
C934 C933 1.397 . S
C934 C935 1.334 . S
C935 H912 0.950 . S
C935 C934 1.334 . S
C935 C936 1.287 . S
C936 C935 1.287 . S
C936 C937 1.524 . S
C936 H955 0.913 . S
C937 H913 0.950 . S
C937 C936 1.524 . S
C937 C938 1.415 . S
C938 H914 0.950 . S
C938 C933 1.363 . S
C938 C937 1.415 . S
C939 H915 0.951 . S
C939 C940 1.366 . S
C939 C941 1.388 . S
C940 C939 1.366 . S
C940 C944 1.385 . S
C941 H916 0.951 . S
C941 C939 1.388 . S
C941 C942 1.366 . S
C942 C941 1.366 . S
C942 C943 1.414 . S
C942 C945 1.499 . S
C943 H917 0.950 . S
C943 C942 1.414 . S
C943 C944 1.374 . S
C944 H918 0.950 . S
C944 C940 1.385 . S
C944 C943 1.374 . S
C945 C942 1.499 . S
C945 C946 1.373 . S
C945 C947 1.389 . S
C946 H919 0.950 . S
C946 C932 1.377 . S
C946 C945 1.373 . S
C947 C931 1.377 . S
C947 C945 1.389 . S
C947 C948 1.524 . S
C948 C947 1.524 . S
C948 C949 1.397 . S
C948 C953 1.363 . S
C949 H920 0.950 . S
C949 C948 1.397 . S
C949 C950 1.334 . S
C950 H921 0.950 . S
C950 C949 1.334 . S
C950 C951 1.287 . S
C951 C950 1.287 . S
C951 C952 1.524 . S
C951 H954 0.999 . S
C952 H922 0.950 . S
C952 C951 1.524 . S
C952 C953 1.415 . S
C953 H923 0.950 . S
C953 C948 1.363 . S
C953 C952 1.415 . S
H954 C951 0.999 . S
H955 C936 0.913 . S
H956 C974 0.951 . S
H957 C976 0.951 1_655 S
H958 C978 0.950 . S
H959 C979 0.950 . S
H960 C981 0.950 . S
H961 C984 0.950 1_455 S
H962 C985 0.950 . S
H963 C987 0.950 . S
H964 C988 0.950 . S
H965 C989 0.951 . S
H966 C991 0.951 1_455 S
H967 C993 0.950 . S
H968 C994 0.950 . S
H969 C996 0.950 . S
H970 C999 0.950 1_655 S
H971 C1000 0.950 . S
H972 C1002 0.950 . S
H973 C1003 0.950 . S
C974 H956 0.951 . S
C974 C975 1.366 . S
C974 C976 1.388 . S
C975 C974 1.366 . S
C975 C979 1.385 . S
C976 H957 0.951 1_455 S
C976 C974 1.388 . S
C976 C977 1.366 . S
C977 C976 1.366 . S
C977 C978 1.414 . S
C977 C980 1.499 . S
C978 H958 0.950 . S
C978 C977 1.414 . S
C978 C979 1.374 . S
C979 H959 0.950 . S
C979 C975 1.385 . S
C979 C978 1.374 . S
C980 C977 1.499 . S
C980 C981 1.373 . S
C980 C982 1.389 1_455 S
C981 H960 0.950 . S
C981 C980 1.373 . S
C981 C997 1.377 . S
C982 C980 1.389 1_655 S
C982 C983 1.524 . S
C982 C996 1.377 . S
C983 C982 1.524 . S
C983 C984 1.397 . S
C983 C988 1.363 . S
C984 H961 0.950 1_655 S
C984 C983 1.397 . S
C984 C985 1.334 . S
C985 H962 0.950 . S
C985 C984 1.334 . S
C985 C986 1.287 . S
C986 C985 1.287 . S
C986 C987 1.524 . S
C986 H1005 0.913 . S
C987 H963 0.950 . S
C987 C986 1.524 . S
C987 C988 1.415 . S
C988 H964 0.950 . S
C988 C983 1.363 . S
C988 C987 1.415 . S
C989 H965 0.951 . S
C989 C990 1.366 . S
C989 C991 1.388 . S
C990 C989 1.366 . S
C990 C994 1.385 . S
C991 H966 0.951 1_655 S
C991 C989 1.388 . S
C991 C992 1.366 . S
C992 C991 1.366 . S
C992 C993 1.414 . S
C992 C995 1.499 . S
C993 H967 0.950 . S
C993 C992 1.414 . S
C993 C994 1.374 . S
C994 H968 0.950 . S
C994 C990 1.385 . S
C994 C993 1.374 . S
C995 C992 1.499 . S
C995 C996 1.373 . S
C995 C997 1.389 1_655 S
C996 H969 0.950 . S
C996 C982 1.377 . S
C996 C995 1.373 . S
C997 C981 1.377 . S
C997 C995 1.389 1_455 S
C997 C998 1.524 . S
C998 C997 1.524 . S
C998 C999 1.397 . S
C998 C1003 1.363 . S
C999 H970 0.950 1_455 S
C999 C998 1.397 . S
C999 C1000 1.334 . S
C1000 H971 0.950 . S
C1000 C999 1.334 . S
C1000 C1001 1.287 . S
C1001 C1000 1.287 . S
C1001 C1002 1.524 . S
C1001 H1004 0.999 . S
C1002 H972 0.950 . S
C1002 C1001 1.524 . S
C1002 C1003 1.415 . S
C1003 H973 0.950 . S
C1003 C998 1.363 . S
C1003 C1002 1.415 . S
H1004 C1001 0.999 . S
H1005 C986 0.913 . S
H1006 C1024 0.951 . S
H1007 C1026 0.951 . S
H1008 C1028 0.950 . S
H1009 C1029 0.950 . S
H1010 C1031 0.950 . S
H1011 C1034 0.950 . S
H1012 C1035 0.950 . S
H1013 C1037 0.950 . S
H1014 C1038 0.950 . S
H1015 C1039 0.951 . S
H1016 C1041 0.951 . S
H1017 C1043 0.950 . S
H1018 C1044 0.950 . S
H1019 C1046 0.950 . S
H1020 C1049 0.950 . S
H1021 C1050 0.950 . S
H1022 C1052 0.950 . S
H1023 C1053 0.950 . S
C1024 H1006 0.951 . S
C1024 C1025 1.366 . S
C1024 C1026 1.388 . S
C1025 C1024 1.366 . S
C1025 C1029 1.385 . S
C1026 H1007 0.951 . S
C1026 C1024 1.388 . S
C1026 C1027 1.366 . S
C1027 C1026 1.366 . S
C1027 C1028 1.414 . S
C1027 C1030 1.499 . S
C1028 H1008 0.950 . S
C1028 C1027 1.414 . S
C1028 C1029 1.374 . S
C1029 H1009 0.950 . S
C1029 C1025 1.385 . S
C1029 C1028 1.374 . S
C1030 C1027 1.499 . S
C1030 C1031 1.373 . S
C1030 C1032 1.389 1_565 S
C1031 H1010 0.950 . S
C1031 C1030 1.373 . S
C1031 C1047 1.377 1_554 S
C1032 C1030 1.389 1_545 S
C1032 C1033 1.524 . S
C1032 C1046 1.377 1_554 S
C1033 C1032 1.524 . S
C1033 C1034 1.397 . S
C1033 C1038 1.363 . S
C1034 H1011 0.950 . S
C1034 C1033 1.397 . S
C1034 C1035 1.334 . S
C1035 H1012 0.950 . S
C1035 C1034 1.334 . S
C1035 C1036 1.287 . S
C1036 C1035 1.287 . S
C1036 C1037 1.524 . S
C1036 H1055 0.913 . S
C1037 H1013 0.950 . S
C1037 C1036 1.524 . S
C1037 C1038 1.415 . S
C1038 H1014 0.950 . S
C1038 C1033 1.363 . S
C1038 C1037 1.415 . S
C1039 H1015 0.951 . S
C1039 C1040 1.366 . S
C1039 C1041 1.388 . S
C1040 C1039 1.366 . S
C1040 C1044 1.385 . S
C1041 H1016 0.951 . S
C1041 C1039 1.388 . S
C1041 C1042 1.366 . S
C1042 C1041 1.366 . S
C1042 C1043 1.414 . S
C1042 C1045 1.499 . S
C1043 H1017 0.950 . S
C1043 C1042 1.414 . S
C1043 C1044 1.374 . S
C1044 H1018 0.950 . S
C1044 C1040 1.385 . S
C1044 C1043 1.374 . S
C1045 C1042 1.499 . S
C1045 C1046 1.373 . S
C1045 C1047 1.389 1_545 S
C1046 H1019 0.950 . S
C1046 C1032 1.377 1_556 S
C1046 C1045 1.373 . S
C1047 C1031 1.377 1_556 S
C1047 C1045 1.389 1_565 S
C1047 C1048 1.524 . S
C1048 C1047 1.524 . S
C1048 C1049 1.397 . S
C1048 C1053 1.363 . S
C1049 H1020 0.950 . S
C1049 C1048 1.397 . S
C1049 C1050 1.334 . S
C1050 H1021 0.950 . S
C1050 C1049 1.334 . S
C1050 C1051 1.287 . S
C1051 C1050 1.287 . S
C1051 C1052 1.524 . S
C1051 H1054 0.999 . S
C1052 H1022 0.950 . S
C1052 C1051 1.524 . S
C1052 C1053 1.415 . S
C1053 H1023 0.950 . S
C1053 C1048 1.363 . S
C1053 C1052 1.415 . S
H1054 C1051 0.999 . S
H1055 C1036 0.913 . S
H1056 C1074 0.951 . S
H1057 C1076 0.951 . S
H1058 C1078 0.950 . S
H1059 C1079 0.950 . S
H1060 C1081 0.950 . S
H1061 C1084 0.950 . S
H1062 C1085 0.950 . S
H1063 C1087 0.950 . S
H1064 C1088 0.950 1_455 S
H1065 C1089 0.951 . S
H1066 C1091 0.951 . S
H1067 C1093 0.950 . S
H1068 C1094 0.950 . S
H1069 C1096 0.950 . S
H1070 C1099 0.950 . S
H1071 C1100 0.950 . S
H1072 C1102 0.950 . S
H1073 C1103 0.950 1_655 S
C1074 H1056 0.951 . S
C1074 C1075 1.366 . S
C1074 C1076 1.388 . S
C1075 C1074 1.366 . S
C1075 C1079 1.385 . S
C1076 H1057 0.951 . S
C1076 C1074 1.388 . S
C1076 C1077 1.366 . S
C1077 C1076 1.366 . S
C1077 C1078 1.414 . S
C1077 C1080 1.499 . S
C1078 H1058 0.950 . S
C1078 C1077 1.414 . S
C1078 C1079 1.374 . S
C1079 H1059 0.950 . S
C1079 C1075 1.385 . S
C1079 C1078 1.374 . S
C1080 C1077 1.499 . S
C1080 C1081 1.373 . S
C1080 C1082 1.389 . S
C1081 H1060 0.950 . S
C1081 C1080 1.373 . S
C1081 C1097 1.377 1_655 S
C1082 C1080 1.389 . S
C1082 C1083 1.524 . S
C1082 C1096 1.377 1_655 S
C1083 C1082 1.524 . S
C1083 C1084 1.397 . S
C1083 C1088 1.363 . S
C1084 H1061 0.950 . S
C1084 C1083 1.397 . S
C1084 C1085 1.334 . S
C1085 H1062 0.950 . S
C1085 C1084 1.334 . S
C1085 C1086 1.287 . S
C1086 C1085 1.287 . S
C1086 C1087 1.524 . S
C1086 H1105 0.913 . S
C1087 H1063 0.950 . S
C1087 C1086 1.524 . S
C1087 C1088 1.415 . S
C1088 H1064 0.950 1_655 S
C1088 C1083 1.363 . S
C1088 C1087 1.415 . S
C1089 H1065 0.951 . S
C1089 C1090 1.366 . S
C1089 C1091 1.388 . S
C1090 C1089 1.366 . S
C1090 C1094 1.385 . S
C1091 H1066 0.951 . S
C1091 C1089 1.388 . S
C1091 C1092 1.366 . S
C1092 C1091 1.366 . S
C1092 C1093 1.414 . S
C1092 C1095 1.499 . S
C1093 H1067 0.950 . S
C1093 C1092 1.414 . S
C1093 C1094 1.374 . S
C1094 H1068 0.950 . S
C1094 C1090 1.385 . S
C1094 C1093 1.374 . S
C1095 C1092 1.499 . S
C1095 C1096 1.373 . S
C1095 C1097 1.389 . S
C1096 H1069 0.950 . S
C1096 C1082 1.377 1_455 S
C1096 C1095 1.373 . S
C1097 C1081 1.377 1_455 S
C1097 C1095 1.389 . S
C1097 C1098 1.524 . S
C1098 C1097 1.524 . S
C1098 C1099 1.397 . S
C1098 C1103 1.363 . S
C1099 H1070 0.950 . S
C1099 C1098 1.397 . S
C1099 C1100 1.334 . S
C1100 H1071 0.950 . S
C1100 C1099 1.334 . S
C1100 C1101 1.287 . S
C1101 C1100 1.287 . S
C1101 C1102 1.524 . S
C1101 H1104 0.999 . S
C1102 H1072 0.950 . S
C1102 C1101 1.524 . S
C1102 C1103 1.415 . S
C1103 H1073 0.950 1_455 S
C1103 C1098 1.363 . S
C1103 C1102 1.415 . S
H1104 C1101 0.999 . S
H1105 C1086 0.913 . S
H1106 C1124 0.951 . S
H1107 C1126 0.951 . S
H1108 C1128 0.950 . S
H1109 C1129 0.950 . S
H1110 C1131 0.950 . S
H1111 C1134 0.950 . S
H1112 C1135 0.950 . S
H1113 C1137 0.950 . S
H1114 C1138 0.950 1_565 S
H1115 C1139 0.951 . S
H1116 C1141 0.951 . S
H1117 C1143 0.950 . S
H1118 C1144 0.950 . S
H1119 C1146 0.950 . S
H1120 C1149 0.950 . S
H1121 C1150 0.950 . S
H1122 C1152 0.950 . S
H1123 C1153 0.950 1_545 S
C1124 H1106 0.951 . S
C1124 C1125 1.366 . S
C1124 C1126 1.388 . S
C1125 C1124 1.366 . S
C1125 C1129 1.385 . S
C1126 H1107 0.951 . S
C1126 C1124 1.388 . S
C1126 C1127 1.366 . S
C1127 C1126 1.366 . S
C1127 C1128 1.414 . S
C1127 C1130 1.499 . S
C1128 H1108 0.950 . S
C1128 C1127 1.414 . S
C1128 C1129 1.374 . S
C1129 H1109 0.950 . S
C1129 C1125 1.385 . S
C1129 C1128 1.374 . S
C1130 C1127 1.499 . S
C1130 C1131 1.373 . S
C1130 C1132 1.389 . S
C1131 H1110 0.950 . S
C1131 C1130 1.373 . S
C1131 C1147 1.377 1_545 S
C1132 C1130 1.389 . S
C1132 C1133 1.524 . S
C1132 C1146 1.377 1_545 S
C1133 C1132 1.524 . S
C1133 C1134 1.397 . S
C1133 C1138 1.363 . S
C1134 H1111 0.950 . S
C1134 C1133 1.397 . S
C1134 C1135 1.334 . S
C1135 H1112 0.950 . S
C1135 C1134 1.334 . S
C1135 C1136 1.287 . S
C1136 C1135 1.287 . S
C1136 C1137 1.524 . S
C1136 H1155 0.913 . S
C1137 H1113 0.950 . S
C1137 C1136 1.524 . S
C1137 C1138 1.415 . S
C1138 H1114 0.950 1_545 S
C1138 C1133 1.363 . S
C1138 C1137 1.415 . S
C1139 H1115 0.951 . S
C1139 C1140 1.366 . S
C1139 C1141 1.388 . S
C1140 C1139 1.366 . S
C1140 C1144 1.385 . S
C1141 H1116 0.951 . S
C1141 C1139 1.388 . S
C1141 C1142 1.366 . S
C1142 C1141 1.366 . S
C1142 C1143 1.414 . S
C1142 C1145 1.499 . S
C1143 H1117 0.950 . S
C1143 C1142 1.414 . S
C1143 C1144 1.374 . S
C1144 H1118 0.950 . S
C1144 C1140 1.385 . S
C1144 C1143 1.374 . S
C1145 C1142 1.499 . S
C1145 C1146 1.373 . S
C1145 C1147 1.389 . S
C1146 H1119 0.950 . S
C1146 C1132 1.377 1_565 S
C1146 C1145 1.373 . S
C1147 C1131 1.377 1_565 S
C1147 C1145 1.389 . S
C1147 C1148 1.524 . S
C1148 C1147 1.524 . S
C1148 C1149 1.397 . S
C1148 C1153 1.363 . S
C1149 H1120 0.950 . S
C1149 C1148 1.397 . S
C1149 C1150 1.334 . S
C1150 H1121 0.950 . S
C1150 C1149 1.334 . S
C1150 C1151 1.287 . S
C1151 C1150 1.287 . S
C1151 C1152 1.524 . S
C1151 H1154 0.999 . S
C1152 H1122 0.950 . S
C1152 C1151 1.524 . S
C1152 C1153 1.415 . S
C1153 H1123 0.950 1_565 S
C1153 C1148 1.363 . S
C1153 C1152 1.415 . S
H1154 C1151 0.999 . S
H1155 C1136 0.913 . S
H1156 C1174 0.951 . S
H1157 C1176 0.951 . S
H1158 C1178 0.950 . S
H1159 C1179 0.950 . S
H1160 C1181 0.950 . S
H1161 C1184 0.950 . S
H1162 C1185 0.950 . S
H1163 C1187 0.950 . S
H1164 C1188 0.950 . S
H1165 C1189 0.951 . S
H1166 C1191 0.951 . S
H1167 C1193 0.950 . S
H1168 C1194 0.950 . S
H1169 C1196 0.950 . S
H1170 C1199 0.950 . S
H1171 C1200 0.950 . S
H1172 C1202 0.950 . S
H1173 C1203 0.950 . S
C1174 H1156 0.951 . S
C1174 C1175 1.366 . S
C1174 C1176 1.388 . S
C1175 C1174 1.366 . S
C1175 C1179 1.385 . S
C1176 H1157 0.951 . S
C1176 C1174 1.388 . S
C1176 C1177 1.366 . S
C1177 C1176 1.366 . S
C1177 C1178 1.414 . S
C1177 C1180 1.499 . S
C1178 H1158 0.950 . S
C1178 C1177 1.414 . S
C1178 C1179 1.374 . S
C1179 H1159 0.950 . S
C1179 C1175 1.385 . S
C1179 C1178 1.374 . S
C1180 C1177 1.499 . S
C1180 C1181 1.373 . S
C1180 C1182 1.389 . S
C1181 H1160 0.950 . S
C1181 C1180 1.373 . S
C1181 C1197 1.377 . S
C1182 C1180 1.389 . S
C1182 C1183 1.524 . S
C1182 C1196 1.377 . S
C1183 C1182 1.524 . S
C1183 C1184 1.397 . S
C1183 C1188 1.363 . S
C1184 H1161 0.950 . S
C1184 C1183 1.397 . S
C1184 C1185 1.334 . S
C1185 H1162 0.950 . S
C1185 C1184 1.334 . S
C1185 C1186 1.287 . S
C1186 C1185 1.287 . S
C1186 C1187 1.524 . S
C1186 H1205 0.913 . S
C1187 H1163 0.950 . S
C1187 C1186 1.524 . S
C1187 C1188 1.415 . S
C1188 H1164 0.950 . S
C1188 C1183 1.363 . S
C1188 C1187 1.415 . S
C1189 H1165 0.951 . S
C1189 C1190 1.366 . S
C1189 C1191 1.388 . S
C1190 C1189 1.366 . S
C1190 C1194 1.385 . S
C1191 H1166 0.951 . S
C1191 C1189 1.388 . S
C1191 C1192 1.366 . S
C1192 C1191 1.366 . S
C1192 C1193 1.414 . S
C1192 C1195 1.499 . S
C1193 H1167 0.950 . S
C1193 C1192 1.414 . S
C1193 C1194 1.374 . S
C1194 H1168 0.950 . S
C1194 C1190 1.385 . S
C1194 C1193 1.374 . S
C1195 C1192 1.499 . S
C1195 C1196 1.373 . S
C1195 C1197 1.389 . S
C1196 H1169 0.950 . S
C1196 C1182 1.377 . S
C1196 C1195 1.373 . S
C1197 C1181 1.377 . S
C1197 C1195 1.389 . S
C1197 C1198 1.524 . S
C1198 C1197 1.524 . S
C1198 C1199 1.397 . S
C1198 C1203 1.363 . S
C1199 H1170 0.950 . S
C1199 C1198 1.397 . S
C1199 C1200 1.334 . S
C1200 H1171 0.950 . S
C1200 C1199 1.334 . S
C1200 C1201 1.287 . S
C1201 C1200 1.287 . S
C1201 C1202 1.524 . S
C1201 H1204 0.999 . S
C1202 H1172 0.950 . S
C1202 C1201 1.524 . S
C1202 C1203 1.415 . S
C1203 H1173 0.950 . S
C1203 C1198 1.363 . S
C1203 C1202 1.415 . S
H1204 C1201 0.999 . S
H1205 C1186 0.913 . S
H1206 C1224 0.951 . S
H1207 C1226 0.951 . S
H1208 C1228 0.950 . S
H1209 C1229 0.950 . S
H1210 C1231 0.950 . S
H1211 C1234 0.950 . S
H1212 C1235 0.950 . S
H1213 C1237 0.950 . S
H1214 C1238 0.950 . S
H1215 C1239 0.951 . S
H1216 C1241 0.951 . S
H1217 C1243 0.950 . S
H1218 C1244 0.950 . S
H1219 C1246 0.950 . S
H1220 C1249 0.950 . S
H1221 C1250 0.950 . S
H1222 C1252 0.950 . S
H1223 C1253 0.950 . S
C1224 H1206 0.951 . S
C1224 C1225 1.366 . S
C1224 C1226 1.388 . S
C1225 C1224 1.366 . S
C1225 C1229 1.385 . S
C1226 H1207 0.951 . S
C1226 C1224 1.388 . S
C1226 C1227 1.366 . S
C1227 C1226 1.366 . S
C1227 C1228 1.414 . S
C1227 C1230 1.499 . S
C1228 H1208 0.950 . S
C1228 C1227 1.414 . S
C1228 C1229 1.374 . S
C1229 H1209 0.950 . S
C1229 C1225 1.385 . S
C1229 C1228 1.374 . S
C1230 C1227 1.499 . S
C1230 C1231 1.373 . S
C1230 C1232 1.389 . S
C1231 H1210 0.950 . S
C1231 C1230 1.373 . S
C1231 C1247 1.377 1_655 S
C1232 C1230 1.389 . S
C1232 C1233 1.524 . S
C1232 C1246 1.377 1_655 S
C1233 C1232 1.524 . S
C1233 C1234 1.397 . S
C1233 C1238 1.363 . S
C1234 H1211 0.950 . S
C1234 C1233 1.397 . S
C1234 C1235 1.334 . S
C1235 H1212 0.950 . S
C1235 C1234 1.334 . S
C1235 C1236 1.287 . S
C1236 C1235 1.287 . S
C1236 C1237 1.524 . S
C1236 H1255 0.913 . S
C1237 H1213 0.950 . S
C1237 C1236 1.524 . S
C1237 C1238 1.415 . S
C1238 H1214 0.950 . S
C1238 C1233 1.363 . S
C1238 C1237 1.415 . S
C1239 H1215 0.951 . S
C1239 C1240 1.366 . S
C1239 C1241 1.388 . S
C1240 C1239 1.366 . S
C1240 C1244 1.385 . S
C1241 H1216 0.951 . S
C1241 C1239 1.388 . S
C1241 C1242 1.366 . S
C1242 C1241 1.366 . S
C1242 C1243 1.414 . S
C1242 C1245 1.499 . S
C1243 H1217 0.950 . S
C1243 C1242 1.414 . S
C1243 C1244 1.374 . S
C1244 H1218 0.950 . S
C1244 C1240 1.385 . S
C1244 C1243 1.374 . S
C1245 C1242 1.499 . S
C1245 C1246 1.373 . S
C1245 C1247 1.389 . S
C1246 H1219 0.950 . S
C1246 C1232 1.377 1_455 S
C1246 C1245 1.373 . S
C1247 C1231 1.377 1_455 S
C1247 C1245 1.389 . S
C1247 C1248 1.524 . S
C1248 C1247 1.524 . S
C1248 C1249 1.397 . S
C1248 C1253 1.363 . S
C1249 H1220 0.950 . S
C1249 C1248 1.397 . S
C1249 C1250 1.334 . S
C1250 H1221 0.950 . S
C1250 C1249 1.334 . S
C1250 C1251 1.287 . S
C1251 C1250 1.287 . S
C1251 C1252 1.524 . S
C1251 H1254 0.999 . S
C1252 H1222 0.950 . S
C1252 C1251 1.524 . S
C1252 C1253 1.415 . S
C1253 H1223 0.950 . S
C1253 C1248 1.363 . S
C1253 C1252 1.415 . S
H1254 C1251 0.999 . S
H1255 C1236 0.913 . S
H1256 C1274 0.951 . S
H1257 C1276 0.951 . S
H1258 C1278 0.950 . S
H1259 C1279 0.950 . S
H1260 C1281 0.950 . S
H1261 C1284 0.950 . S
H1262 C1285 0.950 . S
H1263 C1287 0.950 . S
H1264 C1288 0.950 1_545 S
H1265 C1289 0.951 . S
H1266 C1291 0.951 . S
H1267 C1293 0.950 . S
H1268 C1294 0.950 . S
H1269 C1296 0.950 . S
H1270 C1299 0.950 . S
H1271 C1300 0.950 . S
H1272 C1302 0.950 . S
H1273 C1303 0.950 1_565 S
C1274 H1256 0.951 . S
C1274 C1275 1.366 . S
C1274 C1276 1.388 . S
C1275 C1274 1.366 . S
C1275 C1279 1.385 . S
C1276 H1257 0.951 . S
C1276 C1274 1.388 . S
C1276 C1277 1.366 . S
C1277 C1276 1.366 . S
C1277 C1278 1.414 . S
C1277 C1280 1.499 . S
C1278 H1258 0.950 . S
C1278 C1277 1.414 . S
C1278 C1279 1.374 . S
C1279 H1259 0.950 . S
C1279 C1275 1.385 . S
C1279 C1278 1.374 . S
C1280 C1277 1.499 . S
C1280 C1281 1.373 . S
C1280 C1282 1.389 . S
C1281 H1260 0.950 . S
C1281 C1280 1.373 . S
C1281 C1297 1.377 1_565 S
C1282 C1280 1.389 . S
C1282 C1283 1.524 . S
C1282 C1296 1.377 1_565 S
C1283 C1282 1.524 . S
C1283 C1284 1.397 . S
C1283 C1288 1.363 . S
C1284 H1261 0.950 . S
C1284 C1283 1.397 . S
C1284 C1285 1.334 . S
C1285 H1262 0.950 . S
C1285 C1284 1.334 . S
C1285 C1286 1.287 . S
C1286 C1285 1.287 . S
C1286 C1287 1.524 . S
C1286 H1305 0.913 . S
C1287 H1263 0.950 . S
C1287 C1286 1.524 . S
C1287 C1288 1.415 . S
C1288 H1264 0.950 1_565 S
C1288 C1283 1.363 . S
C1288 C1287 1.415 . S
C1289 H1265 0.951 . S
C1289 C1290 1.366 . S
C1289 C1291 1.388 . S
C1290 C1289 1.366 . S
C1290 C1294 1.385 . S
C1291 H1266 0.951 . S
C1291 C1289 1.388 . S
C1291 C1292 1.366 . S
C1292 C1291 1.366 . S
C1292 C1293 1.414 . S
C1292 C1295 1.499 . S
C1293 H1267 0.950 . S
C1293 C1292 1.414 . S
C1293 C1294 1.374 . S
C1294 H1268 0.950 . S
C1294 C1290 1.385 . S
C1294 C1293 1.374 . S
C1295 C1292 1.499 . S
C1295 C1296 1.373 . S
C1295 C1297 1.389 . S
C1296 H1269 0.950 . S
C1296 C1282 1.377 1_545 S
C1296 C1295 1.373 . S
C1297 C1281 1.377 1_545 S
C1297 C1295 1.389 . S
C1297 C1298 1.524 . S
C1298 C1297 1.524 . S
C1298 C1299 1.397 . S
C1298 C1303 1.363 . S
C1299 H1270 0.950 . S
C1299 C1298 1.397 . S
C1299 C1300 1.334 . S
C1300 H1271 0.950 . S
C1300 C1299 1.334 . S
C1300 C1301 1.287 . S
C1301 C1300 1.287 . S
C1301 C1302 1.524 . S
C1301 H1304 0.999 . S
C1302 H1272 0.950 . S
C1302 C1301 1.524 . S
C1302 C1303 1.415 . S
C1303 H1273 0.950 1_545 S
C1303 C1298 1.363 . S
C1303 C1302 1.415 . S
H1304 C1301 0.999 . S
H1305 C1286 0.913 . S
H1306 C1324 0.951 . S
H1307 C1326 0.951 . S
H1308 C1328 0.950 . S
H1309 C1329 0.950 . S
H1310 C1331 0.950 . S
H1311 C1334 0.950 . S
H1312 C1335 0.950 . S
H1313 C1337 0.950 . S
H1314 C1338 0.950 . S
H1315 C1339 0.951 . S
H1316 C1341 0.951 . S
H1317 C1343 0.950 . S
H1318 C1344 0.950 . S
H1319 C1346 0.950 . S
H1320 C1349 0.950 . S
H1321 C1350 0.950 . S
H1322 C1352 0.950 . S
H1323 C1353 0.950 . S
C1324 H1306 0.951 . S
C1324 C1325 1.366 . S
C1324 C1326 1.388 . S
C1325 C1324 1.366 . S
C1325 C1329 1.385 . S
C1326 H1307 0.951 . S
C1326 C1324 1.388 . S
C1326 C1327 1.366 . S
C1327 C1326 1.366 . S
C1327 C1328 1.414 . S
C1327 C1330 1.499 . S
C1328 H1308 0.950 . S
C1328 C1327 1.414 . S
C1328 C1329 1.374 . S
C1329 H1309 0.950 . S
C1329 C1325 1.385 . S
C1329 C1328 1.374 . S
C1330 C1327 1.499 . S
C1330 C1331 1.373 . S
C1330 C1332 1.389 . S
C1331 H1310 0.950 . S
C1331 C1330 1.373 . S
C1331 C1347 1.377 . S
C1332 C1330 1.389 . S
C1332 C1333 1.524 . S
C1332 C1346 1.377 . S
C1333 C1332 1.524 . S
C1333 C1334 1.397 . S
C1333 C1338 1.363 . S
C1334 H1311 0.950 . S
C1334 C1333 1.397 . S
C1334 C1335 1.334 . S
C1335 H1312 0.950 . S
C1335 C1334 1.334 . S
C1335 C1336 1.287 . S
C1336 C1335 1.287 . S
C1336 C1337 1.524 . S
C1336 H1355 0.913 . S
C1337 H1313 0.950 . S
C1337 C1336 1.524 . S
C1337 C1338 1.415 . S
C1338 H1314 0.950 . S
C1338 C1333 1.363 . S
C1338 C1337 1.415 . S
C1339 H1315 0.951 . S
C1339 C1340 1.366 . S
C1339 C1341 1.388 . S
C1340 C1339 1.366 . S
C1340 C1344 1.385 . S
C1341 H1316 0.951 . S
C1341 C1339 1.388 . S
C1341 C1342 1.366 . S
C1342 C1341 1.366 . S
C1342 C1343 1.414 . S
C1342 C1345 1.499 . S
C1343 H1317 0.950 . S
C1343 C1342 1.414 . S
C1343 C1344 1.374 . S
C1344 H1318 0.950 . S
C1344 C1340 1.385 . S
C1344 C1343 1.374 . S
C1345 C1342 1.499 . S
C1345 C1346 1.373 . S
C1345 C1347 1.389 . S
C1346 H1319 0.950 . S
C1346 C1332 1.377 . S
C1346 C1345 1.373 . S
C1347 C1331 1.377 . S
C1347 C1345 1.389 . S
C1347 C1348 1.524 . S
C1348 C1347 1.524 . S
C1348 C1349 1.397 . S
C1348 C1353 1.363 . S
C1349 H1320 0.950 . S
C1349 C1348 1.397 . S
C1349 C1350 1.334 . S
C1350 H1321 0.950 . S
C1350 C1349 1.334 . S
C1350 C1351 1.287 . S
C1351 C1350 1.287 . S
C1351 C1352 1.524 . S
C1351 H1354 0.999 . S
C1352 H1322 0.950 . S
C1352 C1351 1.524 . S
C1352 C1353 1.415 . S
C1353 H1323 0.950 . S
C1353 C1348 1.363 . S
C1353 C1352 1.415 . S
H1354 C1351 0.999 . S
H1355 C1336 0.913 . S
C175 C105 2.711 . S
C190 C1 2.711 . S
C225 C23 2.589 . S
C240 C127 2.589 . S
C275 C27 2.711 . S
C290 C131 2.711 . S
C325 C40 2.711 . S
C340 C144 2.711 . S
C375 C88 2.590 . S
C390 C62 2.590 . S
C425 C66 2.711 . S
C440 C92 2.711 . S
C475 C49 1.301 . S
C490 C10 1.301 . S
C525 C53 1.313 . S
C540 C14 1.313 . S
C575 C75 1.300 . S
C590 C36 1.300 . S
C625 C79 1.313 . S
C640 C118 1.313 . S
C675 C101 1.301 . S
C690 C140 1.301 . S
C725 C114 1.301 . S
C740 C153 1.301 . S
C775 C3 2.077 . S
C790 C122 1.936 . S
C825 C18 1.935 . S
C840 C133 2.077 . S
C875 C29 2.077 . S
C890 C146 2.078 . S
C925 C83 1.936 . S
C940 C42 2.077 . S
C975 C57 1.935 . S
C990 C94 2.077 . S
C1025 C107 2.077 . S
C1040 C68 2.077 . S
C1075 C148 1.212 . S
C1090 C5 1.212 . S
C1125 C16 1.236 . S
C1140 C81 1.236 . S
C1175 C96 1.213 . S
C1190 C31 1.213 . S
C1225 C44 1.213 . S
C1240 C109 1.213 . S
C1275 C55 1.236 . S
C1290 C120 1.237 . S
C1325 C135 1.212 . S
C1340 C70 1.212 . S
