# Generated by pormake.
# Topology uog, (4)-cn, num edge types: 1
# Building blocks:
#     Node 0, Type 0, BuildingBlock: KUFVIS_clean_sbu_0, # of connection points: 4
#     Node 1, Type 0, BuildingBlock: KUFVIS_clean_sbu_0, # of connection points: 4
#     Node 2, Type 0, BuildingBlock: KUFVIS_clean_sbu_0, # of connection points: 4
#     Node 3, Type 0, BuildingBlock: KUFVIS_clean_sbu_0, # of connection points: 4
#     Node 4, Type 0, BuildingBlock: KUFVIS_clean_sbu_0, # of connection points: 4
#     Node 5, Type 0, BuildingBlock: KUFVIS_clean_sbu_0, # of connection points: 4
#     Edge 6, Type (0, 0), BuildingBlock: KIFKEQ_clean_linker_1, # of connection points: 2
#     Edge 7, Type (0, 0), BuildingBlock: KIFKEQ_clean_linker_1, # of connection points: 2
#     Edge 8, Type (0, 0), BuildingBlock: KIFKEQ_clean_linker_1, # of connection points: 2
#     Edge 9, Type (0, 0), BuildingBlock: KIFKEQ_clean_linker_1, # of connection points: 2
#     Edge 10, Type (0, 0), BuildingBlock: KIFKEQ_clean_linker_1, # of connection points: 2
#     Edge 11, Type (0, 0), BuildingBlock: KIFKEQ_clean_linker_1, # of connection points: 2
#     Edge 12, Type (0, 0), BuildingBlock: KIFKEQ_clean_linker_1, # of connection points: 2
#     Edge 13, Type (0, 0), BuildingBlock: KIFKEQ_clean_linker_1, # of connection points: 2
#     Edge 14, Type (0, 0), BuildingBlock: KIFKEQ_clean_linker_1, # of connection points: 2
#     Edge 15, Type (0, 0), BuildingBlock: KIFKEQ_clean_linker_1, # of connection points: 2
#     Edge 16, Type (0, 0), BuildingBlock: KIFKEQ_clean_linker_1, # of connection points: 2
#     Edge 17, Type (0, 0), BuildingBlock: KIFKEQ_clean_linker_1, # of connection points: 2
# Relax obj value: 0.108
# Max RMSD: 0.206
# Mean RMSD: 0.204
data_MOF--net-uog--node1-KUFVIS_clean_sbu_0--edge1-KIFKEQ_clean_linker_1
_symmetry_space_group_name_H-M    P1
_symmetry_Int_Tables_number       1
_symmetry_cell_setting            triclinic
loop_
_symmetry_equiv_pos_as_xyz
'x, y, z'
_cell_length_a     29.119131
_cell_length_b     29.035484
_cell_length_c     42.222567
_cell_angle_alpha  89.934665
_cell_angle_beta   89.99459
_cell_angle_gamma 119.95334
loop_
_atom_site_label
_atom_site_type_symbol
_atom_site_fract_x
_atom_site_fract_y
_atom_site_fract_z
_atom_type_partial_charge
Mn0 Mn 0.59793 0.29029 0.15171 0.0
Mn1 Mn 0.70892 0.41041 0.14955 0.0
C2 C 0.63186 0.32935 0.1037 0.0
C3 C 0.56472 0.19861 0.15661 0.0
C4 C 0.59957 0.39483 0.16423 0.0
O5 O 0.62568 0.30131 0.1963 0.0
O6 O 0.70467 0.37621 0.19137 0.0
C7 C 0.78737 0.37393 0.15011 0.0
N8 N 0.76661 0.40157 0.13586 0.0
C9 C 0.82787 0.42595 0.09236 0.0
C10 C 0.85024 0.39816 0.10672 0.0
C11 C 0.82984 0.37199 0.1357 0.0
C12 C 0.78584 0.42678 0.10794 0.0
H13 H 0.77147 0.35333 0.17222 0.0
C14 C 0.67008 0.33639 0.20737 0.0
O15 O 0.5357 0.21953 0.16413 0.0
O16 O 0.61182 0.23073 0.14611 0.0
N17 N 0.71879 0.44813 0.11059 0.0
C18 C 0.69218 0.4724 0.09958 0.0
C19 C 0.70727 0.49985 0.0706 0.0
C20 C 0.74976 0.50242 0.05338 0.0
C21 C 0.77727 0.47811 0.06551 0.0
C22 C 0.76086 0.45188 0.09471 0.0
H23 H 0.65942 0.47049 0.11265 0.0
O24 O 0.5837 0.28986 0.10564 0.0
O25 O 0.65942 0.34281 0.12971 0.0
O26 O 0.57278 0.34442 0.1596 0.0
O27 O 0.65027 0.4221 0.16263 0.0
C28 C 0.81982 0.47822 0.04956 0.0
C29 C 0.84504 0.45208 0.06295 0.0
H30 H 0.88278 0.39628 0.09559 0.0
H31 H 0.84667 0.35017 0.14682 0.0
H32 H 0.68596 0.51867 0.06146 0.0
H33 H 0.76082 0.52302 0.03084 0.0
H34 H 0.83312 0.49782 0.02683 0.0
H35 H 0.87737 0.45198 0.05031 0.0
Mn36 Mn 0.30642 0.58931 0.48294 0.0
Mn37 Mn 0.30273 0.70337 0.48016 0.0
C38 C 0.30129 0.62232 0.43473 0.0
C39 C 0.36199 0.5534 0.48846 0.0
C40 C 0.20638 0.59602 0.49551 0.0
O41 O 0.32465 0.61776 0.52721 0.0
O42 O 0.33143 0.69793 0.5222 0.0
C43 C 0.41845 0.77786 0.48062 0.0
N44 N 0.37044 0.75888 0.46631 0.0
C45 C 0.40971 0.81911 0.42246 0.0
C46 C 0.45953 0.83962 0.43685 0.0
C47 C 0.4639 0.81885 0.46604 0.0
C48 C 0.3658 0.77843 0.43818 0.0
H49 H 0.42205 0.76169 0.50292 0.0
C50 C 0.33545 0.66266 0.53831 0.0
O51 O 0.31194 0.52546 0.49576 0.0
O52 O 0.37873 0.60068 0.47746 0.0
N53 N 0.27628 0.71478 0.44119 0.0
C54 C 0.22535 0.69065 0.43048 0.0
C55 C 0.2142 0.7066 0.40144 0.0
C56 C 0.25537 0.74754 0.38391 0.0
C57 C 0.30722 0.77272 0.39581 0.0
C58 C 0.31586 0.75549 0.42505 0.0
H59 H 0.19354 0.65913 0.44383 0.0
O60 O 0.29146 0.57372 0.43726 0.0
O61 O 0.31728 0.65122 0.46029 0.0
O62 O 0.22808 0.56732 0.49123 0.0
O63 O 0.23153 0.64685 0.49335 0.0
C64 C 0.35077 0.81387 0.37967 0.0
C65 C 0.40199 0.83697 0.39295 0.0
H66 H 0.49471 0.87107 0.42561 0.0
H67 H 0.50226 0.83426 0.47721 0.0
H68 H 0.17402 0.68718 0.39251 0.0
H69 H 0.2467 0.75935 0.36136 0.0
H70 H 0.34537 0.8278 0.35692 0.0
H71 H 0.43522 0.86832 0.38021 0.0
Mn72 Mn 0.70539 0.29755 0.83053 0.0
Mn73 Mn 0.71762 0.41918 0.83309 0.0
C74 C 0.71514 0.33819 0.87844 0.0
C75 C 0.64552 0.20615 0.82719 0.0
C76 C 0.80851 0.40076 0.8157 0.0
O77 O 0.6841 0.30726 0.7869 0.0
O78 O 0.68618 0.38546 0.79144 0.0
C79 C 0.60344 0.38526 0.83419 0.0
N80 N 0.65224 0.41184 0.84786 0.0
C81 C 0.61769 0.43656 0.89243 0.0
C82 C 0.56714 0.40985 0.87868 0.0
C83 C 0.56 0.38407 0.84944 0.0
C84 C 0.65956 0.43678 0.87599 0.0
H85 H 0.59769 0.36492 0.81188 0.0
C86 C 0.6767 0.34374 0.77585 0.0
O87 O 0.69452 0.22588 0.818 0.0
O88 O 0.63239 0.23922 0.83861 0.0
N89 N 0.74718 0.45637 0.87189 0.0
C90 C 0.79815 0.47903 0.88239 0.0
C91 C 0.81178 0.5057 0.91159 0.0
C92 C 0.77298 0.50901 0.92961 0.0
C93 C 0.72102 0.4862 0.91806 0.0
C94 C 0.70993 0.46074 0.88859 0.0
H95 H 0.8281 0.47638 0.86874 0.0
O96 O 0.72347 0.29841 0.87595 0.0
O97 O 0.6992 0.35132 0.85299 0.0
O98 O 0.78408 0.3502 0.81996 0.0
O99 O 0.78654 0.42925 0.81888 0.0
C100 C 0.67959 0.48692 0.93487 0.0
C101 C 0.62795 0.46208 0.92208 0.0
H102 H 0.53345 0.40849 0.89049 0.0
H103 H 0.52104 0.36307 0.83879 0.0
H104 H 0.852 0.52328 0.92031 0.0
H105 H 0.78348 0.52897 0.95233 0.0
H106 H 0.68689 0.50597 0.95782 0.0
H107 H 0.59632 0.46241 0.93539 0.0
Mn108 Mn 0.41598 0.71595 0.15136 0.0
Mn109 Mn 0.30813 0.59407 0.14433 0.0
C110 C 0.38812 0.67958 0.10203 0.0
C111 C 0.44703 0.80709 0.15712 0.0
C112 C 0.41666 0.61205 0.16319 0.0
O113 O 0.38214 0.70212 0.19456 0.0
O114 O 0.30739 0.62397 0.18672 0.0
C115 C 0.22677 0.62674 0.14359 0.0
N116 N 0.25038 0.6018 0.12939 0.0
C117 C 0.19301 0.57939 0.08407 0.0
C118 C 0.16779 0.60445 0.09833 0.0
C119 C 0.18479 0.62827 0.12821 0.0
C120 C 0.23436 0.57879 0.10064 0.0
H121 H 0.24004 0.64551 0.16642 0.0
C122 C 0.33777 0.66417 0.20394 0.0
O123 O 0.47569 0.78649 0.16611 0.0
O124 O 0.40143 0.77495 0.14476 0.0
N125 N 0.30331 0.56037 0.10452 0.0
C126 C 0.33274 0.53908 0.09364 0.0
C127 C 0.32134 0.5144 0.06382 0.0
C128 C 0.27966 0.51158 0.0456 0.0
C129 C 0.24932 0.53292 0.05754 0.0
C130 C 0.26209 0.55644 0.08759 0.0
H131 H 0.36495 0.54127 0.10748 0.0
O132 O 0.4358 0.71915 0.10597 0.0
O133 O 0.35777 0.66396 0.12692 0.0
O134 O 0.44226 0.66292 0.16063 0.0
O135 O 0.36664 0.58345 0.15871 0.0
C136 C 0.20748 0.53258 0.04058 0.0
C137 C 0.17939 0.55586 0.05382 0.0
H138 H 0.13563 0.60604 0.08646 0.0
H139 H 0.16573 0.64797 0.13928 0.0
H140 H 0.34488 0.49793 0.05481 0.0
H141 H 0.27146 0.49318 0.02243 0.0
H142 H 0.19697 0.51505 0.01719 0.0
H143 H 0.14769 0.55587 0.04041 0.0
Mn144 Mn 0.70322 0.41631 0.48561 0.0
Mn145 Mn 0.71896 0.30885 0.48511 0.0
C146 C 0.71221 0.38383 0.43809 0.0
C147 C 0.64251 0.44635 0.48942 0.0
C148 C 0.80832 0.42048 0.49974 0.0
O149 O 0.68512 0.38818 0.53004 0.0
O150 O 0.6878 0.3123 0.52661 0.0
C151 C 0.60593 0.22512 0.48598 0.0
N152 N 0.65449 0.24795 0.47193 0.0
C153 C 0.6218 0.18271 0.43031 0.0
C154 C 0.57152 0.1582 0.44449 0.0
C155 C 0.56355 0.17958 0.47241 0.0
C156 C 0.66262 0.22774 0.44506 0.0
H157 H 0.5996 0.24165 0.50734 0.0
C158 C 0.67845 0.34498 0.54177 0.0
O159 O 0.69201 0.4771 0.49707 0.0
O160 O 0.62908 0.39937 0.47911 0.0
N161 N 0.74847 0.29993 0.44667 0.0
C162 C 0.79853 0.33009 0.43502 0.0
C163 C 0.81249 0.31525 0.40655 0.0
C164 C 0.77508 0.26934 0.39054 0.0
C165 C 0.72406 0.23851 0.40323 0.0
C166 C 0.71251 0.25507 0.43179 0.0
H167 H 0.82744 0.36547 0.44718 0.0
O168 O 0.71856 0.43126 0.43998 0.0
O169 O 0.69768 0.35545 0.46397 0.0
O170 O 0.78289 0.44531 0.49465 0.0
O171 O 0.78721 0.36995 0.498 0.0
C172 C 0.68384 0.19273 0.38827 0.0
C173 C 0.63274 0.16487 0.40179 0.0
H174 H 0.53864 0.12328 0.43397 0.0
H175 H 0.52478 0.16109 0.48338 0.0
H176 H 0.85195 0.33925 0.39691 0.0
H177 H 0.78585 0.25832 0.36843 0.0
H178 H 0.69156 0.17905 0.36612 0.0
H179 H 0.60195 0.13015 0.38983 0.0
Mn180 Mn 0.30893 0.72469 0.82977 0.0
Mn181 Mn 0.30064 0.60482 0.83 0.0
C182 C 0.30331 0.68361 0.87711 0.0
C183 C 0.3674 0.81648 0.82655 0.0
C184 C 0.20689 0.62056 0.81564 0.0
O185 O 0.32719 0.71612 0.78509 0.0
O186 O 0.33046 0.64049 0.78845 0.0
C187 C 0.41546 0.64156 0.8293 0.0
N188 N 0.36716 0.61349 0.84347 0.0
C189 C 0.4043 0.58882 0.88675 0.0
C190 C 0.45436 0.61708 0.87247 0.0
C191 C 0.45995 0.64358 0.84363 0.0
C192 C 0.36133 0.58784 0.87123 0.0
H193 H 0.42001 0.66246 0.8073 0.0
C194 C 0.33631 0.68132 0.77318 0.0
O195 O 0.31778 0.79625 0.81861 0.0
O196 O 0.3819 0.78364 0.83654 0.0
N197 N 0.27291 0.56604 0.86863 0.0
C198 C 0.22218 0.54179 0.87974 0.0
C199 C 0.21004 0.51416 0.90866 0.0
C200 C 0.25004 0.51154 0.92576 0.0
C201 C 0.30173 0.53599 0.91357 0.0
C202 C 0.31133 0.56233 0.88442 0.0
H203 H 0.1913 0.54387 0.8668 0.0
O204 O 0.29388 0.72276 0.87582 0.0
O205 O 0.31799 0.67148 0.85082 0.0
O206 O 0.23007 0.67083 0.8208 0.0
O207 O 0.23049 0.59336 0.81712 0.0
C208 C 0.34429 0.53602 0.92946 0.0
C209 C 0.39554 0.56247 0.91608 0.0
H210 H 0.48885 0.61909 0.88357 0.0
H211 H 0.49852 0.66577 0.83257 0.0
H212 H 0.17002 0.4953 0.91786 0.0
H213 H 0.24068 0.49085 0.94827 0.0
H214 H 0.33815 0.51633 0.95216 0.0
H215 H 0.42805 0.5627 0.92869 0.0
H216 H 0.62138 0.14954 0.14419 0.0
H217 H 0.46744 0.1176 0.17651 0.0
H218 H 0.59301 0.05569 0.14764 0.0
H219 H 0.43906 0.02285 0.18055 0.0
H220 H 0.39088 0.85575 0.1419 0.0
H221 H 0.4185 0.94951 0.14501 0.0
H222 H 0.56918 0.98241 0.1838 0.0
H223 H 0.54167 0.8879 0.18009 0.0
C224 C 0.58144 0.12248 0.15227 0.0
C225 C 0.54651 0.14112 0.15988 0.0
C226 C 0.56536 0.06854 0.15453 0.0
C227 C 0.51381 0.03157 0.16445 0.0
C228 C 0.47894 0.05022 0.17252 0.0
C229 C 0.49516 0.10448 0.1703 0.0
C230 C 0.42991 0.88283 0.15123 0.0
C231 C 0.46428 0.86432 0.16053 0.0
C232 C 0.44554 0.93668 0.15328 0.0
C233 C 0.49604 0.97366 0.16467 0.0
C234 C 0.53017 0.95507 0.17456 0.0
C235 C 0.51443 0.90093 0.17255 0.0
H236 H 0.46178 0.61065 0.5105 0.0
H237 H 0.34821 0.45443 0.47677 0.0
H238 H 0.52878 0.58448 0.51456 0.0
H239 H 0.41627 0.42871 0.47828 0.0
H240 H 0.53824 0.38247 0.50224 0.0
H241 H 0.46959 0.40647 0.50612 0.0
H242 H 0.58622 0.57015 0.4855 0.0
H243 H 0.65529 0.54608 0.4841 0.0
C244 C 0.45135 0.57054 0.50384 0.0
C245 C 0.39998 0.53448 0.49331 0.0
C246 C 0.48999 0.55562 0.50577 0.0
C247 C 0.47881 0.50462 0.49625 0.0
C248 C 0.42666 0.46811 0.48632 0.0
C249 C 0.38746 0.48272 0.48527 0.0
C250 C 0.54912 0.42369 0.49882 0.0
C251 C 0.60203 0.46248 0.49284 0.0
C252 C 0.50959 0.43747 0.50074 0.0
C253 C 0.52165 0.49031 0.49589 0.0
C254 C 0.57503 0.52919 0.49007 0.0
C255 C 0.61485 0.51551 0.48901 0.0
H256 H 0.88108 0.36804 0.82612 0.0
H257 H 0.86715 0.50023 0.79077 0.0
H258 H 0.97747 0.422 0.82247 0.0
H259 H 0.96298 0.55352 0.78644 0.0
H260 H 0.13331 0.65223 0.82545 0.0
H261 H 0.03708 0.59769 0.8216 0.0
H262 H 0.05291 0.46574 0.78808 0.0
H263 H 0.14862 0.5196 0.7926 0.0
C264 C 0.89846 0.40813 0.81692 0.0
C265 C 0.86631 0.42982 0.80899 0.0
C266 C 0.95379 0.43918 0.8148 0.0
C267 C 0.97818 0.49248 0.80451 0.0
C268 C 0.94577 0.51315 0.79516 0.0
C269 C 0.89067 0.48232 0.79743 0.0
C270 C 0.1163 0.61185 0.81685 0.0
C271 C 0.14886 0.59037 0.80956 0.0
C272 C 0.06104 0.58049 0.81456 0.0
C273 C 0.03705 0.52701 0.80477 0.0
C274 C 0.06981 0.50631 0.79633 0.0
C275 C 0.12487 0.53748 0.79873 0.0
H276 H 0.14982 0.64339 0.51395 0.0
H277 H 0.13112 0.49015 0.49019 0.0
H278 H 0.0544 0.60344 0.51919 0.0
H279 H 0.03519 0.45032 0.49483 0.0
H280 H 0.86775 0.3843 0.52863 0.0
H281 H 0.96371 0.42714 0.53142 0.0
H282 H 0.97689 0.56657 0.48585 0.0
H283 H 0.88025 0.52382 0.48366 0.0
C284 C 0.12543 0.60104 0.50995 0.0
C285 C 0.1484 0.57003 0.50153 0.0
C286 C 0.07052 0.57823 0.51277 0.0
C287 C 0.03692 0.52375 0.50723 0.0
C288 C 0.05987 0.49236 0.49964 0.0
C289 C 0.11495 0.5152 0.4969 0.0
C290 C 0.89104 0.42442 0.51955 0.0
C291 C 0.86626 0.45054 0.50572 0.0
C292 C 0.94617 0.44881 0.52094 0.0
C293 C 0.97819 0.49996 0.50841 0.0
C294 C 0.95347 0.52721 0.49592 0.0
C295 C 0.89805 0.50279 0.49467 0.0
H296 H 0.47219 0.86357 0.84037 0.0
H297 H 0.35305 0.8992 0.80705 0.0
H298 H 0.53872 0.95693 0.83764 0.0
H299 H 0.4206 0.99362 0.80379 0.0
H300 H 0.65771 0.12371 0.80493 0.0
H301 H 0.58951 0.02973 0.80132 0.0
H302 H 0.47399 0.06626 0.83993 0.0
H303 H 0.54132 0.15948 0.84301 0.0
C304 C 0.46015 0.89135 0.83225 0.0
C305 C 0.40708 0.87387 0.82408 0.0
C306 C 0.49862 0.94501 0.83041 0.0
C307 C 0.48523 0.98288 0.82037 0.0
C308 C 0.43218 0.96548 0.81189 0.0
C309 C 0.39348 0.91145 0.81367 0.0
C310 C 0.61771 0.11157 0.81253 0.0
C311 C 0.60513 0.14904 0.82444 0.0
C312 C 0.57863 0.05776 0.81054 0.0
C313 C 0.52616 0.0404 0.82033 0.0
C314 C 0.51364 0.07818 0.83174 0.0
C315 C 0.55256 0.1317 0.83378 0.0
H316 H 0.52234 0.64615 0.15378 0.0
H317 H 0.37624 0.51152 0.1864 0.0
H318 H 0.56589 0.593 0.15725 0.0
H319 H 0.41988 0.45907 0.19077 0.0
H320 H 0.49464 0.36253 0.15356 0.0
H321 H 0.45191 0.4163 0.15671 0.0
H322 H 0.59796 0.54923 0.19078 0.0
H323 H 0.64095 0.49609 0.18676 0.0
C324 C 0.49983 0.60564 0.16235 0.0
C325 C 0.44574 0.58309 0.16959 0.0
C326 C 0.52477 0.57505 0.16438 0.0
C327 C 0.49629 0.52135 0.17397 0.0
C328 C 0.44282 0.49975 0.18257 0.0
C329 C 0.41788 0.53009 0.1803 0.0
C330 C 0.51743 0.40298 0.16212 0.0
C331 C 0.57131 0.4249 0.16975 0.0
C332 C 0.49291 0.43392 0.16401 0.0
C333 C 0.52153 0.48744 0.17382 0.0
C334 C 0.5749 0.50864 0.18251 0.0
C335 C 0.59946 0.47789 0.18042 0.0
H336 H 0.79213 0.38154 0.92298 0.0
H337 H 0.62789 0.33064 0.90512 0.0
H338 H 0.7808 0.39717 0.97865 0.0
H339 H 0.61522 0.34328 0.96066 0.0
H340 H 0.60036 0.37633 0.0603 0.0
H341 H 0.62986 0.39681 0.00523 0.0
H342 H 0.73931 0.33921 0.02144 0.0
H343 H 0.71156 0.3219 0.07661 0.0
C344 C 0.7539 0.37474 0.93104 0.0
C345 C 0.71114 0.35626 0.91002 0.0
C346 C 0.7472 0.38319 0.96282 0.0
C347 C 0.69701 0.37115 0.97426 0.0
C348 C 0.65469 0.35407 0.95272 0.0
C349 C 0.66173 0.34658 0.92091 0.0
C350 C 0.63176 0.36963 0.05202 0.0
C351 C 0.65484 0.34895 0.07247 0.0
C352 C 0.6484 0.38089 0.02057 0.0
C353 C 0.68678 0.36941 0.00878 0.0
C354 C 0.71053 0.34967 0.02972 0.0
C355 C 0.69456 0.33944 0.06128 0.0
H356 H 0.37698 0.74976 0.24371 0.0
H357 H 0.26431 0.58137 0.2394 0.0
H358 H 0.3607 0.74929 0.30036 0.0
H359 H 0.24954 0.58046 0.29599 0.0
H360 H 0.21646 0.58673 0.39645 0.0
H361 H 0.21697 0.60559 0.34003 0.0
H362 H 0.3855 0.71654 0.34519 0.0
H363 H 0.38384 0.69891 0.40182 0.0
C364 C 0.3484 0.71272 0.25481 0.0
C365 C 0.32246 0.66539 0.23716 0.0
C366 C 0.33922 0.71246 0.28728 0.0
C367 C 0.30432 0.6648 0.30284 0.0
C368 C 0.2762 0.61811 0.2848 0.0
C369 C 0.28493 0.61848 0.25229 0.0
C370 C 0.25307 0.61642 0.3855 0.0
C371 C 0.29983 0.64246 0.40326 0.0
C372 C 0.25357 0.62689 0.35324 0.0
C373 C 0.30135 0.66212 0.33795 0.0
C374 C 0.34781 0.68979 0.3562 0.0
C375 C 0.34704 0.67978 0.3886 0.0
H376 H 0.62757 0.25306 0.74079 0.0
H377 H 0.68834 0.42246 0.73532 0.0
H378 H 0.61392 0.24588 0.68376 0.0
H379 H 0.67588 0.41547 0.67813 0.0
H380 H 0.68875 0.27769 0.58284 0.0
H381 H 0.67511 0.2722 0.63993 0.0
H382 H 0.61634 0.3823 0.6335 0.0
H383 H 0.63115 0.38879 0.57656 0.0
C384 C 0.63745 0.28872 0.72744 0.0
C385 C 0.65985 0.33853 0.74246 0.0
C386 C 0.6298 0.28457 0.69475 0.0
C387 C 0.64461 0.33015 0.67635 0.0
C388 C 0.66368 0.37946 0.69164 0.0
C389 C 0.67101 0.38357 0.72443 0.0
C390 C 0.67199 0.29991 0.59353 0.0
C391 C 0.66193 0.33434 0.57529 0.0
C392 C 0.66393 0.29664 0.62626 0.0
C393 C 0.64522 0.32738 0.6413 0.0
C394 C 0.63184 0.35903 0.62271 0.0
C395 C 0.64021 0.36257 0.59007 0.0
H396 H 0.22796 0.63611 0.92224 0.0
H397 H 0.39282 0.69343 0.90192 0.0
H398 H 0.24165 0.61885 0.97715 0.0
H399 H 0.40783 0.67933 0.95689 0.0
H400 H 0.42428 0.64039 0.05617 0.0
H401 H 0.39622 0.62453 0.00067 0.0
H402 H 0.28258 0.67566 0.02024 0.0
H403 H 0.30904 0.68851 0.07559 0.0
C404 C 0.26689 0.64404 0.92959 0.0
C405 C 0.30913 0.66478 0.90809 0.0
C406 C 0.27495 0.63469 0.96096 0.0
C407 C 0.32597 0.64818 0.97158 0.0
C408 C 0.36783 0.66751 0.94955 0.0
C409 C 0.35944 0.67584 0.91809 0.0
C410 C 0.39246 0.64686 0.04845 0.0
C411 C 0.36762 0.66415 0.06991 0.0
C412 C 0.37661 0.6382 0.01677 0.0
C413 C 0.33709 0.64876 0.00591 0.0
C414 C 0.31215 0.66577 0.02777 0.0
C415 C 0.3274 0.67346 0.05945 0.0
H416 H 0.789 0.43171 0.39442 0.0
H417 H 0.63612 0.29343 0.41052 0.0
H418 H 0.78245 0.41106 0.33838 0.0
H419 H 0.6316 0.26841 0.35512 0.0
H420 H 0.59694 0.29573 0.25397 0.0
H421 H 0.61154 0.29688 0.3102 0.0
H422 H 0.7801 0.36573 0.2937 0.0
H423 H 0.76511 0.36821 0.23694 0.0
C424 C 0.75506 0.3954 0.386 0.0
C425 C 0.7137 0.36328 0.40671 0.0
C426 C 0.75137 0.38313 0.35387 0.0
C427 C 0.70614 0.33821 0.34178 0.0
C428 C 0.66643 0.30413 0.3632 0.0
C429 C 0.66945 0.31751 0.39517 0.0
C430 C 0.63709 0.31063 0.26234 0.0
C431 C 0.67997 0.33244 0.24118 0.0
C432 C 0.64557 0.31073 0.29476 0.0
C433 C 0.69716 0.33142 0.30693 0.0
C434 C 0.73991 0.35059 0.28543 0.0
C435 C 0.73146 0.35184 0.25289 0.0
H436 H 0.37978 0.63122 0.73982 0.0
H437 H 0.3262 0.74508 0.72984 0.0
H438 H 0.39527 0.63532 0.68281 0.0
H439 H 0.33892 0.74714 0.67324 0.0
H440 H 0.37697 0.75675 0.57126 0.0
H441 H 0.39277 0.76916 0.62824 0.0
H442 H 0.34044 0.60185 0.63855 0.0
H443 H 0.32736 0.5902 0.58212 0.0
C444 C 0.37152 0.65722 0.72551 0.0
C445 C 0.3511 0.68722 0.73932 0.0
C446 C 0.38019 0.65949 0.69282 0.0
C447 C 0.36773 0.69107 0.67325 0.0
C448 C 0.34977 0.72295 0.68742 0.0
C449 C 0.34193 0.72133 0.72002 0.0
C450 C 0.36966 0.72291 0.58573 0.0
C451 C 0.35027 0.67242 0.57216 0.0
C452 C 0.37851 0.72991 0.6184 0.0
C453 C 0.3674 0.6864 0.63816 0.0
C454 C 0.35033 0.63654 0.62423 0.0
C455 C 0.34224 0.62975 0.59169 0.0
loop_
_geom_bond_atom_site_label_1
_geom_bond_atom_site_label_2
_geom_bond_distance
_geom_bond_site_symmetry_2
_ccdc_geom_bond_type
Mn0 O5 2.095 . S
Mn0 O15 2.162 . S
Mn0 O16 2.297 . S
Mn0 O24 2.385 . S
Mn0 O25 2.209 . S
Mn0 O26 2.094 . S
Mn1 O6 2.121 . S
Mn1 N8 2.257 . S
Mn1 N17 2.282 . S
Mn1 O25 2.215 . S
Mn1 O27 2.117 . S
C2 O24 1.234 . S
C2 O25 1.283 . S
C3 O15 1.281 . S
C3 O16 1.236 . S
C4 O26 1.240 . S
C4 O27 1.264 . S
O5 Mn0 2.095 . S
O5 C14 1.250 . S
O6 Mn1 2.121 . S
O6 C14 1.258 . S
C7 N8 1.326 . S
C7 C11 1.460 . S
C7 H13 0.929 . S
N8 Mn1 2.257 . S
N8 C7 1.326 . S
N8 C12 1.362 . S
C9 C10 1.258 . S
C9 C12 1.431 . S
C9 C29 1.449 . S
C10 C9 1.258 . S
C10 C11 1.477 . S
C10 H30 0.931 . S
C11 C7 1.460 . S
C11 C10 1.477 . S
C11 H31 0.930 . S
C12 N8 1.362 . S
C12 C9 1.431 . S
C12 C22 1.476 . S
H13 C7 0.929 . S
C14 O5 1.250 . S
C14 O6 1.258 . S
O15 Mn0 2.162 . S
O15 C3 1.281 . S
O16 Mn0 2.297 . S
O16 C3 1.236 . S
N17 Mn1 2.282 . S
N17 C18 1.328 . S
N17 C22 1.318 . S
C18 N17 1.328 . S
C18 C19 1.457 . S
C18 H23 0.929 . S
C19 C18 1.457 . S
C19 C20 1.291 . S
C19 H32 0.931 . S
C20 C19 1.291 . S
C20 C21 1.373 . S
C20 H33 0.929 . S
C21 C20 1.373 . S
C21 C22 1.396 . S
C21 C28 1.403 . S
C22 C12 1.476 . S
C22 N17 1.318 . S
C22 C21 1.396 . S
H23 C18 0.929 . S
O24 Mn0 2.385 . S
O24 C2 1.234 . S
O25 Mn0 2.209 . S
O25 Mn1 2.215 . S
O25 C2 1.283 . S
O26 Mn0 2.094 . S
O26 C4 1.240 . S
O27 Mn1 2.117 . S
O27 C4 1.264 . S
C28 C21 1.403 . S
C28 C29 1.399 . S
C28 H34 0.929 . S
C29 C9 1.449 . S
C29 C28 1.399 . S
C29 H35 0.930 . S
H30 C10 0.931 . S
H31 C11 0.930 . S
H32 C19 0.931 . S
H33 C20 0.929 . S
H34 C28 0.929 . S
H35 C29 0.930 . S
Mn36 O41 2.095 . S
Mn36 O51 2.162 . S
Mn36 O52 2.297 . S
Mn36 O60 2.385 . S
Mn36 O61 2.209 . S
Mn36 O62 2.094 . S
Mn37 O42 2.121 . S
Mn37 N44 2.257 . S
Mn37 N53 2.282 . S
Mn37 O61 2.215 . S
Mn37 O63 2.117 . S
C38 O60 1.234 . S
C38 O61 1.283 . S
C39 O51 1.281 . S
C39 O52 1.236 . S
C40 O62 1.240 . S
C40 O63 1.264 . S
O41 Mn36 2.095 . S
O41 C50 1.250 . S
O42 Mn37 2.121 . S
O42 C50 1.258 . S
C43 N44 1.326 . S
C43 C47 1.460 . S
C43 H49 0.929 . S
N44 Mn37 2.257 . S
N44 C43 1.326 . S
N44 C48 1.362 . S
C45 C46 1.258 . S
C45 C48 1.431 . S
C45 C65 1.449 . S
C46 C45 1.258 . S
C46 C47 1.477 . S
C46 H66 0.931 . S
C47 C43 1.460 . S
C47 C46 1.477 . S
C47 H67 0.930 . S
C48 N44 1.362 . S
C48 C45 1.431 . S
C48 C58 1.476 . S
H49 C43 0.929 . S
C50 O41 1.250 . S
C50 O42 1.258 . S
O51 Mn36 2.162 . S
O51 C39 1.281 . S
O52 Mn36 2.297 . S
O52 C39 1.236 . S
N53 Mn37 2.282 . S
N53 C54 1.328 . S
N53 C58 1.318 . S
C54 N53 1.328 . S
C54 C55 1.457 . S
C54 H59 0.929 . S
C55 C54 1.457 . S
C55 C56 1.291 . S
C55 H68 0.931 . S
C56 C55 1.291 . S
C56 C57 1.373 . S
C56 H69 0.929 . S
C57 C56 1.373 . S
C57 C58 1.396 . S
C57 C64 1.403 . S
C58 C48 1.476 . S
C58 N53 1.318 . S
C58 C57 1.396 . S
H59 C54 0.929 . S
O60 Mn36 2.385 . S
O60 C38 1.234 . S
O61 Mn36 2.209 . S
O61 Mn37 2.215 . S
O61 C38 1.283 . S
O62 Mn36 2.094 . S
O62 C40 1.240 . S
O63 Mn37 2.117 . S
O63 C40 1.264 . S
C64 C57 1.403 . S
C64 C65 1.399 . S
C64 H70 0.929 . S
C65 C45 1.449 . S
C65 C64 1.399 . S
C65 H71 0.930 . S
H66 C46 0.931 . S
H67 C47 0.930 . S
H68 C55 0.931 . S
H69 C56 0.929 . S
H70 C64 0.929 . S
H71 C65 0.930 . S
Mn72 O77 2.095 . S
Mn72 O87 2.162 . S
Mn72 O88 2.297 . S
Mn72 O96 2.385 . S
Mn72 O97 2.209 . S
Mn72 O98 2.094 . S
Mn73 O78 2.121 . S
Mn73 N80 2.257 . S
Mn73 N89 2.282 . S
Mn73 O97 2.215 . S
Mn73 O99 2.117 . S
C74 O96 1.234 . S
C74 O97 1.283 . S
C75 O87 1.281 . S
C75 O88 1.236 . S
C76 O98 1.240 . S
C76 O99 1.264 . S
O77 Mn72 2.095 . S
O77 C86 1.250 . S
O78 Mn73 2.121 . S
O78 C86 1.258 . S
C79 N80 1.326 . S
C79 C83 1.460 . S
C79 H85 0.929 . S
N80 Mn73 2.257 . S
N80 C79 1.326 . S
N80 C84 1.362 . S
C81 C82 1.258 . S
C81 C84 1.431 . S
C81 C101 1.449 . S
C82 C81 1.258 . S
C82 C83 1.477 . S
C82 H102 0.931 . S
C83 C79 1.460 . S
C83 C82 1.477 . S
C83 H103 0.930 . S
C84 N80 1.362 . S
C84 C81 1.431 . S
C84 C94 1.476 . S
H85 C79 0.929 . S
C86 O77 1.250 . S
C86 O78 1.258 . S
O87 Mn72 2.162 . S
O87 C75 1.281 . S
O88 Mn72 2.297 . S
O88 C75 1.236 . S
N89 Mn73 2.282 . S
N89 C90 1.328 . S
N89 C94 1.318 . S
C90 N89 1.328 . S
C90 C91 1.457 . S
C90 H95 0.929 . S
C91 C90 1.457 . S
C91 C92 1.291 . S
C91 H104 0.931 . S
C92 C91 1.291 . S
C92 C93 1.373 . S
C92 H105 0.929 . S
C93 C92 1.373 . S
C93 C94 1.396 . S
C93 C100 1.403 . S
C94 C84 1.476 . S
C94 N89 1.318 . S
C94 C93 1.396 . S
H95 C90 0.929 . S
O96 Mn72 2.385 . S
O96 C74 1.234 . S
O97 Mn72 2.209 . S
O97 Mn73 2.215 . S
O97 C74 1.283 . S
O98 Mn72 2.094 . S
O98 C76 1.240 . S
O99 Mn73 2.117 . S
O99 C76 1.264 . S
C100 C93 1.403 . S
C100 C101 1.399 . S
C100 H106 0.929 . S
C101 C81 1.449 . S
C101 C100 1.399 . S
C101 H107 0.930 . S
H102 C82 0.931 . S
H103 C83 0.930 . S
H104 C91 0.931 . S
H105 C92 0.929 . S
H106 C100 0.929 . S
H107 C101 0.930 . S
Mn108 O113 2.095 . S
Mn108 O123 2.162 . S
Mn108 O124 2.297 . S
Mn108 O132 2.385 . S
Mn108 O133 2.209 . S
Mn108 O134 2.094 . S
Mn109 O114 2.121 . S
Mn109 N116 2.257 . S
Mn109 N125 2.282 . S
Mn109 O133 2.215 . S
Mn109 O135 2.117 . S
C110 O132 1.234 . S
C110 O133 1.283 . S
C111 O123 1.281 . S
C111 O124 1.236 . S
C112 O134 1.240 . S
C112 O135 1.264 . S
O113 Mn108 2.095 . S
O113 C122 1.250 . S
O114 Mn109 2.121 . S
O114 C122 1.258 . S
C115 N116 1.326 . S
C115 C119 1.460 . S
C115 H121 0.929 . S
N116 Mn109 2.257 . S
N116 C115 1.326 . S
N116 C120 1.362 . S
C117 C118 1.258 . S
C117 C120 1.431 . S
C117 C137 1.449 . S
C118 C117 1.258 . S
C118 C119 1.477 . S
C118 H138 0.931 . S
C119 C115 1.460 . S
C119 C118 1.477 . S
C119 H139 0.930 . S
C120 N116 1.362 . S
C120 C117 1.431 . S
C120 C130 1.476 . S
H121 C115 0.929 . S
C122 O113 1.250 . S
C122 O114 1.258 . S
O123 Mn108 2.162 . S
O123 C111 1.281 . S
O124 Mn108 2.297 . S
O124 C111 1.236 . S
N125 Mn109 2.282 . S
N125 C126 1.328 . S
N125 C130 1.318 . S
C126 N125 1.328 . S
C126 C127 1.457 . S
C126 H131 0.929 . S
C127 C126 1.457 . S
C127 C128 1.291 . S
C127 H140 0.931 . S
C128 C127 1.291 . S
C128 C129 1.373 . S
C128 H141 0.929 . S
C129 C128 1.373 . S
C129 C130 1.396 . S
C129 C136 1.403 . S
C130 C120 1.476 . S
C130 N125 1.318 . S
C130 C129 1.396 . S
H131 C126 0.929 . S
O132 Mn108 2.385 . S
O132 C110 1.234 . S
O133 Mn108 2.209 . S
O133 Mn109 2.215 . S
O133 C110 1.283 . S
O134 Mn108 2.094 . S
O134 C112 1.240 . S
O135 Mn109 2.117 . S
O135 C112 1.264 . S
C136 C129 1.403 . S
C136 C137 1.399 . S
C136 H142 0.929 . S
C137 C117 1.449 . S
C137 C136 1.399 . S
C137 H143 0.930 . S
H138 C118 0.931 . S
H139 C119 0.930 . S
H140 C127 0.931 . S
H141 C128 0.929 . S
H142 C136 0.929 . S
H143 C137 0.930 . S
Mn144 O149 2.095 . S
Mn144 O159 2.162 . S
Mn144 O160 2.297 . S
Mn144 O168 2.385 . S
Mn144 O169 2.209 . S
Mn144 O170 2.094 . S
Mn145 O150 2.121 . S
Mn145 N152 2.257 . S
Mn145 N161 2.282 . S
Mn145 O169 2.215 . S
Mn145 O171 2.117 . S
C146 O168 1.234 . S
C146 O169 1.283 . S
C147 O159 1.281 . S
C147 O160 1.236 . S
C148 O170 1.240 . S
C148 O171 1.264 . S
O149 Mn144 2.095 . S
O149 C158 1.250 . S
O150 Mn145 2.121 . S
O150 C158 1.258 . S
C151 N152 1.326 . S
C151 C155 1.460 . S
C151 H157 0.929 . S
N152 Mn145 2.257 . S
N152 C151 1.326 . S
N152 C156 1.362 . S
C153 C154 1.258 . S
C153 C156 1.431 . S
C153 C173 1.449 . S
C154 C153 1.258 . S
C154 C155 1.477 . S
C154 H174 0.931 . S
C155 C151 1.460 . S
C155 C154 1.477 . S
C155 H175 0.930 . S
C156 N152 1.362 . S
C156 C153 1.431 . S
C156 C166 1.476 . S
H157 C151 0.929 . S
C158 O149 1.250 . S
C158 O150 1.258 . S
O159 Mn144 2.162 . S
O159 C147 1.281 . S
O160 Mn144 2.297 . S
O160 C147 1.236 . S
N161 Mn145 2.282 . S
N161 C162 1.328 . S
N161 C166 1.318 . S
C162 N161 1.328 . S
C162 C163 1.457 . S
C162 H167 0.929 . S
C163 C162 1.457 . S
C163 C164 1.291 . S
C163 H176 0.931 . S
C164 C163 1.291 . S
C164 C165 1.373 . S
C164 H177 0.929 . S
C165 C164 1.373 . S
C165 C166 1.396 . S
C165 C172 1.403 . S
C166 C156 1.476 . S
C166 N161 1.318 . S
C166 C165 1.396 . S
H167 C162 0.929 . S
O168 Mn144 2.385 . S
O168 C146 1.234 . S
O169 Mn144 2.209 . S
O169 Mn145 2.215 . S
O169 C146 1.283 . S
O170 Mn144 2.094 . S
O170 C148 1.240 . S
O171 Mn145 2.117 . S
O171 C148 1.264 . S
C172 C165 1.403 . S
C172 C173 1.399 . S
C172 H178 0.929 . S
C173 C153 1.449 . S
C173 C172 1.399 . S
C173 H179 0.930 . S
H174 C154 0.931 . S
H175 C155 0.930 . S
H176 C163 0.931 . S
H177 C164 0.929 . S
H178 C172 0.929 . S
H179 C173 0.930 . S
Mn180 O185 2.095 . S
Mn180 O195 2.162 . S
Mn180 O196 2.297 . S
Mn180 O204 2.385 . S
Mn180 O205 2.209 . S
Mn180 O206 2.094 . S
Mn181 O186 2.121 . S
Mn181 N188 2.257 . S
Mn181 N197 2.282 . S
Mn181 O205 2.215 . S
Mn181 O207 2.117 . S
C182 O204 1.234 . S
C182 O205 1.283 . S
C183 O195 1.281 . S
C183 O196 1.236 . S
C184 O206 1.240 . S
C184 O207 1.264 . S
O185 Mn180 2.095 . S
O185 C194 1.250 . S
O186 Mn181 2.121 . S
O186 C194 1.258 . S
C187 N188 1.326 . S
C187 C191 1.460 . S
C187 H193 0.929 . S
N188 Mn181 2.257 . S
N188 C187 1.326 . S
N188 C192 1.362 . S
C189 C190 1.258 . S
C189 C192 1.431 . S
C189 C209 1.449 . S
C190 C189 1.258 . S
C190 C191 1.477 . S
C190 H210 0.931 . S
C191 C187 1.460 . S
C191 C190 1.477 . S
C191 H211 0.930 . S
C192 N188 1.362 . S
C192 C189 1.431 . S
C192 C202 1.476 . S
H193 C187 0.929 . S
C194 O185 1.250 . S
C194 O186 1.258 . S
O195 Mn180 2.162 . S
O195 C183 1.281 . S
O196 Mn180 2.297 . S
O196 C183 1.236 . S
N197 Mn181 2.282 . S
N197 C198 1.328 . S
N197 C202 1.318 . S
C198 N197 1.328 . S
C198 C199 1.457 . S
C198 H203 0.929 . S
C199 C198 1.457 . S
C199 C200 1.291 . S
C199 H212 0.931 . S
C200 C199 1.291 . S
C200 C201 1.373 . S
C200 H213 0.929 . S
C201 C200 1.373 . S
C201 C202 1.396 . S
C201 C208 1.403 . S
C202 C192 1.476 . S
C202 N197 1.318 . S
C202 C201 1.396 . S
H203 C198 0.929 . S
O204 Mn180 2.385 . S
O204 C182 1.234 . S
O205 Mn180 2.209 . S
O205 Mn181 2.215 . S
O205 C182 1.283 . S
O206 Mn180 2.094 . S
O206 C184 1.240 . S
O207 Mn181 2.117 . S
O207 C184 1.264 . S
C208 C201 1.403 . S
C208 C209 1.399 . S
C208 H214 0.929 . S
C209 C189 1.449 . S
C209 C208 1.399 . S
C209 H215 0.930 . S
H210 C190 0.931 . S
H211 C191 0.930 . S
H212 C199 0.931 . S
H213 C200 0.929 . S
H214 C208 0.929 . S
H215 C209 0.930 . S
H216 C224 0.950 . S
H217 C229 0.950 . S
H218 C226 0.950 . S
H219 C228 0.950 . S
H220 C230 0.950 . S
H221 C232 0.950 . S
H222 C234 0.950 . S
H223 C235 0.950 . S
C224 H216 0.950 . S
C224 C225 1.386 . S
C224 C226 1.391 . S
C225 C224 1.386 . S
C225 C229 1.393 . S
C226 H218 0.950 . S
C226 C224 1.391 . S
C226 C227 1.400 . S
C227 C226 1.400 . S
C227 C228 1.398 . S
C227 C233 1.491 1_545 S
C228 H219 0.950 . S
C228 C227 1.398 . S
C228 C229 1.391 . S
C229 H217 0.950 . S
C229 C225 1.393 . S
C229 C228 1.391 . S
C230 H220 0.950 . S
C230 C231 1.386 . S
C230 C232 1.391 . S
C231 C230 1.386 . S
C231 C235 1.393 . S
C232 H221 0.950 . S
C232 C230 1.391 . S
C232 C233 1.400 . S
C233 C227 1.491 1_565 S
C233 C232 1.400 . S
C233 C234 1.398 . S
C234 H222 0.950 . S
C234 C233 1.398 . S
C234 C235 1.391 . S
C235 H223 0.950 . S
C235 C231 1.393 . S
C235 C234 1.391 . S
H236 C244 0.950 . S
H237 C249 0.950 . S
H238 C246 0.950 . S
H239 C248 0.950 . S
H240 C250 0.950 . S
H241 C252 0.950 . S
H242 C254 0.950 . S
H243 C255 0.950 . S
C244 H236 0.950 . S
C244 C245 1.386 . S
C244 C246 1.391 . S
C245 C244 1.386 . S
C245 C249 1.393 . S
C246 H238 0.950 . S
C246 C244 1.391 . S
C246 C247 1.400 . S
C247 C246 1.400 . S
C247 C248 1.398 . S
C247 C253 1.491 . S
C248 H239 0.950 . S
C248 C247 1.398 . S
C248 C249 1.391 . S
C249 H237 0.950 . S
C249 C245 1.393 . S
C249 C248 1.391 . S
C250 H240 0.950 . S
C250 C251 1.386 . S
C250 C252 1.391 . S
C251 C250 1.386 . S
C251 C255 1.393 . S
C252 H241 0.950 . S
C252 C250 1.391 . S
C252 C253 1.400 . S
C253 C247 1.491 . S
C253 C252 1.400 . S
C253 C254 1.398 . S
C254 H242 0.950 . S
C254 C253 1.398 . S
C254 C255 1.391 . S
C255 H243 0.950 . S
C255 C251 1.393 . S
C255 C254 1.391 . S
H256 C264 0.950 . S
H257 C269 0.950 . S
H258 C266 0.950 . S
H259 C268 0.950 . S
H260 C270 0.950 . S
H261 C272 0.950 . S
H262 C274 0.950 . S
H263 C275 0.950 . S
C264 H256 0.950 . S
C264 C265 1.386 . S
C264 C266 1.391 . S
C265 C264 1.386 . S
C265 C269 1.393 . S
C266 H258 0.950 . S
C266 C264 1.391 . S
C266 C267 1.400 . S
C267 C266 1.400 . S
C267 C268 1.398 . S
C267 C273 1.491 1_655 S
C268 H259 0.950 . S
C268 C267 1.398 . S
C268 C269 1.391 . S
C269 H257 0.950 . S
C269 C265 1.393 . S
C269 C268 1.391 . S
C270 H260 0.950 . S
C270 C271 1.386 . S
C270 C272 1.391 . S
C271 C270 1.386 . S
C271 C275 1.393 . S
C272 H261 0.950 . S
C272 C270 1.391 . S
C272 C273 1.400 . S
C273 C267 1.491 1_455 S
C273 C272 1.400 . S
C273 C274 1.398 . S
C274 H262 0.950 . S
C274 C273 1.398 . S
C274 C275 1.391 . S
C275 H263 0.950 . S
C275 C271 1.393 . S
C275 C274 1.391 . S
H276 C284 0.950 . S
H277 C289 0.950 . S
H278 C286 0.950 . S
H279 C288 0.950 . S
H280 C290 0.950 . S
H281 C292 0.950 . S
H282 C294 0.950 . S
H283 C295 0.950 . S
C284 H276 0.950 . S
C284 C285 1.386 . S
C284 C286 1.391 . S
C285 C284 1.386 . S
C285 C289 1.393 . S
C286 H278 0.950 . S
C286 C284 1.391 . S
C286 C287 1.400 . S
C287 C286 1.400 . S
C287 C288 1.398 . S
C287 C293 1.491 1_455 S
C288 H279 0.950 . S
C288 C287 1.398 . S
C288 C289 1.391 . S
C289 H277 0.950 . S
C289 C285 1.393 . S
C289 C288 1.391 . S
C290 H280 0.950 . S
C290 C291 1.386 . S
C290 C292 1.391 . S
C291 C290 1.386 . S
C291 C295 1.393 . S
C292 H281 0.950 . S
C292 C290 1.391 . S
C292 C293 1.400 . S
C293 C287 1.491 1_655 S
C293 C292 1.400 . S
C293 C294 1.398 . S
C294 H282 0.950 . S
C294 C293 1.398 . S
C294 C295 1.391 . S
C295 H283 0.950 . S
C295 C291 1.393 . S
C295 C294 1.391 . S
H296 C304 0.950 . S
H297 C309 0.950 . S
H298 C306 0.950 . S
H299 C308 0.950 . S
H300 C310 0.950 . S
H301 C312 0.950 . S
H302 C314 0.950 . S
H303 C315 0.950 . S
C304 H296 0.950 . S
C304 C305 1.386 . S
C304 C306 1.391 . S
C305 C304 1.386 . S
C305 C309 1.393 . S
C306 H298 0.950 . S
C306 C304 1.391 . S
C306 C307 1.400 . S
C307 C306 1.400 . S
C307 C308 1.398 . S
C307 C313 1.491 1_565 S
C308 H299 0.950 . S
C308 C307 1.398 . S
C308 C309 1.391 . S
C309 H297 0.950 . S
C309 C305 1.393 . S
C309 C308 1.391 . S
C310 H300 0.950 . S
C310 C311 1.386 . S
C310 C312 1.391 . S
C311 C310 1.386 . S
C311 C315 1.393 . S
C312 H301 0.950 . S
C312 C310 1.391 . S
C312 C313 1.400 . S
C313 C307 1.491 1_545 S
C313 C312 1.400 . S
C313 C314 1.398 . S
C314 H302 0.950 . S
C314 C313 1.398 . S
C314 C315 1.391 . S
C315 H303 0.950 . S
C315 C311 1.393 . S
C315 C314 1.391 . S
H316 C324 0.950 . S
H317 C329 0.950 . S
H318 C326 0.950 . S
H319 C328 0.950 . S
H320 C330 0.950 . S
H321 C332 0.950 . S
H322 C334 0.950 . S
H323 C335 0.950 . S
C324 H316 0.950 . S
C324 C325 1.386 . S
C324 C326 1.391 . S
C325 C324 1.386 . S
C325 C329 1.393 . S
C326 H318 0.950 . S
C326 C324 1.391 . S
C326 C327 1.400 . S
C327 C326 1.400 . S
C327 C328 1.398 . S
C327 C333 1.491 . S
C328 H319 0.950 . S
C328 C327 1.398 . S
C328 C329 1.391 . S
C329 H317 0.950 . S
C329 C325 1.393 . S
C329 C328 1.391 . S
C330 H320 0.950 . S
C330 C331 1.386 . S
C330 C332 1.391 . S
C331 C330 1.386 . S
C331 C335 1.393 . S
C332 H321 0.950 . S
C332 C330 1.391 . S
C332 C333 1.400 . S
C333 C327 1.491 . S
C333 C332 1.400 . S
C333 C334 1.398 . S
C334 H322 0.950 . S
C334 C333 1.398 . S
C334 C335 1.391 . S
C335 H323 0.950 . S
C335 C331 1.393 . S
C335 C334 1.391 . S
H336 C344 0.950 . S
H337 C349 0.950 . S
H338 C346 0.950 . S
H339 C348 0.950 . S
H340 C350 0.950 . S
H341 C352 0.950 . S
H342 C354 0.950 . S
H343 C355 0.950 . S
C344 H336 0.950 . S
C344 C345 1.386 . S
C344 C346 1.391 . S
C345 C344 1.386 . S
C345 C349 1.393 . S
C346 H338 0.950 . S
C346 C344 1.391 . S
C346 C347 1.400 . S
C347 C346 1.400 . S
C347 C348 1.398 . S
C347 C353 1.491 1_556 S
C348 H339 0.950 . S
C348 C347 1.398 . S
C348 C349 1.391 . S
C349 H337 0.950 . S
C349 C345 1.393 . S
C349 C348 1.391 . S
C350 H340 0.950 . S
C350 C351 1.386 . S
C350 C352 1.391 . S
C351 C350 1.386 . S
C351 C355 1.393 . S
C352 H341 0.950 . S
C352 C350 1.391 . S
C352 C353 1.400 . S
C353 C347 1.491 1_554 S
C353 C352 1.400 . S
C353 C354 1.398 . S
C354 H342 0.950 . S
C354 C353 1.398 . S
C354 C355 1.391 . S
C355 H343 0.950 . S
C355 C351 1.393 . S
C355 C354 1.391 . S
H356 C364 0.950 . S
H357 C369 0.950 . S
H358 C366 0.950 . S
H359 C368 0.950 . S
H360 C370 0.950 . S
H361 C372 0.950 . S
H362 C374 0.950 . S
H363 C375 0.950 . S
C364 H356 0.950 . S
C364 C365 1.386 . S
C364 C366 1.391 . S
C365 C364 1.386 . S
C365 C369 1.393 . S
C366 H358 0.950 . S
C366 C364 1.391 . S
C366 C367 1.400 . S
C367 C366 1.400 . S
C367 C368 1.398 . S
C367 C373 1.491 . S
C368 H359 0.950 . S
C368 C367 1.398 . S
C368 C369 1.391 . S
C369 H357 0.950 . S
C369 C365 1.393 . S
C369 C368 1.391 . S
C370 H360 0.950 . S
C370 C371 1.386 . S
C370 C372 1.391 . S
C371 C370 1.386 . S
C371 C375 1.393 . S
C372 H361 0.950 . S
C372 C370 1.391 . S
C372 C373 1.400 . S
C373 C367 1.491 . S
C373 C372 1.400 . S
C373 C374 1.398 . S
C374 H362 0.950 . S
C374 C373 1.398 . S
C374 C375 1.391 . S
C375 H363 0.950 . S
C375 C371 1.393 . S
C375 C374 1.391 . S
H376 C384 0.950 . S
H377 C389 0.950 . S
H378 C386 0.950 . S
H379 C388 0.950 . S
H380 C390 0.950 . S
H381 C392 0.950 . S
H382 C394 0.950 . S
H383 C395 0.950 . S
C384 H376 0.950 . S
C384 C385 1.386 . S
C384 C386 1.391 . S
C385 C384 1.386 . S
C385 C389 1.393 . S
C386 H378 0.950 . S
C386 C384 1.391 . S
C386 C387 1.400 . S
C387 C386 1.400 . S
C387 C388 1.398 . S
C387 C393 1.491 . S
C388 H379 0.950 . S
C388 C387 1.398 . S
C388 C389 1.391 . S
C389 H377 0.950 . S
C389 C385 1.393 . S
C389 C388 1.391 . S
C390 H380 0.950 . S
C390 C391 1.386 . S
C390 C392 1.391 . S
C391 C390 1.386 . S
C391 C395 1.393 . S
C392 H381 0.950 . S
C392 C390 1.391 . S
C392 C393 1.400 . S
C393 C387 1.491 . S
C393 C392 1.400 . S
C393 C394 1.398 . S
C394 H382 0.950 . S
C394 C393 1.398 . S
C394 C395 1.391 . S
C395 H383 0.950 . S
C395 C391 1.393 . S
C395 C394 1.391 . S
H396 C404 0.950 . S
H397 C409 0.950 . S
H398 C406 0.950 . S
H399 C408 0.950 . S
H400 C410 0.950 . S
H401 C412 0.950 . S
H402 C414 0.950 . S
H403 C415 0.950 . S
C404 H396 0.950 . S
C404 C405 1.386 . S
C404 C406 1.391 . S
C405 C404 1.386 . S
C405 C409 1.393 . S
C406 H398 0.950 . S
C406 C404 1.391 . S
C406 C407 1.400 . S
C407 C406 1.400 . S
C407 C408 1.398 . S
C407 C413 1.491 1_556 S
C408 H399 0.950 . S
C408 C407 1.398 . S
C408 C409 1.391 . S
C409 H397 0.950 . S
C409 C405 1.393 . S
C409 C408 1.391 . S
C410 H400 0.950 . S
C410 C411 1.386 . S
C410 C412 1.391 . S
C411 C410 1.386 . S
C411 C415 1.393 . S
C412 H401 0.950 . S
C412 C410 1.391 . S
C412 C413 1.400 . S
C413 C407 1.491 1_554 S
C413 C412 1.400 . S
C413 C414 1.398 . S
C414 H402 0.950 . S
C414 C413 1.398 . S
C414 C415 1.391 . S
C415 H403 0.950 . S
C415 C411 1.393 . S
C415 C414 1.391 . S
H416 C424 0.950 . S
H417 C429 0.950 . S
H418 C426 0.950 . S
H419 C428 0.950 . S
H420 C430 0.950 . S
H421 C432 0.950 . S
H422 C434 0.950 . S
H423 C435 0.950 . S
C424 H416 0.950 . S
C424 C425 1.386 . S
C424 C426 1.391 . S
C425 C424 1.386 . S
C425 C429 1.393 . S
C426 H418 0.950 . S
C426 C424 1.391 . S
C426 C427 1.400 . S
C427 C426 1.400 . S
C427 C428 1.398 . S
C427 C433 1.491 . S
C428 H419 0.950 . S
C428 C427 1.398 . S
C428 C429 1.391 . S
C429 H417 0.950 . S
C429 C425 1.393 . S
C429 C428 1.391 . S
C430 H420 0.950 . S
C430 C431 1.386 . S
C430 C432 1.391 . S
C431 C430 1.386 . S
C431 C435 1.393 . S
C432 H421 0.950 . S
C432 C430 1.391 . S
C432 C433 1.400 . S
C433 C427 1.491 . S
C433 C432 1.400 . S
C433 C434 1.398 . S
C434 H422 0.950 . S
C434 C433 1.398 . S
C434 C435 1.391 . S
C435 H423 0.950 . S
C435 C431 1.393 . S
C435 C434 1.391 . S
H436 C444 0.950 . S
H437 C449 0.950 . S
H438 C446 0.950 . S
H439 C448 0.950 . S
H440 C450 0.950 . S
H441 C452 0.950 . S
H442 C454 0.950 . S
H443 C455 0.950 . S
C444 H436 0.950 . S
C444 C445 1.386 . S
C444 C446 1.391 . S
C445 C444 1.386 . S
C445 C449 1.393 . S
C446 H438 0.950 . S
C446 C444 1.391 . S
C446 C447 1.400 . S
C447 C446 1.400 . S
C447 C448 1.398 . S
C447 C453 1.491 . S
C448 H439 0.950 . S
C448 C447 1.398 . S
C448 C449 1.391 . S
C449 H437 0.950 . S
C449 C445 1.393 . S
C449 C448 1.391 . S
C450 H440 0.950 . S
C450 C451 1.386 . S
C450 C452 1.391 . S
C451 C450 1.386 . S
C451 C455 1.393 . S
C452 H441 0.950 . S
C452 C450 1.391 . S
C452 C453 1.400 . S
C453 C447 1.491 . S
C453 C452 1.400 . S
C453 C454 1.398 . S
C454 H442 0.950 . S
C454 C453 1.398 . S
C454 C455 1.391 . S
C455 H443 0.950 . S
C455 C451 1.393 . S
C455 C454 1.391 . S
C225 C3 1.439 . S
C231 C111 1.441 . S
C245 C39 1.429 . S
C251 C147 1.429 . S
C265 C76 1.415 . S
C271 C184 1.414 . S
C285 C40 1.409 . S
C291 C148 1.409 . S
C305 C183 1.424 . S
C311 C75 1.424 . S
C325 C112 1.412 . S
C331 C4 1.411 . S
C345 C74 1.160 . S
C351 C2 1.143 . S
C365 C122 1.221 . S
C371 C38 1.143 . S
C385 C86 1.243 . S
C391 C158 1.241 . S
C405 C182 1.130 . S
C411 C110 1.121 . S
C425 C146 1.184 . S
C431 C14 1.207 . S
C445 C194 1.231 . S
C451 C50 1.251 . S
