# Generated by pormake.
# Topology wme, (6)-cn, num edge types: 1
# Building blocks:
#     Node 0, Type 0, BuildingBlock: KUMBUR_clean_sbu_1, # of connection points: 6
#     Node 1, Type 0, BuildingBlock: KUMBUR_clean_sbu_1, # of connection points: 6
#     Node 2, Type 0, BuildingBlock: KUMBUR_clean_sbu_1, # of connection points: 6
#     Node 3, Type 0, BuildingBlock: KUMBUR_clean_sbu_1, # of connection points: 6
#     Node 4, Type 0, BuildingBlock: KUMBUR_clean_sbu_1, # of connection points: 6
#     Node 5, Type 0, BuildingBlock: KUMBUR_clean_sbu_1, # of connection points: 6
#     Node 6, Type 0, BuildingBlock: KUMBUR_clean_sbu_1, # of connection points: 6
#     Node 7, Type 0, BuildingBlock: KUMBUR_clean_sbu_1, # of connection points: 6
#     Node 8, Type 0, BuildingBlock: KUMBUR_clean_sbu_1, # of connection points: 6
#     Node 9, Type 0, BuildingBlock: KUMBUR_clean_sbu_1, # of connection points: 6
#     Node 10, Type 0, BuildingBlock: KUMBUR_clean_sbu_1, # of connection points: 6
#     Node 11, Type 0, BuildingBlock: KUMBUR_clean_sbu_1, # of connection points: 6
#     Edge 12, Type (0, 0), BuildingBlock: XIVTED_clean_linker_0, # of connection points: 2
#     Edge 13, Type (0, 0), BuildingBlock: XIVTED_clean_linker_0, # of connection points: 2
#     Edge 14, Type (0, 0), BuildingBlock: XIVTED_clean_linker_0, # of connection points: 2
#     Edge 15, Type (0, 0), BuildingBlock: XIVTED_clean_linker_0, # of connection points: 2
#     Edge 16, Type (0, 0), BuildingBlock: XIVTED_clean_linker_0, # of connection points: 2
#     Edge 17, Type (0, 0), BuildingBlock: XIVTED_clean_linker_0, # of connection points: 2
#     Edge 18, Type (0, 0), BuildingBlock: XIVTED_clean_linker_0, # of connection points: 2
#     Edge 19, Type (0, 0), BuildingBlock: XIVTED_clean_linker_0, # of connection points: 2
#     Edge 20, Type (0, 0), BuildingBlock: XIVTED_clean_linker_0, # of connection points: 2
#     Edge 21, Type (0, 0), BuildingBlock: XIVTED_clean_linker_0, # of connection points: 2
#     Edge 22, Type (0, 0), BuildingBlock: XIVTED_clean_linker_0, # of connection points: 2
#     Edge 23, Type (0, 0), BuildingBlock: XIVTED_clean_linker_0, # of connection points: 2
#     Edge 24, Type (0, 0), BuildingBlock: XIVTED_clean_linker_0, # of connection points: 2
#     Edge 25, Type (0, 0), BuildingBlock: XIVTED_clean_linker_0, # of connection points: 2
#     Edge 26, Type (0, 0), BuildingBlock: XIVTED_clean_linker_0, # of connection points: 2
#     Edge 27, Type (0, 0), BuildingBlock: XIVTED_clean_linker_0, # of connection points: 2
#     Edge 28, Type (0, 0), BuildingBlock: XIVTED_clean_linker_0, # of connection points: 2
#     Edge 29, Type (0, 0), BuildingBlock: XIVTED_clean_linker_0, # of connection points: 2
#     Edge 30, Type (0, 0), BuildingBlock: XIVTED_clean_linker_0, # of connection points: 2
#     Edge 31, Type (0, 0), BuildingBlock: XIVTED_clean_linker_0, # of connection points: 2
#     Edge 32, Type (0, 0), BuildingBlock: XIVTED_clean_linker_0, # of connection points: 2
#     Edge 33, Type (0, 0), BuildingBlock: XIVTED_clean_linker_0, # of connection points: 2
#     Edge 34, Type (0, 0), BuildingBlock: XIVTED_clean_linker_0, # of connection points: 2
#     Edge 35, Type (0, 0), BuildingBlock: XIVTED_clean_linker_0, # of connection points: 2
#     Edge 36, Type (0, 0), BuildingBlock: XIVTED_clean_linker_0, # of connection points: 2
#     Edge 37, Type (0, 0), BuildingBlock: XIVTED_clean_linker_0, # of connection points: 2
#     Edge 38, Type (0, 0), BuildingBlock: XIVTED_clean_linker_0, # of connection points: 2
#     Edge 39, Type (0, 0), BuildingBlock: XIVTED_clean_linker_0, # of connection points: 2
#     Edge 40, Type (0, 0), BuildingBlock: XIVTED_clean_linker_0, # of connection points: 2
#     Edge 41, Type (0, 0), BuildingBlock: XIVTED_clean_linker_0, # of connection points: 2
#     Edge 42, Type (0, 0), BuildingBlock: XIVTED_clean_linker_0, # of connection points: 2
#     Edge 43, Type (0, 0), BuildingBlock: XIVTED_clean_linker_0, # of connection points: 2
#     Edge 44, Type (0, 0), BuildingBlock: XIVTED_clean_linker_0, # of connection points: 2
#     Edge 45, Type (0, 0), BuildingBlock: XIVTED_clean_linker_0, # of connection points: 2
#     Edge 46, Type (0, 0), BuildingBlock: XIVTED_clean_linker_0, # of connection points: 2
#     Edge 47, Type (0, 0), BuildingBlock: XIVTED_clean_linker_0, # of connection points: 2
# Relax obj value: 0.061
# Max RMSD: 0.170
# Mean RMSD: 0.170
data_MOF--net-wme--node1-KUMBUR_clean_sbu_1--edge1-XIVTED_clean_linker_0
_symmetry_space_group_name_H-M    P1
_symmetry_Int_Tables_number       1
_symmetry_cell_setting            triclinic
loop_
_symmetry_equiv_pos_as_xyz
'x, y, z'
_cell_length_a     39.003068
_cell_length_b     39.122574
_cell_length_c     53.548641
_cell_angle_alpha  90.23477
_cell_angle_beta   89.757006
_cell_angle_gamma 120.04465
loop_
_atom_site_label
_atom_site_type_symbol
_atom_site_fract_x
_atom_site_fract_y
_atom_site_fract_z
_atom_type_partial_charge
Tb0 Tb 0.25407 0.3156 0.14351 0.0
C1 C 0.13159 0.32941 0.07416 0.0
N2 N 0.17169 0.35011 0.07198 0.0
C3 C 0.16635 0.34376 0.02739 0.0
C4 C 0.10718 0.31466 0.05292 0.0
C5 C 0.18935 0.35778 0.04901 0.0
C6 C 0.12509 0.32206 0.02934 0.0
C7 C 0.07354 0.30043 0.10097 0.0
C8 C 0.11501 0.32225 0.09789 0.0
C9 C 0.04907 0.28583 0.07986 0.0
C10 C 0.06584 0.29288 0.0559 0.0
Tb11 Tb 0.20575 0.3719 0.1085 0.0
N12 N 0.13969 0.33566 0.11794 0.0
C13 C 0.05796 0.29363 0.12519 0.0
C14 C 0.1245 0.33076 0.14152 0.0
C15 C 0.08356 0.30917 0.14553 0.0
H16 H 0.22117 0.3753 0.04723 0.0
H17 H 0.07176 0.30483 0.16431 0.0
H18 H 0.23109 0.30909 0.20381 0.0
H19 H 0.39422 0.37757 0.09473 0.0
H20 H 0.1435 0.34385 0.1573 0.0
H21 H 0.02627 0.27678 0.12837 0.0
H22 H 0.32162 0.34019 0.09822 0.0
H23 H 0.18044 0.34989 1.00923 0.0
H24 H 1.01714 0.26891 0.08187 0.0
H25 H 0.04658 0.28128 0.0398 0.0
H26 H 0.26689 0.33506 0.24358 0.0
H27 H 0.10737 0.31124 0.01255 0.0
H28 H 0.43525 0.40582 0.13255 0.0
N29 N 0.28336 0.33554 0.1816 0.0
C30 C 0.32362 0.35614 0.18134 0.0
C31 C 0.28319 0.34142 0.22619 0.0
C32 C 0.34533 0.37075 0.20362 0.0
C33 C 0.26295 0.32732 0.20362 0.0
C34 C 0.32456 0.36339 0.2262 0.0
N35 N 0.321 0.34894 0.13739 0.0
C36 C 0.33886 0.35308 0.11476 0.0
C37 C 0.38479 0.38387 0.15749 0.0
C38 C 0.34311 0.36261 0.15856 0.0
C39 C 0.40326 0.38966 0.13419 0.0
C40 C 0.38018 0.3739 0.11277 0.0
H41 H 0.34016 0.37417 0.24373 0.0
H42 H 0.40415 0.40363 0.21955 0.0
H43 H 0.43867 0.4151 0.1792 0.0
O44 O 0.24867 0.26389 0.12719 0.0
O45 O 0.28864 0.38115 0.14301 0.0
O46 O 0.27 0.40138 0.10755 0.0
O47 O 0.25594 0.27342 0.16672 0.0
O48 O 0.24824 0.30951 0.10289 0.0
O49 O 0.24875 0.36436 0.08544 0.0
O50 O 0.19021 0.41219 0.1229 0.0
O51 O 0.17703 0.30713 0.10522 0.0
O52 O 0.18952 0.28939 0.14322 0.0
O53 O 0.21428 0.41978 0.08592 0.0
O54 O 0.21921 0.3831 0.14908 0.0
O55 O 0.20946 0.32341 0.16265 0.0
C56 C 0.29466 0.40765 0.12586 0.0
C57 C 0.21285 0.20868 0.15336 0.0
C58 C 0.18085 0.13674 0.15248 0.0
C59 C 0.14683 0.13447 0.16331 0.0
C60 C 0.1789 0.20552 0.16478 0.0
C61 C 0.14593 0.16866 0.16936 0.0
C62 C 0.21369 0.17414 0.14706 0.0
C63 C 0.25305 0.33288 0.08395 0.0
C64 C 0.24744 0.24807 0.14878 0.0
C65 C 0.38692 0.3921 0.20263 0.0
C66 C 0.40659 0.39862 0.17965 0.0
C67 C 0.16763 0.28095 0.12304 0.0
C68 C 0.22553 0.47705 0.10841 0.0
C69 C 0.22739 0.53916 0.11794 0.0
C70 C 0.26788 0.55631 0.12365 0.0
C71 C 0.26594 0.49476 0.11405 0.0
C72 C 0.20646 0.49943 0.11014 0.0
C73 C 0.28702 0.53428 0.12153 0.0
C74 C 0.21357 0.35817 0.16725 0.0
C75 C 0.20183 0.43446 0.10319 0.0
H76 H 0.12095 0.10611 0.1673 0.0
H77 H 0.17808 0.23161 0.17051 0.0
H78 H 0.1198 0.16657 0.17799 0.0
H79 H 0.24014 0.17638 0.13877 0.0
H80 H 0.28482 0.58689 0.12951 0.0
H81 H 0.28093 0.47788 0.11306 0.0
H82 H 0.17504 0.48555 0.10619 0.0
H83 H 0.3182 0.54777 0.12594 0.0
Tb84 Tb 0.95765 0.24876 0.64 0.0
C85 C 0.8084 0.11236 0.59609 0.0
N86 N 0.83076 0.14983 0.58736 0.0
C87 C 0.82999 0.12493 0.54626 0.0
C88 C 0.79742 0.07954 0.58035 0.0
C89 C 0.84047 0.15658 0.56264 0.0
C90 C 0.8087 0.08625 0.55519 0.0
C91 C 0.77532 0.06867 0.631 0.0
C92 C 0.79755 0.10712 0.62114 0.0
C93 C 0.76508 0.03585 0.61553 0.0
C94 C 0.77597 0.04126 0.59025 0.0
Tb95 Tb 0.84481 0.19896 0.61541 0.0
N96 N 0.80812 0.13964 0.63563 0.0
C97 C 0.76336 0.0643 0.65598 0.0
C98 C 0.79345 0.13517 0.65939 0.0
C99 C 0.77189 0.09767 0.67009 0.0
H100 H 0.85603 0.18628 0.55541 0.0
H101 H 0.76111 0.0945 0.68909 0.0
H102 H 0.95147 0.24412 0.7025 0.0
H103 H 0.04939 0.37124 0.57998 0.0
H104 H 0.7968 0.16001 0.67007 0.0
H105 H 0.74632 0.03528 0.66428 0.0
H106 H 1.00837 0.3007 0.59134 0.0
H107 H 0.83819 0.13038 0.52674 0.0
H108 H 0.74827 1.00613 0.62285 0.0
H109 H 0.76756 0.01566 0.57851 0.0
H110 H 0.96429 0.29024 0.73729 0.0
H111 H 0.80081 0.06181 0.54247 0.0
H112 H 0.06258 0.42299 0.61145 0.0
N113 N 0.97122 0.28846 0.67443 0.0
C114 C 0.99159 0.32793 0.66991 0.0
C115 C 0.97149 0.30123 0.71835 0.0
C116 C 1.00129 0.35565 0.68934 0.0
C117 C 0.96326 0.27498 0.69845 0.0
C118 C 0.98995 0.34174 0.71374 0.0
N119 N 0.99627 0.31276 0.62799 0.0
C120 C 1.01298 0.32317 0.6048 0.0
C121 C 0.02885 0.38104 0.64055 0.0
C122 C 1.00524 0.34054 0.64594 0.0
C123 C 0.04418 0.39215 0.61635 0.0
C124 C 0.03669 0.36303 0.5985 0.0
H125 H 0.99681 0.36205 0.72922 0.0
H126 H 0.03071 0.418 0.69859 0.0
H127 H 0.05486 0.44023 0.65581 0.0
O128 O 0.99411 0.22982 0.62308 0.0
O129 O 0.9357 0.28623 0.62403 0.0
O130 O 0.8701 0.2554 0.63532 0.0
O131 O 1.00667 0.25445 0.66 0.0
O132 O 0.9456 0.23122 0.60079 0.0
O133 O 0.89148 0.23652 0.58789 0.0
O134 O 0.78345 0.17746 0.61559 0.0
O135 O 0.88049 0.16986 0.61118 0.0
O136 O 0.91666 0.18616 0.64703 0.0
O137 O 0.82116 0.22297 0.59007 0.0
O138 O 0.8539 0.21651 0.65545 0.0
O139 O 0.91001 0.2138 0.66671 0.0
C140 C 0.90349 0.28749 0.62976 0.0
C141 C 0.06071 0.26057 0.63612 0.0
C142 C 0.12033 0.25657 0.62817 0.0
C143 C 0.14129 0.29736 0.62342 0.0
C144 C 0.0824 0.30144 0.63207 0.0
C145 C 0.12243 0.31964 0.62554 0.0
C146 C 0.07989 0.23834 0.63443 0.0
C147 C 0.92664 0.23979 0.58389 0.0
C148 C 1.01811 0.24017 0.64196 0.0
C149 C 0.02326 0.39622 0.68394 0.0
C150 C 0.03708 0.4089 0.65959 0.0
C151 C 0.89551 0.16013 0.62985 0.0
C152 C 0.76316 0.22275 0.60517 0.0
C153 C 0.70055 0.21905 0.61698 0.0
C154 C 0.72098 0.26031 0.61999 0.0
C155 C 0.78258 0.26397 0.60766 0.0
C156 C 0.72194 0.20046 0.60947 0.0
C157 C 0.7616 0.28254 0.61517 0.0
C158 C 0.87703 0.21375 0.67241 0.0
C159 C 0.78532 0.20224 0.59894 0.0
H160 H 0.17248 0.31216 0.61866 0.0
H161 H 0.06862 0.31932 0.63407 0.0
H162 H 0.13897 0.35116 0.62229 0.0
H163 H 0.06327 0.20678 0.63779 0.0
H164 H 0.70532 0.27548 0.62553 0.0
H165 H 0.81395 0.2818 0.60389 0.0
H166 H 0.70665 0.16861 0.60739 0.0
H167 H 0.7769 0.31435 0.61722 0.0
Tb168 Tb 0.72051 0.94232 0.13788 0.0
C169 C 0.69446 0.79085 0.08762 0.0
N170 N 0.68165 0.81592 0.08064 0.0
C171 C 0.70193 0.81497 0.03844 0.0
C172 C 0.71305 0.77803 0.07035 0.0
C173 C 0.68384 0.82704 0.05628 0.0
C174 C 0.71689 0.79063 0.04553 0.0
C175 C 0.70337 0.75347 0.1204 0.0
C176 C 0.68958 0.77875 0.11236 0.0
C177 C 0.72291 0.74149 0.10342 0.0
C178 C 0.72753 0.75354 0.07843 0.0
Tb179 Tb 0.6509 0.832 0.11079 0.0
N180 N 0.67025 0.79074 0.12825 0.0
C181 C 0.69623 0.74017 0.14508 0.0
C182 C 0.66006 0.77469 0.15164 0.0
C183 C 0.67387 0.75026 0.16062 0.0
H184 H 0.67153 0.84505 0.05052 0.0
H185 H 0.66642 0.73846 0.17936 0.0
H186 H 0.72271 0.92975 0.1997 0.0
H187 H 0.68837 0.04083 0.08647 0.0
H188 H 0.64019 0.77924 0.16335 0.0
H189 H 0.70645 0.72084 0.15201 0.0
H190 H 0.7165 0.99711 0.09287 0.0
H191 H 0.70413 0.82428 0.01921 0.0
H192 H 0.73399 0.72235 0.10934 0.0
H193 H 0.74231 0.74374 0.06551 0.0
H194 H 0.69292 0.94064 0.23727 0.0
H195 H 0.73103 0.78147 0.03169 0.0
H196 H 0.65357 0.0528 0.12126 0.0
N197 N 0.69745 0.95336 0.17472 0.0
C198 C 0.67913 0.97504 0.17287 0.0
C199 C 0.68821 0.9499 0.2192 0.0
C200 C 0.66315 0.98364 0.19403 0.0
C201 C 0.70425 0.94286 0.1977 0.0
C202 C 0.66696 0.96979 0.21732 0.0
N203 N 0.6956 0.98286 0.13019 0.0
C204 C 0.70051 1.00151 0.10785 0.0
C205 C 0.66267 0.01585 0.1473 0.0
C206 C 0.67884 0.99097 0.14991 0.0
C207 C 0.66551 0.03335 0.12403 0.0
C208 C 0.68505 0.0266 0.10432 0.0
H209 H 0.65507 0.97571 0.23405 0.0
H210 H 0.63256 0.01364 0.20741 0.0
H211 H 0.63217 0.04188 0.16645 0.0
O212 O 0.77468 0.98003 0.11997 0.0
O213 O 0.66023 0.92381 0.12408 0.0
O214 O 0.62418 0.85828 0.13427 0.0
O215 O 0.76621 0.98829 0.15863 0.0
O216 O 0.72257 0.93289 0.09784 0.0
O217 O 0.66108 0.88099 0.08537 0.0
O218 O 0.60786 0.77185 0.10892 0.0
O219 O 0.71537 0.8651 0.10408 0.0
O220 O 0.74109 0.8996 0.14024 0.0
O221 O 0.6016 0.8142 0.08712 0.0
O222 O 0.6469 0.84004 0.15152 0.0
O223 O 0.70905 0.89225 0.16168 0.0
C224 C 0.62634 0.89224 0.12986 0.0
C225 C 0.81206 0.04471 0.13594 0.0
C226 C 0.87502 0.10503 0.12834 0.0
C227 C 0.85483 0.12631 0.12708 0.0
C228 C 0.79259 0.06665 0.13545 0.0
C229 C 0.81388 0.10719 0.13081 0.0
C230 C 0.85334 0.06411 0.13269 0.0
C231 C 0.6937 0.91543 0.08148 0.0
C232 C 0.79027 1.00169 0.13971 0.0
C233 C 0.6453 1.00697 0.1914 0.0
C234 C 0.64513 0.02312 0.16808 0.0
C235 C 0.74248 0.87837 0.1216 0.0
C236 C 0.5426 0.75688 0.10137 0.0
C237 C 0.483 0.69559 0.11373 0.0
C238 C 0.46301 0.71686 0.11689 0.0
C239 C 0.52162 0.7772 0.1039 0.0
C240 C 0.52289 0.71592 0.10596 0.0
C241 C 0.48218 0.75731 0.11184 0.0
C242 C 0.67538 0.86068 0.1678 0.0
C243 C 0.58492 0.77745 0.09415 0.0
H244 H 0.87088 0.15787 0.12385 0.0
H245 H 0.76113 0.05267 0.1388 0.0
H246 H 0.79865 0.12392 0.13029 0.0
H247 H 0.86858 0.04733 0.13337 0.0
H248 H 0.43223 0.70201 0.12263 0.0
H249 H 0.53565 0.80839 0.09977 0.0
H250 H 0.53878 0.69994 0.10373 0.0
H251 H 0.46631 0.77327 0.11393 0.0
Tb252 Tb 0.78682 0.70965 0.64154 0.0
C253 C 0.91153 0.6912 0.58096 0.0
N254 N 0.87261 0.6761 0.57538 0.0
C255 C 0.88936 0.69617 0.53273 0.0
C256 C 0.94109 0.70996 0.56258 0.0
C257 C 0.86109 0.67802 0.55163 0.0
C258 C 0.92953 0.71225 0.53822 0.0
C259 C 0.96183 0.70536 0.61214 0.0
C260 C 0.92167 0.68908 0.60549 0.0
C261 C 0.99144 0.72408 0.5939 0.0
C262 C 0.9811 0.72632 0.56917 0.0
Tb263 Tb 0.82921 0.64575 0.60733 0.0
N264 N 0.8922 0.67145 0.62279 0.0
C265 C 0.97102 0.70211 0.6369 0.0
C266 C 0.90108 0.66546 0.64644 0.0
C267 C 0.94047 0.68155 0.65402 0.0
H268 H 0.83009 0.66497 0.54708 0.0
H269 H 0.94719 0.67727 0.67295 0.0
H270 H 0.81174 0.7178 0.70146 0.0
H271 H 0.64708 0.65945 0.59507 0.0
H272 H 0.87829 0.647 0.65941 0.0
H273 H 1.0015 0.71433 0.64279 0.0
H274 H 0.71935 0.68749 0.59728 0.0
H275 H 0.88014 0.69761 0.51391 0.0
H276 H 0.02244 0.73693 0.59872 0.0
H277 H 1.00427 0.74098 0.55533 0.0
H278 H 0.77698 0.69923 0.7421 0.0
H279 H 0.95135 0.72641 0.52355 0.0
H280 H 0.60709 0.64036 0.63387 0.0
N281 N 0.7588 0.6953 0.68026 0.0
C282 C 0.71884 0.67945 0.68077 0.0
C283 C 0.76025 0.69327 0.72498 0.0
C284 C 0.69786 0.66958 0.70354 0.0
C285 C 0.77981 0.70309 0.70192 0.0
C286 C 0.71907 0.67631 0.7258 0.0
N287 N 0.72018 0.68219 0.63668 0.0
C288 C 0.70225 0.67834 0.61421 0.0
C289 C 0.65765 0.6578 0.658 0.0
C290 C 0.69897 0.67346 0.65829 0.0
C291 C 0.63882 0.65236 0.63492 0.0
C292 C 0.66127 0.6629 0.61296 0.0
H293 H 0.70403 0.66901 0.74369 0.0
H294 H 0.6399 0.64579 0.72066 0.0
H295 H 0.60473 0.63559 0.68081 0.0
O296 O 0.79598 0.76143 0.62342 0.0
O297 O 0.74554 0.64461 0.64053 0.0
O298 O 0.76554 0.62109 0.60713 0.0
O299 O 0.79111 0.75648 0.66329 0.0
O300 O 0.79432 0.71404 0.60101 0.0
O301 O 0.78821 0.65609 0.58424 0.0
O302 O 0.83105 0.59452 0.61754 0.0
O303 O 0.86094 0.71073 0.60429 0.0
O304 O 0.85052 0.73019 0.64249 0.0
O305 O 0.82064 0.60389 0.57966 0.0
O306 O 0.81344 0.6345 0.64761 0.0
O307 O 0.82706 0.69584 0.66078 0.0
C308 C 0.74114 0.61573 0.62555 0.0
C309 C 0.83438 0.81946 0.64711 0.0
C310 C 0.8654 0.89143 0.64697 0.0
C311 C 0.90106 0.89422 0.65486 0.0
C312 C 0.87014 0.82316 0.65546 0.0
C313 C 0.90339 0.86028 0.65895 0.0
C314 C 0.83215 0.85378 0.64265 0.0
C315 C 0.78571 0.6886 0.58264 0.0
C316 C 0.7991 0.7799 0.64434 0.0
C317 C 0.65658 0.6536 0.70335 0.0
C318 C 0.63655 0.64783 0.68065 0.0
C319 C 0.87308 0.73624 0.62276 0.0
C320 C 0.85786 0.57169 0.5861 0.0
C321 C 0.88794 0.5296 0.58915 0.0
C322 C 0.9133 0.55089 0.56921 0.0
C323 C 0.8837 0.59214 0.56626 0.0
C324 C 0.8601 0.54033 0.5975 0.0
C325 C 0.91125 0.58189 0.55803 0.0
C326 C 0.819 0.6598 0.66568 0.0
C327 C 0.82816 0.58241 0.59461 0.0
H328 H 0.92715 0.92277 0.65804 0.0
H329 H 0.87216 0.79733 0.65979 0.0
H330 H 0.93086 0.86275 0.66528 0.0
H331 H 0.8044 0.85119 0.63674 0.0
H332 H 0.93432 0.54308 0.56175 0.0
H333 H 0.88245 0.61582 0.55679 0.0
H334 H 0.84032 0.52452 0.61285 0.0
H335 H 0.93083 0.59776 0.54263 0.0
Tb336 Tb 0.08608 0.77842 0.13777 0.0
C337 C 0.22982 0.90494 0.07722 0.0
N338 N 0.20632 0.86574 0.07236 0.0
C339 C 0.2035 0.87998 0.02912 0.0
C340 C 0.24055 0.93332 0.05819 0.0
C341 C 0.19355 0.85289 0.04861 0.0
C342 C 0.22698 0.92036 0.03392 0.0
C343 C 0.2664 0.95695 0.10747 0.0
C344 C 0.24258 0.91658 0.10155 0.0
C345 C 0.27715 0.98536 0.08858 0.0
C346 C 0.2643 0.97358 0.064 0.0
Tb347 Tb 0.1939 0.82462 0.10553 0.0
N348 N 0.23075 0.88828 0.11948 0.0
C349 C 0.27866 0.96752 0.1322 0.0
C350 C 0.24453 0.8984 0.14331 0.0
C351 C 0.26797 0.93808 0.15013 0.0
H352 H 0.17648 0.82178 0.04438 0.0
H353 H 0.27832 0.94588 0.16916 0.0
H354 H 0.09445 0.80197 0.19801 0.0
H355 H 1.0096 0.63922 0.08873 0.0
H356 H 0.23873 0.87622 0.15702 0.0
H357 H 0.29692 0.99822 0.13754 0.0
H358 H 0.04885 0.71174 0.09228 0.0
H359 H 0.19331 0.86966 0.01034 0.0
H360 H 0.29539 0.01653 0.09278 0.0
H361 H 0.27284 0.99583 0.04963 0.0
H362 H 0.07468 0.76628 0.23817 0.0
H363 H 0.23464 0.94123 0.01876 0.0
H364 H 0.98753 0.59824 0.12694 0.0
N365 N 0.0685 0.74953 0.17602 0.0
C366 C 0.04706 0.70945 0.17586 0.0
C367 C 0.06681 0.74995 0.22078 0.0
C368 C 0.03452 0.68791 0.1983 0.0
C369 C 0.07829 0.77005 0.198 0.0
C370 C 0.04485 0.7087 0.22094 0.0
N371 N 0.05098 0.71183 0.13181 0.0
C372 C 0.04023 0.69424 0.10893 0.0
C373 C 1.01473 0.64847 0.152 0.0
C374 C 0.03752 0.68995 0.15303 0.0
C375 C 1.00508 0.63008 0.12855 0.0
C376 C 1.01761 0.65311 0.10693 0.0
H377 H 0.03586 0.69323 0.23861 0.0
H378 H 1.00217 0.62937 0.21446 0.0
H379 H 0.98466 0.59486 0.17393 0.0
O380 O 0.04434 0.78418 0.11639 0.0
O381 O 0.11289 0.74002 0.13686 0.0
O382 O 0.1559 0.76086 0.10318 0.0
O383 O 0.04107 0.78339 0.15656 0.0
O384 O 0.09698 0.79625 0.09865 0.0
O385 O 0.14366 0.78441 0.0813 0.0
O386 O 0.24658 0.82695 0.11783 0.0
O387 O 0.16369 0.85991 0.1065 0.0
O388 O 0.12677 0.8417 0.14282 0.0
O389 O 0.23027 0.81799 0.07922 0.0
O390 O 0.18848 0.80823 0.14588 0.0
O391 O 0.13714 0.81654 0.16033 0.0
C392 C 0.13629 0.73558 0.12097 0.0
C393 C 0.98133 0.76172 0.13412 0.0
C394 C 0.91827 0.76014 0.12933 0.0
C395 C 0.89913 0.71888 0.12669 0.0
C396 C 0.96167 0.72051 0.13172 0.0
C397 C 0.92073 0.69924 0.12808 0.0
C398 C 0.95948 0.78136 0.13321 0.0
C399 C 0.10878 0.78224 0.08048 0.0
C400 C 0.02473 0.78521 0.13586 0.0
C401 C 1.0121 0.64647 0.19741 0.0
C402 C 1.00216 0.62681 0.17432 0.0
C403 C 0.14722 0.86797 0.12545 0.0
C404 C 0.29901 0.8553 0.08809 0.0
C405 C 0.37108 0.88451 0.09248 0.0
C406 C 0.37633 0.9111 0.07318 0.0
C407 C 0.30558 0.88219 0.0688 0.0
C408 C 0.33199 0.85656 0.09988 0.0
C409 C 0.34389 0.90998 0.0616 0.0
C410 C 0.16816 0.81257 0.16429 0.0
C411 C 0.258 0.82514 0.09525 0.0
H412 H 0.86742 0.70181 0.1238 0.0
H413 H 0.9779 0.70485 0.13233 0.0
H414 H 0.90572 0.66743 0.12613 0.0
H415 H 0.97471 0.81329 0.13479 0.0
H416 H 0.40561 0.93227 0.06645 0.0
H417 H 0.2812 0.88147 0.05886 0.0
H418 H 0.32713 0.83581 0.11469 0.0
H419 H 0.34847 0.93036 0.04663 0.0
Tb420 Tb 0.31959 0.07672 0.64274 0.0
C421 C 0.33353 0.2177 0.58622 0.0
N422 N 0.34905 0.1948 0.57928 0.0
C423 C 0.32613 0.19168 0.53739 0.0
C424 C 0.31324 0.22822 0.56894 0.0
C425 C 0.34599 0.18197 0.55519 0.0
C426 C 0.30964 0.21486 0.54429 0.0
C427 C 0.32132 0.25337 0.61888 0.0
C428 C 0.33733 0.22981 0.61094 0.0
C429 C 0.30077 0.26368 0.60181 0.0
C430 C 0.29684 0.25123 0.57688 0.0
Tb431 Tb 0.38228 0.18233 0.60949 0.0
N432 N 0.35714 0.21894 0.62703 0.0
C433 C 0.32717 0.26657 0.64362 0.0
C434 C 0.36626 0.23527 0.65038 0.0
C435 C 0.35038 0.25809 0.65929 0.0
H436 H 0.35932 0.16473 0.54955 0.0
H437 H 0.35703 0.27008 0.67804 0.0
H438 H 0.30428 0.08994 0.70206 0.0
H439 H 0.38072 0.99468 0.59839 0.0
H440 H 0.38721 0.23266 0.66199 0.0
H441 H 0.31529 0.28464 0.65048 0.0
H442 H 0.34842 0.03501 0.59939 0.0
H443 H 0.32373 0.18144 0.51832 0.0
H444 H 0.28807 0.28153 0.60764 0.0
H445 H 0.28094 0.25945 0.56393 0.0
H446 H 0.32038 0.07388 0.74342 0.0
H447 H 0.29423 0.22227 0.53045 0.0
H448 H 0.39907 0.97536 0.63789 0.0
N449 N 0.33078 0.06219 0.68189 0.0
C450 C 0.34896 0.04034 0.68306 0.0
C451 C 0.32871 0.06439 0.72658 0.0
C452 C 0.35789 0.02968 0.7062 0.0
C453 C 0.32008 0.07388 0.70316 0.0
C454 C 0.34777 0.04227 0.72812 0.0
N455 N 0.34991 0.04001 0.63898 0.0
C456 C 0.3568 0.0274 0.6167 0.0
C457 C 0.37662 1.00515 0.66125 0.0
C458 C 0.35833 0.02837 0.6609 0.0
C459 C 0.38507 0.99328 0.63844 0.0
C460 C 0.37486 1.00424 0.61609 0.0
H461 H 0.35423 0.03478 0.74629 0.0
H462 H 0.38357 0.99829 0.72428 0.0
H463 H 0.39983 0.97669 0.68493 0.0
O464 O 0.26867 0.03802 0.62249 0.0
O465 O 0.38498 0.1024 0.64183 0.0
O466 O 0.40948 0.14554 0.60815 0.0
O467 O 0.27089 0.03156 0.66222 0.0
O468 O 0.3175 0.07823 0.60204 0.0
O469 O 0.37328 0.13277 0.58501 0.0
O470 O 0.43473 0.23425 0.61979 0.0
O471 O 0.31719 0.1468 0.60605 0.0
O472 O 0.2974 0.11819 0.64432 0.0
O473 O 0.42151 0.21841 0.58133 0.0
O474 O 0.39363 0.17716 0.6497 0.0
O475 O 0.33195 0.12985 0.66266 0.0
C476 C 0.41307 0.12401 0.62554 0.0
C477 C 0.22932 0.97406 0.63873 0.0
C478 C 0.16723 0.91218 0.63237 0.0
C479 C 0.18889 0.89268 0.62885 0.0
C480 C 0.25038 0.95398 0.63551 0.0
C481 C 0.23019 0.91346 0.63062 0.0
C482 C 0.18773 0.95299 0.63744 0.0
C483 C 0.34178 0.0969 0.5834 0.0
C484 C 0.25003 0.01718 0.64204 0.0
C485 C 0.37644 1.00679 0.70668 0.0
C486 C 0.38571 0.99449 0.68426 0.0
C487 C 0.29143 0.13399 0.62441 0.0
C488 C 0.45333 0.28679 0.59148 0.0
C489 C 0.49361 0.35815 0.5988 0.0
C490 C 0.46819 0.36394 0.58307 0.0
C491 C 0.42926 0.29375 0.57524 0.0
C492 C 0.48584 0.31928 0.60301 0.0
C493 C 0.43641 0.33197 0.57135 0.0
C494 C 0.36785 0.15822 0.66772 0.0
C495 C 0.44438 0.24597 0.59687 0.0
H496 H 0.17383 0.86126 0.62503 0.0
H497 H 0.2823 0.96955 0.63656 0.0
H498 H 0.24661 0.89814 0.62804 0.0
H499 H 0.17139 0.96851 0.63975 0.0
H500 H 0.47362 0.39339 0.57918 0.0
H501 H 0.40497 0.2698 0.5654 0.0
H502 H 0.50489 0.31428 0.61532 0.0
H503 H 0.41748 0.33689 0.55892 0.0
Tb504 Tb 0.72119 0.77489 0.38365 0.0
C505 C 0.68597 0.90041 0.42692 0.0
N506 N 0.67438 0.86323 0.43482 0.0
C507 C 0.69281 0.88689 0.47678 0.0
C508 C 0.70286 0.93269 0.44357 0.0
C509 C 0.67665 0.85587 0.45948 0.0
C510 C 0.70623 0.92551 0.46877 0.0
C511 C 0.69482 0.94433 0.39269 0.0
C512 C 0.682 0.90603 0.40184 0.0
C513 C 0.71248 0.9768 0.40906 0.0
C514 C 0.71634 0.97097 0.43447 0.0
Tb515 Tb 0.64705 0.81452 0.40542 0.0
N516 N 0.66495 0.87388 0.38656 0.0
C517 C 0.68885 0.94878 0.36747 0.0
C518 C 0.6562 0.87793 0.36243 0.0
C519 C 0.66886 0.91535 0.35239 0.0
H520 H 0.66568 0.82609 0.46596 0.0
H521 H 0.66247 0.9183 0.33312 0.0
H522 H 0.72655 0.78502 0.32123 0.0
H523 H 0.68785 0.64859 0.44033 0.0
H524 H 0.63833 0.85255 0.3509 0.0
H525 H 0.69833 0.9777 0.35968 0.0
H526 H 0.71636 0.71983 0.43123 0.0
H527 H 0.69482 0.88097 0.49628 0.0
H528 H 0.72281 1.00647 0.40231 0.0
H529 H 0.72981 0.99623 0.4469 0.0
H530 H 0.69897 0.74162 0.28464 0.0
H531 H 0.71901 0.9495 0.48218 0.0
H532 H 0.6548 0.59925 0.40665 0.0
N533 N 0.70036 0.73811 0.34766 0.0
C534 C 0.68249 0.69835 0.35079 0.0
C535 C 0.69346 0.72903 0.30319 0.0
C536 C 0.66775 0.67224 0.33028 0.0
C537 C 0.70818 0.75366 0.32412 0.0
C538 C 0.6725 0.68811 0.30631 0.0
N539 N 0.69694 0.71021 0.39358 0.0
C540 C 0.701 0.69826 0.41677 0.0
C541 C 0.6652 0.64317 0.37858 0.0
C542 C 0.68135 0.6839 0.37449 0.0
C543 C 0.66681 0.63034 0.40272 0.0
C544 C 0.68535 0.65809 0.42181 0.0
H545 H 0.66159 0.66909 0.29004 0.0
H546 H 0.63832 0.61081 0.3188 0.0
H547 H 0.63601 0.58535 0.36115 0.0
O548 O 0.7738 0.79113 0.40346 0.0
O549 O 0.66043 0.73209 0.39704 0.0
O550 O 0.62639 0.76116 0.38303 0.0
O551 O 0.76922 0.77612 0.36467 0.0
O552 O 0.72055 0.79136 0.42254 0.0
O553 O 0.65704 0.7779 0.43294 0.0
O554 O 0.59743 0.82097 0.39925 0.0
O555 O 0.71106 0.84936 0.41282 0.0
O556 O 0.74105 0.83811 0.3793 0.0
O557 O 0.59854 0.78697 0.43024 0.0
O558 O 0.64733 0.80038 0.36527 0.0
O559 O 0.71049 0.81105 0.35704 0.0
C560 C 0.62677 0.72982 0.39083 0.0
C561 C 0.81434 0.7663 0.38866 0.0
C562 C 0.87829 0.77034 0.39523 0.0
C563 C 0.85857 0.72914 0.3982 0.0
C564 C 0.79541 0.72511 0.3909 0.0
C565 C 0.81743 0.70672 0.39586 0.0
C566 C 0.85588 0.78878 0.39049 0.0
C567 C 0.69045 0.77822 0.43813 0.0
C568 C 0.79166 0.78655 0.38429 0.0
C569 C 0.65012 0.63136 0.3343 0.0
C570 C 0.64887 0.61685 0.35841 0.0
C571 C 0.73948 0.86206 0.39607 0.0
C572 C 0.56331 0.82212 0.43521 0.0
C573 C 0.52014 0.85084 0.43923 0.0
C574 C 0.53247 0.86055 0.46421 0.0
C575 C 0.57483 0.83196 0.46021 0.0
C576 C 0.53595 0.83162 0.42486 0.0
C577 C 0.5596 0.85122 0.47452 0.0
C578 C 0.67738 0.80942 0.34995 0.0
C579 C 0.5795 0.80232 0.41944 0.0
H580 H 0.87511 0.71418 0.40175 0.0
H581 H 0.76378 0.70711 0.38867 0.0
H582 H 0.80259 0.67492 0.39772 0.0
H583 H 0.87072 0.8206 0.38844 0.0
H584 H 0.52057 0.87466 0.47603 0.0
H585 H 0.59545 0.82472 0.46878 0.0
H586 H 0.52735 0.82435 0.40549 0.0
H587 H 0.56862 0.85867 0.49379 0.0
Tb588 Tb 0.95173 0.71131 0.87861 0.0
C589 C 0.80288 0.69655 0.92535 0.0
N590 N 0.82635 0.68244 0.93361 0.0
C591 C 0.82769 0.70815 0.97452 0.0
C592 C 0.79236 0.71869 0.94119 0.0
C593 C 0.83761 0.6866 0.95805 0.0
C594 C 0.8053 0.72461 0.96601 0.0
C595 C 0.76676 0.70452 0.8913 0.0
C596 C 0.79032 0.68949 0.90069 0.0
C597 C 0.75696 0.72742 0.90683 0.0
C598 C 0.7696 0.73436 0.93174 0.0
Tb599 Tb 0.83995 0.64709 0.90542 0.0
N600 N 0.80064 0.6674 0.88612 0.0
C601 C 0.75321 0.69555 0.8667 0.0
C602 C 0.78452 0.65586 0.86283 0.0
C603 C 0.76157 0.67056 0.85257 0.0
H604 H 0.85418 0.67329 0.96492 0.0
H605 H 0.74968 0.66195 0.83391 0.0
H606 H 0.94204 0.70898 0.81637 0.0
H607 H 0.04815 0.6827 0.93518 0.0
H608 H 0.78795 0.63435 0.85219 0.0
H609 H 0.73518 0.70665 0.85875 0.0
H610 H 1.00587 0.71148 0.92536 0.0
H611 H 0.83717 0.71192 0.9938 0.0
H612 H 0.73922 0.73951 0.89984 0.0
H613 H 0.76153 0.7518 0.94355 0.0
H614 H 0.95268 0.67514 0.7809 0.0
H615 H 0.79783 0.74144 0.9788 0.0
H616 H 0.0596 0.64365 0.90309 0.0
N617 N 0.96346 0.68476 0.84355 0.0
C618 C 0.98431 0.66591 0.84721 0.0
C619 C 0.96108 0.67165 0.79955 0.0
C620 C 0.9929 0.64766 0.82733 0.0
C621 C 0.95404 0.68993 0.81986 0.0
C622 C 0.97996 0.64977 0.80336 0.0
N623 N 0.9916 0.68658 0.889 0.0
C624 C 1.00993 0.69358 0.91162 0.0
C625 C 0.02374 0.65094 0.87518 0.0
C626 C 0.99955 0.66748 0.87068 0.0
C627 C 0.0407 0.65581 0.89887 0.0
C628 C 0.03424 0.67776 0.91705 0.0
H629 H 0.98592 0.63613 0.78756 0.0
H630 H 0.02207 0.61487 0.81688 0.0
H631 H 0.0491 0.61776 0.85884 0.0
O632 O 0.9912 0.76573 0.8957 0.0
O633 O 0.93101 0.65168 0.89403 0.0
O634 O 0.86501 0.61701 0.88397 0.0
O635 O 0.9975 0.75536 0.85702 0.0
O636 O 0.94125 0.71638 0.91822 0.0
O637 O 0.88801 0.65662 0.93159 0.0
O638 O 0.77901 0.60581 0.90706 0.0
O639 O 0.87546 0.71172 0.9099 0.0
O640 O 0.91042 0.73325 0.87357 0.0
O641 O 0.81955 0.60011 0.93114 0.0
O642 O 0.8479 0.63945 0.86509 0.0
O643 O 0.90266 0.69899 0.85333 0.0
C644 C 0.89859 0.61824 0.88875 0.0
C645 C 0.0556 0.80087 0.87829 0.0
C646 C 0.11764 0.86339 0.88238 0.0
C647 C 0.13866 0.84311 0.87958 0.0
C648 C 0.07706 0.78107 0.8756 0.0
C649 C 0.1184 0.80213 0.87646 0.0
C650 C 0.07601 0.84197 0.88204 0.0
C651 C 0.92317 0.68854 0.9351 0.0
C652 C 1.01226 0.77998 0.87555 0.0
C653 C 1.01544 0.62936 0.83187 0.0
C654 C 0.0309 0.63106 0.85575 0.0
C655 C 0.88891 0.73669 0.89125 0.0
C656 C 0.76216 0.54101 0.91732 0.0
C657 C 0.7006 0.48085 0.9061 0.0
C658 C 0.72205 0.46099 0.90328 0.0
C659 C 0.78269 0.52019 0.91506 0.0
C660 C 0.72091 0.52093 0.91321 0.0
C661 C 0.76272 0.48049 0.90795 0.0
C662 C 0.86974 0.66593 0.848 0.0
C663 C 0.7831 0.58369 0.92331 0.0
H664 H 0.17075 0.85902 0.87978 0.0
H665 H 0.06203 0.74957 0.87234 0.0
H666 H 0.13482 0.78674 0.87427 0.0
H667 H 0.05955 0.85747 0.88372 0.0
H668 H 0.70716 0.43009 0.89804 0.0
H669 H 0.81415 0.53459 0.91871 0.0
H670 H 0.70474 0.53667 0.91518 0.0
H671 H 0.77881 0.46471 0.90614 0.0
Tb672 Tb 0.2585 0.94763 0.37845 0.0
C673 C 0.12734 0.80064 0.4286 0.0
N674 N 0.16619 0.8212 0.43528 0.0
C675 C 0.14786 0.81837 0.47832 0.0
C676 C 0.09713 0.78952 0.44662 0.0
C677 C 0.17682 0.82891 0.4598 0.0
C678 C 0.10787 0.79893 0.47169 0.0
C679 C 0.0779 0.77081 0.39597 0.0
C680 C 0.11793 0.79142 0.40349 0.0
C681 C 0.04777 0.76044 0.41381 0.0
C682 C 0.05735 0.76962 0.43906 0.0
Tb683 Tb 0.2103 0.8356 0.40361 0.0
N684 N 0.14791 0.80195 0.38661 0.0
C685 C 0.06926 0.76057 0.37082 0.0
C686 C 0.1392 0.78871 0.36251 0.0
C687 C 0.10001 0.76894 0.35412 0.0
H688 H 0.20751 0.8428 0.46526 0.0
H689 H 0.09348 0.75934 0.33488 0.0
H690 H 0.24502 0.94203 0.31663 0.0
H691 H 0.39154 0.03869 0.43084 0.0
H692 H 0.16179 0.79165 0.3497 0.0
H693 H 0.03892 0.74492 0.36428 0.0
H694 H 0.31908 1.00083 0.42367 0.0
H695 H 0.15639 0.825 0.49772 0.0
H696 H 1.01691 0.74491 0.4083 0.0
H697 H 0.03374 0.76116 0.4526 0.0
H698 H 0.28497 0.95003 0.27895 0.0
H699 H 0.08554 0.7909 0.48609 0.0
H700 H 0.43766 0.04563 0.39669 0.0
N701 N 0.29278 0.95809 0.34177 0.0
C702 C 0.3328 0.97615 0.34395 0.0
C703 C 0.29875 0.95674 0.29718 0.0
C704 C 0.35729 0.98322 0.32292 0.0
C705 C 0.27593 0.95113 0.31864 0.0
C706 C 0.33955 0.97203 0.29938 0.0
N707 N 0.32459 0.98509 0.38646 0.0
C708 C 0.33913 1.00352 0.40884 0.0
C709 C 0.39074 1.01225 0.37011 0.0
C710 C 0.34937 0.99076 0.36706 0.0
C711 C 0.40599 0.02886 0.39354 0.0
C712 C 0.38005 0.02504 0.41287 0.0
H713 H 0.35727 0.97694 0.28272 0.0
H714 H 0.41796 1.00822 0.31008 0.0
H715 H 0.44727 0.03348 0.35149 0.0
O716 O 0.24167 0.98498 0.3965 0.0
O717 O 0.29675 0.92642 0.39376 0.0
O718 O 0.26514 0.86188 0.38162 0.0
O719 O 0.26647 0.99825 0.35972 0.0
O720 O 0.24816 0.9387 0.41876 0.0
O721 O 0.24949 0.88172 0.43088 0.0
O722 O 0.18395 0.77402 0.40442 0.0
O723 O 0.18397 0.87289 0.41141 0.0
O724 O 0.19484 0.90665 0.37511 0.0
O725 O 0.23936 0.8099 0.42264 0.0
O726 O 0.22346 0.84381 0.36307 0.0
O727 O 0.21943 0.89938 0.35307 0.0
C728 C 0.29759 0.89428 0.3879 0.0
C729 C 0.21527 1.01139 0.36827 0.0
C730 C 0.18201 0.04995 0.36517 0.0
C731 C 0.15172 0.01918 0.3512 0.0
C732 C 0.18507 0.98139 0.3539 0.0
C733 C 0.15328 0.98514 0.34567 0.0
C734 C 0.21357 0.04559 0.37401 0.0
C735 C 0.25454 0.91748 0.43527 0.0
C736 C 0.24858 1.00699 0.37692 0.0
C737 C 0.39863 1.00288 0.32597 0.0
C738 C 0.41534 0.01737 0.34954 0.0
C739 C 0.17197 0.88823 0.3942 0.0
C740 C 0.2275 0.7504 0.40255 0.0
C741 C 0.21805 0.68535 0.39222 0.0
C742 C 0.24331 0.70187 0.37154 0.0
C743 C 0.25193 0.76596 0.38151 0.0
C744 C 0.21079 0.70995 0.40802 0.0
C745 C 0.26038 0.74203 0.36637 0.0
C746 C 0.21997 0.86705 0.34662 0.0
C747 C 0.21332 0.77421 0.41561 0.0
H748 H 0.12678 0.02148 0.34451 0.0
H749 H 0.18621 0.95522 0.34882 0.0
H750 H 0.12997 0.96175 0.33477 0.0
H751 H 0.23721 0.06906 0.38473 0.0
H752 H 0.2494 0.68352 0.3592 0.0
H753 H 0.26291 0.79618 0.37616 0.0
H754 H 0.19042 0.69724 0.42359 0.0
H755 H 0.27916 0.75439 0.35011 0.0
Tb756 Tb 0.32075 0.24369 0.87716 0.0
C757 C 0.33261 0.11519 0.93747 0.0
N758 N 0.35258 0.15468 0.94206 0.0
C759 C 0.34087 0.14262 0.986 0.0
C760 C 0.3154 0.08775 0.95707 0.0
C761 C 0.35742 0.16873 0.96594 0.0
C762 C 0.31967 0.10197 0.98156 0.0
C763 C 0.30791 0.06155 0.90738 0.0
C764 C 0.32868 0.1023 0.91289 0.0
C765 C 0.29072 0.03409 0.92686 0.0
C766 C 0.29441 0.04716 0.95163 0.0
Tb767 Tb 0.37875 0.19393 0.90787 0.0
N768 N 0.34449 0.12975 0.89439 0.0
C769 C 0.30491 0.04962 0.88244 0.0
C770 C 0.34335 0.11811 0.87019 0.0
C771 C 0.32308 0.07803 0.86381 0.0
H772 H 0.37461 0.2 0.96973 0.0
H773 H 0.32184 0.06907 0.84453 0.0
H774 H 0.30373 0.21964 0.81724 0.0
H775 H 0.38719 0.38393 0.92527 0.0
H776 H 0.35885 0.13924 0.85574 0.0
H777 H 0.28908 0.01861 0.87742 0.0
H778 H 0.35126 0.31134 0.9222 0.0
H779 H 0.34469 0.15386 1.00489 0.0
H780 H 0.27442 1.00269 0.92295 0.0
H781 H 0.28091 0.02563 0.96645 0.0
H782 H 0.32179 0.25453 0.77672 0.0
H783 H 0.3069 0.08184 0.99715 0.0
H784 H 0.40833 0.42439 0.88683 0.0
N785 N 0.33323 0.27228 0.83875 0.0
C786 C 0.3534 0.31238 0.83861 0.0
C787 C 0.33104 0.27116 0.794 0.0
C788 C 0.36348 0.3336 0.81602 0.0
C789 C 0.32138 0.25145 0.81692 0.0
C790 C 0.35232 0.31242 0.79352 0.0
N791 N 0.35388 0.31051 0.88262 0.0
C792 C 0.36107 0.32853 0.9054 0.0
C793 C 0.38384 0.37374 0.86207 0.0
C794 C 0.36358 0.33219 0.86129 0.0
C795 C 0.39284 0.39248 0.8854 0.0
C796 C 0.38108 0.36974 0.90715 0.0
H797 H 0.35958 0.32762 0.77574 0.0
H798 H 0.39217 0.39196 0.79948 0.0
H799 H 0.40987 0.42711 0.8398 0.0
O800 O 0.27118 0.23409 0.89815 0.0
O801 O 0.38626 0.28062 0.87767 0.0
O802 O 0.41032 0.25807 0.90952 0.0
O803 O 0.273 0.24308 0.85843 0.0
O804 O 0.31803 0.23661 0.91775 0.0
O805 O 0.37356 0.23591 0.93309 0.0
O806 O 0.42005 0.17953 0.89361 0.0
O807 O 0.31368 0.16611 0.91156 0.0
O808 O 0.29583 0.17986 0.87411 0.0
O809 O 0.42481 0.1998 0.93138 0.0
O810 O 0.39041 0.21152 0.8679 0.0
O811 O 0.33032 0.20236 0.85538 0.0
C812 C 0.41426 0.28481 0.89324 0.0
C813 C 0.23407 0.26166 0.88265 0.0
C814 C 0.17354 0.26438 0.88925 0.0
C815 C 0.19656 0.3054 0.89292 0.0
C816 C 0.2566 0.30266 0.88603 0.0
C817 C 0.23784 0.32438 0.89114 0.0
C818 C 0.19262 0.24273 0.88404 0.0
C819 C 0.34305 0.24163 0.9357 0.0
C820 C 0.25288 0.23758 0.87889 0.0
C821 C 0.3841 0.37509 0.81664 0.0
C822 C 0.39419 0.39512 0.83961 0.0
C823 C 0.28794 0.1564 0.89337 0.0
C824 C 0.48392 0.21387 0.9099 0.0
C825 C 0.54691 0.21734 0.90021 0.0
C826 C 0.56434 0.2584 0.89701 0.0
C827 C 0.50186 0.25484 0.90671 0.0
C828 C 0.50658 0.19532 0.90682 0.0
C829 C 0.54196 0.27698 0.90039 0.0
C830 C 0.36542 0.20749 0.85009 0.0
C831 C 0.44097 0.18934 0.91389 0.0
H832 H 0.18259 0.3228 0.89684 0.0
H833 H 0.28852 0.31781 0.88492 0.0
H834 H 0.25535 0.35602 0.89383 0.0
H835 H 0.17524 0.21096 0.88164 0.0
H836 H 0.59539 0.27619 0.89215 0.0
H837 H 0.48479 0.26955 0.90871 0.0
H838 H 0.49247 0.16352 0.9088 0.0
H839 H 0.55564 0.30859 0.89788 0.0
Tb840 Tb 0.08051 0.30867 0.38073 0.0
C841 C 0.22914 0.31925 0.42638 0.0
N842 N 0.20591 0.33352 0.43499 0.0
C843 C 0.20375 0.30666 0.47551 0.0
C844 C 0.23925 0.29657 0.44182 0.0
C845 C 0.19416 0.32867 0.45939 0.0
C846 C 0.22612 0.29026 0.46664 0.0
C847 C 0.26466 0.31103 0.39182 0.0
C848 C 0.24163 0.32648 0.40171 0.0
C849 C 0.27422 0.28774 0.40697 0.0
C850 C 0.26169 0.28067 0.43193 0.0
Tb851 Tb 0.19359 0.37047 0.40766 0.0
N852 N 0.23161 0.34901 0.38758 0.0
C853 C 0.2779 0.31994 0.36713 0.0
C854 C 0.24712 0.36017 0.36409 0.0
C855 C 0.26958 0.34509 0.35335 0.0
H856 H 0.17755 0.34188 0.46654 0.0
H857 H 0.28112 0.35352 0.33458 0.0
H858 H 0.08829 0.30563 0.31859 0.0
H859 H 0.98964 0.34618 0.43738 0.0
H860 H 0.24364 0.38168 0.35366 0.0
H861 H 0.29558 0.30858 0.35881 0.0
H862 H 0.03043 0.31535 0.42832 0.0
H863 H 0.194 0.30247 0.49477 0.0
H864 H 0.29168 0.27544 0.39963 0.0
H865 H 0.26951 0.26288 0.44343 0.0
H866 H 0.07526 0.3354 0.28207 0.0
H867 H 0.2333 0.27304 0.47913 0.0
H868 H 0.97617 0.38127 0.40384 0.0
N869 N 0.06724 0.33178 0.34497 0.0
C870 C 0.04658 0.35097 0.34814 0.0
C871 C 0.06759 0.34057 0.3006 0.0
C872 C 0.03688 0.36708 0.3277 0.0
C873 C 0.07585 0.32452 0.32146 0.0
C874 C 0.04858 0.36251 0.30376 0.0
N875 N 0.04222 0.33554 0.39084 0.0
C876 C 0.02559 0.33163 0.41392 0.0
C877 C 1.00944 0.36975 0.37589 0.0
C878 C 0.033 0.35231 0.37182 0.0
C879 C 0.99448 0.36828 0.39993 0.0
C880 C 1.00211 0.3486 0.41894 0.0
H881 H 0.04175 0.37447 0.28754 0.0
H882 H 1.00725 0.39882 0.31628 0.0
H883 H 0.98319 0.40114 0.35851 0.0
O884 O 0.04242 0.25488 0.3988 0.0
O885 O 0.10146 0.36873 0.39586 0.0
O886 O 0.16853 0.40134 0.38798 0.0
O887 O 0.0329 0.26365 0.36058 0.0
O888 O 0.09288 0.30292 0.41965 0.0
O889 O 0.14551 0.3618 0.43402 0.0
O890 O 0.25442 0.41483 0.40641 0.0
O891 O 0.15755 0.30569 0.41029 0.0
O892 O 0.12182 0.28717 0.37404 0.0
O893 O 0.21568 0.41351 0.43616 0.0
O894 O 0.1856 0.38017 0.36756 0.0
O895 O 0.12965 0.32193 0.35507 0.0
C896 C 0.13597 0.40141 0.39386 0.0
C897 C 0.97669 0.21865 0.38395 0.0
C898 C 0.91495 0.15653 0.39113 0.0
C899 C 0.89495 0.17791 0.39361 0.0
C900 C 0.95591 0.23921 0.38589 0.0
C901 C 0.91531 0.21891 0.39086 0.0
C902 C 0.95602 0.17724 0.38631 0.0
C903 C 0.10969 0.33046 0.43682 0.0
C904 C 1.01977 0.23962 0.37942 0.0
C905 C 1.01474 0.38599 0.33173 0.0
C906 C 1.00098 0.38726 0.35577 0.0
C907 C 0.14271 0.28174 0.39112 0.0
C908 C 0.28487 0.46644 0.43856 0.0
C909 C 0.35466 0.51926 0.43955 0.0
C910 C 0.34818 0.53018 0.46337 0.0
C911 C 0.27947 0.47852 0.46228 0.0
C912 C 0.32266 0.48735 0.42704 0.0
C913 C 0.31087 0.51013 0.47452 0.0
C914 C 0.1628 0.35499 0.35004 0.0
C915 C 0.25135 0.43097 0.42689 0.0
H916 H 0.86335 0.16279 0.39714 0.0
H917 H 0.97087 0.2708 0.38342 0.0
H918 H 0.8995 0.235 0.39243 0.0
H919 H 0.97194 0.16121 0.38463 0.0
H920 H 0.37199 0.55475 0.47328 0.0
H921 H 0.251 0.46317 0.47161 0.0
H922 H 0.32738 0.47846 0.40875 0.0
H923 H 0.30632 0.51903 0.49283 0.0
Tb924 Tb 0.79362 0.08451 0.87858 0.0
C925 C 0.90885 0.22717 0.94479 0.0
N926 N 0.86952 0.20191 0.94835 0.0
C927 C 0.88062 0.19799 0.99199 0.0
C928 C 0.9358 0.23848 0.96477 0.0
C929 C 0.85501 0.18748 0.97157 0.0
C930 C 0.92119 0.22356 0.98859 0.0
C931 C 0.9629 0.26608 0.91622 0.0
C932 C 0.92217 0.24064 0.92078 0.0
C933 C 0.98989 0.27758 0.93609 0.0
C934 C 0.97638 0.26385 0.96031 0.0
Tb935 Tb 0.83061 0.18866 0.91396 0.0
N936 N 0.89527 0.22805 0.90187 0.0
C937 C 0.9753 0.27914 0.89183 0.0
C938 C 0.90708 0.24289 0.87837 0.0
C939 C 0.9472 0.26784 0.87289 0.0
H940 H 0.82363 0.16855 0.97459 0.0
H941 H 0.95633 0.27895 0.85412 0.0
H942 H 0.82265 0.10058 0.81939 0.0
H943 H 0.65011 0.9985 0.92186 0.0
H944 H 0.88598 0.237 0.86386 0.0
H945 H 1.00633 0.29859 0.88753 0.0
H946 H 0.72298 0.03942 0.92113 0.0
H947 H 0.86902 0.18655 0.01038 0.0
H948 H 0.0213 0.29699 0.93292 0.0
H949 H 0.99757 0.27283 0.97542 0.0
H950 H 0.79082 0.08594 0.77787 0.0
H951 H 0.94094 0.23158 1.00445 0.0
H952 H 0.61249 0.98104 0.88225 0.0
N953 N 0.76813 0.07135 0.83925 0.0
C954 C 0.72805 0.04919 0.83779 0.0
C955 C 0.77281 0.07552 0.79459 0.0
C956 C 0.70863 0.03932 0.81455 0.0
C957 C 0.79074 0.08418 0.81811 0.0
C958 C 0.73156 0.05305 0.79279 0.0
N959 N 0.72643 0.047 0.88183 0.0
C960 C 0.70689 0.03281 0.90389 0.0
C961 C 0.66491 1.01253 0.8592 0.0
C962 C 0.70644 0.03617 0.85979 0.0
C963 C 0.64446 0.99933 0.88187 0.0
C964 C 0.66559 1.00924 0.90429 0.0
H965 H 0.71777 0.04622 0.77454 0.0
H966 H 0.6516 1.00818 0.79612 0.0
H967 H 0.61335 0.98456 0.83521 0.0
O968 O 0.79603 0.03863 0.89744 0.0
O969 O 0.75322 0.10924 0.87791 0.0
O970 O 0.76723 0.14764 0.91346 0.0
O971 O 0.80604 0.04612 0.85783 0.0
O972 O 0.80267 0.08873 0.91895 0.0
O973 O 0.78972 0.1357 0.93592 0.0
O974 O 0.83182 0.241 0.90253 0.0
O975 O 0.86614 0.15916 0.91676 0.0
O976 O 0.85731 0.1275 0.87904 0.0
O977 O 0.81788 0.22082 0.94028 0.0
O978 O 0.81831 0.1852 0.87313 0.0
O979 O 0.83445 0.13902 0.85993 0.0
C980 C 0.7447 0.12911 0.89432 0.0
C981 C 0.7799 0.98143 0.87371 0.0
C982 C 0.77726 0.91758 0.8733 0.0
C983 C 0.73738 0.89947 0.86591 0.0
C984 C 0.74008 0.96264 0.86643 0.0
C985 C 0.71895 0.92188 0.86264 0.0
C986 C 0.79831 0.95873 0.87739 0.0
C987 C 0.78944 0.10174 0.93707 0.0
C988 C 0.80289 0.02461 0.87711 0.0
C989 C 0.66711 0.01609 0.81381 0.0
C990 C 0.64531 1.00266 0.83608 0.0
C991 C 0.87917 0.14572 0.8987 0.0
C992 C 0.85461 0.2903 0.93422 0.0
C993 C 0.88486 0.36244 0.93093 0.0
C994 C 0.9076 0.36643 0.95225 0.0
C995 C 0.87767 0.29565 0.95556 0.0
C996 C 0.85821 0.32395 0.92199 0.0
C997 C 0.90406 0.33337 0.96434 0.0
C998 C 0.82653 0.16715 0.85515 0.0
C999 C 0.82637 0.24982 0.92509 0.0
H1000 H 0.72034 0.86787 0.86284 0.0
H1001 H 0.72536 0.97937 0.86353 0.0
H1002 H 0.68821 0.90761 0.85701 0.0
H1003 H 0.82919 0.97319 0.88285 0.0
H1004 H 0.92761 0.39523 0.96008 0.0
H1005 H 0.87514 0.27075 0.96579 0.0
H1006 H 0.84047 0.32012 0.90558 0.0
H1007 H 0.92152 0.337 0.98084 0.0
H1008 H 0.14065 0.90111 0.16862 0.0
H1009 H 0.20408 0.11301 0.1102 0.0
H1010 H 0.17197 0.92806 0.09091 0.0
H1011 H 0.15999 0.07646 0.18506 0.0
H1012 H 0.19952 0.04857 0.10315 0.0
H1013 H 0.15387 0.968 0.17525 0.0
C1014 C 0.1504 0.92113 0.15289 0.0
C1015 C 0.15538 0.9089 0.12917 0.0
C1016 C 0.19104 0.05484 0.12113 0.0
C1017 C 0.17054 0.98613 0.13666 0.0
C1018 C 0.19385 0.09159 0.12519 0.0
C1019 C 0.18192 0.0998 0.14814 0.0
C1020 C 0.17656 0.02645 0.14027 0.0
C1021 C 0.16882 0.07109 0.16694 0.0
C1022 C 0.15806 0.95951 0.15671 0.0
C1023 C 0.1682 0.93639 0.10956 0.0
N1024 N 0.16637 0.03579 0.16255 0.0
N1025 N 0.17527 0.97377 0.11371 0.0
H1026 H 0.255 0.14456 0.58419 0.0
H1027 H 0.12038 0.20619 0.66337 0.0
H1028 H 0.25535 0.14622 0.66471 0.0
H1029 H 0.16726 0.25451 0.59071 0.0
H1030 H 0.15753 0.17075 0.66226 0.0
H1031 H 0.20981 0.17105 0.58446 0.0
C1032 C 0.24531 0.15024 0.60192 0.0
C1033 C 0.25963 0.14411 0.62445 0.0
C1034 C 0.15945 0.18895 0.64653 0.0
C1035 C 0.20741 0.1735 0.6249 0.0
C1036 C 0.13817 0.20897 0.64709 0.0
C1037 C 0.14092 0.23336 0.62713 0.0
C1038 C 0.18299 0.19277 0.62566 0.0
C1039 C 0.16462 0.23623 0.60655 0.0
C1040 C 0.21955 0.16529 0.60205 0.0
C1041 C 0.24527 0.15085 0.64691 0.0
N1042 N 0.18466 0.21607 0.6063 0.0
N1043 N 0.22011 0.16545 0.64658 0.0
H1044 H 0.92069 0.15535 0.09128 0.0
H1045 H 0.12217 0.24072 0.16357 0.0
H1046 H 0.92848 0.10232 0.15987 0.0
H1047 H 0.11886 0.24564 0.08318 0.0
H1048 H 0.05135 0.1924 0.16375 0.0
H1049 H 0.99327 0.19256 0.08888 0.0
C1050 C 0.93776 0.15146 0.10575 0.0
C1051 C 0.91872 0.12582 0.1258 0.0
C1052 C 0.06631 0.20357 0.14606 0.0
C1053 C 1.00144 0.16849 0.12337 0.0
C1054 C 0.10685 0.2309 0.14591 0.0
C1055 C 0.12651 0.24728 0.12331 0.0
C1056 C 0.04519 0.19315 0.12351 0.0
C1057 C 0.10478 0.23404 0.10104 0.0
C1058 C 0.97906 0.17248 0.10431 0.0
C1059 C 0.94212 0.12165 0.14404 0.0
N1060 N 0.06513 0.20827 0.10172 0.0
N1061 N 0.98231 0.14319 0.14258 0.0
H1062 H 0.83943 0.91648 0.60701 0.0
H1063 H 0.89262 0.12176 0.67275 0.0
H1064 H 0.88699 0.94992 0.68133 0.0
H1065 H 0.88018 0.10522 0.59296 0.0
H1066 H 0.87993 0.05432 0.6772 0.0
H1067 H 0.84287 0.98084 0.60259 0.0
C1068 C 0.85011 0.93717 0.62246 0.0
C1069 C 0.86327 0.92812 0.64448 0.0
C1070 C 0.87978 0.0653 0.6587 0.0
C1071 C 0.86725 1.00133 0.63963 0.0
C1072 C 0.88717 0.10387 0.65614 0.0
C1073 C 0.8873 0.11904 0.63246 0.0
C1074 C 0.87253 0.04156 0.6374 0.0
C1075 C 0.87972 0.0944 0.6116 0.0
C1076 C 0.85232 0.97389 0.61989 0.0
C1077 C 0.87701 0.95596 0.66393 0.0
N1078 N 0.87264 0.05683 0.61453 0.0
N1079 N 0.87867 0.99121 0.66104 0.0
H1080 H 0.91889 0.81462 0.16182 0.0
H1081 H 0.77348 0.85896 0.08165 0.0
H1082 H 0.86558 0.753 0.09325 0.0
H1083 H 0.78194 0.87177 0.16172 0.0
H1084 H 0.818 0.83163 0.08289 0.0
H1085 H 0.87918 0.8473 0.15941 0.0
C1086 C 0.89902 0.80822 0.14619 0.0
C1087 C 0.89531 0.78097 0.12777 0.0
C1088 C 0.8101 0.84049 0.10016 0.0
C1089 C 0.85031 0.81845 0.12476 0.0
C1090 C 0.78458 0.85584 0.09949 0.0
C1091 C 0.77289 0.86627 0.12169 0.0
C1092 C 0.82493 0.83662 0.12317 0.0
C1093 C 0.78962 0.86343 0.1442 0.0
C1094 C 0.87631 0.82669 0.14488 0.0
C1095 C 0.869 0.77354 0.10795 0.0
N1096 N 0.81468 0.84872 0.14439 0.0
N1097 N 0.84762 0.79231 0.1069 0.0
H1098 H 0.92338 0.7714 0.5834 0.0
H1099 H 0.11326 0.91075 0.66583 0.0
H1100 H 0.91923 0.77155 0.6639 0.0
H1101 H 0.12163 0.86294 0.59486 0.0
H1102 H 0.04066 0.87122 0.66323 0.0
H1103 H 0.99511 0.81665 0.58515 0.0
C1104 C 0.93753 0.78116 0.60143 0.0
C1105 C 0.91541 0.76724 0.62354 0.0
C1106 C 0.05847 0.86956 0.64821 0.0
C1107 C 0.99711 0.81971 0.62564 0.0
C1108 C 0.09976 0.89218 0.64962 0.0
C1109 C 0.12336 0.8899 0.63058 0.0
C1110 C 0.04072 0.84516 0.62738 0.0
C1111 C 0.10445 0.86524 0.61003 0.0
C1112 C 0.97838 0.80699 0.6024 0.0
C1113 C 0.93509 0.78155 0.64639 0.0
N1114 N 0.06423 0.84394 0.60891 0.0
N1115 N 0.97486 0.80697 0.64687 0.0
H1116 H 0.12497 0.88161 0.35445 0.0
H1117 H 0.92612 0.76926 0.432 0.0
H1118 H 0.12438 0.87482 0.43481 0.0
H1119 H 0.93013 0.82361 0.36135 0.0
H1120 H 0.9987 0.80414 0.43249 0.0
H1121 H 0.05367 0.85811 0.35542 0.0
C1122 C 0.10994 0.87572 0.37232 0.0
C1123 C 0.13037 0.87937 0.39458 0.0
C1124 C 0.98373 0.80875 0.41699 0.0
C1125 C 0.04894 0.85201 0.39578 0.0
C1126 C 0.94237 0.78875 0.41666 0.0
C1127 C 0.92219 0.79361 0.3966 0.0
C1128 C 1.00511 0.83314 0.39685 0.0
C1129 C 0.94463 0.81929 0.37723 0.0
C1130 C 0.06927 0.8622 0.37285 0.0
C1131 C 0.10948 0.87143 0.41719 0.0
N1132 N 0.98491 0.83772 0.37766 0.0
N1133 N 0.0698 0.85753 0.41721 0.0
H1134 H 0.11175 0.90933 0.91902 0.0
H1135 H 0.25723 0.11281 0.85096 0.0
H1136 H 0.17228 0.91632 0.85005 0.0
H1137 H 0.24694 0.10495 0.93124 0.0
H1138 H 0.2124 0.04144 0.84817 0.0
H1139 H 0.14908 0.98197 0.92183 0.0
C1140 C 0.13274 0.92623 0.90445 0.0
C1141 C 0.13923 0.90703 0.88435 0.0
C1142 C 0.21959 0.05545 0.86637 0.0
C1143 C 0.18106 0.9895 0.88714 0.0
C1144 C 0.24485 0.0962 0.86798 0.0
C1145 C 0.25607 0.11469 0.89139 0.0
C1146 C 0.20474 0.03316 0.88828 0.0
C1147 C 0.23924 0.09166 0.91284 0.0
C1148 C 0.154 0.96749 0.90608 0.0
C1149 C 0.16674 0.9301 0.86594 0.0
N1150 N 0.21445 0.05198 0.9108 0.0
N1151 N 0.18648 0.97014 0.86769 0.0
H1152 H 0.14814 0.24978 0.34725 0.0
H1153 H 0.19548 0.09181 0.409 0.0
H1154 H 0.15673 0.24007 0.42686 0.0
H1155 H 0.166 0.09195 0.33146 0.0
H1156 H 0.18937 0.15073 0.41586 0.0
H1157 H 0.16208 0.19624 0.34108 0.0
C1158 C 0.15303 0.23636 0.36346 0.0
C1159 C 0.15152 0.24949 0.38758 0.0
C1160 C 0.18435 0.13784 0.39736 0.0
C1161 C 0.16742 0.18791 0.38072 0.0
C1162 C 0.18803 0.10442 0.39341 0.0
C1163 C 0.18081 0.08678 0.36968 0.0
C1164 C 0.17373 0.15379 0.37736 0.0
C1165 C 0.17113 0.10418 0.35015 0.0
C1166 C 0.1611 0.20582 0.35994 0.0
C1167 C 0.15826 0.23114 0.40792 0.0
N1168 N 0.16781 0.13659 0.35443 0.0
N1169 N 0.16588 0.20116 0.40406 0.0
H1170 H 0.11935 0.21123 0.85647 0.0
H1171 H 0.93025 0.16777 0.93827 0.0
H1172 H 0.12825 0.27138 0.9259 0.0
H1173 H 0.92488 0.15059 0.85844 0.0
H1174 H 1.00213 0.19559 0.93651 0.0
H1175 H 0.04696 0.17853 0.85936 0.0
C1176 C 0.10601 0.21736 0.87238 0.0
C1177 C 0.12973 0.24413 0.89093 0.0
C1178 C 0.98514 0.18556 0.91942 0.0
C1179 C 0.04718 0.20671 0.89444 0.0
C1180 C 0.94418 0.16982 0.92039 0.0
C1181 C 0.92168 0.15776 0.8984 0.0
C1182 C 1.00359 0.18834 0.89636 0.0
C1183 C 0.94108 0.15978 0.87584 0.0
C1184 C 0.0648 0.19886 0.87396 0.0
C1185 C 0.11099 0.25124 0.91108 0.0
N1186 N 0.98096 0.17494 0.87539 0.0
N1187 N 0.07078 0.2325 0.91237 0.0
H1188 H 0.8617 0.11143 0.42724 0.0
H1189 H 0.78275 0.90676 0.35617 0.0
H1190 H 0.91681 0.10199 0.3596 0.0
H1191 H 0.76588 0.91399 0.4352 0.0
H1192 H 0.82853 0.97837 0.3555 0.0
H1193 H 0.82186 0.03927 0.42897 0.0
C1194 C 0.8655 0.09412 0.4128 0.0
C1195 C 0.89259 0.11272 0.39323 0.0
C1196 C 0.81487 0.96421 0.37299 0.0
C1197 C 0.84691 0.03012 0.39501 0.0
C1198 C 0.78884 0.92338 0.3734 0.0
C1199 C 0.76979 0.90457 0.39568 0.0
C1200 C 0.82169 0.98638 0.39501 0.0
C1201 C 0.77892 0.92751 0.41747 0.0
C1202 C 0.84291 0.05296 0.41386 0.0
C1203 C 0.89649 0.08882 0.3751 0.0
N1204 N 0.8038 0.96723 0.41655 0.0
N1205 N 0.8736 0.04877 0.37627 0.0
H1206 H 0.86696 0.75759 0.84847 0.0
H1207 H 0.82292 0.91723 0.91221 0.0
H1208 H 0.88052 0.78162 0.9275 0.0
H1209 H 0.77553 0.86265 0.84091 0.0
H1210 H 0.8522 0.87466 0.91688 0.0
H1211 H 0.84153 0.80311 0.84399 0.0
C1212 C 0.86502 0.7729 0.86482 0.0
C1213 C 0.87576 0.76591 0.88837 0.0
C1214 C 0.83542 0.8721 0.90022 0.0
C1215 C 0.8468 0.81813 0.88345 0.0
C1216 C 0.81895 0.89652 0.89748 0.0
C1217 C 0.79666 0.89336 0.87617 0.0
C1218 C 0.83013 0.84486 0.88131 0.0
C1219 C 0.79216 0.86579 0.85774 0.0
C1220 C 0.85022 0.79863 0.86231 0.0
C1221 C 0.8723 0.78615 0.90903 0.0
N1222 N 0.80882 0.84276 0.86069 0.0
N1223 N 0.85818 0.81146 0.90611 0.0
H1224 H 0.1389 0.69366 0.08119 0.0
H1225 H 0.22972 0.58569 0.15707 0.0
H1226 H 0.14062 0.6956 0.16167 0.0
H1227 H 0.17922 0.5464 0.08388 0.0
H1228 H 0.19945 0.62756 0.15924 0.0
H1229 H 0.1546 0.64049 0.08159 0.0
C1230 C 0.14205 0.68241 0.09897 0.0
C1231 C 0.13867 0.69907 0.12144 0.0
C1232 C 0.19464 0.60944 0.14283 0.0
C1233 C 0.15764 0.63891 0.12203 0.0
C1234 C 0.21214 0.5858 0.1415 0.0
C1235 C 0.20719 0.56276 0.12018 0.0
C1236 C 0.1727 0.61069 0.12249 0.0
C1237 C 0.18373 0.56365 0.10067 0.0
C1238 C 0.15098 0.65206 0.09919 0.0
C1239 C 0.14288 0.68338 0.14396 0.0
N1240 N 0.16783 0.58763 0.10214 0.0
N1241 N 0.15293 0.65463 0.14371 0.0
H1242 H 0.65811 0.22238 0.65693 0.0
H1243 H 0.45422 0.11907 0.58609 0.0
H1244 H 0.64364 0.1639 0.58614 0.0
H1245 H 0.45946 0.13255 0.6661 0.0
H1246 H 0.52314 0.13415 0.58582 0.0
H1247 H 0.58583 0.18976 0.66112 0.0
C1248 C 0.63967 0.20237 0.64238 0.0
C1249 C 0.65691 0.19603 0.62107 0.0
C1250 C 0.50912 0.13312 0.60352 0.0
C1251 C 0.57418 0.15894 0.62561 0.0
C1252 C 0.46978 0.12447 0.60367 0.0
C1253 C 0.45128 0.12467 0.62615 0.0
C1254 C 0.53059 0.14317 0.62593 0.0
C1255 C 0.47269 0.13192 0.64841 0.0
C1256 C 0.59844 0.1836 0.64485 0.0
C1257 C 0.63161 0.16955 0.60288 0.0
N1258 N 0.51153 0.14171 0.64771 0.0
N1259 N 0.59159 0.1525 0.60537 0.0
H1260 H 0.48253 0.63897 0.08332 0.0
H1261 H 0.32902 0.45526 0.16655 0.0
H1262 H 0.43478 0.65315 0.15287 0.0
H1263 H 0.34086 0.44961 0.08681 0.0
H1264 H 0.38057 0.52561 0.16559 0.0
H1265 H 0.44312 0.56717 0.08826 0.0
C1266 C 0.46418 0.62698 0.09981 0.0
C1267 C 0.46173 0.65208 0.11763 0.0
C1268 C 0.37226 0.5087 0.14841 0.0
C1269 C 0.41664 0.56995 0.12342 0.0
C1270 C 0.34324 0.46861 0.14899 0.0
C1271 C 0.33072 0.4469 0.12671 0.0
C1272 C 0.38923 0.52671 0.12545 0.0
C1273 C 0.34963 0.46552 0.10437 0.0
C1274 C 0.44156 0.58603 0.10255 0.0
C1275 C 0.43715 0.63485 0.13853 0.0
N1276 N 0.37782 0.50435 0.10428 0.0
N1277 N 0.41551 0.59485 0.14085 0.0
H1278 H 0.82719 0.45792 0.60631 0.0
H1279 H 0.95781 0.35525 0.60597 0.0
H1280 H 0.95431 0.52362 0.59736 0.0
H1281 H 0.84848 0.30587 0.64763 0.0
H1282 H 0.95534 0.41583 0.60025 0.0
H1283 H 0.83202 0.40052 0.61961 0.0
C1284 C 0.85614 0.4606 0.60744 0.0
C1285 C 0.89031 0.49573 0.60023 0.0
C1286 C 0.93204 0.39188 0.61084 0.0
C1287 C 0.89584 0.42972 0.61493 0.0
C1288 C 0.9336 0.3573 0.61427 0.0
C1289 C 0.90342 0.32532 0.62737 0.0
C1290 C 0.89961 0.39438 0.6201 0.0
C1291 C 0.87225 0.3296 0.63718 0.0
C1292 C 0.85882 0.42769 0.61492 0.0
C1293 C 0.92695 0.497 0.60195 0.0
N1294 N 0.87084 0.36323 0.63307 0.0
N1295 N 0.92865 0.46445 0.60876 0.0
H1296 H 0.61418 0.949 0.10866 0.0
H1297 H 0.38056 0.82223 0.10776 0.0
H1298 H 0.55269 0.83774 0.14746 0.0
H1299 H 0.44355 0.94947 0.10282 0.0
H1300 H 0.44225 0.82519 0.12074 0.0
H1301 H 0.55162 0.94833 0.10418 0.0
C1302 C 0.58771 0.92474 0.11662 0.0
C1303 C 0.58891 0.89347 0.1285 0.0
C1304 C 0.44235 0.85242 0.11702 0.0
C1305 C 0.51658 0.89177 0.12266 0.0
C1306 C 0.40706 0.8508 0.10974 0.0
C1307 C 0.40673 0.8856 0.10371 0.0
C1308 C 0.47768 0.88902 0.11797 0.0
C1309 C 0.44236 0.92172 0.10648 0.0
C1310 C 0.55184 0.92422 0.1139 0.0
C1311 C 0.5532 0.86236 0.13796 0.0
N1312 N 0.47634 0.92242 0.11302 0.0
N1313 N 0.51841 0.86199 0.13453 0.0
H1314 H 0.73273 0.547 0.60774 0.0
H1315 H 0.49877 0.42409 0.6209 0.0
H1316 H 0.66759 0.59314 0.64674 0.0
H1317 H 0.56987 0.37236 0.60009 0.0
H1318 H 0.55927 0.48541 0.63201 0.0
H1319 H 0.67317 0.48253 0.60616 0.0
C1320 C 0.70581 0.54366 0.61601 0.0
C1321 C 0.70508 0.57603 0.62692 0.0
C1322 C 0.5616 0.46047 0.62536 0.0
C1323 C 0.63619 0.50158 0.62509 0.0
C1324 C 0.52711 0.42549 0.61894 0.0
C1325 C 0.52928 0.39312 0.60932 0.0
C1326 C 0.59864 0.46335 0.62183 0.0
C1327 C 0.56672 0.39645 0.60749 0.0
C1328 C 0.67176 0.50661 0.61521 0.0
C1329 C 0.66946 0.56939 0.6378 0.0
N1330 N 0.59989 0.43107 0.61333 0.0
N1331 N 0.63622 0.53304 0.63628 0.0
H1332 H 0.35789 0.93907 0.42028 0.0
H1333 H 0.4594 0.80647 0.40642 0.0
H1334 H 0.32195 0.84714 0.36502 0.0
H1335 H 0.5123 0.91616 0.44768 0.0
H1336 H 0.40868 0.82038 0.3912 0.0
H1337 H 0.41482 0.93155 0.43045 0.0
C1338 C 0.36195 0.91728 0.41026 0.0
C1339 C 0.33422 0.89262 0.39242 0.0
C1340 C 0.43156 0.84153 0.40345 0.0
C1341 C 0.39926 0.88357 0.40411 0.0
C1342 C 0.46075 0.83372 0.41208 0.0
C1343 C 0.49026 0.86001 0.42856 0.0
C1344 C 0.43152 0.87577 0.41145 0.0
C1345 C 0.48979 0.89453 0.43547 0.0
C1346 C 0.39445 0.91292 0.41612 0.0
C1347 C 0.34134 0.86525 0.37983 0.0
N1348 N 0.46081 0.90123 0.42704 0.0
N1349 N 0.37286 0.86111 0.3861 0.0
H1350 H 0.64331 0.47726 0.93745 0.0
H1351 H 0.46016 0.32537 0.85306 0.0
H1352 H 0.65871 0.43463 0.86631 0.0
H1353 H 0.45632 0.32715 0.93347 0.0
H1354 H 0.52974 0.3792 0.85446 0.0
H1355 H 0.57124 0.43568 0.93287 0.0
C1356 C 0.63148 0.45964 0.92069 0.0
C1357 C 0.65696 0.45914 0.90231 0.0
C1358 C 0.51335 0.36817 0.87173 0.0
C1359 C 0.57473 0.41183 0.89688 0.0
C1360 C 0.47369 0.33782 0.87093 0.0
C1361 C 0.45278 0.32186 0.89319 0.0
C1362 C 0.53167 0.38303 0.89494 0.0
C1363 C 0.47164 0.33861 0.9159 0.0
C1364 C 0.59044 0.43582 0.91815 0.0
C1365 C 0.64006 0.43552 0.88103 0.0
N1366 N 0.51002 0.36821 0.91622 0.0
N1367 N 0.6 0.41276 0.87889 0.0
H1368 H 0.22145 0.64566 0.43325 0.0
H1369 H 0.09481 0.43174 0.37029 0.0
H1370 H 0.1699 0.6272 0.35993 0.0
H1371 H 0.18572 0.45972 0.42505 0.0
H1372 H 0.10792 0.49996 0.37297 0.0
H1373 H 0.19449 0.57398 0.43697 0.0
C1374 C 0.20388 0.62638 0.41816 0.0
C1375 C 0.19808 0.64214 0.3962 0.0
C1376 C 0.12449 0.49091 0.3847 0.0
C1377 C 0.16706 0.56061 0.40031 0.0
C1378 C 0.11667 0.45191 0.38338 0.0
C1379 C 0.139 0.44015 0.39763 0.0
C1380 C 0.15455 0.51802 0.40058 0.0
C1381 C 0.16793 0.46777 0.41376 0.0
C1382 C 0.18869 0.58565 0.42021 0.0
C1383 C 0.17527 0.61607 0.37708 0.0
N1384 N 0.17493 0.50544 0.4148 0.0
N1385 N 0.16064 0.57658 0.37954 0.0
H1386 H 0.69315 0.11723 0.9318 0.0
H1387 H 0.59852 0.22746 0.86215 0.0
H1388 H 0.71245 0.14367 0.85324 0.0
H1389 H 0.54955 0.16223 0.93026 0.0
H1390 H 0.64029 0.19727 0.85811 0.0
H1391 H 0.63927 0.13204 0.93123 0.0
C1392 C 0.68538 0.12543 0.9143 0.0
C1393 C 0.70716 0.12938 0.89254 0.0
C1394 C 0.62007 0.18923 0.87378 0.0
C1395 C 0.64641 0.14759 0.89188 0.0
C1396 C 0.5965 0.2067 0.87622 0.0
C1397 C 0.57076 0.19759 0.8967 0.0
C1398 C 0.61841 0.16296 0.89218 0.0
C1399 C 0.5689 0.17005 0.91416 0.0
C1400 C 0.65471 0.13396 0.91398 0.0
C1401 C 0.6961 0.14012 0.87035 0.0
N1402 N 0.59275 0.15412 0.91168 0.0
N1403 N 0.66693 0.14966 0.87067 0.0
H1404 H 0.37554 0.55629 0.39397 0.0
H1405 H 0.60982 0.66588 0.42072 0.0
H1406 H 0.42554 0.53579 0.45992 0.0
H1407 H 0.55535 0.71013 0.37017 0.0
H1408 H 0.54404 0.609 0.42973 0.0
H1409 H 0.44285 0.60327 0.37928 0.0
C1410 C 0.40071 0.56103 0.40507 0.0
C1411 C 0.39495 0.54227 0.42823 0.0
C1412 C 0.54662 0.63103 0.4165 0.0
C1413 C 0.472 0.59608 0.41168 0.0
C1414 C 0.58418 0.66341 0.41127 0.0
C1415 C 0.58814 0.69305 0.39483 0.0
C1416 C 0.51282 0.62797 0.40494 0.0
C1417 C 0.55374 0.68825 0.38318 0.0
C1418 C 0.4391 0.58807 0.39681 0.0
C1419 C 0.42868 0.54985 0.44202 0.0
N1420 N 0.51766 0.65652 0.38848 0.0
N1421 N 0.46565 0.57622 0.43361 0.0
H1422 H 0.84331 0.54558 0.87059 0.0
H1423 H 0.95237 0.43406 0.92371 0.0
H1424 H 0.95348 0.60402 0.91112 0.0
H1425 H 0.82622 0.37426 0.91103 0.0
H1426 H 0.9572 0.49588 0.9104 0.0
H1427 H 0.8408 0.48231 0.87693 0.0
C1428 C 0.86719 0.54523 0.88063 0.0
C1429 C 0.89858 0.5803 0.8905 0.0
C1430 C 0.92849 0.46919 0.91038 0.0
C1431 C 0.89605 0.50794 0.89748 0.0
C1432 C 0.92561 0.43379 0.91806 0.0
C1433 C 0.88864 0.39877 0.91906 0.0
C1434 C 0.89428 0.46987 0.90327 0.0
C1435 C 0.85534 0.40034 0.91063 0.0
C1436 C 0.86565 0.50907 0.88425 0.0
C1437 C 0.92887 0.57796 0.90305 0.0
N1438 N 0.85889 0.43534 0.90327 0.0
N1439 N 0.9268 0.54247 0.90623 0.0
H1440 H 0.15244 0.29761 0.31773 0.0
H1441 H 0.25263 0.42553 0.19639 0.0
H1442 H 0.20401 0.42398 0.32235 0.0
H1443 H 0.1549 0.30586 0.19678 0.0
H1444 H 0.24383 0.42921 0.24202 0.0
H1445 H 0.16523 0.30296 0.27325 0.0
C1446 C 0.16679 0.32667 0.30937 0.0
C1447 C 0.17654 0.36031 0.32374 0.0
C1448 C 0.22402 0.40251 0.2319 0.0
C1449 C 0.19109 0.36673 0.27225 0.0
C1450 C 0.22878 0.40053 0.20595 0.0
C1451 C 0.20454 0.36527 0.19294 0.0
C1452 C 0.19513 0.36885 0.24459 0.0
C1453 C 0.17444 0.33348 0.20613 0.0
C1454 C 0.17386 0.32969 0.28385 0.0
C1455 C 0.19581 0.39729 0.31184 0.0
N1456 N 0.17093 0.33591 0.23114 0.0
N1457 N 0.20226 0.39959 0.2866 0.0
H1458 H 0.89174 0.17028 0.70512 0.0
H1459 H 0.78263 0.18861 0.82528 0.0
H1460 H 0.83278 0.23837 0.69994 0.0
H1461 H 0.88827 0.1795 0.82633 0.0
H1462 H 0.79163 0.20087 0.7797 0.0
H1463 H 0.87875 0.16306 0.74966 0.0
C1464 C 0.87589 0.1837 0.71338 0.0
C1465 C 0.86413 0.20574 0.69887 0.0
C1466 C 0.81304 0.1968 0.79012 0.0
C1467 C 0.84899 0.19746 0.75026 0.0
C1468 C 0.80812 0.19016 0.81604 0.0
C1469 C 0.83462 0.18277 0.82941 0.0
C1470 C 0.84436 0.19554 0.77784 0.0
C1471 C 0.86691 0.18459 0.81664 0.0
C1472 C 0.86862 0.17968 0.73889 0.0
C1473 C 0.84271 0.22149 0.71058 0.0
N1474 N 0.87055 0.19027 0.79164 0.0
N1475 N 0.83596 0.21728 0.73576 0.0
H1476 H 0.73199 0.8568 0.1941 0.0
H1477 H 0.73703 0.86199 0.32072 0.0
H1478 H 0.61167 0.83262 0.19997 0.0
H1479 H 0.61187 0.77773 0.31931 0.0
H1480 H 0.73528 0.8726 0.27619 0.0
H1481 H 0.73152 0.84331 0.23839 0.0
C1482 C 0.7054 0.84855 0.20484 0.0
C1483 C 0.67205 0.84636 0.19358 0.0
C1484 C 0.70823 0.85123 0.2854 0.0
C1485 C 0.6718 0.83273 0.24468 0.0
C1486 C 0.70915 0.84554 0.31091 0.0
C1487 C 0.67472 0.81839 0.32353 0.0
C1488 C 0.67267 0.82921 0.27218 0.0
C1489 C 0.63913 0.79866 0.31009 0.0
C1490 C 0.70529 0.8414 0.23021 0.0
C1491 C 0.638 0.83474 0.20815 0.0
N1492 N 0.63901 0.80426 0.28496 0.0
N1493 N 0.63882 0.82868 0.23317 0.0
H1494 H 0.77441 0.595 0.69583 0.0
H1495 H 0.88244 0.72342 0.81517 0.0
H1496 H 0.88095 0.70885 0.6942 0.0
H1497 H 0.82609 0.59669 0.82109 0.0
H1498 H 0.86892 0.71689 0.77072 0.0
H1499 H 0.78305 0.59213 0.74148 0.0
C1500 C 0.80001 0.6188 0.70497 0.0
C1501 C 0.82687 0.65235 0.69143 0.0
C1502 C 0.8594 0.69039 0.78166 0.0
C1503 C 0.83619 0.64981 0.743 0.0
C1504 C 0.8669 0.69408 0.80711 0.0
C1505 C 0.85608 0.66059 0.82177 0.0
C1506 C 0.84054 0.65287 0.77053 0.0
C1507 C 0.83524 0.62326 0.81032 0.0
C1508 C 0.80473 0.61731 0.73091 0.0
C1509 C 0.85933 0.68267 0.70403 0.0
N1510 N 0.82832 0.6203 0.78518 0.0
N1511 N 0.86275 0.68089 0.72906 0.0
H1512 H 0.17769 0.87438 0.19155 0.0
H1513 H 0.24493 0.82319 0.3196 0.0
H1514 H 0.19458 0.77377 0.19519 0.0
H1515 H 0.17703 0.88221 0.31327 0.0
H1516 H 0.23676 0.80956 0.27424 0.0
H1517 H 0.19131 0.88562 0.23593 0.0
C1518 C 0.18483 0.8549 0.20174 0.0
C1519 C 0.18475 0.82295 0.18976 0.0
C1520 C 0.22364 0.82536 0.28293 0.0
C1521 C 0.19983 0.83528 0.24098 0.0
C1522 C 0.22814 0.83301 0.30873 0.0
C1523 C 0.21238 0.85466 0.32006 0.0
C1524 C 0.20352 0.83976 0.26858 0.0
C1525 C 0.19058 0.86637 0.30523 0.0
C1526 C 0.19233 0.86116 0.22714 0.0
C1527 C 0.1946 0.79886 0.2038 0.0
N1528 N 0.18724 0.8592 0.28032 0.0
N1529 N 0.20149 0.8053 0.22888 0.0
H1530 H 0.4359 0.24021 0.82322 0.0
H1531 H 0.31659 0.16776 0.69642 0.0
H1532 H 0.31066 0.15765 0.81732 0.0
H1533 H 0.43419 0.18356 0.69777 0.0
H1534 H 0.32098 0.18144 0.74092 0.0
H1535 H 0.44245 0.23272 0.77769 0.0
C1536 C 0.41002 0.22024 0.81247 0.0
C1537 C 0.37253 0.20017 0.8239 0.0
C1538 C 0.34603 0.18219 0.73156 0.0
C1539 C 0.37965 0.19217 0.77242 0.0
C1540 C 0.34362 0.17458 0.70612 0.0
C1541 C 0.37484 0.17395 0.69351 0.0
C1542 C 0.37995 0.18937 0.74478 0.0
C1543 C 0.40947 0.18371 0.70693 0.0
C1544 C 0.41374 0.21614 0.7866 0.0
C1545 C 0.33995 0.17453 0.80922 0.0
N1546 N 0.41106 0.1907 0.73209 0.0
N1547 N 0.34419 0.17173 0.78433 0.0
H1548 H 0.27508 0.2012 0.96155 0.0
H1549 H 0.31253 0.3808 0.05105 0.0
H1550 H 0.38839 0.30815 0.96405 0.0
H1551 H 0.22179 0.26009 0.06384 0.0
H1552 H 0.33775 0.35829 0.01593 0.0
H1553 H 0.25282 0.22481 0.9969 0.0
C1554 C 0.29558 0.22935 0.97002 0.0
C1555 C 0.33378 0.25247 0.96023 0.0
C1556 C 0.31214 0.33689 0.02636 0.0
C1557 C 0.30802 0.28066 1.00011 0.0
C1558 C 0.29743 0.34978 0.04608 0.0
C1559 C 0.26487 0.32224 0.06016 0.0
C1560 C 0.29366 0.29634 0.02058 0.0
C1561 C 0.24689 0.28227 0.05339 0.0
C1562 C 0.28278 0.24302 0.99005 0.0
C1563 C 0.35897 0.28913 0.97149 0.0
N1564 N 0.26141 0.2706 0.03414 0.0
N1565 N 0.34549 0.3024 0.99069 0.0
H1566 H 0.09271 0.37855 0.46609 0.0
H1567 H 0.95044 0.19817 0.55596 0.0
H1568 H 0.07565 0.26108 0.46134 0.0
H1569 H 0.95013 0.30807 0.55709 0.0
H1570 H 0.99713 0.22233 0.52123 0.0
H1571 H 0.04411 0.35641 0.50073 0.0
C1572 C 0.07965 0.34851 0.47284 0.0
C1573 C 0.08848 0.32168 0.46106 0.0
C1574 C 0.98659 0.24118 0.52868 0.0
C1575 C 0.03235 0.29592 0.49993 0.0
C1576 C 0.95949 0.22712 0.54835 0.0
C1577 C 0.94591 0.25087 0.55908 0.0
C1578 C 1.00108 0.2798 0.51978 0.0
C1579 C 0.95922 0.2885 0.54887 0.0
C1580 C 0.05144 0.3357 0.49225 0.0
C1581 C 0.06985 0.28278 0.46997 0.0
N1582 N 0.98651 0.30207 0.52994 0.0
N1583 N 0.0428 0.27116 0.4887 0.0
H1584 H 0.64953 0.94265 0.05796 0.0
H1585 H 0.81994 0.05887 0.95601 0.0
H1586 H 0.75644 0.93659 0.05136 0.0
H1587 H 0.72791 0.08726 0.96933 0.0
H1588 H 0.79317 1.0103 0.9892 0.0
H1589 H 0.67235 0.99013 0.02299 0.0
C1590 C 0.67711 0.95033 0.04857 0.0
C1591 C 0.70097 0.93539 0.05716 0.0
C1592 C 0.77879 0.0272 0.98514 0.0
C1593 C 0.72763 0.99005 0.01795 0.0
C1594 C 0.79422 0.05515 0.96619 0.0
C1595 C 0.77622 0.07726 0.95995 0.0
C1596 C 0.74463 0.02068 0.99803 0.0
C1597 C 0.74295 0.07114 0.97381 0.0
C1598 C 0.69044 0.97788 0.02898 0.0
C1599 C 0.73706 0.94718 0.04506 0.0
N1600 N 0.72793 0.04309 0.99214 0.0
N1601 N 0.74925 0.97375 0.02617 0.0
H1602 H 0.8193 0.76035 0.5613 0.0
H1603 H 0.64535 0.70754 0.46255 0.0
H1604 H 0.72267 0.64136 0.55177 0.0
H1605 H 0.75281 0.81998 0.46826 0.0
H1606 H 0.66846 0.6828 0.49727 0.0
H1607 H 0.7926 0.78218 0.52805 0.0
C1608 C 0.79269 0.73865 0.5518 0.0
C1609 C 0.77334 0.69898 0.55913 0.0
C1610 C 0.68659 0.71307 0.49116 0.0
C1611 C 0.74158 0.72399 0.52125 0.0
C1612 C 0.67307 0.72737 0.47173 0.0
C1613 C 0.69711 0.76595 0.46281 0.0
C1614 C 0.72413 0.73781 0.50173 0.0
C1615 C 0.73332 0.79012 0.47472 0.0
C1616 C 0.7772 0.75117 0.53291 0.0
C1617 C 0.73879 0.67213 0.54634 0.0
N1618 N 0.74572 0.77565 0.4934 0.0
N1619 N 0.7237 0.68519 0.52811 0.0
H1620 H 0.9422 0.751 0.96497 0.0
H1621 H 0.10018 0.72582 0.04579 0.0
H1622 H 0.95185 0.64632 0.95931 0.0
H1623 H 0.05928 0.80698 0.0639 0.0
H1624 H 0.05095 0.69876 0.01173 0.0
H1625 H 0.98813 0.77339 1.00009 0.0
C1626 C 0.95333 0.73227 0.97164 0.0
C1627 C 0.94277 0.69651 0.95963 0.0
C1628 C 0.05298 0.72257 0.02319 0.0
C1629 C 0.9969 0.72268 0.99918 0.0
C1630 C 0.08138 0.73834 0.04234 0.0
C1631 C 0.08386 0.7687 0.05768 0.0
C1632 C 0.02751 0.73781 0.01921 0.0
C1633 C 0.05835 0.78344 0.05269 0.0
C1634 C 0.97986 0.74518 0.99153 0.0
C1635 C 0.95865 0.67367 0.96856 0.0
N1636 N 0.03146 0.76796 0.03396 0.0
N1637 N 0.98544 0.68738 0.98764 0.0
H1638 H 0.32572 0.94472 0.4591 0.0
H1639 H 0.2693 0.05693 0.5629 0.0
H1640 H 0.21128 0.93513 0.4664 0.0
H1641 H 0.38965 0.08407 0.55096 0.0
H1642 H 0.24784 1.00972 0.52864 0.0
H1643 H 0.34954 0.99104 0.49473 0.0
C1644 C 0.3053 0.95133 0.46879 0.0
C1645 C 0.26631 0.93564 0.46022 0.0
C1646 C 0.27905 0.02614 0.53319 0.0
C1647 C 0.29343 0.98927 0.50022 0.0
C1648 C 0.29136 0.05337 0.55267 0.0
C1649 C 0.33134 0.07471 0.55958 0.0
C1650 C 0.30679 0.01953 0.5205 0.0
C1651 C 0.35864 0.06867 0.54588 0.0
C1652 C 0.31904 0.97824 0.48879 0.0
C1653 C 0.24136 0.94615 0.47275 0.0
N1654 N 0.34581 0.04132 0.52706 0.0
N1655 N 0.25533 0.97228 0.49201 0.0
loop_
_geom_bond_atom_site_label_1
_geom_bond_atom_site_label_2
_geom_bond_distance
_geom_bond_site_symmetry_2
_ccdc_geom_bond_type
Tb0 N29 2.617 . S
Tb0 N35 2.572 . S
Tb0 O44 2.465 . S
Tb0 O45 2.387 . S
Tb0 O47 2.428 . S
Tb0 O48 2.308 . S
Tb0 O52 2.349 . S
Tb0 O55 2.393 . S
Tb0 C64 2.802 . S
C1 N2 1.379 . S
C1 C4 1.416 . S
C1 C8 1.424 . S
N2 C1 1.379 . S
N2 C5 1.334 . S
N2 Tb11 2.617 . S
C3 C5 1.390 . S
C3 C6 1.339 . S
C3 H23 0.930 1_554 S
C4 C1 1.416 . S
C4 C6 1.416 . S
C4 C10 1.448 . S
C5 N2 1.334 . S
C5 C3 1.390 . S
C5 H16 0.930 . S
C6 C3 1.339 . S
C6 C4 1.416 . S
C6 H27 0.930 . S
C7 C8 1.413 . S
C7 C9 1.411 1_455 S
C7 C13 1.416 . S
C8 C1 1.424 . S
C8 C7 1.413 . S
C8 N12 1.361 . S
C9 C7 1.411 1_655 S
C9 C10 1.317 1_655 S
C9 H24 0.956 . S
C10 C4 1.448 . S
C10 C9 1.317 1_455 S
C10 H25 0.930 1_455 S
Tb11 N2 2.617 . S
Tb11 N12 2.572 . S
Tb11 O46 2.349 . S
Tb11 O49 2.393 . S
Tb11 O50 2.465 . S
Tb11 O51 2.387 . S
Tb11 O53 2.428 . S
Tb11 O54 2.308 . S
Tb11 C75 2.802 . S
N12 C8 1.361 . S
N12 Tb11 2.572 . S
N12 C14 1.340 . S
C13 C7 1.416 . S
C13 C15 1.332 . S
C13 H21 0.931 1_455 S
C14 N12 1.340 . S
C14 C15 1.407 . S
C14 H20 0.930 . S
C15 C13 1.332 . S
C15 C14 1.407 . S
C15 H17 0.929 . S
H16 C5 0.930 . S
H17 C15 0.929 . S
H18 C33 0.930 . S
H19 C40 0.929 . S
H20 C14 0.930 . S
H21 C13 0.931 1_655 S
H22 C36 0.930 . S
H23 C3 0.930 1_556 S
H24 C9 0.956 . S
H25 C10 0.930 1_655 S
H26 C31 0.930 . S
H27 C6 0.930 . S
H28 C39 0.931 . S
N29 Tb0 2.617 . S
N29 C30 1.379 . S
N29 C33 1.334 . S
C30 N29 1.379 . S
C30 C32 1.416 . S
C30 C38 1.424 . S
C31 H26 0.930 . S
C31 C33 1.390 . S
C31 C34 1.339 . S
C32 C30 1.416 . S
C32 C34 1.416 . S
C32 C65 1.448 . S
C33 H18 0.930 . S
C33 N29 1.334 . S
C33 C31 1.390 . S
C34 C31 1.339 . S
C34 C32 1.416 . S
C34 H41 0.930 . S
N35 Tb0 2.572 . S
N35 C36 1.340 . S
N35 C38 1.361 . S
C36 H22 0.930 . S
C36 N35 1.340 . S
C36 C40 1.407 . S
C37 C38 1.413 . S
C37 C39 1.416 . S
C37 C66 1.427 . S
C38 C30 1.424 . S
C38 N35 1.361 . S
C38 C37 1.413 . S
C39 H28 0.931 . S
C39 C37 1.416 . S
C39 C40 1.332 . S
C40 H19 0.929 . S
C40 C36 1.407 . S
C40 C39 1.332 . S
H41 C34 0.930 . S
H42 C65 0.930 . S
H43 C66 0.929 . S
O44 Tb0 2.465 . S
O44 C64 1.264 . S
O45 Tb0 2.387 . S
O45 C56 1.264 . S
O46 Tb11 2.349 . S
O46 C56 1.243 . S
O47 Tb0 2.428 . S
O47 C64 1.256 . S
O48 Tb0 2.308 . S
O48 C63 1.266 . S
O49 Tb11 2.393 . S
O49 C63 1.248 . S
O50 Tb11 2.465 . S
O50 C75 1.264 . S
O51 Tb11 2.387 . S
O51 C67 1.264 . S
O52 Tb0 2.349 . S
O52 C67 1.243 . S
O53 Tb11 2.428 . S
O53 C75 1.256 . S
O54 Tb11 2.308 . S
O54 C74 1.266 . S
O55 Tb0 2.393 . S
O55 C74 1.248 . S
C56 O45 1.264 . S
C56 O46 1.243 . S
C57 C60 1.399 . S
C57 C62 1.383 . S
C57 C64 1.496 . S
C58 C59 1.399 . S
C58 C62 1.389 . S
C59 C58 1.399 . S
C59 C61 1.380 . S
C59 H76 0.929 . S
C60 C57 1.399 . S
C60 C61 1.392 . S
C60 H77 0.929 . S
C61 C59 1.380 . S
C61 C60 1.392 . S
C61 H78 0.929 . S
C62 C57 1.383 . S
C62 C58 1.389 . S
C62 H79 0.931 . S
C63 O48 1.266 . S
C63 O49 1.248 . S
C64 Tb0 2.802 . S
C64 O44 1.264 . S
C64 O47 1.256 . S
C64 C57 1.496 . S
C65 C32 1.448 . S
C65 H42 0.930 . S
C65 C66 1.328 . S
C66 C37 1.427 . S
C66 H43 0.929 . S
C66 C65 1.328 . S
C67 O51 1.264 . S
C67 O52 1.243 . S
C68 C71 1.399 . S
C68 C72 1.383 . S
C68 C75 1.496 . S
C69 C70 1.399 . S
C69 C72 1.389 . S
C70 C69 1.399 . S
C70 C73 1.380 . S
C70 H80 0.929 . S
C71 C68 1.399 . S
C71 C73 1.392 . S
C71 H81 0.929 . S
C72 C68 1.383 . S
C72 C69 1.389 . S
C72 H82 0.931 . S
C73 C70 1.380 . S
C73 C71 1.392 . S
C73 H83 0.929 . S
C74 O54 1.266 . S
C74 O55 1.248 . S
C75 Tb11 2.802 . S
C75 O50 1.264 . S
C75 O53 1.256 . S
C75 C68 1.496 . S
H76 C59 0.929 . S
H77 C60 0.929 . S
H78 C61 0.929 . S
H79 C62 0.931 . S
H80 C70 0.929 . S
H81 C71 0.929 . S
H82 C72 0.931 . S
H83 C73 0.929 . S
Tb84 N113 2.617 . S
Tb84 N119 2.572 . S
Tb84 O128 2.465 . S
Tb84 O129 2.387 . S
Tb84 O131 2.428 . S
Tb84 O132 2.308 . S
Tb84 O136 2.349 . S
Tb84 O139 2.393 . S
Tb84 C148 2.802 . S
C85 N86 1.379 . S
C85 C88 1.416 . S
C85 C92 1.424 . S
N86 C85 1.379 . S
N86 C89 1.334 . S
N86 Tb95 2.617 . S
C87 C89 1.390 . S
C87 C90 1.339 . S
C87 H107 0.930 . S
C88 C85 1.416 . S
C88 C90 1.416 . S
C88 C94 1.448 . S
C89 N86 1.334 . S
C89 C87 1.390 . S
C89 H100 0.930 . S
C90 C87 1.339 . S
C90 C88 1.416 . S
C90 H111 0.930 . S
C91 C92 1.413 . S
C91 C93 1.410 1_545 S
C91 C97 1.416 . S
C92 C85 1.424 . S
C92 C91 1.413 . S
C92 N96 1.361 . S
C93 C91 1.410 1_565 S
C93 C94 1.323 1_565 S
C93 H108 0.952 . S
C94 C88 1.448 . S
C94 C93 1.323 1_545 S
C94 H109 0.930 1_545 S
Tb95 N86 2.617 . S
Tb95 N96 2.572 . S
Tb95 O130 2.349 . S
Tb95 O133 2.393 . S
Tb95 O134 2.465 . S
Tb95 O135 2.387 . S
Tb95 O137 2.428 . S
Tb95 O138 2.308 . S
Tb95 C159 2.802 . S
N96 C92 1.361 . S
N96 Tb95 2.572 . S
N96 C98 1.340 . S
C97 C91 1.416 . S
C97 C99 1.332 . S
C97 H105 0.931 1_545 S
C98 N96 1.340 . S
C98 C99 1.407 . S
C98 H104 0.930 . S
C99 C97 1.332 . S
C99 C98 1.407 . S
C99 H101 0.929 . S
H100 C89 0.930 . S
H101 C99 0.929 . S
H102 C117 0.930 . S
H103 C124 0.929 . S
H104 C98 0.930 . S
H105 C97 0.931 1_565 S
H106 C120 0.930 . S
H107 C87 0.930 . S
H108 C93 0.952 . S
H109 C94 0.930 1_565 S
H110 C115 0.930 . S
H111 C90 0.930 . S
H112 C123 0.931 . S
N113 Tb84 2.617 . S
N113 C114 1.379 . S
N113 C117 1.334 . S
C114 N113 1.379 . S
C114 C116 1.416 . S
C114 C122 1.424 . S
C115 H110 0.930 . S
C115 C117 1.390 . S
C115 C118 1.339 . S
C116 C114 1.416 . S
C116 C118 1.416 . S
C116 C149 1.448 . S
C117 H102 0.930 . S
C117 N113 1.334 . S
C117 C115 1.390 . S
C118 C115 1.339 . S
C118 C116 1.416 . S
C118 H125 0.930 . S
N119 Tb84 2.572 . S
N119 C120 1.340 . S
N119 C122 1.361 . S
C120 H106 0.930 . S
C120 N119 1.340 . S
C120 C124 1.407 1_655 S
C121 C122 1.413 1_455 S
C121 C123 1.416 . S
C121 C150 1.427 . S
C122 C114 1.424 . S
C122 N119 1.361 . S
C122 C121 1.413 1_655 S
C123 H112 0.931 . S
C123 C121 1.416 . S
C123 C124 1.332 . S
C124 H103 0.929 . S
C124 C120 1.407 1_455 S
C124 C123 1.332 . S
H125 C118 0.930 . S
H126 C149 0.930 1_455 S
H127 C150 0.929 . S
O128 Tb84 2.465 . S
O128 C148 1.264 . S
O129 Tb84 2.387 . S
O129 C140 1.264 . S
O130 Tb95 2.349 . S
O130 C140 1.243 . S
O131 Tb84 2.428 . S
O131 C148 1.256 . S
O132 Tb84 2.308 . S
O132 C147 1.266 . S
O133 Tb95 2.393 . S
O133 C147 1.248 . S
O134 Tb95 2.465 . S
O134 C159 1.264 . S
O135 Tb95 2.387 . S
O135 C151 1.264 . S
O136 Tb84 2.349 . S
O136 C151 1.243 . S
O137 Tb95 2.428 . S
O137 C159 1.256 . S
O138 Tb95 2.308 . S
O138 C158 1.266 . S
O139 Tb84 2.393 . S
O139 C158 1.248 . S
C140 O129 1.264 . S
C140 O130 1.243 . S
C141 C144 1.399 . S
C141 C146 1.383 . S
C141 C148 1.496 1_455 S
C142 C143 1.399 . S
C142 C146 1.389 . S
C143 C142 1.399 . S
C143 C145 1.380 . S
C143 H160 0.929 . S
C144 C141 1.399 . S
C144 C145 1.392 . S
C144 H161 0.929 . S
C145 C143 1.380 . S
C145 C144 1.392 . S
C145 H162 0.929 . S
C146 C141 1.383 . S
C146 C142 1.389 . S
C146 H163 0.931 . S
C147 O132 1.266 . S
C147 O133 1.248 . S
C148 Tb84 2.802 . S
C148 O128 1.264 . S
C148 O131 1.256 . S
C148 C141 1.496 1_655 S
C149 C116 1.448 . S
C149 H126 0.930 1_655 S
C149 C150 1.328 1_655 S
C150 C121 1.427 . S
C150 H127 0.929 . S
C150 C149 1.328 1_455 S
C151 O135 1.264 . S
C151 O136 1.243 . S
C152 C155 1.399 . S
C152 C156 1.383 . S
C152 C159 1.496 . S
C153 C154 1.399 . S
C153 C156 1.389 . S
C154 C153 1.399 . S
C154 C157 1.380 . S
C154 H164 0.929 . S
C155 C152 1.399 . S
C155 C157 1.392 . S
C155 H165 0.929 . S
C156 C152 1.383 . S
C156 C153 1.389 . S
C156 H166 0.931 . S
C157 C154 1.380 . S
C157 C155 1.392 . S
C157 H167 0.929 . S
C158 O138 1.266 . S
C158 O139 1.248 . S
C159 Tb95 2.802 . S
C159 O134 1.264 . S
C159 O137 1.256 . S
C159 C152 1.496 . S
H160 C143 0.929 . S
H161 C144 0.929 . S
H162 C145 0.929 . S
H163 C146 0.931 . S
H164 C154 0.929 . S
H165 C155 0.929 . S
H166 C156 0.931 . S
H167 C157 0.929 . S
Tb168 N197 2.617 . S
Tb168 N203 2.572 . S
Tb168 O212 2.465 . S
Tb168 O213 2.387 . S
Tb168 O215 2.428 . S
Tb168 O216 2.308 . S
Tb168 O220 2.349 . S
Tb168 O223 2.393 . S
Tb168 C232 2.802 . S
C169 N170 1.379 . S
C169 C172 1.416 . S
C169 C176 1.424 . S
N170 C169 1.379 . S
N170 C173 1.334 . S
N170 Tb179 2.617 . S
C171 C173 1.390 . S
C171 C174 1.339 . S
C171 H191 0.930 1_554 S
C172 C169 1.416 . S
C172 C174 1.416 . S
C172 C178 1.448 . S
C173 N170 1.334 . S
C173 C171 1.390 . S
C173 H184 0.930 . S
C174 C171 1.339 . S
C174 C172 1.416 . S
C174 H195 0.930 . S
C175 C176 1.413 . S
C175 C177 1.427 . S
C175 C181 1.416 . S
C176 C169 1.424 . S
C176 C175 1.413 . S
C176 N180 1.361 . S
C177 C175 1.427 . S
C177 C178 1.328 . S
C177 H192 0.929 . S
C178 C172 1.448 . S
C178 C177 1.328 . S
C178 H193 0.930 . S
Tb179 N170 2.617 . S
Tb179 N180 2.572 . S
Tb179 O214 2.349 . S
Tb179 O217 2.393 . S
Tb179 O218 2.465 . S
Tb179 O219 2.387 . S
Tb179 O221 2.428 . S
Tb179 O222 2.308 . S
Tb179 C243 2.802 . S
N180 C176 1.361 . S
N180 Tb179 2.572 . S
N180 C182 1.340 . S
C181 C175 1.416 . S
C181 C183 1.332 . S
C181 H189 0.931 . S
C182 N180 1.340 . S
C182 C183 1.407 . S
C182 H188 0.930 . S
C183 C181 1.332 . S
C183 C182 1.407 . S
C183 H185 0.929 . S
H184 C173 0.930 . S
H185 C183 0.929 . S
H186 C201 0.930 . S
H187 C208 0.929 . S
H188 C182 0.930 . S
H189 C181 0.931 . S
H190 C204 0.930 . S
H191 C171 0.930 1_556 S
H192 C177 0.929 . S
H193 C178 0.930 . S
H194 C199 0.930 . S
H195 C174 0.930 . S
H196 C207 0.931 . S
N197 Tb168 2.617 . S
N197 C198 1.379 . S
N197 C201 1.334 . S
C198 N197 1.379 . S
C198 C200 1.416 . S
C198 C206 1.424 . S
C199 H194 0.930 . S
C199 C201 1.390 . S
C199 C202 1.339 . S
C200 C198 1.416 . S
C200 C202 1.416 . S
C200 C233 1.448 . S
C201 H186 0.930 . S
C201 N197 1.334 . S
C201 C199 1.390 . S
C202 C199 1.339 . S
C202 C200 1.416 . S
C202 H209 0.930 . S
N203 Tb168 2.572 . S
N203 C204 1.340 . S
N203 C206 1.361 . S
C204 H190 0.930 . S
C204 N203 1.340 . S
C204 C208 1.407 1_565 S
C205 C206 1.415 1_545 S
C205 C207 1.416 . S
C205 C234 1.426 . S
C206 C198 1.424 . S
C206 N203 1.361 . S
C206 C205 1.415 1_565 S
C207 H196 0.931 . S
C207 C205 1.416 . S
C207 C208 1.332 . S
C208 H187 0.929 . S
C208 C204 1.407 1_545 S
C208 C207 1.332 . S
H209 C202 0.930 . S
H210 C233 0.930 1_545 S
H211 C234 0.929 . S
O212 Tb168 2.465 . S
O212 C232 1.264 . S
O213 Tb168 2.387 . S
O213 C224 1.264 . S
O214 Tb179 2.349 . S
O214 C224 1.243 . S
O215 Tb168 2.428 . S
O215 C232 1.256 . S
O216 Tb168 2.308 . S
O216 C231 1.266 . S
O217 Tb179 2.393 . S
O217 C231 1.248 . S
O218 Tb179 2.465 . S
O218 C243 1.264 . S
O219 Tb179 2.387 . S
O219 C235 1.264 . S
O220 Tb168 2.349 . S
O220 C235 1.243 . S
O221 Tb179 2.428 . S
O221 C243 1.256 . S
O222 Tb179 2.308 . S
O222 C242 1.266 . S
O223 Tb168 2.393 . S
O223 C242 1.248 . S
C224 O213 1.264 . S
C224 O214 1.243 . S
C225 C228 1.399 . S
C225 C230 1.383 . S
C225 C232 1.496 1_545 S
C226 C227 1.399 . S
C226 C230 1.389 . S
C227 C226 1.399 . S
C227 C229 1.380 . S
C227 H244 0.929 . S
C228 C225 1.399 . S
C228 C229 1.392 . S
C228 H245 0.929 . S
C229 C227 1.380 . S
C229 C228 1.392 . S
C229 H246 0.929 . S
C230 C225 1.383 . S
C230 C226 1.389 . S
C230 H247 0.931 . S
C231 O216 1.266 . S
C231 O217 1.248 . S
C232 Tb168 2.802 . S
C232 O212 1.264 . S
C232 O215 1.256 . S
C232 C225 1.496 1_565 S
C233 C200 1.448 . S
C233 H210 0.930 1_565 S
C233 C234 1.328 1_565 S
C234 C205 1.426 . S
C234 H211 0.929 . S
C234 C233 1.328 1_545 S
C235 O219 1.264 . S
C235 O220 1.243 . S
C236 C239 1.399 . S
C236 C240 1.383 . S
C236 C243 1.496 . S
C237 C238 1.399 . S
C237 C240 1.389 . S
C238 C237 1.399 . S
C238 C241 1.380 . S
C238 H248 0.929 . S
C239 C236 1.399 . S
C239 C241 1.392 . S
C239 H249 0.929 . S
C240 C236 1.383 . S
C240 C237 1.389 . S
C240 H250 0.931 . S
C241 C238 1.380 . S
C241 C239 1.392 . S
C241 H251 0.929 . S
C242 O222 1.266 . S
C242 O223 1.248 . S
C243 Tb179 2.802 . S
C243 O218 1.264 . S
C243 O221 1.256 . S
C243 C236 1.496 . S
H244 C227 0.929 . S
H245 C228 0.929 . S
H246 C229 0.929 . S
H247 C230 0.931 . S
H248 C238 0.929 . S
H249 C239 0.929 . S
H250 C240 0.931 . S
H251 C241 0.929 . S
Tb252 N281 2.617 . S
Tb252 N287 2.572 . S
Tb252 O296 2.465 . S
Tb252 O297 2.387 . S
Tb252 O299 2.428 . S
Tb252 O300 2.308 . S
Tb252 O304 2.349 . S
Tb252 O307 2.393 . S
Tb252 C316 2.802 . S
C253 N254 1.379 . S
C253 C256 1.416 . S
C253 C260 1.424 . S
N254 C253 1.379 . S
N254 C257 1.334 . S
N254 Tb263 2.617 . S
C255 C257 1.390 . S
C255 C258 1.339 . S
C255 H275 0.930 . S
C256 C253 1.416 . S
C256 C258 1.416 . S
C256 C262 1.448 . S
C257 N254 1.334 . S
C257 C255 1.390 . S
C257 H268 0.930 . S
C258 C255 1.339 . S
C258 C256 1.416 . S
C258 H279 0.930 . S
C259 C260 1.413 . S
C259 C261 1.411 1_655 S
C259 C265 1.416 . S
C260 C253 1.424 . S
C260 C259 1.413 . S
C260 N264 1.361 . S
C261 C259 1.411 1_455 S
C261 C262 1.317 1_455 S
C261 H276 0.956 . S
C262 C256 1.448 . S
C262 C261 1.317 1_655 S
C262 H277 0.930 1_655 S
Tb263 N254 2.617 . S
Tb263 N264 2.572 . S
Tb263 O298 2.349 . S
Tb263 O301 2.393 . S
Tb263 O302 2.465 . S
Tb263 O303 2.387 . S
Tb263 O305 2.428 . S
Tb263 O306 2.308 . S
Tb263 C327 2.802 . S
N264 C260 1.361 . S
N264 Tb263 2.572 . S
N264 C266 1.340 . S
C265 C259 1.416 . S
C265 C267 1.332 . S
C265 H273 0.931 1_655 S
C266 N264 1.340 . S
C266 C267 1.407 . S
C266 H272 0.930 . S
C267 C265 1.332 . S
C267 C266 1.407 . S
C267 H269 0.929 . S
H268 C257 0.930 . S
H269 C267 0.929 . S
H270 C285 0.930 . S
H271 C292 0.929 . S
H272 C266 0.930 . S
H273 C265 0.931 1_455 S
H274 C288 0.930 . S
H275 C255 0.930 . S
H276 C261 0.956 . S
H277 C262 0.930 1_455 S
H278 C283 0.930 . S
H279 C258 0.930 . S
H280 C291 0.931 . S
N281 Tb252 2.617 . S
N281 C282 1.379 . S
N281 C285 1.334 . S
C282 N281 1.379 . S
C282 C284 1.416 . S
C282 C290 1.424 . S
C283 H278 0.930 . S
C283 C285 1.390 . S
C283 C286 1.339 . S
C284 C282 1.416 . S
C284 C286 1.416 . S
C284 C317 1.448 . S
C285 H270 0.930 . S
C285 N281 1.334 . S
C285 C283 1.390 . S
C286 C283 1.339 . S
C286 C284 1.416 . S
C286 H293 0.930 . S
N287 Tb252 2.572 . S
N287 C288 1.340 . S
N287 C290 1.361 . S
C288 H274 0.930 . S
C288 N287 1.340 . S
C288 C292 1.407 . S
C289 C290 1.413 . S
C289 C291 1.416 . S
C289 C318 1.427 . S
C290 C282 1.424 . S
C290 N287 1.361 . S
C290 C289 1.413 . S
C291 H280 0.931 . S
C291 C289 1.416 . S
C291 C292 1.332 . S
C292 H271 0.929 . S
C292 C288 1.407 . S
C292 C291 1.332 . S
H293 C286 0.930 . S
H294 C317 0.930 . S
H295 C318 0.929 . S
O296 Tb252 2.465 . S
O296 C316 1.264 . S
O297 Tb252 2.387 . S
O297 C308 1.264 . S
O298 Tb263 2.349 . S
O298 C308 1.243 . S
O299 Tb252 2.428 . S
O299 C316 1.256 . S
O300 Tb252 2.308 . S
O300 C315 1.266 . S
O301 Tb263 2.393 . S
O301 C315 1.248 . S
O302 Tb263 2.465 . S
O302 C327 1.264 . S
O303 Tb263 2.387 . S
O303 C319 1.264 . S
O304 Tb252 2.349 . S
O304 C319 1.243 . S
O305 Tb263 2.428 . S
O305 C327 1.256 . S
O306 Tb263 2.308 . S
O306 C326 1.266 . S
O307 Tb252 2.393 . S
O307 C326 1.248 . S
C308 O297 1.264 . S
C308 O298 1.243 . S
C309 C312 1.399 . S
C309 C314 1.383 . S
C309 C316 1.496 . S
C310 C311 1.399 . S
C310 C314 1.389 . S
C311 C310 1.399 . S
C311 C313 1.380 . S
C311 H328 0.929 . S
C312 C309 1.399 . S
C312 C313 1.392 . S
C312 H329 0.929 . S
C313 C311 1.380 . S
C313 C312 1.392 . S
C313 H330 0.929 . S
C314 C309 1.383 . S
C314 C310 1.389 . S
C314 H331 0.931 . S
C315 O300 1.266 . S
C315 O301 1.248 . S
C316 Tb252 2.802 . S
C316 O296 1.264 . S
C316 O299 1.256 . S
C316 C309 1.496 . S
C317 C284 1.448 . S
C317 H294 0.930 . S
C317 C318 1.328 . S
C318 C289 1.427 . S
C318 H295 0.929 . S
C318 C317 1.328 . S
C319 O303 1.264 . S
C319 O304 1.243 . S
C320 C323 1.399 . S
C320 C324 1.383 . S
C320 C327 1.496 . S
C321 C322 1.399 . S
C321 C324 1.389 . S
C322 C321 1.399 . S
C322 C325 1.380 . S
C322 H332 0.929 . S
C323 C320 1.399 . S
C323 C325 1.392 . S
C323 H333 0.929 . S
C324 C320 1.383 . S
C324 C321 1.389 . S
C324 H334 0.931 . S
C325 C322 1.380 . S
C325 C323 1.392 . S
C325 H335 0.929 . S
C326 O306 1.266 . S
C326 O307 1.248 . S
C327 Tb263 2.802 . S
C327 O302 1.264 . S
C327 O305 1.256 . S
C327 C320 1.496 . S
H328 C311 0.929 . S
H329 C312 0.929 . S
H330 C313 0.929 . S
H331 C314 0.931 . S
H332 C322 0.929 . S
H333 C323 0.929 . S
H334 C324 0.931 . S
H335 C325 0.929 . S
Tb336 N365 2.617 . S
Tb336 N371 2.572 . S
Tb336 O380 2.465 . S
Tb336 O381 2.387 . S
Tb336 O383 2.428 . S
Tb336 O384 2.308 . S
Tb336 O388 2.349 . S
Tb336 O391 2.393 . S
Tb336 C400 2.802 . S
C337 N338 1.379 . S
C337 C340 1.416 . S
C337 C344 1.424 . S
N338 C337 1.379 . S
N338 C341 1.334 . S
N338 Tb347 2.617 . S
C339 C341 1.390 . S
C339 C342 1.339 . S
C339 H359 0.930 1_554 S
C340 C337 1.416 . S
C340 C342 1.416 . S
C340 C346 1.448 . S
C341 N338 1.334 . S
C341 C339 1.390 . S
C341 H352 0.930 . S
C342 C339 1.339 . S
C342 C340 1.416 . S
C342 H363 0.930 . S
C343 C344 1.413 . S
C343 C345 1.410 1_565 S
C343 C349 1.416 . S
C344 C337 1.424 . S
C344 C343 1.413 . S
C344 N348 1.361 . S
C345 C343 1.410 1_545 S
C345 C346 1.323 1_545 S
C345 H360 0.952 . S
C346 C340 1.448 . S
C346 C345 1.323 1_565 S
C346 H361 0.930 1_565 S
Tb347 N338 2.617 . S
Tb347 N348 2.572 . S
Tb347 O382 2.349 . S
Tb347 O385 2.393 . S
Tb347 O386 2.465 . S
Tb347 O387 2.387 . S
Tb347 O389 2.428 . S
Tb347 O390 2.308 . S
Tb347 C411 2.802 . S
N348 C344 1.361 . S
N348 Tb347 2.572 . S
N348 C350 1.340 . S
C349 C343 1.416 . S
C349 C351 1.332 . S
C349 H357 0.931 1_565 S
C350 N348 1.340 . S
C350 C351 1.407 . S
C350 H356 0.930 . S
C351 C349 1.332 . S
C351 C350 1.407 . S
C351 H353 0.929 . S
H352 C341 0.930 . S
H353 C351 0.929 . S
H354 C369 0.930 . S
H355 C376 0.929 . S
H356 C350 0.930 . S
H357 C349 0.931 1_545 S
H358 C372 0.930 . S
H359 C339 0.930 1_556 S
H360 C345 0.952 . S
H361 C346 0.930 1_545 S
H362 C367 0.930 . S
H363 C342 0.930 . S
H364 C375 0.931 . S
N365 Tb336 2.617 . S
N365 C366 1.379 . S
N365 C369 1.334 . S
C366 N365 1.379 . S
C366 C368 1.416 . S
C366 C374 1.424 . S
C367 H362 0.930 . S
C367 C369 1.390 . S
C367 C370 1.339 . S
C368 C366 1.416 . S
C368 C370 1.416 . S
C368 C401 1.448 . S
C369 H354 0.930 . S
C369 N365 1.334 . S
C369 C367 1.390 . S
C370 C367 1.339 . S
C370 C368 1.416 . S
C370 H377 0.930 . S
N371 Tb336 2.572 . S
N371 C372 1.340 . S
N371 C374 1.361 . S
C372 H358 0.930 . S
C372 N371 1.340 . S
C372 C376 1.407 1_455 S
C373 C374 1.413 1_655 S
C373 C375 1.416 . S
C373 C402 1.427 . S
C374 C366 1.424 . S
C374 N371 1.361 . S
C374 C373 1.413 1_455 S
C375 H364 0.931 . S
C375 C373 1.416 . S
C375 C376 1.332 . S
C376 H355 0.929 . S
C376 C372 1.407 1_655 S
C376 C375 1.332 . S
H377 C370 0.930 . S
H378 C401 0.930 1_655 S
H379 C402 0.929 . S
O380 Tb336 2.465 . S
O380 C400 1.264 . S
O381 Tb336 2.387 . S
O381 C392 1.264 . S
O382 Tb347 2.349 . S
O382 C392 1.243 . S
O383 Tb336 2.428 . S
O383 C400 1.256 . S
O384 Tb336 2.308 . S
O384 C399 1.266 . S
O385 Tb347 2.393 . S
O385 C399 1.248 . S
O386 Tb347 2.465 . S
O386 C411 1.264 . S
O387 Tb347 2.387 . S
O387 C403 1.264 . S
O388 Tb336 2.349 . S
O388 C403 1.243 . S
O389 Tb347 2.428 . S
O389 C411 1.256 . S
O390 Tb347 2.308 . S
O390 C410 1.266 . S
O391 Tb336 2.393 . S
O391 C410 1.248 . S
C392 O381 1.264 . S
C392 O382 1.243 . S
C393 C396 1.399 . S
C393 C398 1.383 . S
C393 C400 1.496 1_655 S
C394 C395 1.399 . S
C394 C398 1.389 . S
C395 C394 1.399 . S
C395 C397 1.380 . S
C395 H412 0.929 . S
C396 C393 1.399 . S
C396 C397 1.392 . S
C396 H413 0.929 . S
C397 C395 1.380 . S
C397 C396 1.392 . S
C397 H414 0.929 . S
C398 C393 1.383 . S
C398 C394 1.389 . S
C398 H415 0.931 . S
C399 O384 1.266 . S
C399 O385 1.248 . S
C400 Tb336 2.802 . S
C400 O380 1.264 . S
C400 O383 1.256 . S
C400 C393 1.496 1_455 S
C401 C368 1.448 . S
C401 H378 0.930 1_455 S
C401 C402 1.328 1_455 S
C402 C373 1.427 . S
C402 H379 0.929 . S
C402 C401 1.328 1_655 S
C403 O387 1.264 . S
C403 O388 1.243 . S
C404 C407 1.399 . S
C404 C408 1.383 . S
C404 C411 1.496 . S
C405 C406 1.399 . S
C405 C408 1.389 . S
C406 C405 1.399 . S
C406 C409 1.380 . S
C406 H416 0.929 . S
C407 C404 1.399 . S
C407 C409 1.392 . S
C407 H417 0.929 . S
C408 C404 1.383 . S
C408 C405 1.389 . S
C408 H418 0.931 . S
C409 C406 1.380 . S
C409 C407 1.392 . S
C409 H419 0.929 . S
C410 O390 1.266 . S
C410 O391 1.248 . S
C411 Tb347 2.802 . S
C411 O386 1.264 . S
C411 O389 1.256 . S
C411 C404 1.496 . S
H412 C395 0.929 . S
H413 C396 0.929 . S
H414 C397 0.929 . S
H415 C398 0.931 . S
H416 C406 0.929 . S
H417 C407 0.929 . S
H418 C408 0.931 . S
H419 C409 0.929 . S
Tb420 N449 2.617 . S
Tb420 N455 2.572 . S
Tb420 O464 2.465 . S
Tb420 O465 2.387 . S
Tb420 O467 2.428 . S
Tb420 O468 2.308 . S
Tb420 O472 2.349 . S
Tb420 O475 2.393 . S
Tb420 C484 2.802 . S
C421 N422 1.379 . S
C421 C424 1.416 . S
C421 C428 1.424 . S
N422 C421 1.379 . S
N422 C425 1.334 . S
N422 Tb431 2.617 . S
C423 C425 1.390 . S
C423 C426 1.339 . S
C423 H443 0.930 . S
C424 C421 1.416 . S
C424 C426 1.416 . S
C424 C430 1.448 . S
C425 N422 1.334 . S
C425 C423 1.390 . S
C425 H436 0.930 . S
C426 C423 1.339 . S
C426 C424 1.416 . S
C426 H447 0.930 . S
C427 C428 1.413 . S
C427 C429 1.427 . S
C427 C433 1.416 . S
C428 C421 1.424 . S
C428 C427 1.413 . S
C428 N432 1.361 . S
C429 C427 1.427 . S
C429 C430 1.328 . S
C429 H444 0.929 . S
C430 C424 1.448 . S
C430 C429 1.328 . S
C430 H445 0.930 . S
Tb431 N422 2.617 . S
Tb431 N432 2.572 . S
Tb431 O466 2.349 . S
Tb431 O469 2.393 . S
Tb431 O470 2.465 . S
Tb431 O471 2.387 . S
Tb431 O473 2.428 . S
Tb431 O474 2.308 . S
Tb431 C495 2.802 . S
N432 C428 1.361 . S
N432 Tb431 2.572 . S
N432 C434 1.340 . S
C433 C427 1.416 . S
C433 C435 1.332 . S
C433 H441 0.931 . S
C434 N432 1.340 . S
C434 C435 1.407 . S
C434 H440 0.930 . S
C435 C433 1.332 . S
C435 C434 1.407 . S
C435 H437 0.929 . S
H436 C425 0.930 . S
H437 C435 0.929 . S
H438 C453 0.930 . S
H439 C460 0.929 . S
H440 C434 0.930 . S
H441 C433 0.931 . S
H442 C456 0.930 . S
H443 C423 0.930 . S
H444 C429 0.929 . S
H445 C430 0.930 . S
H446 C451 0.930 . S
H447 C426 0.930 . S
H448 C459 0.931 . S
N449 Tb420 2.617 . S
N449 C450 1.379 . S
N449 C453 1.334 . S
C450 N449 1.379 . S
C450 C452 1.416 . S
C450 C458 1.424 . S
C451 H446 0.930 . S
C451 C453 1.390 . S
C451 C454 1.339 . S
C452 C450 1.416 . S
C452 C454 1.416 . S
C452 C485 1.448 . S
C453 H438 0.930 . S
C453 N449 1.334 . S
C453 C451 1.390 . S
C454 C451 1.339 . S
C454 C452 1.416 . S
C454 H461 0.930 . S
N455 Tb420 2.572 . S
N455 C456 1.340 . S
N455 C458 1.361 . S
C456 H442 0.930 . S
C456 N455 1.340 . S
C456 C460 1.407 1_545 S
C457 C458 1.415 1_565 S
C457 C459 1.416 . S
C457 C486 1.426 . S
C458 C450 1.424 . S
C458 N455 1.361 . S
C458 C457 1.415 1_545 S
C459 H448 0.931 . S
C459 C457 1.416 . S
C459 C460 1.332 . S
C460 H439 0.929 . S
C460 C456 1.407 1_565 S
C460 C459 1.332 . S
H461 C454 0.930 . S
H462 C485 0.930 1_565 S
H463 C486 0.929 . S
O464 Tb420 2.465 . S
O464 C484 1.264 . S
O465 Tb420 2.387 . S
O465 C476 1.264 . S
O466 Tb431 2.349 . S
O466 C476 1.243 . S
O467 Tb420 2.428 . S
O467 C484 1.256 . S
O468 Tb420 2.308 . S
O468 C483 1.266 . S
O469 Tb431 2.393 . S
O469 C483 1.248 . S
O470 Tb431 2.465 . S
O470 C495 1.264 . S
O471 Tb431 2.387 . S
O471 C487 1.264 . S
O472 Tb420 2.349 . S
O472 C487 1.243 . S
O473 Tb431 2.428 . S
O473 C495 1.256 . S
O474 Tb431 2.308 . S
O474 C494 1.266 . S
O475 Tb420 2.393 . S
O475 C494 1.248 . S
C476 O465 1.264 . S
C476 O466 1.243 . S
C477 C480 1.399 . S
C477 C482 1.383 . S
C477 C484 1.496 1_565 S
C478 C479 1.399 . S
C478 C482 1.389 . S
C479 C478 1.399 . S
C479 C481 1.380 . S
C479 H496 0.929 . S
C480 C477 1.399 . S
C480 C481 1.392 . S
C480 H497 0.929 . S
C481 C479 1.380 . S
C481 C480 1.392 . S
C481 H498 0.929 . S
C482 C477 1.383 . S
C482 C478 1.389 . S
C482 H499 0.931 . S
C483 O468 1.266 . S
C483 O469 1.248 . S
C484 Tb420 2.802 . S
C484 O464 1.264 . S
C484 O467 1.256 . S
C484 C477 1.496 1_545 S
C485 C452 1.448 . S
C485 H462 0.930 1_545 S
C485 C486 1.328 1_545 S
C486 C457 1.426 . S
C486 H463 0.929 . S
C486 C485 1.328 1_565 S
C487 O471 1.264 . S
C487 O472 1.243 . S
C488 C491 1.399 . S
C488 C492 1.383 . S
C488 C495 1.496 . S
C489 C490 1.399 . S
C489 C492 1.389 . S
C490 C489 1.399 . S
C490 C493 1.380 . S
C490 H500 0.929 . S
C491 C488 1.399 . S
C491 C493 1.392 . S
C491 H501 0.929 . S
C492 C488 1.383 . S
C492 C489 1.389 . S
C492 H502 0.931 . S
C493 C490 1.380 . S
C493 C491 1.392 . S
C493 H503 0.929 . S
C494 O474 1.266 . S
C494 O475 1.248 . S
C495 Tb431 2.802 . S
C495 O470 1.264 . S
C495 O473 1.256 . S
C495 C488 1.496 . S
H496 C479 0.929 . S
H497 C480 0.929 . S
H498 C481 0.929 . S
H499 C482 0.931 . S
H500 C490 0.929 . S
H501 C491 0.929 . S
H502 C492 0.931 . S
H503 C493 0.929 . S
Tb504 N533 2.617 . S
Tb504 N539 2.572 . S
Tb504 O548 2.465 . S
Tb504 O549 2.387 . S
Tb504 O551 2.428 . S
Tb504 O552 2.308 . S
Tb504 O556 2.349 . S
Tb504 O559 2.393 . S
Tb504 C568 2.802 . S
C505 N506 1.379 . S
C505 C508 1.416 . S
C505 C512 1.424 . S
N506 C505 1.379 . S
N506 C509 1.334 . S
N506 Tb515 2.617 . S
C507 C509 1.390 . S
C507 C510 1.339 . S
C507 H527 0.930 . S
C508 C505 1.416 . S
C508 C510 1.416 . S
C508 C514 1.448 . S
C509 N506 1.334 . S
C509 C507 1.390 . S
C509 H520 0.930 . S
C510 C507 1.339 . S
C510 C508 1.416 . S
C510 H531 0.930 . S
C511 C512 1.413 . S
C511 C513 1.411 1_565 S
C511 C517 1.416 . S
C512 C505 1.424 . S
C512 C511 1.413 . S
C512 N516 1.361 . S
C513 C511 1.411 1_545 S
C513 C514 1.317 1_545 S
C513 H528 0.956 . S
C514 C508 1.448 . S
C514 C513 1.317 1_565 S
C514 H529 0.930 1_565 S
Tb515 N506 2.617 . S
Tb515 N516 2.572 . S
Tb515 O550 2.349 . S
Tb515 O553 2.393 . S
Tb515 O554 2.465 . S
Tb515 O555 2.387 . S
Tb515 O557 2.428 . S
Tb515 O558 2.308 . S
Tb515 C579 2.802 . S
N516 C512 1.361 . S
N516 Tb515 2.572 . S
N516 C518 1.340 . S
C517 C511 1.416 . S
C517 C519 1.332 . S
C517 H525 0.931 1_565 S
C518 N516 1.340 . S
C518 C519 1.407 . S
C518 H524 0.930 . S
C519 C517 1.332 . S
C519 C518 1.407 . S
C519 H521 0.929 . S
H520 C509 0.930 . S
H521 C519 0.929 . S
H522 C537 0.930 . S
H523 C544 0.929 . S
H524 C518 0.930 . S
H525 C517 0.931 1_545 S
H526 C540 0.930 . S
H527 C507 0.930 . S
H528 C513 0.956 . S
H529 C514 0.930 1_545 S
H530 C535 0.930 . S
H531 C510 0.930 . S
H532 C543 0.931 . S
N533 Tb504 2.617 . S
N533 C534 1.379 . S
N533 C537 1.334 . S
C534 N533 1.379 . S
C534 C536 1.416 . S
C534 C542 1.424 . S
C535 H530 0.930 . S
C535 C537 1.390 . S
C535 C538 1.339 . S
C536 C534 1.416 . S
C536 C538 1.416 . S
C536 C569 1.448 . S
C537 H522 0.930 . S
C537 N533 1.334 . S
C537 C535 1.390 . S
C538 C535 1.339 . S
C538 C536 1.416 . S
C538 H545 0.930 . S
N539 Tb504 2.572 . S
N539 C540 1.340 . S
N539 C542 1.361 . S
C540 H526 0.930 . S
C540 N539 1.340 . S
C540 C544 1.407 . S
C541 C542 1.413 . S
C541 C543 1.416 . S
C541 C570 1.427 . S
C542 C534 1.424 . S
C542 N539 1.361 . S
C542 C541 1.413 . S
C543 H532 0.931 . S
C543 C541 1.416 . S
C543 C544 1.332 . S
C544 H523 0.929 . S
C544 C540 1.407 . S
C544 C543 1.332 . S
H545 C538 0.930 . S
H546 C569 0.930 . S
H547 C570 0.929 . S
O548 Tb504 2.465 . S
O548 C568 1.264 . S
O549 Tb504 2.387 . S
O549 C560 1.264 . S
O550 Tb515 2.349 . S
O550 C560 1.243 . S
O551 Tb504 2.428 . S
O551 C568 1.256 . S
O552 Tb504 2.308 . S
O552 C567 1.266 . S
O553 Tb515 2.393 . S
O553 C567 1.248 . S
O554 Tb515 2.465 . S
O554 C579 1.264 . S
O555 Tb515 2.387 . S
O555 C571 1.264 . S
O556 Tb504 2.349 . S
O556 C571 1.243 . S
O557 Tb515 2.428 . S
O557 C579 1.256 . S
O558 Tb515 2.308 . S
O558 C578 1.266 . S
O559 Tb504 2.393 . S
O559 C578 1.248 . S
C560 O549 1.264 . S
C560 O550 1.243 . S
C561 C564 1.399 . S
C561 C566 1.383 . S
C561 C568 1.496 . S
C562 C563 1.399 . S
C562 C566 1.389 . S
C563 C562 1.399 . S
C563 C565 1.380 . S
C563 H580 0.929 . S
C564 C561 1.399 . S
C564 C565 1.392 . S
C564 H581 0.929 . S
C565 C563 1.380 . S
C565 C564 1.392 . S
C565 H582 0.929 . S
C566 C561 1.383 . S
C566 C562 1.389 . S
C566 H583 0.931 . S
C567 O552 1.266 . S
C567 O553 1.248 . S
C568 Tb504 2.802 . S
C568 O548 1.264 . S
C568 O551 1.256 . S
C568 C561 1.496 . S
C569 C536 1.448 . S
C569 H546 0.930 . S
C569 C570 1.328 . S
C570 C541 1.427 . S
C570 H547 0.929 . S
C570 C569 1.328 . S
C571 O555 1.264 . S
C571 O556 1.243 . S
C572 C575 1.399 . S
C572 C576 1.383 . S
C572 C579 1.496 . S
C573 C574 1.399 . S
C573 C576 1.389 . S
C574 C573 1.399 . S
C574 C577 1.380 . S
C574 H584 0.929 . S
C575 C572 1.399 . S
C575 C577 1.392 . S
C575 H585 0.929 . S
C576 C572 1.383 . S
C576 C573 1.389 . S
C576 H586 0.931 . S
C577 C574 1.380 . S
C577 C575 1.392 . S
C577 H587 0.929 . S
C578 O558 1.266 . S
C578 O559 1.248 . S
C579 Tb515 2.802 . S
C579 O554 1.264 . S
C579 O557 1.256 . S
C579 C572 1.496 . S
H580 C563 0.929 . S
H581 C564 0.929 . S
H582 C565 0.929 . S
H583 C566 0.931 . S
H584 C574 0.929 . S
H585 C575 0.929 . S
H586 C576 0.931 . S
H587 C577 0.929 . S
Tb588 N617 2.617 . S
Tb588 N623 2.572 . S
Tb588 O632 2.465 . S
Tb588 O633 2.387 . S
Tb588 O635 2.428 . S
Tb588 O636 2.308 . S
Tb588 O640 2.349 . S
Tb588 O643 2.393 . S
Tb588 C652 2.802 . S
C589 N590 1.379 . S
C589 C592 1.416 . S
C589 C596 1.424 . S
N590 C589 1.379 . S
N590 C593 1.334 . S
N590 Tb599 2.617 . S
C591 C593 1.390 . S
C591 C594 1.339 . S
C591 H611 0.930 1_556 S
C592 C589 1.416 . S
C592 C594 1.416 . S
C592 C598 1.448 . S
C593 N590 1.334 . S
C593 C591 1.390 . S
C593 H604 0.930 . S
C594 C591 1.339 . S
C594 C592 1.416 . S
C594 H615 0.930 . S
C595 C596 1.413 . S
C595 C597 1.427 . S
C595 C601 1.416 . S
C596 C589 1.424 . S
C596 C595 1.413 . S
C596 N600 1.361 . S
C597 C595 1.427 . S
C597 C598 1.328 . S
C597 H612 0.929 . S
C598 C592 1.448 . S
C598 C597 1.328 . S
C598 H613 0.930 . S
Tb599 N590 2.617 . S
Tb599 N600 2.572 . S
Tb599 O634 2.349 . S
Tb599 O637 2.393 . S
Tb599 O638 2.465 . S
Tb599 O639 2.387 . S
Tb599 O641 2.428 . S
Tb599 O642 2.308 . S
Tb599 C663 2.802 . S
N600 C596 1.361 . S
N600 Tb599 2.572 . S
N600 C602 1.340 . S
C601 C595 1.416 . S
C601 C603 1.332 . S
C601 H609 0.931 . S
C602 N600 1.340 . S
C602 C603 1.407 . S
C602 H608 0.930 . S
C603 C601 1.332 . S
C603 C602 1.407 . S
C603 H605 0.929 . S
H604 C593 0.930 . S
H605 C603 0.929 . S
H606 C621 0.930 . S
H607 C628 0.929 . S
H608 C602 0.930 . S
H609 C601 0.931 . S
H610 C624 0.930 . S
H611 C591 0.930 1_554 S
H612 C597 0.929 . S
H613 C598 0.930 . S
H614 C619 0.930 . S
H615 C594 0.930 . S
H616 C627 0.931 . S
N617 Tb588 2.617 . S
N617 C618 1.379 . S
N617 C621 1.334 . S
C618 N617 1.379 . S
C618 C620 1.416 . S
C618 C626 1.424 . S
C619 H614 0.930 . S
C619 C621 1.390 . S
C619 C622 1.339 . S
C620 C618 1.416 . S
C620 C622 1.416 . S
C620 C653 1.448 . S
C621 H606 0.930 . S
C621 N617 1.334 . S
C621 C619 1.390 . S
C622 C619 1.339 . S
C622 C620 1.416 . S
C622 H629 0.930 . S
N623 Tb588 2.572 . S
N623 C624 1.340 . S
N623 C626 1.361 . S
C624 H610 0.930 . S
C624 N623 1.340 . S
C624 C628 1.407 1_655 S
C625 C626 1.415 1_455 S
C625 C627 1.416 . S
C625 C654 1.426 . S
C626 C618 1.424 . S
C626 N623 1.361 . S
C626 C625 1.415 1_655 S
C627 H616 0.931 . S
C627 C625 1.416 . S
C627 C628 1.332 . S
C628 H607 0.929 . S
C628 C624 1.407 1_455 S
C628 C627 1.332 . S
H629 C622 0.930 . S
H630 C653 0.930 1_455 S
H631 C654 0.929 . S
O632 Tb588 2.465 . S
O632 C652 1.264 . S
O633 Tb588 2.387 . S
O633 C644 1.264 . S
O634 Tb599 2.349 . S
O634 C644 1.243 . S
O635 Tb588 2.428 . S
O635 C652 1.256 . S
O636 Tb588 2.308 . S
O636 C651 1.266 . S
O637 Tb599 2.393 . S
O637 C651 1.248 . S
O638 Tb599 2.465 . S
O638 C663 1.264 . S
O639 Tb599 2.387 . S
O639 C655 1.264 . S
O640 Tb588 2.349 . S
O640 C655 1.243 . S
O641 Tb599 2.428 . S
O641 C663 1.256 . S
O642 Tb599 2.308 . S
O642 C662 1.266 . S
O643 Tb588 2.393 . S
O643 C662 1.248 . S
C644 O633 1.264 . S
C644 O634 1.243 . S
C645 C648 1.399 . S
C645 C650 1.383 . S
C645 C652 1.496 1_455 S
C646 C647 1.399 . S
C646 C650 1.389 . S
C647 C646 1.399 . S
C647 C649 1.380 . S
C647 H664 0.929 . S
C648 C645 1.399 . S
C648 C649 1.392 . S
C648 H665 0.929 . S
C649 C647 1.380 . S
C649 C648 1.392 . S
C649 H666 0.929 . S
C650 C645 1.383 . S
C650 C646 1.389 . S
C650 H667 0.931 . S
C651 O636 1.266 . S
C651 O637 1.248 . S
C652 Tb588 2.802 . S
C652 O632 1.264 . S
C652 O635 1.256 . S
C652 C645 1.496 1_655 S
C653 C620 1.448 . S
C653 H630 0.930 1_655 S
C653 C654 1.328 1_655 S
C654 C625 1.426 . S
C654 H631 0.929 . S
C654 C653 1.328 1_455 S
C655 O639 1.264 . S
C655 O640 1.243 . S
C656 C659 1.399 . S
C656 C660 1.383 . S
C656 C663 1.496 . S
C657 C658 1.399 . S
C657 C660 1.389 . S
C658 C657 1.399 . S
C658 C661 1.380 . S
C658 H668 0.929 . S
C659 C656 1.399 . S
C659 C661 1.392 . S
C659 H669 0.929 . S
C660 C656 1.383 . S
C660 C657 1.389 . S
C660 H670 0.931 . S
C661 C658 1.380 . S
C661 C659 1.392 . S
C661 H671 0.929 . S
C662 O642 1.266 . S
C662 O643 1.248 . S
C663 Tb599 2.802 . S
C663 O638 1.264 . S
C663 O641 1.256 . S
C663 C656 1.496 . S
H664 C647 0.929 . S
H665 C648 0.929 . S
H666 C649 0.929 . S
H667 C650 0.931 . S
H668 C658 0.929 . S
H669 C659 0.929 . S
H670 C660 0.931 . S
H671 C661 0.929 . S
Tb672 N701 2.617 . S
Tb672 N707 2.572 . S
Tb672 O716 2.465 . S
Tb672 O717 2.387 . S
Tb672 O719 2.428 . S
Tb672 O720 2.308 . S
Tb672 O724 2.349 . S
Tb672 O727 2.393 . S
Tb672 C736 2.802 . S
C673 N674 1.379 . S
C673 C676 1.416 . S
C673 C680 1.424 . S
N674 C673 1.379 . S
N674 C677 1.334 . S
N674 Tb683 2.617 . S
C675 C677 1.390 . S
C675 C678 1.339 . S
C675 H695 0.930 . S
C676 C673 1.416 . S
C676 C678 1.416 . S
C676 C682 1.448 . S
C677 N674 1.334 . S
C677 C675 1.390 . S
C677 H688 0.930 . S
C678 C675 1.339 . S
C678 C676 1.416 . S
C678 H699 0.930 . S
C679 C680 1.413 . S
C679 C681 1.410 1_455 S
C679 C685 1.416 . S
C680 C673 1.424 . S
C680 C679 1.413 . S
C680 N684 1.361 . S
C681 C679 1.410 1_655 S
C681 C682 1.323 1_655 S
C681 H696 0.952 . S
C682 C676 1.448 . S
C682 C681 1.323 1_455 S
C682 H697 0.930 1_455 S
Tb683 N674 2.617 . S
Tb683 N684 2.572 . S
Tb683 O718 2.349 . S
Tb683 O721 2.393 . S
Tb683 O722 2.465 . S
Tb683 O723 2.387 . S
Tb683 O725 2.428 . S
Tb683 O726 2.308 . S
Tb683 C747 2.802 . S
N684 C680 1.361 . S
N684 Tb683 2.572 . S
N684 C686 1.340 . S
C685 C679 1.416 . S
C685 C687 1.332 . S
C685 H693 0.931 1_455 S
C686 N684 1.340 . S
C686 C687 1.407 . S
C686 H692 0.930 . S
C687 C685 1.332 . S
C687 C686 1.407 . S
C687 H689 0.929 . S
H688 C677 0.930 . S
H689 C687 0.929 . S
H690 C705 0.930 . S
H691 C712 0.929 . S
H692 C686 0.930 . S
H693 C685 0.931 1_655 S
H694 C708 0.930 . S
H695 C675 0.930 . S
H696 C681 0.952 . S
H697 C682 0.930 1_655 S
H698 C703 0.930 . S
H699 C678 0.930 . S
H700 C711 0.931 . S
N701 Tb672 2.617 . S
N701 C702 1.379 . S
N701 C705 1.334 . S
C702 N701 1.379 . S
C702 C704 1.416 . S
C702 C710 1.424 . S
C703 H698 0.930 . S
C703 C705 1.390 . S
C703 C706 1.339 . S
C704 C702 1.416 . S
C704 C706 1.416 . S
C704 C737 1.448 . S
C705 H690 0.930 . S
C705 N701 1.334 . S
C705 C703 1.390 . S
C706 C703 1.339 . S
C706 C704 1.416 . S
C706 H713 0.930 . S
N707 Tb672 2.572 . S
N707 C708 1.340 . S
N707 C710 1.361 . S
C708 H694 0.930 . S
C708 N707 1.340 . S
C708 C712 1.407 1_565 S
C709 C710 1.413 1_545 S
C709 C711 1.416 . S
C709 C738 1.427 . S
C710 C702 1.424 . S
C710 N707 1.361 . S
C710 C709 1.413 1_565 S
C711 H700 0.931 . S
C711 C709 1.416 . S
C711 C712 1.332 . S
C712 H691 0.929 . S
C712 C708 1.407 1_545 S
C712 C711 1.332 . S
H713 C706 0.930 . S
H714 C737 0.930 1_545 S
H715 C738 0.929 . S
O716 Tb672 2.465 . S
O716 C736 1.264 . S
O717 Tb672 2.387 . S
O717 C728 1.264 . S
O718 Tb683 2.349 . S
O718 C728 1.243 . S
O719 Tb672 2.428 . S
O719 C736 1.256 . S
O720 Tb672 2.308 . S
O720 C735 1.266 . S
O721 Tb683 2.393 . S
O721 C735 1.248 . S
O722 Tb683 2.465 . S
O722 C747 1.264 . S
O723 Tb683 2.387 . S
O723 C739 1.264 . S
O724 Tb672 2.349 . S
O724 C739 1.243 . S
O725 Tb683 2.428 . S
O725 C747 1.256 . S
O726 Tb683 2.308 . S
O726 C746 1.266 . S
O727 Tb672 2.393 . S
O727 C746 1.248 . S
C728 O717 1.264 . S
C728 O718 1.243 . S
C729 C732 1.399 . S
C729 C734 1.383 . S
C729 C736 1.496 1_545 S
C730 C731 1.399 . S
C730 C734 1.389 . S
C731 C730 1.399 . S
C731 C733 1.380 . S
C731 H748 0.929 . S
C732 C729 1.399 . S
C732 C733 1.392 . S
C732 H749 0.929 . S
C733 C731 1.380 . S
C733 C732 1.392 . S
C733 H750 0.929 . S
C734 C729 1.383 . S
C734 C730 1.389 . S
C734 H751 0.931 . S
C735 O720 1.266 . S
C735 O721 1.248 . S
C736 Tb672 2.802 . S
C736 O716 1.264 . S
C736 O719 1.256 . S
C736 C729 1.496 1_565 S
C737 C704 1.448 . S
C737 H714 0.930 1_565 S
C737 C738 1.328 1_565 S
C738 C709 1.427 . S
C738 H715 0.929 . S
C738 C737 1.328 1_545 S
C739 O723 1.264 . S
C739 O724 1.243 . S
C740 C743 1.399 . S
C740 C744 1.383 . S
C740 C747 1.496 . S
C741 C742 1.399 . S
C741 C744 1.389 . S
C742 C741 1.399 . S
C742 C745 1.380 . S
C742 H752 0.929 . S
C743 C740 1.399 . S
C743 C745 1.392 . S
C743 H753 0.929 . S
C744 C740 1.383 . S
C744 C741 1.389 . S
C744 H754 0.931 . S
C745 C742 1.380 . S
C745 C743 1.392 . S
C745 H755 0.929 . S
C746 O726 1.266 . S
C746 O727 1.248 . S
C747 Tb683 2.802 . S
C747 O722 1.264 . S
C747 O725 1.256 . S
C747 C740 1.496 . S
H748 C731 0.929 . S
H749 C732 0.929 . S
H750 C733 0.929 . S
H751 C734 0.931 . S
H752 C742 0.929 . S
H753 C743 0.929 . S
H754 C744 0.931 . S
H755 C745 0.929 . S
Tb756 N785 2.617 . S
Tb756 N791 2.572 . S
Tb756 O800 2.465 . S
Tb756 O801 2.387 . S
Tb756 O803 2.428 . S
Tb756 O804 2.308 . S
Tb756 O808 2.349 . S
Tb756 O811 2.393 . S
Tb756 C820 2.802 . S
C757 N758 1.379 . S
C757 C760 1.416 . S
C757 C764 1.424 . S
N758 C757 1.379 . S
N758 C761 1.334 . S
N758 Tb767 2.617 . S
C759 C761 1.390 . S
C759 C762 1.339 . S
C759 H779 0.930 1_556 S
C760 C757 1.416 . S
C760 C762 1.416 . S
C760 C766 1.448 . S
C761 N758 1.334 . S
C761 C759 1.390 . S
C761 H772 0.930 . S
C762 C759 1.339 . S
C762 C760 1.416 . S
C762 H783 0.930 . S
C763 C764 1.413 . S
C763 C765 1.411 1_545 S
C763 C769 1.416 . S
C764 C757 1.424 . S
C764 C763 1.413 . S
C764 N768 1.361 . S
C765 C763 1.411 1_565 S
C765 C766 1.317 1_565 S
C765 H780 0.956 . S
C766 C760 1.448 . S
C766 C765 1.317 1_545 S
C766 H781 0.930 1_545 S
Tb767 N758 2.617 . S
Tb767 N768 2.572 . S
Tb767 O802 2.349 . S
Tb767 O805 2.393 . S
Tb767 O806 2.465 . S
Tb767 O807 2.387 . S
Tb767 O809 2.428 . S
Tb767 O810 2.308 . S
Tb767 C831 2.802 . S
N768 C764 1.361 . S
N768 Tb767 2.572 . S
N768 C770 1.340 . S
C769 C763 1.416 . S
C769 C771 1.332 . S
C769 H777 0.931 1_545 S
C770 N768 1.340 . S
C770 C771 1.407 . S
C770 H776 0.930 . S
C771 C769 1.332 . S
C771 C770 1.407 . S
C771 H773 0.929 . S
H772 C761 0.930 . S
H773 C771 0.929 . S
H774 C789 0.930 . S
H775 C796 0.929 . S
H776 C770 0.930 . S
H777 C769 0.931 1_565 S
H778 C792 0.930 . S
H779 C759 0.930 1_554 S
H780 C765 0.956 . S
H781 C766 0.930 1_565 S
H782 C787 0.930 . S
H783 C762 0.930 . S
H784 C795 0.931 . S
N785 Tb756 2.617 . S
N785 C786 1.379 . S
N785 C789 1.334 . S
C786 N785 1.379 . S
C786 C788 1.416 . S
C786 C794 1.424 . S
C787 H782 0.930 . S
C787 C789 1.390 . S
C787 C790 1.339 . S
C788 C786 1.416 . S
C788 C790 1.416 . S
C788 C821 1.448 . S
C789 H774 0.930 . S
C789 N785 1.334 . S
C789 C787 1.390 . S
C790 C787 1.339 . S
C790 C788 1.416 . S
C790 H797 0.930 . S
N791 Tb756 2.572 . S
N791 C792 1.340 . S
N791 C794 1.361 . S
C792 H778 0.930 . S
C792 N791 1.340 . S
C792 C796 1.407 . S
C793 C794 1.413 . S
C793 C795 1.416 . S
C793 C822 1.427 . S
C794 C786 1.424 . S
C794 N791 1.361 . S
C794 C793 1.413 . S
C795 H784 0.931 . S
C795 C793 1.416 . S
C795 C796 1.332 . S
C796 H775 0.929 . S
C796 C792 1.407 . S
C796 C795 1.332 . S
H797 C790 0.930 . S
H798 C821 0.930 . S
H799 C822 0.929 . S
O800 Tb756 2.465 . S
O800 C820 1.264 . S
O801 Tb756 2.387 . S
O801 C812 1.264 . S
O802 Tb767 2.349 . S
O802 C812 1.243 . S
O803 Tb756 2.428 . S
O803 C820 1.256 . S
O804 Tb756 2.308 . S
O804 C819 1.266 . S
O805 Tb767 2.393 . S
O805 C819 1.248 . S
O806 Tb767 2.465 . S
O806 C831 1.264 . S
O807 Tb767 2.387 . S
O807 C823 1.264 . S
O808 Tb756 2.349 . S
O808 C823 1.243 . S
O809 Tb767 2.428 . S
O809 C831 1.256 . S
O810 Tb767 2.308 . S
O810 C830 1.266 . S
O811 Tb756 2.393 . S
O811 C830 1.248 . S
C812 O801 1.264 . S
C812 O802 1.243 . S
C813 C816 1.399 . S
C813 C818 1.383 . S
C813 C820 1.496 . S
C814 C815 1.399 . S
C814 C818 1.389 . S
C815 C814 1.399 . S
C815 C817 1.380 . S
C815 H832 0.929 . S
C816 C813 1.399 . S
C816 C817 1.392 . S
C816 H833 0.929 . S
C817 C815 1.380 . S
C817 C816 1.392 . S
C817 H834 0.929 . S
C818 C813 1.383 . S
C818 C814 1.389 . S
C818 H835 0.931 . S
C819 O804 1.266 . S
C819 O805 1.248 . S
C820 Tb756 2.802 . S
C820 O800 1.264 . S
C820 O803 1.256 . S
C820 C813 1.496 . S
C821 C788 1.448 . S
C821 H798 0.930 . S
C821 C822 1.328 . S
C822 C793 1.427 . S
C822 H799 0.929 . S
C822 C821 1.328 . S
C823 O807 1.264 . S
C823 O808 1.243 . S
C824 C827 1.399 . S
C824 C828 1.383 . S
C824 C831 1.496 . S
C825 C826 1.399 . S
C825 C828 1.389 . S
C826 C825 1.399 . S
C826 C829 1.380 . S
C826 H836 0.929 . S
C827 C824 1.399 . S
C827 C829 1.392 . S
C827 H837 0.929 . S
C828 C824 1.383 . S
C828 C825 1.389 . S
C828 H838 0.931 . S
C829 C826 1.380 . S
C829 C827 1.392 . S
C829 H839 0.929 . S
C830 O810 1.266 . S
C830 O811 1.248 . S
C831 Tb767 2.802 . S
C831 O806 1.264 . S
C831 O809 1.256 . S
C831 C824 1.496 . S
H832 C815 0.929 . S
H833 C816 0.929 . S
H834 C817 0.929 . S
H835 C818 0.931 . S
H836 C826 0.929 . S
H837 C827 0.929 . S
H838 C828 0.931 . S
H839 C829 0.929 . S
Tb840 N869 2.617 . S
Tb840 N875 2.572 . S
Tb840 O884 2.465 . S
Tb840 O885 2.387 . S
Tb840 O887 2.428 . S
Tb840 O888 2.308 . S
Tb840 O892 2.349 . S
Tb840 O895 2.393 . S
Tb840 C904 2.802 . S
C841 N842 1.379 . S
C841 C844 1.416 . S
C841 C848 1.424 . S
N842 C841 1.379 . S
N842 C845 1.334 . S
N842 Tb851 2.617 . S
C843 C845 1.390 . S
C843 C846 1.339 . S
C843 H863 0.930 . S
C844 C841 1.416 . S
C844 C846 1.416 . S
C844 C850 1.448 . S
C845 N842 1.334 . S
C845 C843 1.390 . S
C845 H856 0.930 . S
C846 C843 1.339 . S
C846 C844 1.416 . S
C846 H867 0.930 . S
C847 C848 1.413 . S
C847 C849 1.427 . S
C847 C853 1.416 . S
C848 C841 1.424 . S
C848 C847 1.413 . S
C848 N852 1.361 . S
C849 C847 1.427 . S
C849 C850 1.328 . S
C849 H864 0.929 . S
C850 C844 1.448 . S
C850 C849 1.328 . S
C850 H865 0.930 . S
Tb851 N842 2.617 . S
Tb851 N852 2.572 . S
Tb851 O886 2.349 . S
Tb851 O889 2.393 . S
Tb851 O890 2.465 . S
Tb851 O891 2.387 . S
Tb851 O893 2.428 . S
Tb851 O894 2.308 . S
Tb851 C915 2.802 . S
N852 C848 1.361 . S
N852 Tb851 2.572 . S
N852 C854 1.340 . S
C853 C847 1.416 . S
C853 C855 1.332 . S
C853 H861 0.931 . S
C854 N852 1.340 . S
C854 C855 1.407 . S
C854 H860 0.930 . S
C855 C853 1.332 . S
C855 C854 1.407 . S
C855 H857 0.929 . S
H856 C845 0.930 . S
H857 C855 0.929 . S
H858 C873 0.930 . S
H859 C880 0.929 . S
H860 C854 0.930 . S
H861 C853 0.931 . S
H862 C876 0.930 . S
H863 C843 0.930 . S
H864 C849 0.929 . S
H865 C850 0.930 . S
H866 C871 0.930 . S
H867 C846 0.930 . S
H868 C879 0.931 . S
N869 Tb840 2.617 . S
N869 C870 1.379 . S
N869 C873 1.334 . S
C870 N869 1.379 . S
C870 C872 1.416 . S
C870 C878 1.424 . S
C871 H866 0.930 . S
C871 C873 1.390 . S
C871 C874 1.339 . S
C872 C870 1.416 . S
C872 C874 1.416 . S
C872 C905 1.448 . S
C873 H858 0.930 . S
C873 N869 1.334 . S
C873 C871 1.390 . S
C874 C871 1.339 . S
C874 C872 1.416 . S
C874 H881 0.930 . S
N875 Tb840 2.572 . S
N875 C876 1.340 . S
N875 C878 1.361 . S
C876 H862 0.930 . S
C876 N875 1.340 . S
C876 C880 1.407 1_455 S
C877 C878 1.415 1_655 S
C877 C879 1.416 . S
C877 C906 1.426 . S
C878 C870 1.424 . S
C878 N875 1.361 . S
C878 C877 1.415 1_455 S
C879 H868 0.931 . S
C879 C877 1.416 . S
C879 C880 1.332 . S
C880 H859 0.929 . S
C880 C876 1.407 1_655 S
C880 C879 1.332 . S
H881 C874 0.930 . S
H882 C905 0.930 1_655 S
H883 C906 0.929 . S
O884 Tb840 2.465 . S
O884 C904 1.264 . S
O885 Tb840 2.387 . S
O885 C896 1.264 . S
O886 Tb851 2.349 . S
O886 C896 1.243 . S
O887 Tb840 2.428 . S
O887 C904 1.256 . S
O888 Tb840 2.308 . S
O888 C903 1.266 . S
O889 Tb851 2.393 . S
O889 C903 1.248 . S
O890 Tb851 2.465 . S
O890 C915 1.264 . S
O891 Tb851 2.387 . S
O891 C907 1.264 . S
O892 Tb840 2.349 . S
O892 C907 1.243 . S
O893 Tb851 2.428 . S
O893 C915 1.256 . S
O894 Tb851 2.308 . S
O894 C914 1.266 . S
O895 Tb840 2.393 . S
O895 C914 1.248 . S
C896 O885 1.264 . S
C896 O886 1.243 . S
C897 C900 1.399 . S
C897 C902 1.383 . S
C897 C904 1.496 1_655 S
C898 C899 1.399 . S
C898 C902 1.389 . S
C899 C898 1.399 . S
C899 C901 1.380 . S
C899 H916 0.929 . S
C900 C897 1.399 . S
C900 C901 1.392 . S
C900 H917 0.929 . S
C901 C899 1.380 . S
C901 C900 1.392 . S
C901 H918 0.929 . S
C902 C897 1.383 . S
C902 C898 1.389 . S
C902 H919 0.931 . S
C903 O888 1.266 . S
C903 O889 1.248 . S
C904 Tb840 2.802 . S
C904 O884 1.264 . S
C904 O887 1.256 . S
C904 C897 1.496 1_455 S
C905 C872 1.448 . S
C905 H882 0.930 1_455 S
C905 C906 1.328 1_455 S
C906 C877 1.426 . S
C906 H883 0.929 . S
C906 C905 1.328 1_655 S
C907 O891 1.264 . S
C907 O892 1.243 . S
C908 C911 1.399 . S
C908 C912 1.383 . S
C908 C915 1.496 . S
C909 C910 1.399 . S
C909 C912 1.389 . S
C910 C909 1.399 . S
C910 C913 1.380 . S
C910 H920 0.929 . S
C911 C908 1.399 . S
C911 C913 1.392 . S
C911 H921 0.929 . S
C912 C908 1.383 . S
C912 C909 1.389 . S
C912 H922 0.931 . S
C913 C910 1.380 . S
C913 C911 1.392 . S
C913 H923 0.929 . S
C914 O894 1.266 . S
C914 O895 1.248 . S
C915 Tb851 2.802 . S
C915 O890 1.264 . S
C915 O893 1.256 . S
C915 C908 1.496 . S
H916 C899 0.929 . S
H917 C900 0.929 . S
H918 C901 0.929 . S
H919 C902 0.931 . S
H920 C910 0.929 . S
H921 C911 0.929 . S
H922 C912 0.931 . S
H923 C913 0.929 . S
Tb924 N953 2.617 . S
Tb924 N959 2.572 . S
Tb924 O968 2.465 . S
Tb924 O969 2.387 . S
Tb924 O971 2.428 . S
Tb924 O972 2.308 . S
Tb924 O976 2.349 . S
Tb924 O979 2.393 . S
Tb924 C988 2.802 . S
C925 N926 1.379 . S
C925 C928 1.416 . S
C925 C932 1.424 . S
N926 C925 1.379 . S
N926 C929 1.334 . S
N926 Tb935 2.617 . S
C927 C929 1.390 . S
C927 C930 1.339 . S
C927 H947 0.930 1_556 S
C928 C925 1.416 . S
C928 C930 1.416 . S
C928 C934 1.448 . S
C929 N926 1.334 . S
C929 C927 1.390 . S
C929 H940 0.930 . S
C930 C927 1.339 . S
C930 C928 1.416 . S
C930 H951 0.930 . S
C931 C932 1.413 . S
C931 C933 1.410 1_655 S
C931 C937 1.416 . S
C932 C925 1.424 . S
C932 C931 1.413 . S
C932 N936 1.361 . S
C933 C931 1.410 1_455 S
C933 C934 1.323 1_455 S
C933 H948 0.952 . S
C934 C928 1.448 . S
C934 C933 1.323 1_655 S
C934 H949 0.930 1_655 S
Tb935 N926 2.617 . S
Tb935 N936 2.572 . S
Tb935 O970 2.349 . S
Tb935 O973 2.393 . S
Tb935 O974 2.465 . S
Tb935 O975 2.387 . S
Tb935 O977 2.428 . S
Tb935 O978 2.308 . S
Tb935 C999 2.802 . S
N936 C932 1.361 . S
N936 Tb935 2.572 . S
N936 C938 1.340 . S
C937 C931 1.416 . S
C937 C939 1.332 . S
C937 H945 0.931 1_655 S
C938 N936 1.340 . S
C938 C939 1.407 . S
C938 H944 0.930 . S
C939 C937 1.332 . S
C939 C938 1.407 . S
C939 H941 0.929 . S
H940 C929 0.930 . S
H941 C939 0.929 . S
H942 C957 0.930 . S
H943 C964 0.929 . S
H944 C938 0.930 . S
H945 C937 0.931 1_455 S
H946 C960 0.930 . S
H947 C927 0.930 1_554 S
H948 C933 0.952 . S
H949 C934 0.930 1_455 S
H950 C955 0.930 . S
H951 C930 0.930 . S
H952 C963 0.931 . S
N953 Tb924 2.617 . S
N953 C954 1.379 . S
N953 C957 1.334 . S
C954 N953 1.379 . S
C954 C956 1.416 . S
C954 C962 1.424 . S
C955 H950 0.930 . S
C955 C957 1.390 . S
C955 C958 1.339 . S
C956 C954 1.416 . S
C956 C958 1.416 . S
C956 C989 1.448 . S
C957 H942 0.930 . S
C957 N953 1.334 . S
C957 C955 1.390 . S
C958 C955 1.339 . S
C958 C956 1.416 . S
C958 H965 0.930 . S
N959 Tb924 2.572 . S
N959 C960 1.340 . S
N959 C962 1.361 . S
C960 H946 0.930 . S
C960 N959 1.340 . S
C960 C964 1.407 1_545 S
C961 C962 1.413 1_565 S
C961 C963 1.416 . S
C961 C990 1.427 . S
C962 C954 1.424 . S
C962 N959 1.361 . S
C962 C961 1.413 1_545 S
C963 H952 0.931 . S
C963 C961 1.416 . S
C963 C964 1.332 . S
C964 H943 0.929 . S
C964 C960 1.407 1_565 S
C964 C963 1.332 . S
H965 C958 0.930 . S
H966 C989 0.930 1_565 S
H967 C990 0.929 . S
O968 Tb924 2.465 . S
O968 C988 1.264 . S
O969 Tb924 2.387 . S
O969 C980 1.264 . S
O970 Tb935 2.349 . S
O970 C980 1.243 . S
O971 Tb924 2.428 . S
O971 C988 1.256 . S
O972 Tb924 2.308 . S
O972 C987 1.266 . S
O973 Tb935 2.393 . S
O973 C987 1.248 . S
O974 Tb935 2.465 . S
O974 C999 1.264 . S
O975 Tb935 2.387 . S
O975 C991 1.264 . S
O976 Tb924 2.349 . S
O976 C991 1.243 . S
O977 Tb935 2.428 . S
O977 C999 1.256 . S
O978 Tb935 2.308 . S
O978 C998 1.266 . S
O979 Tb924 2.393 . S
O979 C998 1.248 . S
C980 O969 1.264 . S
C980 O970 1.243 . S
C981 C984 1.399 . S
C981 C986 1.383 . S
C981 C988 1.496 1_565 S
C982 C983 1.399 . S
C982 C986 1.389 . S
C983 C982 1.399 . S
C983 C985 1.380 . S
C983 H1000 0.929 . S
C984 C981 1.399 . S
C984 C985 1.392 . S
C984 H1001 0.929 . S
C985 C983 1.380 . S
C985 C984 1.392 . S
C985 H1002 0.929 . S
C986 C981 1.383 . S
C986 C982 1.389 . S
C986 H1003 0.931 . S
C987 O972 1.266 . S
C987 O973 1.248 . S
C988 Tb924 2.802 . S
C988 O968 1.264 . S
C988 O971 1.256 . S
C988 C981 1.496 1_545 S
C989 C956 1.448 . S
C989 H966 0.930 1_545 S
C989 C990 1.328 1_545 S
C990 C961 1.427 . S
C990 H967 0.929 . S
C990 C989 1.328 1_565 S
C991 O975 1.264 . S
C991 O976 1.243 . S
C992 C995 1.399 . S
C992 C996 1.383 . S
C992 C999 1.496 . S
C993 C994 1.399 . S
C993 C996 1.389 . S
C994 C993 1.399 . S
C994 C997 1.380 . S
C994 H1004 0.929 . S
C995 C992 1.399 . S
C995 C997 1.392 . S
C995 H1005 0.929 . S
C996 C992 1.383 . S
C996 C993 1.389 . S
C996 H1006 0.931 . S
C997 C994 1.380 . S
C997 C995 1.392 . S
C997 H1007 0.929 . S
C998 O978 1.266 . S
C998 O979 1.248 . S
C999 Tb935 2.802 . S
C999 O974 1.264 . S
C999 O977 1.256 . S
C999 C992 1.496 . S
H1000 C983 0.929 . S
H1001 C984 0.929 . S
H1002 C985 0.929 . S
H1003 C986 0.931 . S
H1004 C994 0.929 . S
H1005 C995 0.929 . S
H1006 C996 0.931 . S
H1007 C997 0.929 . S
H1008 C1014 0.930 . S
H1009 C1018 0.930 . S
H1010 C1023 0.929 . S
H1011 C1021 0.929 . S
H1012 C1016 0.929 . S
H1013 C1022 0.929 . S
C1014 H1008 0.930 . S
C1014 C1015 1.367 . S
C1014 C1022 1.378 . S
C1015 C1014 1.367 . S
C1015 C1023 1.433 . S
C1016 H1012 0.929 . S
C1016 C1018 1.378 . S
C1016 C1020 1.350 . S
C1017 C1020 1.463 1_565 S
C1017 C1022 1.350 . S
C1017 N1025 1.427 . S
C1018 H1009 0.930 . S
C1018 C1016 1.378 . S
C1018 C1019 1.367 . S
C1019 C1018 1.367 . S
C1019 C1021 1.433 . S
C1020 C1016 1.350 . S
C1020 C1017 1.463 1_545 S
C1020 N1024 1.427 . S
C1021 H1011 0.929 . S
C1021 C1019 1.433 . S
C1021 N1024 1.384 . S
C1022 H1013 0.929 . S
C1022 C1014 1.378 . S
C1022 C1017 1.350 . S
C1023 H1010 0.929 . S
C1023 C1015 1.433 . S
C1023 N1025 1.384 . S
N1024 C1020 1.427 . S
N1024 C1021 1.384 . S
N1025 C1017 1.427 . S
N1025 C1023 1.384 . S
H1026 C1032 0.930 . S
H1027 C1036 0.930 . S
H1028 C1041 0.929 . S
H1029 C1039 0.929 . S
H1030 C1034 0.929 . S
H1031 C1040 0.929 . S
C1032 H1026 0.930 . S
C1032 C1033 1.367 . S
C1032 C1040 1.378 . S
C1033 C1032 1.367 . S
C1033 C1041 1.433 . S
C1034 H1030 0.929 . S
C1034 C1036 1.378 . S
C1034 C1038 1.350 . S
C1035 C1038 1.463 . S
C1035 C1040 1.350 . S
C1035 N1043 1.427 . S
C1036 H1027 0.930 . S
C1036 C1034 1.378 . S
C1036 C1037 1.367 . S
C1037 C1036 1.367 . S
C1037 C1039 1.433 . S
C1038 C1034 1.350 . S
C1038 C1035 1.463 . S
C1038 N1042 1.427 . S
C1039 H1029 0.929 . S
C1039 C1037 1.433 . S
C1039 N1042 1.384 . S
C1040 H1031 0.929 . S
C1040 C1032 1.378 . S
C1040 C1035 1.350 . S
C1041 H1028 0.929 . S
C1041 C1033 1.433 . S
C1041 N1043 1.384 . S
N1042 C1038 1.427 . S
N1042 C1039 1.384 . S
N1043 C1035 1.427 . S
N1043 C1041 1.384 . S
H1044 C1050 0.930 . S
H1045 C1054 0.930 . S
H1046 C1059 0.929 . S
H1047 C1057 0.929 . S
H1048 C1052 0.929 . S
H1049 C1058 0.929 . S
C1050 H1044 0.930 . S
C1050 C1051 1.367 . S
C1050 C1058 1.378 . S
C1051 C1050 1.367 . S
C1051 C1059 1.433 . S
C1052 H1048 0.929 . S
C1052 C1054 1.378 . S
C1052 C1056 1.350 . S
C1053 C1056 1.463 1_655 S
C1053 C1058 1.350 . S
C1053 N1061 1.427 . S
C1054 H1045 0.930 . S
C1054 C1052 1.378 . S
C1054 C1055 1.367 . S
C1055 C1054 1.367 . S
C1055 C1057 1.433 . S
C1056 C1052 1.350 . S
C1056 C1053 1.463 1_455 S
C1056 N1060 1.427 . S
C1057 H1047 0.929 . S
C1057 C1055 1.433 . S
C1057 N1060 1.384 . S
C1058 H1049 0.929 . S
C1058 C1050 1.378 . S
C1058 C1053 1.350 . S
C1059 H1046 0.929 . S
C1059 C1051 1.433 . S
C1059 N1061 1.384 . S
N1060 C1056 1.427 . S
N1060 C1057 1.384 . S
N1061 C1053 1.427 . S
N1061 C1059 1.384 . S
H1062 C1068 0.930 . S
H1063 C1072 0.930 . S
H1064 C1077 0.929 . S
H1065 C1075 0.929 . S
H1066 C1070 0.929 . S
H1067 C1076 0.929 . S
C1068 H1062 0.930 . S
C1068 C1069 1.367 . S
C1068 C1076 1.378 . S
C1069 C1068 1.367 . S
C1069 C1077 1.433 . S
C1070 H1066 0.929 . S
C1070 C1072 1.378 . S
C1070 C1074 1.350 . S
C1071 C1074 1.463 1_565 S
C1071 C1076 1.350 . S
C1071 N1079 1.427 . S
C1072 H1063 0.930 . S
C1072 C1070 1.378 . S
C1072 C1073 1.367 . S
C1073 C1072 1.367 . S
C1073 C1075 1.433 . S
C1074 C1070 1.350 . S
C1074 C1071 1.463 1_545 S
C1074 N1078 1.427 . S
C1075 H1065 0.929 . S
C1075 C1073 1.433 . S
C1075 N1078 1.384 . S
C1076 H1067 0.929 . S
C1076 C1068 1.378 . S
C1076 C1071 1.350 . S
C1077 H1064 0.929 . S
C1077 C1069 1.433 . S
C1077 N1079 1.384 . S
N1078 C1074 1.427 . S
N1078 C1075 1.384 . S
N1079 C1071 1.427 . S
N1079 C1077 1.384 . S
H1080 C1086 0.930 . S
H1081 C1090 0.930 . S
H1082 C1095 0.929 . S
H1083 C1093 0.929 . S
H1084 C1088 0.929 . S
H1085 C1094 0.929 . S
C1086 H1080 0.930 . S
C1086 C1087 1.367 . S
C1086 C1094 1.378 . S
C1087 C1086 1.367 . S
C1087 C1095 1.433 . S
C1088 H1084 0.929 . S
C1088 C1090 1.378 . S
C1088 C1092 1.350 . S
C1089 C1092 1.463 . S
C1089 C1094 1.350 . S
C1089 N1097 1.427 . S
C1090 H1081 0.930 . S
C1090 C1088 1.378 . S
C1090 C1091 1.367 . S
C1091 C1090 1.367 . S
C1091 C1093 1.433 . S
C1092 C1088 1.350 . S
C1092 C1089 1.463 . S
C1092 N1096 1.427 . S
C1093 H1083 0.929 . S
C1093 C1091 1.433 . S
C1093 N1096 1.384 . S
C1094 H1085 0.929 . S
C1094 C1086 1.378 . S
C1094 C1089 1.350 . S
C1095 H1082 0.929 . S
C1095 C1087 1.433 . S
C1095 N1097 1.384 . S
N1096 C1092 1.427 . S
N1096 C1093 1.384 . S
N1097 C1089 1.427 . S
N1097 C1095 1.384 . S
H1098 C1104 0.930 . S
H1099 C1108 0.930 . S
H1100 C1113 0.929 . S
H1101 C1111 0.929 . S
H1102 C1106 0.929 . S
H1103 C1112 0.929 . S
C1104 H1098 0.930 . S
C1104 C1105 1.367 . S
C1104 C1112 1.378 . S
C1105 C1104 1.367 . S
C1105 C1113 1.433 . S
C1106 H1102 0.929 . S
C1106 C1108 1.378 . S
C1106 C1110 1.350 . S
C1107 C1110 1.463 1_655 S
C1107 C1112 1.350 . S
C1107 N1115 1.427 . S
C1108 H1099 0.930 . S
C1108 C1106 1.378 . S
C1108 C1109 1.367 . S
C1109 C1108 1.367 . S
C1109 C1111 1.433 . S
C1110 C1106 1.350 . S
C1110 C1107 1.463 1_455 S
C1110 N1114 1.427 . S
C1111 H1101 0.929 . S
C1111 C1109 1.433 . S
C1111 N1114 1.384 . S
C1112 H1103 0.929 . S
C1112 C1104 1.378 . S
C1112 C1107 1.350 . S
C1113 H1100 0.929 . S
C1113 C1105 1.433 . S
C1113 N1115 1.384 . S
N1114 C1110 1.427 . S
N1114 C1111 1.384 . S
N1115 C1107 1.427 . S
N1115 C1113 1.384 . S
H1116 C1122 0.930 . S
H1117 C1126 0.930 . S
H1118 C1131 0.929 . S
H1119 C1129 0.929 . S
H1120 C1124 0.929 . S
H1121 C1130 0.929 . S
C1122 H1116 0.930 . S
C1122 C1123 1.367 . S
C1122 C1130 1.378 . S
C1123 C1122 1.367 . S
C1123 C1131 1.433 . S
C1124 H1120 0.929 . S
C1124 C1126 1.378 . S
C1124 C1128 1.350 . S
C1125 C1128 1.463 1_455 S
C1125 C1130 1.350 . S
C1125 N1133 1.427 . S
C1126 H1117 0.930 . S
C1126 C1124 1.378 . S
C1126 C1127 1.367 . S
C1127 C1126 1.367 . S
C1127 C1129 1.433 . S
C1128 C1124 1.350 . S
C1128 C1125 1.463 1_655 S
C1128 N1132 1.427 . S
C1129 H1119 0.929 . S
C1129 C1127 1.433 . S
C1129 N1132 1.384 . S
C1130 H1121 0.929 . S
C1130 C1122 1.378 . S
C1130 C1125 1.350 . S
C1131 H1118 0.929 . S
C1131 C1123 1.433 . S
C1131 N1133 1.384 . S
N1132 C1128 1.427 . S
N1132 C1129 1.384 . S
N1133 C1125 1.427 . S
N1133 C1131 1.384 . S
H1134 C1140 0.930 . S
H1135 C1144 0.930 . S
H1136 C1149 0.929 . S
H1137 C1147 0.929 . S
H1138 C1142 0.929 . S
H1139 C1148 0.929 . S
C1140 H1134 0.930 . S
C1140 C1141 1.367 . S
C1140 C1148 1.378 . S
C1141 C1140 1.367 . S
C1141 C1149 1.433 . S
C1142 H1138 0.929 . S
C1142 C1144 1.378 . S
C1142 C1146 1.350 . S
C1143 C1146 1.463 1_565 S
C1143 C1148 1.350 . S
C1143 N1151 1.427 . S
C1144 H1135 0.930 . S
C1144 C1142 1.378 . S
C1144 C1145 1.367 . S
C1145 C1144 1.367 . S
C1145 C1147 1.433 . S
C1146 C1142 1.350 . S
C1146 C1143 1.463 1_545 S
C1146 N1150 1.427 . S
C1147 H1137 0.929 . S
C1147 C1145 1.433 . S
C1147 N1150 1.384 . S
C1148 H1139 0.929 . S
C1148 C1140 1.378 . S
C1148 C1143 1.350 . S
C1149 H1136 0.929 . S
C1149 C1141 1.433 . S
C1149 N1151 1.384 . S
N1150 C1146 1.427 . S
N1150 C1147 1.384 . S
N1151 C1143 1.427 . S
N1151 C1149 1.384 . S
H1152 C1158 0.930 . S
H1153 C1162 0.930 . S
H1154 C1167 0.929 . S
H1155 C1165 0.929 . S
H1156 C1160 0.929 . S
H1157 C1166 0.929 . S
C1158 H1152 0.930 . S
C1158 C1159 1.367 . S
C1158 C1166 1.378 . S
C1159 C1158 1.367 . S
C1159 C1167 1.433 . S
C1160 H1156 0.929 . S
C1160 C1162 1.378 . S
C1160 C1164 1.350 . S
C1161 C1164 1.463 . S
C1161 C1166 1.350 . S
C1161 N1169 1.427 . S
C1162 H1153 0.930 . S
C1162 C1160 1.378 . S
C1162 C1163 1.367 . S
C1163 C1162 1.367 . S
C1163 C1165 1.433 . S
C1164 C1160 1.350 . S
C1164 C1161 1.463 . S
C1164 N1168 1.427 . S
C1165 H1155 0.929 . S
C1165 C1163 1.433 . S
C1165 N1168 1.384 . S
C1166 H1157 0.929 . S
C1166 C1158 1.378 . S
C1166 C1161 1.350 . S
C1167 H1154 0.929 . S
C1167 C1159 1.433 . S
C1167 N1169 1.384 . S
N1168 C1164 1.427 . S
N1168 C1165 1.384 . S
N1169 C1161 1.427 . S
N1169 C1167 1.384 . S
H1170 C1176 0.930 . S
H1171 C1180 0.930 . S
H1172 C1185 0.929 . S
H1173 C1183 0.929 . S
H1174 C1178 0.929 . S
H1175 C1184 0.929 . S
C1176 H1170 0.930 . S
C1176 C1177 1.367 . S
C1176 C1184 1.378 . S
C1177 C1176 1.367 . S
C1177 C1185 1.433 . S
C1178 H1174 0.929 . S
C1178 C1180 1.378 . S
C1178 C1182 1.350 . S
C1179 C1182 1.463 1_455 S
C1179 C1184 1.350 . S
C1179 N1187 1.427 . S
C1180 H1171 0.930 . S
C1180 C1178 1.378 . S
C1180 C1181 1.367 . S
C1181 C1180 1.367 . S
C1181 C1183 1.433 . S
C1182 C1178 1.350 . S
C1182 C1179 1.463 1_655 S
C1182 N1186 1.427 . S
C1183 H1173 0.929 . S
C1183 C1181 1.433 . S
C1183 N1186 1.384 . S
C1184 H1175 0.929 . S
C1184 C1176 1.378 . S
C1184 C1179 1.350 . S
C1185 H1172 0.929 . S
C1185 C1177 1.433 . S
C1185 N1187 1.384 . S
N1186 C1182 1.427 . S
N1186 C1183 1.384 . S
N1187 C1179 1.427 . S
N1187 C1185 1.384 . S
H1188 C1194 0.930 . S
H1189 C1198 0.930 . S
H1190 C1203 0.929 . S
H1191 C1201 0.929 . S
H1192 C1196 0.929 . S
H1193 C1202 0.929 . S
C1194 H1188 0.930 . S
C1194 C1195 1.367 . S
C1194 C1202 1.378 . S
C1195 C1194 1.367 . S
C1195 C1203 1.433 . S
C1196 H1192 0.929 . S
C1196 C1198 1.378 . S
C1196 C1200 1.350 . S
C1197 C1200 1.463 1_545 S
C1197 C1202 1.350 . S
C1197 N1205 1.427 . S
C1198 H1189 0.930 . S
C1198 C1196 1.378 . S
C1198 C1199 1.367 . S
C1199 C1198 1.367 . S
C1199 C1201 1.433 . S
C1200 C1196 1.350 . S
C1200 C1197 1.463 1_565 S
C1200 N1204 1.427 . S
C1201 H1191 0.929 . S
C1201 C1199 1.433 . S
C1201 N1204 1.384 . S
C1202 H1193 0.929 . S
C1202 C1194 1.378 . S
C1202 C1197 1.350 . S
C1203 H1190 0.929 . S
C1203 C1195 1.433 . S
C1203 N1205 1.384 . S
N1204 C1200 1.427 . S
N1204 C1201 1.384 . S
N1205 C1197 1.427 . S
N1205 C1203 1.384 . S
H1206 C1212 0.930 . S
H1207 C1216 0.930 . S
H1208 C1221 0.929 . S
H1209 C1219 0.929 . S
H1210 C1214 0.929 . S
H1211 C1220 0.929 . S
C1212 H1206 0.930 . S
C1212 C1213 1.367 . S
C1212 C1220 1.378 . S
C1213 C1212 1.367 . S
C1213 C1221 1.433 . S
C1214 H1210 0.929 . S
C1214 C1216 1.378 . S
C1214 C1218 1.350 . S
C1215 C1218 1.463 . S
C1215 C1220 1.350 . S
C1215 N1223 1.427 . S
C1216 H1207 0.930 . S
C1216 C1214 1.378 . S
C1216 C1217 1.367 . S
C1217 C1216 1.367 . S
C1217 C1219 1.433 . S
C1218 C1214 1.350 . S
C1218 C1215 1.463 . S
C1218 N1222 1.427 . S
C1219 H1209 0.929 . S
C1219 C1217 1.433 . S
C1219 N1222 1.384 . S
C1220 H1211 0.929 . S
C1220 C1212 1.378 . S
C1220 C1215 1.350 . S
C1221 H1208 0.929 . S
C1221 C1213 1.433 . S
C1221 N1223 1.384 . S
N1222 C1218 1.427 . S
N1222 C1219 1.384 . S
N1223 C1215 1.427 . S
N1223 C1221 1.384 . S
H1224 C1230 0.930 . S
H1225 C1234 0.930 . S
H1226 C1239 0.929 . S
H1227 C1237 0.929 . S
H1228 C1232 0.929 . S
H1229 C1238 0.929 . S
C1230 H1224 0.930 . S
C1230 C1231 1.367 . S
C1230 C1238 1.378 . S
C1231 C1230 1.367 . S
C1231 C1239 1.433 . S
C1232 H1228 0.929 . S
C1232 C1234 1.378 . S
C1232 C1236 1.350 . S
C1233 C1236 1.463 . S
C1233 C1238 1.350 . S
C1233 N1241 1.427 . S
C1234 H1225 0.930 . S
C1234 C1232 1.378 . S
C1234 C1235 1.367 . S
C1235 C1234 1.367 . S
C1235 C1237 1.433 . S
C1236 C1232 1.350 . S
C1236 C1233 1.463 . S
C1236 N1240 1.427 . S
C1237 H1227 0.929 . S
C1237 C1235 1.433 . S
C1237 N1240 1.384 . S
C1238 H1229 0.929 . S
C1238 C1230 1.378 . S
C1238 C1233 1.350 . S
C1239 H1226 0.929 . S
C1239 C1231 1.433 . S
C1239 N1241 1.384 . S
N1240 C1236 1.427 . S
N1240 C1237 1.384 . S
N1241 C1233 1.427 . S
N1241 C1239 1.384 . S
H1242 C1248 0.930 . S
H1243 C1252 0.930 . S
H1244 C1257 0.929 . S
H1245 C1255 0.929 . S
H1246 C1250 0.929 . S
H1247 C1256 0.929 . S
C1248 H1242 0.930 . S
C1248 C1249 1.367 . S
C1248 C1256 1.378 . S
C1249 C1248 1.367 . S
C1249 C1257 1.433 . S
C1250 H1246 0.929 . S
C1250 C1252 1.378 . S
C1250 C1254 1.350 . S
C1251 C1254 1.463 . S
C1251 C1256 1.350 . S
C1251 N1259 1.427 . S
C1252 H1243 0.930 . S
C1252 C1250 1.378 . S
C1252 C1253 1.367 . S
C1253 C1252 1.367 . S
C1253 C1255 1.433 . S
C1254 C1250 1.350 . S
C1254 C1251 1.463 . S
C1254 N1258 1.427 . S
C1255 H1245 0.929 . S
C1255 C1253 1.433 . S
C1255 N1258 1.384 . S
C1256 H1247 0.929 . S
C1256 C1248 1.378 . S
C1256 C1251 1.350 . S
C1257 H1244 0.929 . S
C1257 C1249 1.433 . S
C1257 N1259 1.384 . S
N1258 C1254 1.427 . S
N1258 C1255 1.384 . S
N1259 C1251 1.427 . S
N1259 C1257 1.384 . S
H1260 C1266 0.930 . S
H1261 C1270 0.930 . S
H1262 C1275 0.929 . S
H1263 C1273 0.929 . S
H1264 C1268 0.929 . S
H1265 C1274 0.929 . S
C1266 H1260 0.930 . S
C1266 C1267 1.367 . S
C1266 C1274 1.378 . S
C1267 C1266 1.367 . S
C1267 C1275 1.433 . S
C1268 H1264 0.929 . S
C1268 C1270 1.378 . S
C1268 C1272 1.350 . S
C1269 C1272 1.463 . S
C1269 C1274 1.350 . S
C1269 N1277 1.427 . S
C1270 H1261 0.930 . S
C1270 C1268 1.378 . S
C1270 C1271 1.367 . S
C1271 C1270 1.367 . S
C1271 C1273 1.433 . S
C1272 C1268 1.350 . S
C1272 C1269 1.463 . S
C1272 N1276 1.427 . S
C1273 H1263 0.929 . S
C1273 C1271 1.433 . S
C1273 N1276 1.384 . S
C1274 H1265 0.929 . S
C1274 C1266 1.378 . S
C1274 C1269 1.350 . S
C1275 H1262 0.929 . S
C1275 C1267 1.433 . S
C1275 N1277 1.384 . S
N1276 C1272 1.427 . S
N1276 C1273 1.384 . S
N1277 C1269 1.427 . S
N1277 C1275 1.384 . S
H1278 C1284 0.930 . S
H1279 C1288 0.930 . S
H1280 C1293 0.929 . S
H1281 C1291 0.929 . S
H1282 C1286 0.929 . S
H1283 C1292 0.929 . S
C1284 H1278 0.930 . S
C1284 C1285 1.367 . S
C1284 C1292 1.378 . S
C1285 C1284 1.367 . S
C1285 C1293 1.433 . S
C1286 H1282 0.929 . S
C1286 C1288 1.378 . S
C1286 C1290 1.350 . S
C1287 C1290 1.463 . S
C1287 C1292 1.350 . S
C1287 N1295 1.427 . S
C1288 H1279 0.930 . S
C1288 C1286 1.378 . S
C1288 C1289 1.367 . S
C1289 C1288 1.367 . S
C1289 C1291 1.433 . S
C1290 C1286 1.350 . S
C1290 C1287 1.463 . S
C1290 N1294 1.427 . S
C1291 H1281 0.929 . S
C1291 C1289 1.433 . S
C1291 N1294 1.384 . S
C1292 H1283 0.929 . S
C1292 C1284 1.378 . S
C1292 C1287 1.350 . S
C1293 H1280 0.929 . S
C1293 C1285 1.433 . S
C1293 N1295 1.384 . S
N1294 C1290 1.427 . S
N1294 C1291 1.384 . S
N1295 C1287 1.427 . S
N1295 C1293 1.384 . S
H1296 C1302 0.930 . S
H1297 C1306 0.930 . S
H1298 C1311 0.929 . S
H1299 C1309 0.929 . S
H1300 C1304 0.929 . S
H1301 C1310 0.929 . S
C1302 H1296 0.930 . S
C1302 C1303 1.367 . S
C1302 C1310 1.378 . S
C1303 C1302 1.367 . S
C1303 C1311 1.433 . S
C1304 H1300 0.929 . S
C1304 C1306 1.378 . S
C1304 C1308 1.350 . S
C1305 C1308 1.463 . S
C1305 C1310 1.350 . S
C1305 N1313 1.427 . S
C1306 H1297 0.930 . S
C1306 C1304 1.378 . S
C1306 C1307 1.367 . S
C1307 C1306 1.367 . S
C1307 C1309 1.433 . S
C1308 C1304 1.350 . S
C1308 C1305 1.463 . S
C1308 N1312 1.427 . S
C1309 H1299 0.929 . S
C1309 C1307 1.433 . S
C1309 N1312 1.384 . S
C1310 H1301 0.929 . S
C1310 C1302 1.378 . S
C1310 C1305 1.350 . S
C1311 H1298 0.929 . S
C1311 C1303 1.433 . S
C1311 N1313 1.384 . S
N1312 C1308 1.427 . S
N1312 C1309 1.384 . S
N1313 C1305 1.427 . S
N1313 C1311 1.384 . S
H1314 C1320 0.930 . S
H1315 C1324 0.930 . S
H1316 C1329 0.929 . S
H1317 C1327 0.929 . S
H1318 C1322 0.929 . S
H1319 C1328 0.929 . S
C1320 H1314 0.930 . S
C1320 C1321 1.367 . S
C1320 C1328 1.378 . S
C1321 C1320 1.367 . S
C1321 C1329 1.433 . S
C1322 H1318 0.929 . S
C1322 C1324 1.378 . S
C1322 C1326 1.350 . S
C1323 C1326 1.463 . S
C1323 C1328 1.350 . S
C1323 N1331 1.427 . S
C1324 H1315 0.930 . S
C1324 C1322 1.378 . S
C1324 C1325 1.367 . S
C1325 C1324 1.367 . S
C1325 C1327 1.433 . S
C1326 C1322 1.350 . S
C1326 C1323 1.463 . S
C1326 N1330 1.427 . S
C1327 H1317 0.929 . S
C1327 C1325 1.433 . S
C1327 N1330 1.384 . S
C1328 H1319 0.929 . S
C1328 C1320 1.378 . S
C1328 C1323 1.350 . S
C1329 H1316 0.929 . S
C1329 C1321 1.433 . S
C1329 N1331 1.384 . S
N1330 C1326 1.427 . S
N1330 C1327 1.384 . S
N1331 C1323 1.427 . S
N1331 C1329 1.384 . S
H1332 C1338 0.930 . S
H1333 C1342 0.930 . S
H1334 C1347 0.929 . S
H1335 C1345 0.929 . S
H1336 C1340 0.929 . S
H1337 C1346 0.929 . S
C1338 H1332 0.930 . S
C1338 C1339 1.367 . S
C1338 C1346 1.378 . S
C1339 C1338 1.367 . S
C1339 C1347 1.433 . S
C1340 H1336 0.929 . S
C1340 C1342 1.378 . S
C1340 C1344 1.350 . S
C1341 C1344 1.463 . S
C1341 C1346 1.350 . S
C1341 N1349 1.427 . S
C1342 H1333 0.930 . S
C1342 C1340 1.378 . S
C1342 C1343 1.367 . S
C1343 C1342 1.367 . S
C1343 C1345 1.433 . S
C1344 C1340 1.350 . S
C1344 C1341 1.463 . S
C1344 N1348 1.427 . S
C1345 H1335 0.929 . S
C1345 C1343 1.433 . S
C1345 N1348 1.384 . S
C1346 H1337 0.929 . S
C1346 C1338 1.378 . S
C1346 C1341 1.350 . S
C1347 H1334 0.929 . S
C1347 C1339 1.433 . S
C1347 N1349 1.384 . S
N1348 C1344 1.427 . S
N1348 C1345 1.384 . S
N1349 C1341 1.427 . S
N1349 C1347 1.384 . S
H1350 C1356 0.930 . S
H1351 C1360 0.930 . S
H1352 C1365 0.929 . S
H1353 C1363 0.929 . S
H1354 C1358 0.929 . S
H1355 C1364 0.929 . S
C1356 H1350 0.930 . S
C1356 C1357 1.367 . S
C1356 C1364 1.378 . S
C1357 C1356 1.367 . S
C1357 C1365 1.433 . S
C1358 H1354 0.929 . S
C1358 C1360 1.378 . S
C1358 C1362 1.350 . S
C1359 C1362 1.463 . S
C1359 C1364 1.350 . S
C1359 N1367 1.427 . S
C1360 H1351 0.930 . S
C1360 C1358 1.378 . S
C1360 C1361 1.367 . S
C1361 C1360 1.367 . S
C1361 C1363 1.433 . S
C1362 C1358 1.350 . S
C1362 C1359 1.463 . S
C1362 N1366 1.427 . S
C1363 H1353 0.929 . S
C1363 C1361 1.433 . S
C1363 N1366 1.384 . S
C1364 H1355 0.929 . S
C1364 C1356 1.378 . S
C1364 C1359 1.350 . S
C1365 H1352 0.929 . S
C1365 C1357 1.433 . S
C1365 N1367 1.384 . S
N1366 C1362 1.427 . S
N1366 C1363 1.384 . S
N1367 C1359 1.427 . S
N1367 C1365 1.384 . S
H1368 C1374 0.930 . S
H1369 C1378 0.930 . S
H1370 C1383 0.929 . S
H1371 C1381 0.929 . S
H1372 C1376 0.929 . S
H1373 C1382 0.929 . S
C1374 H1368 0.930 . S
C1374 C1375 1.367 . S
C1374 C1382 1.378 . S
C1375 C1374 1.367 . S
C1375 C1383 1.433 . S
C1376 H1372 0.929 . S
C1376 C1378 1.378 . S
C1376 C1380 1.350 . S
C1377 C1380 1.463 . S
C1377 C1382 1.350 . S
C1377 N1385 1.427 . S
C1378 H1369 0.930 . S
C1378 C1376 1.378 . S
C1378 C1379 1.367 . S
C1379 C1378 1.367 . S
C1379 C1381 1.433 . S
C1380 C1376 1.350 . S
C1380 C1377 1.463 . S
C1380 N1384 1.427 . S
C1381 H1371 0.929 . S
C1381 C1379 1.433 . S
C1381 N1384 1.384 . S
C1382 H1373 0.929 . S
C1382 C1374 1.378 . S
C1382 C1377 1.350 . S
C1383 H1370 0.929 . S
C1383 C1375 1.433 . S
C1383 N1385 1.384 . S
N1384 C1380 1.427 . S
N1384 C1381 1.384 . S
N1385 C1377 1.427 . S
N1385 C1383 1.384 . S
H1386 C1392 0.930 . S
H1387 C1396 0.930 . S
H1388 C1401 0.929 . S
H1389 C1399 0.929 . S
H1390 C1394 0.929 . S
H1391 C1400 0.929 . S
C1392 H1386 0.930 . S
C1392 C1393 1.367 . S
C1392 C1400 1.378 . S
C1393 C1392 1.367 . S
C1393 C1401 1.433 . S
C1394 H1390 0.929 . S
C1394 C1396 1.378 . S
C1394 C1398 1.350 . S
C1395 C1398 1.463 . S
C1395 C1400 1.350 . S
C1395 N1403 1.427 . S
C1396 H1387 0.930 . S
C1396 C1394 1.378 . S
C1396 C1397 1.367 . S
C1397 C1396 1.367 . S
C1397 C1399 1.433 . S
C1398 C1394 1.350 . S
C1398 C1395 1.463 . S
C1398 N1402 1.427 . S
C1399 H1389 0.929 . S
C1399 C1397 1.433 . S
C1399 N1402 1.384 . S
C1400 H1391 0.929 . S
C1400 C1392 1.378 . S
C1400 C1395 1.350 . S
C1401 H1388 0.929 . S
C1401 C1393 1.433 . S
C1401 N1403 1.384 . S
N1402 C1398 1.427 . S
N1402 C1399 1.384 . S
N1403 C1395 1.427 . S
N1403 C1401 1.384 . S
H1404 C1410 0.930 . S
H1405 C1414 0.930 . S
H1406 C1419 0.929 . S
H1407 C1417 0.929 . S
H1408 C1412 0.929 . S
H1409 C1418 0.929 . S
C1410 H1404 0.930 . S
C1410 C1411 1.367 . S
C1410 C1418 1.378 . S
C1411 C1410 1.367 . S
C1411 C1419 1.433 . S
C1412 H1408 0.929 . S
C1412 C1414 1.378 . S
C1412 C1416 1.350 . S
C1413 C1416 1.463 . S
C1413 C1418 1.350 . S
C1413 N1421 1.427 . S
C1414 H1405 0.930 . S
C1414 C1412 1.378 . S
C1414 C1415 1.367 . S
C1415 C1414 1.367 . S
C1415 C1417 1.433 . S
C1416 C1412 1.350 . S
C1416 C1413 1.463 . S
C1416 N1420 1.427 . S
C1417 H1407 0.929 . S
C1417 C1415 1.433 . S
C1417 N1420 1.384 . S
C1418 H1409 0.929 . S
C1418 C1410 1.378 . S
C1418 C1413 1.350 . S
C1419 H1406 0.929 . S
C1419 C1411 1.433 . S
C1419 N1421 1.384 . S
N1420 C1416 1.427 . S
N1420 C1417 1.384 . S
N1421 C1413 1.427 . S
N1421 C1419 1.384 . S
H1422 C1428 0.930 . S
H1423 C1432 0.930 . S
H1424 C1437 0.929 . S
H1425 C1435 0.929 . S
H1426 C1430 0.929 . S
H1427 C1436 0.929 . S
C1428 H1422 0.930 . S
C1428 C1429 1.367 . S
C1428 C1436 1.378 . S
C1429 C1428 1.367 . S
C1429 C1437 1.433 . S
C1430 H1426 0.929 . S
C1430 C1432 1.378 . S
C1430 C1434 1.350 . S
C1431 C1434 1.463 . S
C1431 C1436 1.350 . S
C1431 N1439 1.427 . S
C1432 H1423 0.930 . S
C1432 C1430 1.378 . S
C1432 C1433 1.367 . S
C1433 C1432 1.367 . S
C1433 C1435 1.433 . S
C1434 C1430 1.350 . S
C1434 C1431 1.463 . S
C1434 N1438 1.427 . S
C1435 H1425 0.929 . S
C1435 C1433 1.433 . S
C1435 N1438 1.384 . S
C1436 H1427 0.929 . S
C1436 C1428 1.378 . S
C1436 C1431 1.350 . S
C1437 H1424 0.929 . S
C1437 C1429 1.433 . S
C1437 N1439 1.384 . S
N1438 C1434 1.427 . S
N1438 C1435 1.384 . S
N1439 C1431 1.427 . S
N1439 C1437 1.384 . S
H1440 C1446 0.930 . S
H1441 C1450 0.930 . S
H1442 C1455 0.929 . S
H1443 C1453 0.929 . S
H1444 C1448 0.929 . S
H1445 C1454 0.929 . S
C1446 H1440 0.930 . S
C1446 C1447 1.367 . S
C1446 C1454 1.378 . S
C1447 C1446 1.367 . S
C1447 C1455 1.433 . S
C1448 H1444 0.929 . S
C1448 C1450 1.378 . S
C1448 C1452 1.350 . S
C1449 C1452 1.463 . S
C1449 C1454 1.350 . S
C1449 N1457 1.427 . S
C1450 H1441 0.930 . S
C1450 C1448 1.378 . S
C1450 C1451 1.367 . S
C1451 C1450 1.367 . S
C1451 C1453 1.433 . S
C1452 C1448 1.350 . S
C1452 C1449 1.463 . S
C1452 N1456 1.427 . S
C1453 H1443 0.929 . S
C1453 C1451 1.433 . S
C1453 N1456 1.384 . S
C1454 H1445 0.929 . S
C1454 C1446 1.378 . S
C1454 C1449 1.350 . S
C1455 H1442 0.929 . S
C1455 C1447 1.433 . S
C1455 N1457 1.384 . S
N1456 C1452 1.427 . S
N1456 C1453 1.384 . S
N1457 C1449 1.427 . S
N1457 C1455 1.384 . S
H1458 C1464 0.930 . S
H1459 C1468 0.930 . S
H1460 C1473 0.929 . S
H1461 C1471 0.929 . S
H1462 C1466 0.929 . S
H1463 C1472 0.929 . S
C1464 H1458 0.930 . S
C1464 C1465 1.367 . S
C1464 C1472 1.378 . S
C1465 C1464 1.367 . S
C1465 C1473 1.433 . S
C1466 H1462 0.929 . S
C1466 C1468 1.378 . S
C1466 C1470 1.350 . S
C1467 C1470 1.463 . S
C1467 C1472 1.350 . S
C1467 N1475 1.427 . S
C1468 H1459 0.930 . S
C1468 C1466 1.378 . S
C1468 C1469 1.367 . S
C1469 C1468 1.367 . S
C1469 C1471 1.433 . S
C1470 C1466 1.350 . S
C1470 C1467 1.463 . S
C1470 N1474 1.427 . S
C1471 H1461 0.929 . S
C1471 C1469 1.433 . S
C1471 N1474 1.384 . S
C1472 H1463 0.929 . S
C1472 C1464 1.378 . S
C1472 C1467 1.350 . S
C1473 H1460 0.929 . S
C1473 C1465 1.433 . S
C1473 N1475 1.384 . S
N1474 C1470 1.427 . S
N1474 C1471 1.384 . S
N1475 C1467 1.427 . S
N1475 C1473 1.384 . S
H1476 C1482 0.930 . S
H1477 C1486 0.930 . S
H1478 C1491 0.929 . S
H1479 C1489 0.929 . S
H1480 C1484 0.929 . S
H1481 C1490 0.929 . S
C1482 H1476 0.930 . S
C1482 C1483 1.367 . S
C1482 C1490 1.378 . S
C1483 C1482 1.367 . S
C1483 C1491 1.433 . S
C1484 H1480 0.929 . S
C1484 C1486 1.378 . S
C1484 C1488 1.350 . S
C1485 C1488 1.463 . S
C1485 C1490 1.350 . S
C1485 N1493 1.427 . S
C1486 H1477 0.930 . S
C1486 C1484 1.378 . S
C1486 C1487 1.367 . S
C1487 C1486 1.367 . S
C1487 C1489 1.433 . S
C1488 C1484 1.350 . S
C1488 C1485 1.463 . S
C1488 N1492 1.427 . S
C1489 H1479 0.929 . S
C1489 C1487 1.433 . S
C1489 N1492 1.384 . S
C1490 H1481 0.929 . S
C1490 C1482 1.378 . S
C1490 C1485 1.350 . S
C1491 H1478 0.929 . S
C1491 C1483 1.433 . S
C1491 N1493 1.384 . S
N1492 C1488 1.427 . S
N1492 C1489 1.384 . S
N1493 C1485 1.427 . S
N1493 C1491 1.384 . S
H1494 C1500 0.930 . S
H1495 C1504 0.930 . S
H1496 C1509 0.929 . S
H1497 C1507 0.929 . S
H1498 C1502 0.929 . S
H1499 C1508 0.929 . S
C1500 H1494 0.930 . S
C1500 C1501 1.367 . S
C1500 C1508 1.378 . S
C1501 C1500 1.367 . S
C1501 C1509 1.433 . S
C1502 H1498 0.929 . S
C1502 C1504 1.378 . S
C1502 C1506 1.350 . S
C1503 C1506 1.463 . S
C1503 C1508 1.350 . S
C1503 N1511 1.427 . S
C1504 H1495 0.930 . S
C1504 C1502 1.378 . S
C1504 C1505 1.367 . S
C1505 C1504 1.367 . S
C1505 C1507 1.433 . S
C1506 C1502 1.350 . S
C1506 C1503 1.463 . S
C1506 N1510 1.427 . S
C1507 H1497 0.929 . S
C1507 C1505 1.433 . S
C1507 N1510 1.384 . S
C1508 H1499 0.929 . S
C1508 C1500 1.378 . S
C1508 C1503 1.350 . S
C1509 H1496 0.929 . S
C1509 C1501 1.433 . S
C1509 N1511 1.384 . S
N1510 C1506 1.427 . S
N1510 C1507 1.384 . S
N1511 C1503 1.427 . S
N1511 C1509 1.384 . S
H1512 C1518 0.930 . S
H1513 C1522 0.930 . S
H1514 C1527 0.929 . S
H1515 C1525 0.929 . S
H1516 C1520 0.929 . S
H1517 C1526 0.929 . S
C1518 H1512 0.930 . S
C1518 C1519 1.367 . S
C1518 C1526 1.378 . S
C1519 C1518 1.367 . S
C1519 C1527 1.433 . S
C1520 H1516 0.929 . S
C1520 C1522 1.378 . S
C1520 C1524 1.350 . S
C1521 C1524 1.463 . S
C1521 C1526 1.350 . S
C1521 N1529 1.427 . S
C1522 H1513 0.930 . S
C1522 C1520 1.378 . S
C1522 C1523 1.367 . S
C1523 C1522 1.367 . S
C1523 C1525 1.433 . S
C1524 C1520 1.350 . S
C1524 C1521 1.463 . S
C1524 N1528 1.427 . S
C1525 H1515 0.929 . S
C1525 C1523 1.433 . S
C1525 N1528 1.384 . S
C1526 H1517 0.929 . S
C1526 C1518 1.378 . S
C1526 C1521 1.350 . S
C1527 H1514 0.929 . S
C1527 C1519 1.433 . S
C1527 N1529 1.384 . S
N1528 C1524 1.427 . S
N1528 C1525 1.384 . S
N1529 C1521 1.427 . S
N1529 C1527 1.384 . S
H1530 C1536 0.930 . S
H1531 C1540 0.930 . S
H1532 C1545 0.929 . S
H1533 C1543 0.929 . S
H1534 C1538 0.929 . S
H1535 C1544 0.929 . S
C1536 H1530 0.930 . S
C1536 C1537 1.367 . S
C1536 C1544 1.378 . S
C1537 C1536 1.367 . S
C1537 C1545 1.433 . S
C1538 H1534 0.929 . S
C1538 C1540 1.378 . S
C1538 C1542 1.350 . S
C1539 C1542 1.463 . S
C1539 C1544 1.350 . S
C1539 N1547 1.427 . S
C1540 H1531 0.930 . S
C1540 C1538 1.378 . S
C1540 C1541 1.367 . S
C1541 C1540 1.367 . S
C1541 C1543 1.433 . S
C1542 C1538 1.350 . S
C1542 C1539 1.463 . S
C1542 N1546 1.427 . S
C1543 H1533 0.929 . S
C1543 C1541 1.433 . S
C1543 N1546 1.384 . S
C1544 H1535 0.929 . S
C1544 C1536 1.378 . S
C1544 C1539 1.350 . S
C1545 H1532 0.929 . S
C1545 C1537 1.433 . S
C1545 N1547 1.384 . S
N1546 C1542 1.427 . S
N1546 C1543 1.384 . S
N1547 C1539 1.427 . S
N1547 C1545 1.384 . S
H1548 C1554 0.930 . S
H1549 C1558 0.930 . S
H1550 C1563 0.929 . S
H1551 C1561 0.929 . S
H1552 C1556 0.929 . S
H1553 C1562 0.929 . S
C1554 H1548 0.930 . S
C1554 C1555 1.367 . S
C1554 C1562 1.378 . S
C1555 C1554 1.367 . S
C1555 C1563 1.433 . S
C1556 H1552 0.929 . S
C1556 C1558 1.378 . S
C1556 C1560 1.350 . S
C1557 C1560 1.463 1_556 S
C1557 C1562 1.350 . S
C1557 N1565 1.427 . S
C1558 H1549 0.930 . S
C1558 C1556 1.378 . S
C1558 C1559 1.367 . S
C1559 C1558 1.367 . S
C1559 C1561 1.433 . S
C1560 C1556 1.350 . S
C1560 C1557 1.463 1_554 S
C1560 N1564 1.427 . S
C1561 H1551 0.929 . S
C1561 C1559 1.433 . S
C1561 N1564 1.384 . S
C1562 H1553 0.929 . S
C1562 C1554 1.378 . S
C1562 C1557 1.350 . S
C1563 H1550 0.929 . S
C1563 C1555 1.433 . S
C1563 N1565 1.384 . S
N1564 C1560 1.427 . S
N1564 C1561 1.384 . S
N1565 C1557 1.427 . S
N1565 C1563 1.384 . S
H1566 C1572 0.930 . S
H1567 C1576 0.930 . S
H1568 C1581 0.929 . S
H1569 C1579 0.929 . S
H1570 C1574 0.929 . S
H1571 C1580 0.929 . S
C1572 H1566 0.930 . S
C1572 C1573 1.367 . S
C1572 C1580 1.378 . S
C1573 C1572 1.367 . S
C1573 C1581 1.433 . S
C1574 H1570 0.929 . S
C1574 C1576 1.378 . S
C1574 C1578 1.350 . S
C1575 C1578 1.463 1_455 S
C1575 C1580 1.350 . S
C1575 N1583 1.427 . S
C1576 H1567 0.930 . S
C1576 C1574 1.378 . S
C1576 C1577 1.367 . S
C1577 C1576 1.367 . S
C1577 C1579 1.433 . S
C1578 C1574 1.350 . S
C1578 C1575 1.463 1_655 S
C1578 N1582 1.427 . S
C1579 H1569 0.929 . S
C1579 C1577 1.433 . S
C1579 N1582 1.384 . S
C1580 H1571 0.929 . S
C1580 C1572 1.378 . S
C1580 C1575 1.350 . S
C1581 H1568 0.929 . S
C1581 C1573 1.433 . S
C1581 N1583 1.384 . S
N1582 C1578 1.427 . S
N1582 C1579 1.384 . S
N1583 C1575 1.427 . S
N1583 C1581 1.384 . S
H1584 C1590 0.930 . S
H1585 C1594 0.930 . S
H1586 C1599 0.929 . S
H1587 C1597 0.929 . S
H1588 C1592 0.929 1_554 S
H1589 C1598 0.929 1_556 S
C1590 H1584 0.930 . S
C1590 C1591 1.367 . S
C1590 C1598 1.378 . S
C1591 C1590 1.367 . S
C1591 C1599 1.433 . S
C1592 H1588 0.929 1_556 S
C1592 C1594 1.378 . S
C1592 C1596 1.350 . S
C1593 C1596 1.463 1_564 S
C1593 C1598 1.350 . S
C1593 N1601 1.427 . S
C1594 H1585 0.930 . S
C1594 C1592 1.378 . S
C1594 C1595 1.367 . S
C1595 C1594 1.367 . S
C1595 C1597 1.433 . S
C1596 C1592 1.350 . S
C1596 C1593 1.463 1_546 S
C1596 N1600 1.427 . S
C1597 H1587 0.929 . S
C1597 C1595 1.433 . S
C1597 N1600 1.384 . S
C1598 H1589 0.929 1_554 S
C1598 C1590 1.378 . S
C1598 C1593 1.350 . S
C1599 H1586 0.929 . S
C1599 C1591 1.433 . S
C1599 N1601 1.384 . S
N1600 C1596 1.427 . S
N1600 C1597 1.384 . S
N1601 C1593 1.427 . S
N1601 C1599 1.384 . S
H1602 C1608 0.930 . S
H1603 C1612 0.930 . S
H1604 C1617 0.929 . S
H1605 C1615 0.929 . S
H1606 C1610 0.929 . S
H1607 C1616 0.929 . S
C1608 H1602 0.930 . S
C1608 C1609 1.367 . S
C1608 C1616 1.378 . S
C1609 C1608 1.367 . S
C1609 C1617 1.433 . S
C1610 H1606 0.929 . S
C1610 C1612 1.378 . S
C1610 C1614 1.350 . S
C1611 C1614 1.463 . S
C1611 C1616 1.350 . S
C1611 N1619 1.427 . S
C1612 H1603 0.930 . S
C1612 C1610 1.378 . S
C1612 C1613 1.367 . S
C1613 C1612 1.367 . S
C1613 C1615 1.433 . S
C1614 C1610 1.350 . S
C1614 C1611 1.463 . S
C1614 N1618 1.427 . S
C1615 H1605 0.929 . S
C1615 C1613 1.433 . S
C1615 N1618 1.384 . S
C1616 H1607 0.929 . S
C1616 C1608 1.378 . S
C1616 C1611 1.350 . S
C1617 H1604 0.929 . S
C1617 C1609 1.433 . S
C1617 N1619 1.384 . S
N1618 C1614 1.427 . S
N1618 C1615 1.384 . S
N1619 C1611 1.427 . S
N1619 C1617 1.384 . S
H1620 C1626 0.930 . S
H1621 C1630 0.930 . S
H1622 C1635 0.929 . S
H1623 C1633 0.929 . S
H1624 C1628 0.929 1_556 S
H1625 C1634 0.929 1_554 S
C1626 H1620 0.930 . S
C1626 C1627 1.367 . S
C1626 C1634 1.378 . S
C1627 C1626 1.367 . S
C1627 C1635 1.433 . S
C1628 H1624 0.929 1_554 S
C1628 C1630 1.378 . S
C1628 C1632 1.350 . S
C1629 C1632 1.463 1_656 S
C1629 C1634 1.350 . S
C1629 N1637 1.427 . S
C1630 H1621 0.930 . S
C1630 C1628 1.378 . S
C1630 C1631 1.367 . S
C1631 C1630 1.367 . S
C1631 C1633 1.433 . S
C1632 C1628 1.350 . S
C1632 C1629 1.463 1_454 S
C1632 N1636 1.427 . S
C1633 H1623 0.929 . S
C1633 C1631 1.433 . S
C1633 N1636 1.384 . S
C1634 H1625 0.929 1_556 S
C1634 C1626 1.378 . S
C1634 C1629 1.350 . S
C1635 H1622 0.929 . S
C1635 C1627 1.433 . S
C1635 N1637 1.384 . S
N1636 C1632 1.427 . S
N1636 C1633 1.384 . S
N1637 C1629 1.427 . S
N1637 C1635 1.384 . S
H1638 C1644 0.930 . S
H1639 C1648 0.930 . S
H1640 C1653 0.929 . S
H1641 C1651 0.929 . S
H1642 C1646 0.929 . S
H1643 C1652 0.929 . S
C1644 H1638 0.930 . S
C1644 C1645 1.367 . S
C1644 C1652 1.378 . S
C1645 C1644 1.367 . S
C1645 C1653 1.433 . S
C1646 H1642 0.929 . S
C1646 C1648 1.378 . S
C1646 C1650 1.350 . S
C1647 C1650 1.463 1_565 S
C1647 C1652 1.350 . S
C1647 N1655 1.427 . S
C1648 H1639 0.930 . S
C1648 C1646 1.378 . S
C1648 C1649 1.367 . S
C1649 C1648 1.367 . S
C1649 C1651 1.433 . S
C1650 C1646 1.350 . S
C1650 C1647 1.463 1_545 S
C1650 N1654 1.427 . S
C1651 H1641 0.929 . S
C1651 C1649 1.433 . S
C1651 N1654 1.384 . S
C1652 H1643 0.929 . S
C1652 C1644 1.378 . S
C1652 C1647 1.350 . S
C1653 H1640 0.929 . S
C1653 C1645 1.433 . S
C1653 N1655 1.384 . S
N1654 C1650 1.427 . S
N1654 C1651 1.384 . S
N1655 C1647 1.427 . S
N1655 C1653 1.384 . S
C1015 C403 1.362 . S
C1019 C58 1.215 . S
C1033 C487 1.358 . S
C1037 C142 1.188 . S
C1051 C226 1.217 . S
C1055 C67 1.364 . S
C1069 C310 1.217 . S
C1073 C151 1.363 . S
C1087 C394 1.188 . S
C1091 C235 1.358 . S
C1105 C319 1.358 . S
C1109 C478 1.188 . S
C1123 C739 1.364 . S
C1127 C562 1.217 . S
C1141 C646 1.203 . S
C1145 C823 1.362 . S
C1159 C907 1.362 . S
C1163 C730 1.212 . S
C1177 C814 1.188 . S
C1181 C991 1.358 . S
C1195 C898 1.218 . S
C1199 C571 1.364 . S
C1213 C655 1.364 . S
C1217 C982 1.216 . S
C1231 C392 1.439 . S
C1235 C69 1.301 . S
C1249 C153 1.301 . S
C1253 C476 1.439 . S
C1267 C237 1.275 . S
C1271 C56 1.433 . S
C1285 C321 1.278 . S
C1289 C140 1.437 . S
C1303 C224 1.436 . S
C1307 C405 1.276 . S
C1321 C308 1.436 . S
C1325 C489 1.298 . S
C1339 C728 1.436 . S
C1343 C573 1.276 . S
C1357 C657 1.276 . S
C1361 C812 1.433 . S
C1375 C741 1.274 . S
C1379 C896 1.434 . S
C1393 C980 1.439 . S
C1397 C825 1.284 . S
C1411 C909 1.283 . S
C1415 C560 1.439 . S
C1429 C644 1.437 . S
C1433 C993 1.299 . S
C1447 C914 1.813 . S
C1451 C74 1.821 . S
C1465 C158 1.811 . S
C1469 C998 1.821 . S
C1483 C242 1.817 . S
C1487 C578 1.819 . S
C1501 C326 1.821 . S
C1505 C662 1.811 . S
C1519 C410 1.805 . S
C1523 C746 1.816 . S
C1537 C830 1.816 . S
C1541 C494 1.805 . S
C1555 C819 1.946 . S
C1559 C63 1.943 . S
C1573 C903 1.943 . S
C1577 C147 1.949 . S
C1591 C231 1.947 . S
C1595 C987 1.950 . S
C1609 C315 1.949 . S
C1613 C567 1.944 . S
C1627 C651 1.950 . S
C1631 C399 1.947 . S
C1645 C735 1.946 . S
C1649 C483 1.950 . S
