# Generated by pormake.
# Topology atn, (4)-cn, num edge types: 1
# Building blocks:
#     Node 0, Type 0, BuildingBlock: NAHDIM_clean_sbu_0, # of connection points: 4
#     Node 1, Type 0, BuildingBlock: NAHDIM_clean_sbu_0, # of connection points: 4
#     Node 2, Type 0, BuildingBlock: NAHDIM_clean_sbu_0, # of connection points: 4
#     Node 3, Type 0, BuildingBlock: NAHDIM_clean_sbu_0, # of connection points: 4
#     Node 4, Type 0, BuildingBlock: NAHDIM_clean_sbu_0, # of connection points: 4
#     Node 5, Type 0, BuildingBlock: NAHDIM_clean_sbu_0, # of connection points: 4
#     Node 6, Type 0, BuildingBlock: NAHDIM_clean_sbu_0, # of connection points: 4
#     Node 7, Type 0, BuildingBlock: NAHDIM_clean_sbu_0, # of connection points: 4
#     Node 8, Type 0, BuildingBlock: NAHDIM_clean_sbu_0, # of connection points: 4
#     Node 9, Type 0, BuildingBlock: NAHDIM_clean_sbu_0, # of connection points: 4
#     Node 10, Type 0, BuildingBlock: NAHDIM_clean_sbu_0, # of connection points: 4
#     Node 11, Type 0, BuildingBlock: NAHDIM_clean_sbu_0, # of connection points: 4
#     Node 12, Type 0, BuildingBlock: NAHDIM_clean_sbu_0, # of connection points: 4
#     Node 13, Type 0, BuildingBlock: NAHDIM_clean_sbu_0, # of connection points: 4
#     Node 14, Type 0, BuildingBlock: NAHDIM_clean_sbu_0, # of connection points: 4
#     Node 15, Type 0, BuildingBlock: NAHDIM_clean_sbu_0, # of connection points: 4
#     Edge 16, Type (0, 0), BuildingBlock: EZIPEK_clean_linker_0, # of connection points: 2
#     Edge 17, Type (0, 0), BuildingBlock: EZIPEK_clean_linker_0, # of connection points: 2
#     Edge 18, Type (0, 0), BuildingBlock: EZIPEK_clean_linker_0, # of connection points: 2
#     Edge 19, Type (0, 0), BuildingBlock: EZIPEK_clean_linker_0, # of connection points: 2
#     Edge 20, Type (0, 0), BuildingBlock: EZIPEK_clean_linker_0, # of connection points: 2
#     Edge 21, Type (0, 0), BuildingBlock: EZIPEK_clean_linker_0, # of connection points: 2
#     Edge 22, Type (0, 0), BuildingBlock: EZIPEK_clean_linker_0, # of connection points: 2
#     Edge 23, Type (0, 0), BuildingBlock: EZIPEK_clean_linker_0, # of connection points: 2
#     Edge 24, Type (0, 0), BuildingBlock: EZIPEK_clean_linker_0, # of connection points: 2
#     Edge 25, Type (0, 0), BuildingBlock: EZIPEK_clean_linker_0, # of connection points: 2
#     Edge 26, Type (0, 0), BuildingBlock: EZIPEK_clean_linker_0, # of connection points: 2
#     Edge 27, Type (0, 0), BuildingBlock: EZIPEK_clean_linker_0, # of connection points: 2
#     Edge 28, Type (0, 0), BuildingBlock: EZIPEK_clean_linker_0, # of connection points: 2
#     Edge 29, Type (0, 0), BuildingBlock: EZIPEK_clean_linker_0, # of connection points: 2
#     Edge 30, Type (0, 0), BuildingBlock: EZIPEK_clean_linker_0, # of connection points: 2
#     Edge 31, Type (0, 0), BuildingBlock: EZIPEK_clean_linker_0, # of connection points: 2
#     Edge 32, Type (0, 0), BuildingBlock: EZIPEK_clean_linker_0, # of connection points: 2
#     Edge 33, Type (0, 0), BuildingBlock: EZIPEK_clean_linker_0, # of connection points: 2
#     Edge 34, Type (0, 0), BuildingBlock: EZIPEK_clean_linker_0, # of connection points: 2
#     Edge 35, Type (0, 0), BuildingBlock: EZIPEK_clean_linker_0, # of connection points: 2
#     Edge 36, Type (0, 0), BuildingBlock: EZIPEK_clean_linker_0, # of connection points: 2
#     Edge 37, Type (0, 0), BuildingBlock: EZIPEK_clean_linker_0, # of connection points: 2
#     Edge 38, Type (0, 0), BuildingBlock: EZIPEK_clean_linker_0, # of connection points: 2
#     Edge 39, Type (0, 0), BuildingBlock: EZIPEK_clean_linker_0, # of connection points: 2
#     Edge 40, Type (0, 0), BuildingBlock: EZIPEK_clean_linker_0, # of connection points: 2
#     Edge 41, Type (0, 0), BuildingBlock: EZIPEK_clean_linker_0, # of connection points: 2
#     Edge 42, Type (0, 0), BuildingBlock: EZIPEK_clean_linker_0, # of connection points: 2
#     Edge 43, Type (0, 0), BuildingBlock: EZIPEK_clean_linker_0, # of connection points: 2
#     Edge 44, Type (0, 0), BuildingBlock: EZIPEK_clean_linker_0, # of connection points: 2
#     Edge 45, Type (0, 0), BuildingBlock: EZIPEK_clean_linker_0, # of connection points: 2
#     Edge 46, Type (0, 0), BuildingBlock: EZIPEK_clean_linker_0, # of connection points: 2
#     Edge 47, Type (0, 0), BuildingBlock: EZIPEK_clean_linker_0, # of connection points: 2
# Relax obj value: 0.100
# Max RMSD: 0.111
# Mean RMSD: 0.111
data_MOF--net-atn--node1-NAHDIM_clean_sbu_0--edge1-EZIPEK_clean_linker_0
_symmetry_space_group_name_H-M    P1
_symmetry_Int_Tables_number       1
_symmetry_cell_setting            triclinic
loop_
_symmetry_equiv_pos_as_xyz
'x, y, z'
_cell_length_a     47.072599
_cell_length_b     47.080496
_cell_length_c     18.069008
_cell_angle_alpha  90.046476
_cell_angle_beta   89.98149
_cell_angle_gamma 89.850312
loop_
_atom_site_label
_atom_site_type_symbol
_atom_site_fract_x
_atom_site_fract_y
_atom_site_fract_z
_atom_type_partial_charge
C0 C 0.18398 0.43162 0.96635 0.0
O1 O 0.15959 0.41818 0.96718 0.0
O2 O 0.18756 0.36313 0.06315 0.0
Zn3 Zn 0.2045 0.37519 0.96578 0.0
O4 O 0.1803 0.36181 0.8813 0.0
C5 C 0.25043 0.33671 0.99501 0.0
O6 O 0.23359 0.32902 0.0492 0.0
O7 O 0.20704 0.4176 0.9643 0.0
C8 C 0.17654 0.33528 0.87364 0.0
O9 O 0.18742 0.31759 0.92213 0.0
C10 C 0.16125 0.35957 0.07536 0.0
O11 O 0.14265 0.36398 0.02245 0.0
O12 O 0.24332 0.35724 0.95324 0.0
C13 C 0.55883 0.19617 0.94658 0.0
O14 O 0.57229 0.18332 0.89239 0.0
O15 O 0.62827 0.19326 0.09652 0.0
Zn16 Zn 0.61517 0.20853 0.99875 0.0
O17 O 0.63059 0.18433 0.91569 0.0
C18 C 0.6529 0.25488 0.01643 0.0
O19 O 0.66566 0.23617 0.05887 0.0
O20 O 0.57272 0.20852 0.99741 0.0
C21 C 0.65709 0.18045 0.90708 0.0
O22 O 0.6751 0.19197 0.95359 0.0
C23 C 0.62555 0.16738 0.11467 0.0
O24 O 0.61357 0.14944 0.06861 0.0
O25 O 0.62945 0.24851 0.98609 0.0
C26 C 0.8026 0.55819 0.04187 0.0
O27 O 0.82638 0.57259 0.0375 0.0
O28 O 0.79514 0.62561 0.15646 0.0
Zn29 Zn 0.77996 0.61336 0.05696 0.0
O30 O 0.80262 0.62746 0.97009 0.0
C31 C 0.73758 0.65514 0.05622 0.0
O32 O 0.7586 0.66923 0.08639 0.0
O33 O 0.77921 0.57114 0.05146 0.0
C34 C 0.81396 0.65181 0.9653 0.0
O35 O 0.81364 0.66907 0.0224 0.0
C36 C 0.82133 0.62787 0.17237 0.0
O37 O 0.84066 0.62267 0.12168 0.0
O38 O 0.74065 0.62892 0.04208 0.0
C39 C 0.43499 0.79195 0.0566 0.0
O40 O 0.42187 0.81386 0.08598 0.0
O41 O 0.36918 0.78959 0.1482 0.0
Zn42 Zn 0.37892 0.77154 0.05038 0.0
O43 O 0.36356 0.79403 0.96477 0.0
C44 C 0.33771 0.72988 0.01663 0.0
O45 O 0.32529 0.75231 0.98811 0.0
O46 O 0.42097 0.77008 0.0381 0.0
C47 C 0.36205 0.82084 0.95909 0.0
O48 O 0.37042 0.83721 0.01369 0.0
C49 C 0.34347 0.79438 0.16539 0.0
O50 O 0.32318 0.78831 0.11819 0.0
O51 O 0.36205 0.73223 0.04639 0.0
C52 C 0.18386 0.55382 0.98559 0.0
O53 O 0.15991 0.56792 0.97895 0.0
O54 O 0.1894 0.62391 0.90316 0.0
Zn55 Zn 0.20587 0.60951 0.99936 0.0
O56 O 0.18226 0.62165 0.08699 0.0
C57 C 0.25322 0.64675 0.98126 0.0
O58 O 0.23578 0.65856 0.93372 0.0
O59 O 0.20694 0.56713 0.99556 0.0
C60 C 0.18504 0.64661 0.11273 0.0
O61 O 0.20119 0.66487 0.0776 0.0
C62 C 0.16344 0.63056 0.89434 0.0
O63 O 0.14571 0.62885 0.95027 0.0
O64 O 0.2458 0.62419 0.01435 0.0
C65 C 0.43652 0.19435 0.95911 0.0
O66 O 0.42357 0.16988 0.96738 0.0
O67 O 0.37057 0.18719 0.86397 0.0
Zn68 Zn 0.38 0.21177 0.95182 0.0
O69 O 0.36865 0.19338 0.04797 0.0
C70 C 0.33596 0.25188 0.97538 0.0
O71 O 0.32554 0.23024 0.01209 0.0
O72 O 0.42198 0.21692 0.95201 0.0
C73 C 0.35922 0.16825 0.05397 0.0
O74 O 0.3573 0.15188 0.99536 0.0
C75 C 0.34576 0.18533 0.83694 0.0
O76 O 0.32459 0.19904 0.86817 0.0
O77 O 0.35996 0.24959 0.94367 0.0
C78 C 0.79958 0.43683 0.00577 0.0
O79 O 0.8226 0.42237 0.98904 0.0
O80 O 0.79624 0.37412 0.90362 0.0
Zn81 Zn 0.77769 0.38206 0.00247 0.0
O82 O 0.8 0.36732 0.08998 0.0
C83 C 0.73397 0.34163 0.97743 0.0
O84 O 0.75464 0.32914 0.94108 0.0
O85 O 0.77615 0.42399 0.01438 0.0
C86 C 0.79778 0.34213 0.11451 0.0
O87 O 0.78238 0.32344 0.0788 0.0
C88 C 0.81255 0.35315 0.89107 0.0
O89 O 0.81865 0.33537 0.94472 0.0
O90 O 0.73813 0.36583 0.00641 0.0
C91 C 0.55483 0.79838 0.99594 0.0
O92 O 0.56791 0.82293 -0.00048 0.0
O93 O 0.62168 0.7933 0.87414 0.0
Zn94 Zn 0.611 0.77908 0.97531 0.0
O95 O 0.6243 0.80595 0.05449 0.0
C96 C 0.65256 0.73468 0.96504 0.0
O97 O 0.66266 0.75117 0.91284 0.0
O98 O 0.56892 0.77581 0.98432 0.0
C99 C 0.65064 0.80925 0.06652 0.0
O100 O 0.66932 0.79691 0.02308 0.0
C101 C 0.62389 0.8196 0.85969 0.0
O102 O 0.61895 0.83851 0.91163 0.0
O103 O 0.62932 0.7412 0.99653 0.0
C104 C 0.68382 0.93402 0.48684 0.0
O105 O 0.66036 0.91927 0.49424 0.0
O106 O 0.68789 0.86521 0.56879 0.0
Zn107 Zn 0.70722 0.87903 0.4763 0.0
O108 O 0.68642 0.86506 0.38606 0.0
C109 C 0.74823 0.83667 0.47666 0.0
O110 O 0.72442 0.82226 0.47364 0.0
O111 O 0.70737 0.92134 0.47755 0.0
C112 C 0.69936 0.86237 0.32475 0.0
O113 O 0.72616 0.8698 0.31989 0.0
C114 C 0.66272 0.85556 0.57142 0.0
O115 O 0.64744 0.85394 0.51079 0.0
O116 O 0.74714 0.86359 0.4779 0.0
C117 C 0.05368 0.69771 0.50117 0.0
O118 O 0.06635 0.67364 0.48472 0.0
O119 O 0.12378 0.69555 0.59693 0.0
Zn120 Zn 0.1105 0.71655 0.5061 0.0
O121 O 0.12142 0.6974 0.4096 0.0
C122 C 0.15478 0.75602 0.51323 0.0
O123 O 0.1688 0.73192 0.51228 0.0
O124 O 0.06832 0.71988 0.51221 0.0
C125 C 0.14434 0.6836 0.39926 0.0
O126 O 0.16188 0.67948 0.45473 0.0
C127 C 0.12625 0.66889 0.60572 0.0
O128 O 0.12044 0.65157 0.55079 0.0
O129 O 0.12784 0.7556 0.51065 0.0
C130 C 0.29807 0.0523 0.45462 0.0
O131 O 0.32072 0.06241 0.42154 0.0
O132 O 0.3003 0.12992 0.53626 0.0
Zn133 Zn 0.28184 0.11029 0.44987 0.0
O134 O 0.30424 0.11596 0.35669 0.0
C135 C 0.23293 0.14363 0.48462 0.0
O136 O 0.24496 0.14412 0.55015 0.0
O137 O 0.27778 0.06885 0.47175 0.0
C138 C 0.3134 0.14053 0.34076 0.0
O139 O 0.30948 0.16164 0.38719 0.0
C140 C 0.3224 0.12191 0.5706 0.0
O141 O 0.33639 0.09924 0.54892 0.0
O142 O 0.24367 0.12848 0.43356 0.0
C143 C 0.93306 0.3006 0.49172 0.0
O144 O 0.91897 0.32403 0.47707 0.0
O145 O 0.86354 0.29837 0.59722 0.0
Zn146 Zn 0.87742 0.27976 0.5038 0.0
O147 O 0.86573 0.30133 0.41303 0.0
C148 C 0.83792 0.23503 0.53008 0.0
O149 O 0.82741 0.25379 0.57638 0.0
O150 O 0.91971 0.27785 0.50576 0.0
C151 C 0.83962 0.3051 0.39856 0.0
O152 O 0.82028 0.2971 0.44655 0.0
C153 C 0.85939 0.32481 0.60546 0.0
O154 O 0.86452 0.34244 0.55083 0.0
O155 O 0.86047 0.24064 0.4944 0.0
C156 C 0.6865 0.05608 0.50144 0.0
O157 O 0.66374 0.07201 0.49387 0.0
O158 O 0.69393 0.12123 0.40386 0.0
Zn159 Zn 0.71207 0.10976 0.50009 0.0
O160 O 0.69213 0.12744 0.58696 0.0
C161 C 0.75302 0.15101 0.49694 0.0
O162 O 0.72928 0.16544 0.48975 0.0
O163 O 0.71074 0.06759 0.50725 0.0
C164 C 0.69889 0.11948 0.65173 0.0
O165 O 0.71776 0.09918 0.66058 0.0
C166 C 0.67037 0.13435 0.39983 0.0
O167 O 0.65662 0.14109 0.46063 0.0
O168 O 0.75207 0.12413 0.50118 0.0
C169 C 0.93253 0.69765 0.54509 0.0
O170 O 0.92004 0.67316 0.55701 0.0
O171 O 0.86286 0.69102 0.46743 0.0
Zn172 Zn 0.87607 0.71434 0.55398 0.0
O173 O 0.86878 0.69586 0.65267 0.0
C174 C 0.84321 0.76003 0.49193 0.0
O175 O 0.84867 0.74673 0.4296 0.0
O176 O 0.91773 0.7202 0.54222 0.0
C177 C 0.84416 0.68713 0.66978 0.0
O178 O 0.82356 0.68854 0.62097 0.0
C179 C 0.85632 0.66493 0.46357 0.0
O180 O 0.85766 0.64881 0.52276 0.0
O181 O 0.85433 0.75121 0.55181 0.0
C182 C 0.30024 0.93322 0.52462 0.0
O183 O 0.32527 0.92088 0.5229 0.0
O184 O 0.30704 0.86231 0.47058 0.0
Zn185 Zn 0.2854 0.87771 0.55915 0.0
O186 O 0.30803 0.87405 0.65311 0.0
C187 C 0.23411 0.84816 0.51773 0.0
O188 O 0.24204 0.85552 0.45079 0.0
O189 O 0.27833 0.9188 0.54034 0.0
C190 C 0.31525 0.84963 0.67616 0.0
O191 O 0.30871 0.82702 0.63738 0.0
C192 C 0.30527 0.8368 0.44808 0.0
O193 O 0.29068 0.81823 0.48655 0.0
O194 O 0.24828 0.85699 0.57287 0.0
C195 C 0.05527 0.29773 0.48068 0.0
O196 O 0.07037 0.32113 0.48293 0.0
O197 O 0.12044 0.29272 0.36975 0.0
Zn198 Zn 0.10973 0.27433 0.46596 0.0
O199 O 0.12591 0.29576 0.55252 0.0
C200 C 0.15251 0.23422 0.46226 0.0
O201 O 0.16642 0.25827 0.45734 0.0
O202 O 0.06762 0.27389 0.47394 0.0
C203 C 0.1246 0.28449 0.61627 0.0
O204 O 0.11235 0.25964 0.624 0.0
C205 C 0.12907 0.31816 0.36421 0.0
O206 O 0.13144 0.33404 0.42366 0.0
O207 O 0.1256 0.23476 0.46591 0.0
C208 C 0.17676 0.50929 0.91266 0.0
C209 C 0.18402 0.52257 0.98055 0.0
C210 C 0.1936 0.47623 0.03704 0.0
C211 C 0.18446 0.46289 0.97074 0.0
N212 N 0.16451 0.46586 0.84799 0.0
N213 N 0.19521 0.51937 0.11047 0.0
C214 C 0.17509 0.47919 0.90935 0.0
C215 C 0.1915 0.50624 0.04356 0.0
N216 N 0.17276 0.52544 0.85057 0.0
N217 N 0.2042 0.4602 0.09386 0.0
H218 H 0.19363 0.5413 0.11755 0.0
H219 H 0.19758 0.50853 0.16027 0.0
H220 H 0.20432 0.43805 0.09345 0.0
H221 H 0.21444 0.46875 0.13976 0.0
H222 H 0.1705 0.51701 0.79765 0.0
H223 H 0.17394 0.54757 0.85069 0.0
H224 H 0.15411 0.47644 0.80526 0.0
H225 H 0.1646 0.44385 0.84146 0.0
C226 C 0.48379 0.18609 0.01814 0.0
C227 C 0.46779 0.19537 0.95624 0.0
C228 C 0.51155 0.20774 0.89079 0.0
C229 C 0.52753 0.19576 0.94956 0.0
N230 N 0.52901 0.16864 0.06294 0.0
N231 N 0.46612 0.21021 0.82839 0.0
C232 C 0.51371 0.18358 0.01167 0.0
C233 C 0.48155 0.20493 0.89103 0.0
N234 N 0.47051 0.18065 0.08392 0.0
N235 N 0.5249 0.22277 0.83623 0.0
H236 H 0.44409 0.20806 0.8259 0.0
H237 H 0.47536 0.2142 0.77708 0.0
H238 H 0.54684 0.22567 0.83459 0.0
H239 H 0.51403 0.23455 0.79647 0.0
H240 H 0.48142 0.17668 0.133 0.0
H241 H 0.44864 0.18282 0.09119 0.0
H242 H 0.51967 0.15681 0.10509 0.0
H243 H 0.55094 0.16575 0.05939 0.0
C244 C 0.79761 0.47966 0.08697 0.0
C245 C 0.80104 0.46782 0.01532 0.0
C246 C 0.80855 0.51511 0.96267 0.0
C247 C 0.80285 0.5271 0.03325 0.0
N248 N 0.7899 0.52179 0.16172 0.0
N249 N 0.80631 0.47354 0.88347 0.0
C250 C 0.7967 0.50965 0.09518 0.0
C251 C 0.80579 0.48532 0.95274 0.0
N252 N 0.79643 0.46217 0.14737 0.0
N253 N 0.81652 0.53222 0.90515 0.0
H254 H 0.80441 0.45176 0.87404 0.0
H255 H 0.80646 0.48533 0.83481 0.0
H256 H 0.81701 0.55431 0.90868 0.0
H257 H 0.82432 0.52456 0.85505 0.0
H258 H 0.79703 0.46938 0.2018 0.0
H259 H 0.79708 0.44007 0.14345 0.0
H260 H 0.78181 0.5105 0.20646 0.0
H261 H 0.79088 0.54362 0.17133 0.0
C262 C 0.50487 0.79311 0.95195 0.0
C263 C 0.52418 0.79676 0.01131 0.0
C264 C 0.48515 0.79506 0.10078 0.0
C265 C 0.46567 0.79345 0.04112 0.0
N266 N 0.45602 0.79582 0.91008 0.0
N267 N 0.53333 0.80446 0.14119 0.0
C268 C 0.47524 0.79368 0.96663 0.0
C269 C 0.51449 0.7988 0.08548 0.0
N270 N 0.51487 0.78893 0.88169 0.0
N271 N 0.47569 0.79176 0.17187 0.0
H272 H 0.55521 0.80585 0.13282 0.0
H273 H 0.52723 0.80956 0.19496 0.0
H274 H 0.45433 0.78888 0.18516 0.0
H275 H 0.4891 0.78959 0.21732 0.0
H276 H 0.50206 0.78284 0.8375 0.0
H277 H 0.53642 0.78969 0.86827 0.0
H278 H 0.46171 0.79926 0.85514 0.0
H279 H 0.43411 0.7966 0.91857 0.0
C280 C 0.69211 0.00879 0.56218 0.0
C281 C 0.68418 0.02488 0.49917 0.0
C282 C 0.67236 0.9813 0.43183 0.0
C283 C 0.68302 0.96522 0.49207 0.0
N284 N 0.70499 0.96282 0.61256 0.0
N285 N 0.67027 0.02706 0.3707 0.0
C286 C 0.69351 0.97873 0.5567 0.0
C287 C 0.67498 0.01134 0.43321 0.0
N288 N 0.69716 0.02224 0.628 0.0
N289 N 0.6598 0.96784 0.37329 0.0
H290 H 0.67221 0.04911 0.36907 0.0
H291 H 0.66668 0.0182 0.31876 0.0
H292 H 0.65877 0.94579 0.36849 0.0
H293 H 0.64865 0.97845 0.33189 0.0
H294 H 0.70013 0.01165 0.67795 0.0
H295 H 0.69595 0.04424 0.63418 0.0
H296 H 0.71613 0.97146 0.65689 0.0
H297 H 0.70483 0.94066 0.61268 0.0
C298 C 0.98169 0.69019 0.59322 0.0
C299 C 0.96357 0.69873 0.53459 0.0
C300 C 0.00481 0.70946 0.45683 0.0
C301 C 0.02274 0.69845 0.51292 0.0
N302 N 0.02897 0.67598 0.63176 0.0
N303 N 0.95709 0.71252 0.40705 0.0
C304 C 0.01138 0.68805 0.58032 0.0
C305 C 0.97488 0.7075 0.46548 0.0
N306 N 0.97062 0.68534 0.66208 0.0
N307 N 0.0164 0.72192 0.39554 0.0
H308 H 0.93504 0.71101 0.41087 0.0
H309 H 0.96414 0.71589 0.35317 0.0
H310 H 0.03824 0.72272 0.38595 0.0
H311 H 0.00457 0.73324 0.35677 0.0
H312 H 0.98296 0.68198 0.70906 0.0
H313 H 0.94899 0.68709 0.67389 0.0
H314 H 0.02171 0.66486 0.67779 0.0
H315 H 0.05102 0.67555 0.62628 0.0
C316 C 0.30044 0.01327 0.54803 0.0
C317 C 0.29663 0.02189 0.47341 0.0
C318 C 0.29137 0.97231 0.43451 0.0
C319 C 0.29772 0.96369 0.50781 0.0
N320 N 0.31049 0.97482 0.63363 0.0
N321 N 0.29014 0.0105 0.34439 0.0
C322 C 0.30274 0.98386 0.56454 0.0
C323 C 0.29251 0.00164 0.41623 0.0
N324 N 0.30173 0.03322 0.60302 0.0
N325 N 0.28384 0.95243 0.38287 0.0
H326 H 0.2893 0.03187 0.32935 0.0
H327 H 0.29046 -0.00315 0.29908 0.0
H328 H 0.28352 0.93068 0.39395 0.0
H329 H 0.27606 0.95738 0.33055 0.0
H330 H 0.30128 0.02839 0.65918 0.0
H331 H 0.30139 0.055 0.59283 0.0
H332 H 0.31773 0.98826 0.67524 0.0
H333 H 0.31132 0.95341 0.64843 0.0
C334 C 0.00813 0.28894 0.4218 0.0
C335 C 0.024 0.29919 0.48291 0.0
C336 C 0.98014 0.31329 0.54603 0.0
C337 C 0.9643 0.30043 0.48835 0.0
N338 N 0.96251 0.27361 0.37454 0.0
N339 N 0.02567 0.31756 0.60754 0.0
C340 C 0.9781 0.28743 0.42727 0.0
C341 C 0.01019 0.31059 0.54613 0.0
N342 N 0.02167 0.28203 0.35719 0.0
N343 N 0.96647 0.32819 0.60048 0.0
H344 H 0.04773 0.31579 0.60989 0.0
H345 H 0.0166 0.3229 0.65825 0.0
H346 H 0.94442 0.32972 0.60384 0.0
H347 H 0.97694 0.34075 0.63925 0.0
H348 H 0.01106 0.27734 0.30814 0.0
H349 H 0.04362 0.28351 0.35034 0.0
H350 H 0.97149 0.26076 0.33381 0.0
H351 H 0.94036 0.27348 0.37401 0.0
C352 C 0.29671 0.31763 0.03983 0.0
C353 C 0.27672 0.32021 0.98157 0.0
C354 C 0.3031 0.28482 0.90922 0.0
C355 C 0.31957 0.2786 0.97274 0.0
N356 N 0.33327 0.28898 0.09824 0.0
N357 N 0.25966 0.30538 0.86141 0.0
C358 C 0.31696 0.29523 0.03778 0.0
C359 C 0.2799 0.30404 0.91558 0.0
N360 N 0.29644 0.33691 0.09646 0.0
N361 N 0.30936 0.27197 0.84332 0.0
H362 H 0.24227 0.31902 0.86368 0.0
H363 H 0.25894 0.29154 0.81649 0.0
H364 H 0.32598 0.25746 0.83731 0.0
H365 H 0.2999 0.27762 0.79335 0.0
H366 H 0.31192 0.33779 0.13752 0.0
H367 H 0.28208 0.35382 0.09846 0.0
H368 H 0.33002 0.29788 0.15033 0.0
H369 H 0.34948 0.27382 0.09696 0.0
C370 C 0.69828 0.31787 0.06039 0.0
C371 C 0.70707 0.32611 0.98835 0.0
C372 C 0.67427 0.29201 0.93256 0.0
C373 C 0.66648 0.28285 0.00468 0.0
N374 N 0.66306 0.29347 0.13461 0.0
N375 N 0.69726 0.3281 0.85788 0.0
C376 C 0.67582 0.29805 0.06775 0.0
C377 C 0.69287 0.31553 0.92506 0.0
N378 N 0.71253 0.32725 0.12159 0.0
N379 N 0.66558 0.27727 0.87148 0.0
H380 H 0.7106 0.34561 0.85138 0.0
H381 H 0.68564 0.32314 0.81059 0.0
H382 H 0.6513 0.26047 0.87353 0.0
H383 H 0.6738 0.28066 0.81872 0.0
H384 H 0.70937 0.31891 0.17431 0.0
H385 H 0.72886 0.34209 0.11964 0.0
H386 H 0.66712 0.30571 0.18146 0.0
H387 H 0.64615 0.27936 0.14095 0.0
C388 C 0.7037 0.67285 0.95895 0.0
C389 C 0.7116 0.67068 0.03459 0.0
C390 C 0.67863 0.70891 0.0668 0.0
C391 C 0.66993 0.71047 0.99151 0.0
N392 N 0.66835 0.68878 0.87074 0.0
N393 N 0.70105 0.68063 0.16238 0.0
C394 C 0.68056 0.69068 0.93916 0.0
C395 C 0.69711 0.68669 0.08913 0.0
N396 N 0.71933 0.6595 0.90538 0.0
N397 N 0.67115 0.7297 0.11598 0.0
H398 H 0.71432 0.66423 0.18035 0.0
H399 H 0.68899 0.68981 0.20448 0.0
H400 H 0.65854 0.74703 0.10211 0.0
H401 H 0.67969 0.73119 0.16903 0.0
H402 H 0.71651 0.66325 0.84904 0.0
H403 H 0.73674 0.64652 0.91678 0.0
H404 H 0.67347 0.67293 0.8327 0.0
H405 H 0.651 0.70125 0.85507 0.0
C406 C 0.28636 0.67221 0.06832 0.0
C407 C 0.28067 0.66079 0.99695 0.0
C408 C 0.31871 0.68941 0.94305 0.0
C409 C 0.32293 0.70235 0.01298 0.0
N410 N 0.31706 0.7013 0.14532 0.0
N411 N 0.29657 0.65144 0.87285 0.0
C412 C 0.30901 0.6919 0.07686 0.0
C413 C 0.29867 0.66709 0.93637 0.0
N414 N 0.26896 0.66594 0.12663 0.0
N415 N 0.33319 0.69925 0.88272 0.0
H416 H 0.28235 0.63458 0.86758 0.0
H417 H 0.31049 0.65329 0.82836 0.0
H418 H 0.34928 0.71439 0.88687 0.0
H419 H 0.32866 0.69329 0.82853 0.0
H420 H 0.26945 0.67664 0.17703 0.0
H421 H 0.253 0.65074 0.12416 0.0
H422 H 0.30974 0.69255 0.19463 0.0
H423 H 0.33299 0.71634 0.1531 0.0
C424 C 0.7972 0.77913 0.5419 0.0
C425 C 0.82084 0.78221 0.49373 0.0
C426 C 0.79799 0.82358 0.43627 0.0
C427 C 0.77527 0.82117 0.48754 0.0
N428 N 0.75847 0.80294 0.60408 0.0
N429 N 0.84678 0.81117 0.40698 0.0
C430 C 0.77665 0.801 0.54534 0.0
C431 C 0.82221 0.80568 0.44455 0.0
N432 N 0.79303 0.7545 0.58021 0.0
N433 N 0.79594 0.84185 0.37783 0.0
H434 H 0.86503 0.79876 0.41284 0.0
H435 H 0.84991 0.82949 0.37575 0.0
H436 H 0.77875 0.85553 0.37037 0.0
H437 H 0.81035 0.84204 0.33408 0.0
H438 H 0.77463 0.75041 0.61046 0.0
H439 H 0.80621 0.73685 0.57484 0.0
H440 H 0.76014 0.79005 0.65078 0.0
H441 H 0.744 0.81962 0.60975 0.0
C442 C 0.21384 0.80349 0.57538 0.0
C443 C 0.21076 0.82726 0.52721 0.0
C444 C 0.16803 0.80573 0.47373 0.0
C445 C 0.1707 0.78274 0.52391 0.0
N446 N 0.18977 0.76537 0.63911 0.0
N447 N 0.17968 0.85484 0.44869 0.0
C448 C 0.19145 0.7836 0.58044 0.0
C449 C 0.18611 0.82963 0.4822 0.0
N450 N 0.23874 0.7983 0.61189 0.0
N451 N 0.14955 0.80422 0.41559 0.0
H452 H 0.19178 0.87314 0.45646 0.0
H453 H 0.16071 0.85836 0.42039 0.0
H454 H 0.13618 0.78698 0.40648 0.0
H455 H 0.14921 0.81912 0.37295 0.0
H456 H 0.24254 0.77959 0.6411 0.0
H457 H 0.2568 0.81073 0.60683 0.0
H458 H 0.20302 0.76683 0.68517 0.0
H459 H 0.17307 0.75103 0.6455 0.0
C460 C 0.18557 0.16365 0.519 0.0
C461 C 0.2089 0.16309 0.46935 0.0
C462 C 0.18819 0.20304 0.40159 0.0
C463 C 0.16849 0.20718 0.4598 0.0
N464 N 0.14931 0.19235 0.57769 0.0
N465 N 0.23435 0.18504 0.36757 0.0
C466 C 0.16703 0.1875 0.51911 0.0
C467 C 0.21059 0.18322 0.41086 0.0
N468 N 0.18099 0.14122 0.56544 0.0
N469 N 0.18538 0.21802 0.33723 0.0
H470 H 0.25203 0.17195 0.37362 0.0
H471 H 0.23768 0.20146 0.32996 0.0
H472 H 0.16865 0.2322 0.32819 0.0
H473 H 0.19764 0.21403 0.29031 0.0
H474 H 0.16286 0.13926 0.59809 0.0
H475 H 0.1939 0.12317 0.56546 0.0
H476 H 0.14996 0.18049 0.62632 0.0
H477 H 0.13535 0.2095 0.58025 0.0
C478 C 0.81748 0.18916 0.57316 0.0
C479 C 0.8217 0.20886 0.51497 0.0
C480 C 0.78817 0.1827 0.43723 0.0
C481 C 0.78016 0.16653 0.49974 0.0
N482 N 0.78703 0.15329 0.62742 0.0
N483 N 0.81077 0.22529 0.39148 0.0
C484 C 0.79515 0.16901 0.5675 0.0
C485 C 0.80742 0.20557 0.44627 0.0
N486 N 0.83502 0.18973 0.63342 0.0
N487 N 0.77732 0.176 0.36926 0.0
H488 H 0.82491 0.24218 0.39531 0.0
H489 H 0.79827 0.22601 0.344 0.0
H490 H 0.76338 0.15905 0.36136 0.0
H491 H 0.78417 0.18526 0.32011 0.0
H492 H 0.83482 0.17441 0.67492 0.0
H493 H 0.85164 0.20424 0.63846 0.0
H494 H 0.79458 0.15674 0.68081 0.0
H495 H 0.77155 0.13753 0.62457 0.0
C496 C 0.1581 0.31457 0.24859 0.0
C497 C 0.13738 0.32933 0.29084 0.0
C498 C 0.13349 0.36528 0.19326 0.0
C499 C 0.15196 0.34883 0.14825 0.0
N500 N 0.17647 0.30451 0.12647 0.0
N501 N 0.10134 0.36584 0.29799 0.0
C502 C 0.16274 0.3225 0.174 0.0
C503 C 0.12394 0.35395 0.2618 0.0
N504 N 0.17427 0.29379 0.28054 0.0
N505 N 0.12589 0.3921 0.17199 0.0
H506 H 0.09337 0.35789 0.34766 0.0
H507 H 0.08887 0.38195 0.27539 0.0
H508 H 0.13258 0.40122 0.12239 0.0
H509 H 0.115 0.40618 0.20636 0.0
H510 H 0.19156 0.28429 0.25422 0.0
H511 H 0.17239 0.28819 0.33608 0.0
H512 H 0.1823 0.28385 0.14063 0.0
H513 H 0.17931 0.30909 0.07052 0.0
C514 C 0.63112 0.13356 0.30565 0.0
C515 C 0.6588 0.14236 0.32657 0.0
C516 C 0.66597 0.16295 0.2037 0.0
C517 C 0.6371 0.1575 0.18634 0.0
N518 N 0.59067 0.14185 0.22573 0.0
N519 N 0.70053 0.17044 0.30044 0.0
C520 C 0.61921 0.14388 0.23855 0.0
C521 C 0.67572 0.15841 0.27693 0.0
N522 N 0.6166 0.1145 0.34824 0.0
N523 N 0.68438 0.17145 0.14961 0.0
H524 H 0.70801 0.16852 0.35444 0.0
H525 H 0.71216 0.18474 0.26863 0.0
H526 H 0.6783 0.17396 0.09454 0.0
H527 H 0.70623 0.17299 0.15772 0.0
H528 H 0.59762 0.10513 0.33157 0.0
H529 H 0.62483 0.10588 0.39688 0.0
H530 H 0.57626 0.13488 0.26551 0.0
H531 H 0.58098 0.14957 0.17791 0.0
C532 C 0.85937 0.62978 0.35843 0.0
C533 C 0.84595 0.65355 0.39207 0.0
C534 C 0.81858 0.66193 0.27902 0.0
C535 C 0.82989 0.63664 0.24795 0.0
N536 N 0.85619 0.593 0.26506 0.0
N537 N 0.80757 0.68771 0.39122 0.0
C538 C 0.84889 0.6195 0.28966 0.0
C539 C 0.82393 0.66825 0.35443 0.0
N540 N 0.88292 0.61784 0.38996 0.0
N541 N 0.80398 0.68074 0.23573 0.0
H542 H 0.8101 0.69217 0.4474 0.0
H543 H 0.78956 0.69707 0.36811 0.0
H544 H 0.80095 0.6777 0.17917 0.0
H545 H 0.79769 0.70078 0.2541 0.0
H546 H 0.89527 0.60249 0.3635 0.0
H547 H 0.89172 0.62504 0.43945 0.0
H548 H 0.86766 0.57856 0.29697 0.0
H549 H 0.8484 0.58436 0.21596 0.0
C550 C 0.31038 0.8426 0.3099 0.0
C551 C 0.31791 0.82817 0.37629 0.0
C552 C 0.34255 0.79152 0.30408 0.0
C553 C 0.33623 0.80669 0.23829 0.0
N554 N 0.32019 0.84979 0.17959 0.0
N555 N 0.34699 0.79312 0.4376 0.0
C556 C 0.32201 0.83322 0.24155 0.0
C557 C 0.3358 0.80389 0.37365 0.0
N558 N 0.29093 0.86422 0.31109 0.0
N559 N 0.35373 0.76472 0.3002 0.0
H560 H 0.34309 0.80211 0.48943 0.0
H561 H 0.36238 0.7772 0.43857 0.0
H562 H 0.35876 0.75472 0.25036 0.0
H563 H 0.35573 0.75144 0.34599 0.0
H564 H 0.28212 0.87298 0.26339 0.0
H565 H 0.28167 0.87202 0.35928 0.0
H566 H 0.31285 0.87068 0.18038 0.0
H567 H 0.32856 0.84366 0.12854 0.0
C568 C 0.12063 0.63647 0.71596 0.0
C569 C 0.13624 0.65777 0.67803 0.0
C570 C 0.16674 0.66378 0.78658 0.0
C571 C 0.15341 0.64027 0.82087 0.0
N572 N 0.12131 0.60049 0.81158 0.0
N573 N 0.17865 0.68648 0.67093 0.0
C574 C 0.13136 0.6255 0.78374 0.0
C575 C 0.16064 0.66993 0.7115 0.0
N576 N 0.09494 0.62761 0.68952 0.0
N577 N 0.18426 0.68106 0.82654 0.0
H578 H 0.17584 0.69018 0.61454 0.0
H579 H 0.19804 0.69378 0.69118 0.0
H580 H 0.18784 0.67821 0.88299 0.0
H581 H 0.19247 0.69999 0.80582 0.0
H582 H 0.0814 0.61441 0.71938 0.0
H583 H 0.08581 0.63552 0.64122 0.0
H584 H 0.10741 0.58738 0.78256 0.0
H585 H 0.12888 0.59147 0.86043 0.0
C586 C 0.352 0.15696 0.64006 0.0
C587 C 0.33008 0.13642 0.64015 0.0
C588 C 0.3211 0.1454 0.77176 0.0
C589 C 0.34084 0.16811 0.76961 0.0
N590 N 0.37206 0.19851 0.69925 0.0
N591 N 0.29162 0.11262 0.70275 0.0
C592 C 0.35571 0.17458 0.70325 0.0
C593 C 0.314 0.13107 0.70509 0.0
N594 N 0.3692 0.15963 0.5795 0.0
N595 N 0.31004 0.13675 0.838 0.0
H596 H 0.28656 0.10063 0.65603 0.0
H597 H 0.27693 0.1105 0.74547 0.0
H598 H 0.31498 0.14646 0.88822 0.0
H599 H 0.29798 0.1184 0.84432 0.0
H600 H 0.38748 0.17204 0.5789 0.0
H601 H 0.36648 0.14766 0.53142 0.0
H602 H 0.38094 0.20602 0.65028 0.0
H603 H 0.37474 0.21247 0.74353 0.0
C604 C 0.80658 0.3463 0.75355 0.0
C605 C 0.82471 0.3487 0.81623 0.0
C606 C 0.86593 0.33648 0.73945 0.0
C607 C 0.84799 0.3353 0.67653 0.0
N608 N 0.80244 0.34396 0.61989 0.0
N609 N 0.87216 0.35305 0.86536 0.0
C610 C 0.81872 0.34198 0.68236 0.0
C611 C 0.85458 0.34577 0.8082 0.0
N612 N 0.77772 0.34637 0.76232 0.0
N613 N 0.89373 0.32829 0.73378 0.0
H614 H 0.86467 0.36088 0.91576 0.0
H615 H 0.89418 0.35409 0.86049 0.0
H616 H 0.90314 0.32259 0.68366 0.0
H617 H 0.90697 0.32537 0.77933 0.0
H618 H 0.76354 0.34118 0.72025 0.0
H619 H 0.76772 0.34933 0.81308 0.0
H620 H 0.78181 0.352 0.61966 0.0
H621 H 0.81026 0.33966 0.56707 0.0
C622 C 0.65941 0.81848 0.75671 0.0
C623 C 0.63329 0.82877 0.78536 0.0
C624 C 0.62663 0.85781 0.67414 0.0
C625 C 0.65132 0.84528 0.64282 0.0
N626 N 0.68676 0.80821 0.64678 0.0
N627 N 0.58919 0.85393 0.76565 0.0
C628 C 0.66641 0.82396 0.6819 0.0
C629 C 0.61603 0.84725 0.74248 0.0
N630 N 0.67823 0.80472 0.80181 0.0
N631 N 0.61396 0.88052 0.64042 0.0
H632 H 0.58051 0.84626 0.81483 0.0
H633 H 0.57463 0.8649 0.7329 0.0
H634 H 0.62116 0.88904 0.59062 0.0
H635 H 0.59782 0.89242 0.66501 0.0
H636 H 0.69869 0.79914 0.78515 0.0
H637 H 0.67462 0.80177 0.85821 0.0
H638 H 0.69654 0.79061 0.67085 0.0
H639 H 0.69156 0.8108 0.59086 0.0
C640 C 0.81789 0.69501 0.78818 0.0
C641 C 0.83786 0.67885 0.74699 0.0
C642 C 0.84566 0.64791 0.85425 0.0
C643 C 0.82325 0.66204 0.8919 0.0
N644 N 0.78429 0.6956 0.88927 0.0
N645 N 0.86869 0.63803 0.73679 0.0
C646 C 0.80837 0.68473 0.85758 0.0
C647 C 0.85135 0.65484 0.77902 0.0
N648 N 0.80878 0.72076 0.76232 0.0
N649 N 0.8619 0.62837 0.89101 0.0
H650 H 0.87337 0.64246 0.68158 0.0
H651 H 0.87666 0.61855 0.7545 0.0
H652 H 0.85832 0.62288 0.94616 0.0
H653 H 0.88033 0.61942 0.86913 0.0
H654 H 0.79646 0.73474 0.79355 0.0
H655 H 0.816 0.72952 0.71282 0.0
H656 H 0.77082 0.7098 0.86225 0.0
H657 H 0.77617 0.68851 0.93962 0.0
C658 C 0.30829 0.83786 0.80927 0.0
C659 C 0.32684 0.84623 0.75146 0.0
C660 C 0.36743 0.84481 0.83639 0.0
C661 C 0.34944 0.8331 0.89144 0.0
N662 N 0.3031 0.81837 0.9328 0.0
N663 N 0.37368 0.85746 0.70693 0.0
C664 C 0.31989 0.8298 0.87874 0.0
C665 C 0.35629 0.85004 0.76439 0.0
N666 N 0.27954 0.83822 0.79789 0.0
N667 N 0.39515 0.85068 0.85306 0.0
H668 H 0.36602 0.86213 0.65412 0.0
H669 H 0.39574 0.85764 0.70995 0.0
H670 H 0.4041 0.84634 0.90463 0.0
H671 H 0.40886 0.86156 0.81802 0.0
H672 H 0.2646 0.83507 0.83949 0.0
H673 H 0.27035 0.84384 0.74742 0.0
H674 H 0.28224 0.81186 0.92443 0.0
H675 H 0.31046 0.81429 0.98619 0.0
C676 C 0.12096 0.30332 0.74601 0.0
C677 C 0.13746 0.29878 0.6812 0.0
C678 C 0.1779 0.32268 0.73948 0.0
C679 C 0.16251 0.32407 0.8068 0.0
N680 N 0.12071 0.31275 0.87792 0.0
N681 N 0.18344 0.29909 0.62155 0.0
C682 C 0.13442 0.31345 0.81125 0.0
C683 C 0.16639 0.30728 0.67903 0.0
N684 N 0.09224 0.29915 0.74436 0.0
N685 N 0.20359 0.33597 0.73319 0.0
H686 H 0.17628 0.28673 0.57762 0.0
H687 H 0.20537 0.30199 0.62109 0.0
H688 H 0.2132 0.34681 0.77678 0.0
H689 H 0.21423 0.33831 0.68303 0.0
H690 H 0.07872 0.30493 0.78748 0.0
H691 H 0.08144 0.29244 0.69714 0.0
H692 H 0.10151 0.30226 0.88621 0.0
H693 H 0.12951 0.32092 0.92641 0.0
C694 C 0.68439 0.17909 0.78831 0.0
C695 C 0.6677 0.16471 0.84181 0.0
C696 C 0.66932 0.12126 0.76694 0.0
C697 C 0.68791 0.13502 0.71678 0.0
N698 N 0.71721 0.17528 0.68573 0.0
N699 N 0.64775 0.12118 0.88887 0.0
C700 C 0.69655 0.16348 0.72904 0.0
C701 C 0.66102 0.13552 0.83295 0.0
N702 N 0.68772 0.20789 0.79246 0.0
N703 N 0.65895 0.09491 0.75032 0.0
H704 H 0.64155 0.13089 0.93821 0.0
H705 H 0.64501 0.09925 0.88918 0.0
H706 H 0.66471 0.0838 0.7026 0.0
H707 H 0.64296 0.085 0.78051 0.0
H708 H 0.69679 0.21999 0.75046 0.0
H709 H 0.67922 0.22015 0.83507 0.0
H710 H 0.72682 0.19467 0.6974 0.0
H711 H 0.72658 0.16461 0.64149 0.0
C712 C 0.83874 0.30107 0.25998 0.0
C713 C 0.83089 0.31602 0.32527 0.0
C714 C 0.80102 0.34811 0.25221 0.0
C715 C 0.81044 0.3344 0.18656 0.0
N716 N 0.84261 0.30189 0.12629 0.0
N717 N 0.80968 0.35726 0.38222 0.0
C718 C 0.83064 0.31209 0.18996 0.0
C719 C 0.81354 0.34061 0.32099 0.0
N720 N 0.85265 0.27559 0.2647 0.0
N721 N 0.77912 0.36723 0.24956 0.0
H722 H 0.81895 0.35264 0.43326 0.0
H723 H 0.79967 0.377 0.38071 0.0
H724 H 0.76899 0.3731 0.20058 0.0
H725 H 0.76928 0.37541 0.29664 0.0
H726 H 0.85585 0.26224 0.21945 0.0
H727 H 0.85888 0.26644 0.31461 0.0
H728 H 0.85968 0.28777 0.12569 0.0
H729 H 0.83729 0.3096 0.07399 0.0
C730 C 0.67533 0.8504 0.12621 0.0
C731 C 0.66039 0.82444 0.13337 0.0
C732 C 0.6712 0.82306 0.26582 0.0
C733 C 0.68474 0.8499 0.25976 0.0
N734 N 0.69387 0.89212 0.18805 0.0
N735 N 0.63869 0.78912 0.21224 0.0
C736 C 0.68521 0.86444 0.19094 0.0
C737 C 0.65641 0.81187 0.20396 0.0
N738 N 0.68017 0.86159 0.05757 0.0
N739 N 0.67401 0.80726 0.32888 0.0
H740 H 0.62816 0.77941 0.16836 0.0
H741 H 0.63247 0.78134 0.26369 0.0
H742 H 0.68532 0.81403 0.37504 0.0
H743 H 0.66752 0.78618 0.33296 0.0
H744 H 0.69388 0.87853 0.04811 0.0
H745 H 0.67176 0.85287 0.00924 0.0
H746 H 0.69207 0.90473 0.14095 0.0
H747 H 0.70025 0.90346 0.23477 0.0
C748 C 0.16201 0.64501 0.31516 0.0
C749 C 0.1521 0.67327 0.32428 0.0
C750 C 0.15767 0.68112 0.19104 0.0
C751 C 0.172 0.6547 0.18454 0.0
N752 N 0.19307 0.61401 0.24589 0.0
N753 N 0.14606 0.72028 0.27202 0.0
C754 C 0.1755 0.63716 0.24793 0.0
C755 C 0.15124 0.69192 0.26249 0.0
N756 N 0.158 0.62543 0.36992 0.0
N757 N 0.14958 0.69564 0.12906 0.0
H758 H 0.14284 0.72964 0.32363 0.0
H759 H 0.14807 0.73503 0.22938 0.0
H760 H 0.15296 0.68789 0.07566 0.0
H761 H 0.13677 0.71373 0.13093 0.0
H762 H 0.1625 0.6039 0.36301 0.0
H763 H 0.14727 0.63008 0.41898 0.0
H764 H 0.19837 0.60237 0.29297 0.0
H765 H 0.20488 0.60821 0.1995 0.0
C766 C 0.30692 0.14744 0.20467 0.0
C767 C 0.32539 0.14606 0.26668 0.0
C768 C 0.36644 0.1549 0.18658 0.0
C769 C 0.34773 0.15882 0.12591 0.0
N770 N 0.30007 0.16272 0.0778 0.0
N771 N 0.37211 0.1508 0.31972 0.0
C772 C 0.31794 0.15588 0.13486 0.0
C773 C 0.35501 0.15049 0.25853 0.0
N774 N 0.2788 0.1408 0.21258 0.0
N775 N 0.39514 0.15449 0.17471 0.0
H776 H 0.36466 0.14637 0.37285 0.0
H777 H 0.39329 0.1571 0.31878 0.0
H778 H 0.40409 0.15728 0.12242 0.0
H779 H 0.40998 0.14903 0.21496 0.0
H780 H 0.26502 0.13799 0.16814 0.0
H781 H 0.26944 0.13623 0.2635 0.0
H782 H 0.27812 0.16437 0.08334 0.0
H783 H 0.30723 0.16895 0.02569 0.0
loop_
_geom_bond_atom_site_label_1
_geom_bond_atom_site_label_2
_geom_bond_distance
_geom_bond_site_symmetry_2
_ccdc_geom_bond_type
C0 O1 1.160 . S
C0 O7 1.185 1_554 S
O1 C0 1.160 . S
O2 Zn3 1.899 . S
O2 C10 1.284 . S
Zn3 O2 1.899 . S
Zn3 O4 2.032 1_554 S
Zn3 O7 2.086 1_554 S
Zn3 O12 1.977 1_554 S
O4 Zn3 2.032 1_556 S
O4 C8 1.278 . S
C5 O6 1.203 . S
C5 O12 1.267 1_554 S
O6 C5 1.203 . S
O7 C0 1.185 1_556 S
O7 Zn3 2.086 1_556 S
C8 O4 1.278 . S
C8 O9 1.211 . S
O9 C8 1.211 . S
C10 O2 1.284 . S
C10 O11 1.273 . S
O11 C10 1.273 . S
O12 Zn3 1.977 1_556 S
O12 C5 1.267 1_556 S
C13 O14 1.160 . S
C13 O20 1.185 1_554 S
O14 C13 1.160 . S
O15 Zn16 1.899 . S
O15 C23 1.284 . S
Zn16 O15 1.899 . S
Zn16 O17 2.032 1_554 S
Zn16 O20 2.086 1_554 S
Zn16 O25 1.977 1_554 S
O17 Zn16 2.032 1_556 S
O17 C21 1.278 . S
C18 O19 1.203 . S
C18 O25 1.267 1_554 S
O19 C18 1.203 . S
O20 C13 1.185 1_556 S
O20 Zn16 2.086 1_556 S
C21 O17 1.278 . S
C21 O22 1.211 . S
O22 C21 1.211 . S
C23 O15 1.284 . S
C23 O24 1.273 . S
O24 C23 1.273 . S
O25 Zn16 1.977 1_556 S
O25 C18 1.267 1_556 S
C26 O27 1.160 . S
C26 O33 1.185 1_554 S
O27 C26 1.160 . S
O28 Zn29 1.899 . S
O28 C36 1.284 . S
Zn29 O28 1.899 . S
Zn29 O30 2.032 1_554 S
Zn29 O33 2.086 1_554 S
Zn29 O38 1.977 1_554 S
O30 Zn29 2.032 1_556 S
O30 C34 1.278 . S
C31 O32 1.203 . S
C31 O38 1.267 1_554 S
O32 C31 1.203 . S
O33 C26 1.185 1_556 S
O33 Zn29 2.086 1_556 S
C34 O30 1.278 . S
C34 O35 1.211 . S
O35 C34 1.211 . S
C36 O28 1.284 . S
C36 O37 1.273 . S
O37 C36 1.273 . S
O38 Zn29 1.977 1_556 S
O38 C31 1.267 1_556 S
C39 O40 1.160 . S
C39 O46 1.185 1_554 S
O40 C39 1.160 . S
O41 Zn42 1.899 . S
O41 C49 1.284 . S
Zn42 O41 1.899 . S
Zn42 O43 2.032 1_554 S
Zn42 O46 2.086 1_554 S
Zn42 O51 1.977 1_554 S
O43 Zn42 2.032 1_556 S
O43 C47 1.278 . S
C44 O45 1.203 . S
C44 O51 1.267 1_554 S
O45 C44 1.203 . S
O46 C39 1.185 1_556 S
O46 Zn42 2.086 1_556 S
C47 O43 1.278 . S
C47 O48 1.211 . S
O48 C47 1.211 . S
C49 O41 1.284 . S
C49 O50 1.273 . S
O50 C49 1.273 . S
O51 Zn42 1.977 1_556 S
O51 C44 1.267 1_556 S
C52 O53 1.160 . S
C52 O59 1.185 1_556 S
O53 C52 1.160 . S
O54 Zn55 1.899 . S
O54 C62 1.284 . S
Zn55 O54 1.899 . S
Zn55 O56 2.032 1_556 S
Zn55 O59 2.086 1_556 S
Zn55 O64 1.977 1_556 S
O56 Zn55 2.032 1_554 S
O56 C60 1.278 . S
C57 O58 1.203 . S
C57 O64 1.267 1_556 S
O58 C57 1.203 . S
O59 C52 1.185 1_554 S
O59 Zn55 2.086 1_554 S
C60 O56 1.278 . S
C60 O61 1.211 . S
O61 C60 1.211 . S
C62 O54 1.284 . S
C62 O63 1.273 . S
O63 C62 1.273 . S
O64 Zn55 1.977 1_554 S
O64 C57 1.267 1_554 S
C65 O66 1.160 . S
C65 O72 1.185 1_556 S
O66 C65 1.160 . S
O67 Zn68 1.899 . S
O67 C75 1.284 . S
Zn68 O67 1.899 . S
Zn68 O69 2.032 1_556 S
Zn68 O72 2.086 1_556 S
Zn68 O77 1.977 1_556 S
O69 Zn68 2.032 1_554 S
O69 C73 1.278 . S
C70 O71 1.203 . S
C70 O77 1.267 1_556 S
O71 C70 1.203 . S
O72 C65 1.185 1_554 S
O72 Zn68 2.086 1_554 S
C73 O69 1.278 . S
C73 O74 1.211 . S
O74 C73 1.211 . S
C75 O67 1.284 . S
C75 O76 1.273 . S
O76 C75 1.273 . S
O77 Zn68 1.977 1_554 S
O77 C70 1.267 1_554 S
C78 O79 1.160 . S
C78 O85 1.185 1_556 S
O79 C78 1.160 . S
O80 Zn81 1.899 . S
O80 C88 1.284 . S
Zn81 O80 1.899 . S
Zn81 O82 2.032 1_556 S
Zn81 O85 2.086 1_556 S
Zn81 O90 1.977 1_556 S
O82 Zn81 2.032 1_554 S
O82 C86 1.278 . S
C83 O84 1.203 . S
C83 O90 1.267 1_556 S
O84 C83 1.203 . S
O85 C78 1.185 1_554 S
O85 Zn81 2.086 1_554 S
C86 O82 1.278 . S
C86 O87 1.211 . S
O87 C86 1.211 . S
C88 O80 1.284 . S
C88 O89 1.273 . S
O89 C88 1.273 . S
O90 Zn81 1.977 1_554 S
O90 C83 1.267 1_554 S
C91 O92 1.160 . S
C91 O98 1.185 1_556 S
O92 C91 1.160 . S
O93 Zn94 1.899 . S
O93 C101 1.284 . S
Zn94 O93 1.899 . S
Zn94 O95 2.032 1_556 S
Zn94 O98 2.086 1_556 S
Zn94 O103 1.977 1_556 S
O95 Zn94 2.032 1_554 S
O95 C99 1.278 . S
C96 O97 1.203 . S
C96 O103 1.267 1_556 S
O97 C96 1.203 . S
O98 C91 1.185 1_554 S
O98 Zn94 2.086 1_554 S
C99 O95 1.278 . S
C99 O100 1.211 . S
O100 C99 1.211 . S
C101 O93 1.284 . S
C101 O102 1.273 . S
O102 C101 1.273 . S
O103 Zn94 1.977 1_554 S
O103 C96 1.267 1_554 S
C104 O105 1.160 . S
C104 O111 1.185 . S
O105 C104 1.160 . S
O106 Zn107 1.899 . S
O106 C114 1.284 . S
Zn107 O106 1.899 . S
Zn107 O108 2.032 . S
Zn107 O111 2.086 . S
Zn107 O116 1.977 . S
O108 Zn107 2.032 . S
O108 C112 1.278 . S
C109 O110 1.203 . S
C109 O116 1.267 . S
O110 C109 1.203 . S
O111 C104 1.185 . S
O111 Zn107 2.086 . S
C112 O108 1.278 . S
C112 O113 1.211 . S
O113 C112 1.211 . S
C114 O106 1.284 . S
C114 O115 1.273 . S
O115 C114 1.273 . S
O116 Zn107 1.977 . S
O116 C109 1.267 . S
C117 O118 1.160 . S
C117 O124 1.185 . S
O118 C117 1.160 . S
O119 Zn120 1.899 . S
O119 C127 1.284 . S
Zn120 O119 1.899 . S
Zn120 O121 2.032 . S
Zn120 O124 2.086 . S
Zn120 O129 1.977 . S
O121 Zn120 2.032 . S
O121 C125 1.278 . S
C122 O123 1.203 . S
C122 O129 1.267 . S
O123 C122 1.203 . S
O124 C117 1.185 . S
O124 Zn120 2.086 . S
C125 O121 1.278 . S
C125 O126 1.211 . S
O126 C125 1.211 . S
C127 O119 1.284 . S
C127 O128 1.273 . S
O128 C127 1.273 . S
O129 Zn120 1.977 . S
O129 C122 1.267 . S
C130 O131 1.160 . S
C130 O137 1.185 . S
O131 C130 1.160 . S
O132 Zn133 1.899 . S
O132 C140 1.284 . S
Zn133 O132 1.899 . S
Zn133 O134 2.032 . S
Zn133 O137 2.086 . S
Zn133 O142 1.977 . S
O134 Zn133 2.032 . S
O134 C138 1.278 . S
C135 O136 1.203 . S
C135 O142 1.267 . S
O136 C135 1.203 . S
O137 C130 1.185 . S
O137 Zn133 2.086 . S
C138 O134 1.278 . S
C138 O139 1.211 . S
O139 C138 1.211 . S
C140 O132 1.284 . S
C140 O141 1.273 . S
O141 C140 1.273 . S
O142 Zn133 1.977 . S
O142 C135 1.267 . S
C143 O144 1.160 . S
C143 O150 1.185 . S
O144 C143 1.160 . S
O145 Zn146 1.899 . S
O145 C153 1.284 . S
Zn146 O145 1.899 . S
Zn146 O147 2.032 . S
Zn146 O150 2.086 . S
Zn146 O155 1.977 . S
O147 Zn146 2.032 . S
O147 C151 1.278 . S
C148 O149 1.203 . S
C148 O155 1.267 . S
O149 C148 1.203 . S
O150 C143 1.185 . S
O150 Zn146 2.086 . S
C151 O147 1.278 . S
C151 O152 1.211 . S
O152 C151 1.211 . S
C153 O145 1.284 . S
C153 O154 1.273 . S
O154 C153 1.273 . S
O155 Zn146 1.977 . S
O155 C148 1.267 . S
C156 O157 1.160 . S
C156 O163 1.185 . S
O157 C156 1.160 . S
O158 Zn159 1.899 . S
O158 C166 1.284 . S
Zn159 O158 1.899 . S
Zn159 O160 2.032 . S
Zn159 O163 2.086 . S
Zn159 O168 1.977 . S
O160 Zn159 2.032 . S
O160 C164 1.278 . S
C161 O162 1.203 . S
C161 O168 1.267 . S
O162 C161 1.203 . S
O163 C156 1.185 . S
O163 Zn159 2.086 . S
C164 O160 1.278 . S
C164 O165 1.211 . S
O165 C164 1.211 . S
C166 O158 1.284 . S
C166 O167 1.273 . S
O167 C166 1.273 . S
O168 Zn159 1.977 . S
O168 C161 1.267 . S
C169 O170 1.160 . S
C169 O176 1.185 . S
O170 C169 1.160 . S
O171 Zn172 1.899 . S
O171 C179 1.284 . S
Zn172 O171 1.899 . S
Zn172 O173 2.032 . S
Zn172 O176 2.086 . S
Zn172 O181 1.977 . S
O173 Zn172 2.032 . S
O173 C177 1.278 . S
C174 O175 1.203 . S
C174 O181 1.267 . S
O175 C174 1.203 . S
O176 C169 1.185 . S
O176 Zn172 2.086 . S
C177 O173 1.278 . S
C177 O178 1.211 . S
O178 C177 1.211 . S
C179 O171 1.284 . S
C179 O180 1.273 . S
O180 C179 1.273 . S
O181 Zn172 1.977 . S
O181 C174 1.267 . S
C182 O183 1.160 . S
C182 O189 1.185 . S
O183 C182 1.160 . S
O184 Zn185 1.899 . S
O184 C192 1.284 . S
Zn185 O184 1.899 . S
Zn185 O186 2.032 . S
Zn185 O189 2.086 . S
Zn185 O194 1.977 . S
O186 Zn185 2.032 . S
O186 C190 1.278 . S
C187 O188 1.203 . S
C187 O194 1.267 . S
O188 C187 1.203 . S
O189 C182 1.185 . S
O189 Zn185 2.086 . S
C190 O186 1.278 . S
C190 O191 1.211 . S
O191 C190 1.211 . S
C192 O184 1.284 . S
C192 O193 1.273 . S
O193 C192 1.273 . S
O194 Zn185 1.977 . S
O194 C187 1.267 . S
C195 O196 1.160 . S
C195 O202 1.185 . S
O196 C195 1.160 . S
O197 Zn198 1.899 . S
O197 C205 1.284 . S
Zn198 O197 1.899 . S
Zn198 O199 2.032 . S
Zn198 O202 2.086 . S
Zn198 O207 1.977 . S
O199 Zn198 2.032 . S
O199 C203 1.278 . S
C200 O201 1.203 . S
C200 O207 1.267 . S
O201 C200 1.203 . S
O202 C195 1.185 . S
O202 Zn198 2.086 . S
C203 O199 1.278 . S
C203 O204 1.211 . S
O204 C203 1.211 . S
C205 O197 1.284 . S
C205 O206 1.273 . S
O206 C205 1.273 . S
O207 Zn198 1.977 . S
O207 C200 1.267 . S
C208 C209 1.363 1_556 S
C208 C214 1.379 . S
C208 N216 1.356 . S
C209 C208 1.363 1_554 S
C209 C215 1.363 . S
C210 C211 1.363 1_554 S
C210 C215 1.379 . S
C210 N217 1.356 . S
C211 C210 1.363 1_556 S
C211 C214 1.363 . S
N212 C214 1.356 . S
N212 H224 0.984 . S
N212 H225 0.985 . S
N213 C215 1.356 . S
N213 H218 0.984 . S
N213 H219 0.985 . S
C214 C208 1.379 . S
C214 C211 1.363 . S
C214 N212 1.356 . S
C215 C209 1.363 . S
C215 C210 1.379 . S
C215 N213 1.356 . S
N216 C208 1.356 . S
N216 H222 0.984 . S
N216 H223 0.984 . S
N217 C210 1.356 . S
N217 H220 0.984 . S
N217 H221 0.985 . S
H218 N213 0.984 . S
H219 N213 0.985 . S
H220 N217 0.984 . S
H221 N217 0.985 . S
H222 N216 0.984 . S
H223 N216 0.984 . S
H224 N212 0.984 . S
H225 N212 0.985 . S
C226 C227 1.363 . S
C226 C232 1.379 . S
C226 N234 1.356 . S
C227 C226 1.363 . S
C227 C233 1.363 1_554 S
C228 C229 1.363 . S
C228 C233 1.379 . S
C228 N235 1.356 . S
C229 C228 1.363 . S
C229 C232 1.363 1_556 S
N230 C232 1.356 . S
N230 H242 0.984 . S
N230 H243 0.985 . S
N231 C233 1.356 . S
N231 H236 0.984 . S
N231 H237 0.985 . S
C232 C226 1.379 . S
C232 C229 1.363 1_554 S
C232 N230 1.356 . S
C233 C227 1.363 1_556 S
C233 C228 1.379 . S
C233 N231 1.356 . S
N234 C226 1.356 . S
N234 H240 0.984 . S
N234 H241 0.984 . S
N235 C228 1.356 . S
N235 H238 0.984 . S
N235 H239 0.985 . S
H236 N231 0.984 . S
H237 N231 0.985 . S
H238 N235 0.984 . S
H239 N235 0.985 . S
H240 N234 0.984 . S
H241 N234 0.984 . S
H242 N230 0.984 . S
H243 N230 0.985 . S
C244 C245 1.363 . S
C244 C250 1.379 . S
C244 N252 1.356 . S
C245 C244 1.363 . S
C245 C251 1.363 1_554 S
C246 C247 1.363 . S
C246 C251 1.379 . S
C246 N253 1.356 . S
C247 C246 1.363 . S
C247 C250 1.363 1_556 S
N248 C250 1.356 . S
N248 H260 0.984 . S
N248 H261 0.985 . S
N249 C251 1.356 . S
N249 H254 0.984 . S
N249 H255 0.985 . S
C250 C244 1.379 . S
C250 C247 1.363 1_554 S
C250 N248 1.356 . S
C251 C245 1.363 1_556 S
C251 C246 1.379 . S
C251 N249 1.356 . S
N252 C244 1.356 . S
N252 H258 0.984 . S
N252 H259 0.984 . S
N253 C246 1.356 . S
N253 H256 0.984 . S
N253 H257 0.985 . S
H254 N249 0.984 . S
H255 N249 0.985 . S
H256 N253 0.984 . S
H257 N253 0.985 . S
H258 N252 0.984 . S
H259 N252 0.984 . S
H260 N248 0.984 . S
H261 N248 0.985 . S
C262 C263 1.363 1_556 S
C262 C268 1.379 . S
C262 N270 1.356 . S
C263 C262 1.363 1_554 S
C263 C269 1.363 . S
C264 C265 1.363 1_554 S
C264 C269 1.379 . S
C264 N271 1.356 . S
C265 C264 1.363 1_556 S
C265 C268 1.363 . S
N266 C268 1.356 . S
N266 H278 0.984 . S
N266 H279 0.985 . S
N267 C269 1.356 . S
N267 H272 0.984 . S
N267 H273 0.985 . S
C268 C262 1.379 . S
C268 C265 1.363 . S
C268 N266 1.356 . S
C269 C263 1.363 . S
C269 C264 1.379 . S
C269 N267 1.356 . S
N270 C262 1.356 . S
N270 H276 0.984 . S
N270 H277 0.984 . S
N271 C264 1.356 . S
N271 H274 0.984 . S
N271 H275 0.985 . S
H272 N267 0.984 . S
H273 N267 0.985 . S
H274 N271 0.984 . S
H275 N271 0.985 . S
H276 N270 0.984 . S
H277 N270 0.984 . S
H278 N266 0.984 . S
H279 N266 0.985 . S
C280 C281 1.363 . S
C280 C286 1.379 1_545 S
C280 N288 1.356 . S
C281 C280 1.363 . S
C281 C287 1.363 . S
C282 C283 1.363 . S
C282 C287 1.379 1_565 S
C282 N289 1.356 . S
C283 C282 1.363 . S
C283 C286 1.363 . S
N284 C286 1.356 . S
N284 H296 0.984 . S
N284 H297 0.985 . S
N285 C287 1.356 . S
N285 H290 0.984 . S
N285 H291 0.985 . S
C286 C280 1.379 1_565 S
C286 C283 1.363 . S
C286 N284 1.356 . S
C287 C281 1.363 . S
C287 C282 1.379 1_545 S
C287 N285 1.356 . S
N288 C280 1.356 . S
N288 H294 0.984 . S
N288 H295 0.984 . S
N289 C282 1.356 . S
N289 H292 0.984 . S
N289 H293 0.985 . S
H290 N285 0.984 . S
H291 N285 0.985 . S
H292 N289 0.984 . S
H293 N289 0.985 . S
H294 N288 0.984 . S
H295 N288 0.984 . S
H296 N284 0.984 . S
H297 N284 0.985 . S
C298 C299 1.363 . S
C298 C304 1.379 1_655 S
C298 N306 1.356 . S
C299 C298 1.363 . S
C299 C305 1.363 . S
C300 C301 1.363 . S
C300 C305 1.379 1_455 S
C300 N307 1.356 . S
C301 C300 1.363 . S
C301 C304 1.363 . S
N302 C304 1.356 . S
N302 H314 0.984 . S
N302 H315 0.985 . S
N303 C305 1.356 . S
N303 H308 0.984 . S
N303 H309 0.985 . S
C304 C298 1.379 1_455 S
C304 C301 1.363 . S
C304 N302 1.356 . S
C305 C299 1.363 . S
C305 C300 1.379 1_655 S
C305 N303 1.356 . S
N306 C298 1.356 . S
N306 H312 0.984 . S
N306 H313 0.984 . S
N307 C300 1.356 . S
N307 H310 0.984 . S
N307 H311 0.985 . S
H308 N303 0.984 . S
H309 N303 0.985 . S
H310 N307 0.984 . S
H311 N307 0.985 . S
H312 N306 0.984 . S
H313 N306 0.984 . S
H314 N302 0.984 . S
H315 N302 0.985 . S
C316 C317 1.363 . S
C316 C322 1.379 1_545 S
C316 N324 1.356 . S
C317 C316 1.363 . S
C317 C323 1.363 . S
C318 C319 1.363 . S
C318 C323 1.379 1_565 S
C318 N325 1.356 . S
C319 C318 1.363 . S
C319 C322 1.363 . S
N320 C322 1.356 . S
N320 H332 0.984 . S
N320 H333 0.985 . S
N321 C323 1.356 . S
N321 H326 0.984 . S
N321 H327 0.985 . S
C322 C316 1.379 1_565 S
C322 C319 1.363 . S
C322 N320 1.356 . S
C323 C317 1.363 . S
C323 C318 1.379 1_545 S
C323 N321 1.356 . S
N324 C316 1.356 . S
N324 H330 0.984 . S
N324 H331 0.984 . S
N325 C318 1.356 . S
N325 H328 0.984 . S
N325 H329 0.985 . S
H326 N321 0.984 . S
H327 N321 0.985 . S
H328 N325 0.984 . S
H329 N325 0.985 . S
H330 N324 0.984 . S
H331 N324 0.984 . S
H332 N320 0.984 . S
H333 N320 0.985 . S
C334 C335 1.363 . S
C334 C340 1.379 1_455 S
C334 N342 1.356 . S
C335 C334 1.363 . S
C335 C341 1.363 . S
C336 C337 1.363 . S
C336 C341 1.379 1_655 S
C336 N343 1.356 . S
C337 C336 1.363 . S
C337 C340 1.363 . S
N338 C340 1.356 . S
N338 H350 0.984 . S
N338 H351 0.985 . S
N339 C341 1.356 . S
N339 H344 0.984 . S
N339 H345 0.985 . S
C340 C334 1.379 1_655 S
C340 C337 1.363 . S
C340 N338 1.356 . S
C341 C335 1.363 . S
C341 C336 1.379 1_455 S
C341 N339 1.356 . S
N342 C334 1.356 . S
N342 H348 0.984 . S
N342 H349 0.984 . S
N343 C336 1.356 . S
N343 H346 0.984 . S
N343 H347 0.985 . S
H344 N339 0.984 . S
H345 N339 0.985 . S
H346 N343 0.984 . S
H347 N343 0.985 . S
H348 N342 0.984 . S
H349 N342 0.984 . S
H350 N338 0.984 . S
H351 N338 0.985 . S
C352 C353 1.363 . S
C352 C358 1.379 . S
C352 N360 1.356 . S
C353 C352 1.363 . S
C353 C359 1.363 1_554 S
C354 C355 1.373 . S
C354 C359 1.379 . S
C354 N361 1.356 . S
C355 C354 1.373 . S
C355 C358 1.352 1_556 S
N356 C358 1.356 . S
N356 H368 0.984 . S
N356 H369 0.985 . S
N357 C359 1.356 . S
N357 H362 0.984 . S
N357 H363 0.985 . S
C358 C352 1.379 . S
C358 C355 1.352 1_554 S
C358 N356 1.356 . S
C359 C353 1.363 1_556 S
C359 C354 1.379 . S
C359 N357 1.356 . S
N360 C352 1.356 . S
N360 H366 0.984 . S
N360 H367 0.984 . S
N361 C354 1.356 . S
N361 H364 0.984 . S
N361 H365 0.985 . S
H362 N357 0.984 . S
H363 N357 0.985 . S
H364 N361 0.984 . S
H365 N361 0.985 . S
H366 N360 0.984 . S
H367 N360 0.984 . S
H368 N356 0.984 . S
H369 N356 0.985 . S
C370 C371 1.354 1_554 S
C370 C376 1.379 . S
C370 N378 1.356 . S
C371 C370 1.354 1_556 S
C371 C377 1.372 . S
C372 C373 1.363 1_556 S
C372 C377 1.379 . S
C372 N379 1.356 . S
C373 C372 1.363 1_554 S
C373 C376 1.363 . S
N374 C376 1.356 . S
N374 H386 0.984 . S
N374 H387 0.985 . S
N375 C377 1.356 . S
N375 H380 0.984 . S
N375 H381 0.985 . S
C376 C370 1.379 . S
C376 C373 1.363 . S
C376 N374 1.356 . S
C377 C371 1.372 . S
C377 C372 1.379 . S
C377 N375 1.356 . S
N378 C370 1.356 . S
N378 H384 0.984 . S
N378 H385 0.984 . S
N379 C372 1.356 . S
N379 H382 0.984 . S
N379 H383 0.985 . S
H380 N375 0.984 . S
H381 N375 0.985 . S
H382 N379 0.984 . S
H383 N379 0.985 . S
H384 N378 0.984 . S
H385 N378 0.984 . S
H386 N374 0.984 . S
H387 N374 0.985 . S
C388 C389 1.363 1_556 S
C388 C394 1.379 . S
C388 N396 1.356 . S
C389 C388 1.363 1_554 S
C389 C395 1.363 . S
C390 C391 1.353 1_554 S
C390 C395 1.379 . S
C390 N397 1.356 . S
C391 C390 1.353 1_556 S
C391 C394 1.373 . S
N392 C394 1.356 . S
N392 H404 0.984 . S
N392 H405 0.985 . S
N393 C395 1.356 . S
N393 H398 0.984 . S
N393 H399 0.985 . S
C394 C388 1.379 . S
C394 C391 1.373 . S
C394 N392 1.356 . S
C395 C389 1.363 . S
C395 C390 1.379 . S
C395 N393 1.356 . S
N396 C388 1.356 . S
N396 H402 0.984 . S
N396 H403 0.984 . S
N397 C390 1.356 . S
N397 H400 0.984 . S
N397 H401 0.985 . S
H398 N393 0.984 . S
H399 N393 0.985 . S
H400 N397 0.984 . S
H401 N397 0.985 . S
H402 N396 0.984 . S
H403 N396 0.984 . S
H404 N392 0.984 . S
H405 N392 0.985 . S
C406 C407 1.352 1_554 S
C406 C412 1.379 . S
C406 N414 1.356 . S
C407 C406 1.352 1_556 S
C407 C413 1.373 . S
C408 C409 1.363 1_556 S
C408 C413 1.379 . S
C408 N415 1.356 . S
C409 C408 1.363 1_554 S
C409 C412 1.363 . S
N410 C412 1.356 . S
N410 H422 0.984 . S
N410 H423 0.985 . S
N411 C413 1.356 . S
N411 H416 0.984 . S
N411 H417 0.985 . S
C412 C406 1.379 . S
C412 C409 1.363 . S
C412 N410 1.356 . S
C413 C407 1.373 . S
C413 C408 1.379 . S
C413 N411 1.356 . S
N414 C406 1.356 . S
N414 H420 0.984 . S
N414 H421 0.984 . S
N415 C408 1.356 . S
N415 H418 0.984 . S
N415 H419 0.985 . S
H416 N411 0.984 . S
H417 N411 0.985 . S
H418 N415 0.984 . S
H419 N415 0.985 . S
H420 N414 0.984 . S
H421 N414 0.984 . S
H422 N410 0.984 . S
H423 N410 0.985 . S
C424 C425 1.363 . S
C424 C430 1.379 . S
C424 N432 1.356 . S
C425 C424 1.363 . S
C425 C431 1.363 . S
C426 C427 1.363 . S
C426 C431 1.379 . S
C426 N433 1.356 . S
C427 C426 1.363 . S
C427 C430 1.363 . S
N428 C430 1.356 . S
N428 H440 0.984 . S
N428 H441 0.985 . S
N429 C431 1.356 . S
N429 H434 0.984 . S
N429 H435 0.985 . S
C430 C424 1.379 . S
C430 C427 1.363 . S
C430 N428 1.356 . S
C431 C425 1.363 . S
C431 C426 1.379 . S
C431 N429 1.356 . S
N432 C424 1.356 . S
N432 H438 0.984 . S
N432 H439 0.984 . S
N433 C426 1.356 . S
N433 H436 0.984 . S
N433 H437 0.985 . S
H434 N429 0.984 . S
H435 N429 0.985 . S
H436 N433 0.984 . S
H437 N433 0.985 . S
H438 N432 0.984 . S
H439 N432 0.984 . S
H440 N428 0.984 . S
H441 N428 0.985 . S
C442 C443 1.363 . S
C442 C448 1.379 . S
C442 N450 1.356 . S
C443 C442 1.363 . S
C443 C449 1.363 . S
C444 C445 1.363 . S
C444 C449 1.379 . S
C444 N451 1.356 . S
C445 C444 1.363 . S
C445 C448 1.363 . S
N446 C448 1.356 . S
N446 H458 0.984 . S
N446 H459 0.985 . S
N447 C449 1.356 . S
N447 H452 0.984 . S
N447 H453 0.985 . S
C448 C442 1.379 . S
C448 C445 1.363 . S
C448 N446 1.356 . S
C449 C443 1.363 . S
C449 C444 1.379 . S
C449 N447 1.356 . S
N450 C442 1.356 . S
N450 H456 0.984 . S
N450 H457 0.984 . S
N451 C444 1.356 . S
N451 H454 0.984 . S
N451 H455 0.985 . S
H452 N447 0.984 . S
H453 N447 0.985 . S
H454 N451 0.984 . S
H455 N451 0.985 . S
H456 N450 0.984 . S
H457 N450 0.984 . S
H458 N446 0.984 . S
H459 N446 0.985 . S
C460 C461 1.363 . S
C460 C466 1.379 . S
C460 N468 1.356 . S
C461 C460 1.363 . S
C461 C467 1.363 . S
C462 C463 1.363 . S
C462 C467 1.379 . S
C462 N469 1.356 . S
C463 C462 1.363 . S
C463 C466 1.363 . S
N464 C466 1.356 . S
N464 H476 0.984 . S
N464 H477 0.985 . S
N465 C467 1.356 . S
N465 H470 0.984 . S
N465 H471 0.985 . S
C466 C460 1.379 . S
C466 C463 1.363 . S
C466 N464 1.356 . S
C467 C461 1.363 . S
C467 C462 1.379 . S
C467 N465 1.356 . S
N468 C460 1.356 . S
N468 H474 0.984 . S
N468 H475 0.984 . S
N469 C462 1.356 . S
N469 H472 0.984 . S
N469 H473 0.985 . S
H470 N465 0.984 . S
H471 N465 0.985 . S
H472 N469 0.984 . S
H473 N469 0.985 . S
H474 N468 0.984 . S
H475 N468 0.984 . S
H476 N464 0.984 . S
H477 N464 0.985 . S
C478 C479 1.363 . S
C478 C484 1.379 . S
C478 N486 1.356 . S
C479 C478 1.363 . S
C479 C485 1.363 . S
C480 C481 1.363 . S
C480 C485 1.379 . S
C480 N487 1.356 . S
C481 C480 1.363 . S
C481 C484 1.363 . S
N482 C484 1.356 . S
N482 H494 0.984 . S
N482 H495 0.985 . S
N483 C485 1.356 . S
N483 H488 0.984 . S
N483 H489 0.985 . S
C484 C478 1.379 . S
C484 C481 1.363 . S
C484 N482 1.356 . S
C485 C479 1.363 . S
C485 C480 1.379 . S
C485 N483 1.356 . S
N486 C478 1.356 . S
N486 H492 0.984 . S
N486 H493 0.984 . S
N487 C480 1.356 . S
N487 H490 0.984 . S
N487 H491 0.985 . S
H488 N483 0.984 . S
H489 N483 0.985 . S
H490 N487 0.984 . S
H491 N487 0.985 . S
H492 N486 0.984 . S
H493 N486 0.984 . S
H494 N482 0.984 . S
H495 N482 0.985 . S
C496 C497 1.363 . S
C496 C502 1.379 . S
C496 N504 1.356 . S
C497 C496 1.363 . S
C497 C503 1.363 . S
C498 C499 1.363 . S
C498 C503 1.379 . S
C498 N505 1.356 . S
C499 C498 1.363 . S
C499 C502 1.363 . S
N500 C502 1.356 . S
N500 H512 0.984 . S
N500 H513 0.985 . S
N501 C503 1.356 . S
N501 H506 0.984 . S
N501 H507 0.985 . S
C502 C496 1.379 . S
C502 C499 1.363 . S
C502 N500 1.356 . S
C503 C497 1.363 . S
C503 C498 1.379 . S
C503 N501 1.356 . S
N504 C496 1.356 . S
N504 H510 0.984 . S
N504 H511 0.984 . S
N505 C498 1.356 . S
N505 H508 0.984 . S
N505 H509 0.985 . S
H506 N501 0.984 . S
H507 N501 0.985 . S
H508 N505 0.984 . S
H509 N505 0.985 . S
H510 N504 0.984 . S
H511 N504 0.984 . S
H512 N500 0.984 . S
H513 N500 0.985 . S
C514 C515 1.363 . S
C514 C520 1.379 . S
C514 N522 1.356 . S
C515 C514 1.363 . S
C515 C521 1.363 . S
C516 C517 1.363 . S
C516 C521 1.379 . S
C516 N523 1.356 . S
C517 C516 1.363 . S
C517 C520 1.363 . S
N518 C520 1.356 . S
N518 H530 0.984 . S
N518 H531 0.985 . S
N519 C521 1.356 . S
N519 H524 0.984 . S
N519 H525 0.985 . S
C520 C514 1.379 . S
C520 C517 1.363 . S
C520 N518 1.356 . S
C521 C515 1.363 . S
C521 C516 1.379 . S
C521 N519 1.356 . S
N522 C514 1.356 . S
N522 H528 0.984 . S
N522 H529 0.984 . S
N523 C516 1.356 . S
N523 H526 0.984 . S
N523 H527 0.985 . S
H524 N519 0.984 . S
H525 N519 0.985 . S
H526 N523 0.984 . S
H527 N523 0.985 . S
H528 N522 0.984 . S
H529 N522 0.984 . S
H530 N518 0.984 . S
H531 N518 0.985 . S
C532 C533 1.363 . S
C532 C538 1.379 . S
C532 N540 1.356 . S
C533 C532 1.363 . S
C533 C539 1.363 . S
C534 C535 1.363 . S
C534 C539 1.379 . S
C534 N541 1.356 . S
C535 C534 1.363 . S
C535 C538 1.363 . S
N536 C538 1.356 . S
N536 H548 0.984 . S
N536 H549 0.985 . S
N537 C539 1.356 . S
N537 H542 0.984 . S
N537 H543 0.985 . S
C538 C532 1.379 . S
C538 C535 1.363 . S
C538 N536 1.356 . S
C539 C533 1.363 . S
C539 C534 1.379 . S
C539 N537 1.356 . S
N540 C532 1.356 . S
N540 H546 0.984 . S
N540 H547 0.984 . S
N541 C534 1.356 . S
N541 H544 0.984 . S
N541 H545 0.985 . S
H542 N537 0.984 . S
H543 N537 0.985 . S
H544 N541 0.984 . S
H545 N541 0.985 . S
H546 N540 0.984 . S
H547 N540 0.984 . S
H548 N536 0.984 . S
H549 N536 0.985 . S
C550 C551 1.363 . S
C550 C556 1.379 . S
C550 N558 1.356 . S
C551 C550 1.363 . S
C551 C557 1.363 . S
C552 C553 1.363 . S
C552 C557 1.379 . S
C552 N559 1.356 . S
C553 C552 1.363 . S
C553 C556 1.363 . S
N554 C556 1.356 . S
N554 H566 0.984 . S
N554 H567 0.985 . S
N555 C557 1.356 . S
N555 H560 0.984 . S
N555 H561 0.985 . S
C556 C550 1.379 . S
C556 C553 1.363 . S
C556 N554 1.356 . S
C557 C551 1.363 . S
C557 C552 1.379 . S
C557 N555 1.356 . S
N558 C550 1.356 . S
N558 H564 0.984 . S
N558 H565 0.984 . S
N559 C552 1.356 . S
N559 H562 0.984 . S
N559 H563 0.985 . S
H560 N555 0.984 . S
H561 N555 0.985 . S
H562 N559 0.984 . S
H563 N559 0.985 . S
H564 N558 0.984 . S
H565 N558 0.984 . S
H566 N554 0.984 . S
H567 N554 0.985 . S
C568 C569 1.363 . S
C568 C574 1.379 . S
C568 N576 1.356 . S
C569 C568 1.363 . S
C569 C575 1.363 . S
C570 C571 1.363 . S
C570 C575 1.379 . S
C570 N577 1.356 . S
C571 C570 1.363 . S
C571 C574 1.363 . S
N572 C574 1.356 . S
N572 H584 0.984 . S
N572 H585 0.985 . S
N573 C575 1.356 . S
N573 H578 0.984 . S
N573 H579 0.985 . S
C574 C568 1.379 . S
C574 C571 1.363 . S
C574 N572 1.356 . S
C575 C569 1.363 . S
C575 C570 1.379 . S
C575 N573 1.356 . S
N576 C568 1.356 . S
N576 H582 0.984 . S
N576 H583 0.984 . S
N577 C570 1.356 . S
N577 H580 0.984 . S
N577 H581 0.985 . S
H578 N573 0.984 . S
H579 N573 0.985 . S
H580 N577 0.984 . S
H581 N577 0.985 . S
H582 N576 0.984 . S
H583 N576 0.984 . S
H584 N572 0.984 . S
H585 N572 0.985 . S
C586 C587 1.363 . S
C586 C592 1.379 . S
C586 N594 1.356 . S
C587 C586 1.363 . S
C587 C593 1.363 . S
C588 C589 1.363 . S
C588 C593 1.379 . S
C588 N595 1.356 . S
C589 C588 1.363 . S
C589 C592 1.363 . S
N590 C592 1.356 . S
N590 H602 0.984 . S
N590 H603 0.985 . S
N591 C593 1.356 . S
N591 H596 0.984 . S
N591 H597 0.985 . S
C592 C586 1.379 . S
C592 C589 1.363 . S
C592 N590 1.356 . S
C593 C587 1.363 . S
C593 C588 1.379 . S
C593 N591 1.356 . S
N594 C586 1.356 . S
N594 H600 0.984 . S
N594 H601 0.984 . S
N595 C588 1.356 . S
N595 H598 0.984 . S
N595 H599 0.985 . S
H596 N591 0.984 . S
H597 N591 0.985 . S
H598 N595 0.984 . S
H599 N595 0.985 . S
H600 N594 0.984 . S
H601 N594 0.984 . S
H602 N590 0.984 . S
H603 N590 0.985 . S
C604 C605 1.363 . S
C604 C610 1.379 . S
C604 N612 1.356 . S
C605 C604 1.363 . S
C605 C611 1.363 . S
C606 C607 1.363 . S
C606 C611 1.379 . S
C606 N613 1.356 . S
C607 C606 1.363 . S
C607 C610 1.363 . S
N608 C610 1.356 . S
N608 H620 0.984 . S
N608 H621 0.985 . S
N609 C611 1.356 . S
N609 H614 0.984 . S
N609 H615 0.985 . S
C610 C604 1.379 . S
C610 C607 1.363 . S
C610 N608 1.356 . S
C611 C605 1.363 . S
C611 C606 1.379 . S
C611 N609 1.356 . S
N612 C604 1.356 . S
N612 H618 0.984 . S
N612 H619 0.984 . S
N613 C606 1.356 . S
N613 H616 0.984 . S
N613 H617 0.985 . S
H614 N609 0.984 . S
H615 N609 0.985 . S
H616 N613 0.984 . S
H617 N613 0.985 . S
H618 N612 0.984 . S
H619 N612 0.984 . S
H620 N608 0.984 . S
H621 N608 0.985 . S
C622 C623 1.363 . S
C622 C628 1.379 . S
C622 N630 1.356 . S
C623 C622 1.363 . S
C623 C629 1.363 . S
C624 C625 1.363 . S
C624 C629 1.379 . S
C624 N631 1.356 . S
C625 C624 1.363 . S
C625 C628 1.363 . S
N626 C628 1.356 . S
N626 H638 0.984 . S
N626 H639 0.985 . S
N627 C629 1.356 . S
N627 H632 0.984 . S
N627 H633 0.985 . S
C628 C622 1.379 . S
C628 C625 1.363 . S
C628 N626 1.356 . S
C629 C623 1.363 . S
C629 C624 1.379 . S
C629 N627 1.356 . S
N630 C622 1.356 . S
N630 H636 0.984 . S
N630 H637 0.984 . S
N631 C624 1.356 . S
N631 H634 0.984 . S
N631 H635 0.985 . S
H632 N627 0.984 . S
H633 N627 0.985 . S
H634 N631 0.984 . S
H635 N631 0.985 . S
H636 N630 0.984 . S
H637 N630 0.984 . S
H638 N626 0.984 . S
H639 N626 0.985 . S
C640 C641 1.363 . S
C640 C646 1.379 . S
C640 N648 1.356 . S
C641 C640 1.363 . S
C641 C647 1.363 . S
C642 C643 1.363 . S
C642 C647 1.379 . S
C642 N649 1.356 . S
C643 C642 1.363 . S
C643 C646 1.363 . S
N644 C646 1.356 . S
N644 H656 0.984 . S
N644 H657 0.985 . S
N645 C647 1.356 . S
N645 H650 0.984 . S
N645 H651 0.985 . S
C646 C640 1.379 . S
C646 C643 1.363 . S
C646 N644 1.356 . S
C647 C641 1.363 . S
C647 C642 1.379 . S
C647 N645 1.356 . S
N648 C640 1.356 . S
N648 H654 0.984 . S
N648 H655 0.984 . S
N649 C642 1.356 . S
N649 H652 0.984 . S
N649 H653 0.985 . S
H650 N645 0.984 . S
H651 N645 0.985 . S
H652 N649 0.984 . S
H653 N649 0.985 . S
H654 N648 0.984 . S
H655 N648 0.984 . S
H656 N644 0.984 . S
H657 N644 0.985 . S
C658 C659 1.363 . S
C658 C664 1.379 . S
C658 N666 1.356 . S
C659 C658 1.363 . S
C659 C665 1.363 . S
C660 C661 1.363 . S
C660 C665 1.379 . S
C660 N667 1.356 . S
C661 C660 1.363 . S
C661 C664 1.363 . S
N662 C664 1.356 . S
N662 H674 0.984 . S
N662 H675 0.985 . S
N663 C665 1.356 . S
N663 H668 0.984 . S
N663 H669 0.985 . S
C664 C658 1.379 . S
C664 C661 1.363 . S
C664 N662 1.356 . S
C665 C659 1.363 . S
C665 C660 1.379 . S
C665 N663 1.356 . S
N666 C658 1.356 . S
N666 H672 0.984 . S
N666 H673 0.984 . S
N667 C660 1.356 . S
N667 H670 0.984 . S
N667 H671 0.985 . S
H668 N663 0.984 . S
H669 N663 0.985 . S
H670 N667 0.984 . S
H671 N667 0.985 . S
H672 N666 0.984 . S
H673 N666 0.984 . S
H674 N662 0.984 . S
H675 N662 0.985 . S
C676 C677 1.363 . S
C676 C682 1.379 . S
C676 N684 1.356 . S
C677 C676 1.363 . S
C677 C683 1.363 . S
C678 C679 1.363 . S
C678 C683 1.379 . S
C678 N685 1.356 . S
C679 C678 1.363 . S
C679 C682 1.363 . S
N680 C682 1.356 . S
N680 H692 0.984 . S
N680 H693 0.985 . S
N681 C683 1.356 . S
N681 H686 0.984 . S
N681 H687 0.985 . S
C682 C676 1.379 . S
C682 C679 1.363 . S
C682 N680 1.356 . S
C683 C677 1.363 . S
C683 C678 1.379 . S
C683 N681 1.356 . S
N684 C676 1.356 . S
N684 H690 0.984 . S
N684 H691 0.984 . S
N685 C678 1.356 . S
N685 H688 0.984 . S
N685 H689 0.985 . S
H686 N681 0.984 . S
H687 N681 0.985 . S
H688 N685 0.984 . S
H689 N685 0.985 . S
H690 N684 0.984 . S
H691 N684 0.984 . S
H692 N680 0.984 . S
H693 N680 0.985 . S
C694 C695 1.363 . S
C694 C700 1.379 . S
C694 N702 1.356 . S
C695 C694 1.363 . S
C695 C701 1.363 . S
C696 C697 1.363 . S
C696 C701 1.379 . S
C696 N703 1.356 . S
C697 C696 1.363 . S
C697 C700 1.363 . S
N698 C700 1.356 . S
N698 H710 0.984 . S
N698 H711 0.985 . S
N699 C701 1.356 . S
N699 H704 0.984 . S
N699 H705 0.985 . S
C700 C694 1.379 . S
C700 C697 1.363 . S
C700 N698 1.356 . S
C701 C695 1.363 . S
C701 C696 1.379 . S
C701 N699 1.356 . S
N702 C694 1.356 . S
N702 H708 0.984 . S
N702 H709 0.984 . S
N703 C696 1.356 . S
N703 H706 0.984 . S
N703 H707 0.985 . S
H704 N699 0.984 . S
H705 N699 0.985 . S
H706 N703 0.984 . S
H707 N703 0.985 . S
H708 N702 0.984 . S
H709 N702 0.984 . S
H710 N698 0.984 . S
H711 N698 0.985 . S
C712 C713 1.363 . S
C712 C718 1.379 . S
C712 N720 1.356 . S
C713 C712 1.363 . S
C713 C719 1.363 . S
C714 C715 1.363 . S
C714 C719 1.379 . S
C714 N721 1.356 . S
C715 C714 1.363 . S
C715 C718 1.363 . S
N716 C718 1.356 . S
N716 H728 0.984 . S
N716 H729 0.985 . S
N717 C719 1.356 . S
N717 H722 0.984 . S
N717 H723 0.985 . S
C718 C712 1.379 . S
C718 C715 1.363 . S
C718 N716 1.356 . S
C719 C713 1.363 . S
C719 C714 1.379 . S
C719 N717 1.356 . S
N720 C712 1.356 . S
N720 H726 0.984 . S
N720 H727 0.984 . S
N721 C714 1.356 . S
N721 H724 0.984 . S
N721 H725 0.985 . S
H722 N717 0.984 . S
H723 N717 0.985 . S
H724 N721 0.984 . S
H725 N721 0.985 . S
H726 N720 0.984 . S
H727 N720 0.984 . S
H728 N716 0.984 . S
H729 N716 0.985 . S
C730 C731 1.363 . S
C730 C736 1.379 . S
C730 N738 1.356 . S
C731 C730 1.363 . S
C731 C737 1.363 . S
C732 C733 1.363 . S
C732 C737 1.379 . S
C732 N739 1.356 . S
C733 C732 1.363 . S
C733 C736 1.363 . S
N734 C736 1.356 . S
N734 H746 0.984 . S
N734 H747 0.985 . S
N735 C737 1.356 . S
N735 H740 0.984 . S
N735 H741 0.985 . S
C736 C730 1.379 . S
C736 C733 1.363 . S
C736 N734 1.356 . S
C737 C731 1.363 . S
C737 C732 1.379 . S
C737 N735 1.356 . S
N738 C730 1.356 . S
N738 H744 0.984 . S
N738 H745 0.984 . S
N739 C732 1.356 . S
N739 H742 0.984 . S
N739 H743 0.985 . S
H740 N735 0.984 . S
H741 N735 0.985 . S
H742 N739 0.984 . S
H743 N739 0.985 . S
H744 N738 0.984 . S
H745 N738 0.984 . S
H746 N734 0.984 . S
H747 N734 0.985 . S
C748 C749 1.363 . S
C748 C754 1.379 . S
C748 N756 1.356 . S
C749 C748 1.363 . S
C749 C755 1.363 . S
C750 C751 1.363 . S
C750 C755 1.379 . S
C750 N757 1.356 . S
C751 C750 1.363 . S
C751 C754 1.363 . S
N752 C754 1.356 . S
N752 H764 0.984 . S
N752 H765 0.985 . S
N753 C755 1.356 . S
N753 H758 0.984 . S
N753 H759 0.985 . S
C754 C748 1.379 . S
C754 C751 1.363 . S
C754 N752 1.356 . S
C755 C749 1.363 . S
C755 C750 1.379 . S
C755 N753 1.356 . S
N756 C748 1.356 . S
N756 H762 0.984 . S
N756 H763 0.984 . S
N757 C750 1.356 . S
N757 H760 0.984 . S
N757 H761 0.985 . S
H758 N753 0.984 . S
H759 N753 0.985 . S
H760 N757 0.984 . S
H761 N757 0.985 . S
H762 N756 0.984 . S
H763 N756 0.984 . S
H764 N752 0.984 . S
H765 N752 0.985 . S
C766 C767 1.363 . S
C766 C772 1.379 . S
C766 N774 1.356 . S
C767 C766 1.363 . S
C767 C773 1.363 . S
C768 C769 1.363 . S
C768 C773 1.379 . S
C768 N775 1.356 . S
C769 C768 1.363 . S
C769 C772 1.363 . S
N770 C772 1.356 . S
N770 H782 0.984 . S
N770 H783 0.985 . S
N771 C773 1.356 . S
N771 H776 0.984 . S
N771 H777 0.985 . S
C772 C766 1.379 . S
C772 C769 1.363 . S
C772 N770 1.356 . S
C773 C767 1.363 . S
C773 C768 1.379 . S
C773 N771 1.356 . S
N774 C766 1.356 . S
N774 H780 0.984 . S
N774 H781 0.984 . S
N775 C768 1.356 . S
N775 H778 0.984 . S
N775 H779 0.985 . S
H776 N771 0.984 . S
H777 N771 0.985 . S
H778 N775 0.984 . S
H779 N775 0.985 . S
H780 N774 0.984 . S
H781 N774 0.984 . S
H782 N770 0.984 . S
H783 N770 0.985 . S
C209 C52 1.245 1_554 S
C211 C0 1.245 1_556 S
C227 C65 1.245 1_554 S
C229 C13 1.245 1_556 S
C245 C78 1.245 1_554 S
C247 C26 1.245 1_556 S
C263 C91 1.245 1_554 S
C265 C39 1.245 1_556 S
C281 C156 1.245 . S
C283 C104 1.245 . S
C299 C169 1.245 . S
C301 C117 1.245 . S
C317 C130 1.245 . S
C319 C182 1.245 . S
C335 C195 1.245 . S
C337 C143 1.245 . S
C353 C5 1.340 . S
C355 C70 1.342 . S
C371 C83 1.341 . S
C373 C18 1.340 . S
C389 C31 1.340 . S
C391 C96 1.342 . S
C407 C57 1.342 . S
C409 C44 1.340 . S
C425 C174 1.340 . S
C427 C109 1.340 . S
C443 C187 1.340 . S
C445 C122 1.340 . S
C461 C135 1.340 . S
C463 C200 1.340 . S
C479 C148 1.340 . S
C481 C161 1.340 . S
C497 C205 1.439 . S
C499 C10 1.439 . S
C515 C166 1.439 . S
C517 C23 1.439 . S
C533 C179 1.439 . S
C535 C36 1.439 . S
C551 C192 1.439 . S
C553 C49 1.439 . S
C569 C127 1.439 . S
C571 C62 1.439 . S
C587 C140 1.439 . S
C589 C75 1.439 . S
C605 C88 1.439 . S
C607 C153 1.439 . S
C623 C101 1.439 . S
C625 C114 1.439 . S
C641 C177 1.461 . S
C643 C34 1.461 . S
C659 C190 1.461 . S
C661 C47 1.461 . S
C677 C203 1.461 . S
C679 C8 1.461 . S
C695 C21 1.461 . S
C697 C164 1.461 . S
C713 C151 1.460 . S
C715 C86 1.460 . S
C731 C99 1.460 . S
C733 C112 1.460 . S
C749 C125 1.460 . S
C751 C60 1.460 . S
C767 C138 1.460 . S
C769 C73 1.460 . S
