# Generated by pormake.
# Topology uoc, (4)-cn, num edge types: 1
# Building blocks:
#     Node 0, Type 0, BuildingBlock: KUFVIS_clean_sbu_0, # of connection points: 4
#     Node 1, Type 0, BuildingBlock: KUFVIS_clean_sbu_0, # of connection points: 4
#     Node 2, Type 0, BuildingBlock: KUFVIS_clean_sbu_0, # of connection points: 4
#     Node 3, Type 0, BuildingBlock: KUFVIS_clean_sbu_0, # of connection points: 4
#     Node 4, Type 0, BuildingBlock: KUFVIS_clean_sbu_0, # of connection points: 4
#     Node 5, Type 0, BuildingBlock: KUFVIS_clean_sbu_0, # of connection points: 4
#     Node 6, Type 0, BuildingBlock: KUFVIS_clean_sbu_0, # of connection points: 4
#     Node 7, Type 0, BuildingBlock: KUFVIS_clean_sbu_0, # of connection points: 4
#     Edge 8, Type (0, 0), BuildingBlock: EZIPEK_clean_linker_0, # of connection points: 2
#     Edge 9, Type (0, 0), BuildingBlock: EZIPEK_clean_linker_0, # of connection points: 2
#     Edge 10, Type (0, 0), BuildingBlock: EZIPEK_clean_linker_0, # of connection points: 2
#     Edge 11, Type (0, 0), BuildingBlock: EZIPEK_clean_linker_0, # of connection points: 2
#     Edge 12, Type (0, 0), BuildingBlock: EZIPEK_clean_linker_0, # of connection points: 2
#     Edge 13, Type (0, 0), BuildingBlock: EZIPEK_clean_linker_0, # of connection points: 2
#     Edge 14, Type (0, 0), BuildingBlock: EZIPEK_clean_linker_0, # of connection points: 2
#     Edge 15, Type (0, 0), BuildingBlock: EZIPEK_clean_linker_0, # of connection points: 2
#     Edge 16, Type (0, 0), BuildingBlock: EZIPEK_clean_linker_0, # of connection points: 2
#     Edge 17, Type (0, 0), BuildingBlock: EZIPEK_clean_linker_0, # of connection points: 2
#     Edge 18, Type (0, 0), BuildingBlock: EZIPEK_clean_linker_0, # of connection points: 2
#     Edge 19, Type (0, 0), BuildingBlock: EZIPEK_clean_linker_0, # of connection points: 2
#     Edge 20, Type (0, 0), BuildingBlock: EZIPEK_clean_linker_0, # of connection points: 2
#     Edge 21, Type (0, 0), BuildingBlock: EZIPEK_clean_linker_0, # of connection points: 2
#     Edge 22, Type (0, 0), BuildingBlock: EZIPEK_clean_linker_0, # of connection points: 2
#     Edge 23, Type (0, 0), BuildingBlock: EZIPEK_clean_linker_0, # of connection points: 2
# Relax obj value: 0.117
# Max RMSD: 0.130
# Mean RMSD: 0.128
data_MOF--net-uoc--node1-KUFVIS_clean_sbu_0--edge1-EZIPEK_clean_linker_0
_symmetry_space_group_name_H-M    P1
_symmetry_Int_Tables_number       1
_symmetry_cell_setting            triclinic
loop_
_symmetry_equiv_pos_as_xyz
'x, y, z'
_cell_length_a     20.143953
_cell_length_b     20.110754
_cell_length_c     39.323394
_cell_angle_alpha  89.521488
_cell_angle_beta   88.79004
_cell_angle_gamma 89.014976
loop_
_atom_site_label
_atom_site_type_symbol
_atom_site_fract_x
_atom_site_fract_y
_atom_site_fract_z
_atom_type_partial_charge
Mn0 Mn 0.10631 0.28709 0.12685 0.0
Mn1 Mn 0.23068 0.17366 0.13139 0.0
C2 C 0.16727 0.27744 0.17682 0.0
C3 C 0.06734 0.39281 0.11185 0.0
C4 C 0.08397 0.13881 0.13612 0.0
O5 O 0.12172 0.2586 0.07705 0.0
O6 O 0.2159 0.19931 0.08392 0.0
C7 C 0.3416 0.25605 0.10606 0.0
N8 N 0.31485 0.21526 0.13034 0.0
C9 C 0.41994 0.2004 0.15709 0.0
C10 C 0.44885 0.24276 0.13266 0.0
C11 C 0.4092 0.27156 0.10731 0.0
C12 C 0.35153 0.19035 0.15584 0.0
H13 H 0.31163 0.27589 0.08578 0.0
C14 C 0.17167 0.22553 0.06516 0.0
O15 O 0.02783 0.34277 0.11462 0.0
O16 O 0.13026 0.38107 0.11609 0.0
N17 N 0.25323 0.14282 0.17561 0.0
C18 C 0.21801 0.10123 0.19635 0.0
C19 C 0.25052 0.06578 0.22209 0.0
C20 C 0.31944 0.071 0.22506 0.0
C21 C 0.35476 0.11447 0.20362 0.0
C22 C 0.31917 0.15071 0.17944 0.0
H23 H 0.16621 0.09291 0.19232 0.0
O24 O 0.10997 0.30785 0.17662 0.0
O25 O 0.18829 0.25569 0.14745 0.0
O26 O 0.06077 0.19819 0.13667 0.0
O27 O 0.14581 0.12455 0.13263 0.0
C28 C 0.42439 0.11969 0.20357 0.0
C29 C 0.45675 0.16458 0.18133 0.0
H30 H 0.50155 0.25256 0.13275 0.0
H31 H 0.43113 0.30389 0.08818 0.0
H32 H 0.22316 0.03182 0.23838 0.0
H33 H 0.34476 0.03947 0.24302 0.0
H34 H 0.45385 0.08799 0.21978 0.0
H35 H 0.51022 0.16889 0.18209 0.0
Mn36 Mn 0.73439 0.59006 0.36749 0.0
Mn37 Mn 0.83881 0.71736 0.3792 0.0
C38 C 0.74513 0.63416 0.42086 0.0
C39 C 0.62996 0.5476 0.35801 0.0
C40 C 0.88618 0.57423 0.37035 0.0
O41 O 0.7479 0.62514 0.31941 0.0
O42 O 0.81701 0.71013 0.32949 0.0
C43 C 0.75263 0.83259 0.36106 0.0
N44 N 0.78822 0.79823 0.3846 0.0
C45 C 0.76173 0.88026 0.4273 0.0
C46 C 0.72299 0.91524 0.40372 0.0
C47 C 0.71879 0.8915 0.37037 0.0
C48 C 0.79395 0.82159 0.41655 0.0
H49 H 0.75113 0.81574 0.33528 0.0
C50 C 0.7834 0.67384 0.30944 0.0
O51 O 0.68345 0.51228 0.35222 0.0
O52 O 0.63699 0.60897 0.3669 0.0
N53 N 0.8626 0.72937 0.42569 0.0
C54 C 0.90563 0.69242 0.44469 0.0
C55 C 0.91688 0.71044 0.47849 0.0
C56 C 0.88495 0.76707 0.49219 0.0
C57 C 0.84306 0.80588 0.47172 0.0
C58 C 0.83361 0.78533 0.43824 0.0
H59 H 0.93055 0.64892 0.43433 0.0
O60 O 0.72613 0.57359 0.41695 0.0
O61 O 0.75999 0.66715 0.39314 0.0
O62 O 0.82892 0.5498 0.36621 0.0
O63 O 0.89542 0.63604 0.37543 0.0
C64 C 0.81051 0.86431 0.4832 0.0
C65 C 0.76994 0.90153 0.46098 0.0
H66 H 0.69701 0.96082 0.41081 0.0
H67 H 0.69003 0.91884 0.35181 0.0
H68 H 0.94995 0.68063 0.49398 0.0
H69 H 0.89353 0.78066 0.51832 0.0
H70 H 0.81652 0.88118 0.50902 0.0
H71 H 0.74536 0.94651 0.47005 0.0
Mn72 Mn 0.42146 0.26805 0.61036 0.0
Mn73 Mn 0.28596 0.17248 0.60264 0.0
C74 C 0.36917 0.26454 0.55868 0.0
C75 C 0.47048 0.368 0.62297 0.0
C76 C 0.42724 0.1156 0.60294 0.0
O77 O 0.39406 0.24946 0.65965 0.0
O78 O 0.30225 0.18962 0.65156 0.0
C79 C 0.18953 0.27482 0.62736 0.0
N80 N 0.2108 0.23201 0.6026 0.0
C81 C 0.12418 0.26949 0.56543 0.0
C82 C 0.10117 0.31366 0.5906 0.0
C83 C 0.13411 0.31643 0.62167 0.0
C84 C 0.18014 0.2298 0.57241 0.0
H85 H 0.21487 0.27753 0.6512 0.0
C86 C 0.34378 0.21757 0.67078 0.0
O87 O 0.50381 0.31231 0.62436 0.0
O88 O 0.40779 0.36546 0.61628 0.0
N89 N 0.2614 0.15126 0.55726 0.0
C90 C 0.2836 0.09939 0.53785 0.0
C91 C 0.25391 0.08709 0.5066 0.0
C92 C 0.20021 0.12703 0.49604 0.0
C93 C 0.17497 0.177 0.51756 0.0
C94 C 0.20624 0.18626 0.54862 0.0
H95 H 0.32192 0.06616 0.54677 0.0
O96 O 0.42988 0.28413 0.56051 0.0
O97 O 0.34035 0.24782 0.58743 0.0
O98 O 0.45567 0.17163 0.6055 0.0
O99 O 0.36397 0.10931 0.60146 0.0
C100 C 0.11882 0.21661 0.50988 0.0
C101 C 0.09378 0.26326 0.53369 0.0
H102 H 0.0583 0.34567 0.58635 0.0
H103 H 0.11683 0.35058 0.64119 0.0
H104 H 0.27196 0.04652 0.49083 0.0
H105 H 0.17759 0.11762 0.47184 0.0
H106 H 0.09418 0.21119 0.48587 0.0
H107 H 0.05058 0.29346 0.52752 0.0
Mn108 Mn 0.73066 0.90142 0.85628 0.0
Mn109 Mn 0.84137 0.7753 0.84713 0.0
C110 C 0.74862 0.85171 0.8028 0.0
C111 C 0.62422 0.94434 0.86785 0.0
C112 C 0.88181 0.91887 0.85172 0.0
O113 O 0.74391 0.87078 0.90595 0.0
O114 O 0.81454 0.7872 0.89498 0.0
C115 C 0.74539 0.67021 0.86582 0.0
N116 N 0.79386 0.69443 0.84474 0.0
C117 C 0.80427 0.59109 0.81509 0.0
C118 C 0.75565 0.56403 0.83694 0.0
C119 C 0.72496 0.60432 0.86196 0.0
C120 C 0.81927 0.65818 0.81883 0.0
H121 H 0.72321 0.70079 0.88562 0.0
C122 C 0.77835 0.82047 0.9158 0.0
O123 O 0.67673 0.97975 0.87137 0.0
O124 O 0.63337 0.88261 0.85915 0.0
N125 N 0.874 0.75479 0.80259 0.0
C126 C 0.91953 0.78889 0.7836 0.0
C127 C 0.95632 0.75589 0.75804 0.0
C128 C 0.94803 0.68752 0.75338 0.0
C129 C 0.90015 0.65353 0.77283 0.0
C130 C 0.86324 0.68963 0.79702 0.0
H131 H 0.93024 0.83986 0.7891 0.0
O132 O 0.72254 0.91092 0.80546 0.0
O133 O 0.76295 0.82346 0.83154 0.0
O134 O 0.82313 0.94317 0.85488 0.0
O135 O 0.89478 0.85682 0.84883 0.0
C136 C 0.89082 0.58441 0.77096 0.0
C137 C 0.84088 0.55366 0.79091 0.0
H138 H 0.74176 0.51246 0.83483 0.0
H139 H 0.68703 0.58413 0.87879 0.0
H140 H 0.99361 0.78221 0.74327 0.0
H141 H 0.98042 0.66144 0.73569 0.0
H142 H 0.92278 0.5541 0.75487 0.0
H143 H 0.83296 0.5008 0.78841 0.0
Mn144 Mn 0.62352 0.76206 0.62333 0.0
Mn145 Mn 0.75648 0.66011 0.62313 0.0
C146 C 0.68381 0.75173 0.67378 0.0
C147 C 0.57698 0.86621 0.6106 0.0
C148 C 0.61196 0.61511 0.62539 0.0
O149 O 0.64045 0.73633 0.57279 0.0
O150 O 0.74586 0.70322 0.57854 0.0
C151 C 0.86638 0.75206 0.60844 0.0
N152 N 0.83905 0.7032 0.62816 0.0
C153 C 0.94479 0.6738 0.65129 0.0
C154 C 0.97403 0.72488 0.63197 0.0
C155 C 0.93436 0.76496 0.61086 0.0
C156 C 0.87584 0.66708 0.65003 0.0
H157 H 0.83667 0.78017 0.59063 0.0
C158 C 0.69584 0.71479 0.56022 0.0
O159 O 0.54132 0.8132 0.61215 0.0
O160 O 0.64058 0.85844 0.61443 0.0
N161 N 0.77708 0.61334 0.66411 0.0
C162 C 0.74265 0.56213 0.67854 0.0
C163 C 0.77565 0.51476 0.69864 0.0
C164 C 0.84461 0.51772 0.70194 0.0
C165 C 0.87956 0.5701 0.6866 0.0
C166 C 0.84341 0.61816 0.66842 0.0
H167 H 0.69071 0.55564 0.6737 0.0
O168 O 0.62471 0.77822 0.6735 0.0
O169 O 0.70767 0.73485 0.64405 0.0
O170 O 0.58458 0.67103 0.63175 0.0
O171 O 0.67383 0.60798 0.61809 0.0
C172 C 0.94937 0.57399 0.68685 0.0
C173 C 0.98182 0.62662 0.66986 0.0
H174 H 0.02709 0.73261 0.63247 0.0
H175 H 0.95661 0.80376 0.59541 0.0
H176 H 0.7485 0.47401 0.71006 0.0
H177 H 0.87039 0.47878 0.71585 0.0
H178 H 0.97873 0.53673 0.70008 0.0
H179 H 0.03543 0.62933 0.67056 0.0
Mn180 Mn 0.22447 0.11127 0.871 0.0
Mn181 Mn 0.32884 0.23353 0.88967 0.0
C182 C 0.22896 0.14898 0.92593 0.0
C183 C 0.12149 0.0709 0.85737 0.0
C184 C 0.37568 0.09216 0.8796 0.0
O185 O 0.24393 0.15179 0.82433 0.0
O186 O 0.32007 0.22628 0.83901 0.0
C187 C 0.23457 0.34042 0.86911 0.0
N188 N 0.27694 0.31393 0.8923 0.0
C189 C 0.24981 0.40103 0.93213 0.0
C190 C 0.20922 0.43148 0.90779 0.0
C191 C 0.20078 0.40048 0.87633 0.0
C192 C 0.28255 0.34142 0.92335 0.0
H193 H 0.22519 0.31486 0.84576 0.0
C194 C 0.28752 0.19511 0.81655 0.0
O195 O 0.17539 0.03597 0.85189 0.0
O196 O 0.12775 0.13146 0.86778 0.0
N197 N 0.34361 0.24614 0.93706 0.0
C198 C 0.37897 0.20685 0.95879 0.0
C199 C 0.38685 0.22728 -0.00749 0.0
C200 C 0.3594 0.28839 0.00332 0.0
C201 C 0.32425 0.3285 0.98033 0.0
C202 C 0.31801 0.30554 0.94705 0.0
H203 H 0.40058 0.16006 0.9505 0.0
O204 O 0.2095 0.08934 0.91965 0.0
O205 O 0.24765 0.18436 0.89962 0.0
O206 O 0.31903 0.07008 0.87166 0.0
O207 O 0.38524 0.15226 0.88826 0.0
C208 C 0.29427 0.38988 0.98926 0.0
C209 C 0.257 0.42611 0.96518 0.0
H210 H 0.18252 0.47743 0.91341 0.0
H211 H 0.16751 0.42228 0.85791 0.0
H212 H 0.41413 0.19608 0.0101 0.0
H213 H 0.36557 0.30402 0.02932 0.0
H214 H 0.29829 0.40895 0.01481 0.0
H215 H 0.23257 0.47229 0.97263 0.0
Mn216 Mn 0.90281 0.79233 0.10864 0.0
Mn217 Mn 0.7778 0.68642 0.09454 0.0
C218 C 0.85715 0.78915 0.05535 0.0
C219 C 0.9402 0.89544 0.12481 0.0
C220 C 0.92283 0.64183 0.09786 0.0
O221 O 0.87308 0.76553 0.15667 0.0
O222 O 0.78768 0.69953 0.14434 0.0
C223 C 0.67025 0.77727 0.119 0.0
N224 N 0.69782 0.73906 0.0938 0.0
C225 C 0.61154 0.77141 0.0553 0.0
C226 C 0.58206 0.81081 0.0809 0.0
C227 C 0.61166 0.81386 0.11286 0.0
C228 C 0.67035 0.73668 0.0628 0.0
H229 H 0.69295 0.78005 0.14356 0.0
C230 C 0.8252 0.72796 0.16547 0.0
O231 O 0.97863 0.84303 0.12589 0.0
O232 O 0.87873 0.88726 0.11685 0.0
N233 N 0.76008 0.66776 0.04795 0.0
C234 C 0.78959 0.62078 0.02771 0.0
C235 C 0.76443 0.60888 -0.00467 0.0
C236 C 0.70795 0.64418 0.98441 0.0
C237 C 0.67561 0.68896 0.00657 0.0
C238 C 0.7027 0.69806 0.03869 0.0
H239 H 0.83063 0.59115 0.03665 0.0
O240 O 0.9151 0.81428 0.05958 0.0
O241 O 0.82679 0.76733 0.08277 0.0
O242 O 0.94622 0.69982 0.10219 0.0
O243 O 0.86079 0.63057 0.09423 0.0
C244 C 0.61659 0.72354 -0.0016 0.0
C245 C 0.58485 0.76518 0.02267 0.0
H246 H 0.53672 0.8389 0.0763 0.0
H247 H 0.58935 0.84434 0.13273 0.0
H248 H 0.78824 0.57225 0.97894 0.0
H249 H 0.68887 0.63519 0.95934 0.0
H250 H 0.59495 0.71813 0.97361 0.0
H251 H 0.53953 0.79159 0.01609 0.0
Mn252 Mn 0.24025 0.3767 0.36029 0.0
Mn253 Mn 0.35468 0.25225 0.35496 0.0
C254 C 0.26558 0.32775 0.30728 0.0
C255 C 0.13238 0.41995 0.36787 0.0
C256 C 0.3898 0.3972 0.36057 0.0
O257 O 0.24771 0.34644 0.41051 0.0
O258 O 0.3189 0.26225 0.40153 0.0
C259 C 0.2615 0.14166 0.36804 0.0
N260 N 0.31305 0.16864 0.35015 0.0
C261 C 0.3433 0.06362 0.32554 0.0
C262 C 0.29179 0.03376 0.34441 0.0
C263 C 0.24947 0.07337 0.36506 0.0
C264 C 0.34932 0.13257 0.32762 0.0
H265 H 0.23051 0.17216 0.38465 0.0
C266 C 0.28078 0.29594 0.42135 0.0
O267 O 0.18423 0.45532 0.37297 0.0
O268 O 0.14255 0.35791 0.35995 0.0
N269 N 0.39785 0.23314 0.31245 0.0
C270 C 0.44588 0.26966 0.29653 0.0
C271 C 0.49278 0.23812 0.275 0.0
C272 C 0.49251 0.16876 0.27169 0.0
C273 C 0.44317 0.13181 0.28853 0.0
C274 C 0.39569 0.16643 0.30826 0.0
H275 H 0.45074 0.32197 0.30164 0.0
O276 O 0.23983 0.38705 0.30967 0.0
O277 O 0.2764 0.29804 0.33618 0.0
O278 O 0.33079 0.42042 0.36165 0.0
O279 O 0.40415 0.33538 0.35922 0.0
C280 C 0.44142 0.06168 0.28803 0.0
C281 C 0.3906 0.0277 0.3059 0.0
H282 H 0.28436 0.98061 0.34328 0.0
H283 H 0.20915 0.051 0.37945 0.0
H284 H 0.53126 0.26679 0.26245 0.0
H285 H 0.53105 0.14429 0.25651 0.0
H286 H 0.47843 0.03336 0.27365 0.0
H287 H 0.38876 0.97399 0.30459 0.0
C288 C 0.20434 0.14401 0.02038 0.0
C289 C 0.17846 0.20831 0.0284 0.0
C290 C 0.17804 0.23353 0.96726 0.0
C291 C 0.21753 0.17527 0.96082 0.0
N292 N 0.27999 0.08263 0.98396 0.0
N293 N 0.14831 0.31868 0.00841 0.0
C294 C 0.23453 0.1331 0.98829 0.0
C295 C 0.16724 0.25464 0.00156 0.0
N296 N 0.19742 0.09214 0.04278 0.0
N297 N 0.14808 0.2668 0.9412 0.0
H298 H 0.14327 0.33712 0.033 0.0
H299 H 0.1435 0.35502 0.98955 0.0
H300 H 0.15217 0.25162 0.91599 0.0
H301 H 0.11415 0.30582 0.94513 0.0
H302 H 0.2114 0.04344 0.03665 0.0
H303 H 0.16997 0.09613 0.06546 0.0
H304 H 0.2975 0.05388 0.00418 0.0
H305 H 0.30565 0.07512 0.96101 0.0
C306 C 0.82713 0.63963 0.25164 0.0
C307 C 0.79037 0.68562 0.27212 0.0
C308 C 0.77934 0.76088 0.22306 0.0
C309 C 0.81335 0.71365 0.2022 0.0
N310 N 0.85444 0.60103 0.1948 0.0
N311 N 0.71216 0.77721 0.27422 0.0
C312 C 0.83266 0.65082 0.21592 0.0
C313 C 0.76114 0.74294 0.25703 0.0
N314 N 0.85787 0.58582 0.2663 0.0
N315 N 0.76372 0.82252 0.21041 0.0
H316 H 0.69286 0.76047 0.29752 0.0
H317 H 0.68511 0.81647 0.26357 0.0
H318 H 0.77421 0.83668 0.18531 0.0
H319 H 0.74486 0.861 0.22556 0.0
H320 H 0.89224 0.55548 0.2534 0.0
H321 H 0.85263 0.57396 0.29206 0.0
H322 H 0.86255 0.55221 0.20293 0.0
H323 H 0.8589 0.60688 0.16851 0.0
C324 C 0.28445 0.31435 0.51862 0.0
C325 C 0.3361 0.26692 0.52536 0.0
C326 C 0.32747 0.22412 0.46816 0.0
C327 C 0.28493 0.27815 0.45882 0.0
N328 N 0.20125 0.35586 0.47921 0.0
N329 N 0.41733 0.18784 0.50311 0.0
C330 C 0.25703 0.31846 0.48523 0.0
C331 C 0.36088 0.22545 0.49911 0.0
N332 N 0.26439 0.35763 0.54356 0.0
N333 N 0.33161 0.16824 0.44882 0.0
H334 H 0.44444 0.18677 0.52535 0.0
H335 H 0.44053 0.16233 0.48303 0.0
H336 H 0.29787 0.16 0.42984 0.0
H337 H 0.35921 0.12598 0.45553 0.0
H338 H 0.2322 0.39784 0.53973 0.0
H339 H 0.28294 0.35556 0.56811 0.0
H340 H 0.17568 0.38351 0.49764 0.0
H341 H 0.17492 0.35193 0.45684 0.0
C342 C 0.77485 0.84429 0.7396 0.0
C343 C 0.74684 0.81521 0.76974 0.0
C344 C 0.70013 0.72654 0.73508 0.0
C345 C 0.72312 0.75891 0.70515 0.0
N346 N 0.79596 0.83814 0.67865 0.0
N347 N 0.67329 0.73375 0.79514 0.0
C348 C 0.76579 0.81377 0.70747 0.0
C349 C 0.70864 0.75638 0.7674 0.0
N350 N 0.80478 0.90457 0.74122 0.0
N351 N 0.66822 0.66765 0.73224 0.0
H352 H 0.67242 0.75681 0.81872 0.0
H353 H 0.63932 0.69546 0.79437 0.0
H354 H 0.65824 0.64764 0.70863 0.0
H355 H 0.65714 0.63622 0.75267 0.0
H356 H 0.81992 0.9324 0.72013 0.0
H357 H 0.80928 0.93032 0.76374 0.0
H358 H 0.83414 0.87233 0.67864 0.0
H359 H 0.78663 0.82005 0.65457 0.0
C360 C 0.29112 0.32091 0.24479 0.0
C361 C 0.25974 0.29287 0.27412 0.0
C362 C 0.17583 0.24356 0.23823 0.0
C363 C 0.20552 0.27339 0.20892 0.0
N364 N 0.29641 0.33391 0.18334 0.0
N365 N 0.18324 0.2125 0.29747 0.0
C366 C 0.26572 0.30862 0.21182 0.0
C367 C 0.20666 0.24827 0.27026 0.0
N368 N 0.34236 0.36346 0.24892 0.0
N369 N 0.11507 0.21495 0.23605 0.0
H370 H 0.19974 0.21852 0.32201 0.0
H371 H 0.15113 0.1728 0.29524 0.0
H372 H 0.09039 0.21113 0.21325 0.0
H373 H 0.08648 0.20002 0.25703 0.0
H374 H 0.36315 0.39257 0.22962 0.0
H375 H 0.36277 0.37129 0.2726 0.0
H376 H 0.34425 0.35264 0.18295 0.0
H377 H 0.27544 0.33329 0.15939 0.0
C378 C 0.74118 0.63699 0.51576 0.0
C379 C 0.70484 0.69667 0.52361 0.0
C380 C 0.69361 0.71744 0.46235 0.0
C381 C 0.7383 0.66333 0.4553 0.0
N382 N 0.81534 0.5806 0.47628 0.0
N383 N 0.65687 0.80027 0.50347 0.0
C384 C 0.76568 0.62641 0.48239 0.0
C385 C 0.68384 0.73896 0.49666 0.0
N386 N 0.74923 0.5879 0.53963 0.0
N387 N 0.65831 0.74649 0.43678 0.0
H388 H 0.65126 0.81882 0.52803 0.0
H389 H 0.64602 0.83512 0.48455 0.0
H390 H 0.66335 0.73223 0.41145 0.0
H391 H 0.62031 0.78137 0.44116 0.0
H392 H 0.76922 0.54105 0.53396 0.0
H393 H 0.72851 0.59026 0.56395 0.0
H394 H 0.84187 0.5573 0.49563 0.0
H395 H 0.83519 0.57189 0.45201 0.0
C396 C 0.3352 0.14916 0.72447 0.0
C397 C 0.33209 0.21232 0.70817 0.0
C398 C 0.31196 0.26611 0.76343 0.0
C399 C 0.30753 0.20241 0.7796 0.0
N400 N 0.32101 0.08271 0.77563 0.0
N401 N 0.307 0.32965 0.71081 0.0
C402 C 0.3208 0.14382 0.76005 0.0
C403 C 0.318 0.27041 0.72731 0.0
N404 N 0.35469 0.09443 0.70609 0.0
N405 N 0.31238 0.3229 0.78222 0.0
H406 H 0.31092 0.33516 0.68445 0.0
H407 H 0.28794 0.37202 0.72282 0.0
H408 H 0.3089 0.32374 0.80849 0.0
H409 H 0.32353 0.36937 0.77194 0.0
H410 H 0.36688 0.04843 0.71674 0.0
H411 H 0.36273 0.09548 0.67984 0.0
H412 H 0.31836 0.03796 0.76268 0.0
H413 H 0.32331 0.07607 0.80186 0.0
C414 C 0.77334 0.83328 0.01344 0.0
C415 C 0.82846 0.79075 0.02096 0.0
C416 C 0.83184 0.75207 0.96251 0.0
C417 C 0.78424 0.8018 0.95305 0.0
N418 N 0.68962 0.86682 0.97274 0.0
N419 N 0.9197 0.72169 0.0002 0.0
C420 C 0.74915 0.8365 0.97944 0.0
C421 C 0.86071 0.75421 -0.00525 0.0
N422 N 0.74648 0.87306 0.03836 0.0
N423 N 0.84471 0.69824 0.94232 0.0
H424 H 0.94287 0.7202 0.02361 0.0
H425 H 0.94847 0.70095 0.9805 0.0
H426 H 0.81464 0.68626 0.92223 0.0
H427 H 0.87627 0.65902 0.94924 0.0
H428 H 0.71145 0.91059 0.03397 0.0
H429 H 0.76236 0.87144 0.06343 0.0
H430 H 0.65907 0.88925 -0.00888 0.0
H431 H 0.66586 0.861 0.94972 0.0
C432 C 0.02182 0.04467 0.16416 0.0
C433 C 0.03669 0.08296 0.1346 0.0
C434 C 0.97365 0.00567 0.10025 0.0
C435 C 0.96766 0.96258 0.12899 0.0
N436 N 0.9871 0.93902 0.18815 0.0
N437 N 0.02781 0.10065 0.07416 0.0
C438 C 0.99197 0.98158 0.16094 0.0
C439 C 0.01209 0.06409 0.1026 0.0
N440 N 0.03372 0.07004 0.19541 0.0
N441 N 0.94308 0.99066 0.07061 0.0
H442 H 0.05223 0.14581 0.07509 0.0
H443 H 0.01996 0.08489 0.04945 0.0
H444 H 0.91765 0.94679 0.06692 0.0
H445 H 0.93881 0.02368 0.05022 0.0
H446 H 0.01884 0.04779 0.21826 0.0
H447 H 0.05237 0.11735 0.19819 0.0
H448 H 0.01122 0.94617 0.21095 0.0
H449 H 0.96155 0.89438 0.18736 0.0
C450 C 0.05308 0.49966 0.34034 0.0
C451 C 0.06557 0.45247 0.36655 0.0
C452 C 0.95483 0.47589 0.39158 0.0
C453 C 0.94599 0.52932 0.36791 0.0
N454 N 0.9886 0.59439 0.32052 0.0
N455 N 0.03135 0.39755 0.41838 0.0
C456 C 0.99569 0.54179 0.34251 0.0
C457 C 0.01694 0.44052 0.39232 0.0
N458 N 0.09506 0.50245 0.31257 0.0
N459 N 0.90414 0.4589 0.41344 0.0
H460 H 0.07539 0.36958 0.4191 0.0
H461 H 1.00193 0.39254 0.44029 0.0
H462 H 0.859 0.48471 0.41489 0.0
H463 H 0.90475 0.41617 0.42855 0.0
H464 H 0.08509 0.53017 0.29074 0.0
H465 H 0.13713 0.4719 0.30987 0.0
H466 H 0.02684 0.61158 0.30472 0.0
H467 H 0.94558 0.62368 0.31915 0.0
C468 C 0.4975 0.47369 0.65278 0.0
C469 C 0.50456 0.43236 0.62388 0.0
C470 C 0.56906 0.51792 0.59414 0.0
C471 C 0.56994 0.55531 0.62448 0.0
N472 N 0.53817 0.56787 0.68371 0.0
N473 N 0.55247 0.41133 0.56803 0.0
C474 C 0.53446 0.53334 0.65406 0.0
C475 C 0.54211 0.45328 0.59488 0.0
N476 N 0.45526 0.45604 0.67887 0.0
N477 N 0.59067 0.54583 0.56416 0.0
H478 H 0.53147 0.36448 0.56671 0.0
H479 H 0.58598 0.42096 0.54813 0.0
H480 H 0.60689 0.59472 0.56239 0.0
H481 H 0.58553 0.52361 0.54055 0.0
H482 H 0.44202 0.48742 0.6989 0.0
H483 H 0.42971 0.41133 0.67936 0.0
H484 H 0.52072 0.55006 0.7071 0.0
H485 H 0.5622 0.61304 0.68543 0.0
C486 C 0.50853 0.9564 0.89355 0.0
C487 C 0.5571 0.97638 0.86897 0.0
C488 C 0.48116 0.06372 0.84789 0.0
C489 C 0.43543 0.04844 0.87467 0.0
N490 N 0.4024 0.97964 0.92222 0.0
N491 N 0.59003 0.04673 0.8217 0.0
C492 C 0.44786 0.99393 0.89703 0.0
C493 C 0.5433 0.02925 0.84578 0.0
N494 N 0.52077 0.90181 0.91359 0.0
N495 N 0.46372 0.10946 0.82354 0.0
H496 H 0.63264 0.01823 0.81638 0.0
H497 H 0.58806 0.09056 0.8075 0.0
H498 H 0.41903 0.1362 0.82433 0.0
H499 H 0.49064 0.11772 0.80109 0.0
H500 H 0.48594 0.88044 0.93002 0.0
H501 H 0.56563 0.87525 0.91277 0.0
H502 H 0.41042 0.94585 0.94191 0.0
H503 H 0.35611 1.00332 0.92396 0.0
C504 C 0.97748 0.54057 0.07126 0.0
C505 C 0.96963 0.58344 0.09959 0.0
C506 C 0.04194 0.50848 0.13276 0.0
C507 C 0.04017 0.46102 0.10623 0.0
N508 N 0.00509 0.43029 0.05036 0.0
N509 N 0.99444 0.60862 0.15794 0.0
C510 C 0.00766 0.47669 0.07549 0.0
C511 C 1.00289 0.56811 0.13035 0.0
N512 N 0.95942 0.56258 0.03985 0.0
N513 N 0.08016 0.49625 0.16055 0.0
H514 H 0.96819 0.65363 0.15732 0.0
H515 H 0.00949 0.59584 0.18232 0.0
H516 H 0.10595 0.45165 0.16456 0.0
H517 H 0.0903 0.53195 0.17865 0.0
H518 H 0.9694 0.53664 0.01746 0.0
H519 H 0.94084 0.61047 0.03592 0.0
H520 H 0.97511 0.43559 0.02921 0.0
H521 H 0.03028 0.38461 0.0515 0.0
C522 C 0.46418 0.47926 0.33118 0.0
C523 C 0.44549 0.44398 0.36122 0.0
C524 C 0.53974 0.48994 0.39073 0.0
C525 C 0.56407 0.51632 0.35931 0.0
N526 N 0.55239 0.53373 0.29908 0.0
N527 N 0.46576 0.41283 0.41945 0.0
C528 C 0.52697 0.51056 0.32935 0.0
C529 C 0.4833 0.44864 0.39101 0.0
N530 N 0.42146 0.48379 0.30471 0.0
N531 N 0.56959 0.5057 0.42041 0.0
H532 H 0.42232 0.38539 0.42134 0.0
H533 H 0.49595 0.4073 0.44049 0.0
H534 H 0.61027 0.53668 0.42129 0.0
H535 H 0.55033 0.49356 0.4444 0.0
H536 H 0.42976 0.51331 0.28322 0.0
H537 H 0.37434 0.46326 0.30574 0.0
H538 H 0.53143 0.52428 0.27567 0.0
H539 H 0.59712 0.55905 0.29716 0.0
C540 C 0.50576 0.03761 0.63371 0.0
C541 C 0.47033 0.05418 0.60379 0.0
C542 C 0.50872 0.94918 0.57755 0.0
C543 C 0.54483 0.93309 0.60717 0.0
N544 N 0.58582 0.96545 0.6618 0.0
N545 N 0.45288 0.03433 0.54443 0.0
C546 C 0.54622 0.97866 0.63463 0.0
C547 C 0.47577 0.01218 0.57495 0.0
N548 N 0.49843 0.07671 0.6619 0.0
N549 N 0.50579 0.90411 0.55179 0.0
H550 H 0.4311 0.0811 0.54157 0.0
H551 H 0.46121 0.00973 0.52151 0.0
H552 H 0.53345 0.85979 0.5514 0.0
H553 H 0.47335 0.90893 0.53161 0.0
H554 H 0.51501 0.06306 0.68589 0.0
H555 H 0.47186 0.12158 0.6621 0.0
H556 H 0.59605 1.00014 0.68038 0.0
H557 H 0.61215 0.92091 0.66501 0.0
C558 C 0.9711 0.9853 0.82233 0.0
C559 C 0.9387 0.96466 0.85294 0.0
C560 C 0.01862 0.02651 0.88597 0.0
C561 C 0.05562 0.03985 0.85547 0.0
N562 N 0.0699 0.02954 0.79476 0.0
N563 N 0.93335 0.96076 0.91416 0.0
C564 C 0.0326 0.01857 0.82367 0.0
C565 C 0.96257 0.98449 0.88486 0.0
N566 N 0.9417 0.97502 0.79198 0.0
N567 N 0.03706 0.05366 0.91604 0.0
H568 H 0.89113 0.93142 0.91438 0.0
H569 H 0.95321 0.96623 0.93818 0.0
H570 H 0.07929 0.08212 0.91854 0.0
H571 H 0.00791 0.05223 0.93819 0.0
H572 H 0.95869 0.9945 0.76884 0.0
H573 H 0.89645 0.95157 0.79064 0.0
H574 H 0.06025 0.00794 0.77145 0.0
H575 H 0.11295 0.05769 0.7944 0.0
loop_
_geom_bond_atom_site_label_1
_geom_bond_atom_site_label_2
_geom_bond_distance
_geom_bond_site_symmetry_2
_ccdc_geom_bond_type
Mn0 O5 2.095 . S
Mn0 O15 2.162 . S
Mn0 O16 2.297 . S
Mn0 O24 2.385 . S
Mn0 O25 2.209 . S
Mn0 O26 2.094 . S
Mn1 O6 2.121 . S
Mn1 N8 2.257 . S
Mn1 N17 2.282 . S
Mn1 O25 2.215 . S
Mn1 O27 2.117 . S
C2 O24 1.234 . S
C2 O25 1.283 . S
C3 O15 1.281 . S
C3 O16 1.236 . S
C4 O26 1.240 . S
C4 O27 1.264 . S
O5 Mn0 2.095 . S
O5 C14 1.250 . S
O6 Mn1 2.121 . S
O6 C14 1.258 . S
C7 N8 1.326 . S
C7 C11 1.460 . S
C7 H13 0.929 . S
N8 Mn1 2.257 . S
N8 C7 1.326 . S
N8 C12 1.362 . S
C9 C10 1.258 . S
C9 C12 1.431 . S
C9 C29 1.449 . S
C10 C9 1.258 . S
C10 C11 1.477 . S
C10 H30 0.931 . S
C11 C7 1.460 . S
C11 C10 1.477 . S
C11 H31 0.930 . S
C12 N8 1.362 . S
C12 C9 1.431 . S
C12 C22 1.476 . S
H13 C7 0.929 . S
C14 O5 1.250 . S
C14 O6 1.258 . S
O15 Mn0 2.162 . S
O15 C3 1.281 . S
O16 Mn0 2.297 . S
O16 C3 1.236 . S
N17 Mn1 2.282 . S
N17 C18 1.328 . S
N17 C22 1.318 . S
C18 N17 1.328 . S
C18 C19 1.457 . S
C18 H23 0.929 . S
C19 C18 1.457 . S
C19 C20 1.291 . S
C19 H32 0.931 . S
C20 C19 1.291 . S
C20 C21 1.373 . S
C20 H33 0.929 . S
C21 C20 1.373 . S
C21 C22 1.396 . S
C21 C28 1.403 . S
C22 C12 1.476 . S
C22 N17 1.318 . S
C22 C21 1.396 . S
H23 C18 0.929 . S
O24 Mn0 2.385 . S
O24 C2 1.234 . S
O25 Mn0 2.209 . S
O25 Mn1 2.215 . S
O25 C2 1.283 . S
O26 Mn0 2.094 . S
O26 C4 1.240 . S
O27 Mn1 2.117 . S
O27 C4 1.264 . S
C28 C21 1.403 . S
C28 C29 1.399 . S
C28 H34 0.929 . S
C29 C9 1.449 . S
C29 C28 1.399 . S
C29 H35 0.930 . S
H30 C10 0.931 . S
H31 C11 0.930 . S
H32 C19 0.931 . S
H33 C20 0.929 . S
H34 C28 0.929 . S
H35 C29 0.930 . S
Mn36 O41 2.095 . S
Mn36 O51 2.162 . S
Mn36 O52 2.297 . S
Mn36 O60 2.385 . S
Mn36 O61 2.209 . S
Mn36 O62 2.094 . S
Mn37 O42 2.121 . S
Mn37 N44 2.257 . S
Mn37 N53 2.282 . S
Mn37 O61 2.215 . S
Mn37 O63 2.117 . S
C38 O60 1.234 . S
C38 O61 1.283 . S
C39 O51 1.281 . S
C39 O52 1.236 . S
C40 O62 1.240 . S
C40 O63 1.264 . S
O41 Mn36 2.095 . S
O41 C50 1.250 . S
O42 Mn37 2.121 . S
O42 C50 1.258 . S
C43 N44 1.326 . S
C43 C47 1.460 . S
C43 H49 0.929 . S
N44 Mn37 2.257 . S
N44 C43 1.326 . S
N44 C48 1.362 . S
C45 C46 1.258 . S
C45 C48 1.431 . S
C45 C65 1.449 . S
C46 C45 1.258 . S
C46 C47 1.477 . S
C46 H66 0.931 1_565 S
C47 C43 1.460 . S
C47 C46 1.477 . S
C47 H67 0.930 . S
C48 N44 1.362 . S
C48 C45 1.431 . S
C48 C58 1.476 . S
H49 C43 0.929 . S
C50 O41 1.250 . S
C50 O42 1.258 . S
O51 Mn36 2.162 . S
O51 C39 1.281 . S
O52 Mn36 2.297 . S
O52 C39 1.236 . S
N53 Mn37 2.282 . S
N53 C54 1.328 . S
N53 C58 1.318 . S
C54 N53 1.328 . S
C54 C55 1.457 . S
C54 H59 0.929 . S
C55 C54 1.457 . S
C55 C56 1.291 . S
C55 H68 0.931 . S
C56 C55 1.291 . S
C56 C57 1.373 . S
C56 H69 0.929 . S
C57 C56 1.373 . S
C57 C58 1.396 . S
C57 C64 1.403 . S
C58 C48 1.476 . S
C58 N53 1.318 . S
C58 C57 1.396 . S
H59 C54 0.929 . S
O60 Mn36 2.385 . S
O60 C38 1.234 . S
O61 Mn36 2.209 . S
O61 Mn37 2.215 . S
O61 C38 1.283 . S
O62 Mn36 2.094 . S
O62 C40 1.240 . S
O63 Mn37 2.117 . S
O63 C40 1.264 . S
C64 C57 1.403 . S
C64 C65 1.399 . S
C64 H70 0.929 . S
C65 C45 1.449 . S
C65 C64 1.399 . S
C65 H71 0.930 . S
H66 C46 0.931 1_545 S
H67 C47 0.930 . S
H68 C55 0.931 . S
H69 C56 0.929 . S
H70 C64 0.929 . S
H71 C65 0.930 . S
Mn72 O77 2.095 . S
Mn72 O87 2.162 . S
Mn72 O88 2.297 . S
Mn72 O96 2.385 . S
Mn72 O97 2.209 . S
Mn72 O98 2.094 . S
Mn73 O78 2.121 . S
Mn73 N80 2.257 . S
Mn73 N89 2.282 . S
Mn73 O97 2.215 . S
Mn73 O99 2.117 . S
C74 O96 1.234 . S
C74 O97 1.283 . S
C75 O87 1.281 . S
C75 O88 1.236 . S
C76 O98 1.240 . S
C76 O99 1.264 . S
O77 Mn72 2.095 . S
O77 C86 1.250 . S
O78 Mn73 2.121 . S
O78 C86 1.258 . S
C79 N80 1.326 . S
C79 C83 1.460 . S
C79 H85 0.929 . S
N80 Mn73 2.257 . S
N80 C79 1.326 . S
N80 C84 1.362 . S
C81 C82 1.258 . S
C81 C84 1.431 . S
C81 C101 1.449 . S
C82 C81 1.258 . S
C82 C83 1.477 . S
C82 H102 0.931 1_455 S
C83 C79 1.460 . S
C83 C82 1.477 . S
C83 H103 0.930 . S
C84 N80 1.362 . S
C84 C81 1.431 . S
C84 C94 1.476 . S
H85 C79 0.929 . S
C86 O77 1.250 . S
C86 O78 1.258 . S
O87 Mn72 2.162 . S
O87 C75 1.281 . S
O88 Mn72 2.297 . S
O88 C75 1.236 . S
N89 Mn73 2.282 . S
N89 C90 1.328 . S
N89 C94 1.318 . S
C90 N89 1.328 . S
C90 C91 1.457 . S
C90 H95 0.929 . S
C91 C90 1.457 . S
C91 C92 1.291 . S
C91 H104 0.931 . S
C92 C91 1.291 . S
C92 C93 1.373 . S
C92 H105 0.929 . S
C93 C92 1.373 . S
C93 C94 1.396 . S
C93 C100 1.403 . S
C94 C84 1.476 . S
C94 N89 1.318 . S
C94 C93 1.396 . S
H95 C90 0.929 . S
O96 Mn72 2.385 . S
O96 C74 1.234 . S
O97 Mn72 2.209 . S
O97 Mn73 2.215 . S
O97 C74 1.283 . S
O98 Mn72 2.094 . S
O98 C76 1.240 . S
O99 Mn73 2.117 . S
O99 C76 1.264 . S
C100 C93 1.403 . S
C100 C101 1.399 . S
C100 H106 0.929 . S
C101 C81 1.449 . S
C101 C100 1.399 . S
C101 H107 0.930 . S
H102 C82 0.931 1_655 S
H103 C83 0.930 . S
H104 C91 0.931 . S
H105 C92 0.929 . S
H106 C100 0.929 . S
H107 C101 0.930 . S
Mn108 O113 2.095 . S
Mn108 O123 2.162 . S
Mn108 O124 2.297 . S
Mn108 O132 2.385 . S
Mn108 O133 2.209 . S
Mn108 O134 2.094 . S
Mn109 O114 2.121 . S
Mn109 N116 2.257 . S
Mn109 N125 2.282 . S
Mn109 O133 2.215 . S
Mn109 O135 2.117 . S
C110 O132 1.234 . S
C110 O133 1.283 . S
C111 O123 1.281 . S
C111 O124 1.236 . S
C112 O134 1.240 . S
C112 O135 1.264 . S
O113 Mn108 2.095 . S
O113 C122 1.250 . S
O114 Mn109 2.121 . S
O114 C122 1.258 . S
C115 N116 1.326 . S
C115 C119 1.460 . S
C115 H121 0.929 . S
N116 Mn109 2.257 . S
N116 C115 1.326 . S
N116 C120 1.362 . S
C117 C118 1.258 . S
C117 C120 1.431 . S
C117 C137 1.449 . S
C118 C117 1.258 . S
C118 C119 1.477 . S
C118 H138 0.931 . S
C119 C115 1.460 . S
C119 C118 1.477 . S
C119 H139 0.930 . S
C120 N116 1.362 . S
C120 C117 1.431 . S
C120 C130 1.476 . S
H121 C115 0.929 . S
C122 O113 1.250 . S
C122 O114 1.258 . S
O123 Mn108 2.162 . S
O123 C111 1.281 . S
O124 Mn108 2.297 . S
O124 C111 1.236 . S
N125 Mn109 2.282 . S
N125 C126 1.328 . S
N125 C130 1.318 . S
C126 N125 1.328 . S
C126 C127 1.457 . S
C126 H131 0.929 . S
C127 C126 1.457 . S
C127 C128 1.291 . S
C127 H140 0.931 . S
C128 C127 1.291 . S
C128 C129 1.373 . S
C128 H141 0.929 . S
C129 C128 1.373 . S
C129 C130 1.396 . S
C129 C136 1.403 . S
C130 C120 1.476 . S
C130 N125 1.318 . S
C130 C129 1.396 . S
H131 C126 0.929 . S
O132 Mn108 2.385 . S
O132 C110 1.234 . S
O133 Mn108 2.209 . S
O133 Mn109 2.215 . S
O133 C110 1.283 . S
O134 Mn108 2.094 . S
O134 C112 1.240 . S
O135 Mn109 2.117 . S
O135 C112 1.264 . S
C136 C129 1.403 . S
C136 C137 1.399 . S
C136 H142 0.929 . S
C137 C117 1.449 . S
C137 C136 1.399 . S
C137 H143 0.930 . S
H138 C118 0.931 . S
H139 C119 0.930 . S
H140 C127 0.931 . S
H141 C128 0.929 . S
H142 C136 0.929 . S
H143 C137 0.930 . S
Mn144 O149 2.095 . S
Mn144 O159 2.162 . S
Mn144 O160 2.297 . S
Mn144 O168 2.385 . S
Mn144 O169 2.209 . S
Mn144 O170 2.094 . S
Mn145 O150 2.121 . S
Mn145 N152 2.257 . S
Mn145 N161 2.282 . S
Mn145 O169 2.215 . S
Mn145 O171 2.117 . S
C146 O168 1.234 . S
C146 O169 1.283 . S
C147 O159 1.281 . S
C147 O160 1.236 . S
C148 O170 1.240 . S
C148 O171 1.264 . S
O149 Mn144 2.095 . S
O149 C158 1.250 . S
O150 Mn145 2.121 . S
O150 C158 1.258 . S
C151 N152 1.326 . S
C151 C155 1.460 . S
C151 H157 0.929 . S
N152 Mn145 2.257 . S
N152 C151 1.326 . S
N152 C156 1.362 . S
C153 C154 1.258 . S
C153 C156 1.431 . S
C153 C173 1.449 . S
C154 C153 1.258 . S
C154 C155 1.477 . S
C154 H174 0.931 1_655 S
C155 C151 1.460 . S
C155 C154 1.477 . S
C155 H175 0.939 . S
C156 N152 1.362 . S
C156 C153 1.431 . S
C156 C166 1.476 . S
H157 C151 0.929 . S
C158 O149 1.250 . S
C158 O150 1.258 . S
O159 Mn144 2.162 . S
O159 C147 1.281 . S
O160 Mn144 2.297 . S
O160 C147 1.236 . S
N161 Mn145 2.282 . S
N161 C162 1.328 . S
N161 C166 1.318 . S
C162 N161 1.328 . S
C162 C163 1.457 . S
C162 H167 0.929 . S
C163 C162 1.457 . S
C163 C164 1.291 . S
C163 H176 0.931 . S
C164 C163 1.291 . S
C164 C165 1.373 . S
C164 H177 0.929 . S
C165 C164 1.373 . S
C165 C166 1.396 . S
C165 C172 1.403 . S
C166 C156 1.476 . S
C166 N161 1.318 . S
C166 C165 1.396 . S
H167 C162 0.929 . S
O168 Mn144 2.385 . S
O168 C146 1.234 . S
O169 Mn144 2.209 . S
O169 Mn145 2.215 . S
O169 C146 1.283 . S
O170 Mn144 2.094 . S
O170 C148 1.240 . S
O171 Mn145 2.117 . S
O171 C148 1.264 . S
C172 C165 1.403 . S
C172 C173 1.399 . S
C172 H178 0.929 . S
C173 C153 1.449 . S
C173 C172 1.399 . S
C173 H179 0.944 . S
H174 C154 0.931 1_455 S
H175 C155 0.939 . S
H176 C163 0.931 . S
H177 C164 0.929 . S
H178 C172 0.929 . S
H179 C173 0.944 . S
Mn180 O185 2.095 . S
Mn180 O195 2.162 . S
Mn180 O196 2.297 . S
Mn180 O204 2.385 . S
Mn180 O205 2.209 . S
Mn180 O206 2.094 . S
Mn181 O186 2.121 . S
Mn181 N188 2.257 . S
Mn181 N197 2.282 . S
Mn181 O205 2.215 . S
Mn181 O207 2.117 . S
C182 O204 1.234 . S
C182 O205 1.283 . S
C183 O195 1.281 . S
C183 O196 1.236 . S
C184 O206 1.240 . S
C184 O207 1.264 . S
O185 Mn180 2.095 . S
O185 C194 1.250 . S
O186 Mn181 2.121 . S
O186 C194 1.258 . S
C187 N188 1.326 . S
C187 C191 1.460 . S
C187 H193 0.929 . S
N188 Mn181 2.257 . S
N188 C187 1.326 . S
N188 C192 1.362 . S
C189 C190 1.258 . S
C189 C192 1.431 . S
C189 C209 1.449 . S
C190 C189 1.258 . S
C190 C191 1.477 . S
C190 H210 0.931 . S
C191 C187 1.460 . S
C191 C190 1.477 . S
C191 H211 0.930 . S
C192 N188 1.362 . S
C192 C189 1.431 . S
C192 C202 1.476 . S
H193 C187 0.929 . S
C194 O185 1.250 . S
C194 O186 1.258 . S
O195 Mn180 2.162 . S
O195 C183 1.281 . S
O196 Mn180 2.297 . S
O196 C183 1.236 . S
N197 Mn181 2.282 . S
N197 C198 1.328 . S
N197 C202 1.318 . S
C198 N197 1.328 . S
C198 C199 1.457 . S
C198 H203 0.929 . S
C199 C198 1.457 . S
C199 C200 1.291 1_556 S
C199 H212 0.931 1_556 S
C200 C199 1.291 1_554 S
C200 C201 1.373 1_554 S
C200 H213 0.929 . S
C201 C200 1.373 1_556 S
C201 C202 1.396 . S
C201 C208 1.408 . S
C202 C192 1.476 . S
C202 N197 1.318 . S
C202 C201 1.396 . S
H203 C198 0.929 . S
O204 Mn180 2.385 . S
O204 C182 1.234 . S
O205 Mn180 2.209 . S
O205 Mn181 2.215 . S
O205 C182 1.283 . S
O206 Mn180 2.094 . S
O206 C184 1.240 . S
O207 Mn181 2.117 . S
O207 C184 1.264 . S
C208 C201 1.408 . S
C208 C209 1.410 . S
C208 H214 0.913 1_556 S
C209 C189 1.449 . S
C209 C208 1.410 . S
C209 H215 0.930 . S
H210 C190 0.931 . S
H211 C191 0.930 . S
H212 C199 0.931 1_554 S
H213 C200 0.929 . S
H214 C208 0.913 1_554 S
H215 C209 0.930 . S
Mn216 O221 2.095 . S
Mn216 O231 2.162 . S
Mn216 O232 2.297 . S
Mn216 O240 2.385 . S
Mn216 O241 2.209 . S
Mn216 O242 2.094 . S
Mn217 O222 2.121 . S
Mn217 N224 2.257 . S
Mn217 N233 2.282 . S
Mn217 O241 2.215 . S
Mn217 O243 2.117 . S
C218 O240 1.234 . S
C218 O241 1.283 . S
C219 O231 1.281 . S
C219 O232 1.236 . S
C220 O242 1.240 . S
C220 O243 1.264 . S
O221 Mn216 2.095 . S
O221 C230 1.250 . S
O222 Mn217 2.121 . S
O222 C230 1.258 . S
C223 N224 1.326 . S
C223 C227 1.460 . S
C223 H229 0.929 . S
N224 Mn217 2.257 . S
N224 C223 1.326 . S
N224 C228 1.362 . S
C225 C226 1.258 . S
C225 C228 1.431 . S
C225 C245 1.449 . S
C226 C225 1.258 . S
C226 C227 1.477 . S
C226 H246 0.931 . S
C227 C223 1.460 . S
C227 C226 1.477 . S
C227 H247 0.930 . S
C228 N224 1.362 . S
C228 C225 1.431 . S
C228 C238 1.476 . S
H229 C223 0.929 . S
C230 O221 1.250 . S
C230 O222 1.258 . S
O231 Mn216 2.162 . S
O231 C219 1.281 . S
O232 Mn216 2.297 . S
O232 C219 1.236 . S
N233 Mn217 2.282 . S
N233 C234 1.328 . S
N233 C238 1.318 . S
C234 N233 1.328 . S
C234 C235 1.457 . S
C234 H239 0.929 . S
C235 C234 1.457 . S
C235 C236 1.291 1_554 S
C235 H248 0.931 1_554 S
C236 C235 1.291 1_556 S
C236 C237 1.373 1_556 S
C236 H249 0.929 . S
C237 C236 1.373 1_554 S
C237 C238 1.396 . S
C237 C244 1.408 . S
C238 C228 1.476 . S
C238 N233 1.318 . S
C238 C237 1.396 . S
H239 C234 0.929 . S
O240 Mn216 2.385 . S
O240 C218 1.234 . S
O241 Mn216 2.209 . S
O241 Mn217 2.215 . S
O241 C218 1.283 . S
O242 Mn216 2.094 . S
O242 C220 1.240 . S
O243 Mn217 2.117 . S
O243 C220 1.264 . S
C244 C237 1.408 . S
C244 C245 1.410 . S
C244 H250 0.913 1_554 S
C245 C225 1.449 . S
C245 C244 1.410 . S
C245 H251 0.930 . S
H246 C226 0.931 . S
H247 C227 0.930 . S
H248 C235 0.931 1_556 S
H249 C236 0.929 . S
H250 C244 0.913 1_556 S
H251 C245 0.930 . S
Mn252 O257 2.095 . S
Mn252 O267 2.162 . S
Mn252 O268 2.297 . S
Mn252 O276 2.385 . S
Mn252 O277 2.209 . S
Mn252 O278 2.094 . S
Mn253 O258 2.121 . S
Mn253 N260 2.257 . S
Mn253 N269 2.282 . S
Mn253 O277 2.215 . S
Mn253 O279 2.117 . S
C254 O276 1.234 . S
C254 O277 1.283 . S
C255 O267 1.281 . S
C255 O268 1.236 . S
C256 O278 1.240 . S
C256 O279 1.264 . S
O257 Mn252 2.095 . S
O257 C266 1.250 . S
O258 Mn253 2.121 . S
O258 C266 1.258 . S
C259 N260 1.326 . S
C259 C263 1.460 . S
C259 H265 0.929 . S
N260 Mn253 2.257 . S
N260 C259 1.326 . S
N260 C264 1.362 . S
C261 C262 1.258 . S
C261 C264 1.431 . S
C261 C281 1.449 . S
C262 C261 1.258 . S
C262 C263 1.477 . S
C262 H282 0.931 1_545 S
C263 C259 1.460 . S
C263 C262 1.477 . S
C263 H283 0.939 . S
C264 N260 1.362 . S
C264 C261 1.431 . S
C264 C274 1.476 . S
H265 C259 0.929 . S
C266 O257 1.250 . S
C266 O258 1.258 . S
O267 Mn252 2.162 . S
O267 C255 1.281 . S
O268 Mn252 2.297 . S
O268 C255 1.236 . S
N269 Mn253 2.282 . S
N269 C270 1.328 . S
N269 C274 1.318 . S
C270 N269 1.328 . S
C270 C271 1.457 . S
C270 H275 0.929 . S
C271 C270 1.457 . S
C271 C272 1.291 . S
C271 H284 0.931 . S
C272 C271 1.291 . S
C272 C273 1.373 . S
C272 H285 0.929 . S
C273 C272 1.373 . S
C273 C274 1.396 . S
C273 C280 1.403 . S
C274 C264 1.476 . S
C274 N269 1.318 . S
C274 C273 1.396 . S
H275 C270 0.929 . S
O276 Mn252 2.385 . S
O276 C254 1.234 . S
O277 Mn252 2.209 . S
O277 Mn253 2.215 . S
O277 C254 1.283 . S
O278 Mn252 2.094 . S
O278 C256 1.240 . S
O279 Mn253 2.117 . S
O279 C256 1.264 . S
C280 C273 1.403 . S
C280 C281 1.399 . S
C280 H286 0.929 . S
C281 C261 1.449 . S
C281 C280 1.399 . S
C281 H287 0.944 . S
H282 C262 0.931 1_565 S
H283 C263 0.939 . S
H284 C271 0.931 . S
H285 C272 0.929 . S
H286 C280 0.929 . S
H287 C281 0.944 . S
C288 C289 1.363 . S
C288 C294 1.379 1_554 S
C288 N296 1.356 . S
C289 C288 1.363 . S
C289 C295 1.363 . S
C290 C291 1.363 . S
C290 C295 1.379 1_556 S
C290 N297 1.356 . S
C291 C290 1.363 . S
C291 C294 1.363 . S
N292 C294 1.356 . S
N292 H304 0.984 . S
N292 H305 0.985 . S
N293 C295 1.356 . S
N293 H298 0.984 . S
N293 H299 0.985 . S
C294 C288 1.379 1_556 S
C294 C291 1.363 . S
C294 N292 1.356 . S
C295 C289 1.363 . S
C295 C290 1.379 1_554 S
C295 N293 1.356 . S
N296 C288 1.356 . S
N296 H302 0.984 . S
N296 H303 0.984 . S
N297 C290 1.356 . S
N297 H300 0.984 . S
N297 H301 0.985 . S
H298 N293 0.984 . S
H299 N293 0.985 . S
H300 N297 0.984 . S
H301 N297 0.985 . S
H302 N296 0.984 . S
H303 N296 0.984 . S
H304 N292 0.984 . S
H305 N292 0.985 . S
C306 C307 1.363 . S
C306 C312 1.379 . S
C306 N314 1.356 . S
C307 C306 1.363 . S
C307 C313 1.363 . S
C308 C309 1.363 . S
C308 C313 1.379 . S
C308 N315 1.356 . S
C309 C308 1.363 . S
C309 C312 1.363 . S
N310 C312 1.356 . S
N310 H322 0.984 . S
N310 H323 0.985 . S
N311 C313 1.356 . S
N311 H316 0.984 . S
N311 H317 0.985 . S
C312 C306 1.379 . S
C312 C309 1.363 . S
C312 N310 1.356 . S
C313 C307 1.363 . S
C313 C308 1.379 . S
C313 N311 1.356 . S
N314 C306 1.356 . S
N314 H320 0.984 . S
N314 H321 0.984 . S
N315 C308 1.356 . S
N315 H318 0.984 . S
N315 H319 0.985 . S
H316 N311 0.984 . S
H317 N311 0.985 . S
H318 N315 0.984 . S
H319 N315 0.985 . S
H320 N314 0.984 . S
H321 N314 0.984 . S
H322 N310 0.984 . S
H323 N310 0.985 . S
C324 C325 1.363 . S
C324 C330 1.379 . S
C324 N332 1.356 . S
C325 C324 1.363 . S
C325 C331 1.363 . S
C326 C327 1.363 . S
C326 C331 1.379 . S
C326 N333 1.356 . S
C327 C326 1.363 . S
C327 C330 1.363 . S
N328 C330 1.356 . S
N328 H340 0.984 . S
N328 H341 0.985 . S
N329 C331 1.356 . S
N329 H334 0.984 . S
N329 H335 0.985 . S
C330 C324 1.379 . S
C330 C327 1.363 . S
C330 N328 1.356 . S
C331 C325 1.363 . S
C331 C326 1.379 . S
C331 N329 1.356 . S
N332 C324 1.356 . S
N332 H338 0.984 . S
N332 H339 0.984 . S
N333 C326 1.356 . S
N333 H336 0.984 . S
N333 H337 0.985 . S
H334 N329 0.984 . S
H335 N329 0.985 . S
H336 N333 0.984 . S
H337 N333 0.985 . S
H338 N332 0.984 . S
H339 N332 0.984 . S
H340 N328 0.984 . S
H341 N328 0.985 . S
C342 C343 1.363 . S
C342 C348 1.379 . S
C342 N350 1.356 . S
C343 C342 1.363 . S
C343 C349 1.363 . S
C344 C345 1.363 . S
C344 C349 1.379 . S
C344 N351 1.356 . S
C345 C344 1.363 . S
C345 C348 1.363 . S
N346 C348 1.356 . S
N346 H358 0.984 . S
N346 H359 0.985 . S
N347 C349 1.356 . S
N347 H352 0.984 . S
N347 H353 0.985 . S
C348 C342 1.379 . S
C348 C345 1.363 . S
C348 N346 1.356 . S
C349 C343 1.363 . S
C349 C344 1.379 . S
C349 N347 1.356 . S
N350 C342 1.356 . S
N350 H356 0.984 . S
N350 H357 0.984 . S
N351 C344 1.356 . S
N351 H354 0.984 . S
N351 H355 0.985 . S
H352 N347 0.984 . S
H353 N347 0.985 . S
H354 N351 0.984 . S
H355 N351 0.985 . S
H356 N350 0.984 . S
H357 N350 0.984 . S
H358 N346 0.984 . S
H359 N346 0.985 . S
C360 C361 1.363 . S
C360 C366 1.379 . S
C360 N368 1.356 . S
C361 C360 1.363 . S
C361 C367 1.363 . S
C362 C363 1.363 . S
C362 C367 1.379 . S
C362 N369 1.356 . S
C363 C362 1.363 . S
C363 C366 1.363 . S
N364 C366 1.356 . S
N364 H376 0.984 . S
N364 H377 0.985 . S
N365 C367 1.356 . S
N365 H370 0.984 . S
N365 H371 0.985 . S
C366 C360 1.379 . S
C366 C363 1.363 . S
C366 N364 1.356 . S
C367 C361 1.363 . S
C367 C362 1.379 . S
C367 N365 1.356 . S
N368 C360 1.356 . S
N368 H374 0.984 . S
N368 H375 0.984 . S
N369 C362 1.356 . S
N369 H372 0.984 . S
N369 H373 0.985 . S
H370 N365 0.984 . S
H371 N365 0.985 . S
H372 N369 0.984 . S
H373 N369 0.985 . S
H374 N368 0.984 . S
H375 N368 0.984 . S
H376 N364 0.984 . S
H377 N364 0.985 . S
C378 C379 1.363 . S
C378 C384 1.379 . S
C378 N386 1.356 . S
C379 C378 1.363 . S
C379 C385 1.363 . S
C380 C381 1.363 . S
C380 C385 1.379 . S
C380 N387 1.356 . S
C381 C380 1.363 . S
C381 C384 1.363 . S
N382 C384 1.356 . S
N382 H394 0.984 . S
N382 H395 0.985 . S
N383 C385 1.356 . S
N383 H388 0.984 . S
N383 H389 0.985 . S
C384 C378 1.379 . S
C384 C381 1.363 . S
C384 N382 1.356 . S
C385 C379 1.363 . S
C385 C380 1.379 . S
C385 N383 1.356 . S
N386 C378 1.356 . S
N386 H392 0.984 . S
N386 H393 0.984 . S
N387 C380 1.356 . S
N387 H390 0.984 . S
N387 H391 0.985 . S
H388 N383 0.984 . S
H389 N383 0.985 . S
H390 N387 0.984 . S
H391 N387 0.985 . S
H392 N386 0.984 . S
H393 N386 0.984 . S
H394 N382 0.984 . S
H395 N382 0.985 . S
C396 C397 1.363 . S
C396 C402 1.379 . S
C396 N404 1.356 . S
C397 C396 1.363 . S
C397 C403 1.363 . S
C398 C399 1.363 . S
C398 C403 1.379 . S
C398 N405 1.356 . S
C399 C398 1.363 . S
C399 C402 1.363 . S
N400 C402 1.356 . S
N400 H412 0.984 . S
N400 H413 0.985 . S
N401 C403 1.356 . S
N401 H406 0.984 . S
N401 H407 0.985 . S
C402 C396 1.379 . S
C402 C399 1.363 . S
C402 N400 1.356 . S
C403 C397 1.363 . S
C403 C398 1.379 . S
C403 N401 1.356 . S
N404 C396 1.356 . S
N404 H410 0.984 . S
N404 H411 0.984 . S
N405 C398 1.356 . S
N405 H408 0.984 . S
N405 H409 0.985 . S
H406 N401 0.984 . S
H407 N401 0.985 . S
H408 N405 0.984 . S
H409 N405 0.985 . S
H410 N404 0.984 . S
H411 N404 0.984 . S
H412 N400 0.984 . S
H413 N400 0.985 . S
C414 C415 1.363 . S
C414 C420 1.379 1_554 S
C414 N422 1.356 . S
C415 C414 1.363 . S
C415 C421 1.363 . S
C416 C417 1.363 . S
C416 C421 1.379 1_556 S
C416 N423 1.356 . S
C417 C416 1.363 . S
C417 C420 1.363 . S
N418 C420 1.356 . S
N418 H430 0.984 . S
N418 H431 0.985 . S
N419 C421 1.356 . S
N419 H424 0.984 . S
N419 H425 0.985 . S
C420 C414 1.379 1_556 S
C420 C417 1.363 . S
C420 N418 1.356 . S
C421 C415 1.363 . S
C421 C416 1.379 1_554 S
C421 N419 1.356 . S
N422 C414 1.356 . S
N422 H428 0.984 . S
N422 H429 0.984 . S
N423 C416 1.356 . S
N423 H426 0.984 . S
N423 H427 0.985 . S
H424 N419 0.984 . S
H425 N419 0.985 . S
H426 N423 0.984 . S
H427 N423 0.985 . S
H428 N422 0.984 . S
H429 N422 0.984 . S
H430 N418 0.984 . S
H431 N418 0.985 . S
C432 C433 1.363 . S
C432 C438 1.379 1_545 S
C432 N440 1.356 . S
C433 C432 1.363 . S
C433 C439 1.363 1_455 S
C434 C435 1.363 . S
C434 C439 1.379 1_565 S
C434 N441 1.356 . S
C435 C434 1.363 . S
C435 C438 1.363 1_655 S
N436 C438 1.356 1_655 S
N436 H448 0.984 1_655 S
N436 H449 0.985 . S
N437 C439 1.356 1_455 S
N437 H442 0.984 . S
N437 H443 0.985 1_455 S
C438 C432 1.379 1_565 S
C438 C435 1.363 1_455 S
C438 N436 1.356 1_455 S
C439 C433 1.363 1_655 S
C439 C434 1.379 1_545 S
C439 N437 1.356 1_655 S
N440 C432 1.356 . S
N440 H446 0.984 . S
N440 H447 0.984 . S
N441 C434 1.356 . S
N441 H444 0.984 . S
N441 H445 0.985 . S
H442 N437 0.984 . S
H443 N437 0.985 1_655 S
H444 N441 0.984 . S
H445 N441 0.985 . S
H446 N440 0.984 . S
H447 N440 0.984 . S
H448 N436 0.984 1_455 S
H449 N436 0.985 . S
C450 C451 1.363 . S
C450 C456 1.379 1_455 S
C450 N458 1.356 . S
C451 C450 1.363 . S
C451 C457 1.363 . S
C452 C453 1.363 . S
C452 C457 1.379 1_655 S
C452 N459 1.356 . S
C453 C452 1.363 . S
C453 C456 1.363 . S
N454 C456 1.356 . S
N454 H466 0.984 . S
N454 H467 0.985 . S
N455 C457 1.356 . S
N455 H460 0.984 . S
N455 H461 0.985 . S
C456 C450 1.379 1_655 S
C456 C453 1.363 . S
C456 N454 1.356 . S
C457 C451 1.363 . S
C457 C452 1.379 1_455 S
C457 N455 1.356 . S
N458 C450 1.356 . S
N458 H464 0.984 . S
N458 H465 0.984 . S
N459 C452 1.356 . S
N459 H462 0.984 . S
N459 H463 0.985 . S
H460 N455 0.984 . S
H461 N455 0.985 . S
H462 N459 0.984 . S
H463 N459 0.985 . S
H464 N458 0.984 . S
H465 N458 0.984 . S
H466 N454 0.984 . S
H467 N454 0.985 . S
C468 C469 1.363 . S
C468 C474 1.379 . S
C468 N476 1.356 . S
C469 C468 1.363 . S
C469 C475 1.363 . S
C470 C471 1.363 . S
C470 C475 1.379 . S
C470 N477 1.356 . S
C471 C470 1.363 . S
C471 C474 1.363 . S
N472 C474 1.356 . S
N472 H484 0.984 . S
N472 H485 0.985 . S
N473 C475 1.356 . S
N473 H478 0.984 . S
N473 H479 0.985 . S
C474 C468 1.379 . S
C474 C471 1.363 . S
C474 N472 1.356 . S
C475 C469 1.363 . S
C475 C470 1.379 . S
C475 N473 1.356 . S
N476 C468 1.356 . S
N476 H482 0.984 . S
N476 H483 0.984 . S
N477 C470 1.356 . S
N477 H480 0.984 . S
N477 H481 0.985 . S
H478 N473 0.984 . S
H479 N473 0.985 . S
H480 N477 0.984 . S
H481 N477 0.985 . S
H482 N476 0.984 . S
H483 N476 0.984 . S
H484 N472 0.984 . S
H485 N472 0.985 . S
C486 C487 1.363 . S
C486 C492 1.379 . S
C486 N494 1.356 . S
C487 C486 1.363 . S
C487 C493 1.363 1_565 S
C488 C489 1.363 . S
C488 C493 1.379 . S
C488 N495 1.356 . S
C489 C488 1.363 . S
C489 C492 1.363 1_545 S
N490 C492 1.356 . S
N490 H502 0.984 . S
N490 H503 0.985 1_565 S
N491 C493 1.356 1_565 S
N491 H496 0.984 . S
N491 H497 0.985 1_565 S
C492 C486 1.379 . S
C492 C489 1.363 1_565 S
C492 N490 1.356 . S
C493 C487 1.363 1_545 S
C493 C488 1.379 . S
C493 N491 1.356 1_545 S
N494 C486 1.356 . S
N494 H500 0.984 . S
N494 H501 0.984 . S
N495 C488 1.356 . S
N495 H498 0.984 . S
N495 H499 0.985 . S
H496 N491 0.984 . S
H497 N491 0.985 1_545 S
H498 N495 0.984 . S
H499 N495 0.985 . S
H500 N494 0.984 . S
H501 N494 0.984 . S
H502 N490 0.984 . S
H503 N490 0.985 1_545 S
C504 C505 1.363 . S
C504 C510 1.379 . S
C504 N512 1.356 . S
C505 C504 1.363 . S
C505 C511 1.363 1_655 S
C506 C507 1.363 . S
C506 C511 1.379 . S
C506 N513 1.356 . S
C507 C506 1.363 . S
C507 C510 1.363 1_455 S
N508 C510 1.356 1_455 S
N508 H520 0.984 1_455 S
N508 H521 0.985 . S
N509 C511 1.356 1_655 S
N509 H514 0.984 . S
N509 H515 0.985 1_655 S
C510 C504 1.379 . S
C510 C507 1.363 1_655 S
C510 N508 1.356 1_655 S
C511 C505 1.363 1_455 S
C511 C506 1.379 . S
C511 N509 1.356 1_455 S
N512 C504 1.356 . S
N512 H518 0.984 . S
N512 H519 0.984 . S
N513 C506 1.356 . S
N513 H516 0.984 . S
N513 H517 0.985 . S
H514 N509 0.984 . S
H515 N509 0.985 1_455 S
H516 N513 0.984 . S
H517 N513 0.985 . S
H518 N512 0.984 . S
H519 N512 0.984 . S
H520 N508 0.984 1_655 S
H521 N508 0.985 . S
C522 C523 1.363 . S
C522 C528 1.379 . S
C522 N530 1.356 . S
C523 C522 1.363 . S
C523 C529 1.363 . S
C524 C525 1.363 . S
C524 C529 1.379 . S
C524 N531 1.356 . S
C525 C524 1.363 . S
C525 C528 1.363 . S
N526 C528 1.356 . S
N526 H538 0.984 . S
N526 H539 0.985 . S
N527 C529 1.356 . S
N527 H532 0.984 . S
N527 H533 0.985 . S
C528 C522 1.379 . S
C528 C525 1.363 . S
C528 N526 1.356 . S
C529 C523 1.363 . S
C529 C524 1.379 . S
C529 N527 1.356 . S
N530 C522 1.356 . S
N530 H536 0.984 . S
N530 H537 0.984 . S
N531 C524 1.356 . S
N531 H534 0.984 . S
N531 H535 0.985 . S
H532 N527 0.984 . S
H533 N527 0.985 . S
H534 N531 0.984 . S
H535 N531 0.985 . S
H536 N530 0.984 . S
H537 N530 0.984 . S
H538 N526 0.984 . S
H539 N526 0.985 . S
C540 C541 1.363 . S
C540 C546 1.379 1_545 S
C540 N548 1.356 . S
C541 C540 1.363 . S
C541 C547 1.363 . S
C542 C543 1.363 . S
C542 C547 1.379 1_565 S
C542 N549 1.356 . S
C543 C542 1.363 . S
C543 C546 1.363 . S
N544 C546 1.356 . S
N544 H556 0.984 . S
N544 H557 0.985 . S
N545 C547 1.356 . S
N545 H550 0.984 . S
N545 H551 0.985 . S
C546 C540 1.379 1_565 S
C546 C543 1.363 . S
C546 N544 1.356 . S
C547 C541 1.363 . S
C547 C542 1.379 1_545 S
C547 N545 1.356 . S
N548 C540 1.356 . S
N548 H554 0.984 . S
N548 H555 0.984 . S
N549 C542 1.356 . S
N549 H552 0.984 . S
N549 H553 0.985 . S
H550 N545 0.984 . S
H551 N545 0.985 . S
H552 N549 0.984 . S
H553 N549 0.985 . S
H554 N548 0.984 . S
H555 N548 0.984 . S
H556 N544 0.984 . S
H557 N544 0.985 . S
C558 C559 1.363 . S
C558 C564 1.379 1_655 S
C558 N566 1.356 . S
C559 C558 1.363 . S
C559 C565 1.363 1_565 S
C560 C561 1.363 . S
C560 C565 1.379 1_455 S
C560 N567 1.356 . S
C561 C560 1.363 . S
C561 C564 1.363 1_545 S
N562 C564 1.356 1_545 S
N562 H574 0.984 1_545 S
N562 H575 0.985 . S
N563 C565 1.356 1_565 S
N563 H568 0.984 . S
N563 H569 0.985 1_565 S
C564 C558 1.379 1_455 S
C564 C561 1.363 1_565 S
C564 N562 1.356 1_565 S
C565 C559 1.363 1_545 S
C565 C560 1.379 1_655 S
C565 N563 1.356 1_545 S
N566 C558 1.356 . S
N566 H572 0.984 . S
N566 H573 0.984 . S
N567 C560 1.356 . S
N567 H570 0.984 . S
N567 H571 0.985 . S
H568 N563 0.984 . S
H569 N563 0.985 1_545 S
H570 N567 0.984 . S
H571 N567 0.985 . S
H572 N566 0.984 . S
H573 N566 0.984 . S
H574 N562 0.984 1_565 S
H575 N562 0.985 . S
C289 C14 1.303 . S
C291 C182 1.271 . S
C307 C50 1.262 . S
C309 C230 1.262 . S
C325 C74 1.271 . S
C327 C266 1.303 . S
C343 C110 1.307 . S
C345 C146 1.307 . S
C361 C254 1.307 . S
C363 C2 1.307 . S
C379 C158 1.303 . S
C381 C38 1.271 . S
C397 C86 1.262 . S
C399 C194 1.262 . S
C415 C218 1.271 . S
C417 C122 1.303 . S
C433 C4 1.573 . S
C435 C219 1.561 . S
C451 C255 1.562 . S
C453 C40 1.574 . S
C469 C75 1.561 . S
C471 C148 1.573 . S
C487 C111 1.562 . S
C489 C184 1.574 . S
C505 C220 1.574 . S
C507 C3 1.562 . S
C523 C256 1.573 . S
C525 C39 1.561 . S
C541 C76 1.574 . S
C543 C147 1.562 . S
C559 C112 1.573 . S
C561 C183 1.561 . S
