# Generated by pormake.
# Topology wjq, (5)-cn, num edge types: 1
# Building blocks:
#     Node 0, Type 0, BuildingBlock: BEQFEK_clean_sbu_0, # of connection points: 5
#     Node 1, Type 0, BuildingBlock: BEQFEK_clean_sbu_0, # of connection points: 5
#     Node 2, Type 0, BuildingBlock: BEQFEK_clean_sbu_0, # of connection points: 5
#     Node 3, Type 0, BuildingBlock: BEQFEK_clean_sbu_0, # of connection points: 5
#     Node 4, Type 0, BuildingBlock: BEQFEK_clean_sbu_0, # of connection points: 5
#     Node 5, Type 0, BuildingBlock: BEQFEK_clean_sbu_0, # of connection points: 5
#     Node 6, Type 0, BuildingBlock: BEQFEK_clean_sbu_0, # of connection points: 5
#     Node 7, Type 0, BuildingBlock: BEQFEK_clean_sbu_0, # of connection points: 5
#     Node 8, Type 0, BuildingBlock: BEQFEK_clean_sbu_0, # of connection points: 5
#     Node 9, Type 0, BuildingBlock: BEQFEK_clean_sbu_0, # of connection points: 5
#     Node 10, Type 0, BuildingBlock: BEQFEK_clean_sbu_0, # of connection points: 5
#     Node 11, Type 0, BuildingBlock: BEQFEK_clean_sbu_0, # of connection points: 5
#     Edge 12, Type (0, 0), BuildingBlock: AJUNOK_clean_linker_0, # of connection points: 2
#     Edge 13, Type (0, 0), BuildingBlock: AJUNOK_clean_linker_0, # of connection points: 2
#     Edge 14, Type (0, 0), BuildingBlock: AJUNOK_clean_linker_0, # of connection points: 2
#     Edge 15, Type (0, 0), BuildingBlock: AJUNOK_clean_linker_0, # of connection points: 2
#     Edge 16, Type (0, 0), BuildingBlock: AJUNOK_clean_linker_0, # of connection points: 2
#     Edge 17, Type (0, 0), BuildingBlock: AJUNOK_clean_linker_0, # of connection points: 2
#     Edge 18, Type (0, 0), BuildingBlock: AJUNOK_clean_linker_0, # of connection points: 2
#     Edge 19, Type (0, 0), BuildingBlock: AJUNOK_clean_linker_0, # of connection points: 2
#     Edge 20, Type (0, 0), BuildingBlock: AJUNOK_clean_linker_0, # of connection points: 2
#     Edge 21, Type (0, 0), BuildingBlock: AJUNOK_clean_linker_0, # of connection points: 2
#     Edge 22, Type (0, 0), BuildingBlock: AJUNOK_clean_linker_0, # of connection points: 2
#     Edge 23, Type (0, 0), BuildingBlock: AJUNOK_clean_linker_0, # of connection points: 2
#     Edge 24, Type (0, 0), BuildingBlock: AJUNOK_clean_linker_0, # of connection points: 2
#     Edge 25, Type (0, 0), BuildingBlock: AJUNOK_clean_linker_0, # of connection points: 2
#     Edge 26, Type (0, 0), BuildingBlock: AJUNOK_clean_linker_0, # of connection points: 2
#     Edge 27, Type (0, 0), BuildingBlock: AJUNOK_clean_linker_0, # of connection points: 2
#     Edge 28, Type (0, 0), BuildingBlock: AJUNOK_clean_linker_0, # of connection points: 2
#     Edge 29, Type (0, 0), BuildingBlock: AJUNOK_clean_linker_0, # of connection points: 2
#     Edge 30, Type (0, 0), BuildingBlock: AJUNOK_clean_linker_0, # of connection points: 2
#     Edge 31, Type (0, 0), BuildingBlock: AJUNOK_clean_linker_0, # of connection points: 2
#     Edge 32, Type (0, 0), BuildingBlock: AJUNOK_clean_linker_0, # of connection points: 2
#     Edge 33, Type (0, 0), BuildingBlock: AJUNOK_clean_linker_0, # of connection points: 2
#     Edge 34, Type (0, 0), BuildingBlock: AJUNOK_clean_linker_0, # of connection points: 2
#     Edge 35, Type (0, 0), BuildingBlock: AJUNOK_clean_linker_0, # of connection points: 2
#     Edge 36, Type (0, 0), BuildingBlock: AJUNOK_clean_linker_0, # of connection points: 2
#     Edge 37, Type (0, 0), BuildingBlock: AJUNOK_clean_linker_0, # of connection points: 2
#     Edge 38, Type (0, 0), BuildingBlock: AJUNOK_clean_linker_0, # of connection points: 2
#     Edge 39, Type (0, 0), BuildingBlock: AJUNOK_clean_linker_0, # of connection points: 2
#     Edge 40, Type (0, 0), BuildingBlock: AJUNOK_clean_linker_0, # of connection points: 2
#     Edge 41, Type (0, 0), BuildingBlock: AJUNOK_clean_linker_0, # of connection points: 2
# Relax obj value: 0.394
# Max RMSD: 0.185
# Mean RMSD: 0.185
data_MOF--net-wjq--node1-BEQFEK_clean_sbu_0--edge1-AJUNOK_clean_linker_0
_symmetry_space_group_name_H-M    P1
_symmetry_Int_Tables_number       1
_symmetry_cell_setting            triclinic
loop_
_symmetry_equiv_pos_as_xyz
'x, y, z'
_cell_length_a     27.180492
_cell_length_b     27.150524
_cell_length_c     53.933101
_cell_angle_alpha  89.992141
_cell_angle_beta   90.017481
_cell_angle_gamma 119.70213
loop_
_atom_site_label
_atom_site_type_symbol
_atom_site_fract_x
_atom_site_fract_y
_atom_site_fract_z
_atom_type_partial_charge
Co0 Co 0.21346 0.10816 0.0966 0.0
Co1 Co 0.31963 0.2186 0.08106 0.0
C2 C 0.20392 0.20126 0.07004 0.0
O3 O 0.18212 0.15424 0.08156 0.0
O4 O 0.25748 0.23172 0.06806 0.0
C5 C 0.13334 0.06459 0.13302 0.0
O6 O 0.15444 0.11905 0.13727 0.0
C7 C 0.39917 0.3378 0.06749 0.0
C8 C 0.47351 0.35544 0.09028 0.0
C9 C 0.45161 0.38197 0.07552 0.0
N10 N 0.39016 0.28901 0.07809 0.0
N11 N 0.43553 0.29974 0.09109 0.0
C12 C 0.36069 0.33959 0.0481 0.0
H13 H 0.34098 0.29945 1.03735 0.0
H14 H 0.32605 0.34339 0.05713 0.0
H15 H 0.38428 0.37559 1.03517 0.0
C16 C 0.2762 0.12479 0.14144 0.0
N17 N 0.27196 0.14345 0.11902 0.0
N18 N 0.31047 0.19664 0.11615 0.0
C19 C 0.3361 0.21569 0.1386 0.0
C20 C 0.3146 0.17025 0.15545 0.0
C21 C 0.25062 0.06308 0.14793 0.0
H22 H 0.24237 0.0374 0.13083 0.0
H23 H 0.21001 0.04747 0.15785 0.0
H24 H 0.27957 0.0565 0.16027 0.0
O25 O 0.23849 0.07773 0.07138 0.0
O26 O 0.31775 0.15444 0.0588 0.0
H27 H 0.42031 0.28291 0.14511 0.0
H28 H 0.36728 0.28696 0.16324 0.0
C29 C 0.37666 0.27634 0.14459 0.0
H30 H 0.37413 0.30479 0.13051 0.0
H31 H 0.43954 0.26942 0.10143 0.0
O32 O 0.15176 0.04861 0.1149 0.0
C33 C 0.28198 0.10089 0.05766 0.0
Co34 Co 0.08078 0.20895 0.45429 0.0
Co35 Co 0.09965 0.31679 0.42675 0.0
C36 C 1.00083 0.19954 0.41383 0.0
O37 O 0.01701 0.17784 0.43055 0.0
O38 O 0.02743 0.25311 0.41039 0.0
C39 C 0.02515 0.12071 0.48992 0.0
O40 O 0.98809 0.13834 0.49121 0.0
C41 C 0.06617 0.40298 0.42131 0.0
C42 C 0.13072 0.46637 0.39631 0.0
C43 C 0.08213 0.45414 0.40947 0.0
N44 N 0.10393 0.38623 0.41577 0.0
N45 N 0.14252 0.42438 0.40081 0.0
C46 C 1.01372 0.36824 0.43627 0.0
H47 H 1.00004 0.32252 0.43462 0.0
H48 H 0.02287 0.38004 0.4561 0.0
H49 H 0.97905 0.37596 0.43026 0.0
C50 C 0.10968 0.28173 0.49747 0.0
N51 N 0.09151 0.27066 0.47381 0.0
N52 N 0.10182 0.31795 0.46273 0.0
C53 C 0.12685 0.36098 0.4794 0.0
C54 C 0.1316 0.33904 0.50211 0.0
C55 C 0.11867 0.24152 0.51335 0.0
H56 H 0.13531 0.21908 0.50201 0.0
H57 H 0.07799 0.21046 0.522 0.0
H58 H 0.14974 0.26343 0.52826 0.0
O59 O 0.15126 0.23209 0.43607 0.0
O60 O 0.16711 0.30899 0.41494 0.0
H61 H 0.1783 0.42986 0.45499 0.0
H62 H 0.18446 0.44939 0.48748 0.0
C63 C 0.15492 0.42246 0.4727 0.0
H64 H 0.12215 0.43496 0.47008 0.0
H65 H 0.17646 0.42143 0.39343 0.0
O66 O 0.06715 0.14527 0.47536 0.0
C67 C 0.18151 0.27219 0.42115 0.0
Co68 Co 0.88259 0.07001 0.78025 0.0
Co69 Co 0.79636 0.09473 0.75365 0.0
C70 C 0.80391 0.98696 0.74392 0.0
O71 O 0.84 0.99851 0.76111 0.0
O72 O 0.78466 0.02035 0.73933 0.0
C73 C 0.92656 0.0227 0.81578 0.0
O74 O 0.87386 0.98227 0.81883 0.0
C75 C 0.67736 0.06116 0.74942 0.0
C76 C 0.67605 0.12063 0.72192 0.0
C77 C 0.64103 0.07359 0.73622 0.0
N78 N 0.73108 0.09887 0.74326 0.0
N79 N 0.7301 0.13464 0.72693 0.0
C80 C 0.66143 0.01135 0.76604 0.0
H81 H 0.69795 1.00439 0.76891 0.0
H82 H 0.64831 0.01955 0.78434 0.0
H83 H 0.62514 0.97268 0.75809 0.0
C84 C 0.84766 0.10919 0.82388 0.0
N85 N 0.83903 0.09041 0.8003 0.0
N86 N 0.80308 0.10267 0.78948 0.0
C87 C 0.78724 0.12951 0.80625 0.0
C88 C 0.81461 0.13386 0.82873 0.0
C89 C 0.89415 0.11281 0.8401 0.0
H90 H 0.93401 0.12998 0.82937 0.0
H91 H 0.88222 0.06996 0.84709 0.0
H92 H 0.90243 0.1409 0.85622 0.0
O93 O 0.92742 0.1332 0.75728 0.0
O94 O 0.86858 0.15525 0.73785 0.0
H95 H 0.76711 0.17934 0.7819 0.0
H96 H 0.75676 0.18759 0.8146 0.0
C97 C 0.75305 0.15716 0.79997 0.0
H98 H 0.70792 0.12406 0.79813 0.0
H99 H 0.76615 0.16748 0.71863 0.0
O100 O 0.93778 0.06219 0.80037 0.0
C101 C 0.91857 0.16367 0.74196 0.0
Co102 Co 0.82318 0.87265 0.11164 0.0
Co103 Co 0.71098 0.78619 0.08618 0.0
C104 C 0.82616 0.7937 0.07497 0.0
O105 O 0.85096 0.82988 0.09196 0.0
O106 O 0.77349 0.77443 0.07099 0.0
C107 C 0.91176 0.90054 0.14423 0.0
O108 O 0.88978 0.84518 0.14448 0.0
C109 C 0.62948 0.66931 0.06989 0.0
C110 C 0.54739 0.66483 0.07628 0.0
C111 C 0.57123 0.63119 0.0707 0.0
N112 N 0.63912 0.72149 0.0762 0.0
N113 N 0.58956 0.71875 0.07894 0.0
C114 C 0.67479 0.65845 0.06008 0.0
H115 H 0.7033 0.69376 0.04776 0.0
H116 H 0.69991 0.65573 0.0757 0.0
H117 H 0.65695 0.61933 0.04872 0.0
C118 C 0.75403 0.8414 0.15622 0.0
N119 N 0.7612 0.83057 0.13249 0.0
N120 N 0.71203 0.79433 0.12266 0.0
C121 C 0.67184 0.78044 0.14057 0.0
C122 C 0.6973 0.81022 0.16227 0.0
C123 C 0.79927 0.88709 0.17189 0.0
H124 H 0.83035 0.87402 0.1774 0.0
H125 H 0.78237 0.89499 0.18918 0.0
H126 H 0.82096 0.92727 0.16129 0.0
O127 O 0.80513 0.91916 0.08928 0.0
O128 O 0.72359 0.85952 0.07073 0.0
H129 H 0.59365 0.7681 0.12607 0.0
H130 H 0.58693 0.73158 0.15477 0.0
C131 C 0.6096 0.74402 0.13675 0.0
H132 H 0.60093 0.70531 0.12639 0.0
H133 H 0.5845 0.75324 0.08365 0.0
O134 O 0.88808 0.92235 0.13155 0.0
C135 C 0.76518 0.90971 0.07424 0.0
Co136 Co 0.93937 0.81856 0.45113 0.0
Co137 Co 0.93767 0.71731 0.42371 0.0
C138 C 0.03275 0.83802 0.41555 0.0
O139 O 1.00917 0.85492 0.43106 0.0
O140 O 1.01173 0.78512 0.41127 0.0
C141 C 0.984 0.90189 0.48841 0.0
O142 O 0.02227 0.88586 0.48999 0.0
C143 C 0.97853 0.63607 0.41903 0.0
C144 C 0.91647 0.57076 0.39385 0.0
C145 C 0.96503 0.58516 0.40748 0.0
N146 N 0.93936 0.65057 0.41286 0.0
N147 N 0.90236 0.61131 0.39777 0.0
C148 C 0.0298 0.67243 0.43443 0.0
H149 H 0.04335 0.71785 0.4317 0.0
H150 H 0.01924 0.66254 0.45432 0.0
H151 H 0.06511 0.66462 0.42974 0.0
C152 C 0.90531 0.74223 0.49332 0.0
N153 N 0.92673 0.75595 0.47025 0.0
N154 N 0.92479 0.7116 0.45947 0.0
C155 C 0.9025 0.66791 0.47597 0.0
C156 C 0.89022 0.68645 0.49807 0.0
C157 C 0.89025 0.77859 0.50893 0.0
H158 H 0.92856 0.81074 0.51878 0.0
H159 H 0.85776 0.75391 0.52302 0.0
H160 H 0.87313 0.79993 0.49712 0.0
O161 O 0.8758 0.79559 0.42845 0.0
O162 O 0.87425 0.72497 0.40676 0.0
H163 H 0.85586 0.57808 0.48373 0.0
H164 H 0.92384 0.60329 0.46921 0.0
C165 C 0.88559 0.60793 0.46972 0.0
H166 H 0.86552 0.59699 0.45113 0.0
H167 H 0.86764 0.6123 0.39006 0.0
O168 O 0.94431 0.8784 0.47266 0.0
C169 C 0.85489 0.75867 0.41128 0.0
Co170 Co 0.15332 0.95011 0.77902 0.0
Co171 Co 0.23921 0.92504 0.75226 0.0
C172 C 0.23346 0.03356 0.74306 0.0
O173 O 0.19703 0.02159 0.7601 0.0
O174 O 0.2524 1.00005 0.73825 0.0
C175 C 0.11658 1.00017 0.81631 0.0
O176 O 0.1704 0.03786 0.81904 0.0
C177 C 0.35762 0.9571 0.74854 0.0
C178 C 0.35947 0.89982 0.72003 0.0
C179 C 0.39414 0.94541 0.73513 0.0
N180 N 0.30405 0.92029 0.7418 0.0
N181 N 0.30533 0.88581 0.72484 0.0
C182 C 0.37343 1.00586 0.7658 0.0
H183 H 0.33676 0.0123 0.76919 0.0
H184 H 0.3872 0.99692 0.78378 0.0
H185 H 0.40936 0.0451 0.75805 0.0
C186 C 0.1838 0.9052 0.82161 0.0
N187 N 0.19542 0.9274 0.79863 0.0
N188 N 0.23243 0.91642 0.78803 0.0
C189 C 0.247 0.88812 0.80459 0.0
C190 C 0.21731 0.88116 0.82664 0.0
C191 C 0.13189 0.89406 0.83576 0.0
H192 H 0.09651 0.88344 0.8228 0.0
H193 H 0.14079 0.93199 0.84684 0.0
H194 H 0.11744 0.85738 0.8483 0.0
O195 O 0.10712 0.88747 0.75609 0.0
O196 O 0.16595 0.86537 0.73656 0.0
H197 H 0.26823 0.83964 0.77993 0.0
H198 H 0.27694 0.82941 0.81259 0.0
C199 C 0.28144 0.86075 0.79826 0.0
H200 H 0.32667 0.89386 0.79695 0.0
H201 H 0.26949 0.85401 0.71597 0.0
O202 O 0.10149 0.96162 0.80002 0.0
C203 C 0.11596 0.85707 0.74071 0.0
Co204 Co 0.88199 0.81308 0.64104 0.0
Co205 Co 0.79635 0.70338 0.66812 0.0
C206 C 0.8032 0.81892 0.67678 0.0
O207 O 0.83923 0.84258 0.65954 0.0
O208 O 0.78444 0.76674 0.68197 0.0
C209 C 0.92759 0.90602 0.60665 0.0
O210 O 0.87551 0.8968 0.60471 0.0
C211 C 0.6773 0.61816 0.67211 0.0
C212 C 0.67618 0.55846 0.70013 0.0
C213 C 0.64103 0.5699 0.68548 0.0
N214 N 0.73105 0.63443 0.67855 0.0
N215 N 0.73017 0.59828 0.69519 0.0
C216 C 0.66129 0.65132 0.655 0.0
H217 H 0.69738 0.69484 0.65232 0.0
H218 H 0.64961 0.62997 0.63669 0.0
H219 H 0.62409 0.65313 0.66238 0.0
C220 C 0.84653 0.73906 0.59763 0.0
N221 N 0.83829 0.74925 0.62126 0.0
N222 N 0.80376 0.70119 0.63234 0.0
C223 C 0.78925 0.65842 0.61581 0.0
C224 C 0.81586 0.68125 0.59319 0.0
C225 C 0.88927 0.78299 0.58059 0.0
H226 H 0.9314 0.80419 0.58965 0.0
H227 H 0.87636 0.81484 0.5763 0.0
H228 H 0.89316 0.76475 0.56291 0.0
O229 O 0.92664 0.79511 0.66457 0.0
O230 O 0.86827 0.71505 0.68427 0.0
H231 H 0.77134 0.58995 0.64063 0.0
H232 H 0.76161 0.57043 0.60801 0.0
C233 C 0.75679 0.59692 0.62242 0.0
H234 H 0.71127 0.58383 0.62416 0.0
H235 H 0.76623 0.60178 0.70374 0.0
O236 O 0.93781 0.875 0.62089 0.0
C237 C 0.91808 0.75658 0.68024 0.0
Co238 Co 0.06701 0.86325 0.96554 0.0
Co239 Co 0.09852 0.78493 0.99426 0.0
C240 C 0.9915 0.79318 1.00597 0.0
O241 O 1.00006 0.82533 0.98748 0.0
O242 O 0.02647 0.776 1.01096 0.0
C243 C 1.0085 0.89583 0.93094 0.0
O244 O 0.96761 0.8428 0.93212 0.0
C245 C 0.06687 0.66706 0.99937 0.0
C246 C 0.12882 0.6666 1.02566 0.0
C247 C 0.08146 0.63119 1.01162 0.0
N248 N 0.10417 0.72095 1.00549 0.0
N249 N 0.14131 0.72054 1.02119 0.0
C250 C 1.01583 0.6507 0.98351 0.0
H251 H 1.00183 0.6826 0.98517 0.0
H252 H 0.02707 0.64972 0.96382 0.0
H253 H 0.98064 0.60815 0.98868 0.0
C254 C 0.0992 0.82075 0.92271 0.0
N255 N 0.08264 0.81492 0.94656 0.0
N256 N 0.09965 0.78372 0.95835 0.0
C257 C 0.1284 0.76909 0.94211 0.0
C258 C 0.1283 0.79149 0.91881 0.0
C259 C 0.0994 0.86431 0.90564 0.0
H260 H 0.11936 0.90608 0.915 0.0
H261 H 0.05533 0.85173 0.90036 0.0
H262 H 0.12369 0.8692 0.88861 0.0
O263 O 0.13629 0.91397 0.98472 0.0
O264 O 0.16372 0.86043 1.00509 0.0
H265 H 0.18597 0.76239 0.96719 0.0
H266 H 0.19427 0.74822 0.93498 0.0
C267 C 0.16335 0.74299 0.94963 0.0
H268 H 0.13498 0.69706 0.953 0.0
H269 H 0.17443 0.75686 1.0292 0.0
O270 O 0.0529 0.91205 0.94385 0.0
C271 C 0.17146 0.90932 0.99883 0.0
Co272 Co 0.21967 0.12213 0.32259 0.0
Co273 Co 0.31921 0.10533 0.33782 0.0
C274 C 0.20337 0.01772 0.35191 0.0
O275 O 0.18726 0.04977 0.34186 0.0
O276 O 0.25529 0.03078 0.35087 0.0
C277 C 0.13845 0.08039 0.28713 0.0
O278 O 0.16116 0.04776 0.28453 0.0
C279 C 0.39907 0.06454 0.35114 0.0
C280 C 0.47342 0.12183 0.32862 0.0
C281 C 0.4521 0.07356 0.34332 0.0
N282 N 0.38941 0.10404 0.3406 0.0
N283 N 0.4347 0.13886 0.32769 0.0
C284 C 0.36019 0.02325 0.37003 0.0
H285 H 0.33927 0.0426 0.38078 0.0
H286 H 0.3265 0.98525 0.36051 0.0
H287 H 0.38368 0.01061 0.38301 0.0
C288 C 0.28067 0.15912 0.27705 0.0
N289 N 0.27544 0.13707 0.2997 0.0
N290 N 0.31078 0.1181 0.30272 0.0
C291 C 0.33527 0.12144 0.28025 0.0
C292 C 0.31634 0.14747 0.26314 0.0
C293 C 0.25715 0.19688 0.26986 0.0
H294 H 0.25214 0.21784 0.28658 0.0
H295 H 0.21507 0.17224 0.26107 0.0
H296 H 0.28565 0.22949 0.25638 0.0
O297 O 0.25004 0.18251 0.34497 0.0
O298 O 0.32007 0.17036 0.35984 0.0
H299 H 0.41741 0.13227 0.27361 0.0
H300 H 0.36177 0.07586 0.25632 0.0
C301 C 0.37288 0.09728 0.27465 0.0
H302 H 0.36909 0.06678 0.28925 0.0
H303 H 0.43821 0.17297 0.31734 0.0
O304 O 0.15697 0.11807 0.30395 0.0
C305 C 0.2913 0.19658 0.35963 0.0
Co306 Co 0.1534 0.20807 0.64192 0.0
Co307 Co 0.23887 0.31756 0.66929 0.0
C308 C 0.23374 0.2032 0.67741 0.0
O309 O 0.19714 0.17967 0.66039 0.0
O310 O 0.25244 0.25522 0.6828 0.0
C311 C 0.11728 0.11908 0.60652 0.0
O312 O 0.1709 0.13279 0.60592 0.0
C313 C 0.35733 0.40364 0.67288 0.0
C314 C 0.35912 0.46145 0.70202 0.0
C315 C 0.39385 0.45121 0.68652 0.0
N316 N 0.30376 0.38662 0.67989 0.0
N317 N 0.30502 0.42163 0.69722 0.0
C318 C 0.37314 0.37153 0.65506 0.0
H319 H 0.33691 0.32832 0.65187 0.0
H320 H 0.38523 0.39427 0.63706 0.0
H321 H 0.41012 0.36891 0.66215 0.0
C322 C 0.18563 0.28349 0.59937 0.0
N323 N 0.19601 0.27271 0.62254 0.0
N324 N 0.23152 0.32043 0.63358 0.0
C325 C 0.24535 0.36357 0.61733 0.0
C326 C 0.21715 0.34127 0.59494 0.0
C327 C 0.13774 0.24111 0.58373 0.0
H328 H 0.14902 0.21021 0.57597 0.0
H329 H 0.12756 0.26104 0.56824 0.0
H330 H 0.09905 0.21856 0.59519 0.0
O331 O 0.10724 0.22418 0.66533 0.0
O332 O 0.16593 0.3039 0.68534 0.0
H333 H 0.27191 0.45161 0.61022 0.0
H334 H 0.32339 0.43839 0.62542 0.0
C335 C 0.27771 0.42492 0.62421 0.0
H336 H 0.26388 0.43128 0.64271 0.0
H337 H 0.2692 0.41725 0.70635 0.0
O338 O 0.10136 0.14554 0.62085 0.0
C339 C 0.11602 0.26248 0.6812 0.0
Co340 Co 0.9502 0.13615 0.97221 0.0
Co341 Co 0.93043 0.22533 0.99906 0.0
C342 C 0.03588 0.21299 1.00771 0.0
O343 O 0.02312 0.17746 0.9902 0.0
O344 O 1.00368 0.23323 1.01306 0.0
C345 C 0.99195 0.08858 0.93597 0.0
O346 O 0.03344 0.14066 0.93249 0.0
C347 C 0.96853 0.34575 1.00194 0.0
C348 C 0.90972 0.35136 1.02847 0.0
C349 C 0.95668 0.38412 1.01375 0.0
N350 N 0.93006 0.29294 1.00903 0.0
N351 N 0.89485 0.2965 1.02486 0.0
C352 C 0.01808 0.3588 0.98561 0.0
H353 H 0.03049 0.32579 0.98765 0.0
H354 H 1.0059 0.3586 0.96597 0.0
H355 H 0.05463 0.40112 0.99 0.0
C356 C 0.91134 0.1723 0.92883 0.0
N357 N 0.9306 0.18046 0.95234 0.0
N358 N 0.92057 0.21789 0.96323 0.0
C359 C 0.89477 0.23522 0.94656 0.0
C360 C 0.88872 0.20716 0.92411 0.0
C361 C 0.90597 0.12533 0.91242 0.0
H362 H 0.88835 0.08529 0.92306 0.0
H363 H 0.94822 0.13643 0.90501 0.0
H364 H 0.87745 0.11768 0.89653 0.0
O365 O 0.8885 0.09389 0.99615 0.0
O366 O 0.86895 0.15464 1.0155 0.0
H367 H 0.84967 0.26043 0.97138 0.0
H368 H 0.83839 0.26795 0.9387 0.0
C369 C 0.86989 0.27196 0.95283 0.0
H370 H 0.90423 0.31682 0.95352 0.0
H371 H 0.86133 0.26165 1.03353 0.0
O372 O 0.95422 0.07899 0.95206 0.0
C373 C 0.85942 0.1041 1.0117 0.0
Co374 Co 0.8253 0.94309 0.30771 0.0
Co375 Co 0.71828 0.93405 0.33264 0.0
C376 C 0.83536 0.03155 0.34455 0.0
O377 O 0.85554 1.00941 0.32998 0.0
O378 O 0.78182 1.0094 0.34682 0.0
C379 C 0.91122 1.00389 0.27477 0.0
O380 O 0.88561 0.03415 0.27447 0.0
C381 C 0.63534 0.96861 0.34914 0.0
C382 C 0.55426 0.89152 0.34127 0.0
C383 C 0.5769 0.94813 0.34789 0.0
N384 N 0.64613 0.92706 0.34227 0.0
N385 N 0.59713 0.88055 0.33853 0.0
C386 C 0.67991 0.02446 0.35922 0.0
H387 H 0.71019 0.01817 0.37066 0.0
H388 H 0.70331 0.05345 0.34367 0.0
H389 H 0.66139 0.044 0.37138 0.0
C390 C 0.75631 0.91072 0.26349 0.0
N391 N 0.76514 0.92988 0.28701 0.0
N392 N 0.71857 0.92597 0.29625 0.0
C393 C 0.67876 0.90574 0.2779 0.0
C394 C 0.70148 0.89491 0.25672 0.0
C395 C 0.79738 0.90059 0.2488 0.0
H396 H 0.81762 0.88277 0.26093 0.0
H397 H 0.83041 0.94132 0.2409 0.0
H398 H 0.77699 0.87109 0.23313 0.0
O399 O 0.80258 0.87642 0.32812 0.0
O400 O 0.72896 0.87104 0.34878 0.0
H401 H 0.59341 0.85046 0.28898 0.0
H402 H 0.60047 0.89279 0.26223 0.0
C403 C 0.61898 0.89308 0.28063 0.0
H404 H 0.61727 0.9253 0.29265 0.0
H405 H 0.59308 0.84193 0.33289 0.0
O406 O 0.89022 0.95868 0.28753 0.0
C407 C 0.76374 0.85291 0.34433 0.0
C408 C 0.56802 0.53655 0.07457 0.0
C409 C 0.53995 0.56745 0.06974 0.0
C410 C 0.53913 0.47715 0.07496 0.0
C411 C 0.47998 0.445 0.07196 0.0
H412 H 0.61239 0.55767 0.07927 0.0
H413 H 0.5636 0.45629 0.07856 0.0
S414 S 0.38402 0.50503 0.06406 0.0
N415 N 0.44818 0.56085 0.06371 0.0
N416 N 0.39326 0.44991 0.06793 0.0
C417 C 0.45058 0.47521 0.06863 0.0
C418 C 0.48057 0.53599 0.06689 0.0
C419 C 0.03891 0.50412 0.38697 0.0
C420 C 0.05285 0.48803 0.40953 0.0
C421 C 1.0101 0.53515 0.3865 0.0
C422 C 0.99557 0.55252 0.40857 0.0
H423 H 0.04951 0.49181 0.36955 0.0
H424 H 0.99965 0.54618 0.36872 0.0
S425 S 0.02349 0.52212 0.47247 0.0
N426 N 0.05084 0.49261 0.45447 0.0
N427 N 0.9966 0.5506 0.4536 0.0
C428 C 1.00968 0.53707 0.43124 0.0
C429 C 0.03839 0.50494 0.43172 0.0
C430 C 0.54684 0.02305 0.75779 0.0
C431 C 0.57813 0.04116 0.73562 0.0
C432 C 0.48735 0.99206 0.75752 0.0
C433 C 0.45701 0.97765 0.73507 0.0
H434 H 0.56835 0.03356 0.77551 0.0
H435 H 0.46505 0.97871 0.77502 0.0
S436 S 0.51878 0.01501 0.67196 0.0
N437 N 0.57424 0.0427 0.69064 0.0
N438 N 0.46261 0.984 0.69014 0.0
C439 C 0.48776 0.99527 0.7128 0.0
C440 C 0.54824 0.02741 0.71308 0.0
C441 C 0.54669 0.5263 0.66384 0.0
C442 C 0.57805 0.53949 0.68601 0.0
C443 C 0.48716 0.49775 0.6641 0.0
C444 C 0.45679 0.48171 0.68655 0.0
H445 H 0.56819 0.53735 0.64612 0.0
H446 H 0.46484 0.48884 0.6466 0.0
S447 S 0.5187 0.50604 0.74966 0.0
N448 N 0.57414 0.53392 0.73099 0.0
N449 N 0.46251 0.48086 0.73147 0.0
C450 C 0.48762 0.49482 0.70881 0.0
C451 C 0.54813 0.52325 0.70854 0.0
C452 C 1.00492 0.47886 1.03466 0.0
C453 C 0.98876 0.447 1.0126 0.0
C454 C 0.03599 0.53841 1.03416 0.0
C455 C 0.05094 0.56826 1.01158 0.0
H456 H 0.99399 0.45755 0.05245 0.0
H457 H 0.04749 0.5613 0.05158 0.0
S458 S 0.01839 0.50484 0.94865 0.0
N459 N 0.98915 0.44983 0.96757 0.0
N460 N 0.04855 0.56147 0.96663 0.0
C461 C 0.03515 0.53692 0.98941 0.0
C462 C 1.00374 0.47635 0.98992 0.0
C463 C 0.57141 0.03862 0.34532 0.0
C464 C 0.54435 0.97957 0.34923 0.0
C465 C 0.54117 0.06805 0.34489 0.0
C466 C 0.48175 0.03995 0.34709 0.0
H467 H 0.61606 0.06284 0.3413 0.0
H468 H 0.56483 0.11345 0.34188 0.0
S469 S 0.38855 0.8839 0.35322 0.0
N470 N 0.45335 0.89341 0.35399 0.0
N471 N 0.39627 0.94774 0.34993 0.0
C472 C 0.45352 0.98047 0.34981 0.0
C473 C 0.48474 0.95066 0.35147 0.0
C474 C 0.24336 0.96045 1.03238 0.0
C475 C 0.21856 0.96232 1.00977 0.0
C476 C 0.2752 1.00993 0.04644 0.0
C477 C 0.28341 0.06297 1.03844 0.0
H478 H 0.23363 0.92009 1.04046 0.0
H479 H 0.28726 1.00546 0.06511 0.0
S480 S 0.24047 0.09301 0.97773 0.0
N481 N 0.21507 0.02373 0.97763 0.0
N482 N 0.27369 0.11589 1.0045 0.0
C483 C 0.26603 0.06653 1.01438 0.0
C484 C 0.23354 0.0163 1.0 0.0
C485 C 0.24609 0.23097 0.41787 0.0
C486 C 0.23019 0.27031 0.40917 0.0
C487 C 0.27804 0.21435 0.40316 0.0
C488 C 0.29517 0.23639 0.37922 0.0
H489 H 0.22933 0.20872 0.4352 0.0
H490 H 0.28228 0.17855 0.4092 0.0
S491 S 0.27985 0.35243 0.35074 0.0
N492 N 0.2457 0.34003 0.37737 0.0
N493 N 0.30576 0.3088 0.34989 0.0
C494 C 0.28795 0.28244 0.37217 0.0
C495 C 0.25506 0.29916 0.38701 0.0
C496 C 1.01224 0.22644 0.68604 0.0
C497 C 0.06695 0.25345 0.69659 0.0
C498 C 0.96337 0.20278 0.70091 0.0
C499 C 0.96757 0.2043 0.72689 0.0
H500 H 1.00715 0.22035 0.66615 0.0
H501 H 0.92239 0.17878 0.69205 0.0
S502 S 0.10021 0.27649 0.76366 0.0
N503 N 0.12195 0.28613 0.73455 0.0
N504 N 0.03031 0.24048 0.76252 0.0
C505 C 0.02179 0.23522 0.7376 0.0
C506 C 0.07148 0.26021 0.72245 0.0
C507 C 0.80033 0.01334 0.06869 0.0
C508 C 0.77268 0.95806 0.05867 0.0
C509 C 0.82284 0.06152 0.05335 0.0
C510 C 0.81949 0.05603 1.02742 0.0
H511 H 0.80793 0.0194 0.08847 0.0
H512 H 0.84752 0.10296 0.06177 0.0
S513 S 0.7453 0.92138 0.99202 0.0
N514 N 0.73765 0.90112 1.02131 0.0
N515 N 0.78105 0.99141 0.99248 0.0
C516 C 0.78788 1.00121 1.01729 0.0
C517 C 0.76411 0.95224 1.03292 0.0
C518 C 0.76079 0.81308 0.38644 0.0
C519 C 0.76716 0.81065 0.36071 0.0
C520 C 0.78396 0.78992 0.40293 0.0
C521 C 0.814 0.76317 0.39433 0.0
H522 H 0.74304 0.83789 0.39396 0.0
H523 H 0.78243 0.79729 0.42259 0.0
S524 S 0.8299 0.73382 0.32858 0.0
N525 N 0.79611 0.77027 0.32735 0.0
N526 N 0.83948 0.72681 0.35833 0.0
C527 C 0.81398 0.75401 0.3687 0.0
C528 C 0.79068 0.77787 0.3519 0.0
C529 C 0.0708 0.81678 0.69981 0.0
C530 C 0.0668 0.81614 0.72578 0.0
C531 C 0.0218 0.7925 0.685 0.0
C532 C 0.96718 0.76572 0.69563 0.0
H533 H 0.1117 0.84054 0.69087 0.0
H534 H 0.0267 0.798 0.66509 0.0
S535 S 0.93445 0.74491 0.76277 0.0
N536 N 1.00434 0.78099 0.76153 0.0
N537 N 0.91249 0.73425 0.73369 0.0
C538 C 0.96287 0.75983 0.72152 0.0
C539 C 1.01267 0.78543 0.7366 0.0
C540 C 0.04263 0.03741 0.15389 0.0
C541 C 0.0829 0.02264 0.1462 0.0
C542 C 0.9863 0.99545 0.15718 0.0
C543 C 0.96949 0.93812 0.15298 0.0
H544 H 0.05293 0.0814 0.15445 0.0
H545 H 0.95489 1.0084 0.16012 0.0
S546 S 0.0636 0.87796 0.1418 0.0
N547 N 0.10601 0.94735 0.14134 0.0
N548 N 0.9997 0.86806 0.14766 0.0
C549 C 1.01126 0.92262 0.14998 0.0
C550 C 0.06848 0.96533 0.14642 0.0
C551 C 0.05902 0.05537 0.50283 0.0
C552 C 1.01394 0.06676 0.50107 0.0
C553 C 0.04879 0.99967 0.50247 0.0
C554 C 0.99325 0.95439 0.50026 0.0
H555 H 0.1025 0.08951 0.5016 0.0
H556 H 0.08463 0.99277 0.50074 0.0
S557 S 0.86104 0.96158 0.50524 0.0
N558 N 0.91215 0.02847 0.50468 0.0
N559 N 0.89288 0.92327 0.50392 0.0
C560 C 0.94801 0.96499 0.50335 0.0
C561 C 0.95842 0.0217 0.50384 0.0
C562 C 0.02863 0.06739 0.82596 0.0
C563 C 0.97428 0.01899 0.82665 0.0
C564 C 0.0772 0.06214 0.82652 0.0
C565 C 0.07228 1.00835 0.82769 0.0
H566 H 0.03364 0.10889 0.82233 0.0
H567 H 0.11782 0.09939 0.82287 0.0
S568 S 0.94158 0.87166 0.83919 0.0
N569 N 0.91946 0.91798 0.83562 0.0
N570 N 1.01122 0.90822 0.8365 0.0
C571 C 0.01915 0.9612 0.83289 0.0
C572 C 0.96969 0.96651 0.83246 0.0
C573 C 0.03061 0.96365 0.59844 0.0
C574 C 0.9761 0.95739 0.59635 0.0
C575 C 0.07883 0.01731 0.59811 0.0
C576 C 0.07353 0.06583 0.59567 0.0
H577 H 0.03589 0.92762 0.6029 0.0
H578 H 0.11928 0.02092 0.60277 0.0
S579 S 0.9433 0.07054 0.57985 0.0
N580 N 0.92145 1.00263 0.58448 0.0
N581 N 1.0126 0.10393 0.58403 0.0
C582 C 0.02066 0.05941 0.58911 0.0
C583 C 0.97153 1.00476 0.58934 0.0
C584 C 0.94624 0.93647 0.92448 0.0
C585 C 0.99869 0.93984 0.92033 0.0
C586 C 0.94281 0.98593 0.92638 0.0
C587 C 0.99169 0.03964 0.92413 0.0
H588 H 0.90947 0.89652 0.9295 0.0
H589 H 0.90293 0.98209 0.93226 0.0
S590 S 0.1332 0.06797 0.90323 0.0
N591 N 0.09599 0.99844 0.90658 0.0
N592 N 0.08969 0.09199 0.91019 0.0
C593 C 0.04156 0.04256 0.91523 0.0
C594 C 0.04499 0.99214 0.9133 0.0
C595 C 0.04952 0.01068 0.26672 0.0
C596 C 0.08602 0.06688 0.27408 0.0
C597 C 0.99203 0.99151 0.26313 0.0
C598 C 0.97011 0.02824 0.26664 0.0
H599 H 0.06377 0.97982 0.26651 0.0
H600 H 0.9638 0.94649 0.26038 0.0
S601 S 0.05274 0.18358 0.27664 0.0
N602 N 0.09997 0.16222 0.27787 0.0
N603 N 0.99143 0.12616 0.27095 0.0
C604 C 1.00798 0.08652 0.26937 0.0
C605 C 0.06643 0.10593 0.27325 0.0
C606 C 0.13565 0.23289 1.01521 0.0
C607 C 0.08292 0.22199 1.02472 0.0
C608 C 0.17669 0.23088 1.03055 0.0
C609 C 0.16571 0.21569 0.05578 0.0
H610 H 0.14448 0.24116 0.9956 0.0
H611 H 0.21577 0.23753 1.0222 0.0
S612 S 0.03488 0.18436 0.08986 0.0
N613 N 0.0233 0.19823 0.0613 0.0
N614 N 0.09892 0.19159 0.08967 0.0
C615 C 0.11384 0.20629 0.06562 0.0
C616 C 0.07289 0.21017 0.05022 0.0
C617 C 0.96327 0.11449 0.3865 0.0
C618 C 0.95752 0.1599 0.39567 0.0
C619 C 0.92413 0.07478 0.36981 0.0
C620 C 0.876 0.0772 0.36176 0.0
H621 H 0.99893 0.10969 0.39218 0.0
H622 H 0.93125 0.0409 0.36355 0.0
S623 S 0.84029 0.18747 0.38023 0.0
N624 N 0.90014 0.20571 0.39512 0.0
N625 N 0.82487 0.12937 0.36443 0.0
C626 C 0.86918 0.12218 0.37086 0.0
C627 C 0.91035 0.16396 0.38752 0.0
C628 C 0.79023 0.8487 0.71936 0.0
C629 C 0.79082 0.8555 0.69342 0.0
C630 C 0.79145 0.88991 0.73567 0.0
C631 C 0.79153 0.93879 0.72678 0.0
H632 H 0.79272 0.81322 0.72714 0.0
H633 H 0.7944 0.88442 0.75541 0.0
S634 S 0.78794 0.97406 0.6605 0.0
N635 N 0.78839 0.91347 0.65969 0.0
N636 N 0.78833 0.98939 0.69016 0.0
C637 C 0.78831 0.94411 0.70091 0.0
C638 C 0.78861 0.90296 0.68431 0.0
C639 C 0.91164 0.783 0.06586 0.0
C640 C 0.86172 0.78152 0.05745 0.0
C641 C 0.95138 0.78229 0.04919 0.0
C642 C 0.94382 0.78181 1.02331 0.0
H643 H 0.92111 0.78675 0.08551 0.0
H644 H 0.98998 0.78575 0.05663 0.0
S645 S 0.81936 0.77508 0.99155 0.0
N646 N 0.80584 0.77619 1.02133 0.0
N647 N 0.88089 0.77679 0.99019 0.0
C648 C 0.89312 0.77818 1.0147 0.0
C649 C 0.85205 0.77748 1.03167 0.0
C650 C 0.11801 0.97505 0.37928 0.0
C651 C 0.16162 0.96968 0.36778 0.0
C652 C 0.07826 0.93286 0.39491 0.0
C653 C 0.07888 0.88209 0.39961 0.0
H654 H 0.11477 0.01287 0.3765 0.0
H655 H 0.04583 0.93994 0.40304 0.0
S656 S 0.1838 0.84585 0.37407 0.0
N657 N 0.20356 0.90937 0.36249 0.0
N658 N 0.12715 0.82872 0.39123 0.0
C659 C 0.12189 0.87552 0.38812 0.0
C660 C 0.16366 0.91958 0.37249 0.0
C661 C 0.24678 0.13111 0.73558 0.0
C662 C 0.24637 0.08237 0.72628 0.0
C663 C 0.24786 0.17275 0.7196 0.0
C664 C 0.24679 0.16653 0.69363 0.0
H665 H 0.24404 0.13606 0.75538 0.0
H666 H 0.24549 0.20804 0.72769 0.0
S667 S 0.24894 0.04872 0.65973 0.0
N668 N 0.24897 0.03262 0.68926 0.0
N669 N 0.24864 0.1094 0.65941 0.0
C670 C 0.24885 0.11931 0.68411 0.0
C671 C 0.24929 0.07771 0.70037 0.0
C672 C 0.36895 0.18844 0.19613 0.0
C673 C 0.31757 0.16915 0.18313 0.0
C674 C 0.36933 0.17954 0.22204 0.0
C675 C 0.31829 0.14957 0.23545 0.0
H676 H 0.4088 0.20991 0.18623 0.0
H677 H 0.40949 0.19682 0.23165 0.0
S678 S 0.17289 0.08994 0.20995 0.0
N679 N 0.21502 0.12328 0.1864 0.0
N680 N 0.21552 0.09706 0.2331 0.0
C681 C 0.26712 0.12853 0.22228 0.0
C682 C 0.26682 0.14107 0.19671 0.0
C683 C 0.21943 0.37552 0.52765 0.0
C684 C 0.16475 0.36839 0.52471 0.0
C685 C 0.24109 0.37546 0.55139 0.0
C686 C 0.20944 0.36982 0.5729 0.0
H687 H 0.24217 0.37333 0.51158 0.0
H688 H 0.2797 0.37321 0.55275 0.0
S689 S 0.06972 0.36223 0.57521 0.0
N690 N 0.08356 0.36421 0.54528 0.0
N691 N 0.12533 0.36683 0.58977 0.0
C692 C 0.15875 0.37133 0.57019 0.0
C693 C 0.13607 0.36989 0.54607 0.0
C694 C 0.80437 0.15684 0.89657 0.0
C695 C 0.85763 0.205 0.90101 0.0
C696 C 0.7858 0.13763 0.87224 0.0
C697 C 0.81925 0.16669 0.8516 0.0
H698 H 0.78049 0.1298 0.91192 0.0
H699 H 0.74829 0.09659 0.86974 0.0
S700 S 0.9563 0.30089 0.85322 0.0
N701 N 0.93935 0.28544 0.88273 0.0
N702 N 0.90349 0.2507 0.83714 0.0
C703 C 0.8685 0.21903 0.85579 0.0
C704 C 0.88796 0.23789 0.88051 0.0
C705 C 0.66442 0.80858 0.23002 0.0
C706 C 0.67387 0.86414 0.23338 0.0
C707 C 0.66408 0.78722 0.20616 0.0
C708 C 0.67176 0.82016 0.18487 0.0
H709 H 0.66442 0.7843 0.24596 0.0
H710 H 0.66385 0.74733 0.20455 0.0
S711 S 0.68701 0.96351 0.18349 0.0
N712 N 0.68331 0.94822 0.21333 0.0
N713 N 0.68012 0.90728 0.16858 0.0
C714 C 0.67343 0.87246 0.18793 0.0
C715 C 0.67511 0.89469 0.2122 0.0
C716 C 0.89478 0.65937 0.54164 0.0
C717 C 0.86112 0.65536 0.5211 0.0
C718 C 0.87551 0.65777 0.56602 0.0
C719 C 0.82243 0.65338 0.57061 0.0
H720 H 0.93861 0.67065 0.53889 0.0
H721 H 0.90524 0.66772 0.58114 0.0
S722 S 0.71436 0.6304 0.52337 0.0
N723 N 0.76857 0.63638 0.5071 0.0
N724 N 0.73334 0.63579 0.55279 0.0
C725 C 0.78577 0.64178 0.5504 0.0
C726 C 0.80489 0.64208 0.52562 0.0
C727 C 0.23821 0.8755 0.87111 0.0
C728 C 0.21123 0.8468 0.84916 0.0
C729 C 0.21584 0.85246 0.89456 0.0
C730 C 0.16498 0.80047 0.89681 0.0
H731 H 0.27315 0.91863 0.87015 0.0
H732 H 0.23439 0.8787 0.91081 0.0
S733 S 0.08297 0.70513 0.84518 0.0
N734 N 0.13589 0.76017 0.83133 0.0
N735 N 0.09261 0.71797 0.87526 0.0
C736 C 0.14135 0.76871 0.87515 0.0
C737 C 0.16487 0.79159 0.85132 0.0
loop_
_geom_bond_atom_site_label_1
_geom_bond_atom_site_label_2
_geom_bond_distance
_geom_bond_site_symmetry_2
_ccdc_geom_bond_type
Co0 O3 1.970 . S
Co0 N17 1.989 . S
Co0 O25 1.967 . S
Co0 O32 1.920 . S
Co1 O4 1.966 . S
Co1 N10 2.022 . S
Co1 N18 1.993 . S
Co1 O26 1.941 . S
C2 O3 1.258 . S
C2 O4 1.263 . S
O3 Co0 1.970 . S
O3 C2 1.258 . S
O4 Co1 1.966 . S
O4 C2 1.263 . S
C5 O6 1.235 . S
C5 O32 1.289 . S
O6 C5 1.235 . S
C7 C9 1.400 . S
C7 N10 1.351 . S
C7 C12 1.501 . S
C8 C9 1.387 . S
C8 N11 1.341 . S
C9 C7 1.400 . S
C9 C8 1.387 . S
N10 Co1 2.022 . S
N10 C7 1.351 . S
N10 N11 1.365 . S
N11 C8 1.341 . S
N11 N10 1.365 . S
N11 H31 0.862 . S
C12 C7 1.501 . S
C12 H13 0.961 . S
C12 H14 0.961 . S
C12 H15 0.960 . S
H13 C12 0.961 . S
H14 C12 0.961 . S
H15 C12 0.960 . S
C16 N17 1.342 . S
C16 C20 1.401 . S
C16 C21 1.499 . S
N17 Co0 1.989 . S
N17 C16 1.342 . S
N17 N18 1.388 . S
N18 Co1 1.993 . S
N18 N17 1.388 . S
N18 C19 1.346 . S
C19 N18 1.346 . S
C19 C20 1.396 . S
C19 C29 1.510 . S
C20 C16 1.401 . S
C20 C19 1.396 . S
C21 C16 1.499 . S
C21 H22 0.959 . S
C21 H23 0.960 . S
C21 H24 0.961 . S
H22 C21 0.959 . S
H23 C21 0.960 . S
H24 C21 0.961 . S
O25 Co0 1.967 . S
O25 C33 1.258 . S
O26 Co1 1.941 . S
O26 C33 1.266 . S
H27 C29 0.959 . S
H28 C29 0.961 . S
C29 C19 1.510 . S
C29 H27 0.959 . S
C29 H28 0.961 . S
C29 H30 0.960 . S
H30 C29 0.960 . S
H31 N11 0.862 . S
O32 Co0 1.920 . S
O32 C5 1.289 . S
C33 O25 1.258 . S
C33 O26 1.266 . S
Co34 O37 1.970 . S
Co34 N51 1.989 . S
Co34 O59 1.967 . S
Co34 O66 1.920 . S
Co35 O38 1.966 . S
Co35 N44 2.022 . S
Co35 N52 1.993 . S
Co35 O60 1.941 . S
C36 O37 1.247 1_655 S
C36 O38 1.262 1_655 S
O37 Co34 1.970 . S
O37 C36 1.247 1_455 S
O38 Co35 1.966 . S
O38 C36 1.262 1_455 S
C39 O40 1.235 1_455 S
C39 O66 1.289 . S
O40 C39 1.235 1_655 S
C41 C43 1.400 . S
C41 N44 1.351 . S
C41 C46 1.501 . S
C42 C43 1.387 . S
C42 N45 1.341 . S
C43 C41 1.400 . S
C43 C42 1.387 . S
N44 Co35 2.022 . S
N44 C41 1.351 . S
N44 N45 1.365 . S
N45 C42 1.341 . S
N45 N44 1.365 . S
N45 H65 0.862 . S
C46 C41 1.501 . S
C46 H47 0.961 . S
C46 H48 0.961 1_455 S
C46 H49 0.960 1_455 S
H47 C46 0.961 . S
H48 C46 0.961 1_655 S
H49 C46 0.960 1_655 S
C50 N51 1.342 . S
C50 C54 1.401 . S
C50 C55 1.499 . S
N51 Co34 1.989 . S
N51 C50 1.342 . S
N51 N52 1.388 . S
N52 Co35 1.993 . S
N52 N51 1.388 . S
N52 C53 1.346 . S
C53 N52 1.346 . S
C53 C54 1.396 . S
C53 C63 1.510 . S
C54 C50 1.401 . S
C54 C53 1.396 . S
C55 C50 1.499 . S
C55 H56 0.959 . S
C55 H57 0.960 . S
C55 H58 0.961 . S
H56 C55 0.959 . S
H57 C55 0.960 . S
H58 C55 0.961 . S
O59 Co34 1.967 . S
O59 C67 1.258 . S
O60 Co35 1.941 . S
O60 C67 1.266 . S
H61 C63 0.959 . S
H62 C63 0.961 . S
C63 C53 1.510 . S
C63 H61 0.959 . S
C63 H62 0.961 . S
C63 H64 0.960 . S
H64 C63 0.960 . S
H65 N45 0.862 . S
O66 Co34 1.920 . S
O66 C39 1.289 . S
C67 O59 1.258 . S
C67 O60 1.266 . S
Co68 O71 1.970 . S
Co68 N85 1.989 . S
Co68 O93 1.967 . S
Co68 O100 1.920 . S
Co69 O72 1.966 . S
Co69 N78 2.022 . S
Co69 N86 1.993 . S
Co69 O94 1.941 . S
C70 O71 1.265 1_565 S
C70 O72 1.244 1_565 S
O71 Co68 1.970 . S
O71 C70 1.265 1_545 S
O72 Co69 1.966 . S
O72 C70 1.244 1_545 S
C73 O74 1.235 1_545 S
C73 O100 1.289 . S
O74 C73 1.235 1_565 S
C75 C77 1.400 . S
C75 N78 1.351 . S
C75 C80 1.501 . S
C76 C77 1.387 . S
C76 N79 1.341 . S
C77 C75 1.400 . S
C77 C76 1.387 . S
N78 Co69 2.022 . S
N78 C75 1.351 . S
N78 N79 1.365 . S
N79 C76 1.341 . S
N79 N78 1.365 . S
N79 H99 0.862 . S
C80 C75 1.501 . S
C80 H81 0.961 . S
C80 H82 0.961 1_545 S
C80 H83 0.960 1_545 S
H81 C80 0.961 . S
H82 C80 0.961 1_565 S
H83 C80 0.960 1_565 S
C84 N85 1.342 . S
C84 C88 1.401 . S
C84 C89 1.499 . S
N85 Co68 1.989 . S
N85 C84 1.342 . S
N85 N86 1.388 . S
N86 Co69 1.993 . S
N86 N85 1.388 . S
N86 C87 1.346 . S
C87 N86 1.346 . S
C87 C88 1.396 . S
C87 C97 1.510 . S
C88 C84 1.401 . S
C88 C87 1.396 . S
C89 C84 1.499 . S
C89 H90 0.959 . S
C89 H91 0.960 . S
C89 H92 0.961 . S
H90 C89 0.959 . S
H91 C89 0.960 . S
H92 C89 0.961 . S
O93 Co68 1.967 . S
O93 C101 1.258 . S
O94 Co69 1.941 . S
O94 C101 1.266 . S
H95 C97 0.959 . S
H96 C97 0.961 . S
C97 C87 1.510 . S
C97 H95 0.959 . S
C97 H96 0.961 . S
C97 H98 0.960 . S
H98 C97 0.960 . S
H99 N79 0.862 . S
O100 Co68 1.920 . S
O100 C73 1.289 . S
C101 O93 1.258 . S
C101 O94 1.266 . S
Co102 O105 1.970 . S
Co102 N119 1.989 . S
Co102 O127 1.967 . S
Co102 O134 1.920 . S
Co103 O106 1.966 . S
Co103 N112 2.022 . S
Co103 N120 1.993 . S
Co103 O128 1.941 . S
C104 O105 1.258 . S
C104 O106 1.263 . S
O105 Co102 1.970 . S
O105 C104 1.258 . S
O106 Co103 1.966 . S
O106 C104 1.263 . S
C107 O108 1.235 . S
C107 O134 1.289 . S
O108 C107 1.235 . S
C109 C111 1.400 . S
C109 N112 1.351 . S
C109 C114 1.501 . S
C110 C111 1.387 . S
C110 N113 1.341 . S
C111 C109 1.400 . S
C111 C110 1.387 . S
N112 Co103 2.022 . S
N112 C109 1.351 . S
N112 N113 1.365 . S
N113 C110 1.341 . S
N113 N112 1.365 . S
N113 H133 0.862 . S
C114 C109 1.501 . S
C114 H115 0.961 . S
C114 H116 0.961 . S
C114 H117 0.960 . S
H115 C114 0.961 . S
H116 C114 0.961 . S
H117 C114 0.960 . S
C118 N119 1.342 . S
C118 C122 1.401 . S
C118 C123 1.499 . S
N119 Co102 1.989 . S
N119 C118 1.342 . S
N119 N120 1.388 . S
N120 Co103 1.993 . S
N120 N119 1.388 . S
N120 C121 1.346 . S
C121 N120 1.346 . S
C121 C122 1.396 . S
C121 C131 1.510 . S
C122 C118 1.401 . S
C122 C121 1.396 . S
C123 C118 1.499 . S
C123 H124 0.959 . S
C123 H125 0.960 . S
C123 H126 0.961 . S
H124 C123 0.959 . S
H125 C123 0.960 . S
H126 C123 0.961 . S
O127 Co102 1.967 . S
O127 C135 1.258 . S
O128 Co103 1.941 . S
O128 C135 1.266 . S
H129 C131 0.959 . S
H130 C131 0.961 . S
C131 C121 1.510 . S
C131 H129 0.959 . S
C131 H130 0.961 . S
C131 H132 0.960 . S
H132 C131 0.960 . S
H133 N113 0.862 . S
O134 Co102 1.920 . S
O134 C107 1.289 . S
C135 O127 1.258 . S
C135 O128 1.266 . S
Co136 O139 1.970 . S
Co136 N153 1.989 . S
Co136 O161 1.967 . S
Co136 O168 1.920 . S
Co137 O140 1.966 . S
Co137 N146 2.022 . S
Co137 N154 1.993 . S
Co137 O162 1.941 . S
C138 O139 1.247 1_455 S
C138 O140 1.262 1_455 S
O139 Co136 1.970 . S
O139 C138 1.247 1_655 S
O140 Co137 1.966 . S
O140 C138 1.262 1_655 S
C141 O142 1.235 1_655 S
C141 O168 1.289 . S
O142 C141 1.235 1_455 S
C143 C145 1.400 . S
C143 N146 1.351 . S
C143 C148 1.501 . S
C144 C145 1.387 . S
C144 N147 1.341 . S
C145 C143 1.400 . S
C145 C144 1.387 . S
N146 Co137 2.022 . S
N146 C143 1.351 . S
N146 N147 1.365 . S
N147 C144 1.341 . S
N147 N146 1.365 . S
N147 H167 0.862 . S
C148 C143 1.501 . S
C148 H149 0.961 . S
C148 H150 0.961 1_655 S
C148 H151 0.960 1_655 S
H149 C148 0.961 . S
H150 C148 0.961 1_455 S
H151 C148 0.960 1_455 S
C152 N153 1.342 . S
C152 C156 1.401 . S
C152 C157 1.499 . S
N153 Co136 1.989 . S
N153 C152 1.342 . S
N153 N154 1.388 . S
N154 Co137 1.993 . S
N154 N153 1.388 . S
N154 C155 1.346 . S
C155 N154 1.346 . S
C155 C156 1.396 . S
C155 C165 1.510 . S
C156 C152 1.401 . S
C156 C155 1.396 . S
C157 C152 1.499 . S
C157 H158 0.959 . S
C157 H159 0.960 . S
C157 H160 0.961 . S
H158 C157 0.959 . S
H159 C157 0.960 . S
H160 C157 0.961 . S
O161 Co136 1.967 . S
O161 C169 1.258 . S
O162 Co137 1.941 . S
O162 C169 1.266 . S
H163 C165 0.959 . S
H164 C165 0.961 . S
C165 C155 1.510 . S
C165 H163 0.959 . S
C165 H164 0.961 . S
C165 H166 0.960 . S
H166 C165 0.960 . S
H167 N147 0.862 . S
O168 Co136 1.920 . S
O168 C141 1.289 . S
C169 O161 1.258 . S
C169 O162 1.266 . S
Co170 O173 1.970 . S
Co170 N187 1.989 . S
Co170 O195 1.967 . S
Co170 O202 1.920 . S
Co171 O174 1.966 . S
Co171 N180 2.022 . S
Co171 N188 1.993 . S
Co171 O196 1.941 . S
C172 O173 1.265 1_545 S
C172 O174 1.244 1_545 S
O173 Co170 1.970 . S
O173 C172 1.265 1_565 S
O174 Co171 1.966 . S
O174 C172 1.244 1_565 S
C175 O176 1.235 1_565 S
C175 O202 1.289 . S
O176 C175 1.235 1_545 S
C177 C179 1.400 . S
C177 N180 1.351 . S
C177 C182 1.501 . S
C178 C179 1.387 . S
C178 N181 1.341 . S
C179 C177 1.400 . S
C179 C178 1.387 . S
N180 Co171 2.022 . S
N180 C177 1.351 . S
N180 N181 1.365 . S
N181 C178 1.341 . S
N181 N180 1.365 . S
N181 H201 0.862 . S
C182 C177 1.501 . S
C182 H183 0.961 . S
C182 H184 0.961 1_565 S
C182 H185 0.960 1_565 S
H183 C182 0.961 . S
H184 C182 0.961 1_545 S
H185 C182 0.960 1_545 S
C186 N187 1.342 . S
C186 C190 1.401 . S
C186 C191 1.499 . S
N187 Co170 1.989 . S
N187 C186 1.342 . S
N187 N188 1.388 . S
N188 Co171 1.993 . S
N188 N187 1.388 . S
N188 C189 1.346 . S
C189 N188 1.346 . S
C189 C190 1.396 . S
C189 C199 1.510 . S
C190 C186 1.401 . S
C190 C189 1.396 . S
C191 C186 1.499 . S
C191 H192 0.959 . S
C191 H193 0.960 . S
C191 H194 0.961 . S
H192 C191 0.959 . S
H193 C191 0.960 . S
H194 C191 0.961 . S
O195 Co170 1.967 . S
O195 C203 1.258 . S
O196 Co171 1.941 . S
O196 C203 1.266 . S
H197 C199 0.959 . S
H198 C199 0.961 . S
C199 C189 1.510 . S
C199 H197 0.959 . S
C199 H198 0.961 . S
C199 H200 0.960 . S
H200 C199 0.960 . S
H201 N181 0.862 . S
O202 Co170 1.920 . S
O202 C175 1.289 . S
C203 O195 1.258 . S
C203 O196 1.266 . S
Co204 O207 1.970 . S
Co204 N221 1.989 . S
Co204 O229 1.967 . S
Co204 O236 1.920 . S
Co205 O208 1.966 . S
Co205 N214 2.022 . S
Co205 N222 1.993 . S
Co205 O230 1.941 . S
C206 O207 1.258 . S
C206 O208 1.263 . S
O207 Co204 1.970 . S
O207 C206 1.258 . S
O208 Co205 1.966 . S
O208 C206 1.263 . S
C209 O210 1.235 . S
C209 O236 1.289 . S
O210 C209 1.235 . S
C211 C213 1.400 . S
C211 N214 1.351 . S
C211 C216 1.501 . S
C212 C213 1.387 . S
C212 N215 1.341 . S
C213 C211 1.400 . S
C213 C212 1.387 . S
N214 Co205 2.022 . S
N214 C211 1.351 . S
N214 N215 1.365 . S
N215 C212 1.341 . S
N215 N214 1.365 . S
N215 H235 0.862 . S
C216 C211 1.501 . S
C216 H217 0.961 . S
C216 H218 0.961 . S
C216 H219 0.960 . S
H217 C216 0.961 . S
H218 C216 0.961 . S
H219 C216 0.960 . S
C220 N221 1.342 . S
C220 C224 1.401 . S
C220 C225 1.499 . S
N221 Co204 1.989 . S
N221 C220 1.342 . S
N221 N222 1.388 . S
N222 Co205 1.993 . S
N222 N221 1.388 . S
N222 C223 1.346 . S
C223 N222 1.346 . S
C223 C224 1.396 . S
C223 C233 1.510 . S
C224 C220 1.401 . S
C224 C223 1.396 . S
C225 C220 1.499 . S
C225 H226 0.959 . S
C225 H227 0.960 . S
C225 H228 0.961 . S
H226 C225 0.959 . S
H227 C225 0.960 . S
H228 C225 0.961 . S
O229 Co204 1.967 . S
O229 C237 1.258 . S
O230 Co205 1.941 . S
O230 C237 1.266 . S
H231 C233 0.959 . S
H232 C233 0.961 . S
C233 C223 1.510 . S
C233 H231 0.959 . S
C233 H232 0.961 . S
C233 H234 0.960 . S
H234 C233 0.960 . S
H235 N215 0.862 . S
O236 Co204 1.920 . S
O236 C209 1.289 . S
C237 O229 1.258 . S
C237 O230 1.266 . S
Co238 O241 1.970 . S
Co238 N255 1.989 . S
Co238 O263 1.967 . S
Co238 O270 1.920 . S
Co239 O242 1.966 . S
Co239 N248 2.022 . S
Co239 N256 1.993 . S
Co239 O264 1.941 . S
C240 O241 1.265 1_655 S
C240 O242 1.244 1_655 S
O241 Co238 1.970 . S
O241 C240 1.265 1_455 S
O242 Co239 1.966 . S
O242 C240 1.244 1_455 S
C243 O244 1.235 1_455 S
C243 O270 1.289 . S
O244 C243 1.235 1_655 S
C245 C247 1.400 . S
C245 N248 1.351 . S
C245 C250 1.501 . S
C246 C247 1.387 . S
C246 N249 1.341 . S
C247 C245 1.400 . S
C247 C246 1.387 . S
N248 Co239 2.022 . S
N248 C245 1.351 . S
N248 N249 1.365 . S
N249 C246 1.341 . S
N249 N248 1.365 . S
N249 H269 0.862 . S
C250 C245 1.501 . S
C250 H251 0.961 . S
C250 H252 0.961 1_455 S
C250 H253 0.960 1_455 S
H251 C250 0.961 . S
H252 C250 0.961 1_655 S
H253 C250 0.960 1_655 S
C254 N255 1.342 . S
C254 C258 1.401 . S
C254 C259 1.499 . S
N255 Co238 1.989 . S
N255 C254 1.342 . S
N255 N256 1.388 . S
N256 Co239 1.993 . S
N256 N255 1.388 . S
N256 C257 1.346 . S
C257 N256 1.346 . S
C257 C258 1.396 . S
C257 C267 1.510 . S
C258 C254 1.401 . S
C258 C257 1.396 . S
C259 C254 1.499 . S
C259 H260 0.959 . S
C259 H261 0.960 . S
C259 H262 0.961 . S
H260 C259 0.959 . S
H261 C259 0.960 . S
H262 C259 0.961 . S
O263 Co238 1.967 . S
O263 C271 1.258 . S
O264 Co239 1.941 . S
O264 C271 1.266 . S
H265 C267 0.959 . S
H266 C267 0.961 . S
C267 C257 1.510 . S
C267 H265 0.959 . S
C267 H266 0.961 . S
C267 H268 0.960 . S
H268 C267 0.960 . S
H269 N249 0.862 . S
O270 Co238 1.920 . S
O270 C243 1.289 . S
C271 O263 1.258 . S
C271 O264 1.266 . S
Co272 O275 1.970 . S
Co272 N289 1.989 . S
Co272 O297 1.967 . S
Co272 O304 1.920 . S
Co273 O276 1.966 . S
Co273 N282 2.022 . S
Co273 N290 1.993 . S
Co273 O298 1.941 . S
C274 O275 1.247 1_565 S
C274 O276 1.262 1_565 S
O275 Co272 1.970 . S
O275 C274 1.247 1_545 S
O276 Co273 1.966 . S
O276 C274 1.262 1_545 S
C277 O278 1.235 1_545 S
C277 O304 1.289 . S
O278 C277 1.235 1_565 S
C279 C281 1.400 . S
C279 N282 1.351 . S
C279 C284 1.501 . S
C280 C281 1.387 . S
C280 N283 1.341 . S
C281 C279 1.400 . S
C281 C280 1.387 . S
N282 Co273 2.022 . S
N282 C279 1.351 . S
N282 N283 1.365 . S
N283 C280 1.341 . S
N283 N282 1.365 . S
N283 H303 0.862 . S
C284 C279 1.501 . S
C284 H285 0.961 . S
C284 H286 0.961 1_545 S
C284 H287 0.960 1_545 S
H285 C284 0.961 . S
H286 C284 0.961 1_565 S
H287 C284 0.960 1_565 S
C288 N289 1.342 . S
C288 C292 1.401 . S
C288 C293 1.499 . S
N289 Co272 1.989 . S
N289 C288 1.342 . S
N289 N290 1.388 . S
N290 Co273 1.993 . S
N290 N289 1.388 . S
N290 C291 1.346 . S
C291 N290 1.346 . S
C291 C292 1.396 . S
C291 C301 1.510 . S
C292 C288 1.401 . S
C292 C291 1.396 . S
C293 C288 1.499 . S
C293 H294 0.959 . S
C293 H295 0.960 . S
C293 H296 0.961 . S
H294 C293 0.959 . S
H295 C293 0.960 . S
H296 C293 0.961 . S
O297 Co272 1.967 . S
O297 C305 1.258 . S
O298 Co273 1.941 . S
O298 C305 1.266 . S
H299 C301 0.959 . S
H300 C301 0.961 . S
C301 C291 1.510 . S
C301 H299 0.959 . S
C301 H300 0.961 . S
C301 H302 0.960 . S
H302 C301 0.960 . S
H303 N283 0.862 . S
O304 Co272 1.920 . S
O304 C277 1.289 . S
C305 O297 1.258 . S
C305 O298 1.266 . S
Co306 O309 1.970 . S
Co306 N323 1.989 . S
Co306 O331 1.967 . S
Co306 O338 1.920 . S
Co307 O310 1.966 . S
Co307 N316 2.022 . S
Co307 N324 1.993 . S
Co307 O332 1.941 . S
C308 O309 1.258 . S
C308 O310 1.263 . S
O309 Co306 1.970 . S
O309 C308 1.258 . S
O310 Co307 1.966 . S
O310 C308 1.263 . S
C311 O312 1.235 . S
C311 O338 1.289 . S
O312 C311 1.235 . S
C313 C315 1.400 . S
C313 N316 1.351 . S
C313 C318 1.501 . S
C314 C315 1.387 . S
C314 N317 1.341 . S
C315 C313 1.400 . S
C315 C314 1.387 . S
N316 Co307 2.022 . S
N316 C313 1.351 . S
N316 N317 1.365 . S
N317 C314 1.341 . S
N317 N316 1.365 . S
N317 H337 0.862 . S
C318 C313 1.501 . S
C318 H319 0.961 . S
C318 H320 0.961 . S
C318 H321 0.960 . S
H319 C318 0.961 . S
H320 C318 0.961 . S
H321 C318 0.960 . S
C322 N323 1.342 . S
C322 C326 1.401 . S
C322 C327 1.499 . S
N323 Co306 1.989 . S
N323 C322 1.342 . S
N323 N324 1.388 . S
N324 Co307 1.993 . S
N324 N323 1.388 . S
N324 C325 1.346 . S
C325 N324 1.346 . S
C325 C326 1.396 . S
C325 C335 1.510 . S
C326 C322 1.401 . S
C326 C325 1.396 . S
C327 C322 1.499 . S
C327 H328 0.959 . S
C327 H329 0.960 . S
C327 H330 0.961 . S
H328 C327 0.959 . S
H329 C327 0.960 . S
H330 C327 0.961 . S
O331 Co306 1.967 . S
O331 C339 1.258 . S
O332 Co307 1.941 . S
O332 C339 1.266 . S
H333 C335 0.959 . S
H334 C335 0.961 . S
C335 C325 1.510 . S
C335 H333 0.959 . S
C335 H334 0.961 . S
C335 H336 0.960 . S
H336 C335 0.960 . S
H337 N317 0.862 . S
O338 Co306 1.920 . S
O338 C311 1.289 . S
C339 O331 1.258 . S
C339 O332 1.266 . S
Co340 O343 1.970 . S
Co340 N357 1.989 . S
Co340 O365 1.967 . S
Co340 O372 1.920 . S
Co341 O344 1.966 . S
Co341 N350 2.022 . S
Co341 N358 1.993 . S
Co341 O366 1.941 . S
C342 O343 1.265 1_455 S
C342 O344 1.244 1_455 S
O343 Co340 1.970 . S
O343 C342 1.265 1_655 S
O344 Co341 1.966 . S
O344 C342 1.244 1_655 S
C345 O346 1.235 1_655 S
C345 O372 1.289 . S
O346 C345 1.235 1_455 S
C347 C349 1.400 . S
C347 N350 1.351 . S
C347 C352 1.501 . S
C348 C349 1.387 . S
C348 N351 1.341 . S
C349 C347 1.400 . S
C349 C348 1.387 . S
N350 Co341 2.022 . S
N350 C347 1.351 . S
N350 N351 1.365 . S
N351 C348 1.341 . S
N351 N350 1.365 . S
N351 H371 0.862 . S
C352 C347 1.501 . S
C352 H353 0.961 . S
C352 H354 0.961 1_655 S
C352 H355 0.960 1_655 S
H353 C352 0.961 . S
H354 C352 0.961 1_455 S
H355 C352 0.960 1_455 S
C356 N357 1.342 . S
C356 C360 1.401 . S
C356 C361 1.499 . S
N357 Co340 1.989 . S
N357 C356 1.342 . S
N357 N358 1.388 . S
N358 Co341 1.993 . S
N358 N357 1.388 . S
N358 C359 1.346 . S
C359 N358 1.346 . S
C359 C360 1.396 . S
C359 C369 1.510 . S
C360 C356 1.401 . S
C360 C359 1.396 . S
C361 C356 1.499 . S
C361 H362 0.959 . S
C361 H363 0.960 . S
C361 H364 0.961 . S
H362 C361 0.959 . S
H363 C361 0.960 . S
H364 C361 0.961 . S
O365 Co340 1.967 . S
O365 C373 1.258 . S
O366 Co341 1.941 . S
O366 C373 1.266 . S
H367 C369 0.959 . S
H368 C369 0.961 . S
C369 C359 1.510 . S
C369 H367 0.959 . S
C369 H368 0.961 . S
C369 H370 0.960 . S
H370 C369 0.960 . S
H371 N351 0.862 . S
O372 Co340 1.920 . S
O372 C345 1.289 . S
C373 O365 1.258 . S
C373 O366 1.266 . S
Co374 O377 1.970 . S
Co374 N391 1.989 . S
Co374 O399 1.967 . S
Co374 O406 1.920 . S
Co375 O378 1.966 . S
Co375 N384 2.022 . S
Co375 N392 1.993 . S
Co375 O400 1.941 . S
C376 O377 1.247 1_545 S
C376 O378 1.262 1_545 S
O377 Co374 1.970 . S
O377 C376 1.247 1_565 S
O378 Co375 1.966 . S
O378 C376 1.262 1_565 S
C379 O380 1.235 1_565 S
C379 O406 1.289 . S
O380 C379 1.235 1_545 S
C381 C383 1.400 . S
C381 N384 1.351 . S
C381 C386 1.501 . S
C382 C383 1.387 . S
C382 N385 1.341 . S
C383 C381 1.400 . S
C383 C382 1.387 . S
N384 Co375 2.022 . S
N384 C381 1.351 . S
N384 N385 1.365 . S
N385 C382 1.341 . S
N385 N384 1.365 . S
N385 H405 0.862 . S
C386 C381 1.501 . S
C386 H387 0.961 . S
C386 H388 0.961 1_565 S
C386 H389 0.960 1_565 S
H387 C386 0.961 . S
H388 C386 0.961 1_545 S
H389 C386 0.960 1_545 S
C390 N391 1.342 . S
C390 C394 1.401 . S
C390 C395 1.499 . S
N391 Co374 1.989 . S
N391 C390 1.342 . S
N391 N392 1.388 . S
N392 Co375 1.993 . S
N392 N391 1.388 . S
N392 C393 1.346 . S
C393 N392 1.346 . S
C393 C394 1.396 . S
C393 C403 1.510 . S
C394 C390 1.401 . S
C394 C393 1.396 . S
C395 C390 1.499 . S
C395 H396 0.959 . S
C395 H397 0.960 . S
C395 H398 0.961 . S
H396 C395 0.959 . S
H397 C395 0.960 . S
H398 C395 0.961 . S
O399 Co374 1.967 . S
O399 C407 1.258 . S
O400 Co375 1.941 . S
O400 C407 1.266 . S
H401 C403 0.959 . S
H402 C403 0.961 . S
C403 C393 1.510 . S
C403 H401 0.959 . S
C403 H402 0.961 . S
C403 H404 0.960 . S
H404 C403 0.960 . S
H405 N385 0.862 . S
O406 Co374 1.920 . S
O406 C379 1.289 . S
C407 O399 1.258 . S
C407 O400 1.266 . S
C408 C409 1.369 . S
C408 C410 1.419 . S
C408 H412 0.930 . S
C409 C408 1.369 . S
C409 C418 1.429 . S
C410 C408 1.419 . S
C410 C411 1.363 . S
C410 H413 0.929 . S
C411 C410 1.363 . S
C411 C417 1.428 . S
H412 C408 0.930 . S
H413 C410 0.929 . S
S414 N415 1.613 . S
S414 N416 1.610 . S
N415 S414 1.613 . S
N415 C418 1.350 . S
N416 S414 1.610 . S
N416 C417 1.351 . S
C417 C411 1.428 . S
C417 N416 1.351 . S
C417 C418 1.434 . S
C418 C409 1.429 . S
C418 N415 1.350 . S
C418 C417 1.434 . S
C419 C420 1.369 1_655 S
C419 C421 1.419 . S
C419 H423 0.930 . S
C420 C419 1.369 1_455 S
C420 C429 1.429 . S
C421 C419 1.419 . S
C421 C422 1.363 . S
C421 H424 0.929 . S
C422 C421 1.363 . S
C422 C428 1.428 1_655 S
H423 C419 0.930 . S
H424 C421 0.929 . S
S425 N426 1.613 . S
S425 N427 1.610 . S
N426 S425 1.613 . S
N426 C429 1.350 . S
N427 S425 1.610 . S
N427 C428 1.351 . S
C428 C422 1.428 1_455 S
C428 N427 1.351 . S
C428 C429 1.434 . S
C429 C420 1.429 . S
C429 N426 1.350 . S
C429 C428 1.434 . S
C430 C431 1.369 . S
C430 C432 1.419 1_545 S
C430 H434 0.930 . S
C431 C430 1.369 . S
C431 C440 1.429 . S
C432 C430 1.419 1_565 S
C432 C433 1.363 . S
C432 H435 0.929 . S
C433 C432 1.363 . S
C433 C439 1.428 . S
H434 C430 0.930 . S
H435 C432 0.929 . S
S436 N437 1.613 . S
S436 N438 1.610 1_545 S
N437 S436 1.613 . S
N437 C440 1.350 . S
N438 S436 1.610 1_565 S
N438 C439 1.351 . S
C439 C433 1.428 . S
C439 N438 1.351 . S
C439 C440 1.434 1_565 S
C440 C431 1.429 . S
C440 N437 1.350 . S
C440 C439 1.434 1_545 S
C441 C442 1.369 . S
C441 C443 1.419 . S
C441 H445 0.930 . S
C442 C441 1.369 . S
C442 C451 1.429 . S
C443 C441 1.419 . S
C443 C444 1.363 . S
C443 H446 0.929 . S
C444 C443 1.363 . S
C444 C450 1.428 . S
H445 C441 0.930 . S
H446 C443 0.929 . S
S447 N448 1.613 . S
S447 N449 1.610 . S
N448 S447 1.613 . S
N448 C451 1.350 . S
N449 S447 1.610 . S
N449 C450 1.351 . S
C450 C444 1.428 . S
C450 N449 1.351 . S
C450 C451 1.434 . S
C451 C442 1.429 . S
C451 N448 1.350 . S
C451 C450 1.434 . S
C452 C453 1.369 1_455 S
C452 C454 1.419 . S
C452 H456 0.930 . S
C453 C452 1.369 1_655 S
C453 C462 1.429 . S
C454 C452 1.419 . S
C454 C455 1.363 . S
C454 H457 0.929 . S
C455 C454 1.363 . S
C455 C461 1.428 1_455 S
H456 C452 0.930 . S
H457 C454 0.929 . S
S458 N459 1.613 . S
S458 N460 1.610 . S
N459 S458 1.613 . S
N459 C462 1.350 . S
N460 S458 1.610 . S
N460 C461 1.351 . S
C461 C455 1.428 1_655 S
C461 N460 1.351 . S
C461 C462 1.434 . S
C462 C453 1.429 . S
C462 N459 1.350 . S
C462 C461 1.434 . S
C463 C464 1.369 1_545 S
C463 C465 1.419 . S
C463 H467 0.930 . S
C464 C463 1.369 1_565 S
C464 C473 1.429 . S
C465 C463 1.419 . S
C465 C466 1.363 . S
C465 H468 0.929 . S
C466 C465 1.363 . S
C466 C472 1.428 1_545 S
H467 C463 0.930 . S
H468 C465 0.929 . S
S469 N470 1.613 . S
S469 N471 1.610 . S
N470 S469 1.613 . S
N470 C473 1.350 . S
N471 S469 1.610 . S
N471 C472 1.351 . S
C472 C466 1.428 1_565 S
C472 N471 1.351 . S
C472 C473 1.434 . S
C473 C464 1.429 . S
C473 N470 1.350 . S
C473 C472 1.434 . S
C474 C475 1.369 1_554 S
C474 C476 1.419 1_565 S
C474 H478 0.930 . S
C475 C474 1.369 1_556 S
C475 C484 1.429 . S
C476 C474 1.419 1_545 S
C476 C477 1.363 . S
C476 H479 0.929 . S
C477 C476 1.363 . S
C477 C483 1.428 1_554 S
H478 C474 0.930 . S
H479 C476 0.929 . S
S480 N481 1.613 1_545 S
S480 N482 1.610 . S
N481 S480 1.613 1_565 S
N481 C484 1.350 . S
N482 S480 1.610 . S
N482 C483 1.351 . S
C483 C477 1.428 1_556 S
C483 N482 1.351 . S
C483 C484 1.434 1_545 S
C484 C475 1.429 . S
C484 N481 1.350 . S
C484 C483 1.434 1_565 S
C485 C486 1.369 . S
C485 C487 1.419 . S
C485 H489 0.930 . S
C486 C485 1.369 . S
C486 C495 1.429 . S
C487 C485 1.419 . S
C487 C488 1.363 . S
C487 H490 0.929 . S
C488 C487 1.363 . S
C488 C494 1.428 . S
H489 C485 0.930 . S
H490 C487 0.929 . S
S491 N492 1.613 . S
S491 N493 1.610 . S
N492 S491 1.613 . S
N492 C495 1.350 . S
N493 S491 1.610 . S
N493 C494 1.351 . S
C494 C488 1.428 . S
C494 N493 1.351 . S
C494 C495 1.434 . S
C495 C486 1.429 . S
C495 N492 1.350 . S
C495 C494 1.434 . S
C496 C497 1.369 . S
C496 C498 1.419 1_455 S
C496 H500 0.930 . S
C497 C496 1.369 . S
C497 C506 1.429 . S
C498 C496 1.419 1_655 S
C498 C499 1.363 . S
C498 H501 0.929 . S
C499 C498 1.363 . S
C499 C505 1.428 . S
H500 C496 0.930 . S
H501 C498 0.929 . S
S502 N503 1.613 . S
S502 N504 1.610 1_455 S
N503 S502 1.613 . S
N503 C506 1.350 . S
N504 S502 1.610 1_655 S
N504 C505 1.351 . S
C505 C499 1.428 . S
C505 N504 1.351 . S
C505 C506 1.434 1_655 S
C506 C497 1.429 . S
C506 N503 1.350 . S
C506 C505 1.434 1_455 S
C507 C508 1.369 . S
C507 C509 1.419 1_565 S
C507 H511 0.930 . S
C508 C507 1.369 . S
C508 C517 1.429 1_554 S
C509 C507 1.419 1_545 S
C509 C510 1.363 1_554 S
C509 H512 0.929 . S
C510 C509 1.363 1_556 S
C510 C516 1.428 . S
H511 C507 0.930 . S
H512 C509 0.929 . S
S513 N514 1.613 . S
S513 N515 1.610 1_565 S
N514 S513 1.613 . S
N514 C517 1.350 . S
N515 S513 1.610 1_545 S
N515 C516 1.351 . S
C516 C510 1.428 . S
C516 N515 1.351 . S
C516 C517 1.434 1_545 S
C517 C508 1.429 1_556 S
C517 N514 1.350 . S
C517 C516 1.434 1_565 S
C518 C519 1.369 . S
C518 C520 1.419 . S
C518 H522 0.930 . S
C519 C518 1.369 . S
C519 C528 1.429 . S
C520 C518 1.419 . S
C520 C521 1.363 . S
C520 H523 0.929 . S
C521 C520 1.363 . S
C521 C527 1.428 . S
H522 C518 0.930 . S
H523 C520 0.929 . S
S524 N525 1.613 . S
S524 N526 1.610 . S
N525 S524 1.613 . S
N525 C528 1.350 . S
N526 S524 1.610 . S
N526 C527 1.351 . S
C527 C521 1.428 . S
C527 N526 1.351 . S
C527 C528 1.434 . S
C528 C519 1.429 . S
C528 N525 1.350 . S
C528 C527 1.434 . S
C529 C530 1.369 . S
C529 C531 1.419 1_455 S
C529 H533 0.930 . S
C530 C529 1.369 . S
C530 C539 1.429 . S
C531 C529 1.419 1_655 S
C531 C532 1.363 . S
C531 H534 0.929 . S
C532 C531 1.363 . S
C532 C538 1.428 . S
H533 C529 0.930 . S
H534 C531 0.929 . S
S535 N536 1.613 1_655 S
S535 N537 1.610 . S
N536 S535 1.613 1_455 S
N536 C539 1.350 . S
N537 S535 1.610 . S
N537 C538 1.351 . S
C538 C532 1.428 . S
C538 N537 1.351 . S
C538 C539 1.434 1_655 S
C539 C530 1.429 . S
C539 N536 1.350 . S
C539 C538 1.434 1_455 S
C540 C541 1.369 . S
C540 C542 1.419 1_445 S
C540 H544 0.930 . S
C541 C540 1.369 . S
C541 C550 1.429 1_545 S
C542 C540 1.419 1_665 S
C542 C543 1.363 . S
C542 H545 0.928 1_565 S
C543 C542 1.363 . S
C543 C549 1.428 . S
H544 C540 0.930 . S
H545 C542 0.928 1_545 S
S546 N547 1.613 1_655 S
S546 N548 1.610 . S
N547 S546 1.613 1_455 S
N547 C550 1.350 . S
N548 S546 1.610 . S
N548 C549 1.351 . S
C549 C543 1.428 . S
C549 N548 1.351 . S
C549 C550 1.434 1_655 S
C550 C541 1.429 1_565 S
C550 N547 1.350 . S
C550 C549 1.434 1_455 S
C551 C552 1.369 . S
C551 C553 1.419 1_545 S
C551 H555 0.930 . S
C552 C551 1.369 . S
C552 C561 1.429 1_455 S
C553 C551 1.419 1_565 S
C553 C554 1.363 1_455 S
C553 H556 0.929 . S
C554 C553 1.363 1_655 S
C554 C560 1.428 . S
H555 C551 0.930 . S
H556 C553 0.929 . S
S557 N558 1.613 . S
S557 N559 1.610 1_545 S
N558 S557 1.613 . S
N558 C561 1.350 . S
N559 S557 1.610 1_565 S
N559 C560 1.351 . S
C560 C554 1.428 . S
C560 N559 1.351 . S
C560 C561 1.434 1_565 S
C561 C552 1.429 1_655 S
C561 N558 1.350 . S
C561 C560 1.434 1_545 S
C562 C563 1.369 1_455 S
C562 C564 1.419 1_545 S
C562 H566 0.930 . S
C563 C562 1.369 1_655 S
C563 C572 1.429 . S
C564 C562 1.419 1_565 S
C564 C565 1.363 . S
C564 H567 0.929 . S
C565 C564 1.363 . S
C565 C571 1.428 1_455 S
H566 C562 0.930 . S
H567 C564 0.929 . S
S568 N569 1.613 1_565 S
S568 N570 1.610 . S
N569 S568 1.613 1_545 S
N569 C572 1.350 . S
N570 S568 1.610 . S
N570 C571 1.351 . S
C571 C565 1.428 1_655 S
C571 N570 1.351 . S
C571 C572 1.434 1_565 S
C572 C563 1.429 . S
C572 N569 1.350 . S
C572 C571 1.434 1_545 S
C573 C574 1.369 1_455 S
C573 C575 1.419 1_565 S
C573 H577 0.930 . S
C574 C573 1.369 1_655 S
C574 C583 1.429 . S
C575 C573 1.419 1_545 S
C575 C576 1.363 . S
C575 H578 0.929 . S
C576 C575 1.363 . S
C576 C582 1.428 1_455 S
H577 C573 0.930 . S
H578 C575 0.929 . S
S579 N580 1.613 . S
S579 N581 1.610 1_565 S
N580 S579 1.613 . S
N580 C583 1.350 . S
N581 S579 1.610 1_545 S
N581 C582 1.351 . S
C582 C576 1.428 1_655 S
C582 N581 1.351 . S
C582 C583 1.434 1_545 S
C583 C574 1.429 . S
C583 N580 1.350 . S
C583 C582 1.434 1_565 S
C584 C585 1.369 1_545 S
C584 C586 1.419 1_455 S
C584 H588 0.930 . S
C585 C584 1.369 1_565 S
C585 C594 1.429 . S
C586 C584 1.419 1_655 S
C586 C587 1.363 . S
C586 H589 0.929 . S
C587 C586 1.363 . S
C587 C593 1.428 1_545 S
H588 C584 0.930 . S
H589 C586 0.929 . S
S590 N591 1.613 1_655 S
S590 N592 1.610 . S
N591 S590 1.613 1_455 S
N591 C594 1.350 . S
N592 S590 1.610 . S
N592 C593 1.351 . S
C593 C587 1.428 1_565 S
C593 N592 1.351 . S
C593 C594 1.434 1_655 S
C594 C585 1.429 . S
C594 N591 1.350 . S
C594 C593 1.434 1_455 S
C595 C596 1.369 . S
C595 C597 1.419 1_445 S
C595 H599 0.930 . S
C596 C595 1.369 . S
C596 C605 1.429 . S
C597 C595 1.419 1_665 S
C597 C598 1.363 . S
C597 H600 0.929 . S
C598 C597 1.363 . S
C598 C604 1.428 . S
H599 C595 0.930 . S
H600 C597 0.929 . S
S601 N602 1.613 1_565 S
S601 N603 1.610 1_455 S
N602 S601 1.613 1_545 S
N602 C605 1.350 . S
N603 S601 1.610 1_655 S
N603 C604 1.351 . S
C604 C598 1.428 . S
C604 N603 1.351 . S
C604 C605 1.434 1_665 S
C605 C596 1.429 . S
C605 N602 1.350 . S
C605 C604 1.434 1_445 S
C606 C607 1.369 . S
C606 C608 1.419 . S
C606 H610 0.930 . S
C607 C606 1.369 . S
C607 C616 1.429 1_556 S
C608 C606 1.419 . S
C608 C609 1.363 1_556 S
C608 H611 0.929 . S
C609 C608 1.363 1_554 S
C609 C615 1.428 . S
H610 C606 0.930 . S
H611 C608 0.929 . S
S612 N613 1.613 . S
S612 N614 1.610 . S
N613 S612 1.613 . S
N613 C616 1.350 . S
N614 S612 1.610 . S
N614 C615 1.351 . S
C615 C609 1.428 . S
C615 N614 1.351 . S
C615 C616 1.434 . S
C616 C607 1.429 1_554 S
C616 N613 1.350 . S
C616 C615 1.434 . S
C617 C618 1.369 . S
C617 C619 1.419 . S
C617 H621 0.930 . S
C618 C617 1.369 . S
C618 C627 1.429 . S
C619 C617 1.419 . S
C619 C620 1.363 . S
C619 H622 0.929 . S
C620 C619 1.363 . S
C620 C626 1.428 . S
H621 C617 0.930 . S
H622 C619 0.929 . S
S623 N624 1.613 . S
S623 N625 1.610 . S
N624 S623 1.613 . S
N624 C627 1.350 . S
N625 S623 1.610 . S
N625 C626 1.351 . S
C626 C620 1.428 . S
C626 N625 1.351 . S
C626 C627 1.434 . S
C627 C618 1.429 . S
C627 N624 1.350 . S
C627 C626 1.434 . S
C628 C629 1.369 . S
C628 C630 1.419 . S
C628 H632 0.930 . S
C629 C628 1.369 . S
C629 C638 1.429 . S
C630 C628 1.419 . S
C630 C631 1.363 . S
C630 H633 0.929 . S
C631 C630 1.363 . S
C631 C637 1.428 . S
H632 C628 0.930 . S
H633 C630 0.929 . S
S634 N635 1.613 . S
S634 N636 1.610 . S
N635 S634 1.613 . S
N635 C638 1.350 . S
N636 S634 1.610 . S
N636 C637 1.351 . S
C637 C631 1.428 . S
C637 N636 1.351 . S
C637 C638 1.434 . S
C638 C629 1.429 . S
C638 N635 1.350 . S
C638 C637 1.434 . S
C639 C640 1.369 . S
C639 C641 1.419 . S
C639 H643 0.930 . S
C640 C639 1.369 . S
C640 C649 1.429 1_554 S
C641 C639 1.419 . S
C641 C642 1.363 1_554 S
C641 H644 0.929 . S
C642 C641 1.363 1_556 S
C642 C648 1.428 . S
H643 C639 0.930 . S
H644 C641 0.929 . S
S645 N646 1.613 . S
S645 N647 1.610 . S
N646 S645 1.613 . S
N646 C649 1.350 . S
N647 S645 1.610 . S
N647 C648 1.351 . S
C648 C642 1.428 . S
C648 N647 1.351 . S
C648 C649 1.434 . S
C649 C640 1.429 1_556 S
C649 N646 1.350 . S
C649 C648 1.434 . S
C650 C651 1.369 . S
C650 C652 1.419 . S
C650 H654 0.930 . S
C651 C650 1.369 . S
C651 C660 1.429 . S
C652 C650 1.419 . S
C652 C653 1.363 . S
C652 H655 0.929 . S
C653 C652 1.363 . S
C653 C659 1.428 . S
H654 C650 0.930 . S
H655 C652 0.929 . S
S656 N657 1.613 . S
S656 N658 1.610 . S
N657 S656 1.613 . S
N657 C660 1.350 . S
N658 S656 1.610 . S
N658 C659 1.351 . S
C659 C653 1.428 . S
C659 N658 1.351 . S
C659 C660 1.434 . S
C660 C651 1.429 . S
C660 N657 1.350 . S
C660 C659 1.434 . S
C661 C662 1.369 . S
C661 C663 1.419 . S
C661 H665 0.930 . S
C662 C661 1.369 . S
C662 C671 1.429 . S
C663 C661 1.419 . S
C663 C664 1.363 . S
C663 H666 0.929 . S
C664 C663 1.363 . S
C664 C670 1.428 . S
H665 C661 0.930 . S
H666 C663 0.929 . S
S667 N668 1.613 . S
S667 N669 1.610 . S
N668 S667 1.613 . S
N668 C671 1.350 . S
N669 S667 1.610 . S
N669 C670 1.351 . S
C670 C664 1.428 . S
C670 N669 1.351 . S
C670 C671 1.434 . S
C671 C662 1.429 . S
C671 N668 1.350 . S
C671 C670 1.434 . S
C672 C673 1.369 . S
C672 C674 1.419 . S
C672 H676 0.930 . S
C673 C672 1.369 . S
C673 C682 1.429 . S
C674 C672 1.419 . S
C674 C675 1.363 . S
C674 H677 0.929 . S
C675 C674 1.363 . S
C675 C681 1.428 . S
H676 C672 0.930 . S
H677 C674 0.929 . S
S678 N679 1.613 . S
S678 N680 1.610 . S
N679 S678 1.613 . S
N679 C682 1.350 . S
N680 S678 1.610 . S
N680 C681 1.351 . S
C681 C675 1.428 . S
C681 N680 1.351 . S
C681 C682 1.434 . S
C682 C673 1.429 . S
C682 N679 1.350 . S
C682 C681 1.434 . S
C683 C684 1.369 . S
C683 C685 1.419 . S
C683 H687 0.930 . S
C684 C683 1.369 . S
C684 C693 1.429 . S
C685 C683 1.419 . S
C685 C686 1.363 . S
C685 H688 0.929 . S
C686 C685 1.363 . S
C686 C692 1.428 . S
H687 C683 0.930 . S
H688 C685 0.929 . S
S689 N690 1.613 . S
S689 N691 1.610 . S
N690 S689 1.613 . S
N690 C693 1.350 . S
N691 S689 1.610 . S
N691 C692 1.351 . S
C692 C686 1.428 . S
C692 N691 1.351 . S
C692 C693 1.434 . S
C693 C684 1.429 . S
C693 N690 1.350 . S
C693 C692 1.434 . S
C694 C695 1.369 . S
C694 C696 1.419 . S
C694 H698 0.930 . S
C695 C694 1.369 . S
C695 C704 1.429 . S
C696 C694 1.419 . S
C696 C697 1.363 . S
C696 H699 0.929 . S
C697 C696 1.363 . S
C697 C703 1.428 . S
H698 C694 0.930 . S
H699 C696 0.929 . S
S700 N701 1.613 . S
S700 N702 1.610 . S
N701 S700 1.613 . S
N701 C704 1.350 . S
N702 S700 1.610 . S
N702 C703 1.351 . S
C703 C697 1.428 . S
C703 N702 1.351 . S
C703 C704 1.434 . S
C704 C695 1.429 . S
C704 N701 1.350 . S
C704 C703 1.434 . S
C705 C706 1.369 . S
C705 C707 1.419 . S
C705 H709 0.930 . S
C706 C705 1.369 . S
C706 C715 1.429 . S
C707 C705 1.419 . S
C707 C708 1.363 . S
C707 H710 0.929 . S
C708 C707 1.363 . S
C708 C714 1.428 . S
H709 C705 0.930 . S
H710 C707 0.929 . S
S711 N712 1.613 . S
S711 N713 1.610 . S
N712 S711 1.613 . S
N712 C715 1.350 . S
N713 S711 1.610 . S
N713 C714 1.351 . S
C714 C708 1.428 . S
C714 N713 1.351 . S
C714 C715 1.434 . S
C715 C706 1.429 . S
C715 N712 1.350 . S
C715 C714 1.434 . S
C716 C717 1.369 . S
C716 C718 1.419 . S
C716 H720 0.930 . S
C717 C716 1.369 . S
C717 C726 1.429 . S
C718 C716 1.419 . S
C718 C719 1.363 . S
C718 H721 0.929 . S
C719 C718 1.363 . S
C719 C725 1.428 . S
H720 C716 0.930 . S
H721 C718 0.929 . S
S722 N723 1.613 . S
S722 N724 1.610 . S
N723 S722 1.613 . S
N723 C726 1.350 . S
N724 S722 1.610 . S
N724 C725 1.351 . S
C725 C719 1.428 . S
C725 N724 1.351 . S
C725 C726 1.434 . S
C726 C717 1.429 . S
C726 N723 1.350 . S
C726 C725 1.434 . S
C727 C728 1.369 . S
C727 C729 1.419 . S
C727 H731 0.930 . S
C728 C727 1.369 . S
C728 C737 1.429 . S
C729 C727 1.419 . S
C729 C730 1.363 . S
C729 H732 0.929 . S
C730 C729 1.363 . S
C730 C736 1.428 . S
H731 C727 0.930 . S
H732 C729 0.929 . S
S733 N734 1.613 . S
S733 N735 1.610 . S
N734 S733 1.613 . S
N734 C737 1.350 . S
N735 S733 1.610 . S
N735 C736 1.351 . S
C736 C730 1.428 . S
C736 N735 1.351 . S
C736 C737 1.434 . S
C737 C728 1.429 . S
C737 N734 1.350 . S
C737 C736 1.434 . S
C409 C111 1.852 . S
C411 C9 1.851 . S
C420 C43 1.852 . S
C422 C145 1.851 . S
C431 C77 1.851 . S
C433 C179 1.851 . S
C442 C213 1.852 . S
C444 C315 1.851 . S
C453 C349 1.853 . S
C455 C247 1.851 . S
C464 C383 1.852 . S
C466 C281 1.851 . S
C475 C271 1.414 . S
C477 C33 1.418 . S
C486 C67 1.414 . S
C488 C305 1.412 . S
C497 C339 1.412 . S
C499 C101 1.412 . S
C508 C135 1.411 . S
C510 C373 1.412 . S
C519 C407 1.420 . S
C521 C169 1.419 . S
C530 C203 1.411 . S
C532 C237 1.416 . S
C541 C5 0.644 . S
C543 C107 0.629 . S
C552 C39 0.625 . S
C554 C141 0.643 . S
C563 C73 0.633 . S
C565 C175 0.638 . S
C574 C209 0.631 . S
C576 C311 0.639 . S
C585 C243 0.622 . S
C587 C345 0.638 . S
C596 C277 0.619 . S
C598 C379 0.641 . S
C607 C342 1.783 . S
C609 C2 1.761 . S
C618 C36 1.777 . S
C620 C376 1.777 . S
C629 C206 1.760 . S
C631 C70 1.782 . S
C640 C104 1.766 . S
C642 C240 1.780 . S
C651 C274 1.777 . S
C653 C138 1.777 . S
C662 C172 1.780 . S
C664 C308 1.759 . S
C673 C20 1.724 . S
C675 C292 1.724 . S
C684 C54 1.725 . S
C686 C326 1.725 . S
C695 C360 1.727 . S
C697 C88 1.726 . S
C706 C394 1.725 . S
C708 C122 1.725 . S
C717 C156 1.724 . S
C719 C224 1.725 . S
C728 C190 1.726 . S
C730 C258 1.726 . S
