# Generated by pormake.
# Topology uoo, (4)-cn, num edge types: 1
# Building blocks:
#     Node 0, Type 0, BuildingBlock: CEKHIL_clean_sbu_0, # of connection points: 4
#     Node 1, Type 0, BuildingBlock: CEKHIL_clean_sbu_0, # of connection points: 4
#     Node 2, Type 0, BuildingBlock: CEKHIL_clean_sbu_0, # of connection points: 4
#     Node 3, Type 0, BuildingBlock: CEKHIL_clean_sbu_0, # of connection points: 4
#     Node 4, Type 0, BuildingBlock: CEKHIL_clean_sbu_0, # of connection points: 4
#     Node 5, Type 0, BuildingBlock: CEKHIL_clean_sbu_0, # of connection points: 4
#     Edge 6, Type (0, 0), BuildingBlock: TEMPAE_clean_linker_10, # of connection points: 2
#     Edge 7, Type (0, 0), BuildingBlock: TEMPAE_clean_linker_10, # of connection points: 2
#     Edge 8, Type (0, 0), BuildingBlock: TEMPAE_clean_linker_10, # of connection points: 2
#     Edge 9, Type (0, 0), BuildingBlock: TEMPAE_clean_linker_10, # of connection points: 2
#     Edge 10, Type (0, 0), BuildingBlock: TEMPAE_clean_linker_10, # of connection points: 2
#     Edge 11, Type (0, 0), BuildingBlock: TEMPAE_clean_linker_10, # of connection points: 2
#     Edge 12, Type (0, 0), BuildingBlock: TEMPAE_clean_linker_10, # of connection points: 2
#     Edge 13, Type (0, 0), BuildingBlock: TEMPAE_clean_linker_10, # of connection points: 2
#     Edge 14, Type (0, 0), BuildingBlock: TEMPAE_clean_linker_10, # of connection points: 2
#     Edge 15, Type (0, 0), BuildingBlock: TEMPAE_clean_linker_10, # of connection points: 2
#     Edge 16, Type (0, 0), BuildingBlock: TEMPAE_clean_linker_10, # of connection points: 2
#     Edge 17, Type (0, 0), BuildingBlock: TEMPAE_clean_linker_10, # of connection points: 2
# Relax obj value: 0.250
# Max RMSD: 0.172
# Mean RMSD: 0.172
data_MOF--net-uoo--node1-CEKHIL_clean_sbu_0--edge1-TEMPAE_clean_linker_10
_symmetry_space_group_name_H-M    P1
_symmetry_Int_Tables_number       1
_symmetry_cell_setting            triclinic
loop_
_symmetry_equiv_pos_as_xyz
'x, y, z'
_cell_length_a     24.585106
_cell_length_b     24.575448
_cell_length_c     39.196427
_cell_angle_alpha  90.016836
_cell_angle_beta   90.043294
_cell_angle_gamma 119.99846
loop_
_atom_site_label
_atom_site_type_symbol
_atom_site_fract_x
_atom_site_fract_y
_atom_site_fract_z
_atom_type_partial_charge
Co0 Co 0.14103 0.30913 0.99042 0.0
O1 O 0.06001 0.30096 0.98081 0.0
O2 O 0.14203 0.38401 0.00399 0.0
C3 C 0.15203 0.27096 0.94066 0.0
O4 O 0.23149 0.34041 0.00266 0.0
Co5 Co 0.17173 0.20256 -0.00469 0.0
O6 O 0.2609 0.27017 0.99012 0.0
C7 C 0.10429 0.22275 0.05169 0.0
C8 C 0.08451 0.35755 -0.00667 0.0
C9 C 0.27398 0.32561 -0.00192 0.0
O10 O 0.11186 0.27264 0.03689 0.0
O11 O 0.1225 0.18657 0.03891 0.0
O12 O 0.16464 0.32896 0.94291 0.0
O13 O 0.1296 0.23684 0.96776 0.0
Co14 Co 0.83244 0.14165 0.32402 0.0
O15 O 0.75739 0.06147 0.31666 0.0
O16 O 0.76109 0.14758 0.33731 0.0
C17 C 0.87846 0.14583 0.27433 0.0
O18 O 0.89504 0.23211 0.33366 0.0
Co19 Co 0.96735 0.16553 0.32866 0.0
O20 O 0.9942 0.25632 0.32384 0.0
C21 C 0.88037 0.10578 0.38637 0.0
C22 C 0.72781 0.08918 0.32835 0.0
C23 C 0.95336 0.27227 0.33024 0.0
O24 O 0.84027 0.11664 0.37145 0.0
O25 O 0.93251 0.11788 0.37263 0.0
O26 O 0.8352 0.16141 0.27596 0.0
O27 O 0.88993 0.12437 0.30188 0.0
Co28 Co 0.6872 0.83192 0.65896 0.0
O29 O 0.70591 0.76438 0.65704 0.0
O30 O 0.61456 0.7555 0.67215 0.0
C31 C 0.73073 0.87644 0.60907 0.0
O32 O 0.64643 0.88518 0.66222 0.0
Co33 Co 0.78562 0.97311 0.66191 0.0
O34 O 0.7137 0.9871 0.65283 0.0
C35 C 0.76476 0.89316 0.72191 0.0
C36 C 0.648 0.72899 0.6669 0.0
C37 C 0.65811 0.94146 0.65718 0.0
O38 O 0.71514 0.84926 0.70765 0.0
O39 O 0.80303 0.94442 0.70676 0.0
O40 O 0.67508 0.82681 0.60987 0.0
O41 O 0.7602 0.89444 0.63787 0.0
Co42 Co 0.84384 0.69055 0.99098 0.0
O43 O 0.92236 0.69197 0.9837 0.0
O44 O 0.83434 0.61132 0.00346 0.0
C45 C 0.8421 0.73485 0.94134 0.0
O46 O 0.75419 0.6662 0.00051 0.0
Co47 Co 0.82524 0.80546 -0.00431 0.0
O48 O 0.73362 0.74405 0.99158 0.0
C49 C 0.88363 0.77495 0.05299 0.0
C50 C 0.89237 0.63401 -0.00559 0.0
C51 C 0.71575 0.68672 -0.00216 0.0
O52 O 0.86929 0.72242 0.03866 0.0
O53 O 0.8746 0.81679 0.03883 0.0
O54 O 0.82476 0.67547 0.94267 0.0
O55 O 0.86386 0.7664 0.9693 0.0
Co56 Co 0.15563 0.84608 0.32581 0.0
O57 O 0.23103 0.92694 0.32096 0.0
O58 O 0.22623 0.83928 0.33955 0.0
C59 C 0.11268 0.84568 0.27536 0.0
O60 O 0.09269 0.75489 0.33295 0.0
Co61 Co 0.01979 0.82112 0.32806 0.0
O62 O 0.99357 0.73054 0.3226 0.0
C63 C 0.10419 0.87987 0.387 0.0
C64 C 0.26018 0.89826 0.33191 0.0
C65 C 0.03449 0.71466 0.32901 0.0
O66 O 0.14408 0.86705 0.37357 0.0
O67 O 0.05402 0.87024 0.37172 0.0
O68 O 0.15655 0.83092 0.2773 0.0
O69 O 0.09921 0.86436 0.30333 0.0
Co70 Co 0.30791 0.15907 0.65669 0.0
O71 O 0.31132 0.2391 0.65275 0.0
O72 O 0.38883 0.22452 0.67052 0.0
C73 C 0.2629 0.11957 0.6061 0.0
O74 O 0.3267 0.08891 0.66297 0.0
Co75 Co 0.18724 0.02904 0.65831 0.0
O76 O 0.24442 0.99463 0.65027 0.0
C77 C 0.22284 0.11282 0.71831 0.0
C78 C 0.36901 0.26319 0.66351 0.0
C79 C 0.30233 0.03003 0.65722 0.0
O80 O 0.27641 0.14941 0.70461 0.0
O81 O 0.17873 0.06502 0.70295 0.0
O82 O 0.32282 0.15931 0.60804 0.0
O83 O 0.23137 0.10889 0.63412 0.0
C84 C 0.26244 0.16848 0.77384 0.0
C85 C 0.21149 0.12857 0.75299 0.0
C86 C 0.25294 0.18841 0.80563 0.0
C87 C 0.19102 0.16872 0.81657 0.0
C88 C 0.13927 0.12697 0.79615 0.0
C89 C 0.15013 0.10693 0.76466 0.0
C90 C 0.30925 0.23193 0.82705 0.0
C91 C 0.07256 0.10534 0.80696 0.0
C92 C 0.16282 0.18819 0.90975 0.0
C93 C 0.16297 0.2453 0.9091 0.0
C94 C 0.17217 0.16269 0.87982 0.0
C95 C 0.18073 0.19463 0.84852 0.0
C96 C 0.18059 0.25217 0.84772 0.0
C97 C 0.17226 0.27713 0.87813 0.0
C98 C 0.17337 0.10192 0.88171 0.0
C99 C 0.18889 0.28718 0.81471 0.0
H100 H 0.31 0.18482 0.76515 0.0
H101 H 0.11058 0.0762 0.74863 0.0
H102 H 0.31248 0.27848 0.82907 0.0
H103 H 0.30406 0.21313 0.85331 0.0
H104 H 0.35392 0.23873 0.81612 0.0
H105 H 0.03755 0.07208 0.78839 0.0
H106 H 0.06306 0.08205 0.83223 0.0
H107 H 0.06578 0.14652 0.80967 0.0
H108 H 0.15591 0.16361 0.93372 0.0
H109 H 0.17202 0.32111 0.87755 0.0
H110 H 0.21887 0.1092 0.87191 0.0
H111 H 0.1359 0.06586 0.8653 0.0
H112 H 0.16671 0.08338 0.90815 0.0
H113 H 0.23521 0.30059 0.80332 0.0
H114 H 0.18582 0.33041 0.81835 0.0
H115 H 0.15238 0.25631 0.79609 0.0
C116 C 0.89385 0.10332 0.22036 0.0
C117 C 0.9137 0.15362 0.24303 0.0
C118 C 0.92584 0.11063 0.18959 0.0
C119 C 0.97911 0.16948 0.18184 0.0
C120 C 0.0002 0.21987 0.20536 0.0
C121 C 0.96671 0.21141 0.23567 0.0
C122 C 0.90139 0.05621 0.16491 0.0
C123 C 0.05723 0.28306 0.19815 0.0
C124 C 0.08891 0.17954 0.11086 0.0
C125 C 0.07114 0.20611 0.0846 0.0
C126 C 0.05933 0.16717 0.14284 0.0
C127 C 0.00983 0.18002 0.14805 0.0
C128 C 0.99039 0.20476 0.12113 0.0
C129 C 0.02196 0.21839 0.08989 0.0
C130 C 0.08204 0.14201 0.17125 0.0
C131 C 0.93657 0.21734 0.12538 0.0
H132 H 0.8526 0.0587 0.22645 0.0
H133 H 0.9816 0.25006 0.25349 0.0
H134 H 0.88601 0.0687 0.14099 0.0
H135 H 0.93919 0.04607 0.15804 0.0
H136 H 0.86115 0.01283 0.17551 0.0
H137 H 0.07042 0.31547 0.22031 0.0
H138 H 0.09782 0.2772 0.19136 0.0
H139 H 0.0478 0.30524 0.17601 0.0
H140 H 0.12719 0.17037 0.10672 0.0
H141 H 0.00776 0.23824 0.06937 0.0
H142 H 0.04282 0.09702 0.18089 0.0
H143 H 0.09894 0.17561 0.19291 0.0
H144 H 0.12073 0.1341 0.16293 0.0
H145 H 0.89407 0.17427 0.13436 0.0
H146 H 0.92495 0.23302 0.10125 0.0
H147 H 0.94863 0.25419 0.145 0.0
C148 C 0.80802 0.06532 0.4364 0.0
C149 C 0.86412 0.07683 0.42071 0.0
C150 C 0.78982 0.03515 0.46803 0.0
C151 C 0.82849 0.01571 0.48444 0.0
C152 C 0.88618 0.02889 0.4694 0.0
C153 C 0.90318 0.05908 0.4376 0.0
C154 C 0.72864 0.02323 0.48366 0.0
C155 C 0.92967 0.00984 0.48585 0.0
C156 C 0.79944 0.97661 0.57855 0.0
C157 C 0.75762 0.91174 0.57741 0.0
C158 C 0.82357 0.01115 0.54843 0.0
C159 C 0.80675 0.97956 0.51667 0.0
C160 C 0.76657 0.91362 0.51554 0.0
C161 C 0.74148 0.88057 0.54597 0.0
C162 C 0.86644 0.0814 0.55049 0.0
C163 C 0.75003 0.87814 0.48219 0.0
H164 H 0.77758 0.07921 0.42379 0.0
H165 H 0.94671 0.06783 0.42582 0.0
H166 H 0.69561 0.97191 0.48545 0.0
H167 H 0.73684 0.04247 0.50997 0.0
H168 H 0.70584 0.04462 0.46857 0.0
H169 H 0.9793 0.047 0.48195 0.0
H170 H 0.92154 0.00091 0.51361 0.0
H171 H 0.92303 0.96635 0.4734 0.0
H172 H 0.81201 0.00065 0.60293 0.0
H173 H 0.70988 0.83018 0.54523 0.0
H174 H 0.84566 0.10549 0.53609 0.0
H175 H 0.91226 0.0946 0.53847 0.0
H176 H 0.87491 0.09885 0.57721 0.0
H177 H 0.72354 0.89359 0.46574 0.0
H178 H 0.72121 0.82651 0.48589 0.0
H179 H 0.79362 0.88869 0.46835 0.0
C180 C 0.82673 0.73465 0.87856 0.0
C181 C 0.83463 0.76405 0.91022 0.0
C182 C 0.81928 0.7617 0.84874 0.0
C183 C 0.81834 0.81876 0.85086 0.0
C184 C 0.82657 0.84881 0.88278 0.0
C185 C 0.8353 0.82135 0.91209 0.0
C186 C 0.81163 0.72881 0.81503 0.0
C187 C 0.82438 0.9089 0.88609 0.0
C188 C 0.84131 0.90652 0.76767 0.0
C189 C 0.77899 0.88162 0.75682 0.0
C190 C 0.85508 0.88803 0.79887 0.0
C191 C 0.80521 0.84477 0.81982 0.0
C192 C 0.74224 0.82258 0.80987 0.0
C193 C 0.7299 0.84076 0.7783 0.0
C194 C 0.92282 0.9121 0.80854 0.0
C195 C 0.6878 0.77754 0.8319 0.0
H196 H 0.82677 0.69062 0.87705 0.0
H197 H 0.84127 0.84412 0.9366 0.0
H198 H 0.76421 0.71325 0.80445 0.0
H199 H 0.84638 0.76173 0.79633 0.0
H200 H 0.81769 0.68711 0.81747 0.0
H201 H 0.83387 0.9275 0.91258 0.0
H202 H 0.85927 0.94536 0.86881 0.0
H203 H 0.77737 0.90043 0.87828 0.0
H204 H 0.87932 0.93787 0.75099 0.0
H205 H 0.68163 0.82195 0.7701 0.0
H206 H 0.93218 0.87237 0.80922 0.0
H207 H 0.93244 0.93306 0.83444 0.0
H208 H 0.95603 0.94788 0.7903 0.0
H209 H 0.68582 0.73147 0.83277 0.0
H210 H 0.64207 0.76998 0.82217 0.0
H211 H 0.69425 0.79538 0.85846 0.0
C212 C 0.01896 0.83375 0.24417 0.0
C213 C 0.07844 0.83912 0.24342 0.0
C214 C 0.98508 0.82554 0.21398 0.0
C215 C 0.01213 0.82419 0.18237 0.0
C216 C 0.07298 0.83146 0.18144 0.0
C217 C 0.10514 0.83806 0.21207 0.0
C218 C 0.91976 0.8166 0.21597 0.0
C219 C 0.10379 0.83145 0.14811 0.0
C220 C 0.90919 0.73807 0.10672 0.0
C221 C 0.91307 0.78766 0.08714 0.0
C222 C 0.93968 0.74928 0.13827 0.0
C223 C 0.97563 0.81168 0.15034 0.0
C224 C 0.9787 0.86192 0.13114 0.0
C225 C 0.94698 0.84924 0.0998 0.0
C226 C 0.93442 0.69438 0.15837 0.0
C227 C 0.01708 0.92916 0.14315 0.0
H228 H -0.00179 0.83442 0.26844 0.0
H229 H 0.15143 0.84287 0.21147 0.0
H230 H 0.9163 0.8517 0.19974 0.0
H231 H 0.88521 0.76942 0.20606 0.0
H232 H 0.90638 0.82096 0.24247 0.0
H233 H 0.15292 0.84186 0.15167 0.0
H234 H 0.07662 0.7849 0.1356 0.0
H235 H 0.10393 0.86685 0.13049 0.0
H236 H 0.88253 0.69027 0.09729 0.0
H237 H 0.95031 0.8878 0.08476 0.0
H238 H 0.91832 0.69503 0.18472 0.0
H239 H 0.98121 0.69817 0.16032 0.0
H240 H 0.90131 0.64847 0.14645 0.0
H241 H 0.00281 0.93406 0.16929 0.0
H242 H 0.01209 0.96248 0.12607 0.0
H243 H 0.06743 0.94279 0.14431 0.0
C244 C 0.17745 0.02678 0.57591 0.0
C245 C 0.2338 0.08436 0.57456 0.0
C246 C 0.15129 0.99105 0.54629 0.0
C247 C 0.1815 0.0144 0.51458 0.0
C248 C 0.23719 0.07364 0.51294 0.0
C249 C 0.26314 0.10758 0.54307 0.0
C250 C 0.0926 0.92749 0.54908 0.0
C251 C 0.26991 0.1007 0.47944 0.0
C252 C 0.16189 0.90397 0.44229 0.0
C253 C 0.11888 0.90946 0.4211 0.0
C254 C 0.18087 0.93616 0.4734 0.0
C255 C 0.15706 0.97562 0.48328 0.0
C256 C 0.11251 0.98027 0.46243 0.0
C257 C 0.09336 0.94648 0.4317 0.0
C258 C 0.22776 0.92928 0.49523 0.0
C259 C 0.08665 0.02242 0.47202 0.0
H260 H 0.15471 0.00867 0.60026 0.0
H261 H 0.3064 0.15243 0.54198 0.0
H262 H 0.05563 0.92494 0.53182 0.0
H263 H 0.10294 0.89036 0.54092 0.0
H264 H 0.07379 0.91704 0.5755 0.0
H265 H 0.31016 0.14925 0.48226 0.0
H266 H 0.28753 0.07068 0.46864 0.0
H267 H 0.2363 0.1013 0.46073 0.0
H268 H 0.18136 0.87495 0.43437 0.0
H269 H 0.06026 0.95104 0.41537 0.0
H270 H 0.20985 0.91631 0.52169 0.0
H271 H 0.27237 0.97483 0.49654 0.0
H272 H 0.2381 0.89318 0.48512 0.0
H273 H 0.06029 0.00623 0.49634 0.0
H274 H 0.05488 0.02316 0.45209 0.0
H275 H 0.12564 0.07116 0.47616 0.0
C276 C 0.35354 0.42798 0.02268 0.0
C277 C 0.33974 0.37636 0.00169 0.0
C278 C 0.41389 0.4806 0.0237 0.0
C279 C 0.46143 0.48195 0.00289 0.0
C280 C 0.44826 0.42947 0.98215 0.0
C281 C 0.38746 0.37687 0.982 0.0
C282 C 0.42654 0.535 0.04674 0.0
C283 C 0.49799 0.42954 0.95954 0.0
C284 C 0.60323 0.63983 0.98061 0.0
C285 C 0.64883 0.64015 0.0021 0.0
C286 C 0.54147 0.58873 0.9808 0.0
C287 C 0.52537 0.53784 0.00341 0.0
C288 C 0.57067 0.53978 0.02634 0.0
C289 C 0.63196 0.59071 0.02522 0.0
C290 C 0.4942 0.58792 0.95592 0.0
C291 C 0.55498 0.48718 0.05135 0.0
H292 H 0.31674 0.42754 0.03812 0.0
H293 H 0.37667 0.3373 0.96551 0.0
H294 H 0.46564 0.54502 0.06449 0.0
H295 H 0.44131 0.57796 0.03129 0.0
H296 H 0.38468 0.52573 0.06198 0.0
H297 H 0.48004 0.38522 0.94479 0.0
H298 H 0.51573 0.46944 0.94138 0.0
H299 H 0.53849 0.43622 0.9752 0.0
H300 H 0.6166 0.67776 0.96249 0.0
H301 H 0.66734 0.59123 0.04198 0.0
H302 H 0.45182 0.58103 0.9697 0.0
H303 H 0.4789 0.54782 0.93805 0.0
H304 H 0.51358 0.632 0.94084 0.0
H305 H 0.51354 0.47802 0.06688 0.0
H306 H 0.5947 0.49783 0.06882 0.0
H307 H 0.54256 0.44329 0.03728 0.0
C308 C 0.93563 0.35485 0.35476 0.0
C309 C 0.97107 0.33879 0.3333 0.0
C310 C 0.94436 0.41557 0.3549 0.0
C311 C 0.98925 0.46124 0.33274 0.0
C312 C 0.02639 0.44586 0.31156 0.0
C313 C 0.01713 0.38462 0.31226 0.0
C314 C 0.90481 0.43051 0.37836 0.0
C315 C 0.07462 0.49361 0.28757 0.0
C316 C 0.97107 0.6021 0.31102 0.0
C317 C 0.01685 0.64816 0.33213 0.0
C318 C 0.96163 0.54076 0.31077 0.0
C319 C -0.00178 0.52553 0.33253 0.0
C320 C 0.04274 0.57145 0.35477 0.0
C321 C 0.05172 0.63224 0.35416 0.0
C322 C 0.9138 0.49273 0.28667 0.0
C323 C 0.08162 0.55667 0.37888 0.0
H324 H 0.90009 0.31937 0.37116 0.0
H325 H 0.04385 0.37189 0.29534 0.0
H326 H 0.93551 0.47056 0.39522 0.0
H327 H 0.87602 0.44487 0.36314 0.0
H328 H 0.87291 0.38985 0.39456 0.0
H329 H 0.09959 0.47417 0.27279 0.0
H330 H 0.05146 0.5103 0.26943 0.0
H331 H 0.10974 0.53514 0.30214 0.0
H332 H 0.94468 0.61467 0.29373 0.0
H333 H 0.08693 0.66786 0.37068 0.0
H334 H 0.87842 0.45138 0.30118 0.0
H335 H 0.93728 0.47583 0.26889 0.0
H336 H 0.88911 0.51201 0.27149 0.0
H337 H 0.05045 0.51688 0.39573 0.0
H338 H 0.11322 0.5975 0.39511 0.0
H339 H 0.11067 0.542 0.36417 0.0
C340 C 0.34786 0.96815 0.63242 0.0
C341 C 0.34505 0.00466 0.65899 0.0
C342 C 0.39729 0.95503 0.63087 0.0
C343 C 0.44371 0.97817 0.65684 0.0
C344 C 0.43887 0.01227 0.68459 0.0
C345 C 0.3899 0.02561 0.68513 0.0
C346 C 0.40143 0.91896 0.60077 0.0
C347 C 0.48655 0.03648 0.71318 0.0
C348 C 0.54661 0.90639 0.67103 0.0
C349 C 0.60392 0.95194 0.6568 0.0
C350 C 0.49374 0.9137 0.67052 0.0
C351 C 0.49799 0.96764 0.65513 0.0
C352 C 0.55535 0.01353 0.6403 0.0
C353 C 0.60794 0.00535 0.64153 0.0
C354 C 0.43375 0.86437 0.68715 0.0
C355 C 0.56127 0.07148 0.62345 0.0
H356 H 0.31363 0.95302 0.61196 0.0
H357 H 0.3875 0.05401 0.70562 0.0
H358 H 0.44456 0.94953 0.58594 0.0
H359 H 0.40507 0.87805 0.60966 0.0
H360 H 0.36017 0.90194 0.58355 0.0
H361 H 0.47389 0.05914 0.7338 0.0
H362 H 0.491 -0.00257 0.72438 0.0
H363 H 0.53333 0.07134 0.70302 0.0
H364 H 0.5431 0.86504 0.68305 0.0
H365 H 0.65187 0.04033 0.6302 0.0
H366 H 0.39424 0.84666 0.66874 0.0
H367 H 0.42176 0.88545 0.70885 0.0
H368 H 0.43754 0.82389 0.69681 0.0
H369 H 0.52417 0.0579 0.60379 0.0
H370 H 0.60784 0.10061 0.61124 0.0
H371 H 0.55437 0.10062 0.64267 0.0
C372 C 0.39342 0.37402 0.65545 0.0
C373 C 0.41173 0.33146 0.66662 0.0
C374 C 0.4355 0.43893 0.65668 0.0
C375 C 0.49697 0.4614 0.66957 0.0
C376 C 0.51528 0.41867 0.68143 0.0
C377 C 0.47245 0.35415 0.67974 0.0
C378 C 0.41452 0.48342 0.64379 0.0
C379 C 0.58019 0.44107 0.6957 0.0
C380 C 0.6212 0.62535 0.64292 0.0
C381 C 0.61876 0.66084 0.67011 0.0
C382 C 0.58239 0.55984 0.64262 0.0
C383 C 0.54206 0.52977 0.67067 0.0
C384 C 0.54274 0.56545 0.69917 0.0
C385 C 0.58037 0.63091 0.69824 0.0
C386 C 0.58191 0.52329 0.61154 0.0
C387 C 0.50187 0.5348 0.72998 0.0
H388 H 0.34658 0.35662 0.64526 0.0
H389 H 0.48684 0.32144 0.68853 0.0
H390 H 0.4183 0.51596 0.66447 0.0
H391 H 0.44567 0.5125 0.62275 0.0
H392 H 0.3653 0.45831 0.63436 0.0
H393 H 0.58645 0.40165 0.70465 0.0
H394 H 0.61608 0.46766 0.67594 0.0
H395 H 0.58932 0.47359 0.71738 0.0
H396 H 0.6503 0.64912 0.62097 0.0
H397 H 0.57873 0.65896 0.71916 0.0
H398 H 0.53516 0.50195 0.59905 0.0
H399 H 0.58987 0.48431 0.61903 0.0
H400 H 0.61822 0.55334 0.59262 0.0
H401 H 0.45174 0.51476 0.7229 0.0
H402 H 0.5127 0.56856 0.75128 0.0
H403 H 0.50799 0.49549 0.73916 0.0
C404 C 0.88996 0.53595 0.01227 0.0
C405 C 0.92103 0.59384 -0.00476 0.0
C406 C 0.91396 0.49499 0.01208 0.0
C407 C 0.97011 0.51217 -0.00583 0.0
C408 C 0.0019 0.57062 0.97697 0.0
C409 C 0.97709 0.6111 0.97789 0.0
C410 C 0.87942 0.43353 0.03121 0.0
C411 C 0.06187 0.59018 0.95751 0.0
C412 C 0.06715 0.43879 0.01992 0.0
C413 C 0.05038 0.39228 -0.00505 0.0
C414 C 0.04041 0.47734 0.02029 0.0
C415 C -0.00318 0.46991 -0.00538 0.0
C416 C 0.9788 0.42223 0.96962 0.0
C417 C 0.00542 0.38329 0.97032 0.0
C418 C 0.05953 0.52658 0.04787 0.0
C419 C 0.93286 0.4136 0.94168 0.0
H420 H 0.84665 0.52249 0.02585 0.0
H421 H 0.00092 0.65564 0.96453 0.0
H422 H 0.86631 0.39362 0.01351 0.0
H423 H 0.91051 0.4313 0.05102 0.0
H424 H 0.83611 0.42718 0.04375 0.0
H425 H 0.07972 0.63627 0.94464 0.0
H426 H 0.09868 0.59335 0.97513 0.0
H427 H 0.05395 0.55423 0.93799 0.0
H428 H 0.10171 0.44535 0.03912 0.0
H429 H 0.99303 0.34763 0.95085 0.0
H430 H 0.01738 0.52045 0.06161 0.0
H431 H 0.08277 0.5741 0.03627 0.0
H432 H 0.0922 0.52449 0.06672 0.0
H433 H 0.88777 0.4048 0.95291 0.0
H434 H 0.92339 0.37398 0.92439 0.0
H435 H 0.95162 0.45726 0.92634 0.0
C436 C 0.6213 0.01289 0.30658 0.0
C437 C 0.65926 0.05724 0.33097 0.0
C438 C 0.55602 0.98786 0.30693 0.0
C439 C 0.52867 0.00664 0.33285 0.0
C440 C 0.56687 0.04973 0.35824 0.0
C441 C 0.63194 0.07518 0.35671 0.0
C442 C 0.51652 0.94257 0.27921 0.0
C443 C 0.5391 0.06934 0.38682 0.0
C444 C 0.36728 0.98645 0.31768 0.0
C445 C 0.32901 0.92922 0.33415 0.0
C446 C 0.43271 0.0125 0.3171 0.0
C447 C 0.45993 0.98065 0.3337 0.0
C448 C 0.42154 0.92384 0.35121 0.0
C449 C 0.35647 0.8987 0.35112 0.0
C450 C 0.47256 0.07323 0.29814 0.0
C451 C 0.44909 0.88917 0.36966 0.0
H452 H 0.64283 -0.00028 0.2865 0.0
H453 H 0.66163 0.10933 0.37568 0.0
H454 H 0.48097 0.89729 0.29061 0.0
H455 H 0.49069 0.96178 0.2651 0.0
H456 H 0.5452 0.93327 0.26075 0.0
H457 H 0.57532 0.10169 0.40519 0.0
H458 H 0.51459 0.09312 0.37617 0.0
H459 H 0.50365 0.02733 0.40089 0.0
H460 H 0.34605 0.00991 0.30443 0.0
H461 H 0.32699 0.85456 0.36409 0.0
H462 H 0.49877 0.06556 0.27743 0.0
H463 H 0.50781 0.10901 0.31562 0.0
H464 H 0.44411 0.09229 0.28679 0.0
H465 H 0.47375 0.87472 0.35124 0.0
H466 H 0.41273 0.8466 0.38303 0.0
H467 H 0.48436 0.92057 0.38865 0.0
loop_
_geom_bond_atom_site_label_1
_geom_bond_atom_site_label_2
_geom_bond_distance
_geom_bond_site_symmetry_2
_ccdc_geom_bond_type
Co0 O1 2.218 . S
Co0 O2 2.091 . S
Co0 O4 2.003 1_556 S
Co0 O10 2.011 1_556 S
Co0 O12 2.147 . S
Co0 O13 2.248 . S
O1 Co0 2.218 . S
O1 C8 1.247 . S
O2 Co0 2.091 . S
O2 C8 1.261 . S
C3 O12 1.247 . S
C3 O13 1.272 . S
O4 Co0 2.003 1_554 S
O4 C9 1.259 . S
Co5 O6 2.061 . S
Co5 O11 2.052 . S
Co5 O13 2.135 1_554 S
O6 Co5 2.061 . S
O6 C9 1.235 . S
C7 O10 1.238 . S
C7 O11 1.241 . S
C8 O1 1.247 . S
C8 O2 1.261 . S
C9 O4 1.259 . S
C9 O6 1.235 . S
O10 Co0 2.011 1_554 S
O10 C7 1.238 . S
O11 Co5 2.052 . S
O11 C7 1.241 . S
O12 Co0 2.147 . S
O12 C3 1.247 . S
O13 Co0 2.248 . S
O13 C3 1.272 . S
O13 Co5 2.135 1_556 S
Co14 O15 2.216 . S
Co14 O16 2.091 . S
Co14 O18 2.004 . S
Co14 O24 2.021 . S
Co14 O26 2.137 . S
Co14 O27 2.244 . S
O15 Co14 2.216 . S
O15 C22 1.247 . S
O16 Co14 2.091 . S
O16 C22 1.261 . S
C17 O26 1.247 . S
C17 O27 1.272 . S
O18 Co14 2.004 . S
O18 C23 1.259 . S
Co19 O20 2.061 . S
Co19 O25 2.052 . S
Co19 O27 2.135 . S
O20 Co19 2.061 . S
O20 C23 1.235 . S
C21 O24 1.238 . S
C21 O25 1.241 . S
C22 O15 1.247 . S
C22 O16 1.261 . S
C23 O18 1.259 . S
C23 O20 1.235 . S
O24 Co14 2.021 . S
O24 C21 1.238 . S
O25 Co19 2.052 . S
O25 C21 1.241 . S
O26 Co14 2.137 . S
O26 C17 1.247 . S
O27 Co14 2.244 . S
O27 C17 1.272 . S
O27 Co19 2.135 . S
Co28 O29 2.216 . S
Co28 O30 2.091 . S
Co28 O32 2.004 . S
Co28 O38 2.021 . S
Co28 O40 2.137 . S
Co28 O41 2.244 . S
O29 Co28 2.216 . S
O29 C36 1.247 . S
O30 Co28 2.091 . S
O30 C36 1.261 . S
C31 O40 1.247 . S
C31 O41 1.272 . S
O32 Co28 2.004 . S
O32 C37 1.259 . S
Co33 O34 2.061 . S
Co33 O39 2.052 . S
Co33 O41 2.135 . S
O34 Co33 2.061 . S
O34 C37 1.235 . S
C35 O38 1.238 . S
C35 O39 1.241 . S
C36 O29 1.247 . S
C36 O30 1.261 . S
C37 O32 1.259 . S
C37 O34 1.235 . S
O38 Co28 2.021 . S
O38 C35 1.238 . S
O39 Co33 2.052 . S
O39 C35 1.241 . S
O40 Co28 2.137 . S
O40 C31 1.247 . S
O41 Co28 2.244 . S
O41 C31 1.272 . S
O41 Co33 2.135 . S
Co42 O43 2.218 . S
Co42 O44 2.091 . S
Co42 O46 2.003 1_556 S
Co42 O52 2.012 1_556 S
Co42 O54 2.147 . S
Co42 O55 2.248 . S
O43 Co42 2.218 . S
O43 C50 1.247 . S
O44 Co42 2.091 . S
O44 C50 1.261 . S
C45 O54 1.247 . S
C45 O55 1.272 . S
O46 Co42 2.003 1_554 S
O46 C51 1.259 . S
Co47 O48 2.061 . S
Co47 O53 2.052 . S
Co47 O55 2.135 1_554 S
O48 Co47 2.061 . S
O48 C51 1.235 . S
C49 O52 1.238 . S
C49 O53 1.241 . S
C50 O43 1.247 . S
C50 O44 1.261 . S
C51 O46 1.259 . S
C51 O48 1.235 . S
O52 Co42 2.012 1_554 S
O52 C49 1.238 . S
O53 Co47 2.052 . S
O53 C49 1.241 . S
O54 Co42 2.147 . S
O54 C45 1.247 . S
O55 Co42 2.248 . S
O55 C45 1.272 . S
O55 Co47 2.135 1_556 S
Co56 O57 2.216 . S
Co56 O58 2.091 . S
Co56 O60 2.004 . S
Co56 O66 2.021 . S
Co56 O68 2.137 . S
Co56 O69 2.244 . S
O57 Co56 2.216 . S
O57 C64 1.247 . S
O58 Co56 2.091 . S
O58 C64 1.261 . S
C59 O68 1.247 . S
C59 O69 1.272 . S
O60 Co56 2.004 . S
O60 C65 1.259 . S
Co61 O62 2.061 . S
Co61 O67 2.052 . S
Co61 O69 2.135 . S
O62 Co61 2.061 . S
O62 C65 1.235 . S
C63 O66 1.238 . S
C63 O67 1.241 . S
C64 O57 1.247 . S
C64 O58 1.261 . S
C65 O60 1.259 . S
C65 O62 1.235 . S
O66 Co56 2.021 . S
O66 C63 1.238 . S
O67 Co61 2.052 . S
O67 C63 1.241 . S
O68 Co56 2.137 . S
O68 C59 1.247 . S
O69 Co56 2.244 . S
O69 C59 1.272 . S
O69 Co61 2.135 . S
Co70 O71 2.216 . S
Co70 O72 2.091 . S
Co70 O74 2.004 . S
Co70 O80 2.021 . S
Co70 O82 2.137 . S
Co70 O83 2.244 . S
O71 Co70 2.216 . S
O71 C78 1.247 . S
O72 Co70 2.091 . S
O72 C78 1.261 . S
C73 O82 1.247 . S
C73 O83 1.272 . S
O74 Co70 2.004 . S
O74 C79 1.259 . S
Co75 O76 2.061 . S
Co75 O81 2.052 . S
Co75 O83 2.135 . S
O76 Co75 2.061 . S
O76 C79 1.235 . S
C77 O80 1.238 . S
C77 O81 1.241 . S
C78 O71 1.247 . S
C78 O72 1.261 . S
C79 O74 1.259 . S
C79 O76 1.235 . S
O80 Co70 2.021 . S
O80 C77 1.238 . S
O81 Co75 2.052 . S
O81 C77 1.241 . S
O82 Co70 2.137 . S
O82 C73 1.247 . S
O83 Co70 2.244 . S
O83 C73 1.272 . S
O83 Co75 2.135 . S
C84 C85 1.391 . S
C84 C86 1.394 . S
C84 H100 0.931 . S
C85 C84 1.391 . S
C85 C89 1.376 . S
C86 C84 1.394 . S
C86 C87 1.369 . S
C86 C90 1.531 . S
C87 C86 1.369 . S
C87 C88 1.410 . S
C87 C95 1.503 . S
C88 C87 1.410 . S
C88 C89 1.392 . S
C88 C91 1.511 . S
C89 C85 1.376 . S
C89 C88 1.392 . S
C89 H101 0.929 . S
C90 C86 1.531 . S
C90 H102 0.960 . S
C90 H103 0.962 . S
C90 H104 0.960 . S
C91 C88 1.511 . S
C91 H105 0.961 . S
C91 H106 0.961 . S
C91 H107 0.961 . S
C92 C93 1.370 . S
C92 C94 1.363 . S
C92 H108 0.931 . S
C93 C92 1.370 . S
C93 C97 1.408 . S
C94 C92 1.363 . S
C94 C95 1.370 . S
C94 C98 1.524 . S
C95 C87 1.503 . S
C95 C94 1.370 . S
C95 C96 1.403 . S
C96 C95 1.403 . S
C96 C97 1.404 . S
C96 C99 1.539 . S
C97 C93 1.408 . S
C97 C96 1.404 . S
C97 H109 0.930 . S
C98 C94 1.524 . S
C98 H110 0.956 . S
C98 H111 0.961 . S
C98 H112 0.961 . S
C99 C96 1.539 . S
C99 H113 0.958 . S
C99 H114 0.961 . S
C99 H115 0.960 . S
H100 C84 0.931 . S
H101 C89 0.929 . S
H102 C90 0.960 . S
H103 C90 0.962 . S
H104 C90 0.960 . S
H105 C91 0.961 . S
H106 C91 0.961 . S
H107 C91 0.961 . S
H108 C92 0.931 . S
H109 C97 0.930 . S
H110 C98 0.956 . S
H111 C98 0.961 . S
H112 C98 0.961 . S
H113 C99 0.958 . S
H114 C99 0.961 . S
H115 C99 0.960 . S
C116 C117 1.391 . S
C116 C118 1.394 . S
C116 H132 0.931 . S
C117 C116 1.391 . S
C117 C121 1.376 . S
C118 C116 1.394 . S
C118 C119 1.369 . S
C118 C122 1.531 . S
C119 C118 1.369 . S
C119 C120 1.410 . S
C119 C127 1.503 1_655 S
C120 C119 1.410 . S
C120 C121 1.392 . S
C120 C123 1.511 1_655 S
C121 C117 1.376 . S
C121 C120 1.392 . S
C121 H133 0.929 . S
C122 C118 1.531 . S
C122 H134 0.960 . S
C122 H135 0.962 . S
C122 H136 0.960 . S
C123 C120 1.511 1_455 S
C123 H137 0.961 . S
C123 H138 0.961 . S
C123 H139 0.961 . S
C124 C125 1.370 . S
C124 C126 1.363 . S
C124 H140 0.931 . S
C125 C124 1.370 . S
C125 C129 1.408 . S
C126 C124 1.363 . S
C126 C127 1.370 . S
C126 C130 1.524 . S
C127 C119 1.503 1_455 S
C127 C126 1.370 . S
C127 C128 1.403 1_455 S
C128 C127 1.403 1_655 S
C128 C129 1.404 1_655 S
C128 C131 1.539 . S
C129 C125 1.408 . S
C129 C128 1.404 1_455 S
C129 H141 0.930 . S
C130 C126 1.524 . S
C130 H142 0.956 . S
C130 H143 0.961 . S
C130 H144 0.961 . S
C131 C128 1.539 . S
C131 H145 0.958 . S
C131 H146 0.961 . S
C131 H147 0.960 . S
H132 C116 0.931 . S
H133 C121 0.929 . S
H134 C122 0.960 . S
H135 C122 0.962 . S
H136 C122 0.960 . S
H137 C123 0.961 . S
H138 C123 0.961 . S
H139 C123 0.961 . S
H140 C124 0.931 . S
H141 C129 0.930 . S
H142 C130 0.956 . S
H143 C130 0.961 . S
H144 C130 0.961 . S
H145 C131 0.958 . S
H146 C131 0.961 . S
H147 C131 0.960 . S
C148 C149 1.391 . S
C148 C150 1.394 1_545 S
C148 H164 0.931 . S
C149 C148 1.391 . S
C149 C153 1.376 . S
C150 C148 1.394 1_565 S
C150 C151 1.369 1_565 S
C150 C154 1.531 . S
C151 C150 1.369 1_545 S
C151 C152 1.410 . S
C151 C159 1.503 1_545 S
C152 C151 1.410 . S
C152 C153 1.392 . S
C152 C155 1.511 . S
C153 C149 1.376 . S
C153 C152 1.392 . S
C153 H165 0.929 . S
C154 C150 1.531 . S
C154 H166 0.960 . S
C154 H167 0.962 . S
C154 H168 0.960 . S
C155 C152 1.511 . S
C155 H169 0.961 . S
C155 H170 0.961 . S
C155 H171 0.961 . S
C156 C157 1.370 . S
C156 C158 1.363 1_565 S
C156 H172 0.931 1_565 S
C157 C156 1.370 . S
C157 C161 1.408 . S
C158 C156 1.363 1_545 S
C158 C159 1.370 1_545 S
C158 C162 1.524 . S
C159 C151 1.503 1_565 S
C159 C158 1.370 1_565 S
C159 C160 1.403 . S
C160 C159 1.403 . S
C160 C161 1.404 . S
C160 C163 1.539 . S
C161 C157 1.408 . S
C161 C160 1.404 . S
C161 H173 0.930 . S
C162 C158 1.524 . S
C162 H174 0.956 . S
C162 H175 0.961 . S
C162 H176 0.961 . S
C163 C160 1.539 . S
C163 H177 0.958 . S
C163 H178 0.961 . S
C163 H179 0.960 . S
H164 C148 0.931 . S
H165 C153 0.929 . S
H166 C154 0.960 . S
H167 C154 0.962 . S
H168 C154 0.960 . S
H169 C155 0.961 . S
H170 C155 0.961 . S
H171 C155 0.961 . S
H172 C156 0.931 1_545 S
H173 C161 0.930 . S
H174 C162 0.956 . S
H175 C162 0.961 . S
H176 C162 0.961 . S
H177 C163 0.958 . S
H178 C163 0.961 . S
H179 C163 0.960 . S
C180 C181 1.391 . S
C180 C182 1.394 . S
C180 H196 0.931 . S
C181 C180 1.391 . S
C181 C185 1.376 . S
C182 C180 1.394 . S
C182 C183 1.369 . S
C182 C186 1.531 . S
C183 C182 1.369 . S
C183 C184 1.410 . S
C183 C191 1.503 . S
C184 C183 1.410 . S
C184 C185 1.392 . S
C184 C187 1.511 . S
C185 C181 1.376 . S
C185 C184 1.392 . S
C185 H197 0.929 . S
C186 C182 1.531 . S
C186 H198 0.960 . S
C186 H199 0.962 . S
C186 H200 0.960 . S
C187 C184 1.511 . S
C187 H201 0.961 . S
C187 H202 0.961 . S
C187 H203 0.961 . S
C188 C189 1.370 . S
C188 C190 1.363 . S
C188 H204 0.931 . S
C189 C188 1.370 . S
C189 C193 1.408 . S
C190 C188 1.363 . S
C190 C191 1.370 . S
C190 C194 1.524 . S
C191 C183 1.503 . S
C191 C190 1.370 . S
C191 C192 1.403 . S
C192 C191 1.403 . S
C192 C193 1.404 . S
C192 C195 1.539 . S
C193 C189 1.408 . S
C193 C192 1.404 . S
C193 H205 0.930 . S
C194 C190 1.524 . S
C194 H206 0.956 . S
C194 H207 0.961 . S
C194 H208 0.961 . S
C195 C192 1.539 . S
C195 H209 0.958 . S
C195 H210 0.961 . S
C195 H211 0.960 . S
H196 C180 0.931 . S
H197 C185 0.929 . S
H198 C186 0.960 . S
H199 C186 0.962 . S
H200 C186 0.960 . S
H201 C187 0.961 . S
H202 C187 0.961 . S
H203 C187 0.961 . S
H204 C188 0.931 . S
H205 C193 0.930 . S
H206 C194 0.956 . S
H207 C194 0.961 . S
H208 C194 0.961 . S
H209 C195 0.958 . S
H210 C195 0.961 . S
H211 C195 0.960 . S
C212 C213 1.391 . S
C212 C214 1.394 1_455 S
C212 H228 0.931 1_455 S
C213 C212 1.391 . S
C213 C217 1.376 . S
C214 C212 1.394 1_655 S
C214 C215 1.369 1_655 S
C214 C218 1.531 . S
C215 C214 1.369 1_455 S
C215 C216 1.410 . S
C215 C223 1.503 1_455 S
C216 C215 1.410 . S
C216 C217 1.392 . S
C216 C219 1.511 . S
C217 C213 1.376 . S
C217 C216 1.392 . S
C217 H229 0.929 . S
C218 C214 1.531 . S
C218 H230 0.960 . S
C218 H231 0.962 . S
C218 H232 0.960 . S
C219 C216 1.511 . S
C219 H233 0.961 . S
C219 H234 0.961 . S
C219 H235 0.961 . S
C220 C221 1.370 . S
C220 C222 1.363 . S
C220 H236 0.931 . S
C221 C220 1.370 . S
C221 C225 1.408 . S
C222 C220 1.363 . S
C222 C223 1.370 . S
C222 C226 1.524 1_655 S
C223 C215 1.503 1_655 S
C223 C222 1.370 . S
C223 C224 1.403 . S
C224 C223 1.403 . S
C224 C225 1.404 . S
C224 C227 1.539 . S
C225 C221 1.408 . S
C225 C224 1.404 . S
C225 H237 0.930 . S
C226 C222 1.524 1_455 S
C226 H238 0.956 1_455 S
C226 H239 0.961 . S
C226 H240 0.961 . S
C227 C224 1.539 . S
C227 H241 0.958 . S
C227 H242 0.961 . S
C227 H243 0.960 . S
H228 C212 0.931 1_655 S
H229 C217 0.929 . S
H230 C218 0.960 . S
H231 C218 0.962 . S
H232 C218 0.960 . S
H233 C219 0.961 . S
H234 C219 0.961 . S
H235 C219 0.961 . S
H236 C220 0.931 . S
H237 C225 0.930 . S
H238 C226 0.956 1_655 S
H239 C226 0.961 . S
H240 C226 0.961 . S
H241 C227 0.958 . S
H242 C227 0.961 . S
H243 C227 0.960 . S
C244 C245 1.391 . S
C244 C246 1.394 1_545 S
C244 H260 0.931 1_545 S
C245 C244 1.391 . S
C245 C249 1.376 . S
C246 C244 1.394 1_565 S
C246 C247 1.369 1_565 S
C246 C250 1.531 . S
C247 C246 1.369 1_545 S
C247 C248 1.410 . S
C247 C255 1.503 1_545 S
C248 C247 1.410 . S
C248 C249 1.392 . S
C248 C251 1.511 . S
C249 C245 1.376 . S
C249 C248 1.392 . S
C249 H261 0.929 . S
C250 C246 1.531 . S
C250 H262 0.960 . S
C250 H263 0.962 . S
C250 H264 0.960 . S
C251 C248 1.511 . S
C251 H265 0.961 . S
C251 H266 0.961 . S
C251 H267 0.961 . S
C252 C253 1.370 . S
C252 C254 1.363 . S
C252 H268 0.931 . S
C253 C252 1.370 . S
C253 C257 1.408 . S
C254 C252 1.363 . S
C254 C255 1.370 . S
C254 C258 1.524 1_565 S
C255 C247 1.503 1_565 S
C255 C254 1.370 . S
C255 C256 1.403 . S
C256 C255 1.403 . S
C256 C257 1.404 . S
C256 C259 1.539 . S
C257 C253 1.408 . S
C257 C256 1.404 . S
C257 H269 0.930 . S
C258 C254 1.524 1_545 S
C258 H270 0.956 . S
C258 H271 0.961 . S
C258 H272 0.961 . S
C259 C256 1.539 . S
C259 H273 0.958 . S
C259 H274 0.961 . S
C259 H275 0.960 . S
H260 C244 0.931 1_565 S
H261 C249 0.929 . S
H262 C250 0.960 . S
H263 C250 0.962 . S
H264 C250 0.960 . S
H265 C251 0.961 . S
H266 C251 0.961 . S
H267 C251 0.961 . S
H268 C252 0.931 . S
H269 C257 0.930 . S
H270 C258 0.956 . S
H271 C258 0.961 . S
H272 C258 0.961 . S
H273 C259 0.958 . S
H274 C259 0.961 . S
H275 C259 0.960 . S
C276 C277 1.391 . S
C276 C278 1.394 . S
C276 H292 0.931 . S
C277 C276 1.391 . S
C277 C281 1.376 . S
C278 C276 1.394 . S
C278 C279 1.369 . S
C278 C282 1.531 . S
C279 C278 1.369 . S
C279 C280 1.410 . S
C279 C287 1.503 . S
C280 C279 1.410 . S
C280 C281 1.392 . S
C280 C283 1.511 1_554 S
C281 C277 1.376 . S
C281 C280 1.392 . S
C281 H293 0.929 1_554 S
C282 C278 1.531 . S
C282 H294 0.960 . S
C282 H295 0.962 . S
C282 H296 0.960 . S
C283 C280 1.511 1_556 S
C283 H297 0.961 . S
C283 H298 0.961 . S
C283 H299 0.961 1_556 S
C284 C285 1.368 1_556 S
C284 C286 1.363 1_556 S
C284 H300 0.934 . S
C285 C284 1.368 1_554 S
C285 C289 1.408 . S
C286 C284 1.363 1_554 S
C286 C287 1.370 . S
C286 C290 1.524 1_554 S
C287 C279 1.503 . S
C287 C286 1.370 . S
C287 C288 1.403 . S
C288 C287 1.403 . S
C288 C289 1.404 . S
C288 C291 1.539 . S
C289 C285 1.408 . S
C289 C288 1.404 . S
C289 H301 0.930 . S
C290 C286 1.524 1_556 S
C290 H302 0.956 . S
C290 H303 0.961 . S
C290 H304 0.961 . S
C291 C288 1.539 . S
C291 H305 0.958 . S
C291 H306 0.961 . S
C291 H307 0.960 . S
H292 C276 0.931 . S
H293 C281 0.929 1_556 S
H294 C282 0.960 . S
H295 C282 0.962 . S
H296 C282 0.960 . S
H297 C283 0.961 . S
H298 C283 0.961 . S
H299 C283 0.961 1_554 S
H300 C284 0.934 . S
H301 C289 0.930 . S
H302 C290 0.956 . S
H303 C290 0.961 . S
H304 C290 0.961 . S
H305 C291 0.958 . S
H306 C291 0.961 . S
H307 C291 0.960 . S
C308 C309 1.391 . S
C308 C310 1.394 . S
C308 H324 0.931 . S
C309 C308 1.391 . S
C309 C313 1.376 1_655 S
C310 C308 1.394 . S
C310 C311 1.369 . S
C310 C314 1.531 . S
C311 C310 1.369 . S
C311 C312 1.410 1_655 S
C311 C319 1.503 1_655 S
C312 C311 1.410 1_455 S
C312 C313 1.392 . S
C312 C315 1.511 . S
C313 C309 1.376 1_455 S
C313 C312 1.392 . S
C313 H325 0.929 . S
C314 C310 1.531 . S
C314 H326 0.960 . S
C314 H327 0.962 . S
C314 H328 0.960 . S
C315 C312 1.511 . S
C315 H329 0.961 . S
C315 H330 0.961 . S
C315 H331 0.961 . S
C316 C317 1.370 . S
C316 C318 1.363 1_455 S
C316 H332 0.931 1_455 S
C317 C316 1.370 . S
C317 C321 1.408 . S
C318 C316 1.363 1_655 S
C318 C319 1.370 1_655 S
C318 C322 1.524 . S
C319 C311 1.503 1_455 S
C319 C318 1.370 1_455 S
C319 C320 1.403 . S
C320 C319 1.403 . S
C320 C321 1.404 . S
C320 C323 1.539 . S
C321 C317 1.408 . S
C321 C320 1.404 . S
C321 H333 0.930 . S
C322 C318 1.524 . S
C322 H334 0.956 . S
C322 H335 0.961 . S
C322 H336 0.961 . S
C323 C320 1.539 . S
C323 H337 0.958 . S
C323 H338 0.961 . S
C323 H339 0.960 . S
H324 C308 0.931 . S
H325 C313 0.929 . S
H326 C314 0.960 . S
H327 C314 0.962 . S
H328 C314 0.960 . S
H329 C315 0.961 . S
H330 C315 0.961 . S
H331 C315 0.961 . S
H332 C316 0.931 1_655 S
H333 C321 0.930 . S
H334 C322 0.956 . S
H335 C322 0.961 . S
H336 C322 0.961 . S
H337 C323 0.958 . S
H338 C323 0.961 . S
H339 C323 0.960 . S
C340 C341 1.391 . S
C340 C342 1.394 . S
C340 H356 0.931 . S
C341 C340 1.391 . S
C341 C345 1.376 . S
C342 C340 1.394 . S
C342 C343 1.369 . S
C342 C346 1.531 1_545 S
C343 C342 1.369 . S
C343 C344 1.410 . S
C343 C351 1.503 . S
C344 C343 1.410 . S
C344 C345 1.392 . S
C344 C347 1.511 . S
C345 C341 1.376 . S
C345 C344 1.392 . S
C345 H357 0.929 . S
C346 C342 1.531 1_565 S
C346 H358 0.960 1_565 S
C346 H359 0.962 . S
C346 H360 0.960 1_565 S
C347 C344 1.511 . S
C347 H361 0.961 . S
C347 H362 0.961 . S
C347 H363 0.961 . S
C348 C349 1.370 . S
C348 C350 1.363 . S
C348 H364 0.931 . S
C349 C348 1.370 . S
C349 C353 1.408 1_565 S
C350 C348 1.363 . S
C350 C351 1.370 1_565 S
C350 C354 1.524 . S
C351 C343 1.503 . S
C351 C350 1.370 1_545 S
C351 C352 1.403 . S
C352 C351 1.403 . S
C352 C353 1.404 . S
C352 C355 1.539 . S
C353 C349 1.408 1_545 S
C353 C352 1.404 . S
C353 H365 0.930 . S
C354 C350 1.524 . S
C354 H366 0.956 . S
C354 H367 0.961 . S
C354 H368 0.961 . S
C355 C352 1.539 . S
C355 H369 0.958 . S
C355 H370 0.961 . S
C355 H371 0.960 . S
H356 C340 0.931 . S
H357 C345 0.929 . S
H358 C346 0.960 1_545 S
H359 C346 0.962 . S
H360 C346 0.960 1_545 S
H361 C347 0.961 . S
H362 C347 0.961 . S
H363 C347 0.961 . S
H364 C348 0.931 . S
H365 C353 0.930 . S
H366 C354 0.956 . S
H367 C354 0.961 . S
H368 C354 0.961 . S
H369 C355 0.958 . S
H370 C355 0.961 . S
H371 C355 0.960 . S
C372 C373 1.391 . S
C372 C374 1.394 . S
C372 H388 0.931 . S
C373 C372 1.391 . S
C373 C377 1.376 . S
C374 C372 1.394 . S
C374 C375 1.369 . S
C374 C378 1.531 . S
C375 C374 1.369 . S
C375 C376 1.410 . S
C375 C383 1.503 . S
C376 C375 1.410 . S
C376 C377 1.392 . S
C376 C379 1.511 . S
C377 C373 1.376 . S
C377 C376 1.392 . S
C377 H389 0.929 . S
C378 C374 1.531 . S
C378 H390 0.960 . S
C378 H391 0.962 . S
C378 H392 0.960 . S
C379 C376 1.511 . S
C379 H393 0.961 . S
C379 H394 0.961 . S
C379 H395 0.961 . S
C380 C381 1.370 . S
C380 C382 1.363 . S
C380 H396 0.931 . S
C381 C380 1.370 . S
C381 C385 1.408 . S
C382 C380 1.363 . S
C382 C383 1.370 . S
C382 C386 1.524 . S
C383 C375 1.503 . S
C383 C382 1.370 . S
C383 C384 1.403 . S
C384 C383 1.403 . S
C384 C385 1.404 . S
C384 C387 1.539 . S
C385 C381 1.408 . S
C385 C384 1.404 . S
C385 H397 0.930 . S
C386 C382 1.524 . S
C386 H398 0.956 . S
C386 H399 0.961 . S
C386 H400 0.961 . S
C387 C384 1.539 . S
C387 H401 0.958 . S
C387 H402 0.961 . S
C387 H403 0.960 . S
H388 C372 0.931 . S
H389 C377 0.929 . S
H390 C378 0.960 . S
H391 C378 0.962 . S
H392 C378 0.960 . S
H393 C379 0.961 . S
H394 C379 0.961 . S
H395 C379 0.961 . S
H396 C380 0.931 . S
H397 C385 0.930 . S
H398 C386 0.956 . S
H399 C386 0.961 . S
H400 C386 0.961 . S
H401 C387 0.958 . S
H402 C387 0.961 . S
H403 C387 0.960 . S
C404 C405 1.391 . S
C404 C406 1.394 . S
C404 H420 0.931 . S
C405 C404 1.391 . S
C405 C409 1.376 1_655 S
C406 C404 1.394 . S
C406 C407 1.369 . S
C406 C410 1.531 . S
C407 C406 1.369 . S
C407 C408 1.410 1_655 S
C407 C415 1.503 1_655 S
C408 C407 1.410 1_455 S
C408 C409 1.392 . S
C408 C411 1.511 . S
C409 C405 1.376 1_455 S
C409 C408 1.392 . S
C409 H421 0.929 . S
C410 C406 1.531 . S
C410 H422 0.960 . S
C410 H423 0.962 . S
C410 H424 0.960 . S
C411 C408 1.511 . S
C411 H425 0.961 1_556 S
C411 H426 0.956 1_556 S
C411 H427 0.961 . S
C412 C413 1.370 1_554 S
C412 C414 1.363 . S
C412 H428 0.931 . S
C413 C412 1.370 1_556 S
C413 C417 1.408 . S
C414 C412 1.363 . S
C414 C415 1.370 1_554 S
C414 C418 1.524 1_455 S
C415 C407 1.503 1_455 S
C415 C414 1.370 1_556 S
C415 C416 1.403 . S
C416 C415 1.403 . S
C416 C417 1.404 . S
C416 C419 1.539 . S
C417 C413 1.408 . S
C417 C416 1.404 . S
C417 H429 0.930 . S
C418 C414 1.524 1_655 S
C418 H430 0.956 . S
C418 H431 0.961 1_655 S
C418 H432 0.961 1_655 S
C419 C416 1.539 . S
C419 H433 0.958 1_455 S
C419 H434 0.961 . S
C419 H435 0.960 . S
H420 C404 0.931 . S
H421 C409 0.929 . S
H422 C410 0.960 . S
H423 C410 0.962 . S
H424 C410 0.960 . S
H425 C411 0.961 1_554 S
H426 C411 0.956 1_554 S
H427 C411 0.961 . S
H428 C412 0.931 . S
H429 C417 0.930 . S
H430 C418 0.956 . S
H431 C418 0.961 1_455 S
H432 C418 0.961 1_455 S
H433 C419 0.958 1_655 S
H434 C419 0.961 . S
H435 C419 0.960 . S
C436 C437 1.391 . S
C436 C438 1.394 . S
C436 H452 0.931 . S
C437 C436 1.391 . S
C437 C441 1.376 . S
C438 C436 1.394 . S
C438 C439 1.369 1_545 S
C438 C442 1.531 . S
C439 C438 1.369 1_565 S
C439 C440 1.410 . S
C439 C447 1.503 . S
C440 C439 1.410 . S
C440 C441 1.392 1_565 S
C440 C443 1.511 . S
C441 C437 1.376 . S
C441 C440 1.392 1_545 S
C441 H453 0.927 1_545 S
C442 C438 1.531 . S
C442 H454 0.965 . S
C442 H455 0.962 . S
C442 H456 0.960 . S
C443 C440 1.511 . S
C443 H457 0.961 . S
C443 H458 0.961 . S
C443 H459 0.961 . S
C444 C445 1.370 1_545 S
C444 C446 1.363 . S
C444 H460 0.931 . S
C445 C444 1.370 1_565 S
C445 C449 1.408 . S
C446 C444 1.363 . S
C446 C447 1.370 1_545 S
C446 C450 1.524 . S
C447 C439 1.503 . S
C447 C446 1.370 1_565 S
C447 C448 1.403 . S
C448 C447 1.403 . S
C448 C449 1.404 . S
C448 C451 1.539 . S
C449 C445 1.408 . S
C449 C448 1.404 . S
C449 H461 0.930 . S
C450 C446 1.524 . S
C450 H462 0.956 . S
C450 H463 0.961 . S
C450 H464 0.961 . S
C451 C448 1.539 . S
C451 H465 0.958 . S
C451 H466 0.961 . S
C451 H467 0.960 . S
H452 C436 0.931 . S
H453 C441 0.927 1_565 S
H454 C442 0.965 . S
H455 C442 0.962 . S
H456 C442 0.960 . S
H457 C443 0.961 . S
H458 C443 0.961 . S
H459 C443 0.961 . S
H460 C444 0.931 . S
H461 C449 0.930 . S
H462 C450 0.956 . S
H463 C450 0.961 . S
H464 C450 0.961 . S
H465 C451 0.958 . S
H466 C451 0.961 . S
H467 C451 0.960 . S
C85 C77 1.264 . S
C93 C3 1.242 . S
C117 C17 1.227 . S
C125 C7 1.265 . S
C149 C21 1.260 . S
C157 C31 1.251 . S
C181 C45 1.221 . S
C189 C35 1.263 . S
C213 C59 1.266 . S
C221 C49 1.260 . S
C245 C73 1.265 . S
C253 C63 1.260 . S
C277 C9 1.483 . S
C285 C51 1.475 . S
C309 C23 1.483 . S
C317 C65 1.476 . S
C341 C79 1.461 . S
C349 C37 1.476 . S
C373 C78 1.374 . S
C381 C36 1.397 . S
C405 C50 1.401 . S
C413 C8 1.393 . S
C437 C22 1.418 . S
C445 C64 1.383 . S
