# Generated by pormake.
# Topology wkl, (6)-cn, num edge types: 1
# Building blocks:
#     Node 0, Type 0, BuildingBlock: OJICUG_clean_sbu_0, # of connection points: 6
#     Node 1, Type 0, BuildingBlock: OJICUG_clean_sbu_0, # of connection points: 6
#     Node 2, Type 0, BuildingBlock: OJICUG_clean_sbu_0, # of connection points: 6
#     Node 3, Type 0, BuildingBlock: OJICUG_clean_sbu_0, # of connection points: 6
#     Node 4, Type 0, BuildingBlock: OJICUG_clean_sbu_0, # of connection points: 6
#     Node 5, Type 0, BuildingBlock: OJICUG_clean_sbu_0, # of connection points: 6
#     Node 6, Type 0, BuildingBlock: OJICUG_clean_sbu_0, # of connection points: 6
#     Node 7, Type 0, BuildingBlock: OJICUG_clean_sbu_0, # of connection points: 6
#     Node 8, Type 0, BuildingBlock: OJICUG_clean_sbu_0, # of connection points: 6
#     Node 9, Type 0, BuildingBlock: OJICUG_clean_sbu_0, # of connection points: 6
#     Node 10, Type 0, BuildingBlock: OJICUG_clean_sbu_0, # of connection points: 6
#     Node 11, Type 0, BuildingBlock: OJICUG_clean_sbu_0, # of connection points: 6
#     Edge 12, Type (0, 0), BuildingBlock: XUDNAN_clean_linker_2, # of connection points: 2
#     Edge 13, Type (0, 0), BuildingBlock: XUDNAN_clean_linker_2, # of connection points: 2
#     Edge 14, Type (0, 0), BuildingBlock: XUDNAN_clean_linker_2, # of connection points: 2
#     Edge 15, Type (0, 0), BuildingBlock: XUDNAN_clean_linker_2, # of connection points: 2
#     Edge 16, Type (0, 0), BuildingBlock: XUDNAN_clean_linker_2, # of connection points: 2
#     Edge 17, Type (0, 0), BuildingBlock: XUDNAN_clean_linker_2, # of connection points: 2
#     Edge 18, Type (0, 0), BuildingBlock: XUDNAN_clean_linker_2, # of connection points: 2
#     Edge 19, Type (0, 0), BuildingBlock: XUDNAN_clean_linker_2, # of connection points: 2
#     Edge 20, Type (0, 0), BuildingBlock: XUDNAN_clean_linker_2, # of connection points: 2
#     Edge 21, Type (0, 0), BuildingBlock: XUDNAN_clean_linker_2, # of connection points: 2
#     Edge 22, Type (0, 0), BuildingBlock: XUDNAN_clean_linker_2, # of connection points: 2
#     Edge 23, Type (0, 0), BuildingBlock: XUDNAN_clean_linker_2, # of connection points: 2
#     Edge 24, Type (0, 0), BuildingBlock: XUDNAN_clean_linker_2, # of connection points: 2
#     Edge 25, Type (0, 0), BuildingBlock: XUDNAN_clean_linker_2, # of connection points: 2
#     Edge 26, Type (0, 0), BuildingBlock: XUDNAN_clean_linker_2, # of connection points: 2
#     Edge 27, Type (0, 0), BuildingBlock: XUDNAN_clean_linker_2, # of connection points: 2
#     Edge 28, Type (0, 0), BuildingBlock: XUDNAN_clean_linker_2, # of connection points: 2
#     Edge 29, Type (0, 0), BuildingBlock: XUDNAN_clean_linker_2, # of connection points: 2
#     Edge 30, Type (0, 0), BuildingBlock: XUDNAN_clean_linker_2, # of connection points: 2
#     Edge 31, Type (0, 0), BuildingBlock: XUDNAN_clean_linker_2, # of connection points: 2
#     Edge 32, Type (0, 0), BuildingBlock: XUDNAN_clean_linker_2, # of connection points: 2
#     Edge 33, Type (0, 0), BuildingBlock: XUDNAN_clean_linker_2, # of connection points: 2
#     Edge 34, Type (0, 0), BuildingBlock: XUDNAN_clean_linker_2, # of connection points: 2
#     Edge 35, Type (0, 0), BuildingBlock: XUDNAN_clean_linker_2, # of connection points: 2
#     Edge 36, Type (0, 0), BuildingBlock: XUDNAN_clean_linker_2, # of connection points: 2
#     Edge 37, Type (0, 0), BuildingBlock: XUDNAN_clean_linker_2, # of connection points: 2
#     Edge 38, Type (0, 0), BuildingBlock: XUDNAN_clean_linker_2, # of connection points: 2
#     Edge 39, Type (0, 0), BuildingBlock: XUDNAN_clean_linker_2, # of connection points: 2
#     Edge 40, Type (0, 0), BuildingBlock: XUDNAN_clean_linker_2, # of connection points: 2
#     Edge 41, Type (0, 0), BuildingBlock: XUDNAN_clean_linker_2, # of connection points: 2
#     Edge 42, Type (0, 0), BuildingBlock: XUDNAN_clean_linker_2, # of connection points: 2
#     Edge 43, Type (0, 0), BuildingBlock: XUDNAN_clean_linker_2, # of connection points: 2
#     Edge 44, Type (0, 0), BuildingBlock: XUDNAN_clean_linker_2, # of connection points: 2
#     Edge 45, Type (0, 0), BuildingBlock: XUDNAN_clean_linker_2, # of connection points: 2
#     Edge 46, Type (0, 0), BuildingBlock: XUDNAN_clean_linker_2, # of connection points: 2
#     Edge 47, Type (0, 0), BuildingBlock: XUDNAN_clean_linker_2, # of connection points: 2
# Relax obj value: 0.345
# Max RMSD: 0.288
# Mean RMSD: 0.288
data_MOF--net-wkl--node1-OJICUG_clean_sbu_0--edge1-XUDNAN_clean_linker_2
_symmetry_space_group_name_H-M    P1
_symmetry_Int_Tables_number       1
_symmetry_cell_setting            triclinic
loop_
_symmetry_equiv_pos_as_xyz
'x, y, z'
_cell_length_a     72.630057
_cell_length_b     72.546744
_cell_length_c     15.908169
_cell_angle_alpha  89.984657
_cell_angle_beta   90.006653
_cell_angle_gamma 120.03666
loop_
_atom_site_label
_atom_site_type_symbol
_atom_site_fract_x
_atom_site_fract_y
_atom_site_fract_z
_atom_type_partial_charge
Sc0 Sc 0.46303 0.10505 0.07849 0.0
Sc1 Sc 0.47831 0.14632 0.93349 0.0
Sc2 Sc 0.4254 0.11883 0.00867 0.0
O3 O 0.4555 0.12333 0.00684 0.0
C4 C 0.41671 0.0715 0.01219 0.0
C5 C 0.48601 0.10774 0.9041 0.0
C6 C 0.43738 0.12922 0.81541 0.0
C7 C 0.50581 0.14886 0.09428 0.0
C8 C 0.43314 0.11315 0.20242 0.0
C9 C 0.4558 0.16925 0.01684 0.0
O10 O 0.43515 0.07671 0.03905 0.0
O11 O 0.48538 0.12383 0.87621 0.0
O12 O 0.4235 0.1196 0.87233 0.0
O13 O 0.49165 0.13147 0.12602 0.0
O14 O 0.42354 0.11733 0.14507 0.0
O15 O 0.47237 0.16987 0.98748 0.0
O16 O 0.44728 0.10823 0.18664 0.0
O17 O 0.50367 0.15552 0.02325 0.0
O18 O 0.43771 0.15239 0.02124 0.0
O19 O 0.48004 0.10017 0.9776 0.0
O20 O 0.41047 0.08479 0.99949 0.0
O21 O 0.45706 0.1404 0.83124 0.0
Sc22 Sc 0.3559 0.46688 0.23876 0.0
Sc23 Sc 0.33768 0.48819 0.08675 0.0
Sc24 Sc 0.30389 0.43574 0.15984 0.0
O25 O 0.33239 0.46349 0.16172 0.0
C26 C 0.3375 0.42004 0.16872 0.0
C27 C 0.38138 0.48988 0.0718 0.0
C28 C 0.30961 0.44822 0.96695 0.0
C29 C 0.3615 0.5123 0.2551 0.0
C30 C 0.31482 0.44044 0.35439 0.0
C31 C 0.29148 0.47232 0.15483 0.0
O32 O 0.35282 0.4379 0.19244 0.0
O33 O 0.36603 0.49036 0.03585 0.0
O34 O 0.30308 0.43398 0.02375 0.0
O35 O 0.36034 0.49609 0.2904 0.0
O36 O 0.30107 0.43411 0.29583 0.0
O37 O 0.30968 0.48744 0.13332 0.0
O38 O 0.33467 0.45108 0.34084 0.0
O39 O 0.35602 0.51238 0.17935 0.0
O40 O 0.28697 0.45298 0.16031 0.0
O41 O 0.38071 0.48391 0.14734 0.0
O42 O 0.31848 0.41613 0.15994 0.0
O43 O 0.32074 0.46795 0.98308 0.0
Sc44 Sc 0.89195 0.36352 0.43578 0.0
Sc45 Sc 0.8514 0.34677 0.28776 0.0
Sc46 Sc 0.86767 0.31094 0.36002 0.0
O47 O 0.87033 0.34034 0.36098 0.0
C48 C 0.91764 0.34221 0.3669 0.0
C49 C 0.8943 0.39029 0.27241 0.0
C50 C 0.86222 0.31811 0.1666 0.0
C51 C 0.85275 0.37033 0.45904 0.0
C52 C 0.87522 0.3224 0.55348 0.0
C53 C 0.81938 0.30035 0.3519 0.0
O54 O 0.91653 0.35857 0.38716 0.0
O55 O 0.87755 0.37549 0.23886 0.0
O56 O 0.86844 0.31017 0.22372 0.0
O57 O 0.86855 0.3697 0.4898 0.0
O58 O 0.86637 0.30848 0.49608 0.0
O59 O 0.82339 0.31879 0.32963 0.0
O60 O 0.88594 0.3422 0.53827 0.0
O61 O 0.84585 0.36429 0.38487 0.0
O62 O 0.83362 0.29519 0.36036 0.0
O63 O 0.90065 0.3886 0.34487 0.0
O64 O 0.90161 0.3236 0.36093 0.0
O65 O 0.85494 0.33044 0.18232 0.0
Sc66 Sc 0.51781 0.8862 0.57088 0.0
Sc67 Sc 0.50349 0.84446 0.42825 0.0
Sc68 Sc 0.55655 0.87401 0.50109 0.0
O69 O 0.526 0.86831 0.49987 0.0
C70 C 0.56398 0.92087 0.5062 0.0
C71 C 0.49366 0.88178 0.39785 0.0
C72 C 0.54434 0.86315 0.30829 0.0
C73 C 0.47575 0.84145 0.58848 0.0
C74 C 0.54833 0.87912 0.69504 0.0
C75 C 0.52811 0.82342 0.5102 0.0
O76 O 0.54541 0.91514 0.53298 0.0
O77 O 0.49434 0.86557 0.37164 0.0
O78 O 0.55822 0.8732 0.36477 0.0
O79 O 0.48932 0.85945 0.61781 0.0
O80 O 0.55839 0.87556 0.63764 0.0
O81 O 0.51103 0.82187 0.48197 0.0
O82 O 0.5337 0.88336 0.67933 0.0
O83 O 0.47835 0.83433 0.5194 0.0
O84 O 0.54572 0.8408 0.51335 0.0
O85 O 0.50053 0.89036 0.4693 0.0
O86 O 0.57053 0.90791 0.49207 0.0
O87 O 0.52474 0.85137 0.32476 0.0
Sc88 Sc 0.62845 0.52369 0.715 0.0
Sc89 Sc 0.64769 0.50201 0.56769 0.0
Sc90 Sc 0.68107 0.5546 0.64063 0.0
O91 O 0.65247 0.52685 0.64111 0.0
C92 C 0.64803 0.571 0.64667 0.0
C93 C 0.60425 0.50129 0.54535 0.0
C94 C 0.67583 0.54185 0.44761 0.0
C95 C 0.62225 0.47773 0.73384 0.0
C96 C 0.6689 0.54931 0.8347 0.0
C97 C 0.69364 0.5181 0.63994 0.0
O98 O 0.63266 0.55331 0.67129 0.0
O99 O 0.6193 0.49932 0.51455 0.0
O100 O 0.68259 0.55611 0.50435 0.0
O101 O 0.62214 0.49372 0.76542 0.0
O102 O 0.6829 0.5563 0.77692 0.0
O103 O 0.67572 0.50306 0.61566 0.0
O104 O 0.64911 0.5383 0.81987 0.0
O105 O 0.62965 0.47805 0.66114 0.0
O106 O 0.69797 0.53737 0.64577 0.0
O107 O 0.60457 0.50815 0.61907 0.0
O108 O 0.66689 0.57456 0.63687 0.0
O109 O 0.66449 0.52214 0.46377 0.0
Sc110 Sc 0.09657 0.62445 0.94494 0.0
Sc111 Sc 0.13389 0.6418 0.78371 0.0
Sc112 Sc 0.11435 0.67498 0.85476 0.0
O113 O 0.11488 0.64713 0.86099 0.0
C114 C 0.06567 0.6412 0.8894 0.0
C115 C 0.09206 0.59691 0.78135 0.0
C116 C 0.11805 0.66664 0.66254 0.0
C117 C 0.13798 0.6209 0.95345 0.0
C118 C 0.11312 0.66723 0.05158 0.0
C119 C 0.16352 0.68967 0.82957 0.0
O120 O 0.0692 0.62645 0.91177 0.0
O121 O 0.10793 0.61183 0.74339 0.0
O122 O 0.11025 0.67306 0.71942 0.0
O123 O 0.12234 0.62077 0.98911 0.0
O124 O 0.11866 0.68012 0.98986 0.0
O125 O 0.16122 0.67136 0.81762 0.0
O126 O 0.10439 0.64721 0.04281 0.0
O127 O 0.143 0.62629 0.87734 0.0
O128 O 0.14821 0.69329 0.83828 0.0
O129 O 0.08688 0.59872 0.85599 0.0
O130 O 0.08033 0.65977 0.86934 0.0
O131 O 0.12764 0.65646 0.67905 0.0
Sc132 Sc 0.86388 0.55249 0.88575 0.0
Sc133 Sc 0.84525 0.49997 0.95806 0.0
Sc134 Sc 0.88598 0.52211 0.81007 0.0
O135 O 0.86505 0.52493 0.88466 0.0
C136 C 0.87055 0.54746 0.69157 0.0
C137 C 0.81495 0.51581 0.88895 0.0
C138 C 0.84666 0.47602 0.79129 0.0
C139 C 0.85684 0.53975 0.07857 0.0
C140 C 0.9134 0.56939 0.87802 0.0
C141 C 0.88791 0.49914 0.97814 0.0
O142 O 0.86309 0.55394 0.74951 0.0
O143 O 0.818 0.50069 0.91057 0.0
O144 O 0.86236 0.49224 0.75879 0.0
O145 O 0.86443 0.55406 0.02198 0.0
O146 O 0.91131 0.55168 0.85502 0.0
O147 O 0.87115 0.49743 0.01056 0.0
O148 O 0.89795 0.57275 0.88678 0.0
O149 O 0.84839 0.52003 0.0622 0.0
O150 O 0.89424 0.50614 0.90437 0.0
O151 O 0.82979 0.53511 0.88382 0.0
O152 O 0.87992 0.53699 0.70612 0.0
O153 O 0.83973 0.47618 0.86448 0.0
Sc154 Sc 0.31099 0.86914 0.963 0.0
Sc155 Sc 0.33839 0.84326 0.03538 0.0
Sc156 Sc 0.36289 0.8855 0.89197 0.0
O157 O 0.33747 0.86604 0.96373 0.0
C158 C 0.32422 0.87526 0.76894 0.0
C159 C 0.29227 0.81905 0.9564 0.0
C160 C 0.36322 0.84206 0.87307 0.0
C161 C 0.31409 0.85937 0.15624 0.0
C162 C 0.34754 0.91731 0.95696 0.0
C163 C 0.38487 0.88291 0.0619 0.0
O164 O 0.31049 0.87096 0.82662 0.0
O165 O 0.30832 0.81887 0.98706 0.0
O166 O 0.36733 0.86016 0.84596 0.0
O167 O 0.30828 0.86771 0.09932 0.0
O168 O 0.36146 0.91322 0.92857 0.0
O169 O 0.36889 0.86571 0.08764 0.0
O170 O 0.32859 0.90304 0.97336 0.0
O171 O 0.32407 0.8496 0.14017 0.0
O172 O 0.38508 0.89174 0.99253 0.0
O173 O 0.29084 0.83569 0.94909 0.0
O174 O 0.34344 0.8807 0.78413 0.0
O175 O 0.3535 0.83412 0.9414 0.0
Sc176 Sc 0.43528 0.3169 0.16518 0.0
Sc177 Sc 0.48814 0.34975 0.23532 0.0
Sc178 Sc 0.46789 0.36747 0.07544 0.0
O179 O 0.46371 0.34467 0.15877 0.0
C180 C 0.4417 0.3248 0.96833 0.0
C181 C 0.46933 0.30169 0.1904 0.0
C182 C 0.51291 0.37095 0.06529 0.0
C183 C 0.4476 0.32528 0.35736 0.0
C184 C 0.42027 0.3506 0.13236 0.0
C185 C 0.49154 0.39492 0.23814 0.0
O186 O 0.4343 0.31187 0.02993 0.0
O187 O 0.48555 0.31987 0.20258 0.0
O188 O 0.49749 0.37154 0.03086 0.0
O189 O 0.43333 0.31876 0.30059 0.0
O190 O 0.43845 0.36539 0.10911 0.0
O191 O 0.49276 0.38004 0.27515 0.0
O192 O 0.41653 0.33209 0.15208 0.0
O193 O 0.46736 0.33547 0.34073 0.0
O194 O 0.48395 0.39304 0.16458 0.0
O195 O 0.4506 0.29848 0.18058 0.0
O196 O 0.453 0.3448 0.97729 0.0
O197 O 0.51249 0.36491 0.14047 0.0
Sc198 Sc 0.11815 0.43666 0.38003 0.0
Sc199 Sc 0.13781 0.48939 0.45254 0.0
Sc200 Sc 0.09853 0.46874 0.29782 0.0
O201 O 0.11805 0.46481 0.37707 0.0
C202 C 0.11473 0.44359 0.18386 0.0
C203 C 0.16749 0.47235 0.38746 0.0
C204 C 0.13896 0.51491 0.28777 0.0
C205 C 0.12459 0.44922 0.57289 0.0
C206 C 0.06913 0.42035 0.35497 0.0
C207 C 0.09459 0.48993 0.46732 0.0
O208 O 0.11921 0.43491 0.24393 0.0
O209 O 0.16485 0.48761 0.41076 0.0
O210 O 0.1225 0.49949 0.25568 0.0
O211 O 0.11722 0.43495 0.51618 0.0
O212 O 0.07235 0.43815 0.32735 0.0
O213 O 0.11188 0.49273 0.49891 0.0
O214 O 0.08399 0.41716 0.37885 0.0
O215 O 0.13299 0.46889 0.55645 0.0
O216 O 0.08811 0.48248 0.39404 0.0
O217 O 0.15228 0.45329 0.37923 0.0
O218 O 0.1073 0.45594 0.19496 0.0
O219 O 0.14579 0.51395 0.36003 0.0
Sc220 Sc 0.66979 0.1245 0.49189 0.0
Sc221 Sc 0.63821 0.14565 0.56537 0.0
Sc222 Sc 0.6187 0.10705 0.40891 0.0
O223 O 0.6423 0.12567 0.4889 0.0
C224 C 0.65996 0.12054 0.29643 0.0
C225 C 0.68541 0.17426 0.50391 0.0
C226 C 0.61622 0.14891 0.39713 0.0
C227 C 0.66373 0.13055 0.6849 0.0
C228 C 0.63426 0.0757 0.47272 0.0
C229 C 0.59286 0.10505 0.57479 0.0
O230 O 0.67334 0.12644 0.35623 0.0
O231 O 0.66755 0.17216 0.52414 0.0
O232 O 0.61594 0.13319 0.36118 0.0
O233 O 0.66985 0.12255 0.62783 0.0
O234 O 0.61983 0.07952 0.44846 0.0
O235 O 0.6085 0.12045 0.61178 0.0
O236 O 0.65332 0.0902 0.48736 0.0
O237 O 0.65348 0.14005 0.66898 0.0
O238 O 0.59389 0.0995 0.49993 0.0
O239 O 0.68866 0.15864 0.49577 0.0
O240 O 0.64016 0.11263 0.30805 0.0
O241 O 0.62191 0.15402 0.47292 0.0
Sc242 Sc 0.55051 0.67437 0.67385 0.0
Sc243 Sc 0.49723 0.64412 0.7431 0.0
Sc244 Sc 0.51666 0.62301 0.59274 0.0
O245 O 0.52151 0.64718 0.66996 0.0
C246 C 0.54288 0.66431 0.47817 0.0
C247 C 0.51838 0.69215 0.69227 0.0
C248 C 0.4719 0.62076 0.5769 0.0
C249 C 0.53771 0.66738 0.86588 0.0
C250 C 0.56457 0.63981 0.64691 0.0
C251 C 0.49281 0.59827 0.7592 0.0
O252 O 0.55132 0.67776 0.53774 0.0
O253 O 0.50162 0.67453 0.70629 0.0
O254 O 0.48654 0.61777 0.54889 0.0
O255 O 0.55208 0.67341 0.80966 0.0
O256 O 0.54627 0.62523 0.62416 0.0
O257 O 0.49051 0.61339 0.78759 0.0
O258 O 0.56861 0.65843 0.66587 0.0
O259 O 0.51796 0.65789 0.84885 0.0
O260 O 0.5016 0.59918 0.689 0.0
O261 O 0.53666 0.6942 0.68367 0.0
O262 O 0.53082 0.64447 0.49015 0.0
O263 O 0.47323 0.62971 0.64695 0.0
H264 H 0.46188 0.12981 0.68668 0.0
H265 H 0.39926 0.12049 0.74086 0.0
H266 H 0.39081 0.11566 0.58792 0.0
H267 H 0.4716 0.15875 0.49548 0.0
H268 H 0.48487 0.1461 0.44706 0.0
H269 H 0.48557 0.14918 0.55945 0.0
H270 H 0.46995 0.10851 0.57796 0.0
H271 H 0.46922 0.10535 0.46559 0.0
H272 H 0.44532 0.09029 0.52655 0.0
H273 H 0.39052 0.11334 0.42463 0.0
H274 H 0.39717 0.1108 0.27296 0.0
H275 H 0.45938 0.11996 0.33477 0.0
C276 C 0.4464 0.12695 0.66671 0.0
C277 C 0.43132 0.12587 0.72545 0.0
C278 C 0.41107 0.1215 0.6967 0.0
C279 C 0.4062 0.1188 0.61009 0.0
C280 C 0.42165 0.12018 0.55381 0.0
C281 C 0.44125 0.12392 0.58167 0.0
C282 C 0.45502 0.12401 0.51044 0.0
C283 C 0.47546 0.1458 0.50267 0.0
C284 C 0.46016 0.10596 0.52077 0.0
C285 C 0.44025 0.11992 0.43729 0.0
C286 C 0.42112 0.11792 0.4627 0.0
C287 C 0.40538 0.1147 0.40445 0.0
C288 C 0.4093 0.11334 0.3185 0.0
C289 C 0.42867 0.11492 0.29208 0.0
C290 C 0.44424 0.11832 0.35275 0.0
H291 H 0.33189 0.47217 0.83351 0.0
H292 H 0.27808 0.41046 0.89711 0.0
H293 H 0.27177 0.40163 0.74493 0.0
H294 H 0.31025 0.48205 0.64793 0.0
H295 H 0.33544 0.49452 0.59385 0.0
H296 H 0.3347 0.49582 0.70673 0.0
H297 H 0.35904 0.47924 0.71873 0.0
H298 H 0.35992 0.47799 0.60597 0.0
H299 H 0.35124 0.4542 0.6677 0.0
H300 H 0.27174 0.40046 0.58094 0.0
H301 H 0.28007 0.40584 0.42788 0.0
H302 H 0.33462 0.46776 0.48145 0.0
C303 C 0.31859 0.45683 0.81595 0.0
C304 C 0.30531 0.4421 0.87719 0.0
C305 C 0.28842 0.42203 0.8511 0.0
C306 C 0.28468 0.41694 0.7649 0.0
C307 C 0.29811 0.43203 0.70615 0.0
C308 C 0.31484 0.45148 0.73126 0.0
C309 C 0.32777 0.46475 0.65773 0.0
C310 C 0.32698 0.4855 0.6512 0.0
C311 C 0.35085 0.46929 0.66286 0.0
C312 C 0.31582 0.44978 0.58663 0.0
C313 C 0.29858 0.43105 0.61477 0.0
C314 C 0.28527 0.41505 0.5586 0.0
C315 C 0.29002 0.41824 0.47196 0.0
C316 C 0.3081 0.43709 0.44331 0.0
C317 C 0.32085 0.45304 0.50164 0.0
H318 H 0.87309 0.34552 0.68179 0.0
H319 H 0.86961 0.28529 0.6272 0.0
H320 H 0.86612 0.27704 0.78031 0.0
H321 H 0.90366 0.35815 0.86799 0.0
H322 H 0.88958 0.3696 0.91915 0.0
H323 H 0.89161 0.37017 0.80636 0.0
H324 H 0.85051 0.35112 0.79395 0.0
H325 H 0.84839 0.35061 0.90676 0.0
H326 H 0.83448 0.32619 0.84773 0.0
H327 H 0.86507 0.27705 0.94376 0.0
H328 H 0.86311 0.28367 0.096 0.0
H329 H 0.86594 0.3433 0.03449 0.0
C330 C 0.87167 0.33057 0.70175 0.0
C331 C 0.8719 0.31614 0.643 0.0
C332 C 0.8695 0.29657 0.67152 0.0
C333 C 0.86761 0.29183 0.75819 0.0
C334 C 0.86782 0.30671 0.81464 0.0
C335 C 0.8695 0.32555 0.78687 0.0
C336 C 0.86889 0.33887 0.85841 0.0
C337 C 0.88967 0.36046 0.86324 0.0
C338 C 0.84941 0.34186 0.85127 0.0
C339 C 0.86684 0.32477 0.93158 0.0
C340 C 0.86639 0.30634 0.90596 0.0
C341 C 0.8652 0.29135 0.96418 0.0
C342 C 0.86419 0.29526 0.0504 0.0
C343 C 0.86413 0.31387 0.07698 0.0
C344 C 0.8656 0.32874 0.01634 0.0
H345 H 0.51907 0.86069 0.17887 0.0
H346 H 0.58299 0.87376 0.23407 0.0
H347 H 0.59146 0.8788 0.08125 0.0
H348 H 0.51106 0.83204 0.98746 0.0
H349 H 0.49666 0.84346 0.93865 0.0
H350 H 0.496 0.84038 0.05106 0.0
H351 H 0.50952 0.8807 0.0696 0.0
H352 H 0.51019 0.88384 0.95722 0.0
H353 H 0.5338 0.89988 0.01854 0.0
H354 H 0.59181 0.8811 0.91806 0.0
H355 H 0.58506 0.8834 0.76628 0.0
H356 H 0.52146 0.87055 0.8267 0.0
C357 C 0.53484 0.8644 0.15914 0.0
C358 C 0.5503 0.8665 0.21819 0.0
C359 C 0.57089 0.87196 0.18971 0.0
C360 C 0.57578 0.87479 0.10315 0.0
C361 C 0.56 0.87242 0.04656 0.0
C362 C 0.54002 0.86758 0.07409 0.0
C363 C 0.52594 0.86667 0.00252 0.0
C364 C 0.50626 0.84431 0.99446 0.0
C365 C 0.5195 0.88379 0.01259 0.0
C366 C 0.54098 0.87158 0.92964 0.0
C367 C 0.56051 0.87468 0.95545 0.0
C368 C 0.57662 0.87887 0.89756 0.0
C369 C 0.57265 0.88008 0.81154 0.0
C370 C 0.55285 0.87741 0.78471 0.0
C371 C 0.53691 0.87303 0.84503 0.0
H372 H 0.64759 0.52312 0.96397 0.0
H373 H 0.70474 0.58282 0.90718 0.0
H374 H 0.71347 0.58815 0.05973 0.0
H375 H 0.63341 0.53897 0.15157 0.0
H376 H 0.62414 0.51368 0.20293 0.0
H377 H 0.62294 0.5149 0.09023 0.0
H378 H 0.64492 0.49586 0.07534 0.0
H379 H 0.64598 0.49436 0.18802 0.0
H380 H 0.67025 0.50669 0.12769 0.0
H381 H 0.71415 0.5872 0.22324 0.0
H382 H 0.70845 0.57857 0.37578 0.0
H383 H 0.65162 0.5188 0.31615 0.0
C384 C 0.66195 0.5374 0.9833 0.0
C385 C 0.67537 0.55271 0.92404 0.0
C386 C 0.69424 0.57092 0.95184 0.0
C387 C 0.69924 0.57408 0.03822 0.0
C388 C 0.68537 0.55871 0.09519 0.0
C389 C 0.66726 0.5406 0.06815 0.0
C390 C 0.65498 0.52611 0.14015 0.0
C391 C 0.63255 0.52327 0.14657 0.0
C392 C 0.65399 0.50449 0.13233 0.0
C393 C 0.66883 0.53893 0.21271 0.0
C394 C 0.68623 0.55777 0.18644 0.0
C395 C 0.70069 0.57237 0.24415 0.0
C396 C 0.69731 0.5674 0.33054 0.0
C397 C 0.67977 0.5479 0.35775 0.0
C398 C 0.66543 0.53367 0.29756 0.0
H399 H 0.12778 0.6502 0.52749 0.0
H400 H 0.10528 0.69361 0.59363 0.0
H401 H 0.10487 0.70182 0.44226 0.0
H402 H 0.16209 0.68082 0.35724 0.0
H403 H 0.15564 0.65748 0.29579 0.0
H404 H 0.15487 0.65598 0.40886 0.0
H405 H 0.11571 0.6251 0.40358 0.0
H406 H 0.11651 0.62632 0.2907 0.0
H407 H 0.09628 0.62875 0.34688 0.0
H408 H 0.10633 0.7042 0.27921 0.0
H409 H 0.10623 0.69774 0.1254 0.0
H410 H 0.12813 0.65314 0.17465 0.0
C411 C 0.12285 0.66157 0.51088 0.0
C412 C 0.11665 0.67133 0.57275 0.0
C413 C 0.11008 0.68589 0.54736 0.0
C414 C 0.10995 0.69076 0.46162 0.0
C415 C 0.11648 0.68097 0.40246 0.0
C416 C 0.12266 0.66656 0.4266 0.0
C417 C 0.12802 0.65725 0.35221 0.0
C418 C 0.15156 0.66325 0.35365 0.0
C419 C 0.11325 0.63293 0.34812 0.0
C420 C 0.12363 0.66839 0.2817 0.0
C421 C 0.11722 0.68224 0.31108 0.0
C422 C 0.11149 0.69352 0.2558 0.0
C423 C 0.11165 0.68993 0.16871 0.0
C424 C 0.11726 0.67504 0.13881 0.0
C425 C 0.12387 0.6647 0.19608 0.0
H426 H 0.85747 0.51654 0.21063 0.0
H427 H 0.86104 0.57653 0.1498 0.0
H428 H 0.86361 0.58514 0.30221 0.0
H429 H 0.82629 0.5046 0.39784 0.0
H430 H 0.84052 0.49354 0.45069 0.0
H431 H 0.83824 0.49222 0.33791 0.0
H432 H 0.87931 0.51119 0.32429 0.0
H433 H 0.88165 0.51241 0.437 0.0
H434 H 0.89543 0.53646 0.37563 0.0
H435 H 0.86492 0.58613 0.46565 0.0
H436 H 0.86824 0.58092 0.61844 0.0
H437 H 0.86529 0.52097 0.56319 0.0
C438 C 0.85859 0.53144 0.22896 0.0
C439 C 0.85878 0.54576 0.16843 0.0
C440 C 0.86079 0.56531 0.19529 0.0
C441 C 0.86217 0.57026 0.28161 0.0
C442 C 0.86175 0.55558 0.33967 0.0
C443 C 0.86024 0.53668 0.31382 0.0
C444 C 0.86103 0.52384 0.38687 0.0
C445 C 0.84028 0.50228 0.3937 0.0
C446 C 0.88052 0.52082 0.38055 0.0
C447 C 0.86322 0.5384 0.45849 0.0
C448 C 0.86337 0.55655 0.43097 0.0
C449 C 0.86495 0.57202 0.48756 0.0
C450 C 0.86674 0.56892 0.57406 0.0
C451 C 0.86728 0.55069 0.6023 0.0
C452 C 0.86526 0.53525 0.54345 0.0
H453 H 0.34299 0.86699 0.63878 0.0
H454 H 0.29092 0.87797 0.69697 0.0
H455 H 0.28192 0.87515 0.5449 0.0
H456 H 0.35967 0.8963 0.44883 0.0
H457 H 0.36564 0.87771 0.39798 0.0
H458 H 0.36763 0.8806 0.51047 0.0
H459 H 0.34159 0.84014 0.52841 0.0
H460 H 0.33967 0.83706 0.41593 0.0
H461 H 0.31592 0.82807 0.47802 0.0
H462 H 0.28035 0.87276 0.38143 0.0
H463 H 0.28464 0.86828 0.22889 0.0
H464 H 0.3368 0.85743 0.28735 0.0
C465 C 0.32971 0.86891 0.61989 0.0
C466 C 0.3178 0.87296 0.67951 0.0
C467 C 0.30028 0.87491 0.65213 0.0
C468 C 0.29512 0.87339 0.56598 0.0
C469 C 0.30746 0.86962 0.50871 0.0
C470 C 0.32424 0.86717 0.53525 0.0
C471 C 0.33492 0.86276 0.46298 0.0
C472 C 0.35834 0.8804 0.45462 0.0
C473 C 0.33289 0.8407 0.47189 0.0
C474 C 0.32172 0.86331 0.39092 0.0
C475 C 0.30602 0.86741 0.41758 0.0
C476 C 0.29247 0.86932 0.36024 0.0
C477 C 0.29503 0.86682 0.27383 0.0
C478 C 0.31084 0.86221 0.24622 0.0
C479 C 0.32426 0.86052 0.30611 0.0
H480 H 0.47086 0.33922 0.84553 0.0
H481 H 0.40449 0.29401 0.8941 0.0
H482 H 0.39829 0.28749 0.74025 0.0
H483 H 0.46319 0.36331 0.67412 0.0
H484 H 0.4864 0.36732 0.61744 0.0
H485 H 0.48594 0.36592 0.73029 0.0
H486 H 0.49426 0.33512 0.72542 0.0
H487 H 0.4952 0.33667 0.61237 0.0
H488 H 0.47767 0.31174 0.66356 0.0
H489 H 0.3993 0.28982 0.57736 0.0
H490 H 0.40795 0.29804 0.42605 0.0
H491 H 0.47367 0.34209 0.49258 0.0
C492 C 0.45511 0.32752 0.82394 0.0
C493 C 0.43814 0.31703 0.88103 0.0
C494 C 0.41773 0.30195 0.85093 0.0
C495 C 0.41408 0.29831 0.76383 0.0
C496 C 0.43111 0.30973 0.70874 0.0
C497 C 0.45129 0.32375 0.73829 0.0
C498 C 0.46681 0.33504 0.66783 0.0
C499 C 0.47611 0.35932 0.67275 0.0
C500 C 0.48452 0.32928 0.66726 0.0
C501 C 0.4522 0.32561 0.59338 0.0
C502 C 0.43167 0.31101 0.61737 0.0
C503 C 0.4154 0.30103 0.55811 0.0
C504 C 0.42042 0.30591 0.4724 0.0
C505 C 0.44151 0.32064 0.44714 0.0
C506 C 0.45741 0.33059 0.5091 0.0
H507 H 0.12807 0.4724 0.059 0.0
H508 H 0.10964 0.40674 0.11107 0.0
H509 H 0.11157 0.40061 0.95817 0.0
H510 H 0.09804 0.46343 0.87961 0.0
H511 H 0.11745 0.48708 0.82558 0.0
H512 H 0.11675 0.48652 0.93851 0.0
H513 H 0.15632 0.49655 0.94377 0.0
H514 H 0.15734 0.49748 0.83066 0.0
H515 H 0.1649 0.4807 0.88678 0.0
H516 H 0.11197 0.4015 0.79517 0.0
H517 H 0.11369 0.40999 0.643 0.0
H518 H 0.13228 0.47522 0.7068 0.0
C519 C 0.12474 0.45678 0.03847 0.0
C520 C 0.11861 0.43999 0.09619 0.0
C521 C 0.1145 0.41982 0.06737 0.0
C522 C 0.11546 0.41622 0.98085 0.0
C523 C 0.1209 0.43307 0.92507 0.0
C524 C 0.1258 0.45304 0.95346 0.0
C525 C 0.13049 0.46846 0.88227 0.0
C526 C 0.11474 0.47684 0.88149 0.0
C527 C 0.15364 0.48688 0.88611 0.0
C528 C 0.12696 0.454 0.80866 0.0
C529 C 0.12148 0.43364 0.83371 0.0
C530 C 0.11655 0.41748 0.77508 0.0
C531 C 0.11746 0.4224 0.6889 0.0
C532 C 0.12327 0.4433 0.66272 0.0
C533 C 0.12804 0.45913 0.72403 0.0
H534 H 0.64492 0.13725 0.81925 0.0
H535 H 0.69187 0.11932 0.75394 0.0
H536 H 0.69851 0.11713 0.90596 0.0
H537 H 0.67177 0.16955 0.99876 0.0
H538 H 0.64733 0.16076 0.05588 0.0
H539 H 0.64736 0.16173 0.94277 0.0
H540 H 0.61818 0.12183 0.93745 0.0
H541 H 0.61795 0.1208 0.05038 0.0
H542 H 0.62261 0.10243 0.99051 0.0
H543 H 0.69926 0.11684 0.06963 0.0
H544 H 0.69165 0.11536 0.22299 0.0
H545 H 0.64392 0.13302 0.17134 0.0
C546 C 0.65679 0.13303 0.83621 0.0
C547 C 0.66802 0.12863 0.77455 0.0
C548 C 0.6831 0.1228 0.80019 0.0
C549 C 0.68704 0.12164 0.88629 0.0
C550 C 0.67571 0.12629 0.94536 0.0
C551 C 0.66078 0.13172 0.92074 0.0
C552 C 0.64981 0.13504 0.99467 0.0
C553 C 0.65435 0.15814 0.9982 0.0
C554 C 0.62573 0.11907 0.99313 0.0
C555 C 0.66068 0.13044 0.06546 0.0
C556 C 0.67578 0.12567 0.03677 0.0
C557 C 0.68749 0.12059 0.09248 0.0
C558 C 0.68319 0.1199 0.17925 0.0
C559 C 0.66714 0.12396 0.20834 0.0
C560 C 0.65617 0.12969 0.15062 0.0
H561 H 0.51446 0.64712 0.35244 0.0
H562 H 0.57914 0.6968 0.40459 0.0
H563 H 0.58536 0.70406 0.25122 0.0
H564 H 0.52524 0.62608 0.17559 0.0
H565 H 0.50134 0.62048 0.12018 0.0
H566 H 0.5017 0.62078 0.23319 0.0
H567 H 0.48983 0.64899 0.23487 0.0
H568 H 0.48904 0.64855 0.12174 0.0
H569 H 0.50483 0.67338 0.17642 0.0
H570 H 0.58478 0.70295 0.08864 0.0
H571 H 0.57652 0.69611 0.93643 0.0
H572 H 0.51211 0.64721 0.99897 0.0
C573 C 0.52989 0.65975 0.33184 0.0
C574 C 0.54638 0.67137 0.38985 0.0
C575 C 0.56628 0.68785 0.36076 0.0
C576 C 0.56995 0.69195 0.27396 0.0
C577 C 0.55344 0.67958 0.21811 0.0
C578 C 0.53371 0.66405 0.2465 0.0
C579 C 0.5186 0.65248 0.17518 0.0
C580 C 0.51132 0.62855 0.17613 0.0
C581 C 0.49946 0.65608 0.17718 0.0
C582 C 0.53298 0.66362 0.10153 0.0
C583 C 0.55303 0.67919 0.12677 0.0
C584 C 0.56905 0.69096 0.06838 0.0
C585 C 0.56428 0.68688 0.9822 0.0
C586 C 0.54364 0.67125 0.95577 0.0
C587 C 0.52798 0.65948 0.01675 0.0
H588 H 0.42728 0.04144 0.97753 0.0
H589 H 0.37305 0.05044 0.01361 0.0
H590 H 0.34887 0.01148 0.00148 0.0
H591 H 0.40216 -0.00167 0.82572 0.0
H592 H 0.41552 0.98497 0.86679 0.0
H593 H 0.42804 0.01352 0.87342 0.0
H594 H 0.43196 0.0114 0.03468 0.0
H595 H 0.41922 0.98285 0.0288 0.0
H596 H 0.40868 0.9951 0.09737 0.0
H597 H 0.33119 0.97134 0.99608 0.0
H598 H 0.32102 0.93344 0.98575 0.0
H599 H 0.38744 0.95193 0.95185 0.0
C600 C 0.41031 0.03527 0.98227 0.0
C601 C 0.40196 0.04881 0.99702 0.0
C602 C 0.37968 0.04022 0.00198 0.0
C603 C 0.36589 0.01818 0.99552 0.0
C604 C 0.37474 0.00522 0.98312 0.0
C605 C 0.39643 0.01351 0.97537 0.0
C606 C 0.4021 -0.00367 0.96342 0.0
C607 C 0.41257 -0.00159 0.8772 0.0
C608 C 0.41632 -0.00356 0.03537 0.0
C609 C 0.38022 0.97696 0.96727 0.0
C610 C 0.36462 0.98233 0.97868 0.0
C611 C 0.34324 0.96695 0.98635 0.0
C612 C 0.33766 0.94549 0.98091 0.0
C613 C 0.35346 0.93976 0.9677 0.0
C614 C 0.37497 0.95577 0.96137 0.0
H615 H 0.42076 0.38556 0.06875 0.0
H616 H 0.37998 0.32595 0.19778 0.0
H617 H 0.35123 0.33482 0.20138 0.0
H618 H 0.40731 0.41655 0.18543 0.0
H619 H 0.40853 0.43329 0.09935 0.0
H620 H 0.42426 0.42054 0.09634 0.0
H621 H 0.40716 0.4032 0.95328 0.0
H622 H 0.3912 0.41583 0.95634 0.0
H623 H 0.37863 0.38735 0.94474 0.0
H624 H 0.32851 0.35233 0.20394 0.0
H625 H 0.3153 0.37792 0.21381 0.0
H626 H 0.37168 0.42534 0.08402 0.0
C627 C 0.40572 0.37417 0.09697 0.0
C628 C 0.40263 0.35512 0.13323 0.0
C629 C 0.38268 0.34068 0.16948 0.0
C630 C 0.36623 0.3455 0.17129 0.0
C631 C 0.36997 0.36462 0.13556 0.0
C632 C 0.38926 0.37867 0.09898 0.0
C633 C 0.39026 0.39904 0.07204 0.0
C634 C 0.40866 0.41848 0.11597 0.0
C635 C 0.3919 0.40149 0.97588 0.0
C636 C 0.3689 0.39479 0.10303 0.0
C637 C 0.3571 0.37468 0.13758 0.0
C638 C 0.33744 0.36797 0.17579 0.0
C639 C 0.33004 0.3825 0.181 0.0
C640 C 0.34261 0.40341 0.14966 0.0
C641 C 0.36184 0.40934 0.1081 0.0
H642 H 0.03641 0.41891 0.26862 0.0
H643 H 0.05195 0.38164 0.4374 0.0
H644 H 0.01404 0.35314 0.43744 0.0
H645 H 0.99123 0.40965 0.36598 0.0
H646 H 0.97716 0.40877 0.27134 0.0
H647 H 0.00566 0.4238 0.27324 0.0
H648 H 0.00697 0.40241 0.14482 0.0
H649 H 0.97832 0.38713 0.14307 0.0
H650 H -0.00646 0.37375 0.14979 0.0
H651 H 0.97367 0.33127 0.4332 0.0
H652 H 0.93524 0.31986 0.43384 0.0
H653 H 0.94766 0.37245 0.26978 0.0
C654 C 0.03202 0.40467 0.30494 0.0
C655 C 0.04705 0.40253 0.35359 0.0
C656 C 0.04061 0.38356 0.39968 0.0
C657 C 0.01919 0.36727 0.39951 0.0
C658 C 0.00469 0.37017 0.3518 0.0
C659 C 0.01097 0.38844 0.30517 0.0
C660 C 0.99237 0.38915 0.26683 0.0
C661 C 0.99156 0.409 0.29619 0.0
C662 C -0.00717 0.38803 0.1704 0.0
C663 C 0.97441 0.36898 0.30302 0.0
C664 C 0.98169 0.35782 0.34986 0.0
C665 C 0.9678 0.33963 0.39532 0.0
C666 C 0.94607 0.33323 0.39522 0.0
C667 C 0.93883 0.34535 0.35146 0.0
C668 C 0.95299 0.3629 0.30278 0.0
H669 H 0.55364 0.95195 0.49427 0.0
H670 H 0.60757 0.94157 0.4932 0.0
H671 H 0.63204 0.98052 0.48602 0.0
H672 H 0.57556 -0.00382 0.34994 0.0
H673 H 0.56385 0.00956 0.40467 0.0
H674 H 0.551 0.98095 0.40687 0.0
H675 H 0.55141 0.98184 0.56995 0.0
H676 H 0.56449 0.01046 0.56827 0.0
H677 H 0.57631 -0.00262 0.62437 0.0
H678 H 0.65043 0.02094 0.48607 0.0
H679 H 0.66099 0.05911 0.48173 0.0
H680 H 0.59437 0.04154 0.48246 0.0
C681 C 0.57059 0.95779 0.49211 0.0
C682 C 0.57874 0.94379 0.49466 0.0
C683 C 0.60101 0.95208 0.49098 0.0
C684 C 0.61501 0.97413 0.48732 0.0
C685 C 0.60638 0.98749 0.48677 0.0
C686 C 0.58467 0.97957 0.48812 0.0
C687 C 0.57925 -0.00292 0.4871 0.0
C688 C 0.56668 -0.00413 0.40739 0.0
C689 C 0.56716 -0.00334 0.5672 0.0
C690 C 0.60133 0.01619 0.48557 0.0
C691 C 0.61683 0.01046 0.48574 0.0
C692 C 0.63842 0.02561 0.48546 0.0
C693 C 0.64426 0.04721 0.48347 0.0
C694 C 0.62849 0.05325 0.48132 0.0
C695 C 0.60682 0.03746 0.48333 0.0
H696 H 0.61378 0.56655 0.56546 0.0
H697 H 0.6707 0.6128 0.69555 0.0
H698 H 0.65715 0.63816 0.69648 0.0
H699 H 0.60483 0.60582 0.44097 0.0
H700 H 0.57646 0.58922 0.45301 0.0
H701 H 0.59302 0.57729 0.44642 0.0
H702 H 0.57718 0.55779 0.58735 0.0
H703 H 0.56105 0.57002 0.59582 0.0
H704 H 0.57912 0.57313 0.6795 0.0
H705 H 0.63408 0.65528 0.70538 0.0
H706 H 0.60506 0.6638 0.7115 0.0
H707 H 0.5637 0.60526 0.57709 0.0
C708 C 0.62371 0.58234 0.59129 0.0
C709 C 0.64319 0.58793 0.63016 0.0
C710 C 0.65582 0.60851 0.66444 0.0
C711 C 0.64821 0.6229 0.66546 0.0
C712 C 0.62825 0.61641 0.6305 0.0
C713 C 0.61642 0.59674 0.59238 0.0
C714 C 0.5946 0.59241 0.56738 0.0
C715 C 0.59209 0.59112 0.47123 0.0
C716 C 0.57698 0.57215 0.61012 0.0
C717 C 0.59546 0.61217 0.60149 0.0
C718 C 0.61503 0.62606 0.63642 0.0
C719 C 0.61884 0.64472 0.67667 0.0
C720 C 0.60225 0.64933 0.6804 0.0
C721 C 0.58209 0.63513 0.64515 0.0
C722 C 0.57886 0.61644 0.60499 0.0
H723 H 0.03229 0.60694 0.96136 0.0
H724 H 0.04885 0.66481 0.82297 0.0
H725 H 0.01102 0.65543 0.8254 0.0
H726 H 0.98674 0.57424 0.85418 0.0
H727 H 0.97249 0.55839 0.94415 0.0
H728 H 0.00099 0.57154 0.94173 0.0
H729 H 0.00266 0.59036 0.0827 0.0
H730 H 0.97404 0.57735 0.085 0.0
H731 H 0.98971 0.60596 0.09128 0.0
H732 H 0.97063 0.63726 0.82991 0.0
H733 H 0.93193 0.611 0.82713 0.0
H734 H 0.94344 0.56587 0.96195 0.0
C735 C 0.02813 0.61786 0.93219 0.0
C736 C 0.04347 0.63654 0.89156 0.0
C737 C 0.03729 0.65037 0.8545 0.0
C738 C 0.01591 0.64527 0.85612 0.0
C739 C 0.00114 0.6265 0.89614 0.0
C740 C 0.0071 0.61309 0.9336 0.0
C741 C 0.98828 0.5929 0.96546 0.0
C742 C 0.98706 0.57312 0.92384 0.0
C743 C 0.98871 0.59158 0.06184 0.0
C744 C 0.97058 0.59646 0.93644 0.0
C745 C 0.97817 0.61611 0.89844 0.0
C746 C 0.96451 0.62202 0.86086 0.0
C747 C 0.94264 0.60711 0.85975 0.0
C748 C 0.93502 0.58662 0.89449 0.0
C749 C 0.94904 0.58156 0.93554 0.0
H750 H 0.52038 0.10412 0.93946 0.0
H751 H 0.47389 0.09238 0.74593 0.0
H752 H 0.49324 0.08168 0.64751 0.0
H753 H 0.56257 0.13089 0.81309 0.0
H754 H 0.57939 0.12195 0.85957 0.0
H755 H 0.55892 0.12234 0.92129 0.0
H756 H 0.543 0.08222 0.95485 0.0
H757 H 0.56356 0.08178 0.89278 0.0
H758 H 0.53597 0.06339 0.87004 0.0
H759 H 0.51999 0.07792 0.56519 0.0
H760 H 0.55392 0.08604 0.49942 0.0
H761 H 0.5848 0.10331 0.74317 0.0
C762 C 0.51388 0.09834 0.87745 0.0
C763 C 0.49548 0.0984 0.8502 0.0
C764 C 0.4878 0.09193 0.76769 0.0
C765 C 0.49859 0.08571 0.71187 0.0
C766 C 0.51714 0.08637 0.73961 0.0
C767 C 0.52484 0.09271 0.82039 0.0
C768 C 0.54712 0.09622 0.82955 0.0
C769 C 0.56291 0.11921 0.85742 0.0
C770 C 0.54742 0.07992 0.89041 0.0
C771 C 0.55121 0.0921 0.74019 0.0
C772 C 0.53342 0.08558 0.69021 0.0
C773 C 0.5339 0.0826 0.6039 0.0
C774 C 0.55325 0.08723 0.56711 0.0
C775 C 0.57194 0.09529 0.61639 0.0
C776 C 0.57069 0.097 0.70429 0.0
H777 H 0.4162 0.52662 0.11332 0.0
H778 H 0.39114 0.47612 0.9285 0.0
H779 H 0.4235 0.49652 0.84178 0.0
H780 H 0.43117 0.56574 0.97392 0.0
H781 H 0.45471 0.58544 0.02773 0.0
H782 H 0.4335 0.56443 0.08629 0.0
H783 H 0.45997 0.5536 0.1469 0.0
H784 H 0.4812 0.57478 0.08774 0.0
H785 H 0.47579 0.5478 0.07614 0.0
H786 H 0.45457 0.5244 0.76491 0.0
H787 H 0.47904 0.55845 0.69598 0.0
H788 H 0.48241 0.5922 0.9258 0.0
C789 C 0.41816 0.51954 0.05649 0.0
C790 C 0.40178 0.49971 0.02798 0.0
C791 C 0.40396 0.49116 0.95152 0.0
C792 C 0.42229 0.50258 0.90244 0.0
C793 C 0.43801 0.52257 0.93061 0.0
C794 C 0.43607 0.53104 0.00589 0.0
C795 C 0.45272 0.55436 0.01383 0.0
C796 C 0.4424 0.56829 0.02605 0.0
C797 C 0.46835 0.55783 0.08539 0.0
C798 C 0.4634 0.55804 0.92898 0.0
C799 C 0.45533 0.53933 0.88347 0.0
C800 C 0.46133 0.53908 0.80045 0.0
C801 C 0.47525 0.55852 0.76179 0.0
C802 C 0.48254 0.57793 0.8056 0.0
C803 C 0.47715 0.57756 0.89109 0.0
H804 H 0.88998 0.46474 0.93081 0.0
H805 H 0.90779 0.51116 0.13008 0.0
H806 H 0.92047 0.49118 0.21568 0.0
H807 H 0.86583 0.42263 0.05792 0.0
H808 H 0.87274 0.40535 0.00177 0.0
H809 H 0.87154 0.42631 0.94688 0.0
H810 H 0.91037 0.44126 0.89613 0.0
H811 H 0.91163 0.42021 0.95139 0.0
H812 H 0.93116 0.44762 0.97194 0.0
H813 H 0.92538 0.46364 0.28736 0.0
H814 H 0.91727 0.42912 0.34762 0.0
H815 H 0.89322 0.39889 0.10591 0.0
C816 C 0.89752 0.47112 0.99091 0.0
C817 C 0.89864 0.48968 0.02354 0.0
C818 C 0.90737 0.49717 0.10397 0.0
C819 C 0.9147 0.486 0.15245 0.0
C820 C 0.91283 0.46727 0.11969 0.0
C821 C 0.90427 0.45979 0.04082 0.0
C822 C 0.89978 0.43726 0.02704 0.0
C823 C 0.87608 0.42201 0.00735 0.0
C824 C 0.9141 0.43656 0.95751 0.0
C825 C 0.90593 0.43276 0.11222 0.0
C826 C 0.91429 0.45056 0.16342 0.0
C827 C 0.91926 0.44972 0.24744 0.0
C828 C 0.91464 0.43002 0.2811 0.0
C829 C 0.9046 0.41135 0.23129 0.0
C830 C 0.90107 0.41296 0.14506 0.0
H831 H 0.45478 0.87648 0.42673 0.0
H832 H 0.50708 0.90318 0.24989 0.0
H833 H 0.48621 0.91276 0.15427 0.0
H834 H 0.4162 0.85064 0.27902 0.0
H835 H 0.39598 0.85426 0.3293 0.0
H836 H 0.41656 0.85412 0.39137 0.0
H837 H 0.42658 0.89116 0.45172 0.0
H838 H 0.40602 0.89144 0.3892 0.0
H839 H 0.43307 0.913 0.381 0.0
H840 H 0.45854 0.91557 0.07235 0.0
H841 H 0.42518 0.9076 0.00175 0.0
H842 H 0.38984 0.87656 0.22818 0.0
C843 C 0.46199 0.88505 0.36914 0.0
C844 C 0.48256 0.88971 0.3458 0.0
C845 C 0.49142 0.89999 0.26878 0.0
C846 C 0.47974 0.90554 0.21466 0.0
C847 C 0.45923 0.90044 0.23863 0.0
C848 C 0.45036 0.89026 0.31384 0.0
C849 C 0.427 0.88348 0.31889 0.0
C850 C 0.41313 0.85919 0.33024 0.0
C851 C 0.42294 0.89549 0.38939 0.0
C852 C 0.42387 0.89054 0.23323 0.0
C853 C 0.4428 0.90094 0.18913 0.0
C854 C 0.44368 0.90774 0.10662 0.0
C855 C 0.42462 0.90317 0.06712 0.0
C856 C 0.40493 0.89146 0.10958 0.0
C857 C 0.40468 0.88564 0.19442 0.0
H858 H 0.56601 0.46874 0.58946 0.0
H859 H 0.59939 0.51363 0.3894 0.0
H860 H 0.56779 0.49476 0.29773 0.0
H861 H 0.5482 0.42613 0.46828 0.0
H862 H 0.52285 0.40993 0.51885 0.0
H863 H 0.54449 0.43055 0.57698 0.0
H864 H 0.52131 0.44738 0.61337 0.0
H865 H 0.49948 0.42664 0.55495 0.0
H866 H 0.50894 0.4542 0.53012 0.0
H867 H 0.53619 0.46789 0.22087 0.0
H868 H 0.51008 0.43344 0.15913 0.0
H869 H 0.49845 0.40403 0.40536 0.0
C870 C 0.56611 0.4751 0.52773 0.0
C871 C 0.58462 0.49285 0.49659 0.0
C872 C 0.585 0.50027 0.41427 0.0
C873 C 0.5671 0.48973 0.36227 0.0
C874 C 0.54919 0.47168 0.39351 0.0
C875 C 0.54862 0.46433 0.4744 0.0
C876 C 0.52971 0.44224 0.48688 0.0
C877 C 0.53675 0.42629 0.51424 0.0
C878 C 0.51392 0.44265 0.55007 0.0
C879 C 0.52058 0.43771 0.39893 0.0
C880 C 0.53142 0.45523 0.34708 0.0
C881 C 0.52727 0.45421 0.26116 0.0
C882 C 0.51237 0.43456 0.22662 0.0
C883 C 0.50229 0.41613 0.2777 0.0
C884 C 0.50582 0.41796 0.36525 0.0
H885 H 0.09 0.52317 0.42419 0.0
H886 H 0.07578 0.4766 0.62002 0.0
H887 H 0.0638 0.4959 0.71291 0.0
H888 H 0.11569 0.56464 0.54806 0.0
H889 H 0.10776 0.58206 0.49956 0.0
H890 H 0.10775 0.56122 0.43914 0.0
H891 H 0.06802 0.54626 0.40209 0.0
H892 H 0.06798 0.56727 0.46252 0.0
H893 H 0.04885 0.53985 0.48509 0.0
H894 H 0.06085 0.52341 0.79279 0.0
H895 H 0.07078 0.55799 0.85766 0.0
H896 H 0.08978 0.58842 0.61355 0.0
C897 C 0.0832 0.51653 0.485 0.0
C898 C 0.08303 0.49818 0.5147 0.0
C899 C 0.07538 0.49038 0.59609 0.0
C900 C 0.06849 0.50119 0.64885 0.0
C901 C 0.06968 0.51989 0.61933 0.0
C902 C 0.07691 0.52753 0.53909 0.0
C903 C 0.08122 0.5501 0.52873 0.0
C904 C 0.10447 0.56538 0.50244 0.0
C905 C 0.06557 0.55091 0.46589 0.0
C906 C 0.07683 0.5545 0.61722 0.0
C907 C 0.06927 0.5366 0.6675 0.0
C908 C 0.06626 0.5374 0.75369 0.0
C909 C 0.07195 0.55713 0.79005 0.0
C910 C 0.08106 0.57584 0.74046 0.0
C911 C 0.08268 0.5743 0.65265 0.0
H912 H 0.48109 0.21116 0.97254 0.0
H913 H 0.43619 0.16941 0.16037 0.0
H914 H 0.44099 0.20051 0.24025 0.0
H915 H 0.51619 0.25553 0.1171 0.0
H916 H 0.51962 0.2757 0.04242 0.0
H917 H 0.51562 0.25041 0.00596 0.0
H918 H 0.48331 0.24487 0.91694 0.0
H919 H 0.48745 0.2702 0.95211 0.0
H920 H 0.46196 0.24655 0.96731 0.0
H921 H 0.44705 0.2345 0.29129 0.0
H922 H 0.45076 0.27008 0.30224 0.0
H923 H 0.49136 0.29083 0.08223 0.0
C924 C 0.47253 0.20872 0.03102 0.0
C925 C 0.45825 0.18806 0.06049 0.0
C926 C 0.447 0.18521 0.13643 0.0
C927 C 0.44989 0.20274 0.18291 0.0
C928 C 0.46401 0.22294 0.15232 0.0
C929 C 0.47495 0.22611 0.07765 0.0
C930 C 0.48686 0.24943 0.05359 0.0
C931 C 0.51101 0.25828 0.05488 0.0
C932 C 0.47944 0.25296 0.96744 0.0
C933 C 0.48007 0.25864 0.12448 0.0
C934 C 0.4674 0.24307 0.18193 0.0
C935 C 0.4573 0.24697 0.24808 0.0
C936 C 0.45945 0.26712 0.25379 0.0
C937 C 0.47158 0.28292 0.19378 0.0
C938 C 0.48259 0.279 0.13004 0.0
H939 H 0.17919 0.44398 0.33488 0.0
H940 H 0.20394 0.51152 0.37825 0.0
H941 H 0.23847 0.5193 0.31817 0.0
H942 H 0.22722 0.44332 0.38345 0.0
H943 H 0.22263 0.42405 0.30275 0.0
H944 H 0.20044 0.42416 0.35257 0.0
H945 H 0.18661 0.42754 0.20618 0.0
H946 H 0.20897 0.42784 0.15601 0.0
H947 H 0.20375 0.44933 0.13814 0.0
H948 H 0.26987 0.51951 0.24859 0.0
H949 H 0.29647 0.51185 0.18599 0.0
H950 H 0.2498 0.44427 0.18697 0.0
C951 C 0.19187 0.46043 0.3328 0.0
C952 C 0.18885 0.47713 0.36121 0.0
C953 C 0.20592 0.49843 0.35707 0.0
C954 C 0.22554 0.50303 0.32267 0.0
C955 C 0.22769 0.48615 0.29299 0.0
C956 C 0.21136 0.46529 0.29855 0.0
C957 C 0.21749 0.44998 0.26177 0.0
C958 C 0.21692 0.43447 0.32916 0.0
C959 C 0.20336 0.43798 0.18603 0.0
C960 C 0.23991 0.46549 0.23474 0.0
C961 C 0.24554 0.48628 0.25276 0.0
C962 C 0.26566 0.50328 0.23419 0.0
C963 C 0.28059 0.49878 0.19823 0.0
C964 C 0.2752 0.47745 0.1818 0.0
C965 C 0.25446 0.46074 0.19886 0.0
H966 H 0.72702 0.18589 0.48217 0.0
H967 H 0.68389 0.21108 0.48412 0.0
H968 H 0.71364 0.24653 0.44517 0.0
H969 H 0.77236 0.23238 0.5687 0.0
H970 H 0.79101 0.22926 0.50407 0.0
H971 H 0.76636 0.20623 0.53489 0.0
H972 H 0.7574 0.19563 0.37811 0.0
H973 H 0.78191 0.21872 0.34676 0.0
H974 H 0.75699 0.21445 0.30515 0.0
H975 H 0.74796 0.27879 0.4006 0.0
H976 H 0.7846 0.30581 0.36071 0.0
H977 H 0.80425 0.25853 0.38887 0.0
C978 C 0.72376 0.19883 0.47489 0.0
C979 C 0.70316 0.19574 0.48596 0.0
C980 C 0.69962 0.21314 0.47619 0.0
C981 C 0.71636 0.23329 0.45386 0.0
C982 C 0.73643 0.23565 0.44215 0.0
C983 C 0.74018 0.21892 0.45298 0.0
C984 C 0.76307 0.22545 0.43609 0.0
C985 C 0.77383 0.2232 0.51569 0.0
C986 C 0.76494 0.21281 0.36212 0.0
C987 C 0.77161 0.24847 0.41328 0.0
C988 C 0.75607 0.25412 0.41702 0.0
C989 C 0.76031 0.2746 0.39774 0.0
C990 C 0.78112 0.28978 0.37489 0.0
C991 C 0.79729 0.28428 0.3718 0.0
C992 C 0.79231 0.26331 0.39083 0.0
H993 H 0.502 0.78081 0.47555 0.0
H994 H 0.55175 0.82492 0.64368 0.0
H995 H 0.54979 0.79494 0.72254 0.0
H996 H 0.47165 0.73855 0.63363 0.0
H997 H 0.46603 0.71732 0.56089 0.0
H998 H 0.469 0.7421 0.52298 0.0
H999 H 0.49848 0.74619 0.41991 0.0
H1000 H 0.49539 0.72136 0.45677 0.0
H1001 H 0.52115 0.74516 0.4602 0.0
H1002 H 0.54545 0.76172 0.77485 0.0
H1003 H 0.54122 0.72603 0.79041 0.0
H1004 H 0.49443 0.70226 0.59032 0.0
C1005 C 0.51227 0.78403 0.52948 0.0
C1006 C 0.52708 0.80508 0.55342 0.0
C1007 C 0.5405 0.80886 0.62363 0.0
C1008 C 0.53929 0.79196 0.66964 0.0
C1009 C 0.52463 0.77141 0.64453 0.0
C1010 C 0.5115 0.76725 0.57571 0.0
C1011 C 0.49892 0.74361 0.5572 0.0
C1012 C 0.47498 0.73488 0.56943 0.0
C1013 C 0.50379 0.73881 0.46828 0.0
C1014 C 0.50772 0.73534 0.62447 0.0
C1015 C 0.52214 0.7517 0.6752 0.0
C1016 C 0.53393 0.74866 0.73685 0.0
C1017 C 0.53147 0.72844 0.74511 0.0
C1018 C 0.51736 0.71167 0.69213 0.0
C1019 C 0.50485 0.71487 0.63278 0.0
H1020 H 0.80155 0.54405 0.85823 0.0
H1021 H 0.78041 0.47644 0.85446 0.0
H1022 H 0.74655 0.46927 0.78907 0.0
H1023 H 0.7501 0.53906 0.90159 0.0
H1024 H 0.7556 0.56132 0.83488 0.0
H1025 H 0.77707 0.56045 0.88776 0.0
H1026 H 0.79584 0.56495 0.74419 0.0
H1027 H 0.77424 0.56539 0.69067 0.0
H1028 H 0.78192 0.54621 0.6609 0.0
H1029 H 0.71599 0.47012 0.71551 0.0
H1030 H 0.69025 0.47862 0.65012 0.0
H1031 H 0.73307 0.54579 0.70061 0.0
C1032 C 0.78974 0.52766 0.8449 0.0
C1033 C 0.79362 0.51081 0.86124 0.0
C1034 C 0.7777 0.4896 0.84284 0.0
C1035 C 0.75849 0.48538 0.80535 0.0
C1036 C 0.75557 0.50254 0.78734 0.0
C1037 C 0.77069 0.52321 0.8075 0.0
C1038 C 0.7642 0.53899 0.77959 0.0
C1039 C 0.76158 0.55063 0.85547 0.0
C1040 C 0.77999 0.55481 0.715 0.0
C1041 C 0.74311 0.52401 0.73959 0.0
C1042 C 0.7383 0.50305 0.74461 0.0
C1043 C 0.71954 0.48647 0.71155 0.0
C1044 C 0.7051 0.49147 0.67414 0.0
C1045 C 0.70964 0.51288 0.67021 0.0
C1046 C 0.72907 0.52927 0.70232 0.0
H1047 H 0.19669 0.70041 0.93623 0.0
H1048 H 0.1772 0.72016 0.71231 0.0
H1049 H 0.21172 0.75359 0.70874 0.0
H1050 H 0.21871 0.74849 0.03379 0.0
H1051 H 0.24077 0.74782 0.08257 0.0
H1052 H 0.21694 0.72335 0.05765 0.0
H1053 H 0.23878 0.711 0.96942 0.0
H1054 H 0.26281 0.73542 0.99474 0.0
H1055 H 0.25581 0.72783 0.88646 0.0
H1056 H 0.24409 0.78617 0.74125 0.0
H1057 H 0.27375 0.8174 0.80844 0.0
H1058 H 0.27331 0.77785 0.01406 0.0
C1059 C 0.20018 0.71157 0.88518 0.0
C1060 C 0.18478 0.70799 0.82389 0.0
C1061 C 0.18915 0.7229 0.75917 0.0
C1062 C 0.20867 0.74174 0.75637 0.0
C1063 C 0.22345 0.74528 0.81906 0.0
C1064 C 0.21956 0.73067 0.88229 0.0
C1065 C 0.23691 0.73983 0.94836 0.0
C1066 C 0.22778 0.73987 0.03571 0.0
C1067 C 0.24932 0.7278 0.94978 0.0
C1068 C 0.25045 0.76218 0.91453 0.0
C1069 C 0.24254 0.76472 0.83897 0.0
C1070 C 0.25077 0.78434 0.79934 0.0
C1071 C 0.2674 0.80198 0.83842 0.0
C1072 C 0.27558 0.79983 0.91621 0.0
C1073 C 0.26741 0.77967 0.95393 0.0
H1074 H 0.51384 0.14816 0.26122 0.0
H1075 H 0.54466 0.1736 0.0217 0.0
H1076 H 0.57942 0.184 0.08552 0.0
H1077 H 0.56081 0.18824 0.39923 0.0
H1078 H 0.55509 0.16759 0.47511 0.0
H1079 H 0.53371 0.16754 0.41722 0.0
H1080 H 0.52122 0.12912 0.36729 0.0
H1081 H 0.54256 0.12906 0.42363 0.0
H1082 H 0.53964 0.12357 0.31241 0.0
H1083 H 0.60776 0.18126 0.16038 0.0
H1084 H 0.62852 0.16985 0.24757 0.0
H1085 H 0.58089 0.14937 0.44315 0.0
C1086 C 0.52805 0.15678 0.22333 0.0
C1087 C 0.52662 0.16008 0.13674 0.0
C1088 C 0.54544 0.17114 0.08847 0.0
C1089 C 0.56527 0.1771 0.12422 0.0
C1090 C 0.56603 0.17244 0.20874 0.0
C1091 C 0.54797 0.1631 0.25846 0.0
C1092 C 0.55256 0.15731 0.34427 0.0
C1093 C 0.55043 0.17099 0.41302 0.0
C1094 C 0.53816 0.13336 0.36285 0.0
C1095 C 0.57553 0.16315 0.33249 0.0
C1096 C 0.58313 0.17214 0.25427 0.0
C1097 C 0.60245 0.17522 0.22323 0.0
C1098 C 0.6141 0.16865 0.27272 0.0
C1099 C 0.60649 0.1595 0.35256 0.0
C1100 C 0.58736 0.15729 0.38373 0.0
H1101 H 0.39939 0.54642 0.21736 0.0
H1102 H 0.34842 0.52206 0.39993 0.0
H1103 H 0.36967 0.55354 0.49021 0.0
H1104 H 0.43801 0.55926 0.36007 0.0
H1105 H 0.4584 0.58266 0.30765 0.0
H1106 H 0.43714 0.56205 0.24778 0.0
H1107 H 0.42796 0.58981 0.18787 0.0
H1108 H 0.4493 0.6104 0.24865 0.0
H1109 H 0.42265 0.60591 0.25908 0.0
H1110 H 0.39807 0.58385 0.5697 0.0
H1111 H 0.43219 0.60765 0.63968 0.0
H1112 H 0.46584 0.61077 0.41 0.0
C1113 C 0.39244 0.54838 0.27453 0.0
C1114 C 0.37217 0.53243 0.30116 0.0
C1115 C 0.36378 0.53456 0.3782 0.0
C1116 C 0.3757 0.5524 0.42938 0.0
C1117 C 0.39602 0.56769 0.40281 0.0
C1118 C 0.4044 0.56578 0.32722 0.0
C1119 C 0.42791 0.58187 0.32066 0.0
C1120 C 0.44113 0.5708 0.30842 0.0
C1121 C 0.4322 0.59795 0.24987 0.0
C1122 C 0.43169 0.59232 0.40612 0.0
C1123 C 0.41298 0.58451 0.45124 0.0
C1124 C 0.41276 0.5904 0.5345 0.0
C1125 C 0.43223 0.60396 0.57374 0.0
C1126 C 0.45162 0.61102 0.5302 0.0
C1127 C 0.45123 0.60572 0.44454 0.0
H1128 H 0.8522 0.40652 0.42507 0.0
H1129 H 0.83364 0.35669 0.61077 0.0
H1130 H 0.8224 0.37603 0.70703 0.0
H1131 H 0.87746 0.44683 0.56336 0.0
H1132 H 0.87075 0.46516 0.5148 0.0
H1133 H 0.87167 0.44503 0.45244 0.0
H1134 H 0.83287 0.43127 0.40384 0.0
H1135 H 0.8319 0.45149 0.46643 0.0
H1136 H 0.81218 0.42386 0.48115 0.0
H1137 H 0.81827 0.40269 0.78954 0.0
H1138 H 0.82547 0.43603 0.85868 0.0
H1139 H 0.84938 0.46996 0.62309 0.0
C1140 C 0.84486 0.39935 0.4846 0.0
C1141 C 0.84308 0.37996 0.51029 0.0
C1142 C 0.83457 0.37136 0.59 0.0
C1143 C 0.82808 0.38217 0.64459 0.0
C1144 C 0.83051 0.40164 0.61858 0.0
C1145 C 0.83884 0.41025 0.54056 0.0
C1146 C 0.84353 0.43302 0.53379 0.0
C1147 C 0.86725 0.4484 0.51508 0.0
C1148 C 0.82926 0.43502 0.46737 0.0
C1149 C 0.83755 0.43621 0.62149 0.0
C1150 C 0.82936 0.41771 0.66835 0.0
C1151 C 0.8243 0.41718 0.75313 0.0
C1152 C 0.82842 0.43621 0.79186 0.0
C1153 C 0.83798 0.45557 0.74618 0.0
C1154 C 0.84192 0.45536 0.65935 0.0
H1155 H 0.39904 0.84349 0.92265 0.0
H1156 H 0.35156 0.81968 0.72604 0.0
H1157 H 0.37314 0.80813 0.64457 0.0
H1158 H 0.44033 0.86823 0.79351 0.0
H1159 H 0.45894 0.86371 0.85233 0.0
H1160 H 0.43724 0.86384 0.90548 0.0
H1161 H 0.42497 0.82609 0.9641 0.0
H1162 H 0.44677 0.8259 0.91064 0.0
H1163 H 0.41988 0.80474 0.89278 0.0
H1164 H 0.40219 0.80524 0.57504 0.0
H1165 H 0.4373 0.81531 0.51531 0.0
H1166 H 0.46704 0.84343 0.75368 0.0
C1167 C 0.39285 0.8349 0.8642 0.0
C1168 C 0.37354 0.83176 0.83105 0.0
C1169 C 0.36615 0.82161 0.7527 0.0
C1170 C 0.37824 0.81494 0.70656 0.0
C1171 C 0.39767 0.8188 0.73975 0.0
C1172 C 0.40496 0.82865 0.81688 0.0
C1173 C 0.42797 0.83493 0.83117 0.0
C1174 C 0.44192 0.8591 0.8464 0.0
C1175 C 0.43001 0.82214 0.90398 0.0
C1176 C 0.43293 0.82836 0.74789 0.0
C1177 C 0.41505 0.81827 0.69743 0.0
C1178 C 0.41619 0.81268 0.61456 0.0
C1179 C 0.43622 0.81842 0.5812 0.0
C1180 C 0.45483 0.83013 0.63011 0.0
C1181 C 0.453 0.83429 0.71537 0.0
H1182 H 0.61312 0.4721 0.90172 0.0
H1183 H 0.60579 0.43749 0.67011 0.0
H1184 H 0.58136 0.40384 0.74188 0.0
H1185 H 0.60723 0.42798 0.05013 0.0
H1186 H 0.59281 0.43469 0.12463 0.0
H1187 H 0.61339 0.45522 0.06086 0.0
H1188 H 0.58662 0.46626 0.00776 0.0
H1189 H 0.56598 0.44579 0.07042 0.0
H1190 H 0.56221 0.44661 0.95877 0.0
H1191 H 0.55148 0.37629 0.82559 0.0
H1192 H 0.5206 0.35634 0.91996 0.0
H1193 H 0.54871 0.40762 0.10111 0.0
C1194 C 0.60695 0.45734 0.86692 0.0
C1195 C 0.61132 0.45739 0.78039 0.0
C1196 C 0.60282 0.43782 0.73665 0.0
C1197 C 0.58893 0.4186 0.77696 0.0
C1198 C 0.58415 0.4192 0.86142 0.0
C1199 C 0.59328 0.43803 0.90651 0.0
C1200 C 0.58372 0.43477 0.99357 0.0
C1201 C 0.60028 0.43837 0.0613 0.0
C1202 C 0.57405 0.4492 0.00838 0.0
C1203 C 0.56672 0.41153 0.98821 0.0
C1204 C 0.56741 0.40273 0.91186 0.0
C1205 C 0.55128 0.38262 0.88695 0.0
C1206 C 0.53382 0.37141 0.94061 0.0
C1207 C 0.5329 0.38026 0.01841 0.0
C1208 C 0.54974 0.40024 0.04346 0.0
H1209 H 0.13768 0.52077 0.11917 0.0
H1210 H 0.16238 0.55495 0.35347 0.0
H1211 H 0.17262 0.58877 0.28084 0.0
H1212 H 0.17757 0.5655 0.97467 0.0
H1213 H 0.15714 0.55874 0.89678 0.0
H1214 H 0.15683 0.53818 0.96158 0.0
H1215 H 0.11844 0.52656 0.00833 0.0
H1216 H 0.11858 0.54701 0.94464 0.0
H1217 H 0.11288 0.54587 0.05543 0.0
H1218 H 0.17067 0.61619 0.19561 0.0
H1219 H 0.15951 0.6357 0.10005 0.0
H1220 H 0.13876 0.58506 0.91698 0.0
C1221 C 0.14598 0.53549 0.1544 0.0
C1222 C 0.14922 0.5353 0.2418 0.0
C1223 C 0.15992 0.55478 0.28625 0.0
C1224 C 0.16583 0.57407 0.24544 0.0
C1225 C 0.16141 0.57362 0.1599 0.0
C1226 C 0.15218 0.55487 0.11433 0.0
C1227 C 0.14661 0.5582 0.02605 0.0
C1228 C 0.16037 0.55497 0.96093 0.0
C1229 C 0.12272 0.54356 0.00767 0.0
C1230 C 0.15253 0.58135 0.03127 0.0
C1231 C 0.16139 0.59008 0.10856 0.0
C1232 C 0.16467 0.60994 0.13358 0.0
C1233 C 0.15828 0.6209 0.07925 0.0
C1234 C 0.14905 0.61206 0.00068 0.0
C1235 C 0.14676 0.59245 0.9753 0.0
loop_
_geom_bond_atom_site_label_1
_geom_bond_atom_site_label_2
_geom_bond_distance
_geom_bond_site_symmetry_2
_ccdc_geom_bond_type
Sc0 O3 2.025 . S
Sc0 O10 2.105 . S
Sc0 O13 2.105 . S
Sc0 O16 2.105 . S
Sc0 O19 2.105 1_554 S
Sc1 O3 2.025 1_556 S
Sc1 O11 2.105 . S
Sc1 O15 2.105 1_556 S
Sc1 O17 2.105 1_556 S
Sc1 O21 2.105 . S
Sc2 O3 2.025 . S
Sc2 O12 2.105 1_554 S
Sc2 O14 2.105 . S
Sc2 O18 2.105 . S
Sc2 O20 2.103 1_554 S
O3 Sc0 2.025 . S
O3 Sc1 2.025 1_554 S
O3 Sc2 2.025 . S
C4 O10 1.268 . S
C4 O20 1.268 1_554 S
C5 O11 1.268 . S
C5 O19 1.268 . S
C6 O12 1.268 . S
C6 O21 1.268 . S
C7 O13 1.268 . S
C7 O17 1.268 . S
C8 O14 1.268 . S
C8 O16 1.268 . S
C9 O15 1.268 . S
C9 O18 1.268 . S
O10 Sc0 2.105 . S
O10 C4 1.268 . S
O11 Sc1 2.105 . S
O11 C5 1.268 . S
O12 Sc2 2.105 1_556 S
O12 C6 1.268 . S
O13 Sc0 2.105 . S
O13 C7 1.268 . S
O14 Sc2 2.105 . S
O14 C8 1.268 . S
O15 Sc1 2.105 1_554 S
O15 C9 1.268 . S
O16 Sc0 2.105 . S
O16 C8 1.268 . S
O17 Sc1 2.105 1_554 S
O17 C7 1.268 . S
O18 Sc2 2.105 . S
O18 C9 1.268 . S
O19 Sc0 2.105 1_556 S
O19 C5 1.268 . S
O20 Sc2 2.103 1_556 S
O20 C4 1.268 1_556 S
O21 Sc1 2.105 . S
O21 C6 1.268 . S
Sc22 O25 2.025 . S
Sc22 O32 2.105 . S
Sc22 O35 2.105 . S
Sc22 O38 2.105 . S
Sc22 O41 2.105 . S
Sc23 O25 2.025 . S
Sc23 O33 2.105 . S
Sc23 O37 2.105 . S
Sc23 O39 2.105 . S
Sc23 O43 2.105 . S
Sc24 O25 2.025 . S
Sc24 O34 2.105 . S
Sc24 O36 2.105 . S
Sc24 O40 2.105 . S
Sc24 O42 2.105 . S
O25 Sc22 2.025 . S
O25 Sc23 2.025 . S
O25 Sc24 2.025 . S
C26 O32 1.268 . S
C26 O42 1.268 . S
C27 O33 1.268 . S
C27 O41 1.268 . S
C28 O34 1.268 . S
C28 O43 1.268 . S
C29 O35 1.268 . S
C29 O39 1.268 . S
C30 O36 1.268 . S
C30 O38 1.268 . S
C31 O37 1.268 . S
C31 O40 1.268 . S
O32 Sc22 2.105 . S
O32 C26 1.268 . S
O33 Sc23 2.105 . S
O33 C27 1.268 . S
O34 Sc24 2.105 . S
O34 C28 1.268 . S
O35 Sc22 2.105 . S
O35 C29 1.268 . S
O36 Sc24 2.105 . S
O36 C30 1.268 . S
O37 Sc23 2.105 . S
O37 C31 1.268 . S
O38 Sc22 2.105 . S
O38 C30 1.268 . S
O39 Sc23 2.105 . S
O39 C29 1.268 . S
O40 Sc24 2.105 . S
O40 C31 1.268 . S
O41 Sc22 2.105 . S
O41 C27 1.268 . S
O42 Sc24 2.105 . S
O42 C26 1.268 . S
O43 Sc23 2.105 . S
O43 C28 1.268 . S
Sc44 O47 2.025 . S
Sc44 O54 2.105 . S
Sc44 O57 2.105 . S
Sc44 O60 2.105 . S
Sc44 O63 2.105 . S
Sc45 O47 2.025 . S
Sc45 O55 2.105 . S
Sc45 O59 2.105 . S
Sc45 O61 2.105 . S
Sc45 O65 2.105 . S
Sc46 O47 2.025 . S
Sc46 O56 2.105 . S
Sc46 O58 2.105 . S
Sc46 O62 2.105 . S
Sc46 O64 2.105 . S
O47 Sc44 2.025 . S
O47 Sc45 2.025 . S
O47 Sc46 2.025 . S
C48 O54 1.268 . S
C48 O64 1.268 . S
C49 O55 1.268 . S
C49 O63 1.268 . S
C50 O56 1.268 . S
C50 O65 1.268 . S
C51 O57 1.268 . S
C51 O61 1.268 . S
C52 O58 1.268 . S
C52 O60 1.268 . S
C53 O59 1.268 . S
C53 O62 1.268 . S
O54 Sc44 2.105 . S
O54 C48 1.268 . S
O55 Sc45 2.105 . S
O55 C49 1.268 . S
O56 Sc46 2.105 . S
O56 C50 1.268 . S
O57 Sc44 2.105 . S
O57 C51 1.268 . S
O58 Sc46 2.105 . S
O58 C52 1.268 . S
O59 Sc45 2.105 . S
O59 C53 1.268 . S
O60 Sc44 2.105 . S
O60 C52 1.268 . S
O61 Sc45 2.105 . S
O61 C51 1.268 . S
O62 Sc46 2.105 . S
O62 C53 1.268 . S
O63 Sc44 2.105 . S
O63 C49 1.268 . S
O64 Sc46 2.105 . S
O64 C48 1.268 . S
O65 Sc45 2.105 . S
O65 C50 1.268 . S
Sc66 O69 2.025 . S
Sc66 O76 2.105 . S
Sc66 O79 2.105 . S
Sc66 O82 2.105 . S
Sc66 O85 2.105 . S
Sc67 O69 2.025 . S
Sc67 O77 2.105 . S
Sc67 O81 2.105 . S
Sc67 O83 2.105 . S
Sc67 O87 2.105 . S
Sc68 O69 2.025 . S
Sc68 O78 2.105 . S
Sc68 O80 2.105 . S
Sc68 O84 2.105 . S
Sc68 O86 2.105 . S
O69 Sc66 2.025 . S
O69 Sc67 2.025 . S
O69 Sc68 2.025 . S
C70 O76 1.268 . S
C70 O86 1.268 . S
C71 O77 1.268 . S
C71 O85 1.268 . S
C72 O78 1.268 . S
C72 O87 1.268 . S
C73 O79 1.268 . S
C73 O83 1.268 . S
C74 O80 1.268 . S
C74 O82 1.268 . S
C75 O81 1.268 . S
C75 O84 1.268 . S
O76 Sc66 2.105 . S
O76 C70 1.268 . S
O77 Sc67 2.105 . S
O77 C71 1.268 . S
O78 Sc68 2.105 . S
O78 C72 1.268 . S
O79 Sc66 2.105 . S
O79 C73 1.268 . S
O80 Sc68 2.105 . S
O80 C74 1.268 . S
O81 Sc67 2.105 . S
O81 C75 1.268 . S
O82 Sc66 2.105 . S
O82 C74 1.268 . S
O83 Sc67 2.105 . S
O83 C73 1.268 . S
O84 Sc68 2.105 . S
O84 C75 1.268 . S
O85 Sc66 2.105 . S
O85 C71 1.268 . S
O86 Sc68 2.105 . S
O86 C70 1.268 . S
O87 Sc67 2.105 . S
O87 C72 1.268 . S
Sc88 O91 2.025 . S
Sc88 O98 2.105 . S
Sc88 O101 2.105 . S
Sc88 O104 2.105 . S
Sc88 O107 2.105 . S
Sc89 O91 2.025 . S
Sc89 O99 2.105 . S
Sc89 O103 2.105 . S
Sc89 O105 2.105 . S
Sc89 O109 2.105 . S
Sc90 O91 2.025 . S
Sc90 O100 2.105 . S
Sc90 O102 2.105 . S
Sc90 O106 2.105 . S
Sc90 O108 2.105 . S
O91 Sc88 2.025 . S
O91 Sc89 2.025 . S
O91 Sc90 2.025 . S
C92 O98 1.268 . S
C92 O108 1.268 . S
C93 O99 1.268 . S
C93 O107 1.268 . S
C94 O100 1.268 . S
C94 O109 1.268 . S
C95 O101 1.268 . S
C95 O105 1.268 . S
C96 O102 1.268 . S
C96 O104 1.268 . S
C97 O103 1.268 . S
C97 O106 1.268 . S
O98 Sc88 2.105 . S
O98 C92 1.268 . S
O99 Sc89 2.105 . S
O99 C93 1.268 . S
O100 Sc90 2.105 . S
O100 C94 1.268 . S
O101 Sc88 2.105 . S
O101 C95 1.268 . S
O102 Sc90 2.105 . S
O102 C96 1.268 . S
O103 Sc89 2.105 . S
O103 C97 1.268 . S
O104 Sc88 2.105 . S
O104 C96 1.268 . S
O105 Sc89 2.105 . S
O105 C95 1.268 . S
O106 Sc90 2.105 . S
O106 C97 1.268 . S
O107 Sc88 2.105 . S
O107 C93 1.268 . S
O108 Sc90 2.105 . S
O108 C92 1.268 . S
O109 Sc89 2.105 . S
O109 C94 1.268 . S
Sc110 O113 2.025 . S
Sc110 O120 2.105 . S
Sc110 O123 2.105 . S
Sc110 O126 2.105 1_556 S
Sc110 O129 2.105 . S
Sc111 O113 2.025 . S
Sc111 O121 2.105 . S
Sc111 O125 2.105 . S
Sc111 O127 2.105 . S
Sc111 O131 2.105 . S
Sc112 O113 2.025 . S
Sc112 O122 2.105 . S
Sc112 O124 2.105 . S
Sc112 O128 2.105 . S
Sc112 O130 2.105 . S
O113 Sc110 2.025 . S
O113 Sc111 2.025 . S
O113 Sc112 2.025 . S
C114 O120 1.268 . S
C114 O130 1.268 . S
C115 O121 1.268 . S
C115 O129 1.268 . S
C116 O122 1.268 . S
C116 O131 1.268 . S
C117 O123 1.268 . S
C117 O127 1.268 . S
C118 O124 1.268 1_554 S
C118 O126 1.268 . S
C119 O125 1.268 . S
C119 O128 1.268 . S
O120 Sc110 2.105 . S
O120 C114 1.268 . S
O121 Sc111 2.105 . S
O121 C115 1.268 . S
O122 Sc112 2.105 . S
O122 C116 1.268 . S
O123 Sc110 2.105 . S
O123 C117 1.268 . S
O124 Sc112 2.105 . S
O124 C118 1.268 1_556 S
O125 Sc111 2.105 . S
O125 C119 1.268 . S
O126 Sc110 2.105 1_554 S
O126 C118 1.268 . S
O127 Sc111 2.105 . S
O127 C117 1.268 . S
O128 Sc112 2.105 . S
O128 C119 1.268 . S
O129 Sc110 2.105 . S
O129 C115 1.268 . S
O130 Sc112 2.105 . S
O130 C114 1.268 . S
O131 Sc111 2.105 . S
O131 C116 1.268 . S
Sc132 O135 2.025 . S
Sc132 O142 2.105 . S
Sc132 O145 2.105 . S
Sc132 O148 2.105 . S
Sc132 O151 2.105 . S
Sc133 O135 2.025 . S
Sc133 O143 2.105 . S
Sc133 O147 2.105 . S
Sc133 O149 2.105 . S
Sc133 O153 2.105 . S
Sc134 O135 2.025 . S
Sc134 O144 2.105 . S
Sc134 O146 2.105 . S
Sc134 O150 2.105 . S
Sc134 O152 2.105 . S
O135 Sc132 2.025 . S
O135 Sc133 2.025 . S
O135 Sc134 2.025 . S
C136 O142 1.268 . S
C136 O152 1.268 . S
C137 O143 1.268 . S
C137 O151 1.268 . S
C138 O144 1.268 . S
C138 O153 1.268 . S
C139 O145 1.268 1_554 S
C139 O149 1.268 1_554 S
C140 O146 1.268 . S
C140 O148 1.268 . S
C141 O147 1.268 . S
C141 O150 1.268 . S
O142 Sc132 2.105 . S
O142 C136 1.268 . S
O143 Sc133 2.105 . S
O143 C137 1.268 . S
O144 Sc134 2.105 . S
O144 C138 1.268 . S
O145 Sc132 2.105 . S
O145 C139 1.268 1_556 S
O146 Sc134 2.105 . S
O146 C140 1.268 . S
O147 Sc133 2.105 . S
O147 C141 1.268 . S
O148 Sc132 2.105 . S
O148 C140 1.268 . S
O149 Sc133 2.105 . S
O149 C139 1.268 1_556 S
O150 Sc134 2.105 . S
O150 C141 1.268 . S
O151 Sc132 2.105 . S
O151 C137 1.268 . S
O152 Sc134 2.105 . S
O152 C136 1.268 . S
O153 Sc133 2.105 . S
O153 C138 1.268 . S
Sc154 O157 2.025 . S
Sc154 O164 2.105 . S
Sc154 O167 2.105 1_556 S
Sc154 O170 2.105 1_556 S
Sc154 O173 2.105 . S
Sc155 O157 2.025 1_554 S
Sc155 O165 2.105 . S
Sc155 O169 2.105 . S
Sc155 O171 2.105 . S
Sc155 O175 2.105 1_554 S
Sc156 O157 2.025 . S
Sc156 O166 2.105 . S
Sc156 O168 2.105 . S
Sc156 O172 2.105 1_556 S
Sc156 O174 2.105 . S
O157 Sc154 2.025 . S
O157 Sc155 2.025 1_556 S
O157 Sc156 2.025 . S
C158 O164 1.268 . S
C158 O174 1.268 . S
C159 O165 1.268 1_556 S
C159 O173 1.268 . S
C160 O166 1.268 . S
C160 O175 1.268 . S
C161 O167 1.268 . S
C161 O171 1.268 . S
C162 O168 1.268 1_554 S
C162 O170 1.268 . S
C163 O169 1.268 . S
C163 O172 1.268 . S
O164 Sc154 2.105 . S
O164 C158 1.268 . S
O165 Sc155 2.105 . S
O165 C159 1.268 1_554 S
O166 Sc156 2.105 . S
O166 C160 1.268 . S
O167 Sc154 2.105 1_554 S
O167 C161 1.268 . S
O168 Sc156 2.105 . S
O168 C162 1.268 1_556 S
O169 Sc155 2.105 . S
O169 C163 1.268 . S
O170 Sc154 2.105 1_554 S
O170 C162 1.268 . S
O171 Sc155 2.105 . S
O171 C161 1.268 . S
O172 Sc156 2.105 1_554 S
O172 C163 1.268 . S
O173 Sc154 2.105 . S
O173 C159 1.268 . S
O174 Sc156 2.105 . S
O174 C158 1.268 . S
O175 Sc155 2.105 1_556 S
O175 C160 1.268 . S
Sc176 O179 2.025 . S
Sc176 O186 2.105 . S
Sc176 O189 2.105 . S
Sc176 O192 2.105 . S
Sc176 O195 2.105 . S
Sc177 O179 2.025 . S
Sc177 O187 2.105 . S
Sc177 O191 2.105 . S
Sc177 O193 2.105 . S
Sc177 O197 2.105 . S
Sc178 O179 2.025 . S
Sc178 O188 2.105 . S
Sc178 O190 2.105 . S
Sc178 O194 2.105 . S
Sc178 O196 2.105 1_554 S
O179 Sc176 2.025 . S
O179 Sc177 2.025 . S
O179 Sc178 2.025 . S
C180 O186 1.268 1_556 S
C180 O196 1.268 . S
C181 O187 1.268 . S
C181 O195 1.268 . S
C182 O188 1.268 . S
C182 O197 1.268 . S
C183 O189 1.268 . S
C183 O193 1.268 . S
C184 O190 1.268 . S
C184 O192 1.268 . S
C185 O191 1.268 . S
C185 O194 1.268 . S
O186 Sc176 2.105 . S
O186 C180 1.268 1_554 S
O187 Sc177 2.105 . S
O187 C181 1.268 . S
O188 Sc178 2.105 . S
O188 C182 1.268 . S
O189 Sc176 2.105 . S
O189 C183 1.268 . S
O190 Sc178 2.105 . S
O190 C184 1.268 . S
O191 Sc177 2.105 . S
O191 C185 1.268 . S
O192 Sc176 2.105 . S
O192 C184 1.268 . S
O193 Sc177 2.105 . S
O193 C183 1.268 . S
O194 Sc178 2.105 . S
O194 C185 1.268 . S
O195 Sc176 2.105 . S
O195 C181 1.268 . S
O196 Sc178 2.105 1_556 S
O196 C180 1.268 . S
O197 Sc177 2.105 . S
O197 C182 1.268 . S
Sc198 O201 2.025 . S
Sc198 O208 2.105 . S
Sc198 O211 2.105 . S
Sc198 O214 2.105 . S
Sc198 O217 2.105 . S
Sc199 O201 2.025 . S
Sc199 O209 2.105 . S
Sc199 O213 2.105 . S
Sc199 O215 2.105 . S
Sc199 O219 2.105 . S
Sc200 O201 2.025 . S
Sc200 O210 2.105 . S
Sc200 O212 2.105 . S
Sc200 O216 2.105 . S
Sc200 O218 2.105 . S
O201 Sc198 2.025 . S
O201 Sc199 2.025 . S
O201 Sc200 2.025 . S
C202 O208 1.268 . S
C202 O218 1.268 . S
C203 O209 1.268 . S
C203 O217 1.268 . S
C204 O210 1.268 . S
C204 O219 1.268 . S
C205 O211 1.268 . S
C205 O215 1.268 . S
C206 O212 1.268 . S
C206 O214 1.268 . S
C207 O213 1.268 . S
C207 O216 1.268 . S
O208 Sc198 2.105 . S
O208 C202 1.268 . S
O209 Sc199 2.105 . S
O209 C203 1.268 . S
O210 Sc200 2.105 . S
O210 C204 1.268 . S
O211 Sc198 2.105 . S
O211 C205 1.268 . S
O212 Sc200 2.105 . S
O212 C206 1.268 . S
O213 Sc199 2.105 . S
O213 C207 1.268 . S
O214 Sc198 2.105 . S
O214 C206 1.268 . S
O215 Sc199 2.105 . S
O215 C205 1.268 . S
O216 Sc200 2.105 . S
O216 C207 1.268 . S
O217 Sc198 2.105 . S
O217 C203 1.268 . S
O218 Sc200 2.105 . S
O218 C202 1.268 . S
O219 Sc199 2.105 . S
O219 C204 1.268 . S
Sc220 O223 2.025 . S
Sc220 O230 2.105 . S
Sc220 O233 2.105 . S
Sc220 O236 2.105 . S
Sc220 O239 2.105 . S
Sc221 O223 2.025 . S
Sc221 O231 2.105 . S
Sc221 O235 2.105 . S
Sc221 O237 2.105 . S
Sc221 O241 2.105 . S
Sc222 O223 2.025 . S
Sc222 O232 2.105 . S
Sc222 O234 2.105 . S
Sc222 O238 2.105 . S
Sc222 O240 2.105 . S
O223 Sc220 2.025 . S
O223 Sc221 2.025 . S
O223 Sc222 2.025 . S
C224 O230 1.268 . S
C224 O240 1.268 . S
C225 O231 1.268 . S
C225 O239 1.268 . S
C226 O232 1.268 . S
C226 O241 1.268 . S
C227 O233 1.268 . S
C227 O237 1.268 . S
C228 O234 1.268 . S
C228 O236 1.268 . S
C229 O235 1.268 . S
C229 O238 1.268 . S
O230 Sc220 2.105 . S
O230 C224 1.268 . S
O231 Sc221 2.105 . S
O231 C225 1.268 . S
O232 Sc222 2.105 . S
O232 C226 1.268 . S
O233 Sc220 2.105 . S
O233 C227 1.268 . S
O234 Sc222 2.105 . S
O234 C228 1.268 . S
O235 Sc221 2.105 . S
O235 C229 1.268 . S
O236 Sc220 2.105 . S
O236 C228 1.268 . S
O237 Sc221 2.105 . S
O237 C227 1.268 . S
O238 Sc222 2.105 . S
O238 C229 1.268 . S
O239 Sc220 2.105 . S
O239 C225 1.268 . S
O240 Sc222 2.105 . S
O240 C224 1.268 . S
O241 Sc221 2.105 . S
O241 C226 1.268 . S
Sc242 O245 2.025 . S
Sc242 O252 2.105 . S
Sc242 O255 2.105 . S
Sc242 O258 2.105 . S
Sc242 O261 2.105 . S
Sc243 O245 2.025 . S
Sc243 O253 2.105 . S
Sc243 O257 2.105 . S
Sc243 O259 2.105 . S
Sc243 O263 2.105 . S
Sc244 O245 2.025 . S
Sc244 O254 2.105 . S
Sc244 O256 2.105 . S
Sc244 O260 2.105 . S
Sc244 O262 2.105 . S
O245 Sc242 2.025 . S
O245 Sc243 2.025 . S
O245 Sc244 2.025 . S
C246 O252 1.268 . S
C246 O262 1.268 . S
C247 O253 1.268 . S
C247 O261 1.268 . S
C248 O254 1.268 . S
C248 O263 1.268 . S
C249 O255 1.268 . S
C249 O259 1.268 . S
C250 O256 1.268 . S
C250 O258 1.268 . S
C251 O257 1.268 . S
C251 O260 1.268 . S
O252 Sc242 2.105 . S
O252 C246 1.268 . S
O253 Sc243 2.105 . S
O253 C247 1.268 . S
O254 Sc244 2.105 . S
O254 C248 1.268 . S
O255 Sc242 2.105 . S
O255 C249 1.268 . S
O256 Sc244 2.105 . S
O256 C250 1.268 . S
O257 Sc243 2.105 . S
O257 C251 1.268 . S
O258 Sc242 2.105 . S
O258 C250 1.268 . S
O259 Sc243 2.105 . S
O259 C249 1.268 . S
O260 Sc244 2.105 . S
O260 C251 1.268 . S
O261 Sc242 2.105 . S
O261 C247 1.268 . S
O262 Sc244 2.105 . S
O262 C246 1.268 . S
O263 Sc243 2.105 . S
O263 C248 1.268 . S
H264 C276 0.930 . S
H265 C278 0.930 . S
H266 C279 0.930 . S
H267 C283 0.959 . S
H268 C283 0.959 . S
H269 C283 0.961 . S
H270 C284 0.960 . S
H271 C284 0.961 . S
H272 C284 0.959 . S
H273 C287 0.929 . S
H274 C288 0.931 . S
H275 C290 0.930 . S
C276 H264 0.930 . S
C276 C277 1.399 . S
C276 C281 1.399 . S
C277 C276 1.399 . S
C277 C278 1.376 . S
C278 H265 0.930 . S
C278 C277 1.376 . S
C278 C279 1.388 . S
C279 H266 0.930 . S
C279 C278 1.388 . S
C279 C280 1.390 . S
C280 C279 1.390 . S
C280 C281 1.394 . S
C280 C286 1.465 . S
C281 C276 1.399 . S
C281 C280 1.394 . S
C281 C282 1.516 . S
C282 C281 1.516 . S
C282 C283 1.502 . S
C282 C284 1.561 . S
C282 C285 1.526 . S
C283 H267 0.959 . S
C283 H268 0.959 . S
C283 H269 0.961 . S
C283 C282 1.502 . S
C284 H270 0.960 . S
C284 H271 0.961 . S
C284 H272 0.959 . S
C284 C282 1.561 . S
C285 C282 1.526 . S
C285 C286 1.396 . S
C285 C290 1.390 . S
C286 C280 1.465 . S
C286 C285 1.396 . S
C286 C287 1.399 . S
C287 H273 0.929 . S
C287 C286 1.399 . S
C287 C288 1.385 . S
C288 H274 0.931 . S
C288 C287 1.385 . S
C288 C289 1.389 . S
C289 C288 1.389 . S
C289 C290 1.387 . S
C290 H275 0.930 . S
C290 C285 1.390 . S
C290 C289 1.387 . S
H291 C303 0.930 . S
H292 C305 0.930 . S
H293 C306 0.930 . S
H294 C310 0.959 . S
H295 C310 0.959 . S
H296 C310 0.961 . S
H297 C311 0.960 . S
H298 C311 0.961 . S
H299 C311 0.959 . S
H300 C314 0.929 . S
H301 C315 0.931 . S
H302 C317 0.930 . S
C303 H291 0.930 . S
C303 C304 1.399 . S
C303 C308 1.399 . S
C304 C303 1.399 . S
C304 C305 1.376 . S
C305 H292 0.930 . S
C305 C304 1.376 . S
C305 C306 1.388 . S
C306 H293 0.930 . S
C306 C305 1.388 . S
C306 C307 1.390 . S
C307 C306 1.390 . S
C307 C308 1.394 . S
C307 C313 1.465 . S
C308 C303 1.399 . S
C308 C307 1.394 . S
C308 C309 1.516 . S
C309 C308 1.516 . S
C309 C310 1.502 . S
C309 C311 1.561 . S
C309 C312 1.526 . S
C310 H294 0.959 . S
C310 H295 0.959 . S
C310 H296 0.961 . S
C310 C309 1.502 . S
C311 H297 0.960 . S
C311 H298 0.961 . S
C311 H299 0.959 . S
C311 C309 1.561 . S
C312 C309 1.526 . S
C312 C313 1.396 . S
C312 C317 1.390 . S
C313 C307 1.465 . S
C313 C312 1.396 . S
C313 C314 1.399 . S
C314 H300 0.929 . S
C314 C313 1.399 . S
C314 C315 1.385 . S
C315 H301 0.931 . S
C315 C314 1.385 . S
C315 C316 1.389 . S
C316 C315 1.389 . S
C316 C317 1.387 . S
C317 H302 0.930 . S
C317 C312 1.390 . S
C317 C316 1.387 . S
H318 C330 0.930 . S
H319 C332 0.930 . S
H320 C333 0.930 . S
H321 C337 0.959 . S
H322 C337 0.959 . S
H323 C337 0.961 . S
H324 C338 0.960 . S
H325 C338 0.961 . S
H326 C338 0.959 . S
H327 C341 0.929 . S
H328 C342 0.931 . S
H329 C344 0.930 . S
C330 H318 0.930 . S
C330 C331 1.399 . S
C330 C335 1.399 . S
C331 C330 1.399 . S
C331 C332 1.376 . S
C332 H319 0.930 . S
C332 C331 1.376 . S
C332 C333 1.388 . S
C333 H320 0.930 . S
C333 C332 1.388 . S
C333 C334 1.390 . S
C334 C333 1.390 . S
C334 C335 1.394 . S
C334 C340 1.465 . S
C335 C330 1.399 . S
C335 C334 1.394 . S
C335 C336 1.516 . S
C336 C335 1.516 . S
C336 C337 1.502 . S
C336 C338 1.561 . S
C336 C339 1.526 . S
C337 H321 0.959 . S
C337 H322 0.959 . S
C337 H323 0.961 . S
C337 C336 1.502 . S
C338 H324 0.960 . S
C338 H325 0.961 . S
C338 H326 0.959 . S
C338 C336 1.561 . S
C339 C336 1.526 . S
C339 C340 1.396 . S
C339 C344 1.390 1_556 S
C340 C334 1.465 . S
C340 C339 1.396 . S
C340 C341 1.399 . S
C341 H327 0.929 . S
C341 C340 1.399 . S
C341 C342 1.385 1_556 S
C342 H328 0.931 . S
C342 C341 1.385 1_554 S
C342 C343 1.389 . S
C343 C342 1.389 . S
C343 C344 1.387 . S
C344 H329 0.930 . S
C344 C339 1.390 1_554 S
C344 C343 1.387 . S
H345 C357 0.930 . S
H346 C359 0.930 . S
H347 C360 0.930 . S
H348 C364 0.959 . S
H349 C364 0.959 . S
H350 C364 0.961 . S
H351 C365 0.960 . S
H352 C365 0.961 . S
H353 C365 0.959 . S
H354 C368 0.929 . S
H355 C369 0.931 . S
H356 C371 0.930 . S
C357 H345 0.930 . S
C357 C358 1.399 . S
C357 C362 1.399 . S
C358 C357 1.399 . S
C358 C359 1.376 . S
C359 H346 0.930 . S
C359 C358 1.376 . S
C359 C360 1.388 . S
C360 H347 0.930 . S
C360 C359 1.388 . S
C360 C361 1.390 . S
C361 C360 1.390 . S
C361 C362 1.394 . S
C361 C367 1.465 1_554 S
C362 C357 1.399 . S
C362 C361 1.394 . S
C362 C363 1.516 . S
C363 C362 1.516 . S
C363 C364 1.502 . S
C363 C365 1.561 . S
C363 C366 1.526 1_554 S
C364 H348 0.959 . S
C364 H349 0.959 . S
C364 H350 0.961 . S
C364 C363 1.502 . S
C365 H351 0.960 . S
C365 H352 0.961 . S
C365 H353 0.959 . S
C365 C363 1.561 . S
C366 C363 1.526 1_556 S
C366 C367 1.396 . S
C366 C371 1.390 . S
C367 C361 1.465 1_556 S
C367 C366 1.396 . S
C367 C368 1.399 . S
C368 H354 0.929 . S
C368 C367 1.399 . S
C368 C369 1.385 . S
C369 H355 0.931 . S
C369 C368 1.385 . S
C369 C370 1.389 . S
C370 C369 1.389 . S
C370 C371 1.387 . S
C371 H356 0.930 . S
C371 C366 1.390 . S
C371 C370 1.387 . S
H372 C384 0.930 . S
H373 C386 0.930 1_556 S
H374 C387 0.930 . S
H375 C391 0.959 . S
H376 C391 0.959 . S
H377 C391 0.961 . S
H378 C392 0.960 . S
H379 C392 0.961 . S
H380 C392 0.959 . S
H381 C395 0.929 . S
H382 C396 0.931 . S
H383 C398 0.930 . S
C384 H372 0.930 . S
C384 C385 1.399 1_554 S
C384 C389 1.399 . S
C385 C384 1.399 1_556 S
C385 C386 1.376 1_556 S
C386 H373 0.930 1_554 S
C386 C385 1.376 1_554 S
C386 C387 1.388 . S
C387 H374 0.930 . S
C387 C386 1.388 . S
C387 C388 1.390 . S
C388 C387 1.390 . S
C388 C389 1.394 . S
C388 C394 1.465 . S
C389 C384 1.399 . S
C389 C388 1.394 . S
C389 C390 1.516 . S
C390 C389 1.516 . S
C390 C391 1.502 . S
C390 C392 1.561 . S
C390 C393 1.526 . S
C391 H375 0.959 . S
C391 H376 0.959 . S
C391 H377 0.961 . S
C391 C390 1.502 . S
C392 H378 0.960 . S
C392 H379 0.961 . S
C392 H380 0.959 . S
C392 C390 1.561 . S
C393 C390 1.526 . S
C393 C394 1.396 . S
C393 C398 1.390 . S
C394 C388 1.465 . S
C394 C393 1.396 . S
C394 C395 1.399 . S
C395 H381 0.929 . S
C395 C394 1.399 . S
C395 C396 1.385 . S
C396 H382 0.931 . S
C396 C395 1.385 . S
C396 C397 1.389 . S
C397 C396 1.389 . S
C397 C398 1.387 . S
C398 H383 0.930 . S
C398 C393 1.390 . S
C398 C397 1.387 . S
H399 C411 0.930 . S
H400 C413 0.930 . S
H401 C414 0.930 . S
H402 C418 0.959 . S
H403 C418 0.959 . S
H404 C418 0.961 . S
H405 C419 0.960 . S
H406 C419 0.961 . S
H407 C419 0.959 . S
H408 C422 0.929 . S
H409 C423 0.931 . S
H410 C425 0.930 . S
C411 H399 0.930 . S
C411 C412 1.399 . S
C411 C416 1.399 . S
C412 C411 1.399 . S
C412 C413 1.376 . S
C413 H400 0.930 . S
C413 C412 1.376 . S
C413 C414 1.388 . S
C414 H401 0.930 . S
C414 C413 1.388 . S
C414 C415 1.390 . S
C415 C414 1.390 . S
C415 C416 1.394 . S
C415 C421 1.465 . S
C416 C411 1.399 . S
C416 C415 1.394 . S
C416 C417 1.516 . S
C417 C416 1.516 . S
C417 C418 1.502 . S
C417 C419 1.561 . S
C417 C420 1.526 . S
C418 H402 0.959 . S
C418 H403 0.959 . S
C418 H404 0.961 . S
C418 C417 1.502 . S
C419 H405 0.960 . S
C419 H406 0.961 . S
C419 H407 0.959 . S
C419 C417 1.561 . S
C420 C417 1.526 . S
C420 C421 1.396 . S
C420 C425 1.390 . S
C421 C415 1.465 . S
C421 C420 1.396 . S
C421 C422 1.399 . S
C422 H408 0.929 . S
C422 C421 1.399 . S
C422 C423 1.385 . S
C423 H409 0.931 . S
C423 C422 1.385 . S
C423 C424 1.389 . S
C424 C423 1.389 . S
C424 C425 1.387 . S
C425 H410 0.930 . S
C425 C420 1.390 . S
C425 C424 1.387 . S
H426 C438 0.930 . S
H427 C440 0.930 . S
H428 C441 0.930 . S
H429 C445 0.959 . S
H430 C445 0.959 . S
H431 C445 0.961 . S
H432 C446 0.960 . S
H433 C446 0.961 . S
H434 C446 0.959 . S
H435 C449 0.929 . S
H436 C450 0.931 . S
H437 C452 0.930 . S
C438 H426 0.930 . S
C438 C439 1.399 . S
C438 C443 1.399 . S
C439 C438 1.399 . S
C439 C440 1.376 . S
C440 H427 0.930 . S
C440 C439 1.376 . S
C440 C441 1.388 . S
C441 H428 0.930 . S
C441 C440 1.388 . S
C441 C442 1.390 . S
C442 C441 1.390 . S
C442 C443 1.394 . S
C442 C448 1.465 . S
C443 C438 1.399 . S
C443 C442 1.394 . S
C443 C444 1.516 . S
C444 C443 1.516 . S
C444 C445 1.502 . S
C444 C446 1.561 . S
C444 C447 1.526 . S
C445 H429 0.959 . S
C445 H430 0.959 . S
C445 H431 0.961 . S
C445 C444 1.502 . S
C446 H432 0.960 . S
C446 H433 0.961 . S
C446 H434 0.959 . S
C446 C444 1.561 . S
C447 C444 1.526 . S
C447 C448 1.396 . S
C447 C452 1.390 . S
C448 C442 1.465 . S
C448 C447 1.396 . S
C448 C449 1.399 . S
C449 H435 0.929 . S
C449 C448 1.399 . S
C449 C450 1.385 . S
C450 H436 0.931 . S
C450 C449 1.385 . S
C450 C451 1.389 . S
C451 C450 1.389 . S
C451 C452 1.387 . S
C452 H437 0.930 . S
C452 C447 1.390 . S
C452 C451 1.387 . S
H453 C465 0.930 . S
H454 C467 0.930 . S
H455 C468 0.930 . S
H456 C472 0.959 . S
H457 C472 0.959 . S
H458 C472 0.961 . S
H459 C473 0.960 . S
H460 C473 0.961 . S
H461 C473 0.959 . S
H462 C476 0.929 . S
H463 C477 0.931 . S
H464 C479 0.930 . S
C465 H453 0.930 . S
C465 C466 1.399 . S
C465 C470 1.399 . S
C466 C465 1.399 . S
C466 C467 1.376 . S
C467 H454 0.930 . S
C467 C466 1.376 . S
C467 C468 1.388 . S
C468 H455 0.930 . S
C468 C467 1.388 . S
C468 C469 1.390 . S
C469 C468 1.390 . S
C469 C470 1.394 . S
C469 C475 1.465 . S
C470 C465 1.399 . S
C470 C469 1.394 . S
C470 C471 1.516 . S
C471 C470 1.516 . S
C471 C472 1.502 . S
C471 C473 1.561 . S
C471 C474 1.526 . S
C472 H456 0.959 . S
C472 H457 0.959 . S
C472 H458 0.961 . S
C472 C471 1.502 . S
C473 H459 0.960 . S
C473 H460 0.961 . S
C473 H461 0.959 . S
C473 C471 1.561 . S
C474 C471 1.526 . S
C474 C475 1.396 . S
C474 C479 1.390 . S
C475 C469 1.465 . S
C475 C474 1.396 . S
C475 C476 1.399 . S
C476 H462 0.929 . S
C476 C475 1.399 . S
C476 C477 1.385 . S
C477 H463 0.931 . S
C477 C476 1.385 . S
C477 C478 1.389 . S
C478 C477 1.389 . S
C478 C479 1.387 . S
C479 H464 0.930 . S
C479 C474 1.390 . S
C479 C478 1.387 . S
H480 C492 0.930 . S
H481 C494 0.930 . S
H482 C495 0.930 . S
H483 C499 0.959 . S
H484 C499 0.959 . S
H485 C499 0.961 . S
H486 C500 0.960 . S
H487 C500 0.961 . S
H488 C500 0.959 . S
H489 C503 0.929 . S
H490 C504 0.931 . S
H491 C506 0.930 . S
C492 H480 0.930 . S
C492 C493 1.399 . S
C492 C497 1.399 . S
C493 C492 1.399 . S
C493 C494 1.376 . S
C494 H481 0.930 . S
C494 C493 1.376 . S
C494 C495 1.388 . S
C495 H482 0.930 . S
C495 C494 1.388 . S
C495 C496 1.390 . S
C496 C495 1.390 . S
C496 C497 1.394 . S
C496 C502 1.465 . S
C497 C492 1.399 . S
C497 C496 1.394 . S
C497 C498 1.516 . S
C498 C497 1.516 . S
C498 C499 1.502 . S
C498 C500 1.561 . S
C498 C501 1.526 . S
C499 H483 0.959 . S
C499 H484 0.959 . S
C499 H485 0.961 . S
C499 C498 1.502 . S
C500 H486 0.960 . S
C500 H487 0.961 . S
C500 H488 0.959 . S
C500 C498 1.561 . S
C501 C498 1.526 . S
C501 C502 1.396 . S
C501 C506 1.390 . S
C502 C496 1.465 . S
C502 C501 1.396 . S
C502 C503 1.399 . S
C503 H489 0.929 . S
C503 C502 1.399 . S
C503 C504 1.385 . S
C504 H490 0.931 . S
C504 C503 1.385 . S
C504 C505 1.389 . S
C505 C504 1.389 . S
C505 C506 1.387 . S
C506 H491 0.930 . S
C506 C501 1.390 . S
C506 C505 1.387 . S
H507 C519 0.930 . S
H508 C521 0.930 . S
H509 C522 0.930 . S
H510 C526 0.959 . S
H511 C526 0.959 . S
H512 C526 0.961 . S
H513 C527 0.960 . S
H514 C527 0.961 . S
H515 C527 0.959 . S
H516 C530 0.929 . S
H517 C531 0.931 . S
H518 C533 0.930 . S
C519 H507 0.930 . S
C519 C520 1.399 1_556 S
C519 C524 1.399 . S
C520 C519 1.399 1_554 S
C520 C521 1.376 . S
C521 H508 0.930 . S
C521 C520 1.376 . S
C521 C522 1.388 1_554 S
C522 H509 0.930 . S
C522 C521 1.388 1_556 S
C522 C523 1.390 . S
C523 C522 1.390 . S
C523 C524 1.394 . S
C523 C529 1.465 . S
C524 C519 1.399 . S
C524 C523 1.394 . S
C524 C525 1.516 . S
C525 C524 1.516 . S
C525 C526 1.502 . S
C525 C527 1.561 . S
C525 C528 1.526 . S
C526 H510 0.959 . S
C526 H511 0.959 . S
C526 H512 0.961 . S
C526 C525 1.502 . S
C527 H513 0.960 . S
C527 H514 0.961 . S
C527 H515 0.959 . S
C527 C525 1.561 . S
C528 C525 1.526 . S
C528 C529 1.396 . S
C528 C533 1.390 . S
C529 C523 1.465 . S
C529 C528 1.396 . S
C529 C530 1.399 . S
C530 H516 0.929 . S
C530 C529 1.399 . S
C530 C531 1.385 . S
C531 H517 0.931 . S
C531 C530 1.385 . S
C531 C532 1.389 . S
C532 C531 1.389 . S
C532 C533 1.387 . S
C533 H518 0.930 . S
C533 C528 1.390 . S
C533 C532 1.387 . S
H534 C546 0.930 . S
H535 C548 0.930 . S
H536 C549 0.930 . S
H537 C553 0.959 . S
H538 C553 0.959 . S
H539 C553 0.961 1_556 S
H540 C554 0.960 1_556 S
H541 C554 0.961 . S
H542 C554 0.959 . S
H543 C557 0.929 . S
H544 C558 0.931 . S
H545 C560 0.930 . S
C546 H534 0.930 . S
C546 C547 1.399 . S
C546 C551 1.399 . S
C547 C546 1.399 . S
C547 C548 1.376 . S
C548 H535 0.930 . S
C548 C547 1.376 . S
C548 C549 1.388 . S
C549 H536 0.930 . S
C549 C548 1.388 . S
C549 C550 1.390 . S
C550 C549 1.390 . S
C550 C551 1.394 . S
C550 C556 1.465 1_556 S
C551 C546 1.399 . S
C551 C550 1.394 . S
C551 C552 1.516 1_556 S
C552 C551 1.516 1_554 S
C552 C553 1.502 . S
C552 C554 1.561 . S
C552 C555 1.526 . S
C553 H537 0.959 . S
C553 H538 0.959 . S
C553 H539 0.961 1_554 S
C553 C552 1.502 . S
C554 H540 0.960 1_554 S
C554 H541 0.961 . S
C554 H542 0.959 . S
C554 C552 1.561 . S
C555 C552 1.526 . S
C555 C556 1.396 . S
C555 C560 1.390 . S
C556 C550 1.465 1_554 S
C556 C555 1.396 . S
C556 C557 1.399 . S
C557 H543 0.929 . S
C557 C556 1.399 . S
C557 C558 1.385 . S
C558 H544 0.931 . S
C558 C557 1.385 . S
C558 C559 1.389 . S
C559 C558 1.389 . S
C559 C560 1.387 . S
C560 H545 0.930 . S
C560 C555 1.390 . S
C560 C559 1.387 . S
H561 C573 0.930 . S
H562 C575 0.930 . S
H563 C576 0.930 . S
H564 C580 0.959 . S
H565 C580 0.959 . S
H566 C580 0.961 . S
H567 C581 0.960 . S
H568 C581 0.961 . S
H569 C581 0.959 . S
H570 C584 0.929 . S
H571 C585 0.931 . S
H572 C587 0.930 . S
C573 H561 0.930 . S
C573 C574 1.399 . S
C573 C578 1.399 . S
C574 C573 1.399 . S
C574 C575 1.376 . S
C575 H562 0.930 . S
C575 C574 1.376 . S
C575 C576 1.388 . S
C576 H563 0.930 . S
C576 C575 1.388 . S
C576 C577 1.390 . S
C577 C576 1.390 . S
C577 C578 1.394 . S
C577 C583 1.465 . S
C578 C573 1.399 . S
C578 C577 1.394 . S
C578 C579 1.516 . S
C579 C578 1.516 . S
C579 C580 1.502 . S
C579 C581 1.561 . S
C579 C582 1.526 . S
C580 H564 0.959 . S
C580 H565 0.959 . S
C580 H566 0.961 . S
C580 C579 1.502 . S
C581 H567 0.960 . S
C581 H568 0.961 . S
C581 H569 0.959 . S
C581 C579 1.561 . S
C582 C579 1.526 . S
C582 C583 1.396 . S
C582 C587 1.390 1_554 S
C583 C577 1.465 . S
C583 C582 1.396 . S
C583 C584 1.399 . S
C584 H570 0.929 . S
C584 C583 1.399 . S
C584 C585 1.385 1_554 S
C585 H571 0.931 . S
C585 C584 1.385 1_556 S
C585 C586 1.389 . S
C586 C585 1.389 . S
C586 C587 1.387 . S
C587 H572 0.930 . S
C587 C582 1.390 1_556 S
C587 C586 1.387 . S
H588 C600 0.930 . S
H589 C602 0.930 . S
H590 C603 0.930 . S
H591 C607 0.959 . S
H592 C607 0.959 . S
H593 C607 0.961 1_545 S
H594 C608 0.960 1_545 S
H595 C608 0.961 . S
H596 C608 0.959 . S
H597 C611 0.929 . S
H598 C612 0.931 . S
H599 C614 0.930 . S
C600 H588 0.930 . S
C600 C601 1.399 . S
C600 C605 1.399 . S
C601 C600 1.399 . S
C601 C602 1.376 1_556 S
C602 H589 0.930 . S
C602 C601 1.376 1_554 S
C602 C603 1.388 . S
C603 H590 0.930 . S
C603 C602 1.388 . S
C603 C604 1.390 . S
C604 C603 1.390 . S
C604 C605 1.394 1_554 S
C604 C610 1.465 1_545 S
C605 C600 1.399 . S
C605 C604 1.394 1_556 S
C605 C606 1.516 1_545 S
C606 C605 1.516 1_565 S
C606 C607 1.502 . S
C606 C608 1.561 . S
C606 C609 1.526 . S
C607 H591 0.959 . S
C607 H592 0.959 . S
C607 H593 0.961 1_565 S
C607 C606 1.502 . S
C608 H594 0.960 1_565 S
C608 H595 0.961 . S
C608 H596 0.959 . S
C608 C606 1.561 . S
C609 C606 1.526 . S
C609 C610 1.396 1_556 S
C609 C614 1.390 . S
C610 C604 1.465 1_565 S
C610 C609 1.396 1_554 S
C610 C611 1.399 . S
C611 H597 0.929 . S
C611 C610 1.399 . S
C611 C612 1.385 . S
C612 H598 0.931 . S
C612 C611 1.385 . S
C612 C613 1.389 . S
C613 C612 1.389 . S
C613 C614 1.387 1_554 S
C614 H599 0.930 . S
C614 C609 1.390 . S
C614 C613 1.387 1_556 S
H615 C627 0.930 . S
H616 C629 0.930 . S
H617 C630 0.930 . S
H618 C634 0.959 . S
H619 C634 0.959 . S
H620 C634 0.961 . S
H621 C635 0.960 . S
H622 C635 0.961 . S
H623 C635 0.959 . S
H624 C638 0.929 . S
H625 C639 0.931 . S
H626 C641 0.930 . S
C627 H615 0.930 . S
C627 C628 1.399 . S
C627 C632 1.399 . S
C628 C627 1.399 . S
C628 C629 1.376 . S
C629 H616 0.930 . S
C629 C628 1.376 . S
C629 C630 1.388 . S
C630 H617 0.930 . S
C630 C629 1.388 . S
C630 C631 1.390 . S
C631 C630 1.390 . S
C631 C632 1.394 . S
C631 C637 1.465 . S
C632 C627 1.399 . S
C632 C631 1.394 . S
C632 C633 1.516 . S
C633 C632 1.516 . S
C633 C634 1.502 . S
C633 C635 1.561 . S
C633 C636 1.526 . S
C634 H618 0.959 . S
C634 H619 0.959 . S
C634 H620 0.961 . S
C634 C633 1.502 . S
C635 H621 0.960 . S
C635 H622 0.961 . S
C635 H623 0.959 . S
C635 C633 1.561 . S
C636 C633 1.526 . S
C636 C637 1.396 . S
C636 C641 1.390 . S
C637 C631 1.465 . S
C637 C636 1.396 . S
C637 C638 1.399 . S
C638 H624 0.929 . S
C638 C637 1.399 . S
C638 C639 1.385 . S
C639 H625 0.931 . S
C639 C638 1.385 . S
C639 C640 1.389 . S
C640 C639 1.389 . S
C640 C641 1.387 . S
C641 H626 0.930 . S
C641 C636 1.390 . S
C641 C640 1.387 . S
H642 C654 0.930 . S
H643 C656 0.930 . S
H644 C657 0.930 . S
H645 C661 0.962 . S
H646 C661 1.008 . S
H647 C661 0.937 1_455 S
H648 C662 0.960 . S
H649 C662 0.961 1_655 S
H650 C662 0.959 . S
H651 C665 0.929 . S
H652 C666 0.931 . S
H653 C668 0.930 . S
C654 H642 0.930 . S
C654 C655 1.399 . S
C654 C659 1.399 . S
C655 C654 1.399 . S
C655 C656 1.376 . S
C656 H643 0.930 . S
C656 C655 1.376 . S
C656 C657 1.388 . S
C657 H644 0.930 . S
C657 C656 1.388 . S
C657 C658 1.390 . S
C658 C657 1.390 . S
C658 C659 1.394 . S
C658 C664 1.465 1_455 S
C659 C654 1.399 . S
C659 C658 1.394 . S
C659 C660 1.569 . S
C660 C659 1.569 . S
C660 C661 1.452 1_455 S
C660 C662 1.561 . S
C660 C663 1.506 1_455 S
C661 H645 0.962 . S
C661 H646 1.008 . S
C661 H647 0.937 1_655 S
C661 C660 1.452 1_655 S
C662 H648 0.960 . S
C662 H649 0.961 1_455 S
C662 H650 0.959 . S
C662 C660 1.561 . S
C663 C660 1.506 1_655 S
C663 C664 1.396 . S
C663 C668 1.390 . S
C664 C658 1.465 1_655 S
C664 C663 1.396 . S
C664 C665 1.399 . S
C665 H651 0.929 . S
C665 C664 1.399 . S
C665 C666 1.385 . S
C666 H652 0.931 . S
C666 C665 1.385 . S
C666 C667 1.389 . S
C667 C666 1.389 . S
C667 C668 1.387 . S
C668 H653 0.930 . S
C668 C663 1.390 . S
C668 C667 1.387 . S
H669 C681 0.930 . S
H670 C683 0.930 . S
H671 C684 0.930 . S
H672 C688 0.959 . S
H673 C688 0.959 . S
H674 C688 0.961 1_565 S
H675 C689 0.960 . S
H676 C689 0.961 1_545 S
H677 C689 0.959 . S
H678 C692 0.929 . S
H679 C693 0.931 . S
H680 C695 0.930 . S
C681 H669 0.930 . S
C681 C682 1.399 . S
C681 C686 1.399 . S
C682 C681 1.399 . S
C682 C683 1.376 . S
C683 H670 0.930 . S
C683 C682 1.376 . S
C683 C684 1.388 . S
C684 H671 0.930 . S
C684 C683 1.388 . S
C684 C685 1.390 . S
C685 C684 1.390 . S
C685 C686 1.394 . S
C685 C691 1.465 1_565 S
C686 C681 1.399 . S
C686 C685 1.394 . S
C686 C687 1.518 1_565 S
C687 C686 1.518 1_545 S
C687 C688 1.501 . S
C687 C689 1.561 1_545 S
C687 C690 1.525 . S
C688 H672 0.959 . S
C688 H673 0.959 . S
C688 H674 0.961 1_545 S
C688 C687 1.501 . S
C689 H675 0.960 . S
C689 H676 0.961 1_565 S
C689 H677 0.959 . S
C689 C687 1.561 1_565 S
C690 C687 1.525 . S
C690 C691 1.396 . S
C690 C695 1.390 . S
C691 C685 1.465 1_545 S
C691 C690 1.396 . S
C691 C692 1.399 . S
C692 H678 0.929 . S
C692 C691 1.399 . S
C692 C693 1.385 . S
C693 H679 0.931 . S
C693 C692 1.385 . S
C693 C694 1.389 . S
C694 C693 1.389 . S
C694 C695 1.387 . S
C695 H680 0.930 . S
C695 C690 1.390 . S
C695 C694 1.387 . S
H696 C708 0.930 . S
H697 C710 0.930 . S
H698 C711 0.930 . S
H699 C715 0.959 . S
H700 C715 0.959 . S
H701 C715 0.961 . S
H702 C716 0.960 . S
H703 C716 0.961 . S
H704 C716 0.959 . S
H705 C719 0.929 . S
H706 C720 0.931 . S
H707 C722 0.930 . S
C708 H696 0.930 . S
C708 C709 1.399 . S
C708 C713 1.399 . S
C709 C708 1.399 . S
C709 C710 1.376 . S
C710 H697 0.930 . S
C710 C709 1.376 . S
C710 C711 1.388 . S
C711 H698 0.930 . S
C711 C710 1.388 . S
C711 C712 1.390 . S
C712 C711 1.390 . S
C712 C713 1.394 . S
C712 C718 1.465 . S
C713 C708 1.399 . S
C713 C712 1.394 . S
C713 C714 1.516 . S
C714 C713 1.516 . S
C714 C715 1.502 . S
C714 C716 1.561 . S
C714 C717 1.526 . S
C715 H699 0.959 . S
C715 H700 0.959 . S
C715 H701 0.961 . S
C715 C714 1.502 . S
C716 H702 0.960 . S
C716 H703 0.961 . S
C716 H704 0.959 . S
C716 C714 1.561 . S
C717 C714 1.526 . S
C717 C718 1.396 . S
C717 C722 1.390 . S
C718 C712 1.465 . S
C718 C717 1.396 . S
C718 C719 1.399 . S
C719 H705 0.929 . S
C719 C718 1.399 . S
C719 C720 1.385 . S
C720 H706 0.931 . S
C720 C719 1.385 . S
C720 C721 1.389 . S
C721 C720 1.389 . S
C721 C722 1.387 . S
C722 H707 0.930 . S
C722 C717 1.390 . S
C722 C721 1.387 . S
H723 C735 0.930 . S
H724 C737 0.930 . S
H725 C738 0.930 . S
H726 C742 0.956 1_655 S
H727 C742 0.935 1_655 S
H728 C742 1.021 . S
H729 C743 0.960 . S
H730 C743 0.961 1_655 S
H731 C743 0.959 . S
H732 C746 0.929 . S
H733 C747 0.931 . S
H734 C749 0.930 . S
C735 H723 0.930 . S
C735 C736 1.399 . S
C735 C740 1.399 . S
C736 C735 1.399 . S
C736 C737 1.376 . S
C737 H724 0.930 . S
C737 C736 1.376 . S
C737 C738 1.388 . S
C738 H725 0.930 . S
C738 C737 1.388 . S
C738 C739 1.390 . S
C739 C738 1.390 . S
C739 C740 1.394 . S
C739 C745 1.465 1_455 S
C740 C735 1.399 . S
C740 C739 1.394 . S
C740 C741 1.516 . S
C741 C740 1.516 . S
C741 C742 1.474 . S
C741 C743 1.561 1_556 S
C741 C744 1.526 1_455 S
C742 H726 0.956 1_455 S
C742 H727 0.935 1_455 S
C742 H728 1.021 . S
C742 C741 1.474 . S
C743 H729 0.960 . S
C743 H730 0.961 1_455 S
C743 H731 0.959 . S
C743 C741 1.561 1_554 S
C744 C741 1.526 1_655 S
C744 C745 1.396 . S
C744 C749 1.390 . S
C745 C739 1.465 1_655 S
C745 C744 1.396 . S
C745 C746 1.399 . S
C746 H732 0.929 . S
C746 C745 1.399 . S
C746 C747 1.385 . S
C747 H733 0.931 . S
C747 C746 1.385 . S
C747 C748 1.389 . S
C748 C747 1.389 . S
C748 C749 1.387 . S
C749 H734 0.930 . S
C749 C744 1.390 . S
C749 C748 1.387 . S
H750 C762 0.930 . S
H751 C764 0.930 . S
H752 C765 0.930 . S
H753 C769 0.959 . S
H754 C769 0.959 . S
H755 C769 0.961 . S
H756 C770 0.960 . S
H757 C770 0.961 . S
H758 C770 0.959 . S
H759 C773 0.929 . S
H760 C774 0.931 . S
H761 C776 0.930 . S
C762 H750 0.930 . S
C762 C763 1.399 . S
C762 C767 1.399 . S
C763 C762 1.399 . S
C763 C764 1.376 . S
C764 H751 0.930 . S
C764 C763 1.376 . S
C764 C765 1.388 . S
C765 H752 0.930 . S
C765 C764 1.388 . S
C765 C766 1.390 . S
C766 C765 1.390 . S
C766 C767 1.394 . S
C766 C772 1.465 . S
C767 C762 1.399 . S
C767 C766 1.394 . S
C767 C768 1.516 . S
C768 C767 1.516 . S
C768 C769 1.502 . S
C768 C770 1.561 . S
C768 C771 1.526 . S
C769 H753 0.959 . S
C769 H754 0.959 . S
C769 H755 0.961 . S
C769 C768 1.502 . S
C770 H756 0.960 . S
C770 H757 0.961 . S
C770 H758 0.959 . S
C770 C768 1.561 . S
C771 C768 1.526 . S
C771 C772 1.396 . S
C771 C776 1.390 . S
C772 C766 1.465 . S
C772 C771 1.396 . S
C772 C773 1.399 . S
C773 H759 0.929 . S
C773 C772 1.399 . S
C773 C774 1.385 . S
C774 H760 0.931 . S
C774 C773 1.385 . S
C774 C775 1.389 . S
C775 C774 1.389 . S
C775 C776 1.387 . S
C776 H761 0.930 . S
C776 C771 1.390 . S
C776 C775 1.387 . S
H777 C789 0.930 . S
H778 C791 0.930 . S
H779 C792 0.930 . S
H780 C796 0.959 . S
H781 C796 0.959 . S
H782 C796 0.961 . S
H783 C797 0.960 . S
H784 C797 0.961 . S
H785 C797 0.959 . S
H786 C800 0.929 . S
H787 C801 0.931 . S
H788 C803 0.930 . S
C789 H777 0.930 . S
C789 C790 1.399 . S
C789 C794 1.399 1_554 S
C790 C789 1.399 . S
C790 C791 1.376 1_554 S
C791 H778 0.930 . S
C791 C790 1.376 1_556 S
C791 C792 1.388 . S
C792 H779 0.930 . S
C792 C791 1.388 . S
C792 C793 1.390 . S
C793 C792 1.390 . S
C793 C794 1.394 . S
C793 C799 1.465 . S
C794 C789 1.399 1_556 S
C794 C793 1.394 . S
C794 C795 1.516 1_556 S
C795 C794 1.516 1_554 S
C795 C796 1.502 . S
C795 C797 1.561 . S
C795 C798 1.526 1_554 S
C796 H780 0.959 . S
C796 H781 0.959 . S
C796 H782 0.961 . S
C796 C795 1.502 . S
C797 H783 0.960 . S
C797 H784 0.961 . S
C797 H785 0.959 . S
C797 C795 1.561 . S
C798 C795 1.526 1_556 S
C798 C799 1.396 . S
C798 C803 1.390 . S
C799 C793 1.465 . S
C799 C798 1.396 . S
C799 C800 1.399 . S
C800 H786 0.929 . S
C800 C799 1.399 . S
C800 C801 1.385 . S
C801 H787 0.931 . S
C801 C800 1.385 . S
C801 C802 1.389 . S
C802 C801 1.389 . S
C802 C803 1.387 . S
C803 H788 0.930 . S
C803 C798 1.390 . S
C803 C802 1.387 . S
H804 C816 0.930 . S
H805 C818 0.930 . S
H806 C819 0.930 . S
H807 C823 0.959 1_554 S
H808 C823 0.959 . S
H809 C823 0.961 . S
H810 C824 0.960 . S
H811 C824 0.961 . S
H812 C824 0.959 . S
H813 C827 0.929 . S
H814 C828 0.931 . S
H815 C830 0.930 . S
C816 H804 0.930 . S
C816 C817 1.399 . S
C816 C821 1.399 1_556 S
C817 C816 1.399 . S
C817 C818 1.376 1_556 S
C818 H805 0.930 . S
C818 C817 1.376 1_554 S
C818 C819 1.388 . S
C819 H806 0.930 . S
C819 C818 1.388 . S
C819 C820 1.390 . S
C820 C819 1.390 . S
C820 C821 1.394 . S
C820 C826 1.465 . S
C821 C816 1.399 1_554 S
C821 C820 1.394 . S
C821 C822 1.516 . S
C822 C821 1.516 . S
C822 C823 1.502 1_554 S
C822 C824 1.561 1_554 S
C822 C825 1.526 . S
C823 H807 0.959 1_556 S
C823 H808 0.959 . S
C823 H809 0.961 . S
C823 C822 1.502 1_556 S
C824 H810 0.960 . S
C824 H811 0.961 . S
C824 H812 0.959 . S
C824 C822 1.561 1_556 S
C825 C822 1.526 . S
C825 C826 1.396 . S
C825 C830 1.390 . S
C826 C820 1.465 . S
C826 C825 1.396 . S
C826 C827 1.399 . S
C827 H813 0.929 . S
C827 C826 1.399 . S
C827 C828 1.385 . S
C828 H814 0.931 . S
C828 C827 1.385 . S
C828 C829 1.389 . S
C829 C828 1.389 . S
C829 C830 1.387 . S
C830 H815 0.930 . S
C830 C825 1.390 . S
C830 C829 1.387 . S
H831 C843 0.930 . S
H832 C845 0.930 . S
H833 C846 0.930 . S
H834 C850 0.959 . S
H835 C850 0.959 . S
H836 C850 0.961 . S
H837 C851 0.960 . S
H838 C851 0.961 . S
H839 C851 0.959 . S
H840 C854 0.929 . S
H841 C855 0.931 . S
H842 C857 0.930 . S
C843 H831 0.930 . S
C843 C844 1.399 . S
C843 C848 1.399 . S
C844 C843 1.399 . S
C844 C845 1.376 . S
C845 H832 0.930 . S
C845 C844 1.376 . S
C845 C846 1.388 . S
C846 H833 0.930 . S
C846 C845 1.388 . S
C846 C847 1.390 . S
C847 C846 1.390 . S
C847 C848 1.394 . S
C847 C853 1.465 . S
C848 C843 1.399 . S
C848 C847 1.394 . S
C848 C849 1.516 . S
C849 C848 1.516 . S
C849 C850 1.502 . S
C849 C851 1.561 . S
C849 C852 1.526 . S
C850 H834 0.959 . S
C850 H835 0.959 . S
C850 H836 0.961 . S
C850 C849 1.502 . S
C851 H837 0.960 . S
C851 H838 0.961 . S
C851 H839 0.959 . S
C851 C849 1.561 . S
C852 C849 1.526 . S
C852 C853 1.396 . S
C852 C857 1.390 . S
C853 C847 1.465 . S
C853 C852 1.396 . S
C853 C854 1.399 . S
C854 H840 0.929 . S
C854 C853 1.399 . S
C854 C855 1.385 . S
C855 H841 0.931 . S
C855 C854 1.385 . S
C855 C856 1.389 . S
C856 C855 1.389 . S
C856 C857 1.387 . S
C857 H842 0.930 . S
C857 C852 1.390 . S
C857 C856 1.387 . S
H858 C870 0.930 . S
H859 C872 0.930 . S
H860 C873 0.930 . S
H861 C877 0.959 . S
H862 C877 0.959 . S
H863 C877 0.961 . S
H864 C878 0.960 . S
H865 C878 0.961 . S
H866 C878 0.959 . S
H867 C881 0.929 . S
H868 C882 0.931 . S
H869 C884 0.930 . S
C870 H858 0.930 . S
C870 C871 1.399 . S
C870 C875 1.399 . S
C871 C870 1.399 . S
C871 C872 1.376 . S
C872 H859 0.930 . S
C872 C871 1.376 . S
C872 C873 1.388 . S
C873 H860 0.930 . S
C873 C872 1.388 . S
C873 C874 1.390 . S
C874 C873 1.390 . S
C874 C875 1.394 . S
C874 C880 1.465 . S
C875 C870 1.399 . S
C875 C874 1.394 . S
C875 C876 1.516 . S
C876 C875 1.516 . S
C876 C877 1.502 . S
C876 C878 1.561 . S
C876 C879 1.526 . S
C877 H861 0.959 . S
C877 H862 0.959 . S
C877 H863 0.961 . S
C877 C876 1.502 . S
C878 H864 0.960 . S
C878 H865 0.961 . S
C878 H866 0.959 . S
C878 C876 1.561 . S
C879 C876 1.526 . S
C879 C880 1.396 . S
C879 C884 1.390 . S
C880 C874 1.465 . S
C880 C879 1.396 . S
C880 C881 1.399 . S
C881 H867 0.929 . S
C881 C880 1.399 . S
C881 C882 1.385 . S
C882 H868 0.931 . S
C882 C881 1.385 . S
C882 C883 1.389 . S
C883 C882 1.389 . S
C883 C884 1.387 . S
C884 H869 0.930 . S
C884 C879 1.390 . S
C884 C883 1.387 . S
H885 C897 0.930 . S
H886 C899 0.930 . S
H887 C900 0.930 . S
H888 C904 0.959 . S
H889 C904 0.959 . S
H890 C904 0.961 . S
H891 C905 0.960 . S
H892 C905 0.961 . S
H893 C905 0.959 . S
H894 C908 0.929 . S
H895 C909 0.931 . S
H896 C911 0.930 . S
C897 H885 0.930 . S
C897 C898 1.399 . S
C897 C902 1.399 . S
C898 C897 1.399 . S
C898 C899 1.376 . S
C899 H886 0.930 . S
C899 C898 1.376 . S
C899 C900 1.388 . S
C900 H887 0.930 . S
C900 C899 1.388 . S
C900 C901 1.390 . S
C901 C900 1.390 . S
C901 C902 1.394 . S
C901 C907 1.465 . S
C902 C897 1.399 . S
C902 C901 1.394 . S
C902 C903 1.516 . S
C903 C902 1.516 . S
C903 C904 1.502 . S
C903 C905 1.561 . S
C903 C906 1.526 . S
C904 H888 0.959 . S
C904 H889 0.959 . S
C904 H890 0.961 . S
C904 C903 1.502 . S
C905 H891 0.960 . S
C905 H892 0.961 . S
C905 H893 0.959 . S
C905 C903 1.561 . S
C906 C903 1.526 . S
C906 C907 1.396 . S
C906 C911 1.390 . S
C907 C901 1.465 . S
C907 C906 1.396 . S
C907 C908 1.399 . S
C908 H894 0.929 . S
C908 C907 1.399 . S
C908 C909 1.385 . S
C909 H895 0.931 . S
C909 C908 1.385 . S
C909 C910 1.389 . S
C910 C909 1.389 . S
C910 C911 1.387 . S
C911 H896 0.930 . S
C911 C906 1.390 . S
C911 C910 1.387 . S
H912 C924 0.930 1_556 S
H913 C926 0.930 . S
H914 C927 0.930 . S
H915 C931 0.959 1_554 S
H916 C931 0.959 . S
H917 C931 0.961 . S
H918 C932 0.960 . S
H919 C932 0.961 . S
H920 C932 0.959 . S
H921 C935 0.929 . S
H922 C936 0.931 . S
H923 C938 0.930 . S
C924 H912 0.930 1_554 S
C924 C925 1.399 . S
C924 C929 1.399 . S
C925 C924 1.399 . S
C925 C926 1.376 . S
C926 H913 0.930 . S
C926 C925 1.376 . S
C926 C927 1.388 . S
C927 H914 0.930 . S
C927 C926 1.388 . S
C927 C928 1.390 . S
C928 C927 1.390 . S
C928 C929 1.394 . S
C928 C934 1.465 . S
C929 C924 1.399 . S
C929 C928 1.394 . S
C929 C930 1.516 . S
C930 C929 1.516 . S
C930 C931 1.502 1_554 S
C930 C932 1.561 1_554 S
C930 C933 1.526 . S
C931 H915 0.959 1_556 S
C931 H916 0.959 . S
C931 H917 0.961 . S
C931 C930 1.502 1_556 S
C932 H918 0.960 . S
C932 H919 0.961 . S
C932 H920 0.959 . S
C932 C930 1.561 1_556 S
C933 C930 1.526 . S
C933 C934 1.396 . S
C933 C938 1.390 . S
C934 C928 1.465 . S
C934 C933 1.396 . S
C934 C935 1.399 . S
C935 H921 0.929 . S
C935 C934 1.399 . S
C935 C936 1.385 . S
C936 H922 0.931 . S
C936 C935 1.385 . S
C936 C937 1.389 . S
C937 C936 1.389 . S
C937 C938 1.387 . S
C938 H923 0.930 . S
C938 C933 1.390 . S
C938 C937 1.387 . S
H939 C951 0.930 . S
H940 C953 0.930 . S
H941 C954 0.930 . S
H942 C958 0.959 . S
H943 C958 0.959 . S
H944 C958 0.961 . S
H945 C959 0.960 . S
H946 C959 0.961 . S
H947 C959 0.959 . S
H948 C962 0.929 . S
H949 C963 0.931 . S
H950 C965 0.930 . S
C951 H939 0.930 . S
C951 C952 1.399 . S
C951 C956 1.399 . S
C952 C951 1.399 . S
C952 C953 1.376 . S
C953 H940 0.930 . S
C953 C952 1.376 . S
C953 C954 1.388 . S
C954 H941 0.930 . S
C954 C953 1.388 . S
C954 C955 1.390 . S
C955 C954 1.390 . S
C955 C956 1.394 . S
C955 C961 1.465 . S
C956 C951 1.399 . S
C956 C955 1.394 . S
C956 C957 1.516 . S
C957 C956 1.516 . S
C957 C958 1.502 . S
C957 C959 1.561 . S
C957 C960 1.526 . S
C958 H942 0.959 . S
C958 H943 0.959 . S
C958 H944 0.961 . S
C958 C957 1.502 . S
C959 H945 0.960 . S
C959 H946 0.961 . S
C959 H947 0.959 . S
C959 C957 1.561 . S
C960 C957 1.526 . S
C960 C961 1.396 . S
C960 C965 1.390 . S
C961 C955 1.465 . S
C961 C960 1.396 . S
C961 C962 1.399 . S
C962 H948 0.929 . S
C962 C961 1.399 . S
C962 C963 1.385 . S
C963 H949 0.931 . S
C963 C962 1.385 . S
C963 C964 1.389 . S
C964 C963 1.389 . S
C964 C965 1.387 . S
C965 H950 0.930 . S
C965 C960 1.390 . S
C965 C964 1.387 . S
H966 C978 0.930 . S
H967 C980 0.930 . S
H968 C981 0.930 . S
H969 C985 0.959 . S
H970 C985 0.959 . S
H971 C985 0.961 . S
H972 C986 0.960 . S
H973 C986 0.961 . S
H974 C986 0.959 . S
H975 C989 0.929 . S
H976 C990 0.931 . S
H977 C992 0.930 . S
C978 H966 0.930 . S
C978 C979 1.399 . S
C978 C983 1.399 . S
C979 C978 1.399 . S
C979 C980 1.376 . S
C980 H967 0.930 . S
C980 C979 1.376 . S
C980 C981 1.388 . S
C981 H968 0.930 . S
C981 C980 1.388 . S
C981 C982 1.390 . S
C982 C981 1.390 . S
C982 C983 1.394 . S
C982 C988 1.465 . S
C983 C978 1.399 . S
C983 C982 1.394 . S
C983 C984 1.516 . S
C984 C983 1.516 . S
C984 C985 1.502 . S
C984 C986 1.561 . S
C984 C987 1.526 . S
C985 H969 0.959 . S
C985 H970 0.959 . S
C985 H971 0.961 . S
C985 C984 1.502 . S
C986 H972 0.960 . S
C986 H973 0.961 . S
C986 H974 0.959 . S
C986 C984 1.561 . S
C987 C984 1.526 . S
C987 C988 1.396 . S
C987 C992 1.390 . S
C988 C982 1.465 . S
C988 C987 1.396 . S
C988 C989 1.399 . S
C989 H975 0.929 . S
C989 C988 1.399 . S
C989 C990 1.385 . S
C990 H976 0.931 . S
C990 C989 1.385 . S
C990 C991 1.389 . S
C991 C990 1.389 . S
C991 C992 1.387 . S
C992 H977 0.930 . S
C992 C987 1.390 . S
C992 C991 1.387 . S
H993 C1005 0.930 . S
H994 C1007 0.930 . S
H995 C1008 0.930 . S
H996 C1012 0.959 . S
H997 C1012 0.959 . S
H998 C1012 0.961 . S
H999 C1013 0.960 . S
H1000 C1013 0.961 . S
H1001 C1013 0.959 . S
H1002 C1016 0.929 . S
H1003 C1017 0.931 . S
H1004 C1019 0.930 . S
C1005 H993 0.930 . S
C1005 C1006 1.399 . S
C1005 C1010 1.399 . S
C1006 C1005 1.399 . S
C1006 C1007 1.376 . S
C1007 H994 0.930 . S
C1007 C1006 1.376 . S
C1007 C1008 1.388 . S
C1008 H995 0.930 . S
C1008 C1007 1.388 . S
C1008 C1009 1.390 . S
C1009 C1008 1.390 . S
C1009 C1010 1.394 . S
C1009 C1015 1.465 . S
C1010 C1005 1.399 . S
C1010 C1009 1.394 . S
C1010 C1011 1.516 . S
C1011 C1010 1.516 . S
C1011 C1012 1.502 . S
C1011 C1013 1.561 . S
C1011 C1014 1.526 . S
C1012 H996 0.959 . S
C1012 H997 0.959 . S
C1012 H998 0.961 . S
C1012 C1011 1.502 . S
C1013 H999 0.960 . S
C1013 H1000 0.961 . S
C1013 H1001 0.959 . S
C1013 C1011 1.561 . S
C1014 C1011 1.526 . S
C1014 C1015 1.396 . S
C1014 C1019 1.390 . S
C1015 C1009 1.465 . S
C1015 C1014 1.396 . S
C1015 C1016 1.399 . S
C1016 H1002 0.929 . S
C1016 C1015 1.399 . S
C1016 C1017 1.385 . S
C1017 H1003 0.931 . S
C1017 C1016 1.385 . S
C1017 C1018 1.389 . S
C1018 C1017 1.389 . S
C1018 C1019 1.387 . S
C1019 H1004 0.930 . S
C1019 C1014 1.390 . S
C1019 C1018 1.387 . S
H1020 C1032 0.930 . S
H1021 C1034 0.930 . S
H1022 C1035 0.930 . S
H1023 C1039 0.959 . S
H1024 C1039 0.959 . S
H1025 C1039 0.961 . S
H1026 C1040 0.960 . S
H1027 C1040 0.961 . S
H1028 C1040 0.959 . S
H1029 C1043 0.929 . S
H1030 C1044 0.931 . S
H1031 C1046 0.930 . S
C1032 H1020 0.930 . S
C1032 C1033 1.399 . S
C1032 C1037 1.399 . S
C1033 C1032 1.399 . S
C1033 C1034 1.376 . S
C1034 H1021 0.930 . S
C1034 C1033 1.376 . S
C1034 C1035 1.388 . S
C1035 H1022 0.930 . S
C1035 C1034 1.388 . S
C1035 C1036 1.390 . S
C1036 C1035 1.390 . S
C1036 C1037 1.394 . S
C1036 C1042 1.465 . S
C1037 C1032 1.399 . S
C1037 C1036 1.394 . S
C1037 C1038 1.516 . S
C1038 C1037 1.516 . S
C1038 C1039 1.502 . S
C1038 C1040 1.561 . S
C1038 C1041 1.526 . S
C1039 H1023 0.959 . S
C1039 H1024 0.959 . S
C1039 H1025 0.961 . S
C1039 C1038 1.502 . S
C1040 H1026 0.960 . S
C1040 H1027 0.961 . S
C1040 H1028 0.959 . S
C1040 C1038 1.561 . S
C1041 C1038 1.526 . S
C1041 C1042 1.396 . S
C1041 C1046 1.390 . S
C1042 C1036 1.465 . S
C1042 C1041 1.396 . S
C1042 C1043 1.399 . S
C1043 H1029 0.929 . S
C1043 C1042 1.399 . S
C1043 C1044 1.385 . S
C1044 H1030 0.931 . S
C1044 C1043 1.385 . S
C1044 C1045 1.389 . S
C1045 C1044 1.389 . S
C1045 C1046 1.387 . S
C1046 H1031 0.930 . S
C1046 C1041 1.390 . S
C1046 C1045 1.387 . S
H1047 C1059 0.927 1_554 S
H1048 C1061 0.930 . S
H1049 C1062 0.930 . S
H1050 C1066 0.959 . S
H1051 C1066 0.959 . S
H1052 C1066 0.961 . S
H1053 C1067 0.960 1_554 S
H1054 C1067 0.961 1_554 S
H1055 C1067 0.959 . S
H1056 C1070 0.929 . S
H1057 C1071 0.931 . S
H1058 C1073 0.930 1_554 S
C1059 H1047 0.927 1_556 S
C1059 C1060 1.399 . S
C1059 C1064 1.399 . S
C1060 C1059 1.399 . S
C1060 C1061 1.376 . S
C1061 H1048 0.930 . S
C1061 C1060 1.376 . S
C1061 C1062 1.388 . S
C1062 H1049 0.930 . S
C1062 C1061 1.388 . S
C1062 C1063 1.390 . S
C1063 C1062 1.390 . S
C1063 C1064 1.394 . S
C1063 C1069 1.465 . S
C1064 C1059 1.399 . S
C1064 C1063 1.394 . S
C1064 C1065 1.512 1_556 S
C1065 C1064 1.512 1_554 S
C1065 C1066 1.509 . S
C1065 C1067 1.560 1_554 S
C1065 C1068 1.523 1_554 S
C1066 H1050 0.959 . S
C1066 H1051 0.959 . S
C1066 H1052 0.961 . S
C1066 C1065 1.509 . S
C1067 H1053 0.960 1_556 S
C1067 H1054 0.961 1_556 S
C1067 H1055 0.959 . S
C1067 C1065 1.560 1_556 S
C1068 C1065 1.523 1_556 S
C1068 C1069 1.396 . S
C1068 C1073 1.390 . S
C1069 C1063 1.465 . S
C1069 C1068 1.396 . S
C1069 C1070 1.399 . S
C1070 H1056 0.929 . S
C1070 C1069 1.399 . S
C1070 C1071 1.385 . S
C1071 H1057 0.931 . S
C1071 C1070 1.385 . S
C1071 C1072 1.389 . S
C1072 C1071 1.389 . S
C1072 C1073 1.387 . S
C1073 H1058 0.930 1_556 S
C1073 C1068 1.390 . S
C1073 C1072 1.387 . S
H1074 C1086 0.930 . S
H1075 C1088 0.930 . S
H1076 C1089 0.930 . S
H1077 C1093 0.959 . S
H1078 C1093 0.959 . S
H1079 C1093 0.961 . S
H1080 C1094 0.960 . S
H1081 C1094 0.961 . S
H1082 C1094 0.959 . S
H1083 C1097 0.929 . S
H1084 C1098 0.931 . S
H1085 C1100 0.930 . S
C1086 H1074 0.930 . S
C1086 C1087 1.399 . S
C1086 C1091 1.399 . S
C1087 C1086 1.399 . S
C1087 C1088 1.376 . S
C1088 H1075 0.930 . S
C1088 C1087 1.376 . S
C1088 C1089 1.388 . S
C1089 H1076 0.930 . S
C1089 C1088 1.388 . S
C1089 C1090 1.390 . S
C1090 C1089 1.390 . S
C1090 C1091 1.394 . S
C1090 C1096 1.465 . S
C1091 C1086 1.399 . S
C1091 C1090 1.394 . S
C1091 C1092 1.516 . S
C1092 C1091 1.516 . S
C1092 C1093 1.502 . S
C1092 C1094 1.561 . S
C1092 C1095 1.526 . S
C1093 H1077 0.959 . S
C1093 H1078 0.959 . S
C1093 H1079 0.961 . S
C1093 C1092 1.502 . S
C1094 H1080 0.960 . S
C1094 H1081 0.961 . S
C1094 H1082 0.959 . S
C1094 C1092 1.561 . S
C1095 C1092 1.526 . S
C1095 C1096 1.396 . S
C1095 C1100 1.390 . S
C1096 C1090 1.465 . S
C1096 C1095 1.396 . S
C1096 C1097 1.399 . S
C1097 H1083 0.929 . S
C1097 C1096 1.399 . S
C1097 C1098 1.385 . S
C1098 H1084 0.931 . S
C1098 C1097 1.385 . S
C1098 C1099 1.389 . S
C1099 C1098 1.389 . S
C1099 C1100 1.387 . S
C1100 H1085 0.930 . S
C1100 C1095 1.390 . S
C1100 C1099 1.387 . S
H1101 C1113 0.930 . S
H1102 C1115 0.930 . S
H1103 C1116 0.930 . S
H1104 C1120 0.959 . S
H1105 C1120 0.959 . S
H1106 C1120 0.961 . S
H1107 C1121 0.960 . S
H1108 C1121 0.961 . S
H1109 C1121 0.959 . S
H1110 C1124 0.929 . S
H1111 C1125 0.931 . S
H1112 C1127 0.930 . S
C1113 H1101 0.930 . S
C1113 C1114 1.399 . S
C1113 C1118 1.399 . S
C1114 C1113 1.399 . S
C1114 C1115 1.376 . S
C1115 H1102 0.930 . S
C1115 C1114 1.376 . S
C1115 C1116 1.388 . S
C1116 H1103 0.930 . S
C1116 C1115 1.388 . S
C1116 C1117 1.390 . S
C1117 C1116 1.390 . S
C1117 C1118 1.394 . S
C1117 C1123 1.465 . S
C1118 C1113 1.399 . S
C1118 C1117 1.394 . S
C1118 C1119 1.516 . S
C1119 C1118 1.516 . S
C1119 C1120 1.502 . S
C1119 C1121 1.561 . S
C1119 C1122 1.526 . S
C1120 H1104 0.959 . S
C1120 H1105 0.959 . S
C1120 H1106 0.961 . S
C1120 C1119 1.502 . S
C1121 H1107 0.960 . S
C1121 H1108 0.961 . S
C1121 H1109 0.959 . S
C1121 C1119 1.561 . S
C1122 C1119 1.526 . S
C1122 C1123 1.396 . S
C1122 C1127 1.390 . S
C1123 C1117 1.465 . S
C1123 C1122 1.396 . S
C1123 C1124 1.399 . S
C1124 H1110 0.929 . S
C1124 C1123 1.399 . S
C1124 C1125 1.385 . S
C1125 H1111 0.931 . S
C1125 C1124 1.385 . S
C1125 C1126 1.389 . S
C1126 C1125 1.389 . S
C1126 C1127 1.387 . S
C1127 H1112 0.930 . S
C1127 C1122 1.390 . S
C1127 C1126 1.387 . S
H1128 C1140 0.930 . S
H1129 C1142 0.930 . S
H1130 C1143 0.930 . S
H1131 C1147 0.959 . S
H1132 C1147 0.959 . S
H1133 C1147 0.961 . S
H1134 C1148 0.960 . S
H1135 C1148 0.961 . S
H1136 C1148 0.959 . S
H1137 C1151 0.929 . S
H1138 C1152 0.931 . S
H1139 C1154 0.930 . S
C1140 H1128 0.930 . S
C1140 C1141 1.399 . S
C1140 C1145 1.399 . S
C1141 C1140 1.399 . S
C1141 C1142 1.376 . S
C1142 H1129 0.930 . S
C1142 C1141 1.376 . S
C1142 C1143 1.388 . S
C1143 H1130 0.930 . S
C1143 C1142 1.388 . S
C1143 C1144 1.390 . S
C1144 C1143 1.390 . S
C1144 C1145 1.394 . S
C1144 C1150 1.465 . S
C1145 C1140 1.399 . S
C1145 C1144 1.394 . S
C1145 C1146 1.516 . S
C1146 C1145 1.516 . S
C1146 C1147 1.502 . S
C1146 C1148 1.561 . S
C1146 C1149 1.526 . S
C1147 H1131 0.959 . S
C1147 H1132 0.959 . S
C1147 H1133 0.961 . S
C1147 C1146 1.502 . S
C1148 H1134 0.960 . S
C1148 H1135 0.961 . S
C1148 H1136 0.959 . S
C1148 C1146 1.561 . S
C1149 C1146 1.526 . S
C1149 C1150 1.396 . S
C1149 C1154 1.390 . S
C1150 C1144 1.465 . S
C1150 C1149 1.396 . S
C1150 C1151 1.399 . S
C1151 H1137 0.929 . S
C1151 C1150 1.399 . S
C1151 C1152 1.385 . S
C1152 H1138 0.931 . S
C1152 C1151 1.385 . S
C1152 C1153 1.389 . S
C1153 C1152 1.389 . S
C1153 C1154 1.387 . S
C1154 H1139 0.930 . S
C1154 C1149 1.390 . S
C1154 C1153 1.387 . S
H1155 C1167 0.930 . S
H1156 C1169 0.930 . S
H1157 C1170 0.930 . S
H1158 C1174 0.959 . S
H1159 C1174 0.959 . S
H1160 C1174 0.961 . S
H1161 C1175 0.960 . S
H1162 C1175 0.961 . S
H1163 C1175 0.959 . S
H1164 C1178 0.929 . S
H1165 C1179 0.931 . S
H1166 C1181 0.930 . S
C1167 H1155 0.930 . S
C1167 C1168 1.399 . S
C1167 C1172 1.399 . S
C1168 C1167 1.399 . S
C1168 C1169 1.376 . S
C1169 H1156 0.930 . S
C1169 C1168 1.376 . S
C1169 C1170 1.388 . S
C1170 H1157 0.930 . S
C1170 C1169 1.388 . S
C1170 C1171 1.390 . S
C1171 C1170 1.390 . S
C1171 C1172 1.394 . S
C1171 C1177 1.465 . S
C1172 C1167 1.399 . S
C1172 C1171 1.394 . S
C1172 C1173 1.516 . S
C1173 C1172 1.516 . S
C1173 C1174 1.502 . S
C1173 C1175 1.561 . S
C1173 C1176 1.526 . S
C1174 H1158 0.959 . S
C1174 H1159 0.959 . S
C1174 H1160 0.961 . S
C1174 C1173 1.502 . S
C1175 H1161 0.960 . S
C1175 H1162 0.961 . S
C1175 H1163 0.959 . S
C1175 C1173 1.561 . S
C1176 C1173 1.526 . S
C1176 C1177 1.396 . S
C1176 C1181 1.390 . S
C1177 C1171 1.465 . S
C1177 C1176 1.396 . S
C1177 C1178 1.399 . S
C1178 H1164 0.929 . S
C1178 C1177 1.399 . S
C1178 C1179 1.385 . S
C1179 H1165 0.931 . S
C1179 C1178 1.385 . S
C1179 C1180 1.389 . S
C1180 C1179 1.389 . S
C1180 C1181 1.387 . S
C1181 H1166 0.930 . S
C1181 C1176 1.390 . S
C1181 C1180 1.387 . S
H1182 C1194 0.930 . S
H1183 C1196 0.930 . S
H1184 C1197 0.930 . S
H1185 C1201 0.959 . S
H1186 C1201 0.959 . S
H1187 C1201 0.961 . S
H1188 C1202 0.960 . S
H1189 C1202 0.961 . S
H1190 C1202 0.959 1_556 S
H1191 C1205 0.929 . S
H1192 C1206 0.931 . S
H1193 C1208 0.930 . S
C1194 H1182 0.930 . S
C1194 C1195 1.399 . S
C1194 C1199 1.399 . S
C1195 C1194 1.399 . S
C1195 C1196 1.376 . S
C1196 H1183 0.930 . S
C1196 C1195 1.376 . S
C1196 C1197 1.388 . S
C1197 H1184 0.930 . S
C1197 C1196 1.388 . S
C1197 C1198 1.390 . S
C1198 C1197 1.390 . S
C1198 C1199 1.394 . S
C1198 C1204 1.465 . S
C1199 C1194 1.399 . S
C1199 C1198 1.394 . S
C1199 C1200 1.516 1_556 S
C1200 C1199 1.516 1_554 S
C1200 C1201 1.502 . S
C1200 C1202 1.561 . S
C1200 C1203 1.526 1_554 S
C1201 H1185 0.959 . S
C1201 H1186 0.959 . S
C1201 H1187 0.961 . S
C1201 C1200 1.502 . S
C1202 H1188 0.960 . S
C1202 H1189 0.961 . S
C1202 H1190 0.959 1_554 S
C1202 C1200 1.561 . S
C1203 C1200 1.526 1_556 S
C1203 C1204 1.396 . S
C1203 C1208 1.390 1_556 S
C1204 C1198 1.465 . S
C1204 C1203 1.396 . S
C1204 C1205 1.399 . S
C1205 H1191 0.929 . S
C1205 C1204 1.399 . S
C1205 C1206 1.385 . S
C1206 H1192 0.931 . S
C1206 C1205 1.385 . S
C1206 C1207 1.389 1_556 S
C1207 C1206 1.389 1_554 S
C1207 C1208 1.387 . S
C1208 H1193 0.930 . S
C1208 C1203 1.390 1_554 S
C1208 C1207 1.387 . S
H1209 C1221 0.930 . S
H1210 C1223 0.930 . S
H1211 C1224 0.930 . S
H1212 C1228 0.959 . S
H1213 C1228 0.959 . S
H1214 C1228 0.961 . S
H1215 C1229 0.960 . S
H1216 C1229 0.961 . S
H1217 C1229 0.959 1_554 S
H1218 C1232 0.929 . S
H1219 C1233 0.931 . S
H1220 C1235 0.930 . S
C1221 H1209 0.930 . S
C1221 C1222 1.399 . S
C1221 C1226 1.399 . S
C1222 C1221 1.399 . S
C1222 C1223 1.376 . S
C1223 H1210 0.930 . S
C1223 C1222 1.376 . S
C1223 C1224 1.388 . S
C1224 H1211 0.930 . S
C1224 C1223 1.388 . S
C1224 C1225 1.390 . S
C1225 C1224 1.390 . S
C1225 C1226 1.394 . S
C1225 C1231 1.465 . S
C1226 C1221 1.399 . S
C1226 C1225 1.394 . S
C1226 C1227 1.516 . S
C1227 C1226 1.516 . S
C1227 C1228 1.502 1_554 S
C1227 C1229 1.561 1_554 S
C1227 C1230 1.526 . S
C1228 H1212 0.959 . S
C1228 H1213 0.959 . S
C1228 H1214 0.961 . S
C1228 C1227 1.502 1_556 S
C1229 H1215 0.960 . S
C1229 H1216 0.961 . S
C1229 H1217 0.959 1_556 S
C1229 C1227 1.561 1_556 S
C1230 C1227 1.526 . S
C1230 C1231 1.396 . S
C1230 C1235 1.390 1_554 S
C1231 C1225 1.465 . S
C1231 C1230 1.396 . S
C1231 C1232 1.399 . S
C1232 H1218 0.929 . S
C1232 C1231 1.399 . S
C1232 C1233 1.385 . S
C1233 H1219 0.931 . S
C1233 C1232 1.385 . S
C1233 C1234 1.389 . S
C1234 C1233 1.389 . S
C1234 C1235 1.387 1_554 S
C1235 H1220 0.930 . S
C1235 C1230 1.390 1_556 S
C1235 C1234 1.387 1_556 S
C277 C6 1.608 . S
C289 C8 1.621 . S
C304 C28 1.630 1_556 S
C316 C30 1.638 . S
C331 C52 1.628 . S
C343 C50 1.628 . S
C358 C72 1.632 . S
C370 C74 1.633 . S
C385 C96 1.641 . S
C397 C94 1.640 . S
C412 C116 1.639 . S
C424 C118 1.642 . S
C439 C139 1.622 . S
C451 C136 1.632 . S
C466 C158 1.641 . S
C478 C161 1.636 . S
C493 C180 1.627 . S
C505 C183 1.626 . S
C520 C202 1.640 . S
C532 C205 1.639 . S
C547 C227 1.611 . S
C559 C224 1.624 . S
C574 C246 1.622 . S
C586 C249 1.620 . S
C601 C4 1.429 1_556 S
C613 C162 1.485 . S
C628 C184 1.487 . S
C640 C26 1.427 . S
C655 C206 1.462 . S
C667 C48 1.464 . S
C682 C70 1.446 . S
C694 C228 1.479 . S
C709 C92 1.419 . S
C721 C250 1.495 . S
C736 C114 1.478 . S
C748 C140 1.448 . S
C763 C5 1.055 . S
C775 C229 1.021 . S
C790 C27 1.122 . S
C802 C251 1.050 . S
C817 C141 1.125 . S
C829 C49 1.073 . S
C844 C71 1.081 . S
C856 C163 1.018 . S
C871 C93 1.125 . S
C883 C185 1.079 . S
C898 C207 1.123 . S
C910 C115 1.085 . S
C925 C9 1.158 . S
C937 C181 1.115 . S
C952 C203 1.179 . S
C964 C31 1.137 . S
C979 C225 1.168 . S
C991 C53 1.112 . S
C1006 C75 1.156 . S
C1018 C247 1.116 . S
C1033 C137 1.180 . S
C1045 C97 1.136 . S
C1060 C119 1.109 . S
C1072 C159 1.176 . S
C1087 C7 1.163 . S
C1099 C226 1.227 . S
C1114 C29 1.216 . S
C1126 C248 1.113 . S
C1141 C51 1.172 . S
C1153 C138 1.092 . S
C1168 C160 1.148 . S
C1180 C73 1.095 . S
C1195 C95 1.112 . S
C1207 C182 1.215 . S
C1222 C204 1.113 . S
C1234 C117 1.215 1_554 S
