# Generated by pormake.
# Topology nbo-h, (5)-cn, num edge types: 1
# Building blocks:
#     Node 0, Type 0, BuildingBlock: BEQFEK_clean_sbu_0, # of connection points: 5
#     Node 1, Type 0, BuildingBlock: BEQFEK_clean_sbu_0, # of connection points: 5
#     Node 2, Type 0, BuildingBlock: BEQFEK_clean_sbu_0, # of connection points: 5
#     Node 3, Type 0, BuildingBlock: BEQFEK_clean_sbu_0, # of connection points: 5
#     Node 4, Type 0, BuildingBlock: BEQFEK_clean_sbu_0, # of connection points: 5
#     Node 5, Type 0, BuildingBlock: BEQFEK_clean_sbu_0, # of connection points: 5
#     Node 6, Type 0, BuildingBlock: BEQFEK_clean_sbu_0, # of connection points: 5
#     Node 7, Type 0, BuildingBlock: BEQFEK_clean_sbu_0, # of connection points: 5
#     Node 8, Type 0, BuildingBlock: BEQFEK_clean_sbu_0, # of connection points: 5
#     Node 9, Type 0, BuildingBlock: BEQFEK_clean_sbu_0, # of connection points: 5
#     Node 10, Type 0, BuildingBlock: BEQFEK_clean_sbu_0, # of connection points: 5
#     Node 11, Type 0, BuildingBlock: BEQFEK_clean_sbu_0, # of connection points: 5
#     Node 12, Type 0, BuildingBlock: BEQFEK_clean_sbu_0, # of connection points: 5
#     Node 13, Type 0, BuildingBlock: BEQFEK_clean_sbu_0, # of connection points: 5
#     Node 14, Type 0, BuildingBlock: BEQFEK_clean_sbu_0, # of connection points: 5
#     Node 15, Type 0, BuildingBlock: BEQFEK_clean_sbu_0, # of connection points: 5
#     Node 16, Type 0, BuildingBlock: BEQFEK_clean_sbu_0, # of connection points: 5
#     Node 17, Type 0, BuildingBlock: BEQFEK_clean_sbu_0, # of connection points: 5
#     Node 18, Type 0, BuildingBlock: BEQFEK_clean_sbu_0, # of connection points: 5
#     Node 19, Type 0, BuildingBlock: BEQFEK_clean_sbu_0, # of connection points: 5
#     Node 20, Type 0, BuildingBlock: BEQFEK_clean_sbu_0, # of connection points: 5
#     Node 21, Type 0, BuildingBlock: BEQFEK_clean_sbu_0, # of connection points: 5
#     Node 22, Type 0, BuildingBlock: BEQFEK_clean_sbu_0, # of connection points: 5
#     Node 23, Type 0, BuildingBlock: BEQFEK_clean_sbu_0, # of connection points: 5
#     Node 24, Type 0, BuildingBlock: BEQFEK_clean_sbu_0, # of connection points: 5
#     Node 25, Type 0, BuildingBlock: BEQFEK_clean_sbu_0, # of connection points: 5
#     Node 26, Type 0, BuildingBlock: BEQFEK_clean_sbu_0, # of connection points: 5
#     Node 27, Type 0, BuildingBlock: BEQFEK_clean_sbu_0, # of connection points: 5
#     Node 28, Type 0, BuildingBlock: BEQFEK_clean_sbu_0, # of connection points: 5
#     Node 29, Type 0, BuildingBlock: BEQFEK_clean_sbu_0, # of connection points: 5
#     Node 30, Type 0, BuildingBlock: BEQFEK_clean_sbu_0, # of connection points: 5
#     Node 31, Type 0, BuildingBlock: BEQFEK_clean_sbu_0, # of connection points: 5
#     Node 32, Type 0, BuildingBlock: BEQFEK_clean_sbu_0, # of connection points: 5
#     Node 33, Type 0, BuildingBlock: BEQFEK_clean_sbu_0, # of connection points: 5
#     Node 34, Type 0, BuildingBlock: BEQFEK_clean_sbu_0, # of connection points: 5
#     Node 35, Type 0, BuildingBlock: BEQFEK_clean_sbu_0, # of connection points: 5
#     Node 36, Type 0, BuildingBlock: BEQFEK_clean_sbu_0, # of connection points: 5
#     Node 37, Type 0, BuildingBlock: BEQFEK_clean_sbu_0, # of connection points: 5
#     Node 38, Type 0, BuildingBlock: BEQFEK_clean_sbu_0, # of connection points: 5
#     Node 39, Type 0, BuildingBlock: BEQFEK_clean_sbu_0, # of connection points: 5
#     Node 40, Type 0, BuildingBlock: BEQFEK_clean_sbu_0, # of connection points: 5
#     Node 41, Type 0, BuildingBlock: BEQFEK_clean_sbu_0, # of connection points: 5
#     Node 42, Type 0, BuildingBlock: BEQFEK_clean_sbu_0, # of connection points: 5
#     Node 43, Type 0, BuildingBlock: BEQFEK_clean_sbu_0, # of connection points: 5
#     Node 44, Type 0, BuildingBlock: BEQFEK_clean_sbu_0, # of connection points: 5
#     Node 45, Type 0, BuildingBlock: BEQFEK_clean_sbu_0, # of connection points: 5
#     Node 46, Type 0, BuildingBlock: BEQFEK_clean_sbu_0, # of connection points: 5
#     Node 47, Type 0, BuildingBlock: BEQFEK_clean_sbu_0, # of connection points: 5
#     Edge 48, Type (0, 0), BuildingBlock: XIVTED_clean_linker_0, # of connection points: 2
#     Edge 49, Type (0, 0), BuildingBlock: XIVTED_clean_linker_0, # of connection points: 2
#     Edge 50, Type (0, 0), BuildingBlock: XIVTED_clean_linker_0, # of connection points: 2
#     Edge 51, Type (0, 0), BuildingBlock: XIVTED_clean_linker_0, # of connection points: 2
#     Edge 52, Type (0, 0), BuildingBlock: XIVTED_clean_linker_0, # of connection points: 2
#     Edge 53, Type (0, 0), BuildingBlock: XIVTED_clean_linker_0, # of connection points: 2
#     Edge 54, Type (0, 0), BuildingBlock: XIVTED_clean_linker_0, # of connection points: 2
#     Edge 55, Type (0, 0), BuildingBlock: XIVTED_clean_linker_0, # of connection points: 2
#     Edge 56, Type (0, 0), BuildingBlock: XIVTED_clean_linker_0, # of connection points: 2
#     Edge 57, Type (0, 0), BuildingBlock: XIVTED_clean_linker_0, # of connection points: 2
#     Edge 58, Type (0, 0), BuildingBlock: XIVTED_clean_linker_0, # of connection points: 2
#     Edge 59, Type (0, 0), BuildingBlock: XIVTED_clean_linker_0, # of connection points: 2
#     Edge 60, Type (0, 0), BuildingBlock: XIVTED_clean_linker_0, # of connection points: 2
#     Edge 61, Type (0, 0), BuildingBlock: XIVTED_clean_linker_0, # of connection points: 2
#     Edge 62, Type (0, 0), BuildingBlock: XIVTED_clean_linker_0, # of connection points: 2
#     Edge 63, Type (0, 0), BuildingBlock: XIVTED_clean_linker_0, # of connection points: 2
#     Edge 64, Type (0, 0), BuildingBlock: XIVTED_clean_linker_0, # of connection points: 2
#     Edge 65, Type (0, 0), BuildingBlock: XIVTED_clean_linker_0, # of connection points: 2
#     Edge 66, Type (0, 0), BuildingBlock: XIVTED_clean_linker_0, # of connection points: 2
#     Edge 67, Type (0, 0), BuildingBlock: XIVTED_clean_linker_0, # of connection points: 2
#     Edge 68, Type (0, 0), BuildingBlock: XIVTED_clean_linker_0, # of connection points: 2
#     Edge 69, Type (0, 0), BuildingBlock: XIVTED_clean_linker_0, # of connection points: 2
#     Edge 70, Type (0, 0), BuildingBlock: XIVTED_clean_linker_0, # of connection points: 2
#     Edge 71, Type (0, 0), BuildingBlock: XIVTED_clean_linker_0, # of connection points: 2
#     Edge 72, Type (0, 0), BuildingBlock: XIVTED_clean_linker_0, # of connection points: 2
#     Edge 73, Type (0, 0), BuildingBlock: XIVTED_clean_linker_0, # of connection points: 2
#     Edge 74, Type (0, 0), BuildingBlock: XIVTED_clean_linker_0, # of connection points: 2
#     Edge 75, Type (0, 0), BuildingBlock: XIVTED_clean_linker_0, # of connection points: 2
#     Edge 76, Type (0, 0), BuildingBlock: XIVTED_clean_linker_0, # of connection points: 2
#     Edge 77, Type (0, 0), BuildingBlock: XIVTED_clean_linker_0, # of connection points: 2
#     Edge 78, Type (0, 0), BuildingBlock: XIVTED_clean_linker_0, # of connection points: 2
#     Edge 79, Type (0, 0), BuildingBlock: XIVTED_clean_linker_0, # of connection points: 2
#     Edge 80, Type (0, 0), BuildingBlock: XIVTED_clean_linker_0, # of connection points: 2
#     Edge 81, Type (0, 0), BuildingBlock: XIVTED_clean_linker_0, # of connection points: 2
#     Edge 82, Type (0, 0), BuildingBlock: XIVTED_clean_linker_0, # of connection points: 2
#     Edge 83, Type (0, 0), BuildingBlock: XIVTED_clean_linker_0, # of connection points: 2
#     Edge 84, Type (0, 0), BuildingBlock: XIVTED_clean_linker_0, # of connection points: 2
#     Edge 85, Type (0, 0), BuildingBlock: XIVTED_clean_linker_0, # of connection points: 2
#     Edge 86, Type (0, 0), BuildingBlock: XIVTED_clean_linker_0, # of connection points: 2
#     Edge 87, Type (0, 0), BuildingBlock: XIVTED_clean_linker_0, # of connection points: 2
#     Edge 88, Type (0, 0), BuildingBlock: XIVTED_clean_linker_0, # of connection points: 2
#     Edge 89, Type (0, 0), BuildingBlock: XIVTED_clean_linker_0, # of connection points: 2
#     Edge 90, Type (0, 0), BuildingBlock: XIVTED_clean_linker_0, # of connection points: 2
#     Edge 91, Type (0, 0), BuildingBlock: XIVTED_clean_linker_0, # of connection points: 2
#     Edge 92, Type (0, 0), BuildingBlock: XIVTED_clean_linker_0, # of connection points: 2
#     Edge 93, Type (0, 0), BuildingBlock: XIVTED_clean_linker_0, # of connection points: 2
#     Edge 94, Type (0, 0), BuildingBlock: XIVTED_clean_linker_0, # of connection points: 2
#     Edge 95, Type (0, 0), BuildingBlock: XIVTED_clean_linker_0, # of connection points: 2
#     Edge 96, Type (0, 0), BuildingBlock: XIVTED_clean_linker_0, # of connection points: 2
#     Edge 97, Type (0, 0), BuildingBlock: XIVTED_clean_linker_0, # of connection points: 2
#     Edge 98, Type (0, 0), BuildingBlock: XIVTED_clean_linker_0, # of connection points: 2
#     Edge 99, Type (0, 0), BuildingBlock: XIVTED_clean_linker_0, # of connection points: 2
#     Edge 100, Type (0, 0), BuildingBlock: XIVTED_clean_linker_0, # of connection points: 2
#     Edge 101, Type (0, 0), BuildingBlock: XIVTED_clean_linker_0, # of connection points: 2
#     Edge 102, Type (0, 0), BuildingBlock: XIVTED_clean_linker_0, # of connection points: 2
#     Edge 103, Type (0, 0), BuildingBlock: XIVTED_clean_linker_0, # of connection points: 2
#     Edge 104, Type (0, 0), BuildingBlock: XIVTED_clean_linker_0, # of connection points: 2
#     Edge 105, Type (0, 0), BuildingBlock: XIVTED_clean_linker_0, # of connection points: 2
#     Edge 106, Type (0, 0), BuildingBlock: XIVTED_clean_linker_0, # of connection points: 2
#     Edge 107, Type (0, 0), BuildingBlock: XIVTED_clean_linker_0, # of connection points: 2
#     Edge 108, Type (0, 0), BuildingBlock: XIVTED_clean_linker_0, # of connection points: 2
#     Edge 109, Type (0, 0), BuildingBlock: XIVTED_clean_linker_0, # of connection points: 2
#     Edge 110, Type (0, 0), BuildingBlock: XIVTED_clean_linker_0, # of connection points: 2
#     Edge 111, Type (0, 0), BuildingBlock: XIVTED_clean_linker_0, # of connection points: 2
#     Edge 112, Type (0, 0), BuildingBlock: XIVTED_clean_linker_0, # of connection points: 2
#     Edge 113, Type (0, 0), BuildingBlock: XIVTED_clean_linker_0, # of connection points: 2
#     Edge 114, Type (0, 0), BuildingBlock: XIVTED_clean_linker_0, # of connection points: 2
#     Edge 115, Type (0, 0), BuildingBlock: XIVTED_clean_linker_0, # of connection points: 2
#     Edge 116, Type (0, 0), BuildingBlock: XIVTED_clean_linker_0, # of connection points: 2
#     Edge 117, Type (0, 0), BuildingBlock: XIVTED_clean_linker_0, # of connection points: 2
#     Edge 118, Type (0, 0), BuildingBlock: XIVTED_clean_linker_0, # of connection points: 2
#     Edge 119, Type (0, 0), BuildingBlock: XIVTED_clean_linker_0, # of connection points: 2
#     Edge 120, Type (0, 0), BuildingBlock: XIVTED_clean_linker_0, # of connection points: 2
#     Edge 121, Type (0, 0), BuildingBlock: XIVTED_clean_linker_0, # of connection points: 2
#     Edge 122, Type (0, 0), BuildingBlock: XIVTED_clean_linker_0, # of connection points: 2
#     Edge 123, Type (0, 0), BuildingBlock: XIVTED_clean_linker_0, # of connection points: 2
#     Edge 124, Type (0, 0), BuildingBlock: XIVTED_clean_linker_0, # of connection points: 2
#     Edge 125, Type (0, 0), BuildingBlock: XIVTED_clean_linker_0, # of connection points: 2
#     Edge 126, Type (0, 0), BuildingBlock: XIVTED_clean_linker_0, # of connection points: 2
#     Edge 127, Type (0, 0), BuildingBlock: XIVTED_clean_linker_0, # of connection points: 2
#     Edge 128, Type (0, 0), BuildingBlock: XIVTED_clean_linker_0, # of connection points: 2
#     Edge 129, Type (0, 0), BuildingBlock: XIVTED_clean_linker_0, # of connection points: 2
#     Edge 130, Type (0, 0), BuildingBlock: XIVTED_clean_linker_0, # of connection points: 2
#     Edge 131, Type (0, 0), BuildingBlock: XIVTED_clean_linker_0, # of connection points: 2
#     Edge 132, Type (0, 0), BuildingBlock: XIVTED_clean_linker_0, # of connection points: 2
#     Edge 133, Type (0, 0), BuildingBlock: XIVTED_clean_linker_0, # of connection points: 2
#     Edge 134, Type (0, 0), BuildingBlock: XIVTED_clean_linker_0, # of connection points: 2
#     Edge 135, Type (0, 0), BuildingBlock: XIVTED_clean_linker_0, # of connection points: 2
#     Edge 136, Type (0, 0), BuildingBlock: XIVTED_clean_linker_0, # of connection points: 2
#     Edge 137, Type (0, 0), BuildingBlock: XIVTED_clean_linker_0, # of connection points: 2
#     Edge 138, Type (0, 0), BuildingBlock: XIVTED_clean_linker_0, # of connection points: 2
#     Edge 139, Type (0, 0), BuildingBlock: XIVTED_clean_linker_0, # of connection points: 2
#     Edge 140, Type (0, 0), BuildingBlock: XIVTED_clean_linker_0, # of connection points: 2
#     Edge 141, Type (0, 0), BuildingBlock: XIVTED_clean_linker_0, # of connection points: 2
#     Edge 142, Type (0, 0), BuildingBlock: XIVTED_clean_linker_0, # of connection points: 2
#     Edge 143, Type (0, 0), BuildingBlock: XIVTED_clean_linker_0, # of connection points: 2
#     Edge 144, Type (0, 0), BuildingBlock: XIVTED_clean_linker_0, # of connection points: 2
#     Edge 145, Type (0, 0), BuildingBlock: XIVTED_clean_linker_0, # of connection points: 2
#     Edge 146, Type (0, 0), BuildingBlock: XIVTED_clean_linker_0, # of connection points: 2
#     Edge 147, Type (0, 0), BuildingBlock: XIVTED_clean_linker_0, # of connection points: 2
#     Edge 148, Type (0, 0), BuildingBlock: XIVTED_clean_linker_0, # of connection points: 2
#     Edge 149, Type (0, 0), BuildingBlock: XIVTED_clean_linker_0, # of connection points: 2
#     Edge 150, Type (0, 0), BuildingBlock: XIVTED_clean_linker_0, # of connection points: 2
#     Edge 151, Type (0, 0), BuildingBlock: XIVTED_clean_linker_0, # of connection points: 2
#     Edge 152, Type (0, 0), BuildingBlock: XIVTED_clean_linker_0, # of connection points: 2
#     Edge 153, Type (0, 0), BuildingBlock: XIVTED_clean_linker_0, # of connection points: 2
#     Edge 154, Type (0, 0), BuildingBlock: XIVTED_clean_linker_0, # of connection points: 2
#     Edge 155, Type (0, 0), BuildingBlock: XIVTED_clean_linker_0, # of connection points: 2
#     Edge 156, Type (0, 0), BuildingBlock: XIVTED_clean_linker_0, # of connection points: 2
#     Edge 157, Type (0, 0), BuildingBlock: XIVTED_clean_linker_0, # of connection points: 2
#     Edge 158, Type (0, 0), BuildingBlock: XIVTED_clean_linker_0, # of connection points: 2
#     Edge 159, Type (0, 0), BuildingBlock: XIVTED_clean_linker_0, # of connection points: 2
#     Edge 160, Type (0, 0), BuildingBlock: XIVTED_clean_linker_0, # of connection points: 2
#     Edge 161, Type (0, 0), BuildingBlock: XIVTED_clean_linker_0, # of connection points: 2
#     Edge 162, Type (0, 0), BuildingBlock: XIVTED_clean_linker_0, # of connection points: 2
#     Edge 163, Type (0, 0), BuildingBlock: XIVTED_clean_linker_0, # of connection points: 2
#     Edge 164, Type (0, 0), BuildingBlock: XIVTED_clean_linker_0, # of connection points: 2
#     Edge 165, Type (0, 0), BuildingBlock: XIVTED_clean_linker_0, # of connection points: 2
#     Edge 166, Type (0, 0), BuildingBlock: XIVTED_clean_linker_0, # of connection points: 2
#     Edge 167, Type (0, 0), BuildingBlock: XIVTED_clean_linker_0, # of connection points: 2
# Relax obj value: 0.129
# Max RMSD: 0.141
# Mean RMSD: 0.108
data_MOF--net-nbo-h--node1-BEQFEK_clean_sbu_0--edge1-XIVTED_clean_linker_0
_symmetry_space_group_name_H-M    P1
_symmetry_Int_Tables_number       1
_symmetry_cell_setting            triclinic
loop_
_symmetry_equiv_pos_as_xyz
'x, y, z'
_cell_length_a     70.152706
_cell_length_b     64.892332
_cell_length_c     73.097789
_cell_angle_alpha  91.858847
_cell_angle_beta   92.012419
_cell_angle_gamma 95.109733
loop_
_atom_site_label
_atom_site_type_symbol
_atom_site_fract_x
_atom_site_fract_y
_atom_site_fract_z
_atom_type_partial_charge
Co0 Co 0.17696 0.11413 0.41594 0.0
Co1 Co 0.13165 0.11366 0.41525 0.0
C2 C 0.1506 0.08269 0.39348 0.0
O3 O 0.16712 0.09032 0.39951 0.0
O4 O 0.13526 0.08999 0.3986 0.0
C5 C 0.21412 0.11861 0.39985 0.0
O6 O 0.20433 0.11576 0.38418 0.0
C7 C 0.08908 0.11537 0.40697 0.0
C8 C 0.08254 0.13404 0.43137 0.0
C9 C 0.07416 0.12441 0.41551 0.0
N10 N 0.10537 0.11982 0.41732 0.0
N11 N 0.10118 0.13087 0.43189 0.0
C12 C 0.08787 0.10212 0.38978 0.0
H13 H 0.10008 0.09245 0.3893 0.0
H14 H 0.0884 0.11218 0.37779 0.0
H15 H 0.07423 0.092 0.38887 0.0
C16 C 0.17279 0.15584 0.40151 0.0
N17 N 0.16552 0.13776 0.40814 0.0
N18 N 0.14667 0.13688 0.40698 0.0
C19 C 0.14138 0.15393 0.399 0.0
C20 C 0.15774 0.16631 0.39511 0.0
C21 C 0.19365 0.16297 0.40119 0.0
H22 H 0.20134 0.1577 0.41344 0.0
H23 H 0.19968 0.15639 0.38871 0.0
H24 H 0.19593 0.18008 0.40074 0.0
O25 O 0.17128 0.10862 0.44176 0.0
O26 O 0.13963 0.10755 0.44062 0.0
H27 H 0.11445 0.16054 0.40943 0.0
H28 H 0.11965 0.17291 0.38841 0.0
C29 C 0.12099 0.15859 0.39599 0.0
H30 H 0.1129 0.14543 0.38829 0.0
H31 H 0.11118 0.1364 0.4422 0.0
O32 O 0.20527 0.1183 0.41472 0.0
C33 C 0.15534 0.10622 0.44953 0.0
Co34 Co 0.89493 0.1375 0.40185 0.0
Co35 Co 0.8501 0.13619 0.40162 0.0
C36 C 0.86943 0.09899 0.38809 0.0
O37 O 0.8859 0.10886 0.39107 0.0
O38 O 0.85423 0.10799 0.39072 0.0
C39 C 0.93334 0.1327 0.38896 0.0
O40 O 0.9245 0.12181 0.37521 0.0
C41 C 0.80982 0.13877 0.38807 0.0
C42 C 0.79695 0.14845 0.41377 0.0
C43 C 0.79285 0.14453 0.39525 0.0
N44 N 0.82327 0.13961 0.40177 0.0
N45 N 0.81534 0.14513 0.4171 0.0
C46 C 0.81378 0.13428 0.36845 0.0
H47 H 0.82942 0.13631 0.36631 0.0
H48 H 0.80618 0.14456 0.35942 0.0
H49 H 0.80853 0.118 0.36476 0.0
C50 C 0.89004 0.18037 0.38911 0.0
N51 N 0.88287 0.16069 0.39195 0.0
N52 N 0.86404 0.15998 0.39154 0.0
C53 C 0.85872 0.17917 0.3883 0.0
C54 C 0.875 0.19292 0.38664 0.0
C55 C 0.91094 0.1874 0.3906 0.0
H56 H 0.91593 0.18739 0.40517 0.0
H57 H 0.91906 0.1764 0.38277 0.0
H58 H 0.91386 0.20319 0.38535 0.0
O59 O 0.88977 0.13674 0.42838 0.0
O60 O 0.85805 0.13548 0.42781 0.0
H61 H 0.83343 0.1805 0.40363 0.0
H62 H 0.83776 0.20193 0.38891 0.0
C63 C 0.8387 0.18507 0.3901 0.0
H64 H 0.82929 0.17674 0.37928 0.0
H65 H 0.82266 0.14726 0.42979 0.0
O66 O 0.92349 0.14122 0.40088 0.0
C67 C 0.87404 0.13577 0.43663 0.0
Co68 Co 0.88742 0.88839 0.40257 0.0
Co69 Co 0.84273 0.88517 0.4018 0.0
C70 C 0.86307 0.84869 0.38938 0.0
O71 O 0.87904 0.85941 0.39266 0.0
O72 O 0.84735 0.85688 0.39135 0.0
C73 C 0.92575 0.87844 0.40514 0.0
O74 O 0.91714 0.86112 0.41081 0.0
C75 C 0.80157 0.87913 0.39041 0.0
C76 C 0.7894 0.90035 0.41021 0.0
C77 C 0.78454 0.88666 0.39552 0.0
N78 N 0.81584 0.88803 0.4016 0.0
N79 N 0.8084 0.90052 0.41349 0.0
C80 C 0.80451 0.86479 0.37455 0.0
H81 H 0.81884 0.86862 0.36894 0.0
H82 H 0.79323 0.86567 0.36364 0.0
H83 H 0.80384 0.84869 0.37933 0.0
C84 C 0.88136 0.93047 0.38911 0.0
N85 N 0.87483 0.91064 0.39214 0.0
N86 N 0.85601 0.90883 0.3907 0.0
C87 C 0.85006 0.92731 0.38597 0.0
C88 C 0.86588 0.94199 0.38506 0.0
C89 C 0.90171 0.93888 0.39314 0.0
H90 H 0.9081 0.93032 0.40434 0.0
H91 H 0.91007 0.93681 0.38071 0.0
H92 H 0.90276 0.95556 0.39721 0.0
O93 O 0.88263 0.88845 0.42889 0.0
O94 O 0.85083 0.88561 0.42835 0.0
H95 H 0.82314 0.93469 0.396 0.0
H96 H 0.82808 0.94411 0.37356 0.0
C97 C 0.82948 0.93099 0.38274 0.0
H98 H 0.82143 0.9169 0.37644 0.0
H99 H 0.81637 0.90942 0.42371 0.0
O100 O 0.91564 0.8928 0.40033 0.0
C101 C 0.86694 0.88698 0.43717 0.0
Co102 Co 0.17044 0.90121 0.42643 0.0
Co103 Co 0.12561 0.90031 0.42864 0.0
C104 C 0.14354 0.86211 0.4205 0.0
O105 O 0.16022 0.87179 0.42134 0.0
O106 O 0.12859 0.87127 0.42342 0.0
C107 C 0.20515 0.89778 0.40674 0.0
O108 O 0.19342 0.8913 0.39292 0.0
C109 C 0.08336 0.89507 0.4214 0.0
C110 C 0.07518 0.92378 0.43492 0.0
C111 C 0.06774 0.9062 0.42496 0.0
N112 N 0.09924 0.90571 0.4289 0.0
N113 N 0.09418 0.92274 0.43707 0.0
C114 C 0.0835 0.87559 0.40991 0.0
H115 H 0.09748 0.875 0.40338 0.0
H116 H 0.07183 0.87449 0.39917 0.0
H117 H 0.08134 0.8621 0.4188 0.0
C118 C 0.16259 0.93387 0.39991 0.0
N119 N 0.15702 0.91866 0.4112 0.0
N120 N 0.13822 0.916 0.41065 0.0
C121 C 0.13124 0.92811 0.39799 0.0
C122 C 0.14634 0.94048 0.39108 0.0
C123 C 0.18275 0.94359 0.39959 0.0
H124 H 0.19114 0.93959 0.41189 0.0
H125 H 0.18957 0.93785 0.38718 0.0
H126 H 0.18301 0.96068 0.39918 0.0
O127 O 0.16783 0.90908 0.45239 0.0
O128 O 0.13628 0.90873 0.4536 0.0
H129 H 0.10248 0.93546 0.40211 0.0
H130 H 0.10867 0.93374 0.37834 0.0
C131 C 0.11053 0.92698 0.39197 0.0
H132 H 0.10446 0.91061 0.39115 0.0
H133 H 0.10379 0.93387 0.44386 0.0
O134 O 0.19829 0.90312 0.42186 0.0
C135 C 0.15292 0.91163 0.46128 0.0
Co136 Co 0.17985 0.90924 0.6306 0.0
Co137 Co 0.13518 0.91143 0.62779 0.0
C138 C 0.15916 0.93772 0.65507 0.0
O139 O 0.17448 0.93088 0.64934 0.0
O140 O 0.14271 0.93147 0.64795 0.0
C141 C 0.21664 0.90058 0.64731 0.0
O142 O 0.2087 0.90216 0.66325 0.0
C143 C 0.09222 0.90999 0.63127 0.0
C144 C 0.08386 0.89841 0.6031 0.0
C145 C 0.07639 0.90442 0.61949 0.0
N146 N 0.10822 0.90722 0.6221 0.0
N147 N 0.10298 0.9003 0.60532 0.0
C148 C 0.09225 0.91848 0.65053 0.0
H149 H 0.10599 0.92771 0.65418 0.0
H150 H 0.09058 0.90543 0.65995 0.0
H151 H 0.08015 0.92818 0.65233 0.0
C152 C 0.16696 0.86479 0.63421 0.0
N153 N 0.16351 0.88482 0.63316 0.0
N154 N 0.1449 0.88613 0.63298 0.0
C155 C 0.13593 0.86717 0.63457 0.0
C156 C 0.14954 0.853 0.63508 0.0
C157 C 0.18628 0.85704 0.63225 0.0
H158 H 0.19426 0.86587 0.62178 0.0
H159 H 0.19447 0.85945 0.64552 0.0
H160 H 0.18517 0.84032 0.62828 0.0
O161 O 0.17655 0.91906 0.60554 0.0
O162 O 0.1453 0.92142 0.60447 0.0
H163 H 0.10795 0.86283 0.62169 0.0
H164 H 0.11096 0.84735 0.64147 0.0
C165 C 0.1147 0.86269 0.63563 0.0
H166 H 0.10889 0.87476 0.64434 0.0
H167 H 0.11256 0.89684 0.5953 0.0
O168 O 0.2069 0.90316 0.63274 0.0
C169 C 0.1614 0.92331 0.59699 0.0
Co170 Co 0.17128 0.11902 0.62106 0.0
Co171 Co 0.12626 0.11056 0.61927 0.0
C172 C 0.14508 0.15251 0.6275 0.0
O173 O 0.1619 0.14685 0.62601 0.0
O174 O 0.13022 0.13991 0.62512 0.0
C175 C 0.20821 0.1341 0.6373 0.0
O176 O 0.19824 0.14528 0.64806 0.0
C177 C 0.08477 0.11244 0.62369 0.0
C178 C 0.07338 0.08022 0.61661 0.0
C179 C 0.06797 0.09947 0.62186 0.0
N180 N 0.09952 0.10139 0.61973 0.0
N181 N 0.09258 0.08216 0.6154 0.0
C182 C 0.08691 0.1347 0.63003 0.0
H183 H 0.09745 0.13669 0.64176 0.0
H184 H 0.07314 0.14008 0.63439 0.0
H185 H 0.0925 0.14434 0.6188 0.0
C186 C 0.16629 0.08538 0.6479 0.0
N187 N 0.15932 0.09882 0.63628 0.0
N188 N 0.14055 0.09717 0.63681 0.0
C189 C 0.13502 0.08409 0.64985 0.0
C190 C 0.15105 0.0755 0.65705 0.0
C191 C 0.18676 0.08048 0.64838 0.0
H192 H 0.1938 0.0854 0.63572 0.0
H193 H 0.19449 0.0888 0.66032 0.0
H194 H 0.18778 0.06363 0.64965 0.0
O195 O 0.16602 0.111 0.59507 0.0
O196 O 0.13436 0.10503 0.59378 0.0
H197 H 0.10626 0.06979 0.64742 0.0
H198 H 0.11476 0.0762 0.67067 0.0
C199 C 0.11496 0.08143 0.65636 0.0
H200 H 0.10833 0.0963 0.65565 0.0
H201 H 0.10097 0.07034 0.61161 0.0
O202 O 0.19951 0.12183 0.62523 0.0
C203 C 0.1504 0.10587 0.58603 0.0
Co204 Co 0.89288 0.12815 0.60936 0.0
Co205 Co 0.84818 0.12503 0.60725 0.0
C206 C 0.87131 0.16483 0.62027 0.0
O207 O 0.88695 0.1566 0.61805 0.0
O208 O 0.85527 0.15412 0.61759 0.0
C209 C 0.93095 0.12967 0.62682 0.0
O210 O 0.92252 0.1335 0.64218 0.0
C211 C 0.80852 0.12674 0.61913 0.0
C212 C 0.79218 0.11447 0.59414 0.0
C213 C 0.79009 0.12337 0.61135 0.0
N214 N 0.82087 0.12026 0.60695 0.0
N215 N 0.81095 0.11265 0.59218 0.0
C216 C 0.81448 0.13803 0.63686 0.0
H217 H 0.83021 0.13869 0.6393 0.0
H218 H 0.80745 0.13 0.64832 0.0
H219 H 0.80985 0.15394 0.63667 0.0
C220 C 0.885 0.08589 0.62422 0.0
N221 N 0.87914 0.10456 0.62002 0.0
N222 N 0.86031 0.10295 0.61868 0.0
C223 C 0.85364 0.08313 0.62166 0.0
C224 C 0.8691 0.07138 0.62521 0.0
C225 C 0.90562 0.08178 0.62617 0.0
H226 H 0.91298 0.09296 0.63641 0.0
H227 H 0.9074 0.066 0.63092 0.0
H228 H 0.91254 0.08402 0.61287 0.0
O229 O 0.88699 0.12663 0.58264 0.0
O230 O 0.85522 0.12511 0.58118 0.0
H231 H 0.82919 0.07806 0.60333 0.0
H232 H 0.83071 0.05817 0.61978 0.0
C233 C 0.83321 0.07501 0.61773 0.0
H234 H 0.82384 0.08342 0.6267 0.0
H235 H 0.81707 0.10714 0.58039 0.0
O236 O 0.92098 0.1268 0.61196 0.0
C237 C 0.87121 0.12574 0.57336 0.0
Co238 Co 0.89598 0.8798 0.60921 0.0
Co239 Co 0.8515 0.87459 0.60895 0.0
C240 C 0.8723 0.91502 0.62178 0.0
O241 O 0.88804 0.90736 0.61858 0.0
O242 O 0.85647 0.90372 0.61985 0.0
C243 C 0.93374 0.88393 0.62754 0.0
O244 O 0.92455 0.88477 0.64287 0.0
C245 C 0.81149 0.87054 0.62031 0.0
C246 C 0.79745 0.85135 0.59728 0.0
C247 C 0.79388 0.86105 0.61382 0.0
N248 N 0.82473 0.86655 0.60814 0.0
N249 N 0.81623 0.85516 0.59438 0.0
C250 C 0.81619 0.88186 0.63828 0.0
H251 H 0.83143 0.88076 0.64243 0.0
H252 H 0.80681 0.87548 0.64904 0.0
H253 H 0.81398 0.89845 0.63682 0.0
C254 C 0.89044 0.8364 0.62229 0.0
N255 N 0.88391 0.8551 0.61933 0.0
N256 N 0.86515 0.85337 0.62014 0.0
C257 C 0.85923 0.83365 0.62423 0.0
C258 C 0.87499 0.82191 0.62547 0.0
C259 C 0.9106 0.83182 0.61902 0.0
H260 H 0.91667 0.8417 0.60817 0.0
H261 H 0.91943 0.83535 0.63182 0.0
H262 H 0.91139 0.81534 0.61487 0.0
O263 O 0.89 0.87856 0.58263 0.0
O264 O 0.85823 0.87589 0.5827 0.0
H265 H 0.8317 0.82273 0.61251 0.0
H266 H 0.8374 0.81162 0.63415 0.0
C267 C 0.83869 0.82597 0.62627 0.0
H268 H 0.83118 0.83795 0.6335 0.0
H269 H 0.8233 0.84982 0.58309 0.0
O270 O 0.92427 0.88133 0.61236 0.0
C271 C 0.87377 0.87731 0.5741 0.0
Co272 Co 0.37317 0.11052 0.10246 0.0
Co273 Co 0.39496 0.1128 0.13961 0.0
C274 C 0.37261 0.07307 0.12684 0.0
O275 O 0.36812 0.08159 0.112 0.0
O276 O 0.38207 0.08374 0.1396 0.0
C277 C 0.34468 0.09817 0.0734 0.0
O278 O 0.34474 0.07918 0.07908 0.0
C279 C 0.40003 0.11524 0.17866 0.0
C280 C 0.43019 0.12811 0.18306 0.0
C281 C 0.41385 0.12152 0.19213 0.0
N282 N 0.40783 0.11792 0.1624 0.0
N283 N 0.42589 0.12545 0.165 0.0
C284 C 0.37926 0.10864 0.18085 0.0
H285 H 0.37081 0.11166 0.16825 0.0
H286 H 0.37371 0.1169 0.19279 0.0
H287 H 0.37751 0.09176 0.18309 0.0
C288 C 0.36418 0.15256 0.11508 0.0
N289 N 0.36994 0.13372 0.11879 0.0
N290 N 0.37934 0.13496 0.13469 0.0
C291 C 0.37992 0.1547 0.14157 0.0
C292 C 0.37036 0.16672 0.12932 0.0
C293 C 0.35445 0.15731 0.09739 0.0
H294 H 0.34172 0.14607 0.09476 0.0
H295 H 0.34978 0.17321 0.09765 0.0
H296 H 0.36435 0.15551 0.08605 0.0
O297 O 0.40015 0.1137 0.09418 0.0
O298 O 0.41499 0.11355 0.1216 0.0
H299 H 0.40747 0.15969 0.15521 0.0
H300 H 0.39193 0.17961 0.16026 0.0
C301 C 0.39247 0.16275 0.15768 0.0
H302 H 0.38788 0.15449 0.17005 0.0
H303 H 0.43513 0.12914 0.15448 0.0
O304 O 0.35574 0.11265 0.08117 0.0
C305 C 0.4154 0.11423 0.10427 0.0
Co306 Co 0.89246 0.393 0.16395 0.0
Co307 Co 0.89327 0.39568 0.12222 0.0
C308 C 0.85686 0.38474 0.13786 0.0
O309 O 0.86579 0.38686 0.1534 0.0
O310 O 0.86574 0.3869 0.12304 0.0
C311 C 0.88162 0.3686 0.19371 0.0
O312 O 0.86989 0.35826 0.18159 0.0
C313 C 0.89749 0.39218 0.08208 0.0
C314 C 0.92467 0.41212 0.08052 0.0
C315 C 0.91136 0.39933 0.07008 0.0
N316 N 0.9028 0.40009 0.09886 0.0
N317 N 0.9189 0.4121 0.09779 0.0
C318 C 0.8793 0.37877 0.07785 0.0
H319 H 0.86867 0.3813 0.08836 0.0
H320 H 0.88231 0.36227 0.0779 0.0
H321 H 0.87318 0.38209 0.06417 0.0
C322 C 0.92697 0.37092 0.15701 0.0
N323 N 0.91062 0.37874 0.15155 0.0
N324 N 0.90876 0.37716 0.13367 0.0
C325 C 0.9232 0.36714 0.12714 0.0
C326 C 0.93571 0.36343 0.14161 0.0
C327 C 0.93543 0.37374 0.17611 0.0
H328 H 0.92866 0.38597 0.18381 0.0
H329 H 0.93296 0.35896 0.18325 0.0
H330 H 0.9511 0.37798 0.17597 0.0
O331 O 0.89904 0.42306 0.16395 0.0
O332 O 0.89773 0.42386 0.13373 0.0
H333 H 0.93217 0.37411 0.10009 0.0
H334 H 0.93352 0.34759 0.10595 0.0
C335 C 0.92496 0.3611 0.10736 0.0
H336 H 0.91052 0.35719 0.10084 0.0
H337 H 0.92624 0.41989 0.109 0.0
O338 O 0.89235 0.38414 0.18898 0.0
C339 C 0.90004 0.43312 0.14935 0.0
Co340 Co 0.59394 0.889 0.10672 0.0
Co341 Co 0.58476 0.84238 0.10831 0.0
C342 C 0.59793 0.86806 0.14271 0.0
O343 O 0.59988 0.88415 0.13324 0.0
O344 O 0.59248 0.85065 0.13483 0.0
C345 C 0.62131 0.9233 0.10922 0.0
O346 O 0.63091 0.91115 0.11937 0.0
C347 C 0.5974 0.80217 0.11181 0.0
C348 C 0.57116 0.78105 0.10653 0.0
C349 C 0.59055 0.78156 0.11114 0.0
N350 N 0.58285 0.81337 0.10757 0.0
N351 N 0.56715 0.80077 0.10437 0.0
C352 C 0.61715 0.81139 0.11744 0.0
H353 H 0.61718 0.82811 0.12105 0.0
H354 H 0.62678 0.80979 0.10587 0.0
H355 H 0.62289 0.80314 0.12921 0.0
C356 C 0.61007 0.87722 0.07153 0.0
N357 N 0.60461 0.87219 0.08852 0.0
N358 N 0.60093 0.85206 0.08904 0.0
C359 C 0.60404 0.84358 0.0723 0.0
C360 C 0.60999 0.85927 0.06049 0.0
C361 C 0.61107 0.8989 0.06496 0.0
H362 H 0.59862 0.90664 0.0698 0.0
H363 H 0.62438 0.90755 0.07076 0.0
H364 H 0.61102 0.89951 0.04984 0.0
O365 O 0.56559 0.88614 0.10224 0.0
O366 O 0.55928 0.85189 0.10281 0.0
H367 H 0.58351 0.8173 0.068 0.0
H368 H 0.60365 0.81734 0.05308 0.0
C369 C 0.59917 0.82118 0.06709 0.0
H370 H 0.60656 0.81153 0.07678 0.0
H371 H 0.5537 0.80563 0.10111 0.0
O372 O 0.60453 0.91724 0.10302 0.0
C373 C 0.55379 0.86993 0.10075 0.0
Co374 Co 0.12163 0.62737 0.16884 0.0
Co375 Co 0.11497 0.62351 0.1242 0.0
C376 C 0.15358 0.63718 0.14286 0.0
O377 O 0.14762 0.63563 0.15917 0.0
O378 O 0.14234 0.63345 0.12877 0.0
C379 C 0.13305 0.64039 0.20828 0.0
O380 O 0.1489 0.64912 0.20179 0.0
C381 C 0.11582 0.63068 0.08288 0.0
C382 C 0.09122 0.60912 0.07322 0.0
C383 C 0.1055 0.62294 0.06689 0.0
N384 N 0.10788 0.62177 0.0977 0.0
N385 N 0.09325 0.60883 0.0916 0.0
C386 C 0.1326 0.64661 0.08415 0.0
H387 H 0.13362 0.65459 0.09786 0.0
H388 H 0.13138 0.65808 0.07333 0.0
H389 H 0.1459 0.63886 0.08222 0.0
C390 C 0.08793 0.65102 0.164 0.0
N391 N 0.10226 0.64152 0.15657 0.0
N392 N 0.09911 0.63967 0.13864 0.0
C393 C 0.08253 0.6477 0.13425 0.0
C394 C 0.07471 0.655 0.15023 0.0
C395 C 0.0864 0.65501 0.18416 0.0
H396 H 0.10035 0.66207 0.19003 0.0
H397 H 0.07518 0.66555 0.18709 0.0
H398 H 0.08296 0.6401 0.19085 0.0
O399 O 0.1163 0.5971 0.16311 0.0
O400 O 0.11198 0.59477 0.13275 0.0
H401 H 0.06805 0.62857 0.1129 0.0
H402 H 0.06048 0.65425 0.11408 0.0
C403 C 0.07299 0.64514 0.11556 0.0
H404 H 0.08345 0.6499 0.10513 0.0
H405 H 0.08469 0.59954 0.10003 0.0
O406 O 0.1205 0.63107 0.19705 0.0
C407 C 0.11285 0.58634 0.14824 0.0
Co408 Co 0.3846 0.88727 0.86298 0.0
Co409 Co 0.38404 0.88923 0.90472 0.0
C410 C 0.37479 0.84826 0.88347 0.0
O411 O 0.37666 0.85743 0.86842 0.0
O412 O 0.37675 0.85875 0.89856 0.0
C413 C 0.37243 0.8771 0.82595 0.0
O414 O 0.36108 0.86244 0.83293 0.0
C415 C 0.36479 0.88429 0.93843 0.0
C416 C 0.38315 0.90415 0.9583 0.0
C417 C 0.36632 0.89119 0.95651 0.0
N418 N 0.37996 0.89279 0.92985 0.0
N419 N 0.39097 0.90461 0.94174 0.0
C420 C 0.34849 0.87123 0.92895 0.0
H421 H 0.34688 0.87564 0.91447 0.0
H422 H 0.33492 0.8729 0.93601 0.0
H423 H 0.35156 0.85476 0.92909 0.0
C424 C 0.36742 0.92735 0.86755 0.0
N425 N 0.37131 0.90872 0.87391 0.0
N426 N 0.37036 0.90919 0.8918 0.0
C427 C 0.36516 0.92794 0.89738 0.0
C428 C 0.36341 0.94045 0.88227 0.0
C429 C 0.37142 0.93357 0.84841 0.0
H430 H 0.38588 0.92942 0.84488 0.0
H431 H 0.36089 0.92477 0.83876 0.0
H432 H 0.37076 0.95037 0.84662 0.0
O433 O 0.41176 0.89298 0.87034 0.0
O434 O 0.41206 0.89523 0.90073 0.0
H435 H 0.37762 0.9377 0.92369 0.0
H436 H 0.3552 0.94831 0.91829 0.0
C437 C 0.36318 0.93435 0.91702 0.0
H438 H 0.35536 0.92164 0.92421 0.0
H439 H 0.40364 0.91315 0.93851 0.0
O440 O 0.38318 0.88939 0.83646 0.0
C441 C 0.42082 0.89604 0.88572 0.0
Co442 Co 0.09848 0.39257 0.88638 0.0
Co443 Co 0.10014 0.39238 0.84164 0.0
C444 C 0.06409 0.37842 0.86096 0.0
O445 O 0.07243 0.38139 0.8768 0.0
O446 O 0.07307 0.38166 0.84623 0.0
C447 C 0.09489 0.37695 0.92499 0.0
O448 O 0.08623 0.35982 0.91745 0.0
C449 C 0.09916 0.38296 0.79966 0.0
C450 C 0.12167 0.40689 0.79253 0.0
C451 C 0.1088 0.3914 0.78465 0.0
N452 N 0.10619 0.39311 0.81538 0.0
N453 N 0.11965 0.40733 0.81075 0.0
C454 C 0.08291 0.36639 0.79901 0.0
H455 H 0.07527 0.36639 0.81203 0.0
H456 H 0.08863 0.35112 0.79695 0.0
H457 H 0.07281 0.36864 0.78736 0.0
C458 C 0.13478 0.37408 0.88127 0.0
N459 N 0.11816 0.37976 0.87412 0.0
N460 N 0.11861 0.37889 0.85605 0.0
C461 C 0.13544 0.37208 0.85127 0.0
C462 C 0.1464 0.36902 0.86704 0.0
C463 C 0.1405 0.37715 0.90119 0.0
H464 H 0.13612 0.39219 0.90639 0.0
H465 H 0.13291 0.3647 0.90893 0.0
H466 H 0.15613 0.377 0.90378 0.0
O467 O 0.10112 0.42223 0.88068 0.0
O468 O 0.10222 0.42204 0.85025 0.0
H469 H 0.1468 0.38499 0.827 0.0
H470 H 0.15297 0.35908 0.83097 0.0
C471 C 0.14141 0.36965 0.83193 0.0
H472 H 0.12897 0.36341 0.82303 0.0
H473 H 0.12741 0.41761 0.82012 0.0
O474 O 0.10085 0.39146 0.9146 0.0
C475 C 0.10239 0.43176 0.86573 0.0
Co476 Co 0.59486 0.1753 0.89187 0.0
Co477 Co 0.59162 0.12805 0.88901 0.0
C478 C 0.60551 0.15107 0.92457 0.0
O479 O 0.60468 0.16841 0.91707 0.0
O480 O 0.60119 0.13435 0.91515 0.0
C481 C 0.61536 0.21345 0.89701 0.0
O482 O 0.62858 0.20131 0.90176 0.0
C483 C 0.60903 0.08991 0.88884 0.0
C484 C 0.58695 0.06753 0.8753 0.0
C485 C 0.60548 0.06955 0.88278 0.0
N486 N 0.59339 0.09962 0.885 0.0
N487 N 0.58012 0.0862 0.87708 0.0
C488 C 0.62736 0.10047 0.89695 0.0
H489 H 0.62864 0.11709 0.8936 0.0
H490 H 0.63985 0.09293 0.89188 0.0
H491 H 0.62731 0.09943 0.91207 0.0
C492 C 0.61133 0.17016 0.85463 0.0
N493 N 0.60617 0.1628 0.87106 0.0
N494 N 0.60455 0.14249 0.86985 0.0
C495 C 0.60832 0.13625 0.85258 0.0
C496 C 0.61283 0.15358 0.84214 0.0
C497 C 0.61336 0.1927 0.85064 0.0
H498 H 0.59906 0.19875 0.85071 0.0
H499 H 0.62254 0.20126 0.86151 0.0
H500 H 0.6199 0.19554 0.83726 0.0
O501 O 0.56665 0.16776 0.89053 0.0
O502 O 0.56447 0.1334 0.88734 0.0
H503 H 0.58897 0.10904 0.84864 0.0
H504 H 0.60504 0.11287 0.83032 0.0
C505 C 0.60383 0.11443 0.84534 0.0
H506 H 0.61368 0.10431 0.85208 0.0
H507 H 0.56661 0.0899 0.87254 0.0
O508 O 0.59905 0.20541 0.89119 0.0
C509 C 0.55667 0.15036 0.88852 0.0
Co510 Co 0.90118 0.65411 0.91437 0.0
Co511 Co 0.88971 0.65191 0.87351 0.0
C512 C 0.92903 0.66773 0.88551 0.0
O513 O 0.92433 0.66464 0.90188 0.0
O514 O 0.91673 0.66424 0.87235 0.0
C515 C 0.91155 0.67822 0.94711 0.0
O516 O 0.90898 0.6945 0.93742 0.0
C517 C 0.88338 0.66201 0.8357 0.0
C518 C 0.86416 0.63504 0.82529 0.0
C519 C 0.87443 0.65292 0.81983 0.0
N520 N 0.87886 0.64984 0.84964 0.0
N521 N 0.86714 0.63391 0.84344 0.0
C522 C 0.8958 0.68196 0.83796 0.0
H523 H 0.89372 0.68935 0.85157 0.0
H524 H 0.89244 0.69268 0.827 0.0
H525 H 0.91105 0.6788 0.83738 0.0
C526 C 0.86261 0.66809 0.91672 0.0
N527 N 0.87834 0.66564 0.90711 0.0
N528 N 0.8738 0.66579 0.88953 0.0
C529 C 0.8551 0.66895 0.88741 0.0
C530 C 0.84717 0.67 0.90457 0.0
C531 C 0.86168 0.66479 0.93686 0.0
H532 H 0.86686 0.64957 0.93999 0.0
H533 H 0.87129 0.67693 0.94436 0.0
H534 H 0.84697 0.66556 0.94178 0.0
O535 O 0.89768 0.62374 0.91048 0.0
O536 O 0.89015 0.62281 0.88076 0.0
H537 H 0.84106 0.64953 0.86594 0.0
H538 H 0.83022 0.67324 0.87007 0.0
C539 C 0.84406 0.66629 0.86946 0.0
H540 H 0.8525 0.67376 0.85857 0.0
H541 H 0.86186 0.62184 0.85148 0.0
O542 O 0.90785 0.6601 0.9401 0.0
C543 C 0.89329 0.61359 0.89552 0.0
Co544 Co 0.1104 0.39149 0.16563 0.0
Co545 Co 0.10933 0.39293 0.1209 0.0
C546 C 0.07665 0.37292 0.14131 0.0
O547 O 0.08513 0.37724 0.15691 0.0
O548 O 0.08446 0.37787 0.12634 0.0
C549 C 0.10092 0.38555 0.20424 0.0
O550 O 0.08331 0.38493 0.19737 0.0
C551 C 0.10555 0.38624 0.07875 0.0
C552 C 0.1265 0.41159 0.07124 0.0
C553 C 0.11354 0.39608 0.06353 0.0
N554 N 0.11356 0.39563 0.09442 0.0
N555 N 0.12606 0.41073 0.08958 0.0
C556 C 0.08979 0.36912 0.07843 0.0
H557 H 0.08325 0.36798 0.09197 0.0
H558 H 0.09577 0.35425 0.07508 0.0
H559 H 0.07867 0.3717 0.06778 0.0
C560 C 0.14699 0.3745 0.15766 0.0
N561 N 0.13023 0.38103 0.1518 0.0
N562 N 0.12961 0.38097 0.13371 0.0
C563 C 0.14584 0.37401 0.12759 0.0
C564 C 0.15745 0.36983 0.14256 0.0
C565 C 0.15313 0.3737 0.17742 0.0
H566 H 0.15413 0.38955 0.18375 0.0
H567 H 0.14214 0.36406 0.18467 0.0
H568 H 0.16713 0.36712 0.17913 0.0
O569 O 0.10994 0.42155 0.16117 0.0
O570 O 0.10871 0.42174 0.13069 0.0
H571 H 0.15521 0.38982 0.10393 0.0
H572 H 0.16313 0.36433 0.10537 0.0
C573 C 0.15101 0.37375 0.1079 0.0
H574 H 0.13845 0.36748 0.09917 0.0
H575 H 0.13416 0.42078 0.09889 0.0
O576 O 0.11473 0.388 0.19334 0.0
C577 C 0.10909 0.43122 0.14628 0.0
Co578 Co 0.11268 0.62718 0.88994 0.0
Co579 Co 0.11232 0.62547 0.84495 0.0
C580 C 0.14771 0.64006 0.86822 0.0
O581 O 0.13869 0.63724 0.88294 0.0
O582 O 0.13945 0.63659 0.85236 0.0
C583 C 0.12384 0.63065 0.92975 0.0
O584 O 0.14115 0.62958 0.92369 0.0
C585 C 0.1135 0.6342 0.80346 0.0
C586 C 0.09573 0.60631 0.79299 0.0
C587 C 0.10636 0.62371 0.78713 0.0
N588 N 0.10733 0.62329 0.81803 0.0
N589 N 0.09662 0.60675 0.81141 0.0
C590 C 0.12686 0.65347 0.80512 0.0
H591 H 0.13401 0.65509 0.81893 0.0
H592 H 0.11856 0.66704 0.80303 0.0
H593 H 0.1377 0.6533 0.79442 0.0
C594 C 0.07883 0.64924 0.882 0.0
N595 N 0.09435 0.64079 0.87599 0.0
N596 N 0.09351 0.63967 0.8579 0.0
C597 C 0.07693 0.64681 0.85194 0.0
C598 C 0.06693 0.653 0.86707 0.0
C599 C 0.07528 0.6529 0.90188 0.0
H600 H 0.07089 0.63789 0.90806 0.0
H601 H 0.08871 0.65958 0.90908 0.0
H602 H 0.06401 0.66363 0.90384 0.0
O603 O 0.10932 0.59709 0.88329 0.0
O604 O 0.10989 0.5964 0.85283 0.0
H605 H 0.06852 0.62806 0.828 0.0
H606 H 0.05555 0.65066 0.83035 0.0
C607 C 0.06972 0.64465 0.8324 0.0
H608 H 0.08022 0.65299 0.82363 0.0
H609 H 0.09013 0.59541 0.81953 0.0
O610 O 0.10981 0.63033 0.91802 0.0
C611 C 0.10875 0.58712 0.86792 0.0
Co612 Co 0.37711 0.13461 0.86166 0.0
Co613 Co 0.37662 0.13792 0.90322 0.0
C614 C 0.36424 0.09718 0.88184 0.0
O615 O 0.36519 0.10605 0.86659 0.0
O616 O 0.36832 0.10773 0.89669 0.0
C617 C 0.36359 0.13717 0.82412 0.0
O618 O 0.34623 0.13765 0.83018 0.0
C619 C 0.35616 0.1339 0.93643 0.0
C620 C 0.37524 0.15205 0.95689 0.0
C621 C 0.3578 0.14021 0.95468 0.0
N622 N 0.37186 0.14165 0.92819 0.0
N623 N 0.38327 0.15249 0.94044 0.0
C624 C 0.33962 0.12163 0.92658 0.0
H625 H 0.33832 0.12654 0.91222 0.0
H626 H 0.32608 0.12353 0.93361 0.0
H627 H 0.34221 0.105 0.92629 0.0
C628 C 0.36333 0.17713 0.8655 0.0
N629 N 0.36593 0.15815 0.87197 0.0
N630 N 0.36507 0.15904 0.8899 0.0
C631 C 0.36158 0.17847 0.89534 0.0
C632 C 0.36037 0.19072 0.8801 0.0
C633 C 0.36754 0.18334 0.8464 0.0
H634 H 0.38015 0.17589 0.84157 0.0
H635 H 0.35501 0.1782 0.83719 0.0
H636 H 0.37037 0.20037 0.84557 0.0
O637 O 0.40442 0.13639 0.86997 0.0
O638 O 0.40458 0.14185 0.90014 0.0
H639 H 0.37661 0.18702 0.92073 0.0
H640 H 0.35622 0.20146 0.91618 0.0
C641 C 0.36173 0.18599 0.91491 0.0
H642 H 0.35271 0.17492 0.92287 0.0
H643 H 0.39647 0.16018 0.93756 0.0
O644 O 0.37771 0.13614 0.83525 0.0
C645 C 0.41342 0.13988 0.88535 0.0
Co646 Co 0.88764 0.41783 0.90751 0.0
Co647 Co 0.87459 0.4197 0.86744 0.0
C648 C 0.84749 0.4032 0.89489 0.0
O649 O 0.86013 0.4068 0.90774 0.0
O650 O 0.8514 0.40698 0.87847 0.0
C651 C 0.89583 0.39374 0.937 0.0
O652 O 0.88592 0.37925 0.92679 0.0
C653 C 0.86058 0.40264 0.83261 0.0
C654 C 0.86619 0.42854 0.81408 0.0
C655 C 0.85886 0.40802 0.81458 0.0
N656 N 0.86867 0.41914 0.84234 0.0
N657 N 0.87174 0.43474 0.83134 0.0
C658 C 0.85409 0.38247 0.84081 0.0
H659 H 0.8641 0.37911 0.8522 0.0
H660 H 0.85254 0.36944 0.83055 0.0
H661 H 0.83984 0.38384 0.84656 0.0
C662 C 0.91989 0.39813 0.89072 0.0
N663 N 0.90244 0.40532 0.8896 0.0
N664 N 0.89676 0.40558 0.87232 0.0
C665 C 0.91028 0.39816 0.86182 0.0
C666 C 0.92545 0.39308 0.87316 0.0
C667 C 0.9323 0.39932 0.90791 0.0
H668 H 0.92986 0.4133 0.9163 0.0
H669 H 0.92862 0.38542 0.91596 0.0
H670 H 0.94772 0.39999 0.90489 0.0
O671 O 0.88926 0.44815 0.90479 0.0
O672 O 0.87926 0.44912 0.87572 0.0
H673 H 0.90807 0.41232 0.83588 0.0
H674 H 0.9212 0.38945 0.83549 0.0
C675 C 0.90892 0.39666 0.84133 0.0
H676 H 0.89567 0.38703 0.83685 0.0
H677 H 0.87797 0.44941 0.83554 0.0
O678 O 0.89823 0.41204 0.93136 0.0
C679 C 0.88512 0.45832 0.8908 0.0
Co680 Co 0.60379 0.89739 0.89153 0.0
Co681 Co 0.58479 0.85326 0.88608 0.0
C682 C 0.60518 0.86822 0.92231 0.0
O683 O 0.61092 0.88554 0.91578 0.0
O684 O 0.59515 0.85469 0.91224 0.0
C685 C 0.63082 0.93285 0.90183 0.0
O686 O 0.63499 0.92345 0.91691 0.0
C687 C 0.58914 0.81071 0.88428 0.0
C688 C 0.56249 0.79579 0.87082 0.0
C689 C 0.58025 0.79183 0.87814 0.0
N690 N 0.57726 0.8252 0.88097 0.0
N691 N 0.56123 0.81635 0.87305 0.0
C692 C 0.60946 0.81553 0.89124 0.0
H693 H 0.61455 0.8318 0.88858 0.0
H694 H 0.61902 0.80499 0.88466 0.0
H695 H 0.61025 0.81354 0.90625 0.0
C696 C 0.61515 0.8888 0.85313 0.0
N697 N 0.60921 0.88216 0.86957 0.0
N698 N 0.60128 0.86312 0.86739 0.0
C699 C 0.60189 0.85705 0.84953 0.0
C700 C 0.61061 0.87315 0.8397 0.0
C701 C 0.62175 0.91086 0.84982 0.0
H702 H 0.61079 0.921 0.85442 0.0
H703 H 0.63516 0.9152 0.85807 0.0
H704 H 0.62442 0.91345 0.83517 0.0
O705 O 0.57554 0.90123 0.89108 0.0
O706 O 0.56246 0.86901 0.88501 0.0
H707 H 0.57641 0.8373 0.84279 0.0
H708 H 0.59537 0.8348 0.82693 0.0
C709 C 0.59211 0.83718 0.84154 0.0
H710 H 0.59693 0.82405 0.84924 0.0
H711 H 0.54971 0.82436 0.86876 0.0
O712 O 0.61807 0.9246 0.89044 0.0
C713 C 0.56093 0.88825 0.88775 0.0
Co714 Co 0.89817 0.62796 0.16422 0.0
Co715 Co 0.9051 0.62484 0.12303 0.0
C716 C 0.93434 0.64688 0.14939 0.0
O717 O 0.92402 0.64303 0.16304 0.0
O718 O 0.92846 0.64098 0.13329 0.0
C719 C 0.89158 0.64954 0.19715 0.0
O720 O 0.90049 0.6654 0.18933 0.0
C721 C 0.91101 0.64215 0.08778 0.0
C722 C 0.91229 0.61431 0.06977 0.0
C723 C 0.9143 0.63576 0.07008 0.0
N724 N 0.90721 0.62525 0.09755 0.0
N725 N 0.90786 0.60863 0.08675 0.0
C726 C 0.91319 0.66382 0.09576 0.0
H727 H 0.91161 0.66395 0.11079 0.0
H728 H 0.90206 0.67285 0.08964 0.0
H729 H 0.92738 0.67148 0.09248 0.0
C730 C 0.86113 0.6412 0.15031 0.0
N731 N 0.87934 0.63699 0.14774 0.0
N732 N 0.88209 0.63542 0.13009 0.0
C733 C 0.86567 0.63847 0.1208 0.0
C734 C 0.85185 0.64239 0.13332 0.0
C735 C 0.85188 0.6404 0.16847 0.0
H736 H 0.85551 0.62634 0.17556 0.0
H737 H 0.85744 0.65419 0.17704 0.0
H738 H 0.83608 0.64014 0.1671 0.0
O739 O 0.90027 0.59794 0.16017 0.0
O740 O 0.90537 0.59586 0.1304 0.0
H741 H 0.86687 0.62026 0.09598 0.0
H742 H 0.84782 0.63743 0.09585 0.0
C743 C 0.86282 0.63573 0.10045 0.0
H744 H 0.87229 0.64757 0.09378 0.0
H745 H 0.90594 0.59345 0.09111 0.0
O746 O 0.88961 0.63196 0.1889 0.0
C747 C 0.90329 0.58736 0.14575 0.0
Co748 Co 0.37189 0.85982 0.10601 0.0
Co749 Co 0.39371 0.86416 0.14305 0.0
C750 C 0.37299 0.82284 0.12918 0.0
O751 O 0.36616 0.83109 0.11511 0.0
O752 O 0.38352 0.83392 0.14095 0.0
C753 C 0.34503 0.84807 0.07534 0.0
O754 O 0.34314 0.82929 0.08161 0.0
C755 C 0.39159 0.87208 0.18134 0.0
C756 C 0.42181 0.87802 0.19111 0.0
C757 C 0.40311 0.87816 0.19659 0.0
N758 N 0.40287 0.86898 0.16735 0.0
N759 N 0.42096 0.87222 0.17321 0.0
C760 C 0.37017 0.86914 0.17988 0.0
H761 H 0.36541 0.8576 0.16874 0.0
H762 H 0.36443 0.88398 0.17648 0.0
H763 H 0.36426 0.86408 0.19306 0.0
C764 C 0.35948 0.90067 0.11803 0.0
N765 N 0.36671 0.8826 0.12201 0.0
N766 N 0.37728 0.88532 0.13719 0.0
C767 C 0.37798 0.90553 0.14281 0.0
C768 C 0.36651 0.91613 0.13097 0.0
C769 C 0.34714 0.90337 0.10134 0.0
H770 H 0.3369 0.88946 0.09885 0.0
H771 H 0.339 0.91718 0.10294 0.0
H772 H 0.3563 0.90516 0.08932 0.0
O773 O 0.39987 0.86366 0.09956 0.0
O774 O 0.41493 0.86816 0.12698 0.0
H775 H 0.39697 0.93178 0.15321 0.0
H776 H 0.38673 0.91531 0.17029 0.0
C777 C 0.39272 0.91547 0.15646 0.0
H778 H 0.40569 0.90692 0.15663 0.0
H779 H 0.43264 0.87123 0.16488 0.0
O780 O 0.35647 0.86199 0.08343 0.0
C781 C 0.41518 0.86739 0.1096 0.0
Co782 Co 0.59111 0.16498 0.11351 0.0
Co783 Co 0.59324 0.11864 0.1089 0.0
C784 C 0.60296 0.13925 0.14574 0.0
O785 O 0.59941 0.15642 0.13899 0.0
O786 O 0.60186 0.12298 0.13542 0.0
C787 C 0.61336 0.20107 0.11932 0.0
O788 O 0.62537 0.18736 0.12347 0.0
C789 C 0.611 0.08052 0.10639 0.0
C790 C 0.59104 0.06133 0.08732 0.0
C791 C 0.60855 0.06176 0.09678 0.0
N792 N 0.59579 0.09093 0.10247 0.0
N793 N 0.58375 0.07934 0.0913 0.0
C794 C 0.62837 0.08959 0.11728 0.0
H795 H 0.62999 0.10667 0.11619 0.0
H796 H 0.64145 0.08295 0.11254 0.0
H797 H 0.6266 0.08604 0.13191 0.0
C798 C 0.60687 0.16361 0.07614 0.0
N799 N 0.60402 0.15516 0.09265 0.0
N800 N 0.60648 0.13539 0.09136 0.0
C801 C 0.61173 0.13078 0.07413 0.0
C802 C 0.61179 0.14839 0.0636 0.0
C803 C 0.60137 0.18471 0.07169 0.0
H804 H 0.58882 0.1884 0.07959 0.0
H805 H 0.6135 0.19633 0.0757 0.0
H806 H 0.59786 0.18589 0.05688 0.0
O807 O 0.56355 0.1566 0.10907 0.0
O808 O 0.56544 0.12265 0.106 0.0
H809 H 0.60211 0.09996 0.06462 0.0
H810 H 0.62399 0.11034 0.05475 0.0
C811 C 0.61579 0.10963 0.06746 0.0
H812 H 0.62434 0.10232 0.07803 0.0
H813 H 0.57096 0.08407 0.08585 0.0
O814 O 0.5962 0.19493 0.11443 0.0
C815 C 0.55561 0.13829 0.10608 0.0
Co816 Co 0.66868 0.61426 0.90731 0.0
Co817 Co 0.62361 0.6036 0.90783 0.0
C818 C 0.64772 0.57844 0.88512 0.0
O819 O 0.66285 0.58934 0.89108 0.0
O820 O 0.63112 0.58205 0.89037 0.0
C821 C 0.70925 0.61593 0.91264 0.0
O822 O 0.70468 0.59877 0.92116 0.0
C823 C 0.58084 0.60039 0.89931 0.0
C824 C 0.57157 0.6085 0.92699 0.0
C825 C 0.56466 0.60404 0.90919 0.0
N826 N 0.59641 0.60305 0.91085 0.0
N827 N 0.59059 0.60762 0.92736 0.0
C828 C 0.58157 0.59377 0.87957 0.0
H829 H 0.59502 0.58655 0.87703 0.0
H830 H 0.58114 0.60743 0.87089 0.0
H831 H 0.56903 0.58268 0.87557 0.0
C832 C 0.65624 0.65315 0.89344 0.0
N833 N 0.65237 0.63415 0.89995 0.0
N834 N 0.63367 0.6299 0.90034 0.0
C835 C 0.62507 0.64624 0.8943 0.0
C836 C 0.63907 0.66122 0.8894 0.0
C837 C 0.676 0.66307 0.89085 0.0
H838 H 0.68385 0.66502 0.90433 0.0
H839 H 0.68383 0.65275 0.88201 0.0
H840 H 0.6757 0.67834 0.8845 0.0
O841 O 0.66506 0.60758 0.93337 0.0
O842 O 0.63384 0.59864 0.93263 0.0
H843 H 0.59856 0.643 0.90808 0.0
H844 H 0.60061 0.66455 0.89335 0.0
C845 C 0.604 0.64832 0.89485 0.0
H846 H 0.59652 0.63867 0.88358 0.0
H847 H 0.59972 0.6108 0.93887 0.0
O848 O 0.69597 0.62523 0.90516 0.0
C849 C 0.64994 0.60109 0.94131 0.0
Co850 Co 0.39047 0.63628 0.90141 0.0
Co851 Co 0.34563 0.63505 0.9021 0.0
C852 C 0.36448 0.59747 0.88896 0.0
O853 O 0.38084 0.60765 0.89149 0.0
O854 O 0.34915 0.60622 0.89173 0.0
C855 C 0.42759 0.63138 0.88594 0.0
O856 O 0.41767 0.62328 0.87148 0.0
C857 C 0.30361 0.63559 0.89218 0.0
C858 C 0.29481 0.65188 0.91706 0.0
C859 C 0.28778 0.64324 0.90031 0.0
N860 N 0.31907 0.63981 0.90366 0.0
N861 N 0.31358 0.64947 0.91848 0.0
C862 C 0.30415 0.62414 0.87417 0.0
H863 H 0.3172 0.6157 0.87355 0.0
H864 H 0.3045 0.63538 0.86304 0.0
H865 H 0.29119 0.61311 0.87195 0.0
C866 C 0.38549 0.67853 0.88754 0.0
N867 N 0.37835 0.65902 0.89108 0.0
N868 N 0.35953 0.65831 0.89103 0.0
C869 C 0.35419 0.67735 0.88735 0.0
C870 C 0.3704 0.69103 0.88516 0.0
C871 C 0.40636 0.68565 0.8894 0.0
H872 H 0.41198 0.68184 0.90314 0.0
H873 H 0.41417 0.67709 0.8791 0.0
H874 H 0.40909 0.70253 0.8875 0.0
O875 O 0.38629 0.63662 0.92817 0.0
O876 O 0.35459 0.63501 0.92812 0.0
H877 H 0.32932 0.6841 0.90163 0.0
H878 H 0.33255 0.69797 0.88081 0.0
C879 C 0.33396 0.68294 0.88732 0.0
H880 H 0.32449 0.67077 0.87972 0.0
H881 H 0.32273 0.65466 0.92955 0.0
O882 O 0.41883 0.63885 0.89923 0.0
C883 C 0.37075 0.63577 0.93671 0.0
Co884 Co 0.39006 0.38756 0.90169 0.0
Co885 Co 0.34502 0.38278 0.90159 0.0
C886 C 0.36624 0.34749 0.88805 0.0
O887 O 0.38212 0.35843 0.89143 0.0
O888 O 0.35041 0.35528 0.89038 0.0
C889 C 0.4288 0.39802 0.88688 0.0
O890 O 0.42048 0.40282 0.87141 0.0
C891 C 0.30346 0.37777 0.89013 0.0
C892 C 0.29077 0.38752 0.91589 0.0
C893 C 0.28607 0.37985 0.89827 0.0
N894 N 0.31776 0.38395 0.90246 0.0
N895 N 0.30999 0.38988 0.91775 0.0
C896 C 0.30643 0.36896 0.8714 0.0
H897 H 0.32139 0.36507 0.87008 0.0
H898 H 0.30347 0.38059 0.86113 0.0
H899 H 0.29631 0.35501 0.86843 0.0
C900 C 0.38177 0.43012 0.88965 0.0
N901 N 0.3763 0.40983 0.89207 0.0
N902 N 0.35745 0.40709 0.89089 0.0
C903 C 0.35047 0.4253 0.88696 0.0
C904 C 0.36559 0.44082 0.88622 0.0
C905 C 0.40164 0.43983 0.89404 0.0
H906 H 0.40927 0.43027 0.90367 0.0
H907 H 0.4096 0.44107 0.88123 0.0
H908 H 0.40134 0.45562 0.90026 0.0
O909 O 0.38562 0.38685 0.92807 0.0
O910 O 0.35386 0.38281 0.92791 0.0
H911 H 0.32328 0.42885 0.8984 0.0
H912 H 0.32702 0.44201 0.87719 0.0
C913 C 0.32955 0.42787 0.88471 0.0
H914 H 0.32225 0.41427 0.877 0.0
H915 H 0.31781 0.39512 0.92966 0.0
O916 O 0.41861 0.3921 0.90012 0.0
C917 C 0.37008 0.38462 0.93654 0.0
Co918 Co 0.67117 0.40156 0.92455 0.0
Co919 Co 0.62688 0.40791 0.92525 0.0
C920 C 0.64121 0.36593 0.92127 0.0
O921 O 0.65861 0.37345 0.92235 0.0
O922 O 0.6274 0.37741 0.92208 0.0
C923 C 0.70659 0.38646 0.9128 0.0
O924 O 0.69529 0.37187 0.90405 0.0
C925 C 0.58555 0.4055 0.91376 0.0
C926 C 0.57651 0.43326 0.92813 0.0
C927 C 0.56983 0.41672 0.91651 0.0
N928 N 0.60081 0.41505 0.92327 0.0
N929 N 0.5952 0.43152 0.93195 0.0
C930 C 0.58631 0.38659 0.90167 0.0
H931 H 0.60081 0.38616 0.89614 0.0
H932 H 0.57542 0.38619 0.89024 0.0
H933 H 0.58329 0.37267 0.90988 0.0
C934 C 0.66837 0.42844 0.89293 0.0
N935 N 0.66035 0.41764 0.9065 0.0
N936 N 0.64221 0.42121 0.90731 0.0
C937 C 0.63829 0.43506 0.8947 0.0
C938 C 0.65478 0.44009 0.88501 0.0
C939 C 0.68883 0.42783 0.88796 0.0
H940 H 0.69201 0.41149 0.88606 0.0
H941 H 0.69188 0.43595 0.87512 0.0
H942 H 0.69833 0.43501 0.89932 0.0
O943 O 0.66789 0.41328 0.94942 0.0
O944 O 0.63679 0.41701 0.95021 0.0
H945 H 0.61697 0.4507 0.90824 0.0
H946 H 0.62048 0.45902 0.88549 0.0
C947 C 0.62001 0.44539 0.89418 0.0
H948 H 0.60807 0.43402 0.88918 0.0
H949 H 0.60421 0.44172 0.94039 0.0
O950 O 0.69926 0.40062 0.92187 0.0
C951 C 0.65344 0.41851 0.95792 0.0
Co952 Co 0.68053 0.40968 0.12557 0.0
Co953 Co 0.63559 0.41053 0.12369 0.0
C954 C 0.65937 0.43611 0.15156 0.0
O955 O 0.67478 0.43011 0.14523 0.0
O956 O 0.64293 0.42965 0.14455 0.0
C957 C 0.71668 0.39976 0.142 0.0
O958 O 0.70749 0.39857 0.15735 0.0
C959 C 0.59269 0.40895 0.12774 0.0
C960 C 0.58386 0.3951 0.10039 0.0
C961 C 0.57663 0.40229 0.11654 0.0
N962 N 0.60853 0.40558 0.11852 0.0
N963 N 0.60302 0.39738 0.1022 0.0
C964 C 0.59309 0.41925 0.14636 0.0
H965 H 0.60671 0.42906 0.14903 0.0
H966 H 0.59201 0.4072 0.1568 0.0
H967 H 0.58087 0.42887 0.14768 0.0
C968 C 0.66878 0.36466 0.12739 0.0
N969 N 0.66483 0.3846 0.12725 0.0
N970 N 0.64615 0.38534 0.1276 0.0
C971 C 0.63769 0.36607 0.12874 0.0
C972 C 0.65167 0.35234 0.1283 0.0
C973 C 0.6882 0.3575 0.1246 0.0
H974 H 0.69613 0.36764 0.11498 0.0
H975 H 0.69632 0.35835 0.13794 0.0
H976 H 0.6872 0.34127 0.11913 0.0
O977 O 0.67648 0.42084 0.1011 0.0
O978 O 0.64506 0.4222 0.10066 0.0
H979 H 0.60937 0.36032 0.1168 0.0
H980 H 0.61368 0.34559 0.13674 0.0
C981 C 0.61663 0.36088 0.13055 0.0
H982 H 0.61067 0.37286 0.13925 0.0
H983 H 0.61244 0.39331 0.09225 0.0
O984 O 0.70788 0.40443 0.12745 0.0
C985 C 0.66104 0.42512 0.09305 0.0
Co986 Co 0.67026 0.61512 0.11335 0.0
Co987 Co 0.625 0.60677 0.11101 0.0
C988 C 0.64411 0.64847 0.12037 0.0
O989 O 0.66093 0.64278 0.11895 0.0
O990 O 0.62921 0.63603 0.11743 0.0
C991 C 0.70835 0.633 0.12486 0.0
O992 O 0.69936 0.64842 0.13133 0.0
C993 C 0.58364 0.60868 0.11687 0.0
C994 C 0.57161 0.57751 0.10707 0.0
C995 C 0.56659 0.59617 0.1143 0.0
N996 N 0.5981 0.59794 0.11135 0.0
N997 N 0.59076 0.57934 0.10545 0.0
C998 C 0.58638 0.62992 0.12566 0.0
H999 H 0.59813 0.63047 0.13626 0.0
H1000 H 0.5732 0.6343 0.13216 0.0
H1001 H 0.59057 0.64128 0.11517 0.0
C1002 C 0.6648 0.58152 0.14015 0.0
N1003 N 0.65798 0.59473 0.12823 0.0
N1004 N 0.63917 0.5929 0.12836 0.0
C1005 C 0.63344 0.57977 0.14131 0.0
C1006 C 0.64942 0.57156 0.149 0.0
C1007 C 0.68539 0.5771 0.14142 0.0
H1008 H 0.69265 0.58142 0.12871 0.0
H1009 H 0.69269 0.58626 0.15314 0.0
H1010 H 0.68669 0.56043 0.14355 0.0
O1011 O 0.66493 0.60773 0.08726 0.0
O1012 O 0.63328 0.60154 0.08552 0.0
H1013 H 0.60486 0.56529 0.13767 0.0
H1014 H 0.61252 0.57088 0.16131 0.0
C1015 C 0.61317 0.57664 0.14719 0.0
H1016 H 0.60648 0.59147 0.14677 0.0
H1017 H 0.59885 0.56786 0.10034 0.0
O1018 O 0.69868 0.61734 0.11722 0.0
C1019 C 0.64945 0.60263 0.078 0.0
Co1020 Co 0.39228 0.63061 0.10969 0.0
Co1021 Co 0.34742 0.6267 0.10813 0.0
C1022 C 0.37005 0.66641 0.12219 0.0
O1023 O 0.38592 0.65839 0.12057 0.0
O1024 O 0.35427 0.65566 0.1182 0.0
C1025 C 0.42982 0.62582 0.12689 0.0
O1026 O 0.42054 0.62231 0.14194 0.0
C1027 C 0.30709 0.62742 0.11936 0.0
C1028 C 0.2917 0.6127 0.09478 0.0
C1029 C 0.28883 0.62235 0.11152 0.0
N1030 N 0.32005 0.62118 0.10767 0.0
N1031 N 0.31068 0.61215 0.09314 0.0
C1032 C 0.31218 0.6392 0.13705 0.0
H1033 H 0.32771 0.64404 0.13832 0.0
H1034 H 0.3085 0.6291 0.1486 0.0
H1035 H 0.30384 0.65292 0.13814 0.0
C1036 C 0.3845 0.58664 0.12143 0.0
N1037 N 0.37887 0.60585 0.11886 0.0
N1038 N 0.36009 0.60496 0.11957 0.0
C1039 C 0.35333 0.58542 0.12339 0.0
C1040 C 0.36853 0.57287 0.1246 0.0
C1041 C 0.40401 0.58063 0.11709 0.0
H1042 H 0.4106 0.59103 0.10688 0.0
H1043 H 0.41322 0.58179 0.1298 0.0
H1044 H 0.40332 0.56448 0.11149 0.0
O1045 O 0.38628 0.63073 0.08303 0.0
O1046 O 0.35446 0.62705 0.08194 0.0
H1047 H 0.32583 0.57588 0.11091 0.0
H1048 H 0.33033 0.56443 0.13271 0.0
C1049 C 0.33249 0.57875 0.12486 0.0
H1050 H 0.32528 0.59119 0.1318 0.0
H1051 H 0.31728 0.60629 0.08176 0.0
O1052 O 0.42058 0.62967 0.1123 0.0
C1053 C 0.37035 0.629 0.07393 0.0
Co1054 Co 0.39522 0.38172 0.10968 0.0
Co1055 Co 0.35068 0.37533 0.10772 0.0
C1056 C 0.37103 0.41639 0.12124 0.0
O1057 O 0.38727 0.40921 0.11948 0.0
O1058 O 0.35558 0.40475 0.11783 0.0
C1059 C 0.43373 0.38891 0.1266 0.0
O1060 O 0.42531 0.39459 0.14148 0.0
C1061 C 0.31085 0.37018 0.11944 0.0
C1062 C 0.29645 0.35324 0.09533 0.0
C1063 C 0.29316 0.36125 0.11262 0.0
N1064 N 0.32389 0.36744 0.10676 0.0
N1065 N 0.31517 0.35743 0.09235 0.0
C1066 C 0.31578 0.37984 0.13805 0.0
H1067 H 0.33113 0.37863 0.14172 0.0
H1068 H 0.30665 0.37232 0.14847 0.0
H1069 H 0.31336 0.3965 0.13791 0.0
C1070 C 0.38995 0.33874 0.12388 0.0
N1071 N 0.38309 0.35702 0.11991 0.0
N1072 N 0.36426 0.35456 0.11955 0.0
C1073 C 0.3586 0.33472 0.1235 0.0
C1074 C 0.37468 0.32381 0.1263 0.0
C1075 C 0.41072 0.33522 0.12361 0.0
H1076 H 0.41583 0.33724 0.10953 0.0
H1077 H 0.41904 0.34697 0.13276 0.0
H1078 H 0.41334 0.31955 0.12818 0.0
O1079 O 0.38945 0.38046 0.08277 0.0
O1080 O 0.35772 0.37585 0.08184 0.0
H1081 H 0.33338 0.32598 0.10685 0.0
H1082 H 0.33659 0.30922 0.12561 0.0
C1083 C 0.33828 0.3255 0.1214 0.0
H1084 H 0.32906 0.33476 0.12979 0.0
H1085 H 0.32205 0.35322 0.08055 0.0
O1086 O 0.42357 0.38262 0.11242 0.0
C1087 C 0.37349 0.37805 0.07374 0.0
Co1088 Co 0.8774 0.60764 0.6032 0.0
Co1089 Co 0.8955 0.60963 0.64193 0.0
C1090 C 0.87344 0.57067 0.62865 0.0
O1091 O 0.87125 0.57912 0.6133 0.0
O1092 O 0.88132 0.5813 0.64226 0.0
C1093 C 0.84901 0.59493 0.574 0.0
O1094 O 0.848 0.57623 0.58046 0.0
C1095 C 0.8984 0.61527 0.68093 0.0
C1096 C 0.92808 0.6295 0.68582 0.0
C1097 C 0.91109 0.62437 0.69443 0.0
N1098 N 0.90739 0.61544 0.66511 0.0
N1099 N 0.92525 0.62345 0.66809 0.0
C1100 C 0.87733 0.60944 0.6821 0.0
H1101 H 0.8702 0.60871 0.66827 0.0
H1102 H 0.87066 0.62074 0.691 0.0
H1103 H 0.87507 0.59393 0.68803 0.0
C1104 C 0.86941 0.65069 0.61377 0.0
N1105 N 0.87399 0.63164 0.61842 0.0
N1106 N 0.8814 0.63269 0.63519 0.0
C1107 C 0.8815 0.65251 0.64185 0.0
C1108 C 0.87396 0.66478 0.62847 0.0
C1109 C 0.864 0.65596 0.5946 0.0
H1110 H 0.87226 0.64737 0.58472 0.0
H1111 H 0.84855 0.65123 0.59194 0.0
H1112 H 0.86672 0.67276 0.59235 0.0
O1113 O 0.90476 0.60966 0.59652 0.0
O1114 O 0.9166 0.6079 0.62503 0.0
H1115 H 0.90542 0.65883 0.66081 0.0
H1116 H 0.88677 0.67613 0.6636 0.0
C1117 C 0.88973 0.65996 0.66031 0.0
H1118 H 0.88324 0.65015 0.67091 0.0
H1119 H 0.93511 0.62592 0.65785 0.0
O1120 O 0.86071 0.60918 0.58127 0.0
C1121 C 0.91885 0.6086 0.60786 0.0
Co1122 Co 0.39454 0.90804 0.65935 0.0
Co1123 Co 0.39123 0.90372 0.61723 0.0
C1124 C 0.3572 0.89391 0.63843 0.0
O1125 O 0.36738 0.89874 0.65292 0.0
O1126 O 0.3645 0.89455 0.62275 0.0
C1127 C 0.39064 0.88786 0.69179 0.0
O1128 O 0.38382 0.8729 0.68019 0.0
C1129 C 0.38762 0.886 0.57987 0.0
C1130 C 0.41008 0.90586 0.56668 0.0
C1131 C 0.39719 0.88853 0.56375 0.0
N1132 N 0.39491 0.90093 0.59194 0.0
N1133 N 0.40805 0.91296 0.58389 0.0
C1134 C 0.3735 0.86846 0.58451 0.0
H1135 H 0.37473 0.86542 0.59933 0.0
H1136 H 0.37576 0.85422 0.57634 0.0
H1137 H 0.35881 0.87275 0.58135 0.0
C1138 C 0.42827 0.88479 0.65344 0.0
N1139 N 0.41183 0.89208 0.64755 0.0
N1140 N 0.40945 0.88861 0.6298 0.0
C1141 C 0.42388 0.87801 0.62392 0.0
C1142 C 0.43657 0.87561 0.6386 0.0
C1143 C 0.43719 0.88957 0.67219 0.0
H1144 H 0.43222 0.90403 0.67805 0.0
H1145 H 0.43286 0.87668 0.68122 0.0
H1146 H 0.45304 0.89134 0.67186 0.0
O1147 O 0.39948 0.93718 0.65353 0.0
O1148 O 0.39607 0.9341 0.62326 0.0
H1149 H 0.43055 0.88359 0.59606 0.0
H1150 H 0.43615 0.85858 0.60368 0.0
C1151 C 0.42572 0.87043 0.60456 0.0
H1152 H 0.41166 0.8634 0.59904 0.0
H1153 H 0.41624 0.92545 0.59044 0.0
O1154 O 0.39701 0.90513 0.68571 0.0
C1155 C 0.39922 0.94526 0.63792 0.0
Co1156 Co 0.09906 0.39093 0.61042 0.0
Co1157 Co 0.08551 0.34495 0.61096 0.0
C1158 C 0.1007 0.36893 0.64588 0.0
O1159 O 0.10415 0.38511 0.63678 0.0
O1160 O 0.09386 0.35216 0.63762 0.0
C1161 C 0.12698 0.42505 0.61566 0.0
O1162 O 0.13437 0.41357 0.62805 0.0
C1163 C 0.09615 0.30391 0.61202 0.0
C1164 C 0.06867 0.28434 0.61093 0.0
C1165 C 0.08836 0.28368 0.61275 0.0
N1166 N 0.08183 0.31598 0.60976 0.0
N1167 N 0.06539 0.30431 0.60894 0.0
C1168 C 0.11665 0.31216 0.61536 0.0
H1169 H 0.11772 0.32888 0.61931 0.0
H1170 H 0.12445 0.31028 0.60256 0.0
H1171 H 0.12356 0.30349 0.62622 0.0
C1172 C 0.11552 0.37794 0.57571 0.0
N1173 N 0.10884 0.37309 0.59231 0.0
N1174 N 0.10185 0.35366 0.59168 0.0
C1175 C 0.10304 0.34577 0.57437 0.0
C1176 C 0.11171 0.36099 0.56344 0.0
C1177 C 0.1241 0.39903 0.5713 0.0
H1178 H 0.1126 0.40966 0.57027 0.0
H1179 H 0.13448 0.40491 0.58244 0.0
H1180 H 0.13173 0.39877 0.55827 0.0
O1181 O 0.07044 0.39045 0.60586 0.0
O1182 O 0.06131 0.3566 0.60577 0.0
H1183 H 0.07831 0.32378 0.57416 0.0
H1184 H 0.09 0.32506 0.55259 0.0
C1185 C 0.09238 0.32577 0.56768 0.0
H1186 H 0.10071 0.31278 0.57171 0.0
H1187 H 0.05197 0.31002 0.60772 0.0
O1188 O 0.11143 0.41867 0.607 0.0
C1189 C 0.05746 0.37527 0.60405 0.0
Co1190 Co 0.62251 0.12947 0.66547 0.0
Co1191 Co 0.6204 0.12751 0.62055 0.0
C1192 C 0.65661 0.1417 0.64177 0.0
O1193 O 0.64903 0.13892 0.65728 0.0
O1194 O 0.64693 0.13841 0.62669 0.0
C1195 C 0.62094 0.14997 0.70331 0.0
O1196 O 0.62084 0.16752 0.69486 0.0
C1197 C 0.62384 0.13204 0.57882 0.0
C1198 C 0.59674 0.11452 0.5694 0.0
C1199 C 0.61293 0.12529 0.56287 0.0
N1200 N 0.61429 0.12571 0.5938 0.0
N1201 N 0.59817 0.11516 0.58782 0.0
C1202 C 0.64365 0.1427 0.57977 0.0
H1203 H 0.65123 0.13933 0.59271 0.0
H1204 H 0.6428 0.15966 0.57927 0.0
H1205 H 0.65195 0.13761 0.56806 0.0
C1206 C 0.5866 0.14979 0.65749 0.0
N1207 N 0.60294 0.14239 0.65198 0.0
N1208 N 0.60335 0.14319 0.63395 0.0
C1209 C 0.58806 0.15239 0.62771 0.0
C1210 C 0.57659 0.15646 0.6423 0.0
C1211 C 0.57919 0.14717 0.67632 0.0
H1212 H 0.586 0.13461 0.68324 0.0
H1213 H 0.58247 0.16185 0.68447 0.0
H1214 H 0.56344 0.1434 0.67573 0.0
O1215 O 0.6187 0.0994 0.65942 0.0
O1216 O 0.61758 0.09836 0.62889 0.0
H1217 H 0.57689 0.14415 0.60057 0.0
H1218 H 0.5761 0.17102 0.60708 0.0
C1219 C 0.58475 0.15756 0.6081 0.0
H1220 H 0.59864 0.16116 0.60159 0.0
H1221 H 0.58816 0.10809 0.5964 0.0
O1222 O 0.62153 0.13319 0.69373 0.0
C1223 C 0.61712 0.08925 0.64413 0.0
Co1224 Co 0.88453 0.38709 0.36287 0.0
Co1225 Co 0.88707 0.39203 0.40422 0.0
C1226 C 0.87556 0.34985 0.38484 0.0
O1227 O 0.87513 0.35825 0.36939 0.0
O1228 O 0.87989 0.36108 0.39928 0.0
C1229 C 0.86912 0.37612 0.32758 0.0
O1230 O 0.85529 0.3664 0.3365 0.0
C1231 C 0.866 0.39038 0.43655 0.0
C1232 C 0.88519 0.40737 0.45761 0.0
C1233 C 0.86711 0.39706 0.45465 0.0
N1234 N 0.88256 0.39654 0.42902 0.0
N1235 N 0.89409 0.40667 0.4416 0.0
C1236 C 0.84925 0.3791 0.42619 0.0
H1237 H 0.84917 0.38344 0.41162 0.0
H1238 H 0.83559 0.38252 0.43237 0.0
H1239 H 0.85053 0.3622 0.42663 0.0
C1240 C 0.86731 0.42757 0.36596 0.0
N1241 N 0.87225 0.4097 0.3731 0.0
N1242 N 0.87393 0.4121 0.39097 0.0
C1243 C 0.87042 0.43171 0.39582 0.0
C1244 C 0.86603 0.44244 0.38011 0.0
C1245 C 0.86566 0.43086 0.34583 0.0
H1246 H 0.85815 0.41691 0.33877 0.0
H1247 H 0.8577 0.44448 0.3429 0.0
H1248 H 0.88022 0.43325 0.34037 0.0
O1249 O 0.91242 0.39128 0.36961 0.0
O1250 O 0.91456 0.39703 0.39981 0.0
H1251 H 0.88988 0.43756 0.4189 0.0
H1252 H 0.87492 0.45814 0.41514 0.0
C1253 C 0.87527 0.44112 0.41457 0.0
H1254 H 0.86505 0.43417 0.42437 0.0
H1255 H 0.90788 0.41319 0.43922 0.0
O1256 O 0.88255 0.38699 0.33639 0.0
C1257 C 0.92239 0.39541 0.38443 0.0
Co1258 Co 0.59865 0.88851 0.38378 0.0
Co1259 Co 0.59859 0.88932 0.33894 0.0
C1260 C 0.5633 0.87537 0.35938 0.0
O1261 O 0.57217 0.87811 0.37498 0.0
O1262 O 0.57175 0.87872 0.34437 0.0
C1263 C 0.58917 0.88514 0.42334 0.0
O1264 O 0.57139 0.88564 0.41723 0.0
C1265 C 0.59699 0.87998 0.29693 0.0
C1266 C 0.61685 0.90618 0.28915 0.0
C1267 C 0.60529 0.88938 0.28162 0.0
N1268 N 0.6035 0.89087 0.31245 0.0
N1269 N 0.61537 0.90645 0.30744 0.0
C1270 C 0.58248 0.86167 0.29679 0.0
H1271 H 0.57532 0.8608 0.31008 0.0
H1272 H 0.58977 0.84737 0.29458 0.0
H1273 H 0.57168 0.86257 0.28545 0.0
C1274 C 0.63398 0.86905 0.37679 0.0
N1275 N 0.61722 0.87512 0.37034 0.0
N1276 N 0.61729 0.87524 0.35227 0.0
C1277 C 0.63418 0.86923 0.34682 0.0
C1278 C 0.64543 0.8653 0.36213 0.0
C1279 C 0.6402 0.87087 0.39662 0.0
H1280 H 0.64008 0.88721 0.40158 0.0
H1281 H 0.62985 0.86129 0.40464 0.0
H1282 H 0.65472 0.86579 0.39905 0.0
O1283 O 0.60197 0.91855 0.37876 0.0
O1284 O 0.60151 0.91855 0.34827 0.0
H1285 H 0.64411 0.88656 0.32416 0.0
H1286 H 0.65361 0.86174 0.32584 0.0
C1287 C 0.64066 0.87016 0.32757 0.0
H1288 H 0.62903 0.86326 0.318 0.0
H1289 H 0.62244 0.9175 0.31658 0.0
O1290 O 0.60246 0.88572 0.41176 0.0
C1291 C 0.60273 0.92818 0.36382 0.0
Co1292 Co 0.09865 0.67386 0.39415 0.0
Co1293 Co 0.09312 0.62688 0.39489 0.0
C1294 C 0.10896 0.65192 0.42848 0.0
O1295 O 0.10821 0.66876 0.42011 0.0
O1296 O 0.10422 0.63477 0.41994 0.0
C1297 C 0.12251 0.71045 0.3941 0.0
O1298 O 0.13544 0.69776 0.39835 0.0
C1299 C 0.10873 0.58809 0.39666 0.0
C1300 C 0.08324 0.56544 0.39596 0.0
C1301 C 0.10303 0.56742 0.39805 0.0
N1302 N 0.09308 0.59809 0.39379 0.0
N1303 N 0.07782 0.58455 0.39328 0.0
C1304 C 0.12852 0.59851 0.39992 0.0
H1305 H 0.12868 0.61547 0.39832 0.0
H1306 H 0.13834 0.59208 0.3901 0.0
H1307 H 0.13385 0.59534 0.41394 0.0
C1308 C 0.11378 0.66423 0.35712 0.0
N1309 N 0.10863 0.65866 0.3741 0.0
N1310 N 0.10605 0.63839 0.37434 0.0
C1311 C 0.10944 0.63038 0.35753 0.0
C1312 C 0.11451 0.64648 0.34589 0.0
C1313 C 0.11477 0.68607 0.35097 0.0
H1314 H 0.10245 0.6938 0.35615 0.0
H1315 H 0.12812 0.69463 0.35679 0.0
H1316 H 0.11467 0.68681 0.33583 0.0
O1317 O 0.07018 0.66853 0.39305 0.0
O1318 O 0.06641 0.63419 0.39423 0.0
H1319 H 0.09148 0.60192 0.35493 0.0
H1320 H 0.1097 0.6045 0.33793 0.0
C1321 C 0.10647 0.60777 0.35241 0.0
H1322 H 0.11605 0.59926 0.36117 0.0
H1323 H 0.06375 0.58845 0.39186 0.0
O1324 O 0.10522 0.70328 0.39111 0.0
C1325 C 0.05943 0.65163 0.39348 0.0
Co1326 Co 0.41064 0.14917 0.4196 0.0
Co1327 Co 0.4047 0.13239 0.37979 0.0
C1328 C 0.43933 0.15927 0.39033 0.0
O1329 O 0.434 0.15961 0.40678 0.0
O1330 O 0.42868 0.1501 0.37765 0.0
C1331 C 0.41237 0.18424 0.4444 0.0
O1332 O 0.40939 0.19497 0.42982 0.0
C1333 C 0.40016 0.13126 0.34067 0.0
C1334 C 0.38954 0.09869 0.33399 0.0
C1335 C 0.39533 0.11731 0.32621 0.0
N1336 N 0.39762 0.12132 0.35626 0.0
N1337 N 0.39116 0.10189 0.35228 0.0
C1338 C 0.40637 0.15389 0.33999 0.0
H1339 H 0.40171 0.16222 0.35233 0.0
H1340 H 0.40038 0.16054 0.32746 0.0
H1341 H 0.42223 0.1561 0.33991 0.0
C1342 C 0.36984 0.15726 0.41314 0.0
N1343 N 0.38698 0.15286 0.40699 0.0
N1344 N 0.38469 0.14612 0.38984 0.0
C1345 C 0.36615 0.14624 0.38441 0.0
C1346 C 0.35602 0.15325 0.39903 0.0
C1347 C 0.36656 0.16334 0.43263 0.0
H1348 H 0.37252 0.17959 0.43524 0.0
H1349 H 0.35115 0.16243 0.43564 0.0
H1350 H 0.37419 0.15345 0.442 0.0
O1351 O 0.41203 0.11913 0.42399 0.0
O1352 O 0.41007 0.10874 0.39466 0.0
H1353 H 0.36011 0.11939 0.36676 0.0
H1354 H 0.34229 0.13754 0.365 0.0
C1355 C 0.35783 0.13608 0.36686 0.0
H1356 H 0.36529 0.14312 0.35516 0.0
H1357 H 0.3883 0.09073 0.36203 0.0
O1358 O 0.41258 0.1647 0.44303 0.0
C1359 C 0.41229 0.10496 0.41154 0.0
Co1360 Co 0.61093 0.89396 0.66323 0.0
Co1361 Co 0.61085 0.89534 0.6185 0.0
C1362 C 0.57696 0.87726 0.6383 0.0
O1363 O 0.58528 0.88107 0.65404 0.0
O1364 O 0.5853 0.88178 0.6235 0.0
C1365 C 0.60034 0.88823 0.70171 0.0
O1366 O 0.58295 0.88866 0.69453 0.0
C1367 C 0.60631 0.88762 0.57682 0.0
C1368 C 0.62944 0.90995 0.56805 0.0
C1369 C 0.61503 0.89549 0.56115 0.0
N1370 N 0.61525 0.89708 0.59201 0.0
N1371 N 0.62897 0.91047 0.58646 0.0
C1372 C 0.59024 0.87094 0.57743 0.0
H1373 H 0.59091 0.86298 0.59061 0.0
H1374 H 0.59082 0.85955 0.56584 0.0
H1375 H 0.57642 0.878 0.57634 0.0
C1376 C 0.64683 0.87518 0.65591 0.0
N1377 N 0.63046 0.88236 0.64975 0.0
N1378 N 0.63014 0.88214 0.63165 0.0
C1379 C 0.64613 0.87432 0.62585 0.0
C1380 C 0.65731 0.86984 0.64102 0.0
C1381 C 0.65275 0.87467 0.67574 0.0
H1382 H 0.64159 0.86527 0.683 0.0
H1383 H 0.66666 0.86797 0.6777 0.0
H1384 H 0.65381 0.89062 0.68187 0.0
O1385 O 0.61195 0.92413 0.6586 0.0
O1386 O 0.61159 0.9244 0.6281 0.0
H1387 H 0.65718 0.88923 0.60236 0.0
H1388 H 0.66295 0.86292 0.60401 0.0
C1389 C 0.65164 0.8735 0.60626 0.0
H1390 H 0.63893 0.86827 0.59732 0.0
H1391 H 0.63804 0.92012 0.59531 0.0
O1392 O 0.61444 0.89007 0.69107 0.0
C1393 C 0.61201 0.93389 0.6437 0.0
Co1394 Co 0.62222 0.12402 0.38573 0.0
Co1395 Co 0.61846 0.12179 0.34079 0.0
C1396 C 0.65523 0.1372 0.36204 0.0
O1397 O 0.64761 0.1347 0.37753 0.0
O1398 O 0.64584 0.13295 0.34683 0.0
C1399 C 0.63092 0.13674 0.42575 0.0
O1400 O 0.64512 0.14915 0.42002 0.0
C1401 C 0.61768 0.13051 0.29922 0.0
C1402 C 0.59788 0.10374 0.28969 0.0
C1403 C 0.60907 0.12045 0.28326 0.0
N1404 N 0.61178 0.12004 0.31413 0.0
N1405 N 0.59985 0.10418 0.30807 0.0
C1406 C 0.63215 0.14888 0.30014 0.0
H1407 H 0.64002 0.15015 0.31362 0.0
H1408 H 0.62468 0.16309 0.29833 0.0
H1409 H 0.64233 0.14776 0.28893 0.0
C1410 C 0.58863 0.14695 0.38014 0.0
N1411 N 0.60321 0.13774 0.37303 0.0
N1412 N 0.60081 0.13624 0.35501 0.0
C1413 C 0.58406 0.14379 0.35026 0.0
C1414 C 0.57566 0.15071 0.36611 0.0
C1415 C 0.58707 0.15152 0.40022 0.0
H1416 H 0.6012 0.15803 0.40611 0.0
H1417 H 0.57636 0.16276 0.40285 0.0
H1418 H 0.58293 0.13692 0.40715 0.0
O1419 O 0.61851 0.09399 0.37891 0.0
O1420 O 0.61628 0.09264 0.34845 0.0
H1421 H 0.57334 0.12478 0.32714 0.0
H1422 H 0.56107 0.14776 0.33028 0.0
C1423 C 0.5752 0.14144 0.3313 0.0
H1424 H 0.585 0.14937 0.32164 0.0
H1425 H 0.59328 0.09325 0.31654 0.0
O1426 O 0.62015 0.12586 0.4139 0.0
C1427 C 0.61644 0.08368 0.36371 0.0
Co1428 Co 0.88193 0.63946 0.36347 0.0
Co1429 Co 0.87797 0.63863 0.40482 0.0
C1430 C 0.86865 0.59943 0.38124 0.0
O1431 O 0.87276 0.6094 0.36694 0.0
O1432 O 0.86921 0.60899 0.39679 0.0
C1433 C 0.86684 0.63855 0.3273 0.0
O1434 O 0.85172 0.62888 0.33435 0.0
C1435 C 0.85711 0.63306 0.43783 0.0
C1436 C 0.87537 0.65191 0.45848 0.0
C1437 C 0.85828 0.6395 0.45605 0.0
N1438 N 0.87271 0.64137 0.42978 0.0
N1439 N 0.88364 0.6526 0.44215 0.0
C1440 C 0.84098 0.62021 0.42791 0.0
H1441 H 0.83947 0.62519 0.41358 0.0
H1442 H 0.82733 0.62141 0.43494 0.0
H1443 H 0.84421 0.60378 0.42753 0.0
C1444 C 0.86437 0.67933 0.36838 0.0
N1445 N 0.86815 0.66051 0.37441 0.0
N1446 N 0.86664 0.66045 0.39225 0.0
C1447 C 0.86179 0.67926 0.39811 0.0
C1448 C 0.86018 0.69197 0.38321 0.0
C1449 C 0.86839 0.68641 0.34949 0.0
H1450 H 0.88305 0.68299 0.34593 0.0
H1451 H 0.85804 0.67785 0.33956 0.0
H1452 H 0.86715 0.70323 0.34827 0.0
O1453 O 0.90886 0.64416 0.37245 0.0
O1454 O 0.9063 0.64251 0.40261 0.0
H1455 H 0.87572 0.68759 0.42407 0.0
H1456 H 0.85474 0.70102 0.41932 0.0
C1457 C 0.86101 0.68597 0.41782 0.0
H1458 H 0.85222 0.67414 0.42521 0.0
H1459 H 0.89663 0.66082 0.43941 0.0
O1460 O 0.88166 0.64377 0.33738 0.0
C1461 C 0.91646 0.64476 0.38856 0.0
Co1462 Co 0.38684 0.90988 0.41304 0.0
Co1463 Co 0.38114 0.92575 0.37413 0.0
C1464 C 0.34771 0.90873 0.39415 0.0
O1465 O 0.35859 0.90572 0.40791 0.0
O1466 O 0.35457 0.91612 0.37966 0.0
C1467 C 0.38251 0.87667 0.43719 0.0
O1468 O 0.36896 0.86926 0.42529 0.0
C1469 C 0.37227 0.92487 0.33526 0.0
C1470 C 0.39067 0.95171 0.32614 0.0
C1471 C 0.3783 0.93496 0.31983 0.0
N1472 N 0.38107 0.93484 0.34996 0.0
N1473 N 0.39166 0.95121 0.34453 0.0
C1474 C 0.35872 0.90577 0.33624 0.0
H1475 H 0.36564 0.89385 0.34399 0.0
H1476 H 0.35363 0.89948 0.32247 0.0
H1477 H 0.34609 0.90968 0.34391 0.0
C1478 C 0.418 0.89001 0.39495 0.0
N1479 N 0.4018 0.89974 0.39407 0.0
N1480 N 0.39864 0.90528 0.37719 0.0
C1481 C 0.41246 0.89871 0.36663 0.0
C1482 C 0.4254 0.88897 0.37753 0.0
C1483 C 0.42782 0.88525 0.41266 0.0
H1484 H 0.42567 0.89736 0.42326 0.0
H1485 H 0.42141 0.87019 0.41737 0.0
H1486 H 0.44341 0.88443 0.41123 0.0
O1487 O 0.39458 0.93984 0.41826 0.0
O1488 O 0.39053 0.9501 0.38976 0.0
H1489 H 0.41789 0.9193 0.34474 0.0
H1490 H 0.42431 0.89325 0.34008 0.0
C1491 C 0.41379 0.90262 0.34663 0.0
H1492 H 0.39968 0.89843 0.3397 0.0
H1493 H 0.40031 0.96139 0.35329 0.0
O1494 O 0.39169 0.89408 0.43477 0.0
C1495 C 0.39537 0.95398 0.40655 0.0
Co1496 Co 0.10422 0.39732 0.39277 0.0
Co1497 Co 0.09147 0.35119 0.38854 0.0
C1498 C 0.10806 0.36964 0.42487 0.0
O1499 O 0.11051 0.38726 0.41778 0.0
O1500 O 0.10126 0.35401 0.41501 0.0
C1501 C 0.1321 0.43071 0.40134 0.0
O1502 O 0.14022 0.41725 0.41135 0.0
C1503 C 0.10231 0.31081 0.38686 0.0
C1504 C 0.07827 0.29162 0.37271 0.0
C1505 C 0.09666 0.29104 0.38018 0.0
N1506 N 0.08803 0.32262 0.3836 0.0
N1507 N 0.07352 0.31118 0.37531 0.0
C1508 C 0.12183 0.31924 0.39406 0.0
H1509 H 0.12425 0.33605 0.39175 0.0
H1510 H 0.13315 0.31111 0.38738 0.0
H1511 H 0.12295 0.31698 0.40902 0.0
C1512 C 0.11785 0.39007 0.35538 0.0
N1513 N 0.11268 0.38285 0.37184 0.0
N1514 N 0.10724 0.36301 0.36994 0.0
C1515 C 0.10881 0.35696 0.35219 0.0
C1516 C 0.11549 0.37391 0.34219 0.0
C1517 C 0.12108 0.41264 0.3517 0.0
H1518 H 0.10853 0.42058 0.35605 0.0
H1519 H 0.13379 0.41946 0.35996 0.0
H1520 H 0.12341 0.41538 0.33701 0.0
O1521 O 0.07577 0.39724 0.39023 0.0
O1522 O 0.06686 0.36343 0.3865 0.0
H1523 H 0.08569 0.33385 0.3457 0.0
H1524 H 0.10473 0.33429 0.32962 0.0
C1525 C 0.10142 0.33609 0.34428 0.0
H1526 H 0.10811 0.32395 0.35187 0.0
H1527 H 0.06076 0.31685 0.37086 0.0
O1528 O 0.11634 0.42552 0.39259 0.0
C1529 C 0.06281 0.38221 0.38756 0.0
Co1530 Co 0.40423 0.13917 0.66004 0.0
Co1531 Co 0.40115 0.13953 0.618 0.0
C1532 C 0.43612 0.15867 0.63916 0.0
O1533 O 0.42861 0.15506 0.65443 0.0
O1534 O 0.42701 0.15328 0.62419 0.0
C1535 C 0.40002 0.15717 0.69528 0.0
O1536 O 0.39799 0.17416 0.68639 0.0
C1537 C 0.40127 0.16042 0.58394 0.0
C1538 C 0.38502 0.13773 0.56478 0.0
C1539 C 0.39414 0.1576 0.56611 0.0
N1540 N 0.39646 0.1431 0.59285 0.0
N1541 N 0.38686 0.12949 0.58135 0.0
C1542 C 0.4109 0.17983 0.59295 0.0
H1543 H 0.40681 0.18109 0.60745 0.0
H1544 H 0.40704 0.1937 0.58565 0.0
H1545 H 0.42665 0.17923 0.59275 0.0
C1546 C 0.36418 0.15048 0.65555 0.0
N1547 N 0.38183 0.14868 0.64917 0.0
N1548 N 0.38116 0.1503 0.6313 0.0
C1549 C 0.36328 0.1541 0.62582 0.0
C1550 C 0.35186 0.15412 0.64095 0.0
C1551 C 0.35824 0.14432 0.67425 0.0
H1552 H 0.36713 0.13235 0.67947 0.0
H1553 H 0.36005 0.15812 0.6837 0.0
H1554 H 0.34297 0.13812 0.6741 0.0
O1555 O 0.40536 0.10989 0.65261 0.0
O1556 O 0.40159 0.10939 0.62228 0.0
H1557 H 0.35583 0.14022 0.59932 0.0
H1558 H 0.34236 0.16176 0.60526 0.0
C1559 C 0.35666 0.15573 0.60628 0.0
H1560 H 0.36696 0.16636 0.59922 0.0
H1561 H 0.38127 0.11478 0.58491 0.0
O1562 O 0.40288 0.14061 0.68653 0.0
C1563 C 0.40381 0.10004 0.63719 0.0
Co1564 Co 0.87602 0.36082 0.60215 0.0
Co1565 Co 0.8911 0.36059 0.64169 0.0
C1566 C 0.87379 0.32099 0.62202 0.0
O1567 O 0.87073 0.33057 0.60745 0.0
O1568 O 0.88093 0.33091 0.63628 0.0
C1569 C 0.84897 0.35382 0.57141 0.0
O1570 O 0.84264 0.33671 0.57917 0.0
C1571 C 0.88144 0.35973 0.67861 0.0
C1572 C 0.9091 0.36159 0.69427 0.0
C1573 C 0.8894 0.35987 0.69611 0.0
N1574 N 0.89565 0.36148 0.66694 0.0
N1575 N 0.91223 0.36245 0.67622 0.0
C1576 C 0.86066 0.3568 0.67274 0.0
H1577 H 0.85883 0.34929 0.65887 0.0
H1578 H 0.85491 0.37215 0.67205 0.0
H1579 H 0.85233 0.34737 0.68261 0.0
C1580 C 0.86089 0.3996 0.61567 0.0
N1581 N 0.86743 0.38107 0.61916 0.0
N1582 N 0.87534 0.38206 0.6357 0.0
C1583 C 0.87496 0.40155 0.64292 0.0
C1584 C 0.86577 0.4136 0.63039 0.0
C1585 C 0.8513 0.40426 0.59793 0.0
H1586 H 0.84105 0.39093 0.5934 0.0
H1587 H 0.8434 0.41827 0.59926 0.0
H1588 H 0.8623 0.40671 0.58749 0.0
O1589 O 0.90458 0.36711 0.6001 0.0
O1590 O 0.91496 0.36686 0.62929 0.0
H1591 H 0.89053 0.42642 0.65932 0.0
H1592 H 0.87841 0.40609 0.67195 0.0
C1593 C 0.88671 0.40949 0.6596 0.0
H1594 H 0.90006 0.40159 0.66062 0.0
H1595 H 0.92556 0.36357 0.67025 0.0
O1596 O 0.86323 0.36513 0.57851 0.0
C1597 C 0.91811 0.3693 0.61241 0.0
Co1598 Co 0.09228 0.6647 0.61689 0.0
Co1599 Co 0.09864 0.61921 0.61235 0.0
C1600 C 0.10545 0.63988 0.64938 0.0
O1601 O 0.10028 0.65641 0.64255 0.0
O1602 O 0.10649 0.62392 0.639 0.0
C1603 C 0.11235 0.70144 0.62383 0.0
O1604 O 0.12481 0.68812 0.62772 0.0
C1605 C 0.11883 0.58249 0.61041 0.0
C1606 C 0.10048 0.56233 0.59071 0.0
C1607 C 0.11759 0.56363 0.60094 0.0
N1608 N 0.10332 0.59207 0.60573 0.0
N1609 N 0.09228 0.57993 0.5941 0.0
C1610 C 0.13522 0.59227 0.62225 0.0
H1611 H 0.13644 0.60933 0.62093 0.0
H1612 H 0.14886 0.58606 0.61853 0.0
H1613 H 0.1325 0.58891 0.63676 0.0
C1614 C 0.10896 0.66522 0.57995 0.0
N1615 N 0.10658 0.65648 0.59641 0.0
N1616 N 0.11087 0.63726 0.59519 0.0
C1617 C 0.11686 0.63337 0.5781 0.0
C1618 C 0.11549 0.6508 0.56754 0.0
C1619 C 0.10157 0.68546 0.57537 0.0
H1620 H 0.0888 0.68798 0.5834 0.0
H1621 H 0.11283 0.69815 0.57908 0.0
H1622 H 0.0977 0.68608 0.56057 0.0
O1623 O 0.06543 0.65405 0.61157 0.0
O1624 O 0.0704 0.62069 0.60919 0.0
H1625 H 0.11011 0.60213 0.56812 0.0
H1626 H 0.13166 0.61467 0.55925 0.0
C1627 C 0.12295 0.61295 0.57158 0.0
H1628 H 0.13162 0.60634 0.58249 0.0
H1629 H 0.07945 0.58392 0.58813 0.0
O1630 O 0.09548 0.69477 0.61838 0.0
C1631 C 0.05916 0.63512 0.60878 0.0
H1632 H 0.10115 0.2636 0.35185 0.0
H1633 H 0.17012 0.20182 0.41376 0.0
H1634 H 0.11913 0.27914 0.40801 0.0
H1635 H 0.14549 0.17796 0.36169 0.0
H1636 H 0.15984 0.23577 0.40699 0.0
H1637 H 0.12321 0.23619 0.35154 0.0
C1638 C 0.10974 0.26118 0.36407 0.0
C1639 C 0.10854 0.2736 0.37994 0.0
C1640 C 0.15707 0.22328 0.39679 0.0
C1641 C 0.13387 0.24301 0.37958 0.0
C1642 C 0.1632 0.20404 0.40058 0.0
C1643 C 0.15824 0.18729 0.38836 0.0
C1644 C 0.14561 0.2254 0.38092 0.0
C1645 C 0.14924 0.19069 0.37148 0.0
C1646 C 0.12247 0.24583 0.36382 0.0
C1647 C 0.11996 0.27012 0.3954 0.0
N1648 N 0.14267 0.20934 0.36841 0.0
N1649 N 0.13214 0.25514 0.39484 0.0
H1650 H 0.68171 0.12506 0.33803 0.0
H1651 H 0.76884 0.17341 0.40401 0.0
H1652 H 0.67606 0.16268 0.38693 0.0
H1653 H 0.77395 0.12208 0.36603 0.0
H1654 H 0.73624 0.17575 0.39229 0.0
H1655 H 0.71677 0.13001 0.34268 0.0
C1656 C 0.68786 0.13479 0.34945 0.0
C1657 C 0.67602 0.14337 0.36221 0.0
C1658 C 0.74454 0.16412 0.38632 0.0
C1659 C 0.71586 0.14901 0.36759 0.0
C1660 C 0.76318 0.16276 0.39302 0.0
C1661 C 0.77415 0.14747 0.38606 0.0
C1662 C 0.73661 0.14996 0.37262 0.0
C1663 C 0.76611 0.13425 0.37168 0.0
C1664 C 0.70782 0.13745 0.35217 0.0
C1665 C 0.68467 0.15566 0.37687 0.0
N1666 N 0.7477 0.13564 0.36555 0.0
N1667 N 0.70402 0.158 0.3792 0.0
H1668 H 0.83372 0.7152 0.36703 0.0
H1669 H 0.89317 0.82448 0.39247 0.0
H1670 H 0.88624 0.72133 0.39978 0.0
H1671 H 0.83255 0.82 0.37889 0.0
H1672 H 0.89222 0.78673 0.39058 0.0
H1673 H 0.83416 0.75329 0.36716 0.0
C1674 C 0.84529 0.72458 0.3743 0.0
C1675 C 0.85986 0.71507 0.38357 0.0
C1676 C 0.87913 0.79397 0.38789 0.0
C1677 C 0.86072 0.75869 0.38344 0.0
C1678 C 0.87966 0.81564 0.38881 0.0
C1679 C 0.86291 0.8257 0.38583 0.0
C1680 C 0.86176 0.78196 0.3837 0.0
C1681 C 0.84586 0.81309 0.3813 0.0
C1682 C 0.84555 0.7463 0.37437 0.0
C1683 C 0.87462 0.72798 0.39263 0.0
N1684 N 0.84574 0.79197 0.38035 0.0
N1685 N 0.87473 0.74902 0.39225 0.0
H1686 H 0.23309 0.9036 0.43395 0.0
H1687 H 0.32015 0.90832 0.36652 0.0
H1688 H 0.22512 0.89364 0.37541 0.0
H1689 H 0.32716 0.90065 0.42475 0.0
H1690 H 0.28542 0.9046 0.36937 0.0
H1691 H 0.2677 0.90464 0.43077 0.0
C1692 C 0.23861 0.90166 0.42041 0.0
C1693 C 0.22616 0.89856 0.40491 0.0
C1694 C 0.29456 0.90359 0.38149 0.0
C1695 C 0.26584 0.89977 0.40118 0.0
C1696 C 0.31441 0.90572 0.37989 0.0
C1697 C 0.32665 0.90486 0.39543 0.0
C1698 C 0.28684 0.90085 0.3988 0.0
C1699 C 0.31832 0.90142 0.41239 0.0
C1700 C 0.25838 0.90215 0.41862 0.0
C1701 C 0.23417 0.89604 0.38773 0.0
N1702 N 0.29896 0.89972 0.41364 0.0
N1703 N 0.2535 0.89682 0.38631 0.0
H1704 H 0.16496 0.82353 0.65539 0.0
H1705 H 0.09338 0.73263 0.60991 0.0
H1706 H 0.12577 0.83158 0.60994 0.0
H1707 H 0.14438 0.72078 0.64122 0.0
H1708 H 0.10345 0.7696 0.61231 0.0
H1709 H 0.15653 0.78592 0.6525 0.0
C1710 C 0.15468 0.81729 0.64478 0.0
C1711 C 0.14578 0.83044 0.63306 0.0
C1712 C 0.11246 0.75889 0.61861 0.0
C1713 C 0.136 0.78804 0.62979 0.0
C1714 C 0.10667 0.73784 0.61733 0.0
C1715 C 0.11808 0.72372 0.62538 0.0
C1716 C 0.12967 0.76583 0.62816 0.0
C1717 C 0.13522 0.73122 0.63477 0.0
C1718 C 0.14986 0.79597 0.64315 0.0
C1719 C 0.13258 0.82186 0.61949 0.0
N1720 N 0.14048 0.75186 0.63598 0.0
N1721 N 0.12796 0.80117 0.61831 0.0
H1722 H 0.23294 0.11263 0.61774 0.0
H1723 H 0.32807 0.17547 0.66183 0.0
H1724 H 0.23184 0.16093 0.65962 0.0
H1725 H 0.32773 0.12679 0.62027 0.0
H1726 H 0.29289 0.17044 0.66173 0.0
H1727 H 0.2678 0.11752 0.61897 0.0
C1728 C 0.24003 0.12424 0.62724 0.0
C1729 C 0.22941 0.13643 0.63855 0.0
C1730 C 0.30052 0.16094 0.65256 0.0
C1731 C 0.26948 0.14218 0.64001 0.0
C1732 C 0.32053 0.16385 0.65261 0.0
C1733 C 0.33068 0.15181 0.64078 0.0
C1734 C 0.2907 0.14579 0.64067 0.0
C1735 C 0.32038 0.13675 0.62926 0.0
C1736 C 0.25997 0.12705 0.62793 0.0
C1737 C 0.23943 0.1512 0.65063 0.0
N1738 N 0.30098 0.1342 0.62947 0.0
N1739 N 0.25891 0.15371 0.65101 0.0
H1740 H 0.84553 0.18785 0.63788 0.0
H1741 H 0.87822 0.29367 0.59344 0.0
H1742 H 0.89747 0.19447 0.60796 0.0
H1743 H 0.86429 0.29537 0.65041 0.0
H1744 H 0.87776 0.25578 0.59421 0.0
H1745 H 0.84519 0.22593 0.63902 0.0
C1746 C 0.85695 0.19727 0.63173 0.0
C1747 C 0.87171 0.18786 0.62303 0.0
C1748 C 0.87462 0.26447 0.60648 0.0
C1749 C 0.87087 0.23131 0.62358 0.0
C1750 C 0.87471 0.28608 0.60602 0.0
C1751 C 0.87124 0.29781 0.62187 0.0
C1752 C 0.87045 0.25429 0.62273 0.0
C1753 C 0.86705 0.28699 0.63786 0.0
C1754 C 0.85671 0.21896 0.63236 0.0
C1755 C 0.88598 0.20094 0.61507 0.0
N1756 N 0.86659 0.26587 0.63785 0.0
N1757 N 0.88504 0.22186 0.61528 0.0
H1758 H 0.67289 0.83611 0.62683 0.0
H1759 H 0.77898 0.89184 0.63432 0.0
H1760 H 0.68771 0.89503 0.65492 0.0
H1761 H 0.76489 0.83032 0.6107 0.0
H1762 H 0.74631 0.89197 0.64462 0.0
H1763 H 0.70703 0.83222 0.62331 0.0
C1764 C 0.68343 0.84806 0.63246 0.0
C1765 C 0.67767 0.86592 0.64107 0.0
C1766 C 0.75044 0.8783 0.63744 0.0
C1767 C 0.71656 0.86184 0.63699 0.0
C1768 C 0.76921 0.87813 0.63171 0.0
C1769 C 0.77479 0.86092 0.62183 0.0
C1770 C 0.7371 0.86125 0.63304 0.0
C1771 C 0.76119 0.84394 0.61824 0.0
C1772 C 0.70287 0.8459 0.63046 0.0
C1773 C 0.69172 0.88102 0.64821 0.0
N1774 N 0.74296 0.84458 0.62374 0.0
N1775 N 0.71054 0.87875 0.64584 0.0
H1776 H 0.42493 0.13945 0.3104 0.0
H1777 H 0.42868 0.15171 0.21647 0.0
H1778 H 0.3727 0.10062 0.29758 0.0
H1779 H 0.39442 0.09302 0.21285 0.0
H1780 H 0.4242 0.15344 0.24944 0.0
H1781 H 0.43007 0.14262 0.27796 0.0
C1782 C 0.41417 0.13219 0.30073 0.0
C1783 C 0.39801 0.12033 0.30663 0.0
C1784 C 0.41787 0.14004 0.24151 0.0
C1785 C 0.40394 0.12362 0.26939 0.0
C1786 C 0.42035 0.13912 0.2227 0.0
C1787 C 0.4117 0.12234 0.21201 0.0
C1788 C 0.40692 0.12384 0.2496 0.0
C1789 C 0.40091 0.10648 0.22058 0.0
C1790 C 0.41716 0.13395 0.28214 0.0
C1791 C 0.3852 0.11014 0.29351 0.0
N1792 N 0.39877 0.10765 0.23892 0.0
N1793 N 0.38847 0.11197 0.27543 0.0
H1794 H 0.84357 0.35362 0.30367 0.0
H1795 H 0.91026 0.37697 0.21925 0.0
H1796 H 0.89811 0.39045 0.30648 0.0
H1797 H 0.85186 0.35001 0.2122 0.0
H1798 H 0.90774 0.37539 0.25225 0.0
H1799 H 0.84753 0.34707 0.27083 0.0
C1800 C 0.85631 0.36035 0.29739 0.0
C1801 C 0.87047 0.3727 0.30775 0.0
C1802 C 0.89549 0.36965 0.24353 0.0
C1803 C 0.8752 0.36499 0.27058 0.0
C1804 C 0.89695 0.3705 0.22472 0.0
C1805 C 0.88111 0.36398 0.21314 0.0
C1806 C 0.87796 0.36251 0.25081 0.0
C1807 C 0.86432 0.35533 0.22079 0.0
C1808 C 0.85859 0.35652 0.27873 0.0
C1809 C 0.88675 0.38094 0.29902 0.0
N1810 N 0.86304 0.35516 0.23929 0.0
N1811 N 0.88865 0.37693 0.28096 0.0
H1812 H 0.60996 0.90288 0.16389 0.0
H1813 H 0.59469 0.85168 0.26201 0.0
H1814 H 0.59099 0.83829 0.16879 0.0
H1815 H 0.61132 0.91632 0.25414 0.0
H1816 H 0.59323 0.84573 0.22855 0.0
H1817 H 0.61123 0.90716 0.19718 0.0
C1818 C 0.60618 0.88949 0.17193 0.0
C1819 C 0.60036 0.87016 0.16327 0.0
C1820 C 0.5971 0.86123 0.2342 0.0
C1821 C 0.60163 0.87507 0.20201 0.0
C1822 C 0.59774 0.86471 0.25341 0.0
C1823 C 0.60294 0.88465 0.26124 0.0
C1824 C 0.60175 0.87775 0.22261 0.0
C1825 C 0.60727 0.90065 0.24903 0.0
C1826 C 0.60684 0.89198 0.19107 0.0
C1827 C 0.59563 0.85349 0.17471 0.0
N1828 N 0.60658 0.89686 0.23057 0.0
N1829 N 0.5963 0.85633 0.19339 0.0
H1830 H 0.09015 0.6267 0.31911 0.0
H1831 H 0.15704 0.65942 0.23553 0.0
H1832 H 0.14393 0.66409 0.32606 0.0
H1833 H 0.10231 0.62379 0.22768 0.0
H1834 H 0.15247 0.66094 0.26852 0.0
H1835 H 0.09433 0.62503 0.28587 0.0
C1836 C 0.10295 0.63441 0.31366 0.0
C1837 C 0.11685 0.64531 0.3255 0.0
C1838 C 0.14142 0.65278 0.25964 0.0
C1839 C 0.12163 0.64374 0.28718 0.0
C1840 C 0.14402 0.65189 0.24068 0.0
C1841 C 0.13007 0.64142 0.22858 0.0
C1842 C 0.12472 0.64312 0.26685 0.0
C1843 C 0.11351 0.63202 0.23634 0.0
C1844 C 0.10527 0.63356 0.29462 0.0
C1845 C 0.13288 0.65543 0.31751 0.0
N1846 N 0.11133 0.63307 0.25488 0.0
N1847 N 0.13485 0.65435 0.29897 0.0
H1848 H 0.35658 0.84988 0.79895 0.0
H1849 H 0.40541 0.91471 0.71915 0.0
H1850 H 0.39212 0.90748 0.80768 0.0
H1851 H 0.37241 0.85569 0.70948 0.0
H1852 H 0.40063 0.91197 0.75181 0.0
H1853 H 0.36153 0.85176 0.76604 0.0
C1854 C 0.36531 0.86296 0.79394 0.0
C1855 C 0.37401 0.8785 0.80603 0.0
C1856 C 0.39447 0.89956 0.74257 0.0
C1857 C 0.37983 0.88066 0.76861 0.0
C1858 C 0.39724 0.9011 0.72392 0.0
C1859 C 0.38921 0.88544 0.71161 0.0
C1860 C 0.38354 0.88227 0.74896 0.0
C1861 C 0.37883 0.86812 0.71854 0.0
C1862 C 0.3682 0.86397 0.7752 0.0
C1863 C 0.38522 0.89509 0.79885 0.0
N1864 N 0.3762 0.86703 0.7368 0.0
N1865 N 0.38782 0.89569 0.78062 0.0
H1866 H 0.11775 0.41808 0.75763 0.0
H1867 H 0.09088 0.33927 0.67139 0.0
H1868 H 0.09528 0.35484 0.76448 0.0
H1869 H 0.11529 0.40232 0.6677 0.0
H1870 H 0.09225 0.34375 0.70503 0.0
H1871 H 0.11643 0.41182 0.72468 0.0
C1872 C 0.11241 0.40282 0.75228 0.0
C1873 C 0.10646 0.38708 0.76422 0.0
C1874 C 0.09739 0.35655 0.69684 0.0
C1875 C 0.10499 0.37967 0.72569 0.0
C1876 C 0.0967 0.35398 0.67757 0.0
C1877 C 0.103 0.37042 0.66646 0.0
C1878 C 0.1044 0.37572 0.7052 0.0
C1879 C 0.11026 0.38913 0.67547 0.0
C1880 C 0.11167 0.39925 0.73329 0.0
C1881 C 0.09966 0.36768 0.75608 0.0
N1882 N 0.11069 0.39123 0.69412 0.0
N1883 N 0.09915 0.36453 0.7374 0.0
H1884 H 0.63015 0.11973 0.72721 0.0
H1885 H 0.5944 0.17666 0.81706 0.0
H1886 H 0.60939 0.18027 0.72643 0.0
H1887 H 0.63523 0.13097 0.82025 0.0
H1888 H 0.59678 0.17596 0.78365 0.0
H1889 H 0.62886 0.12089 0.76086 0.0
C1890 C 0.62525 0.13323 0.73405 0.0
C1891 C 0.61993 0.14994 0.72382 0.0
C1892 C 0.6053 0.16614 0.79164 0.0
C1893 C 0.61822 0.15128 0.7625 0.0
C1894 C 0.60408 0.16666 0.8108 0.0
C1895 C 0.61477 0.154 0.82166 0.0
C1896 C 0.61702 0.15254 0.78303 0.0
C1897 C 0.62663 0.14093 0.81251 0.0
C1898 C 0.62461 0.13392 0.7533 0.0
C1899 C 0.61375 0.16703 0.73362 0.0
N1900 N 0.62732 0.14042 0.79382 0.0
N1901 N 0.61295 0.16719 0.75226 0.0
H1902 H 0.92469 0.66043 0.71231 0.0
H1903 H 0.90802 0.66993 0.80574 0.0
H1904 H 0.88717 0.60484 0.71847 0.0
H1905 H 0.85097 0.64316 0.78998 0.0
H1906 H 0.91678 0.66761 0.77411 0.0
H1907 H 0.91479 0.67371 0.74194 0.0
C1908 C 0.91447 0.65098 0.71994 0.0
C1909 C 0.90649 0.63164 0.71286 0.0
C1910 C 0.90214 0.66302 0.77747 0.0
C1911 C 0.89505 0.64676 0.74633 0.0
C1912 C 0.89698 0.66454 0.79562 0.0
C1913 C 0.87858 0.65695 0.8006 0.0
C1914 C 0.88895 0.6534 0.76436 0.0
C1915 C 0.86532 0.64912 0.78674 0.0
C1916 C 0.90878 0.65862 0.73672 0.0
C1917 C 0.89322 0.62007 0.72317 0.0
N1918 N 0.87091 0.64706 0.76927 0.0
N1919 N 0.88778 0.62791 0.73936 0.0
H1920 H 0.18764 0.39468 0.15742 0.0
H1921 H 0.26458 0.33023 0.10845 0.0
H1922 H 0.17344 0.33711 0.12695 0.0
H1923 H 0.27829 0.39032 0.13503 0.0
H1924 H 0.23198 0.33008 0.11907 0.0
H1925 H 0.22172 0.3908 0.1536 0.0
C1926 C 0.1918 0.38106 0.15017 0.0
C1927 C 0.17789 0.36624 0.14234 0.0
C1928 C 0.24218 0.34318 0.12282 0.0
C1929 C 0.21662 0.36179 0.13771 0.0
C1930 C 0.2608 0.34328 0.11675 0.0
C1931 C 0.27423 0.36024 0.12098 0.0
C1932 C 0.23686 0.36029 0.13303 0.0
C1933 C 0.26857 0.37672 0.13178 0.0
C1934 C 0.21119 0.37889 0.14791 0.0
C1935 C 0.18385 0.34893 0.133 0.0
N1936 N 0.25025 0.37641 0.13731 0.0
N1937 N 0.2028 0.34724 0.1308 0.0
H1938 H 0.25719 0.64472 0.92165 0.0
H1939 H 0.17537 0.63424 0.84292 0.0
H1940 H 0.27146 0.64191 0.86467 0.0
H1941 H 0.16815 0.65649 0.89832 0.0
H1942 H 0.2102 0.63597 0.8494 0.0
H1943 H 0.22397 0.64679 0.91247 0.0
C1944 C 0.25339 0.64441 0.90714 0.0
C1945 C 0.26733 0.64289 0.89397 0.0
C1946 C 0.20094 0.64075 0.85999 0.0
C1947 C 0.22881 0.64534 0.88325 0.0
C1948 C 0.1811 0.63991 0.85628 0.0
C1949 C 0.16877 0.64499 0.87017 0.0
C1950 C 0.20836 0.64658 0.87771 0.0
C1951 C 0.177 0.65212 0.88725 0.0
C1952 C 0.23431 0.64568 0.9019 0.0
C1953 C 0.26129 0.64249 0.87538 0.0
N1954 N 0.19615 0.65246 0.89056 0.0
N1955 N 0.24244 0.64365 0.87055 0.0
H1956 H 0.39614 0.32293 0.89146 0.0
H1957 H 0.33549 0.21495 0.86284 0.0
H1958 H 0.33605 0.31945 0.87582 0.0
H1959 H 0.38726 0.21929 0.89667 0.0
H1960 H 0.33703 0.2531 0.86306 0.0
H1961 H 0.39488 0.28512 0.88864 0.0
C1962 C 0.38273 0.31431 0.88713 0.0
C1963 C 0.36618 0.32463 0.88387 0.0
C1964 C 0.34805 0.24571 0.87045 0.0
C1965 C 0.36465 0.2809 0.88067 0.0
C1966 C 0.34717 0.22395 0.8703 0.0
C1967 C 0.36113 0.21391 0.87993 0.0
C1968 C 0.36325 0.25761 0.87997 0.0
C1969 C 0.37606 0.22635 0.88926 0.0
C1970 C 0.382 0.29262 0.88568 0.0
C1971 C 0.3492 0.31233 0.87849 0.0
N1972 N 0.37676 0.24744 0.88899 0.0
N1973 N 0.34888 0.29122 0.87705 0.0
H1974 H 0.73423 0.40938 0.93404 0.0
H1975 H 0.81982 0.38282 0.8721 0.0
H1976 H 0.72695 0.3644 0.88896 0.0
H1977 H 0.82928 0.40898 0.92701 0.0
H1978 H 0.78572 0.37652 0.87762 0.0
H1979 H 0.76897 0.41053 0.93125 0.0
C1980 C 0.73993 0.39971 0.92358 0.0
C1981 C 0.72765 0.38684 0.91164 0.0
C1982 C 0.79527 0.38341 0.88855 0.0
C1983 C 0.76739 0.38818 0.90835 0.0
C1984 C 0.81476 0.38704 0.88539 0.0
C1985 C 0.82742 0.39655 0.89907 0.0
C1986 C 0.78828 0.38971 0.90539 0.0
C1987 C 0.82004 0.40157 0.91609 0.0
C1988 C 0.75977 0.40029 0.92207 0.0
C1989 C 0.73586 0.37456 0.89843 0.0
N1990 N 0.8009 0.39837 0.91869 0.0
N1991 N 0.7552 0.37569 0.89702 0.0
H1992 H 0.57985 0.76261 0.85035 0.0
H1993 H 0.6518 0.69751 0.90678 0.0
H1994 H 0.59997 0.77636 0.90622 0.0
H1995 H 0.61823 0.6716 0.85969 0.0
H1996 H 0.63896 0.73082 0.90198 0.0
H1997 H 0.59805 0.73188 0.84998 0.0
C1998 C 0.58798 0.75902 0.86253 0.0
C1999 C 0.58877 0.77205 0.87824 0.0
C2000 C 0.63465 0.71795 0.89249 0.0
C2001 C 0.60975 0.73772 0.87778 0.0
C2002 C 0.64217 0.69912 0.89509 0.0
C2003 C 0.63582 0.68204 0.88368 0.0
C2004 C 0.62068 0.71947 0.87846 0.0
C2005 C 0.62325 0.68461 0.86879 0.0
C2006 C 0.59848 0.74174 0.86225 0.0
C2007 C 0.59946 0.76694 0.8937 0.0
N2008 N 0.61578 0.70299 0.86673 0.0
N2009 N 0.60965 0.75023 0.89304 0.0
H2010 H 0.82909 0.67208 0.14396 0.0
H2011 H 0.73166 0.60446 0.11198 0.0
H2012 H 0.8273 0.61253 0.11586 0.0
H2013 H 0.73344 0.66465 0.13926 0.0
H2014 H 0.76665 0.60746 0.11263 0.0
H2015 H 0.79401 0.67028 0.14137 0.0
C2016 C 0.82124 0.65878 0.137 0.0
C2017 C 0.83097 0.64254 0.12993 0.0
C2018 C 0.75939 0.62002 0.11846 0.0
C2019 C 0.79097 0.64012 0.12716 0.0
C2020 C 0.73939 0.6183 0.11814 0.0
C2021 C 0.72956 0.63432 0.1256 0.0
C2022 C 0.76969 0.63789 0.12632 0.0
C2023 C 0.74038 0.65189 0.13337 0.0
C2024 C 0.80127 0.65768 0.13559 0.0
C2025 C 0.82027 0.6255 0.12122 0.0
N2026 N 0.75983 0.6532 0.13353 0.0
N2027 N 0.80083 0.62468 0.12015 0.0
H2028 H 0.39956 0.69465 0.13582 0.0
H2029 H 0.34617 0.79454 0.1116 0.0
H2030 H 0.34016 0.69068 0.11758 0.0
H2031 H 0.39486 0.79807 0.14961 0.0
H2032 H 0.34475 0.75661 0.11185 0.0
H2033 H 0.39932 0.73246 0.13936 0.0
C2034 C 0.38642 0.70163 0.13273 0.0
C2035 C 0.36985 0.68923 0.12643 0.0
C2036 C 0.35564 0.76568 0.12028 0.0
C2037 C 0.36962 0.7328 0.13006 0.0
C2038 C 0.35645 0.78739 0.12016 0.0
C2039 C 0.37058 0.79971 0.13069 0.0
C2040 C 0.36933 0.75598 0.13067 0.0
C2041 C 0.38359 0.78935 0.14139 0.0
C2042 C 0.3863 0.72327 0.13474 0.0
C2043 C 0.35329 0.69939 0.12257 0.0
N2044 N 0.38279 0.76821 0.14093 0.0
N2045 N 0.35368 0.72045 0.12422 0.0
H2046 H 0.59525 0.23222 0.10435 0.0
H2047 H 0.66855 0.32286 0.14742 0.0
H2048 H 0.64629 0.2201 0.13544 0.0
H2049 H 0.62757 0.33089 0.10346 0.0
H2050 H 0.66045 0.28521 0.14441 0.0
H2051 H 0.60618 0.26894 0.10545 0.0
C2052 C 0.60875 0.23732 0.11143 0.0
C2053 C 0.61987 0.2232 0.11988 0.0
C2054 C 0.65335 0.29525 0.13537 0.0
C2055 C 0.63247 0.26509 0.12117 0.0
C2056 C 0.65798 0.31661 0.13707 0.0
C2057 C 0.64841 0.32976 0.12588 0.0
C2058 C 0.63902 0.28729 0.12247 0.0
C2059 C 0.63488 0.32116 0.11263 0.0
C2060 C 0.61505 0.25825 0.11197 0.0
C2061 C 0.63732 0.23056 0.12875 0.0
N2062 N 0.63045 0.30044 0.11139 0.0
N2063 N 0.64307 0.25111 0.12928 0.0
H2064 H 0.84495 0.68778 0.61695 0.0
H2065 H 0.89982 0.79924 0.64499 0.0
H2066 H 0.9028 0.69506 0.63952 0.0
H2067 H 0.85039 0.79125 0.60791 0.0
H2068 H 0.89978 0.76138 0.6459 0.0
H2069 H 0.84514 0.72564 0.61628 0.0
C2070 C 0.85767 0.69731 0.62186 0.0
C2071 C 0.87378 0.68804 0.62852 0.0
C2072 C 0.88888 0.76791 0.63763 0.0
C2073 C 0.87407 0.73173 0.62796 0.0
C2074 C 0.88893 0.78959 0.63706 0.0
C2075 C 0.87497 0.79869 0.62651 0.0
C2076 C 0.87466 0.75501 0.6277 0.0
C2077 C 0.86116 0.78517 0.61664 0.0
C2078 C 0.85777 0.71898 0.62148 0.0
C2079 C 0.88985 0.70136 0.63469 0.0
N2080 N 0.86131 0.76418 0.61754 0.0
N2081 N 0.88955 0.72239 0.63434 0.0
H2082 H 0.33692 0.89022 0.66966 0.0
H2083 H 0.236 0.89325 0.61634 0.0
H2084 H 0.3296 0.88819 0.61069 0.0
H2085 H 0.24327 0.89718 0.67529 0.0
H2086 H 0.26969 0.88749 0.61417 0.0
H2087 H 0.30224 0.88844 0.67204 0.0
C2088 C 0.32803 0.88915 0.65718 0.0
C2089 C 0.33624 0.88964 0.63992 0.0
C2090 C 0.26393 0.88949 0.62759 0.0
C2091 C 0.29644 0.88776 0.64261 0.0
C2092 C 0.24467 0.89285 0.62887 0.0
C2093 C 0.23683 0.89596 0.64605 0.0
C2094 C 0.27553 0.88931 0.64361 0.0
C2095 C 0.24873 0.89501 0.66177 0.0
C2096 C 0.3082 0.88818 0.65858 0.0
C2097 C 0.32394 0.88802 0.62428 0.0
N2098 N 0.26754 0.89193 0.66016 0.0
N2099 N 0.30468 0.88738 0.62601 0.0
H2100 H 0.16398 0.18639 0.61286 0.0
H2101 H 0.07759 0.25348 0.63603 0.0
H2102 H 0.11886 0.16784 0.64905 0.0
H2103 H 0.1221 0.27276 0.59937 0.0
H2104 H 0.09503 0.22394 0.64406 0.0
H2105 H 0.15234 0.22091 0.61193 0.0
C2106 C 0.15198 0.18982 0.62102 0.0
C2107 C 0.14206 0.17432 0.63074 0.0
C2108 C 0.1011 0.23472 0.63438 0.0
C2109 C 0.12849 0.21321 0.62948 0.0
C2110 C 0.09105 0.25143 0.62968 0.0
C2111 C 0.09853 0.26554 0.61714 0.0
C2112 C 0.11861 0.23197 0.62625 0.0
C2113 C 0.11606 0.26238 0.60937 0.0
C2114 C 0.14522 0.20939 0.62035 0.0
C2115 C 0.12657 0.17935 0.64105 0.0
N2116 N 0.1255 0.24583 0.61398 0.0
N2117 N 0.12007 0.1983 0.63994 0.0
H2118 H 0.68463 0.13359 0.66712 0.0
H2119 H 0.76424 0.14318 0.5919 0.0
H2120 H 0.67651 0.15873 0.61377 0.0
H2121 H 0.7747 0.11964 0.64546 0.0
H2122 H 0.73329 0.15298 0.60148 0.0
H2123 H 0.71889 0.13312 0.66164 0.0
C2124 C 0.69011 0.1395 0.65445 0.0
C2125 C 0.67764 0.1459 0.64075 0.0
C2126 C 0.7424 0.14591 0.61128 0.0
C2127 C 0.71668 0.1451 0.6343 0.0
C2128 C 0.76006 0.14024 0.60577 0.0
C2129 C 0.77208 0.13068 0.61793 0.0
C2130 C 0.73646 0.14166 0.62903 0.0
C2131 C 0.76601 0.12733 0.63577 0.0
C2132 C 0.70965 0.13906 0.65128 0.0
C2133 C 0.68553 0.15331 0.62458 0.0
N2134 N 0.7485 0.1326 0.64074 0.0
N2135 N 0.70445 0.15245 0.62173 0.0
H2136 H 0.86224 0.32106 0.35768 0.0
H2137 H 0.89293 0.22201 0.41136 0.0
H2138 H 0.88461 0.32516 0.41351 0.0
H2139 H 0.85835 0.21687 0.36132 0.0
H2140 H 0.89213 0.25987 0.41145 0.0
H2141 H 0.86215 0.28329 0.35804 0.0
C2142 C 0.86696 0.31407 0.37011 0.0
C2143 C 0.87335 0.32657 0.38563 0.0
C2144 C 0.88475 0.2505 0.4004 0.0
C2145 C 0.87368 0.28287 0.38597 0.0
C2146 C 0.88535 0.22886 0.40027 0.0
C2147 C 0.87579 0.21617 0.38625 0.0
C2148 C 0.87466 0.25973 0.3863 0.0
C2149 C 0.86596 0.226 0.37238 0.0
C2150 C 0.86696 0.2924 0.37027 0.0
C2151 C 0.87941 0.31634 0.40124 0.0
N2152 N 0.8657 0.24706 0.37273 0.0
N2153 N 0.87957 0.29526 0.40096 0.0
H2154 H 0.66991 0.89755 0.35294 0.0
H2155 H 0.76565 0.84881 0.38561 0.0
H2156 H 0.66865 0.83641 0.37439 0.0
H2157 H 0.759 0.91425 0.38738 0.0
H2158 H 0.73199 0.84208 0.37464 0.0
H2159 H 0.70471 0.90178 0.35828 0.0
C2160 C 0.67709 0.88487 0.35845 0.0
C2161 C 0.66657 0.86659 0.36319 0.0
C2162 C 0.73802 0.85789 0.37727 0.0
C2163 C 0.70621 0.87135 0.3695 0.0
C2164 C 0.75719 0.86174 0.38336 0.0
C2165 C 0.76503 0.88212 0.38729 0.0
C2166 C 0.72685 0.87458 0.37483 0.0
C2167 C 0.75344 0.89832 0.38452 0.0
C2168 C 0.69687 0.88734 0.36162 0.0
C2169 C 0.6764 0.8507 0.37054 0.0
N2170 N 0.73496 0.89422 0.37841 0.0
N2171 N 0.69575 0.85344 0.37353 0.0
H2172 H 0.157 0.73184 0.40405 0.0
H2173 H 0.11037 0.83874 0.41085 0.0
H2174 H 0.09916 0.7403 0.38552 0.0
H2175 H 0.17139 0.83504 0.41775 0.0
H2176 H 0.10642 0.80233 0.40173 0.0
H2177 H 0.16326 0.76941 0.40867 0.0
C2178 C 0.14571 0.7416 0.40075 0.0
C2179 C 0.12744 0.73296 0.39467 0.0
C2180 C 0.12071 0.80945 0.40515 0.0
C2181 C 0.13444 0.77569 0.40003 0.0
C2182 C 0.12297 0.83026 0.41049 0.0
C2183 C 0.14124 0.83993 0.41519 0.0
C2184 C 0.13679 0.79808 0.40465 0.0
C2185 C 0.15704 0.82815 0.41429 0.0
C2186 C 0.14928 0.763 0.4034 0.0
C2187 C 0.11337 0.74628 0.39048 0.0
N2188 N 0.15444 0.80772 0.40923 0.0
N2189 N 0.11711 0.76696 0.39343 0.0
H2190 H 0.23973 0.1162 0.42857 0.0
H2191 H 0.32901 0.17051 0.3782 0.0
H2192 H 0.23607 0.1338 0.37221 0.0
H2193 H 0.33538 0.12934 0.42265 0.0
H2194 H 0.29407 0.1627 0.37856 0.0
H2195 H 0.27425 0.12619 0.42927 0.0
C2196 C 0.2462 0.12215 0.41634 0.0
C2197 C 0.23505 0.12405 0.40026 0.0
C2198 C 0.30314 0.15556 0.38834 0.0
C2199 C 0.27442 0.13582 0.4011 0.0
C2200 C 0.32298 0.16008 0.3882 0.0
C2201 C 0.33497 0.15069 0.40052 0.0
C2202 C 0.29529 0.14173 0.40105 0.0
C2203 C 0.32657 0.13719 0.41316 0.0
C2204 C 0.26587 0.12783 0.41676 0.0
C2205 C 0.24417 0.1319 0.38483 0.0
N2206 N 0.30723 0.13313 0.41313 0.0
N2207 N 0.26332 0.13761 0.38565 0.0
H2208 H 0.57883 0.86872 0.81669 0.0
H2209 H 0.63406 0.88957 0.72319 0.0
H2210 H 0.63993 0.88297 0.81623 0.0
H2211 H 0.57264 0.88139 0.72684 0.0
H2212 H 0.63719 0.88604 0.75664 0.0
H2213 H 0.57691 0.87207 0.78346 0.0
C2214 C 0.59189 0.87244 0.80955 0.0
C2215 C 0.60958 0.87536 0.8193 0.0
C2216 C 0.62305 0.88503 0.75008 0.0
C2217 C 0.60753 0.87946 0.7809 0.0
C2218 C 0.62124 0.88701 0.73094 0.0
C2219 C 0.60304 0.88582 0.72201 0.0
C2220 C 0.60654 0.88171 0.76044 0.0
C2221 C 0.58699 0.88248 0.73294 0.0
C2222 C 0.5908 0.87445 0.79052 0.0
C2223 C 0.62599 0.88052 0.80927 0.0
N2224 N 0.58913 0.88053 0.75139 0.0
N2225 N 0.6246 0.88234 0.79066 0.0
H2226 H 0.11027 0.66139 0.76934 0.0
H2227 H 0.11348 0.60603 0.66912 0.0
H2228 H 0.10862 0.59545 0.75909 0.0
H2229 H 0.10435 0.67057 0.67661 0.0
H2230 H 0.1157 0.60317 0.70236 0.0
H2231 H 0.112 0.66628 0.73609 0.0
C2232 C 0.11063 0.64797 0.76024 0.0
C2233 C 0.10941 0.62795 0.76724 0.0
C2234 C 0.11331 0.61803 0.6968 0.0
C2235 C 0.11118 0.63345 0.72895 0.0
C2236 C 0.11211 0.61971 0.67769 0.0
C2237 C 0.10864 0.63858 0.6698 0.0
C2238 C 0.11113 0.63533 0.70841 0.0
C2239 C 0.10699 0.65567 0.68191 0.0
C2240 C 0.11143 0.65076 0.74117 0.0
C2241 C 0.10948 0.61119 0.7545 0.0
N2242 N 0.10819 0.65364 0.70051 0.0
N2243 N 0.11035 0.61431 0.73618 0.0
H2244 H 0.41341 0.13051 0.71917 0.0
H2245 H 0.34295 0.15622 0.79803 0.0
H2246 H 0.3771 0.18063 0.71529 0.0
H2247 H 0.39346 0.12372 0.8064 0.0
H2248 H 0.3523 0.16248 0.76639 0.0
H2249 H 0.40374 0.12541 0.75045 0.0
C2250 C 0.40353 0.14059 0.72503 0.0
C2251 C 0.39606 0.15603 0.71477 0.0
C2252 C 0.36124 0.15397 0.77523 0.0
C2253 C 0.38466 0.15007 0.75037 0.0
C2254 C 0.35583 0.15022 0.79312 0.0
C2255 C 0.36749 0.13947 0.80471 0.0
C2256 C 0.3782 0.1466 0.76904 0.0
C2257 C 0.38413 0.13217 0.79788 0.0
C2258 C 0.39799 0.13766 0.74285 0.0
C2259 C 0.3833 0.16867 0.72292 0.0
N2260 N 0.38897 0.13585 0.78048 0.0
N2261 N 0.37781 0.16529 0.74029 0.0
H2262 H 0.89758 0.34012 0.72726 0.0
H2263 H 0.83615 0.41279 0.78447 0.0
H2264 H 0.8589 0.38121 0.70405 0.0
H2265 H 0.87546 0.37257 0.80792 0.0
H2266 H 0.83715 0.39387 0.75507 0.0
H2267 H 0.88308 0.34456 0.75693 0.0
C2268 C 0.88581 0.34976 0.72839 0.0
C2269 C 0.87936 0.36028 0.71331 0.0
C2270 C 0.84511 0.38877 0.76679 0.0
C2271 C 0.86293 0.36566 0.74693 0.0
C2272 C 0.84449 0.39955 0.7835 0.0
C2273 C 0.85561 0.39406 0.79849 0.0
C2274 C 0.85742 0.37291 0.76511 0.0
C2275 C 0.86636 0.37697 0.79671 0.0
C2276 C 0.87745 0.3522 0.74522 0.0
C2277 C 0.86404 0.37251 0.71527 0.0
N2278 N 0.86726 0.36719 0.78019 0.0
N2279 N 0.85651 0.3751 0.73188 0.0
H2280 H 0.60607 0.17048 0.17285 0.0
H2281 H 0.60805 0.09165 0.25525 0.0
H2282 H 0.60822 0.10454 0.16542 0.0
H2283 H 0.61441 0.15781 0.26501 0.0
H2284 H 0.60846 0.09675 0.22241 0.0
H2285 H 0.60957 0.16691 0.20618 0.0
C2286 C 0.60744 0.15527 0.17813 0.0
C2287 C 0.6068 0.13779 0.16607 0.0
C2288 C 0.60994 0.11023 0.23164 0.0
C2289 C 0.61064 0.13358 0.20454 0.0
C2290 C 0.60969 0.10734 0.25053 0.0
C2291 C 0.61132 0.12429 0.26318 0.0
C2292 C 0.61154 0.13033 0.22492 0.0
C2293 C 0.61342 0.14421 0.25596 0.0
C2294 C 0.60942 0.15326 0.19724 0.0
C2295 C 0.60861 0.11852 0.17397 0.0
N2296 N 0.6133 0.14667 0.23737 0.0
N2297 N 0.61031 0.11697 0.19254 0.0
H2298 H 0.86364 0.62436 0.21193 0.0
H2299 H 0.89033 0.66804 0.31179 0.0
H2300 H 0.90129 0.67992 0.22348 0.0
H2301 H 0.84285 0.62218 0.29918 0.0
H2302 H 0.89222 0.67505 0.2794 0.0
H2303 H 0.85329 0.62564 0.24333 0.0
C2304 C 0.86962 0.63694 0.22108 0.0
C2305 C 0.88367 0.65181 0.21532 0.0
C2306 C 0.88121 0.66364 0.28369 0.0
C2307 C 0.87197 0.65329 0.25123 0.0
C2308 C 0.88022 0.65951 0.30217 0.0
C2309 C 0.86668 0.64416 0.30804 0.0
C2310 C 0.8688 0.65208 0.27099 0.0
C2311 C 0.85366 0.63393 0.29512 0.0
C2312 C 0.86361 0.63773 0.23897 0.0
C2313 C 0.89062 0.66802 0.22753 0.0
N2314 N 0.85525 0.63783 0.27709 0.0
N2315 N 0.88494 0.66812 0.24508 0.0
H2316 H 0.37215 0.95501 0.28832 0.0
H2317 H 0.37665 0.90576 0.20231 0.0
H2318 H 0.38493 0.89601 0.30884 0.0
H2319 H 0.41644 0.8697 0.23058 0.0
H2320 H 0.36722 0.91967 0.2317 0.0
H2321 H 0.3761 0.94157 0.25706 0.0
C2322 C 0.37525 0.93907 0.28614 0.0
C2323 C 0.37769 0.92639 0.301 0.0
C2324 C 0.37808 0.90882 0.23147 0.0
C2325 C 0.38243 0.91104 0.26569 0.0
C2326 C 0.38323 0.9006 0.21475 0.0
C2327 C 0.3971 0.88633 0.21417 0.0
C2328 C 0.38697 0.90273 0.24763 0.0
C2329 C 0.40565 0.88064 0.23058 0.0
C2330 C 0.37742 0.93139 0.26838 0.0
C2331 C 0.38229 0.90606 0.29769 0.0
N2332 N 0.40032 0.88877 0.24673 0.0
N2333 N 0.3847 0.89907 0.28036 0.0
H2334 H 0.08352 0.36577 0.31982 0.0
H2335 H 0.1351 0.38992 0.22507 0.0
H2336 H 0.14343 0.38655 0.31817 0.0
H2337 H 0.07414 0.37694 0.22993 0.0
H2338 H 0.13924 0.38735 0.25852 0.0
H2339 H 0.08055 0.36835 0.28655 0.0
C2340 C 0.09611 0.37079 0.3124 0.0
C2341 C 0.11379 0.37575 0.3218 0.0
C2342 C 0.12498 0.38507 0.25223 0.0
C2343 C 0.11052 0.37893 0.2834 0.0
C2344 C 0.1226 0.38649 0.23309 0.0
C2345 C 0.10422 0.38368 0.22451 0.0
C2346 C 0.10889 0.38066 0.26293 0.0
C2347 C 0.0886 0.37929 0.23577 0.0
C2348 C 0.09441 0.37235 0.29336 0.0
C2349 C 0.12955 0.38249 0.31146 0.0
N2350 N 0.0913 0.3779 0.25422 0.0
N2351 N 0.12758 0.38381 0.29284 0.0
H2352 H 0.74092 0.59893 0.92608 0.0
H2353 H 0.81608 0.69164 0.89717 0.0
H2354 H 0.72392 0.65255 0.89844 0.0
H2355 H 0.83194 0.63439 0.91889 0.0
H2356 H 0.78212 0.67925 0.89975 0.0
H2357 H 0.77423 0.61317 0.92562 0.0
C2358 C 0.74417 0.61372 0.9199 0.0
C2359 C 0.72955 0.6245 0.91223 0.0
C2360 C 0.79304 0.66949 0.90413 0.0
C2361 C 0.76785 0.64102 0.91172 0.0
C2362 C 0.81236 0.67661 0.90273 0.0
C2363 C 0.82674 0.6641 0.90802 0.0
C2364 C 0.78815 0.64972 0.91085 0.0
C2365 C 0.82127 0.64465 0.91496 0.0
C2366 C 0.76325 0.62186 0.91965 0.0
C2367 C 0.73471 0.64364 0.90445 0.0
N2368 N 0.80245 0.63806 0.91614 0.0
N2369 N 0.75344 0.65129 0.90439 0.0
H2370 H 0.83187 0.386 0.10817 0.0
H2371 H 0.7403 0.38927 0.17028 0.0
H2372 H 0.83342 0.37804 0.16662 0.0
H2373 H 0.73908 0.39912 0.11213 0.0
H2374 H 0.77383 0.38202 0.16874 0.0
H2375 H 0.79715 0.38709 0.10878 0.0
C2376 C 0.82491 0.38417 0.12108 0.0
C2377 C 0.83565 0.38215 0.13739 0.0
C2378 C 0.7662 0.38569 0.1563 0.0
C2379 C 0.79592 0.38364 0.13822 0.0
C2380 C 0.74706 0.38988 0.15719 0.0
C2381 C 0.73689 0.39499 0.14135 0.0
C2382 C 0.77526 0.38662 0.13946 0.0
C2383 C 0.74638 0.39541 0.12473 0.0
C2384 C 0.80508 0.38491 0.12144 0.0
C2385 C 0.82579 0.37983 0.15372 0.0
N2386 N 0.76503 0.39137 0.12424 0.0
N2387 N 0.80654 0.38083 0.15373 0.0
H2388 H 0.62624 0.77374 0.10039 0.0
H2389 H 0.61833 0.66243 0.14316 0.0
H2390 H 0.57877 0.74876 0.13122 0.0
H2391 H 0.66303 0.6833 0.10734 0.0
H2392 H 0.60787 0.69719 0.14459 0.0
H2393 H 0.64338 0.7437 0.1076 0.0
C2394 C 0.61959 0.76211 0.10898 0.0
C2395 C 0.60118 0.76373 0.11542 0.0
C2396 C 0.62014 0.69432 0.13661 0.0
C2397 C 0.62049 0.72928 0.12342 0.0
C2398 C 0.62611 0.67451 0.13582 0.0
C2399 C 0.64123 0.67007 0.12479 0.0
C2400 C 0.6292 0.70968 0.12604 0.0
C2401 C 0.6512 0.68623 0.11588 0.0
C2402 C 0.62933 0.74493 0.11299 0.0
C2403 C 0.59292 0.74795 0.12595 0.0
N2404 N 0.64474 0.70536 0.11639 0.0
N2405 N 0.60263 0.73132 0.12959 0.0
H2406 H 0.17085 0.64848 0.11135 0.0
H2407 H 0.27509 0.62285 0.14662 0.0
H2408 H 0.18383 0.63353 0.16728 0.0
H2409 H 0.25936 0.63407 0.09048 0.0
H2410 H 0.24316 0.63089 0.15558 0.0
H2411 H 0.20457 0.64809 0.10479 0.0
C2412 C 0.18083 0.64538 0.12235 0.0
C2413 C 0.1744 0.64079 0.13985 0.0
C2414 C 0.2468 0.63182 0.14133 0.0
C2415 C 0.21323 0.64001 0.13231 0.0
C2416 C 0.26511 0.6274 0.13623 0.0
C2417 C 0.27001 0.62798 0.11778 0.0
C2418 C 0.23333 0.63684 0.12788 0.0
C2419 C 0.2562 0.63332 0.10485 0.0
C2420 C 0.20014 0.64509 0.11856 0.0
C2421 C 0.18812 0.6371 0.15357 0.0
N2422 N 0.23855 0.6375 0.11013 0.0
N2423 N 0.20686 0.63652 0.14945 0.0
H2424 H 0.39129 0.29725 0.10289 0.0
H2425 H 0.35788 0.1934 0.15548 0.0
H2426 H 0.35864 0.29763 0.15166 0.0
H2427 H 0.38435 0.19312 0.10324 0.0
H2428 H 0.35932 0.23146 0.15528 0.0
H2429 H 0.39045 0.25937 0.10376 0.0
C2430 C 0.38409 0.28937 0.1139 0.0
C2431 C 0.37509 0.30072 0.12727 0.0
C2432 C 0.36478 0.2231 0.14382 0.0
C2433 C 0.37389 0.25704 0.1283 0.0
C2434 C 0.36397 0.20135 0.14396 0.0
C2435 C 0.37087 0.18996 0.1293 0.0
C2436 C 0.37272 0.23374 0.12898 0.0
C2437 C 0.37864 0.20117 0.11473 0.0
C2438 C 0.3835 0.26768 0.11434 0.0
C2439 C 0.36575 0.28955 0.14106 0.0
N2440 N 0.37939 0.22229 0.11496 0.0
N2441 N 0.36541 0.26844 0.14123 0.0
H2442 H 0.27038 0.38812 0.86453 0.0
H2443 H 0.16454 0.34271 0.88876 0.0
H2444 H 0.25658 0.35998 0.91559 0.0
H2445 H 0.17558 0.38972 0.84919 0.0
H2446 H 0.19918 0.34217 0.89438 0.0
H2447 H 0.23651 0.38209 0.85441 0.0
C2448 C 0.26032 0.38025 0.87342 0.0
C2449 C 0.26627 0.37443 0.89088 0.0
C2450 C 0.19401 0.3524 0.88428 0.0
C2451 C 0.22762 0.36765 0.8795 0.0
C2452 C 0.17428 0.35267 0.88106 0.0
C2453 C 0.1672 0.36633 0.86857 0.0
C2454 C 0.20676 0.36573 0.87479 0.0
C2455 C 0.18041 0.3788 0.85881 0.0
C2456 C 0.24099 0.37699 0.86772 0.0
C2457 C 0.25254 0.36476 0.90205 0.0
N2458 N 0.19956 0.3783 0.86221 0.0
N2459 N 0.23388 0.36167 0.89618 0.0
H2460 H 0.59017 0.24271 0.89159 0.0
H2461 H 0.66683 0.33675 0.9226 0.0
H2462 H 0.64884 0.23559 0.9082 0.0
H2463 H 0.60666 0.34373 0.91294 0.0
H2464 H 0.66057 0.29978 0.91608 0.0
H2465 H 0.59616 0.28001 0.89763 0.0
C2466 C 0.60434 0.24901 0.89641 0.0
C2467 C 0.61903 0.23606 0.89946 0.0
C2468 C 0.64871 0.30936 0.91543 0.0
C2469 C 0.62592 0.27859 0.90645 0.0
C2470 C 0.65226 0.3305 0.91917 0.0
C2471 C 0.63722 0.34337 0.9183 0.0
C2472 C 0.63001 0.30096 0.91071 0.0
C2473 C 0.61865 0.33437 0.91381 0.0
C2474 C 0.60772 0.27027 0.89992 0.0
C2475 C 0.6371 0.24501 0.90571 0.0
N2476 N 0.61557 0.31367 0.91011 0.0
N2477 N 0.64002 0.26574 0.90903 0.0
H2478 H 0.38693 0.71693 0.85979 0.0
H2479 H 0.36507 0.82285 0.912 0.0
H2480 H 0.35579 0.71814 0.90946 0.0
H2481 H 0.3796 0.82013 0.85519 0.0
H2482 H 0.36387 0.78494 0.91233 0.0
H2483 H 0.38713 0.75491 0.85895 0.0
C2484 C 0.3802 0.72519 0.87055 0.0
C2485 C 0.37127 0.71426 0.88467 0.0
C2486 C 0.36721 0.79262 0.89975 0.0
C2487 C 0.37152 0.75791 0.8839 0.0
C2488 C 0.36786 0.81435 0.89953 0.0
C2489 C 0.37233 0.82494 0.88351 0.0
C2490 C 0.3714 0.78116 0.88393 0.0
C2491 C 0.37594 0.81281 0.86786 0.0
C2492 C 0.38023 0.74688 0.87003 0.0
C2493 C 0.36273 0.72586 0.89824 0.0
N2494 N 0.37555 0.79173 0.86851 0.0
N2495 N 0.36314 0.74692 0.89757 0.0
H2496 H 0.11817 0.06132 0.3783 0.0
H2497 H 0.17047 0.95885 0.36592 0.0
H2498 H 0.17972 0.06069 0.38155 0.0
H2499 H 0.119 0.9674 0.39494 0.0
H2500 H 0.17063 0.99479 0.35599 0.0
H2501 H 0.11553 0.02558 0.3665 0.0
C2502 C 0.13116 0.05388 0.37613 0.0
C2503 C 0.14914 0.06362 0.38178 0.0
C2504 C 0.15894 0.98827 0.36391 0.0
C2505 C 0.14614 0.02292 0.36826 0.0
C2506 C 0.15896 0.96795 0.36978 0.0
C2507 C 0.14481 0.96005 0.38146 0.0
C2508 C 0.14433 1.0003 0.36932 0.0
C2509 C 0.12997 0.97234 0.38564 0.0
C2510 C 0.12963 0.03354 0.36926 0.0
C2511 C 0.16551 0.05343 0.37805 0.0
N2512 N 0.1302 0.99182 0.37967 0.0
N2513 N 0.16361 0.03333 0.37199 0.0
H2514 H 0.95536 0.14799 0.41882 0.0
H2515 H 0.05581 0.12068 0.38078 0.0
H2516 H 0.9595 0.11812 0.36565 0.0
H2517 H 0.04504 0.12978 0.43817 0.0
H2518 H 0.02174 0.12301 0.37357 0.0
H2519 H 0.98959 0.1459 0.42447 0.0
C2520 C 0.96348 0.14113 0.40825 0.0
C2521 C 0.95446 0.13312 0.39176 0.0
C2522 C 0.0269 0.12431 0.38773 0.0
C2523 C 0.99383 0.13062 0.39821 0.0
C2524 C 0.04637 0.1227 0.39192 0.0
C2525 C 0.05344 0.12458 0.41021 0.0
C2526 C 0.01449 0.12824 0.40187 0.0
C2527 C 0.04039 0.12819 0.42387 0.0
C2528 C 0.98304 0.13984 0.41153 0.0
C2529 C 0.96582 0.12442 0.37859 0.0
N2530 N 0.02168 0.12996 0.41943 0.0
N2531 N 0.98492 0.12338 0.38209 0.0
H2532 H 0.83796 0.07076 0.39045 0.0
H2533 H 0.891 0.96886 0.36689 0.0
H2534 H 0.8977 0.07415 0.37772 0.0
H2535 H 0.84142 0.96858 0.40011 0.0
H2536 H 0.89179 1.0068 0.36591 0.0
H2537 H 0.8368 0.03292 0.38852 0.0
C2538 C 0.85079 0.06364 0.38693 0.0
C2539 C 0.86797 0.07594 0.38424 0.0
C2540 C 0.88066 0.99838 0.37329 0.0
C2541 C 0.86668 0.03212 0.38205 0.0
C2542 C 0.88022 0.97667 0.37393 0.0
C2543 C 0.86604 0.9652 0.38351 0.0
C2544 C 0.86662 1.00889 0.38205 0.0
C2545 C 0.85235 0.97642 0.39214 0.0
C2546 C 0.85013 0.04192 0.38599 0.0
C2547 C 0.88411 0.06548 0.3799 0.0
N2548 N 0.85295 0.99745 0.39114 0.0
N2549 N 0.88307 0.0443 0.37893 0.0
H2550 H 0.95133 0.85013 0.41274 0.0
H2551 H 0.04242 0.93345 0.41493 0.0
H2552 H 0.94846 0.91392 0.39871 0.0
H2553 H 0.04631 0.86843 0.42317 0.0
H2554 H 0.00811 0.92633 0.40802 0.0
H2555 H 0.98619 0.85616 0.41551 0.0
C2556 C 0.95803 0.86539 0.41014 0.0
C2557 C 0.94693 0.88158 0.40559 0.0
C2558 C 0.01648 0.91356 0.41112 0.0
C2559 C 0.98689 0.88861 0.40884 0.0
C2560 C 0.03606 0.91762 0.41511 0.0
C2561 C 0.04728 0.90147 0.41941 0.0
C2562 C 0.00793 0.8932 0.41171 0.0
C2563 C 0.03831 0.88128 0.4195 0.0
C2564 C 0.97796 0.86881 0.41171 0.0
C2565 C 0.95642 0.90099 0.40229 0.0
N2566 N 0.01913 0.87773 0.41582 0.0
N2567 N 0.97584 0.904 0.40411 0.0
H2568 H 0.19018 0.96553 0.66379 0.0
H2569 H 0.1237 0.04278 0.6562 0.0
H2570 H 0.1311 0.95039 0.67658 0.0
H2571 H 0.17858 0.06402 0.68201 0.0
H2572 H 0.12582 1.00955 0.66892 0.0
H2573 H 0.18822 1.0006 0.67632 0.0
C2574 C 0.17701 0.96932 0.66988 0.0
C2575 C 0.16046 0.95544 0.66832 0.0
C2576 C 0.13724 0.02157 0.67232 0.0
C2577 C 0.15817 0.99533 0.6825 0.0
C2578 C 0.13595 0.04088 0.66512 0.0
C2579 C 0.15107 0.05646 0.6678 0.0
C2580 C 0.15427 0.0172 0.68136 0.0
C2581 C 0.1669 0.05225 0.67895 0.0
C2582 C 0.17594 0.98934 0.67713 0.0
C2583 C 0.14394 0.96099 0.67677 0.0
N2584 N 0.16848 0.03272 0.68475 0.0
N2585 N 0.14302 0.98074 0.68302 0.0
H2586 H 0.95518 0.13634 0.5989 0.0
H2587 H 0.04048 0.08079 0.6427 0.0
H2588 H 0.95352 0.11647 0.65461 0.0
H2589 H 0.05053 0.12992 0.60498 0.0
H2590 H 0.00717 0.08945 0.645 0.0
H2591 H 0.98909 0.13004 0.59847 0.0
C2592 C 0.96199 0.13071 0.61105 0.0
C2593 C 0.9516 0.12696 0.62683 0.0
C2594 C 0.01675 0.09841 0.63635 0.0
C2595 C 0.99015 0.11937 0.6263 0.0
C2596 C 0.03563 0.09344 0.63499 0.0
C2597 C 0.04816 0.10485 0.62381 0.0
C2598 C 0.01031 0.11447 0.62602 0.0
C2599 C 0.04129 0.12099 0.61394 0.0
C2600 C 0.98131 0.1272 0.61082 0.0
C2601 C 0.96109 0.1197 0.64223 0.0
N2602 N 0.02274 0.12521 0.61513 0.0
N2603 N 0.97982 0.11588 0.64152 0.0
H2604 H 0.90152 0.94514 0.61681 0.0
H2605 H 0.84726 0.0439 0.64598 0.0
H2606 H 0.84304 0.93787 0.63362 0.0
H2607 H 0.89051 0.04556 0.60551 0.0
H2608 H 0.84766 1.00593 0.64648 0.0
H2609 H 0.90044 0.98271 0.61826 0.0
C2610 C 0.8885 0.95137 0.62111 0.0
C2611 C 0.87234 0.93806 0.62511 0.0
C2612 C 0.8571 0.01466 0.63755 0.0
C2613 C 0.87107 0.98158 0.6268 0.0
C2614 C 0.85684 0.03634 0.6372 0.0
C2615 C 0.869 0.04815 0.62581 0.0
C2616 C 0.8699 1.00462 0.62669 0.0
C2617 C 0.8812 0.03735 0.61486 0.0
C2618 C 0.88787 0.97293 0.62178 0.0
C2619 C 0.85588 0.94738 0.63042 0.0
N2620 N 0.88145 0.01639 0.6157 0.0
N2621 N 0.85568 0.96848 0.63116 0.0
H2622 H 0.95942 0.88716 0.65715 0.0
H2623 H 0.04908 0.91238 0.5944 0.0
H2624 H 0.95633 0.88862 0.59811 0.0
H2625 H 0.05616 0.89564 0.65072 0.0
H2626 H 0.01456 0.90827 0.59712 0.0
H2627 H 0.99443 0.89393 0.65648 0.0
C2628 C 0.96607 0.88886 0.64407 0.0
C2629 C 0.9549 0.88729 0.62765 0.0
C2630 C 0.02361 0.90563 0.60897 0.0
C2631 C 0.99477 0.89526 0.62684 0.0
C2632 C 0.04336 0.90804 0.60745 0.0
C2633 C 0.05559 0.90445 0.62237 0.0
C2634 C 0.01582 0.89945 0.62556 0.0
C2635 C 0.04732 0.89896 0.63896 0.0
C2636 C 0.98602 0.89273 0.64371 0.0
C2637 C 0.96429 0.88964 0.61111 0.0
N2638 N 0.02789 0.89651 0.64009 0.0
N2639 N 0.9836 0.89356 0.61116 0.0
H2640 H 0.33133 0.13448 0.06383 0.0
H2641 H 0.34022 0.10174 0.96038 0.0
H2642 H 0.33524 0.0718 0.04384 0.0
H2643 H 0.34768 0.16422 0.98313 0.0
H2644 H 0.32563 0.09032 0.9886 0.0
H2645 H 0.32367 0.1444 0.03279 0.0
C2646 C 0.33013 0.1227 0.05293 0.0
C2647 C 0.33458 0.10249 0.05621 0.0
C2648 C 0.32993 0.10662 0.9872 0.0
C2649 C 0.32629 0.11379 0.02068 0.0
C2650 C 0.33815 0.11318 0.97106 0.0
C2651 C 0.34528 0.13392 0.96959 0.0
C2652 C 0.32905 0.12091 1.00191 0.0
C2653 C 0.3426 0.14803 0.98392 0.0
C2654 C 0.32574 0.12836 0.03521 0.0
C2655 C 0.33229 0.08767 0.04175 0.0
N2656 N 0.33493 0.14121 0.99962 0.0
N2657 N 0.32885 0.09376 0.02443 0.0
H2658 H 0.92901 0.42455 0.046 0.0
H2659 H 0.88413 0.36166 0.95859 0.0
H2660 H 0.89803 0.36427 0.04916 0.0
H2661 H 0.92397 0.41621 0.95712 0.0
H2662 H 0.89221 0.35923 0.99127 0.0
H2663 H 0.9305 0.41907 0.01319 0.0
C2664 C 0.92244 0.41014 0.03979 0.0
C2665 C 0.91262 0.39525 0.05027 0.0
C2666 C 0.89944 0.37149 0.98369 0.0
C2667 C 0.91422 0.38885 0.01257 0.0
C2668 C 0.89485 0.37285 0.96508 0.0
C2669 C 0.90301 0.38951 0.95541 0.0
C2670 C 0.91219 0.38692 0.99246 0.0
C2671 C 0.91695 0.40348 0.96428 0.0
C2672 C 0.92337 0.40697 0.02101 0.0
C2673 C 0.90475 0.3767 0.04152 0.0
N2674 N 0.92089 0.40204 0.9824 0.0
N2675 N 0.90545 0.37415 0.02306 0.0
H2676 H 0.58824 0.83713 0.94261 0.0
H2677 H 0.63805 0.87748 0.03947 0.0
H2678 H 0.62863 0.89132 0.94818 0.0
H2679 H 0.58444 0.83946 0.03456 0.0
H2680 H 0.6384 0.87864 1.00587 0.0
H2681 H 0.5905 0.83353 0.97584 0.0
C2682 C 0.5978 0.84815 0.95073 0.0
C2683 C 0.60824 0.86461 0.94238 0.0
C2684 C 0.62666 0.86986 0.01214 0.0
C2685 C 0.61089 0.86046 0.98079 0.0
C2686 C 0.62648 0.86913 0.03133 0.0
C2687 C 0.61129 0.8582 0.03997 0.0
C2688 C 0.61165 0.85934 1.00132 0.0
C2689 C 0.59666 0.84772 0.02863 0.0
C2690 C 0.59898 0.84613 0.96979 0.0
C2691 C 0.62028 0.8784 0.95387 0.0
N2692 N 0.59723 0.84853 0.01 0.0
N2693 N 0.62127 0.87601 0.97239 0.0
H2694 H 0.07804 0.62133 0.03929 0.0
H2695 H 0.15139 0.63433 0.95759 0.0
H2696 H 0.13919 0.63256 0.04837 0.0
H2697 H 0.09003 0.62866 0.94865 0.0
H2698 H 0.14715 0.63423 0.99064 0.0
H2699 H 0.0821 0.62449 1.00638 0.0
C2700 C 0.09236 0.62469 0.03444 0.0
C2701 C 0.10825 0.62694 0.04691 0.0
C2702 C 0.13458 0.63309 0.98151 0.0
C2703 C 0.11306 0.63033 0.00873 0.0
C2704 C 0.13697 0.63312 0.96252 0.0
C2705 C 0.12105 0.63145 0.95009 0.0
C2706 C 0.11608 0.63125 0.98841 0.0
C2707 C 0.10277 0.62998 0.95756 0.0
C2708 C 0.09465 0.62648 0.01554 0.0
C2709 C 0.12641 0.63118 0.03956 0.0
N2710 N 0.10081 0.62981 0.97613 0.0
N2711 N 0.1283 0.6326 0.02105 0.0
H2712 H 0.35433 0.91599 0.98353 0.0
H2713 H 0.33592 0.82142 0.04587 0.0
H2714 H 0.35045 0.85245 0.96355 0.0
H2715 H 0.33518 0.88522 0.06406 0.0
H2716 H 0.33154 0.83177 0.01421 0.0
H2717 H 0.33838 0.90488 0.01114 0.0
C2718 C 0.34977 0.89973 0.98487 0.0
C2719 C 0.35382 0.88508 0.97146 0.0
C2720 C 0.33181 0.84344 0.02517 0.0
C2721 C 0.33606 0.87211 1.00306 0.0
C2722 C 0.33423 0.8375 0.04323 0.0
C2723 C 0.33661 0.85264 0.05742 0.0
C2724 C 0.33194 0.8646 0.0215 0.0
C2725 C 0.33408 0.87319 0.05338 0.0
C2726 C 0.34059 0.89336 1.00056 0.0
C2727 C 0.3475 0.86423 0.97362 0.0
N2728 N 0.3323 0.87866 0.03574 0.0
N2729 N 0.33928 0.85828 0.98935 0.0
H2730 H 0.08501 0.34841 0.95096 0.0
H2731 H 0.11967 0.42441 0.03708 0.0
H2732 H 0.11052 0.41086 0.9461 0.0
H2733 H 0.09902 0.36039 0.04285 0.0
H2734 H 0.11518 0.41978 1.00398 0.0
H2735 H 0.08884 0.35258 0.98437 0.0
C2736 C 0.09144 0.36303 0.95686 0.0
C2737 C 0.09744 0.37931 0.94549 0.0
C2738 C 0.1115 0.40673 0.01244 0.0
C2739 C 0.10181 0.38421 0.98411 0.0
C2740 C 0.11406 0.40933 0.03149 0.0
C2741 C 0.10952 0.39287 0.04316 0.0
C2742 C 0.10435 0.38743 1.0046 0.0
C2743 C 0.1023 0.37377 0.03475 0.0
C2744 C 0.09362 0.36538 0.97602 0.0
C2745 C 0.10566 0.39784 0.95414 0.0
N2746 N 0.09997 0.3716 0.01608 0.0
N2747 N 0.10755 0.39976 0.97281 0.0
H2748 H 0.60097 0.11743 0.94649 0.0
H2749 H 0.62986 0.17839 0.04243 0.0
H2750 H 0.618 0.18302 0.94947 0.0
H2751 H 0.59415 0.12076 0.03752 0.0
H2752 H 0.62987 0.17932 0.00871 0.0
H2753 H 0.60338 0.11699 0.97994 0.0
C2754 C 0.60547 0.13174 0.9541 0.0
C2755 C 0.60924 0.15031 0.94493 0.0
C2756 C 0.62215 0.16641 0.01506 0.0
C2757 C 0.61201 0.14987 0.98366 0.0
C2758 C 0.6221 0.16589 0.03432 0.0
C2759 C 0.61225 0.1493 0.04301 0.0
C2760 C 0.61245 0.15011 1.00428 0.0
C2761 C 0.60246 0.13357 0.03165 0.0
C2762 C 0.60671 0.13148 0.9733 0.0
C2763 C 0.61491 0.16832 0.95581 0.0
N2764 N 0.60291 0.1343 0.01303 0.0
N2765 N 0.61613 0.16765 0.97451 0.0
H2766 H 0.94299 0.6307 0.04708 0.0
H2767 H 0.90009 0.70365 0.97439 0.0
H2768 H 0.89752 0.66941 0.05788 0.0
H2769 H 0.93865 0.65717 0.96285 0.0
H2770 H 0.90665 0.69997 0.00734 0.0
H2771 H 0.94905 0.64879 0.01882 0.0
C2772 C 0.93451 0.64327 0.04358 0.0
C2773 C 0.91971 0.64857 0.05463 0.0
C2774 C 0.91404 0.691 0.99756 0.0
C2775 C 0.92619 0.66902 0.02231 0.0
C2776 C 0.91037 0.69317 0.97885 0.0
C2777 C 0.91856 0.68033 0.96616 0.0
C2778 C 0.92602 0.67598 1.00332 0.0
C2779 C 0.93178 0.66699 0.97238 0.0
C2780 C 0.93799 0.65365 0.02754 0.0
C2781 C 0.9092 0.66506 0.04975 0.0
N2782 N 0.93491 0.66494 0.99055 0.0
N2783 N 0.91241 0.67449 0.03371 0.0
H2784 H 0.96076 0.37918 0.11693 0.0
H2785 H 0.05465 0.35952 0.16981 0.0
H2786 H 0.95768 0.34021 0.16365 0.0
H2787 H 0.05216 0.36697 0.11128 0.0
H2788 H 0.01976 0.35193 0.16891 0.0
H2789 H 0.99455 0.37502 0.11535 0.0
C2790 C 0.96701 0.36915 0.12654 0.0
C2791 C 0.95615 0.35955 0.14015 0.0
C2792 C 0.02697 0.35479 0.15625 0.0
C2793 C 0.99546 0.35576 0.13906 0.0
C2794 C 0.04686 0.35919 0.15673 0.0
C2795 C 0.05635 0.36431 0.14064 0.0
C2796 C 0.01656 0.35587 0.13963 0.0
C2797 C 0.04551 0.36342 0.12408 0.0
C2798 C 0.98647 0.36699 0.12575 0.0
C2799 C 0.96553 0.34785 0.15292 0.0
N2800 N 0.02618 0.35972 0.12407 0.0
N2801 N 0.98478 0.34651 0.15225 0.0
H2802 H 0.04764 0.68115 0.8476 0.0
H2803 H 0.95893 0.67235 0.91061 0.0
H2804 H 0.03966 0.63465 0.88817 0.0
H2805 H 0.94657 0.67198 0.85227 0.0
H2806 H 0.99276 0.67113 0.90474 0.0
H2807 H 0.01384 0.68847 0.85066 0.0
C2808 C 0.0388 0.67245 0.85705 0.0
C2809 C 0.04652 0.65742 0.86781 0.0
C2810 C 0.98264 0.6717 0.89326 0.0
C2811 C 0.00852 0.66625 0.8718 0.0
C2812 C 0.9633 0.67248 0.89655 0.0
C2813 C 0.94972 0.67191 0.8819 0.0
C2814 C 0.98864 0.67071 0.87521 0.0
C2815 C 0.95648 0.67226 0.86398 0.0
C2816 C 0.01966 0.67672 0.85883 0.0
C2817 C 0.03452 0.64675 0.87997 0.0
N2818 N 0.97553 0.67145 0.86109 0.0
N2819 N 0.01625 0.65156 0.88181 0.0
H2820 H 0.35063 0.06915 0.85396 0.0
H2821 H 0.38299 0.97037 0.90509 0.0
H2822 H 0.37112 0.07185 0.91038 0.0
H2823 H 0.34186 0.96372 0.85961 0.0
H2824 H 0.38106 1.00781 0.90561 0.0
H2825 H 0.3492 0.03113 0.85413 0.0
C2826 C 0.35463 0.06182 0.86645 0.0
C2827 C 0.36095 0.07395 0.88221 0.0
C2828 C 0.37235 0.9982 0.89556 0.0
C2829 C 0.3598 0.03018 0.8823 0.0
C2830 C 0.37333 0.9767 0.89532 0.0
C2831 C 0.36234 0.9636 0.88247 0.0
C2832 C 0.36059 1.00707 0.88258 0.0
C2833 C 0.35066 0.97309 0.86976 0.0
C2834 C 0.35383 0.04005 0.86651 0.0
C2835 C 0.36604 0.06334 0.89792 0.0
N2836 N 0.35018 0.99415 0.87006 0.0
N2837 N 0.36557 0.04224 0.89748 0.0
H2838 H 0.0407 0.36142 0.88685 0.0
H2839 H 0.9495 0.41022 0.84778 0.0
H2840 H 0.0391 0.38722 0.8332 0.0
H2841 H 0.94521 0.36262 0.88759 0.0
H2842 H 0.98228 0.40218 0.84211 0.0
H2843 H 0.00584 0.36145 0.88751 0.0
C2844 C 0.03299 0.36673 0.87506 0.0
C2845 C 0.04289 0.3744 0.85998 0.0
C2846 C 0.97407 0.39325 0.85186 0.0
C2847 C 0.00299 0.37498 0.86086 0.0
C2848 C 0.95529 0.39773 0.85501 0.0
C2849 C 0.94455 0.38694 0.86806 0.0
C2850 C 0.98233 0.37818 0.86215 0.0
C2851 C 0.95304 0.37136 0.87746 0.0
C2852 C 0.01308 0.36677 0.87545 0.0
C2853 C 0.0321 0.38111 0.8451 0.0
N2854 N 0.9715 0.36763 0.87451 0.0
N2855 N 0.0128 0.38161 0.84606 0.0
H2856 H 0.6418 0.96348 0.92771 0.0
H2857 H 0.61327 0.04219 0.85599 0.0
H2858 H 0.63722 0.95073 0.86939 0.0
H2859 H 0.62622 0.05927 0.91284 0.0
H2860 H 0.63013 0.01124 0.85964 0.0
H2861 H 0.64498 1.0006 0.92207 0.0
C2862 C 0.6421 0.9685 0.91373 0.0
C2863 C 0.63857 0.95419 0.89898 0.0
C2864 C 0.62968 0.02191 0.87129 0.0
C2865 C 0.64192 0.99627 0.89243 0.0
C2866 C 0.61997 0.03948 0.86918 0.0
C2867 C 0.61821 0.05294 0.8842 0.0
C2868 C 0.63703 0.01744 0.88873 0.0
C2869 C 0.62728 0.04909 0.90096 0.0
C2870 C 0.64385 0.98967 0.91049 0.0
C2871 C 0.63928 0.96136 0.88114 0.0
N2872 N 0.63595 0.03136 0.90292 0.0
N2873 N 0.64048 0.98192 0.87835 0.0
H2874 H 0.95681 0.6471 0.18077 0.0
H2875 H 0.05426 0.68334 0.13273 0.0
H2876 H 0.95798 0.66553 0.12457 0.0
H2877 H 0.04929 0.63652 0.17326 0.0
H2878 H 0.01968 0.68678 0.1345 0.0
H2879 H 0.9917 0.65408 0.18329 0.0
C2880 C 0.96432 0.65313 0.16911 0.0
C2881 C 0.95451 0.65545 0.15234 0.0
C2882 C 0.02631 0.67602 0.14318 0.0
C2883 C 0.99433 0.66344 0.1552 0.0
C2884 C 0.04593 0.67396 0.14211 0.0
C2885 C 0.05456 0.65943 0.15268 0.0
C2886 C 0.01544 0.66381 0.15524 0.0
C2887 C 0.04327 0.64801 0.16495 0.0
C2888 C 0.98423 0.65696 0.17054 0.0
C2889 C 0.96503 0.66327 0.13768 0.0
N2890 N 0.02429 0.65039 0.16586 0.0
N2891 N 0.98442 0.66682 0.13939 0.0
H2892 H 0.36884 0.94111 0.10095 0.0
H2893 H 0.37559 0.0494 0.15748 0.0
H2894 H 0.36285 0.94441 0.15943 0.0
H2895 H 0.36179 0.04368 0.09947 0.0
H2896 H 0.37277 0.01144 0.15874 0.0
H2897 H 0.3681 0.97867 0.10027 0.0
C2898 C 0.367 0.9496 0.11365 0.0
C2899 C 0.36554 0.93926 0.13025 0.0
C2900 C 0.37019 0.0185 0.14577 0.0
C2901 C 0.36548 0.98292 0.12963 0.0
C2902 C 0.37177 0.04023 0.14503 0.0
C2903 C 0.36886 0.04999 0.12835 0.0
C2904 C 0.36602 1.0062 0.12966 0.0
C2905 C 0.36405 0.03706 0.11269 0.0
C2906 C 0.36677 0.97121 0.11326 0.0
C2907 C 0.36403 0.95156 0.14629 0.0
N2908 N 0.36299 0.016 0.1137 0.0
N2909 N 0.36415 0.97263 0.14561 0.0
H2910 H 0.64538 0.95016 0.1308 0.0
H2911 H 0.61755 0.03921 0.06705 0.0
H2912 H 0.61618 0.94314 0.07774 0.0
H2913 H 0.62837 0.0466 0.12544 0.0
H2914 H 0.63226 1.00651 0.06736 0.0
H2915 H 0.65335 0.98705 0.12523 0.0
C2916 C 0.64116 0.95627 0.1178 0.0
C2917 C 0.62967 0.94394 0.1049 0.0
C2918 C 0.63191 0.01558 0.08003 0.0
C2919 C 0.63894 0.98545 0.09836 0.0
C2920 C 0.62345 0.03412 0.07986 0.0
C2921 C 0.62139 0.04518 0.0963 0.0
C2922 C 0.63769 1.00782 0.09686 0.0
C2923 C 0.62957 0.03832 0.1125 0.0
C2924 C 0.64574 0.9772 0.11462 0.0
C2925 C 0.62468 0.95232 0.0882 0.0
N2926 N 0.63695 0.0197 0.11247 0.0
N2927 N 0.62915 0.97265 0.0855 0.0
H2928 H 0.61961 0.54931 0.8713 0.0
H2929 H 0.68455 0.46989 0.8891 0.0
H2930 H 0.68077 0.56516 0.87209 0.0
H2931 H 0.63343 0.45231 0.85569 0.0
H2932 H 0.68576 0.50422 0.87713 0.0
H2933 H 0.62462 0.51462 0.85965 0.0
C2934 C 0.63405 0.5457 0.86859 0.0
C2935 C 0.64986 0.55982 0.87349 0.0
C2936 C 0.67457 0.49276 0.87189 0.0
C2937 C 0.65564 0.52026 0.86025 0.0
C2938 C 0.67394 0.47299 0.87868 0.0
C2939 C 0.65854 0.4584 0.87375 0.0
C2940 C 0.65919 0.49823 0.86082 0.0
C2941 C 0.64515 0.46346 0.8603 0.0
C2942 C 0.63689 0.52592 0.86177 0.0
C2943 C 0.66819 0.55448 0.86919 0.0
N2944 N 0.64528 0.4833 0.85484 0.0
N2945 N 0.67064 0.5349 0.86333 0.0
H2946 H 0.45016 0.63672 0.91722 0.0
H2947 H 0.5488 0.61315 0.87504 0.0
H2948 H 0.45235 0.61995 0.85974 0.0
H2949 H 0.53378 0.59919 0.93038 0.0
H2950 H 0.51548 0.61982 0.86824 0.0
H2951 H 0.48333 0.62892 0.92152 0.0
C2952 C 0.45766 0.63162 0.90543 0.0
C2953 C 0.44837 0.62889 0.8881 0.0
C2954 C 0.51955 0.61503 0.88177 0.0
C2955 C 0.48649 0.61987 0.893 0.0
C2956 C 0.53857 0.61095 0.88565 0.0
C2957 C 0.54426 0.60539 0.90333 0.0
C2958 C 0.50633 0.614 0.89578 0.0
C2959 C 0.53022 0.60355 0.91659 0.0
C2960 C 0.47657 0.627 0.90795 0.0
C2961 C 0.45892 0.62218 0.87336 0.0
N2962 N 0.51206 0.60806 0.91261 0.0
N2963 N 0.47747 0.61791 0.87613 0.0
H2964 H 0.39275 0.5743 0.87628 0.0
H2965 H 0.34043 0.4654 0.90287 0.0
H2966 H 0.33464 0.56768 0.89406 0.0
H2967 H 0.3889 0.46952 0.86813 0.0
H2968 H 0.33907 0.50283 0.90129 0.0
H2969 H 0.39261 0.53645 0.87445 0.0
C2970 C 0.37985 0.56494 0.87958 0.0
C2971 C 0.36364 0.57443 0.88526 0.0
C2972 C 0.34993 0.49557 0.89388 0.0
C2973 C 0.36358 0.5307 0.88362 0.0
C2974 C 0.35063 0.47404 0.89464 0.0
C2975 C 0.3646 0.46395 0.88533 0.0
C2976 C 0.36354 0.50748 0.88406 0.0
C2977 C 0.37789 0.47645 0.87557 0.0
C2978 C 0.37981 0.54325 0.87857 0.0
C2979 C 0.34743 0.56126 0.88946 0.0
N2980 N 0.3771 0.49744 0.87527 0.0
N2981 N 0.34791 0.54022 0.88876 0.0
H2982 H 0.45499 0.42373 0.8695 0.0
H2983 H 0.54724 0.37995 0.9158 0.0
H2984 H 0.45075 0.37645 0.90966 0.0
H2985 H 0.54669 0.44394 0.9019 0.0
H2986 H 0.51297 0.37437 0.90696 0.0
H2987 H 0.48996 0.4274 0.87486 0.0
C2988 C 0.46142 0.414 0.8793 0.0
C2989 C 0.44996 0.39985 0.88923 0.0
C2990 C 0.52045 0.38956 0.90567 0.0
C2991 C 0.48982 0.40371 0.89515 0.0
C2992 C 0.53999 0.39269 0.91054 0.0
C2993 C 0.54978 0.4124 0.90945 0.0
C2994 C 0.51076 0.40615 0.89936 0.0
C2995 C 0.53962 0.42852 0.90292 0.0
C2996 C 0.48132 0.41616 0.88239 0.0
C2997 C 0.45904 0.38768 0.90183 0.0
N2998 N 0.52069 0.42503 0.89803 0.0
N2999 N 0.47844 0.3898 0.90437 0.0
H3000 H 0.63175 0.44662 0.17466 0.0
H3001 H 0.62299 0.53811 0.14785 0.0
H3002 H 0.68941 0.46537 0.15938 0.0
H3003 H 0.67614 0.56205 0.17556 0.0
H3004 H 0.62518 0.50569 0.16216 0.0
H3005 H 0.62905 0.48168 0.18688 0.0
C3006 C 0.64406 0.45793 0.17441 0.0
C3007 C 0.66046 0.4535 0.16512 0.0
C3008 C 0.63607 0.5182 0.16577 0.0
C3009 C 0.65721 0.49344 0.17849 0.0
C3010 C 0.63479 0.53697 0.15755 0.0
C3011 C 0.64943 0.55304 0.16039 0.0
C3012 C 0.6526 0.5149 0.1762 0.0
C3013 C 0.66481 0.54988 0.17251 0.0
C3014 C 0.64252 0.47789 0.18142 0.0
C3015 C 0.67623 0.46843 0.1658 0.0
N3016 N 0.66642 0.53084 0.17943 0.0
N3017 N 0.67399 0.48809 0.17174 0.0
H3018 H 0.53862 0.5732 0.13149 0.0
H3019 H 0.45531 0.64198 0.10259 0.0
H3020 H 0.54969 0.63054 0.10398 0.0
H3021 H 0.45134 0.60334 0.14948 0.0
H3022 H 0.48909 0.6357 0.10051 0.0
H3023 H 0.50553 0.58146 0.13584 0.0
C3024 C 0.53407 0.58757 0.12647 0.0
C3025 C 0.54689 0.60137 0.11761 0.0
C3026 C 0.48085 0.62873 0.11133 0.0
C3027 C 0.50915 0.6107 0.12217 0.0
C3028 C 0.46158 0.63225 0.1125 0.0
C3029 C 0.45053 0.62319 0.12625 0.0
C3030 C 0.48904 0.61568 0.12375 0.0
C3031 C 0.45939 0.61073 0.13874 0.0
C3032 C 0.51527 0.59231 0.12901 0.0
C3033 C 0.54031 0.6197 0.1112 0.0
N3034 N 0.47808 0.60715 0.13708 0.0
N3035 N 0.52184 0.62378 0.11347 0.0
H3036 H 0.34263 0.54274 0.10779 0.0
H3037 H 0.39991 0.44591 0.13372 0.0
H3038 H 0.39328 0.54949 0.14336 0.0
H3039 H 0.34025 0.43951 0.11624 0.0
H3040 H 0.39884 0.48366 0.13586 0.0
H3041 H 0.34244 0.50509 0.10912 0.0
C3042 C 0.35356 0.53641 0.11616 0.0
C3043 C 0.36785 0.54959 0.12569 0.0
C3044 C 0.38593 0.47398 0.13172 0.0
C3045 C 0.36813 0.50597 0.12668 0.0
C3046 C 0.38651 0.45235 0.13053 0.0
C3047 C 0.37013 0.43927 0.12485 0.0
C3048 C 0.36895 0.48284 0.12686 0.0
C3049 C 0.35325 0.44878 0.1208 0.0
C3050 C 0.35353 0.51478 0.11676 0.0
C3051 C 0.38201 0.5401 0.13569 0.0
N3052 N 0.35317 0.46984 0.12168 0.0
N3053 N 0.38188 0.51901 0.13581 0.0
H3054 H 0.55723 0.39841 0.14903 0.0
H3055 H 0.45513 0.38427 0.09656 0.0
H3056 H 0.54834 0.40539 0.0909 0.0
H3057 H 0.46061 0.39777 0.15483 0.0
H3058 H 0.48982 0.38855 0.09499 0.0
H3059 H 0.52241 0.39584 0.15226 0.0
C3060 C 0.54809 0.39989 0.13702 0.0
C3061 C 0.55583 0.40243 0.11968 0.0
C3062 C 0.48348 0.39062 0.10814 0.0
C3063 C 0.51602 0.39866 0.12322 0.0
C3064 C 0.46363 0.38807 0.10907 0.0
C3065 C 0.45489 0.39073 0.12585 0.0
C3066 C 0.49485 0.39569 0.12413 0.0
C3067 C 0.46674 0.39566 0.14159 0.0
C3068 C 0.52818 0.39818 0.13887 0.0
C3069 C 0.5431 0.40339 0.10454 0.0
N3070 N 0.48615 0.39793 0.14037 0.0
N3071 N 0.52391 0.4014 0.10665 0.0
H3072 H 0.84541 0.66346 0.48316 0.0
H3073 H 0.83765 0.56811 0.54513 0.0
H3074 H 0.8434 0.60027 0.46259 0.0
H3075 H 0.83673 0.63156 0.56423 0.0
H3076 H 0.82887 0.57826 0.5142 0.0
H3077 H 0.83144 0.65133 0.51138 0.0
C3078 C 0.84157 0.64705 0.48448 0.0
C3079 C 0.84576 0.6328 0.47079 0.0
C3080 C 0.83006 0.58987 0.52526 0.0
C3081 C 0.8305 0.61868 0.50315 0.0
C3082 C 0.83503 0.58406 0.5429 0.0
C3083 C 0.83861 0.59922 0.55698 0.0
C3084 C 0.82883 0.61095 0.52188 0.0
C3085 C 0.83478 0.61957 0.55353 0.0
C3086 C 0.83357 0.64008 0.50055 0.0
C3087 C 0.84039 0.61172 0.47293 0.0
N3088 N 0.83048 0.62494 0.53624 0.0
N3089 N 0.83348 0.60521 0.48907 0.0
H3090 H 0.35585 0.85501 0.45717 0.0
H3091 H 0.42605 0.87616 0.54373 0.0
H3092 H 0.41598 0.87562 0.45654 0.0
H3093 H 0.36445 0.87166 0.5455 0.0
H3094 H 0.4233 0.86136 0.51254 0.0
H3095 H 0.35999 0.84678 0.48952 0.0
C3096 C 0.37002 0.85715 0.4637 0.0
C3097 C 0.38552 0.86652 0.45452 0.0
C3098 C 0.41036 0.86314 0.51988 0.0
C3099 C 0.39032 0.85722 0.49112 0.0
C3100 C 0.41194 0.87164 0.53762 0.0
C3101 C 0.39544 0.87549 0.54691 0.0
C3102 C 0.39217 0.85903 0.51126 0.0
C3103 C 0.37749 0.86903 0.53866 0.0
C3104 C 0.37236 0.85252 0.48212 0.0
C3105 C 0.4036 0.86891 0.46341 0.0
N3106 N 0.3763 0.86154 0.52105 0.0
N3107 N 0.40546 0.8646 0.48134 0.0
H3108 H 0.12314 0.33137 0.53893 0.0
H3109 H 0.11309 0.40103 0.45113 0.0
H3110 H 0.10018 0.3908 0.5406 0.0
H3111 H 0.10938 0.33441 0.44533 0.0
H3112 H 0.11452 0.39831 0.48441 0.0
H3113 H 0.12336 0.33262 0.50519 0.0
C3114 C 0.11823 0.34471 0.53227 0.0
C3115 C 0.11198 0.36118 0.54281 0.0
C3116 C 0.11351 0.38427 0.47589 0.0
C3117 C 0.11254 0.36289 0.50418 0.0
C3118 C 0.11282 0.3858 0.45679 0.0
C3119 C 0.11106 0.36793 0.44521 0.0
C3120 C 0.11276 0.36474 0.48373 0.0
C3121 C 0.11068 0.34864 0.45361 0.0
C3122 C 0.11839 0.34542 0.51302 0.0
C3123 C 0.10575 0.37802 0.5333 0.0
N3124 N 0.11157 0.34755 0.4723 0.0
N3125 N 0.10635 0.37851 0.51469 0.0
H3126 H 0.6053 0.11008 0.44348 0.0
H3127 H 0.63549 0.15594 0.54521 0.0
H3128 H 0.64961 0.15985 0.45437 0.0
H3129 H 0.59818 0.10008 0.53411 0.0
H3130 H 0.64005 0.1586 0.51226 0.0
H3131 H 0.60135 0.10744 0.47657 0.0
C3132 C 0.61418 0.12051 0.45278 0.0
C3133 C 0.62785 0.13519 0.44594 0.0
C3134 C 0.63098 0.14567 0.51706 0.0
C3135 C 0.62335 0.13227 0.48417 0.0
C3136 C 0.62854 0.14397 0.53602 0.0
C3137 C 0.61676 0.12744 0.54279 0.0
C3138 C 0.62139 0.13092 0.50458 0.0
C3139 C 0.6075 0.11306 0.52976 0.0
C3140 C 0.61195 0.11896 0.47174 0.0
C3141 C 0.63891 0.14824 0.45886 0.0
N3142 N 0.60999 0.11514 0.51146 0.0
N3143 N 0.63641 0.1465 0.47722 0.0
H3144 H 0.85506 0.42314 0.4806 0.0
H3145 H 0.83332 0.32889 0.54274 0.0
H3146 H 0.84849 0.35946 0.46093 0.0
H3147 H 0.84471 0.39281 0.56089 0.0
H3148 H 0.82635 0.34031 0.5117 0.0
H3149 H 0.8384 0.41307 0.50812 0.0
C3150 C 0.84969 0.4071 0.48196 0.0
C3151 C 0.85338 0.39203 0.46881 0.0
C3152 C 0.82982 0.35183 0.52265 0.0
C3153 C 0.83509 0.38021 0.50036 0.0
C3154 C 0.8338 0.34531 0.54031 0.0
C3155 C 0.84024 0.35997 0.55415 0.0
C3156 C 0.8323 0.37306 0.5191 0.0
C3157 C 0.84038 0.381 0.55048 0.0
C3158 C 0.84015 0.40132 0.4976 0.0
C3159 C 0.84596 0.3715 0.47091 0.0
N3160 N 0.83679 0.38692 0.53325 0.0
N3161 N 0.83759 0.36605 0.4867 0.0
H3162 H 0.58001 0.8843 0.54253 0.0
H3163 H 0.62438 0.88799 0.44214 0.0
H3164 H 0.64019 0.89746 0.53342 0.0
H3165 H 0.56374 0.8815 0.45111 0.0
H3166 H 0.63059 0.88875 0.47546 0.0
H3167 H 0.57394 0.88019 0.50929 0.0
C3168 C 0.59203 0.8859 0.53366 0.0
C3169 C 0.61072 0.89096 0.54102 0.0
C3170 C 0.61591 0.88709 0.47014 0.0
C3171 C 0.60376 0.88675 0.50259 0.0
C3172 C 0.61235 0.88662 0.45105 0.0
C3173 C 0.59348 0.88474 0.44362 0.0
C3174 C 0.60052 0.88558 0.48207 0.0
C3175 C 0.57854 0.88304 0.45605 0.0
C3176 C 0.58851 0.88379 0.51457 0.0
C3177 C 0.62554 0.89352 0.52852 0.0
N3178 N 0.58236 0.88352 0.47452 0.0
N3179 N 0.62176 0.8914 0.51008 0.0
H3180 H 0.13089 0.68246 0.5464 0.0
H3181 H 0.10744 0.61876 0.45091 0.0
H3182 H 0.10053 0.6217 0.54143 0.0
H3183 H 0.11908 0.68523 0.45295 0.0
H3184 H 0.10999 0.61899 0.48427 0.0
H3185 H 0.13093 0.68344 0.51267 0.0
C3186 C 0.12433 0.66928 0.53829 0.0
C3187 C 0.11601 0.65181 0.54696 0.0
C3188 C 0.1121 0.63355 0.47747 0.0
C3189 C 0.11622 0.65272 0.50823 0.0
C3190 C 0.11076 0.63345 0.4583 0.0
C3191 C 0.11297 0.65203 0.44885 0.0
C3192 C 0.11588 0.65234 0.48761 0.0
C3193 C 0.11724 0.6705 0.4595 0.0
C3194 C 0.12439 0.66985 0.51901 0.0
C3195 C 0.1077 0.63525 0.53559 0.0
N3196 N 0.11853 0.67019 0.47824 0.0
N3197 N 0.10812 0.63608 0.51699 0.0
H3198 H 0.44101 0.18506 0.47001 0.0
H3199 H 0.36724 0.16621 0.54056 0.0
H3200 H 0.38426 0.20384 0.46041 0.0
H3201 H 0.42661 0.18078 0.55724 0.0
H3202 H 0.37288 0.18485 0.51244 0.0
H3203 H 0.43731 0.18951 0.50292 0.0
C3204 C 0.42804 0.19089 0.47492 0.0
C3205 C 0.41281 0.19386 0.46273 0.0
C3206 C 0.38455 0.18456 0.52252 0.0
C3207 C 0.40807 0.19798 0.50011 0.0
C3208 C 0.38135 0.17376 0.53844 0.0
C3209 C 0.39653 0.17186 0.55102 0.0
C3210 C 0.40319 0.19282 0.51896 0.0
C3211 C 0.41453 0.18198 0.54783 0.0
C3212 C 0.42589 0.19341 0.49367 0.0
C3213 C 0.39623 0.20126 0.46954 0.0
N3214 N 0.4175 0.19163 0.53186 0.0
N3215 N 0.394 0.20242 0.48792 0.0
H3216 H 0.45676 0.85257 0.66213 0.0
H3217 H 0.55313 0.8723 0.60774 0.0
H3218 H 0.46232 0.88755 0.6131 0.0
H3219 H 0.55368 0.86548 0.66636 0.0
H3220 H 0.51829 0.86666 0.60688 0.0
H3221 H 0.49111 0.84738 0.66138 0.0
C3222 C 0.46511 0.85885 0.65108 0.0
C3223 C 0.45664 0.87033 0.63756 0.0
C3224 C 0.52609 0.86611 0.61988 0.0
C3225 C 0.49549 0.86411 0.63641 0.0
C3226 C 0.546 0.86926 0.6204 0.0
C3227 C 0.55637 0.86983 0.63722 0.0
C3228 C 0.51645 0.86337 0.63624 0.0
C3229 C 0.54626 0.86552 0.65313 0.0
C3230 C 0.4846 0.85584 0.65064 0.0
C3231 C 0.46804 0.87811 0.62352 0.0
N3232 N 0.52679 0.86272 0.65229 0.0
N3233 N 0.48684 0.87485 0.62332 0.0
H3234 H 0.55508 0.1786 0.34769 0.0
H3235 H 0.46929 0.16784 0.41505 0.0
H3236 H 0.5505 0.13362 0.38987 0.0
H3237 H 0.45552 0.1653 0.35691 0.0
H3238 H 0.50327 0.16973 0.40844 0.0
H3239 H 0.52168 0.18603 0.35295 0.0
C3240 C 0.5471 0.17034 0.35801 0.0
C3241 C 0.5556 0.15558 0.36847 0.0
C3242 C 0.49275 0.16928 0.39718 0.0
C3243 C 0.51821 0.16468 0.37503 0.0
C3244 C 0.47336 0.16831 0.4009 0.0
C3245 C 0.45949 0.16601 0.3865 0.0
C3246 C 0.49833 0.16836 0.37898 0.0
C3247 C 0.46574 0.16675 0.36842 0.0
C3248 C 0.52822 0.1747 0.36107 0.0
C3249 C 0.54474 0.14548 0.38182 0.0
N3250 N 0.48477 0.16762 0.36513 0.0
N3251 N 0.52672 0.15037 0.38485 0.0
H3252 H 0.8541 0.57279 0.40719 0.0
H3253 H 0.88444 0.46991 0.35691 0.0
H3254 H 0.87635 0.57257 0.35295 0.0
H3255 H 0.84469 0.46782 0.40056 0.0
H3256 H 0.88311 0.5075 0.35613 0.0
H3257 H 0.85199 0.53478 0.40611 0.0
C3258 C 0.85838 0.56482 0.39497 0.0
C3259 C 0.86535 0.57615 0.38011 0.0
C3260 C 0.87456 0.49883 0.3658 0.0
C3261 C 0.86334 0.53226 0.37896 0.0
C3262 C 0.87519 0.47724 0.36617 0.0
C3263 C 0.86457 0.46544 0.37876 0.0
C3264 C 0.86347 0.50901 0.37833 0.0
C3265 C 0.85326 0.47618 0.39071 0.0
C3266 C 0.85718 0.54303 0.39438 0.0
C3267 C 0.87075 0.56469 0.36471 0.0
N3268 N 0.85315 0.49724 0.39033 0.0
N3269 N 0.86983 0.54355 0.36463 0.0
H3270 H 0.44325 0.85469 0.38723 0.0
H3271 H 0.53763 0.88513 0.33272 0.0
H3272 H 0.45201 0.91089 0.35752 0.0
H3273 H 0.54072 0.85753 0.38556 0.0
H3274 H 0.50294 0.8854 0.33533 0.0
H3275 H 0.47631 0.84732 0.38098 0.0
C3276 C 0.45201 0.86531 0.37921 0.0
C3277 C 0.44477 0.88333 0.37273 0.0
C3278 C 0.51122 0.87894 0.34617 0.0
C3279 C 0.48217 0.8747 0.36513 0.0
C3280 C 0.53098 0.87861 0.34465 0.0
C3281 C 0.54214 0.87144 0.35902 0.0
C3282 C 0.50249 0.87168 0.36199 0.0
C3283 C 0.53269 0.86334 0.37422 0.0
C3284 C 0.47077 0.86107 0.37562 0.0
C3285 C 0.45672 0.89654 0.36235 0.0
N3286 N 0.51339 0.86375 0.37536 0.0
N3287 N 0.47477 0.89192 0.35881 0.0
H3288 H 0.145 0.45387 0.4317 0.0
H3289 H 0.10119 0.54211 0.42675 0.0
H3290 H 0.13471 0.45695 0.37339 0.0
H3291 H 0.13212 0.5554 0.37799 0.0
H3292 H 0.11883 0.51162 0.43086 0.0
H3293 H 0.14676 0.49185 0.43427 0.0
C3294 C 0.14385 0.46261 0.41939 0.0
C3295 C 0.13922 0.45254 0.40238 0.0
C3296 C 0.12231 0.52163 0.41965 0.0
C3297 C 0.14106 0.49531 0.4052 0.0
C3298 C 0.11203 0.53875 0.41717 0.0
C3299 C 0.11521 0.55089 0.40195 0.0
C3300 C 0.13535 0.51644 0.40647 0.0
C3301 C 0.12937 0.54621 0.38987 0.0
C3302 C 0.14472 0.48415 0.42088 0.0
C3303 C 0.13788 0.46433 0.38679 0.0
N3304 N 0.13859 0.5289 0.39208 0.0
N3305 N 0.13851 0.4852 0.3886 0.0
H3306 H 0.45842 0.16223 0.60927 0.0
H3307 H 0.55834 0.18174 0.66571 0.0
H3308 H 0.46105 0.17126 0.66815 0.0
H3309 H 0.54855 0.14265 0.61681 0.0
H3310 H 0.52413 0.18773 0.66459 0.0
H3311 H 0.49332 0.16641 0.60943 0.0
C3312 C 0.46627 0.16554 0.62221 0.0
C3313 C 0.45674 0.16597 0.63878 0.0
C3314 C 0.52969 0.17816 0.65397 0.0
C3315 C 0.49675 0.17074 0.63896 0.0
C3316 C 0.54912 0.17465 0.65464 0.0
C3317 C 0.55643 0.16184 0.64122 0.0
C3318 C 0.51766 0.16911 0.63959 0.0
C3319 C 0.54384 0.15317 0.62711 0.0
C3320 C 0.48621 0.16781 0.62227 0.0
C3321 C 0.46779 0.17051 0.65508 0.0
N3322 N 0.52515 0.15699 0.62666 0.0
N3323 N 0.48727 0.17248 0.6548 0.0
H3324 H 0.87209 0.54674 0.65945 0.0
H3325 H 0.87537 0.44004 0.60275 0.0
H3326 H 0.86609 0.54156 0.60052 0.0
H3327 H 0.85716 0.44074 0.65845 0.0
H3328 H 0.87493 0.47757 0.60263 0.0
H3329 H 0.86912 0.50868 0.66041 0.0
C3330 C 0.86992 0.53769 0.64672 0.0
C3331 C 0.86928 0.5476 0.62987 0.0
C3332 C 0.87086 0.46956 0.61486 0.0
C3333 C 0.86637 0.50382 0.6309 0.0
C3334 C 0.87094 0.44798 0.61491 0.0
C3335 C 0.86579 0.43688 0.63048 0.0
C3336 C 0.86608 0.48058 0.63067 0.0
C3337 C 0.86114 0.4485 0.64608 0.0
C3338 C 0.86827 0.51591 0.6473 0.0
C3339 C 0.86657 0.53483 0.61386 0.0
N3340 N 0.86147 0.46963 0.64581 0.0
N3341 N 0.86546 0.51378 0.61478 0.0
H3342 H 0.12892 0.44304 0.5828 0.0
H3343 H 0.13613 0.55017 0.63125 0.0
H3344 H 0.14636 0.45317 0.63976 0.0
H3345 H 0.12807 0.53946 0.57285 0.0
H3346 H 0.15007 0.51721 0.63337 0.0
H3347 H 0.13878 0.479 0.57737 0.0
C3348 C 0.13513 0.45284 0.59412 0.0
C3349 C 0.13634 0.44543 0.61183 0.0
C3350 C 0.14586 0.52234 0.62 0.0
C3351 C 0.14696 0.48685 0.60595 0.0
C3352 C 0.13797 0.54124 0.61878 0.0
C3353 C 0.13059 0.54718 0.60189 0.0
C3354 C 0.14593 0.50933 0.60426 0.0
C3355 C 0.13317 0.53504 0.58619 0.0
C3356 C 0.14085 0.47341 0.59103 0.0
C3357 C 0.14487 0.45856 0.62596 0.0
N3358 N 0.14029 0.51644 0.58779 0.0
N3359 N 0.14933 0.47891 0.62284 0.0
H3360 H 0.18579 0.10464 0.47397 0.0
H3361 H 0.12005 0.09766 0.56133 0.0
H3362 H 0.12396 0.1002 0.47064 0.0
H3363 H 0.18187 0.10588 0.56484 0.0
H3364 H 0.12125 0.09488 0.52799 0.0
H3365 H 0.18465 0.10155 0.50715 0.0
C3366 C 0.17197 0.10287 0.48017 0.0
C3367 C 0.15495 0.10283 0.46947 0.0
C3368 C 0.13456 0.09715 0.53607 0.0
C3369 C 0.15355 0.09934 0.5075 0.0
C3370 C 0.13389 0.0987 0.55513 0.0
C3371 C 0.15088 0.10219 0.56594 0.0
C3372 C 0.15234 0.09911 0.52772 0.0
C3373 C 0.16838 0.10334 0.55709 0.0
C3374 C 0.17133 0.10112 0.49914 0.0
C3375 C 0.13746 0.10043 0.47831 0.0
N3376 N 0.16865 0.10194 0.53851 0.0
N3377 N 0.13723 0.09889 0.49679 0.0
H3378 H 0.8406 0.12458 0.54887 0.0
H3379 H 0.90501 0.13542 0.46072 0.0
H3380 H 0.90242 0.1282 0.55165 0.0
H3381 H 0.84323 0.13296 0.45866 0.0
H3382 H 0.90448 0.13239 0.49397 0.0
H3383 H 0.84141 0.12692 0.51567 0.0
C3384 C 0.85436 0.12579 0.54252 0.0
C3385 C 0.87148 0.12623 0.55312 0.0
C3386 C 0.89106 0.13253 0.48622 0.0
C3387 C 0.87249 0.129 0.51502 0.0
C3388 C 0.89134 0.13429 0.46723 0.0
C3389 C 0.87414 0.13446 0.45683 0.0
C3390 C 0.87345 0.13091 0.49489 0.0
C3391 C 0.85687 0.13292 0.46606 0.0
C3392 C 0.85481 0.12716 0.52353 0.0
C3393 C 0.88886 0.12781 0.54406 0.0
N3394 N 0.85697 0.1312 0.48452 0.0
N3395 N 0.88892 0.12918 0.52555 0.0
H3396 H 0.9037 0.88112 0.55095 0.0
H3397 H 0.83669 0.88322 0.46009 0.0
H3398 H 0.84188 0.87568 0.55106 0.0
H3399 H 0.89853 0.88865 0.46046 0.0
H3400 H 0.8382 0.88062 0.4934 0.0
H3401 H 0.90196 0.88375 0.51773 0.0
C3402 C 0.88974 0.88042 0.544 0.0
C3403 C 0.87291 0.87819 0.55386 0.0
C3404 C 0.85143 0.88241 0.48618 0.0
C3405 C 0.87083 0.88128 0.51574 0.0
C3406 C 0.85059 0.88393 0.46715 0.0
C3407 C 0.86751 0.88614 0.45742 0.0
C3408 C 0.86931 0.88309 0.49556 0.0
C3409 C 0.88509 0.88695 0.46734 0.0
C3410 C 0.88877 0.88196 0.52501 0.0
C3411 C 0.85525 0.87739 0.54406 0.0
N3412 N 0.88552 0.8854 0.48583 0.0
N3413 N 0.85468 0.87896 0.52555 0.0
H3414 H 0.19202 0.92369 0.57452 0.0
H3415 H 0.12475 0.92161 0.4841 0.0
H3416 H 0.13172 0.93255 0.57434 0.0
H3417 H 0.1855 0.9153 0.48349 0.0
H3418 H 0.12785 0.92927 0.51699 0.0
H3419 H 0.19087 0.92476 0.54111 0.0
C3420 C 0.17862 0.92622 0.56751 0.0
C3421 C 0.16189 0.92775 0.57727 0.0
C3422 C 0.14054 0.92636 0.50966 0.0
C3423 C 0.16043 0.92872 0.53902 0.0
C3424 C 0.13877 0.92192 0.49086 0.0
C3425 C 0.15485 0.91756 0.48102 0.0
C3426 C 0.1585 0.92633 0.51878 0.0
C3427 C 0.17268 0.91841 0.49052 0.0
C3428 C 0.17796 0.92674 0.54841 0.0
C3429 C 0.14495 0.93107 0.56741 0.0
N3430 N 0.174 0.92251 0.5089 0.0
N3431 N 0.14461 0.93119 0.54884 0.0
H3432 H 0.52982 0.16758 0.10313 0.0
H3433 H 0.4391 0.08444 0.09754 0.0
H3434 H 0.53364 0.10151 0.09982 0.0
H3435 H 0.43501 0.15012 0.09551 0.0
H3436 H 0.47375 0.09024 0.09418 0.0
H3437 H 0.49524 0.1616 0.09722 0.0
C3438 C 0.52341 0.15182 0.10114 0.0
C3439 C 0.53467 0.13502 0.10221 0.0
C3440 C 0.46527 0.10338 0.09399 0.0
C3441 C 0.49505 0.12807 0.09531 0.0
C3442 C 0.4455 0.10002 0.09566 0.0
C3443 C 0.43433 0.11681 0.09643 0.0
C3444 C 0.47391 0.12376 0.09357 0.0
C3445 C 0.44322 0.13678 0.09459 0.0
C3446 C 0.50366 0.14842 0.09765 0.0
C3447 C 0.52556 0.11495 0.09931 0.0
N3448 N 0.46257 0.13976 0.0935 0.0
N3449 N 0.50629 0.11204 0.09614 0.0
H3450 H 0.89884 0.4599 0.17923 0.0
H3451 H 0.91047 0.5601 0.1181 0.0
H3452 H 0.90809 0.45844 0.12111 0.0
H3453 H 0.89882 0.56311 0.17572 0.0
H3454 H 0.9118 0.52288 0.11976 0.0
H3455 H 0.90121 0.49783 0.17908 0.0
C3456 C 0.90154 0.46753 0.1665 0.0
C3457 C 0.9031 0.45597 0.15014 0.0
C3458 C 0.90899 0.53165 0.13207 0.0
C3459 C 0.90574 0.49921 0.14985 0.0
C3460 C 0.90821 0.55295 0.13113 0.0
C3461 C 0.90442 0.56478 0.14677 0.0
C3462 C 0.90594 0.52199 0.14877 0.0
C3463 C 0.9017 0.5546 0.16329 0.0
C3464 C 0.90282 0.48916 0.16641 0.0
C3465 C 0.90659 0.46667 0.13403 0.0
N3466 N 0.90244 0.53376 0.16384 0.0
N3467 N 0.9077 0.48764 0.1343 0.0
H3468 H 0.43146 0.8433 0.08409 0.0
H3469 H 0.5346 0.90484 0.1037 0.0
H3470 H 0.44164 0.89939 0.11753 0.0
H3471 H 0.52609 0.83959 0.08899 0.0
H3472 H 0.49999 0.90685 0.10021 0.0
H3473 H 0.46565 0.84595 0.077 0.0
C3474 C 0.4408 0.85649 0.08942 0.0
C3475 C 0.43394 0.8711 0.10145 0.0
C3476 C 0.50577 0.89217 0.09753 0.0
C3477 C 0.47267 0.87418 0.0936 0.0
C3478 C 0.5255 0.891 0.09953 0.0
C3479 C 0.53321 0.87194 0.09697 0.0
C3480 C 0.4937 0.87421 0.09278 0.0
C3481 C 0.52073 0.85454 0.09143 0.0
C3482 C 0.46025 0.85791 0.08553 0.0
C3483 C 0.44653 0.88778 0.10827 0.0
N3484 N 0.50157 0.85605 0.08965 0.0
N3485 N 0.46533 0.8888 0.10436 0.0
H3486 H 0.11515 0.5619 0.1782 0.0
H3487 H 0.10531 0.45644 0.11738 0.0
H3488 H 0.10558 0.55842 0.11943 0.0
H3489 H 0.11166 0.4581 0.17642 0.0
H3490 H 0.10492 0.49388 0.11825 0.0
H3491 H 0.11325 0.52405 0.1782 0.0
C3492 C 0.11255 0.55322 0.16531 0.0
C3493 C 0.11062 0.56343 0.14877 0.0
C3494 C 0.10636 0.4861 0.13105 0.0
C3495 C 0.10852 0.5201 0.14871 0.0
C3496 C 0.10661 0.46466 0.13057 0.0
C3497 C 0.10857 0.45403 0.14686 0.0
C3498 C 0.10815 0.49717 0.14793 0.0
C3499 C 0.11014 0.46562 0.16351 0.0
C3500 C 0.11149 0.5316 0.16533 0.0
C3501 C 0.10725 0.55131 0.13252 0.0
N3502 N 0.10996 0.48658 0.16362 0.0
N3503 N 0.10639 0.53035 0.1329 0.0
H3504 H 0.54376 0.91293 0.91228 0.0
H3505 H 0.4435 0.89682 0.8562 0.0
H3506 H 0.53414 0.87843 0.8609 0.0
H3507 H 0.44645 0.90385 0.91525 0.0
H3508 H 0.47825 0.89978 0.85618 0.0
H3509 H 0.50947 0.91897 0.91184 0.0
C3510 C 0.5345 0.90709 0.90074 0.0
C3511 C 0.54159 0.89518 0.8866 0.0
C3512 C 0.4713 0.90083 0.86914 0.0
C3513 C 0.50289 0.90202 0.88596 0.0
C3514 C 0.45142 0.89914 0.8692 0.0
C3515 C 0.44196 0.89973 0.8858 0.0
C3516 C 0.48195 0.90324 0.88576 0.0
C3517 C 0.45314 0.90304 0.90216 0.0
C3518 C 0.51502 0.91037 0.90057 0.0
C3519 C 0.52912 0.88765 0.87206 0.0
N3520 N 0.47262 0.90453 0.90175 0.0
N3521 N 0.51039 0.8912 0.87211 0.0
H3522 H 0.10307 0.45803 0.89597 0.0
H3523 H 0.1071 0.56065 0.83783 0.0
H3524 H 0.10445 0.45787 0.83693 0.0
H3525 H 0.1071 0.5612 0.89694 0.0
H3526 H 0.10566 0.52297 0.8373 0.0
H3527 H 0.10432 0.49575 0.89663 0.0
C3528 C 0.10367 0.4659 0.88313 0.0
C3529 C 0.10364 0.45469 0.86636 0.0
C3530 C 0.10595 0.53131 0.85039 0.0
C3531 C 0.10501 0.49798 0.86704 0.0
C3532 C 0.10675 0.55287 0.85072 0.0
C3533 C 0.10725 0.56418 0.86747 0.0
C3534 C 0.10564 0.52089 0.86692 0.0
C3535 C 0.10674 0.55317 0.8837 0.0
C3536 C 0.10437 0.48747 0.88353 0.0
C3537 C 0.10444 0.4658 0.85019 0.0
N3538 N 0.10599 0.53215 0.88302 0.0
N3539 N 0.10507 0.48681 0.85094 0.0
H3540 H 0.43646 0.12342 0.8606 0.0
H3541 H 0.53423 0.17887 0.90281 0.0
H3542 H 0.4384 0.16012 0.91106 0.0
H3543 H 0.53119 0.12019 0.87282 0.0
H3544 H 0.49908 0.17656 0.90233 0.0
H3545 H 0.47146 0.12639 0.86125 0.0
C3546 C 0.44426 0.13215 0.8718 0.0
C3547 C 0.43455 0.14151 0.88583 0.0
C3548 C 0.50618 0.16424 0.89588 0.0
C3549 C 0.4745 0.14515 0.8865 0.0
C3550 C 0.52617 0.16559 0.89603 0.0
C3551 C 0.53558 0.14968 0.88785 0.0
C3552 C 0.49564 0.14709 0.88714 0.0
C3553 C 0.52449 0.13274 0.87936 0.0
C3554 C 0.4642 0.13376 0.87218 0.0
C3555 C 0.44536 0.15257 0.90005 0.0
N3556 N 0.50508 0.13196 0.87911 0.0
N3557 N 0.46483 0.15424 0.89996 0.0
H3558 H 0.89589 0.484 0.92074 0.0
H3559 H 0.88334 0.5872 0.86619 0.0
H3560 H 0.87816 0.4849 0.8636 0.0
H3561 H 0.90023 0.58772 0.92362 0.0
H3562 H 0.88162 0.54959 0.86523 0.0
H3563 H 0.89795 0.52187 0.92226 0.0
C3564 C 0.89247 0.49213 0.90851 0.0
C3565 C 0.88682 0.48122 0.89202 0.0
C3566 C 0.8857 0.55789 0.87807 0.0
C3567 C 0.88912 0.52451 0.89369 0.0
C3568 C 0.88669 0.57942 0.87863 0.0
C3569 C 0.89196 0.59069 0.89502 0.0
C3570 C 0.89002 0.54743 0.89399 0.0
C3571 C 0.8961 0.57968 0.91069 0.0
C3572 C 0.89363 0.51375 0.9094 0.0
C3573 C 0.88255 0.49259 0.87662 0.0
N3574 N 0.89505 0.55864 0.90978 0.0
N3575 N 0.88378 0.51358 0.87785 0.0
H3576 H 0.68111 0.60572 0.05698 0.0
H3577 H 0.62041 0.58699 0.96238 0.0
H3578 H 0.61975 0.59145 0.05315 0.0
H3579 H 0.68078 0.6074 0.9658 0.0
H3580 H 0.62076 0.58447 0.99554 0.0
H3581 H 0.68196 0.60241 0.02368 0.0
C3582 C 0.66781 0.60174 0.04917 0.0
C3583 C 0.65029 0.59903 0.05793 0.0
C3584 C 0.63397 0.58938 0.98906 0.0
C3585 C 0.65121 0.59525 0.01971 0.0
C3586 C 0.63381 0.5908 0.97007 0.0
C3587 C 0.65057 0.59762 0.96125 0.0
C3588 C 0.65101 0.59482 0.99939 0.0
C3589 C 0.66749 0.60219 0.972 0.0
C3590 C 0.66833 0.59988 0.03013 0.0
C3591 C 0.63357 0.59381 0.04704 0.0
N3592 N 0.66724 0.60084 0.99053 0.0
N3593 N 0.63444 0.5922 0.02851 0.0
H3594 H 0.40217 0.63674 0.96045 0.0
H3595 H 0.33936 0.62684 0.04979 0.0
H3596 H 0.34037 0.63341 0.95929 0.0
H3597 H 0.40122 0.63273 0.05179 0.0
H3598 H 0.3396 0.62867 0.01652 0.0
H3599 H 0.40226 0.63497 0.99384 0.0
C3600 C 0.38863 0.63568 0.96719 0.0
C3601 C 0.37124 0.63521 0.95699 0.0
C3602 C 0.35313 0.62956 0.02422 0.0
C3603 C 0.37125 0.6331 0.99523 0.0
C3604 C 0.35301 0.62848 0.04326 0.0
C3605 C 0.3703 0.62965 0.05367 0.0
C3606 C 0.37066 0.63179 0.01545 0.0
C3607 C 0.38753 0.63178 0.04437 0.0
C3608 C 0.3887 0.63465 0.98626 0.0
C3609 C 0.35414 0.63381 0.96651 0.0
N3610 N 0.38727 0.63279 0.02581 0.0
N3611 N 0.35459 0.63278 0.98505 0.0
H3612 H 0.34205 0.37322 0.05025 0.0
H3613 H 0.40193 0.38805 0.95968 0.0
H3614 H 0.40376 0.38361 0.05093 0.0
H3615 H 0.34016 0.37921 0.95962 0.0
H3616 H 0.40299 0.38607 0.99299 0.0
H3617 H 0.34127 0.37475 0.017 0.0
C3618 C 0.35548 0.37578 0.04342 0.0
C3619 C 0.37302 0.37833 0.05347 0.0
C3620 C 0.38921 0.38458 0.98569 0.0
C3621 C 0.37217 0.38014 0.01523 0.0
C3622 C 0.38857 0.38572 0.96665 0.0
C3623 C 0.37091 0.38379 0.95678 0.0
C3624 C 0.37208 0.38147 0.99499 0.0
C3625 C 0.35411 0.38079 0.96661 0.0
C3626 C 0.35499 0.37668 0.02439 0.0
C3627 C 0.38991 0.38158 0.04379 0.0
N3628 N 0.35512 0.3797 0.98515 0.0
N3629 N 0.38906 0.38242 0.02521 0.0
H3630 H 0.68654 0.42274 0.97935 0.0
H3631 H 0.631 0.43602 0.07164 0.0
H3632 H 0.62592 0.42946 0.9812 0.0
H3633 H 0.69125 0.4273 0.07009 0.0
H3634 H 0.6301 0.43954 0.03854 0.0
H3635 H 0.68959 0.42993 0.01234 0.0
C3636 C 0.67389 0.42593 0.98664 0.0
C3637 C 0.65588 0.42517 0.97749 0.0
C3638 C 0.64358 0.43712 0.04545 0.0
C3639 C 0.6593 0.43337 0.01534 0.0
C3640 C 0.64413 0.43516 0.06439 0.0
C3641 C 0.66118 0.43103 0.07366 0.0
C3642 C 0.66016 0.43482 0.03565 0.0
C3643 C 0.67775 0.43027 0.06352 0.0
C3644 C 0.67566 0.43004 1.0055 0.0
C3645 C 0.64005 0.42963 0.98768 0.0
N3646 N 0.67676 0.43185 0.04502 0.0
N3647 N 0.64211 0.43332 1.00607 0.0
H3648 H 0.93707 0.63645 0.58559 0.0
H3649 H 0.03958 0.59678 0.60907 0.0
H3650 H 0.94544 0.58288 0.61724 0.0
H3651 H 0.0316 0.66082 0.59945 0.0
H3652 H 0.00516 0.58812 0.60397 0.0
H3653 H 0.97196 0.64182 0.58213 0.0
C3654 C 0.94622 0.62547 0.59126 0.0
C3655 C 0.93856 0.60921 0.60168 0.0
C3656 C 0.011 0.60404 0.60285 0.0
C3657 C 0.97805 0.61527 0.59797 0.0
C3658 C 0.03062 0.60901 0.60578 0.0
C3659 C 0.03845 0.62962 0.60497 0.0
C3660 C 0.9991 0.61971 0.59887 0.0
C3661 C 0.02613 0.64478 0.6005 0.0
C3662 C 0.96605 0.62865 0.58948 0.0
C3663 C 0.95092 0.59559 0.60911 0.0
N3664 N 0.00703 0.63953 0.59767 0.0
N3665 N 0.97008 0.59897 0.60718 0.0
H3666 H 0.41013 0.07569 0.66615 0.0
H3667 H 0.39704 0.96884 0.60745 0.0
H3668 H 0.39915 0.07248 0.60756 0.0
H3669 H 0.40718 0.97376 0.66612 0.0
H3670 H 0.39939 1.00667 0.60666 0.0
H3671 H 0.41058 0.03831 0.66582 0.0
C3672 C 0.40783 0.06714 0.65317 0.0
C3673 C 0.40451 0.0773 0.63685 0.0
C3674 C 0.40118 0.99943 0.61968 0.0
C3675 C 0.40501 0.03422 0.63641 0.0
C3676 C 0.39987 0.97784 0.62015 0.0
C3677 C 0.4018 0.96807 0.6369 0.0
C3678 C 0.40446 0.01132 0.63607 0.0
C3679 C 0.40549 0.98055 0.6529 0.0
C3680 C 0.40811 0.04572 0.653 0.0
C3681 C 0.40172 0.06531 0.62047 0.0
N3682 N 0.40662 1.00148 0.65208 0.0
N3683 N 0.40196 0.04437 0.62067 0.0
H3684 H 0.03082 0.35089 0.58359 0.0
H3685 H 0.9451 0.39382 0.63223 0.0
H3686 H 0.03821 0.40762 0.61648 0.0
H3687 H 0.93632 0.35778 0.58153 0.0
H3688 H 0.97912 0.39987 0.62623 0.0
H3689 H 0.99631 0.35368 0.58169 0.0
C3690 C 0.02515 0.36412 0.59018 0.0
C3691 C 0.03728 0.37895 0.60038 0.0
C3692 C 0.96973 0.39094 0.61624 0.0
C3693 C 0.99785 0.38201 0.59854 0.0
C3694 C 0.95035 0.38736 0.61971 0.0
C3695 C 0.938 0.37506 0.60744 0.0
C3696 C 0.97692 0.38171 0.60063 0.0
C3697 C 0.94543 0.36728 0.59134 0.0
C3698 C 0.00549 0.36575 0.58902 0.0
C3699 C 0.0293 0.39586 0.60852 0.0
N3700 N 0.96455 0.37037 0.58857 0.0
N3701 N 0.00998 0.39671 0.60777 0.0
H3702 H 0.61304 0.96046 0.67394 0.0
H3703 H 0.61373 0.0621 0.6144 0.0
H3704 H 0.61186 0.95967 0.6148 0.0
H3705 H 0.61654 0.06393 0.67357 0.0
H3706 H 0.61207 0.02442 0.61447 0.0
H3707 H 0.61357 0.99824 0.67426 0.0
C3708 C 0.61289 0.96819 0.66103 0.0
C3709 C 0.61242 0.9568 0.64432 0.0
C3710 C 0.61301 0.03304 0.62745 0.0
C3711 C 0.61299 1.00006 0.6446 0.0
C3712 C 0.61394 0.05461 0.62743 0.0
C3713 C 0.61533 0.06629 0.64401 0.0
C3714 C 0.61348 0.02297 0.64417 0.0
C3715 C 0.61551 0.05562 0.66044 0.0
C3716 C 0.61319 0.98977 0.66123 0.0
C3717 C 0.61223 0.96772 0.62803 0.0
N3718 N 0.61464 0.03458 0.6601 0.0
N3719 N 0.61252 0.98868 0.62859 0.0
H3720 H 0.03442 0.35933 0.36789 0.0
H3721 H 0.94889 0.41239 0.41046 0.0
H3722 H 0.0452 0.41437 0.40277 0.0
H3723 H 0.94392 0.3815 0.35705 0.0
H3724 H 0.98379 0.41162 0.41 0.0
H3725 H 0.0005 0.36511 0.36584 0.0
C3726 C 0.02962 0.37267 0.37508 0.0
C3727 C 0.04256 0.38637 0.38556 0.0
C3728 C 0.97501 0.40526 0.39833 0.0
C3729 C 0.00381 0.39291 0.38345 0.0
C3730 C 0.95514 0.4056 0.3986 0.0
C3731 C 0.94349 0.39688 0.38381 0.0
C3732 C 0.98316 0.39573 0.38336 0.0
C3733 C 0.95233 0.38839 0.36875 0.0
C3734 C 0.01031 0.37602 0.37382 0.0
C3735 C 0.03564 0.4035 0.39451 0.0
N3736 N 0.97161 0.38777 0.36903 0.0
N3737 N 0.01661 0.40616 0.39346 0.0
H3738 H 0.61214 0.05644 0.33412 0.0
H3739 H 0.60591 0.95495 0.39398 0.0
H3740 H 0.61584 0.05854 0.39328 0.0
H3741 H 0.60455 0.95384 0.33482 0.0
H3742 H 0.6092 0.99282 0.3942 0.0
H3743 H 0.60889 0.01875 0.33433 0.0
C3744 C 0.61227 0.049 0.34718 0.0
C3745 C 0.6143 0.06075 0.36371 0.0
C3746 C 0.60819 0.98426 0.38118 0.0
C3747 C 0.61056 0.01743 0.36403 0.0
C3748 C 0.60631 0.96263 0.38104 0.0
C3749 C 0.60493 0.95113 0.36436 0.0
C3750 C 0.60867 0.99448 0.36453 0.0
C3751 C 0.60554 0.96198 0.34803 0.0
C3752 C 0.61042 0.02743 0.34728 0.0
C3753 C 0.61433 0.05016 0.38019 0.0
N3754 N 0.60735 0.983 0.34854 0.0
N3755 N 0.61249 0.02911 0.37992 0.0
H3756 H 0.93909 0.63164 0.41633 0.0
H3757 H 0.03778 0.68092 0.3794 0.0
H3758 H 0.94173 0.66424 0.36581 0.0
H3759 H 0.03339 0.62353 0.40783 0.0
H3760 H 0.00273 0.68075 0.37922 0.0
H3761 H 0.97423 0.6345 0.41848 0.0
C3762 C 0.94706 0.63958 0.40581 0.0
C3763 C 0.93754 0.64759 0.39081 0.0
C3764 C 0.00953 0.66826 0.38553 0.0
C3765 C 0.97751 0.65111 0.39331 0.0
C3766 C 0.02946 0.66838 0.38568 0.0
C3767 C 0.03844 0.65214 0.39353 0.0
C3768 C 0.99863 0.65208 0.39367 0.0
C3769 C 0.027 0.63623 0.40148 0.0
C3770 C 0.96705 0.6411 0.407 0.0
C3771 C 0.94854 0.65768 0.37752 0.0
N3772 N 0.00768 0.63666 0.40144 0.0
N3773 N 0.96797 0.65923 0.37911 0.0
H3774 H 0.42038 0.97837 0.3881 0.0
H3775 H 0.398 0.08245 0.44022 0.0
H3776 H 0.38714 0.97799 0.43659 0.0
H3777 H 0.43255 0.07856 0.3928 0.0
H3778 H 0.39797 0.04467 0.443 0.0
H3779 H 0.42937 0.01511 0.39349 0.0
C3780 C 0.41515 0.9861 0.40005 0.0
C3781 C 0.40287 0.97531 0.41181 0.0
C3782 C 0.40586 0.0522 0.43224 0.0
C3783 C 0.41264 0.01767 0.41789 0.0
C3784 C 0.40596 0.07372 0.43071 0.0
C3785 C 0.41506 0.08346 0.4161 0.0
C3786 C 0.41504 0.04064 0.41911 0.0
C3787 C 0.42509 0.07156 0.40409 0.0
C3788 C 0.42027 1.00711 0.40315 0.0
C3789 C 0.39663 0.98591 0.4272 0.0
N3790 N 0.42466 0.05082 0.40577 0.0
N3791 N 0.40128 1.00671 0.42963 0.0
loop_
_geom_bond_atom_site_label_1
_geom_bond_atom_site_label_2
_geom_bond_distance
_geom_bond_site_symmetry_2
_ccdc_geom_bond_type
Co0 O3 1.970 . S
Co0 N17 1.989 . S
Co0 O25 1.967 . S
Co0 O32 1.920 . S
Co1 O4 1.966 . S
Co1 N10 2.022 . S
Co1 N18 1.993 . S
Co1 O26 1.941 . S
C2 O3 1.258 . S
C2 O4 1.263 . S
O3 Co0 1.970 . S
O3 C2 1.258 . S
O4 Co1 1.966 . S
O4 C2 1.263 . S
C5 O6 1.235 . S
C5 O32 1.289 . S
O6 C5 1.235 . S
C7 C9 1.400 . S
C7 N10 1.351 . S
C7 C12 1.501 . S
C8 C9 1.387 . S
C8 N11 1.341 . S
C9 C7 1.400 . S
C9 C8 1.387 . S
N10 Co1 2.022 . S
N10 C7 1.351 . S
N10 N11 1.365 . S
N11 C8 1.341 . S
N11 N10 1.365 . S
N11 H31 0.862 . S
C12 C7 1.501 . S
C12 H13 0.961 . S
C12 H14 0.961 . S
C12 H15 0.960 . S
H13 C12 0.961 . S
H14 C12 0.961 . S
H15 C12 0.960 . S
C16 N17 1.342 . S
C16 C20 1.401 . S
C16 C21 1.499 . S
N17 Co0 1.989 . S
N17 C16 1.342 . S
N17 N18 1.388 . S
N18 Co1 1.993 . S
N18 N17 1.388 . S
N18 C19 1.346 . S
C19 N18 1.346 . S
C19 C20 1.396 . S
C19 C29 1.510 . S
C20 C16 1.401 . S
C20 C19 1.396 . S
C21 C16 1.499 . S
C21 H22 0.959 . S
C21 H23 0.960 . S
C21 H24 0.961 . S
H22 C21 0.959 . S
H23 C21 0.960 . S
H24 C21 0.961 . S
O25 Co0 1.967 . S
O25 C33 1.258 . S
O26 Co1 1.941 . S
O26 C33 1.266 . S
H27 C29 0.959 . S
H28 C29 0.961 . S
C29 C19 1.510 . S
C29 H27 0.959 . S
C29 H28 0.961 . S
C29 H30 0.960 . S
H30 C29 0.960 . S
H31 N11 0.862 . S
O32 Co0 1.920 . S
O32 C5 1.289 . S
C33 O25 1.258 . S
C33 O26 1.266 . S
Co34 O37 1.970 . S
Co34 N51 1.989 . S
Co34 O59 1.967 . S
Co34 O66 1.920 . S
Co35 O38 1.966 . S
Co35 N44 2.022 . S
Co35 N52 1.993 . S
Co35 O60 1.941 . S
C36 O37 1.258 . S
C36 O38 1.263 . S
O37 Co34 1.970 . S
O37 C36 1.258 . S
O38 Co35 1.966 . S
O38 C36 1.263 . S
C39 O40 1.235 . S
C39 O66 1.289 . S
O40 C39 1.235 . S
C41 C43 1.400 . S
C41 N44 1.351 . S
C41 C46 1.501 . S
C42 C43 1.387 . S
C42 N45 1.341 . S
C43 C41 1.400 . S
C43 C42 1.387 . S
N44 Co35 2.022 . S
N44 C41 1.351 . S
N44 N45 1.365 . S
N45 C42 1.341 . S
N45 N44 1.365 . S
N45 H65 0.862 . S
C46 C41 1.501 . S
C46 H47 0.961 . S
C46 H48 0.961 . S
C46 H49 0.960 . S
H47 C46 0.961 . S
H48 C46 0.961 . S
H49 C46 0.960 . S
C50 N51 1.342 . S
C50 C54 1.401 . S
C50 C55 1.499 . S
N51 Co34 1.989 . S
N51 C50 1.342 . S
N51 N52 1.388 . S
N52 Co35 1.993 . S
N52 N51 1.388 . S
N52 C53 1.346 . S
C53 N52 1.346 . S
C53 C54 1.396 . S
C53 C63 1.510 . S
C54 C50 1.401 . S
C54 C53 1.396 . S
C55 C50 1.499 . S
C55 H56 0.959 . S
C55 H57 0.960 . S
C55 H58 0.961 . S
H56 C55 0.959 . S
H57 C55 0.960 . S
H58 C55 0.961 . S
O59 Co34 1.967 . S
O59 C67 1.258 . S
O60 Co35 1.941 . S
O60 C67 1.266 . S
H61 C63 0.959 . S
H62 C63 0.961 . S
C63 C53 1.510 . S
C63 H61 0.959 . S
C63 H62 0.961 . S
C63 H64 0.960 . S
H64 C63 0.960 . S
H65 N45 0.862 . S
O66 Co34 1.920 . S
O66 C39 1.289 . S
C67 O59 1.258 . S
C67 O60 1.266 . S
Co68 O71 1.970 . S
Co68 N85 1.989 . S
Co68 O93 1.967 . S
Co68 O100 1.920 . S
Co69 O72 1.966 . S
Co69 N78 2.022 . S
Co69 N86 1.993 . S
Co69 O94 1.941 . S
C70 O71 1.258 . S
C70 O72 1.263 . S
O71 Co68 1.970 . S
O71 C70 1.258 . S
O72 Co69 1.966 . S
O72 C70 1.263 . S
C73 O74 1.235 . S
C73 O100 1.289 . S
O74 C73 1.235 . S
C75 C77 1.400 . S
C75 N78 1.351 . S
C75 C80 1.501 . S
C76 C77 1.387 . S
C76 N79 1.341 . S
C77 C75 1.400 . S
C77 C76 1.387 . S
N78 Co69 2.022 . S
N78 C75 1.351 . S
N78 N79 1.365 . S
N79 C76 1.341 . S
N79 N78 1.365 . S
N79 H99 0.862 . S
C80 C75 1.501 . S
C80 H81 0.961 . S
C80 H82 0.961 . S
C80 H83 0.960 . S
H81 C80 0.961 . S
H82 C80 0.961 . S
H83 C80 0.960 . S
C84 N85 1.342 . S
C84 C88 1.401 . S
C84 C89 1.499 . S
N85 Co68 1.989 . S
N85 C84 1.342 . S
N85 N86 1.388 . S
N86 Co69 1.993 . S
N86 N85 1.388 . S
N86 C87 1.346 . S
C87 N86 1.346 . S
C87 C88 1.396 . S
C87 C97 1.510 . S
C88 C84 1.401 . S
C88 C87 1.396 . S
C89 C84 1.499 . S
C89 H90 0.959 . S
C89 H91 0.960 . S
C89 H92 0.961 . S
H90 C89 0.959 . S
H91 C89 0.960 . S
H92 C89 0.961 . S
O93 Co68 1.967 . S
O93 C101 1.258 . S
O94 Co69 1.941 . S
O94 C101 1.266 . S
H95 C97 0.959 . S
H96 C97 0.961 . S
C97 C87 1.510 . S
C97 H95 0.959 . S
C97 H96 0.961 . S
C97 H98 0.960 . S
H98 C97 0.960 . S
H99 N79 0.862 . S
O100 Co68 1.920 . S
O100 C73 1.289 . S
C101 O93 1.258 . S
C101 O94 1.266 . S
Co102 O105 1.970 . S
Co102 N119 1.989 . S
Co102 O127 1.967 . S
Co102 O134 1.920 . S
Co103 O106 1.966 . S
Co103 N112 2.022 . S
Co103 N120 1.993 . S
Co103 O128 1.941 . S
C104 O105 1.258 . S
C104 O106 1.263 . S
O105 Co102 1.970 . S
O105 C104 1.258 . S
O106 Co103 1.966 . S
O106 C104 1.263 . S
C107 O108 1.235 . S
C107 O134 1.289 . S
O108 C107 1.235 . S
C109 C111 1.400 . S
C109 N112 1.351 . S
C109 C114 1.501 . S
C110 C111 1.387 . S
C110 N113 1.341 . S
C111 C109 1.400 . S
C111 C110 1.387 . S
N112 Co103 2.022 . S
N112 C109 1.351 . S
N112 N113 1.365 . S
N113 C110 1.341 . S
N113 N112 1.365 . S
N113 H133 0.862 . S
C114 C109 1.501 . S
C114 H115 0.961 . S
C114 H116 0.961 . S
C114 H117 0.960 . S
H115 C114 0.961 . S
H116 C114 0.961 . S
H117 C114 0.960 . S
C118 N119 1.342 . S
C118 C122 1.401 . S
C118 C123 1.499 . S
N119 Co102 1.989 . S
N119 C118 1.342 . S
N119 N120 1.388 . S
N120 Co103 1.993 . S
N120 N119 1.388 . S
N120 C121 1.346 . S
C121 N120 1.346 . S
C121 C122 1.396 . S
C121 C131 1.510 . S
C122 C118 1.401 . S
C122 C121 1.396 . S
C123 C118 1.499 . S
C123 H124 0.959 . S
C123 H125 0.960 . S
C123 H126 0.961 . S
H124 C123 0.959 . S
H125 C123 0.960 . S
H126 C123 0.961 . S
O127 Co102 1.967 . S
O127 C135 1.258 . S
O128 Co103 1.941 . S
O128 C135 1.266 . S
H129 C131 0.959 . S
H130 C131 0.961 . S
C131 C121 1.510 . S
C131 H129 0.959 . S
C131 H130 0.961 . S
C131 H132 0.960 . S
H132 C131 0.960 . S
H133 N113 0.862 . S
O134 Co102 1.920 . S
O134 C107 1.289 . S
C135 O127 1.258 . S
C135 O128 1.266 . S
Co136 O139 1.970 . S
Co136 N153 1.989 . S
Co136 O161 1.967 . S
Co136 O168 1.920 . S
Co137 O140 1.966 . S
Co137 N146 2.022 . S
Co137 N154 1.993 . S
Co137 O162 1.941 . S
C138 O139 1.258 . S
C138 O140 1.263 . S
O139 Co136 1.970 . S
O139 C138 1.258 . S
O140 Co137 1.966 . S
O140 C138 1.263 . S
C141 O142 1.235 . S
C141 O168 1.289 . S
O142 C141 1.235 . S
C143 C145 1.400 . S
C143 N146 1.351 . S
C143 C148 1.501 . S
C144 C145 1.387 . S
C144 N147 1.341 . S
C145 C143 1.400 . S
C145 C144 1.387 . S
N146 Co137 2.022 . S
N146 C143 1.351 . S
N146 N147 1.365 . S
N147 C144 1.341 . S
N147 N146 1.365 . S
N147 H167 0.862 . S
C148 C143 1.501 . S
C148 H149 0.961 . S
C148 H150 0.961 . S
C148 H151 0.960 . S
H149 C148 0.961 . S
H150 C148 0.961 . S
H151 C148 0.960 . S
C152 N153 1.342 . S
C152 C156 1.401 . S
C152 C157 1.499 . S
N153 Co136 1.989 . S
N153 C152 1.342 . S
N153 N154 1.388 . S
N154 Co137 1.993 . S
N154 N153 1.388 . S
N154 C155 1.346 . S
C155 N154 1.346 . S
C155 C156 1.396 . S
C155 C165 1.510 . S
C156 C152 1.401 . S
C156 C155 1.396 . S
C157 C152 1.499 . S
C157 H158 0.959 . S
C157 H159 0.960 . S
C157 H160 0.961 . S
H158 C157 0.959 . S
H159 C157 0.960 . S
H160 C157 0.961 . S
O161 Co136 1.967 . S
O161 C169 1.258 . S
O162 Co137 1.941 . S
O162 C169 1.266 . S
H163 C165 0.959 . S
H164 C165 0.961 . S
C165 C155 1.510 . S
C165 H163 0.959 . S
C165 H164 0.961 . S
C165 H166 0.960 . S
H166 C165 0.960 . S
H167 N147 0.862 . S
O168 Co136 1.920 . S
O168 C141 1.289 . S
C169 O161 1.258 . S
C169 O162 1.266 . S
Co170 O173 1.970 . S
Co170 N187 1.989 . S
Co170 O195 1.967 . S
Co170 O202 1.920 . S
Co171 O174 1.966 . S
Co171 N180 2.022 . S
Co171 N188 1.993 . S
Co171 O196 1.941 . S
C172 O173 1.258 . S
C172 O174 1.263 . S
O173 Co170 1.970 . S
O173 C172 1.258 . S
O174 Co171 1.966 . S
O174 C172 1.263 . S
C175 O176 1.235 . S
C175 O202 1.289 . S
O176 C175 1.235 . S
C177 C179 1.400 . S
C177 N180 1.351 . S
C177 C182 1.501 . S
C178 C179 1.387 . S
C178 N181 1.341 . S
C179 C177 1.400 . S
C179 C178 1.387 . S
N180 Co171 2.022 . S
N180 C177 1.351 . S
N180 N181 1.365 . S
N181 C178 1.341 . S
N181 N180 1.365 . S
N181 H201 0.862 . S
C182 C177 1.501 . S
C182 H183 0.961 . S
C182 H184 0.961 . S
C182 H185 0.960 . S
H183 C182 0.961 . S
H184 C182 0.961 . S
H185 C182 0.960 . S
C186 N187 1.342 . S
C186 C190 1.401 . S
C186 C191 1.499 . S
N187 Co170 1.989 . S
N187 C186 1.342 . S
N187 N188 1.388 . S
N188 Co171 1.993 . S
N188 N187 1.388 . S
N188 C189 1.346 . S
C189 N188 1.346 . S
C189 C190 1.396 . S
C189 C199 1.510 . S
C190 C186 1.401 . S
C190 C189 1.396 . S
C191 C186 1.499 . S
C191 H192 0.959 . S
C191 H193 0.960 . S
C191 H194 0.961 . S
H192 C191 0.959 . S
H193 C191 0.960 . S
H194 C191 0.961 . S
O195 Co170 1.967 . S
O195 C203 1.258 . S
O196 Co171 1.941 . S
O196 C203 1.266 . S
H197 C199 0.959 . S
H198 C199 0.961 . S
C199 C189 1.510 . S
C199 H197 0.959 . S
C199 H198 0.961 . S
C199 H200 0.960 . S
H200 C199 0.960 . S
H201 N181 0.862 . S
O202 Co170 1.920 . S
O202 C175 1.289 . S
C203 O195 1.258 . S
C203 O196 1.266 . S
Co204 O207 1.970 . S
Co204 N221 1.989 . S
Co204 O229 1.967 . S
Co204 O236 1.920 . S
Co205 O208 1.966 . S
Co205 N214 2.022 . S
Co205 N222 1.993 . S
Co205 O230 1.941 . S
C206 O207 1.258 . S
C206 O208 1.263 . S
O207 Co204 1.970 . S
O207 C206 1.258 . S
O208 Co205 1.966 . S
O208 C206 1.263 . S
C209 O210 1.235 . S
C209 O236 1.289 . S
O210 C209 1.235 . S
C211 C213 1.400 . S
C211 N214 1.351 . S
C211 C216 1.501 . S
C212 C213 1.387 . S
C212 N215 1.341 . S
C213 C211 1.400 . S
C213 C212 1.387 . S
N214 Co205 2.022 . S
N214 C211 1.351 . S
N214 N215 1.365 . S
N215 C212 1.341 . S
N215 N214 1.365 . S
N215 H235 0.862 . S
C216 C211 1.501 . S
C216 H217 0.961 . S
C216 H218 0.961 . S
C216 H219 0.960 . S
H217 C216 0.961 . S
H218 C216 0.961 . S
H219 C216 0.960 . S
C220 N221 1.342 . S
C220 C224 1.401 . S
C220 C225 1.499 . S
N221 Co204 1.989 . S
N221 C220 1.342 . S
N221 N222 1.388 . S
N222 Co205 1.993 . S
N222 N221 1.388 . S
N222 C223 1.346 . S
C223 N222 1.346 . S
C223 C224 1.396 . S
C223 C233 1.510 . S
C224 C220 1.401 . S
C224 C223 1.396 . S
C225 C220 1.499 . S
C225 H226 0.959 . S
C225 H227 0.960 . S
C225 H228 0.961 . S
H226 C225 0.959 . S
H227 C225 0.960 . S
H228 C225 0.961 . S
O229 Co204 1.967 . S
O229 C237 1.258 . S
O230 Co205 1.941 . S
O230 C237 1.266 . S
H231 C233 0.959 . S
H232 C233 0.961 . S
C233 C223 1.510 . S
C233 H231 0.959 . S
C233 H232 0.961 . S
C233 H234 0.960 . S
H234 C233 0.960 . S
H235 N215 0.862 . S
O236 Co204 1.920 . S
O236 C209 1.289 . S
C237 O229 1.258 . S
C237 O230 1.266 . S
Co238 O241 1.970 . S
Co238 N255 1.989 . S
Co238 O263 1.967 . S
Co238 O270 1.920 . S
Co239 O242 1.966 . S
Co239 N248 2.022 . S
Co239 N256 1.993 . S
Co239 O264 1.941 . S
C240 O241 1.258 . S
C240 O242 1.263 . S
O241 Co238 1.970 . S
O241 C240 1.258 . S
O242 Co239 1.966 . S
O242 C240 1.263 . S
C243 O244 1.235 . S
C243 O270 1.289 . S
O244 C243 1.235 . S
C245 C247 1.400 . S
C245 N248 1.351 . S
C245 C250 1.501 . S
C246 C247 1.387 . S
C246 N249 1.341 . S
C247 C245 1.400 . S
C247 C246 1.387 . S
N248 Co239 2.022 . S
N248 C245 1.351 . S
N248 N249 1.365 . S
N249 C246 1.341 . S
N249 N248 1.365 . S
N249 H269 0.862 . S
C250 C245 1.501 . S
C250 H251 0.961 . S
C250 H252 0.961 . S
C250 H253 0.960 . S
H251 C250 0.961 . S
H252 C250 0.961 . S
H253 C250 0.960 . S
C254 N255 1.342 . S
C254 C258 1.401 . S
C254 C259 1.499 . S
N255 Co238 1.989 . S
N255 C254 1.342 . S
N255 N256 1.388 . S
N256 Co239 1.993 . S
N256 N255 1.388 . S
N256 C257 1.346 . S
C257 N256 1.346 . S
C257 C258 1.396 . S
C257 C267 1.510 . S
C258 C254 1.401 . S
C258 C257 1.396 . S
C259 C254 1.499 . S
C259 H260 0.959 . S
C259 H261 0.960 . S
C259 H262 0.961 . S
H260 C259 0.959 . S
H261 C259 0.960 . S
H262 C259 0.961 . S
O263 Co238 1.967 . S
O263 C271 1.258 . S
O264 Co239 1.941 . S
O264 C271 1.266 . S
H265 C267 0.959 . S
H266 C267 0.961 . S
C267 C257 1.510 . S
C267 H265 0.959 . S
C267 H266 0.961 . S
C267 H268 0.960 . S
H268 C267 0.960 . S
H269 N249 0.862 . S
O270 Co238 1.920 . S
O270 C243 1.289 . S
C271 O263 1.258 . S
C271 O264 1.266 . S
Co272 O275 1.970 . S
Co272 N289 1.989 . S
Co272 O297 1.967 . S
Co272 O304 1.920 . S
Co273 O276 1.966 . S
Co273 N282 2.022 . S
Co273 N290 1.993 . S
Co273 O298 1.941 . S
C274 O275 1.258 . S
C274 O276 1.263 . S
O275 Co272 1.970 . S
O275 C274 1.258 . S
O276 Co273 1.966 . S
O276 C274 1.263 . S
C277 O278 1.235 . S
C277 O304 1.289 . S
O278 C277 1.235 . S
C279 C281 1.400 . S
C279 N282 1.351 . S
C279 C284 1.501 . S
C280 C281 1.387 . S
C280 N283 1.341 . S
C281 C279 1.400 . S
C281 C280 1.387 . S
N282 Co273 2.022 . S
N282 C279 1.351 . S
N282 N283 1.365 . S
N283 C280 1.341 . S
N283 N282 1.365 . S
N283 H303 0.862 . S
C284 C279 1.501 . S
C284 H285 0.961 . S
C284 H286 0.961 . S
C284 H287 0.960 . S
H285 C284 0.961 . S
H286 C284 0.961 . S
H287 C284 0.960 . S
C288 N289 1.342 . S
C288 C292 1.401 . S
C288 C293 1.499 . S
N289 Co272 1.989 . S
N289 C288 1.342 . S
N289 N290 1.388 . S
N290 Co273 1.993 . S
N290 N289 1.388 . S
N290 C291 1.346 . S
C291 N290 1.346 . S
C291 C292 1.396 . S
C291 C301 1.510 . S
C292 C288 1.401 . S
C292 C291 1.396 . S
C293 C288 1.499 . S
C293 H294 0.959 . S
C293 H295 0.960 . S
C293 H296 0.961 . S
H294 C293 0.959 . S
H295 C293 0.960 . S
H296 C293 0.961 . S
O297 Co272 1.967 . S
O297 C305 1.258 . S
O298 Co273 1.941 . S
O298 C305 1.266 . S
H299 C301 0.959 . S
H300 C301 0.961 . S
C301 C291 1.510 . S
C301 H299 0.959 . S
C301 H300 0.961 . S
C301 H302 0.960 . S
H302 C301 0.960 . S
H303 N283 0.862 . S
O304 Co272 1.920 . S
O304 C277 1.289 . S
C305 O297 1.258 . S
C305 O298 1.266 . S
Co306 O309 1.970 . S
Co306 N323 1.989 . S
Co306 O331 1.967 . S
Co306 O338 1.920 . S
Co307 O310 1.966 . S
Co307 N316 2.022 . S
Co307 N324 1.993 . S
Co307 O332 1.941 . S
C308 O309 1.258 . S
C308 O310 1.263 . S
O309 Co306 1.970 . S
O309 C308 1.258 . S
O310 Co307 1.966 . S
O310 C308 1.263 . S
C311 O312 1.235 . S
C311 O338 1.289 . S
O312 C311 1.235 . S
C313 C315 1.400 . S
C313 N316 1.351 . S
C313 C318 1.501 . S
C314 C315 1.387 . S
C314 N317 1.341 . S
C315 C313 1.400 . S
C315 C314 1.387 . S
N316 Co307 2.022 . S
N316 C313 1.351 . S
N316 N317 1.365 . S
N317 C314 1.341 . S
N317 N316 1.365 . S
N317 H337 0.862 . S
C318 C313 1.501 . S
C318 H319 0.961 . S
C318 H320 0.961 . S
C318 H321 0.960 . S
H319 C318 0.961 . S
H320 C318 0.961 . S
H321 C318 0.960 . S
C322 N323 1.342 . S
C322 C326 1.401 . S
C322 C327 1.499 . S
N323 Co306 1.989 . S
N323 C322 1.342 . S
N323 N324 1.388 . S
N324 Co307 1.993 . S
N324 N323 1.388 . S
N324 C325 1.346 . S
C325 N324 1.346 . S
C325 C326 1.396 . S
C325 C335 1.510 . S
C326 C322 1.401 . S
C326 C325 1.396 . S
C327 C322 1.499 . S
C327 H328 0.959 . S
C327 H329 0.960 . S
C327 H330 0.961 . S
H328 C327 0.959 . S
H329 C327 0.960 . S
H330 C327 0.961 . S
O331 Co306 1.967 . S
O331 C339 1.258 . S
O332 Co307 1.941 . S
O332 C339 1.266 . S
H333 C335 0.959 . S
H334 C335 0.961 . S
C335 C325 1.510 . S
C335 H333 0.959 . S
C335 H334 0.961 . S
C335 H336 0.960 . S
H336 C335 0.960 . S
H337 N317 0.862 . S
O338 Co306 1.920 . S
O338 C311 1.289 . S
C339 O331 1.258 . S
C339 O332 1.266 . S
Co340 O343 1.970 . S
Co340 N357 1.989 . S
Co340 O365 1.967 . S
Co340 O372 1.920 . S
Co341 O344 1.966 . S
Co341 N350 2.022 . S
Co341 N358 1.993 . S
Co341 O366 1.941 . S
C342 O343 1.258 . S
C342 O344 1.263 . S
O343 Co340 1.970 . S
O343 C342 1.258 . S
O344 Co341 1.966 . S
O344 C342 1.263 . S
C345 O346 1.235 . S
C345 O372 1.289 . S
O346 C345 1.235 . S
C347 C349 1.400 . S
C347 N350 1.351 . S
C347 C352 1.501 . S
C348 C349 1.387 . S
C348 N351 1.341 . S
C349 C347 1.400 . S
C349 C348 1.387 . S
N350 Co341 2.022 . S
N350 C347 1.351 . S
N350 N351 1.365 . S
N351 C348 1.341 . S
N351 N350 1.365 . S
N351 H371 0.862 . S
C352 C347 1.501 . S
C352 H353 0.961 . S
C352 H354 0.961 . S
C352 H355 0.960 . S
H353 C352 0.961 . S
H354 C352 0.961 . S
H355 C352 0.960 . S
C356 N357 1.342 . S
C356 C360 1.401 . S
C356 C361 1.499 . S
N357 Co340 1.989 . S
N357 C356 1.342 . S
N357 N358 1.388 . S
N358 Co341 1.993 . S
N358 N357 1.388 . S
N358 C359 1.346 . S
C359 N358 1.346 . S
C359 C360 1.396 . S
C359 C369 1.510 . S
C360 C356 1.401 . S
C360 C359 1.396 . S
C361 C356 1.499 . S
C361 H362 0.959 . S
C361 H363 0.960 . S
C361 H364 0.961 . S
H362 C361 0.959 . S
H363 C361 0.960 . S
H364 C361 0.961 . S
O365 Co340 1.967 . S
O365 C373 1.258 . S
O366 Co341 1.941 . S
O366 C373 1.266 . S
H367 C369 0.959 . S
H368 C369 0.961 . S
C369 C359 1.510 . S
C369 H367 0.959 . S
C369 H368 0.961 . S
C369 H370 0.960 . S
H370 C369 0.960 . S
H371 N351 0.862 . S
O372 Co340 1.920 . S
O372 C345 1.289 . S
C373 O365 1.258 . S
C373 O366 1.266 . S
Co374 O377 1.970 . S
Co374 N391 1.989 . S
Co374 O399 1.967 . S
Co374 O406 1.920 . S
Co375 O378 1.966 . S
Co375 N384 2.022 . S
Co375 N392 1.993 . S
Co375 O400 1.941 . S
C376 O377 1.258 . S
C376 O378 1.263 . S
O377 Co374 1.970 . S
O377 C376 1.258 . S
O378 Co375 1.966 . S
O378 C376 1.263 . S
C379 O380 1.235 . S
C379 O406 1.289 . S
O380 C379 1.235 . S
C381 C383 1.400 . S
C381 N384 1.351 . S
C381 C386 1.501 . S
C382 C383 1.387 . S
C382 N385 1.341 . S
C383 C381 1.400 . S
C383 C382 1.387 . S
N384 Co375 2.022 . S
N384 C381 1.351 . S
N384 N385 1.365 . S
N385 C382 1.341 . S
N385 N384 1.365 . S
N385 H405 0.862 . S
C386 C381 1.501 . S
C386 H387 0.961 . S
C386 H388 0.961 . S
C386 H389 0.960 . S
H387 C386 0.961 . S
H388 C386 0.961 . S
H389 C386 0.960 . S
C390 N391 1.342 . S
C390 C394 1.401 . S
C390 C395 1.499 . S
N391 Co374 1.989 . S
N391 C390 1.342 . S
N391 N392 1.388 . S
N392 Co375 1.993 . S
N392 N391 1.388 . S
N392 C393 1.346 . S
C393 N392 1.346 . S
C393 C394 1.396 . S
C393 C403 1.510 . S
C394 C390 1.401 . S
C394 C393 1.396 . S
C395 C390 1.499 . S
C395 H396 0.959 . S
C395 H397 0.960 . S
C395 H398 0.961 . S
H396 C395 0.959 . S
H397 C395 0.960 . S
H398 C395 0.961 . S
O399 Co374 1.967 . S
O399 C407 1.258 . S
O400 Co375 1.941 . S
O400 C407 1.266 . S
H401 C403 0.959 . S
H402 C403 0.961 . S
C403 C393 1.510 . S
C403 H401 0.959 . S
C403 H402 0.961 . S
C403 H404 0.960 . S
H404 C403 0.960 . S
H405 N385 0.862 . S
O406 Co374 1.920 . S
O406 C379 1.289 . S
C407 O399 1.258 . S
C407 O400 1.266 . S
Co408 O411 1.970 . S
Co408 N425 1.989 . S
Co408 O433 1.967 . S
Co408 O440 1.920 . S
Co409 O412 1.966 . S
Co409 N418 2.022 . S
Co409 N426 1.993 . S
Co409 O434 1.941 . S
C410 O411 1.258 . S
C410 O412 1.263 . S
O411 Co408 1.970 . S
O411 C410 1.258 . S
O412 Co409 1.966 . S
O412 C410 1.263 . S
C413 O414 1.235 . S
C413 O440 1.289 . S
O414 C413 1.235 . S
C415 C417 1.400 . S
C415 N418 1.351 . S
C415 C420 1.501 . S
C416 C417 1.387 . S
C416 N419 1.341 . S
C417 C415 1.400 . S
C417 C416 1.387 . S
N418 Co409 2.022 . S
N418 C415 1.351 . S
N418 N419 1.365 . S
N419 C416 1.341 . S
N419 N418 1.365 . S
N419 H439 0.862 . S
C420 C415 1.501 . S
C420 H421 0.961 . S
C420 H422 0.961 . S
C420 H423 0.960 . S
H421 C420 0.961 . S
H422 C420 0.961 . S
H423 C420 0.960 . S
C424 N425 1.342 . S
C424 C428 1.401 . S
C424 C429 1.499 . S
N425 Co408 1.989 . S
N425 C424 1.342 . S
N425 N426 1.388 . S
N426 Co409 1.993 . S
N426 N425 1.388 . S
N426 C427 1.346 . S
C427 N426 1.346 . S
C427 C428 1.396 . S
C427 C437 1.510 . S
C428 C424 1.401 . S
C428 C427 1.396 . S
C429 C424 1.499 . S
C429 H430 0.959 . S
C429 H431 0.960 . S
C429 H432 0.961 . S
H430 C429 0.959 . S
H431 C429 0.960 . S
H432 C429 0.961 . S
O433 Co408 1.967 . S
O433 C441 1.258 . S
O434 Co409 1.941 . S
O434 C441 1.266 . S
H435 C437 0.959 . S
H436 C437 0.961 . S
C437 C427 1.510 . S
C437 H435 0.959 . S
C437 H436 0.961 . S
C437 H438 0.960 . S
H438 C437 0.960 . S
H439 N419 0.862 . S
O440 Co408 1.920 . S
O440 C413 1.289 . S
C441 O433 1.258 . S
C441 O434 1.266 . S
Co442 O445 1.970 . S
Co442 N459 1.989 . S
Co442 O467 1.967 . S
Co442 O474 1.920 . S
Co443 O446 1.966 . S
Co443 N452 2.022 . S
Co443 N460 1.993 . S
Co443 O468 1.941 . S
C444 O445 1.258 . S
C444 O446 1.263 . S
O445 Co442 1.970 . S
O445 C444 1.258 . S
O446 Co443 1.966 . S
O446 C444 1.263 . S
C447 O448 1.235 . S
C447 O474 1.289 . S
O448 C447 1.235 . S
C449 C451 1.400 . S
C449 N452 1.351 . S
C449 C454 1.501 . S
C450 C451 1.387 . S
C450 N453 1.341 . S
C451 C449 1.400 . S
C451 C450 1.387 . S
N452 Co443 2.022 . S
N452 C449 1.351 . S
N452 N453 1.365 . S
N453 C450 1.341 . S
N453 N452 1.365 . S
N453 H473 0.862 . S
C454 C449 1.501 . S
C454 H455 0.961 . S
C454 H456 0.961 . S
C454 H457 0.960 . S
H455 C454 0.961 . S
H456 C454 0.961 . S
H457 C454 0.960 . S
C458 N459 1.342 . S
C458 C462 1.401 . S
C458 C463 1.499 . S
N459 Co442 1.989 . S
N459 C458 1.342 . S
N459 N460 1.388 . S
N460 Co443 1.993 . S
N460 N459 1.388 . S
N460 C461 1.346 . S
C461 N460 1.346 . S
C461 C462 1.396 . S
C461 C471 1.510 . S
C462 C458 1.401 . S
C462 C461 1.396 . S
C463 C458 1.499 . S
C463 H464 0.959 . S
C463 H465 0.960 . S
C463 H466 0.961 . S
H464 C463 0.959 . S
H465 C463 0.960 . S
H466 C463 0.961 . S
O467 Co442 1.967 . S
O467 C475 1.258 . S
O468 Co443 1.941 . S
O468 C475 1.266 . S
H469 C471 0.959 . S
H470 C471 0.961 . S
C471 C461 1.510 . S
C471 H469 0.959 . S
C471 H470 0.961 . S
C471 H472 0.960 . S
H472 C471 0.960 . S
H473 N453 0.862 . S
O474 Co442 1.920 . S
O474 C447 1.289 . S
C475 O467 1.258 . S
C475 O468 1.266 . S
Co476 O479 1.970 . S
Co476 N493 1.989 . S
Co476 O501 1.967 . S
Co476 O508 1.920 . S
Co477 O480 1.966 . S
Co477 N486 2.022 . S
Co477 N494 1.993 . S
Co477 O502 1.941 . S
C478 O479 1.258 . S
C478 O480 1.263 . S
O479 Co476 1.970 . S
O479 C478 1.258 . S
O480 Co477 1.966 . S
O480 C478 1.263 . S
C481 O482 1.235 . S
C481 O508 1.289 . S
O482 C481 1.235 . S
C483 C485 1.400 . S
C483 N486 1.351 . S
C483 C488 1.501 . S
C484 C485 1.387 . S
C484 N487 1.341 . S
C485 C483 1.400 . S
C485 C484 1.387 . S
N486 Co477 2.022 . S
N486 C483 1.351 . S
N486 N487 1.365 . S
N487 C484 1.341 . S
N487 N486 1.365 . S
N487 H507 0.862 . S
C488 C483 1.501 . S
C488 H489 0.961 . S
C488 H490 0.961 . S
C488 H491 0.960 . S
H489 C488 0.961 . S
H490 C488 0.961 . S
H491 C488 0.960 . S
C492 N493 1.342 . S
C492 C496 1.401 . S
C492 C497 1.499 . S
N493 Co476 1.989 . S
N493 C492 1.342 . S
N493 N494 1.388 . S
N494 Co477 1.993 . S
N494 N493 1.388 . S
N494 C495 1.346 . S
C495 N494 1.346 . S
C495 C496 1.396 . S
C495 C505 1.510 . S
C496 C492 1.401 . S
C496 C495 1.396 . S
C497 C492 1.499 . S
C497 H498 0.959 . S
C497 H499 0.960 . S
C497 H500 0.961 . S
H498 C497 0.959 . S
H499 C497 0.960 . S
H500 C497 0.961 . S
O501 Co476 1.967 . S
O501 C509 1.258 . S
O502 Co477 1.941 . S
O502 C509 1.266 . S
H503 C505 0.959 . S
H504 C505 0.961 . S
C505 C495 1.510 . S
C505 H503 0.959 . S
C505 H504 0.961 . S
C505 H506 0.960 . S
H506 C505 0.960 . S
H507 N487 0.862 . S
O508 Co476 1.920 . S
O508 C481 1.289 . S
C509 O501 1.258 . S
C509 O502 1.266 . S
Co510 O513 1.970 . S
Co510 N527 1.989 . S
Co510 O535 1.967 . S
Co510 O542 1.920 . S
Co511 O514 1.966 . S
Co511 N520 2.022 . S
Co511 N528 1.993 . S
Co511 O536 1.941 . S
C512 O513 1.258 . S
C512 O514 1.263 . S
O513 Co510 1.970 . S
O513 C512 1.258 . S
O514 Co511 1.966 . S
O514 C512 1.263 . S
C515 O516 1.235 . S
C515 O542 1.289 . S
O516 C515 1.235 . S
C517 C519 1.400 . S
C517 N520 1.351 . S
C517 C522 1.501 . S
C518 C519 1.387 . S
C518 N521 1.341 . S
C519 C517 1.400 . S
C519 C518 1.387 . S
N520 Co511 2.022 . S
N520 C517 1.351 . S
N520 N521 1.365 . S
N521 C518 1.341 . S
N521 N520 1.365 . S
N521 H541 0.862 . S
C522 C517 1.501 . S
C522 H523 0.961 . S
C522 H524 0.961 . S
C522 H525 0.960 . S
H523 C522 0.961 . S
H524 C522 0.961 . S
H525 C522 0.960 . S
C526 N527 1.342 . S
C526 C530 1.401 . S
C526 C531 1.499 . S
N527 Co510 1.989 . S
N527 C526 1.342 . S
N527 N528 1.388 . S
N528 Co511 1.993 . S
N528 N527 1.388 . S
N528 C529 1.346 . S
C529 N528 1.346 . S
C529 C530 1.396 . S
C529 C539 1.510 . S
C530 C526 1.401 . S
C530 C529 1.396 . S
C531 C526 1.499 . S
C531 H532 0.959 . S
C531 H533 0.960 . S
C531 H534 0.961 . S
H532 C531 0.959 . S
H533 C531 0.960 . S
H534 C531 0.961 . S
O535 Co510 1.967 . S
O535 C543 1.258 . S
O536 Co511 1.941 . S
O536 C543 1.266 . S
H537 C539 0.959 . S
H538 C539 0.961 . S
C539 C529 1.510 . S
C539 H537 0.959 . S
C539 H538 0.961 . S
C539 H540 0.960 . S
H540 C539 0.960 . S
H541 N521 0.862 . S
O542 Co510 1.920 . S
O542 C515 1.289 . S
C543 O535 1.258 . S
C543 O536 1.266 . S
Co544 O547 1.970 . S
Co544 N561 1.989 . S
Co544 O569 1.967 . S
Co544 O576 1.920 . S
Co545 O548 1.966 . S
Co545 N554 2.022 . S
Co545 N562 1.993 . S
Co545 O570 1.941 . S
C546 O547 1.258 . S
C546 O548 1.263 . S
O547 Co544 1.970 . S
O547 C546 1.258 . S
O548 Co545 1.966 . S
O548 C546 1.263 . S
C549 O550 1.235 . S
C549 O576 1.289 . S
O550 C549 1.235 . S
C551 C553 1.400 . S
C551 N554 1.351 . S
C551 C556 1.501 . S
C552 C553 1.387 . S
C552 N555 1.341 . S
C553 C551 1.400 . S
C553 C552 1.387 . S
N554 Co545 2.022 . S
N554 C551 1.351 . S
N554 N555 1.365 . S
N555 C552 1.341 . S
N555 N554 1.365 . S
N555 H575 0.862 . S
C556 C551 1.501 . S
C556 H557 0.961 . S
C556 H558 0.961 . S
C556 H559 0.960 . S
H557 C556 0.961 . S
H558 C556 0.961 . S
H559 C556 0.960 . S
C560 N561 1.342 . S
C560 C564 1.401 . S
C560 C565 1.499 . S
N561 Co544 1.989 . S
N561 C560 1.342 . S
N561 N562 1.388 . S
N562 Co545 1.993 . S
N562 N561 1.388 . S
N562 C563 1.346 . S
C563 N562 1.346 . S
C563 C564 1.396 . S
C563 C573 1.510 . S
C564 C560 1.401 . S
C564 C563 1.396 . S
C565 C560 1.499 . S
C565 H566 0.959 . S
C565 H567 0.960 . S
C565 H568 0.961 . S
H566 C565 0.959 . S
H567 C565 0.960 . S
H568 C565 0.961 . S
O569 Co544 1.967 . S
O569 C577 1.258 . S
O570 Co545 1.941 . S
O570 C577 1.266 . S
H571 C573 0.959 . S
H572 C573 0.961 . S
C573 C563 1.510 . S
C573 H571 0.959 . S
C573 H572 0.961 . S
C573 H574 0.960 . S
H574 C573 0.960 . S
H575 N555 0.862 . S
O576 Co544 1.920 . S
O576 C549 1.289 . S
C577 O569 1.258 . S
C577 O570 1.266 . S
Co578 O581 1.970 . S
Co578 N595 1.989 . S
Co578 O603 1.967 . S
Co578 O610 1.920 . S
Co579 O582 1.966 . S
Co579 N588 2.022 . S
Co579 N596 1.993 . S
Co579 O604 1.941 . S
C580 O581 1.258 . S
C580 O582 1.263 . S
O581 Co578 1.970 . S
O581 C580 1.258 . S
O582 Co579 1.966 . S
O582 C580 1.263 . S
C583 O584 1.235 . S
C583 O610 1.289 . S
O584 C583 1.235 . S
C585 C587 1.400 . S
C585 N588 1.351 . S
C585 C590 1.501 . S
C586 C587 1.387 . S
C586 N589 1.341 . S
C587 C585 1.400 . S
C587 C586 1.387 . S
N588 Co579 2.022 . S
N588 C585 1.351 . S
N588 N589 1.365 . S
N589 C586 1.341 . S
N589 N588 1.365 . S
N589 H609 0.862 . S
C590 C585 1.501 . S
C590 H591 0.961 . S
C590 H592 0.961 . S
C590 H593 0.960 . S
H591 C590 0.961 . S
H592 C590 0.961 . S
H593 C590 0.960 . S
C594 N595 1.342 . S
C594 C598 1.401 . S
C594 C599 1.499 . S
N595 Co578 1.989 . S
N595 C594 1.342 . S
N595 N596 1.388 . S
N596 Co579 1.993 . S
N596 N595 1.388 . S
N596 C597 1.346 . S
C597 N596 1.346 . S
C597 C598 1.396 . S
C597 C607 1.510 . S
C598 C594 1.401 . S
C598 C597 1.396 . S
C599 C594 1.499 . S
C599 H600 0.959 . S
C599 H601 0.960 . S
C599 H602 0.961 . S
H600 C599 0.959 . S
H601 C599 0.960 . S
H602 C599 0.961 . S
O603 Co578 1.967 . S
O603 C611 1.258 . S
O604 Co579 1.941 . S
O604 C611 1.266 . S
H605 C607 0.959 . S
H606 C607 0.961 . S
C607 C597 1.510 . S
C607 H605 0.959 . S
C607 H606 0.961 . S
C607 H608 0.960 . S
H608 C607 0.960 . S
H609 N589 0.862 . S
O610 Co578 1.920 . S
O610 C583 1.289 . S
C611 O603 1.258 . S
C611 O604 1.266 . S
Co612 O615 1.970 . S
Co612 N629 1.989 . S
Co612 O637 1.967 . S
Co612 O644 1.920 . S
Co613 O616 1.966 . S
Co613 N622 2.022 . S
Co613 N630 1.993 . S
Co613 O638 1.941 . S
C614 O615 1.258 . S
C614 O616 1.263 . S
O615 Co612 1.970 . S
O615 C614 1.258 . S
O616 Co613 1.966 . S
O616 C614 1.263 . S
C617 O618 1.235 . S
C617 O644 1.289 . S
O618 C617 1.235 . S
C619 C621 1.400 . S
C619 N622 1.351 . S
C619 C624 1.501 . S
C620 C621 1.387 . S
C620 N623 1.341 . S
C621 C619 1.400 . S
C621 C620 1.387 . S
N622 Co613 2.022 . S
N622 C619 1.351 . S
N622 N623 1.365 . S
N623 C620 1.341 . S
N623 N622 1.365 . S
N623 H643 0.862 . S
C624 C619 1.501 . S
C624 H625 0.961 . S
C624 H626 0.961 . S
C624 H627 0.960 . S
H625 C624 0.961 . S
H626 C624 0.961 . S
H627 C624 0.960 . S
C628 N629 1.342 . S
C628 C632 1.401 . S
C628 C633 1.499 . S
N629 Co612 1.989 . S
N629 C628 1.342 . S
N629 N630 1.388 . S
N630 Co613 1.993 . S
N630 N629 1.388 . S
N630 C631 1.346 . S
C631 N630 1.346 . S
C631 C632 1.396 . S
C631 C641 1.510 . S
C632 C628 1.401 . S
C632 C631 1.396 . S
C633 C628 1.499 . S
C633 H634 0.959 . S
C633 H635 0.960 . S
C633 H636 0.961 . S
H634 C633 0.959 . S
H635 C633 0.960 . S
H636 C633 0.961 . S
O637 Co612 1.967 . S
O637 C645 1.258 . S
O638 Co613 1.941 . S
O638 C645 1.266 . S
H639 C641 0.959 . S
H640 C641 0.961 . S
C641 C631 1.510 . S
C641 H639 0.959 . S
C641 H640 0.961 . S
C641 H642 0.960 . S
H642 C641 0.960 . S
H643 N623 0.862 . S
O644 Co612 1.920 . S
O644 C617 1.289 . S
C645 O637 1.258 . S
C645 O638 1.266 . S
Co646 O649 1.970 . S
Co646 N663 1.989 . S
Co646 O671 1.967 . S
Co646 O678 1.920 . S
Co647 O650 1.966 . S
Co647 N656 2.022 . S
Co647 N664 1.993 . S
Co647 O672 1.941 . S
C648 O649 1.258 . S
C648 O650 1.263 . S
O649 Co646 1.970 . S
O649 C648 1.258 . S
O650 Co647 1.966 . S
O650 C648 1.263 . S
C651 O652 1.235 . S
C651 O678 1.289 . S
O652 C651 1.235 . S
C653 C655 1.400 . S
C653 N656 1.351 . S
C653 C658 1.501 . S
C654 C655 1.387 . S
C654 N657 1.341 . S
C655 C653 1.400 . S
C655 C654 1.387 . S
N656 Co647 2.022 . S
N656 C653 1.351 . S
N656 N657 1.365 . S
N657 C654 1.341 . S
N657 N656 1.365 . S
N657 H677 0.862 . S
C658 C653 1.501 . S
C658 H659 0.961 . S
C658 H660 0.961 . S
C658 H661 0.960 . S
H659 C658 0.961 . S
H660 C658 0.961 . S
H661 C658 0.960 . S
C662 N663 1.342 . S
C662 C666 1.401 . S
C662 C667 1.499 . S
N663 Co646 1.989 . S
N663 C662 1.342 . S
N663 N664 1.388 . S
N664 Co647 1.993 . S
N664 N663 1.388 . S
N664 C665 1.346 . S
C665 N664 1.346 . S
C665 C666 1.396 . S
C665 C675 1.510 . S
C666 C662 1.401 . S
C666 C665 1.396 . S
C667 C662 1.499 . S
C667 H668 0.959 . S
C667 H669 0.960 . S
C667 H670 0.961 . S
H668 C667 0.959 . S
H669 C667 0.960 . S
H670 C667 0.961 . S
O671 Co646 1.967 . S
O671 C679 1.258 . S
O672 Co647 1.941 . S
O672 C679 1.266 . S
H673 C675 0.959 . S
H674 C675 0.961 . S
C675 C665 1.510 . S
C675 H673 0.959 . S
C675 H674 0.961 . S
C675 H676 0.960 . S
H676 C675 0.960 . S
H677 N657 0.862 . S
O678 Co646 1.920 . S
O678 C651 1.289 . S
C679 O671 1.258 . S
C679 O672 1.266 . S
Co680 O683 1.970 . S
Co680 N697 1.989 . S
Co680 O705 1.967 . S
Co680 O712 1.920 . S
Co681 O684 1.966 . S
Co681 N690 2.022 . S
Co681 N698 1.993 . S
Co681 O706 1.941 . S
C682 O683 1.258 . S
C682 O684 1.263 . S
O683 Co680 1.970 . S
O683 C682 1.258 . S
O684 Co681 1.966 . S
O684 C682 1.263 . S
C685 O686 1.235 . S
C685 O712 1.289 . S
O686 C685 1.235 . S
C687 C689 1.400 . S
C687 N690 1.351 . S
C687 C692 1.501 . S
C688 C689 1.387 . S
C688 N691 1.341 . S
C689 C687 1.400 . S
C689 C688 1.387 . S
N690 Co681 2.022 . S
N690 C687 1.351 . S
N690 N691 1.365 . S
N691 C688 1.341 . S
N691 N690 1.365 . S
N691 H711 0.862 . S
C692 C687 1.501 . S
C692 H693 0.961 . S
C692 H694 0.961 . S
C692 H695 0.960 . S
H693 C692 0.961 . S
H694 C692 0.961 . S
H695 C692 0.960 . S
C696 N697 1.342 . S
C696 C700 1.401 . S
C696 C701 1.499 . S
N697 Co680 1.989 . S
N697 C696 1.342 . S
N697 N698 1.388 . S
N698 Co681 1.993 . S
N698 N697 1.388 . S
N698 C699 1.346 . S
C699 N698 1.346 . S
C699 C700 1.396 . S
C699 C709 1.510 . S
C700 C696 1.401 . S
C700 C699 1.396 . S
C701 C696 1.499 . S
C701 H702 0.959 . S
C701 H703 0.960 . S
C701 H704 0.961 . S
H702 C701 0.959 . S
H703 C701 0.960 . S
H704 C701 0.961 . S
O705 Co680 1.967 . S
O705 C713 1.258 . S
O706 Co681 1.941 . S
O706 C713 1.266 . S
H707 C709 0.959 . S
H708 C709 0.961 . S
C709 C699 1.510 . S
C709 H707 0.959 . S
C709 H708 0.961 . S
C709 H710 0.960 . S
H710 C709 0.960 . S
H711 N691 0.862 . S
O712 Co680 1.920 . S
O712 C685 1.289 . S
C713 O705 1.258 . S
C713 O706 1.266 . S
Co714 O717 1.970 . S
Co714 N731 1.989 . S
Co714 O739 1.967 . S
Co714 O746 1.920 . S
Co715 O718 1.966 . S
Co715 N724 2.022 . S
Co715 N732 1.993 . S
Co715 O740 1.941 . S
C716 O717 1.258 . S
C716 O718 1.263 . S
O717 Co714 1.970 . S
O717 C716 1.258 . S
O718 Co715 1.966 . S
O718 C716 1.263 . S
C719 O720 1.235 . S
C719 O746 1.289 . S
O720 C719 1.235 . S
C721 C723 1.400 . S
C721 N724 1.351 . S
C721 C726 1.501 . S
C722 C723 1.387 . S
C722 N725 1.341 . S
C723 C721 1.400 . S
C723 C722 1.387 . S
N724 Co715 2.022 . S
N724 C721 1.351 . S
N724 N725 1.365 . S
N725 C722 1.341 . S
N725 N724 1.365 . S
N725 H745 0.862 . S
C726 C721 1.501 . S
C726 H727 0.961 . S
C726 H728 0.961 . S
C726 H729 0.960 . S
H727 C726 0.961 . S
H728 C726 0.961 . S
H729 C726 0.960 . S
C730 N731 1.342 . S
C730 C734 1.401 . S
C730 C735 1.499 . S
N731 Co714 1.989 . S
N731 C730 1.342 . S
N731 N732 1.388 . S
N732 Co715 1.993 . S
N732 N731 1.388 . S
N732 C733 1.346 . S
C733 N732 1.346 . S
C733 C734 1.396 . S
C733 C743 1.510 . S
C734 C730 1.401 . S
C734 C733 1.396 . S
C735 C730 1.499 . S
C735 H736 0.959 . S
C735 H737 0.960 . S
C735 H738 0.961 . S
H736 C735 0.959 . S
H737 C735 0.960 . S
H738 C735 0.961 . S
O739 Co714 1.967 . S
O739 C747 1.258 . S
O740 Co715 1.941 . S
O740 C747 1.266 . S
H741 C743 0.959 . S
H742 C743 0.961 . S
C743 C733 1.510 . S
C743 H741 0.959 . S
C743 H742 0.961 . S
C743 H744 0.960 . S
H744 C743 0.960 . S
H745 N725 0.862 . S
O746 Co714 1.920 . S
O746 C719 1.289 . S
C747 O739 1.258 . S
C747 O740 1.266 . S
Co748 O751 1.970 . S
Co748 N765 1.989 . S
Co748 O773 1.967 . S
Co748 O780 1.920 . S
Co749 O752 1.966 . S
Co749 N758 2.022 . S
Co749 N766 1.993 . S
Co749 O774 1.941 . S
C750 O751 1.258 . S
C750 O752 1.263 . S
O751 Co748 1.970 . S
O751 C750 1.258 . S
O752 Co749 1.966 . S
O752 C750 1.263 . S
C753 O754 1.235 . S
C753 O780 1.289 . S
O754 C753 1.235 . S
C755 C757 1.400 . S
C755 N758 1.351 . S
C755 C760 1.501 . S
C756 C757 1.387 . S
C756 N759 1.341 . S
C757 C755 1.400 . S
C757 C756 1.387 . S
N758 Co749 2.022 . S
N758 C755 1.351 . S
N758 N759 1.365 . S
N759 C756 1.341 . S
N759 N758 1.365 . S
N759 H779 0.862 . S
C760 C755 1.501 . S
C760 H761 0.961 . S
C760 H762 0.961 . S
C760 H763 0.960 . S
H761 C760 0.961 . S
H762 C760 0.961 . S
H763 C760 0.960 . S
C764 N765 1.342 . S
C764 C768 1.401 . S
C764 C769 1.499 . S
N765 Co748 1.989 . S
N765 C764 1.342 . S
N765 N766 1.388 . S
N766 Co749 1.993 . S
N766 N765 1.388 . S
N766 C767 1.346 . S
C767 N766 1.346 . S
C767 C768 1.396 . S
C767 C777 1.510 . S
C768 C764 1.401 . S
C768 C767 1.396 . S
C769 C764 1.499 . S
C769 H770 0.959 . S
C769 H771 0.960 . S
C769 H772 0.961 . S
H770 C769 0.959 . S
H771 C769 0.960 . S
H772 C769 0.961 . S
O773 Co748 1.967 . S
O773 C781 1.258 . S
O774 Co749 1.941 . S
O774 C781 1.266 . S
H775 C777 0.959 . S
H776 C777 0.961 . S
C777 C767 1.510 . S
C777 H775 0.959 . S
C777 H776 0.961 . S
C777 H778 0.960 . S
H778 C777 0.960 . S
H779 N759 0.862 . S
O780 Co748 1.920 . S
O780 C753 1.289 . S
C781 O773 1.258 . S
C781 O774 1.266 . S
Co782 O785 1.970 . S
Co782 N799 1.989 . S
Co782 O807 1.967 . S
Co782 O814 1.920 . S
Co783 O786 1.966 . S
Co783 N792 2.022 . S
Co783 N800 1.993 . S
Co783 O808 1.941 . S
C784 O785 1.258 . S
C784 O786 1.263 . S
O785 Co782 1.970 . S
O785 C784 1.258 . S
O786 Co783 1.966 . S
O786 C784 1.263 . S
C787 O788 1.235 . S
C787 O814 1.289 . S
O788 C787 1.235 . S
C789 C791 1.400 . S
C789 N792 1.351 . S
C789 C794 1.501 . S
C790 C791 1.387 . S
C790 N793 1.341 . S
C791 C789 1.400 . S
C791 C790 1.387 . S
N792 Co783 2.022 . S
N792 C789 1.351 . S
N792 N793 1.365 . S
N793 C790 1.341 . S
N793 N792 1.365 . S
N793 H813 0.862 . S
C794 C789 1.501 . S
C794 H795 0.961 . S
C794 H796 0.961 . S
C794 H797 0.960 . S
H795 C794 0.961 . S
H796 C794 0.961 . S
H797 C794 0.960 . S
C798 N799 1.342 . S
C798 C802 1.401 . S
C798 C803 1.499 . S
N799 Co782 1.989 . S
N799 C798 1.342 . S
N799 N800 1.388 . S
N800 Co783 1.993 . S
N800 N799 1.388 . S
N800 C801 1.346 . S
C801 N800 1.346 . S
C801 C802 1.396 . S
C801 C811 1.510 . S
C802 C798 1.401 . S
C802 C801 1.396 . S
C803 C798 1.499 . S
C803 H804 0.959 . S
C803 H805 0.960 . S
C803 H806 0.961 . S
H804 C803 0.959 . S
H805 C803 0.960 . S
H806 C803 0.961 . S
O807 Co782 1.967 . S
O807 C815 1.258 . S
O808 Co783 1.941 . S
O808 C815 1.266 . S
H809 C811 0.959 . S
H810 C811 0.961 . S
C811 C801 1.510 . S
C811 H809 0.959 . S
C811 H810 0.961 . S
C811 H812 0.960 . S
H812 C811 0.960 . S
H813 N793 0.862 . S
O814 Co782 1.920 . S
O814 C787 1.289 . S
C815 O807 1.258 . S
C815 O808 1.266 . S
Co816 O819 1.970 . S
Co816 N833 1.989 . S
Co816 O841 1.967 . S
Co816 O848 1.920 . S
Co817 O820 1.966 . S
Co817 N826 2.022 . S
Co817 N834 1.993 . S
Co817 O842 1.941 . S
C818 O819 1.258 . S
C818 O820 1.263 . S
O819 Co816 1.970 . S
O819 C818 1.258 . S
O820 Co817 1.966 . S
O820 C818 1.263 . S
C821 O822 1.235 . S
C821 O848 1.289 . S
O822 C821 1.235 . S
C823 C825 1.400 . S
C823 N826 1.351 . S
C823 C828 1.501 . S
C824 C825 1.387 . S
C824 N827 1.341 . S
C825 C823 1.400 . S
C825 C824 1.387 . S
N826 Co817 2.022 . S
N826 C823 1.351 . S
N826 N827 1.365 . S
N827 C824 1.341 . S
N827 N826 1.365 . S
N827 H847 0.862 . S
C828 C823 1.501 . S
C828 H829 0.961 . S
C828 H830 0.961 . S
C828 H831 0.960 . S
H829 C828 0.961 . S
H830 C828 0.961 . S
H831 C828 0.960 . S
C832 N833 1.342 . S
C832 C836 1.401 . S
C832 C837 1.499 . S
N833 Co816 1.989 . S
N833 C832 1.342 . S
N833 N834 1.388 . S
N834 Co817 1.993 . S
N834 N833 1.388 . S
N834 C835 1.346 . S
C835 N834 1.346 . S
C835 C836 1.396 . S
C835 C845 1.510 . S
C836 C832 1.401 . S
C836 C835 1.396 . S
C837 C832 1.499 . S
C837 H838 0.959 . S
C837 H839 0.960 . S
C837 H840 0.961 . S
H838 C837 0.959 . S
H839 C837 0.960 . S
H840 C837 0.961 . S
O841 Co816 1.967 . S
O841 C849 1.258 . S
O842 Co817 1.941 . S
O842 C849 1.266 . S
H843 C845 0.959 . S
H844 C845 0.961 . S
C845 C835 1.510 . S
C845 H843 0.959 . S
C845 H844 0.961 . S
C845 H846 0.960 . S
H846 C845 0.960 . S
H847 N827 0.862 . S
O848 Co816 1.920 . S
O848 C821 1.289 . S
C849 O841 1.258 . S
C849 O842 1.266 . S
Co850 O853 1.970 . S
Co850 N867 1.989 . S
Co850 O875 1.967 . S
Co850 O882 1.920 . S
Co851 O854 1.966 . S
Co851 N860 2.022 . S
Co851 N868 1.993 . S
Co851 O876 1.941 . S
C852 O853 1.258 . S
C852 O854 1.263 . S
O853 Co850 1.970 . S
O853 C852 1.258 . S
O854 Co851 1.966 . S
O854 C852 1.263 . S
C855 O856 1.235 . S
C855 O882 1.289 . S
O856 C855 1.235 . S
C857 C859 1.400 . S
C857 N860 1.351 . S
C857 C862 1.501 . S
C858 C859 1.387 . S
C858 N861 1.341 . S
C859 C857 1.400 . S
C859 C858 1.387 . S
N860 Co851 2.022 . S
N860 C857 1.351 . S
N860 N861 1.365 . S
N861 C858 1.341 . S
N861 N860 1.365 . S
N861 H881 0.862 . S
C862 C857 1.501 . S
C862 H863 0.961 . S
C862 H864 0.961 . S
C862 H865 0.960 . S
H863 C862 0.961 . S
H864 C862 0.961 . S
H865 C862 0.960 . S
C866 N867 1.342 . S
C866 C870 1.401 . S
C866 C871 1.499 . S
N867 Co850 1.989 . S
N867 C866 1.342 . S
N867 N868 1.388 . S
N868 Co851 1.993 . S
N868 N867 1.388 . S
N868 C869 1.346 . S
C869 N868 1.346 . S
C869 C870 1.396 . S
C869 C879 1.510 . S
C870 C866 1.401 . S
C870 C869 1.396 . S
C871 C866 1.499 . S
C871 H872 0.959 . S
C871 H873 0.960 . S
C871 H874 0.961 . S
H872 C871 0.959 . S
H873 C871 0.960 . S
H874 C871 0.961 . S
O875 Co850 1.967 . S
O875 C883 1.258 . S
O876 Co851 1.941 . S
O876 C883 1.266 . S
H877 C879 0.959 . S
H878 C879 0.961 . S
C879 C869 1.510 . S
C879 H877 0.959 . S
C879 H878 0.961 . S
C879 H880 0.960 . S
H880 C879 0.960 . S
H881 N861 0.862 . S
O882 Co850 1.920 . S
O882 C855 1.289 . S
C883 O875 1.258 . S
C883 O876 1.266 . S
Co884 O887 1.970 . S
Co884 N901 1.989 . S
Co884 O909 1.967 . S
Co884 O916 1.920 . S
Co885 O888 1.966 . S
Co885 N894 2.022 . S
Co885 N902 1.993 . S
Co885 O910 1.941 . S
C886 O887 1.258 . S
C886 O888 1.263 . S
O887 Co884 1.970 . S
O887 C886 1.258 . S
O888 Co885 1.966 . S
O888 C886 1.263 . S
C889 O890 1.235 . S
C889 O916 1.289 . S
O890 C889 1.235 . S
C891 C893 1.400 . S
C891 N894 1.351 . S
C891 C896 1.501 . S
C892 C893 1.387 . S
C892 N895 1.341 . S
C893 C891 1.400 . S
C893 C892 1.387 . S
N894 Co885 2.022 . S
N894 C891 1.351 . S
N894 N895 1.365 . S
N895 C892 1.341 . S
N895 N894 1.365 . S
N895 H915 0.862 . S
C896 C891 1.501 . S
C896 H897 0.961 . S
C896 H898 0.961 . S
C896 H899 0.960 . S
H897 C896 0.961 . S
H898 C896 0.961 . S
H899 C896 0.960 . S
C900 N901 1.342 . S
C900 C904 1.401 . S
C900 C905 1.499 . S
N901 Co884 1.989 . S
N901 C900 1.342 . S
N901 N902 1.388 . S
N902 Co885 1.993 . S
N902 N901 1.388 . S
N902 C903 1.346 . S
C903 N902 1.346 . S
C903 C904 1.396 . S
C903 C913 1.510 . S
C904 C900 1.401 . S
C904 C903 1.396 . S
C905 C900 1.499 . S
C905 H906 0.959 . S
C905 H907 0.960 . S
C905 H908 0.961 . S
H906 C905 0.959 . S
H907 C905 0.960 . S
H908 C905 0.961 . S
O909 Co884 1.967 . S
O909 C917 1.258 . S
O910 Co885 1.941 . S
O910 C917 1.266 . S
H911 C913 0.959 . S
H912 C913 0.961 . S
C913 C903 1.510 . S
C913 H911 0.959 . S
C913 H912 0.961 . S
C913 H914 0.960 . S
H914 C913 0.960 . S
H915 N895 0.862 . S
O916 Co884 1.920 . S
O916 C889 1.289 . S
C917 O909 1.258 . S
C917 O910 1.266 . S
Co918 O921 1.970 . S
Co918 N935 1.989 . S
Co918 O943 1.967 . S
Co918 O950 1.920 . S
Co919 O922 1.966 . S
Co919 N928 2.022 . S
Co919 N936 1.993 . S
Co919 O944 1.941 . S
C920 O921 1.258 . S
C920 O922 1.263 . S
O921 Co918 1.970 . S
O921 C920 1.258 . S
O922 Co919 1.966 . S
O922 C920 1.263 . S
C923 O924 1.235 . S
C923 O950 1.289 . S
O924 C923 1.235 . S
C925 C927 1.400 . S
C925 N928 1.351 . S
C925 C930 1.501 . S
C926 C927 1.387 . S
C926 N929 1.341 . S
C927 C925 1.400 . S
C927 C926 1.387 . S
N928 Co919 2.022 . S
N928 C925 1.351 . S
N928 N929 1.365 . S
N929 C926 1.341 . S
N929 N928 1.365 . S
N929 H949 0.862 . S
C930 C925 1.501 . S
C930 H931 0.961 . S
C930 H932 0.961 . S
C930 H933 0.960 . S
H931 C930 0.961 . S
H932 C930 0.961 . S
H933 C930 0.960 . S
C934 N935 1.342 . S
C934 C938 1.401 . S
C934 C939 1.499 . S
N935 Co918 1.989 . S
N935 C934 1.342 . S
N935 N936 1.388 . S
N936 Co919 1.993 . S
N936 N935 1.388 . S
N936 C937 1.346 . S
C937 N936 1.346 . S
C937 C938 1.396 . S
C937 C947 1.510 . S
C938 C934 1.401 . S
C938 C937 1.396 . S
C939 C934 1.499 . S
C939 H940 0.959 . S
C939 H941 0.960 . S
C939 H942 0.961 . S
H940 C939 0.959 . S
H941 C939 0.960 . S
H942 C939 0.961 . S
O943 Co918 1.967 . S
O943 C951 1.258 . S
O944 Co919 1.941 . S
O944 C951 1.266 . S
H945 C947 0.959 . S
H946 C947 0.961 . S
C947 C937 1.510 . S
C947 H945 0.959 . S
C947 H946 0.961 . S
C947 H948 0.960 . S
H948 C947 0.960 . S
H949 N929 0.862 . S
O950 Co918 1.920 . S
O950 C923 1.289 . S
C951 O943 1.258 . S
C951 O944 1.266 . S
Co952 O955 1.970 . S
Co952 N969 1.989 . S
Co952 O977 1.967 . S
Co952 O984 1.920 . S
Co953 O956 1.966 . S
Co953 N962 2.022 . S
Co953 N970 1.993 . S
Co953 O978 1.941 . S
C954 O955 1.258 . S
C954 O956 1.263 . S
O955 Co952 1.970 . S
O955 C954 1.258 . S
O956 Co953 1.966 . S
O956 C954 1.263 . S
C957 O958 1.235 . S
C957 O984 1.289 . S
O958 C957 1.235 . S
C959 C961 1.400 . S
C959 N962 1.351 . S
C959 C964 1.501 . S
C960 C961 1.387 . S
C960 N963 1.341 . S
C961 C959 1.400 . S
C961 C960 1.387 . S
N962 Co953 2.022 . S
N962 C959 1.351 . S
N962 N963 1.365 . S
N963 C960 1.341 . S
N963 N962 1.365 . S
N963 H983 0.862 . S
C964 C959 1.501 . S
C964 H965 0.961 . S
C964 H966 0.961 . S
C964 H967 0.960 . S
H965 C964 0.961 . S
H966 C964 0.961 . S
H967 C964 0.960 . S
C968 N969 1.342 . S
C968 C972 1.401 . S
C968 C973 1.499 . S
N969 Co952 1.989 . S
N969 C968 1.342 . S
N969 N970 1.388 . S
N970 Co953 1.993 . S
N970 N969 1.388 . S
N970 C971 1.346 . S
C971 N970 1.346 . S
C971 C972 1.396 . S
C971 C981 1.510 . S
C972 C968 1.401 . S
C972 C971 1.396 . S
C973 C968 1.499 . S
C973 H974 0.959 . S
C973 H975 0.960 . S
C973 H976 0.961 . S
H974 C973 0.959 . S
H975 C973 0.960 . S
H976 C973 0.961 . S
O977 Co952 1.967 . S
O977 C985 1.258 . S
O978 Co953 1.941 . S
O978 C985 1.266 . S
H979 C981 0.959 . S
H980 C981 0.961 . S
C981 C971 1.510 . S
C981 H979 0.959 . S
C981 H980 0.961 . S
C981 H982 0.960 . S
H982 C981 0.960 . S
H983 N963 0.862 . S
O984 Co952 1.920 . S
O984 C957 1.289 . S
C985 O977 1.258 . S
C985 O978 1.266 . S
Co986 O989 1.970 . S
Co986 N1003 1.989 . S
Co986 O1011 1.967 . S
Co986 O1018 1.920 . S
Co987 O990 1.966 . S
Co987 N996 2.022 . S
Co987 N1004 1.993 . S
Co987 O1012 1.941 . S
C988 O989 1.258 . S
C988 O990 1.263 . S
O989 Co986 1.970 . S
O989 C988 1.258 . S
O990 Co987 1.966 . S
O990 C988 1.263 . S
C991 O992 1.235 . S
C991 O1018 1.289 . S
O992 C991 1.235 . S
C993 C995 1.400 . S
C993 N996 1.351 . S
C993 C998 1.501 . S
C994 C995 1.387 . S
C994 N997 1.341 . S
C995 C993 1.400 . S
C995 C994 1.387 . S
N996 Co987 2.022 . S
N996 C993 1.351 . S
N996 N997 1.365 . S
N997 C994 1.341 . S
N997 N996 1.365 . S
N997 H1017 0.862 . S
C998 C993 1.501 . S
C998 H999 0.961 . S
C998 H1000 0.961 . S
C998 H1001 0.960 . S
H999 C998 0.961 . S
H1000 C998 0.961 . S
H1001 C998 0.960 . S
C1002 N1003 1.342 . S
C1002 C1006 1.401 . S
C1002 C1007 1.499 . S
N1003 Co986 1.989 . S
N1003 C1002 1.342 . S
N1003 N1004 1.388 . S
N1004 Co987 1.993 . S
N1004 N1003 1.388 . S
N1004 C1005 1.346 . S
C1005 N1004 1.346 . S
C1005 C1006 1.396 . S
C1005 C1015 1.510 . S
C1006 C1002 1.401 . S
C1006 C1005 1.396 . S
C1007 C1002 1.499 . S
C1007 H1008 0.959 . S
C1007 H1009 0.960 . S
C1007 H1010 0.961 . S
H1008 C1007 0.959 . S
H1009 C1007 0.960 . S
H1010 C1007 0.961 . S
O1011 Co986 1.967 . S
O1011 C1019 1.258 . S
O1012 Co987 1.941 . S
O1012 C1019 1.266 . S
H1013 C1015 0.959 . S
H1014 C1015 0.961 . S
C1015 C1005 1.510 . S
C1015 H1013 0.959 . S
C1015 H1014 0.961 . S
C1015 H1016 0.960 . S
H1016 C1015 0.960 . S
H1017 N997 0.862 . S
O1018 Co986 1.920 . S
O1018 C991 1.289 . S
C1019 O1011 1.258 . S
C1019 O1012 1.266 . S
Co1020 O1023 1.970 . S
Co1020 N1037 1.989 . S
Co1020 O1045 1.967 . S
Co1020 O1052 1.920 . S
Co1021 O1024 1.966 . S
Co1021 N1030 2.022 . S
Co1021 N1038 1.993 . S
Co1021 O1046 1.941 . S
C1022 O1023 1.258 . S
C1022 O1024 1.263 . S
O1023 Co1020 1.970 . S
O1023 C1022 1.258 . S
O1024 Co1021 1.966 . S
O1024 C1022 1.263 . S
C1025 O1026 1.235 . S
C1025 O1052 1.289 . S
O1026 C1025 1.235 . S
C1027 C1029 1.400 . S
C1027 N1030 1.351 . S
C1027 C1032 1.501 . S
C1028 C1029 1.387 . S
C1028 N1031 1.341 . S
C1029 C1027 1.400 . S
C1029 C1028 1.387 . S
N1030 Co1021 2.022 . S
N1030 C1027 1.351 . S
N1030 N1031 1.365 . S
N1031 C1028 1.341 . S
N1031 N1030 1.365 . S
N1031 H1051 0.862 . S
C1032 C1027 1.501 . S
C1032 H1033 0.961 . S
C1032 H1034 0.961 . S
C1032 H1035 0.960 . S
H1033 C1032 0.961 . S
H1034 C1032 0.961 . S
H1035 C1032 0.960 . S
C1036 N1037 1.342 . S
C1036 C1040 1.401 . S
C1036 C1041 1.499 . S
N1037 Co1020 1.989 . S
N1037 C1036 1.342 . S
N1037 N1038 1.388 . S
N1038 Co1021 1.993 . S
N1038 N1037 1.388 . S
N1038 C1039 1.346 . S
C1039 N1038 1.346 . S
C1039 C1040 1.396 . S
C1039 C1049 1.510 . S
C1040 C1036 1.401 . S
C1040 C1039 1.396 . S
C1041 C1036 1.499 . S
C1041 H1042 0.959 . S
C1041 H1043 0.960 . S
C1041 H1044 0.961 . S
H1042 C1041 0.959 . S
H1043 C1041 0.960 . S
H1044 C1041 0.961 . S
O1045 Co1020 1.967 . S
O1045 C1053 1.258 . S
O1046 Co1021 1.941 . S
O1046 C1053 1.266 . S
H1047 C1049 0.959 . S
H1048 C1049 0.961 . S
C1049 C1039 1.510 . S
C1049 H1047 0.959 . S
C1049 H1048 0.961 . S
C1049 H1050 0.960 . S
H1050 C1049 0.960 . S
H1051 N1031 0.862 . S
O1052 Co1020 1.920 . S
O1052 C1025 1.289 . S
C1053 O1045 1.258 . S
C1053 O1046 1.266 . S
Co1054 O1057 1.970 . S
Co1054 N1071 1.989 . S
Co1054 O1079 1.967 . S
Co1054 O1086 1.920 . S
Co1055 O1058 1.966 . S
Co1055 N1064 2.022 . S
Co1055 N1072 1.993 . S
Co1055 O1080 1.941 . S
C1056 O1057 1.258 . S
C1056 O1058 1.263 . S
O1057 Co1054 1.970 . S
O1057 C1056 1.258 . S
O1058 Co1055 1.966 . S
O1058 C1056 1.263 . S
C1059 O1060 1.235 . S
C1059 O1086 1.289 . S
O1060 C1059 1.235 . S
C1061 C1063 1.400 . S
C1061 N1064 1.351 . S
C1061 C1066 1.501 . S
C1062 C1063 1.387 . S
C1062 N1065 1.341 . S
C1063 C1061 1.400 . S
C1063 C1062 1.387 . S
N1064 Co1055 2.022 . S
N1064 C1061 1.351 . S
N1064 N1065 1.365 . S
N1065 C1062 1.341 . S
N1065 N1064 1.365 . S
N1065 H1085 0.862 . S
C1066 C1061 1.501 . S
C1066 H1067 0.961 . S
C1066 H1068 0.961 . S
C1066 H1069 0.960 . S
H1067 C1066 0.961 . S
H1068 C1066 0.961 . S
H1069 C1066 0.960 . S
C1070 N1071 1.342 . S
C1070 C1074 1.401 . S
C1070 C1075 1.499 . S
N1071 Co1054 1.989 . S
N1071 C1070 1.342 . S
N1071 N1072 1.388 . S
N1072 Co1055 1.993 . S
N1072 N1071 1.388 . S
N1072 C1073 1.346 . S
C1073 N1072 1.346 . S
C1073 C1074 1.396 . S
C1073 C1083 1.510 . S
C1074 C1070 1.401 . S
C1074 C1073 1.396 . S
C1075 C1070 1.499 . S
C1075 H1076 0.959 . S
C1075 H1077 0.960 . S
C1075 H1078 0.961 . S
H1076 C1075 0.959 . S
H1077 C1075 0.960 . S
H1078 C1075 0.961 . S
O1079 Co1054 1.967 . S
O1079 C1087 1.258 . S
O1080 Co1055 1.941 . S
O1080 C1087 1.266 . S
H1081 C1083 0.959 . S
H1082 C1083 0.961 . S
C1083 C1073 1.510 . S
C1083 H1081 0.959 . S
C1083 H1082 0.961 . S
C1083 H1084 0.960 . S
H1084 C1083 0.960 . S
H1085 N1065 0.862 . S
O1086 Co1054 1.920 . S
O1086 C1059 1.289 . S
C1087 O1079 1.258 . S
C1087 O1080 1.266 . S
Co1088 O1091 1.970 . S
Co1088 N1105 1.989 . S
Co1088 O1113 1.967 . S
Co1088 O1120 1.920 . S
Co1089 O1092 1.966 . S
Co1089 N1098 2.022 . S
Co1089 N1106 1.993 . S
Co1089 O1114 1.941 . S
C1090 O1091 1.258 . S
C1090 O1092 1.263 . S
O1091 Co1088 1.970 . S
O1091 C1090 1.258 . S
O1092 Co1089 1.966 . S
O1092 C1090 1.263 . S
C1093 O1094 1.235 . S
C1093 O1120 1.289 . S
O1094 C1093 1.235 . S
C1095 C1097 1.400 . S
C1095 N1098 1.351 . S
C1095 C1100 1.501 . S
C1096 C1097 1.387 . S
C1096 N1099 1.341 . S
C1097 C1095 1.400 . S
C1097 C1096 1.387 . S
N1098 Co1089 2.022 . S
N1098 C1095 1.351 . S
N1098 N1099 1.365 . S
N1099 C1096 1.341 . S
N1099 N1098 1.365 . S
N1099 H1119 0.862 . S
C1100 C1095 1.501 . S
C1100 H1101 0.961 . S
C1100 H1102 0.961 . S
C1100 H1103 0.960 . S
H1101 C1100 0.961 . S
H1102 C1100 0.961 . S
H1103 C1100 0.960 . S
C1104 N1105 1.342 . S
C1104 C1108 1.401 . S
C1104 C1109 1.499 . S
N1105 Co1088 1.989 . S
N1105 C1104 1.342 . S
N1105 N1106 1.388 . S
N1106 Co1089 1.993 . S
N1106 N1105 1.388 . S
N1106 C1107 1.346 . S
C1107 N1106 1.346 . S
C1107 C1108 1.396 . S
C1107 C1117 1.510 . S
C1108 C1104 1.401 . S
C1108 C1107 1.396 . S
C1109 C1104 1.499 . S
C1109 H1110 0.959 . S
C1109 H1111 0.960 . S
C1109 H1112 0.961 . S
H1110 C1109 0.959 . S
H1111 C1109 0.960 . S
H1112 C1109 0.961 . S
O1113 Co1088 1.967 . S
O1113 C1121 1.258 . S
O1114 Co1089 1.941 . S
O1114 C1121 1.266 . S
H1115 C1117 0.959 . S
H1116 C1117 0.961 . S
C1117 C1107 1.510 . S
C1117 H1115 0.959 . S
C1117 H1116 0.961 . S
C1117 H1118 0.960 . S
H1118 C1117 0.960 . S
H1119 N1099 0.862 . S
O1120 Co1088 1.920 . S
O1120 C1093 1.289 . S
C1121 O1113 1.258 . S
C1121 O1114 1.266 . S
Co1122 O1125 1.970 . S
Co1122 N1139 1.989 . S
Co1122 O1147 1.967 . S
Co1122 O1154 1.920 . S
Co1123 O1126 1.966 . S
Co1123 N1132 2.022 . S
Co1123 N1140 1.993 . S
Co1123 O1148 1.941 . S
C1124 O1125 1.258 . S
C1124 O1126 1.263 . S
O1125 Co1122 1.970 . S
O1125 C1124 1.258 . S
O1126 Co1123 1.966 . S
O1126 C1124 1.263 . S
C1127 O1128 1.235 . S
C1127 O1154 1.289 . S
O1128 C1127 1.235 . S
C1129 C1131 1.400 . S
C1129 N1132 1.351 . S
C1129 C1134 1.501 . S
C1130 C1131 1.387 . S
C1130 N1133 1.341 . S
C1131 C1129 1.400 . S
C1131 C1130 1.387 . S
N1132 Co1123 2.022 . S
N1132 C1129 1.351 . S
N1132 N1133 1.365 . S
N1133 C1130 1.341 . S
N1133 N1132 1.365 . S
N1133 H1153 0.862 . S
C1134 C1129 1.501 . S
C1134 H1135 0.961 . S
C1134 H1136 0.961 . S
C1134 H1137 0.960 . S
H1135 C1134 0.961 . S
H1136 C1134 0.961 . S
H1137 C1134 0.960 . S
C1138 N1139 1.342 . S
C1138 C1142 1.401 . S
C1138 C1143 1.499 . S
N1139 Co1122 1.989 . S
N1139 C1138 1.342 . S
N1139 N1140 1.388 . S
N1140 Co1123 1.993 . S
N1140 N1139 1.388 . S
N1140 C1141 1.346 . S
C1141 N1140 1.346 . S
C1141 C1142 1.396 . S
C1141 C1151 1.510 . S
C1142 C1138 1.401 . S
C1142 C1141 1.396 . S
C1143 C1138 1.499 . S
C1143 H1144 0.959 . S
C1143 H1145 0.960 . S
C1143 H1146 0.961 . S
H1144 C1143 0.959 . S
H1145 C1143 0.960 . S
H1146 C1143 0.961 . S
O1147 Co1122 1.967 . S
O1147 C1155 1.258 . S
O1148 Co1123 1.941 . S
O1148 C1155 1.266 . S
H1149 C1151 0.959 . S
H1150 C1151 0.961 . S
C1151 C1141 1.510 . S
C1151 H1149 0.959 . S
C1151 H1150 0.961 . S
C1151 H1152 0.960 . S
H1152 C1151 0.960 . S
H1153 N1133 0.862 . S
O1154 Co1122 1.920 . S
O1154 C1127 1.289 . S
C1155 O1147 1.258 . S
C1155 O1148 1.266 . S
Co1156 O1159 1.970 . S
Co1156 N1173 1.989 . S
Co1156 O1181 1.967 . S
Co1156 O1188 1.920 . S
Co1157 O1160 1.966 . S
Co1157 N1166 2.022 . S
Co1157 N1174 1.993 . S
Co1157 O1182 1.941 . S
C1158 O1159 1.258 . S
C1158 O1160 1.263 . S
O1159 Co1156 1.970 . S
O1159 C1158 1.258 . S
O1160 Co1157 1.966 . S
O1160 C1158 1.263 . S
C1161 O1162 1.235 . S
C1161 O1188 1.289 . S
O1162 C1161 1.235 . S
C1163 C1165 1.400 . S
C1163 N1166 1.351 . S
C1163 C1168 1.501 . S
C1164 C1165 1.387 . S
C1164 N1167 1.341 . S
C1165 C1163 1.400 . S
C1165 C1164 1.387 . S
N1166 Co1157 2.022 . S
N1166 C1163 1.351 . S
N1166 N1167 1.365 . S
N1167 C1164 1.341 . S
N1167 N1166 1.365 . S
N1167 H1187 0.862 . S
C1168 C1163 1.501 . S
C1168 H1169 0.961 . S
C1168 H1170 0.961 . S
C1168 H1171 0.960 . S
H1169 C1168 0.961 . S
H1170 C1168 0.961 . S
H1171 C1168 0.960 . S
C1172 N1173 1.342 . S
C1172 C1176 1.401 . S
C1172 C1177 1.499 . S
N1173 Co1156 1.989 . S
N1173 C1172 1.342 . S
N1173 N1174 1.388 . S
N1174 Co1157 1.993 . S
N1174 N1173 1.388 . S
N1174 C1175 1.346 . S
C1175 N1174 1.346 . S
C1175 C1176 1.396 . S
C1175 C1185 1.510 . S
C1176 C1172 1.401 . S
C1176 C1175 1.396 . S
C1177 C1172 1.499 . S
C1177 H1178 0.959 . S
C1177 H1179 0.960 . S
C1177 H1180 0.961 . S
H1178 C1177 0.959 . S
H1179 C1177 0.960 . S
H1180 C1177 0.961 . S
O1181 Co1156 1.967 . S
O1181 C1189 1.258 . S
O1182 Co1157 1.941 . S
O1182 C1189 1.266 . S
H1183 C1185 0.959 . S
H1184 C1185 0.961 . S
C1185 C1175 1.510 . S
C1185 H1183 0.959 . S
C1185 H1184 0.961 . S
C1185 H1186 0.960 . S
H1186 C1185 0.960 . S
H1187 N1167 0.862 . S
O1188 Co1156 1.920 . S
O1188 C1161 1.289 . S
C1189 O1181 1.258 . S
C1189 O1182 1.266 . S
Co1190 O1193 1.970 . S
Co1190 N1207 1.989 . S
Co1190 O1215 1.967 . S
Co1190 O1222 1.920 . S
Co1191 O1194 1.966 . S
Co1191 N1200 2.022 . S
Co1191 N1208 1.993 . S
Co1191 O1216 1.941 . S
C1192 O1193 1.258 . S
C1192 O1194 1.263 . S
O1193 Co1190 1.970 . S
O1193 C1192 1.258 . S
O1194 Co1191 1.966 . S
O1194 C1192 1.263 . S
C1195 O1196 1.235 . S
C1195 O1222 1.289 . S
O1196 C1195 1.235 . S
C1197 C1199 1.400 . S
C1197 N1200 1.351 . S
C1197 C1202 1.501 . S
C1198 C1199 1.387 . S
C1198 N1201 1.341 . S
C1199 C1197 1.400 . S
C1199 C1198 1.387 . S
N1200 Co1191 2.022 . S
N1200 C1197 1.351 . S
N1200 N1201 1.365 . S
N1201 C1198 1.341 . S
N1201 N1200 1.365 . S
N1201 H1221 0.862 . S
C1202 C1197 1.501 . S
C1202 H1203 0.961 . S
C1202 H1204 0.961 . S
C1202 H1205 0.960 . S
H1203 C1202 0.961 . S
H1204 C1202 0.961 . S
H1205 C1202 0.960 . S
C1206 N1207 1.342 . S
C1206 C1210 1.401 . S
C1206 C1211 1.499 . S
N1207 Co1190 1.989 . S
N1207 C1206 1.342 . S
N1207 N1208 1.388 . S
N1208 Co1191 1.993 . S
N1208 N1207 1.388 . S
N1208 C1209 1.346 . S
C1209 N1208 1.346 . S
C1209 C1210 1.396 . S
C1209 C1219 1.510 . S
C1210 C1206 1.401 . S
C1210 C1209 1.396 . S
C1211 C1206 1.499 . S
C1211 H1212 0.959 . S
C1211 H1213 0.960 . S
C1211 H1214 0.961 . S
H1212 C1211 0.959 . S
H1213 C1211 0.960 . S
H1214 C1211 0.961 . S
O1215 Co1190 1.967 . S
O1215 C1223 1.258 . S
O1216 Co1191 1.941 . S
O1216 C1223 1.266 . S
H1217 C1219 0.959 . S
H1218 C1219 0.961 . S
C1219 C1209 1.510 . S
C1219 H1217 0.959 . S
C1219 H1218 0.961 . S
C1219 H1220 0.960 . S
H1220 C1219 0.960 . S
H1221 N1201 0.862 . S
O1222 Co1190 1.920 . S
O1222 C1195 1.289 . S
C1223 O1215 1.258 . S
C1223 O1216 1.266 . S
Co1224 O1227 1.970 . S
Co1224 N1241 1.989 . S
Co1224 O1249 1.967 . S
Co1224 O1256 1.920 . S
Co1225 O1228 1.966 . S
Co1225 N1234 2.022 . S
Co1225 N1242 1.993 . S
Co1225 O1250 1.941 . S
C1226 O1227 1.258 . S
C1226 O1228 1.263 . S
O1227 Co1224 1.970 . S
O1227 C1226 1.258 . S
O1228 Co1225 1.966 . S
O1228 C1226 1.263 . S
C1229 O1230 1.235 . S
C1229 O1256 1.289 . S
O1230 C1229 1.235 . S
C1231 C1233 1.400 . S
C1231 N1234 1.351 . S
C1231 C1236 1.501 . S
C1232 C1233 1.387 . S
C1232 N1235 1.341 . S
C1233 C1231 1.400 . S
C1233 C1232 1.387 . S
N1234 Co1225 2.022 . S
N1234 C1231 1.351 . S
N1234 N1235 1.365 . S
N1235 C1232 1.341 . S
N1235 N1234 1.365 . S
N1235 H1255 0.862 . S
C1236 C1231 1.501 . S
C1236 H1237 0.961 . S
C1236 H1238 0.961 . S
C1236 H1239 0.960 . S
H1237 C1236 0.961 . S
H1238 C1236 0.961 . S
H1239 C1236 0.960 . S
C1240 N1241 1.342 . S
C1240 C1244 1.401 . S
C1240 C1245 1.499 . S
N1241 Co1224 1.989 . S
N1241 C1240 1.342 . S
N1241 N1242 1.388 . S
N1242 Co1225 1.993 . S
N1242 N1241 1.388 . S
N1242 C1243 1.346 . S
C1243 N1242 1.346 . S
C1243 C1244 1.396 . S
C1243 C1253 1.510 . S
C1244 C1240 1.401 . S
C1244 C1243 1.396 . S
C1245 C1240 1.499 . S
C1245 H1246 0.959 . S
C1245 H1247 0.960 . S
C1245 H1248 0.961 . S
H1246 C1245 0.959 . S
H1247 C1245 0.960 . S
H1248 C1245 0.961 . S
O1249 Co1224 1.967 . S
O1249 C1257 1.258 . S
O1250 Co1225 1.941 . S
O1250 C1257 1.266 . S
H1251 C1253 0.959 . S
H1252 C1253 0.961 . S
C1253 C1243 1.510 . S
C1253 H1251 0.959 . S
C1253 H1252 0.961 . S
C1253 H1254 0.960 . S
H1254 C1253 0.960 . S
H1255 N1235 0.862 . S
O1256 Co1224 1.920 . S
O1256 C1229 1.289 . S
C1257 O1249 1.258 . S
C1257 O1250 1.266 . S
Co1258 O1261 1.970 . S
Co1258 N1275 1.989 . S
Co1258 O1283 1.967 . S
Co1258 O1290 1.920 . S
Co1259 O1262 1.966 . S
Co1259 N1268 2.022 . S
Co1259 N1276 1.993 . S
Co1259 O1284 1.941 . S
C1260 O1261 1.258 . S
C1260 O1262 1.263 . S
O1261 Co1258 1.970 . S
O1261 C1260 1.258 . S
O1262 Co1259 1.966 . S
O1262 C1260 1.263 . S
C1263 O1264 1.235 . S
C1263 O1290 1.289 . S
O1264 C1263 1.235 . S
C1265 C1267 1.400 . S
C1265 N1268 1.351 . S
C1265 C1270 1.501 . S
C1266 C1267 1.387 . S
C1266 N1269 1.341 . S
C1267 C1265 1.400 . S
C1267 C1266 1.387 . S
N1268 Co1259 2.022 . S
N1268 C1265 1.351 . S
N1268 N1269 1.365 . S
N1269 C1266 1.341 . S
N1269 N1268 1.365 . S
N1269 H1289 0.862 . S
C1270 C1265 1.501 . S
C1270 H1271 0.961 . S
C1270 H1272 0.961 . S
C1270 H1273 0.960 . S
H1271 C1270 0.961 . S
H1272 C1270 0.961 . S
H1273 C1270 0.960 . S
C1274 N1275 1.342 . S
C1274 C1278 1.401 . S
C1274 C1279 1.499 . S
N1275 Co1258 1.989 . S
N1275 C1274 1.342 . S
N1275 N1276 1.388 . S
N1276 Co1259 1.993 . S
N1276 N1275 1.388 . S
N1276 C1277 1.346 . S
C1277 N1276 1.346 . S
C1277 C1278 1.396 . S
C1277 C1287 1.510 . S
C1278 C1274 1.401 . S
C1278 C1277 1.396 . S
C1279 C1274 1.499 . S
C1279 H1280 0.959 . S
C1279 H1281 0.960 . S
C1279 H1282 0.961 . S
H1280 C1279 0.959 . S
H1281 C1279 0.960 . S
H1282 C1279 0.961 . S
O1283 Co1258 1.967 . S
O1283 C1291 1.258 . S
O1284 Co1259 1.941 . S
O1284 C1291 1.266 . S
H1285 C1287 0.959 . S
H1286 C1287 0.961 . S
C1287 C1277 1.510 . S
C1287 H1285 0.959 . S
C1287 H1286 0.961 . S
C1287 H1288 0.960 . S
H1288 C1287 0.960 . S
H1289 N1269 0.862 . S
O1290 Co1258 1.920 . S
O1290 C1263 1.289 . S
C1291 O1283 1.258 . S
C1291 O1284 1.266 . S
Co1292 O1295 1.970 . S
Co1292 N1309 1.989 . S
Co1292 O1317 1.967 . S
Co1292 O1324 1.920 . S
Co1293 O1296 1.966 . S
Co1293 N1302 2.022 . S
Co1293 N1310 1.993 . S
Co1293 O1318 1.941 . S
C1294 O1295 1.258 . S
C1294 O1296 1.263 . S
O1295 Co1292 1.970 . S
O1295 C1294 1.258 . S
O1296 Co1293 1.966 . S
O1296 C1294 1.263 . S
C1297 O1298 1.235 . S
C1297 O1324 1.289 . S
O1298 C1297 1.235 . S
C1299 C1301 1.400 . S
C1299 N1302 1.351 . S
C1299 C1304 1.501 . S
C1300 C1301 1.387 . S
C1300 N1303 1.341 . S
C1301 C1299 1.400 . S
C1301 C1300 1.387 . S
N1302 Co1293 2.022 . S
N1302 C1299 1.351 . S
N1302 N1303 1.365 . S
N1303 C1300 1.341 . S
N1303 N1302 1.365 . S
N1303 H1323 0.862 . S
C1304 C1299 1.501 . S
C1304 H1305 0.961 . S
C1304 H1306 0.961 . S
C1304 H1307 0.960 . S
H1305 C1304 0.961 . S
H1306 C1304 0.961 . S
H1307 C1304 0.960 . S
C1308 N1309 1.342 . S
C1308 C1312 1.401 . S
C1308 C1313 1.499 . S
N1309 Co1292 1.989 . S
N1309 C1308 1.342 . S
N1309 N1310 1.388 . S
N1310 Co1293 1.993 . S
N1310 N1309 1.388 . S
N1310 C1311 1.346 . S
C1311 N1310 1.346 . S
C1311 C1312 1.396 . S
C1311 C1321 1.510 . S
C1312 C1308 1.401 . S
C1312 C1311 1.396 . S
C1313 C1308 1.499 . S
C1313 H1314 0.959 . S
C1313 H1315 0.960 . S
C1313 H1316 0.961 . S
H1314 C1313 0.959 . S
H1315 C1313 0.960 . S
H1316 C1313 0.961 . S
O1317 Co1292 1.967 . S
O1317 C1325 1.258 . S
O1318 Co1293 1.941 . S
O1318 C1325 1.266 . S
H1319 C1321 0.959 . S
H1320 C1321 0.961 . S
C1321 C1311 1.510 . S
C1321 H1319 0.959 . S
C1321 H1320 0.961 . S
C1321 H1322 0.960 . S
H1322 C1321 0.960 . S
H1323 N1303 0.862 . S
O1324 Co1292 1.920 . S
O1324 C1297 1.289 . S
C1325 O1317 1.258 . S
C1325 O1318 1.266 . S
Co1326 O1329 1.970 . S
Co1326 N1343 1.989 . S
Co1326 O1351 1.967 . S
Co1326 O1358 1.920 . S
Co1327 O1330 1.966 . S
Co1327 N1336 2.022 . S
Co1327 N1344 1.993 . S
Co1327 O1352 1.941 . S
C1328 O1329 1.258 . S
C1328 O1330 1.263 . S
O1329 Co1326 1.970 . S
O1329 C1328 1.258 . S
O1330 Co1327 1.966 . S
O1330 C1328 1.263 . S
C1331 O1332 1.235 . S
C1331 O1358 1.289 . S
O1332 C1331 1.235 . S
C1333 C1335 1.400 . S
C1333 N1336 1.351 . S
C1333 C1338 1.501 . S
C1334 C1335 1.387 . S
C1334 N1337 1.341 . S
C1335 C1333 1.400 . S
C1335 C1334 1.387 . S
N1336 Co1327 2.022 . S
N1336 C1333 1.351 . S
N1336 N1337 1.365 . S
N1337 C1334 1.341 . S
N1337 N1336 1.365 . S
N1337 H1357 0.862 . S
C1338 C1333 1.501 . S
C1338 H1339 0.961 . S
C1338 H1340 0.961 . S
C1338 H1341 0.960 . S
H1339 C1338 0.961 . S
H1340 C1338 0.961 . S
H1341 C1338 0.960 . S
C1342 N1343 1.342 . S
C1342 C1346 1.401 . S
C1342 C1347 1.499 . S
N1343 Co1326 1.989 . S
N1343 C1342 1.342 . S
N1343 N1344 1.388 . S
N1344 Co1327 1.993 . S
N1344 N1343 1.388 . S
N1344 C1345 1.346 . S
C1345 N1344 1.346 . S
C1345 C1346 1.396 . S
C1345 C1355 1.510 . S
C1346 C1342 1.401 . S
C1346 C1345 1.396 . S
C1347 C1342 1.499 . S
C1347 H1348 0.959 . S
C1347 H1349 0.960 . S
C1347 H1350 0.961 . S
H1348 C1347 0.959 . S
H1349 C1347 0.960 . S
H1350 C1347 0.961 . S
O1351 Co1326 1.967 . S
O1351 C1359 1.258 . S
O1352 Co1327 1.941 . S
O1352 C1359 1.266 . S
H1353 C1355 0.959 . S
H1354 C1355 0.961 . S
C1355 C1345 1.510 . S
C1355 H1353 0.959 . S
C1355 H1354 0.961 . S
C1355 H1356 0.960 . S
H1356 C1355 0.960 . S
H1357 N1337 0.862 . S
O1358 Co1326 1.920 . S
O1358 C1331 1.289 . S
C1359 O1351 1.258 . S
C1359 O1352 1.266 . S
Co1360 O1363 1.970 . S
Co1360 N1377 1.989 . S
Co1360 O1385 1.967 . S
Co1360 O1392 1.920 . S
Co1361 O1364 1.966 . S
Co1361 N1370 2.022 . S
Co1361 N1378 1.993 . S
Co1361 O1386 1.941 . S
C1362 O1363 1.258 . S
C1362 O1364 1.263 . S
O1363 Co1360 1.970 . S
O1363 C1362 1.258 . S
O1364 Co1361 1.966 . S
O1364 C1362 1.263 . S
C1365 O1366 1.235 . S
C1365 O1392 1.289 . S
O1366 C1365 1.235 . S
C1367 C1369 1.400 . S
C1367 N1370 1.351 . S
C1367 C1372 1.501 . S
C1368 C1369 1.387 . S
C1368 N1371 1.341 . S
C1369 C1367 1.400 . S
C1369 C1368 1.387 . S
N1370 Co1361 2.022 . S
N1370 C1367 1.351 . S
N1370 N1371 1.365 . S
N1371 C1368 1.341 . S
N1371 N1370 1.365 . S
N1371 H1391 0.862 . S
C1372 C1367 1.501 . S
C1372 H1373 0.961 . S
C1372 H1374 0.961 . S
C1372 H1375 0.960 . S
H1373 C1372 0.961 . S
H1374 C1372 0.961 . S
H1375 C1372 0.960 . S
C1376 N1377 1.342 . S
C1376 C1380 1.401 . S
C1376 C1381 1.499 . S
N1377 Co1360 1.989 . S
N1377 C1376 1.342 . S
N1377 N1378 1.388 . S
N1378 Co1361 1.993 . S
N1378 N1377 1.388 . S
N1378 C1379 1.346 . S
C1379 N1378 1.346 . S
C1379 C1380 1.396 . S
C1379 C1389 1.510 . S
C1380 C1376 1.401 . S
C1380 C1379 1.396 . S
C1381 C1376 1.499 . S
C1381 H1382 0.959 . S
C1381 H1383 0.960 . S
C1381 H1384 0.961 . S
H1382 C1381 0.959 . S
H1383 C1381 0.960 . S
H1384 C1381 0.961 . S
O1385 Co1360 1.967 . S
O1385 C1393 1.258 . S
O1386 Co1361 1.941 . S
O1386 C1393 1.266 . S
H1387 C1389 0.959 . S
H1388 C1389 0.961 . S
C1389 C1379 1.510 . S
C1389 H1387 0.959 . S
C1389 H1388 0.961 . S
C1389 H1390 0.960 . S
H1390 C1389 0.960 . S
H1391 N1371 0.862 . S
O1392 Co1360 1.920 . S
O1392 C1365 1.289 . S
C1393 O1385 1.258 . S
C1393 O1386 1.266 . S
Co1394 O1397 1.970 . S
Co1394 N1411 1.989 . S
Co1394 O1419 1.967 . S
Co1394 O1426 1.920 . S
Co1395 O1398 1.966 . S
Co1395 N1404 2.022 . S
Co1395 N1412 1.993 . S
Co1395 O1420 1.941 . S
C1396 O1397 1.258 . S
C1396 O1398 1.263 . S
O1397 Co1394 1.970 . S
O1397 C1396 1.258 . S
O1398 Co1395 1.966 . S
O1398 C1396 1.263 . S
C1399 O1400 1.235 . S
C1399 O1426 1.289 . S
O1400 C1399 1.235 . S
C1401 C1403 1.400 . S
C1401 N1404 1.351 . S
C1401 C1406 1.501 . S
C1402 C1403 1.387 . S
C1402 N1405 1.341 . S
C1403 C1401 1.400 . S
C1403 C1402 1.387 . S
N1404 Co1395 2.022 . S
N1404 C1401 1.351 . S
N1404 N1405 1.365 . S
N1405 C1402 1.341 . S
N1405 N1404 1.365 . S
N1405 H1425 0.862 . S
C1406 C1401 1.501 . S
C1406 H1407 0.961 . S
C1406 H1408 0.961 . S
C1406 H1409 0.960 . S
H1407 C1406 0.961 . S
H1408 C1406 0.961 . S
H1409 C1406 0.960 . S
C1410 N1411 1.342 . S
C1410 C1414 1.401 . S
C1410 C1415 1.499 . S
N1411 Co1394 1.989 . S
N1411 C1410 1.342 . S
N1411 N1412 1.388 . S
N1412 Co1395 1.993 . S
N1412 N1411 1.388 . S
N1412 C1413 1.346 . S
C1413 N1412 1.346 . S
C1413 C1414 1.396 . S
C1413 C1423 1.510 . S
C1414 C1410 1.401 . S
C1414 C1413 1.396 . S
C1415 C1410 1.499 . S
C1415 H1416 0.959 . S
C1415 H1417 0.960 . S
C1415 H1418 0.961 . S
H1416 C1415 0.959 . S
H1417 C1415 0.960 . S
H1418 C1415 0.961 . S
O1419 Co1394 1.967 . S
O1419 C1427 1.258 . S
O1420 Co1395 1.941 . S
O1420 C1427 1.266 . S
H1421 C1423 0.959 . S
H1422 C1423 0.961 . S
C1423 C1413 1.510 . S
C1423 H1421 0.959 . S
C1423 H1422 0.961 . S
C1423 H1424 0.960 . S
H1424 C1423 0.960 . S
H1425 N1405 0.862 . S
O1426 Co1394 1.920 . S
O1426 C1399 1.289 . S
C1427 O1419 1.258 . S
C1427 O1420 1.266 . S
Co1428 O1431 1.970 . S
Co1428 N1445 1.989 . S
Co1428 O1453 1.967 . S
Co1428 O1460 1.920 . S
Co1429 O1432 1.966 . S
Co1429 N1438 2.022 . S
Co1429 N1446 1.993 . S
Co1429 O1454 1.941 . S
C1430 O1431 1.258 . S
C1430 O1432 1.263 . S
O1431 Co1428 1.970 . S
O1431 C1430 1.258 . S
O1432 Co1429 1.966 . S
O1432 C1430 1.263 . S
C1433 O1434 1.235 . S
C1433 O1460 1.289 . S
O1434 C1433 1.235 . S
C1435 C1437 1.400 . S
C1435 N1438 1.351 . S
C1435 C1440 1.501 . S
C1436 C1437 1.387 . S
C1436 N1439 1.341 . S
C1437 C1435 1.400 . S
C1437 C1436 1.387 . S
N1438 Co1429 2.022 . S
N1438 C1435 1.351 . S
N1438 N1439 1.365 . S
N1439 C1436 1.341 . S
N1439 N1438 1.365 . S
N1439 H1459 0.862 . S
C1440 C1435 1.501 . S
C1440 H1441 0.961 . S
C1440 H1442 0.961 . S
C1440 H1443 0.960 . S
H1441 C1440 0.961 . S
H1442 C1440 0.961 . S
H1443 C1440 0.960 . S
C1444 N1445 1.342 . S
C1444 C1448 1.401 . S
C1444 C1449 1.499 . S
N1445 Co1428 1.989 . S
N1445 C1444 1.342 . S
N1445 N1446 1.388 . S
N1446 Co1429 1.993 . S
N1446 N1445 1.388 . S
N1446 C1447 1.346 . S
C1447 N1446 1.346 . S
C1447 C1448 1.396 . S
C1447 C1457 1.510 . S
C1448 C1444 1.401 . S
C1448 C1447 1.396 . S
C1449 C1444 1.499 . S
C1449 H1450 0.959 . S
C1449 H1451 0.960 . S
C1449 H1452 0.961 . S
H1450 C1449 0.959 . S
H1451 C1449 0.960 . S
H1452 C1449 0.961 . S
O1453 Co1428 1.967 . S
O1453 C1461 1.258 . S
O1454 Co1429 1.941 . S
O1454 C1461 1.266 . S
H1455 C1457 0.959 . S
H1456 C1457 0.961 . S
C1457 C1447 1.510 . S
C1457 H1455 0.959 . S
C1457 H1456 0.961 . S
C1457 H1458 0.960 . S
H1458 C1457 0.960 . S
H1459 N1439 0.862 . S
O1460 Co1428 1.920 . S
O1460 C1433 1.289 . S
C1461 O1453 1.258 . S
C1461 O1454 1.266 . S
Co1462 O1465 1.970 . S
Co1462 N1479 1.989 . S
Co1462 O1487 1.967 . S
Co1462 O1494 1.920 . S
Co1463 O1466 1.966 . S
Co1463 N1472 2.022 . S
Co1463 N1480 1.993 . S
Co1463 O1488 1.941 . S
C1464 O1465 1.258 . S
C1464 O1466 1.263 . S
O1465 Co1462 1.970 . S
O1465 C1464 1.258 . S
O1466 Co1463 1.966 . S
O1466 C1464 1.263 . S
C1467 O1468 1.235 . S
C1467 O1494 1.289 . S
O1468 C1467 1.235 . S
C1469 C1471 1.400 . S
C1469 N1472 1.351 . S
C1469 C1474 1.501 . S
C1470 C1471 1.387 . S
C1470 N1473 1.341 . S
C1471 C1469 1.400 . S
C1471 C1470 1.387 . S
N1472 Co1463 2.022 . S
N1472 C1469 1.351 . S
N1472 N1473 1.365 . S
N1473 C1470 1.341 . S
N1473 N1472 1.365 . S
N1473 H1493 0.862 . S
C1474 C1469 1.501 . S
C1474 H1475 0.961 . S
C1474 H1476 0.961 . S
C1474 H1477 0.960 . S
H1475 C1474 0.961 . S
H1476 C1474 0.961 . S
H1477 C1474 0.960 . S
C1478 N1479 1.342 . S
C1478 C1482 1.401 . S
C1478 C1483 1.499 . S
N1479 Co1462 1.989 . S
N1479 C1478 1.342 . S
N1479 N1480 1.388 . S
N1480 Co1463 1.993 . S
N1480 N1479 1.388 . S
N1480 C1481 1.346 . S
C1481 N1480 1.346 . S
C1481 C1482 1.396 . S
C1481 C1491 1.510 . S
C1482 C1478 1.401 . S
C1482 C1481 1.396 . S
C1483 C1478 1.499 . S
C1483 H1484 0.959 . S
C1483 H1485 0.960 . S
C1483 H1486 0.961 . S
H1484 C1483 0.959 . S
H1485 C1483 0.960 . S
H1486 C1483 0.961 . S
O1487 Co1462 1.967 . S
O1487 C1495 1.258 . S
O1488 Co1463 1.941 . S
O1488 C1495 1.266 . S
H1489 C1491 0.959 . S
H1490 C1491 0.961 . S
C1491 C1481 1.510 . S
C1491 H1489 0.959 . S
C1491 H1490 0.961 . S
C1491 H1492 0.960 . S
H1492 C1491 0.960 . S
H1493 N1473 0.862 . S
O1494 Co1462 1.920 . S
O1494 C1467 1.289 . S
C1495 O1487 1.258 . S
C1495 O1488 1.266 . S
Co1496 O1499 1.970 . S
Co1496 N1513 1.989 . S
Co1496 O1521 1.967 . S
Co1496 O1528 1.920 . S
Co1497 O1500 1.966 . S
Co1497 N1506 2.022 . S
Co1497 N1514 1.993 . S
Co1497 O1522 1.941 . S
C1498 O1499 1.258 . S
C1498 O1500 1.263 . S
O1499 Co1496 1.970 . S
O1499 C1498 1.258 . S
O1500 Co1497 1.966 . S
O1500 C1498 1.263 . S
C1501 O1502 1.235 . S
C1501 O1528 1.289 . S
O1502 C1501 1.235 . S
C1503 C1505 1.400 . S
C1503 N1506 1.351 . S
C1503 C1508 1.501 . S
C1504 C1505 1.387 . S
C1504 N1507 1.341 . S
C1505 C1503 1.400 . S
C1505 C1504 1.387 . S
N1506 Co1497 2.022 . S
N1506 C1503 1.351 . S
N1506 N1507 1.365 . S
N1507 C1504 1.341 . S
N1507 N1506 1.365 . S
N1507 H1527 0.862 . S
C1508 C1503 1.501 . S
C1508 H1509 0.961 . S
C1508 H1510 0.961 . S
C1508 H1511 0.960 . S
H1509 C1508 0.961 . S
H1510 C1508 0.961 . S
H1511 C1508 0.960 . S
C1512 N1513 1.342 . S
C1512 C1516 1.401 . S
C1512 C1517 1.499 . S
N1513 Co1496 1.989 . S
N1513 C1512 1.342 . S
N1513 N1514 1.388 . S
N1514 Co1497 1.993 . S
N1514 N1513 1.388 . S
N1514 C1515 1.346 . S
C1515 N1514 1.346 . S
C1515 C1516 1.396 . S
C1515 C1525 1.510 . S
C1516 C1512 1.401 . S
C1516 C1515 1.396 . S
C1517 C1512 1.499 . S
C1517 H1518 0.959 . S
C1517 H1519 0.960 . S
C1517 H1520 0.961 . S
H1518 C1517 0.959 . S
H1519 C1517 0.960 . S
H1520 C1517 0.961 . S
O1521 Co1496 1.967 . S
O1521 C1529 1.258 . S
O1522 Co1497 1.941 . S
O1522 C1529 1.266 . S
H1523 C1525 0.959 . S
H1524 C1525 0.961 . S
C1525 C1515 1.510 . S
C1525 H1523 0.959 . S
C1525 H1524 0.961 . S
C1525 H1526 0.960 . S
H1526 C1525 0.960 . S
H1527 N1507 0.862 . S
O1528 Co1496 1.920 . S
O1528 C1501 1.289 . S
C1529 O1521 1.258 . S
C1529 O1522 1.266 . S
Co1530 O1533 1.970 . S
Co1530 N1547 1.989 . S
Co1530 O1555 1.967 . S
Co1530 O1562 1.920 . S
Co1531 O1534 1.966 . S
Co1531 N1540 2.022 . S
Co1531 N1548 1.993 . S
Co1531 O1556 1.941 . S
C1532 O1533 1.258 . S
C1532 O1534 1.263 . S
O1533 Co1530 1.970 . S
O1533 C1532 1.258 . S
O1534 Co1531 1.966 . S
O1534 C1532 1.263 . S
C1535 O1536 1.235 . S
C1535 O1562 1.289 . S
O1536 C1535 1.235 . S
C1537 C1539 1.400 . S
C1537 N1540 1.351 . S
C1537 C1542 1.501 . S
C1538 C1539 1.387 . S
C1538 N1541 1.341 . S
C1539 C1537 1.400 . S
C1539 C1538 1.387 . S
N1540 Co1531 2.022 . S
N1540 C1537 1.351 . S
N1540 N1541 1.365 . S
N1541 C1538 1.341 . S
N1541 N1540 1.365 . S
N1541 H1561 0.862 . S
C1542 C1537 1.501 . S
C1542 H1543 0.961 . S
C1542 H1544 0.961 . S
C1542 H1545 0.960 . S
H1543 C1542 0.961 . S
H1544 C1542 0.961 . S
H1545 C1542 0.960 . S
C1546 N1547 1.342 . S
C1546 C1550 1.401 . S
C1546 C1551 1.499 . S
N1547 Co1530 1.989 . S
N1547 C1546 1.342 . S
N1547 N1548 1.388 . S
N1548 Co1531 1.993 . S
N1548 N1547 1.388 . S
N1548 C1549 1.346 . S
C1549 N1548 1.346 . S
C1549 C1550 1.396 . S
C1549 C1559 1.510 . S
C1550 C1546 1.401 . S
C1550 C1549 1.396 . S
C1551 C1546 1.499 . S
C1551 H1552 0.959 . S
C1551 H1553 0.960 . S
C1551 H1554 0.961 . S
H1552 C1551 0.959 . S
H1553 C1551 0.960 . S
H1554 C1551 0.961 . S
O1555 Co1530 1.967 . S
O1555 C1563 1.258 . S
O1556 Co1531 1.941 . S
O1556 C1563 1.266 . S
H1557 C1559 0.959 . S
H1558 C1559 0.961 . S
C1559 C1549 1.510 . S
C1559 H1557 0.959 . S
C1559 H1558 0.961 . S
C1559 H1560 0.960 . S
H1560 C1559 0.960 . S
H1561 N1541 0.862 . S
O1562 Co1530 1.920 . S
O1562 C1535 1.289 . S
C1563 O1555 1.258 . S
C1563 O1556 1.266 . S
Co1564 O1567 1.970 . S
Co1564 N1581 1.989 . S
Co1564 O1589 1.967 . S
Co1564 O1596 1.920 . S
Co1565 O1568 1.966 . S
Co1565 N1574 2.022 . S
Co1565 N1582 1.993 . S
Co1565 O1590 1.941 . S
C1566 O1567 1.258 . S
C1566 O1568 1.263 . S
O1567 Co1564 1.970 . S
O1567 C1566 1.258 . S
O1568 Co1565 1.966 . S
O1568 C1566 1.263 . S
C1569 O1570 1.235 . S
C1569 O1596 1.289 . S
O1570 C1569 1.235 . S
C1571 C1573 1.400 . S
C1571 N1574 1.351 . S
C1571 C1576 1.501 . S
C1572 C1573 1.387 . S
C1572 N1575 1.341 . S
C1573 C1571 1.400 . S
C1573 C1572 1.387 . S
N1574 Co1565 2.022 . S
N1574 C1571 1.351 . S
N1574 N1575 1.365 . S
N1575 C1572 1.341 . S
N1575 N1574 1.365 . S
N1575 H1595 0.862 . S
C1576 C1571 1.501 . S
C1576 H1577 0.961 . S
C1576 H1578 0.961 . S
C1576 H1579 0.960 . S
H1577 C1576 0.961 . S
H1578 C1576 0.961 . S
H1579 C1576 0.960 . S
C1580 N1581 1.342 . S
C1580 C1584 1.401 . S
C1580 C1585 1.499 . S
N1581 Co1564 1.989 . S
N1581 C1580 1.342 . S
N1581 N1582 1.388 . S
N1582 Co1565 1.993 . S
N1582 N1581 1.388 . S
N1582 C1583 1.346 . S
C1583 N1582 1.346 . S
C1583 C1584 1.396 . S
C1583 C1593 1.510 . S
C1584 C1580 1.401 . S
C1584 C1583 1.396 . S
C1585 C1580 1.499 . S
C1585 H1586 0.959 . S
C1585 H1587 0.960 . S
C1585 H1588 0.961 . S
H1586 C1585 0.959 . S
H1587 C1585 0.960 . S
H1588 C1585 0.961 . S
O1589 Co1564 1.967 . S
O1589 C1597 1.258 . S
O1590 Co1565 1.941 . S
O1590 C1597 1.266 . S
H1591 C1593 0.959 . S
H1592 C1593 0.961 . S
C1593 C1583 1.510 . S
C1593 H1591 0.959 . S
C1593 H1592 0.961 . S
C1593 H1594 0.960 . S
H1594 C1593 0.960 . S
H1595 N1575 0.862 . S
O1596 Co1564 1.920 . S
O1596 C1569 1.289 . S
C1597 O1589 1.258 . S
C1597 O1590 1.266 . S
Co1598 O1601 1.970 . S
Co1598 N1615 1.989 . S
Co1598 O1623 1.967 . S
Co1598 O1630 1.920 . S
Co1599 O1602 1.966 . S
Co1599 N1608 2.022 . S
Co1599 N1616 1.993 . S
Co1599 O1624 1.941 . S
C1600 O1601 1.258 . S
C1600 O1602 1.263 . S
O1601 Co1598 1.970 . S
O1601 C1600 1.258 . S
O1602 Co1599 1.966 . S
O1602 C1600 1.263 . S
C1603 O1604 1.235 . S
C1603 O1630 1.289 . S
O1604 C1603 1.235 . S
C1605 C1607 1.400 . S
C1605 N1608 1.351 . S
C1605 C1610 1.501 . S
C1606 C1607 1.387 . S
C1606 N1609 1.341 . S
C1607 C1605 1.400 . S
C1607 C1606 1.387 . S
N1608 Co1599 2.022 . S
N1608 C1605 1.351 . S
N1608 N1609 1.365 . S
N1609 C1606 1.341 . S
N1609 N1608 1.365 . S
N1609 H1629 0.862 . S
C1610 C1605 1.501 . S
C1610 H1611 0.961 . S
C1610 H1612 0.961 . S
C1610 H1613 0.960 . S
H1611 C1610 0.961 . S
H1612 C1610 0.961 . S
H1613 C1610 0.960 . S
C1614 N1615 1.342 . S
C1614 C1618 1.401 . S
C1614 C1619 1.499 . S
N1615 Co1598 1.989 . S
N1615 C1614 1.342 . S
N1615 N1616 1.388 . S
N1616 Co1599 1.993 . S
N1616 N1615 1.388 . S
N1616 C1617 1.346 . S
C1617 N1616 1.346 . S
C1617 C1618 1.396 . S
C1617 C1627 1.510 . S
C1618 C1614 1.401 . S
C1618 C1617 1.396 . S
C1619 C1614 1.499 . S
C1619 H1620 0.959 . S
C1619 H1621 0.960 . S
C1619 H1622 0.961 . S
H1620 C1619 0.959 . S
H1621 C1619 0.960 . S
H1622 C1619 0.961 . S
O1623 Co1598 1.967 . S
O1623 C1631 1.258 . S
O1624 Co1599 1.941 . S
O1624 C1631 1.266 . S
H1625 C1627 0.959 . S
H1626 C1627 0.961 . S
C1627 C1617 1.510 . S
C1627 H1625 0.959 . S
C1627 H1626 0.961 . S
C1627 H1628 0.960 . S
H1628 C1627 0.960 . S
H1629 N1609 0.862 . S
O1630 Co1598 1.920 . S
O1630 C1603 1.289 . S
C1631 O1623 1.258 . S
C1631 O1624 1.266 . S
H1632 C1638 0.930 . S
H1633 C1642 0.930 . S
H1634 C1647 0.929 . S
H1635 C1645 0.929 . S
H1636 C1640 0.929 . S
H1637 C1646 0.929 . S
C1638 H1632 0.930 . S
C1638 C1639 1.367 . S
C1638 C1646 1.378 . S
C1639 C1638 1.367 . S
C1639 C1647 1.433 . S
C1640 H1636 0.929 . S
C1640 C1642 1.378 . S
C1640 C1644 1.350 . S
C1641 C1644 1.463 . S
C1641 C1646 1.350 . S
C1641 N1649 1.427 . S
C1642 H1633 0.930 . S
C1642 C1640 1.378 . S
C1642 C1643 1.367 . S
C1643 C1642 1.367 . S
C1643 C1645 1.433 . S
C1644 C1640 1.350 . S
C1644 C1641 1.463 . S
C1644 N1648 1.427 . S
C1645 H1635 0.929 . S
C1645 C1643 1.433 . S
C1645 N1648 1.384 . S
C1646 H1637 0.929 . S
C1646 C1638 1.378 . S
C1646 C1641 1.350 . S
C1647 H1634 0.929 . S
C1647 C1639 1.433 . S
C1647 N1649 1.384 . S
N1648 C1644 1.427 . S
N1648 C1645 1.384 . S
N1649 C1641 1.427 . S
N1649 C1647 1.384 . S
H1650 C1656 0.930 . S
H1651 C1660 0.930 . S
H1652 C1665 0.929 . S
H1653 C1663 0.929 . S
H1654 C1658 0.929 . S
H1655 C1664 0.929 . S
C1656 H1650 0.930 . S
C1656 C1657 1.367 . S
C1656 C1664 1.378 . S
C1657 C1656 1.367 . S
C1657 C1665 1.433 . S
C1658 H1654 0.929 . S
C1658 C1660 1.378 . S
C1658 C1662 1.350 . S
C1659 C1662 1.463 . S
C1659 C1664 1.350 . S
C1659 N1667 1.427 . S
C1660 H1651 0.930 . S
C1660 C1658 1.378 . S
C1660 C1661 1.367 . S
C1661 C1660 1.367 . S
C1661 C1663 1.433 . S
C1662 C1658 1.350 . S
C1662 C1659 1.463 . S
C1662 N1666 1.427 . S
C1663 H1653 0.929 . S
C1663 C1661 1.433 . S
C1663 N1666 1.384 . S
C1664 H1655 0.929 . S
C1664 C1656 1.378 . S
C1664 C1659 1.350 . S
C1665 H1652 0.929 . S
C1665 C1657 1.433 . S
C1665 N1667 1.384 . S
N1666 C1662 1.427 . S
N1666 C1663 1.384 . S
N1667 C1659 1.427 . S
N1667 C1665 1.384 . S
H1668 C1674 0.930 . S
H1669 C1678 0.930 . S
H1670 C1683 0.929 . S
H1671 C1681 0.929 . S
H1672 C1676 0.929 . S
H1673 C1682 0.929 . S
C1674 H1668 0.930 . S
C1674 C1675 1.367 . S
C1674 C1682 1.378 . S
C1675 C1674 1.367 . S
C1675 C1683 1.433 . S
C1676 H1672 0.929 . S
C1676 C1678 1.378 . S
C1676 C1680 1.350 . S
C1677 C1680 1.463 . S
C1677 C1682 1.350 . S
C1677 N1685 1.427 . S
C1678 H1669 0.930 . S
C1678 C1676 1.378 . S
C1678 C1679 1.367 . S
C1679 C1678 1.367 . S
C1679 C1681 1.433 . S
C1680 C1676 1.350 . S
C1680 C1677 1.463 . S
C1680 N1684 1.427 . S
C1681 H1671 0.929 . S
C1681 C1679 1.433 . S
C1681 N1684 1.384 . S
C1682 H1673 0.929 . S
C1682 C1674 1.378 . S
C1682 C1677 1.350 . S
C1683 H1670 0.929 . S
C1683 C1675 1.433 . S
C1683 N1685 1.384 . S
N1684 C1680 1.427 . S
N1684 C1681 1.384 . S
N1685 C1677 1.427 . S
N1685 C1683 1.384 . S
H1686 C1692 0.930 . S
H1687 C1696 0.930 . S
H1688 C1701 0.929 . S
H1689 C1699 0.929 . S
H1690 C1694 0.929 . S
H1691 C1700 0.929 . S
C1692 H1686 0.930 . S
C1692 C1693 1.367 . S
C1692 C1700 1.378 . S
C1693 C1692 1.367 . S
C1693 C1701 1.433 . S
C1694 H1690 0.929 . S
C1694 C1696 1.378 . S
C1694 C1698 1.350 . S
C1695 C1698 1.463 . S
C1695 C1700 1.350 . S
C1695 N1703 1.427 . S
C1696 H1687 0.930 . S
C1696 C1694 1.378 . S
C1696 C1697 1.367 . S
C1697 C1696 1.367 . S
C1697 C1699 1.433 . S
C1698 C1694 1.350 . S
C1698 C1695 1.463 . S
C1698 N1702 1.427 . S
C1699 H1689 0.929 . S
C1699 C1697 1.433 . S
C1699 N1702 1.384 . S
C1700 H1691 0.929 . S
C1700 C1692 1.378 . S
C1700 C1695 1.350 . S
C1701 H1688 0.929 . S
C1701 C1693 1.433 . S
C1701 N1703 1.384 . S
N1702 C1698 1.427 . S
N1702 C1699 1.384 . S
N1703 C1695 1.427 . S
N1703 C1701 1.384 . S
H1704 C1710 0.930 . S
H1705 C1714 0.930 . S
H1706 C1719 0.929 . S
H1707 C1717 0.929 . S
H1708 C1712 0.929 . S
H1709 C1718 0.929 . S
C1710 H1704 0.930 . S
C1710 C1711 1.367 . S
C1710 C1718 1.378 . S
C1711 C1710 1.367 . S
C1711 C1719 1.433 . S
C1712 H1708 0.929 . S
C1712 C1714 1.378 . S
C1712 C1716 1.350 . S
C1713 C1716 1.463 . S
C1713 C1718 1.350 . S
C1713 N1721 1.427 . S
C1714 H1705 0.930 . S
C1714 C1712 1.378 . S
C1714 C1715 1.367 . S
C1715 C1714 1.367 . S
C1715 C1717 1.433 . S
C1716 C1712 1.350 . S
C1716 C1713 1.463 . S
C1716 N1720 1.427 . S
C1717 H1707 0.929 . S
C1717 C1715 1.433 . S
C1717 N1720 1.384 . S
C1718 H1709 0.929 . S
C1718 C1710 1.378 . S
C1718 C1713 1.350 . S
C1719 H1706 0.929 . S
C1719 C1711 1.433 . S
C1719 N1721 1.384 . S
N1720 C1716 1.427 . S
N1720 C1717 1.384 . S
N1721 C1713 1.427 . S
N1721 C1719 1.384 . S
H1722 C1728 0.930 . S
H1723 C1732 0.930 . S
H1724 C1737 0.929 . S
H1725 C1735 0.929 . S
H1726 C1730 0.929 . S
H1727 C1736 0.929 . S
C1728 H1722 0.930 . S
C1728 C1729 1.367 . S
C1728 C1736 1.378 . S
C1729 C1728 1.367 . S
C1729 C1737 1.433 . S
C1730 H1726 0.929 . S
C1730 C1732 1.378 . S
C1730 C1734 1.350 . S
C1731 C1734 1.463 . S
C1731 C1736 1.350 . S
C1731 N1739 1.427 . S
C1732 H1723 0.930 . S
C1732 C1730 1.378 . S
C1732 C1733 1.367 . S
C1733 C1732 1.367 . S
C1733 C1735 1.433 . S
C1734 C1730 1.350 . S
C1734 C1731 1.463 . S
C1734 N1738 1.427 . S
C1735 H1725 0.929 . S
C1735 C1733 1.433 . S
C1735 N1738 1.384 . S
C1736 H1727 0.929 . S
C1736 C1728 1.378 . S
C1736 C1731 1.350 . S
C1737 H1724 0.929 . S
C1737 C1729 1.433 . S
C1737 N1739 1.384 . S
N1738 C1734 1.427 . S
N1738 C1735 1.384 . S
N1739 C1731 1.427 . S
N1739 C1737 1.384 . S
H1740 C1746 0.930 . S
H1741 C1750 0.930 . S
H1742 C1755 0.929 . S
H1743 C1753 0.929 . S
H1744 C1748 0.929 . S
H1745 C1754 0.929 . S
C1746 H1740 0.930 . S
C1746 C1747 1.367 . S
C1746 C1754 1.378 . S
C1747 C1746 1.367 . S
C1747 C1755 1.433 . S
C1748 H1744 0.929 . S
C1748 C1750 1.378 . S
C1748 C1752 1.350 . S
C1749 C1752 1.463 . S
C1749 C1754 1.350 . S
C1749 N1757 1.427 . S
C1750 H1741 0.930 . S
C1750 C1748 1.378 . S
C1750 C1751 1.367 . S
C1751 C1750 1.367 . S
C1751 C1753 1.433 . S
C1752 C1748 1.350 . S
C1752 C1749 1.463 . S
C1752 N1756 1.427 . S
C1753 H1743 0.929 . S
C1753 C1751 1.433 . S
C1753 N1756 1.384 . S
C1754 H1745 0.929 . S
C1754 C1746 1.378 . S
C1754 C1749 1.350 . S
C1755 H1742 0.929 . S
C1755 C1747 1.433 . S
C1755 N1757 1.384 . S
N1756 C1752 1.427 . S
N1756 C1753 1.384 . S
N1757 C1749 1.427 . S
N1757 C1755 1.384 . S
H1758 C1764 0.930 . S
H1759 C1768 0.930 . S
H1760 C1773 0.929 . S
H1761 C1771 0.929 . S
H1762 C1766 0.929 . S
H1763 C1772 0.929 . S
C1764 H1758 0.930 . S
C1764 C1765 1.367 . S
C1764 C1772 1.378 . S
C1765 C1764 1.367 . S
C1765 C1773 1.433 . S
C1766 H1762 0.929 . S
C1766 C1768 1.378 . S
C1766 C1770 1.350 . S
C1767 C1770 1.463 . S
C1767 C1772 1.350 . S
C1767 N1775 1.427 . S
C1768 H1759 0.930 . S
C1768 C1766 1.378 . S
C1768 C1769 1.367 . S
C1769 C1768 1.367 . S
C1769 C1771 1.433 . S
C1770 C1766 1.350 . S
C1770 C1767 1.463 . S
C1770 N1774 1.427 . S
C1771 H1761 0.929 . S
C1771 C1769 1.433 . S
C1771 N1774 1.384 . S
C1772 H1763 0.929 . S
C1772 C1764 1.378 . S
C1772 C1767 1.350 . S
C1773 H1760 0.929 . S
C1773 C1765 1.433 . S
C1773 N1775 1.384 . S
N1774 C1770 1.427 . S
N1774 C1771 1.384 . S
N1775 C1767 1.427 . S
N1775 C1773 1.384 . S
H1776 C1782 0.930 . S
H1777 C1786 0.930 . S
H1778 C1791 0.929 . S
H1779 C1789 0.929 . S
H1780 C1784 0.929 . S
H1781 C1790 0.929 . S
C1782 H1776 0.930 . S
C1782 C1783 1.367 . S
C1782 C1790 1.378 . S
C1783 C1782 1.367 . S
C1783 C1791 1.433 . S
C1784 H1780 0.929 . S
C1784 C1786 1.378 . S
C1784 C1788 1.350 . S
C1785 C1788 1.463 . S
C1785 C1790 1.350 . S
C1785 N1793 1.427 . S
C1786 H1777 0.930 . S
C1786 C1784 1.378 . S
C1786 C1787 1.367 . S
C1787 C1786 1.367 . S
C1787 C1789 1.433 . S
C1788 C1784 1.350 . S
C1788 C1785 1.463 . S
C1788 N1792 1.427 . S
C1789 H1779 0.929 . S
C1789 C1787 1.433 . S
C1789 N1792 1.384 . S
C1790 H1781 0.929 . S
C1790 C1782 1.378 . S
C1790 C1785 1.350 . S
C1791 H1778 0.929 . S
C1791 C1783 1.433 . S
C1791 N1793 1.384 . S
N1792 C1788 1.427 . S
N1792 C1789 1.384 . S
N1793 C1785 1.427 . S
N1793 C1791 1.384 . S
H1794 C1800 0.930 . S
H1795 C1804 0.930 . S
H1796 C1809 0.929 . S
H1797 C1807 0.929 . S
H1798 C1802 0.929 . S
H1799 C1808 0.929 . S
C1800 H1794 0.930 . S
C1800 C1801 1.367 . S
C1800 C1808 1.378 . S
C1801 C1800 1.367 . S
C1801 C1809 1.433 . S
C1802 H1798 0.929 . S
C1802 C1804 1.378 . S
C1802 C1806 1.350 . S
C1803 C1806 1.463 . S
C1803 C1808 1.350 . S
C1803 N1811 1.427 . S
C1804 H1795 0.930 . S
C1804 C1802 1.378 . S
C1804 C1805 1.367 . S
C1805 C1804 1.367 . S
C1805 C1807 1.433 . S
C1806 C1802 1.350 . S
C1806 C1803 1.463 . S
C1806 N1810 1.427 . S
C1807 H1797 0.929 . S
C1807 C1805 1.433 . S
C1807 N1810 1.384 . S
C1808 H1799 0.929 . S
C1808 C1800 1.378 . S
C1808 C1803 1.350 . S
C1809 H1796 0.929 . S
C1809 C1801 1.433 . S
C1809 N1811 1.384 . S
N1810 C1806 1.427 . S
N1810 C1807 1.384 . S
N1811 C1803 1.427 . S
N1811 C1809 1.384 . S
H1812 C1818 0.930 . S
H1813 C1822 0.930 . S
H1814 C1827 0.929 . S
H1815 C1825 0.929 . S
H1816 C1820 0.929 . S
H1817 C1826 0.929 . S
C1818 H1812 0.930 . S
C1818 C1819 1.367 . S
C1818 C1826 1.378 . S
C1819 C1818 1.367 . S
C1819 C1827 1.433 . S
C1820 H1816 0.929 . S
C1820 C1822 1.378 . S
C1820 C1824 1.350 . S
C1821 C1824 1.463 . S
C1821 C1826 1.350 . S
C1821 N1829 1.427 . S
C1822 H1813 0.930 . S
C1822 C1820 1.378 . S
C1822 C1823 1.367 . S
C1823 C1822 1.367 . S
C1823 C1825 1.433 . S
C1824 C1820 1.350 . S
C1824 C1821 1.463 . S
C1824 N1828 1.427 . S
C1825 H1815 0.929 . S
C1825 C1823 1.433 . S
C1825 N1828 1.384 . S
C1826 H1817 0.929 . S
C1826 C1818 1.378 . S
C1826 C1821 1.350 . S
C1827 H1814 0.929 . S
C1827 C1819 1.433 . S
C1827 N1829 1.384 . S
N1828 C1824 1.427 . S
N1828 C1825 1.384 . S
N1829 C1821 1.427 . S
N1829 C1827 1.384 . S
H1830 C1836 0.930 . S
H1831 C1840 0.930 . S
H1832 C1845 0.929 . S
H1833 C1843 0.929 . S
H1834 C1838 0.929 . S
H1835 C1844 0.929 . S
C1836 H1830 0.930 . S
C1836 C1837 1.367 . S
C1836 C1844 1.378 . S
C1837 C1836 1.367 . S
C1837 C1845 1.433 . S
C1838 H1834 0.929 . S
C1838 C1840 1.378 . S
C1838 C1842 1.350 . S
C1839 C1842 1.463 . S
C1839 C1844 1.350 . S
C1839 N1847 1.427 . S
C1840 H1831 0.930 . S
C1840 C1838 1.378 . S
C1840 C1841 1.367 . S
C1841 C1840 1.367 . S
C1841 C1843 1.433 . S
C1842 C1838 1.350 . S
C1842 C1839 1.463 . S
C1842 N1846 1.427 . S
C1843 H1833 0.929 . S
C1843 C1841 1.433 . S
C1843 N1846 1.384 . S
C1844 H1835 0.929 . S
C1844 C1836 1.378 . S
C1844 C1839 1.350 . S
C1845 H1832 0.929 . S
C1845 C1837 1.433 . S
C1845 N1847 1.384 . S
N1846 C1842 1.427 . S
N1846 C1843 1.384 . S
N1847 C1839 1.427 . S
N1847 C1845 1.384 . S
H1848 C1854 0.930 . S
H1849 C1858 0.930 . S
H1850 C1863 0.929 . S
H1851 C1861 0.929 . S
H1852 C1856 0.929 . S
H1853 C1862 0.929 . S
C1854 H1848 0.930 . S
C1854 C1855 1.367 . S
C1854 C1862 1.378 . S
C1855 C1854 1.367 . S
C1855 C1863 1.433 . S
C1856 H1852 0.929 . S
C1856 C1858 1.378 . S
C1856 C1860 1.350 . S
C1857 C1860 1.463 . S
C1857 C1862 1.350 . S
C1857 N1865 1.427 . S
C1858 H1849 0.930 . S
C1858 C1856 1.378 . S
C1858 C1859 1.367 . S
C1859 C1858 1.367 . S
C1859 C1861 1.433 . S
C1860 C1856 1.350 . S
C1860 C1857 1.463 . S
C1860 N1864 1.427 . S
C1861 H1851 0.929 . S
C1861 C1859 1.433 . S
C1861 N1864 1.384 . S
C1862 H1853 0.929 . S
C1862 C1854 1.378 . S
C1862 C1857 1.350 . S
C1863 H1850 0.929 . S
C1863 C1855 1.433 . S
C1863 N1865 1.384 . S
N1864 C1860 1.427 . S
N1864 C1861 1.384 . S
N1865 C1857 1.427 . S
N1865 C1863 1.384 . S
H1866 C1872 0.930 . S
H1867 C1876 0.930 . S
H1868 C1881 0.929 . S
H1869 C1879 0.929 . S
H1870 C1874 0.929 . S
H1871 C1880 0.929 . S
C1872 H1866 0.930 . S
C1872 C1873 1.367 . S
C1872 C1880 1.378 . S
C1873 C1872 1.367 . S
C1873 C1881 1.433 . S
C1874 H1870 0.929 . S
C1874 C1876 1.378 . S
C1874 C1878 1.350 . S
C1875 C1878 1.463 . S
C1875 C1880 1.350 . S
C1875 N1883 1.427 . S
C1876 H1867 0.930 . S
C1876 C1874 1.378 . S
C1876 C1877 1.367 . S
C1877 C1876 1.367 . S
C1877 C1879 1.433 . S
C1878 C1874 1.350 . S
C1878 C1875 1.463 . S
C1878 N1882 1.427 . S
C1879 H1869 0.929 . S
C1879 C1877 1.433 . S
C1879 N1882 1.384 . S
C1880 H1871 0.929 . S
C1880 C1872 1.378 . S
C1880 C1875 1.350 . S
C1881 H1868 0.929 . S
C1881 C1873 1.433 . S
C1881 N1883 1.384 . S
N1882 C1878 1.427 . S
N1882 C1879 1.384 . S
N1883 C1875 1.427 . S
N1883 C1881 1.384 . S
H1884 C1890 0.930 . S
H1885 C1894 0.930 . S
H1886 C1899 0.929 . S
H1887 C1897 0.929 . S
H1888 C1892 0.929 . S
H1889 C1898 0.929 . S
C1890 H1884 0.930 . S
C1890 C1891 1.367 . S
C1890 C1898 1.378 . S
C1891 C1890 1.367 . S
C1891 C1899 1.433 . S
C1892 H1888 0.929 . S
C1892 C1894 1.378 . S
C1892 C1896 1.350 . S
C1893 C1896 1.463 . S
C1893 C1898 1.350 . S
C1893 N1901 1.427 . S
C1894 H1885 0.930 . S
C1894 C1892 1.378 . S
C1894 C1895 1.367 . S
C1895 C1894 1.367 . S
C1895 C1897 1.433 . S
C1896 C1892 1.350 . S
C1896 C1893 1.463 . S
C1896 N1900 1.427 . S
C1897 H1887 0.929 . S
C1897 C1895 1.433 . S
C1897 N1900 1.384 . S
C1898 H1889 0.929 . S
C1898 C1890 1.378 . S
C1898 C1893 1.350 . S
C1899 H1886 0.929 . S
C1899 C1891 1.433 . S
C1899 N1901 1.384 . S
N1900 C1896 1.427 . S
N1900 C1897 1.384 . S
N1901 C1893 1.427 . S
N1901 C1899 1.384 . S
H1902 C1908 0.930 . S
H1903 C1912 0.930 . S
H1904 C1917 0.929 . S
H1905 C1915 0.929 . S
H1906 C1910 0.929 . S
H1907 C1916 0.929 . S
C1908 H1902 0.930 . S
C1908 C1909 1.367 . S
C1908 C1916 1.378 . S
C1909 C1908 1.367 . S
C1909 C1917 1.433 . S
C1910 H1906 0.929 . S
C1910 C1912 1.378 . S
C1910 C1914 1.350 . S
C1911 C1914 1.463 . S
C1911 C1916 1.350 . S
C1911 N1919 1.427 . S
C1912 H1903 0.930 . S
C1912 C1910 1.378 . S
C1912 C1913 1.367 . S
C1913 C1912 1.367 . S
C1913 C1915 1.433 . S
C1914 C1910 1.350 . S
C1914 C1911 1.463 . S
C1914 N1918 1.427 . S
C1915 H1905 0.929 . S
C1915 C1913 1.433 . S
C1915 N1918 1.384 . S
C1916 H1907 0.929 . S
C1916 C1908 1.378 . S
C1916 C1911 1.350 . S
C1917 H1904 0.929 . S
C1917 C1909 1.433 . S
C1917 N1919 1.384 . S
N1918 C1914 1.427 . S
N1918 C1915 1.384 . S
N1919 C1911 1.427 . S
N1919 C1917 1.384 . S
H1920 C1926 0.930 . S
H1921 C1930 0.930 . S
H1922 C1935 0.929 . S
H1923 C1933 0.929 . S
H1924 C1928 0.929 . S
H1925 C1934 0.929 . S
C1926 H1920 0.930 . S
C1926 C1927 1.367 . S
C1926 C1934 1.378 . S
C1927 C1926 1.367 . S
C1927 C1935 1.433 . S
C1928 H1924 0.929 . S
C1928 C1930 1.378 . S
C1928 C1932 1.350 . S
C1929 C1932 1.463 . S
C1929 C1934 1.350 . S
C1929 N1937 1.427 . S
C1930 H1921 0.930 . S
C1930 C1928 1.378 . S
C1930 C1931 1.367 . S
C1931 C1930 1.367 . S
C1931 C1933 1.433 . S
C1932 C1928 1.350 . S
C1932 C1929 1.463 . S
C1932 N1936 1.427 . S
C1933 H1923 0.929 . S
C1933 C1931 1.433 . S
C1933 N1936 1.384 . S
C1934 H1925 0.929 . S
C1934 C1926 1.378 . S
C1934 C1929 1.350 . S
C1935 H1922 0.929 . S
C1935 C1927 1.433 . S
C1935 N1937 1.384 . S
N1936 C1932 1.427 . S
N1936 C1933 1.384 . S
N1937 C1929 1.427 . S
N1937 C1935 1.384 . S
H1938 C1944 0.930 . S
H1939 C1948 0.930 . S
H1940 C1953 0.929 . S
H1941 C1951 0.929 . S
H1942 C1946 0.929 . S
H1943 C1952 0.929 . S
C1944 H1938 0.930 . S
C1944 C1945 1.367 . S
C1944 C1952 1.378 . S
C1945 C1944 1.367 . S
C1945 C1953 1.433 . S
C1946 H1942 0.929 . S
C1946 C1948 1.378 . S
C1946 C1950 1.350 . S
C1947 C1950 1.463 . S
C1947 C1952 1.350 . S
C1947 N1955 1.427 . S
C1948 H1939 0.930 . S
C1948 C1946 1.378 . S
C1948 C1949 1.367 . S
C1949 C1948 1.367 . S
C1949 C1951 1.433 . S
C1950 C1946 1.350 . S
C1950 C1947 1.463 . S
C1950 N1954 1.427 . S
C1951 H1941 0.929 . S
C1951 C1949 1.433 . S
C1951 N1954 1.384 . S
C1952 H1943 0.929 . S
C1952 C1944 1.378 . S
C1952 C1947 1.350 . S
C1953 H1940 0.929 . S
C1953 C1945 1.433 . S
C1953 N1955 1.384 . S
N1954 C1950 1.427 . S
N1954 C1951 1.384 . S
N1955 C1947 1.427 . S
N1955 C1953 1.384 . S
H1956 C1962 0.930 . S
H1957 C1966 0.930 . S
H1958 C1971 0.929 . S
H1959 C1969 0.929 . S
H1960 C1964 0.929 . S
H1961 C1970 0.929 . S
C1962 H1956 0.930 . S
C1962 C1963 1.367 . S
C1962 C1970 1.378 . S
C1963 C1962 1.367 . S
C1963 C1971 1.433 . S
C1964 H1960 0.929 . S
C1964 C1966 1.378 . S
C1964 C1968 1.350 . S
C1965 C1968 1.463 . S
C1965 C1970 1.350 . S
C1965 N1973 1.427 . S
C1966 H1957 0.930 . S
C1966 C1964 1.378 . S
C1966 C1967 1.367 . S
C1967 C1966 1.367 . S
C1967 C1969 1.433 . S
C1968 C1964 1.350 . S
C1968 C1965 1.463 . S
C1968 N1972 1.427 . S
C1969 H1959 0.929 . S
C1969 C1967 1.433 . S
C1969 N1972 1.384 . S
C1970 H1961 0.929 . S
C1970 C1962 1.378 . S
C1970 C1965 1.350 . S
C1971 H1958 0.929 . S
C1971 C1963 1.433 . S
C1971 N1973 1.384 . S
N1972 C1968 1.427 . S
N1972 C1969 1.384 . S
N1973 C1965 1.427 . S
N1973 C1971 1.384 . S
H1974 C1980 0.930 . S
H1975 C1984 0.930 . S
H1976 C1989 0.929 . S
H1977 C1987 0.929 . S
H1978 C1982 0.929 . S
H1979 C1988 0.929 . S
C1980 H1974 0.930 . S
C1980 C1981 1.367 . S
C1980 C1988 1.378 . S
C1981 C1980 1.367 . S
C1981 C1989 1.433 . S
C1982 H1978 0.929 . S
C1982 C1984 1.378 . S
C1982 C1986 1.350 . S
C1983 C1986 1.463 . S
C1983 C1988 1.350 . S
C1983 N1991 1.427 . S
C1984 H1975 0.930 . S
C1984 C1982 1.378 . S
C1984 C1985 1.367 . S
C1985 C1984 1.367 . S
C1985 C1987 1.433 . S
C1986 C1982 1.350 . S
C1986 C1983 1.463 . S
C1986 N1990 1.427 . S
C1987 H1977 0.929 . S
C1987 C1985 1.433 . S
C1987 N1990 1.384 . S
C1988 H1979 0.929 . S
C1988 C1980 1.378 . S
C1988 C1983 1.350 . S
C1989 H1976 0.929 . S
C1989 C1981 1.433 . S
C1989 N1991 1.384 . S
N1990 C1986 1.427 . S
N1990 C1987 1.384 . S
N1991 C1983 1.427 . S
N1991 C1989 1.384 . S
H1992 C1998 0.930 . S
H1993 C2002 0.930 . S
H1994 C2007 0.929 . S
H1995 C2005 0.929 . S
H1996 C2000 0.929 . S
H1997 C2006 0.929 . S
C1998 H1992 0.930 . S
C1998 C1999 1.367 . S
C1998 C2006 1.378 . S
C1999 C1998 1.367 . S
C1999 C2007 1.433 . S
C2000 H1996 0.929 . S
C2000 C2002 1.378 . S
C2000 C2004 1.350 . S
C2001 C2004 1.463 . S
C2001 C2006 1.350 . S
C2001 N2009 1.427 . S
C2002 H1993 0.930 . S
C2002 C2000 1.378 . S
C2002 C2003 1.367 . S
C2003 C2002 1.367 . S
C2003 C2005 1.433 . S
C2004 C2000 1.350 . S
C2004 C2001 1.463 . S
C2004 N2008 1.427 . S
C2005 H1995 0.929 . S
C2005 C2003 1.433 . S
C2005 N2008 1.384 . S
C2006 H1997 0.929 . S
C2006 C1998 1.378 . S
C2006 C2001 1.350 . S
C2007 H1994 0.929 . S
C2007 C1999 1.433 . S
C2007 N2009 1.384 . S
N2008 C2004 1.427 . S
N2008 C2005 1.384 . S
N2009 C2001 1.427 . S
N2009 C2007 1.384 . S
H2010 C2016 0.930 . S
H2011 C2020 0.930 . S
H2012 C2025 0.929 . S
H2013 C2023 0.929 . S
H2014 C2018 0.929 . S
H2015 C2024 0.929 . S
C2016 H2010 0.930 . S
C2016 C2017 1.367 . S
C2016 C2024 1.378 . S
C2017 C2016 1.367 . S
C2017 C2025 1.433 . S
C2018 H2014 0.929 . S
C2018 C2020 1.378 . S
C2018 C2022 1.350 . S
C2019 C2022 1.463 . S
C2019 C2024 1.350 . S
C2019 N2027 1.427 . S
C2020 H2011 0.930 . S
C2020 C2018 1.378 . S
C2020 C2021 1.367 . S
C2021 C2020 1.367 . S
C2021 C2023 1.433 . S
C2022 C2018 1.350 . S
C2022 C2019 1.463 . S
C2022 N2026 1.427 . S
C2023 H2013 0.929 . S
C2023 C2021 1.433 . S
C2023 N2026 1.384 . S
C2024 H2015 0.929 . S
C2024 C2016 1.378 . S
C2024 C2019 1.350 . S
C2025 H2012 0.929 . S
C2025 C2017 1.433 . S
C2025 N2027 1.384 . S
N2026 C2022 1.427 . S
N2026 C2023 1.384 . S
N2027 C2019 1.427 . S
N2027 C2025 1.384 . S
H2028 C2034 0.930 . S
H2029 C2038 0.930 . S
H2030 C2043 0.929 . S
H2031 C2041 0.929 . S
H2032 C2036 0.929 . S
H2033 C2042 0.929 . S
C2034 H2028 0.930 . S
C2034 C2035 1.367 . S
C2034 C2042 1.378 . S
C2035 C2034 1.367 . S
C2035 C2043 1.433 . S
C2036 H2032 0.929 . S
C2036 C2038 1.378 . S
C2036 C2040 1.350 . S
C2037 C2040 1.463 . S
C2037 C2042 1.350 . S
C2037 N2045 1.427 . S
C2038 H2029 0.930 . S
C2038 C2036 1.378 . S
C2038 C2039 1.367 . S
C2039 C2038 1.367 . S
C2039 C2041 1.433 . S
C2040 C2036 1.350 . S
C2040 C2037 1.463 . S
C2040 N2044 1.427 . S
C2041 H2031 0.929 . S
C2041 C2039 1.433 . S
C2041 N2044 1.384 . S
C2042 H2033 0.929 . S
C2042 C2034 1.378 . S
C2042 C2037 1.350 . S
C2043 H2030 0.929 . S
C2043 C2035 1.433 . S
C2043 N2045 1.384 . S
N2044 C2040 1.427 . S
N2044 C2041 1.384 . S
N2045 C2037 1.427 . S
N2045 C2043 1.384 . S
H2046 C2052 0.930 . S
H2047 C2056 0.930 . S
H2048 C2061 0.929 . S
H2049 C2059 0.929 . S
H2050 C2054 0.929 . S
H2051 C2060 0.929 . S
C2052 H2046 0.930 . S
C2052 C2053 1.367 . S
C2052 C2060 1.378 . S
C2053 C2052 1.367 . S
C2053 C2061 1.433 . S
C2054 H2050 0.929 . S
C2054 C2056 1.378 . S
C2054 C2058 1.350 . S
C2055 C2058 1.463 . S
C2055 C2060 1.350 . S
C2055 N2063 1.427 . S
C2056 H2047 0.930 . S
C2056 C2054 1.378 . S
C2056 C2057 1.367 . S
C2057 C2056 1.367 . S
C2057 C2059 1.433 . S
C2058 C2054 1.350 . S
C2058 C2055 1.463 . S
C2058 N2062 1.427 . S
C2059 H2049 0.929 . S
C2059 C2057 1.433 . S
C2059 N2062 1.384 . S
C2060 H2051 0.929 . S
C2060 C2052 1.378 . S
C2060 C2055 1.350 . S
C2061 H2048 0.929 . S
C2061 C2053 1.433 . S
C2061 N2063 1.384 . S
N2062 C2058 1.427 . S
N2062 C2059 1.384 . S
N2063 C2055 1.427 . S
N2063 C2061 1.384 . S
H2064 C2070 0.930 . S
H2065 C2074 0.930 . S
H2066 C2079 0.929 . S
H2067 C2077 0.929 . S
H2068 C2072 0.929 . S
H2069 C2078 0.929 . S
C2070 H2064 0.930 . S
C2070 C2071 1.367 . S
C2070 C2078 1.378 . S
C2071 C2070 1.367 . S
C2071 C2079 1.433 . S
C2072 H2068 0.929 . S
C2072 C2074 1.378 . S
C2072 C2076 1.350 . S
C2073 C2076 1.463 . S
C2073 C2078 1.350 . S
C2073 N2081 1.427 . S
C2074 H2065 0.930 . S
C2074 C2072 1.378 . S
C2074 C2075 1.367 . S
C2075 C2074 1.367 . S
C2075 C2077 1.433 . S
C2076 C2072 1.350 . S
C2076 C2073 1.463 . S
C2076 N2080 1.427 . S
C2077 H2067 0.929 . S
C2077 C2075 1.433 . S
C2077 N2080 1.384 . S
C2078 H2069 0.929 . S
C2078 C2070 1.378 . S
C2078 C2073 1.350 . S
C2079 H2066 0.929 . S
C2079 C2071 1.433 . S
C2079 N2081 1.384 . S
N2080 C2076 1.427 . S
N2080 C2077 1.384 . S
N2081 C2073 1.427 . S
N2081 C2079 1.384 . S
H2082 C2088 0.930 . S
H2083 C2092 0.930 . S
H2084 C2097 0.929 . S
H2085 C2095 0.929 . S
H2086 C2090 0.929 . S
H2087 C2096 0.929 . S
C2088 H2082 0.930 . S
C2088 C2089 1.367 . S
C2088 C2096 1.378 . S
C2089 C2088 1.367 . S
C2089 C2097 1.433 . S
C2090 H2086 0.929 . S
C2090 C2092 1.378 . S
C2090 C2094 1.350 . S
C2091 C2094 1.463 . S
C2091 C2096 1.350 . S
C2091 N2099 1.427 . S
C2092 H2083 0.930 . S
C2092 C2090 1.378 . S
C2092 C2093 1.367 . S
C2093 C2092 1.367 . S
C2093 C2095 1.433 . S
C2094 C2090 1.350 . S
C2094 C2091 1.463 . S
C2094 N2098 1.427 . S
C2095 H2085 0.929 . S
C2095 C2093 1.433 . S
C2095 N2098 1.384 . S
C2096 H2087 0.929 . S
C2096 C2088 1.378 . S
C2096 C2091 1.350 . S
C2097 H2084 0.929 . S
C2097 C2089 1.433 . S
C2097 N2099 1.384 . S
N2098 C2094 1.427 . S
N2098 C2095 1.384 . S
N2099 C2091 1.427 . S
N2099 C2097 1.384 . S
H2100 C2106 0.930 . S
H2101 C2110 0.930 . S
H2102 C2115 0.929 . S
H2103 C2113 0.929 . S
H2104 C2108 0.929 . S
H2105 C2114 0.929 . S
C2106 H2100 0.930 . S
C2106 C2107 1.367 . S
C2106 C2114 1.378 . S
C2107 C2106 1.367 . S
C2107 C2115 1.433 . S
C2108 H2104 0.929 . S
C2108 C2110 1.378 . S
C2108 C2112 1.350 . S
C2109 C2112 1.463 . S
C2109 C2114 1.350 . S
C2109 N2117 1.427 . S
C2110 H2101 0.930 . S
C2110 C2108 1.378 . S
C2110 C2111 1.367 . S
C2111 C2110 1.367 . S
C2111 C2113 1.433 . S
C2112 C2108 1.350 . S
C2112 C2109 1.463 . S
C2112 N2116 1.427 . S
C2113 H2103 0.929 . S
C2113 C2111 1.433 . S
C2113 N2116 1.384 . S
C2114 H2105 0.929 . S
C2114 C2106 1.378 . S
C2114 C2109 1.350 . S
C2115 H2102 0.929 . S
C2115 C2107 1.433 . S
C2115 N2117 1.384 . S
N2116 C2112 1.427 . S
N2116 C2113 1.384 . S
N2117 C2109 1.427 . S
N2117 C2115 1.384 . S
H2118 C2124 0.930 . S
H2119 C2128 0.930 . S
H2120 C2133 0.929 . S
H2121 C2131 0.929 . S
H2122 C2126 0.929 . S
H2123 C2132 0.929 . S
C2124 H2118 0.930 . S
C2124 C2125 1.367 . S
C2124 C2132 1.378 . S
C2125 C2124 1.367 . S
C2125 C2133 1.433 . S
C2126 H2122 0.929 . S
C2126 C2128 1.378 . S
C2126 C2130 1.350 . S
C2127 C2130 1.463 . S
C2127 C2132 1.350 . S
C2127 N2135 1.427 . S
C2128 H2119 0.930 . S
C2128 C2126 1.378 . S
C2128 C2129 1.367 . S
C2129 C2128 1.367 . S
C2129 C2131 1.433 . S
C2130 C2126 1.350 . S
C2130 C2127 1.463 . S
C2130 N2134 1.427 . S
C2131 H2121 0.929 . S
C2131 C2129 1.433 . S
C2131 N2134 1.384 . S
C2132 H2123 0.929 . S
C2132 C2124 1.378 . S
C2132 C2127 1.350 . S
C2133 H2120 0.929 . S
C2133 C2125 1.433 . S
C2133 N2135 1.384 . S
N2134 C2130 1.427 . S
N2134 C2131 1.384 . S
N2135 C2127 1.427 . S
N2135 C2133 1.384 . S
H2136 C2142 0.930 . S
H2137 C2146 0.930 . S
H2138 C2151 0.929 . S
H2139 C2149 0.929 . S
H2140 C2144 0.929 . S
H2141 C2150 0.929 . S
C2142 H2136 0.930 . S
C2142 C2143 1.367 . S
C2142 C2150 1.378 . S
C2143 C2142 1.367 . S
C2143 C2151 1.433 . S
C2144 H2140 0.929 . S
C2144 C2146 1.378 . S
C2144 C2148 1.350 . S
C2145 C2148 1.463 . S
C2145 C2150 1.350 . S
C2145 N2153 1.427 . S
C2146 H2137 0.930 . S
C2146 C2144 1.378 . S
C2146 C2147 1.367 . S
C2147 C2146 1.367 . S
C2147 C2149 1.433 . S
C2148 C2144 1.350 . S
C2148 C2145 1.463 . S
C2148 N2152 1.427 . S
C2149 H2139 0.929 . S
C2149 C2147 1.433 . S
C2149 N2152 1.384 . S
C2150 H2141 0.929 . S
C2150 C2142 1.378 . S
C2150 C2145 1.350 . S
C2151 H2138 0.929 . S
C2151 C2143 1.433 . S
C2151 N2153 1.384 . S
N2152 C2148 1.427 . S
N2152 C2149 1.384 . S
N2153 C2145 1.427 . S
N2153 C2151 1.384 . S
H2154 C2160 0.930 . S
H2155 C2164 0.930 . S
H2156 C2169 0.929 . S
H2157 C2167 0.929 . S
H2158 C2162 0.929 . S
H2159 C2168 0.929 . S
C2160 H2154 0.930 . S
C2160 C2161 1.367 . S
C2160 C2168 1.378 . S
C2161 C2160 1.367 . S
C2161 C2169 1.433 . S
C2162 H2158 0.929 . S
C2162 C2164 1.378 . S
C2162 C2166 1.350 . S
C2163 C2166 1.463 . S
C2163 C2168 1.350 . S
C2163 N2171 1.427 . S
C2164 H2155 0.930 . S
C2164 C2162 1.378 . S
C2164 C2165 1.367 . S
C2165 C2164 1.367 . S
C2165 C2167 1.433 . S
C2166 C2162 1.350 . S
C2166 C2163 1.463 . S
C2166 N2170 1.427 . S
C2167 H2157 0.929 . S
C2167 C2165 1.433 . S
C2167 N2170 1.384 . S
C2168 H2159 0.929 . S
C2168 C2160 1.378 . S
C2168 C2163 1.350 . S
C2169 H2156 0.929 . S
C2169 C2161 1.433 . S
C2169 N2171 1.384 . S
N2170 C2166 1.427 . S
N2170 C2167 1.384 . S
N2171 C2163 1.427 . S
N2171 C2169 1.384 . S
H2172 C2178 0.930 . S
H2173 C2182 0.930 . S
H2174 C2187 0.929 . S
H2175 C2185 0.929 . S
H2176 C2180 0.929 . S
H2177 C2186 0.929 . S
C2178 H2172 0.930 . S
C2178 C2179 1.367 . S
C2178 C2186 1.378 . S
C2179 C2178 1.367 . S
C2179 C2187 1.433 . S
C2180 H2176 0.929 . S
C2180 C2182 1.378 . S
C2180 C2184 1.350 . S
C2181 C2184 1.463 . S
C2181 C2186 1.350 . S
C2181 N2189 1.427 . S
C2182 H2173 0.930 . S
C2182 C2180 1.378 . S
C2182 C2183 1.367 . S
C2183 C2182 1.367 . S
C2183 C2185 1.433 . S
C2184 C2180 1.350 . S
C2184 C2181 1.463 . S
C2184 N2188 1.427 . S
C2185 H2175 0.929 . S
C2185 C2183 1.433 . S
C2185 N2188 1.384 . S
C2186 H2177 0.929 . S
C2186 C2178 1.378 . S
C2186 C2181 1.350 . S
C2187 H2174 0.929 . S
C2187 C2179 1.433 . S
C2187 N2189 1.384 . S
N2188 C2184 1.427 . S
N2188 C2185 1.384 . S
N2189 C2181 1.427 . S
N2189 C2187 1.384 . S
H2190 C2196 0.930 . S
H2191 C2200 0.930 . S
H2192 C2205 0.929 . S
H2193 C2203 0.929 . S
H2194 C2198 0.929 . S
H2195 C2204 0.929 . S
C2196 H2190 0.930 . S
C2196 C2197 1.367 . S
C2196 C2204 1.378 . S
C2197 C2196 1.367 . S
C2197 C2205 1.433 . S
C2198 H2194 0.929 . S
C2198 C2200 1.378 . S
C2198 C2202 1.350 . S
C2199 C2202 1.463 . S
C2199 C2204 1.350 . S
C2199 N2207 1.427 . S
C2200 H2191 0.930 . S
C2200 C2198 1.378 . S
C2200 C2201 1.367 . S
C2201 C2200 1.367 . S
C2201 C2203 1.433 . S
C2202 C2198 1.350 . S
C2202 C2199 1.463 . S
C2202 N2206 1.427 . S
C2203 H2193 0.929 . S
C2203 C2201 1.433 . S
C2203 N2206 1.384 . S
C2204 H2195 0.929 . S
C2204 C2196 1.378 . S
C2204 C2199 1.350 . S
C2205 H2192 0.929 . S
C2205 C2197 1.433 . S
C2205 N2207 1.384 . S
N2206 C2202 1.427 . S
N2206 C2203 1.384 . S
N2207 C2199 1.427 . S
N2207 C2205 1.384 . S
H2208 C2214 0.930 . S
H2209 C2218 0.930 . S
H2210 C2223 0.929 . S
H2211 C2221 0.929 . S
H2212 C2216 0.929 . S
H2213 C2222 0.929 . S
C2214 H2208 0.930 . S
C2214 C2215 1.367 . S
C2214 C2222 1.378 . S
C2215 C2214 1.367 . S
C2215 C2223 1.433 . S
C2216 H2212 0.929 . S
C2216 C2218 1.378 . S
C2216 C2220 1.350 . S
C2217 C2220 1.463 . S
C2217 C2222 1.350 . S
C2217 N2225 1.427 . S
C2218 H2209 0.930 . S
C2218 C2216 1.378 . S
C2218 C2219 1.367 . S
C2219 C2218 1.367 . S
C2219 C2221 1.433 . S
C2220 C2216 1.350 . S
C2220 C2217 1.463 . S
C2220 N2224 1.427 . S
C2221 H2211 0.929 . S
C2221 C2219 1.433 . S
C2221 N2224 1.384 . S
C2222 H2213 0.929 . S
C2222 C2214 1.378 . S
C2222 C2217 1.350 . S
C2223 H2210 0.929 . S
C2223 C2215 1.433 . S
C2223 N2225 1.384 . S
N2224 C2220 1.427 . S
N2224 C2221 1.384 . S
N2225 C2217 1.427 . S
N2225 C2223 1.384 . S
H2226 C2232 0.930 . S
H2227 C2236 0.930 . S
H2228 C2241 0.929 . S
H2229 C2239 0.929 . S
H2230 C2234 0.929 . S
H2231 C2240 0.929 . S
C2232 H2226 0.930 . S
C2232 C2233 1.367 . S
C2232 C2240 1.378 . S
C2233 C2232 1.367 . S
C2233 C2241 1.433 . S
C2234 H2230 0.929 . S
C2234 C2236 1.378 . S
C2234 C2238 1.350 . S
C2235 C2238 1.463 . S
C2235 C2240 1.350 . S
C2235 N2243 1.427 . S
C2236 H2227 0.930 . S
C2236 C2234 1.378 . S
C2236 C2237 1.367 . S
C2237 C2236 1.367 . S
C2237 C2239 1.433 . S
C2238 C2234 1.350 . S
C2238 C2235 1.463 . S
C2238 N2242 1.427 . S
C2239 H2229 0.929 . S
C2239 C2237 1.433 . S
C2239 N2242 1.384 . S
C2240 H2231 0.929 . S
C2240 C2232 1.378 . S
C2240 C2235 1.350 . S
C2241 H2228 0.929 . S
C2241 C2233 1.433 . S
C2241 N2243 1.384 . S
N2242 C2238 1.427 . S
N2242 C2239 1.384 . S
N2243 C2235 1.427 . S
N2243 C2241 1.384 . S
H2244 C2250 0.930 . S
H2245 C2254 0.930 . S
H2246 C2259 0.929 . S
H2247 C2257 0.929 . S
H2248 C2252 0.929 . S
H2249 C2258 0.929 . S
C2250 H2244 0.930 . S
C2250 C2251 1.367 . S
C2250 C2258 1.378 . S
C2251 C2250 1.367 . S
C2251 C2259 1.433 . S
C2252 H2248 0.929 . S
C2252 C2254 1.378 . S
C2252 C2256 1.350 . S
C2253 C2256 1.463 . S
C2253 C2258 1.350 . S
C2253 N2261 1.427 . S
C2254 H2245 0.930 . S
C2254 C2252 1.378 . S
C2254 C2255 1.367 . S
C2255 C2254 1.367 . S
C2255 C2257 1.433 . S
C2256 C2252 1.350 . S
C2256 C2253 1.463 . S
C2256 N2260 1.427 . S
C2257 H2247 0.929 . S
C2257 C2255 1.433 . S
C2257 N2260 1.384 . S
C2258 H2249 0.929 . S
C2258 C2250 1.378 . S
C2258 C2253 1.350 . S
C2259 H2246 0.929 . S
C2259 C2251 1.433 . S
C2259 N2261 1.384 . S
N2260 C2256 1.427 . S
N2260 C2257 1.384 . S
N2261 C2253 1.427 . S
N2261 C2259 1.384 . S
H2262 C2268 0.930 . S
H2263 C2272 0.930 . S
H2264 C2277 0.929 . S
H2265 C2275 0.929 . S
H2266 C2270 0.929 . S
H2267 C2276 0.929 . S
C2268 H2262 0.930 . S
C2268 C2269 1.367 . S
C2268 C2276 1.378 . S
C2269 C2268 1.367 . S
C2269 C2277 1.433 . S
C2270 H2266 0.929 . S
C2270 C2272 1.378 . S
C2270 C2274 1.350 . S
C2271 C2274 1.463 . S
C2271 C2276 1.350 . S
C2271 N2279 1.427 . S
C2272 H2263 0.930 . S
C2272 C2270 1.378 . S
C2272 C2273 1.367 . S
C2273 C2272 1.367 . S
C2273 C2275 1.433 . S
C2274 C2270 1.350 . S
C2274 C2271 1.463 . S
C2274 N2278 1.427 . S
C2275 H2265 0.929 . S
C2275 C2273 1.433 . S
C2275 N2278 1.384 . S
C2276 H2267 0.929 . S
C2276 C2268 1.378 . S
C2276 C2271 1.350 . S
C2277 H2264 0.929 . S
C2277 C2269 1.433 . S
C2277 N2279 1.384 . S
N2278 C2274 1.427 . S
N2278 C2275 1.384 . S
N2279 C2271 1.427 . S
N2279 C2277 1.384 . S
H2280 C2286 0.930 . S
H2281 C2290 0.930 . S
H2282 C2295 0.929 . S
H2283 C2293 0.929 . S
H2284 C2288 0.929 . S
H2285 C2294 0.929 . S
C2286 H2280 0.930 . S
C2286 C2287 1.367 . S
C2286 C2294 1.378 . S
C2287 C2286 1.367 . S
C2287 C2295 1.433 . S
C2288 H2284 0.929 . S
C2288 C2290 1.378 . S
C2288 C2292 1.350 . S
C2289 C2292 1.463 . S
C2289 C2294 1.350 . S
C2289 N2297 1.427 . S
C2290 H2281 0.930 . S
C2290 C2288 1.378 . S
C2290 C2291 1.367 . S
C2291 C2290 1.367 . S
C2291 C2293 1.433 . S
C2292 C2288 1.350 . S
C2292 C2289 1.463 . S
C2292 N2296 1.427 . S
C2293 H2283 0.929 . S
C2293 C2291 1.433 . S
C2293 N2296 1.384 . S
C2294 H2285 0.929 . S
C2294 C2286 1.378 . S
C2294 C2289 1.350 . S
C2295 H2282 0.929 . S
C2295 C2287 1.433 . S
C2295 N2297 1.384 . S
N2296 C2292 1.427 . S
N2296 C2293 1.384 . S
N2297 C2289 1.427 . S
N2297 C2295 1.384 . S
H2298 C2304 0.930 . S
H2299 C2308 0.930 . S
H2300 C2313 0.929 . S
H2301 C2311 0.929 . S
H2302 C2306 0.929 . S
H2303 C2312 0.929 . S
C2304 H2298 0.930 . S
C2304 C2305 1.367 . S
C2304 C2312 1.378 . S
C2305 C2304 1.367 . S
C2305 C2313 1.433 . S
C2306 H2302 0.929 . S
C2306 C2308 1.378 . S
C2306 C2310 1.350 . S
C2307 C2310 1.463 . S
C2307 C2312 1.350 . S
C2307 N2315 1.427 . S
C2308 H2299 0.930 . S
C2308 C2306 1.378 . S
C2308 C2309 1.367 . S
C2309 C2308 1.367 . S
C2309 C2311 1.433 . S
C2310 C2306 1.350 . S
C2310 C2307 1.463 . S
C2310 N2314 1.427 . S
C2311 H2301 0.929 . S
C2311 C2309 1.433 . S
C2311 N2314 1.384 . S
C2312 H2303 0.929 . S
C2312 C2304 1.378 . S
C2312 C2307 1.350 . S
C2313 H2300 0.929 . S
C2313 C2305 1.433 . S
C2313 N2315 1.384 . S
N2314 C2310 1.427 . S
N2314 C2311 1.384 . S
N2315 C2307 1.427 . S
N2315 C2313 1.384 . S
H2316 C2322 0.930 . S
H2317 C2326 0.930 . S
H2318 C2331 0.929 . S
H2319 C2329 0.929 . S
H2320 C2324 0.929 . S
H2321 C2330 0.929 . S
C2322 H2316 0.930 . S
C2322 C2323 1.367 . S
C2322 C2330 1.378 . S
C2323 C2322 1.367 . S
C2323 C2331 1.433 . S
C2324 H2320 0.929 . S
C2324 C2326 1.378 . S
C2324 C2328 1.350 . S
C2325 C2328 1.463 . S
C2325 C2330 1.350 . S
C2325 N2333 1.427 . S
C2326 H2317 0.930 . S
C2326 C2324 1.378 . S
C2326 C2327 1.367 . S
C2327 C2326 1.367 . S
C2327 C2329 1.433 . S
C2328 C2324 1.350 . S
C2328 C2325 1.463 . S
C2328 N2332 1.427 . S
C2329 H2319 0.929 . S
C2329 C2327 1.433 . S
C2329 N2332 1.384 . S
C2330 H2321 0.929 . S
C2330 C2322 1.378 . S
C2330 C2325 1.350 . S
C2331 H2318 0.929 . S
C2331 C2323 1.433 . S
C2331 N2333 1.384 . S
N2332 C2328 1.427 . S
N2332 C2329 1.384 . S
N2333 C2325 1.427 . S
N2333 C2331 1.384 . S
H2334 C2340 0.930 . S
H2335 C2344 0.930 . S
H2336 C2349 0.929 . S
H2337 C2347 0.929 . S
H2338 C2342 0.929 . S
H2339 C2348 0.929 . S
C2340 H2334 0.930 . S
C2340 C2341 1.367 . S
C2340 C2348 1.378 . S
C2341 C2340 1.367 . S
C2341 C2349 1.433 . S
C2342 H2338 0.929 . S
C2342 C2344 1.378 . S
C2342 C2346 1.350 . S
C2343 C2346 1.463 . S
C2343 C2348 1.350 . S
C2343 N2351 1.427 . S
C2344 H2335 0.930 . S
C2344 C2342 1.378 . S
C2344 C2345 1.367 . S
C2345 C2344 1.367 . S
C2345 C2347 1.433 . S
C2346 C2342 1.350 . S
C2346 C2343 1.463 . S
C2346 N2350 1.427 . S
C2347 H2337 0.929 . S
C2347 C2345 1.433 . S
C2347 N2350 1.384 . S
C2348 H2339 0.929 . S
C2348 C2340 1.378 . S
C2348 C2343 1.350 . S
C2349 H2336 0.929 . S
C2349 C2341 1.433 . S
C2349 N2351 1.384 . S
N2350 C2346 1.427 . S
N2350 C2347 1.384 . S
N2351 C2343 1.427 . S
N2351 C2349 1.384 . S
H2352 C2358 0.930 . S
H2353 C2362 0.930 . S
H2354 C2367 0.929 . S
H2355 C2365 0.929 . S
H2356 C2360 0.929 . S
H2357 C2366 0.929 . S
C2358 H2352 0.930 . S
C2358 C2359 1.367 . S
C2358 C2366 1.378 . S
C2359 C2358 1.367 . S
C2359 C2367 1.433 . S
C2360 H2356 0.929 . S
C2360 C2362 1.378 . S
C2360 C2364 1.350 . S
C2361 C2364 1.463 . S
C2361 C2366 1.350 . S
C2361 N2369 1.427 . S
C2362 H2353 0.930 . S
C2362 C2360 1.378 . S
C2362 C2363 1.367 . S
C2363 C2362 1.367 . S
C2363 C2365 1.433 . S
C2364 C2360 1.350 . S
C2364 C2361 1.463 . S
C2364 N2368 1.427 . S
C2365 H2355 0.929 . S
C2365 C2363 1.433 . S
C2365 N2368 1.384 . S
C2366 H2357 0.929 . S
C2366 C2358 1.378 . S
C2366 C2361 1.350 . S
C2367 H2354 0.929 . S
C2367 C2359 1.433 . S
C2367 N2369 1.384 . S
N2368 C2364 1.427 . S
N2368 C2365 1.384 . S
N2369 C2361 1.427 . S
N2369 C2367 1.384 . S
H2370 C2376 0.930 . S
H2371 C2380 0.930 . S
H2372 C2385 0.929 . S
H2373 C2383 0.929 . S
H2374 C2378 0.929 . S
H2375 C2384 0.929 . S
C2376 H2370 0.930 . S
C2376 C2377 1.367 . S
C2376 C2384 1.378 . S
C2377 C2376 1.367 . S
C2377 C2385 1.433 . S
C2378 H2374 0.929 . S
C2378 C2380 1.378 . S
C2378 C2382 1.350 . S
C2379 C2382 1.463 . S
C2379 C2384 1.350 . S
C2379 N2387 1.427 . S
C2380 H2371 0.930 . S
C2380 C2378 1.378 . S
C2380 C2381 1.367 . S
C2381 C2380 1.367 . S
C2381 C2383 1.433 . S
C2382 C2378 1.350 . S
C2382 C2379 1.463 . S
C2382 N2386 1.427 . S
C2383 H2373 0.929 . S
C2383 C2381 1.433 . S
C2383 N2386 1.384 . S
C2384 H2375 0.929 . S
C2384 C2376 1.378 . S
C2384 C2379 1.350 . S
C2385 H2372 0.929 . S
C2385 C2377 1.433 . S
C2385 N2387 1.384 . S
N2386 C2382 1.427 . S
N2386 C2383 1.384 . S
N2387 C2379 1.427 . S
N2387 C2385 1.384 . S
H2388 C2394 0.930 . S
H2389 C2398 0.930 . S
H2390 C2403 0.929 . S
H2391 C2401 0.929 . S
H2392 C2396 0.929 . S
H2393 C2402 0.929 . S
C2394 H2388 0.930 . S
C2394 C2395 1.367 . S
C2394 C2402 1.378 . S
C2395 C2394 1.367 . S
C2395 C2403 1.433 . S
C2396 H2392 0.929 . S
C2396 C2398 1.378 . S
C2396 C2400 1.350 . S
C2397 C2400 1.463 . S
C2397 C2402 1.350 . S
C2397 N2405 1.427 . S
C2398 H2389 0.930 . S
C2398 C2396 1.378 . S
C2398 C2399 1.367 . S
C2399 C2398 1.367 . S
C2399 C2401 1.433 . S
C2400 C2396 1.350 . S
C2400 C2397 1.463 . S
C2400 N2404 1.427 . S
C2401 H2391 0.929 . S
C2401 C2399 1.433 . S
C2401 N2404 1.384 . S
C2402 H2393 0.929 . S
C2402 C2394 1.378 . S
C2402 C2397 1.350 . S
C2403 H2390 0.929 . S
C2403 C2395 1.433 . S
C2403 N2405 1.384 . S
N2404 C2400 1.427 . S
N2404 C2401 1.384 . S
N2405 C2397 1.427 . S
N2405 C2403 1.384 . S
H2406 C2412 0.930 . S
H2407 C2416 0.930 . S
H2408 C2421 0.929 . S
H2409 C2419 0.929 . S
H2410 C2414 0.929 . S
H2411 C2420 0.929 . S
C2412 H2406 0.930 . S
C2412 C2413 1.367 . S
C2412 C2420 1.378 . S
C2413 C2412 1.367 . S
C2413 C2421 1.433 . S
C2414 H2410 0.929 . S
C2414 C2416 1.378 . S
C2414 C2418 1.350 . S
C2415 C2418 1.463 . S
C2415 C2420 1.350 . S
C2415 N2423 1.427 . S
C2416 H2407 0.930 . S
C2416 C2414 1.378 . S
C2416 C2417 1.367 . S
C2417 C2416 1.367 . S
C2417 C2419 1.433 . S
C2418 C2414 1.350 . S
C2418 C2415 1.463 . S
C2418 N2422 1.427 . S
C2419 H2409 0.929 . S
C2419 C2417 1.433 . S
C2419 N2422 1.384 . S
C2420 H2411 0.929 . S
C2420 C2412 1.378 . S
C2420 C2415 1.350 . S
C2421 H2408 0.929 . S
C2421 C2413 1.433 . S
C2421 N2423 1.384 . S
N2422 C2418 1.427 . S
N2422 C2419 1.384 . S
N2423 C2415 1.427 . S
N2423 C2421 1.384 . S
H2424 C2430 0.930 . S
H2425 C2434 0.930 . S
H2426 C2439 0.929 . S
H2427 C2437 0.929 . S
H2428 C2432 0.929 . S
H2429 C2438 0.929 . S
C2430 H2424 0.930 . S
C2430 C2431 1.367 . S
C2430 C2438 1.378 . S
C2431 C2430 1.367 . S
C2431 C2439 1.433 . S
C2432 H2428 0.929 . S
C2432 C2434 1.378 . S
C2432 C2436 1.350 . S
C2433 C2436 1.463 . S
C2433 C2438 1.350 . S
C2433 N2441 1.427 . S
C2434 H2425 0.930 . S
C2434 C2432 1.378 . S
C2434 C2435 1.367 . S
C2435 C2434 1.367 . S
C2435 C2437 1.433 . S
C2436 C2432 1.350 . S
C2436 C2433 1.463 . S
C2436 N2440 1.427 . S
C2437 H2427 0.929 . S
C2437 C2435 1.433 . S
C2437 N2440 1.384 . S
C2438 H2429 0.929 . S
C2438 C2430 1.378 . S
C2438 C2433 1.350 . S
C2439 H2426 0.929 . S
C2439 C2431 1.433 . S
C2439 N2441 1.384 . S
N2440 C2436 1.427 . S
N2440 C2437 1.384 . S
N2441 C2433 1.427 . S
N2441 C2439 1.384 . S
H2442 C2448 0.930 . S
H2443 C2452 0.930 . S
H2444 C2457 0.929 . S
H2445 C2455 0.929 . S
H2446 C2450 0.929 . S
H2447 C2456 0.929 . S
C2448 H2442 0.930 . S
C2448 C2449 1.367 . S
C2448 C2456 1.378 . S
C2449 C2448 1.367 . S
C2449 C2457 1.433 . S
C2450 H2446 0.929 . S
C2450 C2452 1.378 . S
C2450 C2454 1.350 . S
C2451 C2454 1.463 . S
C2451 C2456 1.350 . S
C2451 N2459 1.427 . S
C2452 H2443 0.930 . S
C2452 C2450 1.378 . S
C2452 C2453 1.367 . S
C2453 C2452 1.367 . S
C2453 C2455 1.433 . S
C2454 C2450 1.350 . S
C2454 C2451 1.463 . S
C2454 N2458 1.427 . S
C2455 H2445 0.929 . S
C2455 C2453 1.433 . S
C2455 N2458 1.384 . S
C2456 H2447 0.929 . S
C2456 C2448 1.378 . S
C2456 C2451 1.350 . S
C2457 H2444 0.929 . S
C2457 C2449 1.433 . S
C2457 N2459 1.384 . S
N2458 C2454 1.427 . S
N2458 C2455 1.384 . S
N2459 C2451 1.427 . S
N2459 C2457 1.384 . S
H2460 C2466 0.930 . S
H2461 C2470 0.930 . S
H2462 C2475 0.929 . S
H2463 C2473 0.929 . S
H2464 C2468 0.929 . S
H2465 C2474 0.929 . S
C2466 H2460 0.930 . S
C2466 C2467 1.367 . S
C2466 C2474 1.378 . S
C2467 C2466 1.367 . S
C2467 C2475 1.433 . S
C2468 H2464 0.929 . S
C2468 C2470 1.378 . S
C2468 C2472 1.350 . S
C2469 C2472 1.463 . S
C2469 C2474 1.350 . S
C2469 N2477 1.427 . S
C2470 H2461 0.930 . S
C2470 C2468 1.378 . S
C2470 C2471 1.367 . S
C2471 C2470 1.367 . S
C2471 C2473 1.433 . S
C2472 C2468 1.350 . S
C2472 C2469 1.463 . S
C2472 N2476 1.427 . S
C2473 H2463 0.929 . S
C2473 C2471 1.433 . S
C2473 N2476 1.384 . S
C2474 H2465 0.929 . S
C2474 C2466 1.378 . S
C2474 C2469 1.350 . S
C2475 H2462 0.929 . S
C2475 C2467 1.433 . S
C2475 N2477 1.384 . S
N2476 C2472 1.427 . S
N2476 C2473 1.384 . S
N2477 C2469 1.427 . S
N2477 C2475 1.384 . S
H2478 C2484 0.930 . S
H2479 C2488 0.930 . S
H2480 C2493 0.929 . S
H2481 C2491 0.929 . S
H2482 C2486 0.929 . S
H2483 C2492 0.929 . S
C2484 H2478 0.930 . S
C2484 C2485 1.367 . S
C2484 C2492 1.378 . S
C2485 C2484 1.367 . S
C2485 C2493 1.433 . S
C2486 H2482 0.929 . S
C2486 C2488 1.378 . S
C2486 C2490 1.350 . S
C2487 C2490 1.463 . S
C2487 C2492 1.350 . S
C2487 N2495 1.427 . S
C2488 H2479 0.930 . S
C2488 C2486 1.378 . S
C2488 C2489 1.367 . S
C2489 C2488 1.367 . S
C2489 C2491 1.433 . S
C2490 C2486 1.350 . S
C2490 C2487 1.463 . S
C2490 N2494 1.427 . S
C2491 H2481 0.929 . S
C2491 C2489 1.433 . S
C2491 N2494 1.384 . S
C2492 H2483 0.929 . S
C2492 C2484 1.378 . S
C2492 C2487 1.350 . S
C2493 H2480 0.929 . S
C2493 C2485 1.433 . S
C2493 N2495 1.384 . S
N2494 C2490 1.427 . S
N2494 C2491 1.384 . S
N2495 C2487 1.427 . S
N2495 C2493 1.384 . S
H2496 C2502 0.930 . S
H2497 C2506 0.930 . S
H2498 C2511 0.929 . S
H2499 C2509 0.929 . S
H2500 C2504 0.929 . S
H2501 C2510 0.929 . S
C2502 H2496 0.930 . S
C2502 C2503 1.367 . S
C2502 C2510 1.378 . S
C2503 C2502 1.367 . S
C2503 C2511 1.433 . S
C2504 H2500 0.929 . S
C2504 C2506 1.378 . S
C2504 C2508 1.350 1_565 S
C2505 C2508 1.463 . S
C2505 C2510 1.350 . S
C2505 N2513 1.427 . S
C2506 H2497 0.930 . S
C2506 C2504 1.378 . S
C2506 C2507 1.367 . S
C2507 C2506 1.367 . S
C2507 C2509 1.433 . S
C2508 C2504 1.350 1_545 S
C2508 C2505 1.463 . S
C2508 N2512 1.427 1_545 S
C2509 H2499 0.929 . S
C2509 C2507 1.433 . S
C2509 N2512 1.384 . S
C2510 H2501 0.929 . S
C2510 C2502 1.378 . S
C2510 C2505 1.350 . S
C2511 H2498 0.929 . S
C2511 C2503 1.433 . S
C2511 N2513 1.384 . S
N2512 C2508 1.427 1_565 S
N2512 C2509 1.384 . S
N2513 C2505 1.427 . S
N2513 C2511 1.384 . S
H2514 C2520 0.930 . S
H2515 C2524 0.930 . S
H2516 C2529 0.929 . S
H2517 C2527 0.929 . S
H2518 C2522 0.932 . S
H2519 C2528 0.929 . S
C2520 H2514 0.930 . S
C2520 C2521 1.367 . S
C2520 C2528 1.378 . S
C2521 C2520 1.367 . S
C2521 C2529 1.433 . S
C2522 H2518 0.932 . S
C2522 C2524 1.378 . S
C2522 C2526 1.350 . S
C2523 C2526 1.463 1_655 S
C2523 C2528 1.350 . S
C2523 N2531 1.427 . S
C2524 H2515 0.930 . S
C2524 C2522 1.378 . S
C2524 C2525 1.367 . S
C2525 C2524 1.367 . S
C2525 C2527 1.433 . S
C2526 C2522 1.350 . S
C2526 C2523 1.463 1_455 S
C2526 N2530 1.427 . S
C2527 H2517 0.929 . S
C2527 C2525 1.433 . S
C2527 N2530 1.384 . S
C2528 H2519 0.929 . S
C2528 C2520 1.378 . S
C2528 C2523 1.350 . S
C2529 H2516 0.929 . S
C2529 C2521 1.433 . S
C2529 N2531 1.384 . S
N2530 C2526 1.427 . S
N2530 C2527 1.384 . S
N2531 C2523 1.427 . S
N2531 C2529 1.384 . S
H2532 C2538 0.930 . S
H2533 C2542 0.930 . S
H2534 C2547 0.929 . S
H2535 C2545 0.929 . S
H2536 C2540 0.929 . S
H2537 C2546 0.929 . S
C2538 H2532 0.930 . S
C2538 C2539 1.367 . S
C2538 C2546 1.378 . S
C2539 C2538 1.367 . S
C2539 C2547 1.433 . S
C2540 H2536 0.929 . S
C2540 C2542 1.378 . S
C2540 C2544 1.332 1_565 S
C2541 C2544 1.500 . S
C2541 C2546 1.350 . S
C2541 N2549 1.427 . S
C2542 H2533 0.930 . S
C2542 C2540 1.378 . S
C2542 C2543 1.367 . S
C2543 C2542 1.367 . S
C2543 C2545 1.433 . S
C2544 C2540 1.332 1_545 S
C2544 C2541 1.500 . S
C2544 N2548 1.410 1_545 S
C2545 H2535 0.929 . S
C2545 C2543 1.433 . S
C2545 N2548 1.384 . S
C2546 H2537 0.929 . S
C2546 C2538 1.378 . S
C2546 C2541 1.350 . S
C2547 H2534 0.929 . S
C2547 C2539 1.433 . S
C2547 N2549 1.384 . S
N2548 C2544 1.410 1_565 S
N2548 C2545 1.384 . S
N2549 C2541 1.427 . S
N2549 C2547 1.384 . S
H2550 C2556 0.930 . S
H2551 C2560 0.930 . S
H2552 C2565 0.929 . S
H2553 C2563 0.929 . S
H2554 C2558 0.929 . S
H2555 C2564 0.929 . S
C2556 H2550 0.930 . S
C2556 C2557 1.367 . S
C2556 C2564 1.378 . S
C2557 C2556 1.367 . S
C2557 C2565 1.433 . S
C2558 H2554 0.929 . S
C2558 C2560 1.378 . S
C2558 C2562 1.350 . S
C2559 C2562 1.463 1_655 S
C2559 C2564 1.350 . S
C2559 N2567 1.427 . S
C2560 H2551 0.930 . S
C2560 C2558 1.378 . S
C2560 C2561 1.367 . S
C2561 C2560 1.367 . S
C2561 C2563 1.433 . S
C2562 C2558 1.350 . S
C2562 C2559 1.463 1_455 S
C2562 N2566 1.427 . S
C2563 H2553 0.929 . S
C2563 C2561 1.433 . S
C2563 N2566 1.384 . S
C2564 H2555 0.929 . S
C2564 C2556 1.378 . S
C2564 C2559 1.350 . S
C2565 H2552 0.929 . S
C2565 C2557 1.433 . S
C2565 N2567 1.384 . S
N2566 C2562 1.427 . S
N2566 C2563 1.384 . S
N2567 C2559 1.427 . S
N2567 C2565 1.384 . S
H2568 C2574 0.930 . S
H2569 C2578 0.930 . S
H2570 C2583 0.929 . S
H2571 C2581 0.929 . S
H2572 C2576 0.929 1_565 S
H2573 C2582 0.929 . S
C2574 H2568 0.930 . S
C2574 C2575 1.367 . S
C2574 C2582 1.378 . S
C2575 C2574 1.367 . S
C2575 C2583 1.433 . S
C2576 H2572 0.929 1_545 S
C2576 C2578 1.378 . S
C2576 C2580 1.360 . S
C2577 C2580 1.438 1_565 S
C2577 C2582 1.350 . S
C2577 N2585 1.427 . S
C2578 H2569 0.930 . S
C2578 C2576 1.378 . S
C2578 C2579 1.367 . S
C2579 C2578 1.367 . S
C2579 C2581 1.433 . S
C2580 C2576 1.360 . S
C2580 C2577 1.438 1_545 S
C2580 N2584 1.441 . S
C2581 H2571 0.929 . S
C2581 C2579 1.433 . S
C2581 N2584 1.384 . S
C2582 H2573 0.929 . S
C2582 C2574 1.378 . S
C2582 C2577 1.350 . S
C2583 H2570 0.929 . S
C2583 C2575 1.433 . S
C2583 N2585 1.384 . S
N2584 C2580 1.441 . S
N2584 C2581 1.384 . S
N2585 C2577 1.427 . S
N2585 C2583 1.384 . S
H2586 C2592 0.930 . S
H2587 C2596 0.930 . S
H2588 C2601 0.929 . S
H2589 C2599 0.929 . S
H2590 C2594 0.929 . S
H2591 C2600 0.929 . S
C2592 H2586 0.930 . S
C2592 C2593 1.367 . S
C2592 C2600 1.378 . S
C2593 C2592 1.367 . S
C2593 C2601 1.433 . S
C2594 H2590 0.929 . S
C2594 C2596 1.378 . S
C2594 C2598 1.350 . S
C2595 C2598 1.463 1_655 S
C2595 C2600 1.350 . S
C2595 N2603 1.427 . S
C2596 H2587 0.930 . S
C2596 C2594 1.378 . S
C2596 C2597 1.367 . S
C2597 C2596 1.367 . S
C2597 C2599 1.433 . S
C2598 C2594 1.350 . S
C2598 C2595 1.463 1_455 S
C2598 N2602 1.427 . S
C2599 H2589 0.929 . S
C2599 C2597 1.433 . S
C2599 N2602 1.384 . S
C2600 H2591 0.929 . S
C2600 C2592 1.378 . S
C2600 C2595 1.350 . S
C2601 H2588 0.929 . S
C2601 C2593 1.433 . S
C2601 N2603 1.384 . S
N2602 C2598 1.427 . S
N2602 C2599 1.384 . S
N2603 C2595 1.427 . S
N2603 C2601 1.384 . S
H2604 C2610 0.930 . S
H2605 C2614 0.930 . S
H2606 C2619 0.929 . S
H2607 C2617 0.929 . S
H2608 C2612 0.929 1_565 S
H2609 C2618 0.929 . S
C2610 H2604 0.930 . S
C2610 C2611 1.367 . S
C2610 C2618 1.378 . S
C2611 C2610 1.367 . S
C2611 C2619 1.433 . S
C2612 H2608 0.929 1_545 S
C2612 C2614 1.378 . S
C2612 C2616 1.350 1_545 S
C2613 C2616 1.463 . S
C2613 C2618 1.350 . S
C2613 N2621 1.427 . S
C2614 H2605 0.930 . S
C2614 C2612 1.378 . S
C2614 C2615 1.367 . S
C2615 C2614 1.367 . S
C2615 C2617 1.433 . S
C2616 C2612 1.350 1_565 S
C2616 C2613 1.463 . S
C2616 N2620 1.427 1_565 S
C2617 H2607 0.929 . S
C2617 C2615 1.433 . S
C2617 N2620 1.384 . S
C2618 H2609 0.929 . S
C2618 C2610 1.378 . S
C2618 C2613 1.350 . S
C2619 H2606 0.929 . S
C2619 C2611 1.433 . S
C2619 N2621 1.384 . S
N2620 C2616 1.427 1_545 S
N2620 C2617 1.384 . S
N2621 C2613 1.427 . S
N2621 C2619 1.384 . S
H2622 C2628 0.930 . S
H2623 C2632 0.930 . S
H2624 C2637 0.929 . S
H2625 C2635 0.929 . S
H2626 C2630 0.929 . S
H2627 C2636 0.929 . S
C2628 H2622 0.930 . S
C2628 C2629 1.367 . S
C2628 C2636 1.378 . S
C2629 C2628 1.367 . S
C2629 C2637 1.433 . S
C2630 H2626 0.929 . S
C2630 C2632 1.378 . S
C2630 C2634 1.350 . S
C2631 C2634 1.463 1_655 S
C2631 C2636 1.350 . S
C2631 N2639 1.427 . S
C2632 H2623 0.930 . S
C2632 C2630 1.378 . S
C2632 C2633 1.367 . S
C2633 C2632 1.367 . S
C2633 C2635 1.433 . S
C2634 C2630 1.350 . S
C2634 C2631 1.463 1_455 S
C2634 N2638 1.427 . S
C2635 H2625 0.929 . S
C2635 C2633 1.433 . S
C2635 N2638 1.384 . S
C2636 H2627 0.929 . S
C2636 C2628 1.378 . S
C2636 C2631 1.350 . S
C2637 H2624 0.929 . S
C2637 C2629 1.433 . S
C2637 N2639 1.384 . S
N2638 C2634 1.427 . S
N2638 C2635 1.384 . S
N2639 C2631 1.427 . S
N2639 C2637 1.384 . S
H2640 C2646 0.930 . S
H2641 C2650 0.930 . S
H2642 C2655 0.929 . S
H2643 C2653 0.929 . S
H2644 C2648 0.929 . S
H2645 C2654 0.929 . S
C2646 H2640 0.930 . S
C2646 C2647 1.367 . S
C2646 C2654 1.378 . S
C2647 C2646 1.367 . S
C2647 C2655 1.433 . S
C2648 H2644 0.929 . S
C2648 C2650 1.378 . S
C2648 C2652 1.350 1_556 S
C2649 C2652 1.463 . S
C2649 C2654 1.350 . S
C2649 N2657 1.427 . S
C2650 H2641 0.930 . S
C2650 C2648 1.378 . S
C2650 C2651 1.367 . S
C2651 C2650 1.367 . S
C2651 C2653 1.433 . S
C2652 C2648 1.350 1_554 S
C2652 C2649 1.463 . S
C2652 N2656 1.427 1_554 S
C2653 H2643 0.929 . S
C2653 C2651 1.433 . S
C2653 N2656 1.384 . S
C2654 H2645 0.929 . S
C2654 C2646 1.378 . S
C2654 C2649 1.350 . S
C2655 H2642 0.929 . S
C2655 C2647 1.433 . S
C2655 N2657 1.384 . S
N2656 C2652 1.427 1_556 S
N2656 C2653 1.384 . S
N2657 C2649 1.427 . S
N2657 C2655 1.384 . S
H2658 C2664 0.930 . S
H2659 C2668 0.930 . S
H2660 C2673 0.929 . S
H2661 C2671 0.929 . S
H2662 C2666 0.929 . S
H2663 C2672 0.929 . S
C2664 H2658 0.930 . S
C2664 C2665 1.367 . S
C2664 C2672 1.378 . S
C2665 C2664 1.367 . S
C2665 C2673 1.433 . S
C2666 H2662 0.929 . S
C2666 C2668 1.378 . S
C2666 C2670 1.350 . S
C2667 C2670 1.463 1_554 S
C2667 C2672 1.350 . S
C2667 N2675 1.427 . S
C2668 H2659 0.930 . S
C2668 C2666 1.378 . S
C2668 C2669 1.367 . S
C2669 C2668 1.367 . S
C2669 C2671 1.433 . S
C2670 C2666 1.350 . S
C2670 C2667 1.463 1_556 S
C2670 N2674 1.427 . S
C2671 H2661 0.929 . S
C2671 C2669 1.433 . S
C2671 N2674 1.384 . S
C2672 H2663 0.929 . S
C2672 C2664 1.378 . S
C2672 C2667 1.350 . S
C2673 H2660 0.929 . S
C2673 C2665 1.433 . S
C2673 N2675 1.384 . S
N2674 C2670 1.427 . S
N2674 C2671 1.384 . S
N2675 C2667 1.427 . S
N2675 C2673 1.384 . S
H2676 C2682 0.930 . S
H2677 C2686 0.930 . S
H2678 C2691 0.929 . S
H2679 C2689 0.929 . S
H2680 C2684 0.929 1_556 S
H2681 C2690 0.929 . S
C2682 H2676 0.930 . S
C2682 C2683 1.367 . S
C2682 C2690 1.378 . S
C2683 C2682 1.367 . S
C2683 C2691 1.433 . S
C2684 H2680 0.929 1_554 S
C2684 C2686 1.378 . S
C2684 C2688 1.350 1_554 S
C2685 C2688 1.463 . S
C2685 C2690 1.350 . S
C2685 N2693 1.427 . S
C2686 H2677 0.930 . S
C2686 C2684 1.378 . S
C2686 C2687 1.367 . S
C2687 C2686 1.367 . S
C2687 C2689 1.433 . S
C2688 C2684 1.350 1_556 S
C2688 C2685 1.463 . S
C2688 N2692 1.453 . S
C2689 H2679 0.929 . S
C2689 C2687 1.433 . S
C2689 N2692 1.321 1_554 S
C2690 H2681 0.929 . S
C2690 C2682 1.378 . S
C2690 C2685 1.350 . S
C2691 H2678 0.929 . S
C2691 C2683 1.433 . S
C2691 N2693 1.384 . S
N2692 C2688 1.453 . S
N2692 C2689 1.321 1_556 S
N2693 C2685 1.427 . S
N2693 C2691 1.384 . S
H2694 C2700 0.930 . S
H2695 C2704 0.930 . S
H2696 C2709 0.929 . S
H2697 C2707 0.929 . S
H2698 C2702 0.929 . S
H2699 C2708 0.929 . S
C2700 H2694 0.930 . S
C2700 C2701 1.367 . S
C2700 C2708 1.378 . S
C2701 C2700 1.367 . S
C2701 C2709 1.433 . S
C2702 H2698 0.929 . S
C2702 C2704 1.378 . S
C2702 C2706 1.350 . S
C2703 C2706 1.463 1_554 S
C2703 C2708 1.350 . S
C2703 N2711 1.427 . S
C2704 H2695 0.930 . S
C2704 C2702 1.378 . S
C2704 C2705 1.367 . S
C2705 C2704 1.367 . S
C2705 C2707 1.433 . S
C2706 C2702 1.350 . S
C2706 C2703 1.463 1_556 S
C2706 N2710 1.427 . S
C2707 H2697 0.929 . S
C2707 C2705 1.433 . S
C2707 N2710 1.384 . S
C2708 H2699 0.929 . S
C2708 C2700 1.378 . S
C2708 C2703 1.350 . S
C2709 H2696 0.929 . S
C2709 C2701 1.433 . S
C2709 N2711 1.384 . S
N2710 C2706 1.427 . S
N2710 C2707 1.384 . S
N2711 C2703 1.427 . S
N2711 C2709 1.384 . S
H2712 C2718 0.930 . S
H2713 C2722 0.930 . S
H2714 C2727 0.929 . S
H2715 C2725 0.929 . S
H2716 C2720 0.929 . S
H2717 C2726 0.929 . S
C2718 H2712 0.930 . S
C2718 C2719 1.367 . S
C2718 C2726 1.378 . S
C2719 C2718 1.367 . S
C2719 C2727 1.433 . S
C2720 H2716 0.929 . S
C2720 C2722 1.378 . S
C2720 C2724 1.350 . S
C2721 C2724 1.463 1_556 S
C2721 C2726 1.350 . S
C2721 N2729 1.427 . S
C2722 H2713 0.930 . S
C2722 C2720 1.378 . S
C2722 C2723 1.367 . S
C2723 C2722 1.367 . S
C2723 C2725 1.433 . S
C2724 C2720 1.350 . S
C2724 C2721 1.463 1_554 S
C2724 N2728 1.427 . S
C2725 H2715 0.929 . S
C2725 C2723 1.433 . S
C2725 N2728 1.384 . S
C2726 H2717 0.929 . S
C2726 C2718 1.378 . S
C2726 C2721 1.350 . S
C2727 H2714 0.929 . S
C2727 C2719 1.433 . S
C2727 N2729 1.384 . S
N2728 C2724 1.427 . S
N2728 C2725 1.384 . S
N2729 C2721 1.427 . S
N2729 C2727 1.384 . S
H2730 C2736 0.930 . S
H2731 C2740 0.930 . S
H2732 C2745 0.929 . S
H2733 C2743 0.929 . S
H2734 C2738 0.929 . S
H2735 C2744 0.929 . S
C2736 H2730 0.930 . S
C2736 C2737 1.367 . S
C2736 C2744 1.378 . S
C2737 C2736 1.367 . S
C2737 C2745 1.433 . S
C2738 H2734 0.929 . S
C2738 C2740 1.378 . S
C2738 C2742 1.350 1_554 S
C2739 C2742 1.463 . S
C2739 C2744 1.350 . S
C2739 N2747 1.427 . S
C2740 H2731 0.930 . S
C2740 C2738 1.378 . S
C2740 C2741 1.367 . S
C2741 C2740 1.367 . S
C2741 C2743 1.433 . S
C2742 C2738 1.350 1_556 S
C2742 C2739 1.463 . S
C2742 N2746 1.427 1_556 S
C2743 H2733 0.929 . S
C2743 C2741 1.433 . S
C2743 N2746 1.384 . S
C2744 H2735 0.929 . S
C2744 C2736 1.378 . S
C2744 C2739 1.350 . S
C2745 H2732 0.929 . S
C2745 C2737 1.433 . S
C2745 N2747 1.384 . S
N2746 C2742 1.427 1_554 S
N2746 C2743 1.384 . S
N2747 C2739 1.427 . S
N2747 C2745 1.384 . S
H2748 C2754 0.930 . S
H2749 C2758 0.930 . S
H2750 C2763 0.929 . S
H2751 C2761 0.929 . S
H2752 C2756 0.929 . S
H2753 C2762 0.929 . S
C2754 H2748 0.930 . S
C2754 C2755 1.367 . S
C2754 C2762 1.378 . S
C2755 C2754 1.367 . S
C2755 C2763 1.433 . S
C2756 H2752 0.929 . S
C2756 C2758 1.378 . S
C2756 C2760 1.350 . S
C2757 C2760 1.463 1_556 S
C2757 C2762 1.350 . S
C2757 N2765 1.427 . S
C2758 H2749 0.930 . S
C2758 C2756 1.378 . S
C2758 C2759 1.367 . S
C2759 C2758 1.367 . S
C2759 C2761 1.433 . S
C2760 C2756 1.350 . S
C2760 C2757 1.463 1_554 S
C2760 N2764 1.427 . S
C2761 H2751 0.929 . S
C2761 C2759 1.433 . S
C2761 N2764 1.384 . S
C2762 H2753 0.929 . S
C2762 C2754 1.378 . S
C2762 C2757 1.350 . S
C2763 H2750 0.929 . S
C2763 C2755 1.433 . S
C2763 N2765 1.384 . S
N2764 C2760 1.427 . S
N2764 C2761 1.384 . S
N2765 C2757 1.427 . S
N2765 C2763 1.384 . S
H2766 C2772 0.930 . S
H2767 C2776 0.930 . S
H2768 C2781 0.929 . S
H2769 C2779 0.929 . S
H2770 C2774 0.929 . S
H2771 C2780 0.929 . S
C2772 H2766 0.930 . S
C2772 C2773 1.367 . S
C2772 C2780 1.378 . S
C2773 C2772 1.367 . S
C2773 C2781 1.433 . S
C2774 H2770 0.929 . S
C2774 C2776 1.378 . S
C2774 C2778 1.350 . S
C2775 C2778 1.463 1_554 S
C2775 C2780 1.350 . S
C2775 N2783 1.427 . S
C2776 H2767 0.930 . S
C2776 C2774 1.378 . S
C2776 C2777 1.367 . S
C2777 C2776 1.367 . S
C2777 C2779 1.433 . S
C2778 C2774 1.350 . S
C2778 C2775 1.463 1_556 S
C2778 N2782 1.427 . S
C2779 H2769 0.929 . S
C2779 C2777 1.433 . S
C2779 N2782 1.384 . S
C2780 H2771 0.929 . S
C2780 C2772 1.378 . S
C2780 C2775 1.350 . S
C2781 H2768 0.929 . S
C2781 C2773 1.433 . S
C2781 N2783 1.384 . S
N2782 C2778 1.427 . S
N2782 C2779 1.384 . S
N2783 C2775 1.427 . S
N2783 C2781 1.384 . S
H2784 C2790 0.930 . S
H2785 C2794 0.930 . S
H2786 C2799 0.929 . S
H2787 C2797 0.929 . S
H2788 C2792 0.929 . S
H2789 C2798 0.929 . S
C2790 H2784 0.930 . S
C2790 C2791 1.367 . S
C2790 C2798 1.378 . S
C2791 C2790 1.367 . S
C2791 C2799 1.433 . S
C2792 H2788 0.929 . S
C2792 C2794 1.378 . S
C2792 C2796 1.350 . S
C2793 C2796 1.463 1_655 S
C2793 C2798 1.350 . S
C2793 N2801 1.427 . S
C2794 H2785 0.930 . S
C2794 C2792 1.378 . S
C2794 C2795 1.367 . S
C2795 C2794 1.367 . S
C2795 C2797 1.433 . S
C2796 C2792 1.350 . S
C2796 C2793 1.463 1_455 S
C2796 N2800 1.427 . S
C2797 H2787 0.929 . S
C2797 C2795 1.433 . S
C2797 N2800 1.384 . S
C2798 H2789 0.929 . S
C2798 C2790 1.378 . S
C2798 C2793 1.350 . S
C2799 H2786 0.929 . S
C2799 C2791 1.433 . S
C2799 N2801 1.384 . S
N2800 C2796 1.427 . S
N2800 C2797 1.384 . S
N2801 C2793 1.427 . S
N2801 C2799 1.384 . S
H2802 C2808 0.930 . S
H2803 C2812 0.930 . S
H2804 C2817 0.929 . S
H2805 C2815 0.929 . S
H2806 C2810 0.929 . S
H2807 C2816 0.929 . S
C2808 H2802 0.930 . S
C2808 C2809 1.367 . S
C2808 C2816 1.378 . S
C2809 C2808 1.367 . S
C2809 C2817 1.433 . S
C2810 H2806 0.929 . S
C2810 C2812 1.378 . S
C2810 C2814 1.350 . S
C2811 C2814 1.463 . S
C2811 C2816 1.350 1_655 S
C2811 N2819 1.427 1_655 S
C2812 H2803 0.930 . S
C2812 C2810 1.378 . S
C2812 C2813 1.367 . S
C2813 C2812 1.367 . S
C2813 C2815 1.433 . S
C2814 C2810 1.350 . S
C2814 C2811 1.463 . S
C2814 N2818 1.427 . S
C2815 H2805 0.929 . S
C2815 C2813 1.433 . S
C2815 N2818 1.384 . S
C2816 H2807 0.929 . S
C2816 C2808 1.378 . S
C2816 C2811 1.350 1_455 S
C2817 H2804 0.929 . S
C2817 C2809 1.433 . S
C2817 N2819 1.384 . S
N2818 C2814 1.427 . S
N2818 C2815 1.384 . S
N2819 C2811 1.427 1_455 S
N2819 C2817 1.384 . S
H2820 C2826 0.930 . S
H2821 C2830 0.930 . S
H2822 C2835 0.929 . S
H2823 C2833 0.929 . S
H2824 C2828 0.932 . S
H2825 C2834 0.929 . S
C2826 H2820 0.930 . S
C2826 C2827 1.367 . S
C2826 C2834 1.378 . S
C2827 C2826 1.367 . S
C2827 C2835 1.433 . S
C2828 H2824 0.932 . S
C2828 C2830 1.378 . S
C2828 C2832 1.350 1_565 S
C2829 C2832 1.463 . S
C2829 C2834 1.350 . S
C2829 N2837 1.427 . S
C2830 H2821 0.930 . S
C2830 C2828 1.378 . S
C2830 C2831 1.367 . S
C2831 C2830 1.367 . S
C2831 C2833 1.433 . S
C2832 C2828 1.350 1_545 S
C2832 C2829 1.463 . S
C2832 N2836 1.427 1_545 S
C2833 H2823 0.929 . S
C2833 C2831 1.433 . S
C2833 N2836 1.384 . S
C2834 H2825 0.929 . S
C2834 C2826 1.378 . S
C2834 C2829 1.350 . S
C2835 H2822 0.929 . S
C2835 C2827 1.433 . S
C2835 N2837 1.384 . S
N2836 C2832 1.427 1_565 S
N2836 C2833 1.384 . S
N2837 C2829 1.427 . S
N2837 C2835 1.384 . S
H2838 C2844 0.930 . S
H2839 C2848 0.930 . S
H2840 C2853 0.929 . S
H2841 C2851 0.929 . S
H2842 C2846 0.929 . S
H2843 C2852 0.929 . S
C2844 H2838 0.930 . S
C2844 C2845 1.367 . S
C2844 C2852 1.378 . S
C2845 C2844 1.367 . S
C2845 C2853 1.433 . S
C2846 H2842 0.929 . S
C2846 C2848 1.378 . S
C2846 C2850 1.350 . S
C2847 C2850 1.463 1_455 S
C2847 C2852 1.350 . S
C2847 N2855 1.427 . S
C2848 H2839 0.930 . S
C2848 C2846 1.378 . S
C2848 C2849 1.367 . S
C2849 C2848 1.367 . S
C2849 C2851 1.433 . S
C2850 C2846 1.350 . S
C2850 C2847 1.463 1_655 S
C2850 N2854 1.427 . S
C2851 H2841 0.929 . S
C2851 C2849 1.433 . S
C2851 N2854 1.384 . S
C2852 H2843 0.929 . S
C2852 C2844 1.378 . S
C2852 C2847 1.350 . S
C2853 H2840 0.929 . S
C2853 C2845 1.433 . S
C2853 N2855 1.384 . S
N2854 C2850 1.427 . S
N2854 C2851 1.384 . S
N2855 C2847 1.427 . S
N2855 C2853 1.384 . S
H2856 C2862 0.930 . S
H2857 C2866 0.930 . S
H2858 C2871 0.929 . S
H2859 C2869 0.929 . S
H2860 C2864 0.929 . S
H2861 C2870 0.929 . S
C2862 H2856 0.930 . S
C2862 C2863 1.367 . S
C2862 C2870 1.378 . S
C2863 C2862 1.367 . S
C2863 C2871 1.433 . S
C2864 H2860 0.929 . S
C2864 C2866 1.378 . S
C2864 C2868 1.350 . S
C2865 C2868 1.463 1_565 S
C2865 C2870 1.350 . S
C2865 N2873 1.427 . S
C2866 H2857 0.930 . S
C2866 C2864 1.378 . S
C2866 C2867 1.367 . S
C2867 C2866 1.367 . S
C2867 C2869 1.433 . S
C2868 C2864 1.350 . S
C2868 C2865 1.463 1_545 S
C2868 N2872 1.427 . S
C2869 H2859 0.929 . S
C2869 C2867 1.433 . S
C2869 N2872 1.384 . S
C2870 H2861 0.929 . S
C2870 C2862 1.378 . S
C2870 C2865 1.350 . S
C2871 H2858 0.929 . S
C2871 C2863 1.433 . S
C2871 N2873 1.384 . S
N2872 C2868 1.427 . S
N2872 C2869 1.384 . S
N2873 C2865 1.427 . S
N2873 C2871 1.384 . S
H2874 C2880 0.930 . S
H2875 C2884 0.930 . S
H2876 C2889 0.929 . S
H2877 C2887 0.929 . S
H2878 C2882 0.929 . S
H2879 C2888 0.929 . S
C2880 H2874 0.930 . S
C2880 C2881 1.367 . S
C2880 C2888 1.378 . S
C2881 C2880 1.367 . S
C2881 C2889 1.433 . S
C2882 H2878 0.929 . S
C2882 C2884 1.378 . S
C2882 C2886 1.350 . S
C2883 C2886 1.463 1_655 S
C2883 C2888 1.350 . S
C2883 N2891 1.427 . S
C2884 H2875 0.930 . S
C2884 C2882 1.378 . S
C2884 C2885 1.367 . S
C2885 C2884 1.367 . S
C2885 C2887 1.433 . S
C2886 C2882 1.350 . S
C2886 C2883 1.463 1_455 S
C2886 N2890 1.427 . S
C2887 H2877 0.929 . S
C2887 C2885 1.433 . S
C2887 N2890 1.384 . S
C2888 H2879 0.929 . S
C2888 C2880 1.378 . S
C2888 C2883 1.350 . S
C2889 H2876 0.929 . S
C2889 C2881 1.433 . S
C2889 N2891 1.384 . S
N2890 C2886 1.427 . S
N2890 C2887 1.384 . S
N2891 C2883 1.427 . S
N2891 C2889 1.384 . S
H2892 C2898 0.930 . S
H2893 C2902 0.930 . S
H2894 C2907 0.929 . S
H2895 C2905 0.929 . S
H2896 C2900 0.929 . S
H2897 C2906 0.929 . S
C2898 H2892 0.930 . S
C2898 C2899 1.367 . S
C2898 C2906 1.378 . S
C2899 C2898 1.367 . S
C2899 C2907 1.433 . S
C2900 H2896 0.929 . S
C2900 C2902 1.378 . S
C2900 C2904 1.350 . S
C2901 C2904 1.463 1_565 S
C2901 C2906 1.350 . S
C2901 N2909 1.427 . S
C2902 H2893 0.930 . S
C2902 C2900 1.378 . S
C2902 C2903 1.367 . S
C2903 C2902 1.367 . S
C2903 C2905 1.433 . S
C2904 C2900 1.350 . S
C2904 C2901 1.463 1_545 S
C2904 N2908 1.427 . S
C2905 H2895 0.929 . S
C2905 C2903 1.433 . S
C2905 N2908 1.384 . S
C2906 H2897 0.929 . S
C2906 C2898 1.378 . S
C2906 C2901 1.350 . S
C2907 H2894 0.929 . S
C2907 C2899 1.433 . S
C2907 N2909 1.384 . S
N2908 C2904 1.427 . S
N2908 C2905 1.384 . S
N2909 C2901 1.427 . S
N2909 C2907 1.384 . S
H2910 C2916 0.930 . S
H2911 C2920 0.930 . S
H2912 C2925 0.929 . S
H2913 C2923 0.929 . S
H2914 C2918 0.927 . S
H2915 C2924 0.929 . S
C2916 H2910 0.930 . S
C2916 C2917 1.367 . S
C2916 C2924 1.378 . S
C2917 C2916 1.367 . S
C2917 C2925 1.433 . S
C2918 H2914 0.927 . S
C2918 C2920 1.378 . S
C2918 C2922 1.350 1_545 S
C2919 C2922 1.463 . S
C2919 C2924 1.350 . S
C2919 N2927 1.427 . S
C2920 H2911 0.930 . S
C2920 C2918 1.378 . S
C2920 C2921 1.367 . S
C2921 C2920 1.367 . S
C2921 C2923 1.433 . S
C2922 C2918 1.350 1_565 S
C2922 C2919 1.463 . S
C2922 N2926 1.427 1_565 S
C2923 H2913 0.929 . S
C2923 C2921 1.433 . S
C2923 N2926 1.384 . S
C2924 H2915 0.929 . S
C2924 C2916 1.378 . S
C2924 C2919 1.350 . S
C2925 H2912 0.929 . S
C2925 C2917 1.433 . S
C2925 N2927 1.384 . S
N2926 C2922 1.427 1_545 S
N2926 C2923 1.384 . S
N2927 C2919 1.427 . S
N2927 C2925 1.384 . S
H2928 C2934 0.930 . S
H2929 C2938 0.930 . S
H2930 C2943 0.929 . S
H2931 C2941 0.929 . S
H2932 C2936 0.929 . S
H2933 C2942 0.929 . S
C2934 H2928 0.930 . S
C2934 C2935 1.367 . S
C2934 C2942 1.378 . S
C2935 C2934 1.367 . S
C2935 C2943 1.433 . S
C2936 H2932 0.929 . S
C2936 C2938 1.378 . S
C2936 C2940 1.350 . S
C2937 C2940 1.463 . S
C2937 C2942 1.350 . S
C2937 N2945 1.427 . S
C2938 H2929 0.930 . S
C2938 C2936 1.378 . S
C2938 C2939 1.367 . S
C2939 C2938 1.367 . S
C2939 C2941 1.433 . S
C2940 C2936 1.350 . S
C2940 C2937 1.463 . S
C2940 N2944 1.427 . S
C2941 H2931 0.929 . S
C2941 C2939 1.433 . S
C2941 N2944 1.384 . S
C2942 H2933 0.929 . S
C2942 C2934 1.378 . S
C2942 C2937 1.350 . S
C2943 H2930 0.929 . S
C2943 C2935 1.433 . S
C2943 N2945 1.384 . S
N2944 C2940 1.427 . S
N2944 C2941 1.384 . S
N2945 C2937 1.427 . S
N2945 C2943 1.384 . S
H2946 C2952 0.930 . S
H2947 C2956 0.930 . S
H2948 C2961 0.929 . S
H2949 C2959 0.929 . S
H2950 C2954 0.929 . S
H2951 C2960 0.929 . S
C2952 H2946 0.930 . S
C2952 C2953 1.367 . S
C2952 C2960 1.378 . S
C2953 C2952 1.367 . S
C2953 C2961 1.433 . S
C2954 H2950 0.929 . S
C2954 C2956 1.378 . S
C2954 C2958 1.350 . S
C2955 C2958 1.463 . S
C2955 C2960 1.350 . S
C2955 N2963 1.427 . S
C2956 H2947 0.930 . S
C2956 C2954 1.378 . S
C2956 C2957 1.367 . S
C2957 C2956 1.367 . S
C2957 C2959 1.433 . S
C2958 C2954 1.350 . S
C2958 C2955 1.463 . S
C2958 N2962 1.427 . S
C2959 H2949 0.929 . S
C2959 C2957 1.433 . S
C2959 N2962 1.384 . S
C2960 H2951 0.929 . S
C2960 C2952 1.378 . S
C2960 C2955 1.350 . S
C2961 H2948 0.929 . S
C2961 C2953 1.433 . S
C2961 N2963 1.384 . S
N2962 C2958 1.427 . S
N2962 C2959 1.384 . S
N2963 C2955 1.427 . S
N2963 C2961 1.384 . S
H2964 C2970 0.930 . S
H2965 C2974 0.930 . S
H2966 C2979 0.929 . S
H2967 C2977 0.929 . S
H2968 C2972 0.929 . S
H2969 C2978 0.929 . S
C2970 H2964 0.930 . S
C2970 C2971 1.367 . S
C2970 C2978 1.378 . S
C2971 C2970 1.367 . S
C2971 C2979 1.433 . S
C2972 H2968 0.929 . S
C2972 C2974 1.378 . S
C2972 C2976 1.350 . S
C2973 C2976 1.463 . S
C2973 C2978 1.350 . S
C2973 N2981 1.427 . S
C2974 H2965 0.930 . S
C2974 C2972 1.378 . S
C2974 C2975 1.367 . S
C2975 C2974 1.367 . S
C2975 C2977 1.433 . S
C2976 C2972 1.350 . S
C2976 C2973 1.463 . S
C2976 N2980 1.427 . S
C2977 H2967 0.929 . S
C2977 C2975 1.433 . S
C2977 N2980 1.384 . S
C2978 H2969 0.929 . S
C2978 C2970 1.378 . S
C2978 C2973 1.350 . S
C2979 H2966 0.929 . S
C2979 C2971 1.433 . S
C2979 N2981 1.384 . S
N2980 C2976 1.427 . S
N2980 C2977 1.384 . S
N2981 C2973 1.427 . S
N2981 C2979 1.384 . S
H2982 C2988 0.930 . S
H2983 C2992 0.930 . S
H2984 C2997 0.929 . S
H2985 C2995 0.929 . S
H2986 C2990 0.929 . S
H2987 C2996 0.929 . S
C2988 H2982 0.930 . S
C2988 C2989 1.367 . S
C2988 C2996 1.378 . S
C2989 C2988 1.367 . S
C2989 C2997 1.433 . S
C2990 H2986 0.929 . S
C2990 C2992 1.378 . S
C2990 C2994 1.350 . S
C2991 C2994 1.463 . S
C2991 C2996 1.350 . S
C2991 N2999 1.427 . S
C2992 H2983 0.930 . S
C2992 C2990 1.378 . S
C2992 C2993 1.367 . S
C2993 C2992 1.367 . S
C2993 C2995 1.433 . S
C2994 C2990 1.350 . S
C2994 C2991 1.463 . S
C2994 N2998 1.427 . S
C2995 H2985 0.929 . S
C2995 C2993 1.433 . S
C2995 N2998 1.384 . S
C2996 H2987 0.929 . S
C2996 C2988 1.378 . S
C2996 C2991 1.350 . S
C2997 H2984 0.929 . S
C2997 C2989 1.433 . S
C2997 N2999 1.384 . S
N2998 C2994 1.427 . S
N2998 C2995 1.384 . S
N2999 C2991 1.427 . S
N2999 C2997 1.384 . S
H3000 C3006 0.930 . S
H3001 C3010 0.930 . S
H3002 C3015 0.929 . S
H3003 C3013 0.929 . S
H3004 C3008 0.929 . S
H3005 C3014 0.929 . S
C3006 H3000 0.930 . S
C3006 C3007 1.367 . S
C3006 C3014 1.378 . S
C3007 C3006 1.367 . S
C3007 C3015 1.433 . S
C3008 H3004 0.929 . S
C3008 C3010 1.378 . S
C3008 C3012 1.350 . S
C3009 C3012 1.463 . S
C3009 C3014 1.350 . S
C3009 N3017 1.427 . S
C3010 H3001 0.930 . S
C3010 C3008 1.378 . S
C3010 C3011 1.367 . S
C3011 C3010 1.367 . S
C3011 C3013 1.433 . S
C3012 C3008 1.350 . S
C3012 C3009 1.463 . S
C3012 N3016 1.427 . S
C3013 H3003 0.929 . S
C3013 C3011 1.433 . S
C3013 N3016 1.384 . S
C3014 H3005 0.929 . S
C3014 C3006 1.378 . S
C3014 C3009 1.350 . S
C3015 H3002 0.929 . S
C3015 C3007 1.433 . S
C3015 N3017 1.384 . S
N3016 C3012 1.427 . S
N3016 C3013 1.384 . S
N3017 C3009 1.427 . S
N3017 C3015 1.384 . S
H3018 C3024 0.930 . S
H3019 C3028 0.930 . S
H3020 C3033 0.929 . S
H3021 C3031 0.929 . S
H3022 C3026 0.929 . S
H3023 C3032 0.929 . S
C3024 H3018 0.930 . S
C3024 C3025 1.367 . S
C3024 C3032 1.378 . S
C3025 C3024 1.367 . S
C3025 C3033 1.433 . S
C3026 H3022 0.929 . S
C3026 C3028 1.378 . S
C3026 C3030 1.350 . S
C3027 C3030 1.463 . S
C3027 C3032 1.350 . S
C3027 N3035 1.427 . S
C3028 H3019 0.930 . S
C3028 C3026 1.378 . S
C3028 C3029 1.367 . S
C3029 C3028 1.367 . S
C3029 C3031 1.433 . S
C3030 C3026 1.350 . S
C3030 C3027 1.463 . S
C3030 N3034 1.427 . S
C3031 H3021 0.929 . S
C3031 C3029 1.433 . S
C3031 N3034 1.384 . S
C3032 H3023 0.929 . S
C3032 C3024 1.378 . S
C3032 C3027 1.350 . S
C3033 H3020 0.929 . S
C3033 C3025 1.433 . S
C3033 N3035 1.384 . S
N3034 C3030 1.427 . S
N3034 C3031 1.384 . S
N3035 C3027 1.427 . S
N3035 C3033 1.384 . S
H3036 C3042 0.930 . S
H3037 C3046 0.930 . S
H3038 C3051 0.929 . S
H3039 C3049 0.929 . S
H3040 C3044 0.929 . S
H3041 C3050 0.929 . S
C3042 H3036 0.930 . S
C3042 C3043 1.367 . S
C3042 C3050 1.378 . S
C3043 C3042 1.367 . S
C3043 C3051 1.433 . S
C3044 H3040 0.929 . S
C3044 C3046 1.378 . S
C3044 C3048 1.350 . S
C3045 C3048 1.463 . S
C3045 C3050 1.350 . S
C3045 N3053 1.427 . S
C3046 H3037 0.930 . S
C3046 C3044 1.378 . S
C3046 C3047 1.367 . S
C3047 C3046 1.367 . S
C3047 C3049 1.433 . S
C3048 C3044 1.350 . S
C3048 C3045 1.463 . S
C3048 N3052 1.427 . S
C3049 H3039 0.929 . S
C3049 C3047 1.433 . S
C3049 N3052 1.384 . S
C3050 H3041 0.929 . S
C3050 C3042 1.378 . S
C3050 C3045 1.350 . S
C3051 H3038 0.929 . S
C3051 C3043 1.433 . S
C3051 N3053 1.384 . S
N3052 C3048 1.427 . S
N3052 C3049 1.384 . S
N3053 C3045 1.427 . S
N3053 C3051 1.384 . S
H3054 C3060 0.930 . S
H3055 C3064 0.930 . S
H3056 C3069 0.929 . S
H3057 C3067 0.929 . S
H3058 C3062 0.929 . S
H3059 C3068 0.929 . S
C3060 H3054 0.930 . S
C3060 C3061 1.367 . S
C3060 C3068 1.378 . S
C3061 C3060 1.367 . S
C3061 C3069 1.433 . S
C3062 H3058 0.929 . S
C3062 C3064 1.378 . S
C3062 C3066 1.350 . S
C3063 C3066 1.463 . S
C3063 C3068 1.350 . S
C3063 N3071 1.427 . S
C3064 H3055 0.930 . S
C3064 C3062 1.378 . S
C3064 C3065 1.367 . S
C3065 C3064 1.367 . S
C3065 C3067 1.433 . S
C3066 C3062 1.350 . S
C3066 C3063 1.463 . S
C3066 N3070 1.427 . S
C3067 H3057 0.929 . S
C3067 C3065 1.433 . S
C3067 N3070 1.384 . S
C3068 H3059 0.929 . S
C3068 C3060 1.378 . S
C3068 C3063 1.350 . S
C3069 H3056 0.929 . S
C3069 C3061 1.433 . S
C3069 N3071 1.384 . S
N3070 C3066 1.427 . S
N3070 C3067 1.384 . S
N3071 C3063 1.427 . S
N3071 C3069 1.384 . S
H3072 C3078 0.930 . S
H3073 C3082 0.930 . S
H3074 C3087 0.929 . S
H3075 C3085 0.929 . S
H3076 C3080 0.929 . S
H3077 C3086 0.929 . S
C3078 H3072 0.930 . S
C3078 C3079 1.367 . S
C3078 C3086 1.378 . S
C3079 C3078 1.367 . S
C3079 C3087 1.433 . S
C3080 H3076 0.929 . S
C3080 C3082 1.378 . S
C3080 C3084 1.350 . S
C3081 C3084 1.463 . S
C3081 C3086 1.350 . S
C3081 N3089 1.427 . S
C3082 H3073 0.930 . S
C3082 C3080 1.378 . S
C3082 C3083 1.367 . S
C3083 C3082 1.367 . S
C3083 C3085 1.433 . S
C3084 C3080 1.350 . S
C3084 C3081 1.463 . S
C3084 N3088 1.427 . S
C3085 H3075 0.929 . S
C3085 C3083 1.433 . S
C3085 N3088 1.384 . S
C3086 H3077 0.929 . S
C3086 C3078 1.378 . S
C3086 C3081 1.350 . S
C3087 H3074 0.929 . S
C3087 C3079 1.433 . S
C3087 N3089 1.384 . S
N3088 C3084 1.427 . S
N3088 C3085 1.384 . S
N3089 C3081 1.427 . S
N3089 C3087 1.384 . S
H3090 C3096 0.930 . S
H3091 C3100 0.930 . S
H3092 C3105 0.929 . S
H3093 C3103 0.929 . S
H3094 C3098 0.929 . S
H3095 C3104 0.929 . S
C3096 H3090 0.930 . S
C3096 C3097 1.367 . S
C3096 C3104 1.378 . S
C3097 C3096 1.367 . S
C3097 C3105 1.433 . S
C3098 H3094 0.929 . S
C3098 C3100 1.378 . S
C3098 C3102 1.350 . S
C3099 C3102 1.463 . S
C3099 C3104 1.350 . S
C3099 N3107 1.427 . S
C3100 H3091 0.930 . S
C3100 C3098 1.378 . S
C3100 C3101 1.367 . S
C3101 C3100 1.367 . S
C3101 C3103 1.433 . S
C3102 C3098 1.350 . S
C3102 C3099 1.463 . S
C3102 N3106 1.427 . S
C3103 H3093 0.929 . S
C3103 C3101 1.433 . S
C3103 N3106 1.384 . S
C3104 H3095 0.929 . S
C3104 C3096 1.378 . S
C3104 C3099 1.350 . S
C3105 H3092 0.929 . S
C3105 C3097 1.433 . S
C3105 N3107 1.384 . S
N3106 C3102 1.427 . S
N3106 C3103 1.384 . S
N3107 C3099 1.427 . S
N3107 C3105 1.384 . S
H3108 C3114 0.930 . S
H3109 C3118 0.930 . S
H3110 C3123 0.929 . S
H3111 C3121 0.929 . S
H3112 C3116 0.929 . S
H3113 C3122 0.929 . S
C3114 H3108 0.930 . S
C3114 C3115 1.367 . S
C3114 C3122 1.378 . S
C3115 C3114 1.367 . S
C3115 C3123 1.433 . S
C3116 H3112 0.929 . S
C3116 C3118 1.378 . S
C3116 C3120 1.350 . S
C3117 C3120 1.463 . S
C3117 C3122 1.350 . S
C3117 N3125 1.427 . S
C3118 H3109 0.930 . S
C3118 C3116 1.378 . S
C3118 C3119 1.367 . S
C3119 C3118 1.367 . S
C3119 C3121 1.433 . S
C3120 C3116 1.350 . S
C3120 C3117 1.463 . S
C3120 N3124 1.427 . S
C3121 H3111 0.929 . S
C3121 C3119 1.433 . S
C3121 N3124 1.384 . S
C3122 H3113 0.929 . S
C3122 C3114 1.378 . S
C3122 C3117 1.350 . S
C3123 H3110 0.929 . S
C3123 C3115 1.433 . S
C3123 N3125 1.384 . S
N3124 C3120 1.427 . S
N3124 C3121 1.384 . S
N3125 C3117 1.427 . S
N3125 C3123 1.384 . S
H3126 C3132 0.930 . S
H3127 C3136 0.930 . S
H3128 C3141 0.929 . S
H3129 C3139 0.929 . S
H3130 C3134 0.929 . S
H3131 C3140 0.929 . S
C3132 H3126 0.930 . S
C3132 C3133 1.367 . S
C3132 C3140 1.378 . S
C3133 C3132 1.367 . S
C3133 C3141 1.433 . S
C3134 H3130 0.929 . S
C3134 C3136 1.378 . S
C3134 C3138 1.350 . S
C3135 C3138 1.463 . S
C3135 C3140 1.350 . S
C3135 N3143 1.427 . S
C3136 H3127 0.930 . S
C3136 C3134 1.378 . S
C3136 C3137 1.367 . S
C3137 C3136 1.367 . S
C3137 C3139 1.433 . S
C3138 C3134 1.350 . S
C3138 C3135 1.463 . S
C3138 N3142 1.427 . S
C3139 H3129 0.929 . S
C3139 C3137 1.433 . S
C3139 N3142 1.384 . S
C3140 H3131 0.929 . S
C3140 C3132 1.378 . S
C3140 C3135 1.350 . S
C3141 H3128 0.929 . S
C3141 C3133 1.433 . S
C3141 N3143 1.384 . S
N3142 C3138 1.427 . S
N3142 C3139 1.384 . S
N3143 C3135 1.427 . S
N3143 C3141 1.384 . S
H3144 C3150 0.930 . S
H3145 C3154 0.930 . S
H3146 C3159 0.929 . S
H3147 C3157 0.929 . S
H3148 C3152 0.929 . S
H3149 C3158 0.929 . S
C3150 H3144 0.930 . S
C3150 C3151 1.367 . S
C3150 C3158 1.378 . S
C3151 C3150 1.367 . S
C3151 C3159 1.433 . S
C3152 H3148 0.929 . S
C3152 C3154 1.378 . S
C3152 C3156 1.350 . S
C3153 C3156 1.463 . S
C3153 C3158 1.350 . S
C3153 N3161 1.427 . S
C3154 H3145 0.930 . S
C3154 C3152 1.378 . S
C3154 C3155 1.367 . S
C3155 C3154 1.367 . S
C3155 C3157 1.433 . S
C3156 C3152 1.350 . S
C3156 C3153 1.463 . S
C3156 N3160 1.427 . S
C3157 H3147 0.929 . S
C3157 C3155 1.433 . S
C3157 N3160 1.384 . S
C3158 H3149 0.929 . S
C3158 C3150 1.378 . S
C3158 C3153 1.350 . S
C3159 H3146 0.929 . S
C3159 C3151 1.433 . S
C3159 N3161 1.384 . S
N3160 C3156 1.427 . S
N3160 C3157 1.384 . S
N3161 C3153 1.427 . S
N3161 C3159 1.384 . S
H3162 C3168 0.930 . S
H3163 C3172 0.930 . S
H3164 C3177 0.929 . S
H3165 C3175 0.929 . S
H3166 C3170 0.929 . S
H3167 C3176 0.929 . S
C3168 H3162 0.930 . S
C3168 C3169 1.367 . S
C3168 C3176 1.378 . S
C3169 C3168 1.367 . S
C3169 C3177 1.433 . S
C3170 H3166 0.929 . S
C3170 C3172 1.378 . S
C3170 C3174 1.350 . S
C3171 C3174 1.463 . S
C3171 C3176 1.350 . S
C3171 N3179 1.427 . S
C3172 H3163 0.930 . S
C3172 C3170 1.378 . S
C3172 C3173 1.367 . S
C3173 C3172 1.367 . S
C3173 C3175 1.433 . S
C3174 C3170 1.350 . S
C3174 C3171 1.463 . S
C3174 N3178 1.427 . S
C3175 H3165 0.929 . S
C3175 C3173 1.433 . S
C3175 N3178 1.384 . S
C3176 H3167 0.929 . S
C3176 C3168 1.378 . S
C3176 C3171 1.350 . S
C3177 H3164 0.929 . S
C3177 C3169 1.433 . S
C3177 N3179 1.384 . S
N3178 C3174 1.427 . S
N3178 C3175 1.384 . S
N3179 C3171 1.427 . S
N3179 C3177 1.384 . S
H3180 C3186 0.930 . S
H3181 C3190 0.930 . S
H3182 C3195 0.929 . S
H3183 C3193 0.929 . S
H3184 C3188 0.929 . S
H3185 C3194 0.929 . S
C3186 H3180 0.930 . S
C3186 C3187 1.367 . S
C3186 C3194 1.378 . S
C3187 C3186 1.367 . S
C3187 C3195 1.433 . S
C3188 H3184 0.929 . S
C3188 C3190 1.378 . S
C3188 C3192 1.350 . S
C3189 C3192 1.463 . S
C3189 C3194 1.350 . S
C3189 N3197 1.427 . S
C3190 H3181 0.930 . S
C3190 C3188 1.378 . S
C3190 C3191 1.367 . S
C3191 C3190 1.367 . S
C3191 C3193 1.433 . S
C3192 C3188 1.350 . S
C3192 C3189 1.463 . S
C3192 N3196 1.427 . S
C3193 H3183 0.929 . S
C3193 C3191 1.433 . S
C3193 N3196 1.384 . S
C3194 H3185 0.929 . S
C3194 C3186 1.378 . S
C3194 C3189 1.350 . S
C3195 H3182 0.929 . S
C3195 C3187 1.433 . S
C3195 N3197 1.384 . S
N3196 C3192 1.427 . S
N3196 C3193 1.384 . S
N3197 C3189 1.427 . S
N3197 C3195 1.384 . S
H3198 C3204 0.930 . S
H3199 C3208 0.930 . S
H3200 C3213 0.929 . S
H3201 C3211 0.929 . S
H3202 C3206 0.929 . S
H3203 C3212 0.929 . S
C3204 H3198 0.930 . S
C3204 C3205 1.367 . S
C3204 C3212 1.378 . S
C3205 C3204 1.367 . S
C3205 C3213 1.433 . S
C3206 H3202 0.929 . S
C3206 C3208 1.378 . S
C3206 C3210 1.350 . S
C3207 C3210 1.463 . S
C3207 C3212 1.350 . S
C3207 N3215 1.427 . S
C3208 H3199 0.930 . S
C3208 C3206 1.378 . S
C3208 C3209 1.367 . S
C3209 C3208 1.367 . S
C3209 C3211 1.433 . S
C3210 C3206 1.350 . S
C3210 C3207 1.463 . S
C3210 N3214 1.427 . S
C3211 H3201 0.929 . S
C3211 C3209 1.433 . S
C3211 N3214 1.384 . S
C3212 H3203 0.929 . S
C3212 C3204 1.378 . S
C3212 C3207 1.350 . S
C3213 H3200 0.929 . S
C3213 C3205 1.433 . S
C3213 N3215 1.384 . S
N3214 C3210 1.427 . S
N3214 C3211 1.384 . S
N3215 C3207 1.427 . S
N3215 C3213 1.384 . S
H3216 C3222 0.930 . S
H3217 C3226 0.930 . S
H3218 C3231 0.929 . S
H3219 C3229 0.929 . S
H3220 C3224 0.929 . S
H3221 C3230 0.929 . S
C3222 H3216 0.930 . S
C3222 C3223 1.367 . S
C3222 C3230 1.378 . S
C3223 C3222 1.367 . S
C3223 C3231 1.433 . S
C3224 H3220 0.929 . S
C3224 C3226 1.378 . S
C3224 C3228 1.350 . S
C3225 C3228 1.463 . S
C3225 C3230 1.350 . S
C3225 N3233 1.427 . S
C3226 H3217 0.930 . S
C3226 C3224 1.378 . S
C3226 C3227 1.367 . S
C3227 C3226 1.367 . S
C3227 C3229 1.433 . S
C3228 C3224 1.350 . S
C3228 C3225 1.463 . S
C3228 N3232 1.427 . S
C3229 H3219 0.929 . S
C3229 C3227 1.433 . S
C3229 N3232 1.384 . S
C3230 H3221 0.929 . S
C3230 C3222 1.378 . S
C3230 C3225 1.350 . S
C3231 H3218 0.929 . S
C3231 C3223 1.433 . S
C3231 N3233 1.384 . S
N3232 C3228 1.427 . S
N3232 C3229 1.384 . S
N3233 C3225 1.427 . S
N3233 C3231 1.384 . S
H3234 C3240 0.930 . S
H3235 C3244 0.930 . S
H3236 C3249 0.929 . S
H3237 C3247 0.929 . S
H3238 C3242 0.929 . S
H3239 C3248 0.929 . S
C3240 H3234 0.930 . S
C3240 C3241 1.367 . S
C3240 C3248 1.378 . S
C3241 C3240 1.367 . S
C3241 C3249 1.433 . S
C3242 H3238 0.929 . S
C3242 C3244 1.378 . S
C3242 C3246 1.350 . S
C3243 C3246 1.463 . S
C3243 C3248 1.350 . S
C3243 N3251 1.427 . S
C3244 H3235 0.930 . S
C3244 C3242 1.378 . S
C3244 C3245 1.367 . S
C3245 C3244 1.367 . S
C3245 C3247 1.433 . S
C3246 C3242 1.350 . S
C3246 C3243 1.463 . S
C3246 N3250 1.427 . S
C3247 H3237 0.929 . S
C3247 C3245 1.433 . S
C3247 N3250 1.384 . S
C3248 H3239 0.929 . S
C3248 C3240 1.378 . S
C3248 C3243 1.350 . S
C3249 H3236 0.929 . S
C3249 C3241 1.433 . S
C3249 N3251 1.384 . S
N3250 C3246 1.427 . S
N3250 C3247 1.384 . S
N3251 C3243 1.427 . S
N3251 C3249 1.384 . S
H3252 C3258 0.930 . S
H3253 C3262 0.930 . S
H3254 C3267 0.929 . S
H3255 C3265 0.929 . S
H3256 C3260 0.929 . S
H3257 C3266 0.929 . S
C3258 H3252 0.930 . S
C3258 C3259 1.367 . S
C3258 C3266 1.378 . S
C3259 C3258 1.367 . S
C3259 C3267 1.433 . S
C3260 H3256 0.929 . S
C3260 C3262 1.378 . S
C3260 C3264 1.350 . S
C3261 C3264 1.463 . S
C3261 C3266 1.350 . S
C3261 N3269 1.427 . S
C3262 H3253 0.930 . S
C3262 C3260 1.378 . S
C3262 C3263 1.367 . S
C3263 C3262 1.367 . S
C3263 C3265 1.433 . S
C3264 C3260 1.350 . S
C3264 C3261 1.463 . S
C3264 N3268 1.427 . S
C3265 H3255 0.929 . S
C3265 C3263 1.433 . S
C3265 N3268 1.384 . S
C3266 H3257 0.929 . S
C3266 C3258 1.378 . S
C3266 C3261 1.350 . S
C3267 H3254 0.929 . S
C3267 C3259 1.433 . S
C3267 N3269 1.384 . S
N3268 C3264 1.427 . S
N3268 C3265 1.384 . S
N3269 C3261 1.427 . S
N3269 C3267 1.384 . S
H3270 C3276 0.930 . S
H3271 C3280 0.930 . S
H3272 C3285 0.929 . S
H3273 C3283 0.929 . S
H3274 C3278 0.929 . S
H3275 C3284 0.929 . S
C3276 H3270 0.930 . S
C3276 C3277 1.367 . S
C3276 C3284 1.378 . S
C3277 C3276 1.367 . S
C3277 C3285 1.433 . S
C3278 H3274 0.929 . S
C3278 C3280 1.378 . S
C3278 C3282 1.350 . S
C3279 C3282 1.463 . S
C3279 C3284 1.350 . S
C3279 N3287 1.427 . S
C3280 H3271 0.930 . S
C3280 C3278 1.378 . S
C3280 C3281 1.367 . S
C3281 C3280 1.367 . S
C3281 C3283 1.433 . S
C3282 C3278 1.350 . S
C3282 C3279 1.463 . S
C3282 N3286 1.427 . S
C3283 H3273 0.929 . S
C3283 C3281 1.433 . S
C3283 N3286 1.384 . S
C3284 H3275 0.929 . S
C3284 C3276 1.378 . S
C3284 C3279 1.350 . S
C3285 H3272 0.929 . S
C3285 C3277 1.433 . S
C3285 N3287 1.384 . S
N3286 C3282 1.427 . S
N3286 C3283 1.384 . S
N3287 C3279 1.427 . S
N3287 C3285 1.384 . S
H3288 C3294 0.930 . S
H3289 C3298 0.930 . S
H3290 C3303 0.929 . S
H3291 C3301 0.929 . S
H3292 C3296 0.929 . S
H3293 C3302 0.929 . S
C3294 H3288 0.930 . S
C3294 C3295 1.367 . S
C3294 C3302 1.378 . S
C3295 C3294 1.367 . S
C3295 C3303 1.433 . S
C3296 H3292 0.929 . S
C3296 C3298 1.378 . S
C3296 C3300 1.350 . S
C3297 C3300 1.463 . S
C3297 C3302 1.350 . S
C3297 N3305 1.427 . S
C3298 H3289 0.930 . S
C3298 C3296 1.378 . S
C3298 C3299 1.367 . S
C3299 C3298 1.367 . S
C3299 C3301 1.433 . S
C3300 C3296 1.350 . S
C3300 C3297 1.463 . S
C3300 N3304 1.427 . S
C3301 H3291 0.929 . S
C3301 C3299 1.433 . S
C3301 N3304 1.384 . S
C3302 H3293 0.929 . S
C3302 C3294 1.378 . S
C3302 C3297 1.350 . S
C3303 H3290 0.929 . S
C3303 C3295 1.433 . S
C3303 N3305 1.384 . S
N3304 C3300 1.427 . S
N3304 C3301 1.384 . S
N3305 C3297 1.427 . S
N3305 C3303 1.384 . S
H3306 C3312 0.930 . S
H3307 C3316 0.930 . S
H3308 C3321 0.929 . S
H3309 C3319 0.929 . S
H3310 C3314 0.929 . S
H3311 C3320 0.929 . S
C3312 H3306 0.930 . S
C3312 C3313 1.367 . S
C3312 C3320 1.378 . S
C3313 C3312 1.367 . S
C3313 C3321 1.433 . S
C3314 H3310 0.929 . S
C3314 C3316 1.378 . S
C3314 C3318 1.350 . S
C3315 C3318 1.463 . S
C3315 C3320 1.350 . S
C3315 N3323 1.427 . S
C3316 H3307 0.930 . S
C3316 C3314 1.378 . S
C3316 C3317 1.367 . S
C3317 C3316 1.367 . S
C3317 C3319 1.433 . S
C3318 C3314 1.350 . S
C3318 C3315 1.463 . S
C3318 N3322 1.427 . S
C3319 H3309 0.929 . S
C3319 C3317 1.433 . S
C3319 N3322 1.384 . S
C3320 H3311 0.929 . S
C3320 C3312 1.378 . S
C3320 C3315 1.350 . S
C3321 H3308 0.929 . S
C3321 C3313 1.433 . S
C3321 N3323 1.384 . S
N3322 C3318 1.427 . S
N3322 C3319 1.384 . S
N3323 C3315 1.427 . S
N3323 C3321 1.384 . S
H3324 C3330 0.930 . S
H3325 C3334 0.930 . S
H3326 C3339 0.929 . S
H3327 C3337 0.929 . S
H3328 C3332 0.929 . S
H3329 C3338 0.929 . S
C3330 H3324 0.930 . S
C3330 C3331 1.367 . S
C3330 C3338 1.378 . S
C3331 C3330 1.367 . S
C3331 C3339 1.433 . S
C3332 H3328 0.929 . S
C3332 C3334 1.378 . S
C3332 C3336 1.350 . S
C3333 C3336 1.463 . S
C3333 C3338 1.350 . S
C3333 N3341 1.427 . S
C3334 H3325 0.930 . S
C3334 C3332 1.378 . S
C3334 C3335 1.367 . S
C3335 C3334 1.367 . S
C3335 C3337 1.433 . S
C3336 C3332 1.350 . S
C3336 C3333 1.463 . S
C3336 N3340 1.427 . S
C3337 H3327 0.929 . S
C3337 C3335 1.433 . S
C3337 N3340 1.384 . S
C3338 H3329 0.929 . S
C3338 C3330 1.378 . S
C3338 C3333 1.350 . S
C3339 H3326 0.929 . S
C3339 C3331 1.433 . S
C3339 N3341 1.384 . S
N3340 C3336 1.427 . S
N3340 C3337 1.384 . S
N3341 C3333 1.427 . S
N3341 C3339 1.384 . S
H3342 C3348 0.930 . S
H3343 C3352 0.930 . S
H3344 C3357 0.929 . S
H3345 C3355 0.929 . S
H3346 C3350 0.929 . S
H3347 C3356 0.929 . S
C3348 H3342 0.930 . S
C3348 C3349 1.367 . S
C3348 C3356 1.378 . S
C3349 C3348 1.367 . S
C3349 C3357 1.433 . S
C3350 H3346 0.929 . S
C3350 C3352 1.378 . S
C3350 C3354 1.350 . S
C3351 C3354 1.463 . S
C3351 C3356 1.350 . S
C3351 N3359 1.427 . S
C3352 H3343 0.930 . S
C3352 C3350 1.378 . S
C3352 C3353 1.367 . S
C3353 C3352 1.367 . S
C3353 C3355 1.433 . S
C3354 C3350 1.350 . S
C3354 C3351 1.463 . S
C3354 N3358 1.427 . S
C3355 H3345 0.929 . S
C3355 C3353 1.433 . S
C3355 N3358 1.384 . S
C3356 H3347 0.929 . S
C3356 C3348 1.378 . S
C3356 C3351 1.350 . S
C3357 H3344 0.929 . S
C3357 C3349 1.433 . S
C3357 N3359 1.384 . S
N3358 C3354 1.427 . S
N3358 C3355 1.384 . S
N3359 C3351 1.427 . S
N3359 C3357 1.384 . S
H3360 C3366 0.930 . S
H3361 C3370 0.930 . S
H3362 C3375 0.929 . S
H3363 C3373 0.929 . S
H3364 C3368 0.929 . S
H3365 C3374 0.929 . S
C3366 H3360 0.930 . S
C3366 C3367 1.367 . S
C3366 C3374 1.378 . S
C3367 C3366 1.367 . S
C3367 C3375 1.433 . S
C3368 H3364 0.929 . S
C3368 C3370 1.378 . S
C3368 C3372 1.350 . S
C3369 C3372 1.463 . S
C3369 C3374 1.350 . S
C3369 N3377 1.427 . S
C3370 H3361 0.930 . S
C3370 C3368 1.378 . S
C3370 C3371 1.367 . S
C3371 C3370 1.367 . S
C3371 C3373 1.433 . S
C3372 C3368 1.350 . S
C3372 C3369 1.463 . S
C3372 N3376 1.427 . S
C3373 H3363 0.929 . S
C3373 C3371 1.433 . S
C3373 N3376 1.384 . S
C3374 H3365 0.929 . S
C3374 C3366 1.378 . S
C3374 C3369 1.350 . S
C3375 H3362 0.929 . S
C3375 C3367 1.433 . S
C3375 N3377 1.384 . S
N3376 C3372 1.427 . S
N3376 C3373 1.384 . S
N3377 C3369 1.427 . S
N3377 C3375 1.384 . S
H3378 C3384 0.930 . S
H3379 C3388 0.930 . S
H3380 C3393 0.929 . S
H3381 C3391 0.929 . S
H3382 C3386 0.929 . S
H3383 C3392 0.929 . S
C3384 H3378 0.930 . S
C3384 C3385 1.367 . S
C3384 C3392 1.378 . S
C3385 C3384 1.367 . S
C3385 C3393 1.433 . S
C3386 H3382 0.929 . S
C3386 C3388 1.378 . S
C3386 C3390 1.350 . S
C3387 C3390 1.463 . S
C3387 C3392 1.350 . S
C3387 N3395 1.427 . S
C3388 H3379 0.930 . S
C3388 C3386 1.378 . S
C3388 C3389 1.367 . S
C3389 C3388 1.367 . S
C3389 C3391 1.433 . S
C3390 C3386 1.350 . S
C3390 C3387 1.463 . S
C3390 N3394 1.427 . S
C3391 H3381 0.929 . S
C3391 C3389 1.433 . S
C3391 N3394 1.384 . S
C3392 H3383 0.929 . S
C3392 C3384 1.378 . S
C3392 C3387 1.350 . S
C3393 H3380 0.929 . S
C3393 C3385 1.433 . S
C3393 N3395 1.384 . S
N3394 C3390 1.427 . S
N3394 C3391 1.384 . S
N3395 C3387 1.427 . S
N3395 C3393 1.384 . S
H3396 C3402 0.930 . S
H3397 C3406 0.930 . S
H3398 C3411 0.929 . S
H3399 C3409 0.929 . S
H3400 C3404 0.929 . S
H3401 C3410 0.929 . S
C3402 H3396 0.930 . S
C3402 C3403 1.367 . S
C3402 C3410 1.378 . S
C3403 C3402 1.367 . S
C3403 C3411 1.433 . S
C3404 H3400 0.929 . S
C3404 C3406 1.378 . S
C3404 C3408 1.350 . S
C3405 C3408 1.463 . S
C3405 C3410 1.350 . S
C3405 N3413 1.427 . S
C3406 H3397 0.930 . S
C3406 C3404 1.378 . S
C3406 C3407 1.367 . S
C3407 C3406 1.367 . S
C3407 C3409 1.433 . S
C3408 C3404 1.350 . S
C3408 C3405 1.463 . S
C3408 N3412 1.427 . S
C3409 H3399 0.929 . S
C3409 C3407 1.433 . S
C3409 N3412 1.384 . S
C3410 H3401 0.929 . S
C3410 C3402 1.378 . S
C3410 C3405 1.350 . S
C3411 H3398 0.929 . S
C3411 C3403 1.433 . S
C3411 N3413 1.384 . S
N3412 C3408 1.427 . S
N3412 C3409 1.384 . S
N3413 C3405 1.427 . S
N3413 C3411 1.384 . S
H3414 C3420 0.930 . S
H3415 C3424 0.930 . S
H3416 C3429 0.929 . S
H3417 C3427 0.929 . S
H3418 C3422 0.929 . S
H3419 C3428 0.929 . S
C3420 H3414 0.930 . S
C3420 C3421 1.367 . S
C3420 C3428 1.378 . S
C3421 C3420 1.367 . S
C3421 C3429 1.433 . S
C3422 H3418 0.929 . S
C3422 C3424 1.378 . S
C3422 C3426 1.350 . S
C3423 C3426 1.463 . S
C3423 C3428 1.350 . S
C3423 N3431 1.427 . S
C3424 H3415 0.930 . S
C3424 C3422 1.378 . S
C3424 C3425 1.367 . S
C3425 C3424 1.367 . S
C3425 C3427 1.433 . S
C3426 C3422 1.350 . S
C3426 C3423 1.463 . S
C3426 N3430 1.427 . S
C3427 H3417 0.929 . S
C3427 C3425 1.433 . S
C3427 N3430 1.384 . S
C3428 H3419 0.929 . S
C3428 C3420 1.378 . S
C3428 C3423 1.350 . S
C3429 H3416 0.929 . S
C3429 C3421 1.433 . S
C3429 N3431 1.384 . S
N3430 C3426 1.427 . S
N3430 C3427 1.384 . S
N3431 C3423 1.427 . S
N3431 C3429 1.384 . S
H3432 C3438 0.930 . S
H3433 C3442 0.930 . S
H3434 C3447 0.929 . S
H3435 C3445 0.929 . S
H3436 C3440 0.929 . S
H3437 C3446 0.929 . S
C3438 H3432 0.930 . S
C3438 C3439 1.367 . S
C3438 C3446 1.378 . S
C3439 C3438 1.367 . S
C3439 C3447 1.433 . S
C3440 H3436 0.929 . S
C3440 C3442 1.378 . S
C3440 C3444 1.350 . S
C3441 C3444 1.463 . S
C3441 C3446 1.350 . S
C3441 N3449 1.427 . S
C3442 H3433 0.930 . S
C3442 C3440 1.378 . S
C3442 C3443 1.367 . S
C3443 C3442 1.367 . S
C3443 C3445 1.433 . S
C3444 C3440 1.350 . S
C3444 C3441 1.463 . S
C3444 N3448 1.427 . S
C3445 H3435 0.929 . S
C3445 C3443 1.433 . S
C3445 N3448 1.384 . S
C3446 H3437 0.929 . S
C3446 C3438 1.378 . S
C3446 C3441 1.350 . S
C3447 H3434 0.929 . S
C3447 C3439 1.433 . S
C3447 N3449 1.384 . S
N3448 C3444 1.427 . S
N3448 C3445 1.384 . S
N3449 C3441 1.427 . S
N3449 C3447 1.384 . S
H3450 C3456 0.930 . S
H3451 C3460 0.930 . S
H3452 C3465 0.929 . S
H3453 C3463 0.929 . S
H3454 C3458 0.929 . S
H3455 C3464 0.929 . S
C3456 H3450 0.930 . S
C3456 C3457 1.367 . S
C3456 C3464 1.378 . S
C3457 C3456 1.367 . S
C3457 C3465 1.433 . S
C3458 H3454 0.929 . S
C3458 C3460 1.378 . S
C3458 C3462 1.350 . S
C3459 C3462 1.463 . S
C3459 C3464 1.350 . S
C3459 N3467 1.427 . S
C3460 H3451 0.930 . S
C3460 C3458 1.378 . S
C3460 C3461 1.367 . S
C3461 C3460 1.367 . S
C3461 C3463 1.433 . S
C3462 C3458 1.350 . S
C3462 C3459 1.463 . S
C3462 N3466 1.427 . S
C3463 H3453 0.929 . S
C3463 C3461 1.433 . S
C3463 N3466 1.384 . S
C3464 H3455 0.929 . S
C3464 C3456 1.378 . S
C3464 C3459 1.350 . S
C3465 H3452 0.929 . S
C3465 C3457 1.433 . S
C3465 N3467 1.384 . S
N3466 C3462 1.427 . S
N3466 C3463 1.384 . S
N3467 C3459 1.427 . S
N3467 C3465 1.384 . S
H3468 C3474 0.930 . S
H3469 C3478 0.930 . S
H3470 C3483 0.929 . S
H3471 C3481 0.929 . S
H3472 C3476 0.929 . S
H3473 C3482 0.929 . S
C3474 H3468 0.930 . S
C3474 C3475 1.367 . S
C3474 C3482 1.378 . S
C3475 C3474 1.367 . S
C3475 C3483 1.433 . S
C3476 H3472 0.929 . S
C3476 C3478 1.378 . S
C3476 C3480 1.350 . S
C3477 C3480 1.463 . S
C3477 C3482 1.350 . S
C3477 N3485 1.427 . S
C3478 H3469 0.930 . S
C3478 C3476 1.378 . S
C3478 C3479 1.367 . S
C3479 C3478 1.367 . S
C3479 C3481 1.433 . S
C3480 C3476 1.350 . S
C3480 C3477 1.463 . S
C3480 N3484 1.427 . S
C3481 H3471 0.929 . S
C3481 C3479 1.433 . S
C3481 N3484 1.384 . S
C3482 H3473 0.929 . S
C3482 C3474 1.378 . S
C3482 C3477 1.350 . S
C3483 H3470 0.929 . S
C3483 C3475 1.433 . S
C3483 N3485 1.384 . S
N3484 C3480 1.427 . S
N3484 C3481 1.384 . S
N3485 C3477 1.427 . S
N3485 C3483 1.384 . S
H3486 C3492 0.930 . S
H3487 C3496 0.930 . S
H3488 C3501 0.929 . S
H3489 C3499 0.929 . S
H3490 C3494 0.929 . S
H3491 C3500 0.929 . S
C3492 H3486 0.930 . S
C3492 C3493 1.367 . S
C3492 C3500 1.378 . S
C3493 C3492 1.367 . S
C3493 C3501 1.433 . S
C3494 H3490 0.929 . S
C3494 C3496 1.378 . S
C3494 C3498 1.350 . S
C3495 C3498 1.463 . S
C3495 C3500 1.350 . S
C3495 N3503 1.427 . S
C3496 H3487 0.930 . S
C3496 C3494 1.378 . S
C3496 C3497 1.367 . S
C3497 C3496 1.367 . S
C3497 C3499 1.433 . S
C3498 C3494 1.350 . S
C3498 C3495 1.463 . S
C3498 N3502 1.427 . S
C3499 H3489 0.929 . S
C3499 C3497 1.433 . S
C3499 N3502 1.384 . S
C3500 H3491 0.929 . S
C3500 C3492 1.378 . S
C3500 C3495 1.350 . S
C3501 H3488 0.929 . S
C3501 C3493 1.433 . S
C3501 N3503 1.384 . S
N3502 C3498 1.427 . S
N3502 C3499 1.384 . S
N3503 C3495 1.427 . S
N3503 C3501 1.384 . S
H3504 C3510 0.930 . S
H3505 C3514 0.930 . S
H3506 C3519 0.929 . S
H3507 C3517 0.929 . S
H3508 C3512 0.929 . S
H3509 C3518 0.929 . S
C3510 H3504 0.930 . S
C3510 C3511 1.367 . S
C3510 C3518 1.378 . S
C3511 C3510 1.367 . S
C3511 C3519 1.433 . S
C3512 H3508 0.929 . S
C3512 C3514 1.378 . S
C3512 C3516 1.350 . S
C3513 C3516 1.463 . S
C3513 C3518 1.350 . S
C3513 N3521 1.427 . S
C3514 H3505 0.930 . S
C3514 C3512 1.378 . S
C3514 C3515 1.367 . S
C3515 C3514 1.367 . S
C3515 C3517 1.433 . S
C3516 C3512 1.350 . S
C3516 C3513 1.463 . S
C3516 N3520 1.427 . S
C3517 H3507 0.929 . S
C3517 C3515 1.433 . S
C3517 N3520 1.384 . S
C3518 H3509 0.929 . S
C3518 C3510 1.378 . S
C3518 C3513 1.350 . S
C3519 H3506 0.929 . S
C3519 C3511 1.433 . S
C3519 N3521 1.384 . S
N3520 C3516 1.427 . S
N3520 C3517 1.384 . S
N3521 C3513 1.427 . S
N3521 C3519 1.384 . S
H3522 C3528 0.930 . S
H3523 C3532 0.930 . S
H3524 C3537 0.929 . S
H3525 C3535 0.929 . S
H3526 C3530 0.929 . S
H3527 C3536 0.929 . S
C3528 H3522 0.930 . S
C3528 C3529 1.367 . S
C3528 C3536 1.378 . S
C3529 C3528 1.367 . S
C3529 C3537 1.433 . S
C3530 H3526 0.929 . S
C3530 C3532 1.378 . S
C3530 C3534 1.350 . S
C3531 C3534 1.463 . S
C3531 C3536 1.350 . S
C3531 N3539 1.427 . S
C3532 H3523 0.930 . S
C3532 C3530 1.378 . S
C3532 C3533 1.367 . S
C3533 C3532 1.367 . S
C3533 C3535 1.433 . S
C3534 C3530 1.350 . S
C3534 C3531 1.463 . S
C3534 N3538 1.427 . S
C3535 H3525 0.929 . S
C3535 C3533 1.433 . S
C3535 N3538 1.384 . S
C3536 H3527 0.929 . S
C3536 C3528 1.378 . S
C3536 C3531 1.350 . S
C3537 H3524 0.929 . S
C3537 C3529 1.433 . S
C3537 N3539 1.384 . S
N3538 C3534 1.427 . S
N3538 C3535 1.384 . S
N3539 C3531 1.427 . S
N3539 C3537 1.384 . S
H3540 C3546 0.930 . S
H3541 C3550 0.930 . S
H3542 C3555 0.929 . S
H3543 C3553 0.929 . S
H3544 C3548 0.929 . S
H3545 C3554 0.929 . S
C3546 H3540 0.930 . S
C3546 C3547 1.367 . S
C3546 C3554 1.378 . S
C3547 C3546 1.367 . S
C3547 C3555 1.433 . S
C3548 H3544 0.929 . S
C3548 C3550 1.378 . S
C3548 C3552 1.350 . S
C3549 C3552 1.463 . S
C3549 C3554 1.350 . S
C3549 N3557 1.427 . S
C3550 H3541 0.930 . S
C3550 C3548 1.378 . S
C3550 C3551 1.367 . S
C3551 C3550 1.367 . S
C3551 C3553 1.433 . S
C3552 C3548 1.350 . S
C3552 C3549 1.463 . S
C3552 N3556 1.427 . S
C3553 H3543 0.929 . S
C3553 C3551 1.433 . S
C3553 N3556 1.384 . S
C3554 H3545 0.929 . S
C3554 C3546 1.378 . S
C3554 C3549 1.350 . S
C3555 H3542 0.929 . S
C3555 C3547 1.433 . S
C3555 N3557 1.384 . S
N3556 C3552 1.427 . S
N3556 C3553 1.384 . S
N3557 C3549 1.427 . S
N3557 C3555 1.384 . S
H3558 C3564 0.930 . S
H3559 C3568 0.930 . S
H3560 C3573 0.929 . S
H3561 C3571 0.929 . S
H3562 C3566 0.929 . S
H3563 C3572 0.929 . S
C3564 H3558 0.930 . S
C3564 C3565 1.367 . S
C3564 C3572 1.378 . S
C3565 C3564 1.367 . S
C3565 C3573 1.433 . S
C3566 H3562 0.929 . S
C3566 C3568 1.378 . S
C3566 C3570 1.350 . S
C3567 C3570 1.463 . S
C3567 C3572 1.350 . S
C3567 N3575 1.427 . S
C3568 H3559 0.930 . S
C3568 C3566 1.378 . S
C3568 C3569 1.367 . S
C3569 C3568 1.367 . S
C3569 C3571 1.433 . S
C3570 C3566 1.350 . S
C3570 C3567 1.463 . S
C3570 N3574 1.427 . S
C3571 H3561 0.929 . S
C3571 C3569 1.433 . S
C3571 N3574 1.384 . S
C3572 H3563 0.929 . S
C3572 C3564 1.378 . S
C3572 C3567 1.350 . S
C3573 H3560 0.929 . S
C3573 C3565 1.433 . S
C3573 N3575 1.384 . S
N3574 C3570 1.427 . S
N3574 C3571 1.384 . S
N3575 C3567 1.427 . S
N3575 C3573 1.384 . S
H3576 C3582 0.930 . S
H3577 C3586 0.930 . S
H3578 C3591 0.929 . S
H3579 C3589 0.929 . S
H3580 C3584 0.929 . S
H3581 C3590 0.929 . S
C3582 H3576 0.930 . S
C3582 C3583 1.367 . S
C3582 C3590 1.378 . S
C3583 C3582 1.367 . S
C3583 C3591 1.433 . S
C3584 H3580 0.929 . S
C3584 C3586 1.378 . S
C3584 C3588 1.350 . S
C3585 C3588 1.463 1_554 S
C3585 C3590 1.350 . S
C3585 N3593 1.427 . S
C3586 H3577 0.930 . S
C3586 C3584 1.378 . S
C3586 C3587 1.367 . S
C3587 C3586 1.367 . S
C3587 C3589 1.433 . S
C3588 C3584 1.350 . S
C3588 C3585 1.463 1_556 S
C3588 N3592 1.427 . S
C3589 H3579 0.929 . S
C3589 C3587 1.433 . S
C3589 N3592 1.384 . S
C3590 H3581 0.929 . S
C3590 C3582 1.378 . S
C3590 C3585 1.350 . S
C3591 H3578 0.929 . S
C3591 C3583 1.433 . S
C3591 N3593 1.384 . S
N3592 C3588 1.427 . S
N3592 C3589 1.384 . S
N3593 C3585 1.427 . S
N3593 C3591 1.384 . S
H3594 C3600 0.930 . S
H3595 C3604 0.930 . S
H3596 C3609 0.929 . S
H3597 C3607 0.929 . S
H3598 C3602 0.929 . S
H3599 C3608 0.929 . S
C3600 H3594 0.930 . S
C3600 C3601 1.367 . S
C3600 C3608 1.378 . S
C3601 C3600 1.367 . S
C3601 C3609 1.433 . S
C3602 H3598 0.929 . S
C3602 C3604 1.378 . S
C3602 C3606 1.350 . S
C3603 C3606 1.463 1_556 S
C3603 C3608 1.350 . S
C3603 N3611 1.427 . S
C3604 H3595 0.930 . S
C3604 C3602 1.378 . S
C3604 C3605 1.367 . S
C3605 C3604 1.367 . S
C3605 C3607 1.433 . S
C3606 C3602 1.350 . S
C3606 C3603 1.463 1_554 S
C3606 N3610 1.427 . S
C3607 H3597 0.929 . S
C3607 C3605 1.433 . S
C3607 N3610 1.384 . S
C3608 H3599 0.929 . S
C3608 C3600 1.378 . S
C3608 C3603 1.350 . S
C3609 H3596 0.929 . S
C3609 C3601 1.433 . S
C3609 N3611 1.384 . S
N3610 C3606 1.427 . S
N3610 C3607 1.384 . S
N3611 C3603 1.427 . S
N3611 C3609 1.384 . S
H3612 C3618 0.930 . S
H3613 C3622 0.930 . S
H3614 C3627 0.929 . S
H3615 C3625 0.929 . S
H3616 C3620 0.929 . S
H3617 C3626 0.929 . S
C3618 H3612 0.930 . S
C3618 C3619 1.367 . S
C3618 C3626 1.378 . S
C3619 C3618 1.367 . S
C3619 C3627 1.433 . S
C3620 H3616 0.929 . S
C3620 C3622 1.378 . S
C3620 C3624 1.350 . S
C3621 C3624 1.463 1_554 S
C3621 C3626 1.350 . S
C3621 N3629 1.427 . S
C3622 H3613 0.930 . S
C3622 C3620 1.378 . S
C3622 C3623 1.367 . S
C3623 C3622 1.367 . S
C3623 C3625 1.433 . S
C3624 C3620 1.350 . S
C3624 C3621 1.463 1_556 S
C3624 N3628 1.427 . S
C3625 H3615 0.929 . S
C3625 C3623 1.433 . S
C3625 N3628 1.384 . S
C3626 H3617 0.929 . S
C3626 C3618 1.378 . S
C3626 C3621 1.350 . S
C3627 H3614 0.929 . S
C3627 C3619 1.433 . S
C3627 N3629 1.384 . S
N3628 C3624 1.427 . S
N3628 C3625 1.384 . S
N3629 C3621 1.427 . S
N3629 C3627 1.384 . S
H3630 C3636 0.930 . S
H3631 C3640 0.930 . S
H3632 C3645 0.929 . S
H3633 C3643 0.929 . S
H3634 C3638 0.929 . S
H3635 C3644 0.929 . S
C3636 H3630 0.930 . S
C3636 C3637 1.367 . S
C3636 C3644 1.378 . S
C3637 C3636 1.367 . S
C3637 C3645 1.433 . S
C3638 H3634 0.929 . S
C3638 C3640 1.378 . S
C3638 C3642 1.350 . S
C3639 C3642 1.526 . S
C3639 C3644 1.321 1_554 S
C3639 N3647 1.398 1_554 S
C3640 H3631 0.930 . S
C3640 C3638 1.378 . S
C3640 C3641 1.367 . S
C3641 C3640 1.367 . S
C3641 C3643 1.433 . S
C3642 C3638 1.350 . S
C3642 C3639 1.526 . S
C3642 N3646 1.427 . S
C3643 H3633 0.929 . S
C3643 C3641 1.433 . S
C3643 N3646 1.384 . S
C3644 H3635 0.929 . S
C3644 C3636 1.378 . S
C3644 C3639 1.321 1_556 S
C3645 H3632 0.929 . S
C3645 C3637 1.433 . S
C3645 N3647 1.384 . S
N3646 C3642 1.427 . S
N3646 C3643 1.384 . S
N3647 C3639 1.398 1_556 S
N3647 C3645 1.384 . S
H3648 C3654 0.930 . S
H3649 C3658 0.930 . S
H3650 C3663 0.929 . S
H3651 C3661 0.929 . S
H3652 C3656 0.929 . S
H3653 C3662 0.929 . S
C3654 H3648 0.930 . S
C3654 C3655 1.367 . S
C3654 C3662 1.378 . S
C3655 C3654 1.367 . S
C3655 C3663 1.433 . S
C3656 H3652 0.929 . S
C3656 C3658 1.378 . S
C3656 C3660 1.350 1_455 S
C3657 C3660 1.463 . S
C3657 C3662 1.350 . S
C3657 N3665 1.427 . S
C3658 H3649 0.930 . S
C3658 C3656 1.378 . S
C3658 C3659 1.367 . S
C3659 C3658 1.367 . S
C3659 C3661 1.433 . S
C3660 C3656 1.350 1_655 S
C3660 C3657 1.463 . S
C3660 N3664 1.427 1_655 S
C3661 H3651 0.929 . S
C3661 C3659 1.433 . S
C3661 N3664 1.384 . S
C3662 H3653 0.929 . S
C3662 C3654 1.378 . S
C3662 C3657 1.350 . S
C3663 H3650 0.929 . S
C3663 C3655 1.433 . S
C3663 N3665 1.384 . S
N3664 C3660 1.427 1_455 S
N3664 C3661 1.384 . S
N3665 C3657 1.427 . S
N3665 C3663 1.384 . S
H3666 C3672 0.930 . S
H3667 C3676 0.930 . S
H3668 C3681 0.929 . S
H3669 C3679 0.929 . S
H3670 C3674 0.929 . S
H3671 C3680 0.929 . S
C3672 H3666 0.930 . S
C3672 C3673 1.367 . S
C3672 C3680 1.378 . S
C3673 C3672 1.367 . S
C3673 C3681 1.433 . S
C3674 H3670 0.929 . S
C3674 C3676 1.378 . S
C3674 C3678 1.350 . S
C3675 C3678 1.463 1_545 S
C3675 C3680 1.350 . S
C3675 N3683 1.427 . S
C3676 H3667 0.930 . S
C3676 C3674 1.378 . S
C3676 C3677 1.367 . S
C3677 C3676 1.367 . S
C3677 C3679 1.433 . S
C3678 C3674 1.350 . S
C3678 C3675 1.463 1_565 S
C3678 N3682 1.427 . S
C3679 H3669 0.929 . S
C3679 C3677 1.433 . S
C3679 N3682 1.384 . S
C3680 H3671 0.929 . S
C3680 C3672 1.378 . S
C3680 C3675 1.350 . S
C3681 H3668 0.929 . S
C3681 C3673 1.433 . S
C3681 N3683 1.384 . S
N3682 C3678 1.427 . S
N3682 C3679 1.384 . S
N3683 C3675 1.427 . S
N3683 C3681 1.384 . S
H3684 C3690 0.930 . S
H3685 C3694 0.930 . S
H3686 C3699 0.929 . S
H3687 C3697 0.929 . S
H3688 C3692 0.929 . S
H3689 C3698 0.929 . S
C3690 H3684 0.930 . S
C3690 C3691 1.367 . S
C3690 C3698 1.378 . S
C3691 C3690 1.367 . S
C3691 C3699 1.433 . S
C3692 H3688 0.929 . S
C3692 C3694 1.378 . S
C3692 C3696 1.350 . S
C3693 C3696 1.463 1_455 S
C3693 C3698 1.350 . S
C3693 N3701 1.427 . S
C3694 H3685 0.930 . S
C3694 C3692 1.378 . S
C3694 C3695 1.367 . S
C3695 C3694 1.367 . S
C3695 C3697 1.433 . S
C3696 C3692 1.350 . S
C3696 C3693 1.463 1_655 S
C3696 N3700 1.427 . S
C3697 H3687 0.929 . S
C3697 C3695 1.433 . S
C3697 N3700 1.384 . S
C3698 H3689 0.929 . S
C3698 C3690 1.378 . S
C3698 C3693 1.350 . S
C3699 H3686 0.929 . S
C3699 C3691 1.433 . S
C3699 N3701 1.384 . S
N3700 C3696 1.427 . S
N3700 C3697 1.384 . S
N3701 C3693 1.427 . S
N3701 C3699 1.384 . S
H3702 C3708 0.930 . S
H3703 C3712 0.930 . S
H3704 C3717 0.929 . S
H3705 C3715 0.929 . S
H3706 C3710 0.929 . S
H3707 C3716 0.929 . S
C3708 H3702 0.930 . S
C3708 C3709 1.367 . S
C3708 C3716 1.378 . S
C3709 C3708 1.367 . S
C3709 C3717 1.433 . S
C3710 H3706 0.929 . S
C3710 C3712 1.378 . S
C3710 C3714 1.350 . S
C3711 C3714 1.463 1_565 S
C3711 C3716 1.350 . S
C3711 N3719 1.427 . S
C3712 H3703 0.930 . S
C3712 C3710 1.378 . S
C3712 C3713 1.367 . S
C3713 C3712 1.367 . S
C3713 C3715 1.433 . S
C3714 C3710 1.350 . S
C3714 C3711 1.463 1_545 S
C3714 N3718 1.427 . S
C3715 H3705 0.929 . S
C3715 C3713 1.433 . S
C3715 N3718 1.384 . S
C3716 H3707 0.929 . S
C3716 C3708 1.378 . S
C3716 C3711 1.350 . S
C3717 H3704 0.929 . S
C3717 C3709 1.433 . S
C3717 N3719 1.384 . S
N3718 C3714 1.427 . S
N3718 C3715 1.384 . S
N3719 C3711 1.427 . S
N3719 C3717 1.384 . S
H3720 C3726 0.930 . S
H3721 C3730 0.930 . S
H3722 C3735 0.929 . S
H3723 C3733 0.929 . S
H3724 C3728 0.949 . S
H3725 C3734 0.929 . S
C3726 H3720 0.930 . S
C3726 C3727 1.367 . S
C3726 C3734 1.378 . S
C3727 C3726 1.367 . S
C3727 C3735 1.433 . S
C3728 H3724 0.949 . S
C3728 C3730 1.378 . S
C3728 C3732 1.362 . S
C3729 C3732 1.438 1_455 S
C3729 C3734 1.350 . S
C3729 N3737 1.427 . S
C3730 H3721 0.930 . S
C3730 C3728 1.378 . S
C3730 C3731 1.367 . S
C3731 C3730 1.367 . S
C3731 C3733 1.433 . S
C3732 C3728 1.362 . S
C3732 C3729 1.438 1_655 S
C3732 N3736 1.439 . S
C3733 H3723 0.929 . S
C3733 C3731 1.433 . S
C3733 N3736 1.384 . S
C3734 H3725 0.929 . S
C3734 C3726 1.378 . S
C3734 C3729 1.350 . S
C3735 H3722 0.929 . S
C3735 C3727 1.433 . S
C3735 N3737 1.384 . S
N3736 C3732 1.439 . S
N3736 C3733 1.384 . S
N3737 C3729 1.427 . S
N3737 C3735 1.384 . S
H3738 C3744 0.930 . S
H3739 C3748 0.930 . S
H3740 C3753 0.929 . S
H3741 C3751 0.929 . S
H3742 C3746 0.929 . S
H3743 C3752 0.929 . S
C3744 H3738 0.930 . S
C3744 C3745 1.367 . S
C3744 C3752 1.378 . S
C3745 C3744 1.367 . S
C3745 C3753 1.433 . S
C3746 H3742 0.929 . S
C3746 C3748 1.378 . S
C3746 C3750 1.350 . S
C3747 C3750 1.463 1_545 S
C3747 C3752 1.350 . S
C3747 N3755 1.427 . S
C3748 H3739 0.930 . S
C3748 C3746 1.378 . S
C3748 C3749 1.367 . S
C3749 C3748 1.367 . S
C3749 C3751 1.433 . S
C3750 C3746 1.350 . S
C3750 C3747 1.463 1_565 S
C3750 N3754 1.427 . S
C3751 H3741 0.929 . S
C3751 C3749 1.433 . S
C3751 N3754 1.384 . S
C3752 H3743 0.929 . S
C3752 C3744 1.378 . S
C3752 C3747 1.350 . S
C3753 H3740 0.929 . S
C3753 C3745 1.433 . S
C3753 N3755 1.384 . S
N3754 C3750 1.427 . S
N3754 C3751 1.384 . S
N3755 C3747 1.427 . S
N3755 C3753 1.384 . S
H3756 C3762 0.930 . S
H3757 C3766 0.930 . S
H3758 C3771 0.929 . S
H3759 C3769 0.929 . S
H3760 C3764 0.929 . S
H3761 C3770 0.929 . S
C3762 H3756 0.930 . S
C3762 C3763 1.367 . S
C3762 C3770 1.378 . S
C3763 C3762 1.367 . S
C3763 C3771 1.433 . S
C3764 H3760 0.929 . S
C3764 C3766 1.378 . S
C3764 C3768 1.350 . S
C3765 C3768 1.463 1_655 S
C3765 C3770 1.350 . S
C3765 N3773 1.427 . S
C3766 H3757 0.930 . S
C3766 C3764 1.378 . S
C3766 C3767 1.367 . S
C3767 C3766 1.367 . S
C3767 C3769 1.433 . S
C3768 C3764 1.350 . S
C3768 C3765 1.463 1_455 S
C3768 N3772 1.427 . S
C3769 H3759 0.929 . S
C3769 C3767 1.433 . S
C3769 N3772 1.384 . S
C3770 H3761 0.929 . S
C3770 C3762 1.378 . S
C3770 C3765 1.350 . S
C3771 H3758 0.929 . S
C3771 C3763 1.433 . S
C3771 N3773 1.384 . S
N3772 C3768 1.427 . S
N3772 C3769 1.384 . S
N3773 C3765 1.427 . S
N3773 C3771 1.384 . S
H3774 C3780 0.930 . S
H3775 C3784 0.930 . S
H3776 C3789 0.929 . S
H3777 C3787 0.929 . S
H3778 C3782 0.929 . S
H3779 C3788 0.929 . S
C3780 H3774 0.930 . S
C3780 C3781 1.367 . S
C3780 C3788 1.378 . S
C3781 C3780 1.367 . S
C3781 C3789 1.433 . S
C3782 H3778 0.929 . S
C3782 C3784 1.378 . S
C3782 C3786 1.350 . S
C3783 C3786 1.424 1_565 S
C3783 C3788 1.368 . S
C3783 N3791 1.446 . S
C3784 H3775 0.930 . S
C3784 C3782 1.378 . S
C3784 C3785 1.367 . S
C3785 C3784 1.367 . S
C3785 C3787 1.433 . S
C3786 C3782 1.350 . S
C3786 C3783 1.424 1_545 S
C3786 N3790 1.427 . S
C3787 H3777 0.929 . S
C3787 C3785 1.433 . S
C3787 N3790 1.384 . S
C3788 H3779 0.929 . S
C3788 C3780 1.378 . S
C3788 C3783 1.368 . S
C3789 H3776 0.929 . S
C3789 C3781 1.433 . S
C3789 N3791 1.384 . S
N3790 C3786 1.427 . S
N3790 C3787 1.384 . S
N3791 C3783 1.446 . S
N3791 C3789 1.384 . S
C1639 C1505 0.594 . S
C1643 C20 0.541 . S
C1657 C1396 1.689 . S
C1661 C43 1.578 . S
C1675 C1448 1.948 . S
C1679 C70 1.951 . S
C1693 C107 1.809 . S
C1697 C1464 1.792 . S
C1711 C156 1.113 . S
C1715 C1603 1.115 . S
C1729 C175 1.485 . S
C1733 C1550 1.474 . S
C1747 C206 2.325 . S
C1751 C1566 2.326 . S
C1765 C1380 1.063 . S
C1769 C247 1.024 . S
C1783 C1335 0.790 . S
C1787 C281 0.805 . S
C1801 C1229 1.194 . S
C1805 C311 1.194 . S
C1819 C342 2.161 . S
C1823 C1267 2.042 . S
C1837 C1312 1.935 . S
C1841 C379 1.962 . S
C1855 C413 1.195 . S
C1859 C1127 1.195 . S
C1873 C451 2.039 . S
C1877 C1158 2.167 . S
C1891 C1195 1.965 . S
C1895 C496 1.937 . S
C1909 C1097 0.813 . S
C1913 C519 0.797 . S
C1927 C564 1.051 . S
C1931 C1063 1.004 . S
C1945 C859 1.576 . S
C1949 C580 1.692 . S
C1963 C886 1.951 . S
C1967 C632 1.949 . S
C1981 C923 1.808 . S
C1985 C648 1.790 . S
C1999 C689 0.610 . S
C2003 C836 0.547 . S
C2017 C734 1.474 . S
C2021 C991 1.486 . S
C2035 C1022 2.325 . S
C2039 C750 2.327 . S
C2053 C787 1.116 . S
C2057 C972 1.112 . S
C2071 C1108 1.467 . S
C2075 C258 1.477 . S
C2089 C1124 1.867 . S
C2093 C141 1.884 . S
C2107 C172 0.952 . S
C2111 C1165 0.932 . S
C2125 C1192 1.570 . S
C2129 C213 1.492 . S
C2143 C1226 1.972 . S
C2147 C54 1.951 . S
C2161 C1278 1.205 . S
C2165 C77 1.170 . S
C2179 C1297 1.491 . S
C2183 C104 1.495 . S
C2197 C5 1.345 . S
C2201 C1346 1.314 . S
C2215 C700 1.767 . S
C2219 C1365 1.819 . S
C2233 C587 1.916 . S
C2237 C1600 2.028 . S
C2251 C1535 1.350 . S
C2255 C617 1.348 . S
C2269 C1573 0.866 . S
C2273 C655 0.895 . S
C2287 C784 2.021 . S
C2291 C1403 1.908 . S
C2305 C719 1.349 . S
C2309 C1433 1.351 . S
C2323 C1471 0.896 . S
C2327 C757 0.867 . S
C2341 C1516 1.768 . S
C2345 C549 1.820 . S
C2359 C821 1.342 . S
C2363 C530 1.315 . S
C2377 C308 1.870 . S
C2381 C957 1.882 . S
C2395 C349 0.948 . S
C2399 C988 0.956 . S
C2413 C376 1.565 . S
C2417 C1029 1.505 . S
C2431 C1074 1.468 . S
C2435 C292 1.468 . S
C2449 C893 1.177 . S
C2453 C462 1.212 . S
C2467 C481 1.495 . S
C2471 C920 1.489 . S
C2485 C870 1.954 . S
C2489 C410 1.974 . S
C2503 C2 1.105 . S
C2507 C122 1.123 . S
C2521 C39 1.429 . S
C2525 C9 1.334 . S
C2539 C36 1.928 . S
C2543 C88 1.944 . S
C2557 C73 1.370 . S
C2561 C111 1.300 . S
C2575 C138 1.203 . S
C2579 C190 1.202 . S
C2593 C209 1.384 . S
C2597 C179 1.331 . S
C2611 C240 1.851 . S
C2615 C224 1.850 . S
C2629 C243 1.408 . S
C2633 C145 1.325 . S
C2647 C277 0.891 . S
C2651 C621 0.882 . S
C2665 C315 0.910 . S
C2669 C651 0.961 . S
C2683 C682 2.257 . S
C2687 C360 2.244 . S
C2701 C383 1.636 . S
C2705 C583 1.721 . S
C2719 C417 0.889 . S
C2723 C753 0.902 . S
C2737 C447 1.724 . S
C2741 C553 1.614 . S
C2755 C478 2.212 . S
C2759 C802 2.224 . S
C2773 C723 0.922 . S
C2777 C515 0.972 . S
C2791 C326 1.450 . S
C2795 C546 1.434 . S
C2809 C598 1.477 . S
C2813 C512 1.466 . S
C2827 C614 1.961 . S
C2831 C428 1.968 . S
C2845 C444 1.536 . S
C2849 C666 1.567 . S
C2863 C685 0.784 . S
C2867 C485 0.769 . S
C2881 C716 1.548 . S
C2885 C394 1.568 . S
C2899 C768 2.168 . S
C2903 C274 2.150 . S
C2917 C345 0.861 . S
C2921 C791 0.845 . S
C2935 C818 1.112 . S
C2939 C938 1.120 . S
C2953 C855 1.424 . S
C2957 C825 1.325 . S
C2971 C852 1.931 . S
C2975 C904 1.939 . S
C2989 C889 1.373 . S
C2993 C927 1.304 . S
C3007 C954 1.203 . S
C3011 C1006 1.201 . S
C3025 C995 1.333 . S
C3029 C1025 1.385 . S
C3043 C1040 1.844 . S
C3047 C1056 1.855 . S
C3061 C961 1.340 . S
C3065 C1059 1.414 . S
C3079 C1437 0.866 . S
C3083 C1093 0.893 . S
C3097 C1467 0.966 . S
C3101 C1131 0.921 . S
C3115 C1176 2.248 . S
C3119 C1498 2.255 . S
C3133 C1399 1.726 . S
C3137 C1199 1.649 . S
C3151 C1233 0.884 . S
C3155 C1569 0.902 . S
C3169 C1369 1.626 . S
C3173 C1263 1.730 . S
C3187 C1618 2.221 . S
C3191 C1294 2.215 . S
C3205 C1331 0.977 . S
C3209 C1539 0.944 . S
C3223 C1142 1.453 . S
C3227 C1362 1.430 . S
C3241 C1414 1.477 . S
C3245 C1328 1.467 . S
C3259 C1430 1.964 . S
C3263 C1244 1.965 . S
C3277 C1482 1.571 . S
C3281 C1260 1.536 . S
C3295 C1501 0.785 . S
C3299 C1301 0.767 . S
C3313 C1532 1.550 . S
C3317 C1210 1.566 . S
C3331 C1090 2.150 . S
C3335 C1584 2.168 . S
C3349 C1161 0.865 . S
C3353 C1607 0.860 . S
C3367 C33 1.510 . S
C3371 C203 1.505 . S
C3385 C237 1.951 . S
C3389 C67 1.953 . S
C3403 C271 1.881 . S
C3407 C101 1.878 . S
C3421 C169 1.584 . S
C3425 C135 1.576 . S
C3439 C815 1.568 . S
C3443 C305 1.574 . S
C3457 C339 1.310 . S
C3461 C747 1.306 . S
C3475 C781 1.600 . S
C3479 C373 1.600 . S
C3493 C407 1.484 . S
C3497 C577 1.480 . S
C3511 C713 1.588 . S
C3515 C441 1.585 . S
C3529 C475 1.681 . S
C3533 C611 1.680 . S
C3547 C645 1.631 . S
C3551 C509 1.626 . S
C3565 C679 1.499 . S
C3569 C543 1.495 . S
C3583 C1019 1.510 . S
C3587 C849 1.507 . S
C3601 C883 1.953 . S
C3605 C1053 1.951 . S
C3619 C1087 1.879 . S
C3623 C917 1.878 . S
C3637 C951 1.580 . S
C3641 C985 1.583 . S
C3655 C1121 1.573 . S
C3659 C1631 1.566 . S
C3673 C1563 1.310 . S
C3677 C1155 1.305 . S
C3691 C1189 1.600 . S
C3695 C1597 1.599 . S
C3709 C1393 1.483 . S
C3713 C1223 1.479 . S
C3727 C1529 1.585 . S
C3731 C1257 1.581 . S
C3745 C1427 1.680 . S
C3749 C1291 1.681 . S
C3763 C1461 1.628 . S
C3767 C1325 1.624 . S
C3781 C1495 1.497 . S
C3785 C1359 1.499 . S
