# Generated by pormake.
# Topology gme, (4)-cn, num edge types: 1
# Building blocks:
#     Node 0, Type 0, BuildingBlock: UXUYUI_clean_sbu_0, # of connection points: 4
#     Node 1, Type 0, BuildingBlock: UXUYUI_clean_sbu_0, # of connection points: 4
#     Node 2, Type 0, BuildingBlock: UXUYUI_clean_sbu_0, # of connection points: 4
#     Node 3, Type 0, BuildingBlock: UXUYUI_clean_sbu_0, # of connection points: 4
#     Node 4, Type 0, BuildingBlock: UXUYUI_clean_sbu_0, # of connection points: 4
#     Node 5, Type 0, BuildingBlock: UXUYUI_clean_sbu_0, # of connection points: 4
#     Node 6, Type 0, BuildingBlock: UXUYUI_clean_sbu_0, # of connection points: 4
#     Node 7, Type 0, BuildingBlock: UXUYUI_clean_sbu_0, # of connection points: 4
#     Node 8, Type 0, BuildingBlock: UXUYUI_clean_sbu_0, # of connection points: 4
#     Node 9, Type 0, BuildingBlock: UXUYUI_clean_sbu_0, # of connection points: 4
#     Node 10, Type 0, BuildingBlock: UXUYUI_clean_sbu_0, # of connection points: 4
#     Node 11, Type 0, BuildingBlock: UXUYUI_clean_sbu_0, # of connection points: 4
#     Node 12, Type 0, BuildingBlock: UXUYUI_clean_sbu_0, # of connection points: 4
#     Node 13, Type 0, BuildingBlock: UXUYUI_clean_sbu_0, # of connection points: 4
#     Node 14, Type 0, BuildingBlock: UXUYUI_clean_sbu_0, # of connection points: 4
#     Node 15, Type 0, BuildingBlock: UXUYUI_clean_sbu_0, # of connection points: 4
#     Node 16, Type 0, BuildingBlock: UXUYUI_clean_sbu_0, # of connection points: 4
#     Node 17, Type 0, BuildingBlock: UXUYUI_clean_sbu_0, # of connection points: 4
#     Node 18, Type 0, BuildingBlock: UXUYUI_clean_sbu_0, # of connection points: 4
#     Node 19, Type 0, BuildingBlock: UXUYUI_clean_sbu_0, # of connection points: 4
#     Node 20, Type 0, BuildingBlock: UXUYUI_clean_sbu_0, # of connection points: 4
#     Node 21, Type 0, BuildingBlock: UXUYUI_clean_sbu_0, # of connection points: 4
#     Node 22, Type 0, BuildingBlock: UXUYUI_clean_sbu_0, # of connection points: 4
#     Node 23, Type 0, BuildingBlock: UXUYUI_clean_sbu_0, # of connection points: 4
#     Edge 24, Type (0, 0), BuildingBlock: CIFDUS_clean_linker_0, # of connection points: 2
#     Edge 25, Type (0, 0), BuildingBlock: CIFDUS_clean_linker_0, # of connection points: 2
#     Edge 26, Type (0, 0), BuildingBlock: CIFDUS_clean_linker_0, # of connection points: 2
#     Edge 27, Type (0, 0), BuildingBlock: CIFDUS_clean_linker_0, # of connection points: 2
#     Edge 28, Type (0, 0), BuildingBlock: CIFDUS_clean_linker_0, # of connection points: 2
#     Edge 29, Type (0, 0), BuildingBlock: CIFDUS_clean_linker_0, # of connection points: 2
#     Edge 30, Type (0, 0), BuildingBlock: CIFDUS_clean_linker_0, # of connection points: 2
#     Edge 31, Type (0, 0), BuildingBlock: CIFDUS_clean_linker_0, # of connection points: 2
#     Edge 32, Type (0, 0), BuildingBlock: CIFDUS_clean_linker_0, # of connection points: 2
#     Edge 33, Type (0, 0), BuildingBlock: CIFDUS_clean_linker_0, # of connection points: 2
#     Edge 34, Type (0, 0), BuildingBlock: CIFDUS_clean_linker_0, # of connection points: 2
#     Edge 35, Type (0, 0), BuildingBlock: CIFDUS_clean_linker_0, # of connection points: 2
#     Edge 36, Type (0, 0), BuildingBlock: CIFDUS_clean_linker_0, # of connection points: 2
#     Edge 37, Type (0, 0), BuildingBlock: CIFDUS_clean_linker_0, # of connection points: 2
#     Edge 38, Type (0, 0), BuildingBlock: CIFDUS_clean_linker_0, # of connection points: 2
#     Edge 39, Type (0, 0), BuildingBlock: CIFDUS_clean_linker_0, # of connection points: 2
#     Edge 40, Type (0, 0), BuildingBlock: CIFDUS_clean_linker_0, # of connection points: 2
#     Edge 41, Type (0, 0), BuildingBlock: CIFDUS_clean_linker_0, # of connection points: 2
#     Edge 42, Type (0, 0), BuildingBlock: CIFDUS_clean_linker_0, # of connection points: 2
#     Edge 43, Type (0, 0), BuildingBlock: CIFDUS_clean_linker_0, # of connection points: 2
#     Edge 44, Type (0, 0), BuildingBlock: CIFDUS_clean_linker_0, # of connection points: 2
#     Edge 45, Type (0, 0), BuildingBlock: CIFDUS_clean_linker_0, # of connection points: 2
#     Edge 46, Type (0, 0), BuildingBlock: CIFDUS_clean_linker_0, # of connection points: 2
#     Edge 47, Type (0, 0), BuildingBlock: CIFDUS_clean_linker_0, # of connection points: 2
#     Edge 48, Type (0, 0), BuildingBlock: CIFDUS_clean_linker_0, # of connection points: 2
#     Edge 49, Type (0, 0), BuildingBlock: CIFDUS_clean_linker_0, # of connection points: 2
#     Edge 50, Type (0, 0), BuildingBlock: CIFDUS_clean_linker_0, # of connection points: 2
#     Edge 51, Type (0, 0), BuildingBlock: CIFDUS_clean_linker_0, # of connection points: 2
#     Edge 52, Type (0, 0), BuildingBlock: CIFDUS_clean_linker_0, # of connection points: 2
#     Edge 53, Type (0, 0), BuildingBlock: CIFDUS_clean_linker_0, # of connection points: 2
#     Edge 54, Type (0, 0), BuildingBlock: CIFDUS_clean_linker_0, # of connection points: 2
#     Edge 55, Type (0, 0), BuildingBlock: CIFDUS_clean_linker_0, # of connection points: 2
#     Edge 56, Type (0, 0), BuildingBlock: CIFDUS_clean_linker_0, # of connection points: 2
#     Edge 57, Type (0, 0), BuildingBlock: CIFDUS_clean_linker_0, # of connection points: 2
#     Edge 58, Type (0, 0), BuildingBlock: CIFDUS_clean_linker_0, # of connection points: 2
#     Edge 59, Type (0, 0), BuildingBlock: CIFDUS_clean_linker_0, # of connection points: 2
#     Edge 60, Type (0, 0), BuildingBlock: CIFDUS_clean_linker_0, # of connection points: 2
#     Edge 61, Type (0, 0), BuildingBlock: CIFDUS_clean_linker_0, # of connection points: 2
#     Edge 62, Type (0, 0), BuildingBlock: CIFDUS_clean_linker_0, # of connection points: 2
#     Edge 63, Type (0, 0), BuildingBlock: CIFDUS_clean_linker_0, # of connection points: 2
#     Edge 64, Type (0, 0), BuildingBlock: CIFDUS_clean_linker_0, # of connection points: 2
#     Edge 65, Type (0, 0), BuildingBlock: CIFDUS_clean_linker_0, # of connection points: 2
#     Edge 66, Type (0, 0), BuildingBlock: CIFDUS_clean_linker_0, # of connection points: 2
#     Edge 67, Type (0, 0), BuildingBlock: CIFDUS_clean_linker_0, # of connection points: 2
#     Edge 68, Type (0, 0), BuildingBlock: CIFDUS_clean_linker_0, # of connection points: 2
#     Edge 69, Type (0, 0), BuildingBlock: CIFDUS_clean_linker_0, # of connection points: 2
#     Edge 70, Type (0, 0), BuildingBlock: CIFDUS_clean_linker_0, # of connection points: 2
#     Edge 71, Type (0, 0), BuildingBlock: CIFDUS_clean_linker_0, # of connection points: 2
# Relax obj value: 0.245
# Max RMSD: 0.175
# Mean RMSD: 0.174
data_MOF--net-gme--node1-UXUYUI_clean_sbu_0--edge1-CIFDUS_clean_linker_0
_symmetry_space_group_name_H-M    P1
_symmetry_Int_Tables_number       1
_symmetry_cell_setting            triclinic
loop_
_symmetry_equiv_pos_as_xyz
'x, y, z'
_cell_length_a     87.523994
_cell_length_b     87.56205
_cell_length_c     62.387039
_cell_angle_alpha  90.016455
_cell_angle_beta   89.978324
_cell_angle_gamma 120.02089
loop_
_atom_site_label
_atom_site_type_symbol
_atom_site_fract_x
_atom_site_fract_y
_atom_site_fract_z
_atom_type_partial_charge
Li0 Li 0.4339 0.11803 0.07697 0.0
Li1 Li 0.43004 0.10172 0.11101 0.0
Li2 Li 0.4502 0.10249 0.08111 0.0
Li3 Li 0.41843 0.08663 0.07727 0.0
C4 C 0.4615 0.13952 0.10432 0.0
N5 N 0.48043 0.17492 0.11481 0.0
C6 C 0.45494 0.1465 0.11953 0.0
C7 C 0.4779 0.15049 0.09482 0.0
C8 C 0.46464 0.16444 0.1245 0.0
C9 C 0.48722 0.16837 0.10024 0.0
C10 C 0.39423 0.09229 0.09427 0.0
C11 C 0.36817 0.068 0.1098 0.0
N12 N 0.35799 0.07139 0.09636 0.0
C13 C 0.38355 0.09553 0.08058 0.0
C14 C 0.38653 0.07843 0.109 0.0
C15 C 0.36523 0.08481 0.0819 0.0
C16 C 0.43829 0.1457 0.04747 0.0
N17 N 0.43353 0.13828 0.06727 0.0
C18 C 0.42657 0.16009 0.07849 0.0
C19 C 0.42738 0.14491 0.08247 0.0
C20 C 0.43177 0.16837 0.05842 0.0
C21 C 0.43759 0.16094 0.0427 0.0
H22 H 0.44251 0.13986 0.03533 0.0
H23 H 0.42321 0.13843 0.09784 0.0
C24 C 0.43488 0.09569 0.15391 0.0
N25 N 0.42671 0.10166 0.14067 0.0
C26 C 0.43254 0.09562 0.17602 0.0
C27 C 0.41359 0.10803 0.1703 0.0
C28 C 0.41618 0.10771 0.14831 0.0
C29 C 0.42182 0.10191 0.18441 0.0
H30 H 0.44325 0.09106 0.14727 0.0
H31 H 0.4099 0.11239 0.13728 0.0
C32 C 0.44619 0.10882 0.03805 0.0
N33 N 0.46707 0.12164 0.00189 0.0
C34 C 0.44072 0.09951 0.01875 0.0
C35 C 0.46234 0.12454 0.03901 0.0
C36 C 0.45143 0.10624 0.00062 0.0
C37 C 0.4727 0.13084 0.02055 0.0
C38 C 0.42867 0.06522 0.09972 0.0
C39 C 0.43266 0.05766 0.08246 0.0
C40 C 0.42063 0.05516 0.11802 0.0
C41 C 0.42853 0.04008 0.08379 0.0
C42 C 0.41671 0.03762 0.11872 0.0
N43 N 0.42072 0.03051 0.10174 0.0
C44 C 0.48452 0.11132 0.09122 0.0
C45 C 0.47427 0.09518 0.05879 0.0
C46 C 0.50072 0.11207 0.08903 0.0
N47 N 0.47174 0.10298 0.07621 0.0
C48 C 0.49028 0.09554 0.056 0.0
C49 C 0.50374 0.10405 0.07129 0.0
H50 H 0.48203 0.11725 0.105 0.0
H51 H 0.46384 0.08861 0.04712 0.0
C52 C 0.39466 0.07062 0.04461 0.0
N53 N 0.39904 0.06705 0.06409 0.0
C54 C 0.38191 0.05707 0.03211 0.0
C55 C 0.37754 0.03654 0.06059 0.0
C56 C 0.39028 0.05057 0.07265 0.0
C57 C 0.37369 0.03965 0.03972 0.0
H58 H 0.40151 0.08397 0.03853 0.0
H59 H 0.39351 0.04816 0.08851 0.0
O60 O 0.45215 0.12195 0.09924 0.0
O61 O 0.41217 0.10249 0.09307 0.0
O62 O 0.43606 0.10214 0.05606 0.0
O63 O 0.4327 0.08243 0.09887 0.0
H64 H 0.44241 0.13819 0.12727 0.0
H65 H 0.48351 0.14528 0.08354 0.0
H66 H 0.45961 0.17003 0.13608 0.0
H67 H 0.49988 0.17701 0.09292 0.0
H68 H 0.36202 0.05719 0.12106 0.0
H69 H 0.38936 0.10619 0.06905 0.0
H70 H 0.39466 0.07564 0.11953 0.0
H71 H 0.35677 0.08715 0.07143 0.0
H72 H 0.42223 0.16545 0.09121 0.0
H73 H 0.44144 0.16676 0.02691 0.0
H74 H 0.43927 0.091 0.18646 0.0
H75 H 0.40516 0.11287 0.17621 0.0
H76 H 0.42836 0.08717 0.0178 0.0
H77 H 0.46674 0.13182 0.05381 0.0
H78 H 0.44734 0.0992 0.98556 0.0
H79 H 0.48521 0.14303 0.02107 0.0
H80 H 0.43873 0.06525 0.06813 0.0
H81 H 0.41738 0.06081 0.13147 0.0
H82 H 0.43152 0.03403 0.07054 0.0
H83 H 0.41047 0.02965 0.13276 0.0
H84 H 0.51064 0.1185 0.10137 0.0
H85 H 0.49213 0.0893 0.04204 0.0
H86 H 0.37903 0.06009 0.0163 0.0
H87 H 0.37154 0.02332 0.06709 0.0
Li88 Li 0.3101 0.43386 0.57897 0.0
Li89 Li 0.32252 0.42631 0.60994 0.0
Li90 Li 0.34215 0.4499 0.58439 0.0
Li91 Li 0.3272 0.41918 0.57369 0.0
C92 C 0.32099 0.46136 0.61259 0.0
N93 N 0.31522 0.48667 0.63123 0.0
C94 C 0.31132 0.45764 0.63161 0.0
C95 C 0.32783 0.47799 0.60313 0.0
C96 C 0.30853 0.47061 0.64076 0.0
C97 C 0.32474 0.49059 0.61278 0.0
C98 C 0.29832 0.39274 0.59508 0.0
C99 C 0.30322 0.3706 0.61145 0.0
N100 N 0.28633 0.35813 0.60673 0.0
C101 C 0.28102 0.37971 0.59039 0.0
C102 C 0.30954 0.38817 0.60569 0.0
C103 C 0.2752 0.36228 0.59641 0.0
C104 C 0.28169 0.42461 0.55137 0.0
N105 N 0.29014 0.43469 0.56877 0.0
C106 C 0.26895 0.4441 0.57168 0.0
C107 C 0.28412 0.44438 0.57891 0.0
C108 C 0.25977 0.43363 0.55396 0.0
C109 C 0.26631 0.42381 0.54369 0.0
H110 H 0.28678 0.41698 0.54371 0.0
H111 H 0.2908 0.45206 0.59285 0.0
C112 C 0.33452 0.42826 0.65149 0.0
N113 N 0.31964 0.42062 0.6394 0.0
C114 C 0.33347 0.42613 0.67367 0.0
C115 C 0.30176 0.40793 0.67051 0.0
C116 C 0.30344 0.41044 0.64832 0.0
C117 C 0.3169 0.41611 0.6835 0.0
H118 H 0.34719 0.43638 0.64388 0.0
H119 H 0.29181 0.40471 0.63827 0.0
C120 C 0.33254 0.45144 0.5417 0.0
N121 N 0.34021 0.47596 0.5096 0.0
C122 C 0.34134 0.45105 0.52318 0.0
C123 C 0.32753 0.46421 0.54382 0.0
C124 C 0.34515 0.46359 0.50716 0.0
C125 C 0.33155 0.47651 0.52742 0.0
C126 C 0.36042 0.43093 0.59221 0.0
C127 C 0.36833 0.43682 0.57216 0.0
C128 C 0.36805 0.42492 0.60721 0.0
C129 C 0.38388 0.4367 0.56749 0.0
C130 C 0.3836 0.42499 0.60192 0.0
N131 N 0.39113 0.43083 0.58234 0.0
C132 C 0.36803 0.4812 0.60256 0.0
C133 C 0.37299 0.47916 0.5656 0.0
C134 C 0.38318 0.49778 0.60379 0.0
N135 N 0.36316 0.47234 0.58364 0.0
C136 C 0.38833 0.49567 0.56613 0.0
C137 C 0.39362 0.50522 0.58543 0.0
H138 H 0.36008 0.47538 0.61672 0.0
H139 H 0.36911 0.47174 0.55085 0.0
C140 C 0.32429 0.40266 0.53499 0.0
N141 N 0.32939 0.40308 0.55564 0.0
C142 C 0.32765 0.39316 0.51964 0.0
C143 C 0.34048 0.38381 0.54741 0.0
C144 C 0.33695 0.3936 0.56222 0.0
C145 C 0.33622 0.38392 0.52572 0.0
H146 H 0.31816 0.41024 0.53031 0.0
H147 H 0.34088 0.39419 0.57876 0.0
O148 O 0.32382 0.44879 0.60342 0.0
O149 O 0.30417 0.40983 0.58916 0.0
O150 O 0.32879 0.43925 0.55751 0.0
O151 O 0.34493 0.43041 0.59695 0.0
H152 H 0.30594 0.44485 0.63915 0.0
H153 H 0.33551 0.4812 0.58856 0.0
H154 H 0.30102 0.4679 0.65545 0.0
H155 H 0.32993 0.5035 0.60561 0.0
H156 H 0.31176 0.36689 0.61966 0.0
H157 H 0.2722 0.38304 0.58214 0.0
H158 H 0.32297 0.39804 0.60946 0.0
H159 H 0.26184 0.35205 0.59288 0.0
H160 H 0.26412 0.45156 0.58035 0.0
H161 H 0.25955 0.41556 0.53 0.0
H162 H 0.34548 0.43246 0.68306 0.0
H163 H 0.28874 0.40025 0.67748 0.0
H164 H 0.34535 0.44126 0.52131 0.0
H165 H 0.32056 0.4646 0.55791 0.0
H166 H 0.35204 0.46351 0.4928 0.0
H167 H 0.32776 0.48648 0.52886 0.0
H168 H 0.36237 0.44115 0.56022 0.0
H169 H 0.36195 0.42013 0.62271 0.0
H170 H 0.39013 0.44117 0.55202 0.0
H171 H 0.38964 0.42034 0.61336 0.0
H172 H 0.3866 0.50472 0.61896 0.0
H173 H 0.39614 0.50072 0.55169 0.0
H174 H 0.324 0.3934 0.50311 0.0
H175 H 0.34725 0.37697 0.55267 0.0
Li176 Li 0.89576 0.32976 0.10958 0.0
Li177 Li 0.87776 0.31414 0.07825 0.0
Li178 Li 0.90997 0.33388 0.07432 0.0
Li179 Li 0.89005 0.34613 0.07986 0.0
C180 C 0.90574 0.30399 0.09998 0.0
N181 N 0.92311 0.28791 0.11751 0.0
C182 C 0.89694 0.28568 0.10261 0.0
C183 C 0.92341 0.31409 0.10608 0.0
C184 C 0.90593 0.2778 0.11157 0.0
C185 C 0.93196 0.30572 0.11494 0.0
C186 C 0.85653 0.32071 0.10742 0.0
C187 C 0.82759 0.31766 0.1062 0.0
N188 N 0.82246 0.30611 0.12284 0.0
C189 C 0.85106 0.30903 0.12474 0.0
C190 C 0.84479 0.32527 0.09826 0.0
C191 C 0.83375 0.30169 0.13221 0.0
C192 C 0.90309 0.34419 0.1506 0.0
N193 N 0.89835 0.32911 0.13953 0.0
C194 C 0.89651 0.31371 0.17187 0.0
C195 C 0.89499 0.31399 0.14963 0.0
C196 C 0.9014 0.32911 0.18376 0.0
C197 C 0.9048 0.34452 0.17282 0.0
H198 H 0.90543 0.35594 0.14211 0.0
H199 H 0.89079 0.30206 0.1405 0.0
C200 C 0.85108 0.2863 0.0517 0.0
N201 N 0.85833 0.29171 0.07149 0.0
C202 C 0.83679 0.26926 0.04881 0.0
C203 C 0.83837 0.26356 0.08644 0.0
C204 C 0.85243 0.28067 0.08861 0.0
C205 C 0.8303 0.2577 0.06638 0.0
H206 H 0.85641 0.29506 0.03812 0.0
H207 H 0.85881 0.28517 0.10399 0.0
C208 C 0.92759 0.36647 0.10127 0.0
N209 N 0.95877 0.39578 0.11376 0.0
C210 C 0.93251 0.38301 0.09259 0.0
C211 C 0.93844 0.36486 0.11646 0.0
C212 C 0.94835 0.39767 0.09907 0.0
C213 C 0.95417 0.37983 0.12252 0.0
C214 C 0.88177 0.33292 0.03776 0.0
C215 C 0.89006 0.33802 0.0178 0.0
C216 C 0.86443 0.32938 0.04006 0.0
C217 C 0.8808 0.33943 0.0004 0.0
C218 C 0.85559 0.33093 0.02229 0.0
N219 N 0.8639 0.33589 0.00299 0.0
C220 C 0.931 0.32319 0.05186 0.0
C221 C 0.94505 0.35377 0.05966 0.0
C222 C 0.94626 0.32538 0.04185 0.0
N223 N 0.93073 0.33732 0.06053 0.0
C224 C 0.9606 0.35651 0.05014 0.0
C225 C 0.96132 0.34222 0.04108 0.0
H226 H 0.91935 0.31026 0.05272 0.0
H227 H 0.94441 0.36485 0.06611 0.0
C228 C 0.88193 0.37143 0.0928 0.0
N229 N 0.8866 0.36558 0.0752 0.0
C230 C 0.87994 0.38624 0.09149 0.0
C231 C 0.88731 0.38858 0.05382 0.0
C232 C 0.88935 0.3738 0.05591 0.0
C233 C 0.88273 0.39506 0.07183 0.0
H234 H 0.87999 0.3647 0.10795 0.0
H235 H 0.89344 0.36913 0.04227 0.0
O236 O 0.89705 0.31187 0.09134 0.0
O237 O 0.87353 0.32826 0.10012 0.0
O238 O 0.91211 0.352 0.09509 0.0
O239 O 0.89082 0.33189 0.05503 0.0
H240 H 0.8833 0.27763 0.09782 0.0
H241 H 0.93049 0.3282 0.10381 0.0
H242 H 0.89926 0.26366 0.11377 0.0
H243 H 0.94564 0.31339 0.11973 0.0
H244 H 0.81834 0.32103 0.0992 0.0
H245 H 0.86008 0.30564 0.13232 0.0
H246 H 0.84894 0.33474 0.08532 0.0
H247 H 0.8293 0.29253 0.1455 0.0
H248 H 0.89346 0.30147 0.17972 0.0
H249 H 0.90874 0.35671 0.18135 0.0
H250 H 0.83101 0.26509 0.03304 0.0
H251 H 0.83366 0.2551 0.10042 0.0
H252 H 0.92424 0.3845 0.08086 0.0
H253 H 0.93472 0.35226 0.12367 0.0
H254 H 0.95236 0.41054 0.09242 0.0
H255 H 0.9627 0.37877 0.13424 0.0
H256 H 0.90355 0.34092 0.01581 0.0
H257 H 0.85783 0.3253 0.05534 0.0
H258 H 0.88705 0.34338 0.98485 0.0
H259 H 0.84214 0.32817 0.02383 0.0
H260 H 0.94633 0.31409 0.03487 0.0
H261 H 0.97183 0.36977 0.04937 0.0
H262 H 0.87628 0.39077 0.10571 0.0
H263 H 0.8898 0.39517 0.03846 0.0
Li264 Li 0.56275 0.89413 0.61252 0.0
Li265 Li 0.56071 0.87688 0.57949 0.0
Li266 Li 0.57364 0.90818 0.57822 0.0
Li267 Li 0.54195 0.89036 0.58157 0.0
C268 C 0.5994 0.90382 0.59115 0.0
N269 N 0.63484 0.92367 0.5813 0.0
C270 C 0.60649 0.89857 0.57456 0.0
C271 C 0.61032 0.91911 0.6028 0.0
C272 C 0.62446 0.9088 0.56982 0.0
C273 C 0.62821 0.92898 0.59754 0.0
C274 C 0.53238 0.85537 0.60741 0.0
C275 C 0.50686 0.8263 0.60435 0.0
N276 N 0.51294 0.82076 0.62095 0.0
C277 C 0.53824 0.84946 0.62465 0.0
C278 C 0.51644 0.84377 0.59735 0.0
C279 C 0.52828 0.83188 0.63116 0.0
C280 C 0.54995 0.8911 0.65404 0.0
N281 N 0.56451 0.89453 0.64255 0.0
C282 C 0.58032 0.89628 0.67446 0.0
C283 C 0.57954 0.89712 0.65218 0.0
C284 C 0.56539 0.89249 0.68677 0.0
C285 C 0.55009 0.88998 0.67632 0.0
H286 H 0.53816 0.88895 0.6458 0.0
H287 H 0.59078 0.89949 0.64255 0.0
C288 C 0.5603 0.85061 0.551 0.0
N289 N 0.56242 0.85699 0.57133 0.0
C290 C 0.56117 0.83538 0.5469 0.0
C291 C 0.56746 0.83432 0.58444 0.0
C292 C 0.56646 0.84949 0.58777 0.0
C293 C 0.56457 0.82693 0.56384 0.0
H294 H 0.55795 0.85728 0.53797 0.0
H295 H 0.56879 0.85529 0.60357 0.0
C296 C 0.56286 0.9287 0.60193 0.0
N297 N 0.57213 0.96338 0.60913 0.0
C298 C 0.55784 0.93749 0.58736 0.0
C299 C 0.57243 0.93744 0.62026 0.0
C300 C 0.56271 0.95506 0.59126 0.0
C301 C 0.57704 0.95501 0.62357 0.0
C302 C 0.54684 0.88354 0.5395 0.0
C303 C 0.55032 0.89347 0.52073 0.0
C304 C 0.5326 0.86631 0.54013 0.0
C305 C 0.53956 0.88588 0.50281 0.0
C306 C 0.52215 0.85919 0.52189 0.0
N307 N 0.52581 0.86904 0.50376 0.0
C308 C 0.59592 0.92515 0.54418 0.0
C309 C 0.60048 0.94482 0.57275 0.0
C310 C 0.6082 0.93896 0.53154 0.0
N311 N 0.59191 0.92836 0.56411 0.0
C312 C 0.61278 0.95908 0.5606 0.0
C313 C 0.6164 0.95628 0.53947 0.0
H314 H 0.58932 0.91183 0.53797 0.0
H315 H 0.59765 0.94699 0.5889 0.0
C316 C 0.50785 0.88091 0.59289 0.0
N317 N 0.51942 0.88767 0.57632 0.0
C318 C 0.49111 0.87898 0.5912 0.0
C319 C 0.49835 0.8908 0.55524 0.0
C320 C 0.51509 0.89269 0.55773 0.0
C321 C 0.48622 0.88404 0.57222 0.0
H322 H 0.51176 0.8772 0.60756 0.0
H323 H 0.52467 0.89841 0.54498 0.0
O324 O 0.58178 0.89422 0.59566 0.0
O325 O 0.5419 0.87258 0.6009 0.0
O326 O 0.55794 0.91142 0.59868 0.0
O327 O 0.55702 0.89093 0.55732 0.0
H328 H 0.59818 0.88681 0.56532 0.0
H329 H 0.60497 0.92347 0.6155 0.0
H330 H 0.63012 0.90494 0.55697 0.0
H331 H 0.6368 0.94092 0.60631 0.0
H332 H 0.49454 0.81716 0.59665 0.0
H333 H 0.55042 0.85832 0.63282 0.0
H334 H 0.51142 0.84823 0.58441 0.0
H335 H 0.53274 0.8271 0.64436 0.0
H336 H 0.59228 0.89809 0.68194 0.0
H337 H 0.53837 0.88718 0.68529 0.0
H338 H 0.55923 0.83028 0.53071 0.0
H339 H 0.57003 0.8282 0.59799 0.0
H340 H 0.55029 0.93081 0.5732 0.0
H341 H 0.57632 0.93075 0.63173 0.0
H342 H 0.55896 0.96208 0.58012 0.0
H343 H 0.58451 0.96198 0.63763 0.0
H344 H 0.56115 0.90693 0.52005 0.0
H345 H 0.52978 0.85848 0.55449 0.0
H346 H 0.5421 0.89341 0.48818 0.0
H347 H 0.51112 0.84583 0.52214 0.0
H348 H 0.61091 0.93616 0.51551 0.0
H349 H 0.61876 0.97221 0.56736 0.0
H350 H 0.48207 0.87362 0.6046 0.0
H351 H 0.49512 0.89505 0.54047 0.0
Li352 Li 0.66262 0.57303 0.07692 0.0
Li353 Li 0.64926 0.54163 0.08523 0.0
Li354 Li 0.66898 0.5655 0.1115 0.0
Li355 Li 0.68149 0.55967 0.07943 0.0
C356 C 0.63331 0.56469 0.1001 0.0
N357 N 0.60855 0.57546 0.09961 0.0
C358 C 0.61666 0.55384 0.09115 0.0
C359 C 0.63729 0.58088 0.1091 0.0
C360 C 0.60434 0.55955 0.09099 0.0
C361 C 0.62462 0.58613 0.1086 0.0
C362 C 0.66047 0.54268 0.04267 0.0
C363 C 0.66156 0.51704 0.03081 0.0
N364 N 0.6573 0.5195 0.01063 0.0
C365 C 0.65611 0.54497 0.02184 0.0
C366 C 0.66318 0.5286 0.04724 0.0
C367 C 0.65455 0.53309 0.00586 0.0
C368 C 0.66947 0.60669 0.06221 0.0
N369 N 0.65802 0.589 0.06206 0.0
C370 C 0.63688 0.5928 0.04233 0.0
C371 C 0.64223 0.58189 0.05186 0.0
C372 C 0.64817 0.6111 0.0428 0.0
C373 C 0.6648 0.61812 0.05243 0.0
H374 H 0.6821 0.61192 0.07009 0.0
H375 H 0.63364 0.56774 0.05156 0.0
C376 C 0.62315 0.51038 0.1026 0.0
N377 N 0.62874 0.51916 0.08371 0.0
C378 C 0.60758 0.49416 0.10352 0.0
C379 C 0.60371 0.49633 0.06548 0.0
C380 C 0.61942 0.51255 0.06529 0.0
C381 C 0.59754 0.48701 0.08484 0.0
H382 H 0.63077 0.51611 0.11702 0.0
H383 H 0.62393 0.52002 0.05058 0.0
C384 C 0.69827 0.59667 0.10233 0.0
N385 N 0.72307 0.62464 0.12632 0.0
C386 C 0.71521 0.5991 0.10497 0.0
C387 C 0.69396 0.60849 0.11182 0.0
C388 C 0.72756 0.61334 0.11716 0.0
C389 C 0.70667 0.62253 0.12393 0.0
C390 C 0.67417 0.53308 0.11292 0.0
C391 C 0.6883 0.54042 0.12729 0.0
C392 C 0.66574 0.51502 0.10838 0.0
C393 C 0.6937 0.52953 0.13702 0.0
C394 C 0.67157 0.5046 0.11838 0.0
N395 N 0.6853 0.51199 0.1324 0.0
C396 C 0.65596 0.56563 0.15195 0.0
C397 C 0.68711 0.57896 0.15173 0.0
C398 C 0.656 0.56853 0.17391 0.0
N399 N 0.67135 0.57086 0.14132 0.0
C400 C 0.68779 0.58226 0.17371 0.0
C401 C 0.67207 0.57692 0.18514 0.0
H402 H 0.64357 0.55892 0.14341 0.0
H403 H 0.69916 0.58271 0.14311 0.0
C404 C 0.71305 0.57413 0.05603 0.0
N405 N 0.70176 0.55993 0.06798 0.0
C406 C 0.72893 0.57584 0.04873 0.0
C407 C 0.72093 0.54796 0.06555 0.0
C408 C 0.70522 0.54676 0.07238 0.0
C409 C 0.73319 0.56277 0.05381 0.0
H410 H 0.70989 0.58436 0.05265 0.0
H411 H 0.69599 0.53545 0.08154 0.0
O412 O 0.64561 0.5594 0.10019 0.0
O413 O 0.66181 0.5541 0.05848 0.0
O414 O 0.68604 0.58289 0.09031 0.0
O415 O 0.66852 0.54344 0.1034 0.0
H416 H 0.61334 0.54123 0.08421 0.0
H417 H 0.65003 0.58931 0.11633 0.0
H418 H 0.59144 0.55136 0.08398 0.0
H419 H 0.62756 0.59869 0.11537 0.0
H420 H 0.66364 0.50609 0.03411 0.0
H421 H 0.65387 0.55577 0.01811 0.0
H422 H 0.66642 0.52658 0.0633 0.0
H423 H 0.65114 0.53468 0.98967 0.0
H424 H 0.62407 0.58704 0.03469 0.0
H425 H 0.67382 0.63223 0.05279 0.0
H426 H 0.60342 0.48733 0.11873 0.0
H427 H 0.59623 0.49142 0.05078 0.0
H428 H 0.71874 0.59004 0.09784 0.0
H429 H 0.68094 0.60681 0.10991 0.0
H430 H 0.7407 0.61536 0.11939 0.0
H431 H 0.7035 0.63174 0.13142 0.0
H432 H 0.69509 0.55437 0.13078 0.0
H433 H 0.65489 0.50913 0.09715 0.0
H434 H 0.7046 0.53502 0.14821 0.0
H435 H 0.66519 0.49062 0.11498 0.0
H436 H 0.64352 0.56379 0.18208 0.0
H437 H 0.70049 0.58887 0.18164 0.0
H438 H 0.73788 0.58738 0.03953 0.0
H439 H 0.72369 0.53766 0.07016 0.0
Li440 Li 0.11849 0.68139 0.57789 0.0
Li441 Li 0.09932 0.66748 0.61028 0.0
Li442 Li 0.104 0.64911 0.58173 0.0
Li443 Li 0.08762 0.66376 0.57451 0.0
C444 C 0.13759 0.67401 0.61035 0.0
N445 N 0.17052 0.68737 0.62888 0.0
C446 C 0.14258 0.68596 0.62736 0.0
C447 C 0.14921 0.66854 0.60312 0.0
C448 C 0.15933 0.69266 0.63641 0.0
C449 C 0.16584 0.67553 0.6126 0.0
C450 C 0.09107 0.69367 0.58536 0.0
C451 C 0.06563 0.69717 0.58983 0.0
N452 N 0.07082 0.70811 0.57255 0.0
C453 C 0.09619 0.70498 0.5677 0.0
C454 C 0.0757 0.68974 0.59657 0.0
C455 C 0.08576 0.71214 0.56146 0.0
C456 C 0.14388 0.70665 0.5484 0.0
N457 N 0.13883 0.70255 0.56922 0.0
C458 C 0.16239 0.73034 0.58086 0.0
C459 C 0.1475 0.71416 0.58527 0.0
C460 C 0.16824 0.7348 0.55962 0.0
C461 C 0.15879 0.72275 0.54322 0.0
H462 H 0.13625 0.69761 0.53576 0.0
H463 H 0.14268 0.71095 0.6015 0.0
C464 C 0.09761 0.65764 0.65321 0.0
N465 N 0.0972 0.66978 0.64006 0.0
C466 C 0.0972 0.65937 0.67541 0.0
C467 C 0.09575 0.68596 0.67006 0.0
C468 C 0.09631 0.68378 0.64795 0.0
C469 C 0.0963 0.67371 0.68414 0.0
H470 H 0.09859 0.6468 0.64641 0.0
H471 H 0.09628 0.69338 0.63708 0.0
C472 C 0.11539 0.66089 0.54052 0.0
N473 N 0.13503 0.65575 0.50964 0.0
C474 C 0.10814 0.65433 0.52032 0.0
C475 C 0.13259 0.66475 0.54501 0.0
C476 C 0.11828 0.65183 0.50493 0.0
C477 C 0.14233 0.66212 0.52919 0.0
C478 C 0.06463 0.63322 0.59617 0.0
C479 C 0.05739 0.62101 0.57946 0.0
C480 C 0.05382 0.63298 0.61281 0.0
C481 C 0.0393 0.60887 0.57954 0.0
C482 C 0.03581 0.62061 0.61232 0.0
N483 N 0.02898 0.60892 0.59582 0.0
C484 C 0.11204 0.62315 0.59425 0.0
C485 C 0.09977 0.61914 0.55943 0.0
C486 C 0.11273 0.60763 0.59237 0.0
N487 N 0.10564 0.62856 0.5779 0.0
C488 C 0.1004 0.60364 0.55677 0.0
C489 C 0.10682 0.59759 0.57344 0.0
H490 H 0.11632 0.63077 0.6089 0.0
H491 H 0.09438 0.62353 0.54687 0.0
C492 C 0.07329 0.6667 0.53661 0.0
N493 N 0.06867 0.6617 0.5573 0.0
C494 C 0.06051 0.6639 0.52144 0.0
C495 C 0.03847 0.65206 0.54944 0.0
C496 C 0.05176 0.65515 0.56413 0.0
C497 C 0.04275 0.65592 0.52766 0.0
H498 H 0.08693 0.6725 0.53176 0.0
H499 H 0.04847 0.65188 0.5808 0.0
O500 O 0.12117 0.66718 0.60143 0.0
O501 O 0.10088 0.68621 0.59137 0.0
O502 O 0.10541 0.66295 0.55591 0.0
O503 O 0.08228 0.64512 0.59652 0.0
H504 H 0.13367 0.69016 0.63338 0.0
H505 H 0.14542 0.65888 0.59044 0.0
H506 H 0.16341 0.70205 0.64944 0.0
H507 H 0.17499 0.67148 0.60707 0.0
H508 H 0.05364 0.69416 0.59826 0.0
H509 H 0.10802 0.70807 0.5588 0.0
H510 H 0.07145 0.68082 0.61011 0.0
H511 H 0.0895 0.72086 0.54776 0.0
H512 H 0.16932 0.73922 0.59401 0.0
H513 H 0.16272 0.72585 0.5266 0.0
H514 H 0.09801 0.64979 0.6856 0.0
H515 H 0.09489 0.69713 0.67602 0.0
H516 H 0.09474 0.65101 0.51664 0.0
H517 H 0.13842 0.66997 0.56044 0.0
H518 H 0.11282 0.64673 0.48926 0.0
H519 H 0.1557 0.66515 0.53245 0.0
H520 H 0.06563 0.62103 0.56651 0.0
H521 H 0.0593 0.64231 0.62591 0.0
H522 H 0.03347 0.59941 0.56665 0.0
H523 H 0.02725 0.6203 0.62503 0.0
H524 H 0.11743 0.60333 0.60585 0.0
H525 H 0.09585 0.59648 0.54181 0.0
H526 H 0.0644 0.66749 0.50489 0.0
H527 H 0.02493 0.64593 0.55491 0.0
Li528 Li 0.89152 0.54516 0.41441 0.0
Li529 Li 0.90719 0.57639 0.41912 0.0
Li530 Li 0.87606 0.56209 0.41614 0.0
Li531 Li 0.89533 0.56575 0.3839 0.0
C532 C 0.88117 0.54829 0.45619 0.0
N533 N 0.86389 0.527 0.49093 0.0
C534 C 0.89029 0.5501 0.47528 0.0
C535 C 0.86326 0.53566 0.45479 0.0
C536 C 0.88132 0.53921 0.49266 0.0
C537 C 0.85476 0.52503 0.47252 0.0
C538 C 0.92882 0.56377 0.40541 0.0
C539 C 0.95907 0.57209 0.39822 0.0
N540 N 0.96047 0.56702 0.41839 0.0
C541 C 0.93053 0.55862 0.42606 0.0
C542 C 0.94316 0.57055 0.39135 0.0
C543 C 0.94666 0.56037 0.43231 0.0
C544 C 0.88995 0.51488 0.39969 0.0
N545 N 0.88961 0.52272 0.41832 0.0
C546 C 0.88514 0.49756 0.43839 0.0
C547 C 0.88749 0.51455 0.43752 0.0
C548 C 0.88515 0.48899 0.41933 0.0
C549 C 0.88781 0.498 0.39981 0.0
H550 H 0.89175 0.52176 0.38467 0.0
H551 H 0.88744 0.52103 0.45218 0.0
C552 C 0.92443 0.59699 0.45485 0.0
N553 N 0.92662 0.59481 0.43374 0.0
C554 C 0.93874 0.60889 0.46718 0.0
C555 C 0.95702 0.61693 0.43542 0.0
C556 C 0.94236 0.60476 0.42374 0.0
C557 C 0.95543 0.61871 0.45759 0.0
H558 H 0.91166 0.58907 0.46225 0.0
H559 H 0.94362 0.60291 0.40684 0.0
C560 C 0.8585 0.53075 0.387 0.0
N561 N 0.82735 0.50291 0.37172 0.0
C562 C 0.85195 0.53194 0.36703 0.0
C563 C 0.84933 0.5153 0.39907 0.0
C564 C 0.83613 0.51776 0.35962 0.0
C565 C 0.83358 0.5014 0.3911 0.0
C566 C 0.90333 0.6016 0.40316 0.0
C567 C 0.9007 0.60982 0.42084 0.0
C568 C 0.91662 0.61161 0.38838 0.0
C569 C 0.91161 0.62799 0.42355 0.0
C570 C 0.92723 0.62975 0.39165 0.0
N571 N 0.92454 0.63749 0.40903 0.0
C572 C 0.85386 0.56761 0.44411 0.0
C573 C 0.84211 0.55661 0.40962 0.0
C574 C 0.8385 0.56768 0.45 0.0
N575 N 0.85525 0.56197 0.42428 0.0
C576 C 0.82654 0.55639 0.41482 0.0
C577 C 0.82457 0.56191 0.43526 0.0
H578 H 0.8647 0.57206 0.45531 0.0
H579 H 0.8438 0.55274 0.39377 0.0
C580 C 0.90354 0.55852 0.34346 0.0
N581 N 0.89722 0.56783 0.35386 0.0
C582 C 0.90384 0.55828 0.32112 0.0
C583 C 0.89145 0.57755 0.32064 0.0
C584 C 0.89138 0.5774 0.34304 0.0
C585 C 0.8975 0.56768 0.30941 0.0
H586 H 0.90801 0.55098 0.35258 0.0
H587 H 0.88626 0.58453 0.35183 0.0
O588 O 0.88987 0.55888 0.43908 0.0
O589 O 0.91335 0.56269 0.39915 0.0
O590 O 0.87401 0.54452 0.39441 0.0
O591 O 0.8931 0.58378 0.4005 0.0
H592 H 0.9042 0.5597 0.4766 0.0
H593 H 0.85597 0.5341 0.44022 0.0
H594 H 0.88824 0.54043 0.5075 0.0
H595 H 0.8409 0.51522 0.47165 0.0
H596 H 0.97031 0.57737 0.38754 0.0
H597 H 0.9196 0.55353 0.43721 0.0
H598 H 0.94204 0.57469 0.37536 0.0
H599 H 0.94821 0.55651 0.44827 0.0
H600 H 0.88301 0.49111 0.4538 0.0
H601 H 0.8883 0.49212 0.38475 0.0
H602 H 0.93691 0.6097 0.48422 0.0
H603 H 0.96957 0.62447 0.42731 0.0
H604 H 0.85893 0.54376 0.35742 0.0
H605 H 0.85436 0.51394 0.41434 0.0
H606 H 0.83085 0.51854 0.34425 0.0
H607 H 0.82633 0.48939 0.40029 0.0
H608 H 0.89048 0.6022 0.43244 0.0
H609 H 0.91885 0.60539 0.37467 0.0
H610 H 0.90982 0.63454 0.43723 0.0
H611 H 0.93765 0.63767 0.38041 0.0
H612 H 0.83748 0.57208 0.46589 0.0
H613 H 0.8163 0.55229 0.4028 0.0
H614 H 0.90883 0.55069 0.3131 0.0
H615 H 0.88627 0.58481 0.31224 0.0
Li616 Li 0.33199 0.91046 0.92254 0.0
Li617 Li 0.34413 0.8909 0.91715 0.0
Li618 Li 0.32757 0.89643 0.88793 0.0
Li619 Li 0.3118 0.87794 0.91907 0.0
C620 C 0.36324 0.93014 0.90048 0.0
N621 N 0.3896 0.96504 0.89803 0.0
C622 C 0.37963 0.93562 0.91 0.0
C623 C 0.36032 0.94235 0.88948 0.0
C624 C 0.39277 0.95334 0.90865 0.0
C625 C 0.37379 0.95995 0.88849 0.0
C626 C 0.33241 0.88474 0.96027 0.0
C627 C 0.3289 0.86027 0.98168 0.0
N628 N 0.33788 0.87159 0.99794 0.0
C629 C 0.34146 0.89613 0.97725 0.0
C630 C 0.32594 0.86665 0.96254 0.0
C631 C 0.34415 0.88923 0.99614 0.0
C632 C 0.3235 0.93593 0.93734 0.0
N633 N 0.33605 0.93111 0.93677 0.0
C634 C 0.35619 0.9568 0.9562 0.0
C635 C 0.352 0.94094 0.94632 0.0
C636 C 0.34363 0.96224 0.95675 0.0
C637 C 0.327 0.95157 0.94752 0.0
H638 H 0.31081 0.92765 0.9299 0.0
H639 H 0.36148 0.93647 0.9462 0.0
C640 C 0.36875 0.88205 0.90381 0.0
N641 N 0.36353 0.88731 0.92148 0.0
C642 C 0.38348 0.87992 0.90464 0.0
C643 C 0.38726 0.88864 0.94191 0.0
C644 C 0.37243 0.89065 0.94034 0.0
C645 C 0.39304 0.88339 0.92382 0.0
H646 H 0.36156 0.87976 0.88894 0.0
H647 H 0.36835 0.89529 0.95399 0.0
C648 C 0.29869 0.90024 0.89314 0.0
N649 N 0.27677 0.90557 0.86616 0.0
C650 C 0.28164 0.88644 0.88886 0.0
C651 C 0.30452 0.91679 0.88393 0.0
C652 C 0.27077 0.8894 0.87512 0.0
C653 C 0.29326 0.91921 0.87026 0.0
C654 C 0.32222 0.85761 0.89137 0.0
C655 C 0.31491 0.8509 0.87125 0.0
C656 C 0.32598 0.84743 0.9053 0.0
C657 C 0.31119 0.83394 0.86555 0.0
C658 C 0.32209 0.83055 0.899 0.0
N659 N 0.31481 0.8242 0.87944 0.0
C660 C 0.34301 0.90822 0.84799 0.0
C661 C 0.31187 0.89018 0.84642 0.0
C662 C 0.34405 0.90922 0.82571 0.0
N663 N 0.32711 0.89877 0.85784 0.0
C664 C 0.31229 0.89094 0.82406 0.0
C665 C 0.32857 0.90034 0.81349 0.0
H666 H 0.35495 0.91458 0.85743 0.0
H667 H 0.29948 0.8822 0.85458 0.0
C668 C 0.28375 0.85715 0.94781 0.0
N669 N 0.29042 0.85813 0.92782 0.0
C670 C 0.268 0.84218 0.95397 0.0
C671 C 0.26642 0.82979 0.91882 0.0
C672 C 0.28192 0.84502 0.91326 0.0
C673 C 0.25939 0.82823 0.93941 0.0
H674 H 0.29071 0.86793 0.95895 0.0
H675 H 0.2871 0.84645 0.89724 0.0
O676 O 0.35024 0.91284 0.90159 0.0
O677 O 0.32968 0.89131 0.9417 0.0
O678 O 0.30948 0.8976 0.90658 0.0
O679 O 0.32594 0.8742 0.89715 0.0
H680 H 0.38213 0.92629 0.91844 0.0
H681 H 0.34782 0.93826 0.88172 0.0
H682 H 0.40549 0.95779 0.91604 0.0
H683 H 0.3717 0.96956 0.8801 0.0
H684 H 0.32399 0.8463 0.98364 0.0
H685 H 0.34644 0.91016 0.97579 0.0
H686 H 0.3186 0.85762 0.94975 0.0
H687 H 0.35122 0.89789 0.00937 0.0
H688 H 0.36904 0.96467 0.96354 0.0
H689 H 0.31702 0.95543 0.94791 0.0
H690 H 0.3874 0.87571 0.89037 0.0
H691 H 0.39444 0.89171 0.9569 0.0
H692 H 0.27687 0.87359 0.89599 0.0
H693 H 0.31757 0.92766 0.88734 0.0
H694 H 0.25758 0.87882 0.87157 0.0
H695 H 0.29763 0.93194 0.86295 0.0
H696 H 0.31203 0.85864 0.86021 0.0
H697 H 0.33203 0.85256 0.9207 0.0
H698 H 0.30542 0.82854 0.85009 0.0
H699 H 0.32493 0.82253 0.90963 0.0
H700 H 0.35685 0.91663 0.81811 0.0
H701 H 0.3001 0.88367 0.81514 0.0
H702 H 0.26278 0.84137 0.96993 0.0
H703 H 0.25985 0.81938 0.90707 0.0
Li704 Li 0.44953 0.34487 0.41844 0.0
Li705 Li 0.41827 0.32883 0.4203 0.0
Li706 Li 0.43243 0.31212 0.41878 0.0
Li707 Li 0.43073 0.3282 0.38649 0.0
C708 C 0.44599 0.32869 0.45743 0.0
N709 N 0.46849 0.32858 0.48846 0.0
C710 C 0.44253 0.32956 0.47914 0.0
C711 C 0.46095 0.3278 0.45153 0.0
C712 C 0.45405 0.32949 0.49458 0.0
C713 C 0.47213 0.32773 0.46745 0.0
C714 C 0.42882 0.36183 0.40325 0.0
C715 C 0.41658 0.37883 0.38851 0.0
N716 N 0.41977 0.38769 0.4074 0.0
C717 C 0.43211 0.37117 0.42246 0.0
C718 C 0.4211 0.36572 0.38608 0.0
C719 C 0.42738 0.38417 0.42426 0.0
C720 C 0.48003 0.37468 0.40687 0.0
N721 N 0.4709 0.36579 0.42457 0.0
C722 C 0.49282 0.38767 0.44744 0.0
C723 C 0.47677 0.37204 0.44464 0.0
C724 C 0.50273 0.397 0.4294 0.0
C725 C 0.49602 0.39037 0.4089 0.0
H726 H 0.47482 0.36952 0.39113 0.0
H727 H 0.46905 0.36496 0.45847 0.0
C728 C 0.39668 0.3255 0.45477 0.0
N729 N 0.39918 0.3298 0.43365 0.0
C730 C 0.38454 0.32786 0.46667 0.0
C731 C 0.37692 0.33795 0.4345 0.0
C732 C 0.38927 0.33545 0.42325 0.0
C733 C 0.37481 0.33463 0.45666 0.0
H734 H 0.40455 0.32079 0.46255 0.0
H735 H 0.39127 0.33851 0.40636 0.0
C736 C 0.46178 0.32484 0.38548 0.0
N737 N 0.48224 0.31771 0.35811 0.0
C738 C 0.45379 0.31069 0.37118 0.0
C739 C 0.48015 0.3353 0.38596 0.0
C740 C 0.46437 0.30734 0.35742 0.0
C741 C 0.49027 0.33149 0.37199 0.0
C742 C 0.39376 0.30166 0.40019 0.0
C743 C 0.38213 0.28917 0.41483 0.0
C744 C 0.38722 0.30816 0.38436 0.0
C745 C 0.36412 0.28342 0.41342 0.0
C746 C 0.36912 0.30205 0.38345 0.0
N747 N 0.35804 0.28992 0.39789 0.0
C748 C 0.41935 0.27999 0.44083 0.0
C749 C 0.44551 0.28833 0.42115 0.0
C750 C 0.41814 0.264 0.44653 0.0
N751 N 0.43262 0.29153 0.4279 0.0
C752 C 0.44481 0.27253 0.42636 0.0
C753 C 0.43082 0.25996 0.4389 0.0
H754 H 0.40956 0.28313 0.44648 0.0
H755 H 0.45622 0.29787 0.41143 0.0
C756 C 0.44276 0.34414 0.34668 0.0
N757 N 0.43066 0.32889 0.35623 0.0
C758 C 0.44391 0.34534 0.32438 0.0
C759 C 0.41998 0.31514 0.32222 0.0
C760 C 0.41942 0.31448 0.34458 0.0
C761 C 0.43241 0.33071 0.31188 0.0
H762 H 0.4516 0.35532 0.35645 0.0
H763 H 0.41015 0.30242 0.35266 0.0
O764 O 0.4347 0.32874 0.44224 0.0
O765 O 0.43321 0.34897 0.40117 0.0
O766 O 0.45171 0.32832 0.39919 0.0
O767 O 0.41149 0.30766 0.40146 0.0
H768 H 0.43109 0.33036 0.48405 0.0
H769 H 0.46402 0.32724 0.43491 0.0
H770 H 0.45152 0.33017 0.51142 0.0
H771 H 0.48374 0.32705 0.46309 0.0
H772 H 0.41052 0.38194 0.3754 0.0
H773 H 0.43811 0.36828 0.43587 0.0
H774 H 0.41853 0.35859 0.3711 0.0
H775 H 0.42974 0.39145 0.43906 0.0
H776 H 0.49749 0.39228 0.46353 0.0
H777 H 0.50295 0.39732 0.39453 0.0
H778 H 0.38348 0.32525 0.48373 0.0
H779 H 0.36946 0.34288 0.42607 0.0
H780 H 0.43959 0.30231 0.37085 0.0
H781 H 0.48654 0.34615 0.39715 0.0
H782 H 0.45839 0.29645 0.34624 0.0
H783 H 0.50451 0.33945 0.37222 0.0
H784 H 0.38694 0.28404 0.42723 0.0
H785 H 0.39605 0.31811 0.37318 0.0
H786 H 0.35497 0.2738 0.4247 0.0
H787 H 0.3639 0.30705 0.37136 0.0
H788 H 0.40732 0.25484 0.45656 0.0
H789 H 0.45481 0.26997 0.41994 0.0
H790 H 0.4536 0.3576 0.31699 0.0
H791 H 0.41107 0.30351 0.31311 0.0
Li792 Li 0.08612 0.41942 0.92094 0.0
Li793 Li 0.10126 0.45157 0.9122 0.0
Li794 Li 0.10177 0.42983 0.88683 0.0
Li795 Li 0.1172 0.43653 0.91971 0.0
C796 C 0.06636 0.43239 0.89479 0.0
N797 N 0.03575 0.43396 0.8907 0.0
C798 C 0.0605 0.43857 0.91176 0.0
C799 C 0.0566 0.42689 0.87581 0.0
C800 C 0.04502 0.43932 0.90934 0.0
C801 C 0.04116 0.42778 0.87405 0.0
C802 C 0.11251 0.44635 0.95674 0.0
C803 C 0.13697 0.4704 0.97511 0.0
N804 N 0.13607 0.45901 0.99053 0.0
C805 C 0.1118 0.4349 0.97281 0.0
C806 C 0.12518 0.46426 0.9579 0.0
C807 C 0.12384 0.44154 0.98974 0.0
C808 C 0.06897 0.39184 0.95065 0.0
N809 N 0.06607 0.40027 0.93422 0.0
C810 C 0.03489 0.38219 0.93848 0.0
C811 C 0.04944 0.39526 0.92751 0.0
C812 C 0.03748 0.37409 0.95643 0.0
C813 C 0.05478 0.37871 0.96216 0.0
H814 H 0.08231 0.39551 0.95502 0.0
H815 H 0.04734 0.40155 0.91391 0.0
C816 C 0.10151 0.48054 0.89365 0.0
N817 N 0.10031 0.47271 0.91285 0.0
C818 C 0.101 0.49619 0.89263 0.0
C819 C 0.09817 0.49551 0.93124 0.0
C820 C 0.0985 0.47972 0.93148 0.0
C821 C 0.0994 0.5039 0.91161 0.0
H822 H 0.10288 0.47458 0.87911 0.0
H823 H 0.0973 0.47304 0.9465 0.0
C824 C 0.09254 0.39607 0.89903 0.0
N825 N 0.07265 0.36246 0.88235 0.0
C826 C 0.09819 0.38379 0.90131 0.0
C827 C 0.07675 0.39123 0.88822 0.0
C828 C 0.08796 0.36687 0.89276 0.0
C829 C 0.06689 0.37419 0.87993 0.0
C830 C 0.13662 0.45866 0.88523 0.0
C831 C 0.14217 0.44671 0.87982 0.0
C832 C 0.14726 0.4765 0.8802 0.0
C833 C 0.15834 0.45284 0.86942 0.0
C834 C 0.16334 0.48212 0.86979 0.0
N835 N 0.16851 0.47028 0.86467 0.0
C836 C 0.09616 0.43367 0.84383 0.0
C837 C 0.1078 0.41468 0.84958 0.0
C838 C 0.09607 0.43128 0.82174 0.0
N839 N 0.10185 0.42532 0.8572 0.0
C840 C 0.1081 0.41204 0.82756 0.0
C841 C 0.10214 0.42039 0.81338 0.0
H842 H 0.09186 0.44234 0.85038 0.0
H843 H 0.11246 0.40836 0.86056 0.0
C844 C 0.14 0.42524 0.93554 0.0
N845 N 0.13875 0.43976 0.93109 0.0
C846 C 0.15652 0.42683 0.93875 0.0
C847 C 0.16992 0.45838 0.93409 0.0
C848 C 0.15317 0.4562 0.93113 0.0
C849 C 0.17175 0.4435 0.93711 0.0
H850 H 0.12829 0.41234 0.93525 0.0
H851 H 0.15179 0.46751 0.92741 0.0
O852 O 0.0815 0.43159 0.89673 0.0
O853 O 0.10104 0.44006 0.9398 0.0
O854 O 0.10252 0.41266 0.90742 0.0
O855 O 0.12117 0.45312 0.89613 0.0
H856 H 0.06779 0.44265 0.92667 0.0
H857 H 0.06082 0.42183 0.86264 0.0
H858 H 0.04035 0.44412 0.9223 0.0
H859 H 0.03346 0.42354 0.85946 0.0
H860 H 0.14692 0.48421 0.97612 0.0
H861 H 0.10212 0.42103 0.97223 0.0
H862 H 0.12616 0.47327 0.94541 0.0
H863 H 0.12346 0.4328 0.00225 0.0
H864 H 0.02178 0.37909 0.93354 0.0
H865 H 0.05732 0.37254 0.97568 0.0
H866 H 0.10209 0.50234 0.87721 0.0
H867 H 0.09671 0.50096 0.94618 0.0
H868 H 0.11038 0.38729 0.90956 0.0
H869 H 0.07212 0.40047 0.88615 0.0
H870 H 0.09219 0.35725 0.89441 0.0
H871 H 0.05466 0.3703 0.87156 0.0
H872 H 0.13424 0.43291 0.88398 0.0
H873 H 0.14318 0.48592 0.88447 0.0
H874 H 0.16286 0.44377 0.86525 0.0
H875 H 0.17175 0.49591 0.86585 0.0
H876 H 0.09168 0.4382 0.81129 0.0
H877 H 0.11286 0.40354 0.82168 0.0
H878 H 0.15744 0.41504 0.9409 0.0
H879 H 0.18138 0.47146 0.93289 0.0
Li880 Li 0.65099 0.107 0.41619 0.0
Li881 Li 0.66303 0.08746 0.42272 0.0
Li882 Li 0.68277 0.12006 0.41958 0.0
Li883 Li 0.66905 0.10233 0.38774 0.0
C884 C 0.65817 0.10999 0.45972 0.0
N885 N 0.6449 0.11695 0.49631 0.0
C886 C 0.64958 0.09687 0.4752 0.0
C887 C 0.66014 0.12668 0.46293 0.0
C888 C 0.64293 0.10064 0.49357 0.0
C889 C 0.65331 0.12993 0.4815 0.0
C890 C 0.63242 0.06871 0.39576 0.0
C891 C 0.62118 0.04087 0.37738 0.0
N892 N 0.60508 0.03521 0.38642 0.0
C893 C 0.61567 0.0627 0.40456 0.0
C894 C 0.63513 0.05779 0.38179 0.0
C895 C 0.60206 0.04569 0.39978 0.0
C896 C 0.6279 0.11931 0.40591 0.0
N897 N 0.63106 0.10978 0.42061 0.0
C898 C 0.60464 0.10288 0.43954 0.0
C899 C 0.61981 0.10159 0.4372 0.0
C900 C 0.6009 0.11243 0.42444 0.0
C901 C 0.61282 0.12083 0.40753 0.0
H902 H 0.63693 0.12545 0.39269 0.0
H903 H 0.62228 0.09358 0.44824 0.0
C904 C 0.67106 0.06258 0.44169 0.0
N905 N 0.65821 0.06652 0.43711 0.0
C906 C 0.66674 0.04669 0.45186 0.0
C907 C 0.63623 0.03954 0.45266 0.0
C908 C 0.64116 0.0556 0.44285 0.0
C909 C 0.64907 0.03489 0.4571 0.0
H910 H 0.68461 0.07174 0.43744 0.0
H911 H 0.63142 0.05947 0.44004 0.0
C912 C 0.67799 0.14198 0.39272 0.0
N913 N 0.69534 0.17781 0.38466 0.0
C914 C 0.68994 0.149 0.37573 0.0
C915 C 0.67462 0.15314 0.40537 0.0
C916 C 0.69866 0.16716 0.37198 0.0
C917 C 0.68359 0.17123 0.4011 0.0
C918 C 0.69499 0.09363 0.39789 0.0
C919 C 0.71324 0.1037 0.39488 0.0
C920 C 0.68594 0.0761 0.39102 0.0
C921 C 0.72207 0.09614 0.38468 0.0
C922 C 0.69523 0.069 0.38091 0.0
N923 N 0.71295 0.07909 0.37794 0.0
C924 C 0.70687 0.14709 0.44824 0.0
C925 C 0.71651 0.1472 0.41269 0.0
C926 C 0.7227 0.16247 0.453 0.0
N927 N 0.70404 0.14002 0.42824 0.0
C928 C 0.73247 0.16246 0.41671 0.0
C929 C 0.73568 0.17037 0.43703 0.0
H930 H 0.69685 0.14091 0.46044 0.0
H931 H 0.71389 0.14119 0.39699 0.0
C932 C 0.65751 0.09307 0.34519 0.0
N933 N 0.67201 0.10069 0.35796 0.0
C934 C 0.65934 0.09255 0.32302 0.0
C935 C 0.69102 0.10781 0.3276 0.0
C936 C 0.68856 0.10801 0.34967 0.0
C937 C 0.67629 0.10012 0.31395 0.0
H938 H 0.64452 0.08772 0.35219 0.0
H939 H 0.69988 0.11441 0.36013 0.0
O940 O 0.66472 0.1065 0.44162 0.0
O941 O 0.64589 0.08537 0.40027 0.0
O942 O 0.66934 0.12422 0.39664 0.0
O943 O 0.68611 0.10093 0.40758 0.0
H944 H 0.64804 0.08392 0.47304 0.0
H945 H 0.66692 0.13702 0.45125 0.0
H946 H 0.6362 0.0906 0.50566 0.0
H947 H 0.65472 0.14278 0.48416 0.0
H948 H 0.62312 0.03227 0.36666 0.0
H949 H 0.61324 0.071 0.41518 0.0
H950 H 0.64777 0.06237 0.37419 0.0
H951 H 0.5891 0.04083 0.40667 0.0
H952 H 0.59561 0.09594 0.45257 0.0
H953 H 0.61043 0.12838 0.39561 0.0
H954 H 0.67698 0.04356 0.45535 0.0
H955 H 0.62254 0.03095 0.45707 0.0
H956 H 0.69257 0.14054 0.36563 0.0
H957 H 0.66509 0.1479 0.41823 0.0
H958 H 0.70805 0.17278 0.35899 0.0
H959 H 0.68115 0.18003 0.41082 0.0
H960 H 0.72053 0.11723 0.40032 0.0
H961 H 0.67193 0.068 0.39373 0.0
H962 H 0.73617 0.10381 0.38215 0.0
H963 H 0.68835 0.05545 0.37549 0.0
H964 H 0.72478 0.1681 0.46891 0.0
H965 H 0.74199 0.16827 0.40385 0.0
H966 H 0.64764 0.08681 0.31306 0.0
H967 H 0.70431 0.11375 0.32128 0.0
Li968 Li 0.57382 0.66441 0.92051 0.0
Li969 Li 0.54198 0.65142 0.9134 0.0
Li970 Li 0.56527 0.66788 0.88484 0.0
Li971 Li 0.56102 0.68373 0.91424 0.0
C972 C 0.56316 0.63246 0.90216 0.0
N973 N 0.57186 0.6064 0.90751 0.0
C974 C 0.55291 0.61799 0.91539 0.0
C975 C 0.57764 0.6335 0.89134 0.0
C976 C 0.55758 0.605 0.91798 0.0
C977 C 0.58187 0.62024 0.89434 0.0
C978 C 0.54795 0.66593 0.95679 0.0
C979 C 0.52522 0.66738 0.97701 0.0
N980 N 0.53206 0.665 0.99544 0.0
C981 C 0.5548 0.66357 0.97594 0.0
C982 C 0.53309 0.66793 0.95733 0.0
C983 C 0.54657 0.66311 0.99531 0.0
C984 C 0.60755 0.67248 0.93663 0.0
N985 N 0.58984 0.66116 0.93732 0.0
C986 C 0.59335 0.64387 0.96421 0.0
C987 C 0.58263 0.64716 0.95086 0.0
C988 C 0.61171 0.65526 0.96388 0.0
C989 C 0.61884 0.66971 0.94981 0.0
H990 H 0.6129 0.68377 0.92608 0.0
H991 H 0.56847 0.63866 0.95143 0.0
C992 C 0.50804 0.62611 0.90128 0.0
N993 N 0.5191 0.63203 0.91839 0.0
C994 C 0.49127 0.61133 0.90323 0.0
C995 C 0.49754 0.60899 0.94045 0.0
C996 C 0.51421 0.6239 0.93778 0.0
C997 C 0.48589 0.60241 0.92294 0.0
H998 H 0.51235 0.63281 0.88603 0.0
H999 H 0.5234 0.62871 0.95103 0.0
C1000 C 0.59832 0.69598 0.89137 0.0
N1001 N 0.62783 0.71527 0.86611 0.0
C1002 C 0.60453 0.71387 0.88752 0.0
C1003 C 0.60727 0.68798 0.8826 0.0
C1004 C 0.61943 0.72338 0.87465 0.0
C1005 C 0.62211 0.69792 0.8698 0.0
C1006 C 0.53271 0.67492 0.88546 0.0
C1007 C 0.53646 0.68512 0.8669 0.0
C1008 C 0.51729 0.67036 0.89695 0.0
C1009 C 0.52502 0.69105 0.8605 0.0
C1010 C 0.50616 0.67651 0.89003 0.0
N1011 N 0.51024 0.68668 0.87212 0.0
C1012 C 0.56554 0.65329 0.84492 0.0
C1013 C 0.57715 0.68424 0.84435 0.0
C1014 C 0.56796 0.65313 0.82283 0.0
N1015 N 0.57007 0.66868 0.85514 0.0
C1016 C 0.57994 0.68472 0.82229 0.0
C1017 C 0.57512 0.66899 0.81124 0.0
H1018 H 0.55974 0.64109 0.85387 0.0
H1019 H 0.58027 0.69623 0.8528 0.0
C1020 C 0.56288 0.71124 0.94116 0.0
N1021 N 0.56262 0.70552 0.92081 0.0
C1022 C 0.56524 0.72806 0.94469 0.0
C1023 C 0.5673 0.73271 0.90633 0.0
C1024 C 0.56485 0.71588 0.90358 0.0
C1025 C 0.56765 0.73904 0.92709 0.0
H1026 H 0.56167 0.70298 0.95464 0.0
H1027 H 0.56523 0.71123 0.88767 0.0
O1028 O 0.55884 0.64535 0.89953 0.0
O1029 O 0.5559 0.66641 0.93771 0.0
O1030 O 0.58361 0.6864 0.90372 0.0
O1031 O 0.5437 0.66887 0.89184 0.0
H1032 H 0.54159 0.6169 0.92376 0.0
H1033 H 0.58545 0.64435 0.88063 0.0
H1034 H 0.54985 0.59381 0.92832 0.0
H1035 H 0.59309 0.62093 0.88613 0.0
H1036 H 0.51371 0.66892 0.97764 0.0
H1037 H 0.56642 0.66221 0.97589 0.0
H1038 H 0.52784 0.67011 0.94276 0.0
H1039 H 0.55174 0.6613 0.01024 0.0
H1040 H 0.58731 0.6324 0.97456 0.0
H1041 H 0.6329 0.67889 0.94924 0.0
H1042 H 0.48264 0.60689 0.8894 0.0
H1043 H 0.49403 0.6024 0.95584 0.0
H1044 H 0.59797 0.72038 0.89443 0.0
H1045 H 0.60279 0.67424 0.88564 0.0
H1046 H 0.62434 0.73721 0.87149 0.0
H1047 H 0.6291 0.69186 0.86283 0.0
H1048 H 0.54816 0.68853 0.85758 0.0
H1049 H 0.51377 0.66194 0.91087 0.0
H1050 H 0.52787 0.69909 0.84628 0.0
H1051 H 0.49422 0.67312 0.89882 0.0
H1052 H 0.56414 0.64074 0.81488 0.0
H1053 H 0.58524 0.69717 0.81385 0.0
H1054 H 0.56561 0.73258 0.96094 0.0
H1055 H 0.56894 0.74069 0.89232 0.0
Li1056 Li 0.57069 0.9068 0.92206 0.0
Li1057 Li 0.55706 0.87488 0.91868 0.0
Li1058 Li 0.5651 0.89442 0.88629 0.0
Li1059 Li 0.53987 0.88919 0.91007 0.0
C1060 C 0.59771 0.89865 0.90429 0.0
N1061 N 0.63265 0.90958 0.89569 0.0
C1062 C 0.60547 0.88935 0.9127 0.0
C1063 C 0.60767 0.91344 0.89141 0.0
C1064 C 0.62317 0.89511 0.9082 0.0
C1065 C 0.62533 0.91877 0.88726 0.0
C1066 C 0.54648 0.88214 0.95827 0.0
C1067 C 0.52626 0.86223 0.98476 0.0
N1068 N 0.5393 0.86934 -0.00029 0.0
C1069 C 0.55967 0.88932 0.97392 0.0
C1070 C 0.52961 0.86856 0.96373 0.0
C1071 C 0.55577 0.88265 0.99478 0.0
C1072 C 0.5781 0.9345 0.9493 0.0
N1073 N 0.58583 0.92626 0.93946 0.0
C1074 C 0.61367 0.94627 0.95526 0.0
C1075 C 0.6032 0.93161 0.94243 0.0
C1076 C 0.60612 0.95542 0.96478 0.0
C1077 C 0.58811 0.94937 0.96184 0.0
H1078 H 0.56414 0.92957 0.94722 0.0
H1079 H 0.60895 0.92457 0.93492 0.0
C1080 C 0.55699 0.84424 0.91148 0.0
N1081 N 0.55676 0.8542 0.92802 0.0
C1082 C 0.55798 0.82913 0.91543 0.0
C1083 C 0.55826 0.83458 0.95348 0.0
C1084 C 0.55742 0.84975 0.94876 0.0
C1085 C 0.55877 0.82424 0.93664 0.0
H1086 H 0.55668 0.84824 0.89516 0.0
H1087 H 0.55767 0.85804 0.96166 0.0
C1088 C 0.56322 0.92889 0.90005 0.0
N1089 N 0.5723 0.96371 0.90614 0.0
C1090 C 0.55054 0.9331 0.90684 0.0
C1091 C 0.58048 0.94243 0.89614 0.0
C1092 C 0.5554 0.95077 0.90986 0.0
C1093 C 0.58483 0.95994 0.8994 0.0
C1094 C 0.52723 0.85734 0.88786 0.0
C1095 C 0.52117 0.85398 0.86672 0.0
C1096 C 0.51705 0.84574 0.90414 0.0
C1097 C 0.50488 0.83908 0.86223 0.0
C1098 C 0.50085 0.83098 0.899 0.0
N1099 N 0.49514 0.82798 0.87832 0.0
C1100 C 0.56969 0.88225 0.84671 0.0
C1101 C 0.57804 0.91253 0.84727 0.0
C1102 C 0.57256 0.88296 0.82463 0.0
N1103 N 0.57219 0.89684 0.85739 0.0
C1104 C 0.58124 0.91389 0.82525 0.0
C1105 C 0.57812 0.89888 0.81361 0.0
H1106 H 0.56486 0.86992 0.85523 0.0
H1107 H 0.57962 0.92383 0.85615 0.0
C1108 C 0.51064 0.88925 0.92895 0.0
N1109 N 0.51717 0.88672 0.91037 0.0
C1110 C 0.49447 0.88878 0.92908 0.0
C1111 C 0.49197 0.88283 0.891 0.0
C1112 C 0.50824 0.88355 0.89159 0.0
C1113 C 0.48497 0.8857 0.90987 0.0
H1114 H 0.51826 0.89216 0.94355 0.0
H1115 H 0.51393 0.88193 0.87699 0.0
O1116 O 0.58041 0.89317 0.90861 0.0
O1117 O 0.54998 0.88862 0.93783 0.0
O1118 O 0.55872 0.91164 0.89722 0.0
O1119 O 0.54309 0.87191 0.89253 0.0
H1120 H 0.59789 0.87785 0.92265 0.0
H1121 H 0.60185 0.92072 0.88472 0.0
H1122 H 0.62937 0.88808 0.91465 0.0
H1123 H 0.63321 0.93021 0.87735 0.0
H1124 H 0.51328 0.85168 0.98919 0.0
H1125 H 0.5728 0.89983 0.96999 0.0
H1126 H 0.5192 0.86299 0.95188 0.0
H1127 H 0.56586 0.88803 0.00704 0.0
H1128 H 0.62753 0.95059 0.95741 0.0
H1129 H 0.58185 0.95602 0.96929 0.0
H1130 H 0.55816 0.82135 0.90203 0.0
H1131 H 0.55899 0.83125 0.97002 0.0
H1132 H 0.53709 0.92284 0.90982 0.0
H1133 H 0.59049 0.93948 0.89095 0.0
H1134 H 0.54573 0.95419 0.91519 0.0
H1135 H 0.59817 0.97052 0.89661 0.0
H1136 H 0.52892 0.86285 0.85394 0.0
H1137 H 0.52164 0.8481 0.92055 0.0
H1138 H 0.49998 0.83634 0.84594 0.0
H1139 H 0.49281 0.82188 0.91144 0.0
H1140 H 0.5701 0.87113 0.8162 0.0
H1141 H 0.58529 0.92633 0.81728 0.0
H1142 H 0.48975 0.89138 0.94392 0.0
H1143 H 0.48503 0.88022 0.87587 0.0
Li1144 Li 0.6628 0.57129 0.42083 0.0
Li1145 Li 0.68027 0.55698 0.41798 0.0
Li1146 Li 0.66712 0.56161 0.38558 0.0
Li1147 Li 0.64847 0.53857 0.41314 0.0
C1148 C 0.69649 0.59693 0.40586 0.0
N1149 N 0.72002 0.63275 0.40795 0.0
C1150 C 0.71034 0.60357 0.42064 0.0
C1151 C 0.69475 0.60847 0.39194 0.0
C1152 C 0.72206 0.62173 0.4215 0.0
C1153 C 0.70673 0.62654 0.39331 0.0
C1154 C 0.66252 0.54632 0.45876 0.0
C1155 C 0.65882 0.52308 0.48267 0.0
N1156 N 0.66492 0.53482 0.49916 0.0
C1157 C 0.66868 0.55814 0.47595 0.0
C1158 C 0.65745 0.52863 0.46213 0.0
C1159 C 0.66982 0.55207 0.49626 0.0
C1160 C 0.64222 0.58466 0.43642 0.0
N1161 N 0.65908 0.58784 0.43601 0.0
C1162 C 0.66844 0.61259 0.45937 0.0
C1163 C 0.67214 0.60141 0.44724 0.0
C1164 C 0.65113 0.60964 0.45995 0.0
C1165 C 0.63796 0.59551 0.44819 0.0
H1166 H 0.63197 0.5734 0.42802 0.0
H1167 H 0.68529 0.60328 0.4473 0.0
C1168 C 0.71372 0.56276 0.41137 0.0
N1169 N 0.70127 0.55745 0.42701 0.0
C1170 C 0.72893 0.56177 0.41456 0.0
C1171 C 0.71886 0.55095 0.45044 0.0
C1172 C 0.70371 0.55199 0.44649 0.0
C1173 C 0.7314 0.55556 0.43417 0.0
H1174 H 0.71145 0.56713 0.39609 0.0
H1175 H 0.69384 0.54798 0.45879 0.0
C1176 C 0.63508 0.56198 0.3866 0.0
N1177 N 0.61603 0.57226 0.36109 0.0
C1178 C 0.61874 0.54936 0.37831 0.0
C1179 C 0.6417 0.57982 0.38203 0.0
C1180 C 0.60932 0.55483 0.3654 0.0
C1181 C 0.63188 0.58475 0.36908 0.0
C1182 C 0.67712 0.53222 0.38944 0.0
C1183 C 0.68569 0.53546 0.36966 0.0
C1184 C 0.67897 0.52137 0.40441 0.0
C1185 C 0.69612 0.52789 0.36524 0.0
C1186 C 0.68959 0.51412 0.39942 0.0
N1187 N 0.69786 0.5175 0.38009 0.0
C1188 C 0.68703 0.57773 0.34875 0.0
C1189 C 0.65643 0.559 0.34233 0.0
C1190 C 0.69021 0.58108 0.32685 0.0
N1191 N 0.67037 0.56683 0.35597 0.0
C1192 C 0.65897 0.5622 0.32036 0.0
C1193 C 0.67605 0.57323 0.3124 0.0
H1194 H 0.69789 0.5835 0.35997 0.0
H1195 H 0.64343 0.54996 0.34842 0.0
C1196 C 0.61261 0.51542 0.42225 0.0
N1197 N 0.62809 0.51631 0.41694 0.0
C1198 C 0.59716 0.49907 0.42381 0.0
C1199 C 0.61408 0.48495 0.41508 0.0
C1200 C 0.62911 0.50155 0.41345 0.0
C1201 C 0.59774 0.48353 0.41998 0.0
H1202 H 0.61222 0.52745 0.42479 0.0
H1203 H 0.64157 0.50266 0.40915 0.0
O1204 O 0.68507 0.57917 0.40456 0.0
O1205 O 0.66116 0.55201 0.43885 0.0
O1206 O 0.64444 0.55684 0.3993 0.0
O1207 O 0.66693 0.53961 0.39406 0.0
H1208 H 0.71195 0.59479 0.43142 0.0
H1209 H 0.68436 0.60352 0.38006 0.0
H1210 H 0.73279 0.62707 0.43294 0.0
H1211 H 0.70551 0.63563 0.38267 0.0
H1212 H 0.65505 0.50945 0.48549 0.0
H1213 H 0.67255 0.57186 0.4736 0.0
H1214 H 0.65266 0.51932 0.44901 0.0
H1215 H 0.67459 0.56106 0.50971 0.0
H1216 H 0.67893 0.62327 0.46835 0.0
H1217 H 0.62435 0.59246 0.4487 0.0
H1218 H 0.73845 0.56537 0.4017 0.0
H1219 H 0.72052 0.54611 0.46574 0.0
H1220 H 0.61343 0.53549 0.38172 0.0
H1221 H 0.65419 0.58974 0.38858 0.0
H1222 H 0.59668 0.54521 0.35882 0.0
H1223 H 0.63683 0.59852 0.36542 0.0
H1224 H 0.6843 0.5437 0.35782 0.0
H1225 H 0.67256 0.51884 0.41987 0.0
H1226 H 0.70283 0.5303 0.34999 0.0
H1227 H 0.69129 0.50586 0.41093 0.0
H1228 H 0.70357 0.58962 0.32125 0.0
H1229 H 0.64778 0.55564 0.30964 0.0
H1230 H 0.58485 0.49866 0.42732 0.0
H1231 H 0.61524 0.47335 0.41234 0.0
Li1232 Li 0.12205 0.68352 0.91725 0.0
Li1233 Li 0.09098 0.66658 0.92317 0.0
Li1234 Li 0.10705 0.65172 0.91297 0.0
Li1235 Li 0.10086 0.66924 0.88611 0.0
C1236 C 0.11868 0.6721 0.95777 0.0
N1237 N 0.13731 0.68656 0.99516 0.0
C1238 C 0.11309 0.68052 0.9722 0.0
C1239 C 0.13369 0.67094 0.96242 0.0
C1240 C 0.1227 0.68776 0.99101 0.0
C1241 C 0.14295 0.67837 0.98138 0.0
C1242 C 0.09518 0.69785 0.90567 0.0
C1243 C 0.07434 0.70489 0.88978 0.0
N1244 N 0.07822 0.71729 0.9052 0.0
C1245 C 0.09902 0.71071 0.9213 0.0
C1246 C 0.0828 0.69495 0.88971 0.0
C1247 C 0.09028 0.72038 0.92082 0.0
C1248 C 0.15814 0.70765 0.91334 0.0
N1249 N 0.14363 0.70381 0.92518 0.0
C1250 C 0.16053 0.72893 0.94755 0.0
C1251 C 0.14446 0.71425 0.94181 0.0
C1252 C 0.17581 0.73303 0.93581 0.0
C1253 C 0.17441 0.72222 0.9184 0.0
H1254 H 0.15705 0.69955 0.89974 0.0
H1255 H 0.13266 0.71125 0.95059 0.0
C1256 C 0.06923 0.65142 0.95777 0.0
N1257 N 0.07213 0.66315 0.94184 0.0
C1258 C 0.05557 0.64677 0.97236 0.0
C1259 C 0.04798 0.66637 0.95403 0.0
C1260 C 0.06178 0.67057 0.93965 0.0
C1261 C 0.04471 0.65427 0.97064 0.0
H1262 H 0.07741 0.64543 0.95891 0.0
H1263 H 0.06387 0.67945 0.92662 0.0
C1264 C 0.13421 0.66375 0.88546 0.0
N1265 N 0.15519 0.65049 0.8713 0.0
C1266 C 0.1325 0.65745 0.8645 0.0
C1267 C 0.14663 0.66336 0.89919 0.0
C1268 C 0.14323 0.65079 0.85765 0.0
C1269 C 0.15709 0.65658 0.89174 0.0
C1270 C 0.06707 0.63623 0.90685 0.0
C1271 C 0.06269 0.62119 0.91903 0.0
C1272 C 0.05393 0.64009 0.90111 0.0
C1273 C 0.04519 0.6103 0.92541 0.0
C1274 C 0.03659 0.62888 0.90785 0.0
N1275 N 0.03262 0.61434 0.91976 0.0
C1276 C 0.11084 0.62552 0.93528 0.0
C1277 C 0.10673 0.62144 0.89773 0.0
C1278 C 0.11132 0.60986 0.93724 0.0
N1279 N 0.10864 0.63097 0.91572 0.0
C1280 C 0.10737 0.60587 0.8989 0.0
C1281 C 0.10953 0.59976 0.91888 0.0
H1282 H 0.11189 0.63314 0.94939 0.0
H1283 H 0.1046 0.6259 0.88246 0.0
C1284 C 0.11046 0.68199 0.84394 0.0
N1285 N 0.09685 0.67051 0.85651 0.0
C1286 C 0.10848 0.6816 0.8217 0.0
C1287 C 0.07827 0.65814 0.82591 0.0
C1288 C 0.08091 0.65884 0.84802 0.0
C1289 C 0.09228 0.66934 0.81234 0.0
H1290 H 0.12307 0.69095 0.85117 0.0
H1291 H 0.07039 0.64973 0.85837 0.0
O1292 O 0.10943 0.66488 0.93928 0.0
O1293 O 0.10388 0.68853 0.9056 0.0
O1294 O 0.12379 0.67027 0.89251 0.0
O1295 O 0.08421 0.64732 0.90097 0.0
H1296 H 0.10164 0.68175 0.96879 0.0
H1297 H 0.13814 0.66437 0.95153 0.0
H1298 H 0.11858 0.69441 0.00225 0.0
H1299 H 0.15462 0.67761 0.98514 0.0
H1300 H 0.06469 0.70275 0.87758 0.0
H1301 H 0.10862 0.71316 0.9337 0.0
H1302 H 0.07968 0.68507 0.87748 0.0
H1303 H 0.09308 0.73034 0.93284 0.0
H1304 H 0.16098 0.73693 0.96104 0.0
H1305 H 0.18571 0.72519 0.90844 0.0
H1306 H 0.05328 0.63704 0.98453 0.0
H1307 H 0.03994 0.67247 0.9521 0.0
H1308 H 0.1229 0.65758 0.85369 0.0
H1309 H 0.14815 0.66824 0.91542 0.0
H1310 H 0.14202 0.64583 0.84149 0.0
H1311 H 0.16673 0.65617 0.90221 0.0
H1312 H 0.0727 0.61806 0.92369 0.0
H1313 H 0.05715 0.65181 0.89195 0.0
H1314 H 0.04161 0.59866 0.93493 0.0
H1315 H 0.02632 0.63179 0.90371 0.0
H1316 H 0.11266 0.60554 0.95303 0.0
H1317 H 0.10619 0.59873 0.88425 0.0
H1318 H 0.11974 0.69031 0.81193 0.0
H1319 H 0.06547 0.64869 0.81951 0.0
Li1320 Li 0.42269 0.09057 0.42001 0.0
Li1321 Li 0.43689 0.12148 0.41585 0.0
Li1322 Li 0.43004 0.10284 0.38402 0.0
Li1323 Li 0.45464 0.10752 0.41032 0.0
C1324 C 0.396 0.09779 0.4043 0.0
N1325 N 0.36007 0.08515 0.40403 0.0
C1326 C 0.38845 0.10372 0.41954 0.0
C1327 C 0.3853 0.08551 0.38885 0.0
C1328 C 0.37025 0.09715 0.41915 0.0
C1329 C 0.36716 0.07924 0.38902 0.0
C1330 C 0.44291 0.11296 0.4575 0.0
C1331 C 0.45818 0.12523 0.49076 0.0
N1332 N 0.44282 0.12249 0.49965 0.0
C1333 C 0.42726 0.11021 0.46694 0.0
C1334 C 0.45849 0.12046 0.46947 0.0
C1335 C 0.42749 0.11514 0.4883 0.0
C1336 C 0.41526 0.0633 0.44732 0.0
N1337 N 0.40703 0.07061 0.43655 0.0
C1338 C 0.37913 0.04923 0.45106 0.0
C1339 C 0.38929 0.06389 0.43814 0.0
C1340 C 0.38732 0.04145 0.46239 0.0
C1341 C 0.40563 0.04861 0.46029 0.0
H1342 H 0.42938 0.06892 0.4457 0.0
H1343 H 0.38292 0.06981 0.42957 0.0
C1344 C 0.42706 0.14705 0.41532 0.0
N1345 N 0.43784 0.14247 0.42559 0.0
C1346 C 0.42731 0.16262 0.42063 0.0
C1347 C 0.44972 0.16846 0.44716 0.0
C1348 C 0.44912 0.1528 0.4412 0.0
C1349 C 0.43876 0.17359 0.43674 0.0
H1350 H 0.41853 0.13877 0.40262 0.0
H1351 H 0.4579 0.14912 0.44873 0.0
C1352 C 0.42889 0.06787 0.3951 0.0
N1353 N 0.41572 0.03208 0.39017 0.0
C1354 C 0.43956 0.06057 0.39949 0.0
C1355 C 0.41155 0.057 0.38818 0.0
C1356 C 0.43266 0.04245 0.39686 0.0
C1357 C 0.4051 0.03892 0.38586 0.0
C1358 C 0.46167 0.14255 0.38942 0.0
C1359 C 0.45564 0.15084 0.37542 0.0
C1360 C 0.47637 0.15269 0.40234 0.0
C1361 C 0.46441 0.16925 0.3747 0.0
C1362 C 0.48477 0.17107 0.40115 0.0
N1363 N 0.47865 0.1789 0.38748 0.0
C1364 C 0.4147 0.10534 0.34503 0.0
C1365 C 0.43052 0.08988 0.34403 0.0
C1366 C 0.41119 0.10255 0.3231 0.0
N1367 N 0.42422 0.099 0.35489 0.0
C1368 C 0.42739 0.08684 0.32216 0.0
C1369 C 0.41769 0.09329 0.31138 0.0
H1370 H 0.40996 0.11264 0.35417 0.0
H1371 H 0.43826 0.08523 0.35232 0.0
C1372 C 0.48081 0.10143 0.42828 0.0
N1373 N 0.47675 0.10896 0.41186 0.0
C1374 C 0.49693 0.10176 0.42837 0.0
C1375 C 0.50433 0.11778 0.39484 0.0
C1376 C 0.48809 0.11711 0.39537 0.0
C1377 C 0.50886 0.10988 0.41136 0.0
H1378 H 0.47137 0.09489 0.44104 0.0
H1379 H 0.4844 0.1229 0.38251 0.0
O1380 O 0.41383 0.10432 0.4042 0.0
O1381 O 0.44308 0.10831 0.43666 0.0
O1382 O 0.43556 0.08563 0.39715 0.0
O1383 O 0.45296 0.12457 0.39085 0.0
H1384 H 0.39655 0.11326 0.43158 0.0
H1385 H 0.39091 0.08083 0.37687 0.0
H1386 H 0.36421 0.1016 0.43086 0.0
H1387 H 0.35872 0.0697 0.3772 0.0
H1388 H 0.47015 0.13112 0.5002 0.0
H1389 H 0.4151 0.10439 0.45785 0.0
H1390 H 0.4707 0.12267 0.46232 0.0
H1391 H 0.4155 0.11313 0.49584 0.0
H1392 H 0.36506 0.04419 0.45237 0.0
H1393 H 0.41244 0.04281 0.46841 0.0
H1394 H 0.41898 0.16625 0.41174 0.0
H1395 H 0.45874 0.17651 0.45968 0.0
H1396 H 0.45306 0.06885 0.40471 0.0
H1397 H 0.40315 0.06246 0.3847 0.0
H1398 H 0.44079 0.03662 0.40009 0.0
H1399 H 0.39168 0.03033 0.38058 0.0
H1400 H 0.4442 0.14312 0.3654 0.0
H1401 H 0.48109 0.14643 0.41338 0.0
H1402 H 0.45985 0.17587 0.36403 0.0
H1403 H 0.4961 0.17911 0.41115 0.0
H1404 H 0.40358 0.10766 0.31541 0.0
H1405 H 0.43297 0.07998 0.31368 0.0
H1406 H 0.49982 0.09534 0.44129 0.0
H1407 H 0.51322 0.12438 0.38159 0.0
Li1408 Li 0.31129 0.43794 0.91816 0.0
Li1409 Li 0.33018 0.42588 0.9204 0.0
Li1410 Li 0.34298 0.45683 0.91214 0.0
Li1411 Li 0.32467 0.43336 0.88498 0.0
C1412 C 0.32547 0.44021 0.95947 0.0
N1413 N 0.31405 0.43102 0.00124 0.0
C1414 C 0.31304 0.42278 0.96454 0.0
C1415 C 0.33217 0.45296 0.97565 0.0
C1416 C 0.30742 0.41839 0.98575 0.0
C1417 C 0.3262 0.44805 0.99667 0.0
C1418 C 0.29659 0.39801 0.90485 0.0
C1419 C 0.28707 0.36944 0.88923 0.0
N1420 N 0.27436 0.36189 0.90454 0.0
C1421 C 0.28324 0.39001 0.92021 0.0
C1422 C 0.29837 0.3877 0.88903 0.0
C1423 C 0.27222 0.37171 0.91988 0.0
C1424 C 0.27757 0.4316 0.9121 0.0
N1425 N 0.29032 0.43723 0.92735 0.0
C1426 C 0.27218 0.44186 0.95212 0.0
C1427 C 0.28799 0.44236 0.9471 0.0
C1428 C 0.25896 0.43641 0.93649 0.0
C1429 C 0.26173 0.43117 0.9163 0.0
H1430 H 0.27988 0.4277 0.89652 0.0
H1431 H 0.29842 0.44715 0.95883 0.0
C1432 C 0.35053 0.41996 0.94846 0.0
N1433 N 0.33625 0.41081 0.93562 0.0
C1434 C 0.35808 0.41136 0.95896 0.0
C1435 C 0.33548 0.38378 0.94389 0.0
C1436 C 0.32849 0.393 0.93335 0.0
C1437 C 0.35069 0.3931 0.95647 0.0
H1438 H 0.35641 0.43411 0.94994 0.0
H1439 H 0.31722 0.38597 0.92304 0.0
C1440 C 0.32134 0.46917 0.89561 0.0
N1441 N 0.31743 0.49847 0.89915 0.0
C1442 C 0.31717 0.4758 0.87756 0.0
C1443 C 0.32353 0.47742 0.91547 0.0
C1444 C 0.31526 0.49065 0.87968 0.0
C1445 C 0.32148 0.49221 0.91692 0.0
C1446 C 0.35866 0.4329 0.89726 0.0
C1447 C 0.37514 0.44199 0.90723 0.0
C1448 C 0.3534 0.41668 0.88739 0.0
C1449 C 0.38601 0.43453 0.90745 0.0
C1450 C 0.36463 0.40966 0.88798 0.0
N1451 N 0.38056 0.41864 0.89794 0.0
C1452 C 0.37311 0.48494 0.93204 0.0
C1453 C 0.36802 0.48938 0.89583 0.0
C1454 C 0.38905 0.50096 0.93216 0.0
N1455 N 0.36312 0.47947 0.91396 0.0
C1456 C 0.3838 0.50542 0.89523 0.0
C1457 C 0.39472 0.51125 0.91343 0.0
H1458 H 0.36897 0.4766 0.94611 0.0
H1459 H 0.35985 0.48455 0.88166 0.0
C1460 C 0.30724 0.4199 0.84477 0.0
N1461 N 0.32289 0.42918 0.85522 0.0
C1462 C 0.30692 0.4188 0.82237 0.0
C1463 C 0.33878 0.43652 0.82223 0.0
C1464 C 0.33848 0.43723 0.8445 0.0
C1465 C 0.32285 0.42749 0.81084 0.0
H1466 H 0.29504 0.41376 0.85377 0.0
H1467 H 0.3507 0.44461 0.85329 0.0
O1468 O 0.33115 0.4449 0.93883 0.0
O1469 O 0.30733 0.41592 0.90473 0.0
O1470 O 0.32323 0.45465 0.89377 0.0
O1471 O 0.34764 0.43974 0.89739 0.0
H1472 H 0.30786 0.41276 0.95226 0.0
H1473 H 0.3418 0.46652 0.97196 0.0
H1474 H 0.29779 0.40495 0.9899 0.0
H1475 H 0.33122 0.45779 0.00934 0.0
H1476 H 0.28839 0.36128 0.87719 0.0
H1477 H 0.28132 0.39784 0.93217 0.0
H1478 H 0.30842 0.39372 0.8768 0.0
H1479 H 0.26191 0.36532 0.93174 0.0
H1480 H 0.27052 0.44619 0.96777 0.0
H1481 H 0.25176 0.42683 0.90389 0.0
H1482 H 0.3697 0.41893 0.96877 0.0
H1483 H 0.32947 0.36966 0.94165 0.0
H1484 H 0.31544 0.46954 0.86209 0.0
H1485 H 0.32677 0.47247 0.92961 0.0
H1486 H 0.31205 0.49594 0.86584 0.0
H1487 H 0.32311 0.49873 0.93218 0.0
H1488 H 0.37939 0.45457 0.91492 0.0
H1489 H 0.3407 0.40953 0.87956 0.0
H1490 H 0.39874 0.44134 0.91525 0.0
H1491 H 0.36067 0.39705 0.88057 0.0
H1492 H 0.39716 0.50489 0.94645 0.0
H1493 H 0.38757 0.51305 0.88056 0.0
H1494 H 0.29436 0.41181 0.81415 0.0
H1495 H 0.35135 0.44319 0.81399 0.0
Li1496 Li 0.8753 0.31562 0.41596 0.0
Li1497 Li 0.90666 0.33405 0.41991 0.0
Li1498 Li 0.88698 0.34716 0.4169 0.0
Li1499 Li 0.89255 0.33268 0.38539 0.0
C1500 C 0.88095 0.32863 0.45942 0.0
N1501 N 0.86657 0.32165 0.50008 0.0
C1502 C 0.88632 0.3205 0.47454 0.0
C1503 C 0.86839 0.33335 0.46499 0.0
C1504 C 0.87885 0.31706 0.49502 0.0
C1505 C 0.86123 0.32965 0.48562 0.0
C1506 C 0.89834 0.30089 0.40208 0.0
C1507 C 0.91308 0.2859 0.38834 0.0
N1508 N 0.90696 0.27463 0.40529 0.0
C1509 C 0.89223 0.2892 0.41942 0.0
C1510 C 0.90884 0.29924 0.38641 0.0
C1511 C 0.8967 0.27598 0.42071 0.0
C1512 C 0.85119 0.28095 0.40655 0.0
N1513 N 0.85575 0.29292 0.42264 0.0
C1514 C 0.83307 0.2714 0.44508 0.0
C1515 C 0.84697 0.28851 0.44165 0.0
C1516 C 0.8281 0.25876 0.42872 0.0
C1517 C 0.83733 0.26376 0.40921 0.0
H1518 H 0.85836 0.28483 0.39155 0.0
H1519 H 0.85064 0.29813 0.45422 0.0
C1520 C 0.93643 0.35477 0.44287 0.0
N1521 N 0.9274 0.33828 0.43449 0.0
C1522 C 0.95123 0.35968 0.45558 0.0
C1523 C 0.94733 0.33055 0.45075 0.0
C1524 C 0.93264 0.32624 0.43794 0.0
C1525 C 0.95667 0.3474 0.46001 0.0
H1526 H 0.9319 0.36403 0.43992 0.0
H1527 H 0.92532 0.3132 0.43123 0.0
C1528 C 0.85259 0.31896 0.39168 0.0
N1529 N 0.81748 0.29508 0.38379 0.0
C1530 C 0.84755 0.30973 0.3723 0.0
C1531 C 0.83978 0.31618 0.40698 0.0
C1532 C 0.82972 0.29769 0.36863 0.0
C1533 C 0.8221 0.304 0.40272 0.0
C1534 C 0.92553 0.3629 0.39136 0.0
C1535 C 0.93329 0.38102 0.38769 0.0
C1536 C 0.93397 0.35386 0.38429 0.0
C1537 C 0.94943 0.38982 0.37692 0.0
C1538 C 0.95011 0.36314 0.37361 0.0
N1539 N 0.95744 0.38077 0.37017 0.0
C1540 C 0.89946 0.38096 0.433 0.0
C1541 C 0.86985 0.36722 0.4208 0.0
C1542 C 0.89948 0.39666 0.43689 0.0
N1543 N 0.88488 0.36679 0.42484 0.0
C1544 C 0.86924 0.38262 0.42459 0.0
C1545 C 0.88432 0.39774 0.43233 0.0
H1546 H 0.91128 0.38023 0.43577 0.0
H1547 H 0.85852 0.35577 0.41411 0.0
C1548 C 0.89184 0.31931 0.34408 0.0
N1549 N 0.89522 0.33392 0.35542 0.0
C1550 C 0.89274 0.31994 0.32174 0.0
C1551 C 0.90081 0.35069 0.32333 0.0
C1552 C 0.89971 0.34945 0.34561 0.0
C1553 C 0.89711 0.33576 0.31109 0.0
H1554 H 0.88798 0.30707 0.35238 0.0
H1555 H 0.90216 0.36078 0.35511 0.0
O1556 O 0.88835 0.33239 0.43946 0.0
O1557 O 0.89384 0.3137 0.40015 0.0
O1558 O 0.87002 0.33052 0.39574 0.0
O1559 O 0.90966 0.35409 0.40171 0.0
H1560 H 0.89614 0.31691 0.47048 0.0
H1561 H 0.86413 0.33968 0.45348 0.0
H1562 H 0.88285 0.31075 0.5069 0.0
H1563 H 0.85144 0.33315 0.49014 0.0
H1564 H 0.92122 0.28449 0.37635 0.0
H1565 H 0.88434 0.29044 0.43189 0.0
H1566 H 0.91369 0.30819 0.37291 0.0
H1567 H 0.8921 0.26685 0.43403 0.0
H1568 H 0.82637 0.26807 0.46042 0.0
H1569 H 0.83373 0.25457 0.396 0.0
H1570 H 0.95826 0.37295 0.46198 0.0
H1571 H 0.95102 0.32065 0.45385 0.0
H1572 H 0.85729 0.31174 0.36029 0.0
H1573 H 0.84349 0.32313 0.42212 0.0
H1574 H 0.82563 0.2904 0.35374 0.0
H1575 H 0.81205 0.30159 0.41448 0.0
H1576 H 0.92687 0.38817 0.39305 0.0
H1577 H 0.92812 0.33984 0.38701 0.0
H1578 H 0.95559 0.40384 0.37392 0.0
H1579 H 0.9568 0.35632 0.36804 0.0
H1580 H 0.91149 0.40802 0.44254 0.0
H1581 H 0.8572 0.38278 0.42111 0.0
H1582 H 0.88952 0.30806 0.3129 0.0
H1583 H 0.90441 0.36318 0.31577 0.0
Li1584 Li 0.10892 0.4553 0.58692 0.0
Li1585 Li 0.10337 0.43133 0.61328 0.0
Li1586 Li 0.12194 0.43709 0.57974 0.0
Li1587 Li 0.09052 0.42414 0.57753 0.0
C1588 C 0.13777 0.469 0.61258 0.0
N1589 N 0.16111 0.50234 0.62778 0.0
C1590 C 0.13817 0.47275 0.63441 0.0
C1591 C 0.1493 0.48215 0.59849 0.0
C1592 C 0.15005 0.48971 0.64178 0.0
C1593 C 0.16098 0.49894 0.60649 0.0
C1594 C 0.06923 0.43203 0.60099 0.0
C1595 C 0.03932 0.40968 0.60906 0.0
N1596 N 0.03344 0.42002 0.60029 0.0
C1597 C 0.06293 0.4425 0.59219 0.0
C1598 C 0.05738 0.41554 0.60964 0.0
C1599 C 0.04477 0.43617 0.59195 0.0
C1600 C 0.11145 0.48466 0.565 0.0
N1601 N 0.11165 0.4781 0.58467 0.0
C1602 C 0.11576 0.50432 0.60167 0.0
C1603 C 0.11342 0.48738 0.60287 0.0
C1604 C 0.11569 0.51147 0.58158 0.0
C1605 C 0.11334 0.50142 0.56308 0.0
H1606 H 0.10971 0.47684 0.55083 0.0
H1607 H 0.113 0.48161 0.61832 0.0
C1608 C 0.1064 0.41605 0.65221 0.0
N1609 N 0.10014 0.42576 0.64263 0.0
C1610 C 0.10382 0.4125 0.67417 0.0
C1611 C 0.08851 0.42907 0.67575 0.0
C1612 C 0.09134 0.43225 0.65384 0.0
C1613 C 0.0948 0.4191 0.68622 0.0
H1614 H 0.11338 0.4111 0.6428 0.0
H1615 H 0.08671 0.4401 0.64577 0.0
C1616 C 0.1156 0.44479 0.54023 0.0
N1617 N 0.13039 0.44729 0.50035 0.0
C1618 C 0.10764 0.4307 0.52583 0.0
C1619 C 0.13099 0.46019 0.53431 0.0
C1620 C 0.11534 0.43222 0.50575 0.0
C1621 C 0.1383 0.46118 0.51409 0.0
C1622 C 0.09552 0.39636 0.59237 0.0
C1623 C 0.09945 0.38764 0.57642 0.0
C1624 C 0.08339 0.3866 0.60844 0.0
C1625 C 0.09104 0.36924 0.57671 0.0
C1626 C 0.07527 0.36821 0.60817 0.0
N1627 N 0.07922 0.35999 0.59244 0.0
C1628 C 0.15765 0.44818 0.58028 0.0
C1629 C 0.14276 0.42871 0.55145 0.0
C1630 C 0.17368 0.45021 0.57352 0.0
N1631 N 0.14265 0.43782 0.56909 0.0
C1632 C 0.15858 0.43022 0.54418 0.0
C1633 C 0.17431 0.44126 0.5552 0.0
H1634 H 0.15718 0.4548 0.59463 0.0
H1635 H 0.13061 0.42029 0.54303 0.0
C1636 C 0.06376 0.41873 0.55069 0.0
N1637 N 0.0695 0.40928 0.56196 0.0
C1638 C 0.04772 0.41021 0.53989 0.0
C1639 C 0.0442 0.38222 0.55122 0.0
C1640 C 0.06018 0.39133 0.56227 0.0
C1641 C 0.03774 0.39177 0.54024 0.0
H1642 H 0.07151 0.43297 0.55058 0.0
H1643 H 0.06483 0.38399 0.57127 0.0
O1644 O 0.12628 0.45245 0.60508 0.0
O1645 O 0.08693 0.43786 0.601 0.0
O1646 O 0.10821 0.44361 0.5599 0.0
O1647 O 0.1039 0.41437 0.5926 0.0
H1648 H 0.12938 0.46269 0.64553 0.0
H1649 H 0.14919 0.47942 0.58157 0.0
H1650 H 0.15049 0.49282 0.65863 0.0
H1651 H 0.16994 0.50926 0.59577 0.0
H1652 H 0.02998 0.39689 0.61557 0.0
H1653 H 0.07197 0.45531 0.58546 0.0
H1654 H 0.06209 0.40732 0.61655 0.0
H1655 H 0.03968 0.44407 0.58509 0.0
H1656 H 0.11723 0.51161 0.61629 0.0
H1657 H 0.11312 0.50653 0.54734 0.0
H1658 H 0.10877 0.40466 0.6816 0.0
H1659 H 0.08183 0.43474 0.68446 0.0
H1660 H 0.09572 0.41868 0.53017 0.0
H1661 H 0.13724 0.47125 0.54522 0.0
H1662 H 0.10937 0.4214 0.49446 0.0
H1663 H 0.15025 0.47299 0.50932 0.0
H1664 H 0.10886 0.395 0.56394 0.0
H1665 H 0.0802 0.39311 0.62092 0.0
H1666 H 0.09392 0.36231 0.56444 0.0
H1667 H 0.06581 0.36048 0.62046 0.0
H1668 H 0.18545 0.45842 0.58283 0.0
H1669 H 0.15856 0.42298 0.5301 0.0
H1670 H 0.04315 0.41794 0.53134 0.0
H1671 H 0.03675 0.36794 0.55173 0.0
Li1672 Li 0.64947 0.11018 0.08686 0.0
Li1673 Li 0.66698 0.10299 0.11398 0.0
Li1674 Li 0.68148 0.12248 0.08284 0.0
Li1675 Li 0.66234 0.09179 0.07751 0.0
C1676 C 0.67595 0.14389 0.10897 0.0
N1677 N 0.69137 0.18005 0.11254 0.0
C1678 C 0.68613 0.15256 0.12694 0.0
C1679 C 0.67361 0.15356 0.09279 0.0
C1680 C 0.6938 0.17086 0.12847 0.0
C1681 C 0.68154 0.17185 0.09488 0.0
C1682 C 0.63431 0.06922 0.1004 0.0
C1683 C 0.63144 0.04111 0.10929 0.0
N1684 N 0.61485 0.03284 0.10097 0.0
C1685 C 0.61724 0.06047 0.09196 0.0
C1686 C 0.64149 0.05951 0.10918 0.0
C1687 C 0.60761 0.04205 0.09239 0.0
C1688 C 0.61934 0.10561 0.06595 0.0
N1689 N 0.63006 0.1135 0.08302 0.0
C1690 C 0.61195 0.12504 0.09494 0.0
C1691 C 0.62675 0.12314 0.0974 0.0
C1692 C 0.60048 0.1169 0.07755 0.0
C1693 C 0.60442 0.1072 0.06283 0.0
H1694 H 0.62234 0.09797 0.05486 0.0
H1695 H 0.63547 0.12911 0.11093 0.0
C1696 C 0.68427 0.10436 0.15277 0.0
N1697 N 0.66838 0.09854 0.14316 0.0
C1698 C 0.68512 0.10152 0.17467 0.0
C1699 C 0.65322 0.08653 0.17609 0.0
C1700 C 0.65301 0.08971 0.15424 0.0
C1701 C 0.66943 0.0926 0.18662 0.0
H1702 H 0.69626 0.11137 0.14346 0.0
H1703 H 0.64059 0.08536 0.14611 0.0
C1704 C 0.66476 0.11499 0.04014 0.0
N1705 N 0.66889 0.12283 0.99691 0.0
C1706 C 0.67358 0.10889 0.0271 0.0
C1707 C 0.65805 0.12506 0.03122 0.0
C1708 C 0.67551 0.11299 0.00527 0.0
C1709 C 0.66029 0.12891 0.00933 0.0
C1710 C 0.69648 0.09823 0.08889 0.0
C1711 C 0.70597 0.10417 0.06976 0.0
C1712 C 0.69935 0.08725 0.10251 0.0
C1713 C 0.71809 0.09881 0.06444 0.0
C1714 C 0.7116 0.0822 0.09662 0.0
N1715 N 0.72062 0.08803 0.07786 0.0
C1716 C 0.71582 0.14933 0.08964 0.0
C1717 C 0.70528 0.1506 0.05508 0.0
C1718 C 0.73202 0.16431 0.08531 0.0
N1719 N 0.70285 0.14285 0.07463 0.0
C1720 C 0.72135 0.16549 0.04996 0.0
C1721 C 0.73497 0.17259 0.06521 0.0
H1722 H 0.71346 0.14292 0.10508 0.0
H1723 H 0.69482 0.14537 0.04342 0.0
C1724 C 0.64246 0.06784 0.04709 0.0
N1725 N 0.65678 0.07223 0.05955 0.0
C1726 C 0.63675 0.05416 0.03234 0.0
C1727 C 0.66074 0.04974 0.04335 0.0
C1728 C 0.66584 0.0634 0.05818 0.0
C1729 C 0.64605 0.04502 0.03009 0.0
H1730 H 0.63548 0.07507 0.04864 0.0
H1731 H 0.67705 0.06692 0.06837 0.0
O1732 O 0.66833 0.126 0.10718 0.0
O1733 O 0.64404 0.08721 0.09989 0.0
O1734 O 0.66255 0.11104 0.06151 0.0
O1735 O 0.68459 0.1033 0.0945 0.0
H1736 H 0.68806 0.1452 0.13957 0.0
H1737 H 0.66583 0.14701 0.07872 0.0
H1738 H 0.70168 0.17777 0.14231 0.0
H1739 H 0.67988 0.17953 0.08247 0.0
H1740 H 0.63684 0.03341 0.11597 0.0
H1741 H 0.61155 0.06785 0.08507 0.0
H1742 H 0.65475 0.06613 0.11566 0.0
H1743 H 0.59439 0.03508 0.08588 0.0
H1744 H 0.60927 0.1324 0.10685 0.0
H1745 H 0.59605 0.10087 0.04909 0.0
H1746 H 0.69787 0.10629 0.18216 0.0
H1747 H 0.64085 0.07986 0.18476 0.0
H1748 H 0.67885 0.10107 0.03373 0.0
H1749 H 0.65128 0.12997 0.04114 0.0
H1750 H 0.68227 0.10834 0.99496 0.0
H1751 H 0.65519 0.13673 0.00222 0.0
H1752 H 0.70399 0.11278 0.05914 0.0
H1753 H 0.69213 0.08261 0.11742 0.0
H1754 H 0.7255 0.10324 0.04965 0.0
H1755 H 0.71391 0.07364 0.10696 0.0
H1756 H 0.74199 0.16952 0.09773 0.0
H1757 H 0.72308 0.17134 0.03422 0.0
H1758 H 0.62507 0.05072 0.02294 0.0
H1759 H 0.66837 0.04313 0.04211 0.0
Li1760 Li 0.55917 0.66198 0.61023 0.0
Li1761 Li 0.53595 0.64883 0.58254 0.0
Li1762 Li 0.56736 0.66051 0.57318 0.0
Li1763 Li 0.55703 0.68045 0.58174 0.0
C1764 C 0.56116 0.63205 0.59856 0.0
N1765 N 0.57933 0.6151 0.61027 0.0
C1766 C 0.55293 0.61368 0.59745 0.0
C1767 C 0.57863 0.64181 0.60559 0.0
C1768 C 0.56234 0.60535 0.60346 0.0
C1769 C 0.5876 0.633 0.61143 0.0
C1770 C 0.52681 0.6711 0.60651 0.0
C1771 C 0.50544 0.67732 0.59056 0.0
N1772 N 0.50111 0.68043 0.6104 0.0
C1773 C 0.52222 0.67439 0.62672 0.0
C1774 C 0.5184 0.67259 0.58827 0.0
C1775 C 0.50916 0.67907 0.62836 0.0
C1776 C 0.57184 0.67598 0.65112 0.0
N1777 N 0.56311 0.66076 0.63974 0.0
C1778 C 0.55678 0.64356 0.6716 0.0
C1779 C 0.55571 0.64474 0.64942 0.0
C1780 C 0.56523 0.65904 0.68397 0.0
C1781 C 0.57307 0.67543 0.6734 0.0
H1782 H 0.57731 0.68853 0.64294 0.0
H1783 H 0.54853 0.63285 0.64001 0.0
C1784 C 0.50775 0.62164 0.55923 0.0
N1785 N 0.51256 0.63044 0.57821 0.0
C1786 C 0.49106 0.60671 0.55694 0.0
C1787 C 0.4846 0.61045 0.59364 0.0
C1788 C 0.50137 0.6253 0.59519 0.0
C1789 C 0.47939 0.60075 0.57446 0.0
H1790 H 0.5171 0.62588 0.54614 0.0
H1791 H 0.50568 0.63243 0.61018 0.0
C1792 C 0.59487 0.69416 0.58879 0.0
N1793 N 0.62856 0.72118 0.57978 0.0
C1794 C 0.59826 0.70373 0.56976 0.0
C1795 C 0.60857 0.69839 0.60332 0.0
C1796 C 0.61539 0.71733 0.56547 0.0
C1797 C 0.62553 0.71208 0.59844 0.0
C1798 C 0.5483 0.66806 0.53731 0.0
C1799 C 0.56356 0.67671 0.52479 0.0
C1800 C 0.53203 0.66413 0.52853 0.0
C1801 C 0.56233 0.68153 0.5038 0.0
C1802 C 0.53136 0.66918 0.50747 0.0
N1803 N 0.5464 0.67771 0.49565 0.0
C1804 C 0.57346 0.64475 0.53878 0.0
C1805 C 0.59987 0.66425 0.55714 0.0
C1806 C 0.58285 0.64099 0.52372 0.0
N1807 N 0.58206 0.65632 0.5549 0.0
C1808 C 0.60983 0.66088 0.54239 0.0
C1809 C 0.6013 0.64918 0.52533 0.0
H1810 H 0.55925 0.63852 0.5376 0.0
H1811 H 0.60638 0.67317 0.57031 0.0
C1812 C 0.56563 0.7139 0.59459 0.0
N1813 N 0.56024 0.70325 0.57709 0.0
C1814 C 0.56908 0.73122 0.59307 0.0
C1815 C 0.56142 0.72631 0.55548 0.0
C1816 C 0.55802 0.70905 0.55777 0.0
C1817 C 0.56704 0.73765 0.57328 0.0
H1818 H 0.56728 0.70889 0.60974 0.0
H1819 H 0.55375 0.70044 0.54406 0.0
O1820 O 0.55211 0.64035 0.59261 0.0
O1821 O 0.53968 0.66668 0.60466 0.0
O1822 O 0.57823 0.68077 0.5934 0.0
O1823 O 0.54915 0.66313 0.5579 0.0
H1824 H 0.53941 0.60595 0.592 0.0
H1825 H 0.58522 0.65604 0.60654 0.0
H1826 H 0.55614 0.59113 0.60271 0.0
H1827 H 0.60112 0.64038 0.6169 0.0
H1828 H 0.49883 0.67855 0.57658 0.0
H1829 H 0.52868 0.67334 0.64099 0.0
H1830 H 0.52193 0.67021 0.57253 0.0
H1831 H 0.50544 0.68163 0.64391 0.0
H1832 H 0.55076 0.63065 0.67899 0.0
H1833 H 0.57946 0.6877 0.68226 0.0
H1834 H 0.48763 0.59948 0.54198 0.0
H1835 H 0.47594 0.60639 0.60745 0.0
H1836 H 0.58778 0.70076 0.55848 0.0
H1837 H 0.60612 0.69112 0.61816 0.0
H1838 H 0.61821 0.72484 0.55079 0.0
H1839 H 0.63628 0.71547 0.6095 0.0
H1840 H 0.57623 0.67965 0.53114 0.0
H1841 H 0.52004 0.65726 0.53786 0.0
H1842 H 0.57405 0.68827 0.49396 0.0
H1843 H 0.51887 0.66629 0.50052 0.0
H1844 H 0.5757 0.63157 0.51113 0.0
H1845 H 0.62402 0.66747 0.54421 0.0
H1846 H 0.57308 0.7394 0.6073 0.0
H1847 H 0.55985 0.73077 0.53988 0.0
Li1848 Li 0.89045 0.56476 0.10795 0.0
Li1849 Li 0.88522 0.54076 0.08283 0.0
Li1850 Li 0.90263 0.57259 0.07124 0.0
Li1851 Li 0.87095 0.55775 0.07543 0.0
C1852 C 0.92354 0.56495 0.10398 0.0
N1853 N 0.95545 0.57493 0.12375 0.0
C1854 C 0.92726 0.55217 0.11173 0.0
C1855 C 0.9362 0.5828 0.10601 0.0
C1856 C 0.94342 0.55748 0.12177 0.0
C1857 C 0.95222 0.58758 0.11612 0.0
C1858 C 0.85707 0.52672 0.10972 0.0
C1859 C 0.83556 0.49587 0.10553 0.0
N1860 N 0.83555 0.49369 0.12711 0.0
C1861 C 0.85674 0.5242 0.13187 0.0
C1862 C 0.8463 0.51247 0.09644 0.0
C1863 C 0.84581 0.50739 0.14035 0.0
C1864 C 0.88905 0.58142 0.14684 0.0
N1865 N 0.89389 0.5704 0.1376 0.0
C1866 C 0.90236 0.56443 0.17154 0.0
C1867 C 0.90042 0.56196 0.14945 0.0
C1868 C 0.89725 0.57549 0.18168 0.0
C1869 C 0.89071 0.58424 0.169 0.0
H1870 H 0.88358 0.58771 0.13707 0.0
H1871 H 0.90364 0.55286 0.14183 0.0
C1872 C 0.8847 0.5111 0.06324 0.0
N1873 N 0.88415 0.51855 0.08212 0.0
C1874 C 0.88504 0.4953 0.06312 0.0
C1875 C 0.88376 0.49499 0.10183 0.0
C1876 C 0.8837 0.51086 0.1012 0.0
C1877 C 0.88474 0.4871 0.08264 0.0
H1878 H 0.88528 0.51765 0.0483 0.0
H1879 H 0.88361 0.51723 0.11599 0.0
C1880 C 0.89713 0.59928 0.08853 0.0
N1881 N 0.91408 0.63566 0.09125 0.0
C1882 C 0.89161 0.60876 0.07582 0.0
C1883 C 0.91104 0.6083 0.10295 0.0
C1884 C 0.9004 0.62714 0.07733 0.0
C1885 C 0.9195 0.62669 0.104 0.0
C1886 C 0.87561 0.54883 0.03639 0.0
C1887 C 0.88113 0.56237 0.0213 0.0
C1888 C 0.86074 0.53244 0.03224 0.0
C1889 C 0.87148 0.55935 0.00239 0.0
C1890 C 0.85143 0.52995 0.01316 0.0
N1891 N 0.85694 0.54335 -0.00124 0.0
C1892 C 0.93534 0.58417 0.05272 0.0
C1893 C 0.92391 0.60303 0.04498 0.0
C1894 C 0.95057 0.5949 0.04105 0.0
N1895 N 0.92254 0.58852 0.05478 0.0
C1896 C 0.93888 0.61407 0.03285 0.0
C1897 C 0.95248 0.61008 0.03098 0.0
H1898 H 0.93367 0.57225 0.06008 0.0
H1899 H 0.91331 0.60591 0.04624 0.0
C1900 C 0.83432 0.54387 0.07342 0.0
N1901 N 0.84987 0.55633 0.06484 0.0
C1902 C 0.81849 0.54248 0.06673 0.0
C1903 C 0.83492 0.56697 0.04261 0.0
C1904 C 0.85047 0.56772 0.04959 0.0
C1905 C 0.8187 0.55422 0.05128 0.0
H1906 H 0.83418 0.53521 0.08579 0.0
H1907 H 0.863 0.57749 0.04298 0.0
O1908 O 0.90781 0.55992 0.09391 0.0
O1909 O 0.86774 0.54309 0.10114 0.0
O1910 O 0.8886 0.58126 0.08728 0.0
O1911 O 0.8848 0.55158 0.05507 0.0
H1912 H 0.91776 0.5383 0.11006 0.0
H1913 H 0.93387 0.59286 0.09947 0.0
H1914 H 0.9464 0.54772 0.12793 0.0
H1915 H 0.96212 0.60135 0.11776 0.0
H1916 H 0.82724 0.48472 0.09542 0.0
H1917 H 0.8648 0.5351 0.14243 0.0
H1918 H 0.84632 0.5142 0.07929 0.0
H1919 H 0.84547 0.50525 0.15746 0.0
H1920 H 0.90763 0.55756 0.1806 0.0
H1921 H 0.88641 0.59271 0.1762 0.0
H1922 H 0.88604 0.48986 0.04794 0.0
H1923 H 0.8832 0.48907 0.11725 0.0
H1924 H 0.88071 0.60204 0.06481 0.0
H1925 H 0.91514 0.6012 0.11341 0.0
H1926 H 0.89634 0.63464 0.06745 0.0
H1927 H 0.93033 0.63382 0.11504 0.0
H1928 H 0.89264 0.57511 0.02424 0.0
H1929 H 0.85642 0.52176 0.04363 0.0
H1930 H 0.87553 0.56974 0.99063 0.0
H1931 H 0.83984 0.51735 0.00978 0.0
H1932 H 0.96059 0.59115 0.03953 0.0
H1933 H 0.93984 0.62559 0.02512 0.0
H1934 H 0.80626 0.5327 0.07411 0.0
H1935 H 0.83556 0.57626 0.03068 0.0
Li1936 Li 0.32653 0.89347 0.61269 0.0
Li1937 Li 0.34328 0.88614 0.58603 0.0
Li1938 Li 0.33188 0.90611 0.57638 0.0
Li1939 Li 0.31186 0.87477 0.58012 0.0
C1940 C 0.36034 0.92609 0.60489 0.0
N1941 N 0.38272 0.96079 0.61631 0.0
C1942 C 0.3786 0.93326 0.60352 0.0
C1943 C 0.35343 0.93652 0.61208 0.0
C1944 C 0.3897 0.95085 0.60938 0.0
C1945 C 0.36498 0.95405 0.61777 0.0
C1946 C 0.32358 0.85483 0.60847 0.0
C1947 C 0.32123 0.82776 0.59573 0.0
N1948 N 0.32478 0.82436 0.61584 0.0
C1949 C 0.3271 0.85105 0.62903 0.0
C1950 C 0.32055 0.8431 0.59168 0.0
C1951 C 0.32769 0.83559 0.63242 0.0
C1952 C 0.30836 0.89069 0.65111 0.0
N1953 N 0.32451 0.8969 0.64202 0.0
C1954 C 0.33872 0.90701 0.67582 0.0
C1955 C 0.33954 0.90497 0.6538 0.0
C1956 C 0.32222 0.90037 0.68587 0.0
C1957 C 0.30689 0.89231 0.67318 0.0
H1958 H 0.29663 0.88416 0.64126 0.0
H1959 H 0.35218 0.90959 0.64612 0.0
C1960 C 0.37193 0.88569 0.56549 0.0
N1961 N 0.363 0.88293 0.58423 0.0
C1962 C 0.38792 0.88572 0.56508 0.0
C1963 C 0.38482 0.87955 0.60311 0.0
C1964 C 0.36904 0.87982 0.60282 0.0
C1965 C 0.39472 0.88294 0.58418 0.0
H1966 H 0.36699 0.88856 0.55106 0.0
H1967 H 0.3619 0.87816 0.61757 0.0
C1968 C 0.29782 0.90006 0.59071 0.0
N1969 N 0.27377 0.91156 0.58677 0.0
C1970 C 0.28547 0.89373 0.57407 0.0
C1971 C 0.29787 0.91212 0.60543 0.0
C1972 C 0.27343 0.89973 0.57234 0.0
C1973 C 0.28564 0.91782 0.60312 0.0
C1974 C 0.32688 0.88071 0.53897 0.0
C1975 C 0.32002 0.88836 0.52517 0.0
C1976 C 0.32903 0.86679 0.53177 0.0
C1977 C 0.31524 0.88179 0.50435 0.0
C1978 C 0.32404 0.86057 0.51086 0.0
N1979 N 0.31731 0.86813 0.4977 0.0
C1980 C 0.35561 0.93623 0.55541 0.0
C1981 C 0.32729 0.93353 0.5569 0.0
C1982 C 0.36258 0.95259 0.54547 0.0
N1983 N 0.33836 0.92724 0.56127 0.0
C1984 C 0.33365 0.94977 0.54664 0.0
C1985 C 0.35157 0.95957 0.54113 0.0
H1986 H 0.36401 0.93074 0.55873 0.0
H1987 H 0.31359 0.92612 0.5614 0.0
C1988 C 0.27939 0.84781 0.58989 0.0
N1989 N 0.28974 0.85529 0.57243 0.0
C1990 C 0.26219 0.83393 0.58752 0.0
C1991 C 0.26657 0.83547 0.54914 0.0
C1992 C 0.28373 0.84946 0.55226 0.0
C1993 C 0.25556 0.82766 0.56694 0.0
H1994 H 0.28451 0.85283 0.6057 0.0
H1995 H 0.292 0.85571 0.53856 0.0
O1996 O 0.34931 0.90897 0.59899 0.0
O1997 O 0.32318 0.87001 0.60486 0.0
O1998 O 0.30956 0.89419 0.59287 0.0
O1999 O 0.33186 0.8871 0.55928 0.0
H2000 H 0.3841 0.92532 0.59793 0.0
H2001 H 0.33932 0.93114 0.61314 0.0
H2002 H 0.40387 0.95659 0.60839 0.0
H2003 H 0.35984 0.96231 0.62331 0.0
H2004 H 0.31895 0.81856 0.58288 0.0
H2005 H 0.32946 0.86005 0.64218 0.0
H2006 H 0.31773 0.84583 0.5757 0.0
H2007 H 0.33049 0.83252 0.64823 0.0
H2008 H 0.35088 0.91356 0.6849 0.0
H2009 H 0.29391 0.88682 0.68029 0.0
H2010 H 0.3952 0.88864 0.55018 0.0
H2011 H 0.38938 0.87709 0.61815 0.0
H2012 H 0.28526 0.8844 0.56255 0.0
H2013 H 0.30724 0.917 0.61851 0.0
H2014 H 0.26382 0.895 0.55952 0.0
H2015 H 0.28555 0.92719 0.61435 0.0
H2016 H 0.31835 0.8992 0.53051 0.0
H2017 H 0.33447 0.86085 0.54223 0.0
H2018 H 0.30986 0.88752 0.49348 0.0
H2019 H 0.32555 0.84974 0.50508 0.0
H2020 H 0.37641 0.95965 0.54105 0.0
H2021 H 0.32478 0.95475 0.54341 0.0
H2022 H 0.25421 0.82806 0.60169 0.0
H2023 H 0.26186 0.83104 0.53301 0.0
Li2024 Li 0.4309 0.32842 0.11014 0.0
Li2025 Li 0.45385 0.34357 0.08284 0.0
Li2026 Li 0.42158 0.33085 0.074 0.0
Li2027 Li 0.43385 0.31157 0.07955 0.0
C2028 C 0.4332 0.36071 0.10673 0.0
N2029 N 0.42595 0.38195 0.1325 0.0
C2030 C 0.44699 0.37599 0.11582 0.0
C2031 C 0.41574 0.35631 0.11055 0.0
C2032 C 0.44305 0.38654 0.12886 0.0
C2033 C 0.41234 0.3672 0.12367 0.0
C2034 C 0.46611 0.32432 0.10567 0.0
C2035 C 0.48917 0.31977 0.09157 0.0
N2036 N 0.49705 0.3236 0.11117 0.0
C2037 C 0.47437 0.32813 0.12569 0.0
C2038 C 0.47351 0.32005 0.08847 0.0
C2039 C 0.49003 0.32774 0.12813 0.0
C2040 C 0.41286 0.31443 0.14939 0.0
N2041 N 0.42697 0.32829 0.13995 0.0
C2042 C 0.43773 0.34217 0.17387 0.0
C2043 C 0.43936 0.34197 0.15166 0.0
C2044 C 0.42341 0.32795 0.18421 0.0
C2045 C 0.41079 0.31399 0.17162 0.0
H2046 H 0.40345 0.30351 0.13971 0.0
H2047 H 0.45069 0.35259 0.14375 0.0
C2048 C 0.48213 0.37091 0.05953 0.0
N2049 N 0.47684 0.36293 0.07896 0.0
C2050 C 0.49873 0.38596 0.05722 0.0
C2051 C 0.50397 0.38429 0.09498 0.0
C2052 C 0.48733 0.36928 0.09653 0.0
C2053 C 0.50978 0.39295 0.07518 0.0
H2054 H 0.4733 0.36583 0.04595 0.0
H2055 H 0.48258 0.36292 0.11188 0.0
C2056 C 0.39442 0.299 0.09038 0.0
N2057 N 0.35837 0.27732 0.08639 0.0
C2058 C 0.3876 0.28407 0.07725 0.0
C2059 C 0.38292 0.3028 0.10164 0.0
C2060 C 0.36932 0.27329 0.07542 0.0
C2061 C 0.36473 0.29171 0.09935 0.0
C2062 C 0.44324 0.32591 0.03713 0.0
C2063 C 0.42925 0.31813 0.02258 0.0
C2064 C 0.46006 0.32952 0.03086 0.0
C2065 C 0.43231 0.31399 0.00198 0.0
C2066 C 0.46257 0.32516 0.01012 0.0
N2067 N 0.44876 0.31755 0.99623 0.0
C2068 C 0.41164 0.35254 0.05404 0.0
C2069 C 0.39101 0.32231 0.04816 0.0
C2070 C 0.40196 0.35753 0.04106 0.0
N2071 N 0.40607 0.33521 0.05734 0.0
C2072 C 0.38083 0.32671 0.03509 0.0
C2073 C 0.38643 0.34453 0.03124 0.0
H2074 H 0.42381 0.36252 0.06126 0.0
H2075 H 0.38711 0.30863 0.05042 0.0
C2076 C 0.42643 0.27823 0.08995 0.0
N2077 N 0.4315 0.28939 0.07294 0.0
C2078 C 0.42348 0.26115 0.08749 0.0
C2079 C 0.43122 0.26738 0.05004 0.0
C2080 C 0.43394 0.28433 0.05321 0.0
C2081 C 0.42584 0.25556 0.06731 0.0
H2082 H 0.42459 0.28264 0.10543 0.0
H2083 H 0.43788 0.29326 0.03985 0.0
O2084 O 0.43682 0.35024 0.09393 0.0
O2085 O 0.45083 0.32475 0.10303 0.0
O2086 O 0.41227 0.30954 0.09263 0.0
O2087 O 0.44053 0.3302 0.05729 0.0
H2088 H 0.46058 0.37962 0.11289 0.0
H2089 H 0.40495 0.34467 0.10338 0.0
H2090 H 0.45357 0.39836 0.13609 0.0
H2091 H 0.39889 0.36395 0.1268 0.0
H2092 H 0.49506 0.3165 0.07841 0.0
H2093 H 0.46876 0.33144 0.13915 0.0
H2094 H 0.46722 0.31698 0.07293 0.0
H2095 H 0.49661 0.33072 0.14351 0.0
H2096 H 0.44767 0.35332 0.18282 0.0
H2097 H 0.39973 0.30259 0.1789 0.0
H2098 H 0.50259 0.3924 0.04176 0.0
H2099 H 0.51212 0.38917 0.1092 0.0
H2100 H 0.39631 0.28091 0.06845 0.0
H2101 H 0.38798 0.31414 0.11213 0.0
H2102 H 0.36385 0.26174 0.06525 0.0
H2103 H 0.35567 0.29452 0.10793 0.0
H2104 H 0.41615 0.31524 0.02718 0.0
H2105 H 0.47105 0.33556 0.04189 0.0
H2106 H 0.4216 0.30793 0.99056 0.0
H2107 H 0.4755 0.32781 0.00507 0.0
H2108 H 0.40662 0.37143 0.03868 0.0
H2109 H 0.36904 0.31633 0.02757 0.0
H2110 H 0.41959 0.25249 0.10128 0.0
H2111 H 0.43309 0.26349 0.0342 0.0
H2112 H 0.42038 0.11772 0.28252 0.0
H2113 H 0.41008 0.0642 0.28737 0.0
H2114 H 0.40989 0.06198 0.24836 0.0
H2115 H 0.41429 0.07581 0.21298 0.0
H2116 H 0.4243 0.12918 0.20814 0.0
H2117 H 0.42252 0.13075 0.24711 0.0
C2118 C 0.41771 0.10544 0.27506 0.0
C2119 C 0.4154 0.09121 0.28783 0.0
C2120 C 0.41762 0.10425 0.25266 0.0
C2121 C 0.4122 0.07546 0.27789 0.0
C2122 C 0.41203 0.07415 0.2556 0.0
C2123 C 0.41606 0.08776 0.22051 0.0
C2124 C 0.41957 0.1024 0.20782 0.0
C2125 C 0.41508 0.08858 0.24285 0.0
C2126 C 0.42152 0.11772 0.21764 0.0
C2127 C 0.42058 0.11865 0.23989 0.0
H2128 H 0.33404 0.4428 0.71173 0.0
H2129 H 0.29631 0.38714 0.70845 0.0
H2130 H 0.29433 0.38573 0.74765 0.0
H2131 H 0.30405 0.40035 0.78294 0.0
H2132 H 0.34195 0.45606 0.78546 0.0
H2133 H 0.34335 0.45735 0.74647 0.0
C2134 C 0.32552 0.43031 0.71958 0.0
C2135 C 0.31547 0.41507 0.70722 0.0
C2136 C 0.32453 0.4296 0.74199 0.0
C2137 C 0.30414 0.39908 0.71762 0.0
C2138 C 0.30305 0.39825 0.74002 0.0
C2139 C 0.3125 0.41277 0.77491 0.0
C2140 C 0.32301 0.42804 0.78708 0.0
C2141 C 0.31325 0.41344 0.75238 0.0
C2142 C 0.33397 0.44404 0.77647 0.0
C2143 C 0.33472 0.44482 0.75417 0.0
H2144 H 0.88941 0.34426 0.21198 0.0
H2145 H 0.91544 0.3135 0.20876 0.0
H2146 H 0.91651 0.3129 0.2479 0.0
H2147 H 0.9101 0.32123 0.28301 0.0
H2148 H 0.8839 0.35186 0.28587 0.0
H2149 H 0.88331 0.3528 0.24685 0.0
C2150 C 0.89553 0.33761 0.21982 0.0
C2151 C 0.90237 0.32898 0.20748 0.0
C2152 C 0.89615 0.33738 0.24225 0.0
C2153 C 0.90992 0.3201 0.21791 0.0
C2154 C 0.91061 0.31983 0.24027 0.0
C2155 C 0.90417 0.32802 0.27507 0.0
C2156 C 0.89711 0.3365 0.28734 0.0
C2157 C 0.90372 0.32838 0.2526 0.0
C2158 C 0.88968 0.34545 0.27683 0.0
C2159 C 0.88921 0.34589 0.25451 0.0
H2160 H 0.59097 0.91442 0.71447 0.0
H2161 H 0.54029 0.86671 0.71187 0.0
H2162 H 0.54022 0.86404 0.75084 0.0
H2163 H 0.5541 0.87574 0.78566 0.0
H2164 H 0.60448 0.92375 0.78859 0.0
H2165 H 0.60522 0.9258 0.74943 0.0
C2166 C 0.58001 0.90336 0.72246 0.0
C2167 C 0.56563 0.89081 0.71037 0.0
C2168 C 0.58001 0.90198 0.74487 0.0
C2169 C 0.5514 0.87666 0.72089 0.0
C2170 C 0.55139 0.87507 0.74314 0.0
C2171 C 0.56537 0.8865 0.77769 0.0
C2172 C 0.57926 0.89952 0.78992 0.0
C2173 C 0.56557 0.88771 0.75528 0.0
C2174 C 0.59361 0.9136 0.77946 0.0
C2175 C 0.59404 0.91477 0.75711 0.0
H2176 H 0.6584 0.5818 0.28358 0.0
H2177 H 0.70045 0.56989 0.28899 0.0
H2178 H 0.7037 0.57106 0.24999 0.0
H2179 H 0.69296 0.57309 0.21446 0.0
H2180 H 0.65142 0.58586 0.20899 0.0
H2181 H 0.64945 0.58651 0.24795 0.0
C2182 C 0.66832 0.57956 0.27616 0.0
C2183 C 0.67909 0.57565 0.28903 0.0
C2184 C 0.67009 0.58023 0.25378 0.0
C2185 C 0.69208 0.57302 0.27935 0.0
C2186 C 0.69387 0.57358 0.25709 0.0
C2187 C 0.68372 0.57639 0.22173 0.0
C2188 C 0.67221 0.57921 0.20876 0.0
C2189 C 0.68275 0.57689 0.24414 0.0
C2190 C 0.66018 0.58325 0.21856 0.0
C2191 C 0.6591 0.58372 0.24085 0.0
H2192 H 0.07953 0.64825 0.71443 0.0
H2193 H 0.11327 0.70451 0.7071 0.0
H2194 H 0.11412 0.70824 0.74592 0.0
H2195 H 0.10614 0.69543 0.78204 0.0
H2196 H 0.07418 0.63891 0.78913 0.0
H2197 H 0.07177 0.63547 0.75037 0.0
C2198 C 0.0872 0.66133 0.72129 0.0
C2199 C 0.09635 0.67605 0.70778 0.0
C2200 C 0.08794 0.66337 0.74364 0.0
C2201 C 0.1059 0.69294 0.71703 0.0
C2202 C 0.10651 0.69509 0.73927 0.0
C2203 C 0.09874 0.68234 0.77514 0.0
C2204 C 0.09032 0.66748 0.78862 0.0
C2205 C 0.09771 0.68037 0.75274 0.0
C2206 C 0.08054 0.65065 0.77928 0.0
C2207 C 0.07927 0.64863 0.75705 0.0
H2208 H 0.88833 0.54943 0.21083 0.0
H2209 H 0.90781 0.60534 0.20585 0.0
H2210 H 0.90939 0.60788 0.24497 0.0
H2211 H 0.90584 0.59421 0.28059 0.0
H2212 H 0.88659 0.53828 0.28492 0.0
H2213 H 0.88479 0.53588 0.24599 0.0
C2214 C 0.89313 0.56223 0.21825 0.0
C2215 C 0.89807 0.57719 0.20541 0.0
C2216 C 0.89417 0.56362 0.24064 0.0
C2217 C 0.90382 0.59359 0.21536 0.0
C2218 C 0.90482 0.59507 0.23772 0.0
C2219 C 0.90116 0.58149 0.27299 0.0
C2220 C 0.89648 0.56648 0.28566 0.0
C2221 C 0.90007 0.58017 0.25052 0.0
C2222 C 0.89057 0.55011 0.27556 0.0
C2223 C 0.88942 0.54868 0.2533 0.0
H2224 H 0.30855 0.90574 0.78446 0.0
H2225 H 0.35078 0.89401 0.78966 0.0
H2226 H 0.35246 0.89299 0.7507 0.0
H2227 H 0.34165 0.89486 0.71537 0.0
H2228 H 0.30005 0.90746 0.70956 0.0
H2229 H 0.29811 0.90831 0.74862 0.0
C2230 C 0.31807 0.90292 0.777 0.0
C2231 C 0.32957 0.90002 0.78984 0.0
C2232 C 0.319 0.9024 0.75456 0.0
C2233 C 0.34195 0.89651 0.78006 0.0
C2234 C 0.34286 0.89583 0.75781 0.0
C2235 C 0.33233 0.89806 0.72259 0.0
C2236 C 0.32108 0.90117 0.70954 0.0
C2237 C 0.33146 0.89876 0.74494 0.0
C2238 C 0.30876 0.90485 0.71923 0.0
C2239 C 0.30771 0.90543 0.74155 0.0
H2240 H 0.40551 0.31978 0.28331 0.0
H2241 H 0.4621 0.34362 0.28743 0.0
H2242 H 0.46427 0.3449 0.24835 0.0
H2243 H 0.45009 0.33868 0.21318 0.0
H2244 H 0.39357 0.31585 0.20882 0.0
H2245 H 0.39134 0.31435 0.24787 0.0
C2246 C 0.41829 0.32517 0.2756 0.0
C2247 C 0.43362 0.33158 0.28819 0.0
C2248 C 0.41945 0.32594 0.25314 0.0
C2249 C 0.45013 0.33875 0.27806 0.0
C2250 C 0.45137 0.33942 0.25574 0.0
C2251 C 0.43729 0.33362 0.22071 0.0
C2252 C 0.42203 0.3274 0.208 0.0
C2253 C 0.43613 0.33305 0.24314 0.0
C2254 C 0.40553 0.32051 0.21815 0.0
C2255 C 0.40424 0.31975 0.24049 0.0
H2256 H 0.11881 0.42068 0.71515 0.0
H2257 H 0.06564 0.41142 0.71011 0.0
H2258 H 0.06297 0.41021 0.74908 0.0
H2259 H 0.07634 0.41354 0.78458 0.0
H2260 H 0.12937 0.42257 0.78971 0.0
H2261 H 0.13133 0.42163 0.75068 0.0
C2262 C 0.10651 0.41804 0.72255 0.0
C2263 C 0.09253 0.41635 0.70973 0.0
C2264 C 0.10505 0.41735 0.74497 0.0
C2265 C 0.07674 0.41312 0.71962 0.0
C2266 C 0.07516 0.41236 0.7419 0.0
C2267 C 0.0883 0.41525 0.77711 0.0
C2268 C 0.10274 0.41827 0.78992 0.0
C2269 C 0.08936 0.41481 0.75472 0.0
C2270 C 0.11805 0.42015 0.78014 0.0
C2271 C 0.11921 0.41972 0.75784 0.0
H2272 H 0.65743 0.07405 0.2851 0.0
H2273 H 0.70021 0.12781 0.28981 0.0
H2274 H 0.70275 0.12973 0.25084 0.0
H2275 H 0.69141 0.11691 0.21544 0.0
H2276 H 0.64825 0.06337 0.21058 0.0
H2277 H 0.64709 0.06068 0.24961 0.0
C2278 C 0.66729 0.08619 0.27758 0.0
C2279 C 0.67855 0.10078 0.29034 0.0
C2280 C 0.66852 0.08729 0.25515 0.0
C2281 C 0.69148 0.11632 0.28038 0.0
C2282 C 0.69287 0.11747 0.25809 0.0
C2283 C 0.68196 0.10454 0.2229 0.0
C2284 C 0.66988 0.09039 0.21014 0.0
C2285 C 0.6813 0.10313 0.24532 0.0
C2286 C 0.65754 0.07454 0.22008 0.0
C2287 C 0.65691 0.07297 0.24237 0.0
H2288 H 0.59141 0.67999 0.71204 0.0
H2289 H 0.53805 0.63604 0.70951 0.0
H2290 H 0.53688 0.6347 0.74846 0.0
H2291 H 0.55039 0.64672 0.78328 0.0
H2292 H 0.60313 0.69146 0.78628 0.0
H2293 H 0.60501 0.69204 0.74709 0.0
C2294 C 0.57949 0.67018 0.72 0.0
C2295 C 0.5649 0.65807 0.70777 0.0
C2296 C 0.57873 0.6697 0.74249 0.0
C2297 C 0.54963 0.64531 0.71842 0.0
C2298 C 0.54887 0.64462 0.74074 0.0
C2299 C 0.56238 0.65645 0.77535 0.0
C2300 C 0.57663 0.66897 0.7876 0.0
C2301 C 0.56329 0.65679 0.75292 0.0
C2302 C 0.59195 0.68174 0.77713 0.0
C2303 C 0.59305 0.68204 0.75477 0.0
H2304 H 0.4068 0.17625 0.07079 0.0
H2305 H 0.4565 0.19786 0.03729 0.0
H2306 H 0.45814 0.2265 0.0352 0.0
H2307 H 0.44708 0.24613 0.04649 0.0
H2308 H 0.39832 0.22476 0.08197 0.0
H2309 H 0.3949 0.19534 0.08019 0.0
C2310 C 0.41801 0.18723 0.06304 0.0
C2311 C 0.43162 0.18499 0.0545 0.0
C2312 C 0.41916 0.20375 0.06256 0.0
C2313 C 0.4458 0.1992 0.04393 0.0
C2314 C 0.44683 0.21563 0.04291 0.0
C2315 C 0.43557 0.23496 0.05351 0.0
C2316 C 0.42305 0.23758 0.06451 0.0
C2317 C 0.43383 0.21816 0.05268 0.0
C2318 C 0.40827 0.22307 0.07371 0.0
C2319 C 0.40627 0.20626 0.07262 0.0
H2320 H 0.18097 0.41488 0.54568 0.0
H2321 H 0.20577 0.47148 0.55059 0.0
H2322 H 0.23484 0.47424 0.54736 0.0
H2323 H 0.2531 0.46035 0.54843 0.0
H2324 H 0.22855 0.40372 0.5453 0.0
H2325 H 0.19951 0.40115 0.54184 0.0
C2326 C 0.19274 0.42781 0.54544 0.0
C2327 C 0.19132 0.44294 0.54869 0.0
C2328 C 0.20943 0.42927 0.54406 0.0
C2329 C 0.20662 0.45965 0.54845 0.0
C2330 C 0.22322 0.46123 0.54662 0.0
C2331 C 0.24139 0.44748 0.54668 0.0
C2332 C 0.24287 0.43225 0.54747 0.0
C2333 C 0.22478 0.4461 0.5453 0.0
C2334 C 0.2277 0.41564 0.54474 0.0
C2335 C 0.21109 0.41416 0.54295 0.0
H2336 H 0.79922 0.24856 0.04689 0.0
H2337 H 0.82661 0.22689 0.08162 0.0
H2338 H 0.79971 0.19808 0.08274 0.0
H2339 H 0.76796 0.17981 0.07639 0.0
H2340 H 0.74014 0.20195 0.04344 0.0
H2341 H 0.76775 0.22963 0.03846 0.0
C2342 C 0.79935 0.23742 0.05431 0.0
C2343 C 0.81478 0.23982 0.0643 0.0
C2344 C 0.78376 0.22101 0.05526 0.0
C2345 C 0.81479 0.22536 0.07405 0.0
C2346 C 0.79944 0.20891 0.07469 0.0
C2347 C 0.76791 0.1907 0.06817 0.0
C2348 C 0.75196 0.18885 0.06054 0.0
C2349 C 0.78374 0.20672 0.06585 0.0
C2350 C 0.75223 0.20295 0.0494 0.0
C2351 C 0.768 0.21884 0.04667 0.0
H2352 H 0.54785 0.74886 0.55086 0.0
H2353 H 0.59368 0.76754 0.59153 0.0
H2354 H 0.59775 0.79722 0.59079 0.0
H2355 H 0.58733 0.81741 0.58024 0.0
H2356 H 0.54126 0.79861 0.54005 0.0
H2357 H 0.53872 0.76957 0.53817 0.0
C2358 C 0.55893 0.75948 0.55924 0.0
C2359 C 0.57033 0.75594 0.57141 0.0
C2360 C 0.56121 0.7765 0.55872 0.0
C2361 C 0.58449 0.76983 0.58239 0.0
C2362 C 0.58691 0.78683 0.58187 0.0
C2363 C 0.57676 0.80696 0.57104 0.0
C2364 C 0.5644 0.81009 0.56049 0.0
C2365 C 0.57516 0.79023 0.57041 0.0
C2366 C 0.551 0.79656 0.54822 0.0
C2367 C 0.54945 0.77991 0.54729 0.0
H2368 H 0.74063 0.53752 0.04076 0.0
H2369 H 0.76536 0.5931 0.05516 0.0
H2370 H 0.79441 0.59584 0.05223 0.0
H2371 H 0.81254 0.58161 0.05087 0.0
H2372 H 0.78756 0.52562 0.03957 0.0
H2373 H 0.75887 0.52381 0.03627 0.0
C2374 C 0.75237 0.55025 0.04319 0.0
C2375 C 0.75075 0.565 0.04851 0.0
C2376 C 0.76901 0.55161 0.04232 0.0
C2377 C 0.76614 0.58151 0.05097 0.0
C2378 C 0.7828 0.58307 0.04951 0.0
C2379 C 0.80086 0.56912 0.04718 0.0
C2380 C 0.80207 0.55375 0.04561 0.0
C2381 C 0.78435 0.5681 0.04593 0.0
C2382 C 0.78685 0.53758 0.04104 0.0
C2383 C 0.77048 0.53654 0.03917 0.0
H2384 H 0.24435 0.79855 0.54192 0.0
H2385 H 0.22592 0.82359 0.58635 0.0
H2386 H 0.19652 0.79752 0.58609 0.0
H2387 H 0.17697 0.76677 0.57597 0.0
H2388 H 0.19549 0.74105 0.53278 0.0
H2389 H 0.22377 0.76844 0.52919 0.0
C2390 C 0.23379 0.7984 0.5512 0.0
C2391 C 0.23731 0.81282 0.56437 0.0
C2392 C 0.21698 0.78326 0.55121 0.0
C2393 C 0.22356 0.81247 0.5764 0.0
C2394 C 0.20676 0.79761 0.57621 0.0
C2395 C 0.18719 0.76718 0.56571 0.0
C2396 C 0.1843 0.75187 0.55496 0.0
C2397 C 0.20348 0.78277 0.56417 0.0
C2398 C 0.19743 0.75269 0.54124 0.0
C2399 C 0.21363 0.7683 0.53932 0.0
H2400 H 0.79105 0.53632 0.42717 0.0
H2401 H 0.8215 0.58804 0.45525 0.0
H2402 H 0.7947 0.58991 0.4596 0.0
H2403 H 0.76306 0.57809 0.45165 0.0
H2404 H 0.7332 0.52705 0.42195 0.0
H2405 H 0.7593 0.5236 0.42184 0.0
C2406 C 0.79179 0.54796 0.43433 0.0
C2407 C 0.8082 0.56211 0.4406 0.0
C2408 C 0.77646 0.54909 0.43632 0.0
C2409 C 0.80897 0.57696 0.45033 0.0
C2410 C 0.79369 0.57809 0.45267 0.0
C2411 C 0.76234 0.56614 0.44553 0.0
C2412 C 0.74648 0.55281 0.43683 0.0
C2413 C 0.77745 0.56444 0.44519 0.0
C2414 C 0.74543 0.53738 0.42875 0.0
C2415 C 0.7603 0.53546 0.42863 0.0
H2416 H 0.18192 0.76565 0.94753 0.0
H2417 H 0.20839 0.73608 0.93534 0.0
H2418 H 0.23694 0.76304 0.93776 0.0
H2419 H 0.25414 0.7953 0.93914 0.0
H2420 H 0.22809 0.82505 0.95178 0.0
H2421 H 0.19955 0.79763 0.95408 0.0
C2422 C 0.19392 0.76502 0.94594 0.0
C2423 C 0.193 0.74892 0.94078 0.0
C2424 C 0.21033 0.78059 0.94739 0.0
C2425 C 0.20872 0.74838 0.93871 0.0
C2426 C 0.22506 0.76376 0.9402 0.0
C2427 C 0.24221 0.79568 0.94281 0.0
C2428 C 0.243 0.81199 0.9451 0.0
C2429 C 0.22598 0.77998 0.94384 0.0
C2430 C 0.22764 0.81252 0.95002 0.0
C2431 C 0.21137 0.7969 0.95116 0.0
H2432 H 0.41175 0.18051 0.43921 0.0
H2433 H 0.46837 0.20525 0.44518 0.0
H2434 H 0.47057 0.23397 0.44931 0.0
H2435 H 0.45681 0.25237 0.44755 0.0
H2436 H 0.40051 0.22786 0.43824 0.0
H2437 H 0.3978 0.19878 0.43934 0.0
C2438 C 0.42458 0.19218 0.4414 0.0
C2439 C 0.43987 0.19071 0.44165 0.0
C2440 C 0.42583 0.20873 0.44311 0.0
C2441 C 0.45635 0.20593 0.44508 0.0
C2442 C 0.45765 0.22241 0.44726 0.0
C2443 C 0.44394 0.24067 0.44579 0.0
C2444 C 0.42893 0.24234 0.44258 0.0
C2445 C 0.44253 0.224 0.44573 0.0
C2446 C 0.41228 0.22701 0.4409 0.0
C2447 C 0.41073 0.21035 0.44132 0.0
H2448 H 0.24566 0.45269 0.91282 0.0
H2449 H 0.23591 0.42134 0.9698 0.0
H2450 H 0.20808 0.42114 0.97564 0.0
H2451 H 0.18603 0.42909 0.96353 0.0
H2452 H 0.19662 0.46107 0.90684 0.0
H2453 H 0.22469 0.46196 0.90194 0.0
C2454 C 0.2374 0.44583 0.9265 0.0
C2455 C 0.24261 0.43689 0.94074 0.0
C2456 C 0.22164 0.44595 0.92982 0.0
C2457 C 0.23206 0.42829 0.95865 0.0
C2458 C 0.21618 0.42814 0.96194 0.0
C2459 C 0.19458 0.43633 0.95023 0.0
C2460 C 0.18935 0.44507 0.93563 0.0
C2461 C 0.21076 0.43681 0.9475 0.0
C2462 C 0.20052 0.45447 0.91847 0.0
C2463 C 0.21649 0.45488 0.91555 0.0
H2464 H 0.76881 0.17883 0.42531 0.0
H2465 H 0.73948 0.19971 0.45732 0.0
H2466 H 0.76605 0.22877 0.45923 0.0
H2467 H 0.79667 0.24881 0.44821 0.0
H2468 H 0.82583 0.2279 0.41573 0.0
H2469 H 0.8001 0.19832 0.41716 0.0
C2470 C 0.76828 0.18974 0.43279 0.0
C2471 C 0.7522 0.18721 0.44092 0.0
C2472 C 0.78346 0.20643 0.43343 0.0
C2473 C 0.75173 0.20132 0.45101 0.0
C2474 C 0.76687 0.21797 0.45194 0.0
C2475 C 0.79752 0.23774 0.44183 0.0
C2476 C 0.81307 0.2406 0.43163 0.0
C2477 C 0.78269 0.22076 0.4427 0.0
C2478 C 0.81389 0.22611 0.42326 0.0
C2479 C 0.79923 0.20918 0.42417 0.0
H2480 H 0.54965 0.74934 0.9534 0.0
H2481 H 0.59205 0.76904 0.90724 0.0
H2482 H 0.59408 0.79784 0.90774 0.0
H2483 H 0.5819 0.8164 0.91849 0.0
H2484 H 0.53929 0.79703 0.96418 0.0
H2485 H 0.53953 0.76923 0.96717 0.0
C2486 C 0.55956 0.76006 0.9438 0.0
C2487 C 0.57046 0.75702 0.93 0.0
C2488 C 0.56055 0.77657 0.94402 0.0
C2489 C 0.58324 0.77099 0.91762 0.0
C2490 C 0.58445 0.78746 0.91794 0.0
C2491 C 0.57275 0.80611 0.9292 0.0
C2492 C 0.56039 0.80852 0.9408 0.0
C2493 C 0.57283 0.79021 0.93057 0.0
C2494 C 0.54887 0.79535 0.95503 0.0
C2495 C 0.54895 0.77946 0.95665 0.0
H2496 H 0.32931 0.96665 0.99293 0.0
H2497 H 0.36843 0.99486 0.9443 0.0
H2498 H 0.3797 0.02224 0.96477 0.0
H2499 H 0.38095 0.03688 -0.00163 0.0
H2500 H 0.34307 0.00867 0.04836 0.0
H2501 H 0.32874 0.98242 0.02555 0.0
C2502 C 0.34002 0.97894 0.98671 0.0
C2503 C 0.34811 0.97896 0.96729 0.0
C2504 C 0.34678 0.99444 -0.00108 0.0
C2505 C 0.3621 0.99474 0.95929 0.0
C2506 C 0.36856 0.0103 0.971 0.0
C2507 C 0.36924 0.02518 0.0041 0.0
C2508 C 0.36311 0.02471 0.02505 0.0
C2509 C 0.36136 0.01015 0.99113 0.0
C2510 C 0.34815 0.00929 0.03236 0.0
C2511 C 0.33995 0.9943 0.01933 0.0
H2512 H 0.37241 0.36415 0.45238 0.0
H2513 H 0.35313 0.31694 0.49057 0.0
H2514 H 0.33868 0.32767 0.51492 0.0
H2515 H 0.33329 0.35146 0.52665 0.0
H2516 H 0.35265 0.39845 0.48806 0.0
H2517 H 0.36492 0.38657 0.46225 0.0
C2518 C 0.36468 0.35596 0.4657 0.0
C2519 C 0.36394 0.33981 0.4697 0.0
C2520 C 0.35647 0.36221 0.47962 0.0
C2521 C 0.35413 0.32956 0.48731 0.0
C2522 C 0.34583 0.33566 0.50121 0.0
C2523 C 0.34011 0.35901 0.5125 0.0
C2524 C 0.34211 0.3758 0.50927 0.0
C2525 C 0.34725 0.35215 0.49778 0.0
C2526 C 0.35079 0.38541 0.49079 0.0
C2527 C 0.35791 0.37868 0.47609 0.0
H2528 H 0.03612 0.37489 -0.00034 0.0
H2529 H 0.0047 0.34774 0.94429 0.0
H2530 H 0.97825 0.33322 0.96668 0.0
H2531 H 0.96363 0.33177 0.00094 0.0
H2532 H 0.99508 0.36018 0.05571 0.0
H2533 H 0.02205 0.37041 0.03473 0.0
C2534 C 0.02359 0.36539 0.99259 0.0
C2535 C 0.02232 0.36252 0.97034 0.0
C2536 C 0.00843 0.35747 0.00544 0.0
C2537 C 0.00594 0.35034 0.96136 0.0
C2538 C 0.99083 0.34205 0.97414 0.0
C2539 C 0.97643 0.33981 0.00838 0.0
C2540 C 0.97745 0.3454 0.0297 0.0
C2541 C 0.99183 0.34604 0.99605 0.0
C2542 C 0.99405 0.35593 0.0392 0.0
C2543 C 0.00944 0.36178 0.02722 0.0
H2544 H 0.66233 0.02965 0.49385 0.0
H2545 H 0.62366 0.00245 0.44438 0.0
H2546 H 0.61139 0.97497 0.46472 0.0
H2547 H 0.60937 0.95984 0.49822 0.0
H2548 H 0.64716 0.98692 0.54867 0.0
H2549 H 0.66209 0.01338 0.52632 0.0
C2550 C 0.65148 0.01757 0.4874 0.0
C2551 C 0.64378 0.01796 0.46781 0.0
C2552 C 0.6442 0.00195 0.49945 0.0
C2553 C 0.62963 0.00237 0.45956 0.0
C2554 C 0.62262 0.98672 0.47118 0.0
C2555 C 0.62116 0.97135 0.50416 0.0
C2556 C 0.6271 0.97144 0.52511 0.0
C2557 C 0.62946 0.9865 0.4914 0.0
C2558 C 0.64219 0.98661 0.53268 0.0
C2559 C 0.65075 0.00171 0.5199 0.0
H2560 H 0.66093 0.63095 0.00712 0.0
H2561 H 0.62187 0.6161 0.05687 0.0
H2562 H 0.60851 0.63099 0.03793 0.0
H2563 H 0.60593 0.64499 0.0054 0.0
H2564 H 0.64322 0.65746 0.95386 0.0
H2565 H 0.65966 0.64725 0.97548 0.0
C2566 C 0.64974 0.63138 0.01391 0.0
C2567 C 0.64228 0.62257 0.0332 0.0
C2568 C 0.64179 0.63941 0.00256 0.0
C2569 C 0.6277 0.62289 0.04197 0.0
C2570 C 0.62007 0.63131 0.03113 0.0
C2571 C 0.61769 0.64552 -0.00108 0.0
C2572 C 0.62316 0.65164 0.97794 0.0
C2573 C 0.62665 0.63907 0.0111 0.0
C2574 C 0.63872 0.65278 0.96998 0.0
C2575 C 0.64805 0.64682 0.98226 0.0
H2576 H 0.01318 0.65894 0.52873 0.0
H2577 H 0.04082 0.63971 0.48985 0.0
H2578 H 0.01691 0.62797 0.46382 0.0
H2579 H 0.98724 0.62088 0.45369 0.0
H2580 H 0.95909 0.63978 0.49212 0.0
H2581 H 0.98403 0.65372 0.5169 0.0
C2582 C 0.01395 0.65224 0.5145 0.0
C2583 C 0.02873 0.6502 0.51124 0.0
C2584 C 4e-05 0.64533 0.49963 0.0
C2585 C 0.02969 0.64166 0.49262 0.0
C2586 C 0.01597 0.63482 0.47778 0.0
C2587 C 0.98668 0.62843 0.46715 0.0
C2588 C 0.97129 0.62923 0.47105 0.0
C2589 C 0.00099 0.63634 0.4813 0.0
C2590 C 0.97071 0.63876 0.48889 0.0
C2591 C 0.98497 0.64677 0.50304 0.0
H2592 H 0.6107 0.98767 0.95768 0.0
H2593 H 0.62517 0.95851 0.00064 0.0
H2594 H 0.63989 0.98422 0.0244 0.0
H2595 H 0.64611 0.01399 0.03424 0.0
H2596 H 0.63283 0.04351 0.98997 0.0
H2597 H 0.61996 0.01853 0.96547 0.0
C2598 C 0.61726 0.98709 0.97216 0.0
C2599 C 0.61679 0.97135 0.97768 0.0
C2600 C 0.62565 0.00184 0.98557 0.0
C2601 C 0.62544 0.97061 0.99623 0.0
C2602 C 0.63374 0.98523 0.0098 0.0
C2603 C 0.64076 0.01513 0.01906 0.0
C2604 C 0.64013 0.03051 0.01422 0.0
C2605 C 0.63361 0.0008 0.00482 0.0
C2606 C 0.63302 0.03165 0.99445 0.0
C2607 C 0.62576 0.01743 0.98033 0.0
H2608 H 0.62999 0.62295 0.44983 0.0
H2609 H 0.66141 0.62009 0.50124 0.0
H2610 H 0.65 0.63382 0.52569 0.0
H2611 H 0.62848 0.64331 0.53336 0.0
H2612 H 0.59664 0.64557 0.48199 0.0
H2613 H 0.61062 0.6351 0.45669 0.0
C2614 C 0.63442 0.62545 0.46636 0.0
C2615 C 0.64634 0.62033 0.4738 0.0
C2616 C 0.62753 0.63297 0.4804 0.0
C2617 C 0.65228 0.62397 0.49512 0.0
C2618 C 0.64565 0.63168 0.50915 0.0
C2619 C 0.62486 0.64187 0.51655 0.0
C2620 C 0.61136 0.64496 0.50963 0.0
C2621 C 0.6329 0.63577 0.5021 0.0
C2622 C 0.60673 0.6429 0.48781 0.0
C2623 C 0.61477 0.637 0.47331 0.0
H2624 H 0.98645 0.62248 0.04249 0.0
H2625 H 0.95407 0.62237 0.99037 0.0
H2626 H 0.98015 0.63747 0.96738 0.0
H2627 H 0.0116 0.64787 0.96121 0.0
H2628 H 0.04394 0.64827 0.0137 0.0
H2629 H 0.01836 0.63566 0.03739 0.0
C2630 C 0.98516 0.6259 0.02613 0.0
C2631 C 0.96841 0.62118 0.01801 0.0
C2632 C 0.00014 0.6344 0.01304 0.0
C2633 C 0.96688 0.62592 0.99695 0.0
C2634 C 0.98175 0.63444 0.98379 0.0
C2635 C 0.01315 0.64558 0.97794 0.0
C2636 C 0.02963 0.64877 0.98556 0.0
C2637 C -0.00162 0.63837 0.99153 0.0
C2638 C 0.03133 0.64555 0.00728 0.0
C2639 C 0.01673 0.63842 0.02088 0.0
H2640 H 0.33866 0.96775 0.50621 0.0
H2641 H 0.38092 0.99003 0.55248 0.0
H2642 H 0.39495 0.01801 0.53304 0.0
H2643 H 0.39627 0.03527 0.50164 0.0
H2644 H 0.35499 0.01261 0.4541 0.0
H2645 H 0.33921 0.98579 0.47558 0.0
C2646 C 0.35079 0.97886 0.51215 0.0
C2647 C 0.35887 0.9769 0.53057 0.0
C2648 C 0.35895 0.99476 0.50067 0.0
C2649 C 0.37463 0.99126 0.53814 0.0
C2650 C 0.38262 0.00722 0.52707 0.0
C2651 C 0.38385 0.02444 0.49594 0.0
C2652 C 0.37694 0.02583 0.47619 0.0
C2653 C 0.37511 0.00896 0.50807 0.0
C2654 C 0.36057 0.01189 0.46929 0.0
C2655 C 0.35161 0.9965 0.48149 0.0
H2656 H 0.39987 0.36918 9e-05 0.0
H2657 H 0.35073 0.33147 0.02968 0.0
H2658 H 0.33487 0.34213 0.00755 0.0
H2659 H 0.33552 0.364 0.98191 0.0
H2660 H 0.38509 0.40228 0.95372 0.0
H2661 H 0.40031 0.38963 0.97323 0.0
C2662 C 0.38569 0.36331 0.00171 0.0
C2663 C 0.3765 0.34977 0.01668 0.0
C2664 C 0.37678 0.36968 0.98926 0.0
C2665 C 0.35807 0.34194 0.01824 0.0
C2666 C 0.34903 0.34809 0.00568 0.0
C2667 C 0.3496 0.36935 0.97989 0.0
C2668 C 0.35926 0.38412 0.96666 0.0
C2669 C 0.35831 0.36219 0.99144 0.0
C2670 C 0.37749 0.39105 0.96411 0.0
C2671 C 0.38617 0.38383 0.9752 0.0
H2672 H 0.02762 0.36747 0.50857 0.0
H2673 H 0.00977 0.39624 0.54737 0.0
H2674 H 0.98224 0.38368 0.52699 0.0
H2675 H 0.96432 0.36622 0.49681 0.0
H2676 H 0.98295 0.33916 0.45596 0.0
H2677 H 0.00893 0.34897 0.47876 0.0
C2678 C 0.01753 0.37073 0.51264 0.0
C2679 C 0.02057 0.38273 0.52927 0.0
C2680 C 0.00199 0.36384 0.50049 0.0
C2681 C 0.00762 0.38708 0.53447 0.0
C2682 C 0.99194 0.37993 0.52285 0.0
C2683 C 0.97411 0.36256 0.49277 0.0
C2684 C 0.97183 0.35221 0.47453 0.0
C2685 C 0.98918 0.36863 0.50555 0.0
C2686 C 0.98437 0.3471 0.46994 0.0
C2687 C -0.00072 0.35279 0.48289 0.0
H2688 H 0.53682 0.13154 0.07805 0.0
H2689 H 0.50849 0.07657 0.06012 0.0
H2690 H 0.53609 0.07599 0.05935 0.0
H2691 H 0.56789 0.09053 0.06615 0.0
H2692 H 0.5963 0.14549 0.08416 0.0
H2693 H 0.56894 0.14654 0.08295 0.0
C2694 C 0.5367 0.11944 0.07398 0.0
C2695 C 0.52064 0.1041 0.06927 0.0
C2696 C 0.55258 0.11914 0.0738 0.0
C2697 C 0.5207 0.08859 0.06365 0.0
C2698 C 0.53646 0.08821 0.06335 0.0
C2699 C 0.56817 0.10283 0.06945 0.0
C2700 C 0.58411 0.11788 0.07534 0.0
C2701 C 0.55243 0.10334 0.06868 0.0
C2702 C 0.58416 0.13364 0.0799 0.0
C2703 C 0.56855 0.13427 0.07911 0.0
H2704 H 0.46575 0.57478 0.60418 0.0
H2705 H 0.45514 0.58874 0.54188 0.0
H2706 H 0.42758 0.56043 0.53977 0.0
H2707 H 0.40653 0.53176 0.55579 0.0
H2708 H 0.41793 0.5178 0.61774 0.0
H2709 H 0.44494 0.54629 0.62004 0.0
C2710 C 0.45729 0.57173 0.59025 0.0
C2711 C 0.46241 0.58387 0.57328 0.0
C2712 C 0.44158 0.55547 0.58913 0.0
C2713 C 0.45152 0.57956 0.55512 0.0
C2714 C 0.43575 0.56342 0.55394 0.0
C2715 C 0.41499 0.53488 0.56971 0.0
C2716 C 0.41011 0.52263 0.5866 0.0
C2717 C 0.43068 0.55124 0.57083 0.0
C2718 C 0.42115 0.52704 0.60466 0.0
C2719 C 0.43669 0.5433 0.60594 0.0
H2720 H 0.89725 0.42295 0.0988 0.0
H2721 H 0.86565 0.40361 0.04157 0.0
H2722 H 0.8634 0.43038 0.03976 0.0
H2723 H 0.86997 0.459 0.05502 0.0
H2724 H 0.90285 0.47861 0.11142 0.0
H2725 H 0.90466 0.45183 0.11323 0.0
C2726 C 0.88977 0.42456 0.08602 0.0
C2727 C 0.88151 0.41131 0.07044 0.0
C2728 C 0.88865 0.43996 0.08502 0.0
C2729 C 0.87216 0.41369 0.0537 0.0
C2730 C 0.87083 0.42894 0.05272 0.0
C2731 C 0.87769 0.45752 0.06758 0.0
C2732 C 0.88607 0.4708 0.08319 0.0
C2733 C 0.879 0.44216 0.06833 0.0
C2734 C 0.89588 0.4685 0.09946 0.0
C2735 C 0.89707 0.45322 0.10044 0.0
H2736 H 0.40985 0.87181 0.55411 0.0
H2737 H 0.41976 0.89811 0.61539 0.0
H2738 H 0.44864 0.90051 0.61706 0.0
H2739 H 0.47119 0.89531 0.60128 0.0
H2740 H 0.46229 0.87023 0.53948 0.0
H2741 H 0.43309 0.86759 0.53759 0.0
C2742 C 0.41838 0.8782 0.56774 0.0
C2743 C 0.41246 0.88452 0.58473 0.0
C2744 C 0.43519 0.87985 0.56847 0.0
C2745 C 0.4237 0.89268 0.60233 0.0
C2746 C 0.44033 0.89422 0.60323 0.0
C2747 C 0.4628 0.88918 0.58746 0.0
C2748 C 0.46877 0.88283 0.57064 0.0
C2749 C 0.44616 0.88779 0.58647 0.0
C2750 C 0.45796 0.87525 0.5526 0.0
C2751 C 0.44126 0.87368 0.55156 0.0
H2752 H 0.58442 0.45968 0.05634 0.0
H2753 H 0.57212 0.47676 0.11554 0.0
H2754 H 0.54414 0.44916 0.11781 0.0
H2755 H 0.52303 0.42039 0.10294 0.0
H2756 H 0.53483 0.40304 0.04367 0.0
H2757 H 0.56297 0.43073 0.0412 0.0
C2758 C 0.57555 0.45741 0.06963 0.0
C2759 C 0.58043 0.47023 0.08581 0.0
C2760 C 0.55937 0.44151 0.07079 0.0
C2761 C 0.56885 0.467 0.10306 0.0
C2762 C 0.55278 0.45126 0.10432 0.0
C2763 C 0.53184 0.42257 0.0896 0.0
C2764 C 0.52691 0.40964 0.0736 0.0
C2765 C 0.54795 0.43843 0.08832 0.0
C2766 C 0.53829 0.41284 0.05614 0.0
C2767 C 0.5544 0.42863 0.05477 0.0
H2768 H 0.09361 0.52014 0.5618 0.0
H2769 H 0.14171 0.54212 0.5985 0.0
H2770 H 0.14386 0.57109 0.59806 0.0
H2771 H 0.13142 0.58977 0.58837 0.0
H2772 H 0.08195 0.56708 0.5541 0.0
H2773 H 0.08119 0.53893 0.55201 0.0
C2774 C 0.10463 0.53136 0.56948 0.0
C2775 C 0.1175 0.52913 0.58014 0.0
C2776 C 0.10553 0.54782 0.56958 0.0
C2777 C 0.13163 0.54362 0.59029 0.0
C2778 C 0.13285 0.56014 0.59003 0.0
C2779 C 0.12039 0.57866 0.58058 0.0
C2780 C 0.10677 0.58063 0.57144 0.0
C2781 C 0.11974 0.56233 0.57997 0.0
C2782 C 0.09278 0.56611 0.56101 0.0
C2783 C 0.09223 0.54992 0.55995 0.0
H2784 H 0.8976 0.47465 0.44858 0.0
H2785 H 0.86633 0.46227 0.39089 0.0
H2786 H 0.86299 0.43294 0.3902 0.0
H2787 H 0.86986 0.41125 0.40508 0.0
H2788 H 0.89988 0.42288 0.46368 0.0
H2789 H 0.90263 0.45204 0.46497 0.0
C2790 C 0.88982 0.46547 0.43603 0.0
C2791 C 0.8824 0.4708 0.41969 0.0
C2792 C 0.88775 0.44849 0.43584 0.0
C2793 C 0.87254 0.45872 0.40342 0.0
C2794 C 0.87049 0.44187 0.40308 0.0
C2795 C 0.87671 0.41998 0.41839 0.0
C2796 C 0.88469 0.41485 0.43422 0.0
C2797 C 0.87817 0.43667 0.4191 0.0
C2798 C 0.89382 0.42656 0.45111 0.0
C2799 C 0.89534 0.44322 0.45191 0.0
H2800 H 0.45842 0.87269 0.93949 0.0
H2801 H 0.47415 0.90028 0.87899 0.0
H2802 H 0.44702 0.9016 0.87787 0.0
H2803 H 0.41922 0.89561 0.89432 0.0
H2804 H 0.40352 0.86872 0.95517 0.0
H2805 H 0.43052 0.86689 0.9562 0.0
C2806 C 0.45598 0.87911 0.92614 0.0
C2807 C 0.46829 0.88626 0.90929 0.0
C2808 C 0.44044 0.88008 0.92573 0.0
C2809 C 0.46478 0.89435 0.89198 0.0
C2810 C 0.44933 0.89525 0.8914 0.0
C2811 C 0.42161 0.88918 0.90771 0.0
C2812 C 0.40935 0.88222 0.92458 0.0
C2813 C 0.43709 0.88818 0.90818 0.0
C2814 C 0.41282 0.87428 0.94205 0.0
C2815 C 0.4282 0.87316 0.94259 0.0
H2816 H 0.53238 0.40745 0.40578 0.0
H2817 H 0.51177 0.42381 0.45832 0.0
H2818 H 0.53968 0.45162 0.46084 0.0
H2819 H 0.56953 0.47177 0.44711 0.0
H2820 H 0.58897 0.4559 0.3928 0.0
H2821 H 0.56191 0.42744 0.39204 0.0
C2822 C 0.5339 0.41715 0.41768 0.0
C2823 C 0.51993 0.41357 0.43171 0.0
C2824 C 0.5498 0.43322 0.41874 0.0
C2825 C 0.52234 0.42613 0.44741 0.0
C2826 C 0.53826 0.4421 0.44876 0.0
C2827 C 0.5678 0.46214 0.43501 0.0
C2828 C 0.58134 0.46602 0.42009 0.0
C2829 C 0.552 0.44587 0.43434 0.0
C2830 C 0.57896 0.45323 0.40475 0.0
C2831 C 0.5634 0.43696 0.40417 0.0
H2832 H 0.11832 0.53324 0.93594 0.0
H2833 H 0.07956 0.51191 0.8854 0.0
H2834 H 0.07907 0.53954 0.88346 0.0
H2835 H 0.08952 0.56957 0.89619 0.0
H2836 H 0.1295 0.59166 0.94542 0.0
H2837 H 0.1293 0.56376 0.94819 0.0
C2838 C 0.10969 0.53465 0.92463 0.0
C2839 C 0.09897 0.52059 0.91085 0.0
C2840 C 0.10963 0.55064 0.92344 0.0
C2841 C 0.08802 0.52262 0.89605 0.0
C2842 C 0.08769 0.53837 0.89499 0.0
C2843 C 0.0984 0.56843 0.90733 0.0
C2844 C 0.10952 0.58279 0.92054 0.0
C2845 C 0.09849 0.55248 0.90854 0.0
C2846 C 0.1206 0.58081 0.93524 0.0
C2847 C 0.1206 0.56488 0.93674 0.0
H2848 H 0.57829 0.10728 0.39202 0.0
H2849 H 0.58604 0.11828 0.45977 0.0
H2850 H 0.55814 0.11834 0.46182 0.0
H2851 H 0.53167 0.11549 0.44417 0.0
H2852 H 0.5239 0.10388 0.37648 0.0
H2853 H 0.55185 0.10415 0.37453 0.0
C2854 C 0.57396 0.10989 0.40718 0.0
C2855 C 0.58423 0.11288 0.42568 0.0
C2856 C 0.55793 0.10983 0.40824 0.0
C2857 C 0.57829 0.11586 0.44532 0.0
C2858 C 0.56238 0.11595 0.44649 0.0
C2859 C 0.53603 0.11288 0.42904 0.0
C2860 C 0.52576 0.10978 0.41048 0.0
C2861 C 0.55208 0.11291 0.42804 0.0
C2862 C 0.53169 0.1066 0.39094 0.0
C2863 C 0.54762 0.10665 0.38982 0.0
H2864 H 0.47039 0.57571 0.89417 0.0
H2865 H 0.4623 0.59224 0.95625 0.0
H2866 H 0.43352 0.56534 0.95908 0.0
H2867 H 0.41032 0.53739 0.9434 0.0
H2868 H 0.41872 0.5214 0.8811 0.0
H2869 H 0.44753 0.54803 0.87869 0.0
C2870 C 0.46226 0.57355 0.90823 0.0
C2871 C 0.46846 0.58604 0.9249 0.0
C2872 C 0.44572 0.55819 0.90966 0.0
C2873 C 0.45792 0.58279 0.94324 0.0
C2874 C 0.44142 0.56745 0.94482 0.0
C2875 C 0.41852 0.53971 0.92937 0.0
C2876 C 0.4123 0.52749 0.91238 0.0
C2877 C 0.43516 0.55508 0.92809 0.0
C2878 C 0.42303 0.53073 0.89423 0.0
C2879 C 0.43957 0.54591 0.89289 0.0
loop_
_geom_bond_atom_site_label_1
_geom_bond_atom_site_label_2
_geom_bond_distance
_geom_bond_site_symmetry_2
_ccdc_geom_bond_type
Li0 N17 1.990 . S
Li0 O60 1.956 . S
Li0 O61 1.970 . S
Li0 O62 1.961 . S
Li1 N25 1.990 . S
Li1 O60 1.970 . S
Li1 O61 1.956 . S
Li1 O63 1.961 . S
Li2 N47 1.990 . S
Li2 O60 1.961 . S
Li2 O62 1.956 . S
Li2 O63 1.970 . S
Li3 N53 1.990 . S
Li3 O61 1.961 . S
Li3 O62 1.970 . S
Li3 O63 1.956 . S
C4 C6 1.348 . S
C4 C7 1.356 . S
C4 O60 1.325 . S
N5 C8 1.314 . S
N5 C9 1.279 . S
C6 C4 1.348 . S
C6 C8 1.353 . S
C6 H64 0.929 . S
C7 C4 1.356 . S
C7 C9 1.358 . S
C7 H65 0.930 . S
C8 N5 1.314 . S
C8 C6 1.353 . S
C8 H66 0.930 . S
C9 N5 1.279 . S
C9 C7 1.358 . S
C9 H67 0.930 . S
C10 C13 1.348 . S
C10 C14 1.356 . S
C10 O61 1.325 . S
C11 N12 1.279 . S
C11 C14 1.358 . S
C11 H68 0.930 . S
N12 C11 1.279 . S
N12 C15 1.314 . S
C13 C10 1.348 . S
C13 C15 1.353 . S
C13 H69 0.929 . S
C14 C10 1.356 . S
C14 C11 1.358 . S
C14 H70 0.930 . S
C15 N12 1.314 . S
C15 C13 1.353 . S
C15 H71 0.930 . S
C16 N17 1.314 . S
C16 C21 1.353 . S
C16 H22 0.930 . S
N17 Li0 1.990 . S
N17 C16 1.314 . S
N17 C19 1.279 . S
C18 C19 1.358 . S
C18 C20 1.356 . S
C18 H72 0.930 . S
C19 N17 1.279 . S
C19 C18 1.358 . S
C19 H23 0.930 . S
C20 C18 1.356 . S
C20 C21 1.348 . S
C21 C16 1.353 . S
C21 C20 1.348 . S
C21 H73 0.929 . S
H22 C16 0.930 . S
H23 C19 0.930 . S
C24 N25 1.314 . S
C24 C26 1.353 . S
C24 H30 0.930 . S
N25 Li1 1.990 . S
N25 C24 1.314 . S
N25 C28 1.279 . S
C26 C24 1.353 . S
C26 C29 1.348 . S
C26 H74 0.929 . S
C27 C28 1.358 . S
C27 C29 1.356 . S
C27 H75 0.930 . S
C28 N25 1.279 . S
C28 C27 1.358 . S
C28 H31 0.930 . S
C29 C26 1.348 . S
C29 C27 1.356 . S
H30 C24 0.930 . S
H31 C28 0.930 . S
C32 C34 1.348 . S
C32 C35 1.356 . S
C32 O62 1.325 . S
N33 C36 1.314 1_556 S
N33 C37 1.279 1_556 S
C34 C32 1.348 . S
C34 C36 1.353 . S
C34 H76 0.929 . S
C35 C32 1.356 . S
C35 C37 1.358 . S
C35 H77 0.930 . S
C36 N33 1.314 1_554 S
C36 C34 1.353 . S
C36 H78 0.930 1_554 S
C37 N33 1.279 1_554 S
C37 C35 1.358 . S
C37 H79 0.930 . S
C38 C39 1.348 . S
C38 C40 1.356 . S
C38 O63 1.325 . S
C39 C38 1.348 . S
C39 C41 1.353 . S
C39 H80 0.929 . S
C40 C38 1.356 . S
C40 C42 1.358 . S
C40 H81 0.930 . S
C41 C39 1.353 . S
C41 N43 1.314 . S
C41 H82 0.930 . S
C42 C40 1.358 . S
C42 N43 1.279 . S
C42 H83 0.930 . S
N43 C41 1.314 . S
N43 C42 1.279 . S
C44 C46 1.353 . S
C44 N47 1.314 . S
C44 H50 0.930 . S
C45 N47 1.279 . S
C45 C48 1.358 . S
C45 H51 0.930 . S
C46 C44 1.353 . S
C46 C49 1.348 . S
C46 H84 0.929 . S
N47 Li2 1.990 . S
N47 C44 1.314 . S
N47 C45 1.279 . S
C48 C45 1.358 . S
C48 C49 1.356 . S
C48 H85 0.930 . S
C49 C46 1.348 . S
C49 C48 1.356 . S
H50 C44 0.930 . S
H51 C45 0.930 . S
C52 N53 1.314 . S
C52 C54 1.353 . S
C52 H58 0.930 . S
N53 Li3 1.990 . S
N53 C52 1.314 . S
N53 C56 1.279 . S
C54 C52 1.353 . S
C54 C57 1.348 . S
C54 H86 0.929 . S
C55 C56 1.358 . S
C55 C57 1.356 . S
C55 H87 0.930 . S
C56 N53 1.279 . S
C56 C55 1.358 . S
C56 H59 0.930 . S
C57 C54 1.348 . S
C57 C55 1.356 . S
H58 C52 0.930 . S
H59 C56 0.930 . S
O60 Li0 1.956 . S
O60 Li1 1.970 . S
O60 Li2 1.961 . S
O60 C4 1.325 . S
O61 Li0 1.970 . S
O61 Li1 1.956 . S
O61 Li3 1.961 . S
O61 C10 1.325 . S
O62 Li0 1.961 . S
O62 Li2 1.956 . S
O62 Li3 1.970 . S
O62 C32 1.325 . S
O63 Li1 1.961 . S
O63 Li2 1.970 . S
O63 Li3 1.956 . S
O63 C38 1.325 . S
H64 C6 0.929 . S
H65 C7 0.930 . S
H66 C8 0.930 . S
H67 C9 0.930 . S
H68 C11 0.930 . S
H69 C13 0.929 . S
H70 C14 0.930 . S
H71 C15 0.930 . S
H72 C18 0.930 . S
H73 C21 0.929 . S
H74 C26 0.929 . S
H75 C27 0.930 . S
H76 C34 0.929 . S
H77 C35 0.930 . S
H78 C36 0.930 1_556 S
H79 C37 0.930 . S
H80 C39 0.929 . S
H81 C40 0.930 . S
H82 C41 0.930 . S
H83 C42 0.930 . S
H84 C46 0.929 . S
H85 C48 0.930 . S
H86 C54 0.929 . S
H87 C55 0.930 . S
Li88 N105 1.990 . S
Li88 O148 1.956 . S
Li88 O149 1.970 . S
Li88 O150 1.961 . S
Li89 N113 1.990 . S
Li89 O148 1.970 . S
Li89 O149 1.956 . S
Li89 O151 1.961 . S
Li90 N135 1.990 . S
Li90 O148 1.961 . S
Li90 O150 1.956 . S
Li90 O151 1.970 . S
Li91 N141 1.990 . S
Li91 O149 1.961 . S
Li91 O150 1.970 . S
Li91 O151 1.956 . S
C92 C94 1.348 . S
C92 C95 1.356 . S
C92 O148 1.325 . S
N93 C96 1.314 . S
N93 C97 1.279 . S
C94 C92 1.348 . S
C94 C96 1.353 . S
C94 H152 0.929 . S
C95 C92 1.356 . S
C95 C97 1.358 . S
C95 H153 0.930 . S
C96 N93 1.314 . S
C96 C94 1.353 . S
C96 H154 0.930 . S
C97 N93 1.279 . S
C97 C95 1.358 . S
C97 H155 0.930 . S
C98 C101 1.348 . S
C98 C102 1.356 . S
C98 O149 1.325 . S
C99 N100 1.279 . S
C99 C102 1.358 . S
C99 H156 0.930 . S
N100 C99 1.279 . S
N100 C103 1.314 . S
C101 C98 1.348 . S
C101 C103 1.353 . S
C101 H157 0.929 . S
C102 C98 1.356 . S
C102 C99 1.358 . S
C102 H158 0.930 . S
C103 N100 1.314 . S
C103 C101 1.353 . S
C103 H159 0.930 . S
C104 N105 1.314 . S
C104 C109 1.353 . S
C104 H110 0.930 . S
N105 Li88 1.990 . S
N105 C104 1.314 . S
N105 C107 1.279 . S
C106 C107 1.358 . S
C106 C108 1.356 . S
C106 H160 0.930 . S
C107 N105 1.279 . S
C107 C106 1.358 . S
C107 H111 0.930 . S
C108 C106 1.356 . S
C108 C109 1.348 . S
C109 C104 1.353 . S
C109 C108 1.348 . S
C109 H161 0.929 . S
H110 C104 0.930 . S
H111 C107 0.930 . S
C112 N113 1.314 . S
C112 C114 1.353 . S
C112 H118 0.930 . S
N113 Li89 1.990 . S
N113 C112 1.314 . S
N113 C116 1.279 . S
C114 C112 1.353 . S
C114 C117 1.348 . S
C114 H162 0.929 . S
C115 C116 1.358 . S
C115 C117 1.356 . S
C115 H163 0.930 . S
C116 N113 1.279 . S
C116 C115 1.358 . S
C116 H119 0.930 . S
C117 C114 1.348 . S
C117 C115 1.356 . S
H118 C112 0.930 . S
H119 C116 0.930 . S
C120 C122 1.348 . S
C120 C123 1.356 . S
C120 O150 1.325 . S
N121 C124 1.314 . S
N121 C125 1.279 . S
C122 C120 1.348 . S
C122 C124 1.353 . S
C122 H164 0.929 . S
C123 C120 1.356 . S
C123 C125 1.358 . S
C123 H165 0.930 . S
C124 N121 1.314 . S
C124 C122 1.353 . S
C124 H166 0.930 . S
C125 N121 1.279 . S
C125 C123 1.358 . S
C125 H167 0.930 . S
C126 C127 1.348 . S
C126 C128 1.356 . S
C126 O151 1.325 . S
C127 C126 1.348 . S
C127 C129 1.353 . S
C127 H168 0.929 . S
C128 C126 1.356 . S
C128 C130 1.358 . S
C128 H169 0.930 . S
C129 C127 1.353 . S
C129 N131 1.314 . S
C129 H170 0.930 . S
C130 C128 1.358 . S
C130 N131 1.279 . S
C130 H171 0.930 . S
N131 C129 1.314 . S
N131 C130 1.279 . S
C132 C134 1.353 . S
C132 N135 1.314 . S
C132 H138 0.930 . S
C133 N135 1.279 . S
C133 C136 1.358 . S
C133 H139 0.930 . S
C134 C132 1.353 . S
C134 C137 1.348 . S
C134 H172 0.929 . S
N135 Li90 1.990 . S
N135 C132 1.314 . S
N135 C133 1.279 . S
C136 C133 1.358 . S
C136 C137 1.356 . S
C136 H173 0.930 . S
C137 C134 1.348 . S
C137 C136 1.356 . S
H138 C132 0.930 . S
H139 C133 0.930 . S
C140 N141 1.314 . S
C140 C142 1.353 . S
C140 H146 0.930 . S
N141 Li91 1.990 . S
N141 C140 1.314 . S
N141 C144 1.279 . S
C142 C140 1.353 . S
C142 C145 1.348 . S
C142 H174 0.929 . S
C143 C144 1.358 . S
C143 C145 1.356 . S
C143 H175 0.930 . S
C144 N141 1.279 . S
C144 C143 1.358 . S
C144 H147 0.930 . S
C145 C142 1.348 . S
C145 C143 1.356 . S
H146 C140 0.930 . S
H147 C144 0.930 . S
O148 Li88 1.956 . S
O148 Li89 1.970 . S
O148 Li90 1.961 . S
O148 C92 1.325 . S
O149 Li88 1.970 . S
O149 Li89 1.956 . S
O149 Li91 1.961 . S
O149 C98 1.325 . S
O150 Li88 1.961 . S
O150 Li90 1.956 . S
O150 Li91 1.970 . S
O150 C120 1.325 . S
O151 Li89 1.961 . S
O151 Li90 1.970 . S
O151 Li91 1.956 . S
O151 C126 1.325 . S
H152 C94 0.929 . S
H153 C95 0.930 . S
H154 C96 0.930 . S
H155 C97 0.930 . S
H156 C99 0.930 . S
H157 C101 0.929 . S
H158 C102 0.930 . S
H159 C103 0.930 . S
H160 C106 0.930 . S
H161 C109 0.929 . S
H162 C114 0.929 . S
H163 C115 0.930 . S
H164 C122 0.929 . S
H165 C123 0.930 . S
H166 C124 0.930 . S
H167 C125 0.930 . S
H168 C127 0.929 . S
H169 C128 0.930 . S
H170 C129 0.930 . S
H171 C130 0.930 . S
H172 C134 0.929 . S
H173 C136 0.930 . S
H174 C142 0.929 . S
H175 C143 0.930 . S
Li176 N193 1.990 . S
Li176 O236 1.956 . S
Li176 O237 1.970 . S
Li176 O238 1.961 . S
Li177 N201 1.990 . S
Li177 O236 1.970 . S
Li177 O237 1.956 . S
Li177 O239 1.961 . S
Li178 N223 1.990 . S
Li178 O236 1.961 . S
Li178 O238 1.956 . S
Li178 O239 1.970 . S
Li179 N229 1.990 . S
Li179 O237 1.961 . S
Li179 O238 1.970 . S
Li179 O239 1.956 . S
C180 C182 1.348 . S
C180 C183 1.356 . S
C180 O236 1.325 . S
N181 C184 1.314 . S
N181 C185 1.279 . S
C182 C180 1.348 . S
C182 C184 1.353 . S
C182 H240 0.929 . S
C183 C180 1.356 . S
C183 C185 1.358 . S
C183 H241 0.930 . S
C184 N181 1.314 . S
C184 C182 1.353 . S
C184 H242 0.930 . S
C185 N181 1.279 . S
C185 C183 1.358 . S
C185 H243 0.930 . S
C186 C189 1.348 . S
C186 C190 1.356 . S
C186 O237 1.325 . S
C187 N188 1.279 . S
C187 C190 1.358 . S
C187 H244 0.930 . S
N188 C187 1.279 . S
N188 C191 1.314 . S
C189 C186 1.348 . S
C189 C191 1.353 . S
C189 H245 0.929 . S
C190 C186 1.356 . S
C190 C187 1.358 . S
C190 H246 0.930 . S
C191 N188 1.314 . S
C191 C189 1.353 . S
C191 H247 0.930 . S
C192 N193 1.314 . S
C192 C197 1.353 . S
C192 H198 0.930 . S
N193 Li176 1.990 . S
N193 C192 1.314 . S
N193 C195 1.279 . S
C194 C195 1.358 . S
C194 C196 1.356 . S
C194 H248 0.930 . S
C195 N193 1.279 . S
C195 C194 1.358 . S
C195 H199 0.930 . S
C196 C194 1.356 . S
C196 C197 1.348 . S
C197 C192 1.353 . S
C197 C196 1.348 . S
C197 H249 0.929 . S
H198 C192 0.930 . S
H199 C195 0.930 . S
C200 N201 1.314 . S
C200 C202 1.353 . S
C200 H206 0.930 . S
N201 Li177 1.990 . S
N201 C200 1.314 . S
N201 C204 1.279 . S
C202 C200 1.353 . S
C202 C205 1.348 . S
C202 H250 0.929 . S
C203 C204 1.358 . S
C203 C205 1.356 . S
C203 H251 0.930 . S
C204 N201 1.279 . S
C204 C203 1.358 . S
C204 H207 0.930 . S
C205 C202 1.348 . S
C205 C203 1.356 . S
H206 C200 0.930 . S
H207 C204 0.930 . S
C208 C210 1.348 . S
C208 C211 1.356 . S
C208 O238 1.325 . S
N209 C212 1.314 . S
N209 C213 1.279 . S
C210 C208 1.348 . S
C210 C212 1.353 . S
C210 H252 0.929 . S
C211 C208 1.356 . S
C211 C213 1.358 . S
C211 H253 0.930 . S
C212 N209 1.314 . S
C212 C210 1.353 . S
C212 H254 0.930 . S
C213 N209 1.279 . S
C213 C211 1.358 . S
C213 H255 0.930 . S
C214 C215 1.348 . S
C214 C216 1.356 . S
C214 O239 1.325 . S
C215 C214 1.348 . S
C215 C217 1.353 . S
C215 H256 0.929 . S
C216 C214 1.356 . S
C216 C218 1.358 . S
C216 H257 0.930 . S
C217 C215 1.353 . S
C217 N219 1.314 1_554 S
C217 H258 0.930 1_554 S
C218 C216 1.358 . S
C218 N219 1.279 1_554 S
C218 H259 0.930 . S
N219 C217 1.314 1_556 S
N219 C218 1.279 1_556 S
C220 C222 1.353 . S
C220 N223 1.314 . S
C220 H226 0.930 . S
C221 N223 1.279 . S
C221 C224 1.358 . S
C221 H227 0.930 . S
C222 C220 1.353 . S
C222 C225 1.348 . S
C222 H260 0.929 . S
N223 Li178 1.990 . S
N223 C220 1.314 . S
N223 C221 1.279 . S
C224 C221 1.358 . S
C224 C225 1.356 . S
C224 H261 0.930 . S
C225 C222 1.348 . S
C225 C224 1.356 . S
H226 C220 0.930 . S
H227 C221 0.930 . S
C228 N229 1.314 . S
C228 C230 1.353 . S
C228 H234 0.930 . S
N229 Li179 1.990 . S
N229 C228 1.314 . S
N229 C232 1.279 . S
C230 C228 1.353 . S
C230 C233 1.348 . S
C230 H262 0.929 . S
C231 C232 1.358 . S
C231 C233 1.356 . S
C231 H263 0.930 . S
C232 N229 1.279 . S
C232 C231 1.358 . S
C232 H235 0.930 . S
C233 C230 1.348 . S
C233 C231 1.356 . S
H234 C228 0.930 . S
H235 C232 0.930 . S
O236 Li176 1.956 . S
O236 Li177 1.970 . S
O236 Li178 1.961 . S
O236 C180 1.325 . S
O237 Li176 1.970 . S
O237 Li177 1.956 . S
O237 Li179 1.961 . S
O237 C186 1.325 . S
O238 Li176 1.961 . S
O238 Li178 1.956 . S
O238 Li179 1.970 . S
O238 C208 1.325 . S
O239 Li177 1.961 . S
O239 Li178 1.970 . S
O239 Li179 1.956 . S
O239 C214 1.325 . S
H240 C182 0.929 . S
H241 C183 0.930 . S
H242 C184 0.930 . S
H243 C185 0.930 . S
H244 C187 0.930 . S
H245 C189 0.929 . S
H246 C190 0.930 . S
H247 C191 0.930 . S
H248 C194 0.930 . S
H249 C197 0.929 . S
H250 C202 0.929 . S
H251 C203 0.930 . S
H252 C210 0.929 . S
H253 C211 0.930 . S
H254 C212 0.930 . S
H255 C213 0.930 . S
H256 C215 0.929 . S
H257 C216 0.930 . S
H258 C217 0.930 1_556 S
H259 C218 0.930 . S
H260 C222 0.929 . S
H261 C224 0.930 . S
H262 C230 0.929 . S
H263 C231 0.930 . S
Li264 N281 1.990 . S
Li264 O324 1.956 . S
Li264 O325 1.970 . S
Li264 O326 1.961 . S
Li265 N289 1.990 . S
Li265 O324 1.970 . S
Li265 O325 1.956 . S
Li265 O327 1.961 . S
Li266 N311 1.990 . S
Li266 O324 1.961 . S
Li266 O326 1.956 . S
Li266 O327 1.970 . S
Li267 N317 1.990 . S
Li267 O325 1.961 . S
Li267 O326 1.970 . S
Li267 O327 1.956 . S
C268 C270 1.348 . S
C268 C271 1.356 . S
C268 O324 1.325 . S
N269 C272 1.314 . S
N269 C273 1.279 . S
C270 C268 1.348 . S
C270 C272 1.353 . S
C270 H328 0.929 . S
C271 C268 1.356 . S
C271 C273 1.358 . S
C271 H329 0.930 . S
C272 N269 1.314 . S
C272 C270 1.353 . S
C272 H330 0.930 . S
C273 N269 1.279 . S
C273 C271 1.358 . S
C273 H331 0.930 . S
C274 C277 1.348 . S
C274 C278 1.356 . S
C274 O325 1.325 . S
C275 N276 1.279 . S
C275 C278 1.358 . S
C275 H332 0.930 . S
N276 C275 1.279 . S
N276 C279 1.314 . S
C277 C274 1.348 . S
C277 C279 1.353 . S
C277 H333 0.929 . S
C278 C274 1.356 . S
C278 C275 1.358 . S
C278 H334 0.930 . S
C279 N276 1.314 . S
C279 C277 1.353 . S
C279 H335 0.930 . S
C280 N281 1.314 . S
C280 C285 1.353 . S
C280 H286 0.930 . S
N281 Li264 1.990 . S
N281 C280 1.314 . S
N281 C283 1.279 . S
C282 C283 1.358 . S
C282 C284 1.356 . S
C282 H336 0.930 . S
C283 N281 1.279 . S
C283 C282 1.358 . S
C283 H287 0.930 . S
C284 C282 1.356 . S
C284 C285 1.348 . S
C285 C280 1.353 . S
C285 C284 1.348 . S
C285 H337 0.929 . S
H286 C280 0.930 . S
H287 C283 0.930 . S
C288 N289 1.314 . S
C288 C290 1.353 . S
C288 H294 0.930 . S
N289 Li265 1.990 . S
N289 C288 1.314 . S
N289 C292 1.279 . S
C290 C288 1.353 . S
C290 C293 1.348 . S
C290 H338 0.929 . S
C291 C292 1.358 . S
C291 C293 1.356 . S
C291 H339 0.930 . S
C292 N289 1.279 . S
C292 C291 1.358 . S
C292 H295 0.930 . S
C293 C290 1.348 . S
C293 C291 1.356 . S
H294 C288 0.930 . S
H295 C292 0.930 . S
C296 C298 1.348 . S
C296 C299 1.356 . S
C296 O326 1.325 . S
N297 C300 1.314 . S
N297 C301 1.279 . S
C298 C296 1.348 . S
C298 C300 1.353 . S
C298 H340 0.929 . S
C299 C296 1.356 . S
C299 C301 1.358 . S
C299 H341 0.930 . S
C300 N297 1.314 . S
C300 C298 1.353 . S
C300 H342 0.930 . S
C301 N297 1.279 . S
C301 C299 1.358 . S
C301 H343 0.930 . S
C302 C303 1.348 . S
C302 C304 1.356 . S
C302 O327 1.325 . S
C303 C302 1.348 . S
C303 C305 1.353 . S
C303 H344 0.929 . S
C304 C302 1.356 . S
C304 C306 1.358 . S
C304 H345 0.930 . S
C305 C303 1.353 . S
C305 N307 1.314 . S
C305 H346 0.930 . S
C306 C304 1.358 . S
C306 N307 1.279 . S
C306 H347 0.930 . S
N307 C305 1.314 . S
N307 C306 1.279 . S
C308 C310 1.353 . S
C308 N311 1.314 . S
C308 H314 0.930 . S
C309 N311 1.279 . S
C309 C312 1.358 . S
C309 H315 0.930 . S
C310 C308 1.353 . S
C310 C313 1.348 . S
C310 H348 0.929 . S
N311 Li266 1.990 . S
N311 C308 1.314 . S
N311 C309 1.279 . S
C312 C309 1.358 . S
C312 C313 1.356 . S
C312 H349 0.930 . S
C313 C310 1.348 . S
C313 C312 1.356 . S
H314 C308 0.930 . S
H315 C309 0.930 . S
C316 N317 1.314 . S
C316 C318 1.353 . S
C316 H322 0.930 . S
N317 Li267 1.990 . S
N317 C316 1.314 . S
N317 C320 1.279 . S
C318 C316 1.353 . S
C318 C321 1.348 . S
C318 H350 0.929 . S
C319 C320 1.358 . S
C319 C321 1.356 . S
C319 H351 0.930 . S
C320 N317 1.279 . S
C320 C319 1.358 . S
C320 H323 0.930 . S
C321 C318 1.348 . S
C321 C319 1.356 . S
H322 C316 0.930 . S
H323 C320 0.930 . S
O324 Li264 1.956 . S
O324 Li265 1.970 . S
O324 Li266 1.961 . S
O324 C268 1.325 . S
O325 Li264 1.970 . S
O325 Li265 1.956 . S
O325 Li267 1.961 . S
O325 C274 1.325 . S
O326 Li264 1.961 . S
O326 Li266 1.956 . S
O326 Li267 1.970 . S
O326 C296 1.325 . S
O327 Li265 1.961 . S
O327 Li266 1.970 . S
O327 Li267 1.956 . S
O327 C302 1.325 . S
H328 C270 0.929 . S
H329 C271 0.930 . S
H330 C272 0.930 . S
H331 C273 0.930 . S
H332 C275 0.930 . S
H333 C277 0.929 . S
H334 C278 0.930 . S
H335 C279 0.930 . S
H336 C282 0.930 . S
H337 C285 0.929 . S
H338 C290 0.929 . S
H339 C291 0.930 . S
H340 C298 0.929 . S
H341 C299 0.930 . S
H342 C300 0.930 . S
H343 C301 0.930 . S
H344 C303 0.929 . S
H345 C304 0.930 . S
H346 C305 0.930 . S
H347 C306 0.930 . S
H348 C310 0.929 . S
H349 C312 0.930 . S
H350 C318 0.929 . S
H351 C319 0.930 . S
Li352 N369 1.990 . S
Li352 O412 1.956 . S
Li352 O413 1.970 . S
Li352 O414 1.961 . S
Li353 N377 1.990 . S
Li353 O412 1.970 . S
Li353 O413 1.956 . S
Li353 O415 1.961 . S
Li354 N399 1.990 . S
Li354 O412 1.961 . S
Li354 O414 1.956 . S
Li354 O415 1.970 . S
Li355 N405 1.990 . S
Li355 O413 1.961 . S
Li355 O414 1.970 . S
Li355 O415 1.956 . S
C356 C358 1.348 . S
C356 C359 1.356 . S
C356 O412 1.325 . S
N357 C360 1.314 . S
N357 C361 1.279 . S
C358 C356 1.348 . S
C358 C360 1.353 . S
C358 H416 0.929 . S
C359 C356 1.356 . S
C359 C361 1.358 . S
C359 H417 0.930 . S
C360 N357 1.314 . S
C360 C358 1.353 . S
C360 H418 0.930 . S
C361 N357 1.279 . S
C361 C359 1.358 . S
C361 H419 0.930 . S
C362 C365 1.348 . S
C362 C366 1.356 . S
C362 O413 1.325 . S
C363 N364 1.279 1_554 S
C363 C366 1.358 . S
C363 H420 0.930 . S
N364 C363 1.279 1_556 S
N364 C367 1.314 1_556 S
C365 C362 1.348 . S
C365 C367 1.353 . S
C365 H421 0.929 . S
C366 C362 1.356 . S
C366 C363 1.358 . S
C366 H422 0.930 . S
C367 N364 1.314 1_554 S
C367 C365 1.353 . S
C367 H423 0.930 1_554 S
C368 N369 1.314 . S
C368 C373 1.353 . S
C368 H374 0.930 . S
N369 Li352 1.990 . S
N369 C368 1.314 . S
N369 C371 1.279 . S
C370 C371 1.358 . S
C370 C372 1.356 . S
C370 H424 0.930 . S
C371 N369 1.279 . S
C371 C370 1.358 . S
C371 H375 0.930 . S
C372 C370 1.356 . S
C372 C373 1.348 . S
C373 C368 1.353 . S
C373 C372 1.348 . S
C373 H425 0.929 . S
H374 C368 0.930 . S
H375 C371 0.930 . S
C376 N377 1.314 . S
C376 C378 1.353 . S
C376 H382 0.930 . S
N377 Li353 1.990 . S
N377 C376 1.314 . S
N377 C380 1.279 . S
C378 C376 1.353 . S
C378 C381 1.348 . S
C378 H426 0.929 . S
C379 C380 1.358 . S
C379 C381 1.356 . S
C379 H427 0.930 . S
C380 N377 1.279 . S
C380 C379 1.358 . S
C380 H383 0.930 . S
C381 C378 1.348 . S
C381 C379 1.356 . S
H382 C376 0.930 . S
H383 C380 0.930 . S
C384 C386 1.348 . S
C384 C387 1.356 . S
C384 O414 1.325 . S
N385 C388 1.314 . S
N385 C389 1.279 . S
C386 C384 1.348 . S
C386 C388 1.353 . S
C386 H428 0.929 . S
C387 C384 1.356 . S
C387 C389 1.358 . S
C387 H429 0.930 . S
C388 N385 1.314 . S
C388 C386 1.353 . S
C388 H430 0.930 . S
C389 N385 1.279 . S
C389 C387 1.358 . S
C389 H431 0.930 . S
C390 C391 1.348 . S
C390 C392 1.356 . S
C390 O415 1.325 . S
C391 C390 1.348 . S
C391 C393 1.353 . S
C391 H432 0.929 . S
C392 C390 1.356 . S
C392 C394 1.358 . S
C392 H433 0.930 . S
C393 C391 1.353 . S
C393 N395 1.314 . S
C393 H434 0.930 . S
C394 C392 1.358 . S
C394 N395 1.279 . S
C394 H435 0.930 . S
N395 C393 1.314 . S
N395 C394 1.279 . S
C396 C398 1.353 . S
C396 N399 1.314 . S
C396 H402 0.930 . S
C397 N399 1.279 . S
C397 C400 1.358 . S
C397 H403 0.930 . S
C398 C396 1.353 . S
C398 C401 1.348 . S
C398 H436 0.929 . S
N399 Li354 1.990 . S
N399 C396 1.314 . S
N399 C397 1.279 . S
C400 C397 1.358 . S
C400 C401 1.356 . S
C400 H437 0.930 . S
C401 C398 1.348 . S
C401 C400 1.356 . S
H402 C396 0.930 . S
H403 C397 0.930 . S
C404 N405 1.314 . S
C404 C406 1.353 . S
C404 H410 0.930 . S
N405 Li355 1.990 . S
N405 C404 1.314 . S
N405 C408 1.279 . S
C406 C404 1.353 . S
C406 C409 1.348 . S
C406 H438 0.929 . S
C407 C408 1.358 . S
C407 C409 1.356 . S
C407 H439 0.930 . S
C408 N405 1.279 . S
C408 C407 1.358 . S
C408 H411 0.930 . S
C409 C406 1.348 . S
C409 C407 1.356 . S
H410 C404 0.930 . S
H411 C408 0.930 . S
O412 Li352 1.956 . S
O412 Li353 1.970 . S
O412 Li354 1.961 . S
O412 C356 1.325 . S
O413 Li352 1.970 . S
O413 Li353 1.956 . S
O413 Li355 1.961 . S
O413 C362 1.325 . S
O414 Li352 1.961 . S
O414 Li354 1.956 . S
O414 Li355 1.970 . S
O414 C384 1.325 . S
O415 Li353 1.961 . S
O415 Li354 1.970 . S
O415 Li355 1.956 . S
O415 C390 1.325 . S
H416 C358 0.929 . S
H417 C359 0.930 . S
H418 C360 0.930 . S
H419 C361 0.930 . S
H420 C363 0.930 . S
H421 C365 0.929 . S
H422 C366 0.930 . S
H423 C367 0.930 1_556 S
H424 C370 0.930 . S
H425 C373 0.929 . S
H426 C378 0.929 . S
H427 C379 0.930 . S
H428 C386 0.929 . S
H429 C387 0.930 . S
H430 C388 0.930 . S
H431 C389 0.930 . S
H432 C391 0.929 . S
H433 C392 0.930 . S
H434 C393 0.930 . S
H435 C394 0.930 . S
H436 C398 0.929 . S
H437 C400 0.930 . S
H438 C406 0.929 . S
H439 C407 0.930 . S
Li440 N457 1.990 . S
Li440 O500 1.956 . S
Li440 O501 1.970 . S
Li440 O502 1.961 . S
Li441 N465 1.990 . S
Li441 O500 1.970 . S
Li441 O501 1.956 . S
Li441 O503 1.961 . S
Li442 N487 1.990 . S
Li442 O500 1.961 . S
Li442 O502 1.956 . S
Li442 O503 1.970 . S
Li443 N493 1.990 . S
Li443 O501 1.961 . S
Li443 O502 1.970 . S
Li443 O503 1.956 . S
C444 C446 1.348 . S
C444 C447 1.356 . S
C444 O500 1.325 . S
N445 C448 1.314 . S
N445 C449 1.279 . S
C446 C444 1.348 . S
C446 C448 1.353 . S
C446 H504 0.929 . S
C447 C444 1.356 . S
C447 C449 1.358 . S
C447 H505 0.930 . S
C448 N445 1.314 . S
C448 C446 1.353 . S
C448 H506 0.930 . S
C449 N445 1.279 . S
C449 C447 1.358 . S
C449 H507 0.930 . S
C450 C453 1.348 . S
C450 C454 1.356 . S
C450 O501 1.325 . S
C451 N452 1.279 . S
C451 C454 1.358 . S
C451 H508 0.930 . S
N452 C451 1.279 . S
N452 C455 1.314 . S
C453 C450 1.348 . S
C453 C455 1.353 . S
C453 H509 0.929 . S
C454 C450 1.356 . S
C454 C451 1.358 . S
C454 H510 0.930 . S
C455 N452 1.314 . S
C455 C453 1.353 . S
C455 H511 0.930 . S
C456 N457 1.314 . S
C456 C461 1.353 . S
C456 H462 0.930 . S
N457 Li440 1.990 . S
N457 C456 1.314 . S
N457 C459 1.279 . S
C458 C459 1.358 . S
C458 C460 1.356 . S
C458 H512 0.930 . S
C459 N457 1.279 . S
C459 C458 1.358 . S
C459 H463 0.930 . S
C460 C458 1.356 . S
C460 C461 1.348 . S
C461 C456 1.353 . S
C461 C460 1.348 . S
C461 H513 0.929 . S
H462 C456 0.930 . S
H463 C459 0.930 . S
C464 N465 1.314 . S
C464 C466 1.353 . S
C464 H470 0.930 . S
N465 Li441 1.990 . S
N465 C464 1.314 . S
N465 C468 1.279 . S
C466 C464 1.353 . S
C466 C469 1.348 . S
C466 H514 0.929 . S
C467 C468 1.358 . S
C467 C469 1.356 . S
C467 H515 0.930 . S
C468 N465 1.279 . S
C468 C467 1.358 . S
C468 H471 0.930 . S
C469 C466 1.348 . S
C469 C467 1.356 . S
H470 C464 0.930 . S
H471 C468 0.930 . S
C472 C474 1.348 . S
C472 C475 1.356 . S
C472 O502 1.325 . S
N473 C476 1.314 . S
N473 C477 1.279 . S
C474 C472 1.348 . S
C474 C476 1.353 . S
C474 H516 0.929 . S
C475 C472 1.356 . S
C475 C477 1.358 . S
C475 H517 0.930 . S
C476 N473 1.314 . S
C476 C474 1.353 . S
C476 H518 0.930 . S
C477 N473 1.279 . S
C477 C475 1.358 . S
C477 H519 0.930 . S
C478 C479 1.348 . S
C478 C480 1.356 . S
C478 O503 1.325 . S
C479 C478 1.348 . S
C479 C481 1.353 . S
C479 H520 0.929 . S
C480 C478 1.356 . S
C480 C482 1.358 . S
C480 H521 0.930 . S
C481 C479 1.353 . S
C481 N483 1.314 . S
C481 H522 0.930 . S
C482 C480 1.358 . S
C482 N483 1.279 . S
C482 H523 0.930 . S
N483 C481 1.314 . S
N483 C482 1.279 . S
C484 C486 1.353 . S
C484 N487 1.314 . S
C484 H490 0.930 . S
C485 N487 1.279 . S
C485 C488 1.358 . S
C485 H491 0.930 . S
C486 C484 1.353 . S
C486 C489 1.348 . S
C486 H524 0.929 . S
N487 Li442 1.990 . S
N487 C484 1.314 . S
N487 C485 1.279 . S
C488 C485 1.358 . S
C488 C489 1.356 . S
C488 H525 0.930 . S
C489 C486 1.348 . S
C489 C488 1.356 . S
H490 C484 0.930 . S
H491 C485 0.930 . S
C492 N493 1.314 . S
C492 C494 1.353 . S
C492 H498 0.930 . S
N493 Li443 1.990 . S
N493 C492 1.314 . S
N493 C496 1.279 . S
C494 C492 1.353 . S
C494 C497 1.348 . S
C494 H526 0.929 . S
C495 C496 1.358 . S
C495 C497 1.356 . S
C495 H527 0.930 . S
C496 N493 1.279 . S
C496 C495 1.358 . S
C496 H499 0.930 . S
C497 C494 1.348 . S
C497 C495 1.356 . S
H498 C492 0.930 . S
H499 C496 0.930 . S
O500 Li440 1.956 . S
O500 Li441 1.970 . S
O500 Li442 1.961 . S
O500 C444 1.325 . S
O501 Li440 1.970 . S
O501 Li441 1.956 . S
O501 Li443 1.961 . S
O501 C450 1.325 . S
O502 Li440 1.961 . S
O502 Li442 1.956 . S
O502 Li443 1.970 . S
O502 C472 1.325 . S
O503 Li441 1.961 . S
O503 Li442 1.970 . S
O503 Li443 1.956 . S
O503 C478 1.325 . S
H504 C446 0.929 . S
H505 C447 0.930 . S
H506 C448 0.930 . S
H507 C449 0.930 . S
H508 C451 0.930 . S
H509 C453 0.929 . S
H510 C454 0.930 . S
H511 C455 0.930 . S
H512 C458 0.930 . S
H513 C461 0.929 . S
H514 C466 0.929 . S
H515 C467 0.930 . S
H516 C474 0.929 . S
H517 C475 0.930 . S
H518 C476 0.930 . S
H519 C477 0.930 . S
H520 C479 0.929 . S
H521 C480 0.930 . S
H522 C481 0.930 . S
H523 C482 0.930 . S
H524 C486 0.929 . S
H525 C488 0.930 . S
H526 C494 0.929 . S
H527 C495 0.930 . S
Li528 N545 1.990 . S
Li528 O588 1.956 . S
Li528 O589 1.970 . S
Li528 O590 1.961 . S
Li529 N553 1.990 . S
Li529 O588 1.970 . S
Li529 O589 1.956 . S
Li529 O591 1.961 . S
Li530 N575 1.990 . S
Li530 O588 1.961 . S
Li530 O590 1.956 . S
Li530 O591 1.970 . S
Li531 N581 1.990 . S
Li531 O589 1.961 . S
Li531 O590 1.970 . S
Li531 O591 1.956 . S
C532 C534 1.348 . S
C532 C535 1.356 . S
C532 O588 1.325 . S
N533 C536 1.314 . S
N533 C537 1.279 . S
C534 C532 1.348 . S
C534 C536 1.353 . S
C534 H592 0.929 . S
C535 C532 1.356 . S
C535 C537 1.358 . S
C535 H593 0.930 . S
C536 N533 1.314 . S
C536 C534 1.353 . S
C536 H594 0.930 . S
C537 N533 1.279 . S
C537 C535 1.358 . S
C537 H595 0.930 . S
C538 C541 1.348 . S
C538 C542 1.356 . S
C538 O589 1.325 . S
C539 N540 1.279 . S
C539 C542 1.358 . S
C539 H596 0.930 . S
N540 C539 1.279 . S
N540 C543 1.314 . S
C541 C538 1.348 . S
C541 C543 1.353 . S
C541 H597 0.929 . S
C542 C538 1.356 . S
C542 C539 1.358 . S
C542 H598 0.930 . S
C543 N540 1.314 . S
C543 C541 1.353 . S
C543 H599 0.930 . S
C544 N545 1.314 . S
C544 C549 1.353 . S
C544 H550 0.930 . S
N545 Li528 1.990 . S
N545 C544 1.314 . S
N545 C547 1.279 . S
C546 C547 1.358 . S
C546 C548 1.356 . S
C546 H600 0.930 . S
C547 N545 1.279 . S
C547 C546 1.358 . S
C547 H551 0.930 . S
C548 C546 1.356 . S
C548 C549 1.348 . S
C549 C544 1.353 . S
C549 C548 1.348 . S
C549 H601 0.929 . S
H550 C544 0.930 . S
H551 C547 0.930 . S
C552 N553 1.314 . S
C552 C554 1.353 . S
C552 H558 0.930 . S
N553 Li529 1.990 . S
N553 C552 1.314 . S
N553 C556 1.279 . S
C554 C552 1.353 . S
C554 C557 1.348 . S
C554 H602 0.929 . S
C555 C556 1.358 . S
C555 C557 1.356 . S
C555 H603 0.930 . S
C556 N553 1.279 . S
C556 C555 1.358 . S
C556 H559 0.930 . S
C557 C554 1.348 . S
C557 C555 1.356 . S
H558 C552 0.930 . S
H559 C556 0.930 . S
C560 C562 1.348 . S
C560 C563 1.356 . S
C560 O590 1.325 . S
N561 C564 1.314 . S
N561 C565 1.279 . S
C562 C560 1.348 . S
C562 C564 1.353 . S
C562 H604 0.929 . S
C563 C560 1.356 . S
C563 C565 1.358 . S
C563 H605 0.930 . S
C564 N561 1.314 . S
C564 C562 1.353 . S
C564 H606 0.930 . S
C565 N561 1.279 . S
C565 C563 1.358 . S
C565 H607 0.930 . S
C566 C567 1.348 . S
C566 C568 1.356 . S
C566 O591 1.325 . S
C567 C566 1.348 . S
C567 C569 1.353 . S
C567 H608 0.929 . S
C568 C566 1.356 . S
C568 C570 1.358 . S
C568 H609 0.930 . S
C569 C567 1.353 . S
C569 N571 1.314 . S
C569 H610 0.930 . S
C570 C568 1.358 . S
C570 N571 1.279 . S
C570 H611 0.930 . S
N571 C569 1.314 . S
N571 C570 1.279 . S
C572 C574 1.353 . S
C572 N575 1.314 . S
C572 H578 0.930 . S
C573 N575 1.279 . S
C573 C576 1.358 . S
C573 H579 0.930 . S
C574 C572 1.353 . S
C574 C577 1.348 . S
C574 H612 0.929 . S
N575 Li530 1.990 . S
N575 C572 1.314 . S
N575 C573 1.279 . S
C576 C573 1.358 . S
C576 C577 1.356 . S
C576 H613 0.930 . S
C577 C574 1.348 . S
C577 C576 1.356 . S
H578 C572 0.930 . S
H579 C573 0.930 . S
C580 N581 1.314 . S
C580 C582 1.353 . S
C580 H586 0.930 . S
N581 Li531 1.990 . S
N581 C580 1.314 . S
N581 C584 1.279 . S
C582 C580 1.353 . S
C582 C585 1.348 . S
C582 H614 0.929 . S
C583 C584 1.358 . S
C583 C585 1.356 . S
C583 H615 0.930 . S
C584 N581 1.279 . S
C584 C583 1.358 . S
C584 H587 0.930 . S
C585 C582 1.348 . S
C585 C583 1.356 . S
H586 C580 0.930 . S
H587 C584 0.930 . S
O588 Li528 1.956 . S
O588 Li529 1.970 . S
O588 Li530 1.961 . S
O588 C532 1.325 . S
O589 Li528 1.970 . S
O589 Li529 1.956 . S
O589 Li531 1.961 . S
O589 C538 1.325 . S
O590 Li528 1.961 . S
O590 Li530 1.956 . S
O590 Li531 1.970 . S
O590 C560 1.325 . S
O591 Li529 1.961 . S
O591 Li530 1.970 . S
O591 Li531 1.956 . S
O591 C566 1.325 . S
H592 C534 0.929 . S
H593 C535 0.930 . S
H594 C536 0.930 . S
H595 C537 0.930 . S
H596 C539 0.930 . S
H597 C541 0.929 . S
H598 C542 0.930 . S
H599 C543 0.930 . S
H600 C546 0.930 . S
H601 C549 0.929 . S
H602 C554 0.929 . S
H603 C555 0.930 . S
H604 C562 0.929 . S
H605 C563 0.930 . S
H606 C564 0.930 . S
H607 C565 0.930 . S
H608 C567 0.929 . S
H609 C568 0.930 . S
H610 C569 0.930 . S
H611 C570 0.930 . S
H612 C574 0.929 . S
H613 C576 0.930 . S
H614 C582 0.929 . S
H615 C583 0.930 . S
Li616 N633 1.990 . S
Li616 O676 1.956 . S
Li616 O677 1.970 . S
Li616 O678 1.961 . S
Li617 N641 1.990 . S
Li617 O676 1.970 . S
Li617 O677 1.956 . S
Li617 O679 1.961 . S
Li618 N663 1.990 . S
Li618 O676 1.961 . S
Li618 O678 1.956 . S
Li618 O679 1.970 . S
Li619 N669 1.990 . S
Li619 O677 1.961 . S
Li619 O678 1.970 . S
Li619 O679 1.956 . S
C620 C622 1.348 . S
C620 C623 1.356 . S
C620 O676 1.325 . S
N621 C624 1.314 . S
N621 C625 1.279 . S
C622 C620 1.348 . S
C622 C624 1.353 . S
C622 H680 0.929 . S
C623 C620 1.356 . S
C623 C625 1.358 . S
C623 H681 0.930 . S
C624 N621 1.314 . S
C624 C622 1.353 . S
C624 H682 0.930 . S
C625 N621 1.279 . S
C625 C623 1.358 . S
C625 H683 0.930 . S
C626 C629 1.348 . S
C626 C630 1.356 . S
C626 O677 1.325 . S
C627 N628 1.279 1_556 S
C627 C630 1.358 . S
C627 H684 0.930 . S
N628 C627 1.279 1_554 S
N628 C631 1.314 1_554 S
C629 C626 1.348 . S
C629 C631 1.353 . S
C629 H685 0.929 . S
C630 C626 1.356 . S
C630 C627 1.358 . S
C630 H686 0.930 . S
C631 N628 1.314 1_556 S
C631 C629 1.353 . S
C631 H687 0.930 1_556 S
C632 N633 1.314 . S
C632 C637 1.353 . S
C632 H638 0.930 . S
N633 Li616 1.990 . S
N633 C632 1.314 . S
N633 C635 1.279 . S
C634 C635 1.358 . S
C634 C636 1.356 . S
C634 H688 0.930 . S
C635 N633 1.279 . S
C635 C634 1.358 . S
C635 H639 0.930 . S
C636 C634 1.356 . S
C636 C637 1.348 . S
C637 C632 1.353 . S
C637 C636 1.348 . S
C637 H689 0.929 . S
H638 C632 0.930 . S
H639 C635 0.930 . S
C640 N641 1.314 . S
C640 C642 1.353 . S
C640 H646 0.930 . S
N641 Li617 1.990 . S
N641 C640 1.314 . S
N641 C644 1.279 . S
C642 C640 1.353 . S
C642 C645 1.348 . S
C642 H690 0.929 . S
C643 C644 1.358 . S
C643 C645 1.356 . S
C643 H691 0.930 . S
C644 N641 1.279 . S
C644 C643 1.358 . S
C644 H647 0.930 . S
C645 C642 1.348 . S
C645 C643 1.356 . S
H646 C640 0.930 . S
H647 C644 0.930 . S
C648 C650 1.348 . S
C648 C651 1.356 . S
C648 O678 1.325 . S
N649 C652 1.314 . S
N649 C653 1.279 . S
C650 C648 1.348 . S
C650 C652 1.353 . S
C650 H692 0.929 . S
C651 C648 1.356 . S
C651 C653 1.358 . S
C651 H693 0.930 . S
C652 N649 1.314 . S
C652 C650 1.353 . S
C652 H694 0.930 . S
C653 N649 1.279 . S
C653 C651 1.358 . S
C653 H695 0.930 . S
C654 C655 1.348 . S
C654 C656 1.356 . S
C654 O679 1.325 . S
C655 C654 1.348 . S
C655 C657 1.353 . S
C655 H696 0.929 . S
C656 C654 1.356 . S
C656 C658 1.358 . S
C656 H697 0.930 . S
C657 C655 1.353 . S
C657 N659 1.314 . S
C657 H698 0.930 . S
C658 C656 1.358 . S
C658 N659 1.279 . S
C658 H699 0.930 . S
N659 C657 1.314 . S
N659 C658 1.279 . S
C660 C662 1.353 . S
C660 N663 1.314 . S
C660 H666 0.930 . S
C661 N663 1.279 . S
C661 C664 1.358 . S
C661 H667 0.930 . S
C662 C660 1.353 . S
C662 C665 1.348 . S
C662 H700 0.929 . S
N663 Li618 1.990 . S
N663 C660 1.314 . S
N663 C661 1.279 . S
C664 C661 1.358 . S
C664 C665 1.356 . S
C664 H701 0.930 . S
C665 C662 1.348 . S
C665 C664 1.356 . S
H666 C660 0.930 . S
H667 C661 0.930 . S
C668 N669 1.314 . S
C668 C670 1.353 . S
C668 H674 0.930 . S
N669 Li619 1.990 . S
N669 C668 1.314 . S
N669 C672 1.279 . S
C670 C668 1.353 . S
C670 C673 1.348 . S
C670 H702 0.929 . S
C671 C672 1.358 . S
C671 C673 1.356 . S
C671 H703 0.930 . S
C672 N669 1.279 . S
C672 C671 1.358 . S
C672 H675 0.930 . S
C673 C670 1.348 . S
C673 C671 1.356 . S
H674 C668 0.930 . S
H675 C672 0.930 . S
O676 Li616 1.956 . S
O676 Li617 1.970 . S
O676 Li618 1.961 . S
O676 C620 1.325 . S
O677 Li616 1.970 . S
O677 Li617 1.956 . S
O677 Li619 1.961 . S
O677 C626 1.325 . S
O678 Li616 1.961 . S
O678 Li618 1.956 . S
O678 Li619 1.970 . S
O678 C648 1.325 . S
O679 Li617 1.961 . S
O679 Li618 1.970 . S
O679 Li619 1.956 . S
O679 C654 1.325 . S
H680 C622 0.929 . S
H681 C623 0.930 . S
H682 C624 0.930 . S
H683 C625 0.930 . S
H684 C627 0.930 . S
H685 C629 0.929 . S
H686 C630 0.930 . S
H687 C631 0.930 1_554 S
H688 C634 0.930 . S
H689 C637 0.929 . S
H690 C642 0.929 . S
H691 C643 0.930 . S
H692 C650 0.929 . S
H693 C651 0.930 . S
H694 C652 0.930 . S
H695 C653 0.930 . S
H696 C655 0.929 . S
H697 C656 0.930 . S
H698 C657 0.930 . S
H699 C658 0.930 . S
H700 C662 0.929 . S
H701 C664 0.930 . S
H702 C670 0.929 . S
H703 C671 0.930 . S
Li704 N721 1.990 . S
Li704 O764 1.956 . S
Li704 O765 1.970 . S
Li704 O766 1.961 . S
Li705 N729 1.990 . S
Li705 O764 1.970 . S
Li705 O765 1.956 . S
Li705 O767 1.961 . S
Li706 N751 1.990 . S
Li706 O764 1.961 . S
Li706 O766 1.956 . S
Li706 O767 1.970 . S
Li707 N757 1.990 . S
Li707 O765 1.961 . S
Li707 O766 1.970 . S
Li707 O767 1.956 . S
C708 C710 1.348 . S
C708 C711 1.356 . S
C708 O764 1.325 . S
N709 C712 1.314 . S
N709 C713 1.279 . S
C710 C708 1.348 . S
C710 C712 1.353 . S
C710 H768 0.929 . S
C711 C708 1.356 . S
C711 C713 1.358 . S
C711 H769 0.930 . S
C712 N709 1.314 . S
C712 C710 1.353 . S
C712 H770 0.930 . S
C713 N709 1.279 . S
C713 C711 1.358 . S
C713 H771 0.930 . S
C714 C717 1.348 . S
C714 C718 1.356 . S
C714 O765 1.325 . S
C715 N716 1.279 . S
C715 C718 1.358 . S
C715 H772 0.930 . S
N716 C715 1.279 . S
N716 C719 1.314 . S
C717 C714 1.348 . S
C717 C719 1.353 . S
C717 H773 0.929 . S
C718 C714 1.356 . S
C718 C715 1.358 . S
C718 H774 0.930 . S
C719 N716 1.314 . S
C719 C717 1.353 . S
C719 H775 0.930 . S
C720 N721 1.314 . S
C720 C725 1.353 . S
C720 H726 0.930 . S
N721 Li704 1.990 . S
N721 C720 1.314 . S
N721 C723 1.279 . S
C722 C723 1.358 . S
C722 C724 1.356 . S
C722 H776 0.930 . S
C723 N721 1.279 . S
C723 C722 1.358 . S
C723 H727 0.930 . S
C724 C722 1.356 . S
C724 C725 1.348 . S
C725 C720 1.353 . S
C725 C724 1.348 . S
C725 H777 0.929 . S
H726 C720 0.930 . S
H727 C723 0.930 . S
C728 N729 1.314 . S
C728 C730 1.353 . S
C728 H734 0.930 . S
N729 Li705 1.990 . S
N729 C728 1.314 . S
N729 C732 1.279 . S
C730 C728 1.353 . S
C730 C733 1.348 . S
C730 H778 0.929 . S
C731 C732 1.358 . S
C731 C733 1.356 . S
C731 H779 0.930 . S
C732 N729 1.279 . S
C732 C731 1.358 . S
C732 H735 0.930 . S
C733 C730 1.348 . S
C733 C731 1.356 . S
H734 C728 0.930 . S
H735 C732 0.930 . S
C736 C738 1.348 . S
C736 C739 1.356 . S
C736 O766 1.325 . S
N737 C740 1.314 . S
N737 C741 1.279 . S
C738 C736 1.348 . S
C738 C740 1.353 . S
C738 H780 0.929 . S
C739 C736 1.356 . S
C739 C741 1.358 . S
C739 H781 0.930 . S
C740 N737 1.314 . S
C740 C738 1.353 . S
C740 H782 0.930 . S
C741 N737 1.279 . S
C741 C739 1.358 . S
C741 H783 0.930 . S
C742 C743 1.348 . S
C742 C744 1.356 . S
C742 O767 1.325 . S
C743 C742 1.348 . S
C743 C745 1.353 . S
C743 H784 0.929 . S
C744 C742 1.356 . S
C744 C746 1.358 . S
C744 H785 0.930 . S
C745 C743 1.353 . S
C745 N747 1.314 . S
C745 H786 0.930 . S
C746 C744 1.358 . S
C746 N747 1.279 . S
C746 H787 0.930 . S
N747 C745 1.314 . S
N747 C746 1.279 . S
C748 C750 1.353 . S
C748 N751 1.314 . S
C748 H754 0.930 . S
C749 N751 1.279 . S
C749 C752 1.358 . S
C749 H755 0.930 . S
C750 C748 1.353 . S
C750 C753 1.348 . S
C750 H788 0.929 . S
N751 Li706 1.990 . S
N751 C748 1.314 . S
N751 C749 1.279 . S
C752 C749 1.358 . S
C752 C753 1.356 . S
C752 H789 0.930 . S
C753 C750 1.348 . S
C753 C752 1.356 . S
H754 C748 0.930 . S
H755 C749 0.930 . S
C756 N757 1.314 . S
C756 C758 1.353 . S
C756 H762 0.930 . S
N757 Li707 1.990 . S
N757 C756 1.314 . S
N757 C760 1.279 . S
C758 C756 1.353 . S
C758 C761 1.348 . S
C758 H790 0.929 . S
C759 C760 1.358 . S
C759 C761 1.356 . S
C759 H791 0.930 . S
C760 N757 1.279 . S
C760 C759 1.358 . S
C760 H763 0.930 . S
C761 C758 1.348 . S
C761 C759 1.356 . S
H762 C756 0.930 . S
H763 C760 0.930 . S
O764 Li704 1.956 . S
O764 Li705 1.970 . S
O764 Li706 1.961 . S
O764 C708 1.325 . S
O765 Li704 1.970 . S
O765 Li705 1.956 . S
O765 Li707 1.961 . S
O765 C714 1.325 . S
O766 Li704 1.961 . S
O766 Li706 1.956 . S
O766 Li707 1.970 . S
O766 C736 1.325 . S
O767 Li705 1.961 . S
O767 Li706 1.970 . S
O767 Li707 1.956 . S
O767 C742 1.325 . S
H768 C710 0.929 . S
H769 C711 0.930 . S
H770 C712 0.930 . S
H771 C713 0.930 . S
H772 C715 0.930 . S
H773 C717 0.929 . S
H774 C718 0.930 . S
H775 C719 0.930 . S
H776 C722 0.930 . S
H777 C725 0.929 . S
H778 C730 0.929 . S
H779 C731 0.930 . S
H780 C738 0.929 . S
H781 C739 0.930 . S
H782 C740 0.930 . S
H783 C741 0.930 . S
H784 C743 0.929 . S
H785 C744 0.930 . S
H786 C745 0.930 . S
H787 C746 0.930 . S
H788 C750 0.929 . S
H789 C752 0.930 . S
H790 C758 0.929 . S
H791 C759 0.930 . S
Li792 N809 1.990 . S
Li792 O852 1.956 . S
Li792 O853 1.970 . S
Li792 O854 1.961 . S
Li793 N817 1.990 . S
Li793 O852 1.970 . S
Li793 O853 1.956 . S
Li793 O855 1.961 . S
Li794 N839 1.990 . S
Li794 O852 1.961 . S
Li794 O854 1.956 . S
Li794 O855 1.970 . S
Li795 N845 1.990 . S
Li795 O853 1.961 . S
Li795 O854 1.970 . S
Li795 O855 1.956 . S
C796 C798 1.348 . S
C796 C799 1.356 . S
C796 O852 1.325 . S
N797 C800 1.314 . S
N797 C801 1.279 . S
C798 C796 1.348 . S
C798 C800 1.353 . S
C798 H856 0.929 . S
C799 C796 1.356 . S
C799 C801 1.358 . S
C799 H857 0.930 . S
C800 N797 1.314 . S
C800 C798 1.353 . S
C800 H858 0.930 . S
C801 N797 1.279 . S
C801 C799 1.358 . S
C801 H859 0.930 . S
C802 C805 1.348 . S
C802 C806 1.356 . S
C802 O853 1.325 . S
C803 N804 1.279 1_556 S
C803 C806 1.358 . S
C803 H860 0.930 . S
N804 C803 1.279 1_554 S
N804 C807 1.314 1_554 S
C805 C802 1.348 . S
C805 C807 1.353 . S
C805 H861 0.929 . S
C806 C802 1.356 . S
C806 C803 1.358 . S
C806 H862 0.930 . S
C807 N804 1.314 1_556 S
C807 C805 1.353 . S
C807 H863 0.930 1_556 S
C808 N809 1.314 . S
C808 C813 1.353 . S
C808 H814 0.930 . S
N809 Li792 1.990 . S
N809 C808 1.314 . S
N809 C811 1.279 . S
C810 C811 1.358 . S
C810 C812 1.356 . S
C810 H864 0.930 . S
C811 N809 1.279 . S
C811 C810 1.358 . S
C811 H815 0.930 . S
C812 C810 1.356 . S
C812 C813 1.348 . S
C813 C808 1.353 . S
C813 C812 1.348 . S
C813 H865 0.929 . S
H814 C808 0.930 . S
H815 C811 0.930 . S
C816 N817 1.314 . S
C816 C818 1.353 . S
C816 H822 0.930 . S
N817 Li793 1.990 . S
N817 C816 1.314 . S
N817 C820 1.279 . S
C818 C816 1.353 . S
C818 C821 1.348 . S
C818 H866 0.929 . S
C819 C820 1.358 . S
C819 C821 1.356 . S
C819 H867 0.930 . S
C820 N817 1.279 . S
C820 C819 1.358 . S
C820 H823 0.930 . S
C821 C818 1.348 . S
C821 C819 1.356 . S
H822 C816 0.930 . S
H823 C820 0.930 . S
C824 C826 1.348 . S
C824 C827 1.356 . S
C824 O854 1.325 . S
N825 C828 1.314 . S
N825 C829 1.279 . S
C826 C824 1.348 . S
C826 C828 1.353 . S
C826 H868 0.929 . S
C827 C824 1.356 . S
C827 C829 1.358 . S
C827 H869 0.930 . S
C828 N825 1.314 . S
C828 C826 1.353 . S
C828 H870 0.930 . S
C829 N825 1.279 . S
C829 C827 1.358 . S
C829 H871 0.930 . S
C830 C831 1.348 . S
C830 C832 1.356 . S
C830 O855 1.325 . S
C831 C830 1.348 . S
C831 C833 1.353 . S
C831 H872 0.929 . S
C832 C830 1.356 . S
C832 C834 1.358 . S
C832 H873 0.930 . S
C833 C831 1.353 . S
C833 N835 1.314 . S
C833 H874 0.930 . S
C834 C832 1.358 . S
C834 N835 1.279 . S
C834 H875 0.930 . S
N835 C833 1.314 . S
N835 C834 1.279 . S
C836 C838 1.353 . S
C836 N839 1.314 . S
C836 H842 0.930 . S
C837 N839 1.279 . S
C837 C840 1.358 . S
C837 H843 0.930 . S
C838 C836 1.353 . S
C838 C841 1.348 . S
C838 H876 0.929 . S
N839 Li794 1.990 . S
N839 C836 1.314 . S
N839 C837 1.279 . S
C840 C837 1.358 . S
C840 C841 1.356 . S
C840 H877 0.930 . S
C841 C838 1.348 . S
C841 C840 1.356 . S
H842 C836 0.930 . S
H843 C837 0.930 . S
C844 N845 1.314 . S
C844 C846 1.353 . S
C844 H850 0.930 . S
N845 Li795 1.990 . S
N845 C844 1.314 . S
N845 C848 1.279 . S
C846 C844 1.353 . S
C846 C849 1.348 . S
C846 H878 0.929 . S
C847 C848 1.358 . S
C847 C849 1.356 . S
C847 H879 0.930 . S
C848 N845 1.279 . S
C848 C847 1.358 . S
C848 H851 0.930 . S
C849 C846 1.348 . S
C849 C847 1.356 . S
H850 C844 0.930 . S
H851 C848 0.930 . S
O852 Li792 1.956 . S
O852 Li793 1.970 . S
O852 Li794 1.961 . S
O852 C796 1.325 . S
O853 Li792 1.970 . S
O853 Li793 1.956 . S
O853 Li795 1.961 . S
O853 C802 1.325 . S
O854 Li792 1.961 . S
O854 Li794 1.956 . S
O854 Li795 1.970 . S
O854 C824 1.325 . S
O855 Li793 1.961 . S
O855 Li794 1.970 . S
O855 Li795 1.956 . S
O855 C830 1.325 . S
H856 C798 0.929 . S
H857 C799 0.930 . S
H858 C800 0.930 . S
H859 C801 0.930 . S
H860 C803 0.930 . S
H861 C805 0.929 . S
H862 C806 0.930 . S
H863 C807 0.930 1_554 S
H864 C810 0.930 . S
H865 C813 0.929 . S
H866 C818 0.929 . S
H867 C819 0.930 . S
H868 C826 0.929 . S
H869 C827 0.930 . S
H870 C828 0.930 . S
H871 C829 0.930 . S
H872 C831 0.929 . S
H873 C832 0.930 . S
H874 C833 0.930 . S
H875 C834 0.930 . S
H876 C838 0.929 . S
H877 C840 0.930 . S
H878 C846 0.929 . S
H879 C847 0.930 . S
Li880 N897 1.990 . S
Li880 O940 1.956 . S
Li880 O941 1.970 . S
Li880 O942 1.961 . S
Li881 N905 1.990 . S
Li881 O940 1.970 . S
Li881 O941 1.956 . S
Li881 O943 1.961 . S
Li882 N927 1.990 . S
Li882 O940 1.961 . S
Li882 O942 1.956 . S
Li882 O943 1.970 . S
Li883 N933 1.990 . S
Li883 O941 1.961 . S
Li883 O942 1.970 . S
Li883 O943 1.956 . S
C884 C886 1.348 . S
C884 C887 1.356 . S
C884 O940 1.325 . S
N885 C888 1.314 . S
N885 C889 1.279 . S
C886 C884 1.348 . S
C886 C888 1.353 . S
C886 H944 0.929 . S
C887 C884 1.356 . S
C887 C889 1.358 . S
C887 H945 0.930 . S
C888 N885 1.314 . S
C888 C886 1.353 . S
C888 H946 0.930 . S
C889 N885 1.279 . S
C889 C887 1.358 . S
C889 H947 0.930 . S
C890 C893 1.348 . S
C890 C894 1.356 . S
C890 O941 1.325 . S
C891 N892 1.279 . S
C891 C894 1.358 . S
C891 H948 0.930 . S
N892 C891 1.279 . S
N892 C895 1.314 . S
C893 C890 1.348 . S
C893 C895 1.353 . S
C893 H949 0.929 . S
C894 C890 1.356 . S
C894 C891 1.358 . S
C894 H950 0.930 . S
C895 N892 1.314 . S
C895 C893 1.353 . S
C895 H951 0.930 . S
C896 N897 1.314 . S
C896 C901 1.353 . S
C896 H902 0.930 . S
N897 Li880 1.990 . S
N897 C896 1.314 . S
N897 C899 1.279 . S
C898 C899 1.358 . S
C898 C900 1.356 . S
C898 H952 0.930 . S
C899 N897 1.279 . S
C899 C898 1.358 . S
C899 H903 0.930 . S
C900 C898 1.356 . S
C900 C901 1.348 . S
C901 C896 1.353 . S
C901 C900 1.348 . S
C901 H953 0.929 . S
H902 C896 0.930 . S
H903 C899 0.930 . S
C904 N905 1.314 . S
C904 C906 1.353 . S
C904 H910 0.930 . S
N905 Li881 1.990 . S
N905 C904 1.314 . S
N905 C908 1.279 . S
C906 C904 1.353 . S
C906 C909 1.348 . S
C906 H954 0.929 . S
C907 C908 1.358 . S
C907 C909 1.356 . S
C907 H955 0.930 . S
C908 N905 1.279 . S
C908 C907 1.358 . S
C908 H911 0.930 . S
C909 C906 1.348 . S
C909 C907 1.356 . S
H910 C904 0.930 . S
H911 C908 0.930 . S
C912 C914 1.348 . S
C912 C915 1.356 . S
C912 O942 1.325 . S
N913 C916 1.314 . S
N913 C917 1.279 . S
C914 C912 1.348 . S
C914 C916 1.353 . S
C914 H956 0.929 . S
C915 C912 1.356 . S
C915 C917 1.358 . S
C915 H957 0.930 . S
C916 N913 1.314 . S
C916 C914 1.353 . S
C916 H958 0.930 . S
C917 N913 1.279 . S
C917 C915 1.358 . S
C917 H959 0.930 . S
C918 C919 1.348 . S
C918 C920 1.356 . S
C918 O943 1.325 . S
C919 C918 1.348 . S
C919 C921 1.353 . S
C919 H960 0.929 . S
C920 C918 1.356 . S
C920 C922 1.358 . S
C920 H961 0.930 . S
C921 C919 1.353 . S
C921 N923 1.314 . S
C921 H962 0.930 . S
C922 C920 1.358 . S
C922 N923 1.279 . S
C922 H963 0.930 . S
N923 C921 1.314 . S
N923 C922 1.279 . S
C924 C926 1.353 . S
C924 N927 1.314 . S
C924 H930 0.930 . S
C925 N927 1.279 . S
C925 C928 1.358 . S
C925 H931 0.930 . S
C926 C924 1.353 . S
C926 C929 1.348 . S
C926 H964 0.929 . S
N927 Li882 1.990 . S
N927 C924 1.314 . S
N927 C925 1.279 . S
C928 C925 1.358 . S
C928 C929 1.356 . S
C928 H965 0.930 . S
C929 C926 1.348 . S
C929 C928 1.356 . S
H930 C924 0.930 . S
H931 C925 0.930 . S
C932 N933 1.314 . S
C932 C934 1.353 . S
C932 H938 0.930 . S
N933 Li883 1.990 . S
N933 C932 1.314 . S
N933 C936 1.279 . S
C934 C932 1.353 . S
C934 C937 1.348 . S
C934 H966 0.929 . S
C935 C936 1.358 . S
C935 C937 1.356 . S
C935 H967 0.930 . S
C936 N933 1.279 . S
C936 C935 1.358 . S
C936 H939 0.930 . S
C937 C934 1.348 . S
C937 C935 1.356 . S
H938 C932 0.930 . S
H939 C936 0.930 . S
O940 Li880 1.956 . S
O940 Li881 1.970 . S
O940 Li882 1.961 . S
O940 C884 1.325 . S
O941 Li880 1.970 . S
O941 Li881 1.956 . S
O941 Li883 1.961 . S
O941 C890 1.325 . S
O942 Li880 1.961 . S
O942 Li882 1.956 . S
O942 Li883 1.970 . S
O942 C912 1.325 . S
O943 Li881 1.961 . S
O943 Li882 1.970 . S
O943 Li883 1.956 . S
O943 C918 1.325 . S
H944 C886 0.929 . S
H945 C887 0.930 . S
H946 C888 0.930 . S
H947 C889 0.930 . S
H948 C891 0.930 . S
H949 C893 0.929 . S
H950 C894 0.930 . S
H951 C895 0.930 . S
H952 C898 0.930 . S
H953 C901 0.929 . S
H954 C906 0.929 . S
H955 C907 0.930 . S
H956 C914 0.929 . S
H957 C915 0.930 . S
H958 C916 0.930 . S
H959 C917 0.930 . S
H960 C919 0.929 . S
H961 C920 0.930 . S
H962 C921 0.930 . S
H963 C922 0.930 . S
H964 C926 0.929 . S
H965 C928 0.930 . S
H966 C934 0.929 . S
H967 C935 0.930 . S
Li968 N985 1.990 . S
Li968 O1028 1.956 . S
Li968 O1029 1.970 . S
Li968 O1030 1.961 . S
Li969 N993 1.990 . S
Li969 O1028 1.970 . S
Li969 O1029 1.956 . S
Li969 O1031 1.961 . S
Li970 N1015 1.990 . S
Li970 O1028 1.961 . S
Li970 O1030 1.956 . S
Li970 O1031 1.970 . S
Li971 N1021 1.990 . S
Li971 O1029 1.961 . S
Li971 O1030 1.970 . S
Li971 O1031 1.956 . S
C972 C974 1.348 . S
C972 C975 1.356 . S
C972 O1028 1.325 . S
N973 C976 1.314 . S
N973 C977 1.279 . S
C974 C972 1.348 . S
C974 C976 1.353 . S
C974 H1032 0.929 . S
C975 C972 1.356 . S
C975 C977 1.358 . S
C975 H1033 0.930 . S
C976 N973 1.314 . S
C976 C974 1.353 . S
C976 H1034 0.930 . S
C977 N973 1.279 . S
C977 C975 1.358 . S
C977 H1035 0.930 . S
C978 C981 1.348 . S
C978 C982 1.356 . S
C978 O1029 1.325 . S
C979 N980 1.279 1_556 S
C979 C982 1.358 . S
C979 H1036 0.930 . S
N980 C979 1.279 1_554 S
N980 C983 1.314 1_554 S
C981 C978 1.348 . S
C981 C983 1.353 . S
C981 H1037 0.929 . S
C982 C978 1.356 . S
C982 C979 1.358 . S
C982 H1038 0.930 . S
C983 N980 1.314 1_556 S
C983 C981 1.353 . S
C983 H1039 0.930 1_556 S
C984 N985 1.314 . S
C984 C989 1.353 . S
C984 H990 0.930 . S
N985 Li968 1.990 . S
N985 C984 1.314 . S
N985 C987 1.279 . S
C986 C987 1.358 . S
C986 C988 1.356 . S
C986 H1040 0.930 . S
C987 N985 1.279 . S
C987 C986 1.358 . S
C987 H991 0.930 . S
C988 C986 1.356 . S
C988 C989 1.348 . S
C989 C984 1.353 . S
C989 C988 1.348 . S
C989 H1041 0.929 . S
H990 C984 0.930 . S
H991 C987 0.930 . S
C992 N993 1.314 . S
C992 C994 1.353 . S
C992 H998 0.930 . S
N993 Li969 1.990 . S
N993 C992 1.314 . S
N993 C996 1.279 . S
C994 C992 1.353 . S
C994 C997 1.348 . S
C994 H1042 0.929 . S
C995 C996 1.358 . S
C995 C997 1.356 . S
C995 H1043 0.930 . S
C996 N993 1.279 . S
C996 C995 1.358 . S
C996 H999 0.930 . S
C997 C994 1.348 . S
C997 C995 1.356 . S
H998 C992 0.930 . S
H999 C996 0.930 . S
C1000 C1002 1.348 . S
C1000 C1003 1.356 . S
C1000 O1030 1.325 . S
N1001 C1004 1.314 . S
N1001 C1005 1.279 . S
C1002 C1000 1.348 . S
C1002 C1004 1.353 . S
C1002 H1044 0.929 . S
C1003 C1000 1.356 . S
C1003 C1005 1.358 . S
C1003 H1045 0.930 . S
C1004 N1001 1.314 . S
C1004 C1002 1.353 . S
C1004 H1046 0.930 . S
C1005 N1001 1.279 . S
C1005 C1003 1.358 . S
C1005 H1047 0.930 . S
C1006 C1007 1.348 . S
C1006 C1008 1.356 . S
C1006 O1031 1.325 . S
C1007 C1006 1.348 . S
C1007 C1009 1.353 . S
C1007 H1048 0.929 . S
C1008 C1006 1.356 . S
C1008 C1010 1.358 . S
C1008 H1049 0.930 . S
C1009 C1007 1.353 . S
C1009 N1011 1.314 . S
C1009 H1050 0.930 . S
C1010 C1008 1.358 . S
C1010 N1011 1.279 . S
C1010 H1051 0.930 . S
N1011 C1009 1.314 . S
N1011 C1010 1.279 . S
C1012 C1014 1.353 . S
C1012 N1015 1.314 . S
C1012 H1018 0.930 . S
C1013 N1015 1.279 . S
C1013 C1016 1.358 . S
C1013 H1019 0.930 . S
C1014 C1012 1.353 . S
C1014 C1017 1.348 . S
C1014 H1052 0.929 . S
N1015 Li970 1.990 . S
N1015 C1012 1.314 . S
N1015 C1013 1.279 . S
C1016 C1013 1.358 . S
C1016 C1017 1.356 . S
C1016 H1053 0.930 . S
C1017 C1014 1.348 . S
C1017 C1016 1.356 . S
H1018 C1012 0.930 . S
H1019 C1013 0.930 . S
C1020 N1021 1.314 . S
C1020 C1022 1.353 . S
C1020 H1026 0.930 . S
N1021 Li971 1.990 . S
N1021 C1020 1.314 . S
N1021 C1024 1.279 . S
C1022 C1020 1.353 . S
C1022 C1025 1.348 . S
C1022 H1054 0.929 . S
C1023 C1024 1.358 . S
C1023 C1025 1.356 . S
C1023 H1055 0.930 . S
C1024 N1021 1.279 . S
C1024 C1023 1.358 . S
C1024 H1027 0.930 . S
C1025 C1022 1.348 . S
C1025 C1023 1.356 . S
H1026 C1020 0.930 . S
H1027 C1024 0.930 . S
O1028 Li968 1.956 . S
O1028 Li969 1.970 . S
O1028 Li970 1.961 . S
O1028 C972 1.325 . S
O1029 Li968 1.970 . S
O1029 Li969 1.956 . S
O1029 Li971 1.961 . S
O1029 C978 1.325 . S
O1030 Li968 1.961 . S
O1030 Li970 1.956 . S
O1030 Li971 1.970 . S
O1030 C1000 1.325 . S
O1031 Li969 1.961 . S
O1031 Li970 1.970 . S
O1031 Li971 1.956 . S
O1031 C1006 1.325 . S
H1032 C974 0.929 . S
H1033 C975 0.930 . S
H1034 C976 0.930 . S
H1035 C977 0.930 . S
H1036 C979 0.930 . S
H1037 C981 0.929 . S
H1038 C982 0.930 . S
H1039 C983 0.930 1_554 S
H1040 C986 0.930 . S
H1041 C989 0.929 . S
H1042 C994 0.929 . S
H1043 C995 0.930 . S
H1044 C1002 0.929 . S
H1045 C1003 0.930 . S
H1046 C1004 0.930 . S
H1047 C1005 0.930 . S
H1048 C1007 0.929 . S
H1049 C1008 0.930 . S
H1050 C1009 0.930 . S
H1051 C1010 0.930 . S
H1052 C1014 0.929 . S
H1053 C1016 0.930 . S
H1054 C1022 0.929 . S
H1055 C1023 0.930 . S
Li1056 N1073 1.990 . S
Li1056 O1116 1.956 . S
Li1056 O1117 1.970 . S
Li1056 O1118 1.961 . S
Li1057 N1081 1.990 . S
Li1057 O1116 1.970 . S
Li1057 O1117 1.956 . S
Li1057 O1119 1.961 . S
Li1058 N1103 1.990 . S
Li1058 O1116 1.961 . S
Li1058 O1118 1.956 . S
Li1058 O1119 1.970 . S
Li1059 N1109 1.990 . S
Li1059 O1117 1.961 . S
Li1059 O1118 1.970 . S
Li1059 O1119 1.956 . S
C1060 C1062 1.348 . S
C1060 C1063 1.356 . S
C1060 O1116 1.325 . S
N1061 C1064 1.314 . S
N1061 C1065 1.279 . S
C1062 C1060 1.348 . S
C1062 C1064 1.353 . S
C1062 H1120 0.929 . S
C1063 C1060 1.356 . S
C1063 C1065 1.358 . S
C1063 H1121 0.930 . S
C1064 N1061 1.314 . S
C1064 C1062 1.353 . S
C1064 H1122 0.930 . S
C1065 N1061 1.279 . S
C1065 C1063 1.358 . S
C1065 H1123 0.930 . S
C1066 C1069 1.348 . S
C1066 C1070 1.356 . S
C1066 O1117 1.325 . S
C1067 N1068 1.279 1_556 S
C1067 C1070 1.358 . S
C1067 H1124 0.930 . S
N1068 C1067 1.279 1_554 S
N1068 C1071 1.300 1_554 S
C1069 C1066 1.348 . S
C1069 C1071 1.396 . S
C1069 H1125 0.929 . S
C1070 C1066 1.356 . S
C1070 C1067 1.358 . S
C1070 H1126 0.930 . S
C1071 N1068 1.300 1_556 S
C1071 C1069 1.396 . S
C1071 H1127 0.898 1_556 S
C1072 N1073 1.314 . S
C1072 C1077 1.353 . S
C1072 H1078 0.930 . S
N1073 Li1056 1.990 . S
N1073 C1072 1.314 . S
N1073 C1075 1.279 . S
C1074 C1075 1.358 . S
C1074 C1076 1.356 . S
C1074 H1128 0.930 . S
C1075 N1073 1.279 . S
C1075 C1074 1.358 . S
C1075 H1079 0.930 . S
C1076 C1074 1.356 . S
C1076 C1077 1.348 . S
C1077 C1072 1.353 . S
C1077 C1076 1.348 . S
C1077 H1129 0.929 . S
H1078 C1072 0.930 . S
H1079 C1075 0.930 . S
C1080 N1081 1.314 . S
C1080 C1082 1.353 . S
C1080 H1086 0.930 . S
N1081 Li1057 1.990 . S
N1081 C1080 1.314 . S
N1081 C1084 1.279 . S
C1082 C1080 1.353 . S
C1082 C1085 1.348 . S
C1082 H1130 0.929 . S
C1083 C1084 1.358 . S
C1083 C1085 1.356 . S
C1083 H1131 0.930 . S
C1084 N1081 1.279 . S
C1084 C1083 1.358 . S
C1084 H1087 0.930 . S
C1085 C1082 1.348 . S
C1085 C1083 1.356 . S
H1086 C1080 0.930 . S
H1087 C1084 0.930 . S
C1088 C1090 1.348 . S
C1088 C1091 1.356 . S
C1088 O1118 1.325 . S
N1089 C1092 1.314 . S
N1089 C1093 1.279 . S
C1090 C1088 1.348 . S
C1090 C1092 1.353 . S
C1090 H1132 0.929 . S
C1091 C1088 1.356 . S
C1091 C1093 1.358 . S
C1091 H1133 0.930 . S
C1092 N1089 1.314 . S
C1092 C1090 1.353 . S
C1092 H1134 0.930 . S
C1093 N1089 1.279 . S
C1093 C1091 1.358 . S
C1093 H1135 0.930 . S
C1094 C1095 1.348 . S
C1094 C1096 1.356 . S
C1094 O1119 1.325 . S
C1095 C1094 1.348 . S
C1095 C1097 1.353 . S
C1095 H1136 0.929 . S
C1096 C1094 1.356 . S
C1096 C1098 1.358 . S
C1096 H1137 0.930 . S
C1097 C1095 1.353 . S
C1097 N1099 1.314 . S
C1097 H1138 0.930 . S
C1098 C1096 1.358 . S
C1098 N1099 1.279 . S
C1098 H1139 0.930 . S
N1099 C1097 1.314 . S
N1099 C1098 1.279 . S
C1100 C1102 1.353 . S
C1100 N1103 1.314 . S
C1100 H1106 0.930 . S
C1101 N1103 1.279 . S
C1101 C1104 1.358 . S
C1101 H1107 0.930 . S
C1102 C1100 1.353 . S
C1102 C1105 1.348 . S
C1102 H1140 0.929 . S
N1103 Li1058 1.990 . S
N1103 C1100 1.314 . S
N1103 C1101 1.279 . S
C1104 C1101 1.358 . S
C1104 C1105 1.356 . S
C1104 H1141 0.930 . S
C1105 C1102 1.348 . S
C1105 C1104 1.356 . S
H1106 C1100 0.930 . S
H1107 C1101 0.930 . S
C1108 N1109 1.314 . S
C1108 C1110 1.353 . S
C1108 H1114 0.930 . S
N1109 Li1059 1.990 . S
N1109 C1108 1.314 . S
N1109 C1112 1.279 . S
C1110 C1108 1.353 . S
C1110 C1113 1.348 . S
C1110 H1142 0.929 . S
C1111 C1112 1.358 . S
C1111 C1113 1.356 . S
C1111 H1143 0.930 . S
C1112 N1109 1.279 . S
C1112 C1111 1.358 . S
C1112 H1115 0.930 . S
C1113 C1110 1.348 . S
C1113 C1111 1.356 . S
H1114 C1108 0.930 . S
H1115 C1112 0.930 . S
O1116 Li1056 1.956 . S
O1116 Li1057 1.970 . S
O1116 Li1058 1.961 . S
O1116 C1060 1.325 . S
O1117 Li1056 1.970 . S
O1117 Li1057 1.956 . S
O1117 Li1059 1.961 . S
O1117 C1066 1.325 . S
O1118 Li1056 1.961 . S
O1118 Li1058 1.956 . S
O1118 Li1059 1.970 . S
O1118 C1088 1.325 . S
O1119 Li1057 1.961 . S
O1119 Li1058 1.970 . S
O1119 Li1059 1.956 . S
O1119 C1094 1.325 . S
H1120 C1062 0.929 . S
H1121 C1063 0.930 . S
H1122 C1064 0.930 . S
H1123 C1065 0.930 . S
H1124 C1067 0.930 . S
H1125 C1069 0.929 . S
H1126 C1070 0.930 . S
H1127 C1071 0.898 1_554 S
H1128 C1074 0.930 . S
H1129 C1077 0.929 . S
H1130 C1082 0.929 . S
H1131 C1083 0.930 . S
H1132 C1090 0.929 . S
H1133 C1091 0.930 . S
H1134 C1092 0.930 . S
H1135 C1093 0.930 . S
H1136 C1095 0.929 . S
H1137 C1096 0.930 . S
H1138 C1097 0.930 . S
H1139 C1098 0.930 . S
H1140 C1102 0.929 . S
H1141 C1104 0.930 . S
H1142 C1110 0.929 . S
H1143 C1111 0.930 . S
Li1144 N1161 1.990 . S
Li1144 O1204 1.956 . S
Li1144 O1205 1.970 . S
Li1144 O1206 1.961 . S
Li1145 N1169 1.990 . S
Li1145 O1204 1.970 . S
Li1145 O1205 1.956 . S
Li1145 O1207 1.961 . S
Li1146 N1191 1.990 . S
Li1146 O1204 1.961 . S
Li1146 O1206 1.956 . S
Li1146 O1207 1.970 . S
Li1147 N1197 1.990 . S
Li1147 O1205 1.961 . S
Li1147 O1206 1.970 . S
Li1147 O1207 1.956 . S
C1148 C1150 1.348 . S
C1148 C1151 1.356 . S
C1148 O1204 1.325 . S
N1149 C1152 1.314 . S
N1149 C1153 1.279 . S
C1150 C1148 1.348 . S
C1150 C1152 1.353 . S
C1150 H1208 0.929 . S
C1151 C1148 1.356 . S
C1151 C1153 1.358 . S
C1151 H1209 0.930 . S
C1152 N1149 1.314 . S
C1152 C1150 1.353 . S
C1152 H1210 0.930 . S
C1153 N1149 1.279 . S
C1153 C1151 1.358 . S
C1153 H1211 0.930 . S
C1154 C1157 1.348 . S
C1154 C1158 1.356 . S
C1154 O1205 1.325 . S
C1155 N1156 1.279 . S
C1155 C1158 1.358 . S
C1155 H1212 0.930 . S
N1156 C1155 1.279 . S
N1156 C1159 1.314 . S
C1157 C1154 1.348 . S
C1157 C1159 1.353 . S
C1157 H1213 0.929 . S
C1158 C1154 1.356 . S
C1158 C1155 1.358 . S
C1158 H1214 0.930 . S
C1159 N1156 1.314 . S
C1159 C1157 1.353 . S
C1159 H1215 0.930 . S
C1160 N1161 1.314 . S
C1160 C1165 1.353 . S
C1160 H1166 0.930 . S
N1161 Li1144 1.990 . S
N1161 C1160 1.314 . S
N1161 C1163 1.279 . S
C1162 C1163 1.358 . S
C1162 C1164 1.356 . S
C1162 H1216 0.930 . S
C1163 N1161 1.279 . S
C1163 C1162 1.358 . S
C1163 H1167 0.930 . S
C1164 C1162 1.356 . S
C1164 C1165 1.348 . S
C1165 C1160 1.353 . S
C1165 C1164 1.348 . S
C1165 H1217 0.929 . S
H1166 C1160 0.930 . S
H1167 C1163 0.930 . S
C1168 N1169 1.314 . S
C1168 C1170 1.353 . S
C1168 H1174 0.930 . S
N1169 Li1145 1.990 . S
N1169 C1168 1.314 . S
N1169 C1172 1.279 . S
C1170 C1168 1.353 . S
C1170 C1173 1.348 . S
C1170 H1218 0.929 . S
C1171 C1172 1.358 . S
C1171 C1173 1.356 . S
C1171 H1219 0.930 . S
C1172 N1169 1.279 . S
C1172 C1171 1.358 . S
C1172 H1175 0.930 . S
C1173 C1170 1.348 . S
C1173 C1171 1.356 . S
H1174 C1168 0.930 . S
H1175 C1172 0.930 . S
C1176 C1178 1.348 . S
C1176 C1179 1.356 . S
C1176 O1206 1.325 . S
N1177 C1180 1.314 . S
N1177 C1181 1.279 . S
C1178 C1176 1.348 . S
C1178 C1180 1.353 . S
C1178 H1220 0.929 . S
C1179 C1176 1.356 . S
C1179 C1181 1.358 . S
C1179 H1221 0.930 . S
C1180 N1177 1.314 . S
C1180 C1178 1.353 . S
C1180 H1222 0.930 . S
C1181 N1177 1.279 . S
C1181 C1179 1.358 . S
C1181 H1223 0.930 . S
C1182 C1183 1.348 . S
C1182 C1184 1.356 . S
C1182 O1207 1.325 . S
C1183 C1182 1.348 . S
C1183 C1185 1.353 . S
C1183 H1224 0.929 . S
C1184 C1182 1.356 . S
C1184 C1186 1.358 . S
C1184 H1225 0.930 . S
C1185 C1183 1.353 . S
C1185 N1187 1.314 . S
C1185 H1226 0.930 . S
C1186 C1184 1.358 . S
C1186 N1187 1.279 . S
C1186 H1227 0.930 . S
N1187 C1185 1.314 . S
N1187 C1186 1.279 . S
C1188 C1190 1.353 . S
C1188 N1191 1.314 . S
C1188 H1194 0.930 . S
C1189 N1191 1.279 . S
C1189 C1192 1.358 . S
C1189 H1195 0.930 . S
C1190 C1188 1.353 . S
C1190 C1193 1.348 . S
C1190 H1228 0.929 . S
N1191 Li1146 1.990 . S
N1191 C1188 1.314 . S
N1191 C1189 1.279 . S
C1192 C1189 1.358 . S
C1192 C1193 1.356 . S
C1192 H1229 0.930 . S
C1193 C1190 1.348 . S
C1193 C1192 1.356 . S
H1194 C1188 0.930 . S
H1195 C1189 0.930 . S
C1196 N1197 1.314 . S
C1196 C1198 1.353 . S
C1196 H1202 0.930 . S
N1197 Li1147 1.990 . S
N1197 C1196 1.314 . S
N1197 C1200 1.279 . S
C1198 C1196 1.353 . S
C1198 C1201 1.348 . S
C1198 H1230 0.929 . S
C1199 C1200 1.358 . S
C1199 C1201 1.356 . S
C1199 H1231 0.930 . S
C1200 N1197 1.279 . S
C1200 C1199 1.358 . S
C1200 H1203 0.930 . S
C1201 C1198 1.348 . S
C1201 C1199 1.356 . S
H1202 C1196 0.930 . S
H1203 C1200 0.930 . S
O1204 Li1144 1.956 . S
O1204 Li1145 1.970 . S
O1204 Li1146 1.961 . S
O1204 C1148 1.325 . S
O1205 Li1144 1.970 . S
O1205 Li1145 1.956 . S
O1205 Li1147 1.961 . S
O1205 C1154 1.325 . S
O1206 Li1144 1.961 . S
O1206 Li1146 1.956 . S
O1206 Li1147 1.970 . S
O1206 C1176 1.325 . S
O1207 Li1145 1.961 . S
O1207 Li1146 1.970 . S
O1207 Li1147 1.956 . S
O1207 C1182 1.325 . S
H1208 C1150 0.929 . S
H1209 C1151 0.930 . S
H1210 C1152 0.930 . S
H1211 C1153 0.930 . S
H1212 C1155 0.930 . S
H1213 C1157 0.929 . S
H1214 C1158 0.930 . S
H1215 C1159 0.930 . S
H1216 C1162 0.930 . S
H1217 C1165 0.929 . S
H1218 C1170 0.929 . S
H1219 C1171 0.930 . S
H1220 C1178 0.929 . S
H1221 C1179 0.930 . S
H1222 C1180 0.930 . S
H1223 C1181 0.930 . S
H1224 C1183 0.929 . S
H1225 C1184 0.930 . S
H1226 C1185 0.930 . S
H1227 C1186 0.930 . S
H1228 C1190 0.929 . S
H1229 C1192 0.930 . S
H1230 C1198 0.929 . S
H1231 C1199 0.930 . S
Li1232 N1249 1.990 . S
Li1232 O1292 1.956 . S
Li1232 O1293 1.970 . S
Li1232 O1294 1.961 . S
Li1233 N1257 1.990 . S
Li1233 O1292 1.970 . S
Li1233 O1293 1.956 . S
Li1233 O1295 1.961 . S
Li1234 N1279 1.990 . S
Li1234 O1292 1.961 . S
Li1234 O1294 1.956 . S
Li1234 O1295 1.970 . S
Li1235 N1285 1.990 . S
Li1235 O1293 1.961 . S
Li1235 O1294 1.970 . S
Li1235 O1295 1.956 . S
C1236 C1238 1.348 . S
C1236 C1239 1.356 . S
C1236 O1292 1.325 . S
N1237 C1240 1.301 1_554 S
N1237 C1241 1.279 1_554 S
C1238 C1236 1.348 . S
C1238 C1240 1.393 . S
C1238 H1296 0.929 . S
C1239 C1236 1.356 . S
C1239 C1241 1.358 . S
C1239 H1297 0.930 . S
C1240 N1237 1.301 1_556 S
C1240 C1238 1.393 . S
C1240 H1298 0.900 1_556 S
C1241 N1237 1.279 1_556 S
C1241 C1239 1.358 . S
C1241 H1299 0.930 . S
C1242 C1245 1.348 . S
C1242 C1246 1.356 . S
C1242 O1293 1.325 . S
C1243 N1244 1.279 . S
C1243 C1246 1.358 . S
C1243 H1300 0.930 . S
N1244 C1243 1.279 . S
N1244 C1247 1.314 . S
C1245 C1242 1.348 . S
C1245 C1247 1.353 . S
C1245 H1301 0.929 . S
C1246 C1242 1.356 . S
C1246 C1243 1.358 . S
C1246 H1302 0.930 . S
C1247 N1244 1.314 . S
C1247 C1245 1.353 . S
C1247 H1303 0.930 . S
C1248 N1249 1.314 . S
C1248 C1253 1.353 . S
C1248 H1254 0.930 . S
N1249 Li1232 1.990 . S
N1249 C1248 1.314 . S
N1249 C1251 1.279 . S
C1250 C1251 1.358 . S
C1250 C1252 1.356 . S
C1250 H1304 0.930 . S
C1251 N1249 1.279 . S
C1251 C1250 1.358 . S
C1251 H1255 0.930 . S
C1252 C1250 1.356 . S
C1252 C1253 1.348 . S
C1253 C1248 1.353 . S
C1253 C1252 1.348 . S
C1253 H1305 0.929 . S
H1254 C1248 0.930 . S
H1255 C1251 0.930 . S
C1256 N1257 1.314 . S
C1256 C1258 1.353 . S
C1256 H1262 0.930 . S
N1257 Li1233 1.990 . S
N1257 C1256 1.314 . S
N1257 C1260 1.279 . S
C1258 C1256 1.353 . S
C1258 C1261 1.348 . S
C1258 H1306 0.929 . S
C1259 C1260 1.358 . S
C1259 C1261 1.356 . S
C1259 H1307 0.930 . S
C1260 N1257 1.279 . S
C1260 C1259 1.358 . S
C1260 H1263 0.930 . S
C1261 C1258 1.348 . S
C1261 C1259 1.356 . S
H1262 C1256 0.930 . S
H1263 C1260 0.930 . S
C1264 C1266 1.348 . S
C1264 C1267 1.356 . S
C1264 O1294 1.325 . S
N1265 C1268 1.314 . S
N1265 C1269 1.279 . S
C1266 C1264 1.348 . S
C1266 C1268 1.353 . S
C1266 H1308 0.929 . S
C1267 C1264 1.356 . S
C1267 C1269 1.358 . S
C1267 H1309 0.930 . S
C1268 N1265 1.314 . S
C1268 C1266 1.353 . S
C1268 H1310 0.930 . S
C1269 N1265 1.279 . S
C1269 C1267 1.358 . S
C1269 H1311 0.930 . S
C1270 C1271 1.348 . S
C1270 C1272 1.356 . S
C1270 O1295 1.325 . S
C1271 C1270 1.348 . S
C1271 C1273 1.353 . S
C1271 H1312 0.929 . S
C1272 C1270 1.356 . S
C1272 C1274 1.358 . S
C1272 H1313 0.930 . S
C1273 C1271 1.353 . S
C1273 N1275 1.314 . S
C1273 H1314 0.930 . S
C1274 C1272 1.358 . S
C1274 N1275 1.279 . S
C1274 H1315 0.930 . S
N1275 C1273 1.314 . S
N1275 C1274 1.279 . S
C1276 C1278 1.353 . S
C1276 N1279 1.314 . S
C1276 H1282 0.930 . S
C1277 N1279 1.279 . S
C1277 C1280 1.358 . S
C1277 H1283 0.930 . S
C1278 C1276 1.353 . S
C1278 C1281 1.348 . S
C1278 H1316 0.929 . S
N1279 Li1234 1.990 . S
N1279 C1276 1.314 . S
N1279 C1277 1.279 . S
C1280 C1277 1.358 . S
C1280 C1281 1.356 . S
C1280 H1317 0.930 . S
C1281 C1278 1.348 . S
C1281 C1280 1.356 . S
H1282 C1276 0.930 . S
H1283 C1277 0.930 . S
C1284 N1285 1.314 . S
C1284 C1286 1.353 . S
C1284 H1290 0.930 . S
N1285 Li1235 1.990 . S
N1285 C1284 1.314 . S
N1285 C1288 1.279 . S
C1286 C1284 1.353 . S
C1286 C1289 1.348 . S
C1286 H1318 0.929 . S
C1287 C1288 1.358 . S
C1287 C1289 1.356 . S
C1287 H1319 0.930 . S
C1288 N1285 1.279 . S
C1288 C1287 1.358 . S
C1288 H1291 0.930 . S
C1289 C1286 1.348 . S
C1289 C1287 1.356 . S
H1290 C1284 0.930 . S
H1291 C1288 0.930 . S
O1292 Li1232 1.956 . S
O1292 Li1233 1.970 . S
O1292 Li1234 1.961 . S
O1292 C1236 1.325 . S
O1293 Li1232 1.970 . S
O1293 Li1233 1.956 . S
O1293 Li1235 1.961 . S
O1293 C1242 1.325 . S
O1294 Li1232 1.961 . S
O1294 Li1234 1.956 . S
O1294 Li1235 1.970 . S
O1294 C1264 1.325 . S
O1295 Li1233 1.961 . S
O1295 Li1234 1.970 . S
O1295 Li1235 1.956 . S
O1295 C1270 1.325 . S
H1296 C1238 0.929 . S
H1297 C1239 0.930 . S
H1298 C1240 0.900 1_554 S
H1299 C1241 0.930 . S
H1300 C1243 0.930 . S
H1301 C1245 0.929 . S
H1302 C1246 0.930 . S
H1303 C1247 0.930 . S
H1304 C1250 0.930 . S
H1305 C1253 0.929 . S
H1306 C1258 0.929 . S
H1307 C1259 0.930 . S
H1308 C1266 0.929 . S
H1309 C1267 0.930 . S
H1310 C1268 0.930 . S
H1311 C1269 0.930 . S
H1312 C1271 0.929 . S
H1313 C1272 0.930 . S
H1314 C1273 0.930 . S
H1315 C1274 0.930 . S
H1316 C1278 0.929 . S
H1317 C1280 0.930 . S
H1318 C1286 0.929 . S
H1319 C1287 0.930 . S
Li1320 N1337 1.990 . S
Li1320 O1380 1.956 . S
Li1320 O1381 1.970 . S
Li1320 O1382 1.961 . S
Li1321 N1345 1.990 . S
Li1321 O1380 1.970 . S
Li1321 O1381 1.956 . S
Li1321 O1383 1.961 . S
Li1322 N1367 1.990 . S
Li1322 O1380 1.961 . S
Li1322 O1382 1.956 . S
Li1322 O1383 1.970 . S
Li1323 N1373 1.990 . S
Li1323 O1381 1.961 . S
Li1323 O1382 1.970 . S
Li1323 O1383 1.956 . S
C1324 C1326 1.348 . S
C1324 C1327 1.356 . S
C1324 O1380 1.325 . S
N1325 C1328 1.314 . S
N1325 C1329 1.279 . S
C1326 C1324 1.348 . S
C1326 C1328 1.353 . S
C1326 H1384 0.929 . S
C1327 C1324 1.356 . S
C1327 C1329 1.358 . S
C1327 H1385 0.930 . S
C1328 N1325 1.314 . S
C1328 C1326 1.353 . S
C1328 H1386 0.930 . S
C1329 N1325 1.279 . S
C1329 C1327 1.358 . S
C1329 H1387 0.930 . S
C1330 C1333 1.348 . S
C1330 C1334 1.356 . S
C1330 O1381 1.325 . S
C1331 N1332 1.279 . S
C1331 C1334 1.358 . S
C1331 H1388 0.930 . S
N1332 C1331 1.279 . S
N1332 C1335 1.314 . S
C1333 C1330 1.348 . S
C1333 C1335 1.353 . S
C1333 H1389 0.929 . S
C1334 C1330 1.356 . S
C1334 C1331 1.358 . S
C1334 H1390 0.930 . S
C1335 N1332 1.314 . S
C1335 C1333 1.353 . S
C1335 H1391 0.930 . S
C1336 N1337 1.314 . S
C1336 C1341 1.353 . S
C1336 H1342 0.930 . S
N1337 Li1320 1.990 . S
N1337 C1336 1.314 . S
N1337 C1339 1.279 . S
C1338 C1339 1.358 . S
C1338 C1340 1.356 . S
C1338 H1392 0.930 . S
C1339 N1337 1.279 . S
C1339 C1338 1.358 . S
C1339 H1343 0.930 . S
C1340 C1338 1.356 . S
C1340 C1341 1.348 . S
C1341 C1336 1.353 . S
C1341 C1340 1.348 . S
C1341 H1393 0.929 . S
H1342 C1336 0.930 . S
H1343 C1339 0.930 . S
C1344 N1345 1.314 . S
C1344 C1346 1.353 . S
C1344 H1350 0.930 . S
N1345 Li1321 1.990 . S
N1345 C1344 1.314 . S
N1345 C1348 1.279 . S
C1346 C1344 1.353 . S
C1346 C1349 1.348 . S
C1346 H1394 0.929 . S
C1347 C1348 1.358 . S
C1347 C1349 1.356 . S
C1347 H1395 0.930 . S
C1348 N1345 1.279 . S
C1348 C1347 1.358 . S
C1348 H1351 0.930 . S
C1349 C1346 1.348 . S
C1349 C1347 1.356 . S
H1350 C1344 0.930 . S
H1351 C1348 0.930 . S
C1352 C1354 1.348 . S
C1352 C1355 1.356 . S
C1352 O1382 1.325 . S
N1353 C1356 1.314 . S
N1353 C1357 1.279 . S
C1354 C1352 1.348 . S
C1354 C1356 1.353 . S
C1354 H1396 0.929 . S
C1355 C1352 1.356 . S
C1355 C1357 1.358 . S
C1355 H1397 0.930 . S
C1356 N1353 1.314 . S
C1356 C1354 1.353 . S
C1356 H1398 0.930 . S
C1357 N1353 1.279 . S
C1357 C1355 1.358 . S
C1357 H1399 0.930 . S
C1358 C1359 1.348 . S
C1358 C1360 1.356 . S
C1358 O1383 1.325 . S
C1359 C1358 1.348 . S
C1359 C1361 1.353 . S
C1359 H1400 0.929 . S
C1360 C1358 1.356 . S
C1360 C1362 1.358 . S
C1360 H1401 0.930 . S
C1361 C1359 1.353 . S
C1361 N1363 1.314 . S
C1361 H1402 0.930 . S
C1362 C1360 1.358 . S
C1362 N1363 1.279 . S
C1362 H1403 0.930 . S
N1363 C1361 1.314 . S
N1363 C1362 1.279 . S
C1364 C1366 1.353 . S
C1364 N1367 1.314 . S
C1364 H1370 0.930 . S
C1365 N1367 1.279 . S
C1365 C1368 1.358 . S
C1365 H1371 0.930 . S
C1366 C1364 1.353 . S
C1366 C1369 1.348 . S
C1366 H1404 0.929 . S
N1367 Li1322 1.990 . S
N1367 C1364 1.314 . S
N1367 C1365 1.279 . S
C1368 C1365 1.358 . S
C1368 C1369 1.356 . S
C1368 H1405 0.930 . S
C1369 C1366 1.348 . S
C1369 C1368 1.356 . S
H1370 C1364 0.930 . S
H1371 C1365 0.930 . S
C1372 N1373 1.314 . S
C1372 C1374 1.353 . S
C1372 H1378 0.930 . S
N1373 Li1323 1.990 . S
N1373 C1372 1.314 . S
N1373 C1376 1.279 . S
C1374 C1372 1.353 . S
C1374 C1377 1.348 . S
C1374 H1406 0.929 . S
C1375 C1376 1.358 . S
C1375 C1377 1.356 . S
C1375 H1407 0.930 . S
C1376 N1373 1.279 . S
C1376 C1375 1.358 . S
C1376 H1379 0.930 . S
C1377 C1374 1.348 . S
C1377 C1375 1.356 . S
H1378 C1372 0.930 . S
H1379 C1376 0.930 . S
O1380 Li1320 1.956 . S
O1380 Li1321 1.970 . S
O1380 Li1322 1.961 . S
O1380 C1324 1.325 . S
O1381 Li1320 1.970 . S
O1381 Li1321 1.956 . S
O1381 Li1323 1.961 . S
O1381 C1330 1.325 . S
O1382 Li1320 1.961 . S
O1382 Li1322 1.956 . S
O1382 Li1323 1.970 . S
O1382 C1352 1.325 . S
O1383 Li1321 1.961 . S
O1383 Li1322 1.970 . S
O1383 Li1323 1.956 . S
O1383 C1358 1.325 . S
H1384 C1326 0.929 . S
H1385 C1327 0.930 . S
H1386 C1328 0.930 . S
H1387 C1329 0.930 . S
H1388 C1331 0.930 . S
H1389 C1333 0.929 . S
H1390 C1334 0.930 . S
H1391 C1335 0.930 . S
H1392 C1338 0.930 . S
H1393 C1341 0.929 . S
H1394 C1346 0.929 . S
H1395 C1347 0.930 . S
H1396 C1354 0.929 . S
H1397 C1355 0.930 . S
H1398 C1356 0.930 . S
H1399 C1357 0.930 . S
H1400 C1359 0.929 . S
H1401 C1360 0.930 . S
H1402 C1361 0.930 . S
H1403 C1362 0.930 . S
H1404 C1366 0.929 . S
H1405 C1368 0.930 . S
H1406 C1374 0.929 . S
H1407 C1375 0.930 . S
Li1408 N1425 1.990 . S
Li1408 O1468 1.956 . S
Li1408 O1469 1.970 . S
Li1408 O1470 1.961 . S
Li1409 N1433 1.990 . S
Li1409 O1468 1.970 . S
Li1409 O1469 1.956 . S
Li1409 O1471 1.961 . S
Li1410 N1455 1.990 . S
Li1410 O1468 1.961 . S
Li1410 O1470 1.956 . S
Li1410 O1471 1.970 . S
Li1411 N1461 1.990 . S
Li1411 O1469 1.961 . S
Li1411 O1470 1.970 . S
Li1411 O1471 1.956 . S
C1412 C1414 1.348 . S
C1412 C1415 1.356 . S
C1412 O1468 1.325 . S
N1413 C1416 1.301 1_554 S
N1413 C1417 1.279 1_554 S
C1414 C1412 1.348 . S
C1414 C1416 1.395 . S
C1414 H1472 0.929 . S
C1415 C1412 1.356 . S
C1415 C1417 1.358 . S
C1415 H1473 0.930 . S
C1416 N1413 1.301 1_556 S
C1416 C1414 1.395 . S
C1416 H1474 0.899 1_556 S
C1417 N1413 1.279 1_556 S
C1417 C1415 1.358 . S
C1417 H1475 0.930 . S
C1418 C1421 1.348 . S
C1418 C1422 1.356 . S
C1418 O1469 1.325 . S
C1419 N1420 1.279 . S
C1419 C1422 1.358 . S
C1419 H1476 0.930 . S
N1420 C1419 1.279 . S
N1420 C1423 1.314 . S
C1421 C1418 1.348 . S
C1421 C1423 1.353 . S
C1421 H1477 0.929 . S
C1422 C1418 1.356 . S
C1422 C1419 1.358 . S
C1422 H1478 0.930 . S
C1423 N1420 1.314 . S
C1423 C1421 1.353 . S
C1423 H1479 0.930 . S
C1424 N1425 1.314 . S
C1424 C1429 1.353 . S
C1424 H1430 0.930 . S
N1425 Li1408 1.990 . S
N1425 C1424 1.314 . S
N1425 C1427 1.279 . S
C1426 C1427 1.358 . S
C1426 C1428 1.356 . S
C1426 H1480 0.930 . S
C1427 N1425 1.279 . S
C1427 C1426 1.358 . S
C1427 H1431 0.930 . S
C1428 C1426 1.356 . S
C1428 C1429 1.348 . S
C1429 C1424 1.353 . S
C1429 C1428 1.348 . S
C1429 H1481 0.929 . S
H1430 C1424 0.930 . S
H1431 C1427 0.930 . S
C1432 N1433 1.314 . S
C1432 C1434 1.353 . S
C1432 H1438 0.930 . S
N1433 Li1409 1.990 . S
N1433 C1432 1.314 . S
N1433 C1436 1.279 . S
C1434 C1432 1.353 . S
C1434 C1437 1.348 . S
C1434 H1482 0.929 . S
C1435 C1436 1.358 . S
C1435 C1437 1.356 . S
C1435 H1483 0.930 . S
C1436 N1433 1.279 . S
C1436 C1435 1.358 . S
C1436 H1439 0.930 . S
C1437 C1434 1.348 . S
C1437 C1435 1.356 . S
H1438 C1432 0.930 . S
H1439 C1436 0.930 . S
C1440 C1442 1.348 . S
C1440 C1443 1.356 . S
C1440 O1470 1.325 . S
N1441 C1444 1.314 . S
N1441 C1445 1.279 . S
C1442 C1440 1.348 . S
C1442 C1444 1.353 . S
C1442 H1484 0.929 . S
C1443 C1440 1.356 . S
C1443 C1445 1.358 . S
C1443 H1485 0.930 . S
C1444 N1441 1.314 . S
C1444 C1442 1.353 . S
C1444 H1486 0.930 . S
C1445 N1441 1.279 . S
C1445 C1443 1.358 . S
C1445 H1487 0.930 . S
C1446 C1447 1.348 . S
C1446 C1448 1.356 . S
C1446 O1471 1.325 . S
C1447 C1446 1.348 . S
C1447 C1449 1.353 . S
C1447 H1488 0.929 . S
C1448 C1446 1.356 . S
C1448 C1450 1.358 . S
C1448 H1489 0.930 . S
C1449 C1447 1.353 . S
C1449 N1451 1.314 . S
C1449 H1490 0.930 . S
C1450 C1448 1.358 . S
C1450 N1451 1.279 . S
C1450 H1491 0.930 . S
N1451 C1449 1.314 . S
N1451 C1450 1.279 . S
C1452 C1454 1.353 . S
C1452 N1455 1.314 . S
C1452 H1458 0.930 . S
C1453 N1455 1.279 . S
C1453 C1456 1.358 . S
C1453 H1459 0.930 . S
C1454 C1452 1.353 . S
C1454 C1457 1.348 . S
C1454 H1492 0.929 . S
N1455 Li1410 1.990 . S
N1455 C1452 1.314 . S
N1455 C1453 1.279 . S
C1456 C1453 1.358 . S
C1456 C1457 1.356 . S
C1456 H1493 0.930 . S
C1457 C1454 1.348 . S
C1457 C1456 1.356 . S
H1458 C1452 0.930 . S
H1459 C1453 0.930 . S
C1460 N1461 1.314 . S
C1460 C1462 1.353 . S
C1460 H1466 0.930 . S
N1461 Li1411 1.990 . S
N1461 C1460 1.314 . S
N1461 C1464 1.279 . S
C1462 C1460 1.353 . S
C1462 C1465 1.348 . S
C1462 H1494 0.929 . S
C1463 C1464 1.358 . S
C1463 C1465 1.356 . S
C1463 H1495 0.930 . S
C1464 N1461 1.279 . S
C1464 C1463 1.358 . S
C1464 H1467 0.930 . S
C1465 C1462 1.348 . S
C1465 C1463 1.356 . S
H1466 C1460 0.930 . S
H1467 C1464 0.930 . S
O1468 Li1408 1.956 . S
O1468 Li1409 1.970 . S
O1468 Li1410 1.961 . S
O1468 C1412 1.325 . S
O1469 Li1408 1.970 . S
O1469 Li1409 1.956 . S
O1469 Li1411 1.961 . S
O1469 C1418 1.325 . S
O1470 Li1408 1.961 . S
O1470 Li1410 1.956 . S
O1470 Li1411 1.970 . S
O1470 C1440 1.325 . S
O1471 Li1409 1.961 . S
O1471 Li1410 1.970 . S
O1471 Li1411 1.956 . S
O1471 C1446 1.325 . S
H1472 C1414 0.929 . S
H1473 C1415 0.930 . S
H1474 C1416 0.899 1_554 S
H1475 C1417 0.930 . S
H1476 C1419 0.930 . S
H1477 C1421 0.929 . S
H1478 C1422 0.930 . S
H1479 C1423 0.930 . S
H1480 C1426 0.930 . S
H1481 C1429 0.929 . S
H1482 C1434 0.929 . S
H1483 C1435 0.930 . S
H1484 C1442 0.929 . S
H1485 C1443 0.930 . S
H1486 C1444 0.930 . S
H1487 C1445 0.930 . S
H1488 C1447 0.929 . S
H1489 C1448 0.930 . S
H1490 C1449 0.930 . S
H1491 C1450 0.930 . S
H1492 C1454 0.929 . S
H1493 C1456 0.930 . S
H1494 C1462 0.929 . S
H1495 C1463 0.930 . S
Li1496 N1513 1.990 . S
Li1496 O1556 1.956 . S
Li1496 O1557 1.970 . S
Li1496 O1558 1.961 . S
Li1497 N1521 1.990 . S
Li1497 O1556 1.970 . S
Li1497 O1557 1.956 . S
Li1497 O1559 1.961 . S
Li1498 N1543 1.990 . S
Li1498 O1556 1.961 . S
Li1498 O1558 1.956 . S
Li1498 O1559 1.970 . S
Li1499 N1549 1.990 . S
Li1499 O1557 1.961 . S
Li1499 O1558 1.970 . S
Li1499 O1559 1.956 . S
C1500 C1502 1.348 . S
C1500 C1503 1.356 . S
C1500 O1556 1.325 . S
N1501 C1504 1.314 . S
N1501 C1505 1.279 . S
C1502 C1500 1.348 . S
C1502 C1504 1.353 . S
C1502 H1560 0.929 . S
C1503 C1500 1.356 . S
C1503 C1505 1.358 . S
C1503 H1561 0.930 . S
C1504 N1501 1.314 . S
C1504 C1502 1.353 . S
C1504 H1562 0.930 . S
C1505 N1501 1.279 . S
C1505 C1503 1.358 . S
C1505 H1563 0.930 . S
C1506 C1509 1.348 . S
C1506 C1510 1.356 . S
C1506 O1557 1.325 . S
C1507 N1508 1.279 . S
C1507 C1510 1.358 . S
C1507 H1564 0.930 . S
N1508 C1507 1.279 . S
N1508 C1511 1.314 . S
C1509 C1506 1.348 . S
C1509 C1511 1.353 . S
C1509 H1565 0.929 . S
C1510 C1506 1.356 . S
C1510 C1507 1.358 . S
C1510 H1566 0.930 . S
C1511 N1508 1.314 . S
C1511 C1509 1.353 . S
C1511 H1567 0.930 . S
C1512 N1513 1.314 . S
C1512 C1517 1.353 . S
C1512 H1518 0.930 . S
N1513 Li1496 1.990 . S
N1513 C1512 1.314 . S
N1513 C1515 1.279 . S
C1514 C1515 1.358 . S
C1514 C1516 1.356 . S
C1514 H1568 0.930 . S
C1515 N1513 1.279 . S
C1515 C1514 1.358 . S
C1515 H1519 0.930 . S
C1516 C1514 1.356 . S
C1516 C1517 1.348 . S
C1517 C1512 1.353 . S
C1517 C1516 1.348 . S
C1517 H1569 0.929 . S
H1518 C1512 0.930 . S
H1519 C1515 0.930 . S
C1520 N1521 1.314 . S
C1520 C1522 1.353 . S
C1520 H1526 0.930 . S
N1521 Li1497 1.990 . S
N1521 C1520 1.314 . S
N1521 C1524 1.279 . S
C1522 C1520 1.353 . S
C1522 C1525 1.348 . S
C1522 H1570 0.929 . S
C1523 C1524 1.358 . S
C1523 C1525 1.356 . S
C1523 H1571 0.930 . S
C1524 N1521 1.279 . S
C1524 C1523 1.358 . S
C1524 H1527 0.930 . S
C1525 C1522 1.348 . S
C1525 C1523 1.356 . S
H1526 C1520 0.930 . S
H1527 C1524 0.930 . S
C1528 C1530 1.348 . S
C1528 C1531 1.356 . S
C1528 O1558 1.325 . S
N1529 C1532 1.314 . S
N1529 C1533 1.279 . S
C1530 C1528 1.348 . S
C1530 C1532 1.353 . S
C1530 H1572 0.929 . S
C1531 C1528 1.356 . S
C1531 C1533 1.358 . S
C1531 H1573 0.930 . S
C1532 N1529 1.314 . S
C1532 C1530 1.353 . S
C1532 H1574 0.930 . S
C1533 N1529 1.279 . S
C1533 C1531 1.358 . S
C1533 H1575 0.930 . S
C1534 C1535 1.348 . S
C1534 C1536 1.356 . S
C1534 O1559 1.325 . S
C1535 C1534 1.348 . S
C1535 C1537 1.353 . S
C1535 H1576 0.929 . S
C1536 C1534 1.356 . S
C1536 C1538 1.358 . S
C1536 H1577 0.930 . S
C1537 C1535 1.353 . S
C1537 N1539 1.314 . S
C1537 H1578 0.930 . S
C1538 C1536 1.358 . S
C1538 N1539 1.279 . S
C1538 H1579 0.930 . S
N1539 C1537 1.314 . S
N1539 C1538 1.279 . S
C1540 C1542 1.353 . S
C1540 N1543 1.314 . S
C1540 H1546 0.930 . S
C1541 N1543 1.279 . S
C1541 C1544 1.358 . S
C1541 H1547 0.930 . S
C1542 C1540 1.353 . S
C1542 C1545 1.348 . S
C1542 H1580 0.929 . S
N1543 Li1498 1.990 . S
N1543 C1540 1.314 . S
N1543 C1541 1.279 . S
C1544 C1541 1.358 . S
C1544 C1545 1.356 . S
C1544 H1581 0.930 . S
C1545 C1542 1.348 . S
C1545 C1544 1.356 . S
H1546 C1540 0.930 . S
H1547 C1541 0.930 . S
C1548 N1549 1.314 . S
C1548 C1550 1.353 . S
C1548 H1554 0.930 . S
N1549 Li1499 1.990 . S
N1549 C1548 1.314 . S
N1549 C1552 1.279 . S
C1550 C1548 1.353 . S
C1550 C1553 1.348 . S
C1550 H1582 0.929 . S
C1551 C1552 1.358 . S
C1551 C1553 1.356 . S
C1551 H1583 0.930 . S
C1552 N1549 1.279 . S
C1552 C1551 1.358 . S
C1552 H1555 0.930 . S
C1553 C1550 1.348 . S
C1553 C1551 1.356 . S
H1554 C1548 0.930 . S
H1555 C1552 0.930 . S
O1556 Li1496 1.956 . S
O1556 Li1497 1.970 . S
O1556 Li1498 1.961 . S
O1556 C1500 1.325 . S
O1557 Li1496 1.970 . S
O1557 Li1497 1.956 . S
O1557 Li1499 1.961 . S
O1557 C1506 1.325 . S
O1558 Li1496 1.961 . S
O1558 Li1498 1.956 . S
O1558 Li1499 1.970 . S
O1558 C1528 1.325 . S
O1559 Li1497 1.961 . S
O1559 Li1498 1.970 . S
O1559 Li1499 1.956 . S
O1559 C1534 1.325 . S
H1560 C1502 0.929 . S
H1561 C1503 0.930 . S
H1562 C1504 0.930 . S
H1563 C1505 0.930 . S
H1564 C1507 0.930 . S
H1565 C1509 0.929 . S
H1566 C1510 0.930 . S
H1567 C1511 0.930 . S
H1568 C1514 0.930 . S
H1569 C1517 0.929 . S
H1570 C1522 0.929 . S
H1571 C1523 0.930 . S
H1572 C1530 0.929 . S
H1573 C1531 0.930 . S
H1574 C1532 0.930 . S
H1575 C1533 0.930 . S
H1576 C1535 0.929 . S
H1577 C1536 0.930 . S
H1578 C1537 0.930 . S
H1579 C1538 0.930 . S
H1580 C1542 0.929 . S
H1581 C1544 0.930 . S
H1582 C1550 0.929 . S
H1583 C1551 0.930 . S
Li1584 N1601 1.990 . S
Li1584 O1644 1.956 . S
Li1584 O1645 1.970 . S
Li1584 O1646 1.961 . S
Li1585 N1609 1.990 . S
Li1585 O1644 1.970 . S
Li1585 O1645 1.956 . S
Li1585 O1647 1.961 . S
Li1586 N1631 1.990 . S
Li1586 O1644 1.961 . S
Li1586 O1646 1.956 . S
Li1586 O1647 1.970 . S
Li1587 N1637 1.990 . S
Li1587 O1645 1.961 . S
Li1587 O1646 1.970 . S
Li1587 O1647 1.956 . S
C1588 C1590 1.348 . S
C1588 C1591 1.356 . S
C1588 O1644 1.325 . S
N1589 C1592 1.314 . S
N1589 C1593 1.279 . S
C1590 C1588 1.348 . S
C1590 C1592 1.353 . S
C1590 H1648 0.929 . S
C1591 C1588 1.356 . S
C1591 C1593 1.358 . S
C1591 H1649 0.930 . S
C1592 N1589 1.314 . S
C1592 C1590 1.353 . S
C1592 H1650 0.930 . S
C1593 N1589 1.279 . S
C1593 C1591 1.358 . S
C1593 H1651 0.930 . S
C1594 C1597 1.348 . S
C1594 C1598 1.356 . S
C1594 O1645 1.325 . S
C1595 N1596 1.279 . S
C1595 C1598 1.358 . S
C1595 H1652 0.930 . S
N1596 C1595 1.279 . S
N1596 C1599 1.314 . S
C1597 C1594 1.348 . S
C1597 C1599 1.353 . S
C1597 H1653 0.929 . S
C1598 C1594 1.356 . S
C1598 C1595 1.358 . S
C1598 H1654 0.930 . S
C1599 N1596 1.314 . S
C1599 C1597 1.353 . S
C1599 H1655 0.930 . S
C1600 N1601 1.314 . S
C1600 C1605 1.353 . S
C1600 H1606 0.930 . S
N1601 Li1584 1.990 . S
N1601 C1600 1.314 . S
N1601 C1603 1.279 . S
C1602 C1603 1.358 . S
C1602 C1604 1.356 . S
C1602 H1656 0.930 . S
C1603 N1601 1.279 . S
C1603 C1602 1.358 . S
C1603 H1607 0.930 . S
C1604 C1602 1.356 . S
C1604 C1605 1.348 . S
C1605 C1600 1.353 . S
C1605 C1604 1.348 . S
C1605 H1657 0.929 . S
H1606 C1600 0.930 . S
H1607 C1603 0.930 . S
C1608 N1609 1.314 . S
C1608 C1610 1.353 . S
C1608 H1614 0.930 . S
N1609 Li1585 1.990 . S
N1609 C1608 1.314 . S
N1609 C1612 1.279 . S
C1610 C1608 1.353 . S
C1610 C1613 1.348 . S
C1610 H1658 0.929 . S
C1611 C1612 1.358 . S
C1611 C1613 1.356 . S
C1611 H1659 0.930 . S
C1612 N1609 1.279 . S
C1612 C1611 1.358 . S
C1612 H1615 0.930 . S
C1613 C1610 1.348 . S
C1613 C1611 1.356 . S
H1614 C1608 0.930 . S
H1615 C1612 0.930 . S
C1616 C1618 1.348 . S
C1616 C1619 1.356 . S
C1616 O1646 1.325 . S
N1617 C1620 1.314 . S
N1617 C1621 1.279 . S
C1618 C1616 1.348 . S
C1618 C1620 1.353 . S
C1618 H1660 0.929 . S
C1619 C1616 1.356 . S
C1619 C1621 1.358 . S
C1619 H1661 0.930 . S
C1620 N1617 1.314 . S
C1620 C1618 1.353 . S
C1620 H1662 0.930 . S
C1621 N1617 1.279 . S
C1621 C1619 1.358 . S
C1621 H1663 0.930 . S
C1622 C1623 1.348 . S
C1622 C1624 1.356 . S
C1622 O1647 1.325 . S
C1623 C1622 1.348 . S
C1623 C1625 1.353 . S
C1623 H1664 0.929 . S
C1624 C1622 1.356 . S
C1624 C1626 1.358 . S
C1624 H1665 0.930 . S
C1625 C1623 1.353 . S
C1625 N1627 1.314 . S
C1625 H1666 0.930 . S
C1626 C1624 1.358 . S
C1626 N1627 1.279 . S
C1626 H1667 0.930 . S
N1627 C1625 1.314 . S
N1627 C1626 1.279 . S
C1628 C1630 1.353 . S
C1628 N1631 1.314 . S
C1628 H1634 0.930 . S
C1629 N1631 1.279 . S
C1629 C1632 1.358 . S
C1629 H1635 0.930 . S
C1630 C1628 1.353 . S
C1630 C1633 1.348 . S
C1630 H1668 0.929 . S
N1631 Li1586 1.990 . S
N1631 C1628 1.314 . S
N1631 C1629 1.279 . S
C1632 C1629 1.358 . S
C1632 C1633 1.356 . S
C1632 H1669 0.930 . S
C1633 C1630 1.348 . S
C1633 C1632 1.356 . S
H1634 C1628 0.930 . S
H1635 C1629 0.930 . S
C1636 N1637 1.314 . S
C1636 C1638 1.353 . S
C1636 H1642 0.930 . S
N1637 Li1587 1.990 . S
N1637 C1636 1.314 . S
N1637 C1640 1.279 . S
C1638 C1636 1.353 . S
C1638 C1641 1.348 . S
C1638 H1670 0.929 . S
C1639 C1640 1.358 . S
C1639 C1641 1.356 . S
C1639 H1671 0.930 . S
C1640 N1637 1.279 . S
C1640 C1639 1.358 . S
C1640 H1643 0.930 . S
C1641 C1638 1.348 . S
C1641 C1639 1.356 . S
H1642 C1636 0.930 . S
H1643 C1640 0.930 . S
O1644 Li1584 1.956 . S
O1644 Li1585 1.970 . S
O1644 Li1586 1.961 . S
O1644 C1588 1.325 . S
O1645 Li1584 1.970 . S
O1645 Li1585 1.956 . S
O1645 Li1587 1.961 . S
O1645 C1594 1.325 . S
O1646 Li1584 1.961 . S
O1646 Li1586 1.956 . S
O1646 Li1587 1.970 . S
O1646 C1616 1.325 . S
O1647 Li1585 1.961 . S
O1647 Li1586 1.970 . S
O1647 Li1587 1.956 . S
O1647 C1622 1.325 . S
H1648 C1590 0.929 . S
H1649 C1591 0.930 . S
H1650 C1592 0.930 . S
H1651 C1593 0.930 . S
H1652 C1595 0.930 . S
H1653 C1597 0.929 . S
H1654 C1598 0.930 . S
H1655 C1599 0.930 . S
H1656 C1602 0.930 . S
H1657 C1605 0.929 . S
H1658 C1610 0.929 . S
H1659 C1611 0.930 . S
H1660 C1618 0.929 . S
H1661 C1619 0.930 . S
H1662 C1620 0.930 . S
H1663 C1621 0.930 . S
H1664 C1623 0.929 . S
H1665 C1624 0.930 . S
H1666 C1625 0.930 . S
H1667 C1626 0.930 . S
H1668 C1630 0.929 . S
H1669 C1632 0.930 . S
H1670 C1638 0.929 . S
H1671 C1639 0.930 . S
Li1672 N1689 1.990 . S
Li1672 O1732 1.956 . S
Li1672 O1733 1.970 . S
Li1672 O1734 1.961 . S
Li1673 N1697 1.990 . S
Li1673 O1732 1.970 . S
Li1673 O1733 1.956 . S
Li1673 O1735 1.961 . S
Li1674 N1719 1.990 . S
Li1674 O1732 1.961 . S
Li1674 O1734 1.956 . S
Li1674 O1735 1.970 . S
Li1675 N1725 1.990 . S
Li1675 O1733 1.961 . S
Li1675 O1734 1.970 . S
Li1675 O1735 1.956 . S
C1676 C1678 1.348 . S
C1676 C1679 1.356 . S
C1676 O1732 1.325 . S
N1677 C1680 1.314 . S
N1677 C1681 1.279 . S
C1678 C1676 1.348 . S
C1678 C1680 1.353 . S
C1678 H1736 0.929 . S
C1679 C1676 1.356 . S
C1679 C1681 1.358 . S
C1679 H1737 0.930 . S
C1680 N1677 1.314 . S
C1680 C1678 1.353 . S
C1680 H1738 0.930 . S
C1681 N1677 1.279 . S
C1681 C1679 1.358 . S
C1681 H1739 0.930 . S
C1682 C1685 1.348 . S
C1682 C1686 1.356 . S
C1682 O1733 1.325 . S
C1683 N1684 1.279 . S
C1683 C1686 1.358 . S
C1683 H1740 0.930 . S
N1684 C1683 1.279 . S
N1684 C1687 1.314 . S
C1685 C1682 1.348 . S
C1685 C1687 1.353 . S
C1685 H1741 0.929 . S
C1686 C1682 1.356 . S
C1686 C1683 1.358 . S
C1686 H1742 0.930 . S
C1687 N1684 1.314 . S
C1687 C1685 1.353 . S
C1687 H1743 0.930 . S
C1688 N1689 1.314 . S
C1688 C1693 1.353 . S
C1688 H1694 0.930 . S
N1689 Li1672 1.990 . S
N1689 C1688 1.314 . S
N1689 C1691 1.279 . S
C1690 C1691 1.358 . S
C1690 C1692 1.356 . S
C1690 H1744 0.930 . S
C1691 N1689 1.279 . S
C1691 C1690 1.358 . S
C1691 H1695 0.930 . S
C1692 C1690 1.356 . S
C1692 C1693 1.348 . S
C1693 C1688 1.353 . S
C1693 C1692 1.348 . S
C1693 H1745 0.929 . S
H1694 C1688 0.930 . S
H1695 C1691 0.930 . S
C1696 N1697 1.314 . S
C1696 C1698 1.353 . S
C1696 H1702 0.930 . S
N1697 Li1673 1.990 . S
N1697 C1696 1.314 . S
N1697 C1700 1.279 . S
C1698 C1696 1.353 . S
C1698 C1701 1.348 . S
C1698 H1746 0.929 . S
C1699 C1700 1.358 . S
C1699 C1701 1.356 . S
C1699 H1747 0.930 . S
C1700 N1697 1.279 . S
C1700 C1699 1.358 . S
C1700 H1703 0.930 . S
C1701 C1698 1.348 . S
C1701 C1699 1.356 . S
H1702 C1696 0.930 . S
H1703 C1700 0.930 . S
C1704 C1706 1.348 . S
C1704 C1707 1.356 . S
C1704 O1734 1.325 . S
N1705 C1708 1.301 1_556 S
N1705 C1709 1.279 1_556 S
C1706 C1704 1.348 . S
C1706 C1708 1.393 . S
C1706 H1748 0.929 . S
C1707 C1704 1.356 . S
C1707 C1709 1.358 . S
C1707 H1749 0.930 . S
C1708 N1705 1.301 1_554 S
C1708 C1706 1.393 . S
C1708 H1750 0.900 1_554 S
C1709 N1705 1.279 1_554 S
C1709 C1707 1.358 . S
C1709 H1751 0.930 . S
C1710 C1711 1.348 . S
C1710 C1712 1.356 . S
C1710 O1735 1.325 . S
C1711 C1710 1.348 . S
C1711 C1713 1.353 . S
C1711 H1752 0.929 . S
C1712 C1710 1.356 . S
C1712 C1714 1.358 . S
C1712 H1753 0.930 . S
C1713 C1711 1.353 . S
C1713 N1715 1.314 . S
C1713 H1754 0.930 . S
C1714 C1712 1.358 . S
C1714 N1715 1.279 . S
C1714 H1755 0.930 . S
N1715 C1713 1.314 . S
N1715 C1714 1.279 . S
C1716 C1718 1.353 . S
C1716 N1719 1.314 . S
C1716 H1722 0.930 . S
C1717 N1719 1.279 . S
C1717 C1720 1.358 . S
C1717 H1723 0.930 . S
C1718 C1716 1.353 . S
C1718 C1721 1.348 . S
C1718 H1756 0.929 . S
N1719 Li1674 1.990 . S
N1719 C1716 1.314 . S
N1719 C1717 1.279 . S
C1720 C1717 1.358 . S
C1720 C1721 1.356 . S
C1720 H1757 0.930 . S
C1721 C1718 1.348 . S
C1721 C1720 1.356 . S
H1722 C1716 0.930 . S
H1723 C1717 0.930 . S
C1724 N1725 1.314 . S
C1724 C1726 1.353 . S
C1724 H1730 0.930 . S
N1725 Li1675 1.990 . S
N1725 C1724 1.314 . S
N1725 C1728 1.279 . S
C1726 C1724 1.353 . S
C1726 C1729 1.348 . S
C1726 H1758 0.929 . S
C1727 C1728 1.358 . S
C1727 C1729 1.356 . S
C1727 H1759 0.930 . S
C1728 N1725 1.279 . S
C1728 C1727 1.358 . S
C1728 H1731 0.930 . S
C1729 C1726 1.348 . S
C1729 C1727 1.356 . S
H1730 C1724 0.930 . S
H1731 C1728 0.930 . S
O1732 Li1672 1.956 . S
O1732 Li1673 1.970 . S
O1732 Li1674 1.961 . S
O1732 C1676 1.325 . S
O1733 Li1672 1.970 . S
O1733 Li1673 1.956 . S
O1733 Li1675 1.961 . S
O1733 C1682 1.325 . S
O1734 Li1672 1.961 . S
O1734 Li1674 1.956 . S
O1734 Li1675 1.970 . S
O1734 C1704 1.325 . S
O1735 Li1673 1.961 . S
O1735 Li1674 1.970 . S
O1735 Li1675 1.956 . S
O1735 C1710 1.325 . S
H1736 C1678 0.929 . S
H1737 C1679 0.930 . S
H1738 C1680 0.930 . S
H1739 C1681 0.930 . S
H1740 C1683 0.930 . S
H1741 C1685 0.929 . S
H1742 C1686 0.930 . S
H1743 C1687 0.930 . S
H1744 C1690 0.930 . S
H1745 C1693 0.929 . S
H1746 C1698 0.929 . S
H1747 C1699 0.930 . S
H1748 C1706 0.929 . S
H1749 C1707 0.930 . S
H1750 C1708 0.900 1_556 S
H1751 C1709 0.930 . S
H1752 C1711 0.929 . S
H1753 C1712 0.930 . S
H1754 C1713 0.930 . S
H1755 C1714 0.930 . S
H1756 C1718 0.929 . S
H1757 C1720 0.930 . S
H1758 C1726 0.929 . S
H1759 C1727 0.930 . S
Li1760 N1777 1.990 . S
Li1760 O1820 1.956 . S
Li1760 O1821 1.970 . S
Li1760 O1822 1.961 . S
Li1761 N1785 1.990 . S
Li1761 O1820 1.970 . S
Li1761 O1821 1.956 . S
Li1761 O1823 1.961 . S
Li1762 N1807 1.990 . S
Li1762 O1820 1.961 . S
Li1762 O1822 1.956 . S
Li1762 O1823 1.970 . S
Li1763 N1813 1.990 . S
Li1763 O1821 1.961 . S
Li1763 O1822 1.970 . S
Li1763 O1823 1.956 . S
C1764 C1766 1.348 . S
C1764 C1767 1.356 . S
C1764 O1820 1.325 . S
N1765 C1768 1.314 . S
N1765 C1769 1.279 . S
C1766 C1764 1.348 . S
C1766 C1768 1.353 . S
C1766 H1824 0.929 . S
C1767 C1764 1.356 . S
C1767 C1769 1.358 . S
C1767 H1825 0.930 . S
C1768 N1765 1.314 . S
C1768 C1766 1.353 . S
C1768 H1826 0.930 . S
C1769 N1765 1.279 . S
C1769 C1767 1.358 . S
C1769 H1827 0.930 . S
C1770 C1773 1.348 . S
C1770 C1774 1.356 . S
C1770 O1821 1.325 . S
C1771 N1772 1.279 . S
C1771 C1774 1.358 . S
C1771 H1828 0.930 . S
N1772 C1771 1.279 . S
N1772 C1775 1.314 . S
C1773 C1770 1.348 . S
C1773 C1775 1.353 . S
C1773 H1829 0.929 . S
C1774 C1770 1.356 . S
C1774 C1771 1.358 . S
C1774 H1830 0.930 . S
C1775 N1772 1.314 . S
C1775 C1773 1.353 . S
C1775 H1831 0.930 . S
C1776 N1777 1.314 . S
C1776 C1781 1.353 . S
C1776 H1782 0.930 . S
N1777 Li1760 1.990 . S
N1777 C1776 1.314 . S
N1777 C1779 1.279 . S
C1778 C1779 1.358 . S
C1778 C1780 1.356 . S
C1778 H1832 0.930 . S
C1779 N1777 1.279 . S
C1779 C1778 1.358 . S
C1779 H1783 0.930 . S
C1780 C1778 1.356 . S
C1780 C1781 1.348 . S
C1781 C1776 1.353 . S
C1781 C1780 1.348 . S
C1781 H1833 0.929 . S
H1782 C1776 0.930 . S
H1783 C1779 0.930 . S
C1784 N1785 1.314 . S
C1784 C1786 1.353 . S
C1784 H1790 0.930 . S
N1785 Li1761 1.990 . S
N1785 C1784 1.314 . S
N1785 C1788 1.279 . S
C1786 C1784 1.353 . S
C1786 C1789 1.348 . S
C1786 H1834 0.929 . S
C1787 C1788 1.358 . S
C1787 C1789 1.356 . S
C1787 H1835 0.930 . S
C1788 N1785 1.279 . S
C1788 C1787 1.358 . S
C1788 H1791 0.930 . S
C1789 C1786 1.348 . S
C1789 C1787 1.356 . S
H1790 C1784 0.930 . S
H1791 C1788 0.930 . S
C1792 C1794 1.348 . S
C1792 C1795 1.356 . S
C1792 O1822 1.325 . S
N1793 C1796 1.314 . S
N1793 C1797 1.279 . S
C1794 C1792 1.348 . S
C1794 C1796 1.353 . S
C1794 H1836 0.929 . S
C1795 C1792 1.356 . S
C1795 C1797 1.358 . S
C1795 H1837 0.930 . S
C1796 N1793 1.314 . S
C1796 C1794 1.353 . S
C1796 H1838 0.930 . S
C1797 N1793 1.279 . S
C1797 C1795 1.358 . S
C1797 H1839 0.930 . S
C1798 C1799 1.348 . S
C1798 C1800 1.356 . S
C1798 O1823 1.325 . S
C1799 C1798 1.348 . S
C1799 C1801 1.353 . S
C1799 H1840 0.929 . S
C1800 C1798 1.356 . S
C1800 C1802 1.358 . S
C1800 H1841 0.930 . S
C1801 C1799 1.353 . S
C1801 N1803 1.314 . S
C1801 H1842 0.930 . S
C1802 C1800 1.358 . S
C1802 N1803 1.279 . S
C1802 H1843 0.930 . S
N1803 C1801 1.314 . S
N1803 C1802 1.279 . S
C1804 C1806 1.353 . S
C1804 N1807 1.314 . S
C1804 H1810 0.930 . S
C1805 N1807 1.279 . S
C1805 C1808 1.358 . S
C1805 H1811 0.930 . S
C1806 C1804 1.353 . S
C1806 C1809 1.348 . S
C1806 H1844 0.929 . S
N1807 Li1762 1.990 . S
N1807 C1804 1.314 . S
N1807 C1805 1.279 . S
C1808 C1805 1.358 . S
C1808 C1809 1.356 . S
C1808 H1845 0.930 . S
C1809 C1806 1.348 . S
C1809 C1808 1.356 . S
H1810 C1804 0.930 . S
H1811 C1805 0.930 . S
C1812 N1813 1.314 . S
C1812 C1814 1.353 . S
C1812 H1818 0.930 . S
N1813 Li1763 1.990 . S
N1813 C1812 1.314 . S
N1813 C1816 1.279 . S
C1814 C1812 1.353 . S
C1814 C1817 1.348 . S
C1814 H1846 0.929 . S
C1815 C1816 1.358 . S
C1815 C1817 1.356 . S
C1815 H1847 0.930 . S
C1816 N1813 1.279 . S
C1816 C1815 1.358 . S
C1816 H1819 0.930 . S
C1817 C1814 1.348 . S
C1817 C1815 1.356 . S
H1818 C1812 0.930 . S
H1819 C1816 0.930 . S
O1820 Li1760 1.956 . S
O1820 Li1761 1.970 . S
O1820 Li1762 1.961 . S
O1820 C1764 1.325 . S
O1821 Li1760 1.970 . S
O1821 Li1761 1.956 . S
O1821 Li1763 1.961 . S
O1821 C1770 1.325 . S
O1822 Li1760 1.961 . S
O1822 Li1762 1.956 . S
O1822 Li1763 1.970 . S
O1822 C1792 1.325 . S
O1823 Li1761 1.961 . S
O1823 Li1762 1.970 . S
O1823 Li1763 1.956 . S
O1823 C1798 1.325 . S
H1824 C1766 0.929 . S
H1825 C1767 0.930 . S
H1826 C1768 0.930 . S
H1827 C1769 0.930 . S
H1828 C1771 0.930 . S
H1829 C1773 0.929 . S
H1830 C1774 0.930 . S
H1831 C1775 0.930 . S
H1832 C1778 0.930 . S
H1833 C1781 0.929 . S
H1834 C1786 0.929 . S
H1835 C1787 0.930 . S
H1836 C1794 0.929 . S
H1837 C1795 0.930 . S
H1838 C1796 0.930 . S
H1839 C1797 0.930 . S
H1840 C1799 0.929 . S
H1841 C1800 0.930 . S
H1842 C1801 0.930 . S
H1843 C1802 0.930 . S
H1844 C1806 0.929 . S
H1845 C1808 0.930 . S
H1846 C1814 0.929 . S
H1847 C1815 0.930 . S
Li1848 N1865 1.990 . S
Li1848 O1908 1.956 . S
Li1848 O1909 1.970 . S
Li1848 O1910 1.961 . S
Li1849 N1873 1.990 . S
Li1849 O1908 1.970 . S
Li1849 O1909 1.956 . S
Li1849 O1911 1.961 . S
Li1850 N1895 1.990 . S
Li1850 O1908 1.961 . S
Li1850 O1910 1.956 . S
Li1850 O1911 1.970 . S
Li1851 N1901 1.990 . S
Li1851 O1909 1.961 . S
Li1851 O1910 1.970 . S
Li1851 O1911 1.956 . S
C1852 C1854 1.348 . S
C1852 C1855 1.356 . S
C1852 O1908 1.325 . S
N1853 C1856 1.314 . S
N1853 C1857 1.279 . S
C1854 C1852 1.348 . S
C1854 C1856 1.353 . S
C1854 H1912 0.929 . S
C1855 C1852 1.356 . S
C1855 C1857 1.358 . S
C1855 H1913 0.930 . S
C1856 N1853 1.314 . S
C1856 C1854 1.353 . S
C1856 H1914 0.930 . S
C1857 N1853 1.279 . S
C1857 C1855 1.358 . S
C1857 H1915 0.930 . S
C1858 C1861 1.348 . S
C1858 C1862 1.356 . S
C1858 O1909 1.325 . S
C1859 N1860 1.279 . S
C1859 C1862 1.358 . S
C1859 H1916 0.930 . S
N1860 C1859 1.279 . S
N1860 C1863 1.314 . S
C1861 C1858 1.348 . S
C1861 C1863 1.353 . S
C1861 H1917 0.929 . S
C1862 C1858 1.356 . S
C1862 C1859 1.358 . S
C1862 H1918 0.930 . S
C1863 N1860 1.314 . S
C1863 C1861 1.353 . S
C1863 H1919 0.930 . S
C1864 N1865 1.314 . S
C1864 C1869 1.353 . S
C1864 H1870 0.930 . S
N1865 Li1848 1.990 . S
N1865 C1864 1.314 . S
N1865 C1867 1.279 . S
C1866 C1867 1.358 . S
C1866 C1868 1.356 . S
C1866 H1920 0.930 . S
C1867 N1865 1.279 . S
C1867 C1866 1.358 . S
C1867 H1871 0.930 . S
C1868 C1866 1.356 . S
C1868 C1869 1.348 . S
C1869 C1864 1.353 . S
C1869 C1868 1.348 . S
C1869 H1921 0.929 . S
H1870 C1864 0.930 . S
H1871 C1867 0.930 . S
C1872 N1873 1.314 . S
C1872 C1874 1.353 . S
C1872 H1878 0.930 . S
N1873 Li1849 1.990 . S
N1873 C1872 1.314 . S
N1873 C1876 1.279 . S
C1874 C1872 1.353 . S
C1874 C1877 1.348 . S
C1874 H1922 0.929 . S
C1875 C1876 1.358 . S
C1875 C1877 1.356 . S
C1875 H1923 0.930 . S
C1876 N1873 1.279 . S
C1876 C1875 1.358 . S
C1876 H1879 0.930 . S
C1877 C1874 1.348 . S
C1877 C1875 1.356 . S
H1878 C1872 0.930 . S
H1879 C1876 0.930 . S
C1880 C1882 1.348 . S
C1880 C1883 1.356 . S
C1880 O1910 1.325 . S
N1881 C1884 1.314 . S
N1881 C1885 1.279 . S
C1882 C1880 1.348 . S
C1882 C1884 1.353 . S
C1882 H1924 0.929 . S
C1883 C1880 1.356 . S
C1883 C1885 1.358 . S
C1883 H1925 0.930 . S
C1884 N1881 1.314 . S
C1884 C1882 1.353 . S
C1884 H1926 0.930 . S
C1885 N1881 1.279 . S
C1885 C1883 1.358 . S
C1885 H1927 0.930 . S
C1886 C1887 1.348 . S
C1886 C1888 1.356 . S
C1886 O1911 1.325 . S
C1887 C1886 1.348 . S
C1887 C1889 1.396 . S
C1887 H1928 0.929 . S
C1888 C1886 1.356 . S
C1888 C1890 1.358 . S
C1888 H1929 0.930 . S
C1889 C1887 1.396 . S
C1889 N1891 1.300 1_554 S
C1889 H1930 0.898 1_554 S
C1890 C1888 1.358 . S
C1890 N1891 1.279 1_554 S
C1890 H1931 0.930 . S
N1891 C1889 1.300 1_556 S
N1891 C1890 1.279 1_556 S
C1892 C1894 1.353 . S
C1892 N1895 1.314 . S
C1892 H1898 0.930 . S
C1893 N1895 1.279 . S
C1893 C1896 1.358 . S
C1893 H1899 0.930 . S
C1894 C1892 1.353 . S
C1894 C1897 1.348 . S
C1894 H1932 0.929 . S
N1895 Li1850 1.990 . S
N1895 C1892 1.314 . S
N1895 C1893 1.279 . S
C1896 C1893 1.358 . S
C1896 C1897 1.356 . S
C1896 H1933 0.930 . S
C1897 C1894 1.348 . S
C1897 C1896 1.356 . S
H1898 C1892 0.930 . S
H1899 C1893 0.930 . S
C1900 N1901 1.314 . S
C1900 C1902 1.353 . S
C1900 H1906 0.930 . S
N1901 Li1851 1.990 . S
N1901 C1900 1.314 . S
N1901 C1904 1.279 . S
C1902 C1900 1.353 . S
C1902 C1905 1.348 . S
C1902 H1934 0.929 . S
C1903 C1904 1.358 . S
C1903 C1905 1.356 . S
C1903 H1935 0.930 . S
C1904 N1901 1.279 . S
C1904 C1903 1.358 . S
C1904 H1907 0.930 . S
C1905 C1902 1.348 . S
C1905 C1903 1.356 . S
H1906 C1900 0.930 . S
H1907 C1904 0.930 . S
O1908 Li1848 1.956 . S
O1908 Li1849 1.970 . S
O1908 Li1850 1.961 . S
O1908 C1852 1.325 . S
O1909 Li1848 1.970 . S
O1909 Li1849 1.956 . S
O1909 Li1851 1.961 . S
O1909 C1858 1.325 . S
O1910 Li1848 1.961 . S
O1910 Li1850 1.956 . S
O1910 Li1851 1.970 . S
O1910 C1880 1.325 . S
O1911 Li1849 1.961 . S
O1911 Li1850 1.970 . S
O1911 Li1851 1.956 . S
O1911 C1886 1.325 . S
H1912 C1854 0.929 . S
H1913 C1855 0.930 . S
H1914 C1856 0.930 . S
H1915 C1857 0.930 . S
H1916 C1859 0.930 . S
H1917 C1861 0.929 . S
H1918 C1862 0.930 . S
H1919 C1863 0.930 . S
H1920 C1866 0.930 . S
H1921 C1869 0.929 . S
H1922 C1874 0.929 . S
H1923 C1875 0.930 . S
H1924 C1882 0.929 . S
H1925 C1883 0.930 . S
H1926 C1884 0.930 . S
H1927 C1885 0.930 . S
H1928 C1887 0.929 . S
H1929 C1888 0.930 . S
H1930 C1889 0.898 1_556 S
H1931 C1890 0.930 . S
H1932 C1894 0.929 . S
H1933 C1896 0.930 . S
H1934 C1902 0.929 . S
H1935 C1903 0.930 . S
Li1936 N1953 1.990 . S
Li1936 O1996 1.956 . S
Li1936 O1997 1.970 . S
Li1936 O1998 1.961 . S
Li1937 N1961 1.990 . S
Li1937 O1996 1.970 . S
Li1937 O1997 1.956 . S
Li1937 O1999 1.961 . S
Li1938 N1983 1.990 . S
Li1938 O1996 1.961 . S
Li1938 O1998 1.956 . S
Li1938 O1999 1.970 . S
Li1939 N1989 1.990 . S
Li1939 O1997 1.961 . S
Li1939 O1998 1.970 . S
Li1939 O1999 1.956 . S
C1940 C1942 1.348 . S
C1940 C1943 1.356 . S
C1940 O1996 1.325 . S
N1941 C1944 1.314 . S
N1941 C1945 1.279 . S
C1942 C1940 1.348 . S
C1942 C1944 1.353 . S
C1942 H2000 0.929 . S
C1943 C1940 1.356 . S
C1943 C1945 1.358 . S
C1943 H2001 0.930 . S
C1944 N1941 1.314 . S
C1944 C1942 1.353 . S
C1944 H2002 0.930 . S
C1945 N1941 1.279 . S
C1945 C1943 1.358 . S
C1945 H2003 0.930 . S
C1946 C1949 1.348 . S
C1946 C1950 1.356 . S
C1946 O1997 1.325 . S
C1947 N1948 1.279 . S
C1947 C1950 1.358 . S
C1947 H2004 0.930 . S
N1948 C1947 1.279 . S
N1948 C1951 1.314 . S
C1949 C1946 1.348 . S
C1949 C1951 1.353 . S
C1949 H2005 0.929 . S
C1950 C1946 1.356 . S
C1950 C1947 1.358 . S
C1950 H2006 0.930 . S
C1951 N1948 1.314 . S
C1951 C1949 1.353 . S
C1951 H2007 0.930 . S
C1952 N1953 1.314 . S
C1952 C1957 1.353 . S
C1952 H1958 0.930 . S
N1953 Li1936 1.990 . S
N1953 C1952 1.314 . S
N1953 C1955 1.279 . S
C1954 C1955 1.358 . S
C1954 C1956 1.356 . S
C1954 H2008 0.930 . S
C1955 N1953 1.279 . S
C1955 C1954 1.358 . S
C1955 H1959 0.930 . S
C1956 C1954 1.356 . S
C1956 C1957 1.348 . S
C1957 C1952 1.353 . S
C1957 C1956 1.348 . S
C1957 H2009 0.929 . S
H1958 C1952 0.930 . S
H1959 C1955 0.930 . S
C1960 N1961 1.314 . S
C1960 C1962 1.353 . S
C1960 H1966 0.930 . S
N1961 Li1937 1.990 . S
N1961 C1960 1.314 . S
N1961 C1964 1.279 . S
C1962 C1960 1.353 . S
C1962 C1965 1.348 . S
C1962 H2010 0.929 . S
C1963 C1964 1.358 . S
C1963 C1965 1.356 . S
C1963 H2011 0.930 . S
C1964 N1961 1.279 . S
C1964 C1963 1.358 . S
C1964 H1967 0.930 . S
C1965 C1962 1.348 . S
C1965 C1963 1.356 . S
H1966 C1960 0.930 . S
H1967 C1964 0.930 . S
C1968 C1970 1.348 . S
C1968 C1971 1.356 . S
C1968 O1998 1.325 . S
N1969 C1972 1.314 . S
N1969 C1973 1.279 . S
C1970 C1968 1.348 . S
C1970 C1972 1.353 . S
C1970 H2012 0.929 . S
C1971 C1968 1.356 . S
C1971 C1973 1.358 . S
C1971 H2013 0.930 . S
C1972 N1969 1.314 . S
C1972 C1970 1.353 . S
C1972 H2014 0.930 . S
C1973 N1969 1.279 . S
C1973 C1971 1.358 . S
C1973 H2015 0.930 . S
C1974 C1975 1.348 . S
C1974 C1976 1.356 . S
C1974 O1999 1.325 . S
C1975 C1974 1.348 . S
C1975 C1977 1.353 . S
C1975 H2016 0.929 . S
C1976 C1974 1.356 . S
C1976 C1978 1.358 . S
C1976 H2017 0.930 . S
C1977 C1975 1.353 . S
C1977 N1979 1.314 . S
C1977 H2018 0.930 . S
C1978 C1976 1.358 . S
C1978 N1979 1.279 . S
C1978 H2019 0.930 . S
N1979 C1977 1.314 . S
N1979 C1978 1.279 . S
C1980 C1982 1.353 . S
C1980 N1983 1.314 . S
C1980 H1986 0.930 . S
C1981 N1983 1.279 . S
C1981 C1984 1.358 . S
C1981 H1987 0.930 . S
C1982 C1980 1.353 . S
C1982 C1985 1.348 . S
C1982 H2020 0.929 . S
N1983 Li1938 1.990 . S
N1983 C1980 1.314 . S
N1983 C1981 1.279 . S
C1984 C1981 1.358 . S
C1984 C1985 1.356 . S
C1984 H2021 0.930 . S
C1985 C1982 1.348 . S
C1985 C1984 1.356 . S
H1986 C1980 0.930 . S
H1987 C1981 0.930 . S
C1988 N1989 1.314 . S
C1988 C1990 1.353 . S
C1988 H1994 0.930 . S
N1989 Li1939 1.990 . S
N1989 C1988 1.314 . S
N1989 C1992 1.279 . S
C1990 C1988 1.353 . S
C1990 C1993 1.348 . S
C1990 H2022 0.929 . S
C1991 C1992 1.358 . S
C1991 C1993 1.356 . S
C1991 H2023 0.930 . S
C1992 N1989 1.279 . S
C1992 C1991 1.358 . S
C1992 H1995 0.930 . S
C1993 C1990 1.348 . S
C1993 C1991 1.356 . S
H1994 C1988 0.930 . S
H1995 C1992 0.930 . S
O1996 Li1936 1.956 . S
O1996 Li1937 1.970 . S
O1996 Li1938 1.961 . S
O1996 C1940 1.325 . S
O1997 Li1936 1.970 . S
O1997 Li1937 1.956 . S
O1997 Li1939 1.961 . S
O1997 C1946 1.325 . S
O1998 Li1936 1.961 . S
O1998 Li1938 1.956 . S
O1998 Li1939 1.970 . S
O1998 C1968 1.325 . S
O1999 Li1937 1.961 . S
O1999 Li1938 1.970 . S
O1999 Li1939 1.956 . S
O1999 C1974 1.325 . S
H2000 C1942 0.929 . S
H2001 C1943 0.930 . S
H2002 C1944 0.930 . S
H2003 C1945 0.930 . S
H2004 C1947 0.930 . S
H2005 C1949 0.929 . S
H2006 C1950 0.930 . S
H2007 C1951 0.930 . S
H2008 C1954 0.930 . S
H2009 C1957 0.929 . S
H2010 C1962 0.929 . S
H2011 C1963 0.930 . S
H2012 C1970 0.929 . S
H2013 C1971 0.930 . S
H2014 C1972 0.930 . S
H2015 C1973 0.930 . S
H2016 C1975 0.929 . S
H2017 C1976 0.930 . S
H2018 C1977 0.930 . S
H2019 C1978 0.930 . S
H2020 C1982 0.929 . S
H2021 C1984 0.930 . S
H2022 C1990 0.929 . S
H2023 C1991 0.930 . S
Li2024 N2041 1.990 . S
Li2024 O2084 1.956 . S
Li2024 O2085 1.970 . S
Li2024 O2086 1.961 . S
Li2025 N2049 1.990 . S
Li2025 O2084 1.970 . S
Li2025 O2085 1.956 . S
Li2025 O2087 1.961 . S
Li2026 N2071 1.990 . S
Li2026 O2084 1.961 . S
Li2026 O2086 1.956 . S
Li2026 O2087 1.970 . S
Li2027 N2077 1.990 . S
Li2027 O2085 1.961 . S
Li2027 O2086 1.970 . S
Li2027 O2087 1.956 . S
C2028 C2030 1.348 . S
C2028 C2031 1.356 . S
C2028 O2084 1.325 . S
N2029 C2032 1.314 . S
N2029 C2033 1.279 . S
C2030 C2028 1.348 . S
C2030 C2032 1.353 . S
C2030 H2088 0.929 . S
C2031 C2028 1.356 . S
C2031 C2033 1.358 . S
C2031 H2089 0.930 . S
C2032 N2029 1.314 . S
C2032 C2030 1.353 . S
C2032 H2090 0.930 . S
C2033 N2029 1.279 . S
C2033 C2031 1.358 . S
C2033 H2091 0.930 . S
C2034 C2037 1.348 . S
C2034 C2038 1.356 . S
C2034 O2085 1.325 . S
C2035 N2036 1.279 . S
C2035 C2038 1.358 . S
C2035 H2092 0.930 . S
N2036 C2035 1.279 . S
N2036 C2039 1.314 . S
C2037 C2034 1.348 . S
C2037 C2039 1.353 . S
C2037 H2093 0.929 . S
C2038 C2034 1.356 . S
C2038 C2035 1.358 . S
C2038 H2094 0.930 . S
C2039 N2036 1.314 . S
C2039 C2037 1.353 . S
C2039 H2095 0.930 . S
C2040 N2041 1.314 . S
C2040 C2045 1.353 . S
C2040 H2046 0.930 . S
N2041 Li2024 1.990 . S
N2041 C2040 1.314 . S
N2041 C2043 1.279 . S
C2042 C2043 1.358 . S
C2042 C2044 1.356 . S
C2042 H2096 0.930 . S
C2043 N2041 1.279 . S
C2043 C2042 1.358 . S
C2043 H2047 0.930 . S
C2044 C2042 1.356 . S
C2044 C2045 1.348 . S
C2045 C2040 1.353 . S
C2045 C2044 1.348 . S
C2045 H2097 0.929 . S
H2046 C2040 0.930 . S
H2047 C2043 0.930 . S
C2048 N2049 1.314 . S
C2048 C2050 1.353 . S
C2048 H2054 0.930 . S
N2049 Li2025 1.990 . S
N2049 C2048 1.314 . S
N2049 C2052 1.279 . S
C2050 C2048 1.353 . S
C2050 C2053 1.348 . S
C2050 H2098 0.929 . S
C2051 C2052 1.358 . S
C2051 C2053 1.356 . S
C2051 H2099 0.930 . S
C2052 N2049 1.279 . S
C2052 C2051 1.358 . S
C2052 H2055 0.930 . S
C2053 C2050 1.348 . S
C2053 C2051 1.356 . S
H2054 C2048 0.930 . S
H2055 C2052 0.930 . S
C2056 C2058 1.348 . S
C2056 C2059 1.356 . S
C2056 O2086 1.325 . S
N2057 C2060 1.314 . S
N2057 C2061 1.279 . S
C2058 C2056 1.348 . S
C2058 C2060 1.353 . S
C2058 H2100 0.929 . S
C2059 C2056 1.356 . S
C2059 C2061 1.358 . S
C2059 H2101 0.930 . S
C2060 N2057 1.314 . S
C2060 C2058 1.353 . S
C2060 H2102 0.930 . S
C2061 N2057 1.279 . S
C2061 C2059 1.358 . S
C2061 H2103 0.930 . S
C2062 C2063 1.348 . S
C2062 C2064 1.356 . S
C2062 O2087 1.325 . S
C2063 C2062 1.348 . S
C2063 C2065 1.394 . S
C2063 H2104 0.929 . S
C2064 C2062 1.356 . S
C2064 C2066 1.358 . S
C2064 H2105 0.930 . S
C2065 C2063 1.394 . S
C2065 N2067 1.301 1_554 S
C2065 H2106 0.899 1_554 S
C2066 C2064 1.358 . S
C2066 N2067 1.279 1_554 S
C2066 H2107 0.930 . S
N2067 C2065 1.301 1_556 S
N2067 C2066 1.279 1_556 S
C2068 C2070 1.353 . S
C2068 N2071 1.314 . S
C2068 H2074 0.930 . S
C2069 N2071 1.279 . S
C2069 C2072 1.358 . S
C2069 H2075 0.930 . S
C2070 C2068 1.353 . S
C2070 C2073 1.348 . S
C2070 H2108 0.929 . S
N2071 Li2026 1.990 . S
N2071 C2068 1.314 . S
N2071 C2069 1.279 . S
C2072 C2069 1.358 . S
C2072 C2073 1.356 . S
C2072 H2109 0.930 . S
C2073 C2070 1.348 . S
C2073 C2072 1.356 . S
H2074 C2068 0.930 . S
H2075 C2069 0.930 . S
C2076 N2077 1.314 . S
C2076 C2078 1.353 . S
C2076 H2082 0.930 . S
N2077 Li2027 1.990 . S
N2077 C2076 1.314 . S
N2077 C2080 1.279 . S
C2078 C2076 1.353 . S
C2078 C2081 1.348 . S
C2078 H2110 0.929 . S
C2079 C2080 1.358 . S
C2079 C2081 1.356 . S
C2079 H2111 0.930 . S
C2080 N2077 1.279 . S
C2080 C2079 1.358 . S
C2080 H2083 0.930 . S
C2081 C2078 1.348 . S
C2081 C2079 1.356 . S
H2082 C2076 0.930 . S
H2083 C2080 0.930 . S
O2084 Li2024 1.956 . S
O2084 Li2025 1.970 . S
O2084 Li2026 1.961 . S
O2084 C2028 1.325 . S
O2085 Li2024 1.970 . S
O2085 Li2025 1.956 . S
O2085 Li2027 1.961 . S
O2085 C2034 1.325 . S
O2086 Li2024 1.961 . S
O2086 Li2026 1.956 . S
O2086 Li2027 1.970 . S
O2086 C2056 1.325 . S
O2087 Li2025 1.961 . S
O2087 Li2026 1.970 . S
O2087 Li2027 1.956 . S
O2087 C2062 1.325 . S
H2088 C2030 0.929 . S
H2089 C2031 0.930 . S
H2090 C2032 0.930 . S
H2091 C2033 0.930 . S
H2092 C2035 0.930 . S
H2093 C2037 0.929 . S
H2094 C2038 0.930 . S
H2095 C2039 0.930 . S
H2096 C2042 0.930 . S
H2097 C2045 0.929 . S
H2098 C2050 0.929 . S
H2099 C2051 0.930 . S
H2100 C2058 0.929 . S
H2101 C2059 0.930 . S
H2102 C2060 0.930 . S
H2103 C2061 0.930 . S
H2104 C2063 0.929 . S
H2105 C2064 0.930 . S
H2106 C2065 0.899 1_556 S
H2107 C2066 0.930 . S
H2108 C2070 0.929 . S
H2109 C2072 0.930 . S
H2110 C2078 0.929 . S
H2111 C2079 0.930 . S
H2112 C2118 0.930 . S
H2113 C2121 0.930 . S
H2114 C2122 0.930 . S
H2115 C2123 0.930 . S
H2116 C2126 0.930 . S
H2117 C2127 0.930 . S
C2118 H2112 0.930 . S
C2118 C2119 1.355 . S
C2118 C2120 1.415 . S
C2119 C2118 1.355 . S
C2119 C2121 1.419 . S
C2120 C2118 1.415 . S
C2120 C2125 1.425 . S
C2120 C2127 1.409 . S
C2121 H2113 0.930 . S
C2121 C2119 1.419 . S
C2121 C2122 1.362 . S
C2122 H2114 0.930 . S
C2122 C2121 1.362 . S
C2122 C2125 1.409 . S
C2123 H2115 0.930 . S
C2123 C2124 1.355 . S
C2123 C2125 1.415 . S
C2124 C2123 1.355 . S
C2124 C2126 1.419 . S
C2125 C2120 1.425 . S
C2125 C2122 1.409 . S
C2125 C2123 1.415 . S
C2126 H2116 0.930 . S
C2126 C2124 1.419 . S
C2126 C2127 1.362 . S
C2127 H2117 0.930 . S
C2127 C2120 1.409 . S
C2127 C2126 1.362 . S
H2128 C2134 0.930 . S
H2129 C2137 0.930 . S
H2130 C2138 0.930 . S
H2131 C2139 0.930 . S
H2132 C2142 0.930 . S
H2133 C2143 0.930 . S
C2134 H2128 0.930 . S
C2134 C2135 1.355 . S
C2134 C2136 1.415 . S
C2135 C2134 1.355 . S
C2135 C2137 1.419 . S
C2136 C2134 1.415 . S
C2136 C2141 1.425 . S
C2136 C2143 1.409 . S
C2137 H2129 0.930 . S
C2137 C2135 1.419 . S
C2137 C2138 1.362 . S
C2138 H2130 0.930 . S
C2138 C2137 1.362 . S
C2138 C2141 1.409 . S
C2139 H2131 0.930 . S
C2139 C2140 1.355 . S
C2139 C2141 1.415 . S
C2140 C2139 1.355 . S
C2140 C2142 1.419 . S
C2141 C2136 1.425 . S
C2141 C2138 1.409 . S
C2141 C2139 1.415 . S
C2142 H2132 0.930 . S
C2142 C2140 1.419 . S
C2142 C2143 1.362 . S
C2143 H2133 0.930 . S
C2143 C2136 1.409 . S
C2143 C2142 1.362 . S
H2144 C2150 0.930 . S
H2145 C2153 0.930 . S
H2146 C2154 0.930 . S
H2147 C2155 0.930 . S
H2148 C2158 0.930 . S
H2149 C2159 0.930 . S
C2150 H2144 0.930 . S
C2150 C2151 1.355 . S
C2150 C2152 1.415 . S
C2151 C2150 1.355 . S
C2151 C2153 1.419 . S
C2152 C2150 1.415 . S
C2152 C2157 1.425 . S
C2152 C2159 1.409 . S
C2153 H2145 0.930 . S
C2153 C2151 1.419 . S
C2153 C2154 1.362 . S
C2154 H2146 0.930 . S
C2154 C2153 1.362 . S
C2154 C2157 1.409 . S
C2155 H2147 0.930 . S
C2155 C2156 1.355 . S
C2155 C2157 1.415 . S
C2156 C2155 1.355 . S
C2156 C2158 1.419 . S
C2157 C2152 1.425 . S
C2157 C2154 1.409 . S
C2157 C2155 1.415 . S
C2158 H2148 0.930 . S
C2158 C2156 1.419 . S
C2158 C2159 1.362 . S
C2159 H2149 0.930 . S
C2159 C2152 1.409 . S
C2159 C2158 1.362 . S
H2160 C2166 0.930 . S
H2161 C2169 0.930 . S
H2162 C2170 0.930 . S
H2163 C2171 0.930 . S
H2164 C2174 0.930 . S
H2165 C2175 0.930 . S
C2166 H2160 0.930 . S
C2166 C2167 1.355 . S
C2166 C2168 1.415 . S
C2167 C2166 1.355 . S
C2167 C2169 1.419 . S
C2168 C2166 1.415 . S
C2168 C2173 1.425 . S
C2168 C2175 1.409 . S
C2169 H2161 0.930 . S
C2169 C2167 1.419 . S
C2169 C2170 1.362 . S
C2170 H2162 0.930 . S
C2170 C2169 1.362 . S
C2170 C2173 1.409 . S
C2171 H2163 0.930 . S
C2171 C2172 1.355 . S
C2171 C2173 1.415 . S
C2172 C2171 1.355 . S
C2172 C2174 1.419 . S
C2173 C2168 1.425 . S
C2173 C2170 1.409 . S
C2173 C2171 1.415 . S
C2174 H2164 0.930 . S
C2174 C2172 1.419 . S
C2174 C2175 1.362 . S
C2175 H2165 0.930 . S
C2175 C2168 1.409 . S
C2175 C2174 1.362 . S
H2176 C2182 0.930 . S
H2177 C2185 0.930 . S
H2178 C2186 0.930 . S
H2179 C2187 0.930 . S
H2180 C2190 0.930 . S
H2181 C2191 0.930 . S
C2182 H2176 0.930 . S
C2182 C2183 1.355 . S
C2182 C2184 1.415 . S
C2183 C2182 1.355 . S
C2183 C2185 1.419 . S
C2184 C2182 1.415 . S
C2184 C2189 1.425 . S
C2184 C2191 1.409 . S
C2185 H2177 0.930 . S
C2185 C2183 1.419 . S
C2185 C2186 1.362 . S
C2186 H2178 0.930 . S
C2186 C2185 1.362 . S
C2186 C2189 1.409 . S
C2187 H2179 0.930 . S
C2187 C2188 1.355 . S
C2187 C2189 1.415 . S
C2188 C2187 1.355 . S
C2188 C2190 1.419 . S
C2189 C2184 1.425 . S
C2189 C2186 1.409 . S
C2189 C2187 1.415 . S
C2190 H2180 0.930 . S
C2190 C2188 1.419 . S
C2190 C2191 1.362 . S
C2191 H2181 0.930 . S
C2191 C2184 1.409 . S
C2191 C2190 1.362 . S
H2192 C2198 0.930 . S
H2193 C2201 0.930 . S
H2194 C2202 0.930 . S
H2195 C2203 0.930 . S
H2196 C2206 0.930 . S
H2197 C2207 0.930 . S
C2198 H2192 0.930 . S
C2198 C2199 1.355 . S
C2198 C2200 1.415 . S
C2199 C2198 1.355 . S
C2199 C2201 1.419 . S
C2200 C2198 1.415 . S
C2200 C2205 1.425 . S
C2200 C2207 1.409 . S
C2201 H2193 0.930 . S
C2201 C2199 1.419 . S
C2201 C2202 1.362 . S
C2202 H2194 0.930 . S
C2202 C2201 1.362 . S
C2202 C2205 1.409 . S
C2203 H2195 0.930 . S
C2203 C2204 1.355 . S
C2203 C2205 1.415 . S
C2204 C2203 1.355 . S
C2204 C2206 1.419 . S
C2205 C2200 1.425 . S
C2205 C2202 1.409 . S
C2205 C2203 1.415 . S
C2206 H2196 0.930 . S
C2206 C2204 1.419 . S
C2206 C2207 1.362 . S
C2207 H2197 0.930 . S
C2207 C2200 1.409 . S
C2207 C2206 1.362 . S
H2208 C2214 0.930 . S
H2209 C2217 0.930 . S
H2210 C2218 0.930 . S
H2211 C2219 0.930 . S
H2212 C2222 0.930 . S
H2213 C2223 0.930 . S
C2214 H2208 0.930 . S
C2214 C2215 1.355 . S
C2214 C2216 1.415 . S
C2215 C2214 1.355 . S
C2215 C2217 1.419 . S
C2216 C2214 1.415 . S
C2216 C2221 1.425 . S
C2216 C2223 1.409 . S
C2217 H2209 0.930 . S
C2217 C2215 1.419 . S
C2217 C2218 1.362 . S
C2218 H2210 0.930 . S
C2218 C2217 1.362 . S
C2218 C2221 1.409 . S
C2219 H2211 0.930 . S
C2219 C2220 1.355 . S
C2219 C2221 1.415 . S
C2220 C2219 1.355 . S
C2220 C2222 1.419 . S
C2221 C2216 1.425 . S
C2221 C2218 1.409 . S
C2221 C2219 1.415 . S
C2222 H2212 0.930 . S
C2222 C2220 1.419 . S
C2222 C2223 1.362 . S
C2223 H2213 0.930 . S
C2223 C2216 1.409 . S
C2223 C2222 1.362 . S
H2224 C2230 0.930 . S
H2225 C2233 0.930 . S
H2226 C2234 0.930 . S
H2227 C2235 0.930 . S
H2228 C2238 0.930 . S
H2229 C2239 0.930 . S
C2230 H2224 0.930 . S
C2230 C2231 1.355 . S
C2230 C2232 1.415 . S
C2231 C2230 1.355 . S
C2231 C2233 1.419 . S
C2232 C2230 1.415 . S
C2232 C2237 1.425 . S
C2232 C2239 1.409 . S
C2233 H2225 0.930 . S
C2233 C2231 1.419 . S
C2233 C2234 1.362 . S
C2234 H2226 0.930 . S
C2234 C2233 1.362 . S
C2234 C2237 1.409 . S
C2235 H2227 0.930 . S
C2235 C2236 1.355 . S
C2235 C2237 1.415 . S
C2236 C2235 1.355 . S
C2236 C2238 1.419 . S
C2237 C2232 1.425 . S
C2237 C2234 1.409 . S
C2237 C2235 1.415 . S
C2238 H2228 0.930 . S
C2238 C2236 1.419 . S
C2238 C2239 1.362 . S
C2239 H2229 0.930 . S
C2239 C2232 1.409 . S
C2239 C2238 1.362 . S
H2240 C2246 0.930 . S
H2241 C2249 0.930 . S
H2242 C2250 0.930 . S
H2243 C2251 0.930 . S
H2244 C2254 0.930 . S
H2245 C2255 0.930 . S
C2246 H2240 0.930 . S
C2246 C2247 1.355 . S
C2246 C2248 1.415 . S
C2247 C2246 1.355 . S
C2247 C2249 1.419 . S
C2248 C2246 1.415 . S
C2248 C2253 1.425 . S
C2248 C2255 1.409 . S
C2249 H2241 0.930 . S
C2249 C2247 1.419 . S
C2249 C2250 1.362 . S
C2250 H2242 0.930 . S
C2250 C2249 1.362 . S
C2250 C2253 1.409 . S
C2251 H2243 0.930 . S
C2251 C2252 1.355 . S
C2251 C2253 1.415 . S
C2252 C2251 1.355 . S
C2252 C2254 1.419 . S
C2253 C2248 1.425 . S
C2253 C2250 1.409 . S
C2253 C2251 1.415 . S
C2254 H2244 0.930 . S
C2254 C2252 1.419 . S
C2254 C2255 1.362 . S
C2255 H2245 0.930 . S
C2255 C2248 1.409 . S
C2255 C2254 1.362 . S
H2256 C2262 0.930 . S
H2257 C2265 0.930 . S
H2258 C2266 0.930 . S
H2259 C2267 0.930 . S
H2260 C2270 0.930 . S
H2261 C2271 0.930 . S
C2262 H2256 0.930 . S
C2262 C2263 1.355 . S
C2262 C2264 1.415 . S
C2263 C2262 1.355 . S
C2263 C2265 1.419 . S
C2264 C2262 1.415 . S
C2264 C2269 1.425 . S
C2264 C2271 1.409 . S
C2265 H2257 0.930 . S
C2265 C2263 1.419 . S
C2265 C2266 1.362 . S
C2266 H2258 0.930 . S
C2266 C2265 1.362 . S
C2266 C2269 1.409 . S
C2267 H2259 0.930 . S
C2267 C2268 1.355 . S
C2267 C2269 1.415 . S
C2268 C2267 1.355 . S
C2268 C2270 1.419 . S
C2269 C2264 1.425 . S
C2269 C2266 1.409 . S
C2269 C2267 1.415 . S
C2270 H2260 0.930 . S
C2270 C2268 1.419 . S
C2270 C2271 1.362 . S
C2271 H2261 0.930 . S
C2271 C2264 1.409 . S
C2271 C2270 1.362 . S
H2272 C2278 0.930 . S
H2273 C2281 0.930 . S
H2274 C2282 0.930 . S
H2275 C2283 0.930 . S
H2276 C2286 0.930 . S
H2277 C2287 0.930 . S
C2278 H2272 0.930 . S
C2278 C2279 1.355 . S
C2278 C2280 1.415 . S
C2279 C2278 1.355 . S
C2279 C2281 1.419 . S
C2280 C2278 1.415 . S
C2280 C2285 1.425 . S
C2280 C2287 1.409 . S
C2281 H2273 0.930 . S
C2281 C2279 1.419 . S
C2281 C2282 1.362 . S
C2282 H2274 0.930 . S
C2282 C2281 1.362 . S
C2282 C2285 1.409 . S
C2283 H2275 0.930 . S
C2283 C2284 1.355 . S
C2283 C2285 1.415 . S
C2284 C2283 1.355 . S
C2284 C2286 1.419 . S
C2285 C2280 1.425 . S
C2285 C2282 1.409 . S
C2285 C2283 1.415 . S
C2286 H2276 0.930 . S
C2286 C2284 1.419 . S
C2286 C2287 1.362 . S
C2287 H2277 0.930 . S
C2287 C2280 1.409 . S
C2287 C2286 1.362 . S
H2288 C2294 0.930 . S
H2289 C2297 0.930 . S
H2290 C2298 0.930 . S
H2291 C2299 0.930 . S
H2292 C2302 0.930 . S
H2293 C2303 0.930 . S
C2294 H2288 0.930 . S
C2294 C2295 1.355 . S
C2294 C2296 1.415 . S
C2295 C2294 1.355 . S
C2295 C2297 1.419 . S
C2296 C2294 1.415 . S
C2296 C2301 1.425 . S
C2296 C2303 1.409 . S
C2297 H2289 0.930 . S
C2297 C2295 1.419 . S
C2297 C2298 1.362 . S
C2298 H2290 0.930 . S
C2298 C2297 1.362 . S
C2298 C2301 1.409 . S
C2299 H2291 0.930 . S
C2299 C2300 1.355 . S
C2299 C2301 1.415 . S
C2300 C2299 1.355 . S
C2300 C2302 1.419 . S
C2301 C2296 1.425 . S
C2301 C2298 1.409 . S
C2301 C2299 1.415 . S
C2302 H2292 0.930 . S
C2302 C2300 1.419 . S
C2302 C2303 1.362 . S
C2303 H2293 0.930 . S
C2303 C2296 1.409 . S
C2303 C2302 1.362 . S
H2304 C2310 0.930 . S
H2305 C2313 0.930 . S
H2306 C2314 0.930 . S
H2307 C2315 0.930 . S
H2308 C2318 0.930 . S
H2309 C2319 0.930 . S
C2310 H2304 0.930 . S
C2310 C2311 1.355 . S
C2310 C2312 1.415 . S
C2311 C2310 1.355 . S
C2311 C2313 1.419 . S
C2312 C2310 1.415 . S
C2312 C2317 1.425 . S
C2312 C2319 1.409 . S
C2313 H2305 0.930 . S
C2313 C2311 1.419 . S
C2313 C2314 1.362 . S
C2314 H2306 0.930 . S
C2314 C2313 1.362 . S
C2314 C2317 1.409 . S
C2315 H2307 0.930 . S
C2315 C2316 1.355 . S
C2315 C2317 1.415 . S
C2316 C2315 1.355 . S
C2316 C2318 1.419 . S
C2317 C2312 1.425 . S
C2317 C2314 1.409 . S
C2317 C2315 1.415 . S
C2318 H2308 0.930 . S
C2318 C2316 1.419 . S
C2318 C2319 1.362 . S
C2319 H2309 0.930 . S
C2319 C2312 1.409 . S
C2319 C2318 1.362 . S
H2320 C2326 0.930 . S
H2321 C2329 0.930 . S
H2322 C2330 0.930 . S
H2323 C2331 0.930 . S
H2324 C2334 0.930 . S
H2325 C2335 0.930 . S
C2326 H2320 0.930 . S
C2326 C2327 1.355 . S
C2326 C2328 1.415 . S
C2327 C2326 1.355 . S
C2327 C2329 1.419 . S
C2328 C2326 1.415 . S
C2328 C2333 1.425 . S
C2328 C2335 1.409 . S
C2329 H2321 0.930 . S
C2329 C2327 1.419 . S
C2329 C2330 1.362 . S
C2330 H2322 0.930 . S
C2330 C2329 1.362 . S
C2330 C2333 1.409 . S
C2331 H2323 0.930 . S
C2331 C2332 1.355 . S
C2331 C2333 1.415 . S
C2332 C2331 1.355 . S
C2332 C2334 1.419 . S
C2333 C2328 1.425 . S
C2333 C2330 1.409 . S
C2333 C2331 1.415 . S
C2334 H2324 0.930 . S
C2334 C2332 1.419 . S
C2334 C2335 1.362 . S
C2335 H2325 0.930 . S
C2335 C2328 1.409 . S
C2335 C2334 1.362 . S
H2336 C2342 0.930 . S
H2337 C2345 0.930 . S
H2338 C2346 0.930 . S
H2339 C2347 0.930 . S
H2340 C2350 0.930 . S
H2341 C2351 0.930 . S
C2342 H2336 0.930 . S
C2342 C2343 1.355 . S
C2342 C2344 1.415 . S
C2343 C2342 1.355 . S
C2343 C2345 1.419 . S
C2344 C2342 1.415 . S
C2344 C2349 1.425 . S
C2344 C2351 1.409 . S
C2345 H2337 0.930 . S
C2345 C2343 1.419 . S
C2345 C2346 1.362 . S
C2346 H2338 0.930 . S
C2346 C2345 1.362 . S
C2346 C2349 1.409 . S
C2347 H2339 0.930 . S
C2347 C2348 1.355 . S
C2347 C2349 1.415 . S
C2348 C2347 1.355 . S
C2348 C2350 1.419 . S
C2349 C2344 1.425 . S
C2349 C2346 1.409 . S
C2349 C2347 1.415 . S
C2350 H2340 0.930 . S
C2350 C2348 1.419 . S
C2350 C2351 1.362 . S
C2351 H2341 0.930 . S
C2351 C2344 1.409 . S
C2351 C2350 1.362 . S
H2352 C2358 0.930 . S
H2353 C2361 0.930 . S
H2354 C2362 0.930 . S
H2355 C2363 0.930 . S
H2356 C2366 0.930 . S
H2357 C2367 0.930 . S
C2358 H2352 0.930 . S
C2358 C2359 1.355 . S
C2358 C2360 1.415 . S
C2359 C2358 1.355 . S
C2359 C2361 1.419 . S
C2360 C2358 1.415 . S
C2360 C2365 1.425 . S
C2360 C2367 1.409 . S
C2361 H2353 0.930 . S
C2361 C2359 1.419 . S
C2361 C2362 1.362 . S
C2362 H2354 0.930 . S
C2362 C2361 1.362 . S
C2362 C2365 1.409 . S
C2363 H2355 0.930 . S
C2363 C2364 1.355 . S
C2363 C2365 1.415 . S
C2364 C2363 1.355 . S
C2364 C2366 1.419 . S
C2365 C2360 1.425 . S
C2365 C2362 1.409 . S
C2365 C2363 1.415 . S
C2366 H2356 0.930 . S
C2366 C2364 1.419 . S
C2366 C2367 1.362 . S
C2367 H2357 0.930 . S
C2367 C2360 1.409 . S
C2367 C2366 1.362 . S
H2368 C2374 0.930 . S
H2369 C2377 0.930 . S
H2370 C2378 0.930 . S
H2371 C2379 0.930 . S
H2372 C2382 0.930 . S
H2373 C2383 0.930 . S
C2374 H2368 0.930 . S
C2374 C2375 1.355 . S
C2374 C2376 1.415 . S
C2375 C2374 1.355 . S
C2375 C2377 1.419 . S
C2376 C2374 1.415 . S
C2376 C2381 1.425 . S
C2376 C2383 1.409 . S
C2377 H2369 0.930 . S
C2377 C2375 1.419 . S
C2377 C2378 1.362 . S
C2378 H2370 0.930 . S
C2378 C2377 1.362 . S
C2378 C2381 1.409 . S
C2379 H2371 0.930 . S
C2379 C2380 1.355 . S
C2379 C2381 1.415 . S
C2380 C2379 1.355 . S
C2380 C2382 1.419 . S
C2381 C2376 1.425 . S
C2381 C2378 1.409 . S
C2381 C2379 1.415 . S
C2382 H2372 0.930 . S
C2382 C2380 1.419 . S
C2382 C2383 1.362 . S
C2383 H2373 0.930 . S
C2383 C2376 1.409 . S
C2383 C2382 1.362 . S
H2384 C2390 0.930 . S
H2385 C2393 0.930 . S
H2386 C2394 0.930 . S
H2387 C2395 0.930 . S
H2388 C2398 0.930 . S
H2389 C2399 0.930 . S
C2390 H2384 0.930 . S
C2390 C2391 1.355 . S
C2390 C2392 1.415 . S
C2391 C2390 1.355 . S
C2391 C2393 1.419 . S
C2392 C2390 1.415 . S
C2392 C2397 1.425 . S
C2392 C2399 1.409 . S
C2393 H2385 0.930 . S
C2393 C2391 1.419 . S
C2393 C2394 1.362 . S
C2394 H2386 0.930 . S
C2394 C2393 1.362 . S
C2394 C2397 1.409 . S
C2395 H2387 0.930 . S
C2395 C2396 1.355 . S
C2395 C2397 1.415 . S
C2396 C2395 1.355 . S
C2396 C2398 1.419 . S
C2397 C2392 1.425 . S
C2397 C2394 1.409 . S
C2397 C2395 1.415 . S
C2398 H2388 0.930 . S
C2398 C2396 1.419 . S
C2398 C2399 1.362 . S
C2399 H2389 0.930 . S
C2399 C2392 1.409 . S
C2399 C2398 1.362 . S
H2400 C2406 0.930 . S
H2401 C2409 0.930 . S
H2402 C2410 0.930 . S
H2403 C2411 0.930 . S
H2404 C2414 0.930 . S
H2405 C2415 0.930 . S
C2406 H2400 0.930 . S
C2406 C2407 1.355 . S
C2406 C2408 1.415 . S
C2407 C2406 1.355 . S
C2407 C2409 1.419 . S
C2408 C2406 1.415 . S
C2408 C2413 1.425 . S
C2408 C2415 1.409 . S
C2409 H2401 0.930 . S
C2409 C2407 1.419 . S
C2409 C2410 1.362 . S
C2410 H2402 0.930 . S
C2410 C2409 1.362 . S
C2410 C2413 1.409 . S
C2411 H2403 0.930 . S
C2411 C2412 1.355 . S
C2411 C2413 1.415 . S
C2412 C2411 1.355 . S
C2412 C2414 1.419 . S
C2413 C2408 1.425 . S
C2413 C2410 1.409 . S
C2413 C2411 1.415 . S
C2414 H2404 0.930 . S
C2414 C2412 1.419 . S
C2414 C2415 1.362 . S
C2415 H2405 0.930 . S
C2415 C2408 1.409 . S
C2415 C2414 1.362 . S
H2416 C2422 0.930 . S
H2417 C2425 0.930 . S
H2418 C2426 0.930 . S
H2419 C2427 0.930 . S
H2420 C2430 0.930 . S
H2421 C2431 0.930 . S
C2422 H2416 0.930 . S
C2422 C2423 1.355 . S
C2422 C2424 1.415 . S
C2423 C2422 1.355 . S
C2423 C2425 1.419 . S
C2424 C2422 1.415 . S
C2424 C2429 1.425 . S
C2424 C2431 1.409 . S
C2425 H2417 0.930 . S
C2425 C2423 1.419 . S
C2425 C2426 1.362 . S
C2426 H2418 0.930 . S
C2426 C2425 1.362 . S
C2426 C2429 1.409 . S
C2427 H2419 0.930 . S
C2427 C2428 1.355 . S
C2427 C2429 1.415 . S
C2428 C2427 1.355 . S
C2428 C2430 1.419 . S
C2429 C2424 1.425 . S
C2429 C2426 1.409 . S
C2429 C2427 1.415 . S
C2430 H2420 0.930 . S
C2430 C2428 1.419 . S
C2430 C2431 1.362 . S
C2431 H2421 0.930 . S
C2431 C2424 1.409 . S
C2431 C2430 1.362 . S
H2432 C2438 0.930 . S
H2433 C2441 0.930 . S
H2434 C2442 0.930 . S
H2435 C2443 0.930 . S
H2436 C2446 0.930 . S
H2437 C2447 0.930 . S
C2438 H2432 0.930 . S
C2438 C2439 1.355 . S
C2438 C2440 1.415 . S
C2439 C2438 1.355 . S
C2439 C2441 1.419 . S
C2440 C2438 1.415 . S
C2440 C2445 1.425 . S
C2440 C2447 1.409 . S
C2441 H2433 0.930 . S
C2441 C2439 1.419 . S
C2441 C2442 1.362 . S
C2442 H2434 0.930 . S
C2442 C2441 1.362 . S
C2442 C2445 1.409 . S
C2443 H2435 0.930 . S
C2443 C2444 1.355 . S
C2443 C2445 1.415 . S
C2444 C2443 1.355 . S
C2444 C2446 1.419 . S
C2445 C2440 1.425 . S
C2445 C2442 1.409 . S
C2445 C2443 1.415 . S
C2446 H2436 0.930 . S
C2446 C2444 1.419 . S
C2446 C2447 1.362 . S
C2447 H2437 0.930 . S
C2447 C2440 1.409 . S
C2447 C2446 1.362 . S
H2448 C2454 0.930 . S
H2449 C2457 0.930 . S
H2450 C2458 0.930 . S
H2451 C2459 0.930 . S
H2452 C2462 0.930 . S
H2453 C2463 0.930 . S
C2454 H2448 0.930 . S
C2454 C2455 1.355 . S
C2454 C2456 1.415 . S
C2455 C2454 1.355 . S
C2455 C2457 1.419 . S
C2456 C2454 1.415 . S
C2456 C2461 1.425 . S
C2456 C2463 1.409 . S
C2457 H2449 0.930 . S
C2457 C2455 1.419 . S
C2457 C2458 1.362 . S
C2458 H2450 0.930 . S
C2458 C2457 1.362 . S
C2458 C2461 1.409 . S
C2459 H2451 0.930 . S
C2459 C2460 1.355 . S
C2459 C2461 1.415 . S
C2460 C2459 1.355 . S
C2460 C2462 1.419 . S
C2461 C2456 1.425 . S
C2461 C2458 1.409 . S
C2461 C2459 1.415 . S
C2462 H2452 0.930 . S
C2462 C2460 1.419 . S
C2462 C2463 1.362 . S
C2463 H2453 0.930 . S
C2463 C2456 1.409 . S
C2463 C2462 1.362 . S
H2464 C2470 0.930 . S
H2465 C2473 0.930 . S
H2466 C2474 0.930 . S
H2467 C2475 0.930 . S
H2468 C2478 0.930 . S
H2469 C2479 0.930 . S
C2470 H2464 0.930 . S
C2470 C2471 1.355 . S
C2470 C2472 1.415 . S
C2471 C2470 1.355 . S
C2471 C2473 1.419 . S
C2472 C2470 1.415 . S
C2472 C2477 1.425 . S
C2472 C2479 1.409 . S
C2473 H2465 0.930 . S
C2473 C2471 1.419 . S
C2473 C2474 1.362 . S
C2474 H2466 0.930 . S
C2474 C2473 1.362 . S
C2474 C2477 1.409 . S
C2475 H2467 0.930 . S
C2475 C2476 1.355 . S
C2475 C2477 1.415 . S
C2476 C2475 1.355 . S
C2476 C2478 1.419 . S
C2477 C2472 1.425 . S
C2477 C2474 1.409 . S
C2477 C2475 1.415 . S
C2478 H2468 0.930 . S
C2478 C2476 1.419 . S
C2478 C2479 1.362 . S
C2479 H2469 0.930 . S
C2479 C2472 1.409 . S
C2479 C2478 1.362 . S
H2480 C2486 0.930 . S
H2481 C2489 0.930 . S
H2482 C2490 0.930 . S
H2483 C2491 0.930 . S
H2484 C2494 0.930 . S
H2485 C2495 0.930 . S
C2486 H2480 0.930 . S
C2486 C2487 1.355 . S
C2486 C2488 1.415 . S
C2487 C2486 1.355 . S
C2487 C2489 1.419 . S
C2488 C2486 1.415 . S
C2488 C2493 1.425 . S
C2488 C2495 1.409 . S
C2489 H2481 0.930 . S
C2489 C2487 1.419 . S
C2489 C2490 1.362 . S
C2490 H2482 0.930 . S
C2490 C2489 1.362 . S
C2490 C2493 1.409 . S
C2491 H2483 0.930 . S
C2491 C2492 1.355 . S
C2491 C2493 1.415 . S
C2492 C2491 1.355 . S
C2492 C2494 1.419 . S
C2493 C2488 1.425 . S
C2493 C2490 1.409 . S
C2493 C2491 1.415 . S
C2494 H2484 0.930 . S
C2494 C2492 1.419 . S
C2494 C2495 1.362 . S
C2495 H2485 0.930 . S
C2495 C2488 1.409 . S
C2495 C2494 1.362 . S
H2496 C2502 0.930 1_554 S
H2497 C2505 0.930 . S
H2498 C2506 0.930 . S
H2499 C2507 0.930 1_556 S
H2500 C2510 0.930 . S
H2501 C2511 0.930 . S
C2502 H2496 0.930 1_556 S
C2502 C2503 1.355 . S
C2502 C2504 1.415 1_556 S
C2503 C2502 1.355 . S
C2503 C2505 1.419 . S
C2504 C2502 1.415 1_554 S
C2504 C2509 1.425 1_564 S
C2504 C2511 1.409 . S
C2505 H2497 0.930 . S
C2505 C2503 1.419 . S
C2505 C2506 1.362 1_565 S
C2506 H2498 0.930 . S
C2506 C2505 1.362 1_545 S
C2506 C2509 1.409 . S
C2507 H2499 0.930 1_554 S
C2507 C2508 1.355 . S
C2507 C2509 1.415 1_554 S
C2508 C2507 1.355 . S
C2508 C2510 1.419 . S
C2509 C2504 1.425 1_546 S
C2509 C2506 1.409 . S
C2509 C2507 1.415 1_556 S
C2510 H2500 0.930 . S
C2510 C2508 1.419 . S
C2510 C2511 1.362 1_545 S
C2511 H2501 0.930 . S
C2511 C2504 1.409 . S
C2511 C2510 1.362 1_565 S
H2512 C2518 0.930 . S
H2513 C2521 0.930 . S
H2514 C2522 0.930 . S
H2515 C2523 0.930 . S
H2516 C2526 0.930 . S
H2517 C2527 0.930 . S
C2518 H2512 0.930 . S
C2518 C2519 1.355 . S
C2518 C2520 1.415 . S
C2519 C2518 1.355 . S
C2519 C2521 1.419 . S
C2520 C2518 1.415 . S
C2520 C2525 1.425 . S
C2520 C2527 1.409 . S
C2521 H2513 0.930 . S
C2521 C2519 1.419 . S
C2521 C2522 1.362 . S
C2522 H2514 0.930 . S
C2522 C2521 1.362 . S
C2522 C2525 1.409 . S
C2523 H2515 0.930 . S
C2523 C2524 1.355 . S
C2523 C2525 1.415 . S
C2524 C2523 1.355 . S
C2524 C2526 1.419 . S
C2525 C2520 1.425 . S
C2525 C2522 1.409 . S
C2525 C2523 1.415 . S
C2526 H2516 0.930 . S
C2526 C2524 1.419 . S
C2526 C2527 1.362 . S
C2527 H2517 0.930 . S
C2527 C2520 1.409 . S
C2527 C2526 1.362 . S
H2528 C2534 0.930 1_554 S
H2529 C2537 0.930 . S
H2530 C2538 0.930 . S
H2531 C2539 0.930 1_556 S
H2532 C2542 0.930 . S
H2533 C2543 0.930 . S
C2534 H2528 0.930 1_556 S
C2534 C2535 1.355 . S
C2534 C2536 1.415 1_556 S
C2535 C2534 1.355 . S
C2535 C2537 1.419 . S
C2536 C2534 1.415 1_554 S
C2536 C2541 1.425 1_454 S
C2536 C2543 1.409 . S
C2537 H2529 0.930 . S
C2537 C2535 1.419 . S
C2537 C2538 1.362 1_455 S
C2538 H2530 0.930 . S
C2538 C2537 1.362 1_655 S
C2538 C2541 1.409 . S
C2539 H2531 0.930 1_554 S
C2539 C2540 1.355 . S
C2539 C2541 1.415 1_554 S
C2540 C2539 1.355 . S
C2540 C2542 1.419 . S
C2541 C2536 1.425 1_656 S
C2541 C2538 1.409 . S
C2541 C2539 1.415 1_556 S
C2542 H2532 0.930 . S
C2542 C2540 1.419 . S
C2542 C2543 1.362 1_655 S
C2543 H2533 0.930 . S
C2543 C2536 1.409 . S
C2543 C2542 1.362 1_455 S
H2544 C2550 0.930 . S
H2545 C2553 0.930 . S
H2546 C2554 0.930 1_565 S
H2547 C2555 0.930 . S
H2548 C2558 0.930 . S
H2549 C2559 0.930 1_545 S
C2550 H2544 0.930 . S
C2550 C2551 1.355 . S
C2550 C2552 1.415 . S
C2551 C2550 1.355 . S
C2551 C2553 1.419 . S
C2552 C2550 1.415 . S
C2552 C2557 1.425 1_545 S
C2552 C2559 1.409 1_545 S
C2553 H2545 0.930 . S
C2553 C2551 1.419 . S
C2553 C2554 1.362 . S
C2554 H2546 0.930 1_545 S
C2554 C2553 1.362 . S
C2554 C2557 1.409 1_545 S
C2555 H2547 0.930 . S
C2555 C2556 1.355 . S
C2555 C2557 1.415 . S
C2556 C2555 1.355 . S
C2556 C2558 1.419 . S
C2557 C2552 1.425 1_565 S
C2557 C2554 1.409 1_565 S
C2557 C2555 1.415 . S
C2558 H2548 0.930 . S
C2558 C2556 1.419 . S
C2558 C2559 1.362 . S
C2559 H2549 0.930 1_565 S
C2559 C2552 1.409 1_565 S
C2559 C2558 1.362 . S
H2560 C2566 0.930 1_556 S
H2561 C2569 0.930 . S
H2562 C2570 0.930 . S
H2563 C2571 0.930 1_554 S
H2564 C2574 0.930 . S
H2565 C2575 0.930 . S
C2566 H2560 0.930 1_554 S
C2566 C2567 1.355 . S
C2566 C2568 1.415 1_554 S
C2567 C2566 1.355 . S
C2567 C2569 1.419 . S
C2568 C2566 1.415 1_556 S
C2568 C2573 1.425 1_556 S
C2568 C2575 1.409 . S
C2569 H2561 0.930 . S
C2569 C2567 1.419 . S
C2569 C2570 1.362 . S
C2570 H2562 0.930 . S
C2570 C2569 1.362 . S
C2570 C2573 1.409 . S
C2571 H2563 0.930 1_556 S
C2571 C2572 1.355 . S
C2571 C2573 1.415 1_556 S
C2572 C2571 1.355 . S
C2572 C2574 1.419 . S
C2573 C2568 1.425 1_554 S
C2573 C2570 1.409 . S
C2573 C2571 1.415 1_554 S
C2574 H2564 0.930 . S
C2574 C2572 1.419 . S
C2574 C2575 1.362 . S
C2575 H2565 0.930 . S
C2575 C2568 1.409 . S
C2575 C2574 1.362 . S
H2576 C2582 0.930 . S
H2577 C2585 0.930 . S
H2578 C2586 0.930 . S
H2579 C2587 0.930 . S
H2580 C2590 0.930 . S
H2581 C2591 0.930 . S
C2582 H2576 0.930 . S
C2582 C2583 1.355 . S
C2582 C2584 1.415 . S
C2583 C2582 1.355 . S
C2583 C2585 1.419 . S
C2584 C2582 1.415 . S
C2584 C2589 1.425 1_455 S
C2584 C2591 1.409 1_455 S
C2585 H2577 0.930 . S
C2585 C2583 1.419 . S
C2585 C2586 1.362 . S
C2586 H2578 0.930 . S
C2586 C2585 1.362 . S
C2586 C2589 1.409 1_455 S
C2587 H2579 0.930 . S
C2587 C2588 1.355 . S
C2587 C2589 1.415 . S
C2588 C2587 1.355 . S
C2588 C2590 1.419 . S
C2589 C2584 1.425 1_655 S
C2589 C2586 1.409 1_655 S
C2589 C2587 1.415 . S
C2590 H2580 0.930 . S
C2590 C2588 1.419 . S
C2590 C2591 1.362 . S
C2591 H2581 0.930 . S
C2591 C2584 1.409 1_655 S
C2591 C2590 1.362 . S
H2592 C2598 0.930 . S
H2593 C2601 0.930 . S
H2594 C2602 0.930 . S
H2595 C2603 0.930 . S
H2596 C2606 0.930 . S
H2597 C2607 0.930 . S
C2598 H2592 0.930 . S
C2598 C2599 1.355 . S
C2598 C2600 1.412 1_565 S
C2599 C2598 1.355 . S
C2599 C2601 1.419 . S
C2600 C2598 1.412 1_545 S
C2600 C2605 1.423 1_546 S
C2600 C2607 1.414 . S
C2601 H2593 0.930 . S
C2601 C2599 1.419 . S
C2601 C2602 1.362 1_556 S
C2602 H2594 0.930 . S
C2602 C2601 1.362 1_554 S
C2602 C2605 1.412 . S
C2603 H2595 0.930 . S
C2603 C2604 1.355 . S
C2603 C2605 1.413 1_545 S
C2604 C2603 1.355 . S
C2604 C2606 1.419 . S
C2605 C2600 1.423 1_564 S
C2605 C2602 1.412 . S
C2605 C2603 1.413 1_565 S
C2606 H2596 0.930 . S
C2606 C2604 1.419 . S
C2606 C2607 1.362 1_554 S
C2607 H2597 0.930 . S
C2607 C2600 1.414 . S
C2607 C2606 1.362 1_556 S
H2608 C2614 0.930 . S
H2609 C2617 0.930 . S
H2610 C2618 0.930 . S
H2611 C2619 0.930 . S
H2612 C2622 0.930 . S
H2613 C2623 0.930 . S
C2614 H2608 0.930 . S
C2614 C2615 1.355 . S
C2614 C2616 1.415 . S
C2615 C2614 1.355 . S
C2615 C2617 1.419 . S
C2616 C2614 1.415 . S
C2616 C2621 1.425 . S
C2616 C2623 1.409 . S
C2617 H2609 0.930 . S
C2617 C2615 1.419 . S
C2617 C2618 1.362 . S
C2618 H2610 0.930 . S
C2618 C2617 1.362 . S
C2618 C2621 1.409 . S
C2619 H2611 0.930 . S
C2619 C2620 1.355 . S
C2619 C2621 1.415 . S
C2620 C2619 1.355 . S
C2620 C2622 1.419 . S
C2621 C2616 1.425 . S
C2621 C2618 1.409 . S
C2621 C2619 1.415 . S
C2622 H2612 0.930 . S
C2622 C2620 1.419 . S
C2622 C2623 1.362 . S
C2623 H2613 0.930 . S
C2623 C2616 1.409 . S
C2623 C2622 1.362 . S
H2624 C2630 0.930 . S
H2625 C2633 0.924 1_556 S
H2626 C2634 0.930 . S
H2627 C2635 0.930 . S
H2628 C2638 0.925 1_554 S
H2629 C2639 0.930 . S
C2630 H2624 0.930 . S
C2630 C2631 1.355 . S
C2630 C2632 1.372 1_655 S
C2631 C2630 1.355 . S
C2631 C2633 1.445 . S
C2632 C2630 1.372 1_455 S
C2632 C2637 1.382 1_454 S
C2632 C2639 1.476 . S
C2633 H2625 0.924 1_554 S
C2633 C2631 1.445 . S
C2633 C2634 1.343 1_554 S
C2634 H2626 0.930 . S
C2634 C2633 1.343 1_556 S
C2634 C2637 1.474 . S
C2635 H2627 0.930 . S
C2635 C2636 1.355 . S
C2635 C2637 1.373 1_455 S
C2636 C2635 1.355 . S
C2636 C2638 1.442 . S
C2637 C2632 1.382 1_656 S
C2637 C2634 1.474 . S
C2637 C2635 1.373 1_655 S
C2638 H2628 0.925 1_556 S
C2638 C2636 1.442 . S
C2638 C2639 1.345 1_556 S
C2639 H2629 0.930 . S
C2639 C2632 1.476 . S
C2639 C2638 1.345 1_554 S
H2640 C2646 0.930 . S
H2641 C2649 0.930 . S
H2642 C2650 0.930 . S
H2643 C2651 0.930 . S
H2644 C2654 0.930 . S
H2645 C2655 0.930 . S
C2646 H2640 0.930 . S
C2646 C2647 1.355 . S
C2646 C2648 1.415 . S
C2647 C2646 1.355 . S
C2647 C2649 1.419 . S
C2648 C2646 1.415 . S
C2648 C2653 1.425 1_565 S
C2648 C2655 1.409 . S
C2649 H2641 0.930 . S
C2649 C2647 1.419 . S
C2649 C2650 1.362 1_565 S
C2650 H2642 0.930 . S
C2650 C2649 1.362 1_545 S
C2650 C2653 1.409 . S
C2651 H2643 0.930 . S
C2651 C2652 1.355 . S
C2651 C2653 1.415 . S
C2652 C2651 1.355 . S
C2652 C2654 1.419 . S
C2653 C2648 1.425 1_545 S
C2653 C2650 1.409 . S
C2653 C2651 1.415 . S
C2654 H2644 0.930 . S
C2654 C2652 1.419 . S
C2654 C2655 1.362 1_545 S
C2655 H2645 0.930 . S
C2655 C2648 1.409 . S
C2655 C2654 1.362 1_565 S
H2656 C2662 0.930 . S
H2657 C2665 0.930 . S
H2658 C2666 0.930 . S
H2659 C2667 0.930 . S
H2660 C2670 0.930 . S
H2661 C2671 0.930 . S
C2662 H2656 0.930 . S
C2662 C2663 1.355 . S
C2662 C2664 1.415 1_554 S
C2663 C2662 1.355 . S
C2663 C2665 1.419 . S
C2664 C2662 1.415 1_556 S
C2664 C2669 1.425 1_556 S
C2664 C2671 1.409 . S
C2665 H2657 0.930 . S
C2665 C2663 1.419 . S
C2665 C2666 1.362 . S
C2666 H2658 0.930 . S
C2666 C2665 1.362 . S
C2666 C2669 1.409 . S
C2667 H2659 0.930 . S
C2667 C2668 1.355 . S
C2667 C2669 1.415 1_556 S
C2668 C2667 1.355 . S
C2668 C2670 1.419 . S
C2669 C2664 1.425 1_554 S
C2669 C2666 1.409 . S
C2669 C2667 1.415 1_554 S
C2670 H2660 0.930 . S
C2670 C2668 1.419 . S
C2670 C2671 1.362 . S
C2671 H2661 0.930 . S
C2671 C2664 1.409 . S
C2671 C2670 1.362 . S
H2672 C2678 0.930 . S
H2673 C2681 0.930 . S
H2674 C2682 0.935 1_655 S
H2675 C2683 0.930 . S
H2676 C2686 0.930 . S
H2677 C2687 0.933 1_455 S
C2678 H2672 0.930 . S
C2678 C2679 1.355 . S
C2678 C2680 1.415 . S
C2679 C2678 1.355 . S
C2679 C2681 1.419 . S
C2680 C2678 1.415 . S
C2680 C2685 1.425 1_455 S
C2680 C2687 1.409 1_455 S
C2681 H2673 0.930 . S
C2681 C2679 1.419 . S
C2681 C2682 1.357 . S
C2682 H2674 0.935 1_455 S
C2682 C2681 1.357 . S
C2682 C2685 1.409 1_455 S
C2683 H2675 0.930 . S
C2683 C2684 1.355 . S
C2683 C2685 1.415 . S
C2684 C2683 1.355 . S
C2684 C2686 1.419 . S
C2685 C2680 1.425 1_655 S
C2685 C2682 1.409 1_655 S
C2685 C2683 1.415 . S
C2686 H2676 0.930 . S
C2686 C2684 1.419 . S
C2686 C2687 1.359 . S
C2687 H2677 0.933 1_655 S
C2687 C2680 1.409 1_655 S
C2687 C2686 1.359 . S
H2688 C2694 0.930 . S
H2689 C2697 0.930 . S
H2690 C2698 0.930 . S
H2691 C2699 0.930 . S
H2692 C2702 0.930 . S
H2693 C2703 0.930 . S
C2694 H2688 0.930 . S
C2694 C2695 1.355 . S
C2694 C2696 1.415 . S
C2695 C2694 1.355 . S
C2695 C2697 1.419 . S
C2696 C2694 1.415 . S
C2696 C2701 1.425 . S
C2696 C2703 1.409 . S
C2697 H2689 0.930 . S
C2697 C2695 1.419 . S
C2697 C2698 1.362 . S
C2698 H2690 0.930 . S
C2698 C2697 1.362 . S
C2698 C2701 1.409 . S
C2699 H2691 0.930 . S
C2699 C2700 1.355 . S
C2699 C2701 1.415 . S
C2700 C2699 1.355 . S
C2700 C2702 1.419 . S
C2701 C2696 1.425 . S
C2701 C2698 1.409 . S
C2701 C2699 1.415 . S
C2702 H2692 0.930 . S
C2702 C2700 1.419 . S
C2702 C2703 1.362 . S
C2703 H2693 0.930 . S
C2703 C2696 1.409 . S
C2703 C2702 1.362 . S
H2704 C2710 0.930 . S
H2705 C2713 0.930 . S
H2706 C2714 0.930 . S
H2707 C2715 0.930 . S
H2708 C2718 0.930 . S
H2709 C2719 0.930 . S
C2710 H2704 0.930 . S
C2710 C2711 1.355 . S
C2710 C2712 1.415 . S
C2711 C2710 1.355 . S
C2711 C2713 1.419 . S
C2712 C2710 1.415 . S
C2712 C2717 1.425 . S
C2712 C2719 1.409 . S
C2713 H2705 0.930 . S
C2713 C2711 1.419 . S
C2713 C2714 1.362 . S
C2714 H2706 0.930 . S
C2714 C2713 1.362 . S
C2714 C2717 1.409 . S
C2715 H2707 0.930 . S
C2715 C2716 1.355 . S
C2715 C2717 1.415 . S
C2716 C2715 1.355 . S
C2716 C2718 1.419 . S
C2717 C2712 1.425 . S
C2717 C2714 1.409 . S
C2717 C2715 1.415 . S
C2718 H2708 0.930 . S
C2718 C2716 1.419 . S
C2718 C2719 1.362 . S
C2719 H2709 0.930 . S
C2719 C2712 1.409 . S
C2719 C2718 1.362 . S
H2720 C2726 0.930 . S
H2721 C2729 0.930 . S
H2722 C2730 0.930 . S
H2723 C2731 0.930 . S
H2724 C2734 0.930 . S
H2725 C2735 0.930 . S
C2726 H2720 0.930 . S
C2726 C2727 1.355 . S
C2726 C2728 1.415 . S
C2727 C2726 1.355 . S
C2727 C2729 1.419 . S
C2728 C2726 1.415 . S
C2728 C2733 1.425 . S
C2728 C2735 1.409 . S
C2729 H2721 0.930 . S
C2729 C2727 1.419 . S
C2729 C2730 1.362 . S
C2730 H2722 0.930 . S
C2730 C2729 1.362 . S
C2730 C2733 1.409 . S
C2731 H2723 0.930 . S
C2731 C2732 1.355 . S
C2731 C2733 1.415 . S
C2732 C2731 1.355 . S
C2732 C2734 1.419 . S
C2733 C2728 1.425 . S
C2733 C2730 1.409 . S
C2733 C2731 1.415 . S
C2734 H2724 0.930 . S
C2734 C2732 1.419 . S
C2734 C2735 1.362 . S
C2735 H2725 0.930 . S
C2735 C2728 1.409 . S
C2735 C2734 1.362 . S
H2736 C2742 0.930 . S
H2737 C2745 0.930 . S
H2738 C2746 0.930 . S
H2739 C2747 0.930 . S
H2740 C2750 0.930 . S
H2741 C2751 0.930 . S
C2742 H2736 0.930 . S
C2742 C2743 1.355 . S
C2742 C2744 1.415 . S
C2743 C2742 1.355 . S
C2743 C2745 1.419 . S
C2744 C2742 1.415 . S
C2744 C2749 1.425 . S
C2744 C2751 1.409 . S
C2745 H2737 0.930 . S
C2745 C2743 1.419 . S
C2745 C2746 1.362 . S
C2746 H2738 0.930 . S
C2746 C2745 1.362 . S
C2746 C2749 1.409 . S
C2747 H2739 0.930 . S
C2747 C2748 1.355 . S
C2747 C2749 1.415 . S
C2748 C2747 1.355 . S
C2748 C2750 1.419 . S
C2749 C2744 1.425 . S
C2749 C2746 1.409 . S
C2749 C2747 1.415 . S
C2750 H2740 0.930 . S
C2750 C2748 1.419 . S
C2750 C2751 1.362 . S
C2751 H2741 0.930 . S
C2751 C2744 1.409 . S
C2751 C2750 1.362 . S
H2752 C2758 0.930 . S
H2753 C2761 0.930 . S
H2754 C2762 0.930 . S
H2755 C2763 0.930 . S
H2756 C2766 0.930 . S
H2757 C2767 0.930 . S
C2758 H2752 0.930 . S
C2758 C2759 1.355 . S
C2758 C2760 1.415 . S
C2759 C2758 1.355 . S
C2759 C2761 1.419 . S
C2760 C2758 1.415 . S
C2760 C2765 1.425 . S
C2760 C2767 1.409 . S
C2761 H2753 0.930 . S
C2761 C2759 1.419 . S
C2761 C2762 1.362 . S
C2762 H2754 0.930 . S
C2762 C2761 1.362 . S
C2762 C2765 1.409 . S
C2763 H2755 0.930 . S
C2763 C2764 1.355 . S
C2763 C2765 1.415 . S
C2764 C2763 1.355 . S
C2764 C2766 1.419 . S
C2765 C2760 1.425 . S
C2765 C2762 1.409 . S
C2765 C2763 1.415 . S
C2766 H2756 0.930 . S
C2766 C2764 1.419 . S
C2766 C2767 1.362 . S
C2767 H2757 0.930 . S
C2767 C2760 1.409 . S
C2767 C2766 1.362 . S
H2768 C2774 0.930 . S
H2769 C2777 0.930 . S
H2770 C2778 0.930 . S
H2771 C2779 0.930 . S
H2772 C2782 0.930 . S
H2773 C2783 0.930 . S
C2774 H2768 0.930 . S
C2774 C2775 1.355 . S
C2774 C2776 1.415 . S
C2775 C2774 1.355 . S
C2775 C2777 1.419 . S
C2776 C2774 1.415 . S
C2776 C2781 1.425 . S
C2776 C2783 1.409 . S
C2777 H2769 0.930 . S
C2777 C2775 1.419 . S
C2777 C2778 1.362 . S
C2778 H2770 0.930 . S
C2778 C2777 1.362 . S
C2778 C2781 1.409 . S
C2779 H2771 0.930 . S
C2779 C2780 1.355 . S
C2779 C2781 1.415 . S
C2780 C2779 1.355 . S
C2780 C2782 1.419 . S
C2781 C2776 1.425 . S
C2781 C2778 1.409 . S
C2781 C2779 1.415 . S
C2782 H2772 0.930 . S
C2782 C2780 1.419 . S
C2782 C2783 1.362 . S
C2783 H2773 0.930 . S
C2783 C2776 1.409 . S
C2783 C2782 1.362 . S
H2784 C2790 0.930 . S
H2785 C2793 0.930 . S
H2786 C2794 0.930 . S
H2787 C2795 0.930 . S
H2788 C2798 0.930 . S
H2789 C2799 0.930 . S
C2790 H2784 0.930 . S
C2790 C2791 1.355 . S
C2790 C2792 1.415 . S
C2791 C2790 1.355 . S
C2791 C2793 1.419 . S
C2792 C2790 1.415 . S
C2792 C2797 1.425 . S
C2792 C2799 1.409 . S
C2793 H2785 0.930 . S
C2793 C2791 1.419 . S
C2793 C2794 1.362 . S
C2794 H2786 0.930 . S
C2794 C2793 1.362 . S
C2794 C2797 1.409 . S
C2795 H2787 0.930 . S
C2795 C2796 1.355 . S
C2795 C2797 1.415 . S
C2796 C2795 1.355 . S
C2796 C2798 1.419 . S
C2797 C2792 1.425 . S
C2797 C2794 1.409 . S
C2797 C2795 1.415 . S
C2798 H2788 0.930 . S
C2798 C2796 1.419 . S
C2798 C2799 1.362 . S
C2799 H2789 0.930 . S
C2799 C2792 1.409 . S
C2799 C2798 1.362 . S
H2800 C2806 0.930 . S
H2801 C2809 0.930 . S
H2802 C2810 0.930 . S
H2803 C2811 0.930 . S
H2804 C2814 0.930 . S
H2805 C2815 0.930 . S
C2806 H2800 0.930 . S
C2806 C2807 1.355 . S
C2806 C2808 1.415 . S
C2807 C2806 1.355 . S
C2807 C2809 1.419 . S
C2808 C2806 1.415 . S
C2808 C2813 1.425 . S
C2808 C2815 1.409 . S
C2809 H2801 0.930 . S
C2809 C2807 1.419 . S
C2809 C2810 1.362 . S
C2810 H2802 0.930 . S
C2810 C2809 1.362 . S
C2810 C2813 1.409 . S
C2811 H2803 0.930 . S
C2811 C2812 1.355 . S
C2811 C2813 1.415 . S
C2812 C2811 1.355 . S
C2812 C2814 1.419 . S
C2813 C2808 1.425 . S
C2813 C2810 1.409 . S
C2813 C2811 1.415 . S
C2814 H2804 0.930 . S
C2814 C2812 1.419 . S
C2814 C2815 1.362 . S
C2815 H2805 0.930 . S
C2815 C2808 1.409 . S
C2815 C2814 1.362 . S
H2816 C2822 0.930 . S
H2817 C2825 0.930 . S
H2818 C2826 0.930 . S
H2819 C2827 0.930 . S
H2820 C2830 0.930 . S
H2821 C2831 0.930 . S
C2822 H2816 0.930 . S
C2822 C2823 1.355 . S
C2822 C2824 1.415 . S
C2823 C2822 1.355 . S
C2823 C2825 1.419 . S
C2824 C2822 1.415 . S
C2824 C2829 1.425 . S
C2824 C2831 1.409 . S
C2825 H2817 0.930 . S
C2825 C2823 1.419 . S
C2825 C2826 1.362 . S
C2826 H2818 0.930 . S
C2826 C2825 1.362 . S
C2826 C2829 1.409 . S
C2827 H2819 0.930 . S
C2827 C2828 1.355 . S
C2827 C2829 1.415 . S
C2828 C2827 1.355 . S
C2828 C2830 1.419 . S
C2829 C2824 1.425 . S
C2829 C2826 1.409 . S
C2829 C2827 1.415 . S
C2830 H2820 0.930 . S
C2830 C2828 1.419 . S
C2830 C2831 1.362 . S
C2831 H2821 0.930 . S
C2831 C2824 1.409 . S
C2831 C2830 1.362 . S
H2832 C2838 0.930 . S
H2833 C2841 0.930 . S
H2834 C2842 0.930 . S
H2835 C2843 0.930 . S
H2836 C2846 0.930 . S
H2837 C2847 0.930 . S
C2838 H2832 0.930 . S
C2838 C2839 1.355 . S
C2838 C2840 1.415 . S
C2839 C2838 1.355 . S
C2839 C2841 1.419 . S
C2840 C2838 1.415 . S
C2840 C2845 1.425 . S
C2840 C2847 1.409 . S
C2841 H2833 0.930 . S
C2841 C2839 1.419 . S
C2841 C2842 1.362 . S
C2842 H2834 0.930 . S
C2842 C2841 1.362 . S
C2842 C2845 1.409 . S
C2843 H2835 0.930 . S
C2843 C2844 1.355 . S
C2843 C2845 1.415 . S
C2844 C2843 1.355 . S
C2844 C2846 1.419 . S
C2845 C2840 1.425 . S
C2845 C2842 1.409 . S
C2845 C2843 1.415 . S
C2846 H2836 0.930 . S
C2846 C2844 1.419 . S
C2846 C2847 1.362 . S
C2847 H2837 0.930 . S
C2847 C2840 1.409 . S
C2847 C2846 1.362 . S
H2848 C2854 0.930 . S
H2849 C2857 0.930 . S
H2850 C2858 0.930 . S
H2851 C2859 0.930 . S
H2852 C2862 0.930 . S
H2853 C2863 0.930 . S
C2854 H2848 0.930 . S
C2854 C2855 1.355 . S
C2854 C2856 1.415 . S
C2855 C2854 1.355 . S
C2855 C2857 1.419 . S
C2856 C2854 1.415 . S
C2856 C2861 1.425 . S
C2856 C2863 1.409 . S
C2857 H2849 0.930 . S
C2857 C2855 1.419 . S
C2857 C2858 1.362 . S
C2858 H2850 0.930 . S
C2858 C2857 1.362 . S
C2858 C2861 1.409 . S
C2859 H2851 0.930 . S
C2859 C2860 1.355 . S
C2859 C2861 1.415 . S
C2860 C2859 1.355 . S
C2860 C2862 1.419 . S
C2861 C2856 1.425 . S
C2861 C2858 1.409 . S
C2861 C2859 1.415 . S
C2862 H2852 0.930 . S
C2862 C2860 1.419 . S
C2862 C2863 1.362 . S
C2863 H2853 0.930 . S
C2863 C2856 1.409 . S
C2863 C2862 1.362 . S
H2864 C2870 0.930 . S
H2865 C2873 0.930 . S
H2866 C2874 0.930 . S
H2867 C2875 0.930 . S
H2868 C2878 0.930 . S
H2869 C2879 0.930 . S
C2870 H2864 0.930 . S
C2870 C2871 1.355 . S
C2870 C2872 1.415 . S
C2871 C2870 1.355 . S
C2871 C2873 1.419 . S
C2872 C2870 1.415 . S
C2872 C2877 1.425 . S
C2872 C2879 1.409 . S
C2873 H2865 0.930 . S
C2873 C2871 1.419 . S
C2873 C2874 1.362 . S
C2874 H2866 0.930 . S
C2874 C2873 1.362 . S
C2874 C2877 1.409 . S
C2875 H2867 0.930 . S
C2875 C2876 1.355 . S
C2875 C2877 1.415 . S
C2876 C2875 1.355 . S
C2876 C2878 1.419 . S
C2877 C2872 1.425 . S
C2877 C2874 1.409 . S
C2877 C2875 1.415 . S
C2878 H2868 0.930 . S
C2878 C2876 1.419 . S
C2878 C2879 1.362 . S
C2879 H2869 0.930 . S
C2879 C2872 1.409 . S
C2879 C2878 1.362 . S
C2119 C1369 1.495 . S
C2124 C29 1.477 . S
C2135 C117 1.501 . S
C2140 C1465 1.471 . S
C2151 C196 1.501 . S
C2156 C1553 1.472 . S
C2167 C284 1.474 . S
C2172 C1105 1.498 . S
C2183 C1193 1.472 . S
C2188 C401 1.500 . S
C2199 C469 1.495 . S
C2204 C1289 1.477 . S
C2215 C1868 1.492 . S
C2220 C585 1.483 . S
C2231 C665 1.475 . S
C2236 C1956 1.500 . S
C2247 C761 1.473 . S
C2252 C2044 1.500 . S
C2263 C1613 1.500 . S
C2268 C841 1.473 . S
C2279 C937 1.488 . S
C2284 C1701 1.484 . S
C2295 C1780 1.478 . S
C2300 C1017 1.493 . S
C2311 C20 1.076 . S
C2316 C2081 1.031 . S
C2327 C1633 1.042 . S
C2332 C108 1.065 . S
C2343 C205 1.036 . S
C2348 C1721 1.068 . S
C2359 C1817 1.041 . S
C2364 C293 1.064 . S
C2375 C409 1.044 . S
C2380 C1905 1.060 . S
C2391 C1993 1.031 . S
C2396 C460 1.075 . S
C2407 C577 1.059 . S
C2412 C1173 1.048 . S
C2423 C1252 1.039 . S
C2428 C673 1.068 . S
C2439 C1349 1.050 . S
C2444 C753 1.056 . S
C2455 C1428 1.076 . S
C2460 C849 1.024 . S
C2471 C929 1.077 . S
C2476 C1516 1.030 . S
C2487 C1025 1.023 . S
C2492 C1085 1.079 . S
C2503 C636 0.968 . S
C2508 C57 0.984 . S
C2519 C733 1.020 . S
C2524 C145 0.964 . S
C2535 C812 1.004 . S
C2540 C225 0.956 . S
C2551 C909 0.960 . S
C2556 C313 0.996 . S
C2567 C372 0.965 . S
C2572 C988 0.989 . S
C2583 C497 0.954 . S
C2588 C557 1.013 . S
C2599 C1076 1.014 . S
C2604 C1729 0.961 . S
C2615 C1164 1.009 . S
C2620 C1809 0.954 . S
C2631 C1897 1.013 . S
C2636 C1261 0.967 . S
C2647 C1985 0.956 . S
C2652 C1340 0.995 . S
C2663 C2073 0.993 . S
C2668 C1437 0.957 . S
C2679 C1641 0.954 . S
C2684 C1525 1.004 . S
C2695 C49 1.500 . S
C2700 C1692 1.513 . S
C2711 C1789 1.515 . S
C2716 C137 1.502 . S
C2727 C233 1.520 . S
C2732 C1877 1.495 . S
C2743 C1965 1.495 . S
C2748 C321 1.519 . S
C2759 C381 1.496 . S
C2764 C2053 1.520 . S
C2775 C1604 1.518 . S
C2780 C489 1.497 . S
C2791 C548 1.499 . S
C2796 C1545 1.516 . S
C2807 C1113 1.496 . S
C2812 C645 1.517 . S
C2823 C724 1.514 . S
C2828 C1201 1.499 . S
C2839 C821 1.498 . S
C2844 C1281 1.517 . S
C2855 C900 1.520 . S
C2860 C1377 1.494 . S
C2871 C997 1.519 . S
C2876 C1457 1.495 . S
