# Generated by pormake.
# Topology wjg, (4)-cn, num edge types: 1
# Building blocks:
#     Node 0, Type 0, BuildingBlock: KUFVIS_clean_sbu_0, # of connection points: 4
#     Node 1, Type 0, BuildingBlock: KUFVIS_clean_sbu_0, # of connection points: 4
#     Node 2, Type 0, BuildingBlock: KUFVIS_clean_sbu_0, # of connection points: 4
#     Node 3, Type 0, BuildingBlock: KUFVIS_clean_sbu_0, # of connection points: 4
#     Node 4, Type 0, BuildingBlock: KUFVIS_clean_sbu_0, # of connection points: 4
#     Node 5, Type 0, BuildingBlock: KUFVIS_clean_sbu_0, # of connection points: 4
#     Node 6, Type 0, BuildingBlock: KUFVIS_clean_sbu_0, # of connection points: 4
#     Node 7, Type 0, BuildingBlock: KUFVIS_clean_sbu_0, # of connection points: 4
#     Node 8, Type 0, BuildingBlock: KUFVIS_clean_sbu_0, # of connection points: 4
#     Node 9, Type 0, BuildingBlock: KUFVIS_clean_sbu_0, # of connection points: 4
#     Node 10, Type 0, BuildingBlock: KUFVIS_clean_sbu_0, # of connection points: 4
#     Node 11, Type 0, BuildingBlock: KUFVIS_clean_sbu_0, # of connection points: 4
#     Edge 12, Type (0, 0), BuildingBlock: OJICUG_clean_linker_0, # of connection points: 2
#     Edge 13, Type (0, 0), BuildingBlock: OJICUG_clean_linker_0, # of connection points: 2
#     Edge 14, Type (0, 0), BuildingBlock: OJICUG_clean_linker_0, # of connection points: 2
#     Edge 15, Type (0, 0), BuildingBlock: OJICUG_clean_linker_0, # of connection points: 2
#     Edge 16, Type (0, 0), BuildingBlock: OJICUG_clean_linker_0, # of connection points: 2
#     Edge 17, Type (0, 0), BuildingBlock: OJICUG_clean_linker_0, # of connection points: 2
#     Edge 18, Type (0, 0), BuildingBlock: OJICUG_clean_linker_0, # of connection points: 2
#     Edge 19, Type (0, 0), BuildingBlock: OJICUG_clean_linker_0, # of connection points: 2
#     Edge 20, Type (0, 0), BuildingBlock: OJICUG_clean_linker_0, # of connection points: 2
#     Edge 21, Type (0, 0), BuildingBlock: OJICUG_clean_linker_0, # of connection points: 2
#     Edge 22, Type (0, 0), BuildingBlock: OJICUG_clean_linker_0, # of connection points: 2
#     Edge 23, Type (0, 0), BuildingBlock: OJICUG_clean_linker_0, # of connection points: 2
#     Edge 24, Type (0, 0), BuildingBlock: OJICUG_clean_linker_0, # of connection points: 2
#     Edge 25, Type (0, 0), BuildingBlock: OJICUG_clean_linker_0, # of connection points: 2
#     Edge 26, Type (0, 0), BuildingBlock: OJICUG_clean_linker_0, # of connection points: 2
#     Edge 27, Type (0, 0), BuildingBlock: OJICUG_clean_linker_0, # of connection points: 2
#     Edge 28, Type (0, 0), BuildingBlock: OJICUG_clean_linker_0, # of connection points: 2
#     Edge 29, Type (0, 0), BuildingBlock: OJICUG_clean_linker_0, # of connection points: 2
#     Edge 30, Type (0, 0), BuildingBlock: OJICUG_clean_linker_0, # of connection points: 2
#     Edge 31, Type (0, 0), BuildingBlock: OJICUG_clean_linker_0, # of connection points: 2
#     Edge 32, Type (0, 0), BuildingBlock: OJICUG_clean_linker_0, # of connection points: 2
#     Edge 33, Type (0, 0), BuildingBlock: OJICUG_clean_linker_0, # of connection points: 2
#     Edge 34, Type (0, 0), BuildingBlock: OJICUG_clean_linker_0, # of connection points: 2
#     Edge 35, Type (0, 0), BuildingBlock: OJICUG_clean_linker_0, # of connection points: 2
# Relax obj value: 0.309
# Max RMSD: 0.127
# Mean RMSD: 0.119
data_MOF--net-wjg--node1-KUFVIS_clean_sbu_0--edge1-OJICUG_clean_linker_0
_symmetry_space_group_name_H-M    P1
_symmetry_Int_Tables_number       1
_symmetry_cell_setting            triclinic
loop_
_symmetry_equiv_pos_as_xyz
'x, y, z'
_cell_length_a     22.655885
_cell_length_b     22.86924
_cell_length_c     29.136384
_cell_angle_alpha  88.748349
_cell_angle_beta   91.118131
_cell_angle_gamma 119.85213
loop_
_atom_site_label
_atom_site_type_symbol
_atom_site_fract_x
_atom_site_fract_y
_atom_site_fract_z
_atom_type_partial_charge
Mn0 Mn 0.18007 0.44965 0.36701 0.0
Mn1 Mn 0.33856 0.48123 0.38992 0.0
C2 C 0.1887 0.35308 0.39165 0.0
C3 C 0.10705 0.43214 0.29825 0.0
C4 C 0.25457 0.5029 0.45651 0.0
O5 O 0.24713 0.55201 0.35161 0.0
O6 O 0.31533 0.51636 0.33397 0.0
C7 C 0.31159 0.37161 0.32002 0.0
N8 N 0.35901 0.42557 0.35552 0.0
C9 C 0.48079 0.41233 0.35068 0.0
C10 C 0.46285 0.3569 0.30774 0.0
C11 C 0.38039 0.31841 0.28086 0.0
C12 C 0.42988 0.43997 0.37259 0.0
H13 H 0.26079 0.36461 0.31357 0.0
C14 C 0.3046 0.56557 0.33586 0.0
O15 O 0.09747 0.45294 0.33703 0.0
O16 O 0.15977 0.42458 0.29872 0.0
N17 N 0.38494 0.46039 0.43847 0.0
C18 C 0.40015 0.48866 0.48059 0.0
C19 C 0.44286 0.47838 0.51096 0.0
C20 C 0.48047 0.45026 0.49463 0.0
C21 C 0.4791 0.43859 0.44756 0.0
C22 C 0.43209 0.44701 0.41979 0.0
H23 H 0.39094 0.52897 0.48728 0.0
O24 O 0.1311 0.35005 0.38303 0.0
O25 O 0.24117 0.41287 0.3864 0.0
O26 O 0.19513 0.47496 0.4366 0.0
O27 O 0.30908 0.53099 0.43185 0.0
C28 C 0.52645 0.42363 0.42853 0.0
C29 C 0.52938 0.41464 0.38148 0.0
H30 H 0.42281 0.33147 0.28938 0.0
H31 H 0.3584 0.27699 0.25048 0.0
H32 H 0.45271 0.49895 0.54515 0.0
H33 H 0.51608 0.44527 0.51749 0.0
H34 H 0.56276 0.41902 0.45086 0.0
H35 H 0.56459 0.40027 0.37013 0.0
Mn36 Mn 0.77647 0.1598 0.69318 0.0
Mn37 Mn 0.89741 0.31702 0.6883 0.0
C38 C 0.88835 0.1768 0.70516 0.0
C39 C 0.71887 0.07708 0.63328 0.0
C40 C 0.80653 0.25474 0.77099 0.0
O41 O 0.72809 0.21523 0.67717 0.0
O42 O 0.82038 0.29027 0.64374 0.0
C43 C 0.97469 0.30102 0.60112 0.0
N44 N 0.96146 0.33847 0.64152 0.0
C45 C 0.07088 0.47771 0.62434 0.0
C46 C 0.105 0.47005 0.57466 0.0
C47 C 0.07636 0.39265 0.55079 0.0
C48 C 0.00642 0.4151 0.65486 0.0
H49 H 0.95108 0.30814 0.63033 0.0
C50 C 0.75958 0.27118 0.65572 0.0
O51 O 0.69197 0.0696 0.6735 0.0
O52 O 0.77472 0.13217 0.62768 0.0
N53 N 0.97604 0.35891 0.72534 0.0
C54 C 0.99278 0.34477 0.76731 0.0
C55 C 0.05025 0.39533 0.78996 0.0
C56 C 0.08968 0.45856 0.76836 0.0
C57 C 0.07425 0.46921 0.72304 0.0
C58 C 0.01648 0.41732 0.70228 0.0
H59 H 0.95963 0.29738 0.78435 0.0
O60 O 0.83521 0.11822 0.70944 0.0
O61 O 0.87474 0.22408 0.6948 0.0
O62 O 0.77779 0.1913 0.76053 0.0
O63 O 0.83911 0.30236 0.74195 0.0
C64 C 0.11547 0.52894 0.69835 0.0
C65 C 0.11106 0.53404 0.65031 0.0
H66 H 0.14757 0.51374 0.55925 0.0
H67 H 0.10082 0.38877 0.51998 0.0
H68 H 0.06311 0.38631 0.82435 0.0
H69 H 0.13367 0.49763 0.78616 0.0
H70 H 0.15283 0.57196 0.71678 0.0
H71 H 0.14274 0.5806 0.63264 0.0
Mn72 Mn 0.64733 0.78398 0.02926 0.0
Mn73 Mn 0.58768 0.87453 0.07312 0.0
C74 C 0.72987 0.90142 0.04514 0.0
C75 C 0.6599 0.73189 0.96206 0.0
C76 C 0.6029 0.77544 0.12527 0.0
O77 O 0.5385 0.7305 0.02353 0.0
O78 O 0.53392 0.82484 1.01894 0.0
C79 C 0.63095 0.98343 0.99685 0.0
N80 N 0.60951 0.95506 0.04687 0.0
C81 C 0.55818 0.04067 0.08047 0.0
C82 C 0.56432 0.08808 0.03322 0.0
C83 C 0.5979 0.0798 0.98355 0.0
C84 C 0.57986 0.97987 0.08492 0.0
H85 H 0.64949 0.95898 0.97397 0.0
C86 C 0.50428 0.76115 1.01566 0.0
O87 O 0.65571 0.70685 1.003 0.0
O88 O 0.65568 0.78645 0.9598 0.0
N89 N 0.62853 0.92918 0.12563 0.0
C90 C 0.68724 0.94834 0.14894 0.0
C91 C 0.70677 -0.00353 0.1837 0.0
C92 C 0.66542 0.02442 0.19318 0.0
C93 C 0.61194 0.01291 0.16281 0.0
C94 C 0.59844 0.96753 0.12732 0.0
H95 H 0.71787 0.92661 0.14067 0.0
O96 O 0.74872 0.85813 0.03513 0.0
O97 O 0.66444 0.875 0.04331 0.0
O98 O 0.64337 0.76726 0.09967 0.0
O99 O 0.5605 0.78917 0.1064 0.0
C100 C 0.58134 0.05366 0.16274 0.0
C101 C 0.55184 0.06454 0.12281 0.0
H102 H 0.55027 0.12663 0.03514 0.0
H103 H 0.60162 0.11142 0.95379 0.0
H104 H 0.75303 0.01146 0.20334 0.0
H105 H 0.68033 0.0609 0.22032 0.0
H106 H 0.58734 0.08387 0.19247 0.0
H107 H 0.53502 0.10113 0.12382 0.0
Mn108 Mn 0.82991 0.55043 0.37034 0.0
Mn109 Mn 0.67566 0.53071 0.38409 0.0
C110 C 0.8289 0.65285 0.38496 0.0
C111 C 0.90147 0.55726 0.30632 0.0
C112 C 0.75191 0.50481 0.45909 0.0
O113 O 0.76191 0.44758 0.36287 0.0
O114 O 0.68859 0.47544 0.33811 0.0
C115 C 0.70456 0.62561 0.30013 0.0
N116 N 0.65763 0.57792 0.33877 0.0
C117 C 0.53269 0.58154 0.31931 0.0
C118 C 0.54953 0.62704 0.26929 0.0
C119 C 0.6336 0.66395 0.24532 0.0
C120 C 0.58546 0.56292 0.35083 0.0
H121 H 0.75652 0.6343 0.29844 0.0
C122 C 0.70204 0.42919 0.34876 0.0
O123 O 0.90927 0.53874 0.3474 0.0
O124 O 0.85132 0.56846 0.30209 0.0
N125 N 0.6397 0.57327 0.42191 0.0
C126 C 0.64933 0.58961 0.46678 0.0
C127 C 0.6101 0.61264 0.48809 0.0
C128 C 0.55799 0.61529 0.46341 0.0
C129 C 0.54532 0.59473 0.4176 0.0
C130 C 0.58686 0.57276 0.39782 0.0
H131 H 0.68806 0.58741 0.48535 0.0
O132 O 0.88432 0.65096 0.38011 0.0
O133 O 0.77389 0.59455 0.38038 0.0
O134 O 0.81113 0.53046 0.43984 0.0
O135 O 0.6961 0.48467 0.43604 0.0
C136 C 0.49158 0.59428 0.39241 0.0
C137 C 0.48257 0.58182 0.34518 0.0
H138 H 0.58979 0.65035 0.25106 0.0
H139 H 0.65501 0.69751 0.21066 0.0
H140 H 0.61947 0.62745 0.52369 0.0
H141 H 0.52742 0.63271 0.48019 0.0
H142 H 0.45515 0.60299 0.41 0.0
H143 H 0.44033 0.58004 0.32767 0.0
Mn144 Mn 0.22848 0.81647 0.71296 0.0
Mn145 Mn 0.11591 0.65781 0.70584 0.0
C146 C 0.11495 0.79476 0.72285 0.0
C147 C 0.28813 0.89923 0.65392 0.0
C148 C 0.20079 0.72137 0.79054 0.0
O149 O 0.28168 0.76638 0.70043 0.0
O150 O 0.19218 0.70116 0.66203 0.0
C151 C 0.04468 0.69631 0.62411 0.0
N152 N 0.05131 0.6455 0.65911 0.0
C153 C 0.94223 0.51702 0.62381 0.0
C154 C 0.91557 0.54175 0.57593 0.0
C155 C 0.94953 0.62541 0.56255 0.0
C156 C 0.00339 0.56723 0.66211 0.0
H157 H 0.06378 0.67895 0.65171 0.0
C158 C 0.25198 0.71628 0.67453 0.0
O159 O 0.31319 0.90662 0.69528 0.0
O160 O 0.2316 0.8449 0.64726 0.0
N161 N 0.03647 0.59369 0.73942 0.0
C162 C 0.03303 0.57105 0.78346 0.0
C163 C 0.97357 0.51509 0.79955 0.0
C164 C 0.92258 0.47525 0.76824 0.0
C165 C 0.93399 0.48906 0.7213 0.0
C166 C 0.99193 0.54884 0.70792 0.0
H167 H 0.07736 0.58872 0.80448 0.0
O168 O 0.16707 0.85433 0.72498 0.0
O169 O 0.12973 0.74748 0.71673 0.0
O170 O 0.22575 0.78453 0.77971 0.0
O171 O 0.18003 0.67483 0.75982 0.0
C172 C 0.89129 0.44236 0.68857 0.0
C173 C 0.89858 0.45401 0.64113 0.0
H174 H 0.87392 0.5048 0.55537 0.0
H175 H 0.93117 0.64049 0.53232 0.0
H176 H 0.96955 0.49949 0.83523 0.0
H177 H 0.87672 0.43141 0.78021 0.0
H178 H 0.85165 0.39499 0.70034 0.0
H179 H 0.86691 0.41549 0.61744 0.0
Mn180 Mn 0.29231 0.17207 0.04669 0.0
Mn181 Mn 0.33913 0.0679 0.08842 0.0
C182 C 0.20603 0.05632 0.05159 0.0
C183 C 0.2933 0.23439 0.9778 0.0
C184 C 0.3202 0.15608 0.14453 0.0
O185 O 0.40124 0.22274 0.05072 0.0
O186 O 0.40831 0.12963 0.04345 0.0
C187 C 0.31976 0.97791 1.00541 0.0
N188 N 0.31969 -0.00907 0.05794 0.0
C189 C 0.35862 0.89573 0.09761 0.0
C190 C 0.37218 0.86273 0.05014 0.0
C191 C 0.3591 0.88594 0.99647 0.0
C192 C 0.33429 0.95481 0.09919 0.0
H193 H 0.3113 0.00953 0.98051 0.0
C194 C 0.43763 0.19406 0.04556 0.0
O195 O 0.2903 0.25462 1.01864 0.0
O196 O 0.29712 0.18002 0.97721 0.0
N197 N 0.28168 0.00329 0.13397 0.0
C198 C 0.22089 0.98672 0.15243 0.0
C199 C 0.19088 0.93251 0.18406 0.0
C200 C 0.22408 0.89603 0.19573 0.0
C201 C 0.28159 0.90781 0.17096 0.0
C202 C 0.30565 0.95986 0.13817 0.0
H203 H 0.19724 0.01623 0.14402 0.0
O204 O 0.19047 0.10291 0.04298 0.0
O205 O 0.27095 0.07863 0.05321 0.0
O206 O 0.28259 0.17158 0.1195 0.0
O207 O 0.36365 0.14787 0.12429 0.0
C208 C 0.30863 0.86384 0.17394 0.0
C209 C 0.34934 0.86047 0.13914 0.0
H210 H 0.38749 0.82512 0.05393 0.0
H211 H 0.36959 0.86482 0.96652 0.0
H212 H 0.14318 0.91986 0.20006 0.0
H213 H 0.20129 0.85504 0.22061 0.0
H214 H 0.29296 0.82703 0.20173 0.0
H215 H 0.36359 0.8218 0.14175 0.0
Mn216 Mn 0.7 0.88921 0.39273 0.0
Mn217 Mn 0.72996 0.82006 0.30292 0.0
C218 C 0.79723 0.8732 0.38673 0.0
C219 C 0.68571 0.92513 0.46748 0.0
C220 C 0.71544 0.92313 0.29267 0.0
O221 O 0.60178 0.82 0.38356 0.0
O222 O 0.62587 0.78573 0.31748 0.0
C223 C 0.64551 0.6713 0.31928 0.0
N224 N 0.71144 0.73092 0.30033 0.0
C225 C 0.73658 0.66489 0.22314 0.0
C226 C 0.66646 0.58484 0.22584 0.0
C227 C 0.60645 0.56347 0.26868 0.0
C228 C 0.75443 0.72999 0.25877 0.0
H229 H 0.68661 0.72088 0.3154 0.0
C230 C 0.58233 0.78435 0.34723 0.0
O231 O 0.67974 0.95096 0.42919 0.0
O232 O 0.69814 0.87577 0.46316 0.0
N233 N 0.81991 0.84112 0.28132 0.0
C234 C 0.87627 0.90346 0.27705 0.0
C235 C 0.92724 0.91401 0.24583 0.0
C236 C 0.91927 0.8615 0.2177 0.0
C237 C 0.86037 0.79806 0.22079 0.0
C238 C 0.81268 0.7899 0.25378 0.0
H239 H 0.88143 0.94553 0.29643 0.0
O240 O 0.8035 0.93019 0.39981 0.0
O241 O 0.73953 0.83132 0.36942 0.0
O242 O 0.68274 0.92292 0.32693 0.0
O243 O 0.76268 0.91507 0.30461 0.0
C244 C 0.84807 0.74482 0.19078 0.0
C245 C 0.78804 0.68082 0.19142 0.0
H246 H 0.66099 0.54702 0.20181 0.0
H247 H 0.56458 0.51201 0.27191 0.0
H248 H 0.97133 0.9635 0.24179 0.0
H249 H 0.9582 0.87109 0.19288 0.0
H250 H 0.88607 0.75331 0.16547 0.0
H251 H 0.78266 0.64303 0.16736 0.0
Mn252 Mn 0.74843 0.63048 0.71705 0.0
Mn253 Mn 0.848 0.67463 0.62477 0.0
C254 C 0.85042 0.73662 0.70606 0.0
C255 C 0.7114 0.62562 0.79468 0.0
C256 C 0.71618 0.62934 0.61729 0.0
O257 O 0.73934 0.5381 0.70927 0.0
O258 O 0.7974 0.57034 0.6414 0.0
C259 C 0.94122 0.61869 0.63624 0.0
N260 N 0.93374 0.67955 0.62304 0.0
C261 C 0.03747 0.74158 0.55132 0.0
C262 C 0.068 0.68667 0.54677 0.0
C263 C 0.03419 0.61284 0.58429 0.0
C264 C 0.9758 0.73539 0.58705 0.0
H265 H 0.90643 0.58456 0.66233 0.0
C266 C 0.76143 0.52437 0.67271 0.0
O267 O 0.66975 0.60531 0.76005 0.0
O268 O 0.77291 0.6401 0.78537 0.0
N269 N 0.89914 0.76944 0.60679 0.0
C270 C 0.87652 0.81474 0.60579 0.0
C271 C 0.91157 0.87477 0.58018 0.0
C272 C 0.96779 0.88663 0.55393 0.0
C273 C 0.99016 0.83937 0.55438 0.0
C274 C 0.95571 0.78241 0.58297 0.0
H275 H 0.8313 0.80483 0.62397 0.0
O276 O 0.79457 0.73346 0.71975 0.0
O277 O 0.84295 0.68226 0.68965 0.0
O278 O 0.68962 0.60068 0.65462 0.0
O279 O 0.76799 0.68325 0.62399 0.0
C280 C 0.04402 0.84765 0.52612 0.0
C281 C 0.06589 0.7998 0.52384 0.0
H282 H 0.05762 0.64537 0.56271 0.0
H283 H 0.0474 0.56819 0.58578 0.0
H284 H 0.89386 0.91087 0.57943 0.0
H285 H 0.99295 0.93207 0.53295 0.0
H286 H 0.0691 0.89204 0.50415 0.0
H287 H 0.10638 0.80905 0.50055 0.0
Mn288 Mn 0.09814 0.68246 0.06134 0.0
Mn289 Mn 0.16253 0.79563 0.97563 0.0
C290 C 0.08368 0.77663 0.04945 0.0
C291 C 0.06675 0.63709 0.13854 0.0
C292 C 0.06471 0.66419 0.95879 0.0
O293 O 0.18815 0.68218 0.05058 0.0
O294 O 0.21055 0.73875 0.98089 0.0
C295 C 0.27853 0.88017 0.03772 0.0
N296 N 0.2489 0.86593 0.98847 0.0
C297 C 0.36785 0.96392 0.93644 0.0
C298 C 0.42655 0.00231 0.97842 0.0
C299 C 0.40735 0.97765 0.03493 0.0
C300 C 0.28657 0.90065 0.94317 0.0
H301 H 0.2455 0.85178 0.06628 0.0
C302 C 0.22483 0.7071 1.01374 0.0
O303 O 0.04803 0.5992 0.1026 0.0
O304 O 0.11047 0.70008 0.1303 0.0
N305 N 0.18288 0.82537 0.91211 0.0
C306 C 0.1334 0.82167 0.88285 0.0
C307 C 0.1504 0.85531 0.84026 0.0
C308 C 0.21879 0.89745 0.8293 0.0
C309 C 0.26891 0.91065 0.8627 0.0
C310 C 0.24761 0.87587 0.905 0.0
H311 H 0.08057 0.79399 0.89259 0.0
O312 O 0.0326 0.72006 0.06375 0.0
O313 O 0.13689 0.77423 0.03836 0.0
O314 O 0.07179 0.63808 0.99596 0.0
O315 O 0.07219 0.72222 0.9605 0.0
C316 C 0.33675 0.96236 0.85583 0.0
C317 C 0.3853 0.98734 0.89145 0.0
H318 H 0.47284 0.04698 0.96907 0.0
H319 H 0.44145 0.00631 0.06222 0.0
H320 H 0.11076 0.85007 0.81657 0.0
H321 H 0.23187 0.9244 0.79673 0.0
H322 H 0.35188 0.98632 0.8223 0.0
H323 H 0.4362 0.02788 0.88408 0.0
Mn324 Mn 0.30159 0.08621 0.41479 0.0
Mn325 Mn 0.30744 0.1891 0.33297 0.0
C326 C 0.22698 0.13084 0.41593 0.0
C327 C 0.32931 0.05129 0.4859 0.0
C328 C 0.28023 0.06004 0.31663 0.0
O329 O 0.4049 0.14083 0.39069 0.0
O330 O 0.40283 0.2301 0.35562 0.0
C331 C 0.36467 0.32611 0.35302 0.0
N332 N 0.29928 0.26564 0.33692 0.0
C333 C 0.28084 0.31709 0.24761 0.0
C334 C 0.35294 0.39534 0.24472 0.0
C335 C 0.41104 0.42313 0.28997 0.0
C336 C 0.26007 0.25995 0.29139 0.0
H337 H 0.38544 0.31964 0.38576 0.0
C338 C 0.4356 0.20178 0.37264 0.0
O339 O 0.3106 0.01479 0.44956 0.0
O340 O 0.33573 0.11086 0.48084 0.0
N341 N 0.21403 0.14912 0.30992 0.0
C342 C 0.15586 0.08962 0.31779 0.0
C343 C 0.09731 0.07434 0.2912 0.0
C344 C 0.10077 0.11921 0.25577 0.0
C345 C 0.16001 0.18249 0.25114 0.0
C346 C 0.21114 0.19662 0.28325 0.0
H347 H 0.15479 0.05314 0.34239 0.0
O348 O 0.2093 0.07328 0.43622 0.0
O349 O 0.28411 0.15765 0.39585 0.0
O350 O 0.25584 0.02977 0.35421 0.0
O351 O 0.32474 0.11931 0.31875 0.0
C352 C 0.16965 0.23116 0.21652 0.0
C353 C 0.23032 0.29504 0.21318 0.0
H354 H 0.36162 0.42772 0.21502 0.0
H355 H 0.45638 0.47106 0.28745 0.0
H356 H 0.05119 0.02682 0.29658 0.0
H357 H 0.0573 0.10527 0.23327 0.0
H358 H 0.1304 0.21867 0.19059 0.0
H359 H 0.23622 0.32833 0.18451 0.0
Mn360 Mn 0.24661 0.3454 0.71396 0.0
Mn361 Mn 0.16991 0.32395 0.61224 0.0
C362 C 0.15281 0.24006 0.68842 0.0
C363 C 0.26706 0.3373 0.79555 0.0
C364 C 0.29928 0.36989 0.61675 0.0
O365 O 0.25406 0.4367 0.71337 0.0
O366 O 0.21527 0.42199 0.63952 0.0
C367 C 0.0748 0.3758 0.62387 0.0
N368 N 0.08672 0.32173 0.60384 0.0
C369 C 0.99412 0.28141 0.52442 0.0
C370 C 0.96079 0.33436 0.52616 0.0
C371 C 0.98674 0.39444 0.57254 0.0
C372 C 0.05171 0.27818 0.56128 0.0
H373 H 0.10485 0.401 0.65423 0.0
C374 C 0.24193 0.45958 0.67591 0.0
O375 O 0.31555 0.36394 0.76582 0.0
O376 O 0.20743 0.32028 0.77881 0.0
N377 N 0.12431 0.23747 0.58155 0.0
C378 C 0.14811 0.1936 0.57657 0.0
C379 C 0.11925 0.14346 0.54319 0.0
C380 C 0.06816 0.14032 0.51366 0.0
C381 C 0.04488 0.18643 0.51808 0.0
C382 C 0.07322 0.23321 0.55356 0.0
H383 H 0.18935 0.19704 0.59773 0.0
O384 O 0.20717 0.24394 0.70727 0.0
O385 O 0.15822 0.29658 0.67623 0.0
O386 O 0.31641 0.39252 0.6569 0.0
O387 O 0.24883 0.31392 0.61804 0.0
C388 C -0.00418 0.1869 0.48739 0.0
C389 C 0.97204 0.2333 0.48997 0.0
H390 H 0.96716 0.36923 0.54699 0.0
H391 H 0.97085 0.43616 0.57931 0.0
H392 H 0.13776 0.10841 0.53932 0.0
H393 H 0.04761 0.10248 0.4872 0.0
H394 H 0.97571 0.15052 0.45999 0.0
H395 H 0.93497 0.23075 0.46489 0.0
Mn396 Mn 0.8705 0.29582 0.05725 0.0
Mn397 Mn 0.74749 0.19124 0.99107 0.0
C398 C 0.86678 0.19224 0.034 0.0
C399 C 0.92778 0.34304 0.13116 0.0
C400 C 0.83398 0.32221 0.96303 0.0
O401 O 0.78162 0.30808 0.06671 0.0
O402 O 0.70204 0.2036 0.04412 0.0
C403 C 0.65829 0.07009 0.03812 0.0
N404 N 0.70599 0.0992 0.99723 0.0
C405 C 0.61488 0.02007 0.92231 0.0
C406 C 0.53969 0.97174 0.95038 0.0
C407 C 0.53533 0.97853 1.00901 0.0
C408 C 0.68948 0.07811 0.94623 0.0
H409 H 0.67945 0.08993 0.0721 0.0
C410 C 0.71768 0.26011 0.06228 0.0
O411 O 0.94132 0.37811 0.09338 0.0
O412 O 0.87769 0.28171 0.12715 0.0
N413 N 0.78906 0.17653 0.93743 0.0
C414 C 0.85275 0.20814 0.91912 0.0
C415 C 0.8627 0.18764 0.87601 0.0
C416 C 0.80702 0.13551 0.85234 0.0
C417 C 0.74319 0.10052 0.87356 0.0
C418 C 0.73987 0.11943 0.91797 0.0
H419 H 0.89518 0.24856 0.93689 0.0
O420 O 0.92344 0.24385 0.0474 0.0
O421 O 0.81711 0.20363 0.03517 0.0
O422 O 0.88654 0.33294 0.98674 0.0
O423 O 0.7798 0.28613 0.98216 0.0
C424 C 0.68422 0.04745 0.85258 0.0
C425 C 0.62082 0.0109 0.87549 0.0
H426 H 0.49579 0.93402 0.93186 0.0
H427 H 0.49189 0.94129 0.02747 0.0
H428 H 0.91249 0.21324 0.86048 0.0
H429 H 0.81443 0.12163 0.81853 0.0
H430 H 0.68686 0.03486 0.81733 0.0
H431 H 0.57706 0.97293 0.85694 0.0
C432 C 0.40651 0.65957 0.29478 0.0
C433 C 0.36506 0.63616 0.33416 0.0
H434 H 0.50723 0.72198 0.26793 0.0
C435 C 0.39228 0.67212 0.37495 0.0
H436 H 0.38746 0.63351 0.2626 0.0
C437 C 0.4614 0.72277 0.37803 0.0
C438 C 0.50596 0.73917 0.34047 0.0
H439 H 0.36211 0.65695 0.40582 0.0
H440 H 0.48099 0.74532 0.41117 0.0
C441 C 0.47609 0.70977 0.29804 0.0
C442 C 0.72129 0.34181 0.69891 0.0
C443 C 0.73541 0.32226 0.65671 0.0
H444 H 0.72038 0.4207 0.73743 0.0
C445 C 0.7426 0.36332 0.61806 0.0
H446 H 0.71413 0.31129 0.72949 0.0
C447 C 0.74938 0.42784 0.62298 0.0
C448 C 0.7448 0.4518 0.66621 0.0
H449 H 0.7521 0.3496 0.58478 0.0
H450 H 0.76319 0.46073 0.59328 0.0
C451 C 0.72624 0.40568 0.7036 0.0
C452 C 0.39977 0.74275 0.97099 0.0
C453 C 0.4278 0.72617 1.00938 0.0
H454 H 0.31434 0.74668 0.94095 0.0
C455 C 0.38418 0.69385 0.04681 0.0
H456 H 0.43183 0.76939 0.94199 0.0
C457 C 0.31669 0.68282 0.04701 0.0
C458 C 0.2902 0.70372 1.00971 0.0
H459 H 0.40407 0.68233 0.07768 0.0
H460 H 0.28704 0.66219 0.07788 0.0
C461 C 0.33205 0.7304 0.97072 0.0
C462 C 0.53577 0.26984 0.32179 0.0
C463 C 0.51156 0.24233 0.36587 0.0
H464 H 0.61427 0.35004 0.28176 0.0
C465 C 0.5578 0.26903 0.40299 0.0
H466 H 0.50169 0.25118 0.29238 0.0
C467 C 0.62399 0.32522 0.39653 0.0
C468 C 0.64491 0.3572 0.35302 0.0
H469 H 0.54093 0.25054 0.43752 0.0
H470 H 0.65598 0.34778 0.42642 0.0
C471 C 0.60072 0.32671 0.31554 0.0
C472 C 0.28555 0.63699 0.71388 0.0
C473 C 0.27347 0.66391 0.67311 0.0
H474 H 0.28355 0.55109 0.74711 0.0
C475 C 0.26708 0.63011 0.63208 0.0
H476 H 0.29267 0.66246 0.74613 0.0
C477 C 0.25836 0.56474 0.63301 0.0
C478 C 0.26079 0.53307 0.67431 0.0
H479 H 0.25894 0.64987 0.59992 0.0
H480 H 0.24327 0.53681 0.60186 0.0
C481 C 0.27917 0.57225 0.71448 0.0
C482 C 0.63055 0.28242 0.02302 0.0
C483 C 0.65696 0.27087 0.06462 0.0
H484 H 0.54221 0.26824 0.98404 0.0
C485 C 0.61108 0.24299 0.10139 0.0
H486 H 0.66266 0.30059 0.99304 0.0
C487 C 0.54142 0.22414 0.09608 0.0
C488 C 0.51428 0.23152 0.05362 0.0
H489 H 0.62759 0.22997 0.1332 0.0
H490 H 0.50749 0.19883 0.12451 0.0
C491 C 0.56071 0.26302 1.01756 0.0
C492 C 0.24499 0.29677 0.43326 0.0
C493 C 0.19082 0.29198 0.40679 0.0
H494 H 0.29479 0.24573 0.46132 0.0
C495 C 0.1374 0.22748 0.39484 0.0
H496 H 0.28536 0.34492 0.44434 0.0
C497 C 0.14259 0.16982 0.40444 0.0
C498 C 0.20087 0.17623 0.42657 0.0
H499 H 0.09373 0.222 0.3754 0.0
H500 H 0.1041 0.12169 0.39122 0.0
C501 C 0.24917 0.23936 0.44404 0.0
C502 C -0.00332 0.19883 0.74432 0.0
C503 C 0.95584 0.18266 0.70471 0.0
H504 H 0.09329 0.22101 0.77249 0.0
C505 C 0.97348 0.15808 0.66679 0.0
H506 H 0.98055 0.21032 0.7759 0.0
C507 C 0.03572 0.15927 0.66612 0.0
C508 C 0.08324 0.18914 0.70188 0.0
H509 H 0.93961 0.13901 0.6373 0.0
H510 H 0.04869 0.14206 0.6359 0.0
C511 C 0.05995 0.20182 0.74295 0.0
C512 C 0.8473 0.08735 0.07728 0.0
C513 C 0.85267 0.12049 0.03499 0.0
H514 H 0.81443 -0.00672 0.1128 0.0
C515 C 0.82927 0.08008 0.99569 0.0
H516 H 0.86689 0.11631 0.10835 0.0
C517 C 0.79072 0.00935 0.99924 0.0
C518 C 0.77825 0.97636 0.04211 0.0
H519 H 0.83816 0.10246 0.96207 0.0
H520 H 0.76931 0.98046 0.96831 0.0
C521 C 0.81352 0.01621 0.08031 0.0
C522 C 0.79991 0.78775 0.43606 0.0
C523 C 0.83636 0.84223 0.40539 0.0
H524 H 0.76954 0.6853 0.45347 0.0
C525 C 0.88276 0.83839 0.37632 0.0
H526 H 0.76522 0.78952 0.46035 0.0
C527 C 0.87983 0.77642 0.36964 0.0
C528 C 0.8331 0.71832 0.3941 0.0
H529 H 0.91637 0.88134 0.35542 0.0
H530 H 0.91201 0.77334 0.34388 0.0
C531 C 0.79822 0.72631 0.4302 0.0
C532 C -0.0041 0.73687 0.7525 0.0
C533 C 0.04641 0.7868 0.72518 0.0
H534 H 0.89543 0.69287 0.77693 0.0
C535 C 0.03378 0.8354 0.70366 0.0
H536 H 0.00253 0.69774 0.76873 0.0
C537 C 0.96898 0.82896 0.70502 0.0
C538 C 0.91666 0.77525 0.72933 0.0
H539 H 0.07279 0.87592 0.68326 0.0
H540 H 0.95824 0.86169 0.68342 0.0
C541 C 0.93405 0.7351 0.75775 0.0
C542 C 0.1562 0.95131 1.00652 0.0
C543 C 0.1552 0.98365 0.04633 0.0
H544 H 0.12073 0.85823 0.97287 0.0
C545 C 0.1069 0.94498 0.08018 0.0
H546 H 0.18819 0.97999 0.97797 0.0
C547 C 0.07452 0.87396 0.07967 0.0
C548 C 0.08435 0.8416 0.04257 0.0
H549 H 0.09867 0.96904 0.10896 0.0
H550 H 0.04703 0.84524 0.10969 0.0
C551 C 0.11825 0.88124 1.00391 0.0
C552 C 0.94548 0.34969 0.2195 0.0
C553 C 0.97203 0.36956 0.1747 0.0
H554 H 0.96529 0.35547 0.29282 0.0
C555 C 0.04318 0.41325 0.17176 0.0
H556 H 0.89137 0.3162 0.22382 0.0
C557 C 0.08603 0.43377 0.2114 0.0
C558 C 0.05966 0.41423 0.25619 0.0
H559 H 0.06644 0.42978 0.13837 0.0
H560 H 0.14043 0.46515 0.20689 0.0
C561 C 0.98816 0.37264 0.25938 0.0
C562 C 0.67638 0.04566 0.55258 0.0
C563 C 0.69263 0.02683 0.59513 0.0
H564 H 0.66012 0.02835 0.48034 0.0
C565 C 0.70167 0.96996 0.5962 0.0
H566 H 0.67127 0.09028 0.54998 0.0
C567 C 0.69677 0.9346 0.55554 0.0
C568 C 0.6829 0.95532 0.51262 0.0
H569 H 0.71687 0.95546 0.62797 0.0
H570 H 0.70682 0.89301 0.55745 0.0
C571 C 0.67087 0.01029 0.51233 0.0
C572 C 0.71375 0.67292 0.92113 0.0
C573 C 0.67015 0.70053 0.92014 0.0
H574 H 0.76241 0.62917 0.88266 0.0
C575 C 0.63767 0.69928 0.87821 0.0
H576 H 0.73998 0.67326 0.95269 0.0
C577 C 0.64823 0.67134 0.83863 0.0
C578 C 0.69367 0.6459 0.83904 0.0
H579 H 0.60376 0.71988 0.876 0.0
H580 H 0.62276 0.67226 0.807 0.0
C581 C 0.7265 0.64739 0.88096 0.0
C582 C 0.04883 0.65596 0.22233 0.0
C583 C 0.03116 0.61234 0.18458 0.0
H584 H 0.02317 0.67254 0.28998 0.0
C585 C 0.97356 0.54731 0.18978 0.0
H586 H 0.09204 0.70655 0.22003 0.0
C587 C 0.93352 0.52803 0.23003 0.0
C588 C 0.95022 0.57246 0.26707 0.0
H589 H 0.95742 0.51203 0.16179 0.0
H590 H 0.88804 0.4789 0.23154 0.0
C591 C 0.00922 0.63633 0.26275 0.0
C592 C 0.33259 0.9587 0.53154 0.0
C593 C 0.33511 0.0215 0.53108 0.0
H594 H 0.31742 0.87215 0.57088 0.0
C595 C 0.33432 0.04932 0.57369 0.0
H596 H 0.33327 0.93545 0.49972 0.0
C597 C 0.32622 0.01275 0.61519 0.0
C598 C 0.31885 0.94781 0.61478 0.0
H599 H 0.33561 0.09725 0.57476 0.0
H600 H 0.32046 0.03297 0.64699 0.0
C601 C 0.3241 0.9224 0.57255 0.0
C602 C 0.33524 0.27745 0.89729 0.0
C603 C 0.29106 0.26904 0.93344 0.0
H604 H 0.3642 0.30754 0.82705 0.0
C605 C 0.24088 0.28734 0.92449 0.0
H606 H 0.37406 0.2634 0.90249 0.0
C607 C 0.23353 0.31055 0.8803 0.0
C608 C 0.27773 0.31863 0.84408 0.0
H609 H 0.20518 0.28068 0.95105 0.0
H610 H 0.19263 0.32145 0.87433 0.0
C611 C 0.32958 0.30297 0.85382 0.0
C612 C 0.30281 0.51234 0.53888 0.0
C613 C 0.25972 0.47363 0.50232 0.0
H614 H 0.35336 0.51237 0.60314 0.0
C615 C 0.23334 0.40411 0.50488 0.0
H616 H 0.32526 0.56665 0.53789 0.0
C617 C 0.25521 0.37471 0.53842 0.0
C618 C 0.29713 0.41145 0.57582 0.0
H619 H 0.19764 0.37195 0.47939 0.0
H620 H 0.23614 0.32115 0.53583 0.0
C621 C 0.32134 0.48163 0.57534 0.0
C622 C 0.88161 0.3511 0.88218 0.0
C623 C 0.82663 0.32039 0.9117 0.0
H624 H 0.9145 0.36033 0.81403 0.0
C625 C 0.7611 0.2761 0.89208 0.0
H626 H 0.93168 0.38754 0.89481 0.0
C627 C 0.75374 0.25284 0.84708 0.0
C628 C 0.81027 0.27863 0.81886 0.0
H629 H 0.7157 0.25309 0.91287 0.0
H630 H 0.7043 0.21455 0.83469 0.0
C631 C 0.87227 0.33244 0.83598 0.0
C632 C 0.71989 0.86775 0.22147 0.0
C633 C 0.68078 0.88414 0.25019 0.0
H634 H 0.7248 0.81309 0.16517 0.0
C635 C 0.61104 0.8559 0.23985 0.0
H636 H 0.77444 0.89308 0.22488 0.0
C637 C 0.58286 0.81396 0.20129 0.0
C638 C 0.62338 0.79799 0.17336 0.0
H639 H 0.57894 0.8668 0.26089 0.0
H640 H 0.53029 0.79681 0.19199 0.0
C641 C 0.69114 0.8219 0.18621 0.0
C642 C 0.79493 0.59204 0.51678 0.0
C643 C 0.7495 0.52466 0.50674 0.0
H644 H 0.81296 0.67881 0.55166 0.0
C645 C 0.69037 0.48927 0.53398 0.0
H646 H 0.83713 0.62273 0.49429 0.0
C647 C 0.67762 0.52158 0.57032 0.0
C648 C 0.72159 0.59083 0.57794 0.0
H649 H 0.6528 0.43781 0.52583 0.0
H650 H 0.63292 0.49328 0.59128 0.0
C651 C 0.77946 0.62502 0.54964 0.0
C652 C 0.06115 0.66959 0.87522 0.0
C653 C 0.08365 0.64888 0.91398 0.0
H654 H 0.08883 0.72054 0.81049 0.0
C655 C 0.14206 0.64216 0.90971 0.0
H656 H 0.01541 0.67343 0.87662 0.0
C657 C 0.18274 0.66672 0.87003 0.0
C658 C 0.16577 0.69925 0.83505 0.0
H659 H 0.15927 0.62321 0.93822 0.0
H660 H 0.22808 0.6625 0.86746 0.0
C661 C 0.1039 0.69842 0.83781 0.0
C662 C 0.21766 0.0486 0.2462 0.0
C663 C 0.26463 0.03503 0.26944 0.0
H664 H 0.20017 0.10669 0.19374 0.0
C665 C 0.32509 0.05341 0.24597 0.0
H666 H 0.1649 0.02032 0.25564 0.0
C667 C 0.34657 0.10204 0.21077 0.0
C668 C 0.30296 0.1243 0.19152 0.0
H669 H 0.36214 0.04156 0.26097 0.0
H670 H 0.39679 0.11949 0.19697 0.0
C671 C 0.23785 0.09734 0.2104 0.0
loop_
_geom_bond_atom_site_label_1
_geom_bond_atom_site_label_2
_geom_bond_distance
_geom_bond_site_symmetry_2
_ccdc_geom_bond_type
Mn0 O5 2.095 . S
Mn0 O15 2.162 . S
Mn0 O16 2.297 . S
Mn0 O24 2.385 . S
Mn0 O25 2.209 . S
Mn0 O26 2.094 . S
Mn1 O6 2.121 . S
Mn1 N8 2.257 . S
Mn1 N17 2.282 . S
Mn1 O25 2.215 . S
Mn1 O27 2.117 . S
C2 O24 1.234 . S
C2 O25 1.283 . S
C3 O15 1.281 . S
C3 O16 1.236 . S
C4 O26 1.240 . S
C4 O27 1.264 . S
O5 Mn0 2.095 . S
O5 C14 1.250 . S
O6 Mn1 2.121 . S
O6 C14 1.258 . S
C7 N8 1.326 . S
C7 C11 1.460 . S
C7 H13 0.929 . S
N8 Mn1 2.257 . S
N8 C7 1.326 . S
N8 C12 1.362 . S
C9 C10 1.258 . S
C9 C12 1.431 . S
C9 C29 1.449 . S
C10 C9 1.258 . S
C10 C11 1.477 . S
C10 H30 0.931 . S
C11 C7 1.460 . S
C11 C10 1.477 . S
C11 H31 0.930 . S
C12 N8 1.362 . S
C12 C9 1.431 . S
C12 C22 1.476 . S
H13 C7 0.929 . S
C14 O5 1.250 . S
C14 O6 1.258 . S
O15 Mn0 2.162 . S
O15 C3 1.281 . S
O16 Mn0 2.297 . S
O16 C3 1.236 . S
N17 Mn1 2.282 . S
N17 C18 1.328 . S
N17 C22 1.318 . S
C18 N17 1.328 . S
C18 C19 1.457 . S
C18 H23 0.929 . S
C19 C18 1.457 . S
C19 C20 1.291 . S
C19 H32 0.931 . S
C20 C19 1.291 . S
C20 C21 1.373 . S
C20 H33 0.929 . S
C21 C20 1.373 . S
C21 C22 1.396 . S
C21 C28 1.403 . S
C22 C12 1.476 . S
C22 N17 1.318 . S
C22 C21 1.396 . S
H23 C18 0.929 . S
O24 Mn0 2.385 . S
O24 C2 1.234 . S
O25 Mn0 2.209 . S
O25 Mn1 2.215 . S
O25 C2 1.283 . S
O26 Mn0 2.094 . S
O26 C4 1.240 . S
O27 Mn1 2.117 . S
O27 C4 1.264 . S
C28 C21 1.403 . S
C28 C29 1.399 . S
C28 H34 0.929 . S
C29 C9 1.449 . S
C29 C28 1.399 . S
C29 H35 0.930 . S
H30 C10 0.931 . S
H31 C11 0.930 . S
H32 C19 0.931 . S
H33 C20 0.929 . S
H34 C28 0.929 . S
H35 C29 0.930 . S
Mn36 O41 2.095 . S
Mn36 O51 2.162 . S
Mn36 O52 2.297 . S
Mn36 O60 2.385 . S
Mn36 O61 2.209 . S
Mn36 O62 2.094 . S
Mn37 O42 2.121 . S
Mn37 N44 2.257 . S
Mn37 N53 2.282 . S
Mn37 O61 2.215 . S
Mn37 O63 2.117 . S
C38 O60 1.234 . S
C38 O61 1.283 . S
C39 O51 1.281 . S
C39 O52 1.236 . S
C40 O62 1.240 . S
C40 O63 1.264 . S
O41 Mn36 2.095 . S
O41 C50 1.250 . S
O42 Mn37 2.121 . S
O42 C50 1.258 . S
C43 N44 1.326 . S
C43 C47 1.460 1_655 S
C43 H49 0.929 . S
N44 Mn37 2.257 . S
N44 C43 1.326 . S
N44 C48 1.362 1_655 S
C45 C46 1.258 . S
C45 C48 1.431 . S
C45 C65 1.449 . S
C46 C45 1.258 . S
C46 C47 1.477 . S
C46 H66 0.931 . S
C47 C43 1.460 1_455 S
C47 C46 1.477 . S
C47 H67 0.930 1_455 S
C48 N44 1.362 1_455 S
C48 C45 1.431 . S
C48 C58 1.476 . S
H49 C43 0.929 . S
C50 O41 1.250 . S
C50 O42 1.258 . S
O51 Mn36 2.162 . S
O51 C39 1.281 . S
O52 Mn36 2.297 . S
O52 C39 1.236 . S
N53 Mn37 2.282 . S
N53 C54 1.328 . S
N53 C58 1.318 1_655 S
C54 N53 1.328 . S
C54 C55 1.457 1_655 S
C54 H59 0.929 . S
C55 C54 1.457 1_455 S
C55 C56 1.291 . S
C55 H68 0.931 . S
C56 C55 1.291 . S
C56 C57 1.373 . S
C56 H69 0.929 . S
C57 C56 1.373 . S
C57 C58 1.396 . S
C57 C64 1.403 . S
C58 C48 1.476 . S
C58 N53 1.318 1_455 S
C58 C57 1.396 . S
H59 C54 0.929 . S
O60 Mn36 2.385 . S
O60 C38 1.234 . S
O61 Mn36 2.209 . S
O61 Mn37 2.215 . S
O61 C38 1.283 . S
O62 Mn36 2.094 . S
O62 C40 1.240 . S
O63 Mn37 2.117 . S
O63 C40 1.264 . S
C64 C57 1.403 . S
C64 C65 1.399 . S
C64 H70 0.929 . S
C65 C45 1.449 . S
C65 C64 1.399 . S
C65 H71 0.930 . S
H66 C46 0.931 . S
H67 C47 0.930 1_655 S
H68 C55 0.931 . S
H69 C56 0.929 . S
H70 C64 0.929 . S
H71 C65 0.930 . S
Mn72 O77 2.095 1_556 S
Mn72 O87 2.162 . S
Mn72 O88 2.297 . S
Mn72 O96 2.385 . S
Mn72 O97 2.209 . S
Mn72 O98 2.094 1_556 S
Mn73 O78 2.121 . S
Mn73 N80 2.257 . S
Mn73 N89 2.282 . S
Mn73 O97 2.215 1_554 S
Mn73 O99 2.117 . S
C74 O96 1.234 . S
C74 O97 1.283 . S
C75 O87 1.281 . S
C75 O88 1.236 . S
C76 O98 1.240 . S
C76 O99 1.264 . S
O77 Mn72 2.095 1_554 S
O77 C86 1.250 1_554 S
O78 Mn73 2.121 . S
O78 C86 1.258 1_554 S
C79 N80 1.326 1_556 S
C79 C83 1.457 1_565 S
C79 H85 0.929 . S
N80 Mn73 2.257 . S
N80 C79 1.326 1_554 S
N80 C84 1.362 1_565 S
C81 C82 1.258 . S
C81 C84 1.431 . S
C81 C101 1.449 . S
C82 C81 1.258 . S
C82 C83 1.479 1_554 S
C82 H102 0.931 1_554 S
C83 C79 1.457 1_545 S
C83 C82 1.479 1_556 S
C83 H103 0.937 1_545 S
C84 N80 1.362 1_545 S
C84 C81 1.431 . S
C84 C94 1.476 . S
H85 C79 0.929 . S
C86 O77 1.250 1_556 S
C86 O78 1.258 1_556 S
O87 Mn72 2.162 . S
O87 C75 1.281 . S
O88 Mn72 2.297 . S
O88 C75 1.236 . S
N89 Mn73 2.282 . S
N89 C90 1.328 . S
N89 C94 1.318 1_565 S
C90 N89 1.328 . S
C90 C91 1.457 1_565 S
C90 H95 0.929 . S
C91 C90 1.457 1_545 S
C91 C92 1.291 . S
C91 H104 0.931 . S
C92 C91 1.291 . S
C92 C93 1.373 . S
C92 H105 0.929 . S
C93 C92 1.373 . S
C93 C94 1.396 . S
C93 C100 1.403 . S
C94 C84 1.476 . S
C94 N89 1.318 1_545 S
C94 C93 1.396 . S
H95 C90 0.929 . S
O96 Mn72 2.385 . S
O96 C74 1.234 . S
O97 Mn72 2.209 . S
O97 Mn73 2.215 1_556 S
O97 C74 1.283 . S
O98 Mn72 2.094 1_554 S
O98 C76 1.240 . S
O99 Mn73 2.117 . S
O99 C76 1.264 . S
C100 C93 1.403 . S
C100 C101 1.399 . S
C100 H106 0.929 . S
C101 C81 1.449 . S
C101 C100 1.399 . S
C101 H107 0.930 . S
H102 C82 0.931 1_556 S
H103 C83 0.937 1_565 S
H104 C91 0.931 . S
H105 C92 0.929 . S
H106 C100 0.929 . S
H107 C101 0.930 . S
Mn108 O113 2.095 . S
Mn108 O123 2.162 . S
Mn108 O124 2.297 . S
Mn108 O132 2.385 . S
Mn108 O133 2.209 . S
Mn108 O134 2.094 . S
Mn109 O114 2.121 . S
Mn109 N116 2.257 . S
Mn109 N125 2.282 . S
Mn109 O133 2.215 . S
Mn109 O135 2.117 . S
C110 O132 1.234 . S
C110 O133 1.283 . S
C111 O123 1.281 . S
C111 O124 1.236 . S
C112 O134 1.240 . S
C112 O135 1.264 . S
O113 Mn108 2.095 . S
O113 C122 1.250 . S
O114 Mn109 2.121 . S
O114 C122 1.258 . S
C115 N116 1.326 . S
C115 C119 1.460 . S
C115 H121 0.929 . S
N116 Mn109 2.257 . S
N116 C115 1.326 . S
N116 C120 1.362 . S
C117 C118 1.258 . S
C117 C120 1.431 . S
C117 C137 1.449 . S
C118 C117 1.258 . S
C118 C119 1.477 . S
C118 H138 0.931 . S
C119 C115 1.460 . S
C119 C118 1.477 . S
C119 H139 0.930 . S
C120 N116 1.362 . S
C120 C117 1.431 . S
C120 C130 1.476 . S
H121 C115 0.929 . S
C122 O113 1.250 . S
C122 O114 1.258 . S
O123 Mn108 2.162 . S
O123 C111 1.281 . S
O124 Mn108 2.297 . S
O124 C111 1.236 . S
N125 Mn109 2.282 . S
N125 C126 1.328 . S
N125 C130 1.318 . S
C126 N125 1.328 . S
C126 C127 1.457 . S
C126 H131 0.929 . S
C127 C126 1.457 . S
C127 C128 1.291 . S
C127 H140 0.931 . S
C128 C127 1.291 . S
C128 C129 1.373 . S
C128 H141 0.929 . S
C129 C128 1.373 . S
C129 C130 1.396 . S
C129 C136 1.403 . S
C130 C120 1.476 . S
C130 N125 1.318 . S
C130 C129 1.396 . S
H131 C126 0.929 . S
O132 Mn108 2.385 . S
O132 C110 1.234 . S
O133 Mn108 2.209 . S
O133 Mn109 2.215 . S
O133 C110 1.283 . S
O134 Mn108 2.094 . S
O134 C112 1.240 . S
O135 Mn109 2.117 . S
O135 C112 1.264 . S
C136 C129 1.403 . S
C136 C137 1.399 . S
C136 H142 0.929 . S
C137 C117 1.449 . S
C137 C136 1.399 . S
C137 H143 0.930 . S
H138 C118 0.931 . S
H139 C119 0.930 . S
H140 C127 0.931 . S
H141 C128 0.929 . S
H142 C136 0.929 . S
H143 C137 0.930 . S
Mn144 O149 2.095 . S
Mn144 O159 2.162 . S
Mn144 O160 2.297 . S
Mn144 O168 2.385 . S
Mn144 O169 2.209 . S
Mn144 O170 2.094 . S
Mn145 O150 2.121 . S
Mn145 N152 2.257 . S
Mn145 N161 2.282 . S
Mn145 O169 2.215 . S
Mn145 O171 2.117 . S
C146 O168 1.234 . S
C146 O169 1.283 . S
C147 O159 1.281 . S
C147 O160 1.236 . S
C148 O170 1.240 . S
C148 O171 1.264 . S
O149 Mn144 2.095 . S
O149 C158 1.250 . S
O150 Mn145 2.121 . S
O150 C158 1.258 . S
C151 N152 1.326 . S
C151 C155 1.460 1_455 S
C151 H157 0.929 . S
N152 Mn145 2.257 . S
N152 C151 1.326 . S
N152 C156 1.362 1_455 S
C153 C154 1.258 . S
C153 C156 1.431 . S
C153 C173 1.449 . S
C154 C153 1.258 . S
C154 C155 1.477 . S
C154 H174 0.931 . S
C155 C151 1.460 1_655 S
C155 C154 1.477 . S
C155 H175 0.930 1_655 S
C156 N152 1.362 1_655 S
C156 C153 1.431 . S
C156 C166 1.476 . S
H157 C151 0.929 . S
C158 O149 1.250 . S
C158 O150 1.258 . S
O159 Mn144 2.162 . S
O159 C147 1.281 . S
O160 Mn144 2.297 . S
O160 C147 1.236 . S
N161 Mn145 2.282 . S
N161 C162 1.328 . S
N161 C166 1.318 1_455 S
C162 N161 1.328 . S
C162 C163 1.457 1_455 S
C162 H167 0.929 . S
C163 C162 1.457 1_655 S
C163 C164 1.291 . S
C163 H176 0.931 . S
C164 C163 1.291 . S
C164 C165 1.373 . S
C164 H177 0.929 . S
C165 C164 1.373 . S
C165 C166 1.396 . S
C165 C172 1.403 . S
C166 C156 1.476 . S
C166 N161 1.318 1_655 S
C166 C165 1.396 . S
H167 C162 0.929 . S
O168 Mn144 2.385 . S
O168 C146 1.234 . S
O169 Mn144 2.209 . S
O169 Mn145 2.215 . S
O169 C146 1.283 . S
O170 Mn144 2.094 . S
O170 C148 1.240 . S
O171 Mn145 2.117 . S
O171 C148 1.264 . S
C172 C165 1.403 . S
C172 C173 1.399 . S
C172 H178 0.929 . S
C173 C153 1.449 . S
C173 C172 1.399 . S
C173 H179 0.930 . S
H174 C154 0.931 . S
H175 C155 0.930 1_455 S
H176 C163 0.931 . S
H177 C164 0.929 . S
H178 C172 0.929 . S
H179 C173 0.930 . S
Mn180 O185 2.095 1_556 S
Mn180 O195 2.162 . S
Mn180 O196 2.297 . S
Mn180 O204 2.385 . S
Mn180 O205 2.209 . S
Mn180 O206 2.094 1_556 S
Mn181 O186 2.121 . S
Mn181 N188 2.257 . S
Mn181 N197 2.282 . S
Mn181 O205 2.215 1_554 S
Mn181 O207 2.117 . S
C182 O204 1.234 . S
C182 O205 1.283 . S
C183 O195 1.281 . S
C183 O196 1.236 . S
C184 O206 1.240 . S
C184 O207 1.264 . S
O185 Mn180 2.095 1_554 S
O185 C194 1.250 1_554 S
O186 Mn181 2.121 . S
O186 C194 1.258 1_554 S
C187 N188 1.326 1_556 S
C187 C191 1.457 1_545 S
C187 H193 0.929 . S
N188 Mn181 2.257 . S
N188 C187 1.326 1_554 S
N188 C192 1.362 1_545 S
C189 C190 1.258 . S
C189 C192 1.431 . S
C189 C209 1.449 . S
C190 C189 1.258 . S
C190 C191 1.479 1_554 S
C190 H210 0.931 1_554 S
C191 C187 1.457 1_565 S
C191 C190 1.479 1_556 S
C191 H211 0.937 1_565 S
C192 N188 1.362 1_565 S
C192 C189 1.431 . S
C192 C202 1.476 . S
H193 C187 0.929 . S
C194 O185 1.250 1_556 S
C194 O186 1.258 1_556 S
O195 Mn180 2.162 . S
O195 C183 1.281 . S
O196 Mn180 2.297 . S
O196 C183 1.236 . S
N197 Mn181 2.282 . S
N197 C198 1.328 . S
N197 C202 1.318 1_545 S
C198 N197 1.328 . S
C198 C199 1.457 1_545 S
C198 H203 0.929 . S
C199 C198 1.457 1_565 S
C199 C200 1.291 . S
C199 H212 0.931 . S
C200 C199 1.291 . S
C200 C201 1.373 . S
C200 H213 0.929 . S
C201 C200 1.373 . S
C201 C202 1.396 . S
C201 C208 1.403 . S
C202 C192 1.476 . S
C202 N197 1.318 1_565 S
C202 C201 1.396 . S
H203 C198 0.929 . S
O204 Mn180 2.385 . S
O204 C182 1.234 . S
O205 Mn180 2.209 . S
O205 Mn181 2.215 1_556 S
O205 C182 1.283 . S
O206 Mn180 2.094 1_554 S
O206 C184 1.240 . S
O207 Mn181 2.117 . S
O207 C184 1.264 . S
C208 C201 1.403 . S
C208 C209 1.399 . S
C208 H214 0.929 . S
C209 C189 1.449 . S
C209 C208 1.399 . S
C209 H215 0.930 . S
H210 C190 0.931 1_556 S
H211 C191 0.937 1_545 S
H212 C199 0.931 . S
H213 C200 0.929 . S
H214 C208 0.929 . S
H215 C209 0.930 . S
Mn216 O221 2.095 . S
Mn216 O231 2.162 . S
Mn216 O232 2.297 . S
Mn216 O240 2.385 . S
Mn216 O241 2.209 . S
Mn216 O242 2.094 . S
Mn217 O222 2.121 . S
Mn217 N224 2.257 . S
Mn217 N233 2.282 . S
Mn217 O241 2.215 . S
Mn217 O243 2.117 . S
C218 O240 1.234 . S
C218 O241 1.283 . S
C219 O231 1.281 . S
C219 O232 1.236 . S
C220 O242 1.240 . S
C220 O243 1.264 . S
O221 Mn216 2.095 . S
O221 C230 1.250 . S
O222 Mn217 2.121 . S
O222 C230 1.258 . S
C223 N224 1.326 . S
C223 C227 1.460 . S
C223 H229 0.929 . S
N224 Mn217 2.257 . S
N224 C223 1.326 . S
N224 C228 1.362 . S
C225 C226 1.258 . S
C225 C228 1.431 . S
C225 C245 1.449 . S
C226 C225 1.258 . S
C226 C227 1.477 . S
C226 H246 0.931 . S
C227 C223 1.460 . S
C227 C226 1.477 . S
C227 H247 0.930 . S
C228 N224 1.362 . S
C228 C225 1.431 . S
C228 C238 1.476 . S
H229 C223 0.929 . S
C230 O221 1.250 . S
C230 O222 1.258 . S
O231 Mn216 2.162 . S
O231 C219 1.281 . S
O232 Mn216 2.297 . S
O232 C219 1.236 . S
N233 Mn217 2.282 . S
N233 C234 1.328 . S
N233 C238 1.318 . S
C234 N233 1.328 . S
C234 C235 1.457 . S
C234 H239 0.929 . S
C235 C234 1.457 . S
C235 C236 1.291 . S
C235 H248 0.931 . S
C236 C235 1.291 . S
C236 C237 1.373 . S
C236 H249 0.929 . S
C237 C236 1.373 . S
C237 C238 1.396 . S
C237 C244 1.403 . S
C238 C228 1.476 . S
C238 N233 1.318 . S
C238 C237 1.396 . S
H239 C234 0.929 . S
O240 Mn216 2.385 . S
O240 C218 1.234 . S
O241 Mn216 2.209 . S
O241 Mn217 2.215 . S
O241 C218 1.283 . S
O242 Mn216 2.094 . S
O242 C220 1.240 . S
O243 Mn217 2.117 . S
O243 C220 1.264 . S
C244 C237 1.403 . S
C244 C245 1.399 . S
C244 H250 0.929 . S
C245 C225 1.449 . S
C245 C244 1.399 . S
C245 H251 0.930 . S
H246 C226 0.931 . S
H247 C227 0.930 . S
H248 C235 0.931 . S
H249 C236 0.929 . S
H250 C244 0.929 . S
H251 C245 0.930 . S
Mn252 O257 2.095 . S
Mn252 O267 2.162 . S
Mn252 O268 2.297 . S
Mn252 O276 2.385 . S
Mn252 O277 2.209 . S
Mn252 O278 2.094 . S
Mn253 O258 2.121 . S
Mn253 N260 2.257 . S
Mn253 N269 2.282 . S
Mn253 O277 2.215 . S
Mn253 O279 2.117 . S
C254 O276 1.234 . S
C254 O277 1.283 . S
C255 O267 1.281 . S
C255 O268 1.236 . S
C256 O278 1.240 . S
C256 O279 1.264 . S
O257 Mn252 2.095 . S
O257 C266 1.250 . S
O258 Mn253 2.121 . S
O258 C266 1.258 . S
C259 N260 1.326 . S
C259 C263 1.460 . S
C259 H265 0.929 . S
N260 Mn253 2.257 . S
N260 C259 1.326 . S
N260 C264 1.362 . S
C261 C262 1.258 . S
C261 C264 1.431 1_455 S
C261 C281 1.449 . S
C262 C261 1.258 . S
C262 C263 1.477 1_455 S
C262 H282 0.931 . S
C263 C259 1.460 . S
C263 C262 1.477 1_655 S
C263 H283 0.930 . S
C264 N260 1.362 . S
C264 C261 1.431 1_655 S
C264 C274 1.474 . S
H265 C259 0.929 . S
C266 O257 1.250 . S
C266 O258 1.258 . S
O267 Mn252 2.162 . S
O267 C255 1.281 . S
O268 Mn252 2.297 . S
O268 C255 1.236 . S
N269 Mn253 2.282 . S
N269 C270 1.328 . S
N269 C274 1.323 . S
C270 N269 1.328 . S
C270 C271 1.457 1_655 S
C270 H275 0.929 . S
C271 C270 1.457 1_455 S
C271 C272 1.291 . S
C271 H284 0.931 . S
C272 C271 1.291 . S
C272 C273 1.373 . S
C272 H285 0.929 . S
C273 C272 1.373 . S
C273 C274 1.393 1_455 S
C273 C280 1.403 . S
C274 C264 1.474 . S
C274 N269 1.323 . S
C274 C273 1.393 1_655 S
H275 C270 0.929 . S
O276 Mn252 2.385 . S
O276 C254 1.234 . S
O277 Mn252 2.209 . S
O277 Mn253 2.215 . S
O277 C254 1.283 . S
O278 Mn252 2.094 . S
O278 C256 1.240 . S
O279 Mn253 2.117 . S
O279 C256 1.264 . S
C280 C273 1.403 . S
C280 C281 1.399 . S
C280 H286 0.929 . S
C281 C261 1.449 . S
C281 C280 1.399 . S
C281 H287 0.930 . S
H282 C262 0.931 . S
H283 C263 0.930 . S
H284 C271 0.931 . S
H285 C272 0.929 . S
H286 C280 0.929 . S
H287 C281 0.930 . S
Mn288 O293 2.095 1_554 S
Mn288 O303 2.162 . S
Mn288 O304 2.297 . S
Mn288 O312 2.385 . S
Mn288 O313 2.209 . S
Mn288 O314 2.094 1_554 S
Mn289 O294 2.121 . S
Mn289 N296 2.257 . S
Mn289 N305 2.282 . S
Mn289 O313 2.215 1_556 S
Mn289 O315 2.117 . S
C290 O312 1.234 . S
C290 O313 1.283 . S
C291 O303 1.281 . S
C291 O304 1.236 . S
C292 O314 1.240 . S
C292 O315 1.264 . S
O293 Mn288 2.095 1_556 S
O293 C302 1.250 1_556 S
O294 Mn289 2.121 . S
O294 C302 1.258 1_556 S
C295 N296 1.326 1_554 S
C295 C299 1.458 1_565 S
C295 H301 0.929 . S
N296 Mn289 2.257 . S
N296 C295 1.326 1_556 S
N296 C300 1.362 1_565 S
C297 C298 1.258 . S
C297 C300 1.431 . S
C297 C317 1.449 . S
C298 C297 1.258 . S
C298 C299 1.479 1_556 S
C298 H318 0.931 1_556 S
C299 C295 1.458 1_545 S
C299 C298 1.479 1_554 S
C299 H319 0.923 1_545 S
C300 N296 1.362 1_545 S
C300 C297 1.431 . S
C300 C310 1.476 . S
H301 C295 0.929 . S
C302 O293 1.250 1_554 S
C302 O294 1.258 1_554 S
O303 Mn288 2.162 . S
O303 C291 1.281 . S
O304 Mn288 2.297 . S
O304 C291 1.236 . S
N305 Mn289 2.282 . S
N305 C306 1.328 . S
N305 C310 1.318 1_565 S
C306 N305 1.328 . S
C306 C307 1.457 1_565 S
C306 H311 0.929 . S
C307 C306 1.457 1_545 S
C307 C308 1.291 . S
C307 H320 0.931 . S
C308 C307 1.291 . S
C308 C309 1.373 . S
C308 H321 0.929 . S
C309 C308 1.373 . S
C309 C310 1.396 . S
C309 C316 1.403 . S
C310 C300 1.476 . S
C310 N305 1.318 1_545 S
C310 C309 1.396 . S
H311 C306 0.929 . S
O312 Mn288 2.385 . S
O312 C290 1.234 . S
O313 Mn288 2.209 . S
O313 Mn289 2.215 1_554 S
O313 C290 1.283 . S
O314 Mn288 2.094 1_556 S
O314 C292 1.240 . S
O315 Mn289 2.117 . S
O315 C292 1.264 . S
C316 C309 1.403 . S
C316 C317 1.399 . S
C316 H322 0.929 . S
C317 C297 1.449 . S
C317 C316 1.399 . S
C317 H323 0.930 . S
H318 C298 0.931 1_554 S
H319 C299 0.923 1_565 S
H320 C307 0.931 . S
H321 C308 0.929 . S
H322 C316 0.929 . S
H323 C317 0.930 . S
Mn324 O329 2.095 . S
Mn324 O339 2.162 . S
Mn324 O340 2.297 . S
Mn324 O348 2.385 . S
Mn324 O349 2.209 . S
Mn324 O350 2.094 . S
Mn325 O330 2.121 . S
Mn325 N332 2.257 . S
Mn325 N341 2.282 . S
Mn325 O349 2.215 . S
Mn325 O351 2.117 . S
C326 O348 1.234 . S
C326 O349 1.283 . S
C327 O339 1.281 . S
C327 O340 1.236 . S
C328 O350 1.240 . S
C328 O351 1.264 . S
O329 Mn324 2.095 . S
O329 C338 1.250 . S
O330 Mn325 2.121 . S
O330 C338 1.258 . S
C331 N332 1.326 . S
C331 C335 1.460 . S
C331 H337 0.929 . S
N332 Mn325 2.257 . S
N332 C331 1.326 . S
N332 C336 1.362 . S
C333 C334 1.258 . S
C333 C336 1.431 . S
C333 C353 1.449 . S
C334 C333 1.258 . S
C334 C335 1.477 . S
C334 H354 0.931 . S
C335 C331 1.460 . S
C335 C334 1.477 . S
C335 H355 0.930 . S
C336 N332 1.362 . S
C336 C333 1.431 . S
C336 C346 1.476 . S
H337 C331 0.929 . S
C338 O329 1.250 . S
C338 O330 1.258 . S
O339 Mn324 2.162 . S
O339 C327 1.281 . S
O340 Mn324 2.297 . S
O340 C327 1.236 . S
N341 Mn325 2.282 . S
N341 C342 1.328 . S
N341 C346 1.318 . S
C342 N341 1.328 . S
C342 C343 1.457 . S
C342 H347 0.929 . S
C343 C342 1.457 . S
C343 C344 1.291 . S
C343 H356 0.931 . S
C344 C343 1.291 . S
C344 C345 1.373 . S
C344 H357 0.929 . S
C345 C344 1.373 . S
C345 C346 1.396 . S
C345 C352 1.403 . S
C346 C336 1.476 . S
C346 N341 1.318 . S
C346 C345 1.396 . S
H347 C342 0.929 . S
O348 Mn324 2.385 . S
O348 C326 1.234 . S
O349 Mn324 2.209 . S
O349 Mn325 2.215 . S
O349 C326 1.283 . S
O350 Mn324 2.094 . S
O350 C328 1.240 . S
O351 Mn325 2.117 . S
O351 C328 1.264 . S
C352 C345 1.403 . S
C352 C353 1.399 . S
C352 H358 0.929 . S
C353 C333 1.449 . S
C353 C352 1.399 . S
C353 H359 0.930 . S
H354 C334 0.931 . S
H355 C335 0.930 . S
H356 C343 0.931 . S
H357 C344 0.929 . S
H358 C352 0.929 . S
H359 C353 0.930 . S
Mn360 O365 2.095 . S
Mn360 O375 2.162 . S
Mn360 O376 2.297 . S
Mn360 O384 2.385 . S
Mn360 O385 2.209 . S
Mn360 O386 2.094 . S
Mn361 O366 2.121 . S
Mn361 N368 2.257 . S
Mn361 N377 2.282 . S
Mn361 O385 2.215 . S
Mn361 O387 2.117 . S
C362 O384 1.234 . S
C362 O385 1.283 . S
C363 O375 1.281 . S
C363 O376 1.236 . S
C364 O386 1.240 . S
C364 O387 1.264 . S
O365 Mn360 2.095 . S
O365 C374 1.250 . S
O366 Mn361 2.121 . S
O366 C374 1.258 . S
C367 N368 1.326 . S
C367 C371 1.460 . S
C367 H373 0.929 . S
N368 Mn361 2.257 . S
N368 C367 1.326 . S
N368 C372 1.362 . S
C369 C370 1.258 . S
C369 C372 1.431 1_655 S
C369 C389 1.449 . S
C370 C369 1.258 . S
C370 C371 1.477 1_655 S
C370 H390 0.931 . S
C371 C367 1.460 . S
C371 C370 1.477 1_455 S
C371 H391 0.930 . S
C372 N368 1.362 . S
C372 C369 1.431 1_455 S
C372 C382 1.474 . S
H373 C367 0.929 . S
C374 O365 1.250 . S
C374 O366 1.258 . S
O375 Mn360 2.162 . S
O375 C363 1.281 . S
O376 Mn360 2.297 . S
O376 C363 1.236 . S
N377 Mn361 2.282 . S
N377 C378 1.328 . S
N377 C382 1.323 . S
C378 N377 1.328 . S
C378 C379 1.457 1_455 S
C378 H383 0.929 . S
C379 C378 1.457 1_655 S
C379 C380 1.291 . S
C379 H392 0.931 . S
C380 C379 1.291 . S
C380 C381 1.373 . S
C380 H393 0.929 . S
C381 C380 1.373 . S
C381 C382 1.393 1_655 S
C381 C388 1.403 . S
C382 C372 1.474 . S
C382 N377 1.323 . S
C382 C381 1.393 1_455 S
H383 C378 0.929 . S
O384 Mn360 2.385 . S
O384 C362 1.234 . S
O385 Mn360 2.209 . S
O385 Mn361 2.215 . S
O385 C362 1.283 . S
O386 Mn360 2.094 . S
O386 C364 1.240 . S
O387 Mn361 2.117 . S
O387 C364 1.264 . S
C388 C381 1.403 . S
C388 C389 1.399 . S
C388 H394 0.929 . S
C389 C369 1.449 . S
C389 C388 1.399 . S
C389 H395 0.930 . S
H390 C370 0.931 . S
H391 C371 0.930 . S
H392 C379 0.931 . S
H393 C380 0.929 . S
H394 C388 0.929 . S
H395 C389 0.930 . S
Mn396 O401 2.095 1_554 S
Mn396 O411 2.162 . S
Mn396 O412 2.297 . S
Mn396 O420 2.385 . S
Mn396 O421 2.209 . S
Mn396 O422 2.094 1_554 S
Mn397 O402 2.121 . S
Mn397 N404 2.257 . S
Mn397 N413 2.282 . S
Mn397 O421 2.215 1_556 S
Mn397 O423 2.117 . S
C398 O420 1.234 . S
C398 O421 1.283 . S
C399 O411 1.281 . S
C399 O412 1.236 . S
C400 O422 1.240 . S
C400 O423 1.264 . S
O401 Mn396 2.095 1_556 S
O401 C410 1.250 1_556 S
O402 Mn397 2.121 . S
O402 C410 1.258 1_556 S
C403 N404 1.326 1_554 S
C403 C407 1.458 1_545 S
C403 H409 0.929 . S
N404 Mn397 2.257 . S
N404 C403 1.326 1_556 S
N404 C408 1.362 1_545 S
C405 C406 1.258 . S
C405 C408 1.431 . S
C405 C425 1.449 . S
C406 C405 1.258 . S
C406 C407 1.479 1_556 S
C406 H426 0.931 1_556 S
C407 C403 1.458 1_565 S
C407 C406 1.479 1_554 S
C407 H427 0.923 1_565 S
C408 N404 1.362 1_565 S
C408 C405 1.431 . S
C408 C418 1.476 . S
H409 C403 0.929 . S
C410 O401 1.250 1_554 S
C410 O402 1.258 1_554 S
O411 Mn396 2.162 . S
O411 C399 1.281 . S
O412 Mn396 2.297 . S
O412 C399 1.236 . S
N413 Mn397 2.282 . S
N413 C414 1.328 . S
N413 C418 1.318 1_545 S
C414 N413 1.328 . S
C414 C415 1.457 1_545 S
C414 H419 0.929 . S
C415 C414 1.457 1_565 S
C415 C416 1.291 . S
C415 H428 0.931 . S
C416 C415 1.291 . S
C416 C417 1.373 . S
C416 H429 0.929 . S
C417 C416 1.373 . S
C417 C418 1.396 . S
C417 C424 1.403 . S
C418 C408 1.476 . S
C418 N413 1.318 1_565 S
C418 C417 1.396 . S
H419 C414 0.929 . S
O420 Mn396 2.385 . S
O420 C398 1.234 . S
O421 Mn396 2.209 . S
O421 Mn397 2.215 1_554 S
O421 C398 1.283 . S
O422 Mn396 2.094 1_556 S
O422 C400 1.240 . S
O423 Mn397 2.117 . S
O423 C400 1.264 . S
C424 C417 1.403 . S
C424 C425 1.399 . S
C424 H430 0.929 . S
C425 C405 1.449 . S
C425 C424 1.399 . S
C425 H431 0.930 . S
H426 C406 0.931 1_554 S
H427 C407 0.923 1_545 S
H428 C415 0.931 . S
H429 C416 0.929 . S
H430 C424 0.929 . S
H431 C425 0.930 . S
C432 C433 1.387 . S
C432 H436 0.950 . S
C432 C441 1.390 . S
C433 C432 1.387 . S
C433 C435 1.387 . S
H434 C441 0.950 . S
C435 C433 1.387 . S
C435 C437 1.390 . S
C435 H439 0.950 . S
H436 C432 0.950 . S
C437 C435 1.390 . S
C437 C438 1.387 . S
C437 H440 0.950 . S
C438 C437 1.387 . S
C438 C441 1.387 . S
H439 C435 0.950 . S
H440 C437 0.950 . S
C441 C432 1.390 . S
C441 H434 0.950 . S
C441 C438 1.387 . S
C442 C443 1.387 . S
C442 H446 0.950 . S
C442 C451 1.390 . S
C443 C442 1.387 . S
C443 C445 1.387 . S
H444 C451 0.950 . S
C445 C443 1.387 . S
C445 C447 1.390 . S
C445 H449 0.950 . S
H446 C442 0.950 . S
C447 C445 1.390 . S
C447 C448 1.387 . S
C447 H450 0.950 . S
C448 C447 1.387 . S
C448 C451 1.387 . S
H449 C445 0.950 . S
H450 C447 0.950 . S
C451 C442 1.390 . S
C451 H444 0.950 . S
C451 C448 1.387 . S
C452 C453 1.387 . S
C452 H456 0.950 . S
C452 C461 1.390 1_556 S
C453 C452 1.387 . S
C453 C455 1.387 . S
H454 C461 0.950 . S
C455 C453 1.387 . S
C455 C457 1.390 1_556 S
C455 H459 0.950 . S
H456 C452 0.950 . S
C457 C455 1.390 1_554 S
C457 C458 1.387 . S
C457 H460 0.950 . S
C458 C457 1.387 . S
C458 C461 1.387 . S
H459 C455 0.950 . S
H460 C457 0.950 . S
C461 C452 1.390 1_554 S
C461 H454 0.950 . S
C461 C458 1.387 . S
C462 C463 1.387 . S
C462 H466 0.950 . S
C462 C471 1.390 . S
C463 C462 1.387 . S
C463 C465 1.387 . S
H464 C471 0.950 . S
C465 C463 1.387 . S
C465 C467 1.390 . S
C465 H469 0.950 . S
H466 C462 0.950 . S
C467 C465 1.390 . S
C467 C468 1.387 . S
C467 H470 0.950 . S
C468 C467 1.387 . S
C468 C471 1.387 . S
H469 C465 0.950 . S
H470 C467 0.950 . S
C471 C462 1.390 . S
C471 H464 0.950 . S
C471 C468 1.387 . S
C472 C473 1.387 . S
C472 H476 0.950 . S
C472 C481 1.390 . S
C473 C472 1.387 . S
C473 C475 1.387 . S
H474 C481 0.950 . S
C475 C473 1.387 . S
C475 C477 1.390 . S
C475 H479 0.950 . S
H476 C472 0.950 . S
C477 C475 1.390 . S
C477 C478 1.387 . S
C477 H480 0.950 . S
C478 C477 1.387 . S
C478 C481 1.387 . S
H479 C475 0.950 . S
H480 C477 0.950 . S
C481 C472 1.390 . S
C481 H474 0.950 . S
C481 C478 1.387 . S
C482 C483 1.387 . S
C482 H486 0.950 . S
C482 C491 1.390 1_554 S
C483 C482 1.387 . S
C483 C485 1.387 . S
H484 C491 0.950 . S
C485 C483 1.387 . S
C485 C487 1.390 1_554 S
C485 H489 0.950 . S
H486 C482 0.950 . S
C487 C485 1.390 1_556 S
C487 C488 1.387 . S
C487 H490 0.950 . S
C488 C487 1.387 . S
C488 C491 1.387 . S
H489 C485 0.950 . S
H490 C487 0.950 . S
C491 C482 1.390 1_556 S
C491 H484 0.950 . S
C491 C488 1.387 . S
C492 C493 1.387 . S
C492 H496 0.950 . S
C492 C501 1.390 . S
C493 C492 1.387 . S
C493 C495 1.387 . S
H494 C501 0.950 . S
C495 C493 1.387 . S
C495 C497 1.390 . S
C495 H499 0.950 . S
H496 C492 0.950 . S
C497 C495 1.390 . S
C497 C498 1.387 . S
C497 H500 0.950 . S
C498 C497 1.387 . S
C498 C501 1.387 . S
H499 C495 0.950 . S
H500 C497 0.950 . S
C501 C492 1.390 . S
C501 H494 0.950 . S
C501 C498 1.387 . S
C502 C503 1.387 . S
C502 H506 0.950 . S
C502 C511 1.390 1_655 S
C503 C502 1.387 . S
C503 C505 1.387 . S
H504 C511 0.950 . S
C505 C503 1.387 . S
C505 C507 1.390 1_655 S
C505 H509 0.950 . S
H506 C502 0.950 . S
C507 C505 1.390 1_455 S
C507 C508 1.387 . S
C507 H510 0.950 . S
C508 C507 1.387 . S
C508 C511 1.387 . S
H509 C505 0.950 . S
H510 C507 0.950 . S
C511 C502 1.390 1_455 S
C511 H504 0.950 . S
C511 C508 1.387 . S
C512 C513 1.387 . S
C512 H516 0.950 . S
C512 C521 1.390 1_544 S
C513 C512 1.387 . S
C513 C515 1.387 . S
H514 C521 0.950 . S
C515 C513 1.387 . S
C515 C517 1.390 1_544 S
C515 H519 0.950 . S
H516 C512 0.950 . S
C517 C515 1.390 1_566 S
C517 C518 1.387 . S
C517 H520 0.950 . S
C518 C517 1.387 . S
C518 C521 1.387 . S
H519 C515 0.950 . S
H520 C517 0.950 . S
C521 C512 1.390 1_566 S
C521 H514 0.950 . S
C521 C518 1.387 . S
C522 C523 1.387 . S
C522 H526 0.950 . S
C522 C531 1.390 . S
C523 C522 1.387 . S
C523 C525 1.387 . S
H524 C531 0.950 . S
C525 C523 1.387 . S
C525 C527 1.390 . S
C525 H529 0.950 . S
H526 C522 0.950 . S
C527 C525 1.390 . S
C527 C528 1.387 . S
C527 H530 0.950 . S
C528 C527 1.387 . S
C528 C531 1.387 . S
H529 C525 0.950 . S
H530 C527 0.950 . S
C531 C522 1.390 . S
C531 H524 0.950 . S
C531 C528 1.387 . S
C532 C533 1.387 . S
C532 H536 0.950 . S
C532 C541 1.390 1_455 S
C533 C532 1.387 . S
C533 C535 1.387 . S
H534 C541 0.950 . S
C535 C533 1.387 . S
C535 C537 1.390 1_455 S
C535 H539 0.950 . S
H536 C532 0.950 . S
C537 C535 1.390 1_655 S
C537 C538 1.387 . S
C537 H540 0.950 . S
C538 C537 1.387 . S
C538 C541 1.387 . S
H539 C535 0.950 . S
H540 C537 0.950 . S
C541 C532 1.390 1_655 S
C541 H534 0.950 . S
C541 C538 1.387 . S
C542 C543 1.387 . S
C542 H546 0.950 . S
C542 C551 1.390 1_546 S
C543 C542 1.387 . S
C543 C545 1.387 . S
H544 C551 0.950 . S
C545 C543 1.387 . S
C545 C547 1.390 1_546 S
C545 H549 0.950 . S
H546 C542 0.950 . S
C547 C545 1.390 1_564 S
C547 C548 1.387 . S
C547 H550 0.950 . S
C548 C547 1.387 . S
C548 C551 1.387 . S
H549 C545 0.950 . S
H550 C547 0.950 . S
C551 C542 1.390 1_564 S
C551 H544 0.950 . S
C551 C548 1.387 . S
C552 C553 1.387 . S
C552 H556 0.950 . S
C552 C561 1.390 . S
C553 C552 1.387 . S
C553 C555 1.387 1_655 S
H554 C561 0.950 . S
C555 C553 1.387 1_455 S
C555 C557 1.390 . S
C555 H559 0.950 . S
H556 C552 0.950 . S
C557 C555 1.390 . S
C557 C558 1.387 . S
C557 H560 0.950 . S
C558 C557 1.387 . S
C558 C561 1.387 1_455 S
H559 C555 0.950 . S
H560 C557 0.950 . S
C561 C552 1.390 . S
C561 H554 0.950 . S
C561 C558 1.387 1_655 S
C562 C563 1.387 . S
C562 H566 0.950 . S
C562 C571 1.390 1_545 S
C563 C562 1.387 . S
C563 C565 1.387 . S
H564 C571 0.950 . S
C565 C563 1.387 . S
C565 C567 1.390 1_545 S
C565 H569 0.950 . S
H566 C562 0.950 . S
C567 C565 1.390 1_565 S
C567 C568 1.387 . S
C567 H570 0.950 . S
C568 C567 1.387 . S
C568 C571 1.387 . S
H569 C565 0.950 . S
H570 C567 0.950 . S
C571 C562 1.390 1_565 S
C571 H564 0.950 . S
C571 C568 1.387 . S
C572 C573 1.387 . S
C572 H576 0.950 . S
C572 C581 1.390 . S
C573 C572 1.387 . S
C573 C575 1.387 . S
H574 C581 0.950 . S
C575 C573 1.387 . S
C575 C577 1.390 . S
C575 H579 0.950 . S
H576 C572 0.950 . S
C577 C575 1.390 . S
C577 C578 1.387 . S
C577 H580 0.950 . S
C578 C577 1.387 . S
C578 C581 1.387 . S
H579 C575 0.950 . S
H580 C577 0.950 . S
C581 C572 1.390 . S
C581 H574 0.950 . S
C581 C578 1.387 . S
C582 C583 1.387 . S
C582 H586 0.950 . S
C582 C591 1.390 . S
C583 C582 1.387 . S
C583 C585 1.387 1_455 S
H584 C591 0.950 . S
C585 C583 1.387 1_655 S
C585 C587 1.390 . S
C585 H589 0.950 . S
H586 C582 0.950 . S
C587 C585 1.390 . S
C587 C588 1.387 . S
C587 H590 0.950 . S
C588 C587 1.387 . S
C588 C591 1.387 1_655 S
H589 C585 0.950 . S
H590 C587 0.950 . S
C591 C582 1.390 . S
C591 H584 0.950 . S
C591 C588 1.387 1_455 S
C592 C593 1.387 . S
C592 H596 0.950 . S
C592 C601 1.390 1_545 S
C593 C592 1.387 . S
C593 C595 1.387 . S
H594 C601 0.950 . S
C595 C593 1.387 . S
C595 C597 1.390 1_545 S
C595 H599 0.950 . S
H596 C592 0.950 . S
C597 C595 1.390 1_565 S
C597 C598 1.387 . S
C597 H600 0.950 . S
C598 C597 1.387 . S
C598 C601 1.387 . S
H599 C595 0.950 . S
H600 C597 0.950 . S
C601 C592 1.390 1_565 S
C601 H594 0.950 . S
C601 C598 1.387 . S
C602 C603 1.387 . S
C602 H606 0.950 . S
C602 C611 1.390 . S
C603 C602 1.387 . S
C603 C605 1.387 . S
H604 C611 0.950 . S
C605 C603 1.387 . S
C605 C607 1.390 . S
C605 H609 0.950 . S
H606 C602 0.950 . S
C607 C605 1.390 . S
C607 C608 1.387 . S
C607 H610 0.950 . S
C608 C607 1.387 . S
C608 C611 1.387 . S
H609 C605 0.950 . S
H610 C607 0.950 . S
C611 C602 1.390 . S
C611 H604 0.950 . S
C611 C608 1.387 . S
C612 C613 1.387 . S
C612 H616 0.950 . S
C612 C621 1.390 . S
C613 C612 1.387 . S
C613 C615 1.387 . S
H614 C621 0.950 . S
C615 C613 1.387 . S
C615 C617 1.390 . S
C615 H619 0.950 . S
H616 C612 0.950 . S
C617 C615 1.390 . S
C617 C618 1.387 . S
C617 H620 0.950 . S
C618 C617 1.387 . S
C618 C621 1.387 . S
H619 C615 0.950 . S
H620 C617 0.950 . S
C621 C612 1.390 . S
C621 H614 0.950 . S
C621 C618 1.387 . S
C622 C623 1.387 . S
C622 H626 0.950 . S
C622 C631 1.390 . S
C623 C622 1.387 . S
C623 C625 1.387 . S
H624 C631 0.950 . S
C625 C623 1.387 . S
C625 C627 1.390 . S
C625 H629 0.950 . S
H626 C622 0.950 . S
C627 C625 1.390 . S
C627 C628 1.387 . S
C627 H630 0.950 . S
C628 C627 1.387 . S
C628 C631 1.387 . S
H629 C625 0.950 . S
H630 C627 0.950 . S
C631 C622 1.390 . S
C631 H624 0.950 . S
C631 C628 1.387 . S
C632 C633 1.387 . S
C632 H636 0.950 . S
C632 C641 1.390 . S
C633 C632 1.387 . S
C633 C635 1.387 . S
H634 C641 0.950 . S
C635 C633 1.387 . S
C635 C637 1.390 . S
C635 H639 0.950 . S
H636 C632 0.950 . S
C637 C635 1.390 . S
C637 C638 1.387 . S
C637 H640 0.950 . S
C638 C637 1.387 . S
C638 C641 1.387 . S
H639 C635 0.950 . S
H640 C637 0.950 . S
C641 C632 1.390 . S
C641 H634 0.950 . S
C641 C638 1.387 . S
C642 C643 1.387 . S
C642 H646 0.950 . S
C642 C651 1.390 . S
C643 C642 1.387 . S
C643 C645 1.387 . S
H644 C651 0.950 . S
C645 C643 1.387 . S
C645 C647 1.390 . S
C645 H649 0.950 . S
H646 C642 0.950 . S
C647 C645 1.390 . S
C647 C648 1.387 . S
C647 H650 0.950 . S
C648 C647 1.387 . S
C648 C651 1.387 . S
H649 C645 0.950 . S
H650 C647 0.950 . S
C651 C642 1.390 . S
C651 H644 0.950 . S
C651 C648 1.387 . S
C652 C653 1.387 . S
C652 H656 0.950 . S
C652 C661 1.390 . S
C653 C652 1.387 . S
C653 C655 1.387 . S
H654 C661 0.950 . S
C655 C653 1.387 . S
C655 C657 1.390 . S
C655 H659 0.950 . S
H656 C652 0.950 . S
C657 C655 1.390 . S
C657 C658 1.387 . S
C657 H660 0.950 . S
C658 C657 1.387 . S
C658 C661 1.387 . S
H659 C655 0.950 . S
H660 C657 0.950 . S
C661 C652 1.390 . S
C661 H654 0.950 . S
C661 C658 1.387 . S
C662 C663 1.387 . S
C662 H666 0.950 . S
C662 C671 1.390 . S
C663 C662 1.387 . S
C663 C665 1.387 . S
H664 C671 0.950 . S
C665 C663 1.387 . S
C665 C667 1.390 . S
C665 H669 0.950 . S
H666 C662 0.950 . S
C667 C665 1.390 . S
C667 C668 1.387 . S
C667 H670 0.950 . S
C668 C667 1.387 . S
C668 C671 1.387 . S
H669 C665 0.950 . S
H670 C667 0.950 . S
C671 C662 1.390 . S
C671 H664 0.950 . S
C671 C668 1.387 . S
C433 C14 1.429 . S
C438 C230 1.445 . S
C443 C50 1.444 . S
C448 C266 1.429 . S
C453 C86 1.384 . S
C458 C302 1.383 . S
C463 C338 1.444 . S
C468 C122 1.429 . S
C473 C158 1.445 . S
C478 C374 1.429 . S
C483 C410 1.384 . S
C488 C194 1.383 . S
C493 C2 1.163 . S
C498 C326 1.164 . S
C503 C38 1.164 . S
C508 C362 1.163 . S
C513 C398 1.146 . S
C518 C74 1.145 . S
C523 C218 1.164 . S
C528 C110 1.163 . S
C533 C146 1.163 . S
C538 C254 1.162 . S
C543 C182 1.146 . S
C548 C290 1.145 . S
C553 C399 1.748 . S
C558 C3 1.739 . S
C563 C39 1.857 . S
C568 C219 1.857 . S
C573 C75 1.748 . S
C578 C255 1.740 . S
C583 C291 1.748 . S
C588 C111 1.739 . S
C593 C327 1.857 . S
C598 C147 1.857 . S
C603 C183 1.749 . S
C608 C363 1.742 . S
C613 C4 1.210 . S
C618 C364 1.210 . S
C623 C400 1.285 . S
C628 C40 1.293 . S
C633 C220 1.290 . S
C638 C76 1.288 . S
C643 C112 1.217 . S
C648 C256 1.217 . S
C653 C292 1.286 . S
C658 C148 1.294 . S
C663 C328 1.291 . S
C668 C184 1.289 . S
