# Generated by pormake.
# Topology yfc, (5)-cn, num edge types: 1
# Building blocks:
#     Node 0, Type 0, BuildingBlock: XOMCOT_clean_sbu_0, # of connection points: 5
#     Node 1, Type 0, BuildingBlock: XOMCOT_clean_sbu_0, # of connection points: 5
#     Node 2, Type 0, BuildingBlock: XOMCOT_clean_sbu_0, # of connection points: 5
#     Node 3, Type 0, BuildingBlock: XOMCOT_clean_sbu_0, # of connection points: 5
#     Node 4, Type 0, BuildingBlock: XOMCOT_clean_sbu_0, # of connection points: 5
#     Node 5, Type 0, BuildingBlock: XOMCOT_clean_sbu_0, # of connection points: 5
#     Node 6, Type 0, BuildingBlock: XOMCOT_clean_sbu_0, # of connection points: 5
#     Node 7, Type 0, BuildingBlock: XOMCOT_clean_sbu_0, # of connection points: 5
#     Node 8, Type 0, BuildingBlock: XOMCOT_clean_sbu_0, # of connection points: 5
#     Node 9, Type 0, BuildingBlock: XOMCOT_clean_sbu_0, # of connection points: 5
#     Node 10, Type 0, BuildingBlock: XOMCOT_clean_sbu_0, # of connection points: 5
#     Node 11, Type 0, BuildingBlock: XOMCOT_clean_sbu_0, # of connection points: 5
#     Node 12, Type 0, BuildingBlock: XOMCOT_clean_sbu_0, # of connection points: 5
#     Node 13, Type 0, BuildingBlock: XOMCOT_clean_sbu_0, # of connection points: 5
#     Node 14, Type 0, BuildingBlock: XOMCOT_clean_sbu_0, # of connection points: 5
#     Node 15, Type 0, BuildingBlock: XOMCOT_clean_sbu_0, # of connection points: 5
#     Edge 16, Type (0, 0), BuildingBlock: CIFDUS_clean_linker_0, # of connection points: 2
#     Edge 17, Type (0, 0), BuildingBlock: CIFDUS_clean_linker_0, # of connection points: 2
#     Edge 18, Type (0, 0), BuildingBlock: CIFDUS_clean_linker_0, # of connection points: 2
#     Edge 19, Type (0, 0), BuildingBlock: CIFDUS_clean_linker_0, # of connection points: 2
#     Edge 20, Type (0, 0), BuildingBlock: CIFDUS_clean_linker_0, # of connection points: 2
#     Edge 21, Type (0, 0), BuildingBlock: CIFDUS_clean_linker_0, # of connection points: 2
#     Edge 22, Type (0, 0), BuildingBlock: CIFDUS_clean_linker_0, # of connection points: 2
#     Edge 23, Type (0, 0), BuildingBlock: CIFDUS_clean_linker_0, # of connection points: 2
#     Edge 24, Type (0, 0), BuildingBlock: CIFDUS_clean_linker_0, # of connection points: 2
#     Edge 25, Type (0, 0), BuildingBlock: CIFDUS_clean_linker_0, # of connection points: 2
#     Edge 26, Type (0, 0), BuildingBlock: CIFDUS_clean_linker_0, # of connection points: 2
#     Edge 27, Type (0, 0), BuildingBlock: CIFDUS_clean_linker_0, # of connection points: 2
#     Edge 28, Type (0, 0), BuildingBlock: CIFDUS_clean_linker_0, # of connection points: 2
#     Edge 29, Type (0, 0), BuildingBlock: CIFDUS_clean_linker_0, # of connection points: 2
#     Edge 30, Type (0, 0), BuildingBlock: CIFDUS_clean_linker_0, # of connection points: 2
#     Edge 31, Type (0, 0), BuildingBlock: CIFDUS_clean_linker_0, # of connection points: 2
#     Edge 32, Type (0, 0), BuildingBlock: CIFDUS_clean_linker_0, # of connection points: 2
#     Edge 33, Type (0, 0), BuildingBlock: CIFDUS_clean_linker_0, # of connection points: 2
#     Edge 34, Type (0, 0), BuildingBlock: CIFDUS_clean_linker_0, # of connection points: 2
#     Edge 35, Type (0, 0), BuildingBlock: CIFDUS_clean_linker_0, # of connection points: 2
#     Edge 36, Type (0, 0), BuildingBlock: CIFDUS_clean_linker_0, # of connection points: 2
#     Edge 37, Type (0, 0), BuildingBlock: CIFDUS_clean_linker_0, # of connection points: 2
#     Edge 38, Type (0, 0), BuildingBlock: CIFDUS_clean_linker_0, # of connection points: 2
#     Edge 39, Type (0, 0), BuildingBlock: CIFDUS_clean_linker_0, # of connection points: 2
#     Edge 40, Type (0, 0), BuildingBlock: CIFDUS_clean_linker_0, # of connection points: 2
#     Edge 41, Type (0, 0), BuildingBlock: CIFDUS_clean_linker_0, # of connection points: 2
#     Edge 42, Type (0, 0), BuildingBlock: CIFDUS_clean_linker_0, # of connection points: 2
#     Edge 43, Type (0, 0), BuildingBlock: CIFDUS_clean_linker_0, # of connection points: 2
#     Edge 44, Type (0, 0), BuildingBlock: CIFDUS_clean_linker_0, # of connection points: 2
#     Edge 45, Type (0, 0), BuildingBlock: CIFDUS_clean_linker_0, # of connection points: 2
#     Edge 46, Type (0, 0), BuildingBlock: CIFDUS_clean_linker_0, # of connection points: 2
#     Edge 47, Type (0, 0), BuildingBlock: CIFDUS_clean_linker_0, # of connection points: 2
#     Edge 48, Type (0, 0), BuildingBlock: CIFDUS_clean_linker_0, # of connection points: 2
#     Edge 49, Type (0, 0), BuildingBlock: CIFDUS_clean_linker_0, # of connection points: 2
#     Edge 50, Type (0, 0), BuildingBlock: CIFDUS_clean_linker_0, # of connection points: 2
#     Edge 51, Type (0, 0), BuildingBlock: CIFDUS_clean_linker_0, # of connection points: 2
#     Edge 52, Type (0, 0), BuildingBlock: CIFDUS_clean_linker_0, # of connection points: 2
#     Edge 53, Type (0, 0), BuildingBlock: CIFDUS_clean_linker_0, # of connection points: 2
#     Edge 54, Type (0, 0), BuildingBlock: CIFDUS_clean_linker_0, # of connection points: 2
#     Edge 55, Type (0, 0), BuildingBlock: CIFDUS_clean_linker_0, # of connection points: 2
# Relax obj value: 0.558
# Max RMSD: 0.288
# Mean RMSD: 0.269
data_MOF--net-yfc--node1-XOMCOT_clean_sbu_0--edge1-CIFDUS_clean_linker_0
_symmetry_space_group_name_H-M    P1
_symmetry_Int_Tables_number       1
_symmetry_cell_setting            triclinic
loop_
_symmetry_equiv_pos_as_xyz
'x, y, z'
_cell_length_a     36.311437
_cell_length_b     36.473249
_cell_length_c     42.556992
_cell_angle_alpha  89.977764
_cell_angle_beta   89.696047
_cell_angle_gamma 89.876989
loop_
_atom_site_label
_atom_site_type_symbol
_atom_site_fract_x
_atom_site_fract_y
_atom_site_fract_z
_atom_type_partial_charge
Co0 Co 0.72634 0.05036 0.20823 0.0
C1 C 0.73384 0.13026 0.19413 0.0
C2 C 0.69907 0.11964 0.23389 0.0
C3 C 0.7008 0.15685 0.22949 0.0
N4 N 0.71933 0.10285 0.21146 0.0
N5 N 0.72266 0.16344 0.20447 0.0
H6 H 0.75289 0.1265 0.17494 0.0
H7 H 0.68513 0.10601 0.25303 0.0
C8 C 0.65593 0.03945 0.24177 0.0
O9 O 0.67631 0.03039 0.26589 0.0
N10 N 0.7324 0.99742 0.2056 0.0
C11 C 0.74132 0.97733 0.17995 0.0
C12 C 0.73354 0.94099 0.18584 0.0
C13 C 0.7212 0.97261 0.22712 0.0
N14 N 0.72104 0.93827 0.21554 0.0
C15 C 0.75112 0.06378 0.14556 0.0
C16 C 0.69072 0.0369 0.11406 0.0
C17 C 0.72172 0.04822 0.09669 0.0
C18 C 0.75178 0.06236 0.11294 0.0
C19 C 0.69074 0.0397 0.14704 0.0
N20 N 0.72098 0.05275 0.16248 0.0
H21 H 0.77578 0.07283 0.15711 0.0
H22 H 0.66723 0.02957 0.15998 0.0
H23 H 0.75058 0.98822 0.15768 0.0
H24 H 0.71117 0.97932 0.25023 0.0
O25 O 0.77914 0.05664 0.21032 0.0
O26 O 0.74311 0.05045 0.25173 0.0
O27 O 0.67127 0.04551 0.2151 0.0
C28 C 0.7759 0.0568 0.24062 0.0
H29 H 0.68856 0.17748 0.24458 0.0
H30 H 0.73497 0.91864 0.16914 0.0
H31 H 0.66704 0.02536 0.10231 0.0
H32 H 0.77662 0.07056 0.10059 0.0
Co33 Co 0.47685 0.74471 0.71973 0.0
C34 C 0.39621 0.7381 0.71706 0.0
C35 C 0.41577 0.78132 0.68705 0.0
C36 C 0.37787 0.78072 0.68584 0.0
N37 N 0.42708 0.75444 0.70648 0.0
N38 N 0.36575 0.75348 0.70467 0.0
H39 H 0.39598 0.71623 0.73422 0.0
H40 H 0.43382 0.80024 0.67493 0.0
C41 C 0.46574 0.67025 0.74376 0.0
O42 O 0.481 0.68222 0.76972 0.0
N43 N 0.52706 0.73512 0.73321 0.0
C44 C 0.54894 0.75694 0.75059 0.0
C45 C 0.58136 0.73875 0.75662 0.0
C46 C 0.5469 0.70426 0.72841 0.0
N47 N 0.57998 0.70548 0.74289 0.0
C48 C 0.52009 0.766 0.66659 0.0
C49 C 0.47984 0.72734 0.62264 0.0
C50 C 0.50718 0.75161 0.61232 0.0
C51 C 0.52818 0.77032 0.63465 0.0
C52 C 0.47323 0.72312 0.65481 0.0
N53 N 0.49255 0.74313 0.67621 0.0
H54 H 0.5349 0.78215 0.68365 0.0
H55 H 0.4511 0.7054 0.66245 0.0
H56 H 0.54178 0.7839 0.7592 0.0
H57 H 0.53697 0.68108 0.71512 0.0
O58 O 0.48223 0.79664 0.72744 0.0
O59 O 0.46202 0.75591 0.76225 0.0
O60 O 0.46502 0.69087 0.71954 0.0
C61 C 0.46802 0.79006 0.75505 0.0
H62 H 0.36061 0.79867 0.67198 0.0
H63 H 0.60341 0.74864 0.77136 0.0
H64 H 0.46315 0.71245 0.60593 0.0
H65 H 0.54939 0.78942 0.6274 0.0
Co66 Co 0.7884 0.4764 0.22398 0.0
C67 C 0.76945 0.40192 0.20116 0.0
C68 C 0.82058 0.40272 0.22632 0.0
C69 C 0.81358 0.36739 0.21741 0.0
N70 N 0.79327 0.42451 0.21574 0.0
N71 N 0.78147 0.3669 0.20173 0.0
H72 H 0.7435 0.41067 0.19122 0.0
H73 H 0.84318 0.41126 0.24094 0.0
C74 C 0.87278 0.48127 0.21751 0.0
O75 O 0.87248 0.49352 0.18855 0.0
N76 N 0.78451 0.52834 0.23381 0.0
C77 C 0.75617 0.54651 0.24745 0.0
C78 C 0.76694 0.58199 0.25354 0.0
C79 C 0.81176 0.55325 0.23141 0.0
N80 N 0.80193 0.58606 0.24348 0.0
C81 C 0.7703 0.51362 0.16672 0.0
C82 C 0.80843 0.46804 0.12617 0.0
C83 C 0.7852 0.49496 0.11348 0.0
C84 C 0.76658 0.51836 0.13427 0.0
C85 C 0.81176 0.46448 0.15881 0.0
N86 N 0.79286 0.48715 0.1789 0.0
H87 H 0.75321 0.53013 0.18197 0.0
H88 H 0.8291 0.44283 0.16778 0.0
H89 H 0.72974 0.53485 0.25346 0.0
H90 H 0.83889 0.54722 0.22235 0.0
O91 O 0.73545 0.47064 0.22542 0.0
O92 O 0.7728 0.46426 0.26617 0.0
O93 O 0.84299 0.47773 0.23326 0.0
C94 C 0.73962 0.46189 0.25489 0.0
H95 H 0.82955 0.34348 0.22391 0.0
H96 H 0.75059 0.60288 0.26513 0.0
H97 H 0.82346 0.44938 0.11099 0.0
H98 H 0.74765 0.53895 0.12559 0.0
Co99 Co 0.03911 0.73806 0.72279 0.0
C100 C 0.12078 0.7411 0.72379 0.0
C101 C 0.10085 0.69339 0.69977 0.0
C102 C 0.13869 0.69301 0.69868 0.0
N103 N 0.08966 0.72345 0.71561 0.0
N104 N 0.15111 0.72307 0.71366 0.0
H105 H 0.12141 0.76665 0.73667 0.0
H106 H 0.08276 0.6735 0.68912 0.0
C107 C 0.04658 0.82213 0.72951 0.0
O108 O 0.01897 0.83082 0.71111 0.0
N109 N 0.98826 0.75222 0.72998 0.0
C110 C 0.95814 0.73859 0.71581 0.0
C111 C 0.92752 0.75625 0.72727 0.0
C112 C 0.97524 0.77706 0.7508 0.0
N113 N 0.93819 0.78064 0.7492 0.0
C114 C 0.01821 0.71969 0.66053 0.0
C115 C 0.05672 0.77412 0.62961 0.0
C116 C 0.03995 0.74632 0.61201 0.0
C117 C 0.01996 0.71936 0.62791 0.0
C118 C 0.05442 0.77335 0.66255 0.0
N119 N 0.03493 0.74651 0.67769 0.0
H120 H 0.00514 0.69674 0.67184 0.0
H121 H 0.07034 0.79297 0.6756 0.0
H122 H 0.95781 0.71719 0.69843 0.0
H123 H 0.99254 0.79217 0.76681 0.0
O124 O 0.02548 0.68679 0.72429 0.0
O125 O 0.0422 0.72008 0.7652 0.0
O126 O 0.05659 0.78886 0.7331 0.0
C127 C 0.03366 0.6881 0.75398 0.0
H128 H 0.15572 0.67296 0.68671 0.0
H129 H 0.89965 0.75206 0.7192 0.0
H130 H 0.07318 0.795 0.61815 0.0
H131 H 0.00674 0.69728 0.61524 0.0
Co132 Co 0.73122 0.45958 0.81866 0.0
C133 C 0.71844 0.37939 0.81167 0.0
C134 C 0.68787 0.40246 0.85011 0.0
C135 C 0.68006 0.36562 0.84851 0.0
N136 N 0.71228 0.411 0.82722 0.0
N137 N 0.69921 0.35136 0.82424 0.0
H138 H 0.73703 0.37645 0.79193 0.0
H139 H 0.67642 0.42176 0.8668 0.0
C140 C 0.6471 0.4731 0.81116 0.0
O141 O 0.62062 0.49526 0.82045 0.0
N142 N 0.7476 0.50866 0.80959 0.0
C143 C 0.76801 0.53196 0.82674 0.0
C144 C 0.76079 0.56731 0.81652 0.0
C145 C 0.72949 0.5297 0.78883 0.0
N146 N 0.73588 0.56575 0.79304 0.0
C147 C 0.76034 0.44318 0.87856 0.0
C148 C 0.72364 0.49588 0.91343 0.0
C149 C 0.74658 0.47068 0.92902 0.0
C150 C 0.76539 0.44454 0.91093 0.0
C151 C 0.71914 0.49346 0.88065 0.0
N152 N 0.73718 0.46699 0.86375 0.0
H153 H 0.7744 0.42204 0.86538 0.0
H154 H 0.7012 0.51276 0.86898 0.0
H155 H 0.78396 0.52436 0.84713 0.0
H156 H 0.7092 0.51864 0.77295 0.0
O157 O 0.77998 0.44084 0.81024 0.0
O158 O 0.73761 0.44771 0.77391 0.0
O159 O 0.67964 0.48001 0.82079 0.0
C160 C 0.77128 0.4383 0.7809 0.0
H161 H 0.66168 0.35052 0.86385 0.0
H162 H 0.77029 0.5922 0.82766 0.0
H163 H 0.70863 0.51659 0.9265 0.0
H164 H 0.78386 0.42493 0.92173 0.0
Co165 Co 0.04785 0.75418 0.31335 0.0
C166 C 0.1262 0.74327 0.33165 0.0
C167 C 0.12066 0.75512 0.2826 0.0
C168 C 0.15678 0.74688 0.28838 0.0
N169 N 0.10127 0.75351 0.3098 0.0
N170 N 0.16017 0.73937 0.31916 0.0
H171 H 0.11977 0.73719 0.35591 0.0
H172 H 0.10959 0.76056 0.2596 0.0
C173 C 0.05238 0.68133 0.28463 0.0
O174 O 0.04332 0.69741 0.25817 0.0
N175 N 0.99488 0.75339 0.31608 0.0
C176 C 0.97292 0.77517 0.33361 0.0
C177 C 0.93686 0.76435 0.32942 0.0
C178 C 0.97217 0.73003 0.30135 0.0
N179 N 0.93657 0.73602 0.30902 0.0
C180 C 0.06502 0.78195 0.37372 0.0
C181 C 0.03307 0.72651 0.4087 0.0
C182 C 0.04762 0.75718 0.4243 0.0
C183 C 0.0642 0.78479 0.40632 0.0
C184 C 0.03451 0.72468 0.37581 0.0
N185 N 0.05032 0.7523 0.35883 0.0
H186 H 0.0777 0.8037 0.36029 0.0
H187 H 0.0218 0.70179 0.36398 0.0
H188 H 0.9825 0.79696 0.34872 0.0
H189 H 0.98147 0.7083 0.28606 0.0
O190 O 0.04682 0.8067 0.30927 0.0
O191 O 0.04483 0.7685 0.26921 0.0
O192 O 0.05097 0.69931 0.31032 0.0
C193 C 0.04698 0.80223 0.27912 0.0
H194 H 0.17899 0.74683 0.2713 0.0
H195 H 0.91284 0.77629 0.34059 0.0
H196 H 0.01962 0.70475 0.42169 0.0
H197 H 0.07639 0.80859 0.41733 0.0
Co198 Co 0.76571 0.03356 0.80178 0.0
C199 C 0.74643 0.11132 0.81533 0.0
C200 C 0.7882 0.10547 0.7797 0.0
C201 C 0.77896 0.14176 0.78186 0.0
N202 N 0.76804 0.08638 0.80073 0.0
N203 N 0.75257 0.14539 0.80401 0.0
H204 H 0.72554 0.10451 0.8326 0.0
H205 H 0.80703 0.09372 0.76272 0.0
C206 C 0.85116 0.03244 0.79943 0.0
O207 O 0.85637 0.02545 0.82933 0.0
N208 N 0.76415 0.9802 0.80104 0.0
C209 C 0.73429 0.95835 0.79934 0.0
C210 C 0.74572 0.92244 0.79744 0.0
C211 C 0.7932 0.95711 0.79993 0.0
N212 N 0.78292 0.92159 0.79758 0.0
C213 C 0.75185 0.01226 0.86447 0.0
C214 C 0.79538 0.0632 0.89431 0.0
C215 C 0.77053 0.04236 0.91256 0.0
C216 C 0.74904 0.01632 0.89689 0.0
C217 C 0.79671 0.05881 0.8615 0.0
N218 N 0.7752 0.03331 0.8469 0.0
H219 H 0.73266 0.99406 0.8533 0.0
H220 H 0.81382 0.0771 0.84779 0.0
H221 H 0.706 0.96761 0.79929 0.0
H222 H 0.82133 0.96618 0.79978 0.0
O223 O 0.71291 0.03667 0.80495 0.0
O224 O 0.74447 0.03535 0.76022 0.0
O225 O 0.81885 0.03304 0.78775 0.0
C226 C 0.7128 0.03904 0.77446 0.0
H227 H 0.79027 0.16375 0.76773 0.0
H228 H 0.7277 0.89901 0.79558 0.0
H229 H 0.8129 0.08361 0.90499 0.0
H230 H 0.72822 1.0005 0.90905 0.0
Co231 Co 0.47296 0.77866 0.31952 0.0
C232 C 0.39875 0.74914 0.3367 0.0
C233 C 0.40199 0.80738 0.34259 0.0
C234 C 0.3672 0.79633 0.35067 0.0
N235 N 0.42202 0.77785 0.33378 0.0
N236 N 0.36512 0.75978 0.3468 0.0
H237 H 0.40554 0.72114 0.33085 0.0
H238 H 0.4112 0.83547 0.34217 0.0
C239 C 0.48114 0.86267 0.30929 0.0
O240 O 0.51179 0.86694 0.3251 0.0
N241 N 0.52389 0.78009 0.30541 0.0
C242 C 0.55254 0.76042 0.31652 0.0
C243 C 0.58433 0.77181 0.30181 0.0
C244 C 0.53857 0.80206 0.28308 0.0
N245 N 0.57548 0.79807 0.28092 0.0
C246 C 0.50081 0.75916 0.37978 0.0
C247 C 0.48215 0.8226 0.41134 0.0
C248 C 0.49517 0.79253 0.42858 0.0
C249 C 0.50545 0.7609 0.41223 0.0
C250 C 0.47857 0.81996 0.37864 0.0
N251 N 0.48749 0.7883 0.36307 0.0
H252 H 0.50593 0.73319 0.36858 0.0
H253 H 0.46634 0.84276 0.36661 0.0
H254 H 0.55098 0.73928 0.33413 0.0
H255 H 0.52287 0.82146 0.26934 0.0
O256 O 0.4745 0.72537 0.32006 0.0
O257 O 0.45858 0.75909 0.27919 0.0
O258 O 0.46547 0.83153 0.30716 0.0
C259 C 0.46292 0.72663 0.2912 0.0
H260 H 0.34438 0.81419 0.35671 0.0
H261 H 0.6119 0.76184 0.30633 0.0
H262 H 0.47352 0.8475 0.42316 0.0
H263 H 0.51466 0.73664 0.42464 0.0
Co264 Co 0.28338 0.96265 0.85219 0.0
C265 C 0.31368 0.02887 0.8214 0.0
C266 C 0.333 0.02353 0.86854 0.0
C267 C 0.35307 0.05067 0.85367 0.0
N268 N 0.30786 0.01001 0.84839 0.0
N269 N 0.34083 0.05385 0.82395 0.0
H270 H 0.30188 0.02177 0.79913 0.0
H271 H 0.33864 0.01231 0.89154 0.0
C272 C 0.2652 0.99855 0.91499 0.0
O273 O 0.26058 0.0305 0.90128 0.0
N274 N 0.26012 0.915 0.85506 0.0
C275 C 0.2353 0.90124 0.83479 0.0
C276 C 0.22721 0.86592 0.84329 0.0
C277 C 0.26762 0.88735 0.87516 0.0
N278 N 0.24761 0.85708 0.86854 0.0
C279 C 0.23085 0.98956 0.80788 0.0
C280 C 0.17038 0.97468 0.84521 0.0
C281 C 0.166 0.97592 0.81248 0.0
C282 C 0.19615 0.98668 0.79414 0.0
C283 C 0.20555 0.97838 0.85817 0.0
N284 N 0.23581 0.98299 0.83924 0.0
H285 H 0.25389 0.9908 0.79207 0.0
H286 H 0.20856 0.97171 0.88268 0.0
H287 H 0.22496 0.91514 0.81425 0.0
H288 H 0.28824 0.88888 0.89339 0.0
O289 O 0.30294 0.94908 0.81142 0.0
O290 O 0.33096 0.93956 0.85686 0.0
O291 O 0.27308 0.9702 0.89859 0.0
C292 C 0.33125 0.93616 0.82645 0.0
H293 H 0.37629 0.06528 0.86337 0.0
H294 H 0.20965 0.84725 0.83048 0.0
H295 H 0.14769 0.96659 0.8603 0.0
H296 H 0.19425 0.98746 0.76875 0.0
Co297 Co 0.54811 0.29547 0.35389 0.0
C298 C 0.48745 0.34031 0.32769 0.0
C299 C 0.48801 0.34432 0.37775 0.0
C300 C 0.46136 0.36781 0.36628 0.0
N301 N 0.50371 0.32603 0.35355 0.0
N302 N 0.46121 0.36533 0.33468 0.0
H303 H 0.49602 0.33427 0.30397 0.0
H304 H 0.49667 0.34268 0.40195 0.0
C305 C 0.51423 0.27296 0.41636 0.0
O306 O 0.48239 0.26776 0.40255 0.0
N307 N 0.5927 0.26638 0.3531 0.0
C308 C 0.60319 0.24428 0.32928 0.0
C309 C 0.63654 0.22884 0.33646 0.0
C310 C 0.62042 0.2651 0.37407 0.0
N311 N 0.64739 0.24193 0.36453 0.0
C312 C 0.50623 0.2512 0.31147 0.0
C313 C 0.52935 0.18623 0.33817 0.0
C314 C 0.52056 0.18668 0.30603 0.0
C315 C 0.50507 0.21892 0.29388 0.0
C316 C 0.52876 0.21899 0.35537 0.0
N317 N 0.52106 0.25163 0.34089 0.0
H318 H 0.50006 0.27618 0.29939 0.0
H319 H 0.54102 0.21867 0.37843 0.0
H320 H 0.58793 0.24025 0.30781 0.0
H321 H 0.62132 0.2814 0.3953 0.0
O322 O 0.56144 0.31421 0.31287 0.0
O323 O 0.57765 0.33928 0.35816 0.0
O324 O 0.54208 0.28376 0.40031 0.0
C325 C 0.57935 0.3398 0.32758 0.0
H326 H 0.44493 0.38676 0.38004 0.0
H327 H 0.65266 0.21102 0.32136 0.0
H328 H 0.54121 0.16216 0.34905 0.0
H329 H 0.49619 0.22041 0.26966 0.0
Co330 Co 0.21762 0.53587 0.86399 0.0
C331 C 0.16697 0.47659 0.84402 0.0
C332 C 0.21304 0.45506 0.8693 0.0
C333 C 0.1938 0.42619 0.85615 0.0
N334 N 0.19636 0.48683 0.86148 0.0
N335 N 0.16482 0.43994 0.8403 0.0
H336 H 0.14895 0.49537 0.8319 0.0
H337 H 0.23887 0.45307 0.88172 0.0
C338 C 0.26319 0.54307 0.92253 0.0
O339 O 0.285 0.56514 0.90678 0.0
N340 N 0.23834 0.58534 0.86462 0.0
C341 C 0.26642 0.59827 0.8468 0.0
C342 C 0.27144 0.63473 0.85309 0.0
C343 C 0.22608 0.61491 0.88092 0.0
N344 N 0.24612 0.64521 0.87444 0.0
C345 C 0.26079 0.51793 0.80955 0.0
C346 C 0.32711 0.5127 0.84047 0.0
C347 C 0.32761 0.52131 0.80817 0.0
C348 C 0.29369 0.51958 0.7923 0.0
C349 C 0.29356 0.50957 0.85648 0.0
N350 N 0.26129 0.51746 0.84164 0.0
H351 H 0.2351 0.52065 0.79713 0.0
H352 H 0.29422 0.50328 0.8811 0.0
H353 H 0.28214 0.58303 0.82978 0.0
H354 H 0.20273 0.61451 0.89681 0.0
O355 O 0.18856 0.55131 0.82837 0.0
O356 O 0.17107 0.5557 0.87825 0.0
O357 O 0.23783 0.52528 0.90807 0.0
C358 C 0.16403 0.562 0.84885 0.0
H359 H 0.20145 0.39751 0.85701 0.0
H360 H 0.291 0.6527 0.84156 0.0
H361 H 0.35195 0.51125 0.85426 0.0
H362 H 0.29202 0.52251 0.76707 0.0
Co363 Co 0.95912 0.21969 0.35185 0.0
C364 C 0.02141 0.18428 0.31839 0.0
C365 C 0.02568 0.17499 0.36783 0.0
C366 C 0.05308 0.15524 0.35262 0.0
N367 N 0.00606 0.19385 0.34633 0.0
N368 N 0.05033 0.16121 0.32143 0.0
H369 H 0.01007 0.19182 0.29589 0.0
H370 H 0.0195 0.17379 0.39265 0.0
C371 C 0.98987 0.23657 0.41752 0.0
O372 O 0.01974 0.25188 0.40599 0.0
N373 N 0.91218 0.2445 0.35583 0.0
C374 C 0.89974 0.27023 0.33572 0.0
C375 C 0.86546 0.28141 0.34529 0.0
C376 C 0.88461 0.23924 0.37676 0.0
N377 N 0.85599 0.262 0.37099 0.0
C378 C 0.99737 0.27422 0.31525 0.0
C379 C 0.97183 0.3323 0.35078 0.0
C380 C 0.98314 0.33925 0.31963 0.0
C381 C 0.99909 0.30983 0.30301 0.0
C382 C 0.97205 0.29652 0.36261 0.0
N383 N 0.98186 0.26754 0.34397 0.0
H384 H 0.00491 0.25201 0.29997 0.0
H385 H 0.95871 0.29184 0.38499 0.0
H386 H 0.91443 0.2798 0.31514 0.0
H387 H 0.88506 0.21876 0.39517 0.0
O388 O 0.94546 0.20673 0.3093 0.0
O389 O 0.93375 0.1732 0.35163 0.0
O390 O 0.96551 0.22326 0.39913 0.0
C391 C 0.93048 0.17749 0.32144 0.0
H392 H 0.07278 0.13714 0.36369 0.0
H393 H 0.84786 0.30084 0.33328 0.0
H394 H 0.95915 0.35326 0.36518 0.0
H395 H 0.01024 0.31338 0.27961 0.0
Co396 Co 0.29782 0.55629 0.16757 0.0
C397 C 0.33948 0.49604 0.19842 0.0
C398 C 0.34555 0.49445 0.14839 0.0
C399 C 0.36854 0.46853 0.1613 0.0
N400 N 0.32655 0.5113 0.17157 0.0
N401 N 0.36495 0.46968 0.19285 0.0
H402 H 0.33312 0.50619 0.22164 0.0
H403 H 0.34487 0.50203 0.12386 0.0
C404 C 0.27362 0.51508 0.10945 0.0
O405 O 0.26643 0.4861 0.12677 0.0
N406 N 0.2701 0.60155 0.16451 0.0
C407 C 0.24794 0.6148 0.18735 0.0
C408 C 0.23299 0.64728 0.17752 0.0
C409 C 0.26926 0.62684 0.1413 0.0
N410 N 0.24632 0.65493 0.14864 0.0
C411 C 0.25078 0.52434 0.21473 0.0
C412 C 0.18697 0.53778 0.18158 0.0
C413 C 0.18458 0.534 0.21432 0.0
C414 C 0.21681 0.52438 0.23053 0.0
C415 C 0.22125 0.53737 0.16674 0.0
N416 N 0.25298 0.53305 0.18355 0.0
H417 H 0.27533 0.52209 0.22862 0.0
H418 H 0.22207 0.54658 0.14269 0.0
H419 H 0.24349 0.60205 0.20998 0.0
H420 H 0.28553 0.62512 0.11996 0.0
O421 O 0.31853 0.57404 0.20668 0.0
O422 O 0.34258 0.583 0.1593 0.0
O423 O 0.28552 0.5445 0.12226 0.0
C424 C 0.34429 0.58874 0.18941 0.0
H425 H 0.38758 0.45131 0.14836 0.0
H426 H 0.21522 0.66502 0.19129 0.0
H427 H 0.16335 0.54582 0.16777 0.0
H428 H 0.21641 0.52039 0.25574 0.0
Co429 Co 0.96569 0.28436 0.6719 0.0
C430 C 0.02469 0.32485 0.70584 0.0
C431 C 0.04309 0.30609 0.66064 0.0
C432 C 0.07255 0.32127 0.67619 0.0
N433 N 0.01293 0.30823 0.67918 0.0
N434 N 0.06103 0.33293 0.70466 0.0
H435 H 0.0077 0.32907 0.72647 0.0
H436 H 0.04435 0.29294 0.63793 0.0
C437 C 0.96627 0.25231 0.60538 0.0
O438 O 0.94059 0.22901 0.61383 0.0
N439 N 0.91846 0.2608 0.66592 0.0
C440 C 0.90492 0.23131 0.68122 0.0
C441 C 0.86967 0.22491 0.67103 0.0
C442 C 0.89072 0.27271 0.64751 0.0
N443 N 0.86089 0.25089 0.6498 0.0
C444 C 0.9902 0.23756 0.72061 0.0
C445 C 0.99027 0.17292 0.68708 0.0
C446 C 0.9873 0.17128 0.72003 0.0
C447 C 0.99018 0.20427 0.73673 0.0
C448 C 0.99029 0.20707 0.67184 0.0
N449 N 0.98647 0.23875 0.68871 0.0
H450 H 0.98947 0.26242 0.73429 0.0
H451 H 0.99098 0.20732 0.64668 0.0
H452 H 0.9189 0.21607 0.69934 0.0
H453 H 0.8924 0.29675 0.63268 0.0
O454 O 0.94637 0.30382 0.71088 0.0
O455 O 0.94177 0.33186 0.66502 0.0
O456 O 0.98082 0.27369 0.62597 0.0
C457 C 0.93405 0.33149 0.69495 0.0
H458 H 0.10056 0.32276 0.66746 0.0
H459 H 0.85125 0.20392 0.67977 0.0
H460 H 0.99014 0.14814 0.67308 0.0
H461 H 0.98867 0.20493 0.76213 0.0
Co462 Co 0.22643 0.95904 0.15878 0.0
C463 C 0.18963 0.0169 0.19697 0.0
C464 C 0.17468 0.02079 0.14856 0.0
C465 C 0.15362 0.04544 0.16556 0.0
N466 N 0.198 0.00335 0.16813 0.0
N467 N 0.16286 0.04275 0.19613 0.0
H468 H 0.20103 0.00659 0.21851 0.0
H469 H 0.17142 0.01443 0.12391 0.0
C470 C 0.24531 0.00813 0.10328 0.0
O471 O 0.24805 0.03652 0.12211 0.0
N472 N 0.25383 0.91419 0.15026 0.0
C473 C 0.28187 0.90072 0.16751 0.0
C474 C 0.29278 0.86775 0.15536 0.0
C475 C 0.24714 0.8881 0.12841 0.0
N476 N 0.27097 0.85965 0.1309 0.0
C477 C 0.27446 0.9796 0.20917 0.0
C478 C 0.33757 0.98119 0.17282 0.0
C479 C 0.34094 0.97512 0.20526 0.0
C480 C 0.30893 0.97738 0.2237 0.0
C481 C 0.30263 0.98322 0.15917 0.0
N482 N 0.27137 0.97991 0.17711 0.0
H483 H 0.2507 0.97511 0.22381 0.0
H484 H 0.30148 0.98187 0.13395 0.0
H485 H 0.29259 0.91262 0.18871 0.0
H486 H 0.22441 0.88906 0.11208 0.0
O487 O 0.20536 0.93623 0.19586 0.0
O488 O 0.18128 0.93418 0.14808 0.0
O489 O 0.23849 0.97637 0.11461 0.0
C490 C 0.17924 0.92483 0.17747 0.0
H491 H 0.13148 0.06216 0.15639 0.0
H492 H 0.31315 0.84953 0.16544 0.0
H493 H 0.36158 0.98019 0.15763 0.0
H494 H 0.30993 0.97252 0.24879 0.0
Co495 Co 0.5484 0.21257 0.65767 0.0
C496 C 0.49181 0.17224 0.69369 0.0
C497 C 0.47656 0.17405 0.64534 0.0
C498 C 0.45085 0.15331 0.66166 0.0
N499 N 0.50182 0.187 0.66572 0.0
N500 N 0.46081 0.15213 0.6921 0.0
H501 H 0.50781 0.17444 0.71485 0.0
H502 H 0.47752 0.1775 0.62015 0.0
C503 C 0.50374 0.24357 0.60365 0.0
O504 O 0.47697 0.25211 0.62324 0.0
N505 N 0.59523 0.2367 0.65123 0.0
C506 C 0.61145 0.25892 0.67234 0.0
C507 C 0.64603 0.26741 0.66199 0.0
C508 C 0.62107 0.23051 0.62891 0.0
N509 N 0.65226 0.24943 0.63485 0.0
C510 C 0.52376 0.25648 0.70908 0.0
C511 C 0.54127 0.32261 0.68126 0.0
C512 C 0.53962 0.32049 0.71418 0.0
C513 C 0.52817 0.28746 0.72777 0.0
C514 C 0.53593 0.29086 0.66321 0.0
N515 N 0.53013 0.25763 0.67745 0.0
H516 H 0.52045 0.23091 0.72106 0.0
H517 H 0.54223 0.29226 0.63842 0.0
H518 H 0.60002 0.26653 0.69489 0.0
H519 H 0.61806 0.21086 0.61004 0.0
O520 O 0.56919 0.18926 0.69424 0.0
O521 O 0.5708 0.16637 0.64592 0.0
O522 O 0.53301 0.22827 0.61391 0.0
C523 C 0.57959 0.16311 0.67539 0.0
H524 H 0.42784 0.13867 0.65162 0.0
H525 H 0.66645 0.28264 0.67506 0.0
H526 H 0.54954 0.34776 0.6697 0.0
H527 H 0.52665 0.28426 0.75305 0.0
H528 H 0.66295 0.90377 0.19135 0.0
H529 H 0.73467 0.90716 0.27138 0.0
H530 H 0.6969 0.86085 0.29823 0.0
H531 H 0.64092 0.82312 0.30019 0.0
H532 H 0.56591 0.82403 0.22212 0.0
H533 H 0.6072 0.86509 0.193 0.0
C534 C 0.67055 0.89359 0.21437 0.0
C535 C 0.70171 0.908 0.22934 0.0
C536 C 0.64785 0.86825 0.23 0.0
C537 C 0.71097 0.89582 0.25951 0.0
C538 C 0.68931 0.86963 0.27481 0.0
C539 C 0.63399 0.83187 0.2766 0.0
C540 C 0.60063 0.82047 0.26314 0.0
C541 C 0.65734 0.85614 0.26048 0.0
C542 C 0.59143 0.83263 0.23288 0.0
C543 C 0.61503 0.85598 0.21627 0.0
H544 H 0.66598 0.56119 0.77174 0.0
H545 H 0.75426 0.63777 0.78826 0.0
H546 H 0.71404 0.68841 0.7722 0.0
H547 H 0.65278 0.71077 0.7557 0.0
H548 H 0.5654 0.63274 0.74039 0.0
H549 H 0.60707 0.58255 0.75256 0.0
C550 C 0.67709 0.58868 0.77117 0.0
C551 C 0.71344 0.59543 0.78112 0.0
C552 C 0.65391 0.61745 0.762 0.0
C553 C 0.72643 0.63172 0.78096 0.0
C554 C 0.70344 0.66066 0.77169 0.0
C555 C 0.64287 0.6828 0.75498 0.0
C556 C 0.60582 0.67575 0.74717 0.0
C557 C 0.66693 0.65387 0.7626 0.0
C558 C 0.59371 0.63918 0.74586 0.0
C559 C 0.61749 0.61038 0.75313 0.0
H560 H 0.92994 0.69944 0.2545 0.0
H561 H 0.87323 0.72368 0.34136 0.0
H562 H 0.82385 0.68154 0.32703 0.0
H563 H 0.80011 0.63328 0.29219 0.0
H564 H 0.85834 0.60759 0.20639 0.0
H565 H 0.90418 0.65448 0.21811 0.0
C566 C 0.90682 0.6955 0.27033 0.0
C567 C 0.90557 0.71433 0.29916 0.0
C568 C 0.87898 0.67072 0.26223 0.0
C569 C 0.87486 0.70966 0.31899 0.0
C570 C 0.84673 0.68535 0.3109 0.0
C571 C 0.82239 0.63848 0.27576 0.0
C572 C 0.826 0.61679 0.24857 0.0
C573 C 0.84892 0.66515 0.28289 0.0
C574 C 0.8553 0.62356 0.22768 0.0
C575 C 0.88145 0.6504 0.23434 0.0
H576 H 0.86453 0.77721 0.75775 0.0
H577 H 0.95938 0.84519 0.77556 0.0
H578 H 0.91935 0.89357 0.79563 0.0
H579 H 0.85758 0.91851 0.80359 0.0
H580 H 0.76271 0.85228 0.78064 0.0
H581 H 0.80282 0.80145 0.76733 0.0
C582 C 0.8766 0.8026 0.76585 0.0
C583 C 0.91504 0.8075 0.76459 0.0
C584 C 0.85338 0.83087 0.77633 0.0
C585 C 0.93002 0.84033 0.77626 0.0
C586 C 0.90706 0.86824 0.78753 0.0
C587 C 0.84532 0.89325 0.79551 0.0
C588 C 0.80672 0.89012 0.79265 0.0
C589 C 0.86865 0.86416 0.78689 0.0
C590 C 0.79202 0.8562 0.78309 0.0
C591 C 0.81505 0.82688 0.77526 0.0
H592 H 0.41295 0.0689 0.81518 0.0
H593 H 0.30566 0.08341 0.77424 0.0
H594 H 0.33328 0.11434 0.72883 0.0
H595 H 0.38837 0.13749 0.70064 0.0
H596 H 0.49555 0.12106 0.7416 0.0
H597 H 0.46771 0.09101 0.78689 0.0
C598 C 0.39559 0.07928 0.79654 0.0
C599 C 0.35725 0.07408 0.79824 0.0
C600 C 0.41173 0.09662 0.77032 0.0
C601 C 0.33524 0.08701 0.77346 0.0
C602 C 0.35103 0.10468 0.74748 0.0
C603 C 0.40558 0.12703 0.71935 0.0
C604 C 0.44399 0.13204 0.71774 0.0
C605 C 0.38932 0.1095 0.74553 0.0
C606 C 0.46589 0.11842 0.74238 0.0
C607 C 0.44999 0.101 0.76832 0.0
H608 H 0.47956 0.3835 0.27492 0.0
H609 H 0.39367 0.39538 0.34461 0.0
H610 H 0.3561 0.4294 0.30691 0.0
H611 H 0.34693 0.45422 0.2534 0.0
H612 H 0.43351 0.44146 0.18431 0.0
H613 H 0.47085 0.40848 0.22224 0.0
C614 C 0.45248 0.39305 0.28191 0.0
C615 C 0.43946 0.38646 0.31266 0.0
C616 C 0.43089 0.41226 0.26003 0.0
C617 C 0.40459 0.40018 0.32127 0.0
C618 C 0.38296 0.41947 0.29961 0.0
C619 C 0.37405 0.44446 0.24668 0.0
C620 C 0.38704 0.45024 0.21576 0.0
C621 C 0.39575 0.42554 0.26884 0.0
C622 C 0.42225 0.43698 0.20757 0.0
C623 C 0.44388 0.41827 0.22939 0.0
H624 H 0.04186 0.38352 0.74834 0.0
H625 H 0.13171 0.31499 0.71714 0.0
H626 H 0.17127 0.34029 0.75791 0.0
H627 H 0.18138 0.38374 0.80139 0.0
H628 H 0.09282 0.45456 0.83113 0.0
H629 H 0.0518 0.42657 0.79247 0.0
C630 C 0.07 0.37397 0.75068 0.0
C631 C 0.08378 0.3475 0.72953 0.0
C632 C 0.09291 0.3891 0.77404 0.0
C633 C 0.12049 0.33568 0.73272 0.0
C634 C 0.14313 0.35001 0.75619 0.0
C635 C 0.15294 0.39257 0.79972 0.0
C636 C 0.1401 0.42102 0.81929 0.0
C637 C 0.12978 0.37695 0.77685 0.0
C638 C 0.10335 0.43274 0.81634 0.0
C639 C 0.07991 0.41676 0.7942 0.0
H640 H 0.08695 0.09602 0.3219 0.0
H641 H 0.0618 0.18916 0.26322 0.0
H642 H 0.09427 0.16074 0.21927 0.0
H643 H 0.12945 0.10908 0.19691 0.0
H644 H 0.15488 0.01597 0.25545 0.0
H645 H 0.12352 0.0449 0.29982 0.0
C646 C 0.08887 0.11032 0.29964 0.0
C647 C 0.07148 0.1447 0.29604 0.0
C648 C 0.10785 0.0938 0.27425 0.0
C649 C 0.07418 0.16248 0.26672 0.0
C650 C 0.09298 0.14629 0.24151 0.0
C651 C 0.12803 0.09505 0.21932 0.0
C652 C 0.14477 0.06036 0.22263 0.0
C653 C 0.1097 0.11183 0.24488 0.0
C654 C 0.14291 0.04286 0.25211 0.0
C655 C 0.12468 0.05933 0.27757 0.0
H656 H 0.62148 0.09716 0.21403 0.0
H657 H 0.60823 0.01613 0.28692 0.0
H658 H 0.55884 0.0524 0.31081 0.0
H659 H 0.5284 0.11239 0.31662 0.0
H660 H 0.54794 0.19587 0.24638 0.0
H661 H 0.58464 0.15338 0.21583 0.0
C662 C 0.60685 0.08678 0.23445 0.0
C663 C 0.61876 0.05419 0.24886 0.0
C664 C 0.57984 0.10875 0.24906 0.0
C665 C 0.59967 0.04127 0.27548 0.0
C666 C 0.57167 0.0622 0.28935 0.0
C667 C 0.5402 0.12121 0.29443 0.0
C668 C 0.53532 0.15771 0.28432 0.0
C669 C 0.56297 0.09695 0.27733 0.0
C670 C 0.5504 0.16806 0.25499 0.0
C671 C 0.572 0.14378 0.23745 0.0
H672 H 0.33161 0.56571 0.75558 0.0
H673 H 0.40146 0.51469 0.82534 0.0
H674 H 0.45147 0.55507 0.81025 0.0
H675 H 0.47261 0.61085 0.78231 0.0
H676 H 0.4055 0.65535 0.7081 0.0
H677 H 0.35775 0.61028 0.71934 0.0
C678 C 0.35784 0.56195 0.76707 0.0
C679 C 0.36134 0.53774 0.79289 0.0
C680 C 0.38725 0.58445 0.75758 0.0
C681 C 0.39647 0.53416 0.80669 0.0
C682 C 0.42557 0.55712 0.79784 0.0
C683 C 0.44789 0.61009 0.76813 0.0
C684 C 0.44214 0.63717 0.74508 0.0
C685 C 0.42073 0.58348 0.77424 0.0
C686 C 0.41039 0.6353 0.72638 0.0
C687 C 0.38296 0.60954 0.73285 0.0
H688 H 0.9731 0.35186 0.25606 0.0
H689 H 0.96955 0.40808 0.34563 0.0
H690 H 0.93756 0.4591 0.32124 0.0
H691 H 0.90269 0.4838 0.27595 0.0
H692 H 0.91295 0.43079 0.18586 0.0
H693 H 0.9518 0.38324 0.20899 0.0
C694 C 0.96684 0.37548 0.27049 0.0
C695 C 0.97277 0.37457 0.30334 0.0
C696 C 0.94953 0.40566 0.25612 0.0
C697 C 0.9639 0.40637 0.32076 0.0
C698 C 0.94583 0.43607 0.30673 0.0
C699 C 0.91463 0.46255 0.26123 0.0
C700 C 0.90502 0.46075 0.22927 0.0
C701 C 0.93719 0.43534 0.27468 0.0
C702 C 0.9204 0.43305 0.21041 0.0
C703 C 0.94222 0.40556 0.22374 0.0
H704 H 0.13925 0.90978 0.82811 0.0
H705 H 0.12515 0.99705 0.76094 0.0
H706 H 0.08391 0.95811 0.72991 0.0
H707 H 0.05697 0.89635 0.71934 0.0
H708 H 0.07613 0.8095 0.78636 0.0
H709 H 0.10989 0.85113 0.81986 0.0
C710 C 0.12621 0.92085 0.80726 0.0
C711 C 0.13487 0.95649 0.79714 0.0
C712 C 0.10386 0.89797 0.78909 0.0
C713 C 0.11868 0.96979 0.76939 0.0
C714 C 0.09532 0.94741 0.75154 0.0
C715 C 0.0682 0.88681 0.74144 0.0
C716 C 0.06438 0.8497 0.75003 0.0
C717 C 0.08852 0.91099 0.76069 0.0
C718 C 0.07914 0.83772 0.7788 0.0
C719 C 0.09837 0.86156 0.79816 0.0
H720 H 0.60211 0.36104 0.70517 0.0
H721 H 0.51164 0.34527 0.77 0.0
H722 H 0.54042 0.38683 0.80735 0.0
H723 H 0.59052 0.42822 0.82149 0.0
H724 H 0.67601 0.45164 0.75424 0.0
H725 H 0.65119 0.40541 0.71851 0.0
C726 C 0.58832 0.36724 0.7272 0.0
C727 C 0.55461 0.35 0.73467 0.0
C728 C 0.60495 0.39149 0.74861 0.0
C729 C 0.5376 0.3579 0.76365 0.0
C730 C 0.55412 0.38158 0.78511 0.0
C731 C 0.60414 0.4226 0.79924 0.0
C732 C 0.63662 0.44151 0.79141 0.0
C733 C 0.58786 0.39828 0.77793 0.0
C734 C 0.65314 0.43512 0.76205 0.0
C735 C 0.638 0.40962 0.74113 0.0
H736 H 0.18167 0.57123 0.27012 0.0
H737 H 0.11173 0.52956 0.19654 0.0
H738 H 0.06188 0.56943 0.21438 0.0
H739 H 0.04253 0.62395 0.24485 0.0
H740 H 0.11128 0.66237 0.32025 0.0
H741 H 0.15682 0.6151 0.30819 0.0
C742 C 0.15519 0.5695 0.2586 0.0
C743 C 0.15118 0.54811 0.23121 0.0
C744 C 0.12645 0.59237 0.2691 0.0
C745 C 0.11628 0.54666 0.21694 0.0
C746 C 0.08762 0.56946 0.22716 0.0
C747 C 0.06697 0.62117 0.25921 0.0
C748 C 0.07378 0.64687 0.28309 0.0
C749 C 0.09308 0.59377 0.2522 0.0
C750 C 0.10536 0.64289 0.30175 0.0
C751 C 0.13161 0.61602 0.29469 0.0
H752 H 0.93996 0.11922 0.69858 0.0
H753 H 0.00563 0.14677 0.77944 0.0
H754 H 0.97208 0.10178 0.81091 0.0
H755 H 0.91727 0.06207 0.81737 0.0
H756 H 0.85299 0.03467 0.73567 0.0
H757 H 0.89363 0.07119 0.70263 0.0
C758 C 0.94808 0.11462 0.72274 0.0
C759 C 0.97486 0.13723 0.73662 0.0
C760 C 0.92853 0.08884 0.74081 0.0
C761 C 0.98446 0.13065 0.76819 0.0
C762 C 0.96528 0.1048 0.78627 0.0
C763 C 0.91283 0.06318 0.79221 0.0
C764 C 0.88163 0.04618 0.7792 0.0
C765 C 0.93613 0.08488 0.77318 0.0
C766 C 0.87642 0.04791 0.74647 0.0
C767 C 0.89961 0.06894 0.72749 0.0
H768 H 0.37466 0.98724 0.26246 0.0
H769 H 0.38266 0.922 0.17798 0.0
H770 H 0.43033 0.88459 0.20163 0.0
H771 H 0.46383 0.86482 0.24834 0.0
H772 H 0.45722 0.92828 0.33341 0.0
H773 H 0.41532 0.97194 0.30766 0.0
C774 C 0.38737 0.96528 0.24906 0.0
C775 C 0.37493 0.95775 0.21833 0.0
C776 C 0.41484 0.94323 0.26305 0.0
C777 C 0.3919 0.92914 0.20134 0.0
C778 C 0.419 0.9073 0.215 0.0
C779 C 0.45393 0.8888 0.26094 0.0
C780 C 0.46351 0.89352 0.2926 0.0
C781 C 0.42987 0.91338 0.24607 0.0
C782 C 0.4505 0.92444 0.30886 0.0
C783 C 0.42627 0.94913 0.29421 0.0
H784 H 0.43902 0.85356 0.7345 0.0
H785 H 0.45961 0.79124 0.81868 0.0
H786 H 0.42193 0.83425 0.84928 0.0
H787 H 0.37735 0.88512 0.85065 0.0
H788 H 0.35149 0.94291 0.7651 0.0
H789 H 0.39699 0.90625 0.73636 0.0
C790 C 0.4361 0.85007 0.75971 0.0
C791 C 0.45233 0.81965 0.77449 0.0
C792 C 0.4129 0.87373 0.77671 0.0
C793 C 0.44755 0.81471 0.80696 0.0
C794 C 0.42583 0.83912 0.82436 0.0
C795 C 0.38217 0.89005 0.82582 0.0
C796 C 0.36116 0.91656 0.80993 0.0
C797 C 0.40745 0.86804 0.80929 0.0
C798 C 0.36724 0.92245 0.77772 0.0
C799 C 0.39326 0.90155 0.76132 0.0
H800 H 0.67642 0.43189 0.2332 0.0
H801 H 0.73529 0.45519 0.31863 0.0
H802 H 0.68879 0.42208 0.34918 0.0
H803 H 0.63414 0.3823 0.35107 0.0
H804 H 0.57766 0.35583 0.26511 0.0
H805 H 0.62029 0.39446 0.23536 0.0
C806 C 0.67868 0.43032 0.25858 0.0
C807 C 0.70913 0.44612 0.27367 0.0
C808 C 0.65241 0.41035 0.27586 0.0
C809 C 0.71205 0.4433 0.30649 0.0
C810 C 0.68553 0.42428 0.32395 0.0
C811 C 0.63083 0.38546 0.3259 0.0
C812 C 0.60279 0.36622 0.31032 0.0
C813 C 0.65599 0.40707 0.30883 0.0
C814 C 0.5991 0.37025 0.27764 0.0
C815 C 0.62348 0.39233 0.26061 0.0
H816 H 0.04784 0.68195 0.81622 0.0
H817 H 0.04385 0.61949 0.73022 0.0
H818 H 0.08164 0.57162 0.75381 0.0
H819 H 0.12547 0.55384 0.79513 0.0
H820 H 0.12922 0.61595 0.88121 0.0
H821 H 0.08196 0.6577 0.86139 0.0
C822 C 0.05422 0.65728 0.80302 0.0
C823 C 0.04376 0.65461 0.77136 0.0
C824 C 0.07671 0.63027 0.81647 0.0
C825 C 0.05175 0.62233 0.75461 0.0
C826 C 0.07379 0.59511 0.76794 0.0
C827 C 0.11531 0.57612 0.80969 0.0
C828 C 0.13106 0.58242 0.83923 0.0
C829 C 0.08804 0.59982 0.79822 0.0
C830 C 0.11746 0.61082 0.85828 0.0
C831 C 0.09055 0.63473 0.84694 0.0
H832 H 0.87862 0.12935 0.34198 0.0
H833 H 0.93204 0.16911 0.25787 0.0
H834 H 0.89152 0.13129 0.22567 0.0
H835 H 0.83786 0.09119 0.22123 0.0
H836 H 0.78088 0.05511 0.30486 0.0
H837 H 0.82617 0.08677 0.33752 0.0
C838 C 0.88173 0.12928 0.31662 0.0
C839 C 0.90831 0.15198 0.30229 0.0
C840 C 0.85765 0.10819 0.29821 0.0
C841 C 0.91173 0.15198 0.26942 0.0
C842 C 0.88857 0.13036 0.25101 0.0
C843 C 0.83571 0.08959 0.24662 0.0
C844 C 0.80612 0.07062 0.26061 0.0
C845 C 0.86101 0.10891 0.26512 0.0
C846 C 0.80348 0.06936 0.29353 0.0
C847 C 0.82926 0.08763 0.31219 0.0
H848 H 0.44751 0.71883 0.22919 0.0
H849 H 0.44426 0.66102 0.31758 0.0
H850 H 0.40809 0.61209 0.29368 0.0
H851 H 0.37208 0.58878 0.24877 0.0
H852 H 0.37831 0.64516 0.15982 0.0
H853 H 0.41863 0.69139 0.1827 0.0
C854 C 0.43949 0.69517 0.24305 0.0
C855 C 0.44822 0.69378 0.27517 0.0
C856 C 0.41882 0.66704 0.22913 0.0
C857 C 0.43794 0.66278 0.29278 0.0
C858 C 0.41696 0.63489 0.2792 0.0
C859 C 0.38266 0.61099 0.2344 0.0
C860 C 0.37199 0.61381 0.20278 0.0
C861 C 0.40637 0.63723 0.2476 0.0
C862 C 0.38619 0.6424 0.18423 0.0
C863 C 0.40914 0.66893 0.19732 0.0
H864 H 0.84351 0.42625 0.79066 0.0
H865 H 0.75991 0.41571 0.71969 0.0
H866 H 0.80462 0.3854 0.68464 0.0
H867 H 0.86672 0.35716 0.67627 0.0
H868 H 0.94756 0.36536 0.74973 0.0
H869 H 0.905 0.40185 0.7815 0.0
C870 C 0.83498 0.41765 0.76742 0.0
C871 C 0.79829 0.42308 0.75791 0.0
C872 C 0.86057 0.39992 0.74778 0.0
C873 C 0.78796 0.41191 0.72761 0.0
C874 C 0.81353 0.39449 0.70761 0.0
C875 C 0.87516 0.36785 0.69888 0.0
C876 C 0.91038 0.35909 0.71056 0.0
C877 C 0.84984 0.3878 0.71764 0.0
C878 C 0.92075 0.37211 0.74022 0.0
C879 C 0.89634 0.39275 0.75846 0.0
H880 H 0.07131 0.79888 0.21823 0.0
H881 H 0.05229 0.87405 0.29497 0.0
H882 H 0.09082 0.91983 0.2694 0.0
H883 H 0.13729 0.93507 0.22922 0.0
H884 H 0.15487 0.86174 0.15127 0.0
H885 H 0.10997 0.81855 0.17336 0.0
C886 C 0.07464 0.82568 0.22886 0.0
C887 C 0.05949 0.83272 0.25876 0.0
C888 C 0.09745 0.85186 0.21423 0.0
C889 C 0.06396 0.86771 0.27212 0.0
C890 C 0.08631 0.89386 0.25767 0.0
C891 C 0.13085 0.90978 0.21701 0.0
C892 C 0.14954 0.90105 0.1891 0.0
C893 C 0.10451 0.8856 0.22947 0.0
C894 C 0.14074 0.86871 0.17296 0.0
C895 C 0.11513 0.84409 0.18557 0.0
H896 H 0.70543 0.05338 0.7119 0.0
H897 H 0.64645 0.05662 0.80022 0.0
H898 H 0.59791 0.09318 0.77633 0.0
H899 H 0.57656 0.13123 0.73246 0.0
H900 H 0.63425 0.12756 0.64376 0.0
H901 H 0.67884 0.08406 0.66556 0.0
C902 C 0.68151 0.0613 0.72569 0.0
C903 C 0.67986 0.05272 0.75789 0.0
C904 C 0.65374 0.08274 0.71187 0.0
C905 C 0.64857 0.06303 0.77542 0.0
C906 C 0.62086 0.08418 0.76185 0.0
C907 C 0.59861 0.12038 0.71784 0.0
C908 C 0.60257 0.13271 0.68679 0.0
C909 C 0.62389 0.09535 0.73046 0.0
C910 C 0.63078 0.11828 0.66778 0.0
C911 C 0.65634 0.09359 0.68028 0.0
H912 H 0.81024 0.30616 0.17712 0.0
H913 H 0.70863 0.3545 0.20951 0.0
H914 H 0.67894 0.29429 0.20888 0.0
H915 H 0.68544 0.2271 0.20734 0.0
H916 H 0.78897 0.17912 0.17854 0.0
H917 H 0.81432 0.23987 0.16903 0.0
C918 C 0.78137 0.30343 0.18335 0.0
C919 C 0.76171 0.33429 0.19374 0.0
C920 C 0.76508 0.26877 0.18396 0.0
C921 C 0.72419 0.33097 0.20134 0.0
C922 C 0.7074 0.29654 0.20133 0.0
C923 C 0.71342 0.23003 0.19871 0.0
C924 C 0.73547 0.19872 0.19419 0.0
C925 C 0.72812 0.2651 0.19405 0.0
C926 C 0.77137 0.20273 0.18219 0.0
C927 C 0.786 0.23749 0.17695 0.0
H928 H 0.30627 0.79745 0.7065 0.0
H929 H 0.34091 0.68477 0.71462 0.0
H930 H 0.27686 0.66531 0.72009 0.0
H931 H 0.21078 0.68014 0.71947 0.0
H932 H 0.176 0.79281 0.71163 0.0
H933 H 0.24024 0.81266 0.70944 0.0
C934 C 0.29969 0.76867 0.70943 0.0
C935 C 0.32817 0.74252 0.70982 0.0
C936 C 0.26282 0.75775 0.71262 0.0
C937 C 0.31945 0.70538 0.71435 0.0
C938 C 0.28284 0.69424 0.71732 0.0
C939 C 0.21737 0.70902 0.71735 0.0
C940 C 0.18879 0.73495 0.71542 0.0
C941 C 0.25429 0.72015 0.71602 0.0
C942 C 0.19756 0.77237 0.71333 0.0
C943 C 0.23425 0.78369 0.71185 0.0
H944 H 0.73479 0.19958 0.7647 0.0
H945 H 0.7293 0.16637 0.86174 0.0
H946 H 0.70727 0.22766 0.87659 0.0
H947 H 0.69759 0.29261 0.86234 0.0
H948 H 0.70618 0.3256 0.7653 0.0
H949 H 0.71926 0.26238 0.74983 0.0
C950 C 0.72859 0.20578 0.78907 0.0
C951 C 0.73431 0.17899 0.81224 0.0
C952 C 0.71691 0.24102 0.79733 0.0
C953 C 0.72515 0.18678 0.84361 0.0
C954 C 0.71285 0.2218 0.85206 0.0
C955 C 0.70156 0.2857 0.83778 0.0
C956 C 0.7015 0.3136 0.81498 0.0
C957 C 0.70975 0.24944 0.82921 0.0
C958 C 0.70686 0.30454 0.78323 0.0
C959 C 0.71422 0.26848 0.77441 0.0
H960 H 0.30741 0.76693 0.38554 0.0
H961 H 0.34703 0.7075 0.30462 0.0
H962 H 0.28434 0.68844 0.29233 0.0
H963 H 0.21809 0.70105 0.29785 0.0
H964 H 0.17848 0.76423 0.37662 0.0
H965 H 0.24106 0.76884 0.39707 0.0
C966 C 0.30225 0.74895 0.36577 0.0
C967 C 0.33141 0.73941 0.34557 0.0
C968 C 0.26607 0.73932 0.35823 0.0
C969 C 0.3249 0.71539 0.3204 0.0
C970 C 0.28901 0.70484 0.31316 0.0
C971 C 0.22323 0.71508 0.31985 0.0
C972 C 0.19417 0.73319 0.3353 0.0
C973 C 0.25932 0.71856 0.33082 0.0
C974 C 0.20061 0.75038 0.36425 0.0
C975 C 0.23639 0.75328 0.37577 0.0
H976 H 0.29647 0.69574 0.88888 0.0
H977 H 0.17984 0.6785 0.87891 0.0
H978 H 0.1691 0.74479 0.88124 0.0
H979 H 0.19432 0.80738 0.87728 0.0
H980 H 0.31123 0.82437 0.88561 0.0
H981 H 0.32064 0.75856 0.89342 0.0
C982 C 0.26868 0.70663 0.88796 0.0
C983 C 0.23901 0.68256 0.88335 0.0
C984 C 0.26293 0.74466 0.88874 0.0
C985 C 0.20302 0.69661 0.88257 0.0
C986 C 0.19697 0.73448 0.88358 0.0
C987 C 0.22171 0.79661 0.88151 0.0
C988 C 0.2521 0.82047 0.88049 0.0
C989 C 0.22688 0.75874 0.88534 0.0
C990 C 0.28745 0.80652 0.88642 0.0
C991 C 0.29284 0.76888 0.89056 0.0
H992 H 0.8124 0.20355 0.37726 0.0
H993 H 0.81782 0.32004 0.39179 0.0
H994 H 0.75082 0.32306 0.39811 0.0
H995 H 0.69082 0.2944 0.38805 0.0
H996 H 0.6855 0.17889 0.36806 0.0
H997 H 0.75198 0.17308 0.37579 0.0
C998 C 0.79884 0.22919 0.38315 0.0
C999 C 0.81959 0.26153 0.38414 0.0
C1000 C 0.76024 0.23086 0.38509 0.0
C1001 C 0.80203 0.2949 0.39107 0.0
C1002 C 0.76381 0.29662 0.39437 0.0
C1003 C 0.70413 0.26781 0.3866 0.0
C1004 C 0.68362 0.23716 0.37727 0.0
C1005 C 0.74253 0.26509 0.38976 0.0
C1006 C 0.70106 0.20284 0.37498 0.0
C1007 C 0.739 0.19958 0.37926 0.0
H1008 H 0.2986 0.69464 0.1195 0.0
H1009 H 0.18341 0.69339 0.14386 0.0
H1010 H 0.17853 0.75889 0.13245 0.0
H1011 H 0.21049 0.81804 0.12756 0.0
H1012 H 0.3266 0.81976 0.10725 0.0
H1013 H 0.32776 0.7528 0.10394 0.0
C1014 C 0.2722 0.70848 0.12104 0.0
C1015 C 0.24155 0.68955 0.13298 0.0
C1016 C 0.26998 0.74644 0.11549 0.0
C1017 C 0.20746 0.70774 0.13514 0.0
C1018 C 0.20471 0.74517 0.12873 0.0
C1019 C 0.23555 0.8037 0.12093 0.0
C1020 C 0.26845 0.82349 0.1178 0.0
C1021 C 0.23625 0.76517 0.12061 0.0
C1022 C 0.30102 0.80479 0.10974 0.0
C1023 C 0.30173 0.76656 0.10821 0.0
H1024 H 0.70143 0.30125 0.62233 0.0
H1025 H 0.68457 0.18456 0.62163 0.0
H1026 H 0.75124 0.17436 0.62092 0.0
H1027 H 0.81292 0.199 0.63227 0.0
H1028 H 0.82874 0.31598 0.63696 0.0
H1029 H 0.76414 0.32603 0.62401 0.0
C1030 C 0.7126 0.2737 0.62073 0.0
C1031 C 0.68852 0.24371 0.62236 0.0
C1032 C 0.75071 0.26823 0.62191 0.0
C1033 C 0.70276 0.208 0.62021 0.0
C1034 C 0.74083 0.20222 0.62036 0.0
C1035 C 0.80223 0.22663 0.62991 0.0
C1036 C 0.82522 0.25668 0.63621 0.0
C1037 C 0.76488 0.23213 0.62314 0.0
C1038 C 0.81152 0.29243 0.63234 0.0
C1039 C 0.77454 0.29818 0.6251 0.0
H1040 H 0.74799 0.99351 0.95813 0.0
H1041 H 0.77871 0.10711 0.94546 0.0
H1042 H 0.7655 0.11894 1.00063 0.0
H1043 H 0.74412 0.09753 0.05258 0.0
H1044 H 0.70809 0.98571 0.06375 0.0
H1045 H 0.72232 0.97342 1.00847 0.0
C1046 C 0.75121 0.02115 0.96696 0.0
C1047 C 0.7645 0.04925 0.94702 0.0
C1048 C 0.74181 0.02835 0.99846 0.0
C1049 C 0.76944 0.08449 0.95989 0.0
C1050 C 0.76132 0.09153 0.99152 0.0
C1051 C 0.73902 0.07059 0.04276 0.0
C1052 C 0.72497 0.04257 0.0622 0.0
C1053 C 0.74728 0.06375 1.01096 0.0
C1054 C 0.71837 0.00784 0.04919 0.0
C1055 C 0.72693 1.00072 0.01768 0.0
H1056 H 0.54855 0.7691 0.46875 0.0
H1057 H 0.43853 0.81382 0.46656 0.0
H1058 H 0.43268 0.80533 0.52331 0.0
H1059 H 0.45742 0.78169 0.57317 0.0
H1060 H 0.56803 0.73905 0.57614 0.0
H1061 H 0.57513 0.74985 0.51948 0.0
C1062 C 0.52347 0.7773 0.48082 0.0
C1063 C 0.49401 0.79205 0.46348 0.0
C1064 C 0.52027 0.77225 0.51348 0.0
C1065 C 0.46176 0.80283 0.4794 0.0
C1066 C 0.45825 0.79764 0.51181 0.0
C1067 C 0.48304 0.77486 0.56128 0.0
C1068 C 0.51202 0.75918 0.57843 0.0
C1069 C 0.48706 0.7818 0.52898 0.0
C1070 C 0.54536 0.75095 0.56317 0.0
C1071 C 0.54938 0.75714 0.53087 0.0
H1072 H 0.77183 0.43866 0.07338 0.0
H1073 H 0.78241 0.5563 0.07621 0.0
H1074 H 0.7697 0.55975 0.0198 0.0
H1075 H 0.75685 0.52887 0.96909 0.0
H1076 H 0.74537 0.41115 0.96748 0.0
H1077 H 0.7572 0.40827 0.0237 0.0
C1078 C 0.77174 0.46504 0.0616 0.0
C1079 C 0.77844 0.49712 0.07898 0.0
C1080 C 0.76411 0.46683 0.02927 0.0
C1081 C 0.77732 0.53116 0.06342 0.0
C1082 C 0.77007 0.53315 0.03114 0.0
C1083 C 0.75653 0.50268 0.98115 0.0
C1084 C 0.75063 0.47025 0.96391 0.0
C1085 C 0.76343 0.50113 0.01375 0.0
C1086 C 0.75048 0.4365 0.97997 0.0
C1087 C 0.75716 0.43478 1.0122 0.0
H1088 H 0.05968 0.7049 0.46884 0.0
H1089 H 0.02958 0.81863 0.45771 0.0
H1090 H 0.02653 0.82607 0.51465 0.0
H1091 H 0.03109 0.79988 0.56795 0.0
H1092 H 0.06012 0.68589 0.57877 0.0
H1093 H 0.06475 0.67893 0.52186 0.0
C1094 C 0.05216 0.73121 0.47888 0.0
C1095 C 0.04496 0.76113 0.45901 0.0
C1096 C 0.0503 0.73531 0.51169 0.0
C1097 C 0.03573 0.79522 0.47245 0.0
C1098 C 0.03383 0.7995 0.50504 0.0
C1099 C 0.03875 0.77367 0.55777 0.0
C1100 C 0.04499 0.74342 0.57748 0.0
C1101 C 0.04106 0.76974 0.52492 0.0
C1102 C 0.05469 0.70949 0.56403 0.0
C1103 C 0.05742 0.70548 0.5315 0.0
H1104 H 0.2489 0.95455 0.0585 0.0
H1105 H 0.25192 0.07208 0.0698 0.0
H1106 H 0.25759 0.0797 1.01289 0.0
H1107 H 0.26145 0.05296 0.95953 0.0
H1108 H 0.2597 0.93527 0.94892 0.0
H1109 H 0.2537 0.92794 1.00564 0.0
C1110 C 0.25083 0.98189 0.0486 0.0
C1111 C 0.24992 0.01269 0.06862 0.0
C1112 C 0.25423 0.98611 0.01578 0.0
C1113 C 0.25263 0.04783 0.05514 0.0
C1114 C 0.25578 0.05223 0.0225 0.0
C1115 C 0.25962 0.02572 0.9696 0.0
C1116 C 0.26093 0.99476 0.94975 0.0
C1117 C 0.25652 0.02158 1.00252 0.0
C1118 C 0.25883 0.95966 0.96342 0.0
C1119 C 0.25537 0.95539 0.99597 0.0
H1120 H 0.55765 0.24465 0.55856 0.0
H1121 H 0.4404 0.2578 0.57119 0.0
H1122 H 0.43307 0.26711 0.51467 0.0
H1123 H 0.45989 0.27127 0.46125 0.0
H1124 H 0.5775 0.26101 0.44919 0.0
H1125 H 0.58464 0.25082 0.50557 0.0
C1126 C 0.53046 0.24954 0.54898 0.0
C1127 C 0.49961 0.25036 0.56926 0.0
C1128 C 0.52646 0.25536 0.51639 0.0
C1129 C 0.46467 0.25711 0.5563 0.0
C1130 C 0.46043 0.26234 0.52388 0.0
C1131 C 0.48707 0.26668 0.47094 0.0
C1132 C 0.51808 0.26674 0.45084 0.0
C1133 C 0.4911 0.26144 0.50364 0.0
C1134 C 0.55313 0.26119 0.46398 0.0
C1135 C 0.55726 0.2553 0.49629 0.0
H1136 H 0.29894 0.56357 0.06631 0.0
H1137 H 0.23572 0.46408 0.07468 0.0
H1138 H 0.22626 0.46341 0.01767 0.0
H1139 H 0.23592 0.49184 0.96488 0.0
H1140 H 0.30154 0.5903 0.9585 0.0
H1141 H 0.3099 0.59041 0.01487 0.0
C1142 C 0.283 0.5417 0.05577 0.0
C1143 C 0.26794 0.51405 0.07486 0.0
C1144 C 0.2781 0.54122 0.02306 0.0
C1145 C 0.24768 0.48577 0.06059 0.0
C1146 C 0.24222 0.48539 0.02794 0.0
C1147 C 0.25209 0.51319 0.97588 0.0
C1148 C 0.26813 0.54088 0.95719 0.0
C1149 C 0.25729 0.51305 1.00883 0.0
C1150 C 0.28907 0.56834 0.97197 0.0
C1151 C 0.29384 0.56862 1.0044 0.0
H1152 H 0.02591 0.2735 0.46516 0.0
H1153 H 0.93847 0.19593 0.44827 0.0
H1154 H 0.92487 0.19348 0.50418 0.0
H1155 H 0.93611 0.21381 0.55759 0.0
H1156 H 0.02165 0.29258 0.57646 0.0
H1157 H 0.03761 0.29396 0.52028 0.0
C1158 C 1.00404 0.25591 0.47375 0.0
C1159 C 0.98331 0.23491 0.45222 0.0
C1160 C 0.99589 0.25486 0.50636 0.0
C1161 C 0.95489 0.2125 0.46397 0.0
C1162 C 0.94704 0.21103 0.49608 0.0
C1163 C 0.95846 0.23125 0.54967 0.0
C1164 C 0.97769 0.25299 0.57153 0.0
C1165 C 0.96714 0.23219 0.51744 0.0
C1166 C 0.00636 0.27547 0.56036 0.0
C1167 C 0.01546 0.27629 0.52815 0.0
loop_
_geom_bond_atom_site_label_1
_geom_bond_atom_site_label_2
_geom_bond_distance
_geom_bond_site_symmetry_2
_ccdc_geom_bond_type
Co0 N4 2.148 . S
Co0 N10 2.128 1_545 S
Co0 N20 2.194 . S
Co0 O25 2.351 . S
Co0 O26 2.155 . S
Co0 O27 2.096 . S
C1 N4 1.301 . S
C1 N5 1.328 . S
C1 H6 0.930 . S
C2 C3 1.333 . S
C2 N4 1.317 . S
C2 H7 0.930 . S
C3 C2 1.333 . S
C3 N5 1.350 . S
C3 H29 0.931 . S
N4 Co0 2.148 . S
N4 C1 1.301 . S
N4 C2 1.317 . S
N5 C1 1.328 . S
N5 C3 1.350 . S
H6 C1 0.930 . S
H7 C2 0.930 . S
C8 O9 1.224 . S
C8 O27 1.247 . S
O9 C8 1.224 . S
N10 Co0 2.128 1_565 S
N10 C11 1.355 . S
N10 C13 1.311 . S
C11 N10 1.355 . S
C11 C12 1.363 . S
C11 H23 0.929 . S
C12 C11 1.363 . S
C12 N14 1.375 . S
C12 H30 0.931 . S
C13 N10 1.311 . S
C13 N14 1.347 . S
C13 H24 0.929 . S
N14 C12 1.375 . S
N14 C13 1.347 . S
C15 C18 1.365 . S
C15 N20 1.328 . S
C15 H21 0.929 . S
C16 C17 1.362 . S
C16 C19 1.378 . S
C16 H31 0.929 . S
C17 C16 1.362 . S
C17 C18 1.366 . S
C18 C15 1.365 . S
C18 C17 1.366 . S
C18 H32 0.930 . S
C19 C16 1.378 . S
C19 N20 1.315 . S
C19 H22 0.930 . S
N20 Co0 2.194 . S
N20 C15 1.328 . S
N20 C19 1.315 . S
H21 C15 0.929 . S
H22 C19 0.930 . S
H23 C11 0.929 . S
H24 C13 0.929 . S
O25 Co0 2.351 . S
O25 C28 1.244 . S
O26 Co0 2.155 . S
O26 C28 1.240 . S
O27 Co0 2.096 . S
O27 C8 1.247 . S
C28 O25 1.244 . S
C28 O26 1.240 . S
H29 C3 0.931 . S
H30 C12 0.931 . S
H31 C16 0.929 . S
H32 C18 0.930 . S
Co33 N37 2.148 . S
Co33 N43 2.128 . S
Co33 N53 2.194 . S
Co33 O58 2.351 . S
Co33 O59 2.155 . S
Co33 O60 2.096 . S
C34 N37 1.301 . S
C34 N38 1.328 . S
C34 H39 0.930 . S
C35 C36 1.333 . S
C35 N37 1.317 . S
C35 H40 0.930 . S
C36 C35 1.333 . S
C36 N38 1.350 . S
C36 H62 0.931 . S
N37 Co33 2.148 . S
N37 C34 1.301 . S
N37 C35 1.317 . S
N38 C34 1.328 . S
N38 C36 1.350 . S
H39 C34 0.930 . S
H40 C35 0.930 . S
C41 O42 1.224 . S
C41 O60 1.247 . S
O42 C41 1.224 . S
N43 Co33 2.128 . S
N43 C44 1.355 . S
N43 C46 1.311 . S
C44 N43 1.355 . S
C44 C45 1.363 . S
C44 H56 0.929 . S
C45 C44 1.363 . S
C45 N47 1.375 . S
C45 H63 0.931 . S
C46 N43 1.311 . S
C46 N47 1.347 . S
C46 H57 0.929 . S
N47 C45 1.375 . S
N47 C46 1.347 . S
C48 C51 1.365 . S
C48 N53 1.328 . S
C48 H54 0.929 . S
C49 C50 1.362 . S
C49 C52 1.378 . S
C49 H64 0.929 . S
C50 C49 1.362 . S
C50 C51 1.366 . S
C51 C48 1.365 . S
C51 C50 1.366 . S
C51 H65 0.930 . S
C52 C49 1.378 . S
C52 N53 1.315 . S
C52 H55 0.930 . S
N53 Co33 2.194 . S
N53 C48 1.328 . S
N53 C52 1.315 . S
H54 C48 0.929 . S
H55 C52 0.930 . S
H56 C44 0.929 . S
H57 C46 0.929 . S
O58 Co33 2.351 . S
O58 C61 1.244 . S
O59 Co33 2.155 . S
O59 C61 1.240 . S
O60 Co33 2.096 . S
O60 C41 1.247 . S
C61 O58 1.244 . S
C61 O59 1.240 . S
H62 C36 0.931 . S
H63 C45 0.931 . S
H64 C49 0.929 . S
H65 C51 0.930 . S
Co66 N70 2.148 . S
Co66 N76 2.128 . S
Co66 N86 2.194 . S
Co66 O91 2.351 . S
Co66 O92 2.155 . S
Co66 O93 2.096 . S
C67 N70 1.301 . S
C67 N71 1.328 . S
C67 H72 0.930 . S
C68 C69 1.333 . S
C68 N70 1.317 . S
C68 H73 0.930 . S
C69 C68 1.333 . S
C69 N71 1.350 . S
C69 H95 0.931 . S
N70 Co66 2.148 . S
N70 C67 1.301 . S
N70 C68 1.317 . S
N71 C67 1.328 . S
N71 C69 1.350 . S
H72 C67 0.930 . S
H73 C68 0.930 . S
C74 O75 1.224 . S
C74 O93 1.247 . S
O75 C74 1.224 . S
N76 Co66 2.128 . S
N76 C77 1.355 . S
N76 C79 1.311 . S
C77 N76 1.355 . S
C77 C78 1.363 . S
C77 H89 0.929 . S
C78 C77 1.363 . S
C78 N80 1.375 . S
C78 H96 0.931 . S
C79 N76 1.311 . S
C79 N80 1.347 . S
C79 H90 0.929 . S
N80 C78 1.375 . S
N80 C79 1.347 . S
C81 C84 1.365 . S
C81 N86 1.328 . S
C81 H87 0.929 . S
C82 C83 1.362 . S
C82 C85 1.378 . S
C82 H97 0.929 . S
C83 C82 1.362 . S
C83 C84 1.366 . S
C84 C81 1.365 . S
C84 C83 1.366 . S
C84 H98 0.930 . S
C85 C82 1.378 . S
C85 N86 1.315 . S
C85 H88 0.930 . S
N86 Co66 2.194 . S
N86 C81 1.328 . S
N86 C85 1.315 . S
H87 C81 0.929 . S
H88 C85 0.930 . S
H89 C77 0.929 . S
H90 C79 0.929 . S
O91 Co66 2.351 . S
O91 C94 1.244 . S
O92 Co66 2.155 . S
O92 C94 1.240 . S
O93 Co66 2.096 . S
O93 C74 1.247 . S
C94 O91 1.244 . S
C94 O92 1.240 . S
H95 C69 0.931 . S
H96 C78 0.931 . S
H97 C82 0.929 . S
H98 C84 0.930 . S
Co99 N103 2.148 . S
Co99 N109 2.128 1_455 S
Co99 N119 2.194 . S
Co99 O124 2.351 . S
Co99 O125 2.155 . S
Co99 O126 2.096 . S
C100 N103 1.301 . S
C100 N104 1.328 . S
C100 H105 0.930 . S
C101 C102 1.333 . S
C101 N103 1.317 . S
C101 H106 0.930 . S
C102 C101 1.333 . S
C102 N104 1.350 . S
C102 H128 0.931 . S
N103 Co99 2.148 . S
N103 C100 1.301 . S
N103 C101 1.317 . S
N104 C100 1.328 . S
N104 C102 1.350 . S
H105 C100 0.930 . S
H106 C101 0.930 . S
C107 O108 1.224 . S
C107 O126 1.247 . S
O108 C107 1.224 . S
N109 Co99 2.128 1_655 S
N109 C110 1.355 . S
N109 C112 1.311 . S
C110 N109 1.355 . S
C110 C111 1.363 . S
C110 H122 0.929 . S
C111 C110 1.363 . S
C111 N113 1.375 . S
C111 H129 0.931 . S
C112 N109 1.311 . S
C112 N113 1.347 . S
C112 H123 0.929 . S
N113 C111 1.375 . S
N113 C112 1.347 . S
C114 C117 1.365 . S
C114 N119 1.328 . S
C114 H120 0.929 . S
C115 C116 1.362 . S
C115 C118 1.378 . S
C115 H130 0.929 . S
C116 C115 1.362 . S
C116 C117 1.366 . S
C117 C114 1.365 . S
C117 C116 1.366 . S
C117 H131 0.930 . S
C118 C115 1.378 . S
C118 N119 1.315 . S
C118 H121 0.930 . S
N119 Co99 2.194 . S
N119 C114 1.328 . S
N119 C118 1.315 . S
H120 C114 0.929 . S
H121 C118 0.930 . S
H122 C110 0.929 . S
H123 C112 0.929 . S
O124 Co99 2.351 . S
O124 C127 1.244 . S
O125 Co99 2.155 . S
O125 C127 1.240 . S
O126 Co99 2.096 . S
O126 C107 1.247 . S
C127 O124 1.244 . S
C127 O125 1.240 . S
H128 C102 0.931 . S
H129 C111 0.931 . S
H130 C115 0.929 . S
H131 C117 0.930 . S
Co132 N136 2.148 . S
Co132 N142 2.128 . S
Co132 N152 2.194 . S
Co132 O157 2.351 . S
Co132 O158 2.155 . S
Co132 O159 2.096 . S
C133 N136 1.301 . S
C133 N137 1.328 . S
C133 H138 0.930 . S
C134 C135 1.333 . S
C134 N136 1.317 . S
C134 H139 0.930 . S
C135 C134 1.333 . S
C135 N137 1.350 . S
C135 H161 0.931 . S
N136 Co132 2.148 . S
N136 C133 1.301 . S
N136 C134 1.317 . S
N137 C133 1.328 . S
N137 C135 1.350 . S
H138 C133 0.930 . S
H139 C134 0.930 . S
C140 O141 1.224 . S
C140 O159 1.247 . S
O141 C140 1.224 . S
N142 Co132 2.128 . S
N142 C143 1.355 . S
N142 C145 1.311 . S
C143 N142 1.355 . S
C143 C144 1.363 . S
C143 H155 0.929 . S
C144 C143 1.363 . S
C144 N146 1.375 . S
C144 H162 0.931 . S
C145 N142 1.311 . S
C145 N146 1.347 . S
C145 H156 0.929 . S
N146 C144 1.375 . S
N146 C145 1.347 . S
C147 C150 1.365 . S
C147 N152 1.328 . S
C147 H153 0.929 . S
C148 C149 1.362 . S
C148 C151 1.378 . S
C148 H163 0.929 . S
C149 C148 1.362 . S
C149 C150 1.366 . S
C150 C147 1.365 . S
C150 C149 1.366 . S
C150 H164 0.930 . S
C151 C148 1.378 . S
C151 N152 1.315 . S
C151 H154 0.930 . S
N152 Co132 2.194 . S
N152 C147 1.328 . S
N152 C151 1.315 . S
H153 C147 0.929 . S
H154 C151 0.930 . S
H155 C143 0.929 . S
H156 C145 0.929 . S
O157 Co132 2.351 . S
O157 C160 1.244 . S
O158 Co132 2.155 . S
O158 C160 1.240 . S
O159 Co132 2.096 . S
O159 C140 1.247 . S
C160 O157 1.244 . S
C160 O158 1.240 . S
H161 C135 0.931 . S
H162 C144 0.931 . S
H163 C148 0.929 . S
H164 C150 0.930 . S
Co165 N169 2.148 . S
Co165 N175 2.128 1_455 S
Co165 N185 2.194 . S
Co165 O190 2.351 . S
Co165 O191 2.155 . S
Co165 O192 2.096 . S
C166 N169 1.301 . S
C166 N170 1.328 . S
C166 H171 0.930 . S
C167 C168 1.333 . S
C167 N169 1.317 . S
C167 H172 0.930 . S
C168 C167 1.333 . S
C168 N170 1.350 . S
C168 H194 0.931 . S
N169 Co165 2.148 . S
N169 C166 1.301 . S
N169 C167 1.317 . S
N170 C166 1.328 . S
N170 C168 1.350 . S
H171 C166 0.930 . S
H172 C167 0.930 . S
C173 O174 1.224 . S
C173 O192 1.247 . S
O174 C173 1.224 . S
N175 Co165 2.128 1_655 S
N175 C176 1.355 . S
N175 C178 1.311 . S
C176 N175 1.355 . S
C176 C177 1.363 . S
C176 H188 0.929 . S
C177 C176 1.363 . S
C177 N179 1.375 . S
C177 H195 0.931 . S
C178 N175 1.311 . S
C178 N179 1.347 . S
C178 H189 0.929 . S
N179 C177 1.375 . S
N179 C178 1.347 . S
C180 C183 1.365 . S
C180 N185 1.328 . S
C180 H186 0.929 . S
C181 C182 1.362 . S
C181 C184 1.378 . S
C181 H196 0.929 . S
C182 C181 1.362 . S
C182 C183 1.366 . S
C183 C180 1.365 . S
C183 C182 1.366 . S
C183 H197 0.930 . S
C184 C181 1.378 . S
C184 N185 1.315 . S
C184 H187 0.930 . S
N185 Co165 2.194 . S
N185 C180 1.328 . S
N185 C184 1.315 . S
H186 C180 0.929 . S
H187 C184 0.930 . S
H188 C176 0.929 . S
H189 C178 0.929 . S
O190 Co165 2.351 . S
O190 C193 1.244 . S
O191 Co165 2.155 . S
O191 C193 1.240 . S
O192 Co165 2.096 . S
O192 C173 1.247 . S
C193 O190 1.244 . S
C193 O191 1.240 . S
H194 C168 0.931 . S
H195 C177 0.931 . S
H196 C181 0.929 . S
H197 C183 0.930 . S
Co198 N202 2.148 . S
Co198 N208 2.128 1_545 S
Co198 N218 2.194 . S
Co198 O223 2.351 . S
Co198 O224 2.155 . S
Co198 O225 2.096 . S
C199 N202 1.301 . S
C199 N203 1.328 . S
C199 H204 0.930 . S
C200 C201 1.333 . S
C200 N202 1.317 . S
C200 H205 0.930 . S
C201 C200 1.333 . S
C201 N203 1.350 . S
C201 H227 0.931 . S
N202 Co198 2.148 . S
N202 C199 1.301 . S
N202 C200 1.317 . S
N203 C199 1.328 . S
N203 C201 1.350 . S
H204 C199 0.930 . S
H205 C200 0.930 . S
C206 O207 1.224 . S
C206 O225 1.247 . S
O207 C206 1.224 . S
N208 Co198 2.128 1_565 S
N208 C209 1.355 . S
N208 C211 1.311 . S
C209 N208 1.355 . S
C209 C210 1.363 . S
C209 H221 0.929 . S
C210 C209 1.363 . S
C210 N212 1.375 . S
C210 H228 0.931 . S
C211 N208 1.311 . S
C211 N212 1.347 . S
C211 H222 0.929 . S
N212 C210 1.375 . S
N212 C211 1.347 . S
C213 C216 1.365 . S
C213 N218 1.328 . S
C213 H219 0.929 . S
C214 C215 1.362 . S
C214 C217 1.378 . S
C214 H229 0.929 . S
C215 C214 1.362 . S
C215 C216 1.366 . S
C216 C213 1.365 . S
C216 C215 1.366 . S
C216 H230 0.930 . S
C217 C214 1.378 . S
C217 N218 1.315 . S
C217 H220 0.930 . S
N218 Co198 2.194 . S
N218 C213 1.328 . S
N218 C217 1.315 . S
H219 C213 0.929 . S
H220 C217 0.930 . S
H221 C209 0.929 . S
H222 C211 0.929 . S
O223 Co198 2.351 . S
O223 C226 1.244 . S
O224 Co198 2.155 . S
O224 C226 1.240 . S
O225 Co198 2.096 . S
O225 C206 1.247 . S
C226 O223 1.244 . S
C226 O224 1.240 . S
H227 C201 0.931 . S
H228 C210 0.931 . S
H229 C214 0.929 . S
H230 C216 0.930 . S
Co231 N235 2.148 . S
Co231 N241 2.128 . S
Co231 N251 2.194 . S
Co231 O256 2.351 . S
Co231 O257 2.155 . S
Co231 O258 2.096 . S
C232 N235 1.301 . S
C232 N236 1.328 . S
C232 H237 0.930 . S
C233 C234 1.333 . S
C233 N235 1.317 . S
C233 H238 0.930 . S
C234 C233 1.333 . S
C234 N236 1.350 . S
C234 H260 0.931 . S
N235 Co231 2.148 . S
N235 C232 1.301 . S
N235 C233 1.317 . S
N236 C232 1.328 . S
N236 C234 1.350 . S
H237 C232 0.930 . S
H238 C233 0.930 . S
C239 O240 1.224 . S
C239 O258 1.247 . S
O240 C239 1.224 . S
N241 Co231 2.128 . S
N241 C242 1.355 . S
N241 C244 1.311 . S
C242 N241 1.355 . S
C242 C243 1.363 . S
C242 H254 0.929 . S
C243 C242 1.363 . S
C243 N245 1.375 . S
C243 H261 0.931 . S
C244 N241 1.311 . S
C244 N245 1.347 . S
C244 H255 0.929 . S
N245 C243 1.375 . S
N245 C244 1.347 . S
C246 C249 1.365 . S
C246 N251 1.328 . S
C246 H252 0.929 . S
C247 C248 1.362 . S
C247 C250 1.378 . S
C247 H262 0.929 . S
C248 C247 1.362 . S
C248 C249 1.366 . S
C249 C246 1.365 . S
C249 C248 1.366 . S
C249 H263 0.930 . S
C250 C247 1.378 . S
C250 N251 1.315 . S
C250 H253 0.930 . S
N251 Co231 2.194 . S
N251 C246 1.328 . S
N251 C250 1.315 . S
H252 C246 0.929 . S
H253 C250 0.930 . S
H254 C242 0.929 . S
H255 C244 0.929 . S
O256 Co231 2.351 . S
O256 C259 1.244 . S
O257 Co231 2.155 . S
O257 C259 1.240 . S
O258 Co231 2.096 . S
O258 C239 1.247 . S
C259 O256 1.244 . S
C259 O257 1.240 . S
H260 C234 0.931 . S
H261 C243 0.931 . S
H262 C247 0.929 . S
H263 C249 0.930 . S
Co264 N268 2.148 1_565 S
Co264 N274 2.128 . S
Co264 N284 2.194 . S
Co264 O289 2.351 . S
Co264 O290 2.155 . S
Co264 O291 2.096 . S
C265 N268 1.301 . S
C265 N269 1.328 . S
C265 H270 0.930 . S
C266 C267 1.333 . S
C266 N268 1.317 . S
C266 H271 0.930 . S
C267 C266 1.333 . S
C267 N269 1.350 . S
C267 H293 0.931 . S
N268 Co264 2.148 1_545 S
N268 C265 1.301 . S
N268 C266 1.317 . S
N269 C265 1.328 . S
N269 C267 1.350 . S
H270 C265 0.930 . S
H271 C266 0.930 . S
C272 O273 1.224 . S
C272 O291 1.247 . S
O273 C272 1.224 . S
N274 Co264 2.128 . S
N274 C275 1.355 . S
N274 C277 1.311 . S
C275 N274 1.355 . S
C275 C276 1.363 . S
C275 H287 0.929 . S
C276 C275 1.363 . S
C276 N278 1.375 . S
C276 H294 0.931 . S
C277 N274 1.311 . S
C277 N278 1.347 . S
C277 H288 0.929 . S
N278 C276 1.375 . S
N278 C277 1.347 . S
C279 C282 1.365 . S
C279 N284 1.328 . S
C279 H285 0.929 . S
C280 C281 1.362 . S
C280 C283 1.378 . S
C280 H295 0.929 . S
C281 C280 1.362 . S
C281 C282 1.366 . S
C282 C279 1.365 . S
C282 C281 1.366 . S
C282 H296 0.930 . S
C283 C280 1.378 . S
C283 N284 1.315 . S
C283 H286 0.930 . S
N284 Co264 2.194 . S
N284 C279 1.328 . S
N284 C283 1.315 . S
H285 C279 0.929 . S
H286 C283 0.930 . S
H287 C275 0.929 . S
H288 C277 0.929 . S
O289 Co264 2.351 . S
O289 C292 1.244 . S
O290 Co264 2.155 . S
O290 C292 1.240 . S
O291 Co264 2.096 . S
O291 C272 1.247 . S
C292 O289 1.244 . S
C292 O290 1.240 . S
H293 C267 0.931 . S
H294 C276 0.931 . S
H295 C280 0.929 . S
H296 C282 0.930 . S
Co297 N301 2.148 . S
Co297 N307 2.128 . S
Co297 N317 2.194 . S
Co297 O322 2.351 . S
Co297 O323 2.155 . S
Co297 O324 2.096 . S
C298 N301 1.301 . S
C298 N302 1.328 . S
C298 H303 0.930 . S
C299 C300 1.333 . S
C299 N301 1.317 . S
C299 H304 0.930 . S
C300 C299 1.333 . S
C300 N302 1.350 . S
C300 H326 0.931 . S
N301 Co297 2.148 . S
N301 C298 1.301 . S
N301 C299 1.317 . S
N302 C298 1.328 . S
N302 C300 1.350 . S
H303 C298 0.930 . S
H304 C299 0.930 . S
C305 O306 1.224 . S
C305 O324 1.247 . S
O306 C305 1.224 . S
N307 Co297 2.128 . S
N307 C308 1.355 . S
N307 C310 1.311 . S
C308 N307 1.355 . S
C308 C309 1.363 . S
C308 H320 0.929 . S
C309 C308 1.363 . S
C309 N311 1.375 . S
C309 H327 0.931 . S
C310 N307 1.311 . S
C310 N311 1.347 . S
C310 H321 0.929 . S
N311 C309 1.375 . S
N311 C310 1.347 . S
C312 C315 1.365 . S
C312 N317 1.328 . S
C312 H318 0.929 . S
C313 C314 1.362 . S
C313 C316 1.378 . S
C313 H328 0.929 . S
C314 C313 1.362 . S
C314 C315 1.366 . S
C315 C312 1.365 . S
C315 C314 1.366 . S
C315 H329 0.930 . S
C316 C313 1.378 . S
C316 N317 1.315 . S
C316 H319 0.930 . S
N317 Co297 2.194 . S
N317 C312 1.328 . S
N317 C316 1.315 . S
H318 C312 0.929 . S
H319 C316 0.930 . S
H320 C308 0.929 . S
H321 C310 0.929 . S
O322 Co297 2.351 . S
O322 C325 1.244 . S
O323 Co297 2.155 . S
O323 C325 1.240 . S
O324 Co297 2.096 . S
O324 C305 1.247 . S
C325 O322 1.244 . S
C325 O323 1.240 . S
H326 C300 0.931 . S
H327 C309 0.931 . S
H328 C313 0.929 . S
H329 C315 0.930 . S
Co330 N334 2.148 . S
Co330 N340 2.128 . S
Co330 N350 2.194 . S
Co330 O355 2.351 . S
Co330 O356 2.155 . S
Co330 O357 2.096 . S
C331 N334 1.301 . S
C331 N335 1.328 . S
C331 H336 0.930 . S
C332 C333 1.333 . S
C332 N334 1.317 . S
C332 H337 0.930 . S
C333 C332 1.333 . S
C333 N335 1.350 . S
C333 H359 0.931 . S
N334 Co330 2.148 . S
N334 C331 1.301 . S
N334 C332 1.317 . S
N335 C331 1.328 . S
N335 C333 1.350 . S
H336 C331 0.930 . S
H337 C332 0.930 . S
C338 O339 1.224 . S
C338 O357 1.247 . S
O339 C338 1.224 . S
N340 Co330 2.128 . S
N340 C341 1.355 . S
N340 C343 1.311 . S
C341 N340 1.355 . S
C341 C342 1.363 . S
C341 H353 0.929 . S
C342 C341 1.363 . S
C342 N344 1.375 . S
C342 H360 0.931 . S
C343 N340 1.311 . S
C343 N344 1.347 . S
C343 H354 0.929 . S
N344 C342 1.375 . S
N344 C343 1.347 . S
C345 C348 1.365 . S
C345 N350 1.328 . S
C345 H351 0.929 . S
C346 C347 1.362 . S
C346 C349 1.378 . S
C346 H361 0.929 . S
C347 C346 1.362 . S
C347 C348 1.366 . S
C348 C345 1.365 . S
C348 C347 1.366 . S
C348 H362 0.930 . S
C349 C346 1.378 . S
C349 N350 1.315 . S
C349 H352 0.930 . S
N350 Co330 2.194 . S
N350 C345 1.328 . S
N350 C349 1.315 . S
H351 C345 0.929 . S
H352 C349 0.930 . S
H353 C341 0.929 . S
H354 C343 0.929 . S
O355 Co330 2.351 . S
O355 C358 1.244 . S
O356 Co330 2.155 . S
O356 C358 1.240 . S
O357 Co330 2.096 . S
O357 C338 1.247 . S
C358 O355 1.244 . S
C358 O356 1.240 . S
H359 C333 0.931 . S
H360 C342 0.931 . S
H361 C346 0.929 . S
H362 C348 0.930 . S
Co363 N367 2.148 1_655 S
Co363 N373 2.128 . S
Co363 N383 2.194 . S
Co363 O388 2.351 . S
Co363 O389 2.155 . S
Co363 O390 2.096 . S
C364 N367 1.301 . S
C364 N368 1.328 . S
C364 H369 0.930 . S
C365 C366 1.333 . S
C365 N367 1.317 . S
C365 H370 0.930 . S
C366 C365 1.333 . S
C366 N368 1.350 . S
C366 H392 0.931 . S
N367 Co363 2.148 1_455 S
N367 C364 1.301 . S
N367 C365 1.317 . S
N368 C364 1.328 . S
N368 C366 1.350 . S
H369 C364 0.930 . S
H370 C365 0.930 . S
C371 O372 1.224 . S
C371 O390 1.247 . S
O372 C371 1.224 . S
N373 Co363 2.128 . S
N373 C374 1.355 . S
N373 C376 1.311 . S
C374 N373 1.355 . S
C374 C375 1.363 . S
C374 H386 0.929 . S
C375 C374 1.363 . S
C375 N377 1.375 . S
C375 H393 0.931 . S
C376 N373 1.311 . S
C376 N377 1.347 . S
C376 H387 0.929 . S
N377 C375 1.375 . S
N377 C376 1.347 . S
C378 C381 1.365 . S
C378 N383 1.328 . S
C378 H384 0.929 . S
C379 C380 1.362 . S
C379 C382 1.378 . S
C379 H394 0.929 . S
C380 C379 1.362 . S
C380 C381 1.366 . S
C381 C378 1.365 . S
C381 C380 1.366 . S
C381 H395 0.930 . S
C382 C379 1.378 . S
C382 N383 1.315 . S
C382 H385 0.930 . S
N383 Co363 2.194 . S
N383 C378 1.328 . S
N383 C382 1.315 . S
H384 C378 0.929 . S
H385 C382 0.930 . S
H386 C374 0.929 . S
H387 C376 0.929 . S
O388 Co363 2.351 . S
O388 C391 1.244 . S
O389 Co363 2.155 . S
O389 C391 1.240 . S
O390 Co363 2.096 . S
O390 C371 1.247 . S
C391 O388 1.244 . S
C391 O389 1.240 . S
H392 C366 0.931 . S
H393 C375 0.931 . S
H394 C379 0.929 . S
H395 C381 0.930 . S
Co396 N400 2.148 . S
Co396 N406 2.128 . S
Co396 N416 2.194 . S
Co396 O421 2.351 . S
Co396 O422 2.155 . S
Co396 O423 2.096 . S
C397 N400 1.301 . S
C397 N401 1.328 . S
C397 H402 0.930 . S
C398 C399 1.333 . S
C398 N400 1.317 . S
C398 H403 0.930 . S
C399 C398 1.333 . S
C399 N401 1.350 . S
C399 H425 0.931 . S
N400 Co396 2.148 . S
N400 C397 1.301 . S
N400 C398 1.317 . S
N401 C397 1.328 . S
N401 C399 1.350 . S
H402 C397 0.930 . S
H403 C398 0.930 . S
C404 O405 1.224 . S
C404 O423 1.247 . S
O405 C404 1.224 . S
N406 Co396 2.128 . S
N406 C407 1.355 . S
N406 C409 1.311 . S
C407 N406 1.355 . S
C407 C408 1.363 . S
C407 H419 0.929 . S
C408 C407 1.363 . S
C408 N410 1.375 . S
C408 H426 0.931 . S
C409 N406 1.311 . S
C409 N410 1.347 . S
C409 H420 0.929 . S
N410 C408 1.375 . S
N410 C409 1.347 . S
C411 C414 1.365 . S
C411 N416 1.328 . S
C411 H417 0.929 . S
C412 C413 1.362 . S
C412 C415 1.378 . S
C412 H427 0.929 . S
C413 C412 1.362 . S
C413 C414 1.366 . S
C414 C411 1.365 . S
C414 C413 1.366 . S
C414 H428 0.930 . S
C415 C412 1.378 . S
C415 N416 1.315 . S
C415 H418 0.930 . S
N416 Co396 2.194 . S
N416 C411 1.328 . S
N416 C415 1.315 . S
H417 C411 0.929 . S
H418 C415 0.930 . S
H419 C407 0.929 . S
H420 C409 0.929 . S
O421 Co396 2.351 . S
O421 C424 1.244 . S
O422 Co396 2.155 . S
O422 C424 1.240 . S
O423 Co396 2.096 . S
O423 C404 1.247 . S
C424 O421 1.244 . S
C424 O422 1.240 . S
H425 C399 0.931 . S
H426 C408 0.931 . S
H427 C412 0.929 . S
H428 C414 0.930 . S
Co429 N433 2.148 1_655 S
Co429 N439 2.128 . S
Co429 N449 2.194 . S
Co429 O454 2.351 . S
Co429 O455 2.155 . S
Co429 O456 2.096 . S
C430 N433 1.301 . S
C430 N434 1.328 . S
C430 H435 0.930 . S
C431 C432 1.333 . S
C431 N433 1.317 . S
C431 H436 0.930 . S
C432 C431 1.333 . S
C432 N434 1.350 . S
C432 H458 0.931 . S
N433 Co429 2.148 1_455 S
N433 C430 1.301 . S
N433 C431 1.317 . S
N434 C430 1.328 . S
N434 C432 1.350 . S
H435 C430 0.930 . S
H436 C431 0.930 . S
C437 O438 1.224 . S
C437 O456 1.247 . S
O438 C437 1.224 . S
N439 Co429 2.128 . S
N439 C440 1.355 . S
N439 C442 1.311 . S
C440 N439 1.355 . S
C440 C441 1.363 . S
C440 H452 0.929 . S
C441 C440 1.363 . S
C441 N443 1.375 . S
C441 H459 0.931 . S
C442 N439 1.311 . S
C442 N443 1.347 . S
C442 H453 0.929 . S
N443 C441 1.375 . S
N443 C442 1.347 . S
C444 C447 1.365 . S
C444 N449 1.328 . S
C444 H450 0.929 . S
C445 C446 1.362 . S
C445 C448 1.378 . S
C445 H460 0.929 . S
C446 C445 1.362 . S
C446 C447 1.366 . S
C447 C444 1.365 . S
C447 C446 1.366 . S
C447 H461 0.930 . S
C448 C445 1.378 . S
C448 N449 1.315 . S
C448 H451 0.930 . S
N449 Co429 2.194 . S
N449 C444 1.328 . S
N449 C448 1.315 . S
H450 C444 0.929 . S
H451 C448 0.930 . S
H452 C440 0.929 . S
H453 C442 0.929 . S
O454 Co429 2.351 . S
O454 C457 1.244 . S
O455 Co429 2.155 . S
O455 C457 1.240 . S
O456 Co429 2.096 . S
O456 C437 1.247 . S
C457 O454 1.244 . S
C457 O455 1.240 . S
H458 C432 0.931 . S
H459 C441 0.931 . S
H460 C445 0.929 . S
H461 C447 0.930 . S
Co462 N466 2.148 1_565 S
Co462 N472 2.128 . S
Co462 N482 2.194 . S
Co462 O487 2.351 . S
Co462 O488 2.155 . S
Co462 O489 2.096 . S
C463 N466 1.301 . S
C463 N467 1.328 . S
C463 H468 0.930 . S
C464 C465 1.333 . S
C464 N466 1.317 . S
C464 H469 0.930 . S
C465 C464 1.333 . S
C465 N467 1.350 . S
C465 H491 0.931 . S
N466 Co462 2.148 1_545 S
N466 C463 1.301 . S
N466 C464 1.317 . S
N467 C463 1.328 . S
N467 C465 1.350 . S
H468 C463 0.930 . S
H469 C464 0.930 . S
C470 O471 1.224 . S
C470 O489 1.247 . S
O471 C470 1.224 . S
N472 Co462 2.128 . S
N472 C473 1.355 . S
N472 C475 1.311 . S
C473 N472 1.355 . S
C473 C474 1.363 . S
C473 H485 0.929 . S
C474 C473 1.363 . S
C474 N476 1.375 . S
C474 H492 0.931 . S
C475 N472 1.311 . S
C475 N476 1.347 . S
C475 H486 0.929 . S
N476 C474 1.375 . S
N476 C475 1.347 . S
C477 C480 1.365 . S
C477 N482 1.328 . S
C477 H483 0.929 . S
C478 C479 1.362 . S
C478 C481 1.378 . S
C478 H493 0.929 . S
C479 C478 1.362 . S
C479 C480 1.366 . S
C480 C477 1.365 . S
C480 C479 1.366 . S
C480 H494 0.930 . S
C481 C478 1.378 . S
C481 N482 1.315 . S
C481 H484 0.930 . S
N482 Co462 2.194 . S
N482 C477 1.328 . S
N482 C481 1.315 . S
H483 C477 0.929 . S
H484 C481 0.930 . S
H485 C473 0.929 . S
H486 C475 0.929 . S
O487 Co462 2.351 . S
O487 C490 1.244 . S
O488 Co462 2.155 . S
O488 C490 1.240 . S
O489 Co462 2.096 . S
O489 C470 1.247 . S
C490 O487 1.244 . S
C490 O488 1.240 . S
H491 C465 0.931 . S
H492 C474 0.931 . S
H493 C478 0.929 . S
H494 C480 0.930 . S
Co495 N499 2.148 . S
Co495 N505 2.128 . S
Co495 N515 2.194 . S
Co495 O520 2.351 . S
Co495 O521 2.155 . S
Co495 O522 2.096 . S
C496 N499 1.301 . S
C496 N500 1.328 . S
C496 H501 0.930 . S
C497 C498 1.333 . S
C497 N499 1.317 . S
C497 H502 0.930 . S
C498 C497 1.333 . S
C498 N500 1.350 . S
C498 H524 0.931 . S
N499 Co495 2.148 . S
N499 C496 1.301 . S
N499 C497 1.317 . S
N500 C496 1.328 . S
N500 C498 1.350 . S
H501 C496 0.930 . S
H502 C497 0.930 . S
C503 O504 1.224 . S
C503 O522 1.247 . S
O504 C503 1.224 . S
N505 Co495 2.128 . S
N505 C506 1.355 . S
N505 C508 1.311 . S
C506 N505 1.355 . S
C506 C507 1.363 . S
C506 H518 0.929 . S
C507 C506 1.363 . S
C507 N509 1.375 . S
C507 H525 0.931 . S
C508 N505 1.311 . S
C508 N509 1.347 . S
C508 H519 0.929 . S
N509 C507 1.375 . S
N509 C508 1.347 . S
C510 C513 1.365 . S
C510 N515 1.328 . S
C510 H516 0.929 . S
C511 C512 1.362 . S
C511 C514 1.378 . S
C511 H526 0.929 . S
C512 C511 1.362 . S
C512 C513 1.366 . S
C513 C510 1.365 . S
C513 C512 1.366 . S
C513 H527 0.930 . S
C514 C511 1.378 . S
C514 N515 1.315 . S
C514 H517 0.930 . S
N515 Co495 2.194 . S
N515 C510 1.328 . S
N515 C514 1.315 . S
H516 C510 0.929 . S
H517 C514 0.930 . S
H518 C506 0.929 . S
H519 C508 0.929 . S
O520 Co495 2.351 . S
O520 C523 1.244 . S
O521 Co495 2.155 . S
O521 C523 1.240 . S
O522 Co495 2.096 . S
O522 C503 1.247 . S
C523 O520 1.244 . S
C523 O521 1.240 . S
H524 C498 0.931 . S
H525 C507 0.931 . S
H526 C511 0.929 . S
H527 C513 0.930 . S
H528 C534 0.930 . S
H529 C537 0.930 . S
H530 C538 0.930 . S
H531 C539 0.930 . S
H532 C542 0.930 . S
H533 C543 0.930 . S
C534 H528 0.930 . S
C534 C535 1.355 . S
C534 C536 1.415 . S
C535 C534 1.355 . S
C535 C537 1.419 . S
C536 C534 1.415 . S
C536 C541 1.425 . S
C536 C543 1.409 . S
C537 H529 0.930 . S
C537 C535 1.419 . S
C537 C538 1.362 . S
C538 H530 0.930 . S
C538 C537 1.362 . S
C538 C541 1.409 . S
C539 H531 0.930 . S
C539 C540 1.355 . S
C539 C541 1.415 . S
C540 C539 1.355 . S
C540 C542 1.419 . S
C541 C536 1.425 . S
C541 C538 1.409 . S
C541 C539 1.415 . S
C542 H532 0.930 . S
C542 C540 1.419 . S
C542 C543 1.362 . S
C543 H533 0.930 . S
C543 C536 1.409 . S
C543 C542 1.362 . S
H544 C550 0.930 . S
H545 C553 0.930 . S
H546 C554 0.930 . S
H547 C555 0.930 . S
H548 C558 0.930 . S
H549 C559 0.930 . S
C550 H544 0.930 . S
C550 C551 1.355 . S
C550 C552 1.415 . S
C551 C550 1.355 . S
C551 C553 1.419 . S
C552 C550 1.415 . S
C552 C557 1.425 . S
C552 C559 1.409 . S
C553 H545 0.930 . S
C553 C551 1.419 . S
C553 C554 1.362 . S
C554 H546 0.930 . S
C554 C553 1.362 . S
C554 C557 1.409 . S
C555 H547 0.930 . S
C555 C556 1.355 . S
C555 C557 1.415 . S
C556 C555 1.355 . S
C556 C558 1.419 . S
C557 C552 1.425 . S
C557 C554 1.409 . S
C557 C555 1.415 . S
C558 H548 0.930 . S
C558 C556 1.419 . S
C558 C559 1.362 . S
C559 H549 0.930 . S
C559 C552 1.409 . S
C559 C558 1.362 . S
H560 C566 0.930 . S
H561 C569 0.930 . S
H562 C570 0.930 . S
H563 C571 0.930 . S
H564 C574 0.930 . S
H565 C575 0.930 . S
C566 H560 0.930 . S
C566 C567 1.355 . S
C566 C568 1.415 . S
C567 C566 1.355 . S
C567 C569 1.419 . S
C568 C566 1.415 . S
C568 C573 1.425 . S
C568 C575 1.409 . S
C569 H561 0.930 . S
C569 C567 1.419 . S
C569 C570 1.362 . S
C570 H562 0.930 . S
C570 C569 1.362 . S
C570 C573 1.409 . S
C571 H563 0.930 . S
C571 C572 1.355 . S
C571 C573 1.415 . S
C572 C571 1.355 . S
C572 C574 1.419 . S
C573 C568 1.425 . S
C573 C570 1.409 . S
C573 C571 1.415 . S
C574 H564 0.930 . S
C574 C572 1.419 . S
C574 C575 1.362 . S
C575 H565 0.930 . S
C575 C568 1.409 . S
C575 C574 1.362 . S
H576 C582 0.930 . S
H577 C585 0.930 . S
H578 C586 0.930 . S
H579 C587 0.930 . S
H580 C590 0.930 . S
H581 C591 0.930 . S
C582 H576 0.930 . S
C582 C583 1.355 . S
C582 C584 1.415 . S
C583 C582 1.355 . S
C583 C585 1.419 . S
C584 C582 1.415 . S
C584 C589 1.425 . S
C584 C591 1.409 . S
C585 H577 0.930 . S
C585 C583 1.419 . S
C585 C586 1.362 . S
C586 H578 0.930 . S
C586 C585 1.362 . S
C586 C589 1.409 . S
C587 H579 0.930 . S
C587 C588 1.355 . S
C587 C589 1.415 . S
C588 C587 1.355 . S
C588 C590 1.419 . S
C589 C584 1.425 . S
C589 C586 1.409 . S
C589 C587 1.415 . S
C590 H580 0.930 . S
C590 C588 1.419 . S
C590 C591 1.362 . S
C591 H581 0.930 . S
C591 C584 1.409 . S
C591 C590 1.362 . S
H592 C598 0.930 . S
H593 C601 0.930 . S
H594 C602 0.930 . S
H595 C603 0.930 . S
H596 C606 0.930 . S
H597 C607 0.930 . S
C598 H592 0.930 . S
C598 C599 1.355 . S
C598 C600 1.415 . S
C599 C598 1.355 . S
C599 C601 1.419 . S
C600 C598 1.415 . S
C600 C605 1.425 . S
C600 C607 1.409 . S
C601 H593 0.930 . S
C601 C599 1.419 . S
C601 C602 1.362 . S
C602 H594 0.930 . S
C602 C601 1.362 . S
C602 C605 1.409 . S
C603 H595 0.930 . S
C603 C604 1.355 . S
C603 C605 1.415 . S
C604 C603 1.355 . S
C604 C606 1.419 . S
C605 C600 1.425 . S
C605 C602 1.409 . S
C605 C603 1.415 . S
C606 H596 0.930 . S
C606 C604 1.419 . S
C606 C607 1.362 . S
C607 H597 0.930 . S
C607 C600 1.409 . S
C607 C606 1.362 . S
H608 C614 0.930 . S
H609 C617 0.930 . S
H610 C618 0.930 . S
H611 C619 0.930 . S
H612 C622 0.930 . S
H613 C623 0.930 . S
C614 H608 0.930 . S
C614 C615 1.355 . S
C614 C616 1.415 . S
C615 C614 1.355 . S
C615 C617 1.419 . S
C616 C614 1.415 . S
C616 C621 1.425 . S
C616 C623 1.409 . S
C617 H609 0.930 . S
C617 C615 1.419 . S
C617 C618 1.362 . S
C618 H610 0.930 . S
C618 C617 1.362 . S
C618 C621 1.409 . S
C619 H611 0.930 . S
C619 C620 1.355 . S
C619 C621 1.415 . S
C620 C619 1.355 . S
C620 C622 1.419 . S
C621 C616 1.425 . S
C621 C618 1.409 . S
C621 C619 1.415 . S
C622 H612 0.930 . S
C622 C620 1.419 . S
C622 C623 1.362 . S
C623 H613 0.930 . S
C623 C616 1.409 . S
C623 C622 1.362 . S
H624 C630 0.930 . S
H625 C633 0.930 . S
H626 C634 0.930 . S
H627 C635 0.930 . S
H628 C638 0.930 . S
H629 C639 0.930 . S
C630 H624 0.930 . S
C630 C631 1.355 . S
C630 C632 1.415 . S
C631 C630 1.355 . S
C631 C633 1.419 . S
C632 C630 1.415 . S
C632 C637 1.425 . S
C632 C639 1.409 . S
C633 H625 0.930 . S
C633 C631 1.419 . S
C633 C634 1.362 . S
C634 H626 0.930 . S
C634 C633 1.362 . S
C634 C637 1.409 . S
C635 H627 0.930 . S
C635 C636 1.355 . S
C635 C637 1.415 . S
C636 C635 1.355 . S
C636 C638 1.419 . S
C637 C632 1.425 . S
C637 C634 1.409 . S
C637 C635 1.415 . S
C638 H628 0.930 . S
C638 C636 1.419 . S
C638 C639 1.362 . S
C639 H629 0.930 . S
C639 C632 1.409 . S
C639 C638 1.362 . S
H640 C646 0.930 . S
H641 C649 0.930 . S
H642 C650 0.930 . S
H643 C651 0.930 . S
H644 C654 0.930 . S
H645 C655 0.930 . S
C646 H640 0.930 . S
C646 C647 1.355 . S
C646 C648 1.415 . S
C647 C646 1.355 . S
C647 C649 1.419 . S
C648 C646 1.415 . S
C648 C653 1.425 . S
C648 C655 1.409 . S
C649 H641 0.930 . S
C649 C647 1.419 . S
C649 C650 1.362 . S
C650 H642 0.930 . S
C650 C649 1.362 . S
C650 C653 1.409 . S
C651 H643 0.930 . S
C651 C652 1.355 . S
C651 C653 1.415 . S
C652 C651 1.355 . S
C652 C654 1.419 . S
C653 C648 1.425 . S
C653 C650 1.409 . S
C653 C651 1.415 . S
C654 H644 0.930 . S
C654 C652 1.419 . S
C654 C655 1.362 . S
C655 H645 0.930 . S
C655 C648 1.409 . S
C655 C654 1.362 . S
H656 C662 0.930 . S
H657 C665 0.930 . S
H658 C666 0.930 . S
H659 C667 0.930 . S
H660 C670 0.930 . S
H661 C671 0.930 . S
C662 H656 0.930 . S
C662 C663 1.355 . S
C662 C664 1.415 . S
C663 C662 1.355 . S
C663 C665 1.419 . S
C664 C662 1.415 . S
C664 C669 1.425 . S
C664 C671 1.409 . S
C665 H657 0.930 . S
C665 C663 1.419 . S
C665 C666 1.362 . S
C666 H658 0.930 . S
C666 C665 1.362 . S
C666 C669 1.409 . S
C667 H659 0.930 . S
C667 C668 1.355 . S
C667 C669 1.415 . S
C668 C667 1.355 . S
C668 C670 1.419 . S
C669 C664 1.425 . S
C669 C666 1.409 . S
C669 C667 1.415 . S
C670 H660 0.930 . S
C670 C668 1.419 . S
C670 C671 1.362 . S
C671 H661 0.930 . S
C671 C664 1.409 . S
C671 C670 1.362 . S
H672 C678 0.930 . S
H673 C681 0.930 . S
H674 C682 0.930 . S
H675 C683 0.930 . S
H676 C686 0.930 . S
H677 C687 0.930 . S
C678 H672 0.930 . S
C678 C679 1.355 . S
C678 C680 1.415 . S
C679 C678 1.355 . S
C679 C681 1.419 . S
C680 C678 1.415 . S
C680 C685 1.425 . S
C680 C687 1.409 . S
C681 H673 0.930 . S
C681 C679 1.419 . S
C681 C682 1.362 . S
C682 H674 0.930 . S
C682 C681 1.362 . S
C682 C685 1.409 . S
C683 H675 0.930 . S
C683 C684 1.355 . S
C683 C685 1.415 . S
C684 C683 1.355 . S
C684 C686 1.419 . S
C685 C680 1.425 . S
C685 C682 1.409 . S
C685 C683 1.415 . S
C686 H676 0.930 . S
C686 C684 1.419 . S
C686 C687 1.362 . S
C687 H677 0.930 . S
C687 C680 1.409 . S
C687 C686 1.362 . S
H688 C694 0.930 . S
H689 C697 0.930 . S
H690 C698 0.930 . S
H691 C699 0.930 . S
H692 C702 0.930 . S
H693 C703 0.930 . S
C694 H688 0.930 . S
C694 C695 1.355 . S
C694 C696 1.415 . S
C695 C694 1.355 . S
C695 C697 1.419 . S
C696 C694 1.415 . S
C696 C701 1.425 . S
C696 C703 1.409 . S
C697 H689 0.930 . S
C697 C695 1.419 . S
C697 C698 1.362 . S
C698 H690 0.930 . S
C698 C697 1.362 . S
C698 C701 1.409 . S
C699 H691 0.930 . S
C699 C700 1.355 . S
C699 C701 1.415 . S
C700 C699 1.355 . S
C700 C702 1.419 . S
C701 C696 1.425 . S
C701 C698 1.409 . S
C701 C699 1.415 . S
C702 H692 0.930 . S
C702 C700 1.419 . S
C702 C703 1.362 . S
C703 H693 0.930 . S
C703 C696 1.409 . S
C703 C702 1.362 . S
H704 C710 0.930 . S
H705 C713 0.930 . S
H706 C714 0.930 . S
H707 C715 0.930 . S
H708 C718 0.930 . S
H709 C719 0.930 . S
C710 H704 0.930 . S
C710 C711 1.355 . S
C710 C712 1.415 . S
C711 C710 1.355 . S
C711 C713 1.419 . S
C712 C710 1.415 . S
C712 C717 1.425 . S
C712 C719 1.409 . S
C713 H705 0.930 . S
C713 C711 1.419 . S
C713 C714 1.362 . S
C714 H706 0.930 . S
C714 C713 1.362 . S
C714 C717 1.409 . S
C715 H707 0.930 . S
C715 C716 1.355 . S
C715 C717 1.415 . S
C716 C715 1.355 . S
C716 C718 1.419 . S
C717 C712 1.425 . S
C717 C714 1.409 . S
C717 C715 1.415 . S
C718 H708 0.930 . S
C718 C716 1.419 . S
C718 C719 1.362 . S
C719 H709 0.930 . S
C719 C712 1.409 . S
C719 C718 1.362 . S
H720 C726 0.930 . S
H721 C729 0.930 . S
H722 C730 0.930 . S
H723 C731 0.930 . S
H724 C734 0.930 . S
H725 C735 0.930 . S
C726 H720 0.930 . S
C726 C727 1.355 . S
C726 C728 1.415 . S
C727 C726 1.355 . S
C727 C729 1.419 . S
C728 C726 1.415 . S
C728 C733 1.425 . S
C728 C735 1.409 . S
C729 H721 0.930 . S
C729 C727 1.419 . S
C729 C730 1.362 . S
C730 H722 0.930 . S
C730 C729 1.362 . S
C730 C733 1.409 . S
C731 H723 0.930 . S
C731 C732 1.355 . S
C731 C733 1.415 . S
C732 C731 1.355 . S
C732 C734 1.419 . S
C733 C728 1.425 . S
C733 C730 1.409 . S
C733 C731 1.415 . S
C734 H724 0.930 . S
C734 C732 1.419 . S
C734 C735 1.362 . S
C735 H725 0.930 . S
C735 C728 1.409 . S
C735 C734 1.362 . S
H736 C742 0.930 . S
H737 C745 0.930 . S
H738 C746 0.930 . S
H739 C747 0.930 . S
H740 C750 0.930 . S
H741 C751 0.930 . S
C742 H736 0.930 . S
C742 C743 1.355 . S
C742 C744 1.415 . S
C743 C742 1.355 . S
C743 C745 1.419 . S
C744 C742 1.415 . S
C744 C749 1.425 . S
C744 C751 1.409 . S
C745 H737 0.930 . S
C745 C743 1.419 . S
C745 C746 1.362 . S
C746 H738 0.930 . S
C746 C745 1.362 . S
C746 C749 1.409 . S
C747 H739 0.930 . S
C747 C748 1.355 . S
C747 C749 1.415 . S
C748 C747 1.355 . S
C748 C750 1.419 . S
C749 C744 1.425 . S
C749 C746 1.409 . S
C749 C747 1.415 . S
C750 H740 0.930 . S
C750 C748 1.419 . S
C750 C751 1.362 . S
C751 H741 0.930 . S
C751 C744 1.409 . S
C751 C750 1.362 . S
H752 C758 0.930 . S
H753 C761 0.930 . S
H754 C762 0.930 . S
H755 C763 0.930 . S
H756 C766 0.930 . S
H757 C767 0.930 . S
C758 H752 0.930 . S
C758 C759 1.355 . S
C758 C760 1.415 . S
C759 C758 1.355 . S
C759 C761 1.419 . S
C760 C758 1.415 . S
C760 C765 1.425 . S
C760 C767 1.409 . S
C761 H753 0.930 . S
C761 C759 1.419 . S
C761 C762 1.362 . S
C762 H754 0.930 . S
C762 C761 1.362 . S
C762 C765 1.409 . S
C763 H755 0.930 . S
C763 C764 1.355 . S
C763 C765 1.415 . S
C764 C763 1.355 . S
C764 C766 1.419 . S
C765 C760 1.425 . S
C765 C762 1.409 . S
C765 C763 1.415 . S
C766 H756 0.930 . S
C766 C764 1.419 . S
C766 C767 1.362 . S
C767 H757 0.930 . S
C767 C760 1.409 . S
C767 C766 1.362 . S
H768 C774 0.930 . S
H769 C777 0.930 . S
H770 C778 0.930 . S
H771 C779 0.930 . S
H772 C782 0.930 . S
H773 C783 0.930 . S
C774 H768 0.930 . S
C774 C775 1.355 . S
C774 C776 1.415 . S
C775 C774 1.355 . S
C775 C777 1.419 . S
C776 C774 1.415 . S
C776 C781 1.425 . S
C776 C783 1.409 . S
C777 H769 0.930 . S
C777 C775 1.419 . S
C777 C778 1.362 . S
C778 H770 0.930 . S
C778 C777 1.362 . S
C778 C781 1.409 . S
C779 H771 0.930 . S
C779 C780 1.355 . S
C779 C781 1.415 . S
C780 C779 1.355 . S
C780 C782 1.419 . S
C781 C776 1.425 . S
C781 C778 1.409 . S
C781 C779 1.415 . S
C782 H772 0.930 . S
C782 C780 1.419 . S
C782 C783 1.362 . S
C783 H773 0.930 . S
C783 C776 1.409 . S
C783 C782 1.362 . S
H784 C790 0.930 . S
H785 C793 0.930 . S
H786 C794 0.930 . S
H787 C795 0.930 . S
H788 C798 0.930 . S
H789 C799 0.930 . S
C790 H784 0.930 . S
C790 C791 1.355 . S
C790 C792 1.415 . S
C791 C790 1.355 . S
C791 C793 1.419 . S
C792 C790 1.415 . S
C792 C797 1.425 . S
C792 C799 1.409 . S
C793 H785 0.930 . S
C793 C791 1.419 . S
C793 C794 1.362 . S
C794 H786 0.930 . S
C794 C793 1.362 . S
C794 C797 1.409 . S
C795 H787 0.930 . S
C795 C796 1.355 . S
C795 C797 1.415 . S
C796 C795 1.355 . S
C796 C798 1.419 . S
C797 C792 1.425 . S
C797 C794 1.409 . S
C797 C795 1.415 . S
C798 H788 0.930 . S
C798 C796 1.419 . S
C798 C799 1.362 . S
C799 H789 0.930 . S
C799 C792 1.409 . S
C799 C798 1.362 . S
H800 C806 0.930 . S
H801 C809 0.930 . S
H802 C810 0.930 . S
H803 C811 0.930 . S
H804 C814 0.930 . S
H805 C815 0.930 . S
C806 H800 0.930 . S
C806 C807 1.355 . S
C806 C808 1.415 . S
C807 C806 1.355 . S
C807 C809 1.419 . S
C808 C806 1.415 . S
C808 C813 1.425 . S
C808 C815 1.409 . S
C809 H801 0.930 . S
C809 C807 1.419 . S
C809 C810 1.362 . S
C810 H802 0.930 . S
C810 C809 1.362 . S
C810 C813 1.409 . S
C811 H803 0.930 . S
C811 C812 1.355 . S
C811 C813 1.415 . S
C812 C811 1.355 . S
C812 C814 1.419 . S
C813 C808 1.425 . S
C813 C810 1.409 . S
C813 C811 1.415 . S
C814 H804 0.930 . S
C814 C812 1.419 . S
C814 C815 1.362 . S
C815 H805 0.930 . S
C815 C808 1.409 . S
C815 C814 1.362 . S
H816 C822 0.930 . S
H817 C825 0.930 . S
H818 C826 0.930 . S
H819 C827 0.930 . S
H820 C830 0.930 . S
H821 C831 0.930 . S
C822 H816 0.930 . S
C822 C823 1.355 . S
C822 C824 1.415 . S
C823 C822 1.355 . S
C823 C825 1.419 . S
C824 C822 1.415 . S
C824 C829 1.425 . S
C824 C831 1.409 . S
C825 H817 0.930 . S
C825 C823 1.419 . S
C825 C826 1.362 . S
C826 H818 0.930 . S
C826 C825 1.362 . S
C826 C829 1.409 . S
C827 H819 0.930 . S
C827 C828 1.355 . S
C827 C829 1.415 . S
C828 C827 1.355 . S
C828 C830 1.419 . S
C829 C824 1.425 . S
C829 C826 1.409 . S
C829 C827 1.415 . S
C830 H820 0.930 . S
C830 C828 1.419 . S
C830 C831 1.362 . S
C831 H821 0.930 . S
C831 C824 1.409 . S
C831 C830 1.362 . S
H832 C838 0.930 . S
H833 C841 0.930 . S
H834 C842 0.930 . S
H835 C843 0.930 . S
H836 C846 0.930 . S
H837 C847 0.930 . S
C838 H832 0.930 . S
C838 C839 1.355 . S
C838 C840 1.415 . S
C839 C838 1.355 . S
C839 C841 1.419 . S
C840 C838 1.415 . S
C840 C845 1.425 . S
C840 C847 1.409 . S
C841 H833 0.930 . S
C841 C839 1.419 . S
C841 C842 1.362 . S
C842 H834 0.930 . S
C842 C841 1.362 . S
C842 C845 1.409 . S
C843 H835 0.930 . S
C843 C844 1.355 . S
C843 C845 1.415 . S
C844 C843 1.355 . S
C844 C846 1.419 . S
C845 C840 1.425 . S
C845 C842 1.409 . S
C845 C843 1.415 . S
C846 H836 0.930 . S
C846 C844 1.419 . S
C846 C847 1.362 . S
C847 H837 0.930 . S
C847 C840 1.409 . S
C847 C846 1.362 . S
H848 C854 0.930 . S
H849 C857 0.930 . S
H850 C858 0.930 . S
H851 C859 0.930 . S
H852 C862 0.930 . S
H853 C863 0.930 . S
C854 H848 0.930 . S
C854 C855 1.355 . S
C854 C856 1.415 . S
C855 C854 1.355 . S
C855 C857 1.419 . S
C856 C854 1.415 . S
C856 C861 1.425 . S
C856 C863 1.409 . S
C857 H849 0.930 . S
C857 C855 1.419 . S
C857 C858 1.362 . S
C858 H850 0.930 . S
C858 C857 1.362 . S
C858 C861 1.409 . S
C859 H851 0.930 . S
C859 C860 1.355 . S
C859 C861 1.415 . S
C860 C859 1.355 . S
C860 C862 1.419 . S
C861 C856 1.425 . S
C861 C858 1.409 . S
C861 C859 1.415 . S
C862 H852 0.930 . S
C862 C860 1.419 . S
C862 C863 1.362 . S
C863 H853 0.930 . S
C863 C856 1.409 . S
C863 C862 1.362 . S
H864 C870 0.930 . S
H865 C873 0.930 . S
H866 C874 0.930 . S
H867 C875 0.930 . S
H868 C878 0.930 . S
H869 C879 0.930 . S
C870 H864 0.930 . S
C870 C871 1.355 . S
C870 C872 1.415 . S
C871 C870 1.355 . S
C871 C873 1.419 . S
C872 C870 1.415 . S
C872 C877 1.425 . S
C872 C879 1.409 . S
C873 H865 0.930 . S
C873 C871 1.419 . S
C873 C874 1.362 . S
C874 H866 0.930 . S
C874 C873 1.362 . S
C874 C877 1.409 . S
C875 H867 0.930 . S
C875 C876 1.355 . S
C875 C877 1.415 . S
C876 C875 1.355 . S
C876 C878 1.419 . S
C877 C872 1.425 . S
C877 C874 1.409 . S
C877 C875 1.415 . S
C878 H868 0.930 . S
C878 C876 1.419 . S
C878 C879 1.362 . S
C879 H869 0.930 . S
C879 C872 1.409 . S
C879 C878 1.362 . S
H880 C886 0.930 . S
H881 C889 0.930 . S
H882 C890 0.930 . S
H883 C891 0.930 . S
H884 C894 0.930 . S
H885 C895 0.930 . S
C886 H880 0.930 . S
C886 C887 1.355 . S
C886 C888 1.415 . S
C887 C886 1.355 . S
C887 C889 1.419 . S
C888 C886 1.415 . S
C888 C893 1.425 . S
C888 C895 1.409 . S
C889 H881 0.930 . S
C889 C887 1.419 . S
C889 C890 1.362 . S
C890 H882 0.930 . S
C890 C889 1.362 . S
C890 C893 1.409 . S
C891 H883 0.930 . S
C891 C892 1.355 . S
C891 C893 1.415 . S
C892 C891 1.355 . S
C892 C894 1.419 . S
C893 C888 1.425 . S
C893 C890 1.409 . S
C893 C891 1.415 . S
C894 H884 0.930 . S
C894 C892 1.419 . S
C894 C895 1.362 . S
C895 H885 0.930 . S
C895 C888 1.409 . S
C895 C894 1.362 . S
H896 C902 0.930 . S
H897 C905 0.930 . S
H898 C906 0.930 . S
H899 C907 0.930 . S
H900 C910 0.930 . S
H901 C911 0.930 . S
C902 H896 0.930 . S
C902 C903 1.355 . S
C902 C904 1.415 . S
C903 C902 1.355 . S
C903 C905 1.419 . S
C904 C902 1.415 . S
C904 C909 1.425 . S
C904 C911 1.409 . S
C905 H897 0.930 . S
C905 C903 1.419 . S
C905 C906 1.362 . S
C906 H898 0.930 . S
C906 C905 1.362 . S
C906 C909 1.409 . S
C907 H899 0.930 . S
C907 C908 1.355 . S
C907 C909 1.415 . S
C908 C907 1.355 . S
C908 C910 1.419 . S
C909 C904 1.425 . S
C909 C906 1.409 . S
C909 C907 1.415 . S
C910 H900 0.930 . S
C910 C908 1.419 . S
C910 C911 1.362 . S
C911 H901 0.930 . S
C911 C904 1.409 . S
C911 C910 1.362 . S
H912 C918 0.930 . S
H913 C921 0.930 . S
H914 C922 0.930 . S
H915 C923 0.930 . S
H916 C926 0.930 . S
H917 C927 0.930 . S
C918 H912 0.930 . S
C918 C919 1.355 . S
C918 C920 1.415 . S
C919 C918 1.355 . S
C919 C921 1.419 . S
C920 C918 1.415 . S
C920 C925 1.425 . S
C920 C927 1.409 . S
C921 H913 0.930 . S
C921 C919 1.419 . S
C921 C922 1.362 . S
C922 H914 0.930 . S
C922 C921 1.362 . S
C922 C925 1.409 . S
C923 H915 0.930 . S
C923 C924 1.355 . S
C923 C925 1.415 . S
C924 C923 1.355 . S
C924 C926 1.419 . S
C925 C920 1.425 . S
C925 C922 1.409 . S
C925 C923 1.415 . S
C926 H916 0.930 . S
C926 C924 1.419 . S
C926 C927 1.362 . S
C927 H917 0.930 . S
C927 C920 1.409 . S
C927 C926 1.362 . S
H928 C934 0.930 . S
H929 C937 0.930 . S
H930 C938 0.930 . S
H931 C939 0.930 . S
H932 C942 0.930 . S
H933 C943 0.930 . S
C934 H928 0.930 . S
C934 C935 1.355 . S
C934 C936 1.415 . S
C935 C934 1.355 . S
C935 C937 1.419 . S
C936 C934 1.415 . S
C936 C941 1.425 . S
C936 C943 1.409 . S
C937 H929 0.930 . S
C937 C935 1.419 . S
C937 C938 1.362 . S
C938 H930 0.930 . S
C938 C937 1.362 . S
C938 C941 1.409 . S
C939 H931 0.930 . S
C939 C940 1.355 . S
C939 C941 1.415 . S
C940 C939 1.355 . S
C940 C942 1.419 . S
C941 C936 1.425 . S
C941 C938 1.409 . S
C941 C939 1.415 . S
C942 H932 0.930 . S
C942 C940 1.419 . S
C942 C943 1.362 . S
C943 H933 0.930 . S
C943 C936 1.409 . S
C943 C942 1.362 . S
H944 C950 0.930 . S
H945 C953 0.930 . S
H946 C954 0.930 . S
H947 C955 0.930 . S
H948 C958 0.930 . S
H949 C959 0.930 . S
C950 H944 0.930 . S
C950 C951 1.355 . S
C950 C952 1.415 . S
C951 C950 1.355 . S
C951 C953 1.419 . S
C952 C950 1.415 . S
C952 C957 1.425 . S
C952 C959 1.409 . S
C953 H945 0.930 . S
C953 C951 1.419 . S
C953 C954 1.362 . S
C954 H946 0.930 . S
C954 C953 1.362 . S
C954 C957 1.409 . S
C955 H947 0.930 . S
C955 C956 1.355 . S
C955 C957 1.415 . S
C956 C955 1.355 . S
C956 C958 1.419 . S
C957 C952 1.425 . S
C957 C954 1.409 . S
C957 C955 1.415 . S
C958 H948 0.930 . S
C958 C956 1.419 . S
C958 C959 1.362 . S
C959 H949 0.930 . S
C959 C952 1.409 . S
C959 C958 1.362 . S
H960 C966 0.930 . S
H961 C969 0.930 . S
H962 C970 0.930 . S
H963 C971 0.930 . S
H964 C974 0.930 . S
H965 C975 0.930 . S
C966 H960 0.930 . S
C966 C967 1.355 . S
C966 C968 1.415 . S
C967 C966 1.355 . S
C967 C969 1.419 . S
C968 C966 1.415 . S
C968 C973 1.425 . S
C968 C975 1.409 . S
C969 H961 0.930 . S
C969 C967 1.419 . S
C969 C970 1.362 . S
C970 H962 0.930 . S
C970 C969 1.362 . S
C970 C973 1.409 . S
C971 H963 0.930 . S
C971 C972 1.355 . S
C971 C973 1.415 . S
C972 C971 1.355 . S
C972 C974 1.419 . S
C973 C968 1.425 . S
C973 C970 1.409 . S
C973 C971 1.415 . S
C974 H964 0.930 . S
C974 C972 1.419 . S
C974 C975 1.362 . S
C975 H965 0.930 . S
C975 C968 1.409 . S
C975 C974 1.362 . S
H976 C982 0.930 . S
H977 C985 0.930 . S
H978 C986 0.930 . S
H979 C987 0.930 . S
H980 C990 0.930 . S
H981 C991 0.930 . S
C982 H976 0.930 . S
C982 C983 1.355 . S
C982 C984 1.415 . S
C983 C982 1.355 . S
C983 C985 1.419 . S
C984 C982 1.415 . S
C984 C989 1.425 . S
C984 C991 1.409 . S
C985 H977 0.930 . S
C985 C983 1.419 . S
C985 C986 1.362 . S
C986 H978 0.930 . S
C986 C985 1.362 . S
C986 C989 1.409 . S
C987 H979 0.930 . S
C987 C988 1.355 . S
C987 C989 1.415 . S
C988 C987 1.355 . S
C988 C990 1.419 . S
C989 C984 1.425 . S
C989 C986 1.409 . S
C989 C987 1.415 . S
C990 H980 0.930 . S
C990 C988 1.419 . S
C990 C991 1.362 . S
C991 H981 0.930 . S
C991 C984 1.409 . S
C991 C990 1.362 . S
H992 C998 0.930 . S
H993 C1001 0.930 . S
H994 C1002 0.930 . S
H995 C1003 0.930 . S
H996 C1006 0.930 . S
H997 C1007 0.930 . S
C998 H992 0.930 . S
C998 C999 1.355 . S
C998 C1000 1.415 . S
C999 C998 1.355 . S
C999 C1001 1.419 . S
C1000 C998 1.415 . S
C1000 C1005 1.425 . S
C1000 C1007 1.409 . S
C1001 H993 0.930 . S
C1001 C999 1.419 . S
C1001 C1002 1.362 . S
C1002 H994 0.930 . S
C1002 C1001 1.362 . S
C1002 C1005 1.409 . S
C1003 H995 0.930 . S
C1003 C1004 1.355 . S
C1003 C1005 1.415 . S
C1004 C1003 1.355 . S
C1004 C1006 1.419 . S
C1005 C1000 1.425 . S
C1005 C1002 1.409 . S
C1005 C1003 1.415 . S
C1006 H996 0.930 . S
C1006 C1004 1.419 . S
C1006 C1007 1.362 . S
C1007 H997 0.930 . S
C1007 C1000 1.409 . S
C1007 C1006 1.362 . S
H1008 C1014 0.930 . S
H1009 C1017 0.930 . S
H1010 C1018 0.930 . S
H1011 C1019 0.930 . S
H1012 C1022 0.930 . S
H1013 C1023 0.930 . S
C1014 H1008 0.930 . S
C1014 C1015 1.355 . S
C1014 C1016 1.415 . S
C1015 C1014 1.355 . S
C1015 C1017 1.419 . S
C1016 C1014 1.415 . S
C1016 C1021 1.425 . S
C1016 C1023 1.409 . S
C1017 H1009 0.930 . S
C1017 C1015 1.419 . S
C1017 C1018 1.362 . S
C1018 H1010 0.930 . S
C1018 C1017 1.362 . S
C1018 C1021 1.409 . S
C1019 H1011 0.930 . S
C1019 C1020 1.355 . S
C1019 C1021 1.415 . S
C1020 C1019 1.355 . S
C1020 C1022 1.419 . S
C1021 C1016 1.425 . S
C1021 C1018 1.409 . S
C1021 C1019 1.415 . S
C1022 H1012 0.930 . S
C1022 C1020 1.419 . S
C1022 C1023 1.362 . S
C1023 H1013 0.930 . S
C1023 C1016 1.409 . S
C1023 C1022 1.362 . S
H1024 C1030 0.930 . S
H1025 C1033 0.930 . S
H1026 C1034 0.930 . S
H1027 C1035 0.930 . S
H1028 C1038 0.930 . S
H1029 C1039 0.930 . S
C1030 H1024 0.930 . S
C1030 C1031 1.355 . S
C1030 C1032 1.415 . S
C1031 C1030 1.355 . S
C1031 C1033 1.419 . S
C1032 C1030 1.415 . S
C1032 C1037 1.425 . S
C1032 C1039 1.409 . S
C1033 H1025 0.930 . S
C1033 C1031 1.419 . S
C1033 C1034 1.362 . S
C1034 H1026 0.930 . S
C1034 C1033 1.362 . S
C1034 C1037 1.409 . S
C1035 H1027 0.930 . S
C1035 C1036 1.355 . S
C1035 C1037 1.415 . S
C1036 C1035 1.355 . S
C1036 C1038 1.419 . S
C1037 C1032 1.425 . S
C1037 C1034 1.409 . S
C1037 C1035 1.415 . S
C1038 H1028 0.930 . S
C1038 C1036 1.419 . S
C1038 C1039 1.362 . S
C1039 H1029 0.930 . S
C1039 C1032 1.409 . S
C1039 C1038 1.362 . S
H1040 C1046 0.930 . S
H1041 C1049 0.930 . S
H1042 C1050 0.930 . S
H1043 C1051 0.930 . S
H1044 C1054 0.930 . S
H1045 C1055 0.930 . S
C1046 H1040 0.930 . S
C1046 C1047 1.355 1_565 S
C1046 C1048 1.415 1_565 S
C1047 C1046 1.355 1_545 S
C1047 C1049 1.419 . S
C1048 C1046 1.415 1_545 S
C1048 C1053 1.425 1_556 S
C1048 C1055 1.409 1_546 S
C1049 H1041 0.930 . S
C1049 C1047 1.419 . S
C1049 C1050 1.362 . S
C1050 H1042 0.930 . S
C1050 C1049 1.362 . S
C1050 C1053 1.409 1_556 S
C1051 H1043 0.930 . S
C1051 C1052 1.355 . S
C1051 C1053 1.415 . S
C1052 C1051 1.355 . S
C1052 C1054 1.419 1_545 S
C1053 C1048 1.425 1_554 S
C1053 C1050 1.409 1_554 S
C1053 C1051 1.415 . S
C1054 H1044 0.930 . S
C1054 C1052 1.419 1_565 S
C1054 C1055 1.362 . S
C1055 H1045 0.930 . S
C1055 C1048 1.409 1_564 S
C1055 C1054 1.362 . S
H1056 C1062 0.930 . S
H1057 C1065 0.930 . S
H1058 C1066 0.930 . S
H1059 C1067 0.930 . S
H1060 C1070 0.930 . S
H1061 C1071 0.930 . S
C1062 H1056 0.930 . S
C1062 C1063 1.355 . S
C1062 C1064 1.415 . S
C1063 C1062 1.355 . S
C1063 C1065 1.419 . S
C1064 C1062 1.415 . S
C1064 C1069 1.425 . S
C1064 C1071 1.409 . S
C1065 H1057 0.930 . S
C1065 C1063 1.419 . S
C1065 C1066 1.362 . S
C1066 H1058 0.930 . S
C1066 C1065 1.362 . S
C1066 C1069 1.409 . S
C1067 H1059 0.930 . S
C1067 C1068 1.355 . S
C1067 C1069 1.415 . S
C1068 C1067 1.355 . S
C1068 C1070 1.419 . S
C1069 C1064 1.425 . S
C1069 C1066 1.409 . S
C1069 C1067 1.415 . S
C1070 H1060 0.930 . S
C1070 C1068 1.419 . S
C1070 C1071 1.362 . S
C1071 H1061 0.930 . S
C1071 C1064 1.409 . S
C1071 C1070 1.362 . S
H1072 C1078 0.930 . S
H1073 C1081 0.930 . S
H1074 C1082 0.930 . S
H1075 C1083 0.930 . S
H1076 C1086 0.930 . S
H1077 C1087 0.930 . S
C1078 H1072 0.930 . S
C1078 C1079 1.355 . S
C1078 C1080 1.415 . S
C1079 C1078 1.355 . S
C1079 C1081 1.419 . S
C1080 C1078 1.415 . S
C1080 C1085 1.425 1_554 S
C1080 C1087 1.409 1_554 S
C1081 H1073 0.930 . S
C1081 C1079 1.419 . S
C1081 C1082 1.362 . S
C1082 H1074 0.930 . S
C1082 C1081 1.362 . S
C1082 C1085 1.409 1_554 S
C1083 H1075 0.930 . S
C1083 C1084 1.355 . S
C1083 C1085 1.415 . S
C1084 C1083 1.355 . S
C1084 C1086 1.419 . S
C1085 C1080 1.425 1_556 S
C1085 C1082 1.409 1_556 S
C1085 C1083 1.415 . S
C1086 H1076 0.930 . S
C1086 C1084 1.419 . S
C1086 C1087 1.362 . S
C1087 H1077 0.930 . S
C1087 C1080 1.409 1_556 S
C1087 C1086 1.362 . S
H1088 C1094 0.930 . S
H1089 C1097 0.930 . S
H1090 C1098 0.930 . S
H1091 C1099 0.921 1_655 S
H1092 C1102 0.930 . S
H1093 C1103 0.930 . S
C1094 H1088 0.930 . S
C1094 C1095 1.355 . S
C1094 C1096 1.415 . S
C1095 C1094 1.355 . S
C1095 C1097 1.419 1_455 S
C1096 C1094 1.415 . S
C1096 C1101 1.425 . S
C1096 C1103 1.409 . S
C1097 H1089 0.930 . S
C1097 C1095 1.419 1_655 S
C1097 C1098 1.362 . S
C1098 H1090 0.930 . S
C1098 C1097 1.362 . S
C1098 C1101 1.409 1_655 S
C1099 H1091 0.921 1_455 S
C1099 C1100 1.362 . S
C1099 C1101 1.416 . S
C1100 C1099 1.362 . S
C1100 C1102 1.419 . S
C1101 C1096 1.425 . S
C1101 C1098 1.409 1_455 S
C1101 C1099 1.416 . S
C1102 H1092 0.930 . S
C1102 C1100 1.419 . S
C1102 C1103 1.362 . S
C1103 H1093 0.930 . S
C1103 C1096 1.409 . S
C1103 C1102 1.362 . S
H1104 C1110 0.930 . S
H1105 C1113 0.930 . S
H1106 C1114 0.930 . S
H1107 C1115 0.930 . S
H1108 C1118 0.930 . S
H1109 C1119 0.930 . S
C1110 H1104 0.930 . S
C1110 C1111 1.355 . S
C1110 C1112 1.415 . S
C1111 C1110 1.355 . S
C1111 C1113 1.419 . S
C1112 C1110 1.415 . S
C1112 C1117 1.425 1_554 S
C1112 C1119 1.409 1_554 S
C1113 H1105 0.930 . S
C1113 C1111 1.419 . S
C1113 C1114 1.362 . S
C1114 H1106 0.930 . S
C1114 C1113 1.362 . S
C1114 C1117 1.409 1_554 S
C1115 H1107 0.930 . S
C1115 C1116 1.355 . S
C1115 C1117 1.415 . S
C1116 C1115 1.355 . S
C1116 C1118 1.419 . S
C1117 C1112 1.425 1_556 S
C1117 C1114 1.409 1_556 S
C1117 C1115 1.415 . S
C1118 H1108 0.930 . S
C1118 C1116 1.419 . S
C1118 C1119 1.362 . S
C1119 H1109 0.930 . S
C1119 C1112 1.409 1_556 S
C1119 C1118 1.362 . S
H1120 C1126 0.930 . S
H1121 C1129 0.930 . S
H1122 C1130 0.930 . S
H1123 C1131 0.930 . S
H1124 C1134 0.930 . S
H1125 C1135 0.930 . S
C1126 H1120 0.930 . S
C1126 C1127 1.355 . S
C1126 C1128 1.415 . S
C1127 C1126 1.355 . S
C1127 C1129 1.419 . S
C1128 C1126 1.415 . S
C1128 C1133 1.425 . S
C1128 C1135 1.409 . S
C1129 H1121 0.930 . S
C1129 C1127 1.419 . S
C1129 C1130 1.362 . S
C1130 H1122 0.930 . S
C1130 C1129 1.362 . S
C1130 C1133 1.409 . S
C1131 H1123 0.930 . S
C1131 C1132 1.355 . S
C1131 C1133 1.415 . S
C1132 C1131 1.355 . S
C1132 C1134 1.419 . S
C1133 C1128 1.425 . S
C1133 C1130 1.409 . S
C1133 C1131 1.415 . S
C1134 H1124 0.930 . S
C1134 C1132 1.419 . S
C1134 C1135 1.362 . S
C1135 H1125 0.930 . S
C1135 C1128 1.409 . S
C1135 C1134 1.362 . S
H1136 C1142 0.930 . S
H1137 C1145 0.930 . S
H1138 C1146 0.930 . S
H1139 C1147 0.930 . S
H1140 C1150 0.930 . S
H1141 C1151 0.930 . S
C1142 H1136 0.930 . S
C1142 C1143 1.355 . S
C1142 C1144 1.415 . S
C1143 C1142 1.355 . S
C1143 C1145 1.419 . S
C1144 C1142 1.415 . S
C1144 C1149 1.425 1_554 S
C1144 C1151 1.409 1_554 S
C1145 H1137 0.930 . S
C1145 C1143 1.419 . S
C1145 C1146 1.362 . S
C1146 H1138 0.930 . S
C1146 C1145 1.362 . S
C1146 C1149 1.409 1_554 S
C1147 H1139 0.930 . S
C1147 C1148 1.355 . S
C1147 C1149 1.415 . S
C1148 C1147 1.355 . S
C1148 C1150 1.419 . S
C1149 C1144 1.425 1_556 S
C1149 C1146 1.409 1_556 S
C1149 C1147 1.415 . S
C1150 H1140 0.930 . S
C1150 C1148 1.419 . S
C1150 C1151 1.362 . S
C1151 H1141 0.930 . S
C1151 C1144 1.409 1_556 S
C1151 C1150 1.362 . S
H1152 C1158 0.930 1_455 S
H1153 C1161 0.930 . S
H1154 C1162 0.930 . S
H1155 C1163 0.930 . S
H1156 C1166 0.930 . S
H1157 C1167 0.930 . S
C1158 H1152 0.930 1_655 S
C1158 C1159 1.355 . S
C1158 C1160 1.415 . S
C1159 C1158 1.355 . S
C1159 C1161 1.419 . S
C1160 C1158 1.415 . S
C1160 C1165 1.425 . S
C1160 C1167 1.409 1_655 S
C1161 H1153 0.930 . S
C1161 C1159 1.419 . S
C1161 C1162 1.362 . S
C1162 H1154 0.930 . S
C1162 C1161 1.362 . S
C1162 C1165 1.409 . S
C1163 H1155 0.930 . S
C1163 C1164 1.355 . S
C1163 C1165 1.415 . S
C1164 C1163 1.355 . S
C1164 C1166 1.419 1_655 S
C1165 C1160 1.425 . S
C1165 C1162 1.409 . S
C1165 C1163 1.415 . S
C1166 H1156 0.930 . S
C1166 C1164 1.419 1_455 S
C1166 C1167 1.362 . S
C1167 H1157 0.930 . S
C1167 C1160 1.409 1_455 S
C1167 C1166 1.362 . S
C535 N14 1.689 . S
C540 N245 1.688 . S
C551 N146 1.675 . S
C556 N47 1.675 . S
C567 N179 1.683 . S
C572 N80 1.682 . S
C583 N113 1.677 . S
C588 N212 1.678 . S
C599 N269 2.211 . S
C604 N500 2.186 . S
C615 N302 2.191 . S
C620 N401 2.186 . S
C631 N434 2.196 . S
C636 N335 2.183 . S
C647 N368 2.201 . S
C652 N467 2.208 . S
C663 C8 1.063 . S
C668 C314 0.914 . S
C679 C347 1.045 . S
C684 C41 1.025 . S
C695 C380 1.047 . S
C700 C74 1.026 . S
C711 C281 0.963 . S
C716 C107 1.055 . S
C727 C512 0.979 . S
C732 C140 1.051 . S
C743 C413 1.037 . S
C748 C173 1.025 . S
C759 C446 1.034 . S
C764 C206 1.035 . S
C775 C479 0.902 . S
C780 C239 1.053 . S
C791 C61 1.250 . S
C796 C292 1.225 . S
C807 C94 1.198 . S
C812 C325 1.255 . S
C823 C127 1.251 . S
C828 C358 1.223 . S
C839 C391 1.280 . S
C844 C28 1.146 . S
C855 C259 1.149 . S
C860 C424 1.278 . S
C871 C160 1.155 . S
C876 C457 1.276 . S
C887 C193 1.153 . S
C892 C490 1.276 . S
C903 C226 1.211 . S
C908 C523 1.244 . S
C919 N71 1.168 . S
C924 N5 1.137 . S
C935 N38 0.994 . S
C940 N104 1.005 . S
C951 N203 1.027 . S
C956 N137 0.991 . S
C967 N236 1.024 . S
C972 N170 1.095 . S
C983 N344 1.040 . S
C988 N278 1.157 . S
C999 N377 1.090 . S
C1004 N311 1.184 . S
C1015 N410 1.177 . S
C1020 N476 1.107 . S
C1031 N509 1.087 . S
C1036 N443 1.083 . S
C1047 C215 1.339 . S
C1052 C17 1.360 . S
C1063 C248 1.339 . S
C1068 C50 1.361 . S
C1079 C83 1.389 . S
C1084 C149 1.337 . S
C1095 C182 1.377 . S
C1100 C116 1.333 . S
C1111 C470 1.450 . S
C1116 C272 1.460 . S
C1127 C503 1.488 . S
C1132 C305 1.463 . S
C1143 C404 1.448 . S
C1148 C338 1.467 . S
C1159 C371 1.466 . S
C1164 C437 1.487 . S
