# Generated by pormake.
# Topology uob, (4)-cn, num edge types: 1
# Building blocks:
#     Node 0, Type 0, BuildingBlock: CEKHIL_clean_sbu_0, # of connection points: 4
#     Node 1, Type 0, BuildingBlock: CEKHIL_clean_sbu_0, # of connection points: 4
#     Node 2, Type 0, BuildingBlock: CEKHIL_clean_sbu_0, # of connection points: 4
#     Node 3, Type 0, BuildingBlock: CEKHIL_clean_sbu_0, # of connection points: 4
#     Node 4, Type 0, BuildingBlock: CEKHIL_clean_sbu_0, # of connection points: 4
#     Node 5, Type 0, BuildingBlock: CEKHIL_clean_sbu_0, # of connection points: 4
#     Node 6, Type 0, BuildingBlock: CEKHIL_clean_sbu_0, # of connection points: 4
#     Node 7, Type 0, BuildingBlock: CEKHIL_clean_sbu_0, # of connection points: 4
#     Node 8, Type 0, BuildingBlock: CEKHIL_clean_sbu_0, # of connection points: 4
#     Node 9, Type 0, BuildingBlock: CEKHIL_clean_sbu_0, # of connection points: 4
#     Node 10, Type 0, BuildingBlock: CEKHIL_clean_sbu_0, # of connection points: 4
#     Node 11, Type 0, BuildingBlock: CEKHIL_clean_sbu_0, # of connection points: 4
#     Node 12, Type 0, BuildingBlock: CEKHIL_clean_sbu_0, # of connection points: 4
#     Node 13, Type 0, BuildingBlock: CEKHIL_clean_sbu_0, # of connection points: 4
#     Node 14, Type 0, BuildingBlock: CEKHIL_clean_sbu_0, # of connection points: 4
#     Node 15, Type 0, BuildingBlock: CEKHIL_clean_sbu_0, # of connection points: 4
#     Edge 16, Type (0, 0), BuildingBlock: KIFKEQ_clean_linker_1, # of connection points: 2
#     Edge 17, Type (0, 0), BuildingBlock: KIFKEQ_clean_linker_1, # of connection points: 2
#     Edge 18, Type (0, 0), BuildingBlock: KIFKEQ_clean_linker_1, # of connection points: 2
#     Edge 19, Type (0, 0), BuildingBlock: KIFKEQ_clean_linker_1, # of connection points: 2
#     Edge 20, Type (0, 0), BuildingBlock: KIFKEQ_clean_linker_1, # of connection points: 2
#     Edge 21, Type (0, 0), BuildingBlock: KIFKEQ_clean_linker_1, # of connection points: 2
#     Edge 22, Type (0, 0), BuildingBlock: KIFKEQ_clean_linker_1, # of connection points: 2
#     Edge 23, Type (0, 0), BuildingBlock: KIFKEQ_clean_linker_1, # of connection points: 2
#     Edge 24, Type (0, 0), BuildingBlock: KIFKEQ_clean_linker_1, # of connection points: 2
#     Edge 25, Type (0, 0), BuildingBlock: KIFKEQ_clean_linker_1, # of connection points: 2
#     Edge 26, Type (0, 0), BuildingBlock: KIFKEQ_clean_linker_1, # of connection points: 2
#     Edge 27, Type (0, 0), BuildingBlock: KIFKEQ_clean_linker_1, # of connection points: 2
#     Edge 28, Type (0, 0), BuildingBlock: KIFKEQ_clean_linker_1, # of connection points: 2
#     Edge 29, Type (0, 0), BuildingBlock: KIFKEQ_clean_linker_1, # of connection points: 2
#     Edge 30, Type (0, 0), BuildingBlock: KIFKEQ_clean_linker_1, # of connection points: 2
#     Edge 31, Type (0, 0), BuildingBlock: KIFKEQ_clean_linker_1, # of connection points: 2
#     Edge 32, Type (0, 0), BuildingBlock: KIFKEQ_clean_linker_1, # of connection points: 2
#     Edge 33, Type (0, 0), BuildingBlock: KIFKEQ_clean_linker_1, # of connection points: 2
#     Edge 34, Type (0, 0), BuildingBlock: KIFKEQ_clean_linker_1, # of connection points: 2
#     Edge 35, Type (0, 0), BuildingBlock: KIFKEQ_clean_linker_1, # of connection points: 2
#     Edge 36, Type (0, 0), BuildingBlock: KIFKEQ_clean_linker_1, # of connection points: 2
#     Edge 37, Type (0, 0), BuildingBlock: KIFKEQ_clean_linker_1, # of connection points: 2
#     Edge 38, Type (0, 0), BuildingBlock: KIFKEQ_clean_linker_1, # of connection points: 2
#     Edge 39, Type (0, 0), BuildingBlock: KIFKEQ_clean_linker_1, # of connection points: 2
#     Edge 40, Type (0, 0), BuildingBlock: KIFKEQ_clean_linker_1, # of connection points: 2
#     Edge 41, Type (0, 0), BuildingBlock: KIFKEQ_clean_linker_1, # of connection points: 2
#     Edge 42, Type (0, 0), BuildingBlock: KIFKEQ_clean_linker_1, # of connection points: 2
#     Edge 43, Type (0, 0), BuildingBlock: KIFKEQ_clean_linker_1, # of connection points: 2
#     Edge 44, Type (0, 0), BuildingBlock: KIFKEQ_clean_linker_1, # of connection points: 2
#     Edge 45, Type (0, 0), BuildingBlock: KIFKEQ_clean_linker_1, # of connection points: 2
#     Edge 46, Type (0, 0), BuildingBlock: KIFKEQ_clean_linker_1, # of connection points: 2
#     Edge 47, Type (0, 0), BuildingBlock: KIFKEQ_clean_linker_1, # of connection points: 2
# Relax obj value: 0.172
# Max RMSD: 0.200
# Mean RMSD: 0.200
data_MOF--net-uob--node1-CEKHIL_clean_sbu_0--edge1-KIFKEQ_clean_linker_1
_symmetry_space_group_name_H-M    P1
_symmetry_Int_Tables_number       1
_symmetry_cell_setting            triclinic
loop_
_symmetry_equiv_pos_as_xyz
'x, y, z'
_cell_length_a     53.386433
_cell_length_b     53.396493
_cell_length_c     27.11591
_cell_angle_alpha  90.127348
_cell_angle_beta   90.127716
_cell_angle_gamma 89.934398
loop_
_atom_site_label
_atom_site_type_symbol
_atom_site_fract_x
_atom_site_fract_y
_atom_site_fract_z
_atom_type_partial_charge
Co0 Co 0.15086 0.07334 0.2724 0.0
O1 O 0.1867 0.07778 0.27509 0.0
O2 O 0.16634 0.04591 0.30814 0.0
C3 C 0.14505 0.08332 0.19272 0.0
O4 O 0.11417 0.06213 0.27534 0.0
Co5 Co 0.11633 0.1192 0.25119 0.0
O6 O 0.08975 0.09329 0.24661 0.0
C7 C 0.14128 0.1149 0.34698 0.0
C8 C 0.18751 0.05745 0.3012 0.0
C9 C 0.09266 0.07087 0.26177 0.0
O10 O 0.14753 0.09233 0.336 0.0
O11 O 0.13063 0.12973 0.31642 0.0
O12 O 0.15264 0.06089 0.20437 0.0
O13 O 0.14431 0.0992 0.2285 0.0
Co14 Co 0.95122 0.64719 0.52305 0.0
O15 O 0.94651 0.68305 0.52435 0.0
O16 O 0.97795 0.66299 0.56016 0.0
C17 C 0.94262 0.64059 0.44299 0.0
O18 O 0.96287 0.6107 0.52796 0.0
Co19 Co 0.90636 0.61166 0.4996 0.0
O20 O 0.93221 0.58499 0.50125 0.0
C21 C 0.90876 0.63711 0.59511 0.0
C22 C 0.96645 0.68407 0.55184 0.0
C23 C 0.95446 0.58874 0.51675 0.0
O24 O 0.93113 0.64438 0.5853 0.0
O25 O 0.89485 0.62531 0.56447 0.0
O26 O 0.96476 0.6485 0.456 0.0
O27 O 0.92613 0.63994 0.47757 0.0
Co28 Co 0.38231 0.45072 0.77171 0.0
O29 O 0.34715 0.44288 0.7734 0.0
O30 O 0.36406 0.47645 0.80776 0.0
C31 C 0.38904 0.44185 0.6918 0.0
O32 O 0.41793 0.46508 0.77604 0.0
Co33 Co 0.42082 0.40815 0.74868 0.0
O34 O 0.44473 0.43644 0.74523 0.0
C35 C 0.39566 0.40954 0.84448 0.0
C36 C 0.34416 0.46287 0.80008 0.0
C37 C 0.44005 0.4583 0.76194 0.0
O38 O 0.38694 0.4314 0.83449 0.0
O39 O 0.4082 0.39625 0.81395 0.0
O40 O 0.37961 0.46349 0.70407 0.0
O41 O 0.39119 0.4259 0.72706 0.0
Co42 Co 0.5743 0.88036 0.02077 0.0
O43 O 0.58208 0.84522 0.02333 0.0
O44 O 0.54782 0.86221 0.05457 0.0
C45 C 0.58495 0.88701 0.94167 0.0
O46 O 0.56003 0.91602 0.02362 0.0
Co47 Co 0.61779 0.91823 0.00214 0.0
O48 O 0.58981 0.94261 -0.00303 0.0
C49 C 0.61434 0.89233 0.09687 0.0
C50 C 0.56158 0.84229 0.04828 0.0
C51 C 0.56745 0.93812 0.01093 0.0
O52 O 0.59211 0.88512 0.08539 0.0
O53 O 0.62877 0.90374 0.06677 0.0
O54 O 0.56305 0.87765 0.95191 0.0
O55 O 0.60009 0.88904 0.97844 0.0
Co56 Co 0.14799 0.45181 0.02755 0.0
O57 O 0.18312 0.44397 0.02609 0.0
O58 O 0.16636 0.47785 -0.00715 0.0
C59 C 0.14094 0.44217 0.10698 0.0
O60 O 0.1123 0.46598 0.02337 0.0
Co61 Co 0.11019 0.40841 0.04719 0.0
O62 O 0.08565 0.43632 0.05032 0.0
C63 C 0.13634 0.41101 0.95268 0.0
C64 C 0.18623 0.46414 0.00023 0.0
C65 C 0.09014 0.45856 0.03567 0.0
O66 O 0.14357 0.43328 0.96367 0.0
O67 O 0.12476 0.39682 0.98299 0.0
O68 O 0.15035 0.46393 0.09582 0.0
O69 O 0.13912 0.42655 0.07094 0.0
Co70 Co 0.57471 0.64872 0.28252 0.0
O71 O 0.58156 0.68406 0.28059 0.0
O72 O 0.5486 0.66615 0.24594 0.0
C73 C 0.58372 0.64278 0.36257 0.0
O74 O 0.56132 0.6128 0.27827 0.0
Co75 Co 0.61813 0.61141 0.30644 0.0
O76 O 0.59122 0.5859 0.30392 0.0
C77 C 0.61634 0.63614 0.21018 0.0
C78 C 0.56163 0.68642 0.2535 0.0
C79 C 0.56906 0.59052 0.28882 0.0
O80 O 0.59431 0.64448 0.21995 0.0
O81 O 0.62986 0.62405 0.24103 0.0
O82 O 0.56166 0.65107 0.34998 0.0
O83 O 0.5998 0.64084 0.32748 0.0
Co84 Co 0.3806 0.07253 0.53044 0.0
O85 O 0.34468 0.07606 0.52772 0.0
O86 O 0.36597 0.04514 0.49301 0.0
C87 C 0.38544 0.08188 0.61072 0.0
O88 O 0.41754 0.06228 0.52716 0.0
Co89 Co 0.41397 0.11863 0.55467 0.0
O90 O 0.44127 0.09335 0.55827 0.0
C91 C 0.38959 0.11501 0.45799 0.0
C92 C 0.34448 0.05608 0.50039 0.0
C93 C 0.43884 0.07114 0.54152 0.0
O94 O 0.38348 0.09231 0.46792 0.0
O95 O 0.40008 0.12959 0.48932 0.0
O96 O 0.37915 0.05923 0.59777 0.0
O97 O 0.38604 0.09815 0.57576 0.0
Co98 Co 0.95226 0.87933 0.77404 0.0
O99 O 0.94771 0.84354 0.77239 0.0
O100 O 0.97996 0.86352 0.73974 0.0
C101 C 0.94145 0.88565 0.85316 0.0
O102 O 0.96358 0.91588 0.77031 0.0
Co103 Co 0.90642 0.91416 0.79245 0.0
O104 O 0.93241 0.94068 0.79756 0.0
C105 C 0.91173 0.88881 0.69711 0.0
C106 C 0.96822 0.84247 0.74686 0.0
C107 C 0.95492 0.93751 0.78313 0.0
O108 O 0.934 0.88219 0.70955 0.0
O109 O 0.89665 0.89988 0.72663 0.0
O110 O 0.96407 0.87824 0.84256 0.0
O111 O 0.92592 0.88616 0.81676 0.0
Co112 Co 0.64711 0.57994 0.77792 0.0
O113 O 0.68287 0.58491 0.77942 0.0
O114 O 0.66322 0.55308 0.81428 0.0
C115 C 0.64107 0.58918 0.69805 0.0
O116 O 0.61065 0.56813 0.78223 0.0
Co117 Co 0.61124 0.62452 0.75458 0.0
O118 O 0.58543 0.59788 0.75062 0.0
C119 C 0.63565 0.62155 0.85144 0.0
C120 C 0.68417 0.56482 0.80617 0.0
C121 C 0.58894 0.57591 0.7677 0.0
O122 O 0.64393 0.5996 0.84075 0.0
O123 O 0.62355 0.63535 0.8211 0.0
O124 O 0.64857 0.56682 0.71037 0.0
O125 O 0.64006 0.60534 0.73328 0.0
Co126 Co 0.44998 0.14738 0.02529 0.0
O127 O 0.44587 0.18325 0.02661 0.0
O128 O 0.47762 0.16284 0.06054 0.0
C129 C 0.43972 0.14115 0.94581 0.0
O130 O 0.46088 0.11069 0.02959 0.0
Co131 Co 0.40398 0.1131 0.00532 0.0
O132 O 0.42971 0.08623 0.00113 0.0
C133 C 0.40878 0.1385 0.10074 0.0
C134 C 0.46622 0.18406 0.05285 0.0
C135 C 0.45214 0.08915 0.01642 0.0
O136 O 0.43119 0.14487 0.08908 0.0
O137 O 0.39384 0.1275 0.07075 0.0
O138 O 0.46235 0.14822 0.95729 0.0
O139 O 0.42388 0.14088 0.98156 0.0
Co140 Co 0.8809 0.95517 0.26647 0.0
O141 O 0.8454 0.94931 0.26944 0.0
O142 O 0.8644 0.98183 0.30336 0.0
C143 C 0.88592 0.94581 0.1863 0.0
O144 O 0.91726 0.96745 0.26941 0.0
Co145 Co 0.91641 0.91051 0.24254 0.0
O146 O 0.94222 0.9372 0.23871 0.0
C147 C 0.8923 0.9134 0.33933 0.0
C148 C 0.84373 0.96933 0.29639 0.0
C149 C 0.93889 0.95937 0.2551 0.0
O150 O 0.88519 0.93582 0.32928 0.0
O151 O 0.90321 0.89915 0.30801 0.0
O152 O 0.87843 0.96813 0.19896 0.0
O153 O 0.88757 0.92973 0.22145 0.0
Co154 Co 0.07368 0.37843 0.52049 0.0
O155 O 0.08133 0.34324 0.52126 0.0
O156 O 0.04736 0.36005 0.55413 0.0
C157 C 0.08375 0.38617 0.44155 0.0
O158 O 0.05958 0.41405 0.52534 0.0
Co159 Co 0.11743 0.41616 0.50344 0.0
O160 O 0.09019 0.44145 0.50594 0.0
C161 C 0.11426 0.38886 0.5964 0.0
C162 C 0.06101 0.34016 0.54672 0.0
C163 C 0.06759 0.43652 0.51768 0.0
O164 O 0.09184 0.3823 0.58494 0.0
O165 O 0.1288 0.40033 0.56659 0.0
O166 O 0.06194 0.37664 0.45197 0.0
O167 O 0.09924 0.38761 0.4779 0.0
Co168 Co 0.65065 0.95418 0.52955 0.0
O169 O 0.68603 0.94741 0.52653 0.0
O170 O 0.6679 0.98101 0.49505 0.0
C171 C 0.64452 0.94373 0.60891 0.0
O172 O 0.61456 0.96745 0.52716 0.0
Co173 Co 0.61409 0.90972 0.54942 0.0
O174 O 0.58897 0.93702 0.55475 0.0
C175 C 0.63908 0.91371 0.45385 0.0
C176 C 0.68827 0.9679 0.5013 0.0
C177 C 0.59274 0.95945 0.54043 0.0
O178 O 0.64608 0.93601 0.46526 0.0
O179 O 0.6281 0.89907 0.48417 0.0
O180 O 0.6533 0.96581 0.59813 0.0
O181 O 0.64285 0.92834 0.57248 0.0
Co182 Co 0.07631 0.14618 0.77886 0.0
O183 O 0.08361 0.18141 0.77635 0.0
O184 O 0.04968 0.16396 0.74448 0.0
C185 C 0.08676 0.13964 0.85818 0.0
O186 O 0.06251 0.11039 0.77579 0.0
Co187 Co 0.12018 0.10876 0.79819 0.0
O188 O 0.09253 0.08406 0.80288 0.0
C189 C 0.11673 0.13473 0.70353 0.0
C190 C 0.06315 0.18404 0.75095 0.0
C191 C 0.07014 0.08836 0.7886 0.0
O192 O 0.09436 0.14163 0.7146 0.0
O193 O 0.13123 0.12345 0.73385 0.0
O194 O 0.0648 0.1488 0.84742 0.0
O195 O 0.10208 0.13776 0.82177 0.0
Co196 Co 0.8819 0.57943 0.02412 0.0
O197 O 0.84611 0.58457 0.02297 0.0
O198 O 0.86572 0.5531 0.98639 0.0
C199 C 0.88834 0.58755 0.10445 0.0
O200 O 0.91836 0.56748 0.01905 0.0
Co201 Co 0.91785 0.62372 0.04915 0.0
O202 O 0.94359 0.59695 0.05175 0.0
C203 C 0.89297 0.62202 0.95287 0.0
C204 C 0.84478 0.56479 -0.00483 0.0
C205 C 0.94008 0.57513 0.03381 0.0
O206 O 0.88501 0.59985 0.96237 0.0
O207 O 0.9051 0.63551 0.98374 0.0
O208 O 0.88034 0.56553 0.09092 0.0
O209 O 0.88927 0.60417 0.07017 0.0
Co210 Co 0.45201 0.38013 0.27502 0.0
O211 O 0.44673 0.34438 0.27341 0.0
O212 O 0.47862 0.36388 0.23838 0.0
C213 C 0.4432 0.38672 0.3549 0.0
O214 O 0.4642 0.41646 0.2707 0.0
Co215 Co 0.40749 0.41628 0.29788 0.0
O216 O 0.43369 0.44256 0.29663 0.0
C217 C 0.4099 0.391 0.20224 0.0
C218 C 0.46674 0.343 0.24637 0.0
C219 C 0.45596 0.43851 0.28173 0.0
O220 O 0.43218 0.38343 0.21237 0.0
O221 O 0.39601 0.40284 0.23278 0.0
O222 O 0.46528 0.37848 0.34238 0.0
O223 O 0.42687 0.38769 0.31994 0.0
H224 H 0.34057 0.03224 0.41131 0.0
H225 H 0.29621 0.06421 0.52851 0.0
H226 H 0.30263 0.02723 0.36101 0.0
H227 H 0.25833 0.05867 0.47883 0.0
H228 H 0.19236 0.03043 0.3863 0.0
H229 H 0.23049 0.02457 0.4356 0.0
H230 H 0.27359 0.06217 0.32361 0.0
H231 H 0.2355 0.06852 0.27494 0.0
C232 C 0.32265 0.03749 0.42688 0.0
C233 C 0.32134 0.04858 0.47388 0.0
C234 C 0.30098 0.03479 0.39796 0.0
C235 C 0.27753 0.04257 0.41598 0.0
C236 C 0.27609 0.05229 0.46411 0.0
C237 C 0.29778 0.05552 0.49251 0.0
C238 C 0.21007 0.03693 0.37173 0.0
C239 C 0.21094 0.04994 0.32674 0.0
C240 C 0.23185 0.03371 0.40008 0.0
C241 C 0.25501 0.04292 0.38347 0.0
C242 C 0.25607 0.05466 0.33718 0.0
C243 C 0.23424 0.05837 0.30938 0.0
H244 H 0.99324 0.83724 0.6596 0.0
H245 H 0.95832 0.79469 0.77576 0.0
H246 H 0.99782 0.79883 0.61053 0.0
H247 H 0.96349 0.75632 0.72736 0.0
H248 H 0.99267 0.68926 0.63792 0.0
H249 H 0.99839 0.72759 0.68656 0.0
H250 H 0.96175 0.77032 0.57239 0.0
H251 H 0.95544 0.73198 0.52434 0.0
C252 C 0.98725 0.81959 0.67525 0.0
C253 C 0.97548 0.81894 0.72156 0.0
C254 C 0.9897 0.79768 0.64703 0.0
C255 C 0.98099 0.77462 0.66513 0.0
C256 C 0.97056 0.77378 0.71264 0.0
C257 C 0.96757 0.79574 0.7403 0.0
C258 C 0.98631 0.70691 0.62276 0.0
C259 C 0.9736 0.70762 0.57729 0.0
C260 C 0.98947 0.7288 0.65073 0.0
C261 C 0.98053 0.75192 0.63323 0.0
C262 C 0.96903 0.75281 0.58659 0.0
C263 C 0.96536 0.73086 0.55917 0.0
H264 H 0.33066 0.50315 0.85842 0.0
H265 H 0.30294 0.43307 0.80005 0.0
H266 H 0.29234 0.5074 0.90819 0.0
H267 H 0.26539 0.43718 0.85015 0.0
H268 H 0.22798 0.43508 0.0035 0.0
H269 H 0.26556 0.43844 0.9534 0.0
H270 H 0.23779 0.50695 0.88953 0.0
H271 H 0.19941 0.50343 0.93933 0.0
C272 C 0.31631 0.4889 0.85558 0.0
C273 C 0.31994 0.46773 0.82534 0.0
C274 C 0.29443 0.49137 0.884 0.0
C275 C 0.27608 0.47251 0.88314 0.0
C276 C 0.27933 0.4519 0.85162 0.0
C277 C 0.30086 0.44962 0.82283 0.0
C278 C 0.22988 0.45112 0.97942 0.0
C279 C 0.21053 0.46891 0.97527 0.0
C280 C 0.25143 0.45297 0.95064 0.0
C281 C 0.25445 0.47283 0.91745 0.0
C282 C 0.23587 0.49148 0.91501 0.0
C283 C 0.21396 0.48944 0.94347 0.0
H284 H 0.52165 0.82976 0.10799 0.0
H285 H 0.59039 0.80031 0.04702 0.0
H286 H 0.51746 0.79182 0.15882 0.0
H287 H 0.58635 0.76315 0.09816 0.0
H288 H 0.58974 0.72879 0.25574 0.0
H289 H 0.58569 0.76576 0.20396 0.0
H290 H 0.51814 0.73584 0.13959 0.0
H291 H 0.52235 0.69809 0.19106 0.0
C292 C 0.53557 0.81509 0.10472 0.0
C293 C 0.55641 0.81817 0.07356 0.0
C294 C 0.53315 0.79343 0.13377 0.0
C295 C 0.55169 0.77474 0.13249 0.0
C296 C 0.57187 0.77736 0.0999 0.0
C297 C 0.57411 0.79868 0.07056 0.0
C298 C 0.57374 0.7301 0.23123 0.0
C299 C 0.55643 0.71035 0.22744 0.0
C300 C 0.5715 0.7513 0.20152 0.0
C301 C 0.55169 0.75353 0.16775 0.0
C302 C 0.53353 0.73453 0.16555 0.0
C303 C 0.53597 0.71299 0.19497 0.0
H304 H 0.69034 0.53957 0.89305 0.0
H305 H 0.73167 0.57523 0.77603 0.0
H306 H 0.72928 0.53459 0.94031 0.0
H307 H 0.77055 0.56968 0.82263 0.0
H308 H 0.83863 0.53963 0.90802 0.0
H309 H 0.79971 0.53457 0.86077 0.0
H310 H 0.75836 0.56987 0.9785 0.0
H311 H 0.79724 0.5755 0.02513 0.0
C312 C 0.70781 0.54571 0.87686 0.0
C313 C 0.70797 0.55778 0.83083 0.0
C314 C 0.73004 0.54301 0.90402 0.0
C315 C 0.75293 0.55176 0.88514 0.0
C316 C 0.75324 0.56256 0.83793 0.0
C317 C 0.73097 0.56579 0.81133 0.0
C318 C 0.82115 0.54583 0.92421 0.0
C319 C 0.82097 0.55796 0.97029 0.0
C320 C 0.79893 0.54306 0.89706 0.0
C321 C 0.77602 0.55182 0.91598 0.0
C322 C 0.77569 0.56273 0.96318 0.0
C323 C 0.79795 0.56602 -0.01021 0.0
H324 H 0.45527 0.29535 0.27434 0.0
H325 H 0.4927 0.33725 0.16029 0.0
H326 H 0.46097 0.2568 0.22667 0.0
H327 H 0.49783 0.2987 0.11201 0.0
H328 H 0.45685 0.23192 0.02347 0.0
H329 H 0.46259 0.27034 0.07145 0.0
H330 H 0.49645 0.22764 0.18893 0.0
H331 H 0.49129 0.18917 0.14031 0.0
C332 C 0.4651 0.29624 0.23949 0.0
C333 C 0.47359 0.31931 0.22112 0.0
C334 C 0.46843 0.27417 0.21228 0.0
C335 C 0.47981 0.27477 0.16561 0.0
C336 C 0.48898 0.29771 0.14787 0.0
C337 C 0.48617 0.31972 0.17563 0.0
C338 C 0.46611 0.23082 0.059 0.0
C339 C 0.47371 0.20756 0.07805 0.0
C340 C 0.46943 0.25282 0.08641 0.0
C341 C 0.4799 0.25196 0.13397 0.0
C342 C 0.4883 0.22882 0.15239 0.0
C343 C 0.48551 0.20686 0.12443 0.0
H344 H 0.79917 0.9451 0.28767 0.0
H345 H 0.83467 1.00612 0.36593 0.0
H346 H 0.76222 0.94944 0.33959 0.0
H347 H 0.79705 1.01056 0.41773 0.0
H348 H 0.69865 1.00689 0.43788 0.0
H349 H 0.73652 1.01214 0.38726 0.0
H350 H 0.76927 0.94702 0.45538 0.0
H351 H 0.73201 0.94182 0.50618 0.0
C352 C 0.79894 0.95982 0.31522 0.0
C353 C 0.82 0.97521 0.3227 0.0
C354 C 0.77772 0.96226 0.3449 0.0
C355 C 0.77687 0.98031 0.38244 0.0
C356 C 0.79729 0.99661 0.38867 0.0
C357 C 0.81874 0.99406 0.35904 0.0
C358 C 0.71417 0.99406 0.44288 0.0
C359 C 0.71223 0.97388 0.47602 0.0
C360 C 0.73579 0.9971 0.41395 0.0
C361 C 0.75569 0.97998 0.41766 0.0
C362 C 0.75417 0.96051 0.45211 0.0
C363 C 0.73279 0.95757 0.48113 0.0
H364 H 0.08986 0.29822 0.54393 0.0
H365 H 0.02156 0.32736 0.60736 0.0
H366 H 0.08639 0.26099 0.59506 0.0
H367 H 0.01795 0.28935 0.65816 0.0
H368 H 0.02294 0.1961 0.69118 0.0
H369 H 0.01823 0.23386 0.63994 0.0
H370 H 0.08707 0.26317 0.69998 0.0
H371 H 0.09162 0.22618 0.75153 0.0
C372 C 0.07379 0.29649 0.56798 0.0
C373 C 0.05606 0.31591 0.57171 0.0
C374 C 0.07188 0.27514 0.59733 0.0
C375 C 0.05201 0.27243 0.63064 0.0
C376 C 0.0334 0.29104 0.63257 0.0
C377 C 0.03549 0.31273 0.60353 0.0
C378 C 0.03675 0.21086 0.6942 0.0
C379 C 0.05771 0.20804 0.72534 0.0
C380 C 0.03403 0.23242 0.66491 0.0
C381 C 0.05241 0.25123 0.66589 0.0
C382 C 0.07273 0.24884 0.69842 0.0
C383 C 0.07526 0.22763 0.72802 0.0
H384 H 0.08953 0.02146 0.29016 0.0
H385 H 0.04435 0.08322 0.23791 0.0
H386 H 0.0523 0.99493 0.29185 0.0
H387 H 1.00746 0.05666 0.23878 0.0
H388 H 0.94141 1.00828 0.28764 0.0
H389 H 0.97846 0.03504 0.29275 0.0
H390 H 0.02387 0.975 0.23422 0.0
H391 H 0.98724 0.94825 0.22989 0.0
C392 C 0.07173 0.02941 0.27902 0.0
C393 C 0.07009 0.05451 0.26377 0.0
C394 C 0.05037 0.01416 0.27978 0.0
C395 C 0.02682 0.02363 0.26539 0.0
C396 C 0.02516 0.04879 0.25075 0.0
C397 C 0.04646 0.064 0.24991 0.0
C398 C 0.9593 1.00078 0.27595 0.0
C399 C 0.9612 0.97605 0.25832 0.0
C400 C 0.98055 0.01616 0.27871 0.0
C401 C 1.00423 1.00718 0.26401 0.0
C402 C 1.00608 0.98245 0.24661 0.0
C403 C 0.98492 0.96714 0.24378 0.0
H404 H 0.94096 0.5407 0.53711 0.0
H405 H 1.00542 0.58678 0.50679 0.0
H406 H 0.96764 0.50388 0.54212 0.0
H407 H 0.03213 0.54978 0.50852 0.0
H408 H 0.07871 0.48327 0.55049 0.0
H409 H 0.05141 0.51959 0.55503 0.0
H410 H 0.99025 0.47515 0.49718 0.0
H411 H 0.01745 0.43839 0.49593 0.0
C412 C 0.96089 0.5429 0.53118 0.0
C413 C 0.97111 0.56665 0.5216 0.0
C414 C 0.97624 0.5217 0.53361 0.0
C415 C 1.00221 0.52354 0.52542 0.0
C416 C 1.01237 0.54746 0.51607 0.0
C417 C 0.99705 0.56877 0.51476 0.0
C418 C 0.05934 0.48125 0.53914 0.0
C419 C 0.05021 0.45801 0.52276 0.0
C420 C 0.04367 0.5022 0.54127 0.0
C421 C 0.01851 0.50067 0.5259 0.0
C422 C 1.00932 0.47718 0.51012 0.0
C423 C 0.02493 0.45604 0.50912 0.0
H424 H 0.48893 0.44955 0.73781 0.0
H425 H 0.44 0.50736 0.7945 0.0
H426 H 0.52418 0.47794 0.7427 0.0
H427 H 0.47578 0.53587 0.80014 0.0
H428 H 0.54016 0.58649 0.74408 0.0
H429 H 0.50421 0.55863 0.74599 0.0
H430 H 0.55124 0.49906 0.80119 0.0
H431 H 0.58749 0.52685 0.79848 0.0
C432 C 0.48563 0.46831 0.75161 0.0
C433 C 0.46144 0.4761 0.76568 0.0
C434 C 0.50602 0.48457 0.75479 0.0
C435 C 0.50293 0.50917 0.77208 0.0
C436 C 0.47879 0.51708 0.78628 0.0
C437 C 0.45828 0.50071 0.78321 0.0
C438 C 0.54294 0.56748 0.7568 0.0
C439 C 0.56689 0.55893 0.77084 0.0
C440 C 0.52218 0.55154 0.75825 0.0
C441 C 0.52477 0.52657 0.77366 0.0
C442 C 0.54862 0.5181 0.7885 0.0
C443 C 0.56942 0.53408 0.78715 0.0
H444 H 0.5767 0.98666 0.98518 0.0
H445 H 0.5182 0.93885 0.04193 0.0
H446 H 0.54873 0.02234 -0.01087 0.0
H447 H 0.49013 0.97505 0.04665 0.0
H448 H 0.44034 0.04066 -0.00762 0.0
H449 H 0.46754 1.00409 -0.00673 0.0
H450 H 0.52842 0.04967 0.04776 0.0
H451 H 0.50136 0.08648 0.04601 0.0
C452 C 0.55788 0.98369 -0.00124 0.0
C453 C 0.54979 0.95971 0.01327 0.0
C454 C 0.54185 1.00432 0.00137 0.0
C455 C 0.51721 1.00169 0.01857 0.0
C456 C 0.50896 0.97772 0.03288 0.0
C457 C 0.52508 0.95697 0.03032 0.0
C458 C 0.45951 0.04297 0.00472 0.0
C459 C 0.46864 0.06668 0.01884 0.0
C460 C 0.47507 0.02187 0.00555 0.0
C461 C 0.50021 0.02388 0.02044 0.0
C462 C 0.50925 0.04749 0.03538 0.0
C463 C 0.49368 0.06861 0.03459 0.0
H464 H 0.0897 0.50804 0.00627 0.0
H465 H 0.04115 0.44884 0.05751 0.0
H466 H 0.05359 0.5362 0.00137 0.0
H467 H 1.00553 0.47691 0.05344 0.0
H468 H 0.94191 0.52641 0.00026 0.0
H469 H 0.97838 0.4988 -0.00348 0.0
H470 H 0.02477 0.55786 0.05596 0.0
H471 H 0.98868 0.58551 0.05884 0.0
C472 C 0.07142 0.50101 0.01654 0.0
C473 C 0.06848 0.47612 0.03235 0.0
C474 C 0.05071 0.51717 0.01389 0.0
C475 C 0.02658 0.50881 0.02686 0.0
C476 C 0.02369 0.48391 0.04234 0.0
C477 C 0.04429 0.46783 0.04506 0.0
C478 C 0.9599 0.53355 0.0123 0.0
C479 C 0.9622 0.55821 0.03004 0.0
C480 C 0.98082 0.51768 0.01035 0.0
C481 C 1.00457 0.52607 0.02604 0.0
C482 C 1.00691 0.55083 0.04296 0.0
C483 C 0.98605 0.56665 0.04497 0.0
H484 H 0.44326 0.48631 0.25765 0.0
H485 H 0.50661 0.44025 0.29705 0.0
H486 H 0.47015 0.52297 0.25448 0.0
H487 H 0.53343 0.47712 0.29737 0.0
H488 H 0.58133 0.54334 0.26023 0.0
H489 H 0.55428 0.50698 0.25345 0.0
H490 H 0.49128 0.55206 0.30075 0.0
H491 H 0.51835 0.58882 0.30406 0.0
C492 C 0.463 0.48409 0.26594 0.0
C493 C 0.47285 0.4604 0.27754 0.0
C494 C 0.47845 0.50521 0.26462 0.0
C495 C 0.50413 0.50336 0.27607 0.0
C496 C 0.51395 0.47947 0.28733 0.0
C497 C 0.49855 0.45823 0.28745 0.0
C498 C 0.56163 0.54547 0.26879 0.0
C499 C 0.55195 0.56891 0.28276 0.0
C500 C 0.54607 0.52451 0.26538 0.0
C501 C 0.52045 0.5262 0.27707 0.0
C502 C 0.51075 0.54987 0.29057 0.0
C503 C 0.52627 0.57102 0.29279 0.0
H504 H 0.48696 0.08336 0.56766 0.0
H505 H 0.44269 0.02258 0.50827 0.0
H506 H 0.52415 0.05704 0.56494 0.0
H507 H 0.48012 0.9964 0.50474 0.0
H508 H 0.54428 0.94834 0.56395 0.0
H509 H 0.50789 0.97543 0.56169 0.0
H510 H 0.55384 0.0364 0.50982 0.0
H511 H 0.59076 1.0092 0.51284 0.0
C512 C 0.48512 0.06443 0.5537 0.0
C513 C 0.46166 0.05511 0.53844 0.0
C514 C 0.50658 0.04938 0.55181 0.0
C515 C 0.5052 0.02457 0.53471 0.0
C516 C 0.48183 0.01533 0.51878 0.0
C517 C 0.46034 0.0304 0.52061 0.0
C518 C 0.54681 0.9675 0.55196 0.0
C519 C 0.57064 0.97651 0.53859 0.0
C520 C 0.52576 0.98302 0.55031 0.0
C521 C 0.52781 1.00808 0.53528 0.0
C522 C 0.55161 0.01723 0.52195 0.0
C523 C 0.57277 1.00161 0.5235 0.0
H524 H 0.07973 0.03986 0.8146 0.0
H525 H 0.02096 0.0874 0.75711 0.0
H526 H 0.05189 1.00411 0.81089 0.0
H527 H 0.99305 0.05115 0.75258 0.0
H528 H 0.94333 0.98605 0.80703 0.0
H529 H 0.97063 0.02246 0.80623 0.0
H530 H 0.03146 0.97647 0.75291 0.0
H531 H 1.00427 0.9398 0.7546 0.0
C532 C 0.06088 0.04275 0.80089 0.0
C533 C 0.05266 0.06668 0.78616 0.0
C534 C 0.04493 0.02208 0.79842 0.0
C535 C 0.02025 0.02464 0.78115 0.0
C536 C 1.0119 0.04854 0.76648 0.0
C537 C 0.02793 0.06932 0.76891 0.0
C538 C 0.96251 0.98361 0.795 0.0
C539 C 0.97158 0.95983 0.78111 0.0
C540 C 0.97813 1.00462 0.79421 0.0
C541 C 1.00327 1.00246 0.77958 0.0
C542 C 1.01228 0.97877 0.76505 0.0
C543 C 0.99664 0.95773 0.7658 0.0
H544 H 0.16273 0.12353 0.66452 0.0
H545 H 0.09043 0.15488 0.62679 0.0
H546 H 0.17481 0.12487 0.57798 0.0
H547 H 0.10223 0.15547 0.5406 0.0
H548 H 0.12841 0.16017 0.38775 0.0
H549 H 0.12828 0.17111 0.47504 0.0
H550 H 0.16128 0.0993 0.50976 0.0
H551 H 0.16216 0.08867 0.42295 0.0
C552 C 0.1495 0.13093 0.63792 0.0
C553 C 0.1254 0.13856 0.65242 0.0
C554 C 0.15643 0.13168 0.58837 0.0
C555 C 0.13937 0.13997 0.5524 0.0
C556 C 0.11592 0.14918 0.56738 0.0
C557 C 0.10904 0.14856 0.61687 0.0
C558 C 0.13609 0.14692 0.41393 0.0
C559 C 0.14474 0.1233 0.39848 0.0
C560 C 0.13596 0.15318 0.46393 0.0
C561 C 0.14441 0.13593 0.49932 0.0
C562 C 0.15479 0.11311 0.48347 0.0
C563 C 0.15503 0.10689 0.43359 0.0
H564 H 0.91874 0.67618 0.65657 0.0
H565 H 0.87827 0.60639 0.64698 0.0
H566 H 0.90828 0.67941 0.7438 0.0
H567 H 0.86936 0.60842 0.7344 0.0
H568 H 0.92485 0.65138 0.9012 0.0
H569 H 0.92324 0.66036 0.81375 0.0
H570 H 0.85079 0.62421 0.80413 0.0
H571 H 0.85355 0.61364 0.89136 0.0
C572 C 0.90746 0.66163 0.67324 0.0
C573 C 0.89954 0.64089 0.64551 0.0
C574 C 0.90158 0.66336 0.72322 0.0
C575 C 0.88839 0.64395 0.74669 0.0
C576 C 0.87924 0.62395 0.71788 0.0
C577 C 0.88453 0.62261 0.66766 0.0
C578 C 0.90841 0.64576 0.88045 0.0
C579 C 0.88955 0.63146 0.90253 0.0
C580 C 0.90732 0.65109 0.83023 0.0
C581 C 0.88702 0.6427 0.80135 0.0
C582 C 0.86708 0.63029 0.82476 0.0
C583 C 0.86853 0.62436 0.87474 0.0
H584 H 0.42035 0.3526 0.13942 0.0
H585 H 0.37929 0.42207 0.15101 0.0
H586 H 0.41044 0.35041 0.05174 0.0
H587 H 0.37088 0.42103 0.06327 0.0
H588 H 0.42799 0.38067 0.8966 0.0
H589 H 0.42597 0.37081 0.98364 0.0
H590 H 0.35286 0.40581 -0.0079 0.0
H591 H 0.35596 0.41721 0.90533 0.0
C592 C 0.40904 0.36729 0.12311 0.0
C593 C 0.40084 0.38767 0.15154 0.0
C594 C 0.40348 0.36616 0.07289 0.0
C595 C 0.3903 0.3858 0.04996 0.0
C596 C 0.38079 0.40536 0.07939 0.0
C597 C 0.38578 0.40612 0.12979 0.0
C598 C 0.41136 0.38589 0.91701 0.0
C599 C 0.39237 0.40008 0.89478 0.0
C600 C 0.41002 0.38004 0.96695 0.0
C601 C 0.38935 0.38778 -0.00463 0.0
C602 C 0.36939 0.4002 0.9718 0.0
C603 C 0.37106 0.40663 0.92211 0.0
H604 H 0.6592 0.94005 0.37744 0.0
H605 H 0.6261 0.86845 0.41334 0.0
H606 H 0.6581 0.92922 0.29068 0.0
H607 H 0.62572 0.85734 0.32617 0.0
H608 H 0.58795 0.87256 0.17361 0.0
H609 H 0.59954 0.87262 0.26005 0.0
H610 H 0.67202 0.90326 0.22319 0.0
H611 H 0.66016 0.90394 0.13641 0.0
C612 C 0.65215 0.92178 0.36697 0.0
C613 C 0.64216 0.90537 0.40226 0.0
C614 C 0.65178 0.91545 0.31713 0.0
C615 C 0.64156 0.89252 0.30153 0.0
C616 C 0.63329 0.87533 0.33709 0.0
C617 C 0.63355 0.88171 0.38701 0.0
C618 C 0.6065 0.87902 0.18371 0.0
C619 C 0.62289 0.88883 0.1482 0.0
C620 C 0.61326 0.87879 0.23335 0.0
C621 C 0.63661 0.8882 0.24849 0.0
C622 C 0.65371 0.89631 0.21264 0.0
C623 C 0.64691 0.89667 0.16295 0.0
H624 H 0.08773 0.36849 0.67226 0.0
H625 H 0.16015 0.39981 0.63653 0.0
H626 H 0.09891 0.36835 0.75883 0.0
H627 H 0.17164 0.39886 0.7235 0.0
H628 H 0.1576 0.43653 0.87644 0.0
H629 H 0.15749 0.425 0.79007 0.0
H630 H 0.1242 0.35362 0.82624 0.0
H631 H 0.12353 0.36549 0.91305 0.0
C632 C 0.10626 0.37485 0.68271 0.0
C633 C 0.12279 0.3848 0.64759 0.0
C634 C 0.11279 0.3745 0.73245 0.0
C635 C 0.13606 0.38389 0.7481 0.0
C636 C 0.15338 0.39196 0.71258 0.0
C637 C 0.14679 0.39246 0.66277 0.0
C638 C 0.15055 0.41821 0.86623 0.0
C639 C 0.13997 0.40219 0.90154 0.0
C640 C 0.15077 0.41147 0.81661 0.0
C641 C 0.14058 0.38849 0.80123 0.0
C642 C 0.13176 0.37165 0.83694 0.0
C643 C 0.13141 0.37846 0.88666 0.0
H644 H 0.60831 0.67542 0.14847 0.0
H645 H 0.64526 0.60365 0.15855 0.0
H646 H 0.6195 0.67806 0.06154 0.0
H647 H 0.65489 0.6052 0.07133 0.0
H648 H 0.60397 0.65159 0.90266 0.0
H649 H 0.60449 0.65973 -0.00948 0.0
H650 H 0.67529 0.62054 0.00304 0.0
H651 H 0.67365 0.61093 0.9152 0.0
C652 C 0.61894 0.66028 0.13195 0.0
C653 C 0.6257 0.63921 0.15974 0.0
C654 C 0.62523 0.66168 0.08214 0.0
C655 C 0.63773 0.64166 0.05891 0.0
C656 C 0.64561 0.6212 0.08775 0.0
C657 C 0.6399 0.62014 0.13779 0.0
C658 C 0.61984 0.64511 0.92412 0.0
C659 C 0.63854 0.6303 0.90251 0.0
C660 C 0.6203 0.64994 0.97461 0.0
C661 C 0.6398 0.64053 0.00433 0.0
C662 C 0.6596 0.62747 0.98166 0.0
C663 C 0.65879 0.62208 0.93133 0.0
H664 H 0.36791 0.0897 0.38151 0.0
H665 H 0.40258 0.16049 0.41871 0.0
H666 H 0.36758 0.10134 0.29532 0.0
H667 H 0.40147 0.17249 0.33204 0.0
H668 H 0.4361 0.15848 0.17638 0.0
H669 H 0.42593 0.15809 0.26333 0.0
H670 H 0.35287 0.12764 0.22966 0.0
H671 H 0.36335 0.12722 0.14224 0.0
C672 C 0.37503 0.10798 0.37147 0.0
C673 C 0.38583 0.12392 0.40693 0.0
C674 C 0.37456 0.1148 0.32194 0.0
C675 C 0.38473 0.13776 0.30672 0.0
C676 C 0.39389 0.15448 0.34258 0.0
C677 C 0.39446 0.14761 0.39224 0.0
C678 C 0.4177 0.15202 0.18727 0.0
C679 C 0.40078 0.14227 0.15239 0.0
C680 C 0.41176 0.15206 0.23727 0.0
C681 C 0.38869 0.14253 0.25349 0.0
C682 C 0.37099 0.13463 0.21831 0.0
C683 C 0.37699 0.13445 0.16822 0.0
H684 H 0.86628 0.89947 0.65469 0.0
H685 H 0.93988 0.86995 0.6217 0.0
H686 H 0.85619 0.89939 0.56701 0.0
H687 H 0.93009 0.8707 0.53449 0.0
H688 H 0.90686 0.8683 0.37844 0.0
H689 H 0.90621 0.8561 0.465 0.0
H690 H 0.87046 0.92631 0.5022 0.0
H691 H 0.87034 0.93813 0.41609 0.0
C692 C 0.8802 0.89271 0.62888 0.0
C693 C 0.90408 0.88525 0.64515 0.0
C694 C 0.87443 0.89273 0.57865 0.0
C695 C 0.89246 0.88541 0.54375 0.0
C696 C 0.91567 0.87628 0.56034 0.0
C697 C 0.92139 0.8761 0.61048 0.0
C698 C 0.89846 0.88093 0.405 0.0
C699 C 0.88911 0.90441 0.39044 0.0
C700 C 0.89815 0.87396 0.45459 0.0
C701 C 0.88854 0.89034 0.49054 0.0
C702 C 0.87778 0.9131 0.47548 0.0
C703 C 0.87799 0.92002 0.42601 0.0
H704 H 0.05984 0.14288 0.94403 0.0
H705 H 0.12886 0.11402 0.88317 0.0
H706 H 0.07213 0.12707 0.02543 0.0
H707 H 0.14092 0.09828 0.96378 0.0
H708 H 0.14474 0.05462 0.10866 0.0
H709 H 0.12829 0.06643 0.02745 0.0
H710 H 0.10638 0.13856 0.08547 0.0
H711 H 0.12278 0.12698 0.16587 0.0
C712 C 0.07751 0.13308 0.94796 0.0
C713 C 0.09341 0.12979 0.90731 0.0
C714 C 0.08454 0.12407 -0.00558 0.0
C715 C 0.10744 0.11137 0.00078 0.0
C716 C 0.12302 0.10766 0.95985 0.0
C717 C 0.11615 0.11688 0.91373 0.0
C718 C 0.13635 0.07294 0.10396 0.0
C719 C 0.13514 0.08988 0.14355 0.0
C720 C 0.12695 0.07969 0.05761 0.0
C721 C 0.11594 0.10337 0.05033 0.0
C722 C 0.1144 0.12007 0.09017 0.0
C723 C 0.124 0.11345 0.13616 0.0
H724 H 0.97195 0.64195 0.36016 0.0
H725 H 0.90031 0.61641 0.41422 0.0
H726 H 0.96115 0.62619 0.27779 0.0
H727 H 0.88976 0.60067 0.3327 0.0
H728 H 0.88686 0.55781 0.18682 0.0
H729 H 0.90276 0.56816 0.26936 0.0
H730 H 0.92839 0.63974 0.21567 0.0
H731 H 0.9125 0.62967 0.13412 0.0
C732 C 0.95405 0.63284 0.35456 0.0
C733 C 0.93694 0.63055 0.39351 0.0
C734 C 0.94788 0.62384 0.30757 0.0
C735 C 0.92466 0.61213 0.29905 0.0
C736 C 0.90791 0.60928 0.33837 0.0
C737 C 0.91392 0.61851 0.38499 0.0
C738 C 0.896 0.57567 0.19274 0.0
C739 C 0.89833 0.59295 0.15411 0.0
C740 C 0.90509 0.58158 0.23982 0.0
C741 C 0.91692 0.6047 0.2487 0.0
C742 C 0.91972 0.62165 0.20972 0.0
C743 C 0.9104 0.6159 0.16305 0.0
H744 H 0.38602 0.47044 0.608 0.0
H745 H 0.41473 0.40031 0.66404 0.0
H746 H 0.40188 0.45959 0.52584 0.0
H747 H 0.43049 0.38969 0.58281 0.0
H748 H 0.47286 0.38651 0.43765 0.0
H749 H 0.46208 0.40287 0.51948 0.0
H750 H 0.38987 0.42638 0.46424 0.0
H751 H 0.40044 0.41012 0.38326 0.0
C752 C 0.39582 0.45286 0.60287 0.0
C753 C 0.39902 0.43621 0.64234 0.0
C754 C 0.40488 0.44666 0.556 0.0
C755 C 0.41751 0.42384 0.54813 0.0
C756 C 0.42119 0.40755 0.58794 0.0
C757 C 0.41195 0.4136 0.63443 0.0
C758 C 0.45477 0.39529 0.44308 0.0
C759 C 0.43747 0.39691 0.40418 0.0
C760 C 0.44861 0.40464 0.48975 0.0
C761 C 0.42518 0.41598 0.49803 0.0
C762 C 0.40819 0.4181 0.45877 0.0
C763 C 0.41422 0.40856 0.41245 0.0
H764 H 0.64495 0.97191 0.69367 0.0
H765 H 0.62102 0.90062 0.63441 0.0
H766 H 0.62808 0.9601 0.77436 0.0
H767 H 0.60427 0.889 0.71432 0.0
H768 H 0.55804 0.88451 0.85542 0.0
H769 H 0.57057 0.90054 0.77446 0.0
H770 H 0.63971 0.92795 0.83742 0.0
H771 H 0.62738 0.91206 0.91755 0.0
C772 C 0.63605 0.95382 0.69782 0.0
C773 C 0.6344 0.93718 0.65781 0.0
C774 C 0.62641 0.94706 0.74387 0.0
C775 C 0.61476 0.92367 0.75047 0.0
C776 C 0.61278 0.90729 0.71018 0.0
C777 C 0.62259 0.91391 0.66447 0.0
C778 C 0.57583 0.89405 0.85185 0.0
C779 C 0.59174 0.89693 0.89273 0.0
C780 C 0.58301 0.9032 0.80564 0.0
C781 C 0.60609 0.91557 0.79977 0.0
C782 C 0.62168 0.91884 0.84094 0.0
C783 C 0.61465 0.90953 0.88681 0.0
H784 H 0.05594 0.38447 0.35653 0.0
H785 H 0.12612 0.41112 0.41641 0.0
H786 H 0.06779 0.40061 0.27538 0.0
H787 H 0.13788 0.42704 0.33585 0.0
H788 H 0.14276 0.47048 0.19148 0.0
H789 H 0.12652 0.45913 0.27291 0.0
H790 H 0.10027 0.38864 0.214 0.0
H791 H 0.11631 0.39986 0.13334 0.0
C792 C 0.07379 0.39385 0.35242 0.0
C793 C 0.09015 0.39639 0.39269 0.0
C794 C 0.08059 0.40305 0.30607 0.0
C795 C 0.10376 0.41511 0.29937 0.0
C796 C 0.11978 0.41815 0.34 0.0
C797 C 0.1131 0.40882 0.38608 0.0
C798 C 0.13343 0.45264 0.19604 0.0
C799 C 0.1309 0.43604 0.15614 0.0
C800 C 0.12416 0.44613 0.24253 0.0
C801 C 0.11204 0.42303 0.24969 0.0
C802 C 0.10916 0.40671 0.20948 0.0
C803 C 0.11856 0.4131 0.16331 0.0
H804 H 0.63601 0.63572 0.66077 0.0
H805 H 0.62508 0.55767 0.62413 0.0
H806 H 0.62 0.64776 0.5799 0.0
H807 H 0.6085 0.57005 0.54282 0.0
H808 H 0.55278 0.62446 0.43476 0.0
H809 H 0.5656 0.60925 0.51691 0.0
H810 H 0.64229 0.62834 0.48462 0.0
H811 H 0.62985 0.64283 0.40286 0.0
C812 C 0.63008 0.62114 0.63547 0.0
C813 C 0.63193 0.59575 0.64846 0.0
C814 C 0.62084 0.62808 0.58945 0.0
C815 C 0.61287 0.6098 0.55589 0.0
C816 C 0.61437 0.58438 0.5687 0.0
C817 C 0.62404 0.57735 0.61474 0.0
C818 C 0.57232 0.62542 0.44549 0.0
C819 C 0.59035 0.63485 0.41281 0.0
C820 C 0.57962 0.61656 0.49198 0.0
C821 C 0.60489 0.61754 0.50631 0.0
C822 C 0.62275 0.62726 0.47391 0.0
C823 C 0.61559 0.6356 0.42738 0.0
H824 H 0.38134 0.12756 0.65248 0.0
H825 H 0.40698 0.0523 0.68185 0.0
H826 H 0.39531 0.14071 0.73432 0.0
H827 H 0.42171 0.06585 0.7639 0.0
H828 H 0.4703 0.12289 0.8728 0.0
H829 H 0.45721 0.10614 0.79208 0.0
H830 H 0.38009 0.1219 0.82775 0.0
H831 H 0.39288 0.13797 0.90831 0.0
C832 C 0.38998 0.11384 0.67652 0.0
C833 C 0.39296 0.08889 0.66115 0.0
C834 C 0.39798 0.12139 0.72316 0.0
C835 C 0.40964 0.10429 0.7549 0.0
C836 C 0.41284 0.07933 0.73967 0.0
C837 C 0.40426 0.07157 0.69317 0.0
C838 C 0.45059 0.12276 0.86323 0.0
C839 C 0.4326 0.13185 0.89652 0.0
C840 C 0.44314 0.113 0.81748 0.0
C841 C 0.41769 0.11271 0.80425 0.0
C842 C 0.3998 0.1219 0.83741 0.0
C843 C 0.40715 0.13114 0.88331 0.0
H844 H 0.87815 0.90142 0.14176 0.0
H845 H 0.91087 0.97431 0.1184 0.0
H846 H 0.89232 0.88803 0.06021 0.0
H847 H 0.92589 0.96048 0.03679 0.0
H848 H 0.97175 0.90182 0.92878 0.0
H849 H 0.95824 0.91884 0.0089 0.0
H850 H 0.88103 0.90775 0.96723 0.0
H851 H 0.89426 0.89136 0.88736 0.0
C852 C 0.88835 0.91456 0.11899 0.0
C853 C 0.89327 0.93892 0.13587 0.0
C854 C 0.89647 0.90689 0.07256 0.0
C855 C 0.91024 0.92322 0.0427 0.0
C856 C 0.91535 0.94761 0.0595 0.0
C857 C 0.9066 0.95554 0.10569 0.0
C858 C 0.95193 0.90304 0.93689 0.0
C859 C 0.93404 0.89514 0.90211 0.0
C860 C 0.94425 0.91296 0.98232 0.0
C861 C 0.91865 0.91462 -0.00627 0.0
C862 C 0.90086 0.90665 0.95905 0.0
C863 C 0.90846 0.89723 0.91352 0.0
loop_
_geom_bond_atom_site_label_1
_geom_bond_atom_site_label_2
_geom_bond_distance
_geom_bond_site_symmetry_2
_ccdc_geom_bond_type
Co0 O1 2.216 . S
Co0 O2 2.091 . S
Co0 O4 2.004 . S
Co0 O10 2.021 . S
Co0 O12 2.137 . S
Co0 O13 2.244 . S
O1 Co0 2.216 . S
O1 C8 1.247 . S
O2 Co0 2.091 . S
O2 C8 1.261 . S
C3 O12 1.247 . S
C3 O13 1.272 . S
O4 Co0 2.004 . S
O4 C9 1.259 . S
Co5 O6 2.061 . S
Co5 O11 2.052 . S
Co5 O13 2.135 . S
O6 Co5 2.061 . S
O6 C9 1.235 . S
C7 O10 1.238 . S
C7 O11 1.241 . S
C8 O1 1.247 . S
C8 O2 1.261 . S
C9 O4 1.259 . S
C9 O6 1.235 . S
O10 Co0 2.021 . S
O10 C7 1.238 . S
O11 Co5 2.052 . S
O11 C7 1.241 . S
O12 Co0 2.137 . S
O12 C3 1.247 . S
O13 Co0 2.244 . S
O13 C3 1.272 . S
O13 Co5 2.135 . S
Co14 O15 2.216 . S
Co14 O16 2.091 . S
Co14 O18 2.004 . S
Co14 O24 2.021 . S
Co14 O26 2.137 . S
Co14 O27 2.244 . S
O15 Co14 2.216 . S
O15 C22 1.247 . S
O16 Co14 2.091 . S
O16 C22 1.261 . S
C17 O26 1.247 . S
C17 O27 1.272 . S
O18 Co14 2.004 . S
O18 C23 1.259 . S
Co19 O20 2.061 . S
Co19 O25 2.052 . S
Co19 O27 2.135 . S
O20 Co19 2.061 . S
O20 C23 1.235 . S
C21 O24 1.238 . S
C21 O25 1.241 . S
C22 O15 1.247 . S
C22 O16 1.261 . S
C23 O18 1.259 . S
C23 O20 1.235 . S
O24 Co14 2.021 . S
O24 C21 1.238 . S
O25 Co19 2.052 . S
O25 C21 1.241 . S
O26 Co14 2.137 . S
O26 C17 1.247 . S
O27 Co14 2.244 . S
O27 C17 1.272 . S
O27 Co19 2.135 . S
Co28 O29 2.216 . S
Co28 O30 2.091 . S
Co28 O32 2.004 . S
Co28 O38 2.021 . S
Co28 O40 2.137 . S
Co28 O41 2.244 . S
O29 Co28 2.216 . S
O29 C36 1.247 . S
O30 Co28 2.091 . S
O30 C36 1.261 . S
C31 O40 1.247 . S
C31 O41 1.272 . S
O32 Co28 2.004 . S
O32 C37 1.259 . S
Co33 O34 2.061 . S
Co33 O39 2.052 . S
Co33 O41 2.135 . S
O34 Co33 2.061 . S
O34 C37 1.235 . S
C35 O38 1.238 . S
C35 O39 1.241 . S
C36 O29 1.247 . S
C36 O30 1.261 . S
C37 O32 1.259 . S
C37 O34 1.235 . S
O38 Co28 2.021 . S
O38 C35 1.238 . S
O39 Co33 2.052 . S
O39 C35 1.241 . S
O40 Co28 2.137 . S
O40 C31 1.247 . S
O41 Co28 2.244 . S
O41 C31 1.272 . S
O41 Co33 2.135 . S
Co42 O43 2.216 . S
Co42 O44 2.091 . S
Co42 O46 2.004 . S
Co42 O52 2.021 . S
Co42 O54 2.137 1_554 S
Co42 O55 2.244 . S
O43 Co42 2.216 . S
O43 C50 1.247 . S
O44 Co42 2.091 . S
O44 C50 1.261 . S
C45 O54 1.247 . S
C45 O55 1.272 1_556 S
O46 Co42 2.004 . S
O46 C51 1.259 . S
Co47 O48 2.061 . S
Co47 O53 2.052 . S
Co47 O55 2.135 . S
O48 Co47 2.061 . S
O48 C51 1.235 . S
C49 O52 1.238 . S
C49 O53 1.241 . S
C50 O43 1.247 . S
C50 O44 1.261 . S
C51 O46 1.259 . S
C51 O48 1.235 . S
O52 Co42 2.021 . S
O52 C49 1.238 . S
O53 Co47 2.052 . S
O53 C49 1.241 . S
O54 Co42 2.137 1_556 S
O54 C45 1.247 . S
O55 Co42 2.244 . S
O55 C45 1.272 1_554 S
O55 Co47 2.135 . S
Co56 O57 2.216 . S
Co56 O58 2.086 1_554 S
Co56 O60 2.004 . S
Co56 O66 2.021 1_554 S
Co56 O68 2.137 . S
Co56 O69 2.244 . S
O57 Co56 2.216 . S
O57 C64 1.247 1_554 S
O58 Co56 2.086 1_556 S
O58 C64 1.262 . S
C59 O68 1.247 . S
C59 O69 1.272 . S
O60 Co56 2.004 . S
O60 C65 1.259 . S
Co61 O62 2.061 . S
Co61 O67 2.052 1_554 S
Co61 O69 2.135 . S
O62 Co61 2.061 . S
O62 C65 1.235 . S
C63 O66 1.238 . S
C63 O67 1.241 . S
C64 O57 1.247 1_556 S
C64 O58 1.262 . S
C65 O60 1.259 . S
C65 O62 1.235 . S
O66 Co56 2.021 1_556 S
O66 C63 1.238 . S
O67 Co61 2.052 1_556 S
O67 C63 1.241 . S
O68 Co56 2.137 . S
O68 C59 1.247 . S
O69 Co56 2.244 . S
O69 C59 1.272 . S
O69 Co61 2.135 . S
Co70 O71 2.216 . S
Co70 O72 2.091 . S
Co70 O74 2.004 . S
Co70 O80 2.021 . S
Co70 O82 2.137 . S
Co70 O83 2.244 . S
O71 Co70 2.216 . S
O71 C78 1.247 . S
O72 Co70 2.091 . S
O72 C78 1.261 . S
C73 O82 1.247 . S
C73 O83 1.272 . S
O74 Co70 2.004 . S
O74 C79 1.259 . S
Co75 O76 2.061 . S
Co75 O81 2.052 . S
Co75 O83 2.135 . S
O76 Co75 2.061 . S
O76 C79 1.235 . S
C77 O80 1.238 . S
C77 O81 1.241 . S
C78 O71 1.247 . S
C78 O72 1.261 . S
C79 O74 1.259 . S
C79 O76 1.235 . S
O80 Co70 2.021 . S
O80 C77 1.238 . S
O81 Co75 2.052 . S
O81 C77 1.241 . S
O82 Co70 2.137 . S
O82 C73 1.247 . S
O83 Co70 2.244 . S
O83 C73 1.272 . S
O83 Co75 2.135 . S
Co84 O85 2.216 . S
Co84 O86 2.091 . S
Co84 O88 2.004 . S
Co84 O94 2.021 . S
Co84 O96 2.137 . S
Co84 O97 2.244 . S
O85 Co84 2.216 . S
O85 C92 1.247 . S
O86 Co84 2.091 . S
O86 C92 1.261 . S
C87 O96 1.247 . S
C87 O97 1.272 . S
O88 Co84 2.004 . S
O88 C93 1.259 . S
Co89 O90 2.061 . S
Co89 O95 2.052 . S
Co89 O97 2.135 . S
O90 Co89 2.061 . S
O90 C93 1.235 . S
C91 O94 1.238 . S
C91 O95 1.241 . S
C92 O85 1.247 . S
C92 O86 1.261 . S
C93 O88 1.259 . S
C93 O90 1.235 . S
O94 Co84 2.021 . S
O94 C91 1.238 . S
O95 Co89 2.052 . S
O95 C91 1.241 . S
O96 Co84 2.137 . S
O96 C87 1.247 . S
O97 Co84 2.244 . S
O97 C87 1.272 . S
O97 Co89 2.135 . S
Co98 O99 2.216 . S
Co98 O100 2.091 . S
Co98 O102 2.004 . S
Co98 O108 2.021 . S
Co98 O110 2.137 . S
Co98 O111 2.244 . S
O99 Co98 2.216 . S
O99 C106 1.247 . S
O100 Co98 2.091 . S
O100 C106 1.261 . S
C101 O110 1.247 . S
C101 O111 1.272 . S
O102 Co98 2.004 . S
O102 C107 1.259 . S
Co103 O104 2.061 . S
Co103 O109 2.052 . S
Co103 O111 2.135 . S
O104 Co103 2.061 . S
O104 C107 1.235 . S
C105 O108 1.238 . S
C105 O109 1.241 . S
C106 O99 1.247 . S
C106 O100 1.261 . S
C107 O102 1.259 . S
C107 O104 1.235 . S
O108 Co98 2.021 . S
O108 C105 1.238 . S
O109 Co103 2.052 . S
O109 C105 1.241 . S
O110 Co98 2.137 . S
O110 C101 1.247 . S
O111 Co98 2.244 . S
O111 C101 1.272 . S
O111 Co103 2.135 . S
Co112 O113 2.216 . S
Co112 O114 2.091 . S
Co112 O116 2.004 . S
Co112 O122 2.021 . S
Co112 O124 2.137 . S
Co112 O125 2.244 . S
O113 Co112 2.216 . S
O113 C120 1.247 . S
O114 Co112 2.091 . S
O114 C120 1.261 . S
C115 O124 1.247 . S
C115 O125 1.272 . S
O116 Co112 2.004 . S
O116 C121 1.259 . S
Co117 O118 2.061 . S
Co117 O123 2.052 . S
Co117 O125 2.135 . S
O118 Co117 2.061 . S
O118 C121 1.235 . S
C119 O122 1.238 . S
C119 O123 1.241 . S
C120 O113 1.247 . S
C120 O114 1.261 . S
C121 O116 1.259 . S
C121 O118 1.235 . S
O122 Co112 2.021 . S
O122 C119 1.238 . S
O123 Co117 2.052 . S
O123 C119 1.241 . S
O124 Co112 2.137 . S
O124 C115 1.247 . S
O125 Co112 2.244 . S
O125 C115 1.272 . S
O125 Co117 2.135 . S
Co126 O127 2.216 . S
Co126 O128 2.091 . S
Co126 O130 2.004 . S
Co126 O136 2.021 . S
Co126 O138 2.137 1_554 S
Co126 O139 2.244 . S
O127 Co126 2.216 . S
O127 C134 1.247 . S
O128 Co126 2.091 . S
O128 C134 1.261 . S
C129 O138 1.247 . S
C129 O139 1.272 1_556 S
O130 Co126 2.004 . S
O130 C135 1.259 . S
Co131 O132 2.061 . S
Co131 O137 2.052 . S
Co131 O139 2.135 . S
O132 Co131 2.061 . S
O132 C135 1.235 . S
C133 O136 1.238 . S
C133 O137 1.241 . S
C134 O127 1.247 . S
C134 O128 1.261 . S
C135 O130 1.259 . S
C135 O132 1.235 . S
O136 Co126 2.021 . S
O136 C133 1.238 . S
O137 Co131 2.052 . S
O137 C133 1.241 . S
O138 Co126 2.137 1_556 S
O138 C129 1.247 . S
O139 Co126 2.244 . S
O139 C129 1.272 1_554 S
O139 Co131 2.135 . S
Co140 O141 2.216 . S
Co140 O142 2.091 . S
Co140 O144 2.004 . S
Co140 O150 2.021 . S
Co140 O152 2.137 . S
Co140 O153 2.244 . S
O141 Co140 2.216 . S
O141 C148 1.247 . S
O142 Co140 2.091 . S
O142 C148 1.261 . S
C143 O152 1.247 . S
C143 O153 1.272 . S
O144 Co140 2.004 . S
O144 C149 1.259 . S
Co145 O146 2.061 . S
Co145 O151 2.052 . S
Co145 O153 2.135 . S
O146 Co145 2.061 . S
O146 C149 1.235 . S
C147 O150 1.238 . S
C147 O151 1.241 . S
C148 O141 1.247 . S
C148 O142 1.261 . S
C149 O144 1.259 . S
C149 O146 1.235 . S
O150 Co140 2.021 . S
O150 C147 1.238 . S
O151 Co145 2.052 . S
O151 C147 1.241 . S
O152 Co140 2.137 . S
O152 C143 1.247 . S
O153 Co140 2.244 . S
O153 C143 1.272 . S
O153 Co145 2.135 . S
Co154 O155 2.216 . S
Co154 O156 2.091 . S
Co154 O158 2.004 . S
Co154 O164 2.021 . S
Co154 O166 2.137 . S
Co154 O167 2.244 . S
O155 Co154 2.216 . S
O155 C162 1.247 . S
O156 Co154 2.091 . S
O156 C162 1.261 . S
C157 O166 1.247 . S
C157 O167 1.272 . S
O158 Co154 2.004 . S
O158 C163 1.259 . S
Co159 O160 2.061 . S
Co159 O165 2.052 . S
Co159 O167 2.135 . S
O160 Co159 2.061 . S
O160 C163 1.235 . S
C161 O164 1.238 . S
C161 O165 1.241 . S
C162 O155 1.247 . S
C162 O156 1.261 . S
C163 O158 1.259 . S
C163 O160 1.235 . S
O164 Co154 2.021 . S
O164 C161 1.238 . S
O165 Co159 2.052 . S
O165 C161 1.241 . S
O166 Co154 2.137 . S
O166 C157 1.247 . S
O167 Co154 2.244 . S
O167 C157 1.272 . S
O167 Co159 2.135 . S
Co168 O169 2.216 . S
Co168 O170 2.091 . S
Co168 O172 2.004 . S
Co168 O178 2.021 . S
Co168 O180 2.137 . S
Co168 O181 2.244 . S
O169 Co168 2.216 . S
O169 C176 1.247 . S
O170 Co168 2.091 . S
O170 C176 1.261 . S
C171 O180 1.247 . S
C171 O181 1.272 . S
O172 Co168 2.004 . S
O172 C177 1.259 . S
Co173 O174 2.061 . S
Co173 O179 2.052 . S
Co173 O181 2.135 . S
O174 Co173 2.061 . S
O174 C177 1.235 . S
C175 O178 1.238 . S
C175 O179 1.241 . S
C176 O169 1.247 . S
C176 O170 1.261 . S
C177 O172 1.259 . S
C177 O174 1.235 . S
O178 Co168 2.021 . S
O178 C175 1.238 . S
O179 Co173 2.052 . S
O179 C175 1.241 . S
O180 Co168 2.137 . S
O180 C171 1.247 . S
O181 Co168 2.244 . S
O181 C171 1.272 . S
O181 Co173 2.135 . S
Co182 O183 2.216 . S
Co182 O184 2.091 . S
Co182 O186 2.004 . S
Co182 O192 2.021 . S
Co182 O194 2.137 . S
Co182 O195 2.244 . S
O183 Co182 2.216 . S
O183 C190 1.247 . S
O184 Co182 2.091 . S
O184 C190 1.261 . S
C185 O194 1.247 . S
C185 O195 1.272 . S
O186 Co182 2.004 . S
O186 C191 1.259 . S
Co187 O188 2.061 . S
Co187 O193 2.052 . S
Co187 O195 2.135 . S
O188 Co187 2.061 . S
O188 C191 1.235 . S
C189 O192 1.238 . S
C189 O193 1.241 . S
C190 O183 1.247 . S
C190 O184 1.261 . S
C191 O186 1.259 . S
C191 O188 1.235 . S
O192 Co182 2.021 . S
O192 C189 1.238 . S
O193 Co187 2.052 . S
O193 C189 1.241 . S
O194 Co182 2.137 . S
O194 C185 1.247 . S
O195 Co182 2.244 . S
O195 C185 1.272 . S
O195 Co187 2.135 . S
Co196 O197 2.216 . S
Co196 O198 2.086 1_554 S
Co196 O200 2.004 . S
Co196 O206 2.021 1_554 S
Co196 O208 2.137 . S
Co196 O209 2.244 . S
O197 Co196 2.216 . S
O197 C204 1.247 1_554 S
O198 Co196 2.086 1_556 S
O198 C204 1.262 . S
C199 O208 1.247 . S
C199 O209 1.272 . S
O200 Co196 2.004 . S
O200 C205 1.259 . S
Co201 O202 2.061 . S
Co201 O207 2.052 1_554 S
Co201 O209 2.135 . S
O202 Co201 2.061 . S
O202 C205 1.235 . S
C203 O206 1.238 . S
C203 O207 1.241 . S
C204 O197 1.247 1_556 S
C204 O198 1.262 . S
C205 O200 1.259 . S
C205 O202 1.235 . S
O206 Co196 2.021 1_556 S
O206 C203 1.238 . S
O207 Co201 2.052 1_556 S
O207 C203 1.241 . S
O208 Co196 2.137 . S
O208 C199 1.247 . S
O209 Co196 2.244 . S
O209 C199 1.272 . S
O209 Co201 2.135 . S
Co210 O211 2.216 . S
Co210 O212 2.091 . S
Co210 O214 2.004 . S
Co210 O220 2.021 . S
Co210 O222 2.137 . S
Co210 O223 2.244 . S
O211 Co210 2.216 . S
O211 C218 1.247 . S
O212 Co210 2.091 . S
O212 C218 1.261 . S
C213 O222 1.247 . S
C213 O223 1.272 . S
O214 Co210 2.004 . S
O214 C219 1.259 . S
Co215 O216 2.061 . S
Co215 O221 2.052 . S
Co215 O223 2.135 . S
O216 Co215 2.061 . S
O216 C219 1.235 . S
C217 O220 1.238 . S
C217 O221 1.241 . S
C218 O211 1.247 . S
C218 O212 1.261 . S
C219 O214 1.259 . S
C219 O216 1.235 . S
O220 Co210 2.021 . S
O220 C217 1.238 . S
O221 Co215 2.052 . S
O221 C217 1.241 . S
O222 Co210 2.137 . S
O222 C213 1.247 . S
O223 Co210 2.244 . S
O223 C213 1.272 . S
O223 Co215 2.135 . S
H224 C232 0.950 . S
H225 C237 0.950 . S
H226 C234 0.950 . S
H227 C236 0.950 . S
H228 C238 0.950 . S
H229 C240 0.950 . S
H230 C242 0.950 . S
H231 C243 0.950 . S
C232 H224 0.950 . S
C232 C233 1.386 . S
C232 C234 1.391 . S
C233 C232 1.386 . S
C233 C237 1.393 . S
C234 H226 0.950 . S
C234 C232 1.391 . S
C234 C235 1.400 . S
C235 C234 1.400 . S
C235 C236 1.398 . S
C235 C241 1.491 . S
C236 H227 0.950 . S
C236 C235 1.398 . S
C236 C237 1.391 . S
C237 H225 0.950 . S
C237 C233 1.393 . S
C237 C236 1.391 . S
C238 H228 0.950 . S
C238 C239 1.386 . S
C238 C240 1.391 . S
C239 C238 1.386 . S
C239 C243 1.393 . S
C240 H229 0.950 . S
C240 C238 1.391 . S
C240 C241 1.400 . S
C241 C235 1.491 . S
C241 C240 1.400 . S
C241 C242 1.398 . S
C242 H230 0.950 . S
C242 C241 1.398 . S
C242 C243 1.391 . S
C243 H231 0.950 . S
C243 C239 1.393 . S
C243 C242 1.391 . S
H244 C252 0.950 . S
H245 C257 0.950 . S
H246 C254 0.950 . S
H247 C256 0.950 . S
H248 C258 0.950 . S
H249 C260 0.950 . S
H250 C262 0.950 . S
H251 C263 0.950 . S
C252 H244 0.950 . S
C252 C253 1.386 . S
C252 C254 1.391 . S
C253 C252 1.386 . S
C253 C257 1.393 . S
C254 H246 0.950 . S
C254 C252 1.391 . S
C254 C255 1.400 . S
C255 C254 1.400 . S
C255 C256 1.398 . S
C255 C261 1.491 . S
C256 H247 0.950 . S
C256 C255 1.398 . S
C256 C257 1.391 . S
C257 H245 0.950 . S
C257 C253 1.393 . S
C257 C256 1.391 . S
C258 H248 0.950 . S
C258 C259 1.386 . S
C258 C260 1.391 . S
C259 C258 1.386 . S
C259 C263 1.393 . S
C260 H249 0.950 . S
C260 C258 1.391 . S
C260 C261 1.400 . S
C261 C255 1.491 . S
C261 C260 1.400 . S
C261 C262 1.398 . S
C262 H250 0.950 . S
C262 C261 1.398 . S
C262 C263 1.391 . S
C263 H251 0.950 . S
C263 C259 1.393 . S
C263 C262 1.391 . S
H264 C272 0.950 . S
H265 C277 0.950 . S
H266 C274 0.950 . S
H267 C276 0.950 . S
H268 C278 0.950 1_554 S
H269 C280 0.950 . S
H270 C282 0.950 . S
H271 C283 0.950 . S
C272 H264 0.950 . S
C272 C273 1.386 . S
C272 C274 1.391 . S
C273 C272 1.386 . S
C273 C277 1.393 . S
C274 H266 0.950 . S
C274 C272 1.391 . S
C274 C275 1.400 . S
C275 C274 1.400 . S
C275 C276 1.398 . S
C275 C281 1.491 . S
C276 H267 0.950 . S
C276 C275 1.398 . S
C276 C277 1.391 . S
C277 H265 0.950 . S
C277 C273 1.393 . S
C277 C276 1.391 . S
C278 H268 0.950 1_556 S
C278 C279 1.386 . S
C278 C280 1.391 . S
C279 C278 1.386 . S
C279 C283 1.393 . S
C280 H269 0.950 . S
C280 C278 1.391 . S
C280 C281 1.400 . S
C281 C275 1.491 . S
C281 C280 1.400 . S
C281 C282 1.398 . S
C282 H270 0.950 . S
C282 C281 1.398 . S
C282 C283 1.391 . S
C283 H271 0.950 . S
C283 C279 1.393 . S
C283 C282 1.391 . S
H284 C292 0.950 . S
H285 C297 0.950 . S
H286 C294 0.950 . S
H287 C296 0.950 . S
H288 C298 0.950 . S
H289 C300 0.950 . S
H290 C302 0.950 . S
H291 C303 0.950 . S
C292 H284 0.950 . S
C292 C293 1.386 . S
C292 C294 1.391 . S
C293 C292 1.386 . S
C293 C297 1.393 . S
C294 H286 0.950 . S
C294 C292 1.391 . S
C294 C295 1.400 . S
C295 C294 1.400 . S
C295 C296 1.398 . S
C295 C301 1.491 . S
C296 H287 0.950 . S
C296 C295 1.398 . S
C296 C297 1.391 . S
C297 H285 0.950 . S
C297 C293 1.393 . S
C297 C296 1.391 . S
C298 H288 0.950 . S
C298 C299 1.386 . S
C298 C300 1.391 . S
C299 C298 1.386 . S
C299 C303 1.393 . S
C300 H289 0.950 . S
C300 C298 1.391 . S
C300 C301 1.400 . S
C301 C295 1.491 . S
C301 C300 1.400 . S
C301 C302 1.398 . S
C302 H290 0.950 . S
C302 C301 1.398 . S
C302 C303 1.391 . S
C303 H291 0.950 . S
C303 C299 1.393 . S
C303 C302 1.391 . S
H304 C312 0.950 . S
H305 C317 0.950 . S
H306 C314 0.950 . S
H307 C316 0.950 . S
H308 C318 0.950 . S
H309 C320 0.950 . S
H310 C322 0.950 . S
H311 C323 0.950 . S
C312 H304 0.950 . S
C312 C313 1.386 . S
C312 C314 1.391 . S
C313 C312 1.386 . S
C313 C317 1.393 . S
C314 H306 0.950 . S
C314 C312 1.391 . S
C314 C315 1.400 . S
C315 C314 1.400 . S
C315 C316 1.398 . S
C315 C321 1.491 . S
C316 H307 0.950 . S
C316 C315 1.398 . S
C316 C317 1.391 . S
C317 H305 0.950 . S
C317 C313 1.393 . S
C317 C316 1.391 . S
C318 H308 0.950 . S
C318 C319 1.386 . S
C318 C320 1.391 . S
C319 C318 1.386 . S
C319 C323 1.393 1_556 S
C320 H309 0.950 . S
C320 C318 1.391 . S
C320 C321 1.400 . S
C321 C315 1.491 . S
C321 C320 1.400 . S
C321 C322 1.398 . S
C322 H310 0.950 . S
C322 C321 1.398 . S
C322 C323 1.391 1_556 S
C323 H311 0.950 . S
C323 C319 1.393 1_554 S
C323 C322 1.391 1_554 S
H324 C332 0.950 . S
H325 C337 0.950 . S
H326 C334 0.950 . S
H327 C336 0.950 . S
H328 C338 0.950 . S
H329 C340 0.950 . S
H330 C342 0.950 . S
H331 C343 0.950 . S
C332 H324 0.950 . S
C332 C333 1.386 . S
C332 C334 1.391 . S
C333 C332 1.386 . S
C333 C337 1.393 . S
C334 H326 0.950 . S
C334 C332 1.391 . S
C334 C335 1.400 . S
C335 C334 1.400 . S
C335 C336 1.398 . S
C335 C341 1.491 . S
C336 H327 0.950 . S
C336 C335 1.398 . S
C336 C337 1.391 . S
C337 H325 0.950 . S
C337 C333 1.393 . S
C337 C336 1.391 . S
C338 H328 0.950 . S
C338 C339 1.386 . S
C338 C340 1.391 . S
C339 C338 1.386 . S
C339 C343 1.393 . S
C340 H329 0.950 . S
C340 C338 1.391 . S
C340 C341 1.400 . S
C341 C335 1.491 . S
C341 C340 1.400 . S
C341 C342 1.398 . S
C342 H330 0.950 . S
C342 C341 1.398 . S
C342 C343 1.391 . S
C343 H331 0.950 . S
C343 C339 1.393 . S
C343 C342 1.391 . S
H344 C352 0.950 . S
H345 C357 0.950 . S
H346 C354 0.950 . S
H347 C356 0.950 . S
H348 C358 0.950 . S
H349 C360 0.950 . S
H350 C362 0.950 . S
H351 C363 0.950 . S
C352 H344 0.950 . S
C352 C353 1.386 . S
C352 C354 1.391 . S
C353 C352 1.386 . S
C353 C357 1.393 . S
C354 H346 0.950 . S
C354 C352 1.391 . S
C354 C355 1.400 . S
C355 C354 1.400 . S
C355 C356 1.398 . S
C355 C361 1.491 . S
C356 H347 0.950 . S
C356 C355 1.398 . S
C356 C357 1.391 . S
C357 H345 0.950 . S
C357 C353 1.393 . S
C357 C356 1.391 . S
C358 H348 0.950 . S
C358 C359 1.386 . S
C358 C360 1.391 . S
C359 C358 1.386 . S
C359 C363 1.393 . S
C360 H349 0.950 . S
C360 C358 1.391 . S
C360 C361 1.400 . S
C361 C355 1.491 . S
C361 C360 1.400 . S
C361 C362 1.398 . S
C362 H350 0.950 . S
C362 C361 1.398 . S
C362 C363 1.391 . S
C363 H351 0.950 . S
C363 C359 1.393 . S
C363 C362 1.391 . S
H364 C372 0.950 . S
H365 C377 0.950 . S
H366 C374 0.950 . S
H367 C376 0.950 . S
H368 C378 0.950 . S
H369 C380 0.950 . S
H370 C382 0.950 . S
H371 C383 0.950 . S
C372 H364 0.950 . S
C372 C373 1.386 . S
C372 C374 1.391 . S
C373 C372 1.386 . S
C373 C377 1.393 . S
C374 H366 0.950 . S
C374 C372 1.391 . S
C374 C375 1.400 . S
C375 C374 1.400 . S
C375 C376 1.398 . S
C375 C381 1.491 . S
C376 H367 0.950 . S
C376 C375 1.398 . S
C376 C377 1.391 . S
C377 H365 0.950 . S
C377 C373 1.393 . S
C377 C376 1.391 . S
C378 H368 0.950 . S
C378 C379 1.386 . S
C378 C380 1.391 . S
C379 C378 1.386 . S
C379 C383 1.393 . S
C380 H369 0.950 . S
C380 C378 1.391 . S
C380 C381 1.400 . S
C381 C375 1.491 . S
C381 C380 1.400 . S
C381 C382 1.398 . S
C382 H370 0.950 . S
C382 C381 1.398 . S
C382 C383 1.391 . S
C383 H371 0.950 . S
C383 C379 1.393 . S
C383 C382 1.391 . S
H384 C392 0.950 . S
H385 C397 0.950 . S
H386 C394 0.922 1_565 S
H387 C396 0.950 . S
H388 C398 0.950 . S
H389 C400 0.922 1_545 S
H390 C402 0.950 . S
H391 C403 0.950 . S
C392 H384 0.950 . S
C392 C393 1.386 . S
C392 C394 1.410 . S
C393 C392 1.386 . S
C393 C397 1.393 . S
C394 H386 0.922 1_545 S
C394 C392 1.410 . S
C394 C395 1.410 . S
C395 C394 1.410 . S
C395 C396 1.398 . S
C395 C401 1.491 1_445 S
C396 H387 0.950 . S
C396 C395 1.398 . S
C396 C397 1.391 . S
C397 H385 0.950 . S
C397 C393 1.393 . S
C397 C396 1.391 . S
C398 H388 0.950 . S
C398 C399 1.386 . S
C398 C400 1.410 . S
C399 C398 1.386 . S
C399 C403 1.393 . S
C400 H389 0.922 1_565 S
C400 C398 1.410 . S
C400 C401 1.410 . S
C401 C395 1.491 1_665 S
C401 C400 1.410 . S
C401 C402 1.398 . S
C402 H390 0.950 . S
C402 C401 1.398 . S
C402 C403 1.391 . S
C403 H391 0.950 . S
C403 C399 1.393 . S
C403 C402 1.391 . S
H404 C412 0.950 . S
H405 C417 0.950 1_455 S
H406 C414 0.950 . S
H407 C416 0.950 . S
H408 C418 0.950 . S
H409 C420 0.950 . S
H410 C422 0.950 . S
H411 C423 0.950 1_655 S
C412 H404 0.950 . S
C412 C413 1.386 . S
C412 C414 1.391 . S
C413 C412 1.386 . S
C413 C417 1.393 . S
C414 H406 0.950 . S
C414 C412 1.391 . S
C414 C415 1.400 . S
C415 C414 1.400 . S
C415 C416 1.398 1_655 S
C415 C421 1.491 1_655 S
C416 H407 0.950 . S
C416 C415 1.398 1_455 S
C416 C417 1.391 1_455 S
C417 H405 0.950 1_655 S
C417 C413 1.393 . S
C417 C416 1.391 1_655 S
C418 H408 0.950 . S
C418 C419 1.386 . S
C418 C420 1.391 . S
C419 C418 1.386 . S
C419 C423 1.393 . S
C420 H409 0.950 . S
C420 C418 1.391 . S
C420 C421 1.400 . S
C421 C415 1.491 1_455 S
C421 C420 1.400 . S
C421 C422 1.398 1_455 S
C422 H410 0.950 . S
C422 C421 1.398 1_655 S
C422 C423 1.391 1_655 S
C423 H411 0.950 1_455 S
C423 C419 1.393 . S
C423 C422 1.391 1_455 S
H424 C432 0.950 . S
H425 C437 0.950 . S
H426 C434 0.950 . S
H427 C436 0.950 . S
H428 C438 0.950 . S
H429 C440 0.950 . S
H430 C442 0.950 . S
H431 C443 0.950 . S
C432 H424 0.950 . S
C432 C433 1.386 . S
C432 C434 1.391 . S
C433 C432 1.386 . S
C433 C437 1.393 . S
C434 H426 0.950 . S
C434 C432 1.391 . S
C434 C435 1.400 . S
C435 C434 1.400 . S
C435 C436 1.398 . S
C435 C441 1.491 . S
C436 H427 0.950 . S
C436 C435 1.398 . S
C436 C437 1.391 . S
C437 H425 0.950 . S
C437 C433 1.393 . S
C437 C436 1.391 . S
C438 H428 0.950 . S
C438 C439 1.386 . S
C438 C440 1.391 . S
C439 C438 1.386 . S
C439 C443 1.393 . S
C440 H429 0.950 . S
C440 C438 1.391 . S
C440 C441 1.400 . S
C441 C435 1.491 . S
C441 C440 1.400 . S
C441 C442 1.398 . S
C442 H430 0.950 . S
C442 C441 1.398 . S
C442 C443 1.391 . S
C443 H431 0.950 . S
C443 C439 1.393 . S
C443 C442 1.391 . S
H444 C452 0.950 1_556 S
H445 C457 0.950 . S
H446 C454 0.950 1_556 S
H447 C456 0.950 . S
H448 C458 0.950 . S
H449 C460 0.950 . S
H450 C462 0.950 . S
H451 C463 0.950 1_556 S
C452 H444 0.950 1_554 S
C452 C453 1.386 . S
C452 C454 1.391 . S
C453 C452 1.386 . S
C453 C457 1.393 . S
C454 H446 0.950 1_554 S
C454 C452 1.391 . S
C454 C455 1.400 . S
C455 C454 1.400 . S
C455 C456 1.398 . S
C455 C461 1.491 1_565 S
C456 H447 0.950 . S
C456 C455 1.398 . S
C456 C457 1.391 . S
C457 H445 0.950 . S
C457 C453 1.393 . S
C457 C456 1.391 . S
C458 H448 0.950 . S
C458 C459 1.386 . S
C458 C460 1.391 . S
C459 C458 1.386 . S
C459 C463 1.393 . S
C460 H449 0.950 . S
C460 C458 1.391 . S
C460 C461 1.400 . S
C461 C455 1.491 1_545 S
C461 C460 1.400 . S
C461 C462 1.398 . S
C462 H450 0.950 . S
C462 C461 1.398 . S
C462 C463 1.391 . S
C463 H451 0.950 1_554 S
C463 C459 1.393 . S
C463 C462 1.391 . S
H464 C472 0.950 . S
H465 C477 0.950 . S
H466 C474 0.950 . S
H467 C476 0.950 . S
H468 C478 0.950 . S
H469 C480 0.950 . S
H470 C482 0.950 . S
H471 C483 0.950 . S
C472 H464 0.950 . S
C472 C473 1.386 1_556 S
C472 C474 1.391 . S
C473 C472 1.386 1_554 S
C473 C477 1.393 . S
C474 H466 0.950 . S
C474 C472 1.391 . S
C474 C475 1.400 1_556 S
C475 C474 1.400 1_554 S
C475 C476 1.398 . S
C475 C481 1.491 1_455 S
C476 H467 0.950 . S
C476 C475 1.398 . S
C476 C477 1.391 . S
C477 H465 0.950 . S
C477 C473 1.393 . S
C477 C476 1.391 . S
C478 H468 0.950 . S
C478 C479 1.386 . S
C478 C480 1.391 . S
C479 C478 1.386 . S
C479 C483 1.393 1_554 S
C480 H469 0.950 . S
C480 C478 1.391 . S
C480 C481 1.400 . S
C481 C475 1.491 1_655 S
C481 C480 1.400 . S
C481 C482 1.398 1_554 S
C482 H470 0.950 . S
C482 C481 1.398 1_556 S
C482 C483 1.391 . S
C483 H471 0.950 . S
C483 C479 1.393 1_556 S
C483 C482 1.391 . S
H484 C492 0.950 . S
H485 C497 0.950 . S
H486 C494 0.950 . S
H487 C496 0.950 . S
H488 C498 0.950 . S
H489 C500 0.950 . S
H490 C502 0.950 . S
H491 C503 0.950 . S
C492 H484 0.950 . S
C492 C493 1.386 . S
C492 C494 1.391 . S
C493 C492 1.386 . S
C493 C497 1.393 . S
C494 H486 0.950 . S
C494 C492 1.391 . S
C494 C495 1.400 . S
C495 C494 1.400 . S
C495 C496 1.398 . S
C495 C501 1.491 . S
C496 H487 0.950 . S
C496 C495 1.398 . S
C496 C497 1.391 . S
C497 H485 0.950 . S
C497 C493 1.393 . S
C497 C496 1.391 . S
C498 H488 0.950 . S
C498 C499 1.386 . S
C498 C500 1.391 . S
C499 C498 1.386 . S
C499 C503 1.393 . S
C500 H489 0.950 . S
C500 C498 1.391 . S
C500 C501 1.400 . S
C501 C495 1.491 . S
C501 C500 1.400 . S
C501 C502 1.398 . S
C502 H490 0.950 . S
C502 C501 1.398 . S
C502 C503 1.391 . S
C503 H491 0.950 . S
C503 C499 1.393 . S
C503 C502 1.391 . S
H504 C512 0.950 . S
H505 C517 0.950 . S
H506 C514 0.950 . S
H507 C516 0.950 . S
H508 C518 0.950 . S
H509 C520 0.950 . S
H510 C522 0.950 . S
H511 C523 0.950 . S
C512 H504 0.950 . S
C512 C513 1.386 . S
C512 C514 1.391 . S
C513 C512 1.386 . S
C513 C517 1.393 . S
C514 H506 0.950 . S
C514 C512 1.391 . S
C514 C515 1.400 . S
C515 C514 1.400 . S
C515 C516 1.398 1_545 S
C515 C521 1.491 1_545 S
C516 H507 0.950 . S
C516 C515 1.398 1_565 S
C516 C517 1.391 1_565 S
C517 H505 0.950 . S
C517 C513 1.393 . S
C517 C516 1.391 1_545 S
C518 H508 0.950 . S
C518 C519 1.386 . S
C518 C520 1.391 . S
C519 C518 1.386 . S
C519 C523 1.393 . S
C520 H509 0.950 . S
C520 C518 1.391 . S
C520 C521 1.400 . S
C521 C515 1.491 1_565 S
C521 C520 1.400 . S
C521 C522 1.398 1_565 S
C522 H510 0.950 . S
C522 C521 1.398 1_545 S
C522 C523 1.391 1_545 S
C523 H511 0.950 . S
C523 C519 1.393 . S
C523 C522 1.391 1_565 S
H524 C532 0.950 . S
H525 C537 0.954 . S
H526 C534 0.950 . S
H527 C536 0.950 . S
H528 C538 0.950 . S
H529 C540 0.950 . S
H530 C542 0.950 . S
H531 C543 0.954 . S
C532 H524 0.950 . S
C532 C533 1.386 . S
C532 C534 1.391 . S
C533 C532 1.386 . S
C533 C537 1.393 . S
C534 H526 0.950 . S
C534 C532 1.391 . S
C534 C535 1.400 . S
C535 C534 1.400 . S
C535 C536 1.398 1_455 S
C535 C541 1.491 1_445 S
C536 H527 0.950 . S
C536 C535 1.398 1_655 S
C536 C537 1.391 1_655 S
C537 H525 0.954 . S
C537 C533 1.393 . S
C537 C536 1.391 1_455 S
C538 H528 0.950 . S
C538 C539 1.386 . S
C538 C540 1.391 . S
C539 C538 1.386 . S
C539 C543 1.393 . S
C540 H529 0.950 . S
C540 C538 1.391 . S
C540 C541 1.400 . S
C541 C535 1.491 1_665 S
C541 C540 1.400 . S
C541 C542 1.398 1_655 S
C542 H530 0.950 . S
C542 C541 1.398 1_455 S
C542 C543 1.391 1_455 S
C543 H531 0.954 . S
C543 C539 1.393 . S
C543 C542 1.391 1_655 S
H544 C552 0.950 . S
H545 C557 0.950 . S
H546 C554 0.950 . S
H547 C556 0.950 . S
H548 C558 0.950 . S
H549 C560 0.950 . S
H550 C562 0.950 . S
H551 C563 0.950 . S
C552 H544 0.950 . S
C552 C553 1.386 . S
C552 C554 1.391 . S
C553 C552 1.386 . S
C553 C557 1.393 . S
C554 H546 0.950 . S
C554 C552 1.391 . S
C554 C555 1.400 . S
C555 C554 1.400 . S
C555 C556 1.398 . S
C555 C561 1.491 . S
C556 H547 0.950 . S
C556 C555 1.398 . S
C556 C557 1.391 . S
C557 H545 0.950 . S
C557 C553 1.393 . S
C557 C556 1.391 . S
C558 H548 0.950 . S
C558 C559 1.386 . S
C558 C560 1.391 . S
C559 C558 1.386 . S
C559 C563 1.393 . S
C560 H549 0.950 . S
C560 C558 1.391 . S
C560 C561 1.400 . S
C561 C555 1.491 . S
C561 C560 1.400 . S
C561 C562 1.398 . S
C562 H550 0.950 . S
C562 C561 1.398 . S
C562 C563 1.391 . S
C563 H551 0.950 . S
C563 C559 1.393 . S
C563 C562 1.391 . S
H564 C572 0.950 . S
H565 C577 0.950 . S
H566 C574 0.950 . S
H567 C576 0.950 . S
H568 C578 0.950 . S
H569 C580 0.950 . S
H570 C582 0.950 . S
H571 C583 0.950 . S
C572 H564 0.950 . S
C572 C573 1.386 . S
C572 C574 1.391 . S
C573 C572 1.386 . S
C573 C577 1.393 . S
C574 H566 0.950 . S
C574 C572 1.391 . S
C574 C575 1.400 . S
C575 C574 1.400 . S
C575 C576 1.398 . S
C575 C581 1.491 . S
C576 H567 0.950 . S
C576 C575 1.398 . S
C576 C577 1.391 . S
C577 H565 0.950 . S
C577 C573 1.393 . S
C577 C576 1.391 . S
C578 H568 0.950 . S
C578 C579 1.386 . S
C578 C580 1.391 . S
C579 C578 1.386 . S
C579 C583 1.393 . S
C580 H569 0.950 . S
C580 C578 1.391 . S
C580 C581 1.400 . S
C581 C575 1.491 . S
C581 C580 1.400 . S
C581 C582 1.398 . S
C582 H570 0.950 . S
C582 C581 1.398 . S
C582 C583 1.391 . S
C583 H571 0.950 . S
C583 C579 1.393 . S
C583 C582 1.391 . S
H584 C592 0.950 . S
H585 C597 0.950 . S
H586 C594 0.950 . S
H587 C596 0.950 . S
H588 C598 0.950 . S
H589 C600 0.950 . S
H590 C602 0.957 . S
H591 C603 0.950 . S
C592 H584 0.950 . S
C592 C593 1.386 . S
C592 C594 1.391 . S
C593 C592 1.386 . S
C593 C597 1.393 . S
C594 H586 0.950 . S
C594 C592 1.391 . S
C594 C595 1.400 . S
C595 C594 1.400 . S
C595 C596 1.398 . S
C595 C601 1.491 . S
C596 H587 0.950 . S
C596 C595 1.398 . S
C596 C597 1.391 . S
C597 H585 0.950 . S
C597 C593 1.393 . S
C597 C596 1.391 . S
C598 H588 0.950 . S
C598 C599 1.386 . S
C598 C600 1.391 . S
C599 C598 1.386 . S
C599 C603 1.393 . S
C600 H589 0.950 . S
C600 C598 1.391 . S
C600 C601 1.400 1_556 S
C601 C595 1.491 . S
C601 C600 1.400 1_554 S
C601 C602 1.398 1_554 S
C602 H590 0.957 . S
C602 C601 1.398 1_556 S
C602 C603 1.391 . S
C603 H591 0.950 . S
C603 C599 1.393 . S
C603 C602 1.391 . S
H604 C612 0.950 . S
H605 C617 0.950 . S
H606 C614 0.950 . S
H607 C616 0.950 . S
H608 C618 0.950 . S
H609 C620 0.950 . S
H610 C622 0.950 . S
H611 C623 0.950 . S
C612 H604 0.950 . S
C612 C613 1.386 . S
C612 C614 1.391 . S
C613 C612 1.386 . S
C613 C617 1.393 . S
C614 H606 0.950 . S
C614 C612 1.391 . S
C614 C615 1.400 . S
C615 C614 1.400 . S
C615 C616 1.398 . S
C615 C621 1.491 . S
C616 H607 0.950 . S
C616 C615 1.398 . S
C616 C617 1.391 . S
C617 H605 0.950 . S
C617 C613 1.393 . S
C617 C616 1.391 . S
C618 H608 0.950 . S
C618 C619 1.386 . S
C618 C620 1.391 . S
C619 C618 1.386 . S
C619 C623 1.393 . S
C620 H609 0.950 . S
C620 C618 1.391 . S
C620 C621 1.400 . S
C621 C615 1.491 . S
C621 C620 1.400 . S
C621 C622 1.398 . S
C622 H610 0.950 . S
C622 C621 1.398 . S
C622 C623 1.391 . S
C623 H611 0.950 . S
C623 C619 1.393 . S
C623 C622 1.391 . S
H624 C632 0.950 . S
H625 C637 0.950 . S
H626 C634 0.950 . S
H627 C636 0.950 . S
H628 C638 0.950 . S
H629 C640 0.950 . S
H630 C642 0.950 . S
H631 C643 0.950 . S
C632 H624 0.950 . S
C632 C633 1.386 . S
C632 C634 1.391 . S
C633 C632 1.386 . S
C633 C637 1.393 . S
C634 H626 0.950 . S
C634 C632 1.391 . S
C634 C635 1.400 . S
C635 C634 1.400 . S
C635 C636 1.398 . S
C635 C641 1.491 . S
C636 H627 0.950 . S
C636 C635 1.398 . S
C636 C637 1.391 . S
C637 H625 0.950 . S
C637 C633 1.393 . S
C637 C636 1.391 . S
C638 H628 0.950 . S
C638 C639 1.386 . S
C638 C640 1.391 . S
C639 C638 1.386 . S
C639 C643 1.393 . S
C640 H629 0.950 . S
C640 C638 1.391 . S
C640 C641 1.400 . S
C641 C635 1.491 . S
C641 C640 1.400 . S
C641 C642 1.398 . S
C642 H630 0.950 . S
C642 C641 1.398 . S
C642 C643 1.391 . S
C643 H631 0.950 . S
C643 C639 1.393 . S
C643 C642 1.391 . S
H644 C652 0.950 . S
H645 C657 0.950 . S
H646 C654 0.950 . S
H647 C656 0.950 . S
H648 C658 0.950 . S
H649 C660 0.950 . S
H650 C662 0.957 . S
H651 C663 0.950 . S
C652 H644 0.950 . S
C652 C653 1.386 . S
C652 C654 1.391 . S
C653 C652 1.386 . S
C653 C657 1.393 . S
C654 H646 0.950 . S
C654 C652 1.391 . S
C654 C655 1.400 . S
C655 C654 1.400 . S
C655 C656 1.398 . S
C655 C661 1.491 . S
C656 H647 0.950 . S
C656 C655 1.398 . S
C656 C657 1.391 . S
C657 H645 0.950 . S
C657 C653 1.393 . S
C657 C656 1.391 . S
C658 H648 0.950 . S
C658 C659 1.386 . S
C658 C660 1.391 . S
C659 C658 1.386 . S
C659 C663 1.393 . S
C660 H649 0.950 . S
C660 C658 1.391 . S
C660 C661 1.400 1_556 S
C661 C655 1.491 . S
C661 C660 1.400 1_554 S
C661 C662 1.398 1_554 S
C662 H650 0.957 . S
C662 C661 1.398 1_556 S
C662 C663 1.391 . S
C663 H651 0.950 . S
C663 C659 1.393 . S
C663 C662 1.391 . S
H664 C672 0.950 . S
H665 C677 0.950 . S
H666 C674 0.950 . S
H667 C676 0.950 . S
H668 C678 0.950 . S
H669 C680 0.950 . S
H670 C682 0.950 . S
H671 C683 0.950 . S
C672 H664 0.950 . S
C672 C673 1.386 . S
C672 C674 1.391 . S
C673 C672 1.386 . S
C673 C677 1.393 . S
C674 H666 0.950 . S
C674 C672 1.391 . S
C674 C675 1.400 . S
C675 C674 1.400 . S
C675 C676 1.398 . S
C675 C681 1.491 . S
C676 H667 0.950 . S
C676 C675 1.398 . S
C676 C677 1.391 . S
C677 H665 0.950 . S
C677 C673 1.393 . S
C677 C676 1.391 . S
C678 H668 0.950 . S
C678 C679 1.386 . S
C678 C680 1.391 . S
C679 C678 1.386 . S
C679 C683 1.393 . S
C680 H669 0.950 . S
C680 C678 1.391 . S
C680 C681 1.400 . S
C681 C675 1.491 . S
C681 C680 1.400 . S
C681 C682 1.398 . S
C682 H670 0.950 . S
C682 C681 1.398 . S
C682 C683 1.391 . S
C683 H671 0.950 . S
C683 C679 1.393 . S
C683 C682 1.391 . S
H684 C692 0.950 . S
H685 C697 0.950 . S
H686 C694 0.950 . S
H687 C696 0.950 . S
H688 C698 0.950 . S
H689 C700 0.950 . S
H690 C702 0.950 . S
H691 C703 0.950 . S
C692 H684 0.950 . S
C692 C693 1.386 . S
C692 C694 1.391 . S
C693 C692 1.386 . S
C693 C697 1.393 . S
C694 H686 0.950 . S
C694 C692 1.391 . S
C694 C695 1.400 . S
C695 C694 1.400 . S
C695 C696 1.398 . S
C695 C701 1.491 . S
C696 H687 0.950 . S
C696 C695 1.398 . S
C696 C697 1.391 . S
C697 H685 0.950 . S
C697 C693 1.393 . S
C697 C696 1.391 . S
C698 H688 0.950 . S
C698 C699 1.386 . S
C698 C700 1.391 . S
C699 C698 1.386 . S
C699 C703 1.393 . S
C700 H689 0.950 . S
C700 C698 1.391 . S
C700 C701 1.400 . S
C701 C695 1.491 . S
C701 C700 1.400 . S
C701 C702 1.398 . S
C702 H690 0.950 . S
C702 C701 1.398 . S
C702 C703 1.391 . S
C703 H691 0.950 . S
C703 C699 1.393 . S
C703 C702 1.391 . S
H704 C712 0.950 . S
H705 C717 0.950 . S
H706 C714 0.942 1_554 S
H707 C716 0.950 . S
H708 C718 0.950 . S
H709 C720 0.950 . S
H710 C722 0.950 . S
H711 C723 0.950 . S
C712 H704 0.950 . S
C712 C713 1.386 . S
C712 C714 1.391 . S
C713 C712 1.386 . S
C713 C717 1.393 . S
C714 H706 0.942 1_556 S
C714 C712 1.391 . S
C714 C715 1.400 1_556 S
C715 C714 1.400 1_554 S
C715 C716 1.398 1_554 S
C715 C721 1.491 . S
C716 H707 0.950 . S
C716 C715 1.398 1_556 S
C716 C717 1.391 . S
C717 H705 0.950 . S
C717 C713 1.393 . S
C717 C716 1.391 . S
C718 H708 0.950 . S
C718 C719 1.386 . S
C718 C720 1.391 . S
C719 C718 1.386 . S
C719 C723 1.393 . S
C720 H709 0.950 . S
C720 C718 1.391 . S
C720 C721 1.400 . S
C721 C715 1.491 . S
C721 C720 1.400 . S
C721 C722 1.398 . S
C722 H710 0.950 . S
C722 C721 1.398 . S
C722 C723 1.391 . S
C723 H711 0.950 . S
C723 C719 1.393 . S
C723 C722 1.391 . S
H724 C732 0.950 . S
H725 C737 0.950 . S
H726 C734 0.950 . S
H727 C736 0.950 . S
H728 C738 0.950 . S
H729 C740 0.950 . S
H730 C742 0.950 . S
H731 C743 0.950 . S
C732 H724 0.950 . S
C732 C733 1.386 . S
C732 C734 1.391 . S
C733 C732 1.386 . S
C733 C737 1.393 . S
C734 H726 0.950 . S
C734 C732 1.391 . S
C734 C735 1.400 . S
C735 C734 1.400 . S
C735 C736 1.398 . S
C735 C741 1.491 . S
C736 H727 0.950 . S
C736 C735 1.398 . S
C736 C737 1.391 . S
C737 H725 0.950 . S
C737 C733 1.393 . S
C737 C736 1.391 . S
C738 H728 0.950 . S
C738 C739 1.386 . S
C738 C740 1.391 . S
C739 C738 1.386 . S
C739 C743 1.393 . S
C740 H729 0.950 . S
C740 C738 1.391 . S
C740 C741 1.400 . S
C741 C735 1.491 . S
C741 C740 1.400 . S
C741 C742 1.398 . S
C742 H730 0.950 . S
C742 C741 1.398 . S
C742 C743 1.391 . S
C743 H731 0.950 . S
C743 C739 1.393 . S
C743 C742 1.391 . S
H744 C752 0.950 . S
H745 C757 0.950 . S
H746 C754 0.950 . S
H747 C756 0.950 . S
H748 C758 0.950 . S
H749 C760 0.950 . S
H750 C762 0.950 . S
H751 C763 0.950 . S
C752 H744 0.950 . S
C752 C753 1.386 . S
C752 C754 1.391 . S
C753 C752 1.386 . S
C753 C757 1.393 . S
C754 H746 0.950 . S
C754 C752 1.391 . S
C754 C755 1.400 . S
C755 C754 1.400 . S
C755 C756 1.398 . S
C755 C761 1.491 . S
C756 H747 0.950 . S
C756 C755 1.398 . S
C756 C757 1.391 . S
C757 H745 0.950 . S
C757 C753 1.393 . S
C757 C756 1.391 . S
C758 H748 0.950 . S
C758 C759 1.386 . S
C758 C760 1.391 . S
C759 C758 1.386 . S
C759 C763 1.393 . S
C760 H749 0.950 . S
C760 C758 1.391 . S
C760 C761 1.400 . S
C761 C755 1.491 . S
C761 C760 1.400 . S
C761 C762 1.398 . S
C762 H750 0.950 . S
C762 C761 1.398 . S
C762 C763 1.391 . S
C763 H751 0.950 . S
C763 C759 1.393 . S
C763 C762 1.391 . S
H764 C772 0.950 . S
H765 C777 0.950 . S
H766 C774 0.950 . S
H767 C776 0.950 . S
H768 C778 0.950 . S
H769 C780 0.950 . S
H770 C782 0.950 . S
H771 C783 0.950 . S
C772 H764 0.950 . S
C772 C773 1.386 . S
C772 C774 1.391 . S
C773 C772 1.386 . S
C773 C777 1.393 . S
C774 H766 0.950 . S
C774 C772 1.391 . S
C774 C775 1.400 . S
C775 C774 1.400 . S
C775 C776 1.398 . S
C775 C781 1.491 . S
C776 H767 0.950 . S
C776 C775 1.398 . S
C776 C777 1.391 . S
C777 H765 0.950 . S
C777 C773 1.393 . S
C777 C776 1.391 . S
C778 H768 0.950 . S
C778 C779 1.386 . S
C778 C780 1.391 . S
C779 C778 1.386 . S
C779 C783 1.393 . S
C780 H769 0.950 . S
C780 C778 1.391 . S
C780 C781 1.400 . S
C781 C775 1.491 . S
C781 C780 1.400 . S
C781 C782 1.398 . S
C782 H770 0.950 . S
C782 C781 1.398 . S
C782 C783 1.391 . S
C783 H771 0.950 . S
C783 C779 1.393 . S
C783 C782 1.391 . S
H784 C792 0.950 . S
H785 C797 0.950 . S
H786 C794 0.950 . S
H787 C796 0.950 . S
H788 C798 0.950 . S
H789 C800 0.950 . S
H790 C802 0.950 . S
H791 C803 0.950 . S
C792 H784 0.950 . S
C792 C793 1.386 . S
C792 C794 1.391 . S
C793 C792 1.386 . S
C793 C797 1.393 . S
C794 H786 0.950 . S
C794 C792 1.391 . S
C794 C795 1.400 . S
C795 C794 1.400 . S
C795 C796 1.398 . S
C795 C801 1.491 . S
C796 H787 0.950 . S
C796 C795 1.398 . S
C796 C797 1.391 . S
C797 H785 0.950 . S
C797 C793 1.393 . S
C797 C796 1.391 . S
C798 H788 0.950 . S
C798 C799 1.386 . S
C798 C800 1.391 . S
C799 C798 1.386 . S
C799 C803 1.393 . S
C800 H789 0.950 . S
C800 C798 1.391 . S
C800 C801 1.400 . S
C801 C795 1.491 . S
C801 C800 1.400 . S
C801 C802 1.398 . S
C802 H790 0.950 . S
C802 C801 1.398 . S
C802 C803 1.391 . S
C803 H791 0.950 . S
C803 C799 1.393 . S
C803 C802 1.391 . S
H804 C812 0.950 . S
H805 C817 0.950 . S
H806 C814 0.950 . S
H807 C816 0.950 . S
H808 C818 0.950 . S
H809 C820 0.950 . S
H810 C822 0.950 . S
H811 C823 0.950 . S
C812 H804 0.950 . S
C812 C813 1.386 . S
C812 C814 1.391 . S
C813 C812 1.386 . S
C813 C817 1.393 . S
C814 H806 0.950 . S
C814 C812 1.391 . S
C814 C815 1.400 . S
C815 C814 1.400 . S
C815 C816 1.398 . S
C815 C821 1.491 . S
C816 H807 0.950 . S
C816 C815 1.398 . S
C816 C817 1.391 . S
C817 H805 0.950 . S
C817 C813 1.393 . S
C817 C816 1.391 . S
C818 H808 0.950 . S
C818 C819 1.386 . S
C818 C820 1.391 . S
C819 C818 1.386 . S
C819 C823 1.393 . S
C820 H809 0.950 . S
C820 C818 1.391 . S
C820 C821 1.400 . S
C821 C815 1.491 . S
C821 C820 1.400 . S
C821 C822 1.398 . S
C822 H810 0.950 . S
C822 C821 1.398 . S
C822 C823 1.391 . S
C823 H811 0.950 . S
C823 C819 1.393 . S
C823 C822 1.391 . S
H824 C832 0.950 . S
H825 C837 0.950 . S
H826 C834 0.950 . S
H827 C836 0.950 . S
H828 C838 0.950 . S
H829 C840 0.950 . S
H830 C842 0.950 . S
H831 C843 0.950 . S
C832 H824 0.950 . S
C832 C833 1.386 . S
C832 C834 1.391 . S
C833 C832 1.386 . S
C833 C837 1.393 . S
C834 H826 0.950 . S
C834 C832 1.391 . S
C834 C835 1.400 . S
C835 C834 1.400 . S
C835 C836 1.398 . S
C835 C841 1.491 . S
C836 H827 0.950 . S
C836 C835 1.398 . S
C836 C837 1.391 . S
C837 H825 0.950 . S
C837 C833 1.393 . S
C837 C836 1.391 . S
C838 H828 0.950 . S
C838 C839 1.386 . S
C838 C840 1.391 . S
C839 C838 1.386 . S
C839 C843 1.393 . S
C840 H829 0.950 . S
C840 C838 1.391 . S
C840 C841 1.400 . S
C841 C835 1.491 . S
C841 C840 1.400 . S
C841 C842 1.398 . S
C842 H830 0.950 . S
C842 C841 1.398 . S
C842 C843 1.391 . S
C843 H831 0.950 . S
C843 C839 1.393 . S
C843 C842 1.391 . S
H844 C852 0.950 . S
H845 C857 0.950 . S
H846 C854 0.950 . S
H847 C856 0.950 . S
H848 C858 0.950 . S
H849 C860 0.950 1_554 S
H850 C862 0.950 . S
H851 C863 0.950 . S
C852 H844 0.950 . S
C852 C853 1.386 . S
C852 C854 1.391 . S
C853 C852 1.386 . S
C853 C857 1.393 . S
C854 H846 0.950 . S
C854 C852 1.391 . S
C854 C855 1.400 . S
C855 C854 1.400 . S
C855 C856 1.398 . S
C855 C861 1.491 . S
C856 H847 0.950 . S
C856 C855 1.398 . S
C856 C857 1.391 . S
C857 H845 0.950 . S
C857 C853 1.393 . S
C857 C856 1.391 . S
C858 H848 0.950 . S
C858 C859 1.386 . S
C858 C860 1.391 . S
C859 C858 1.386 . S
C859 C863 1.393 . S
C860 H849 0.950 1_556 S
C860 C858 1.391 . S
C860 C861 1.400 1_556 S
C861 C855 1.491 . S
C861 C860 1.400 1_554 S
C861 C862 1.398 1_554 S
C862 H850 0.950 . S
C862 C861 1.398 1_556 S
C862 C863 1.391 . S
C863 H851 0.950 . S
C863 C859 1.393 . S
C863 C862 1.391 . S
C233 C92 1.516 . S
C239 C8 1.514 . S
C253 C106 1.519 . S
C259 C22 1.517 . S
C273 C36 1.523 . S
C279 C64 1.524 . S
C293 C50 1.525 . S
C299 C78 1.525 . S
C313 C120 1.517 . S
C319 C204 1.515 . S
C333 C218 1.517 . S
C339 C134 1.519 . S
C353 C148 1.510 . S
C359 C176 1.510 . S
C373 C162 1.514 . S
C379 C190 1.512 . S
C393 C9 1.398 . S
C399 C149 1.398 . S
C413 C23 1.410 . S
C419 C163 1.411 . S
C433 C37 1.416 . S
C439 C121 1.417 . S
C453 C51 1.420 . S
C459 C135 1.421 . S
C473 C65 1.398 . S
C479 C205 1.397 . S
C493 C219 1.411 . S
C499 C79 1.412 . S
C513 C93 1.401 . S
C519 C177 1.402 . S
C533 C191 1.418 . S
C539 C107 1.419 . S
C553 C189 0.376 . S
C559 C7 0.414 . S
C573 C21 0.397 . S
C579 C203 0.401 . S
C593 C217 0.398 . S
C599 C35 0.399 . S
C613 C175 0.416 . S
C619 C49 0.370 . S
C633 C161 0.405 . S
C639 C63 0.392 . S
C653 C77 0.401 . S
C659 C119 0.396 . S
C673 C91 0.411 . S
C679 C133 0.383 . S
C693 C105 0.383 . S
C699 C147 0.410 . S
C713 C185 1.493 . S
C719 C3 1.494 . S
C733 C17 1.490 . S
C739 C199 1.495 . S
C753 C31 1.490 . S
C759 C213 1.495 . S
C773 C171 1.491 . S
C779 C45 1.495 . S
C793 C157 1.486 . S
C799 C59 1.495 . S
C813 C115 1.487 . S
C819 C73 1.478 . S
C833 C87 1.481 . S
C839 C129 1.492 . S
C853 C143 1.480 . S
C859 C101 1.491 . S
