# Generated by pormake.
# Topology lcy-e, (6)-cn, num edge types: 1
# Building blocks:
#     Node 0, Type 0, BuildingBlock: BETDAH_clean_sbu_0, # of connection points: 6
#     Node 1, Type 0, BuildingBlock: BETDAH_clean_sbu_0, # of connection points: 6
#     Node 2, Type 0, BuildingBlock: BETDAH_clean_sbu_0, # of connection points: 6
#     Node 3, Type 0, BuildingBlock: BETDAH_clean_sbu_0, # of connection points: 6
#     Node 4, Type 0, BuildingBlock: BETDAH_clean_sbu_0, # of connection points: 6
#     Node 5, Type 0, BuildingBlock: BETDAH_clean_sbu_0, # of connection points: 6
#     Node 6, Type 0, BuildingBlock: BETDAH_clean_sbu_0, # of connection points: 6
#     Node 7, Type 0, BuildingBlock: BETDAH_clean_sbu_0, # of connection points: 6
#     Node 8, Type 0, BuildingBlock: BETDAH_clean_sbu_0, # of connection points: 6
#     Node 9, Type 0, BuildingBlock: BETDAH_clean_sbu_0, # of connection points: 6
#     Node 10, Type 0, BuildingBlock: BETDAH_clean_sbu_0, # of connection points: 6
#     Node 11, Type 0, BuildingBlock: BETDAH_clean_sbu_0, # of connection points: 6
#     Edge 12, Type (0, 0), BuildingBlock: EZIPEK_clean_linker_0, # of connection points: 2
#     Edge 13, Type (0, 0), BuildingBlock: EZIPEK_clean_linker_0, # of connection points: 2
#     Edge 14, Type (0, 0), BuildingBlock: EZIPEK_clean_linker_0, # of connection points: 2
#     Edge 15, Type (0, 0), BuildingBlock: EZIPEK_clean_linker_0, # of connection points: 2
#     Edge 16, Type (0, 0), BuildingBlock: EZIPEK_clean_linker_0, # of connection points: 2
#     Edge 17, Type (0, 0), BuildingBlock: EZIPEK_clean_linker_0, # of connection points: 2
#     Edge 18, Type (0, 0), BuildingBlock: EZIPEK_clean_linker_0, # of connection points: 2
#     Edge 19, Type (0, 0), BuildingBlock: EZIPEK_clean_linker_0, # of connection points: 2
#     Edge 20, Type (0, 0), BuildingBlock: EZIPEK_clean_linker_0, # of connection points: 2
#     Edge 21, Type (0, 0), BuildingBlock: EZIPEK_clean_linker_0, # of connection points: 2
#     Edge 22, Type (0, 0), BuildingBlock: EZIPEK_clean_linker_0, # of connection points: 2
#     Edge 23, Type (0, 0), BuildingBlock: EZIPEK_clean_linker_0, # of connection points: 2
#     Edge 24, Type (0, 0), BuildingBlock: EZIPEK_clean_linker_0, # of connection points: 2
#     Edge 25, Type (0, 0), BuildingBlock: EZIPEK_clean_linker_0, # of connection points: 2
#     Edge 26, Type (0, 0), BuildingBlock: EZIPEK_clean_linker_0, # of connection points: 2
#     Edge 27, Type (0, 0), BuildingBlock: EZIPEK_clean_linker_0, # of connection points: 2
#     Edge 28, Type (0, 0), BuildingBlock: EZIPEK_clean_linker_0, # of connection points: 2
#     Edge 29, Type (0, 0), BuildingBlock: EZIPEK_clean_linker_0, # of connection points: 2
#     Edge 30, Type (0, 0), BuildingBlock: EZIPEK_clean_linker_0, # of connection points: 2
#     Edge 31, Type (0, 0), BuildingBlock: EZIPEK_clean_linker_0, # of connection points: 2
#     Edge 32, Type (0, 0), BuildingBlock: EZIPEK_clean_linker_0, # of connection points: 2
#     Edge 33, Type (0, 0), BuildingBlock: EZIPEK_clean_linker_0, # of connection points: 2
#     Edge 34, Type (0, 0), BuildingBlock: EZIPEK_clean_linker_0, # of connection points: 2
#     Edge 35, Type (0, 0), BuildingBlock: EZIPEK_clean_linker_0, # of connection points: 2
#     Edge 36, Type (0, 0), BuildingBlock: EZIPEK_clean_linker_0, # of connection points: 2
#     Edge 37, Type (0, 0), BuildingBlock: EZIPEK_clean_linker_0, # of connection points: 2
#     Edge 38, Type (0, 0), BuildingBlock: EZIPEK_clean_linker_0, # of connection points: 2
#     Edge 39, Type (0, 0), BuildingBlock: EZIPEK_clean_linker_0, # of connection points: 2
#     Edge 40, Type (0, 0), BuildingBlock: EZIPEK_clean_linker_0, # of connection points: 2
#     Edge 41, Type (0, 0), BuildingBlock: EZIPEK_clean_linker_0, # of connection points: 2
#     Edge 42, Type (0, 0), BuildingBlock: EZIPEK_clean_linker_0, # of connection points: 2
#     Edge 43, Type (0, 0), BuildingBlock: EZIPEK_clean_linker_0, # of connection points: 2
#     Edge 44, Type (0, 0), BuildingBlock: EZIPEK_clean_linker_0, # of connection points: 2
#     Edge 45, Type (0, 0), BuildingBlock: EZIPEK_clean_linker_0, # of connection points: 2
#     Edge 46, Type (0, 0), BuildingBlock: EZIPEK_clean_linker_0, # of connection points: 2
#     Edge 47, Type (0, 0), BuildingBlock: EZIPEK_clean_linker_0, # of connection points: 2
# Relax obj value: 0.196
# Max RMSD: 0.322
# Mean RMSD: 0.298
data_MOF--net-lcy-e--node1-BETDAH_clean_sbu_0--edge1-EZIPEK_clean_linker_0
_symmetry_space_group_name_H-M    P1
_symmetry_Int_Tables_number       1
_symmetry_cell_setting            triclinic
loop_
_symmetry_equiv_pos_as_xyz
'x, y, z'
_cell_length_a     34.922843
_cell_length_b     32.487656
_cell_length_c     34.847426
_cell_angle_alpha  89.510644
_cell_angle_beta   90.882657
_cell_angle_gamma 88.198345
loop_
_atom_site_label
_atom_site_type_symbol
_atom_site_fract_x
_atom_site_fract_y
_atom_site_fract_z
_atom_type_partial_charge
Ho0 Ho 0.14399 0.29037 0.49029 0.0
Ho1 Ho 0.17473 0.22711 0.54769 0.0
C2 C 0.21594 0.23198 0.46827 0.0
C3 C 0.12769 0.35366 0.44722 0.0
C4 C 0.13698 0.36274 0.4069 0.0
C5 C 0.14774 0.40255 0.39675 0.0
C6 C 0.16174 0.41064 0.36015 0.0
C7 C 0.16521 0.37904 0.33308 0.0
C8 C 0.1535 0.33937 0.34275 0.0
C9 C 0.13981 0.33117 0.37956 0.0
C10 C 0.11628 0.21374 0.47903 0.0
C11 C 0.10193 0.28132 0.57322 0.0
C12 C 0.18633 0.16419 0.59249 0.0
C13 C 0.16296 0.13162 0.60922 0.0
C14 C 0.13402 0.14024 0.63597 0.0
C15 C 0.11333 0.10816 0.65187 0.0
C16 C 0.12111 0.06728 0.64094 0.0
C17 C 0.14921 0.05887 0.61359 0.0
C18 C 0.17006 0.0907 0.59804 0.0
C19 C 0.21105 0.30126 0.54681 0.0
O20 O 0.20079 0.26964 0.46485 0.0
O21 O 0.20372 0.20625 0.49425 0.0
O22 O 0.10334 0.32456 0.45357 0.0
O23 O 0.15749 0.3512 0.47039 0.0
O24 O 0.12656 0.23861 0.45212 0.0
O25 O 0.12241 0.23079 0.51084 0.0
O26 O 0.12211 0.24672 0.57865 0.0
O27 O 0.107 0.30496 0.54235 0.0
O28 O 0.18171 0.20183 0.60526 0.0
O29 O 0.18992 0.16279 0.55521 0.0
O30 O 0.22787 0.26621 0.5557 0.0
O31 O 0.17623 0.2946 0.54339 0.0
H32 H 0.14636 0.42716 0.41753 0.0
H33 H 0.17045 0.44147 0.35309 0.0
H34 H 0.15584 0.31468 0.32215 0.0
H35 H 0.13236 0.3 0.38694 0.0
H36 H 0.12775 0.17152 0.64499 0.0
H37 H 0.09193 0.11504 0.67326 0.0
H38 H 0.15582 0.02744 0.60518 0.0
H39 H 0.19217 0.08324 0.57752 0.0
Ho40 Ho 0.99226 0.86576 0.75402 0.0
Ho41 Ho 0.05298 0.89793 0.80997 0.0
C42 C 0.05188 0.9378 0.72684 0.0
C43 C 0.93161 0.86691 0.70979 0.0
C44 C 0.91999 0.88272 0.67104 0.0
C45 C 0.93599 0.9182 0.65553 0.0
C46 C 0.92499 0.93284 0.61884 0.0
C47 C 0.89582 0.91385 0.59777 0.0
C48 C 0.87904 0.87894 0.61391 0.0
C49 C 0.89137 0.86324 0.64985 0.0
C50 C 0.05669 0.81944 0.75444 0.0
C51 C 1.00579 0.8215 0.83676 0.0
C52 C 0.1112 0.90727 0.8557 0.0
C53 C 0.14203 0.88192 0.87434 0.0
C54 C 0.15397 0.84357 0.85947 0.0
C55 C 0.18608 0.82223 0.87535 0.0
C56 C 0.20645 0.83901 0.90626 0.0
C57 C 0.19367 0.87662 0.92178 0.0
C58 C 0.16176 0.89792 0.9059 0.0
C59 C 0.98139 0.93406 0.8122 0.0
O60 O 1.0229 0.91382 0.71804 0.0
O61 O 0.06637 0.93887 0.76178 0.0
O62 O 0.95646 0.83581 0.71156 0.0
O63 O 0.93851 0.89479 0.73572 0.0
O64 O 1.02263 0.8054 0.74817 0.0
O65 O 0.05535 0.85859 0.75761 0.0
O66 O 0.04001 0.83718 0.83577 0.0
O67 O 0.97928 0.8333 0.81048 0.0
O68 O 0.07632 0.90276 0.86787 0.0
O69 O 0.11274 0.9104 0.81834 0.0
O70 O 1.01226 0.95377 0.82021 0.0
O71 O 0.99084 0.89731 0.80769 0.0
H72 H 0.95649 0.93498 0.6722 0.0
H73 H 0.93846 0.95977 0.60735 0.0
H74 H 0.85639 0.86369 0.59856 0.0
H75 H 0.87808 0.8362 0.66138 0.0
H76 H 0.13906 0.83068 0.83509 0.0
H77 H 0.19544 0.79313 0.86316 0.0
H78 H 0.20895 0.88991 0.94572 0.0
H79 H 0.15305 0.92746 0.91769 0.0
Ho80 Ho 0.38868 0.7803 0.05066 0.0
Ho81 Ho 0.41037 0.71992 0.98955 0.0
C82 C 0.45471 0.80604 0.9931 0.0
C83 C 0.37787 0.82348 0.1118 0.0
C84 C 0.39916 0.85804 0.1274 0.0
C85 C 0.43422 0.86845 0.11132 0.0
C86 C 0.45489 0.90094 0.12598 0.0
C87 C 0.44041 0.92403 0.15653 0.0
C88 C 0.40499 0.91426 0.17229 0.0
C89 C 0.38448 0.8813 0.15782 0.0
C90 C 0.34594 0.78802 0.98514 0.0
C91 C 0.35397 0.68743 0.05037 0.0
C92 C 0.42146 0.68745 0.92279 0.0
C93 C 0.40203 0.66775 0.89008 0.0
C94 C 0.36651 0.68294 0.87532 0.0
C95 C 0.35116 0.66689 0.84136 0.0
C96 C 0.37115 0.63558 0.82172 0.0
C97 C 0.40616 0.61993 0.8369 0.0
C98 C 0.42149 0.63595 0.87071 0.0
C99 C 0.4526 0.7116 0.05624 0.0
O100 O 0.439 0.81344 1.02666 0.0
O101 O 0.44563 0.77378 0.97268 0.0
O102 O 0.35989 0.83109 0.07929 0.0
O103 O 0.39639 0.78789 0.11191 0.0
O104 O 0.3581 0.81843 1.00514 0.0
O105 O 0.35661 0.7546 1.00129 0.0
O106 O 0.36348 0.6842 1.01406 0.0
O107 O 0.36178 0.72075 0.07062 0.0
O108 O 0.42612 0.66659 0.95496 0.0
O109 O 0.41284 0.72638 0.92823 0.0
O110 O 0.4432 0.68152 0.03402 0.0
O111 O 0.4411 0.74461 0.04009 0.0
H112 H 0.44584 0.85127 0.08763 0.0
H113 H 0.48227 0.90795 0.11369 0.0
H114 H 0.39364 0.93171 0.19614 0.0
H115 H 0.35735 0.87389 0.17041 0.0
H116 H 0.35099 0.70766 0.88959 0.0
H117 H 0.32386 0.67895 0.83032 0.0
H118 H 0.42175 0.59545 0.82235 0.0
H119 H 0.44904 0.62408 0.88131 0.0
Ho120 Ho 0.57324 0.12446 0.26048 0.0
Ho121 Ho 0.51054 0.09966 0.3161 0.0
C122 C 0.51617 0.05436 0.23419 0.0
C123 C 0.63164 0.13814 0.21794 0.0
C124 C 0.6423 0.12131 0.18019 0.0
C125 C 0.62939 0.08271 0.16853 0.0
C126 C 0.63896 0.06703 0.13256 0.0
C127 C 0.66145 0.08974 0.10755 0.0
C128 C 0.67387 0.12859 0.11884 0.0
C129 C 0.6643 0.1443 0.15492 0.0
C130 C 0.50466 0.16507 0.25135 0.0
C131 C 0.56831 0.16474 0.34571 0.0
C132 C 0.44452 0.09065 0.34758 0.0
C133 C 0.41241 0.11631 0.36298 0.0
C134 C 0.39253 0.14625 0.34012 0.0
C135 C 0.36026 0.16761 0.35425 0.0
C136 C 0.3474 0.15958 0.39146 0.0
C137 C 0.36757 0.13036 0.41452 0.0
C138 C 0.39967 0.10883 0.40036 0.0
C139 C 0.57878 0.05523 0.32421 0.0
O140 O 0.55025 0.06994 0.22891 0.0
O141 O 0.49467 0.06428 0.26362 0.0
O142 O 0.60091 0.16207 0.218 0.0
O143 O 0.63268 0.11205 0.24673 0.0
O144 O 0.52621 0.15311 0.22348 0.0
O145 O 0.52095 0.15592 0.28293 0.0
O146 O 0.53195 0.15499 0.34583 0.0
O147 O 0.59136 0.15291 0.31751 0.0
O148 O 0.47691 0.08907 0.36712 0.0
O149 O 0.4496 0.09234 0.31048 0.0
O150 O 0.55393 0.06145 0.35098 0.0
O151 O 0.56319 0.06906 0.29374 0.0
H152 H 0.61217 0.06449 0.18734 0.0
H153 H 0.62941 0.03686 0.12446 0.0
H154 H 0.69154 0.14636 0.1 0.0
H155 H 0.67424 0.17425 0.16319 0.0
H156 H 0.40152 0.15279 0.31115 0.0
H157 H 0.34518 0.19022 0.33612 0.0
H158 H 0.35815 0.12388 0.44336 0.0
H159 H 0.41423 0.08582 0.41847 0.0
Ho160 Ho 0.6604 0.23593 0.56832 0.0
Ho161 Ho 0.67519 0.31363 0.52097 0.0
C162 C 0.72018 0.299 0.60338 0.0
C163 C 0.65479 0.16536 0.60189 0.0
C164 C 0.66459 0.15332 0.64173 0.0
C165 C 0.67684 0.11277 0.65035 0.0
C166 C 0.68964 0.10215 0.68747 0.0
C167 C 0.69043 0.13199 0.71637 0.0
C168 C 0.67791 0.17252 0.70789 0.0
C169 C 0.66529 0.18318 0.67073 0.0
C170 C 0.61409 0.30219 0.584 0.0
C171 C 0.62558 0.24767 0.48145 0.0
C172 C 0.67614 0.38942 0.49733 0.0
C173 C 0.65122 0.42126 0.47814 0.0
C174 C 0.62715 0.41198 0.44689 0.0
C175 C 0.60681 0.44358 0.42699 0.0
C176 C 0.61013 0.48481 0.43811 0.0
C177 C 0.63284 0.49387 0.47032 0.0
C178 C 0.65323 0.46232 0.49014 0.0
C179 C 0.72117 0.24656 0.50477 0.0
O180 O 0.70559 0.26215 0.60668 0.0
O181 O 0.71061 0.32416 0.57445 0.0
O182 O 0.62569 0.19136 0.5971 0.0
O183 O 0.68404 0.17501 0.58118 0.0
O184 O 0.62863 0.27663 0.60934 0.0
O185 O 0.62464 0.2909 0.55108 0.0
O186 O 0.62756 0.28775 0.48626 0.0
O187 O 0.63995 0.22136 0.50777 0.0
O188 O 0.68783 0.35802 0.47674 0.0
O189 O 0.66705 0.37879 0.53225 0.0
O190 O 0.71364 0.27686 0.48101 0.0
O191 O 0.70876 0.25755 0.53693 0.0
H192 H 0.67712 0.08952 0.62823 0.0
H193 H 0.69917 0.0707 0.69365 0.0
H194 H 0.67834 0.19586 0.7299 0.0
H195 H 0.65665 0.21487 0.66449 0.0
H196 H 0.62492 0.38054 0.43719 0.0
H197 H 0.58957 0.43606 0.40206 0.0
H198 H 0.63595 0.52549 0.47915 0.0
H199 H 0.67155 0.47016 0.51419 0.0
Ho200 Ho 1.01083 0.40177 0.74165 0.0
Ho201 Ho 0.05848 0.35376 0.80155 0.0
C202 C 0.97493 0.3224 0.78689 0.0
C203 C 0.9662 0.41903 0.68385 0.0
C204 C 0.92679 0.40596 0.67612 0.0
C205 C 0.91564 0.39505 0.63882 0.0
C206 C 0.87991 0.37789 0.63208 0.0
C207 C 0.85491 0.37147 0.66257 0.0
C208 C 0.86568 0.38303 0.69977 0.0
C209 C 0.90142 0.4 0.70654 0.0
C210 C 1.01252 0.4384 0.81062 0.0
C211 C 0.09554 0.43008 0.75979 0.0
C212 C 0.09807 0.33338 0.86259 0.0
C213 C 0.1136 0.35697 0.89483 0.0
C214 C 0.09908 0.39684 0.90271 0.0
C215 C 0.11327 0.4186 0.93409 0.0
C216 C 0.14226 0.40081 0.95778 0.0
C217 C 0.15691 0.36114 0.94971 0.0
C218 C 0.1426 0.33932 0.91847 0.0
C219 C 0.06279 0.32478 0.72768 0.0
O220 O 0.97119 0.35047 0.75916 0.0
O221 O 1.00561 0.31898 0.80904 0.0
O222 O 0.97078 0.44412 0.71268 0.0
O223 O 0.99233 0.38928 0.68347 0.0
O224 O 1.01115 0.45775 0.77782 0.0
O225 O 1.01009 0.39983 0.80528 0.0
O226 O 0.09112 0.41163 0.79325 0.0
O227 O 0.06938 0.42747 0.73185 0.0
O228 O 0.1135 0.33937 0.82918 0.0
O229 O 0.06075 0.33265 0.86042 0.0
O230 O 0.06668 0.30137 0.75807 0.0
O231 O 0.06069 0.36109 0.73907 0.0
H232 H 0.93497 0.39879 0.61511 0.0
H233 H 0.872 0.36896 0.60322 0.0
H234 H 0.84677 0.37804 0.7236 0.0
H235 H 0.90961 0.40747 0.73571 0.0
H236 H 0.07672 0.41103 0.88467 0.0
H237 H 0.10189 0.44931 0.93977 0.0
H238 H 0.17947 0.34715 0.9676 0.0
H239 H 0.1541 0.30865 0.91281 0.0
Ho240 Ho 0.90886 0.77821 0.06729 0.0
Ho241 Ho 0.87958 0.71318 1.00498 0.0
C242 C 0.83602 0.718 0.08404 0.0
C243 C 0.90352 0.84215 0.11078 0.0
C244 C 0.89441 0.85049 0.15131 0.0
C245 C 0.87616 0.82098 0.17382 0.0
C246 C 0.86083 0.8317 0.20946 0.0
C247 C 0.86369 0.87202 0.22318 0.0
C248 C 0.88332 0.90098 0.20144 0.0
C249 C 0.89843 0.89033 0.16572 0.0
C250 C 0.94346 0.7035 0.0808 0.0
C251 C 0.95091 0.76626 0.984 0.0
C252 C 0.87339 0.65083 0.95973 0.0
C253 C 0.89833 0.61783 0.94327 0.0
C254 C 0.92234 0.59213 0.96666 0.0
C255 C 0.94476 0.56038 0.95056 0.0
C256 C 0.94303 0.55321 0.91092 0.0
C257 C 0.91894 0.57861 0.88759 0.0
C258 C 0.89685 0.61062 0.90361 0.0
C259 C 0.84654 0.79204 1.00405 0.0
O260 O 0.8561 0.75042 0.09391 0.0
O261 O 0.84238 0.69661 0.05282 0.0
O262 O 0.93654 0.82358 0.10308 0.0
O263 O 0.87481 0.82793 0.09078 0.0
O264 O 0.95009 0.73634 0.10052 0.0
O265 O 0.9186 0.71295 0.05512 0.0
O266 O 0.93665 0.72927 0.98276 0.0
O267 O 0.9438 0.792 1.01302 0.0
O268 O 0.87768 0.68854 0.94716 0.0
O269 O 0.86791 0.64908 0.9968 0.0
O270 O 0.8297 0.7594 0.99136 0.0
O271 O 0.88014 0.78026 1.0119 0.0
H272 H 0.87234 0.79016 0.1631 0.0
H273 H 0.84581 0.80895 0.22583 0.0
H274 H 0.8858 0.93223 0.21157 0.0
H275 H 0.91187 0.9137 0.14865 0.0
H276 H 0.92376 0.59638 0.99741 0.0
H277 H 0.96339 0.54133 0.96899 0.0
H278 H 0.91744 0.57376 0.85689 0.0
H279 H 0.87838 0.62967 0.88501 0.0
Ho280 Ho 0.54379 0.62034 0.25098 0.0
Ho281 Ho 0.48431 0.66428 0.298 0.0
C282 C 0.56321 0.70746 0.29569 0.0
C283 C 0.59545 0.60701 0.1996 0.0
C284 C 0.63339 0.62316 0.18999 0.0
C285 C 0.63909 0.66562 0.18676 0.0
C286 C 0.67286 0.68013 0.17113 0.0
C287 C 0.70113 0.65278 0.15609 0.0
C288 C 0.69791 0.61075 0.16671 0.0
C289 C 0.66395 0.59601 0.18184 0.0
C290 C 0.54166 0.58976 0.32245 0.0
C291 C 0.46211 0.57901 0.26354 0.0
C292 C 0.43499 0.68201 0.35045 0.0
C293 C 0.4187 0.65844 0.38256 0.0
C294 C 0.40369 0.61931 0.37743 0.0
C295 C 0.38912 0.59751 0.40862 0.0
C296 C 0.38669 0.61519 0.44566 0.0
C297 C 0.40685 0.65204 0.45079 0.0
C298 C 0.4213 0.67387 0.41977 0.0
C299 C 0.48525 0.68584 0.22061 0.0
O300 O 0.57442 0.67783 0.27191 0.0
O301 O 0.52911 0.70869 0.31076 0.0
O302 O 0.59295 0.58425 0.23059 0.0
O303 O 0.56638 0.63294 0.1951 0.0
O304 O 0.54765 0.56801 0.29186 0.0
O305 O 0.53806 0.62794 0.31359 0.0
O306 O 0.46146 0.60098 0.29494 0.0
O307 O 0.49081 0.58216 0.23928 0.0
O308 O 0.47143 0.68925 0.35382 0.0
O309 O 0.42516 0.67188 0.31551 0.0
O310 O 0.47521 0.71075 0.24803 0.0
O311 O 0.49006 0.65126 0.23625 0.0
H312 H 0.61706 0.68776 0.19534 0.0
H313 H 0.67604 0.7131 0.17031 0.0
H314 H 0.72103 0.58839 0.1638 0.0
H315 H 0.66141 0.56321 0.18659 0.0
H316 H 0.40391 0.60502 0.34946 0.0
H317 H 0.38123 0.56639 0.40291 0.0
H318 H 0.41237 0.66446 0.47889 0.0
H319 H 0.43519 0.7027 0.42504 0.0
Ho320 Ho 0.23893 0.52622 0.16406 0.0
Ho321 Ho 0.29343 0.45667 0.14197 0.0
C322 C 0.21985 0.46851 0.08899 0.0
C323 C 0.19214 0.58978 0.16391 0.0
C324 C 0.15304 0.59844 0.14855 0.0
C325 C 0.13098 0.56695 0.133 0.0
C326 C 0.09376 0.57567 0.1188 0.0
C327 C 0.07812 0.616 0.12003 0.0
C328 C 0.10028 0.6474 0.13541 0.0
C329 C 0.13746 0.63871 0.14946 0.0
C330 C 0.23251 0.45844 0.20788 0.0
C331 C 0.31809 0.51431 0.21154 0.0
C332 C 0.33643 0.39031 0.1392 0.0
C333 C 0.35912 0.36077 0.16357 0.0
C334 C 0.3425 0.33858 0.19361 0.0
C335 C 0.36363 0.30743 0.21324 0.0
C336 C 0.40137 0.29749 0.20259 0.0
C337 C 0.41829 0.32034 0.17341 0.0
C338 C 0.39735 0.3517 0.15409 0.0
C339 C 0.30191 0.53014 0.10483 0.0
O340 O 0.21098 0.50138 0.10973 0.0
O341 O 0.24986 0.44442 0.09694 0.0
O342 O 0.19521 0.56316 0.19222 0.0
O343 O 0.21884 0.58408 0.13842 0.0
O344 O 0.22891 0.49588 0.22002 0.0
O345 O 0.2373 0.45835 0.17173 0.0
O346 O 0.31807 0.47625 0.19868 0.0
O347 O 0.29306 0.54221 0.19679 0.0
O348 O 0.34957 0.4273 0.1348 0.0
O349 O 0.29915 0.39039 0.14224 0.0
O350 O 0.30922 0.49464 0.08932 0.0
O351 O 0.29494 0.52421 0.13936 0.0
H352 H 0.14242 0.53563 0.13216 0.0
H353 H 0.07701 0.55099 0.1073 0.0
H354 H 0.08862 0.67864 0.13681 0.0
H355 H 0.15396 0.66341 0.1613 0.0
H356 H 0.31291 0.34436 0.2012 0.0
H357 H 0.35021 0.29019 0.23583 0.0
H358 H 0.44748 0.31323 0.165 0.0
H359 H 0.4107 0.36806 0.13088 0.0
Ho360 Ho 0.74202 0.97468 0.88808 0.0
Ho361 Ho 0.80007 0.03449 0.9175 0.0
C362 C 0.72536 0.02939 0.96609 0.0
C363 C 0.68982 0.92095 0.87678 0.0
C364 C 0.65408 0.90961 0.89554 0.0
C365 C 0.64762 0.9184 0.93438 0.0
C366 C 0.61401 0.90604 0.95192 0.0
C367 C 0.58626 0.88528 0.93068 0.0
C368 C 0.59214 0.87775 0.89159 0.0
C369 C 0.62586 0.88979 0.87416 0.0
C370 C 0.74625 0.04391 0.84569 0.0
C371 C 0.82492 0.97422 0.85008 0.0
C372 C 0.84527 0.09619 0.92114 0.0
C373 C 0.85998 0.12755 0.89424 0.0
C374 C 0.83488 0.15443 0.8732 0.0
C375 C 0.84914 0.18634 0.85079 0.0
C376 C 0.88872 0.19207 0.84902 0.0
C377 C 0.91388 0.16463 0.86898 0.0
C378 C 0.89964 0.13267 0.89141 0.0
C379 C 0.80073 0.95949 0.95451 0.0
O380 O 0.71518 0.99884 0.94341 0.0
O381 O 0.75613 0.05055 0.96026 0.0
O382 O 0.72179 0.91289 0.8958 0.0
O383 O 0.68924 0.95714 0.86022 0.0
O384 O 0.7422 1.00743 0.83191 0.0
O385 O 0.74705 0.0423 0.88208 0.0
O386 O 0.82623 1.01217 0.8629 0.0
O387 O 0.7957 0.95072 0.85863 0.0
O388 O 0.85781 0.05805 0.91747 0.0
O389 O 0.80867 0.09876 0.92838 0.0
O390 O 0.81193 0.99343 0.97014 0.0
O391 O 0.79554 0.96685 0.91957 0.0
H392 H 0.66872 0.93418 0.95129 0.0
H393 H 0.61004 0.91176 0.9822 0.0
H394 H 0.57118 0.86135 0.87492 0.0
H395 H 0.6302 0.88303 0.84412 0.0
H396 H 0.80414 0.15143 0.87465 0.0
H397 H 0.82928 0.20729 0.83571 0.0
H398 H 0.94452 0.16874 0.86814 0.0
H399 H 0.9196 0.11263 0.90739 0.0
Ho400 Ho 0.74693 0.98753 0.42546 0.0
Ho401 Ho 0.81583 0.04119 0.39211 0.0
C402 C 0.80244 0.95398 0.35469 0.0
C403 C 0.68163 0.95216 0.41973 0.0
C404 C 0.66879 0.91185 0.40554 0.0
C405 C 0.69375 0.88569 0.38492 0.0
C406 C 0.67999 0.85114 0.36587 0.0
C407 C 0.64106 0.84175 0.36749 0.0
C408 C 0.6163 0.86716 0.38901 0.0
C409 C 0.63001 0.90204 0.40767 0.0
C410 C 0.81335 0.96667 0.46326 0.0
C411 C 0.76665 0.07786 0.46136 0.0
C412 C 0.87941 0.07829 0.38152 0.0
C413 C 0.9119 0.09692 0.40207 0.0
C414 C 0.92967 0.07794 0.43451 0.0
C415 C 0.96308 0.09398 0.45064 0.0
C416 C 0.97923 0.12908 0.43451 0.0
C417 C 0.96098 0.14847 0.40273 0.0
C418 C 0.92771 0.1325 0.38664 0.0
C419 C 0.74366 0.05002 0.35878 0.0
O420 O 0.77185 0.94944 0.3764 0.0
O421 O 0.82504 0.98542 0.35744 0.0
O422 O 0.70155 0.95304 0.45206 0.0
O423 O 0.69574 0.97552 0.39308 0.0
O424 O 0.78026 0.95158 0.47104 0.0
O425 O 0.80866 0.99235 0.4357 0.0
O426 O 0.80121 0.07357 0.44675 0.0
O427 O 0.73954 0.04992 0.45582 0.0
O428 O 0.84596 0.09781 0.3818 0.0
O429 O 0.87687 0.03823 0.38442 0.0
O430 O 0.77505 0.0564 0.3401 0.0
O431 O 0.75362 0.04312 0.39277 0.0
H432 H 0.72369 0.89259 0.38252 0.0
H433 H 0.6996 0.83198 0.3495 0.0
H434 H 0.58617 0.86049 0.39062 0.0
H435 H 0.61008 0.92205 0.4228 0.0
H436 H 0.91819 0.05035 0.44692 0.0
H437 H 0.97651 0.07887 0.47543 0.0
H438 H 0.97279 0.1758 0.3901 0.0
H439 H 0.91473 0.14748 0.36153 0.0
Ho440 Ho 0.31274 0.47637 0.65359 0.0
Ho441 Ho 0.25351 0.54214 0.62811 0.0
C442 C 0.33026 0.53416 0.58187 0.0
C443 C 0.35494 0.4108 0.66567 0.0
C444 C 0.39392 0.39869 0.65317 0.0
C445 C 0.40623 0.40871 0.61604 0.0
C446 C 0.44248 0.39563 0.60371 0.0
C447 C 0.46726 0.37287 0.62845 0.0
C448 C 0.45552 0.36381 0.66589 0.0
C449 C 0.41903 0.37655 0.67813 0.0
C450 C 0.32603 0.55279 0.68232 0.0
C451 C 0.23527 0.49098 0.70394 0.0
C452 C 0.20786 0.6056 0.61929 0.0
C453 C 0.19103 0.63746 0.644 0.0
C454 C 0.20712 0.64577 0.68024 0.0
C455 C 0.19143 0.67738 0.7027 0.0
C456 C 0.15932 0.7006 0.68923 0.0
C457 C 0.1434 0.69219 0.65303 0.0
C458 C 0.15918 0.66084 0.63055 0.0
C459 C 0.24914 0.46739 0.59257 0.0
O460 O 0.334 0.49604 0.59527 0.0
O461 O 0.30524 0.5603 0.59669 0.0
O462 O 0.35235 0.44074 0.6905 0.0
O463 O 0.32889 0.41419 0.63828 0.0
O464 O 0.35217 0.52699 0.67028 0.0
O465 O 0.29407 0.53655 0.6774 0.0
O466 O 0.22887 0.52544 0.68428 0.0
O467 O 0.26387 0.46485 0.69477 0.0
O468 O 0.19571 0.56819 0.62398 0.0
O469 O 0.24503 0.60672 0.61532 0.0
O470 O 0.24066 0.50228 0.57565 0.0
O471 O 0.25675 0.4749 0.62675 0.0
H472 H 0.3876 0.42612 0.59628 0.0
H473 H 0.45104 0.40276 0.57471 0.0
H474 H 0.47427 0.34605 0.68527 0.0
H475 H 0.41022 0.36865 0.70687 0.0
H476 H 0.23182 0.62795 0.691 0.0
H477 H 0.20395 0.68347 0.73063 0.0
H478 H 0.11856 0.70979 0.6423 0.0
H479 H 0.14658 0.65491 0.60261 0.0
C480 C 0.21672 0.35631 0.59642 0.0
C481 C 0.22463 0.34248 0.55878 0.0
C482 C 0.24901 0.41092 0.54265 0.0
C483 C 0.23802 0.42562 0.57921 0.0
N484 N 0.20106 0.41484 0.63631 0.0
N485 N 0.24224 0.35899 0.49386 0.0
C486 C 0.21917 0.39893 0.60497 0.0
C487 C 0.23913 0.37045 0.53128 0.0
N488 N 0.20625 0.3288 0.62396 0.0
N489 N 0.2698 0.43512 0.51903 0.0
H490 H 0.23603 0.32968 0.48453 0.0
H491 H 0.24797 0.3794 0.47162 0.0
H492 H 0.27621 0.46538 0.5255 0.0
H493 H 0.2829 0.42432 0.49426 0.0
H494 H 0.20407 0.33615 0.6529 0.0
H495 H 0.20311 0.29754 0.61863 0.0
H496 H 0.18581 0.39734 0.65557 0.0
H497 H 0.19706 0.44638 0.64057 0.0
C498 C 0.87976 0.98113 0.80495 0.0
C499 C 0.86124 0.95732 0.83329 0.0
C500 C 0.92302 0.9238 0.85102 0.0
C501 C 0.94136 0.94646 0.82194 0.0
N502 N 0.93655 0.99157 0.76686 0.0
N503 N 0.86403 0.89683 0.87451 0.0
C504 C 0.91954 0.97377 0.79763 0.0
C505 C 0.8824 0.92561 0.85341 0.0
N506 N 0.85912 1.01112 0.7853 0.0
N507 N 0.94471 0.90159 0.87742 0.0
H508 H 0.83443 0.89563 0.87627 0.0
H509 H 0.87793 0.87093 0.88667 0.0
H510 H 0.97459 0.90134 0.8779 0.0
H511 H 0.9334 0.88688 0.90115 0.0
H512 H 0.87139 0.03324 0.76799 0.0
H513 H 0.82939 0.01443 0.78734 0.0
H514 H 0.92151 1.00806 0.74544 0.0
H515 H 0.96577 0.98778 0.76153 0.0
C516 C 0.3038 0.63347 0.05151 0.0
C517 C 0.33676 0.65077 0.06866 0.0
C518 C 0.34835 0.58725 0.10657 0.0
C519 C 0.31482 0.57051 0.09034 0.0
N520 N 0.25623 0.5806 0.05364 0.0
N521 N 0.38491 0.64764 0.1195 0.0
C522 C 0.29128 0.59442 0.06451 0.0
C523 C 0.35719 0.62888 0.09851 0.0
N524 N 0.2844 0.65448 1.02273 0.0
N525 N 0.37275 0.56274 0.12857 0.0
H526 H 0.39346 0.67748 0.11439 0.0
H527 H 0.39694 0.63501 0.14465 0.0
H528 H 0.36774 0.53191 0.13466 0.0
H529 H 0.39972 0.57163 0.13783 0.0
H530 H 0.26343 0.64154 1.0055 0.0
H531 H 0.29034 0.68471 1.01507 0.0
H532 H 0.23581 0.59834 0.0383 0.0
H533 H 0.2462 0.55233 0.06265 0.0
C534 C 0.64782 0.03744 0.30164 0.0
C535 C 0.6212 0.04663 0.33143 0.0
C536 C 0.67416 0.06476 0.37311 0.0
C537 C 0.70198 0.05297 0.34559 0.0
N538 N 0.71418 0.02161 0.28426 0.0
N539 N 0.61502 0.04513 0.40052 0.0
C540 C 0.68855 0.03761 0.30974 0.0
C541 C 0.63607 0.05275 0.36871 0.0
N542 N 0.63439 0.02684 0.26625 0.0
N543 N 0.68341 0.08909 0.40312 0.0
H544 H 0.58947 0.02945 0.39931 0.0
H545 H 0.62628 0.04791 0.42826 0.0
H546 H 0.70979 0.10242 0.40474 0.0
H547 H 0.6632 0.10044 0.42245 0.0
H548 H 0.65149 0.02448 0.24212 0.0
H549 H 0.60567 0.02118 0.2609 0.0
H550 H 0.70633 1.00609 0.25951 0.0
H551 H 0.74367 0.02135 0.28907 0.0
C552 C 0.74874 0.17449 0.52235 0.0
C553 C 0.73457 0.20343 0.49401 0.0
C554 C 0.75183 0.1525 0.44536 0.0
C555 C 0.75591 0.12074 0.47359 0.0
N556 N 0.75688 0.10223 0.54062 0.0
N557 N 0.71359 0.21175 0.42724 0.0
C558 C 0.75347 0.13184 0.51271 0.0
C559 C 0.7337 0.19032 0.45513 0.0
N560 N 0.76064 0.18784 0.5574 0.0
N561 N 0.76478 0.14724 0.40888 0.0
H562 H 0.69548 0.23665 0.43271 0.0
H563 H 0.71031 0.2007 0.39938 0.0
H564 H 0.77654 0.11971 0.39885 0.0
H565 H 0.76562 0.17157 0.38919 0.0
H566 H 0.77367 0.16836 0.57799 0.0
H567 H 0.76202 0.21899 0.56379 0.0
H568 H 0.75207 0.10843 0.56949 0.0
H569 H 0.76174 0.07116 0.53433 0.0
C570 C 0.13639 0.49042 0.74435 0.0
C571 C 0.13348 0.44773 0.75202 0.0
C572 C 0.20353 0.43864 0.74629 0.0
C573 C 0.20494 0.47922 0.7318 0.0
N574 N 0.1787 0.54795 0.73974 0.0
N575 N 0.16465 0.38028 0.75995 0.0
C576 C 0.17308 0.50661 0.73766 0.0
C577 C 0.16727 0.42169 0.75372 0.0
N578 N 0.10415 0.51534 0.7425 0.0
N579 N 0.23686 0.41756 0.75561 0.0
H580 H 0.1389 0.36598 0.76471 0.0
H581 H 0.18753 0.35933 0.75676 0.0
H582 H 0.26332 0.43156 0.75497 0.0
H583 H 0.23799 0.3889 0.76924 0.0
H584 H 0.1041 0.54573 0.73273 0.0
H585 H 0.0769 0.50486 0.7483 0.0
H586 H 0.15731 0.56955 0.74669 0.0
H587 H 0.20613 0.55987 0.73971 0.0
C588 C 0.78293 0.88878 0.97933 0.0
C589 C 0.81137 0.91728 0.96929 0.0
C590 C 0.86088 0.86837 0.99271 0.0
C591 C 0.83355 0.83675 0.99712 0.0
N592 N 0.76694 0.81929 0.99845 0.0
N593 N 0.87798 0.93001 0.95869 0.0
C594 C 0.79403 0.84771 0.99138 0.0
C595 C 0.85042 0.90565 0.9734 0.0
N596 N 0.74529 0.9014 0.97856 0.0
N597 N 0.89595 0.86515 1.0101 0.0
H598 H 0.87181 0.95752 0.94391 0.0
H599 H 0.90677 0.92068 0.95766 0.0
H600 H 0.90189 0.84363 0.03134 0.0
H601 H 0.91585 0.88839 1.00965 0.0
H602 H 0.72316 0.88435 0.98949 0.0
H603 H 0.73636 0.93045 0.96872 0.0
H604 H 0.73847 0.82262 0.98937 0.0
H605 H 0.77293 0.79204 1.01366 0.0
C606 C 0.39187 0.58683 0.24753 0.0
C607 C 0.42512 0.56046 0.25167 0.0
C608 C 0.38443 0.50064 0.24273 0.0
C609 C 0.35217 0.52776 0.23502 0.0
N610 N 0.32302 0.59281 0.25221 0.0
N611 N 0.45367 0.4922 0.25178 0.0
C612 C 0.3552 0.56977 0.24403 0.0
C613 C 0.42157 0.51723 0.24892 0.0
N614 N 0.39524 0.62846 0.24463 0.0
N615 N 0.37884 0.45958 0.24816 0.0
H616 H 0.48079 0.50348 0.25753 0.0
H617 H 0.45401 0.46083 0.24594 0.0
H618 H 0.35155 0.44786 0.25077 0.0
H619 H 0.40047 0.43816 0.25571 0.0
H620 H 0.37235 0.64847 0.23721 0.0
H621 H 0.42144 0.64263 0.24544 0.0
H622 H 0.32381 0.62291 0.26224 0.0
H623 H 0.29625 0.57973 0.25466 0.0
C624 C 0.57667 0.1717 0.41712 0.0
C625 C 0.58328 0.18738 0.37965 0.0
C626 C 0.61585 0.24612 0.40831 0.0
C627 C 0.60739 0.23096 0.44585 0.0
N628 N 0.56798 0.18743 0.484 0.0
N629 N 0.60264 0.2437 0.33972 0.0
C630 C 0.58428 0.19619 0.44958 0.0
C631 C 0.60095 0.22585 0.37528 0.0
N632 N 0.56456 0.13252 0.42214 0.0
N633 N 0.63946 0.27852 0.40364 0.0
H634 H 0.59377 0.22919 0.31476 0.0
H635 H 0.6101 0.27412 0.33518 0.0
H636 H 0.65145 0.29482 0.42608 0.0
H637 H 0.6504 0.2871 0.37723 0.0
H638 H 0.56373 0.11802 0.4489 0.0
H639 H 0.55925 0.11296 0.39946 0.0
H640 H 0.54776 0.16481 0.48739 0.0
H641 H 0.57095 0.20608 0.50796 0.0
C642 C 0.06262 0.26557 0.63157 0.0
C643 C 0.07832 0.29547 0.60665 0.0
C644 C 0.08487 0.34195 0.66045 0.0
C645 C 0.06879 0.31301 0.68621 0.0
N646 N 0.03503 0.24959 0.69337 0.0
N647 N 0.08502 0.36817 0.59543 0.0
C648 C 0.05536 0.27543 0.67091 0.0
C649 C 0.08258 0.33577 0.62033 0.0
N650 N 0.05491 0.2276 0.61739 0.0
N651 N 0.10589 0.37343 0.67402 0.0
H652 H 0.07986 0.36536 0.56608 0.0
H653 H 0.08602 0.39858 0.60463 0.0
H654 H 0.11539 0.37414 0.70231 0.0
H655 H 0.11903 0.39452 0.65625 0.0
H656 H 0.04865 0.20231 0.63448 0.0
H657 H 0.05578 0.22142 0.58805 0.0
H658 H 1.02112 0.22405 0.6829 0.0
H659 H 0.0296 0.25513 0.72214 0.0
C660 C 0.95752 0.78451 0.87628 0.0
C661 C 0.99525 0.79793 0.87245 0.0
C662 C 1.00556 0.78906 0.94261 0.0
C663 C 0.96622 0.78117 0.94667 0.0
N664 N 0.9032 0.77776 0.91697 0.0
N665 N 0.05939 0.79169 0.89969 0.0
C666 C 0.94188 0.7805 0.91335 0.0
C667 C 1.02071 0.7945 0.90502 0.0
N668 N 0.93772 0.77185 0.84462 0.0
N669 N 0.02838 0.79158 0.97464 0.0
H670 H 0.07131 0.78767 0.87273 0.0
H671 H 0.07945 0.78677 0.92176 0.0
H672 H 1.01828 0.78647 1.00224 0.0
H673 H 0.0563 0.80189 0.97423 0.0
H674 H 0.91119 0.75817 0.84594 0.0
H675 H 0.95047 0.76907 0.81784 0.0
H676 H 0.88386 0.78251 0.89418 0.0
H677 H 0.8901 0.77483 0.94324 0.0
C678 C 0.48086 0.66001 0.151 0.0
C679 C 0.48326 0.69368 0.17718 0.0
C680 C 0.47767 0.7406 0.12044 0.0
C681 C 0.46991 0.70669 0.09623 0.0
N682 N 0.48747 0.63547 0.08642 0.0
N683 N 0.48709 0.76751 0.18457 0.0
C684 C 0.47792 0.66677 0.11086 0.0
C685 C 0.48264 0.73443 0.16119 0.0
N686 N 0.4817 0.62057 0.16387 0.0
N687 N 0.48534 0.77767 0.10407 0.0
H688 H 0.49775 0.76505 0.21254 0.0
H689 H 0.47987 0.79766 0.17619 0.0
H690 H 0.48754 0.78151 0.07456 0.0
H691 H 0.49524 0.80271 0.1193 0.0
H692 H 0.46805 0.59717 0.14915 0.0
H693 H 0.50361 0.61069 0.18215 0.0
H694 H 0.49596 0.60594 0.09571 0.0
H695 H 0.49326 0.64048 0.05755 0.0
C696 C 0.22089 0.38168 0.28818 0.0
C697 C 0.18112 0.38838 0.29464 0.0
C698 C 0.17422 0.42621 0.23352 0.0
C699 C 0.2147 0.42526 0.23034 0.0
N700 N 0.2767 0.39951 0.2512 0.0
N701 N 0.11872 0.41238 0.27251 0.0
C702 C 0.23798 0.40134 0.25626 0.0
C703 C 0.15729 0.4086 0.26653 0.0
N704 N 0.24218 0.35707 0.31298 0.0
N705 N 0.15233 0.44508 0.20525 0.0
H706 H 0.10549 0.39814 0.29553 0.0
H707 H 0.09966 0.42995 0.25546 0.0
H708 H 0.16439 0.45898 0.18147 0.0
H709 H 0.12258 0.44516 0.20384 0.0
H710 H 0.27067 0.34823 0.30878 0.0
H711 H 0.23059 0.34314 0.33704 0.0
H712 H 0.29648 0.38682 0.2709 0.0
H713 H 0.28915 0.4114 0.22665 0.0
C714 C 0.86939 0.97191 0.55389 0.0
C715 C 0.88252 0.93021 0.559 0.0
C716 C 0.86021 0.91562 0.49333 0.0
C717 C 0.84769 0.95733 0.48838 0.0
N718 N 0.85612 0.02698 0.50781 0.0
N719 N 0.90214 0.8669 0.52806 0.0
C720 C 0.8577 0.98612 0.51664 0.0
C721 C 0.88178 0.90348 0.52686 0.0
N722 N 0.86536 0.99735 0.58465 0.0
N723 N 0.8502 0.8872 0.46665 0.0
H724 H 0.91946 0.85789 0.55151 0.0
H725 H 0.9051 0.84782 0.50434 0.0
H726 H 0.83559 0.89539 0.44124 0.0
H727 H 0.85458 0.85559 0.47079 0.0
H728 H 0.8527 0.02678 0.58239 0.0
H729 H 0.87063 0.9877 0.61287 0.0
H730 H 0.86502 0.04961 0.52669 0.0
H731 H 0.85171 0.0368 0.47957 0.0
C732 C 0.33216 0.55553 0.75442 0.0
C733 C 0.33389 0.57597 0.71814 0.0
C734 C 0.35804 0.63733 0.75003 0.0
C735 C 0.35492 0.61724 0.7862 0.0
N736 N 0.32983 0.56189 0.82359 0.0
N737 N 0.34022 0.63888 0.68225 0.0
C738 C 0.339 0.57782 0.78857 0.0
C739 C 0.34426 0.61776 0.71621 0.0
N740 N 0.32572 0.51429 0.75639 0.0
N741 N 0.37538 0.67437 0.74786 0.0
H742 H 0.32973 0.62538 0.65732 0.0
H743 H 0.34391 0.67044 0.67959 0.0
H744 H 0.38512 0.68986 0.77204 0.0
H745 H 0.38237 0.68845 0.72206 0.0
H746 H 0.32879 0.49693 0.78157 0.0
H747 H 0.32049 0.4964 0.73244 0.0
H748 H 0.31419 0.53536 0.82694 0.0
H749 H 0.33453 0.57737 0.84927 0.0
C750 C 0.70689 0.04328 0.07193 0.0
C751 C 0.67486 0.07118 0.071 0.0
C752 C 0.67216 0.06741 1.0005 0.0
C753 C 0.70375 0.03887 1.00161 0.0
N754 N 0.7451 0.99221 0.03839 0.0
N755 N 0.62248 0.10436 0.03579 0.0
C756 C 0.71914 0.02449 0.0374 0.0
C757 C 0.65601 0.08152 0.03563 0.0
N758 N 0.72666 0.03598 0.10565 0.0
N759 N 0.65854 0.08208 0.96588 0.0
H760 H 0.61037 0.11559 0.06097 0.0
H761 H 0.60524 0.10969 1.01152 0.0
H762 H 0.66877 0.07104 0.93982 0.0
H763 H 0.63858 0.10641 0.96287 0.0
H764 H 0.75298 0.02005 0.10735 0.0
H765 H 0.71837 0.04856 0.13179 0.0
H766 H 0.75448 0.97727 0.06353 0.0
H767 H 0.75429 0.97761 1.01368 0.0
C768 C 0.67779 0.10351 0.78192 0.0
C769 C 0.70397 0.12009 0.75565 0.0
C770 C 0.75799 0.0996 0.79812 0.0
C771 C 0.73212 0.07974 0.82249 0.0
N772 N 0.6678 0.07207 0.8444 0.0
N773 N 0.76715 0.14368 0.74243 0.0
C774 C 0.69203 0.08521 0.81674 0.0
C775 C 0.74356 0.1216 0.76518 0.0
N776 N 0.63962 0.10345 0.77254 0.0
N777 N 0.79641 0.09553 0.8057 0.0
H778 H 0.75731 0.1595 0.71785 0.0
H779 H 0.79572 0.14886 0.74912 0.0
H780 H 0.80711 0.08178 0.83097 0.0
H781 H 0.81757 0.10494 0.78717 0.0
H782 H 0.61941 0.08768 0.78804 0.0
H783 H 0.62816 0.11801 0.74796 0.0
H784 H 0.63832 0.07776 0.84373 0.0
H785 H 0.67772 0.05831 0.86995 0.0
C786 C 0.21315 0.46019 1.01745 0.0
C787 C 0.19638 0.45845 0.05439 0.0
C788 C 0.14151 0.42256 1.027 0.0
C789 C 0.15863 0.42407 0.99037 0.0
N790 N 0.20549 0.45232 0.94856 0.0
N791 N 0.14105 0.4462 0.09288 0.0
C792 C 0.19281 0.4455 0.98495 0.0
C793 C 0.15925 0.44249 0.05863 0.0
N794 N 0.24904 0.47501 1.01351 0.0
N795 N 0.10916 0.40056 0.03182 0.0
H796 H 0.15357 0.45972 0.11671 0.0
H797 H 0.11254 0.43907 0.09691 0.0
H798 H 0.09485 0.38666 1.0091 0.0
H799 H 0.09768 0.39393 0.05847 0.0
H800 H 0.26514 0.47184 0.98876 0.0
H801 H 0.2636 0.48906 0.03578 0.0
H802 H 0.22783 0.47157 0.94216 0.0
H803 H 0.19154 0.44148 0.92414 0.0
C804 C 0.78987 0.91751 0.29234 0.0
C805 C 0.81344 0.92265 0.32544 0.0
C806 C 0.86595 0.8836 0.29445 0.0
C807 C 0.84473 0.8849 0.25946 0.0
N808 N 0.78662 0.90267 0.22415 0.0
N809 N 0.87325 0.90907 0.35936 0.0
C810 C 0.80645 0.90112 0.25831 0.0
C811 C 0.85115 0.90467 0.32701 0.0
N812 N 0.75184 0.92865 0.29324 0.0
N813 N 0.90023 0.86209 0.29642 0.0
H814 H 0.86255 0.92188 0.38451 0.0
H815 H 0.90242 0.90163 0.36103 0.0
H816 H 0.912 0.84697 0.27288 0.0
H817 H 0.91564 0.85641 0.32181 0.0
H818 H 0.73229 0.92196 0.2715 0.0
H819 H 0.73884 0.94161 0.31714 0.0
H820 H 0.76062 0.91873 0.21998 0.0
H821 H 0.79726 0.88969 0.19903 0.0
C822 C 0.36258 0.59159 0.54984 0.0
C823 C 0.35241 0.54979 0.5486 0.0
C824 C 0.35318 0.55374 0.47826 0.0
C825 C 0.36737 0.59438 0.47974 0.0
N826 N 0.35488 0.656 0.51621 0.0
N827 N 0.34799 0.48818 0.51063 0.0
C828 C 0.36392 0.61486 0.51544 0.0
C829 C 0.3512 0.52981 0.51259 0.0
N830 N 0.37088 0.60929 0.58421 0.0
N831 N 0.33362 0.54134 0.44648 0.0
H832 H 0.34814 0.4692 0.53484 0.0
H833 H 0.34976 0.47236 0.48476 0.0
H834 H 0.32472 0.56233 0.42506 0.0
H835 H 0.32008 0.51323 0.44498 0.0
H836 H 0.38083 0.63915 0.58629 0.0
H837 H 0.37188 0.59232 0.60981 0.0
H838 H 0.34866 0.67164 0.54149 0.0
H839 H 0.3481 0.67273 0.49116 0.0
C840 C 0.24326 0.18663 0.41664 0.0
C841 C 0.2487 0.21809 0.44403 0.0
C842 C 0.3176 0.21684 0.43001 0.0
C843 C 0.31287 0.18176 0.40674 0.0
N844 N 0.27184 0.13117 0.37927 0.0
N845 N 0.2921 0.25936 0.48074 0.0
C846 C 0.27578 0.16623 0.40018 0.0
C847 C 0.2861 0.23258 0.45145 0.0
N848 N 0.20688 0.17678 0.40594 0.0
N849 N 0.35227 0.2352 0.43155 0.0
H850 H 0.27007 0.27087 0.49761 0.0
H851 H 0.31917 0.26733 0.49053 0.0
H852 H 0.37614 0.22402 0.41678 0.0
H853 H 0.35649 0.26345 0.44461 0.0
H854 H 0.20066 0.15691 0.38358 0.0
H855 H 0.18262 0.1914 0.41727 0.0
H856 H 0.2464 0.11543 0.37712 0.0
H857 H 0.2948 0.11618 0.36588 0.0
C858 C 0.12489 1.01016 0.68927 0.0
C859 C 0.10322 0.03235 0.66081 0.0
C860 C 0.05222 0.98219 0.66535 0.0
C861 C 0.07155 0.96369 0.6975 0.0
N862 N 0.13409 0.94603 0.72418 0.0
N863 N 0.04574 0.04112 0.62207 0.0
C864 C 0.11032 0.97357 0.70484 0.0
C865 C 0.0667 0.0188 0.64885 0.0
N866 N 0.15878 0.02495 0.70264 0.0
N867 N 1.02328 0.9622 0.64763 0.0
H868 H 0.05606 0.06719 0.6085 0.0
H869 H 1.0172 0.0356 0.61541 0.0
H870 H 1.01814 0.93151 0.65379 0.0
H871 H 1.00941 0.9728 0.62264 0.0
H872 H 0.17347 1.01263 0.72655 0.0
H873 H 0.1706 0.0518 0.6921 0.0
H874 H 0.16351 0.94957 0.72732 0.0
H875 H 0.1253 0.91696 0.73257 0.0
C876 C 0.27785 0.82512 0.90548 0.0
C877 C 0.24184 0.81824 0.9224 0.0
C878 C 0.27398 0.78655 0.97881 0.0
C879 C 0.31012 0.79317 0.96185 0.0
N880 N 0.34658 0.81059 0.90634 0.0
N881 N 0.20504 0.78352 0.96985 0.0
C882 C 0.31202 0.80973 0.92418 0.0
C883 C 0.23979 0.79586 0.95731 0.0
N884 N 0.27946 0.84803 0.87248 0.0
N885 N 0.27214 0.77399 1.01628 0.0
H886 H 0.1795 0.79022 0.95482 0.0
H887 H 0.2019 0.76348 0.993 0.0
H888 H 0.29623 0.76707 0.03341 0.0
H889 H 0.24672 0.77339 0.03147 0.0
H890 H 0.30483 0.8584 0.8611 0.0
H891 H 0.25504 0.85879 0.85745 0.0
H892 H 0.34963 0.81839 0.87754 0.0
H893 H 0.3721 0.80013 0.9196 0.0
C894 C 0.50686 0.97946 0.22478 0.0
C895 C 0.50305 0.02028 0.21004 0.0
C896 C 0.46313 0.9967 0.15659 0.0
C897 C 0.46361 0.95682 0.17366 0.0
N898 N 0.48581 0.90894 0.223 0.0
N899 N 0.4786 0.0689 0.16264 0.0
C900 C 0.4858 0.94773 0.2073 0.0
C901 C 0.4819 0.02914 0.17578 0.0
N902 N 0.53093 0.97117 0.25541 0.0
N903 N 0.44477 1.00335 0.12203 0.0
H904 H 0.49373 0.09275 0.17496 0.0
H905 H 0.46006 0.07881 0.14057 0.0
H906 H 0.42946 0.98072 0.10801 0.0
H907 H 0.44629 0.03038 0.106 0.0
H908 H 0.53839 0.94171 0.26541 0.0
H909 H 0.54573 0.99393 0.26965 0.0
H910 H 0.49753 0.90107 0.24977 0.0
H911 H 0.47251 0.88432 0.20986 0.0
C912 C 0.78401 0.3755 0.64899 0.0
C913 C 0.81792 0.35125 0.65554 0.0
C914 C 0.78345 0.28841 0.64069 0.0
C915 C 0.75028 0.31328 0.63088 0.0
N916 N 0.71486 0.3766 0.64143 0.0
N917 N 0.84784 0.28474 0.66851 0.0
C918 C 0.74934 0.35569 0.64021 0.0
C919 C 0.81693 0.30765 0.65489 0.0
N920 N 0.78522 0.4175 0.64973 0.0
N921 N 0.78374 0.24682 0.63539 0.0
H922 H 0.87292 0.2979 0.67855 0.0
H923 H 0.84775 0.25301 0.67285 0.0
H924 H 0.75909 0.23019 0.63164 0.0
H925 H 0.80867 0.2284 0.63509 0.0
H926 H 0.76244 0.43688 0.64078 0.0
H927 H 0.80993 0.43309 0.65703 0.0
H928 H 0.71156 0.40681 0.65086 0.0
H929 H 0.68908 0.36176 0.6372 0.0
C930 C 0.97942 0.44838 0.87452 0.0
C931 C 1.00568 0.46167 0.84693 0.0
C932 C 1.00017 0.53211 0.87188 0.0
C933 C 0.96781 0.52051 0.89316 0.0
N934 N 0.92669 0.46744 0.9159 0.0
N935 N 0.05289 0.51066 0.83092 0.0
C936 C 0.95792 0.47841 0.8955 0.0
C937 C 1.01979 0.50203 0.84932 0.0
N938 N 0.97656 0.40738 0.88212 0.0
N939 N 1.01113 0.57217 0.87231 0.0
H940 H 0.0688 0.48786 0.81685 0.0
H941 H 0.06653 0.5386 0.83235 0.0
H942 H 0.99878 0.59422 0.8903 0.0
H943 H 0.0317 0.58411 0.85447 0.0
H944 H 0.9602 0.39583 0.90425 0.0
H945 H 0.9946 0.3853 0.86965 0.0
H946 H 0.91539 0.43817 0.9149 0.0
H947 H 0.91047 0.48839 0.93192 0.0
C948 C 0.80245 0.66186 0.11703 0.0
C949 C 0.80346 0.70428 0.10751 0.0
C950 C 0.73407 0.71008 0.1179 0.0
C951 C 0.73439 0.66889 0.1325 0.0
N952 N 0.76204 0.60426 0.11113 0.0
N953 N 0.76991 0.77021 0.10134 0.0
C954 C 0.76678 0.6436 0.12319 0.0
C955 C 0.76926 0.72896 0.10911 0.0
N956 N 0.83553 0.63837 0.11885 0.0
N957 N 0.70025 0.72818 0.10545 0.0
H958 H 0.79453 0.78509 0.09325 0.0
H959 H 0.74656 0.79019 0.10612 0.0
H960 H 0.67499 0.71188 0.10402 0.0
H961 H 0.69828 0.75647 0.09114 0.0
H962 H 0.83612 0.60774 0.12819 0.0
H963 H 0.86238 0.6507 0.11453 0.0
H964 H 0.78457 0.58559 0.10122 0.0
H965 H 0.73494 0.59359 0.10418 0.0
C966 C 0.55413 0.53095 0.41654 0.0
C967 C 0.59336 0.51866 0.41334 0.0
C968 C 0.60003 0.56707 0.3596 0.0
C969 C 0.55973 0.57415 0.35879 0.0
N970 N 0.49817 0.56586 0.38699 0.0
N971 N 0.65394 0.52382 0.38153 0.0
C972 C 0.53675 0.55746 0.38786 0.0
C973 C 0.61657 0.53697 0.38521 0.0
N974 N 0.53375 0.51726 0.44702 0.0
N975 N 0.62236 0.58899 0.33541 0.0
H976 H 0.66745 0.50239 0.40007 0.0
H977 H 0.67105 0.53201 0.35868 0.0
H978 H 0.61097 0.61066 0.31578 0.0
H979 H 0.65215 0.58858 0.33702 0.0
H980 H 0.50593 0.52735 0.45299 0.0
H981 H 0.54578 0.4976 0.46809 0.0
H982 H 0.47868 0.55146 0.40449 0.0
H983 H 0.48552 0.58711 0.36767 0.0
C984 C 0.45385 0.27101 0.24699 0.0
C985 C 0.4235 0.2626 0.22104 0.0
C986 C 0.4412 0.18894 0.22416 0.0
C987 C 0.47454 0.19796 0.24576 0.0
N988 N 0.51533 0.24872 0.27401 0.0
N989 N 0.38746 0.21185 0.18592 0.0
C990 C 0.48135 0.23922 0.25681 0.0
C991 C 0.4167 0.22136 0.21026 0.0
N992 N 0.45614 0.30941 0.26245 0.0
N993 N 0.43312 0.14909 0.21583 0.0
H994 H 0.36815 0.23346 0.17357 0.0
H995 H 0.36815 0.23346 0.17357 0.0
H996 H 0.44961 0.12405 0.2264 0.0
H997 H 0.40912 0.14125 0.19956 0.0
H998 H 0.47514 0.31647 0.28457 0.0
H999 H 0.43648 0.33333 0.25568 0.0
H1000 H 0.52382 0.27874 0.27857 0.0
H1001 H 0.53672 0.2268 0.28084 0.0
C1002 C 0.92479 0.30018 0.83174 0.0
C1003 C 0.94297 0.29488 0.79612 0.0
C1004 C 0.91552 0.22641 0.79028 0.0
C1005 C 0.90388 0.22889 0.82914 0.0
N1006 N 0.89672 0.26816 0.88722 0.0
N1007 N 0.95149 0.25656 0.73818 0.0
C1008 C 0.90781 0.26604 0.84981 0.0
C1009 C 0.93657 0.25921 0.77408 0.0
N1010 N 0.92304 0.33845 0.8476 0.0
N1011 N 0.90636 0.19273 0.76917 0.0
H1012 H 0.96428 0.28147 0.725 0.0
H1013 H 0.95165 0.2301 0.7216 0.0
H1014 H 0.89135 0.16831 0.78056 0.0
H1015 H 0.91139 0.18984 0.73998 0.0
H1016 H 0.90759 0.34569 0.87208 0.0
H1017 H 0.93363 0.36404 0.83342 0.0
H1018 H 0.90302 0.29257 0.90518 0.0
H1019 H 0.8831 0.24429 0.90118 0.0
C1020 C 1.00886 0.62974 0.13494 0.0
C1021 C 0.0379 0.62578 0.1071 0.0
C1022 C 0.9922 0.65149 0.05757 0.0
C1023 C 0.96716 0.66492 0.0867 0.0
N1024 N 0.94778 0.66173 0.15243 0.0
N1025 N 0.05716 0.63025 0.04111 0.0
C1026 C 0.97401 0.65153 0.12513 0.0
C1027 C 0.02934 0.63516 0.06796 0.0
N1028 N 1.01497 0.61304 0.17073 0.0
N1029 N 0.98025 0.65421 1.02025 0.0
H1030 H 0.08424 0.61736 0.04766 0.0
H1031 H 0.05409 0.64082 1.01291 0.0
H1032 H 0.95202 0.6627 1.01317 0.0
H1033 H 0.99614 0.64299 0.99734 0.0
H1034 H 0.99406 0.61192 0.19162 0.0
H1035 H 0.04037 0.59714 0.17855 0.0
H1036 H 0.95249 0.65762 0.18178 0.0
H1037 H 0.9212 0.67559 0.14533 0.0
C1038 C 0.62881 0.76574 0.36314 0.0
C1039 C 0.62594 0.80565 0.34621 0.0
C1040 C 0.59188 0.77719 0.29035 0.0
C1041 C 0.59039 0.73871 0.30965 0.0
N1042 N 0.60551 0.69614 0.3651 0.0
N1043 N 0.60439 0.85032 0.29412 0.0
C1044 C 0.60879 0.73279 0.34603 0.0
C1045 C 0.60763 0.81157 0.30971 0.0
N1046 N 0.65069 0.75936 0.39565 0.0
N1047 N 0.57828 0.78061 0.25343 0.0
H1048 H 0.61698 0.87575 0.30661 0.0
H1049 H 0.5877 0.85789 0.26994 0.0
H1050 H 0.56687 0.75579 0.2388 0.0
H1051 H 0.58102 0.80665 0.23623 0.0
H1052 H 0.65762 0.73032 0.40706 0.0
H1053 H 0.66442 0.78299 0.40989 0.0
H1054 H 0.61392 0.69123 0.39359 0.0
H1055 H 0.59228 0.67095 0.35298 0.0
C1056 C 0.54265 0.29823 0.58816 0.0
C1057 C 0.57599 0.32212 0.59099 0.0
C1058 C 0.53713 0.38108 0.61394 0.0
C1059 C 0.50453 0.35602 0.61426 0.0
N1060 N 0.47558 0.29068 0.60338 0.0
N1061 N 0.60622 0.38502 0.60814 0.0
C1062 C 0.50707 0.31464 0.60157 0.0
C1063 C 0.57351 0.36335 0.60406 0.0
N1064 N 0.54499 0.25984 0.57238 0.0
N1065 N 0.53312 0.4219 0.62282 0.0
H1066 H 0.63288 0.3735 0.59955 0.0
H1067 H 0.60752 0.41341 0.62161 0.0
H1068 H 0.50729 0.43544 0.63165 0.0
H1069 H 0.55456 0.44306 0.61931 0.0
H1070 H 0.52135 0.24271 0.56501 0.0
H1071 H 0.57073 0.24569 0.56426 0.0
H1072 H 0.47632 0.25898 0.5994 0.0
H1073 H 0.44851 0.30211 0.61093 0.0
C1074 C 0.1435 0.77482 0.70153 0.0
C1075 C 0.14094 0.73312 0.71298 0.0
C1076 C 0.09425 0.75334 0.76138 0.0
C1077 C 0.09097 0.79344 0.74468 0.0
N1078 N 0.10998 0.84052 0.69447 0.0
N1079 N 0.11237 0.68154 0.75258 0.0
C1080 C 0.11548 0.80418 0.7141 0.0
C1081 C 0.11642 0.72209 0.74307 0.0
N1082 N 0.17239 0.78612 0.67805 0.0
N1083 N 0.07573 0.74495 0.79462 0.0
H1084 H 0.12837 0.65763 0.74023 0.0
H1085 H 0.09123 0.67127 0.77078 0.0
H1086 H 0.05855 0.76676 0.80833 0.0
H1087 H 0.0802 0.71778 0.81036 0.0
H1088 H 0.17797 0.81671 0.67162 0.0
H1089 H 0.19312 0.76503 0.66827 0.0
H1090 H 0.12429 0.84743 0.66932 0.0
H1091 H 0.08878 0.8624 0.70082 0.0
C1092 C 0.52511 0.80745 0.98139 0.0
C1093 C 0.4889 0.82873 0.98127 0.0
C1094 C 0.51822 0.88999 0.95402 0.0
C1095 C 0.55319 0.86697 0.95018 0.0
N1096 N 0.58993 0.80322 0.95765 0.0
N1097 N 0.44978 0.88915 0.96606 0.0
C1098 C 0.55668 0.82562 0.96338 0.0
C1099 C 0.48517 0.86994 0.9676 0.0
N1100 N 0.52966 0.77022 0.99979 0.0
N1101 N 0.51683 0.93101 0.94486 0.0
H1102 H 0.42528 0.87554 0.97643 0.0
H1103 H 0.44411 0.91745 0.95263 0.0
H1104 H 0.54028 0.94618 0.93398 0.0
H1105 H 0.49352 0.95067 0.9504 0.0
H1106 H 0.55615 0.75556 1.00514 0.0
H1107 H 0.50728 0.75533 1.01276 0.0
H1108 H 0.59259 0.77147 0.96169 0.0
H1109 H 0.61453 0.81584 0.94646 0.0
C1110 C 0.05146 0.12957 0.44273 0.0
C1111 C 1.01466 0.14687 0.45114 0.0
C1112 C 0.04441 0.20726 0.47893 0.0
C1113 C 0.08144 0.18927 0.47227 0.0
N1114 N 0.12032 0.1303 0.45439 0.0
N1115 N 0.97653 0.19645 0.48598 0.0
C1116 C 0.08497 0.14936 0.45628 0.0
C1117 C 1.01137 0.18382 0.47221 0.0
N1118 N 0.05437 0.09523 0.42046 0.0
N1119 N 0.04039 0.24766 0.48923 0.0
H1120 H 0.95167 0.18004 0.48144 0.0
H1121 H 0.97302 0.22077 0.50504 0.0
H1122 H 0.06335 0.2669 0.49294 0.0
H1123 H 1.01399 0.26342 0.49027 0.0
H1124 H 0.08015 0.08375 0.40964 0.0
H1125 H 0.03054 0.0796 0.41066 0.0
H1126 H 0.12463 0.09971 0.44643 0.0
H1127 H 0.14525 0.14415 0.46395 0.0
loop_
_geom_bond_atom_site_label_1
_geom_bond_atom_site_label_2
_geom_bond_distance
_geom_bond_site_symmetry_2
_ccdc_geom_bond_type
Ho0 C3 2.811 . S
Ho0 O20 2.322 . S
Ho0 O22 2.378 . S
Ho0 O23 2.524 . S
Ho0 O24 2.381 . S
Ho0 O25 2.669 . S
Ho0 O27 2.346 . S
Ho0 O31 2.305 . S
Ho1 C12 2.811 . S
Ho1 O21 2.346 . S
Ho1 O25 2.305 . S
Ho1 O26 2.322 . S
Ho1 O28 2.378 . S
Ho1 O29 2.524 . S
Ho1 O30 2.381 . S
Ho1 O31 2.669 . S
C2 O20 1.259 . S
C2 O21 1.268 . S
C3 Ho0 2.811 . S
C3 C4 1.488 . S
C3 O22 1.215 . S
C3 O23 1.289 . S
C4 C3 1.488 . S
C4 C5 1.348 . S
C4 C9 1.413 . S
C5 C4 1.348 . S
C5 C6 1.442 . S
C5 H32 0.930 . S
C6 C5 1.442 . S
C6 C7 1.381 . S
C6 H33 0.931 . S
C7 C6 1.381 . S
C7 C8 1.321 . S
C8 C7 1.321 . S
C8 C9 1.403 . S
C8 H34 0.934 . S
C9 C4 1.413 . S
C9 C8 1.403 . S
C9 H35 0.930 . S
C10 O24 1.275 . S
C10 O25 1.256 . S
C11 O26 1.259 . S
C11 O27 1.268 . S
C12 Ho1 2.811 . S
C12 C13 1.488 . S
C12 O28 1.215 . S
C12 O29 1.289 . S
C13 C12 1.488 . S
C13 C14 1.348 . S
C13 C18 1.413 . S
C14 C13 1.348 . S
C14 C15 1.442 . S
C14 H36 0.930 . S
C15 C14 1.442 . S
C15 C16 1.381 . S
C15 H37 0.931 . S
C16 C15 1.381 . S
C16 C17 1.321 . S
C17 C16 1.321 . S
C17 C18 1.403 . S
C17 H38 0.934 . S
C18 C13 1.413 . S
C18 C17 1.403 . S
C18 H39 0.930 . S
C19 O30 1.275 . S
C19 O31 1.256 . S
O20 Ho0 2.322 . S
O20 C2 1.259 . S
O21 Ho1 2.346 . S
O21 C2 1.268 . S
O22 Ho0 2.378 . S
O22 C3 1.215 . S
O23 Ho0 2.524 . S
O23 C3 1.289 . S
O24 Ho0 2.381 . S
O24 C10 1.275 . S
O25 Ho0 2.669 . S
O25 Ho1 2.305 . S
O25 C10 1.256 . S
O26 Ho1 2.322 . S
O26 C11 1.259 . S
O27 Ho0 2.346 . S
O27 C11 1.268 . S
O28 Ho1 2.378 . S
O28 C12 1.215 . S
O29 Ho1 2.524 . S
O29 C12 1.289 . S
O30 Ho1 2.381 . S
O30 C19 1.275 . S
O31 Ho0 2.305 . S
O31 Ho1 2.669 . S
O31 C19 1.256 . S
H32 C5 0.930 . S
H33 C6 0.931 . S
H34 C8 0.934 . S
H35 C9 0.930 . S
H36 C14 0.930 . S
H37 C15 0.931 . S
H38 C17 0.934 . S
H39 C18 0.930 . S
Ho40 C43 2.811 . S
Ho40 O60 2.315 1_655 S
Ho40 O62 2.378 . S
Ho40 O63 2.524 . S
Ho40 O64 2.381 1_655 S
Ho40 O65 2.669 1_655 S
Ho40 O67 2.346 . S
Ho40 O71 2.305 . S
Ho41 C52 2.811 . S
Ho41 O61 2.346 . S
Ho41 O65 2.305 . S
Ho41 O66 2.320 1_455 S
Ho41 O68 2.378 . S
Ho41 O69 2.524 . S
Ho41 O70 2.381 1_455 S
Ho41 O71 2.669 1_455 S
C42 O60 1.264 . S
C42 O61 1.268 . S
C43 Ho40 2.811 . S
C43 C44 1.488 . S
C43 O62 1.215 . S
C43 O63 1.289 . S
C44 C43 1.488 . S
C44 C45 1.348 . S
C44 C49 1.413 . S
C45 C44 1.348 . S
C45 C46 1.442 . S
C45 H72 0.930 . S
C46 C45 1.442 . S
C46 C47 1.381 . S
C46 H73 0.931 . S
C47 C46 1.381 . S
C47 C48 1.321 . S
C48 C47 1.321 . S
C48 C49 1.403 . S
C48 H74 0.934 . S
C49 C44 1.413 . S
C49 C48 1.403 . S
C49 H75 0.930 . S
C50 O64 1.275 . S
C50 O65 1.256 . S
C51 O66 1.260 . S
C51 O67 1.268 . S
C52 Ho41 2.811 . S
C52 C53 1.488 . S
C52 O68 1.215 . S
C52 O69 1.289 . S
C53 C52 1.488 . S
C53 C54 1.348 . S
C53 C58 1.413 . S
C54 C53 1.348 . S
C54 C55 1.442 . S
C54 H76 0.930 . S
C55 C54 1.442 . S
C55 C56 1.381 . S
C55 H77 0.931 . S
C56 C55 1.381 . S
C56 C57 1.321 . S
C57 C56 1.321 . S
C57 C58 1.403 . S
C57 H78 0.934 . S
C58 C53 1.413 . S
C58 C57 1.403 . S
C58 H79 0.930 . S
C59 O70 1.275 . S
C59 O71 1.256 . S
O60 Ho40 2.315 1_455 S
O60 C42 1.264 . S
O61 Ho41 2.346 . S
O61 C42 1.268 . S
O62 Ho40 2.378 . S
O62 C43 1.215 . S
O63 Ho40 2.524 . S
O63 C43 1.289 . S
O64 Ho40 2.381 1_455 S
O64 C50 1.275 . S
O65 Ho40 2.669 1_455 S
O65 Ho41 2.305 . S
O65 C50 1.256 . S
O66 Ho41 2.320 1_655 S
O66 C51 1.260 . S
O67 Ho40 2.346 . S
O67 C51 1.268 . S
O68 Ho41 2.378 . S
O68 C52 1.215 . S
O69 Ho41 2.524 . S
O69 C52 1.289 . S
O70 Ho41 2.381 1_655 S
O70 C59 1.275 . S
O71 Ho40 2.305 . S
O71 Ho41 2.669 1_655 S
O71 C59 1.256 . S
H72 C45 0.930 . S
H73 C46 0.931 . S
H74 C48 0.934 . S
H75 C49 0.930 . S
H76 C54 0.930 . S
H77 C55 0.931 . S
H78 C57 0.934 . S
H79 C58 0.930 . S
Ho80 C83 2.811 . S
Ho80 O100 2.313 1_554 S
Ho80 O102 2.378 . S
Ho80 O103 2.524 . S
Ho80 O104 2.381 1_554 S
Ho80 O105 2.669 1_554 S
Ho80 O107 2.346 . S
Ho80 O111 2.305 . S
Ho81 C92 2.811 . S
Ho81 O101 2.346 . S
Ho81 O105 2.305 . S
Ho81 O106 2.318 1_556 S
Ho81 O108 2.378 . S
Ho81 O109 2.524 . S
Ho81 O110 2.381 1_556 S
Ho81 O111 2.669 1_556 S
C82 O100 1.266 . S
C82 O101 1.268 . S
C83 Ho80 2.811 . S
C83 C84 1.488 . S
C83 O102 1.215 . S
C83 O103 1.289 . S
C84 C83 1.488 . S
C84 C85 1.348 . S
C84 C89 1.413 . S
C85 C84 1.348 . S
C85 C86 1.442 . S
C85 H112 0.930 . S
C86 C85 1.442 . S
C86 C87 1.381 . S
C86 H113 0.931 . S
C87 C86 1.381 . S
C87 C88 1.321 . S
C88 C87 1.321 . S
C88 C89 1.403 . S
C88 H114 0.934 . S
C89 C84 1.413 . S
C89 C88 1.403 . S
C89 H115 0.930 . S
C90 O104 1.275 . S
C90 O105 1.256 . S
C91 O106 1.262 . S
C91 O107 1.268 . S
C92 Ho81 2.811 . S
C92 C93 1.488 . S
C92 O108 1.215 . S
C92 O109 1.289 . S
C93 C92 1.488 . S
C93 C94 1.348 . S
C93 C98 1.413 . S
C94 C93 1.348 . S
C94 C95 1.442 . S
C94 H116 0.930 . S
C95 C94 1.442 . S
C95 C96 1.381 . S
C95 H117 0.931 . S
C96 C95 1.381 . S
C96 C97 1.321 . S
C97 C96 1.321 . S
C97 C98 1.403 . S
C97 H118 0.934 . S
C98 C93 1.413 . S
C98 C97 1.403 . S
C98 H119 0.930 . S
C99 O110 1.275 . S
C99 O111 1.256 . S
O100 Ho80 2.313 1_556 S
O100 C82 1.266 . S
O101 Ho81 2.346 . S
O101 C82 1.268 . S
O102 Ho80 2.378 . S
O102 C83 1.215 . S
O103 Ho80 2.524 . S
O103 C83 1.289 . S
O104 Ho80 2.381 1_556 S
O104 C90 1.275 . S
O105 Ho80 2.669 1_556 S
O105 Ho81 2.305 . S
O105 C90 1.256 . S
O106 Ho81 2.318 1_554 S
O106 C91 1.262 . S
O107 Ho80 2.346 . S
O107 C91 1.268 . S
O108 Ho81 2.378 . S
O108 C92 1.215 . S
O109 Ho81 2.524 . S
O109 C92 1.289 . S
O110 Ho81 2.381 1_554 S
O110 C99 1.275 . S
O111 Ho80 2.305 . S
O111 Ho81 2.669 1_554 S
O111 C99 1.256 . S
H112 C85 0.930 . S
H113 C86 0.931 . S
H114 C88 0.934 . S
H115 C89 0.930 . S
H116 C94 0.930 . S
H117 C95 0.931 . S
H118 C97 0.934 . S
H119 C98 0.930 . S
Ho120 C123 2.811 . S
Ho120 O140 2.322 . S
Ho120 O142 2.378 . S
Ho120 O143 2.524 . S
Ho120 O144 2.381 . S
Ho120 O145 2.669 . S
Ho120 O147 2.346 . S
Ho120 O151 2.305 . S
Ho121 C132 2.811 . S
Ho121 O141 2.346 . S
Ho121 O145 2.305 . S
Ho121 O146 2.322 . S
Ho121 O148 2.378 . S
Ho121 O149 2.524 . S
Ho121 O150 2.381 . S
Ho121 O151 2.669 . S
C122 O140 1.259 . S
C122 O141 1.268 . S
C123 Ho120 2.811 . S
C123 C124 1.488 . S
C123 O142 1.215 . S
C123 O143 1.289 . S
C124 C123 1.488 . S
C124 C125 1.348 . S
C124 C129 1.413 . S
C125 C124 1.348 . S
C125 C126 1.442 . S
C125 H152 0.930 . S
C126 C125 1.442 . S
C126 C127 1.381 . S
C126 H153 0.931 . S
C127 C126 1.381 . S
C127 C128 1.321 . S
C128 C127 1.321 . S
C128 C129 1.403 . S
C128 H154 0.934 . S
C129 C124 1.413 . S
C129 C128 1.403 . S
C129 H155 0.930 . S
C130 O144 1.275 . S
C130 O145 1.256 . S
C131 O146 1.259 . S
C131 O147 1.268 . S
C132 Ho121 2.811 . S
C132 C133 1.488 . S
C132 O148 1.215 . S
C132 O149 1.289 . S
C133 C132 1.488 . S
C133 C134 1.348 . S
C133 C138 1.413 . S
C134 C133 1.348 . S
C134 C135 1.442 . S
C134 H156 0.930 . S
C135 C134 1.442 . S
C135 C136 1.381 . S
C135 H157 0.931 . S
C136 C135 1.381 . S
C136 C137 1.321 . S
C137 C136 1.321 . S
C137 C138 1.403 . S
C137 H158 0.934 . S
C138 C133 1.413 . S
C138 C137 1.403 . S
C138 H159 0.930 . S
C139 O150 1.275 . S
C139 O151 1.256 . S
O140 Ho120 2.322 . S
O140 C122 1.259 . S
O141 Ho121 2.346 . S
O141 C122 1.268 . S
O142 Ho120 2.378 . S
O142 C123 1.215 . S
O143 Ho120 2.524 . S
O143 C123 1.289 . S
O144 Ho120 2.381 . S
O144 C130 1.275 . S
O145 Ho120 2.669 . S
O145 Ho121 2.305 . S
O145 C130 1.256 . S
O146 Ho121 2.322 . S
O146 C131 1.259 . S
O147 Ho120 2.346 . S
O147 C131 1.268 . S
O148 Ho121 2.378 . S
O148 C132 1.215 . S
O149 Ho121 2.524 . S
O149 C132 1.289 . S
O150 Ho121 2.381 . S
O150 C139 1.275 . S
O151 Ho120 2.305 . S
O151 Ho121 2.669 . S
O151 C139 1.256 . S
H152 C125 0.930 . S
H153 C126 0.931 . S
H154 C128 0.934 . S
H155 C129 0.930 . S
H156 C134 0.930 . S
H157 C135 0.931 . S
H158 C137 0.934 . S
H159 C138 0.930 . S
Ho160 C163 2.811 . S
Ho160 O180 2.322 . S
Ho160 O182 2.378 . S
Ho160 O183 2.524 . S
Ho160 O184 2.381 . S
Ho160 O185 2.669 . S
Ho160 O187 2.346 . S
Ho160 O191 2.305 . S
Ho161 C172 2.811 . S
Ho161 O181 2.346 . S
Ho161 O185 2.305 . S
Ho161 O186 2.322 . S
Ho161 O188 2.378 . S
Ho161 O189 2.524 . S
Ho161 O190 2.381 . S
Ho161 O191 2.669 . S
C162 O180 1.259 . S
C162 O181 1.268 . S
C163 Ho160 2.811 . S
C163 C164 1.488 . S
C163 O182 1.215 . S
C163 O183 1.289 . S
C164 C163 1.488 . S
C164 C165 1.348 . S
C164 C169 1.413 . S
C165 C164 1.348 . S
C165 C166 1.442 . S
C165 H192 0.930 . S
C166 C165 1.442 . S
C166 C167 1.381 . S
C166 H193 0.931 . S
C167 C166 1.381 . S
C167 C168 1.321 . S
C168 C167 1.321 . S
C168 C169 1.403 . S
C168 H194 0.934 . S
C169 C164 1.413 . S
C169 C168 1.403 . S
C169 H195 0.930 . S
C170 O184 1.275 . S
C170 O185 1.256 . S
C171 O186 1.259 . S
C171 O187 1.268 . S
C172 Ho161 2.811 . S
C172 C173 1.488 . S
C172 O188 1.215 . S
C172 O189 1.289 . S
C173 C172 1.488 . S
C173 C174 1.348 . S
C173 C178 1.413 . S
C174 C173 1.348 . S
C174 C175 1.442 . S
C174 H196 0.930 . S
C175 C174 1.442 . S
C175 C176 1.381 . S
C175 H197 0.931 . S
C176 C175 1.381 . S
C176 C177 1.321 . S
C177 C176 1.321 . S
C177 C178 1.403 . S
C177 H198 0.934 . S
C178 C173 1.413 . S
C178 C177 1.403 . S
C178 H199 0.930 . S
C179 O190 1.275 . S
C179 O191 1.256 . S
O180 Ho160 2.322 . S
O180 C162 1.259 . S
O181 Ho161 2.346 . S
O181 C162 1.268 . S
O182 Ho160 2.378 . S
O182 C163 1.215 . S
O183 Ho160 2.524 . S
O183 C163 1.289 . S
O184 Ho160 2.381 . S
O184 C170 1.275 . S
O185 Ho160 2.669 . S
O185 Ho161 2.305 . S
O185 C170 1.256 . S
O186 Ho161 2.322 . S
O186 C171 1.259 . S
O187 Ho160 2.346 . S
O187 C171 1.268 . S
O188 Ho161 2.378 . S
O188 C172 1.215 . S
O189 Ho161 2.524 . S
O189 C172 1.289 . S
O190 Ho161 2.381 . S
O190 C179 1.275 . S
O191 Ho160 2.305 . S
O191 Ho161 2.669 . S
O191 C179 1.256 . S
H192 C165 0.930 . S
H193 C166 0.931 . S
H194 C168 0.934 . S
H195 C169 0.930 . S
H196 C174 0.930 . S
H197 C175 0.931 . S
H198 C177 0.934 . S
H199 C178 0.930 . S
Ho200 C203 2.811 . S
Ho200 O220 2.322 . S
Ho200 O222 2.378 . S
Ho200 O223 2.524 . S
Ho200 O224 2.381 . S
Ho200 O225 2.669 . S
Ho200 O227 2.346 1_655 S
Ho200 O231 2.305 1_655 S
Ho201 C212 2.811 . S
Ho201 O221 2.346 1_455 S
Ho201 O225 2.305 1_455 S
Ho201 O226 2.322 . S
Ho201 O228 2.378 . S
Ho201 O229 2.524 . S
Ho201 O230 2.381 . S
Ho201 O231 2.669 . S
C202 O220 1.259 . S
C202 O221 1.268 . S
C203 Ho200 2.811 . S
C203 C204 1.488 . S
C203 O222 1.215 . S
C203 O223 1.289 . S
C204 C203 1.488 . S
C204 C205 1.348 . S
C204 C209 1.413 . S
C205 C204 1.348 . S
C205 C206 1.442 . S
C205 H232 0.930 . S
C206 C205 1.442 . S
C206 C207 1.381 . S
C206 H233 0.931 . S
C207 C206 1.381 . S
C207 C208 1.321 . S
C208 C207 1.321 . S
C208 C209 1.403 . S
C208 H234 0.934 . S
C209 C204 1.413 . S
C209 C208 1.403 . S
C209 H235 0.930 . S
C210 O224 1.275 . S
C210 O225 1.256 . S
C211 O226 1.259 . S
C211 O227 1.268 . S
C212 Ho201 2.811 . S
C212 C213 1.488 . S
C212 O228 1.215 . S
C212 O229 1.289 . S
C213 C212 1.488 . S
C213 C214 1.348 . S
C213 C218 1.413 . S
C214 C213 1.348 . S
C214 C215 1.442 . S
C214 H236 0.930 . S
C215 C214 1.442 . S
C215 C216 1.381 . S
C215 H237 0.931 . S
C216 C215 1.381 . S
C216 C217 1.321 . S
C217 C216 1.321 . S
C217 C218 1.403 . S
C217 H238 0.934 . S
C218 C213 1.413 . S
C218 C217 1.403 . S
C218 H239 0.930 . S
C219 O230 1.275 . S
C219 O231 1.256 . S
O220 Ho200 2.322 . S
O220 C202 1.259 . S
O221 Ho201 2.346 1_655 S
O221 C202 1.268 . S
O222 Ho200 2.378 . S
O222 C203 1.215 . S
O223 Ho200 2.524 . S
O223 C203 1.289 . S
O224 Ho200 2.381 . S
O224 C210 1.275 . S
O225 Ho200 2.669 . S
O225 Ho201 2.305 1_655 S
O225 C210 1.256 . S
O226 Ho201 2.322 . S
O226 C211 1.259 . S
O227 Ho200 2.346 1_455 S
O227 C211 1.268 . S
O228 Ho201 2.378 . S
O228 C212 1.215 . S
O229 Ho201 2.524 . S
O229 C212 1.289 . S
O230 Ho201 2.381 . S
O230 C219 1.275 . S
O231 Ho200 2.305 1_455 S
O231 Ho201 2.669 . S
O231 C219 1.256 . S
H232 C205 0.930 . S
H233 C206 0.931 . S
H234 C208 0.934 . S
H235 C209 0.930 . S
H236 C214 0.930 . S
H237 C215 0.931 . S
H238 C217 0.934 . S
H239 C218 0.930 . S
Ho240 C243 2.811 . S
Ho240 O260 2.322 . S
Ho240 O262 2.378 . S
Ho240 O263 2.524 . S
Ho240 O264 2.381 . S
Ho240 O265 2.669 . S
Ho240 O267 2.346 1_554 S
Ho240 O271 2.305 1_554 S
Ho241 C252 2.811 . S
Ho241 O261 2.346 1_556 S
Ho241 O265 2.305 1_556 S
Ho241 O266 2.322 . S
Ho241 O268 2.378 . S
Ho241 O269 2.524 . S
Ho241 O270 2.381 . S
Ho241 O271 2.669 . S
C242 O260 1.259 . S
C242 O261 1.268 . S
C243 Ho240 2.811 . S
C243 C244 1.488 . S
C243 O262 1.215 . S
C243 O263 1.289 . S
C244 C243 1.488 . S
C244 C245 1.348 . S
C244 C249 1.413 . S
C245 C244 1.348 . S
C245 C246 1.442 . S
C245 H272 0.930 . S
C246 C245 1.442 . S
C246 C247 1.381 . S
C246 H273 0.931 . S
C247 C246 1.381 . S
C247 C248 1.321 . S
C248 C247 1.321 . S
C248 C249 1.403 . S
C248 H274 0.934 . S
C249 C244 1.413 . S
C249 C248 1.403 . S
C249 H275 0.930 . S
C250 O264 1.275 . S
C250 O265 1.256 . S
C251 O266 1.259 . S
C251 O267 1.268 . S
C252 Ho241 2.811 . S
C252 C253 1.488 . S
C252 O268 1.215 . S
C252 O269 1.289 . S
C253 C252 1.488 . S
C253 C254 1.348 . S
C253 C258 1.413 . S
C254 C253 1.348 . S
C254 C255 1.442 . S
C254 H276 0.930 . S
C255 C254 1.442 . S
C255 C256 1.381 . S
C255 H277 0.931 . S
C256 C255 1.381 . S
C256 C257 1.321 . S
C257 C256 1.321 . S
C257 C258 1.403 . S
C257 H278 0.934 . S
C258 C253 1.413 . S
C258 C257 1.403 . S
C258 H279 0.930 . S
C259 O270 1.275 . S
C259 O271 1.256 . S
O260 Ho240 2.322 . S
O260 C242 1.259 . S
O261 Ho241 2.346 1_554 S
O261 C242 1.268 . S
O262 Ho240 2.378 . S
O262 C243 1.215 . S
O263 Ho240 2.524 . S
O263 C243 1.289 . S
O264 Ho240 2.381 . S
O264 C250 1.275 . S
O265 Ho240 2.669 . S
O265 Ho241 2.305 1_554 S
O265 C250 1.256 . S
O266 Ho241 2.322 . S
O266 C251 1.259 . S
O267 Ho240 2.346 1_556 S
O267 C251 1.268 . S
O268 Ho241 2.378 . S
O268 C252 1.215 . S
O269 Ho241 2.524 . S
O269 C252 1.289 . S
O270 Ho241 2.381 . S
O270 C259 1.275 . S
O271 Ho240 2.305 1_556 S
O271 Ho241 2.669 . S
O271 C259 1.256 . S
H272 C245 0.930 . S
H273 C246 0.931 . S
H274 C248 0.934 . S
H275 C249 0.930 . S
H276 C254 0.930 . S
H277 C255 0.931 . S
H278 C257 0.934 . S
H279 C258 0.930 . S
Ho280 C283 2.811 . S
Ho280 O300 2.322 . S
Ho280 O302 2.378 . S
Ho280 O303 2.524 . S
Ho280 O304 2.381 . S
Ho280 O305 2.669 . S
Ho280 O307 2.346 . S
Ho280 O311 2.305 . S
Ho281 C292 2.811 . S
Ho281 O301 2.346 . S
Ho281 O305 2.305 . S
Ho281 O306 2.322 . S
Ho281 O308 2.378 . S
Ho281 O309 2.524 . S
Ho281 O310 2.381 . S
Ho281 O311 2.669 . S
C282 O300 1.259 . S
C282 O301 1.268 . S
C283 Ho280 2.811 . S
C283 C284 1.488 . S
C283 O302 1.215 . S
C283 O303 1.289 . S
C284 C283 1.488 . S
C284 C285 1.348 . S
C284 C289 1.413 . S
C285 C284 1.348 . S
C285 C286 1.442 . S
C285 H312 0.930 . S
C286 C285 1.442 . S
C286 C287 1.381 . S
C286 H313 0.931 . S
C287 C286 1.381 . S
C287 C288 1.321 . S
C288 C287 1.321 . S
C288 C289 1.403 . S
C288 H314 0.934 . S
C289 C284 1.413 . S
C289 C288 1.403 . S
C289 H315 0.930 . S
C290 O304 1.275 . S
C290 O305 1.256 . S
C291 O306 1.259 . S
C291 O307 1.268 . S
C292 Ho281 2.811 . S
C292 C293 1.488 . S
C292 O308 1.215 . S
C292 O309 1.289 . S
C293 C292 1.488 . S
C293 C294 1.348 . S
C293 C298 1.413 . S
C294 C293 1.348 . S
C294 C295 1.442 . S
C294 H316 0.930 . S
C295 C294 1.442 . S
C295 C296 1.381 . S
C295 H317 0.931 . S
C296 C295 1.381 . S
C296 C297 1.321 . S
C297 C296 1.321 . S
C297 C298 1.403 . S
C297 H318 0.934 . S
C298 C293 1.413 . S
C298 C297 1.403 . S
C298 H319 0.930 . S
C299 O310 1.275 . S
C299 O311 1.256 . S
O300 Ho280 2.322 . S
O300 C282 1.259 . S
O301 Ho281 2.346 . S
O301 C282 1.268 . S
O302 Ho280 2.378 . S
O302 C283 1.215 . S
O303 Ho280 2.524 . S
O303 C283 1.289 . S
O304 Ho280 2.381 . S
O304 C290 1.275 . S
O305 Ho280 2.669 . S
O305 Ho281 2.305 . S
O305 C290 1.256 . S
O306 Ho281 2.322 . S
O306 C291 1.259 . S
O307 Ho280 2.346 . S
O307 C291 1.268 . S
O308 Ho281 2.378 . S
O308 C292 1.215 . S
O309 Ho281 2.524 . S
O309 C292 1.289 . S
O310 Ho281 2.381 . S
O310 C299 1.275 . S
O311 Ho280 2.305 . S
O311 Ho281 2.669 . S
O311 C299 1.256 . S
H312 C285 0.930 . S
H313 C286 0.931 . S
H314 C288 0.934 . S
H315 C289 0.930 . S
H316 C294 0.930 . S
H317 C295 0.931 . S
H318 C297 0.934 . S
H319 C298 0.930 . S
Ho320 C323 2.811 . S
Ho320 O340 2.322 . S
Ho320 O342 2.378 . S
Ho320 O343 2.524 . S
Ho320 O344 2.381 . S
Ho320 O345 2.669 . S
Ho320 O347 2.346 . S
Ho320 O351 2.305 . S
Ho321 C332 2.811 . S
Ho321 O341 2.346 . S
Ho321 O345 2.305 . S
Ho321 O346 2.322 . S
Ho321 O348 2.378 . S
Ho321 O349 2.524 . S
Ho321 O350 2.381 . S
Ho321 O351 2.669 . S
C322 O340 1.259 . S
C322 O341 1.268 . S
C323 Ho320 2.811 . S
C323 C324 1.488 . S
C323 O342 1.215 . S
C323 O343 1.289 . S
C324 C323 1.488 . S
C324 C325 1.348 . S
C324 C329 1.413 . S
C325 C324 1.348 . S
C325 C326 1.442 . S
C325 H352 0.930 . S
C326 C325 1.442 . S
C326 C327 1.381 . S
C326 H353 0.931 . S
C327 C326 1.381 . S
C327 C328 1.321 . S
C328 C327 1.321 . S
C328 C329 1.403 . S
C328 H354 0.934 . S
C329 C324 1.413 . S
C329 C328 1.403 . S
C329 H355 0.930 . S
C330 O344 1.275 . S
C330 O345 1.256 . S
C331 O346 1.259 . S
C331 O347 1.268 . S
C332 Ho321 2.811 . S
C332 C333 1.488 . S
C332 O348 1.215 . S
C332 O349 1.289 . S
C333 C332 1.488 . S
C333 C334 1.348 . S
C333 C338 1.413 . S
C334 C333 1.348 . S
C334 C335 1.442 . S
C334 H356 0.930 . S
C335 C334 1.442 . S
C335 C336 1.381 . S
C335 H357 0.931 . S
C336 C335 1.381 . S
C336 C337 1.321 . S
C337 C336 1.321 . S
C337 C338 1.403 . S
C337 H358 0.934 . S
C338 C333 1.413 . S
C338 C337 1.403 . S
C338 H359 0.930 . S
C339 O350 1.275 . S
C339 O351 1.256 . S
O340 Ho320 2.322 . S
O340 C322 1.259 . S
O341 Ho321 2.346 . S
O341 C322 1.268 . S
O342 Ho320 2.378 . S
O342 C323 1.215 . S
O343 Ho320 2.524 . S
O343 C323 1.289 . S
O344 Ho320 2.381 . S
O344 C330 1.275 . S
O345 Ho320 2.669 . S
O345 Ho321 2.305 . S
O345 C330 1.256 . S
O346 Ho321 2.322 . S
O346 C331 1.259 . S
O347 Ho320 2.346 . S
O347 C331 1.268 . S
O348 Ho321 2.378 . S
O348 C332 1.215 . S
O349 Ho321 2.524 . S
O349 C332 1.289 . S
O350 Ho321 2.381 . S
O350 C339 1.275 . S
O351 Ho320 2.305 . S
O351 Ho321 2.669 . S
O351 C339 1.256 . S
H352 C325 0.930 . S
H353 C326 0.931 . S
H354 C328 0.934 . S
H355 C329 0.930 . S
H356 C334 0.930 . S
H357 C335 0.931 . S
H358 C337 0.934 . S
H359 C338 0.930 . S
Ho360 C363 2.811 . S
Ho360 O380 2.322 1_565 S
Ho360 O382 2.378 . S
Ho360 O383 2.524 . S
Ho360 O384 2.381 1_565 S
Ho360 O385 2.669 1_565 S
Ho360 O387 2.346 . S
Ho360 O391 2.305 . S
Ho361 C372 2.811 . S
Ho361 O381 2.346 . S
Ho361 O385 2.305 . S
Ho361 O386 2.322 1_545 S
Ho361 O388 2.378 . S
Ho361 O389 2.524 . S
Ho361 O390 2.381 1_545 S
Ho361 O391 2.669 1_545 S
C362 O380 1.259 . S
C362 O381 1.268 . S
C363 Ho360 2.811 . S
C363 C364 1.488 . S
C363 O382 1.215 . S
C363 O383 1.289 . S
C364 C363 1.488 . S
C364 C365 1.348 . S
C364 C369 1.413 . S
C365 C364 1.348 . S
C365 C366 1.442 . S
C365 H392 0.930 . S
C366 C365 1.442 . S
C366 C367 1.381 . S
C366 H393 0.931 . S
C367 C366 1.381 . S
C367 C368 1.321 . S
C368 C367 1.321 . S
C368 C369 1.403 . S
C368 H394 0.934 . S
C369 C364 1.413 . S
C369 C368 1.403 . S
C369 H395 0.930 . S
C370 O384 1.275 . S
C370 O385 1.256 . S
C371 O386 1.259 . S
C371 O387 1.268 . S
C372 Ho361 2.811 . S
C372 C373 1.488 . S
C372 O388 1.215 . S
C372 O389 1.289 . S
C373 C372 1.488 . S
C373 C374 1.348 . S
C373 C378 1.413 . S
C374 C373 1.348 . S
C374 C375 1.442 . S
C374 H396 0.930 . S
C375 C374 1.442 . S
C375 C376 1.381 . S
C375 H397 0.931 . S
C376 C375 1.381 . S
C376 C377 1.321 . S
C377 C376 1.321 . S
C377 C378 1.403 . S
C377 H398 0.934 . S
C378 C373 1.413 . S
C378 C377 1.403 . S
C378 H399 0.930 . S
C379 O390 1.275 . S
C379 O391 1.256 . S
O380 Ho360 2.322 1_545 S
O380 C362 1.259 . S
O381 Ho361 2.346 . S
O381 C362 1.268 . S
O382 Ho360 2.378 . S
O382 C363 1.215 . S
O383 Ho360 2.524 . S
O383 C363 1.289 . S
O384 Ho360 2.381 1_545 S
O384 C370 1.275 . S
O385 Ho360 2.669 1_545 S
O385 Ho361 2.305 . S
O385 C370 1.256 . S
O386 Ho361 2.322 1_565 S
O386 C371 1.259 . S
O387 Ho360 2.346 . S
O387 C371 1.268 . S
O388 Ho361 2.378 . S
O388 C372 1.215 . S
O389 Ho361 2.524 . S
O389 C372 1.289 . S
O390 Ho361 2.381 1_565 S
O390 C379 1.275 . S
O391 Ho360 2.305 . S
O391 Ho361 2.669 1_565 S
O391 C379 1.256 . S
H392 C365 0.930 . S
H393 C366 0.931 . S
H394 C368 0.934 . S
H395 C369 0.930 . S
H396 C374 0.930 . S
H397 C375 0.931 . S
H398 C377 0.934 . S
H399 C378 0.930 . S
Ho400 C403 2.811 . S
Ho400 O420 2.322 . S
Ho400 O422 2.378 . S
Ho400 O423 2.524 . S
Ho400 O424 2.381 . S
Ho400 O425 2.669 . S
Ho400 O427 2.346 1_565 S
Ho400 O431 2.305 1_565 S
Ho401 C412 2.811 . S
Ho401 O421 2.346 1_545 S
Ho401 O425 2.305 1_545 S
Ho401 O426 2.322 . S
Ho401 O428 2.378 . S
Ho401 O429 2.524 . S
Ho401 O430 2.381 . S
Ho401 O431 2.669 . S
C402 O420 1.259 . S
C402 O421 1.268 . S
C403 Ho400 2.811 . S
C403 C404 1.488 . S
C403 O422 1.215 . S
C403 O423 1.289 . S
C404 C403 1.488 . S
C404 C405 1.348 . S
C404 C409 1.413 . S
C405 C404 1.348 . S
C405 C406 1.442 . S
C405 H432 0.930 . S
C406 C405 1.442 . S
C406 C407 1.381 . S
C406 H433 0.931 . S
C407 C406 1.381 . S
C407 C408 1.321 . S
C408 C407 1.321 . S
C408 C409 1.403 . S
C408 H434 0.934 . S
C409 C404 1.413 . S
C409 C408 1.403 . S
C409 H435 0.930 . S
C410 O424 1.275 . S
C410 O425 1.256 . S
C411 O426 1.259 . S
C411 O427 1.268 . S
C412 Ho401 2.811 . S
C412 C413 1.488 . S
C412 O428 1.215 . S
C412 O429 1.289 . S
C413 C412 1.488 . S
C413 C414 1.348 . S
C413 C418 1.413 . S
C414 C413 1.348 . S
C414 C415 1.442 . S
C414 H436 0.930 . S
C415 C414 1.442 . S
C415 C416 1.381 . S
C415 H437 0.931 . S
C416 C415 1.381 . S
C416 C417 1.321 . S
C417 C416 1.321 . S
C417 C418 1.403 . S
C417 H438 0.934 . S
C418 C413 1.413 . S
C418 C417 1.403 . S
C418 H439 0.930 . S
C419 O430 1.275 . S
C419 O431 1.256 . S
O420 Ho400 2.322 . S
O420 C402 1.259 . S
O421 Ho401 2.346 1_565 S
O421 C402 1.268 . S
O422 Ho400 2.378 . S
O422 C403 1.215 . S
O423 Ho400 2.524 . S
O423 C403 1.289 . S
O424 Ho400 2.381 . S
O424 C410 1.275 . S
O425 Ho400 2.669 . S
O425 Ho401 2.305 1_565 S
O425 C410 1.256 . S
O426 Ho401 2.322 . S
O426 C411 1.259 . S
O427 Ho400 2.346 1_545 S
O427 C411 1.268 . S
O428 Ho401 2.378 . S
O428 C412 1.215 . S
O429 Ho401 2.524 . S
O429 C412 1.289 . S
O430 Ho401 2.381 . S
O430 C419 1.275 . S
O431 Ho400 2.305 1_545 S
O431 Ho401 2.669 . S
O431 C419 1.256 . S
H432 C405 0.930 . S
H433 C406 0.931 . S
H434 C408 0.934 . S
H435 C409 0.930 . S
H436 C414 0.930 . S
H437 C415 0.931 . S
H438 C417 0.934 . S
H439 C418 0.930 . S
Ho440 C443 2.811 . S
Ho440 O460 2.322 . S
Ho440 O462 2.378 . S
Ho440 O463 2.524 . S
Ho440 O464 2.381 . S
Ho440 O465 2.669 . S
Ho440 O467 2.346 . S
Ho440 O471 2.305 . S
Ho441 C452 2.811 . S
Ho441 O461 2.346 . S
Ho441 O465 2.305 . S
Ho441 O466 2.322 . S
Ho441 O468 2.378 . S
Ho441 O469 2.524 . S
Ho441 O470 2.381 . S
Ho441 O471 2.669 . S
C442 O460 1.259 . S
C442 O461 1.268 . S
C443 Ho440 2.811 . S
C443 C444 1.488 . S
C443 O462 1.215 . S
C443 O463 1.289 . S
C444 C443 1.488 . S
C444 C445 1.348 . S
C444 C449 1.413 . S
C445 C444 1.348 . S
C445 C446 1.442 . S
C445 H472 0.930 . S
C446 C445 1.442 . S
C446 C447 1.381 . S
C446 H473 0.931 . S
C447 C446 1.381 . S
C447 C448 1.321 . S
C448 C447 1.321 . S
C448 C449 1.403 . S
C448 H474 0.934 . S
C449 C444 1.413 . S
C449 C448 1.403 . S
C449 H475 0.930 . S
C450 O464 1.275 . S
C450 O465 1.256 . S
C451 O466 1.259 . S
C451 O467 1.268 . S
C452 Ho441 2.811 . S
C452 C453 1.488 . S
C452 O468 1.215 . S
C452 O469 1.289 . S
C453 C452 1.488 . S
C453 C454 1.348 . S
C453 C458 1.413 . S
C454 C453 1.348 . S
C454 C455 1.442 . S
C454 H476 0.930 . S
C455 C454 1.442 . S
C455 C456 1.381 . S
C455 H477 0.931 . S
C456 C455 1.381 . S
C456 C457 1.321 . S
C457 C456 1.321 . S
C457 C458 1.403 . S
C457 H478 0.934 . S
C458 C453 1.413 . S
C458 C457 1.403 . S
C458 H479 0.930 . S
C459 O470 1.275 . S
C459 O471 1.256 . S
O460 Ho440 2.322 . S
O460 C442 1.259 . S
O461 Ho441 2.346 . S
O461 C442 1.268 . S
O462 Ho440 2.378 . S
O462 C443 1.215 . S
O463 Ho440 2.524 . S
O463 C443 1.289 . S
O464 Ho440 2.381 . S
O464 C450 1.275 . S
O465 Ho440 2.669 . S
O465 Ho441 2.305 . S
O465 C450 1.256 . S
O466 Ho441 2.322 . S
O466 C451 1.259 . S
O467 Ho440 2.346 . S
O467 C451 1.268 . S
O468 Ho441 2.378 . S
O468 C452 1.215 . S
O469 Ho441 2.524 . S
O469 C452 1.289 . S
O470 Ho441 2.381 . S
O470 C459 1.275 . S
O471 Ho440 2.305 . S
O471 Ho441 2.669 . S
O471 C459 1.256 . S
H472 C445 0.930 . S
H473 C446 0.931 . S
H474 C448 0.934 . S
H475 C449 0.930 . S
H476 C454 0.930 . S
H477 C455 0.931 . S
H478 C457 0.934 . S
H479 C458 0.930 . S
C480 C481 1.363 . S
C480 C486 1.379 . S
C480 N488 1.356 . S
C481 C480 1.363 . S
C481 C487 1.363 . S
C482 C483 1.363 . S
C482 C487 1.379 . S
C482 N489 1.356 . S
C483 C482 1.363 . S
C483 C486 1.363 . S
N484 C486 1.356 . S
N484 H496 0.984 . S
N484 H497 0.985 . S
N485 C487 1.356 . S
N485 H490 0.984 . S
N485 H491 0.985 . S
C486 C480 1.379 . S
C486 C483 1.363 . S
C486 N484 1.356 . S
C487 C481 1.363 . S
C487 C482 1.379 . S
C487 N485 1.356 . S
N488 C480 1.356 . S
N488 H494 0.984 . S
N488 H495 0.984 . S
N489 C482 1.356 . S
N489 H492 0.984 . S
N489 H493 0.985 . S
H490 N485 0.984 . S
H491 N485 0.985 . S
H492 N489 0.984 . S
H493 N489 0.985 . S
H494 N488 0.984 . S
H495 N488 0.984 . S
H496 N484 0.984 . S
H497 N484 0.985 . S
C498 C499 1.363 . S
C498 C504 1.379 . S
C498 N506 1.356 . S
C499 C498 1.363 . S
C499 C505 1.363 . S
C500 C501 1.363 . S
C500 C505 1.379 . S
C500 N507 1.356 . S
C501 C500 1.363 . S
C501 C504 1.363 . S
N502 C504 1.356 . S
N502 H514 0.984 . S
N502 H515 0.985 . S
N503 C505 1.356 . S
N503 H508 0.984 . S
N503 H509 0.985 . S
C504 C498 1.379 . S
C504 C501 1.363 . S
C504 N502 1.356 . S
C505 C499 1.363 . S
C505 C500 1.379 . S
C505 N503 1.356 . S
N506 C498 1.356 . S
N506 H512 0.984 . S
N506 H513 0.984 . S
N507 C500 1.356 . S
N507 H510 0.984 . S
N507 H511 0.985 . S
H508 N503 0.984 . S
H509 N503 0.985 . S
H510 N507 0.984 . S
H511 N507 0.985 . S
H512 N506 0.984 . S
H513 N506 0.984 . S
H514 N502 0.984 . S
H515 N502 0.985 . S
C516 C517 1.363 . S
C516 C522 1.379 . S
C516 N524 1.356 1_554 S
C517 C516 1.363 . S
C517 C523 1.363 . S
C518 C519 1.363 . S
C518 C523 1.379 . S
C518 N525 1.356 . S
C519 C518 1.363 . S
C519 C522 1.363 . S
N520 C522 1.356 . S
N520 H532 0.984 1_554 S
N520 H533 0.985 . S
N521 C523 1.356 . S
N521 H526 0.984 . S
N521 H527 0.985 . S
C522 C516 1.379 . S
C522 C519 1.363 . S
C522 N520 1.356 . S
C523 C517 1.363 . S
C523 C518 1.379 . S
C523 N521 1.356 . S
N524 C516 1.356 1_556 S
N524 H530 0.984 . S
N524 H531 0.984 . S
N525 C518 1.356 . S
N525 H528 0.984 . S
N525 H529 0.985 . S
H526 N521 0.984 . S
H527 N521 0.985 . S
H528 N525 0.984 . S
H529 N525 0.985 . S
H530 N524 0.984 . S
H531 N524 0.984 . S
H532 N520 0.984 1_556 S
H533 N520 0.985 . S
C534 C535 1.363 . S
C534 C540 1.379 . S
C534 N542 1.356 . S
C535 C534 1.363 . S
C535 C541 1.363 . S
C536 C537 1.363 . S
C536 C541 1.379 . S
C536 N543 1.356 . S
C537 C536 1.363 . S
C537 C540 1.363 . S
N538 C540 1.356 . S
N538 H550 0.984 . S
N538 H551 0.985 . S
N539 C541 1.356 . S
N539 H544 0.984 . S
N539 H545 0.985 . S
C540 C534 1.379 . S
C540 C537 1.363 . S
C540 N538 1.356 . S
C541 C535 1.363 . S
C541 C536 1.379 . S
C541 N539 1.356 . S
N542 C534 1.356 . S
N542 H548 0.984 . S
N542 H549 0.984 . S
N543 C536 1.356 . S
N543 H546 0.984 . S
N543 H547 0.985 . S
H544 N539 0.984 . S
H545 N539 0.985 . S
H546 N543 0.984 . S
H547 N543 0.985 . S
H548 N542 0.984 . S
H549 N542 0.984 . S
H550 N538 0.984 . S
H551 N538 0.985 . S
C552 C553 1.363 . S
C552 C558 1.379 . S
C552 N560 1.356 . S
C553 C552 1.363 . S
C553 C559 1.363 . S
C554 C555 1.363 . S
C554 C559 1.379 . S
C554 N561 1.356 . S
C555 C554 1.363 . S
C555 C558 1.363 . S
N556 C558 1.356 . S
N556 H568 0.984 . S
N556 H569 0.985 . S
N557 C559 1.356 . S
N557 H562 0.984 . S
N557 H563 0.985 . S
C558 C552 1.379 . S
C558 C555 1.363 . S
C558 N556 1.356 . S
C559 C553 1.363 . S
C559 C554 1.379 . S
C559 N557 1.356 . S
N560 C552 1.356 . S
N560 H566 0.984 . S
N560 H567 0.984 . S
N561 C554 1.356 . S
N561 H564 0.984 . S
N561 H565 0.985 . S
H562 N557 0.984 . S
H563 N557 0.985 . S
H564 N561 0.984 . S
H565 N561 0.985 . S
H566 N560 0.984 . S
H567 N560 0.984 . S
H568 N556 0.984 . S
H569 N556 0.985 . S
C570 C571 1.363 . S
C570 C576 1.379 . S
C570 N578 1.356 . S
C571 C570 1.363 . S
C571 C577 1.363 . S
C572 C573 1.363 . S
C572 C577 1.379 . S
C572 N579 1.356 . S
C573 C572 1.363 . S
C573 C576 1.363 . S
N574 C576 1.356 . S
N574 H586 0.984 . S
N574 H587 0.985 . S
N575 C577 1.356 . S
N575 H580 0.984 . S
N575 H581 0.985 . S
C576 C570 1.379 . S
C576 C573 1.363 . S
C576 N574 1.356 . S
C577 C571 1.363 . S
C577 C572 1.379 . S
C577 N575 1.356 . S
N578 C570 1.356 . S
N578 H584 0.984 . S
N578 H585 0.984 . S
N579 C572 1.356 . S
N579 H582 0.984 . S
N579 H583 0.985 . S
H580 N575 0.984 . S
H581 N575 0.985 . S
H582 N579 0.984 . S
H583 N579 0.985 . S
H584 N578 0.984 . S
H585 N578 0.984 . S
H586 N574 0.984 . S
H587 N574 0.985 . S
C588 C589 1.363 . S
C588 C594 1.379 . S
C588 N596 1.356 . S
C589 C588 1.363 . S
C589 C595 1.363 . S
C590 C591 1.363 . S
C590 C595 1.379 . S
C590 N597 1.356 . S
C591 C590 1.363 . S
C591 C594 1.363 . S
N592 C594 1.356 . S
N592 H604 0.984 . S
N592 H605 0.985 . S
N593 C595 1.356 . S
N593 H598 0.984 . S
N593 H599 0.985 . S
C594 C588 1.379 . S
C594 C591 1.363 . S
C594 N592 1.356 . S
C595 C589 1.363 . S
C595 C590 1.379 . S
C595 N593 1.356 . S
N596 C588 1.356 . S
N596 H602 0.984 . S
N596 H603 0.984 . S
N597 C590 1.356 . S
N597 H600 0.984 . S
N597 H601 0.985 . S
H598 N593 0.984 . S
H599 N593 0.985 . S
H600 N597 0.984 . S
H601 N597 0.985 . S
H602 N596 0.984 . S
H603 N596 0.984 . S
H604 N592 0.984 . S
H605 N592 0.985 . S
C606 C607 1.363 . S
C606 C612 1.379 . S
C606 N614 1.356 . S
C607 C606 1.363 . S
C607 C613 1.363 . S
C608 C609 1.363 . S
C608 C613 1.379 . S
C608 N615 1.356 . S
C609 C608 1.363 . S
C609 C612 1.363 . S
N610 C612 1.356 . S
N610 H622 0.984 . S
N610 H623 0.985 . S
N611 C613 1.356 . S
N611 H616 0.984 . S
N611 H617 0.985 . S
C612 C606 1.379 . S
C612 C609 1.363 . S
C612 N610 1.356 . S
C613 C607 1.363 . S
C613 C608 1.379 . S
C613 N611 1.356 . S
N614 C606 1.356 . S
N614 H620 0.984 . S
N614 H621 0.984 . S
N615 C608 1.356 . S
N615 H618 0.984 . S
N615 H619 0.985 . S
H616 N611 0.984 . S
H617 N611 0.985 . S
H618 N615 0.984 . S
H619 N615 0.985 . S
H620 N614 0.984 . S
H621 N614 0.984 . S
H622 N610 0.984 . S
H623 N610 0.985 . S
C624 C625 1.363 . S
C624 C630 1.379 . S
C624 N632 1.356 . S
C625 C624 1.363 . S
C625 C631 1.363 . S
C626 C627 1.363 . S
C626 C631 1.379 . S
C626 N633 1.356 . S
C627 C626 1.363 . S
C627 C630 1.363 . S
N628 C630 1.356 . S
N628 H640 0.984 . S
N628 H641 0.985 . S
N629 C631 1.356 . S
N629 H634 0.984 . S
N629 H635 0.985 . S
C630 C624 1.379 . S
C630 C627 1.363 . S
C630 N628 1.356 . S
C631 C625 1.363 . S
C631 C626 1.379 . S
C631 N629 1.356 . S
N632 C624 1.356 . S
N632 H638 0.984 . S
N632 H639 0.984 . S
N633 C626 1.356 . S
N633 H636 0.984 . S
N633 H637 0.985 . S
H634 N629 0.984 . S
H635 N629 0.985 . S
H636 N633 0.984 . S
H637 N633 0.985 . S
H638 N632 0.984 . S
H639 N632 0.984 . S
H640 N628 0.984 . S
H641 N628 0.985 . S
C642 C643 1.363 . S
C642 C648 1.379 . S
C642 N650 1.356 . S
C643 C642 1.363 . S
C643 C649 1.363 . S
C644 C645 1.363 . S
C644 C649 1.379 . S
C644 N651 1.356 . S
C645 C644 1.363 . S
C645 C648 1.363 . S
N646 C648 1.356 . S
N646 H658 0.984 1_455 S
N646 H659 0.985 . S
N647 C649 1.356 . S
N647 H652 0.984 . S
N647 H653 0.985 . S
C648 C642 1.379 . S
C648 C645 1.363 . S
C648 N646 1.356 . S
C649 C643 1.363 . S
C649 C644 1.379 . S
C649 N647 1.356 . S
N650 C642 1.356 . S
N650 H656 0.984 1_455 S
N650 H657 0.984 . S
N651 C644 1.356 . S
N651 H654 0.984 . S
N651 H655 0.985 . S
H652 N647 0.984 . S
H653 N647 0.985 . S
H654 N651 0.984 . S
H655 N651 0.985 . S
H656 N650 0.984 1_655 S
H657 N650 0.984 . S
H658 N646 0.984 1_655 S
H659 N646 0.985 . S
C660 C661 1.363 . S
C660 C666 1.379 . S
C660 N668 1.356 . S
C661 C660 1.363 . S
C661 C667 1.363 . S
C662 C663 1.363 . S
C662 C667 1.379 . S
C662 N669 1.356 . S
C663 C662 1.363 . S
C663 C666 1.363 . S
N664 C666 1.356 . S
N664 H676 0.984 . S
N664 H677 0.985 . S
N665 C667 1.356 1_455 S
N665 H670 0.984 . S
N665 H671 0.985 . S
C666 C660 1.379 . S
C666 C663 1.363 . S
C666 N664 1.356 . S
C667 C661 1.363 . S
C667 C662 1.379 . S
C667 N665 1.356 1_655 S
N668 C660 1.356 . S
N668 H674 0.984 . S
N668 H675 0.984 . S
N669 C662 1.356 . S
N669 H672 0.984 . S
N669 H673 0.985 1_655 S
H670 N665 0.984 . S
H671 N665 0.985 . S
H672 N669 0.984 . S
H673 N669 0.985 1_455 S
H674 N668 0.984 . S
H675 N668 0.984 . S
H676 N664 0.984 . S
H677 N664 0.985 . S
C678 C679 1.363 . S
C678 C684 1.379 . S
C678 N686 1.356 . S
C679 C678 1.363 . S
C679 C685 1.363 . S
C680 C681 1.363 . S
C680 C685 1.379 . S
C680 N687 1.356 . S
C681 C680 1.363 . S
C681 C684 1.363 . S
N682 C684 1.356 . S
N682 H694 0.984 . S
N682 H695 0.985 . S
N683 C685 1.356 . S
N683 H688 0.984 . S
N683 H689 0.985 . S
C684 C678 1.379 . S
C684 C681 1.363 . S
C684 N682 1.356 . S
C685 C679 1.363 . S
C685 C680 1.379 . S
C685 N683 1.356 . S
N686 C678 1.356 . S
N686 H692 0.984 . S
N686 H693 0.984 . S
N687 C680 1.356 . S
N687 H690 0.984 . S
N687 H691 0.985 . S
H688 N683 0.984 . S
H689 N683 0.985 . S
H690 N687 0.984 . S
H691 N687 0.985 . S
H692 N686 0.984 . S
H693 N686 0.984 . S
H694 N682 0.984 . S
H695 N682 0.985 . S
C696 C697 1.363 . S
C696 C702 1.379 . S
C696 N704 1.356 . S
C697 C696 1.363 . S
C697 C703 1.363 . S
C698 C699 1.363 . S
C698 C703 1.379 . S
C698 N705 1.356 . S
C699 C698 1.363 . S
C699 C702 1.363 . S
N700 C702 1.356 . S
N700 H712 0.984 . S
N700 H713 0.985 . S
N701 C703 1.356 . S
N701 H706 0.984 . S
N701 H707 0.985 . S
C702 C696 1.379 . S
C702 C699 1.363 . S
C702 N700 1.356 . S
C703 C697 1.363 . S
C703 C698 1.379 . S
C703 N701 1.356 . S
N704 C696 1.356 . S
N704 H710 0.984 . S
N704 H711 0.984 . S
N705 C698 1.356 . S
N705 H708 0.984 . S
N705 H709 0.985 . S
H706 N701 0.984 . S
H707 N701 0.985 . S
H708 N705 0.984 . S
H709 N705 0.985 . S
H710 N704 0.984 . S
H711 N704 0.984 . S
H712 N700 0.984 . S
H713 N700 0.985 . S
C714 C715 1.363 . S
C714 C720 1.379 . S
C714 N722 1.356 . S
C715 C714 1.363 . S
C715 C721 1.363 . S
C716 C717 1.363 . S
C716 C721 1.379 . S
C716 N723 1.356 . S
C717 C716 1.363 . S
C717 C720 1.363 . S
N718 C720 1.356 1_545 S
N718 H730 0.984 . S
N718 H731 0.985 . S
N719 C721 1.356 . S
N719 H724 0.984 . S
N719 H725 0.985 . S
C720 C714 1.379 . S
C720 C717 1.363 . S
C720 N718 1.356 1_565 S
C721 C715 1.363 . S
C721 C716 1.379 . S
C721 N719 1.356 . S
N722 C714 1.356 . S
N722 H728 0.984 1_565 S
N722 H729 0.984 . S
N723 C716 1.356 . S
N723 H726 0.984 . S
N723 H727 0.985 . S
H724 N719 0.984 . S
H725 N719 0.985 . S
H726 N723 0.984 . S
H727 N723 0.985 . S
H728 N722 0.984 1_545 S
H729 N722 0.984 . S
H730 N718 0.984 . S
H731 N718 0.985 . S
C732 C733 1.363 . S
C732 C738 1.379 . S
C732 N740 1.356 . S
C733 C732 1.363 . S
C733 C739 1.363 . S
C734 C735 1.363 . S
C734 C739 1.379 . S
C734 N741 1.356 . S
C735 C734 1.363 . S
C735 C738 1.363 . S
N736 C738 1.356 . S
N736 H748 0.984 . S
N736 H749 0.985 . S
N737 C739 1.356 . S
N737 H742 0.984 . S
N737 H743 0.985 . S
C738 C732 1.379 . S
C738 C735 1.363 . S
C738 N736 1.356 . S
C739 C733 1.363 . S
C739 C734 1.379 . S
C739 N737 1.356 . S
N740 C732 1.356 . S
N740 H746 0.984 . S
N740 H747 0.984 . S
N741 C734 1.356 . S
N741 H744 0.984 . S
N741 H745 0.985 . S
H742 N737 0.984 . S
H743 N737 0.985 . S
H744 N741 0.984 . S
H745 N741 0.985 . S
H746 N740 0.984 . S
H747 N740 0.984 . S
H748 N736 0.984 . S
H749 N736 0.985 . S
C750 C751 1.363 . S
C750 C756 1.379 1_554 S
C750 N758 1.356 . S
C751 C750 1.363 . S
C751 C757 1.363 1_554 S
C752 C753 1.363 . S
C752 C757 1.379 . S
C752 N759 1.356 . S
C753 C752 1.363 . S
C753 C756 1.363 . S
N754 C756 1.356 1_565 S
N754 H766 0.984 1_556 S
N754 H767 0.985 . S
N755 C757 1.356 . S
N755 H760 0.984 1_556 S
N755 H761 0.985 . S
C756 C750 1.379 1_556 S
C756 C753 1.363 . S
C756 N754 1.356 1_545 S
C757 C751 1.363 1_556 S
C757 C752 1.379 . S
C757 N755 1.356 . S
N758 C750 1.356 . S
N758 H764 0.984 . S
N758 H765 0.984 . S
N759 C752 1.356 . S
N759 H762 0.984 . S
N759 H763 0.985 . S
H760 N755 0.984 1_554 S
H761 N755 0.985 . S
H762 N759 0.984 . S
H763 N759 0.985 . S
H764 N758 0.984 . S
H765 N758 0.984 . S
H766 N754 0.984 1_554 S
H767 N754 0.985 . S
C768 C769 1.363 . S
C768 C774 1.379 . S
C768 N776 1.356 . S
C769 C768 1.363 . S
C769 C775 1.363 . S
C770 C771 1.363 . S
C770 C775 1.379 . S
C770 N777 1.356 . S
C771 C770 1.363 . S
C771 C774 1.363 . S
N772 C774 1.356 . S
N772 H784 0.984 1_545 S
N772 H785 0.985 . S
N773 C775 1.356 . S
N773 H778 0.984 . S
N773 H779 0.985 . S
C774 C768 1.379 . S
C774 C771 1.363 . S
C774 N772 1.356 . S
C775 C769 1.363 . S
C775 C770 1.379 . S
C775 N773 1.356 . S
N776 C768 1.356 . S
N776 H782 0.984 . S
N776 H783 0.984 . S
N777 C770 1.356 . S
N777 H780 0.984 . S
N777 H781 0.985 . S
H778 N773 0.984 . S
H779 N773 0.985 . S
H780 N777 0.984 . S
H781 N777 0.985 . S
H782 N776 0.984 . S
H783 N776 0.984 . S
H784 N772 0.984 1_565 S
H785 N772 0.985 . S
C786 C787 1.363 1_556 S
C786 C792 1.379 . S
C786 N794 1.356 1_556 S
C787 C786 1.363 1_554 S
C787 C793 1.363 1_554 S
C788 C789 1.363 . S
C788 C793 1.379 . S
C788 N795 1.356 . S
C789 C788 1.363 . S
C789 C792 1.363 . S
N790 C792 1.356 . S
N790 H802 0.984 . S
N790 H803 0.985 . S
N791 C793 1.356 1_554 S
N791 H796 0.984 . S
N791 H797 0.985 1_554 S
C792 C786 1.379 . S
C792 C789 1.363 . S
C792 N790 1.356 . S
C793 C787 1.363 1_556 S
C793 C788 1.379 . S
C793 N791 1.356 1_556 S
N794 C786 1.356 1_554 S
N794 H800 0.984 . S
N794 H801 0.984 . S
N795 C788 1.356 . S
N795 H798 0.984 . S
N795 H799 0.985 . S
H796 N791 0.984 . S
H797 N791 0.985 1_556 S
H798 N795 0.984 . S
H799 N795 0.985 . S
H800 N794 0.984 . S
H801 N794 0.984 . S
H802 N790 0.984 . S
H803 N790 0.985 . S
C804 C805 1.363 . S
C804 C810 1.379 . S
C804 N812 1.356 . S
C805 C804 1.363 . S
C805 C811 1.363 . S
C806 C807 1.363 . S
C806 C811 1.379 . S
C806 N813 1.356 . S
C807 C806 1.363 . S
C807 C810 1.363 . S
N808 C810 1.356 . S
N808 H820 0.984 . S
N808 H821 0.985 . S
N809 C811 1.356 . S
N809 H814 0.984 . S
N809 H815 0.985 . S
C810 C804 1.379 . S
C810 C807 1.363 . S
C810 N808 1.356 . S
C811 C805 1.363 . S
C811 C806 1.379 . S
C811 N809 1.356 . S
N812 C804 1.356 . S
N812 H818 0.984 . S
N812 H819 0.984 . S
N813 C806 1.356 . S
N813 H816 0.984 . S
N813 H817 0.985 . S
H814 N809 0.984 . S
H815 N809 0.985 . S
H816 N813 0.984 . S
H817 N813 0.985 . S
H818 N812 0.984 . S
H819 N812 0.984 . S
H820 N808 0.984 . S
H821 N808 0.985 . S
C822 C823 1.363 . S
C822 C828 1.379 . S
C822 N830 1.356 . S
C823 C822 1.363 . S
C823 C829 1.363 . S
C824 C825 1.363 . S
C824 C829 1.379 . S
C824 N831 1.356 . S
C825 C824 1.363 . S
C825 C828 1.363 . S
N826 C828 1.356 . S
N826 H838 0.984 . S
N826 H839 0.985 . S
N827 C829 1.356 . S
N827 H832 0.984 . S
N827 H833 0.985 . S
C828 C822 1.379 . S
C828 C825 1.363 . S
C828 N826 1.356 . S
C829 C823 1.363 . S
C829 C824 1.379 . S
C829 N827 1.356 . S
N830 C822 1.356 . S
N830 H836 0.984 . S
N830 H837 0.984 . S
N831 C824 1.356 . S
N831 H834 0.984 . S
N831 H835 0.985 . S
H832 N827 0.984 . S
H833 N827 0.985 . S
H834 N831 0.984 . S
H835 N831 0.985 . S
H836 N830 0.984 . S
H837 N830 0.984 . S
H838 N826 0.984 . S
H839 N826 0.985 . S
C840 C841 1.363 . S
C840 C846 1.379 . S
C840 N848 1.356 . S
C841 C840 1.363 . S
C841 C847 1.363 . S
C842 C843 1.363 . S
C842 C847 1.379 . S
C842 N849 1.356 . S
C843 C842 1.363 . S
C843 C846 1.363 . S
N844 C846 1.356 . S
N844 H856 0.984 . S
N844 H857 0.985 . S
N845 C847 1.356 . S
N845 H850 0.984 . S
N845 H851 0.985 . S
C846 C840 1.379 . S
C846 C843 1.363 . S
C846 N844 1.356 . S
C847 C841 1.363 . S
C847 C842 1.379 . S
C847 N845 1.356 . S
N848 C840 1.356 . S
N848 H854 0.984 . S
N848 H855 0.984 . S
N849 C842 1.356 . S
N849 H852 0.984 . S
N849 H853 0.985 . S
H850 N845 0.984 . S
H851 N845 0.985 . S
H852 N849 0.984 . S
H853 N849 0.985 . S
H854 N848 0.984 . S
H855 N848 0.984 . S
H856 N844 0.984 . S
H857 N844 0.985 . S
C858 C859 1.363 . S
C858 C864 1.379 . S
C858 N866 1.356 . S
C859 C858 1.363 . S
C859 C865 1.363 . S
C860 C861 1.363 1_545 S
C860 C865 1.379 . S
C860 N867 1.356 1_445 S
C861 C860 1.363 1_565 S
C861 C864 1.363 1_565 S
N862 C864 1.356 1_565 S
N862 H874 0.984 . S
N862 H875 0.985 . S
N863 C865 1.356 . S
N863 H868 0.984 . S
N863 H869 1.000 . S
C864 C858 1.379 . S
C864 C861 1.363 1_545 S
C864 N862 1.356 1_545 S
C865 C859 1.363 . S
C865 C860 1.379 . S
C865 N863 1.356 . S
N866 C858 1.356 . S
N866 H872 0.984 . S
N866 H873 0.984 . S
N867 C860 1.356 1_665 S
N867 H870 0.984 . S
N867 H871 0.985 1_565 S
H868 N863 0.984 . S
H869 N863 1.000 . S
H870 N867 0.984 . S
H871 N867 0.985 1_545 S
H872 N866 0.984 . S
H873 N866 0.984 . S
H874 N862 0.984 . S
H875 N862 0.985 . S
C876 C877 1.363 . S
C876 C882 1.379 . S
C876 N884 1.356 . S
C877 C876 1.363 . S
C877 C883 1.363 . S
C878 C879 1.363 . S
C878 C883 1.379 . S
C878 N885 1.356 1_556 S
C879 C878 1.363 . S
C879 C882 1.363 . S
N880 C882 1.356 . S
N880 H892 0.984 . S
N880 H893 0.985 . S
N881 C883 1.356 1_554 S
N881 H886 0.984 . S
N881 H887 0.985 . S
C882 C876 1.379 . S
C882 C879 1.363 . S
C882 N880 1.356 . S
C883 C877 1.363 . S
C883 C878 1.379 . S
C883 N881 1.356 1_556 S
N884 C876 1.356 . S
N884 H890 0.984 . S
N884 H891 0.984 . S
N885 C878 1.356 1_554 S
N885 H888 0.971 1_554 S
N885 H889 0.985 . S
H886 N881 0.984 . S
H887 N881 0.985 . S
H888 N885 0.971 1_556 S
H889 N885 0.985 . S
H890 N884 0.984 . S
H891 N884 0.984 . S
H892 N880 0.984 . S
H893 N880 0.985 . S
C894 C895 1.363 . S
C894 C900 1.379 1_545 S
C894 N902 1.356 . S
C895 C894 1.363 . S
C895 C901 1.363 . S
C896 C897 1.363 1_545 S
C896 C901 1.379 . S
C896 N903 1.356 1_545 S
C897 C896 1.363 1_565 S
C897 C900 1.363 . S
N898 C900 1.356 . S
N898 H910 0.984 . S
N898 H911 0.985 . S
N899 C901 1.356 . S
N899 H904 0.984 . S
N899 H905 0.985 . S
C900 C894 1.379 1_565 S
C900 C897 1.363 . S
C900 N898 1.356 . S
C901 C895 1.363 . S
C901 C896 1.379 . S
C901 N899 1.356 . S
N902 C894 1.356 . S
N902 H908 0.984 1_545 S
N902 H909 0.984 . S
N903 C896 1.356 1_565 S
N903 H906 0.984 . S
N903 H907 0.985 1_565 S
H904 N899 0.984 . S
H905 N899 0.985 . S
H906 N903 0.984 . S
H907 N903 0.985 1_545 S
H908 N902 0.984 1_565 S
H909 N902 0.984 . S
H910 N898 0.984 . S
H911 N898 0.985 . S
C912 C913 1.363 . S
C912 C918 1.379 . S
C912 N920 1.356 . S
C913 C912 1.363 . S
C913 C919 1.363 . S
C914 C915 1.363 . S
C914 C919 1.379 . S
C914 N921 1.356 . S
C915 C914 1.363 . S
C915 C918 1.363 . S
N916 C918 1.356 . S
N916 H928 0.984 . S
N916 H929 0.985 . S
N917 C919 1.356 . S
N917 H922 0.984 . S
N917 H923 0.985 . S
C918 C912 1.379 . S
C918 C915 1.363 . S
C918 N916 1.356 . S
C919 C913 1.363 . S
C919 C914 1.379 . S
C919 N917 1.356 . S
N920 C912 1.356 . S
N920 H926 0.984 . S
N920 H927 0.984 . S
N921 C914 1.356 . S
N921 H924 0.984 . S
N921 H925 0.985 . S
H922 N917 0.984 . S
H923 N917 0.985 . S
H924 N921 0.984 . S
H925 N921 0.985 . S
H926 N920 0.984 . S
H927 N920 0.984 . S
H928 N916 0.984 . S
H929 N916 0.985 . S
C930 C931 1.363 . S
C930 C936 1.379 . S
C930 N938 1.356 . S
C931 C930 1.363 . S
C931 C937 1.363 . S
C932 C933 1.363 . S
C932 C937 1.379 . S
C932 N939 1.356 . S
C933 C932 1.363 . S
C933 C936 1.363 . S
N934 C936 1.356 . S
N934 H946 0.984 . S
N934 H947 0.985 . S
N935 C937 1.356 . S
N935 H940 0.984 . S
N935 H941 0.985 . S
C936 C930 1.379 . S
C936 C933 1.363 . S
C936 N934 1.356 . S
C937 C931 1.363 . S
C937 C932 1.379 . S
C937 N935 1.356 . S
N938 C930 1.356 . S
N938 H944 0.984 . S
N938 H945 0.984 . S
N939 C932 1.356 . S
N939 H942 0.984 . S
N939 H943 0.985 . S
H940 N935 0.984 . S
H941 N935 0.985 . S
H942 N939 0.984 . S
H943 N939 0.985 . S
H944 N938 0.984 . S
H945 N938 0.984 . S
H946 N934 0.984 . S
H947 N934 0.985 . S
C948 C949 1.363 . S
C948 C954 1.379 . S
C948 N956 1.356 . S
C949 C948 1.363 . S
C949 C955 1.363 . S
C950 C951 1.363 . S
C950 C955 1.379 . S
C950 N957 1.356 . S
C951 C950 1.363 . S
C951 C954 1.363 . S
N952 C954 1.356 . S
N952 H964 0.984 . S
N952 H965 0.985 . S
N953 C955 1.356 . S
N953 H958 0.984 . S
N953 H959 0.985 . S
C954 C948 1.379 . S
C954 C951 1.363 . S
C954 N952 1.356 . S
C955 C949 1.363 . S
C955 C950 1.379 . S
C955 N953 1.356 . S
N956 C948 1.356 . S
N956 H962 0.984 . S
N956 H963 0.984 . S
N957 C950 1.356 . S
N957 H960 0.984 . S
N957 H961 0.985 . S
H958 N953 0.984 . S
H959 N953 0.985 . S
H960 N957 0.984 . S
H961 N957 0.985 . S
H962 N956 0.984 . S
H963 N956 0.984 . S
H964 N952 0.984 . S
H965 N952 0.985 . S
C966 C967 1.363 . S
C966 C972 1.379 . S
C966 N974 1.356 . S
C967 C966 1.363 . S
C967 C973 1.363 . S
C968 C969 1.363 . S
C968 C973 1.379 . S
C968 N975 1.356 . S
C969 C968 1.363 . S
C969 C972 1.363 . S
N970 C972 1.356 . S
N970 H982 0.984 . S
N970 H983 0.985 . S
N971 C973 1.356 . S
N971 H976 0.984 . S
N971 H977 0.985 . S
C972 C966 1.379 . S
C972 C969 1.363 . S
C972 N970 1.356 . S
C973 C967 1.363 . S
C973 C968 1.379 . S
C973 N971 1.356 . S
N974 C966 1.356 . S
N974 H980 0.984 . S
N974 H981 0.984 . S
N975 C968 1.356 . S
N975 H978 0.984 . S
N975 H979 0.985 . S
H976 N971 0.984 . S
H977 N971 0.985 . S
H978 N975 0.984 . S
H979 N975 0.985 . S
H980 N974 0.984 . S
H981 N974 0.984 . S
H982 N970 0.984 . S
H983 N970 0.985 . S
C984 C985 1.363 . S
C984 C990 1.379 . S
C984 N992 1.356 . S
C985 C984 1.363 . S
C985 C991 1.363 . S
C986 C987 1.363 . S
C986 C991 1.379 . S
C986 N993 1.356 . S
C987 C986 1.363 . S
C987 C990 1.363 . S
N988 C990 1.356 . S
N988 H1000 0.984 . S
N988 H1001 0.985 . S
N989 C991 1.356 . S
N989 H994 0.984 . S
N989 H995 0.985 . S
C990 C984 1.379 . S
C990 C987 1.363 . S
C990 N988 1.356 . S
C991 C985 1.363 . S
C991 C986 1.379 . S
C991 N989 1.356 . S
N992 C984 1.356 . S
N992 H998 0.984 . S
N992 H999 0.984 . S
N993 C986 1.356 . S
N993 H996 0.984 . S
N993 H997 0.985 . S
H994 N989 0.984 . S
H995 N989 0.985 . S
H996 N993 0.984 . S
H997 N993 0.985 . S
H998 N992 0.984 . S
H999 N992 0.984 . S
H1000 N988 0.984 . S
H1001 N988 0.985 . S
C1002 C1003 1.363 . S
C1002 C1008 1.379 . S
C1002 N1010 1.356 . S
C1003 C1002 1.363 . S
C1003 C1009 1.363 . S
C1004 C1005 1.363 . S
C1004 C1009 1.379 . S
C1004 N1011 1.356 . S
C1005 C1004 1.363 . S
C1005 C1008 1.363 . S
N1006 C1008 1.356 . S
N1006 H1018 0.984 . S
N1006 H1019 0.985 . S
N1007 C1009 1.356 . S
N1007 H1012 0.984 . S
N1007 H1013 0.985 . S
C1008 C1002 1.379 . S
C1008 C1005 1.363 . S
C1008 N1006 1.356 . S
C1009 C1003 1.363 . S
C1009 C1004 1.379 . S
C1009 N1007 1.356 . S
N1010 C1002 1.356 . S
N1010 H1016 0.984 . S
N1010 H1017 0.984 . S
N1011 C1004 1.356 . S
N1011 H1014 0.984 . S
N1011 H1015 0.985 . S
H1012 N1007 0.984 . S
H1013 N1007 0.985 . S
H1014 N1011 0.984 . S
H1015 N1011 0.985 . S
H1016 N1010 0.984 . S
H1017 N1010 0.984 . S
H1018 N1006 0.984 . S
H1019 N1006 0.985 . S
C1020 C1021 1.363 . S
C1020 C1026 1.379 1_455 S
C1020 N1028 1.356 . S
C1021 C1020 1.363 . S
C1021 C1027 1.363 . S
C1022 C1023 1.363 . S
C1022 C1027 1.379 1_655 S
C1022 N1029 1.356 1_554 S
C1023 C1022 1.363 . S
C1023 C1026 1.363 . S
N1024 C1026 1.356 . S
N1024 H1036 0.984 . S
N1024 H1037 0.985 . S
N1025 C1027 1.356 1_556 S
N1025 H1030 0.984 1_556 S
N1025 H1031 0.985 . S
C1026 C1020 1.379 1_655 S
C1026 C1023 1.363 . S
C1026 N1024 1.356 . S
C1027 C1021 1.363 . S
C1027 C1022 1.379 1_455 S
C1027 N1025 1.356 1_554 S
N1028 C1020 1.356 . S
N1028 H1034 0.984 . S
N1028 H1035 0.984 . S
N1029 C1022 1.356 1_556 S
N1029 H1032 0.984 . S
N1029 H1033 0.985 . S
H1030 N1025 0.984 1_554 S
H1031 N1025 0.985 . S
H1032 N1029 0.984 . S
H1033 N1029 0.985 . S
H1034 N1028 0.984 . S
H1035 N1028 0.984 . S
H1036 N1024 0.984 . S
H1037 N1024 0.985 . S
C1038 C1039 1.363 . S
C1038 C1044 1.379 . S
C1038 N1046 1.356 . S
C1039 C1038 1.363 . S
C1039 C1045 1.363 . S
C1040 C1041 1.363 . S
C1040 C1045 1.379 . S
C1040 N1047 1.356 . S
C1041 C1040 1.363 . S
C1041 C1044 1.363 . S
N1042 C1044 1.356 . S
N1042 H1054 0.984 . S
N1042 H1055 0.985 . S
N1043 C1045 1.356 . S
N1043 H1048 0.984 . S
N1043 H1049 0.985 . S
C1044 C1038 1.379 . S
C1044 C1041 1.363 . S
C1044 N1042 1.356 . S
C1045 C1039 1.363 . S
C1045 C1040 1.379 . S
C1045 N1043 1.356 . S
N1046 C1038 1.356 . S
N1046 H1052 0.984 . S
N1046 H1053 0.984 . S
N1047 C1040 1.356 . S
N1047 H1050 0.984 . S
N1047 H1051 0.985 . S
H1048 N1043 0.984 . S
H1049 N1043 0.985 . S
H1050 N1047 0.984 . S
H1051 N1047 0.985 . S
H1052 N1046 0.984 . S
H1053 N1046 0.984 . S
H1054 N1042 0.984 . S
H1055 N1042 0.985 . S
C1056 C1057 1.363 . S
C1056 C1062 1.379 . S
C1056 N1064 1.356 . S
C1057 C1056 1.363 . S
C1057 C1063 1.363 . S
C1058 C1059 1.363 . S
C1058 C1063 1.379 . S
C1058 N1065 1.356 . S
C1059 C1058 1.363 . S
C1059 C1062 1.363 . S
N1060 C1062 1.356 . S
N1060 H1072 0.984 . S
N1060 H1073 0.985 . S
N1061 C1063 1.356 . S
N1061 H1066 0.984 . S
N1061 H1067 0.985 . S
C1062 C1056 1.379 . S
C1062 C1059 1.363 . S
C1062 N1060 1.356 . S
C1063 C1057 1.363 . S
C1063 C1058 1.379 . S
C1063 N1061 1.356 . S
N1064 C1056 1.356 . S
N1064 H1070 0.984 . S
N1064 H1071 0.984 . S
N1065 C1058 1.356 . S
N1065 H1068 0.984 . S
N1065 H1069 0.985 . S
H1066 N1061 0.984 . S
H1067 N1061 0.985 . S
H1068 N1065 0.984 . S
H1069 N1065 0.985 . S
H1070 N1064 0.984 . S
H1071 N1064 0.984 . S
H1072 N1060 0.984 . S
H1073 N1060 0.985 . S
C1074 C1075 1.363 . S
C1074 C1080 1.379 . S
C1074 N1082 1.356 . S
C1075 C1074 1.363 . S
C1075 C1081 1.363 . S
C1076 C1077 1.363 . S
C1076 C1081 1.379 . S
C1076 N1083 1.356 . S
C1077 C1076 1.363 . S
C1077 C1080 1.363 . S
N1078 C1080 1.356 . S
N1078 H1090 0.984 . S
N1078 H1091 0.985 . S
N1079 C1081 1.358 1_655 S
N1079 H1084 0.985 1_655 S
N1079 H1085 0.982 . S
C1080 C1074 1.379 . S
C1080 C1077 1.363 . S
C1080 N1078 1.356 . S
C1081 C1075 1.363 . S
C1081 C1076 1.379 . S
C1081 N1079 1.358 1_455 S
N1082 C1074 1.356 . S
N1082 H1088 0.984 . S
N1082 H1089 0.984 . S
N1083 C1076 1.356 . S
N1083 H1086 0.984 . S
N1083 H1087 0.985 1_455 S
H1084 N1079 0.985 1_455 S
H1085 N1079 0.982 . S
H1086 N1083 0.984 . S
H1087 N1083 0.985 1_655 S
H1088 N1082 0.984 . S
H1089 N1082 0.984 . S
H1090 N1078 0.984 . S
H1091 N1078 0.985 . S
C1092 C1093 1.363 . S
C1092 C1098 1.379 . S
C1092 N1100 1.356 . S
C1093 C1092 1.363 . S
C1093 C1099 1.363 . S
C1094 C1095 1.363 . S
C1094 C1099 1.379 . S
C1094 N1101 1.356 . S
C1095 C1094 1.363 . S
C1095 C1098 1.363 . S
N1096 C1098 1.356 . S
N1096 H1108 0.984 . S
N1096 H1109 0.985 . S
N1097 C1099 1.356 . S
N1097 H1102 0.984 1_556 S
N1097 H1103 0.985 1_556 S
C1098 C1092 1.379 . S
C1098 C1095 1.363 . S
C1098 N1096 1.356 . S
C1099 C1093 1.363 . S
C1099 C1094 1.379 . S
C1099 N1097 1.356 . S
N1100 C1092 1.356 . S
N1100 H1106 0.984 . S
N1100 H1107 0.984 . S
N1101 C1094 1.356 . S
N1101 H1104 0.984 . S
N1101 H1105 0.985 . S
H1102 N1097 0.984 1_554 S
H1103 N1097 0.985 1_554 S
H1104 N1101 0.984 . S
H1105 N1101 0.985 . S
H1106 N1100 0.984 . S
H1107 N1100 0.984 . S
H1108 N1096 0.984 . S
H1109 N1096 0.985 . S
C1110 C1111 1.363 . S
C1110 C1116 1.379 . S
C1110 N1118 1.356 . S
C1111 C1110 1.363 . S
C1111 C1117 1.363 . S
C1112 C1113 1.363 1_655 S
C1112 C1117 1.379 . S
C1112 N1119 1.356 1_655 S
C1113 C1112 1.363 1_455 S
C1113 C1116 1.363 1_455 S
N1114 C1116 1.356 1_455 S
N1114 H1126 0.984 . S
N1114 H1127 0.985 . S
N1115 C1117 1.356 . S
N1115 H1120 0.984 . S
N1115 H1121 0.985 . S
C1116 C1110 1.379 . S
C1116 C1113 1.363 1_655 S
C1116 N1114 1.356 1_655 S
C1117 C1111 1.363 . S
C1117 C1112 1.379 . S
C1117 N1115 1.356 . S
N1118 C1110 1.356 . S
N1118 H1124 0.984 . S
N1118 H1125 0.984 . S
N1119 C1112 1.356 1_455 S
N1119 H1122 0.984 . S
N1119 H1123 0.985 . S
H1120 N1115 0.984 . S
H1121 N1115 0.985 . S
H1122 N1119 0.984 . S
H1123 N1119 0.985 . S
H1124 N1118 0.984 . S
H1125 N1118 0.984 . S
H1126 N1114 0.984 . S
H1127 N1114 0.985 . S
C481 C19 1.327 . S
C483 C459 1.323 . S
C499 C371 1.843 . S
C501 C59 1.975 . S
C517 C91 1.461 . S
C519 C339 1.553 . S
C535 C139 2.233 . S
C537 C419 2.214 . S
C553 C179 1.853 . S
C555 C411 1.767 . S
C571 C211 1.542 . S
C573 C451 1.587 . S
C589 C379 2.108 . S
C591 C259 2.110 . S
C607 C291 1.695 . S
C609 C331 1.778 . S
C625 C131 1.759 . S
C627 C171 1.812 . S
C643 C11 1.732 . S
C645 C219 1.852 . S
C661 C51 1.661 . S
C663 C251 1.676 . S
C679 C299 2.040 . S
C681 C99 2.042 . S
C697 C7 1.713 . S
C699 C330 1.579 . S
C715 C47 1.781 . S
C717 C410 1.689 . S
C733 C450 2.181 . S
C735 C96 2.188 . S
C751 C127 1.549 . S
C753 C362 1.510 . S
C769 C167 1.314 . S
C771 C370 1.243 . S
C787 C322 2.244 . S
C789 C216 2.105 . S
C805 C402 1.379 . S
C807 C247 1.388 . S
C823 C442 2.725 . S
C825 C296 2.585 . S
C841 C2 2.822 . S
C843 C136 2.683 . S
C859 C16 2.140 . S
C861 C42 2.257 . S
C877 C56 2.420 . S
C879 C90 2.405 . S
C895 C122 1.684 . S
C897 C87 1.729 . S
C913 C207 1.532 . S
C915 C162 1.497 . S
C931 C210 1.580 . S
C933 C256 1.623 . S
C949 C242 1.547 . S
C951 C287 1.579 . S
C967 C176 1.230 . S
C969 C290 1.200 . S
C985 C336 1.241 . S
C987 C130 1.193 . S
C1003 C202 1.870 . S
C1005 C376 1.783 . S
C1021 C327 1.487 . S
C1023 C250 1.404 . S
C1039 C407 1.717 . S
C1041 C282 1.688 . S
C1057 C170 1.380 . S
C1059 C447 1.476 . S
C1075 C456 1.918 . S
C1077 C50 1.873 . S
C1093 C82 1.585 . S
C1095 C367 1.615 . S
C1111 C416 1.972 . S
C1113 C10 1.957 . S
