# Generated by pormake.
# Topology afi, (4)-cn, num edge types: 1
# Building blocks:
#     Node 0, Type 0, BuildingBlock: NAHDIM_clean_sbu_0, # of connection points: 4
#     Node 1, Type 0, BuildingBlock: NAHDIM_clean_sbu_0, # of connection points: 4
#     Node 2, Type 0, BuildingBlock: NAHDIM_clean_sbu_0, # of connection points: 4
#     Node 3, Type 0, BuildingBlock: NAHDIM_clean_sbu_0, # of connection points: 4
#     Node 4, Type 0, BuildingBlock: NAHDIM_clean_sbu_0, # of connection points: 4
#     Node 5, Type 0, BuildingBlock: NAHDIM_clean_sbu_0, # of connection points: 4
#     Node 6, Type 0, BuildingBlock: NAHDIM_clean_sbu_0, # of connection points: 4
#     Node 7, Type 0, BuildingBlock: NAHDIM_clean_sbu_0, # of connection points: 4
#     Node 8, Type 0, BuildingBlock: NAHDIM_clean_sbu_0, # of connection points: 4
#     Node 9, Type 0, BuildingBlock: NAHDIM_clean_sbu_0, # of connection points: 4
#     Node 10, Type 0, BuildingBlock: NAHDIM_clean_sbu_0, # of connection points: 4
#     Node 11, Type 0, BuildingBlock: NAHDIM_clean_sbu_0, # of connection points: 4
#     Node 12, Type 0, BuildingBlock: NAHDIM_clean_sbu_0, # of connection points: 4
#     Node 13, Type 0, BuildingBlock: NAHDIM_clean_sbu_0, # of connection points: 4
#     Node 14, Type 0, BuildingBlock: NAHDIM_clean_sbu_0, # of connection points: 4
#     Node 15, Type 0, BuildingBlock: NAHDIM_clean_sbu_0, # of connection points: 4
#     Node 16, Type 0, BuildingBlock: NAHDIM_clean_sbu_0, # of connection points: 4
#     Node 17, Type 0, BuildingBlock: NAHDIM_clean_sbu_0, # of connection points: 4
#     Node 18, Type 0, BuildingBlock: NAHDIM_clean_sbu_0, # of connection points: 4
#     Node 19, Type 0, BuildingBlock: NAHDIM_clean_sbu_0, # of connection points: 4
#     Node 20, Type 0, BuildingBlock: NAHDIM_clean_sbu_0, # of connection points: 4
#     Node 21, Type 0, BuildingBlock: NAHDIM_clean_sbu_0, # of connection points: 4
#     Node 22, Type 0, BuildingBlock: NAHDIM_clean_sbu_0, # of connection points: 4
#     Node 23, Type 0, BuildingBlock: NAHDIM_clean_sbu_0, # of connection points: 4
#     Edge 24, Type (0, 0), BuildingBlock: AJUNOK_clean_linker_0, # of connection points: 2
#     Edge 25, Type (0, 0), BuildingBlock: AJUNOK_clean_linker_0, # of connection points: 2
#     Edge 26, Type (0, 0), BuildingBlock: AJUNOK_clean_linker_0, # of connection points: 2
#     Edge 27, Type (0, 0), BuildingBlock: AJUNOK_clean_linker_0, # of connection points: 2
#     Edge 28, Type (0, 0), BuildingBlock: AJUNOK_clean_linker_0, # of connection points: 2
#     Edge 29, Type (0, 0), BuildingBlock: AJUNOK_clean_linker_0, # of connection points: 2
#     Edge 30, Type (0, 0), BuildingBlock: AJUNOK_clean_linker_0, # of connection points: 2
#     Edge 31, Type (0, 0), BuildingBlock: AJUNOK_clean_linker_0, # of connection points: 2
#     Edge 32, Type (0, 0), BuildingBlock: AJUNOK_clean_linker_0, # of connection points: 2
#     Edge 33, Type (0, 0), BuildingBlock: AJUNOK_clean_linker_0, # of connection points: 2
#     Edge 34, Type (0, 0), BuildingBlock: AJUNOK_clean_linker_0, # of connection points: 2
#     Edge 35, Type (0, 0), BuildingBlock: AJUNOK_clean_linker_0, # of connection points: 2
#     Edge 36, Type (0, 0), BuildingBlock: AJUNOK_clean_linker_0, # of connection points: 2
#     Edge 37, Type (0, 0), BuildingBlock: AJUNOK_clean_linker_0, # of connection points: 2
#     Edge 38, Type (0, 0), BuildingBlock: AJUNOK_clean_linker_0, # of connection points: 2
#     Edge 39, Type (0, 0), BuildingBlock: AJUNOK_clean_linker_0, # of connection points: 2
#     Edge 40, Type (0, 0), BuildingBlock: AJUNOK_clean_linker_0, # of connection points: 2
#     Edge 41, Type (0, 0), BuildingBlock: AJUNOK_clean_linker_0, # of connection points: 2
#     Edge 42, Type (0, 0), BuildingBlock: AJUNOK_clean_linker_0, # of connection points: 2
#     Edge 43, Type (0, 0), BuildingBlock: AJUNOK_clean_linker_0, # of connection points: 2
#     Edge 44, Type (0, 0), BuildingBlock: AJUNOK_clean_linker_0, # of connection points: 2
#     Edge 45, Type (0, 0), BuildingBlock: AJUNOK_clean_linker_0, # of connection points: 2
#     Edge 46, Type (0, 0), BuildingBlock: AJUNOK_clean_linker_0, # of connection points: 2
#     Edge 47, Type (0, 0), BuildingBlock: AJUNOK_clean_linker_0, # of connection points: 2
#     Edge 48, Type (0, 0), BuildingBlock: AJUNOK_clean_linker_0, # of connection points: 2
#     Edge 49, Type (0, 0), BuildingBlock: AJUNOK_clean_linker_0, # of connection points: 2
#     Edge 50, Type (0, 0), BuildingBlock: AJUNOK_clean_linker_0, # of connection points: 2
#     Edge 51, Type (0, 0), BuildingBlock: AJUNOK_clean_linker_0, # of connection points: 2
#     Edge 52, Type (0, 0), BuildingBlock: AJUNOK_clean_linker_0, # of connection points: 2
#     Edge 53, Type (0, 0), BuildingBlock: AJUNOK_clean_linker_0, # of connection points: 2
#     Edge 54, Type (0, 0), BuildingBlock: AJUNOK_clean_linker_0, # of connection points: 2
#     Edge 55, Type (0, 0), BuildingBlock: AJUNOK_clean_linker_0, # of connection points: 2
#     Edge 56, Type (0, 0), BuildingBlock: AJUNOK_clean_linker_0, # of connection points: 2
#     Edge 57, Type (0, 0), BuildingBlock: AJUNOK_clean_linker_0, # of connection points: 2
#     Edge 58, Type (0, 0), BuildingBlock: AJUNOK_clean_linker_0, # of connection points: 2
#     Edge 59, Type (0, 0), BuildingBlock: AJUNOK_clean_linker_0, # of connection points: 2
#     Edge 60, Type (0, 0), BuildingBlock: AJUNOK_clean_linker_0, # of connection points: 2
#     Edge 61, Type (0, 0), BuildingBlock: AJUNOK_clean_linker_0, # of connection points: 2
#     Edge 62, Type (0, 0), BuildingBlock: AJUNOK_clean_linker_0, # of connection points: 2
#     Edge 63, Type (0, 0), BuildingBlock: AJUNOK_clean_linker_0, # of connection points: 2
#     Edge 64, Type (0, 0), BuildingBlock: AJUNOK_clean_linker_0, # of connection points: 2
#     Edge 65, Type (0, 0), BuildingBlock: AJUNOK_clean_linker_0, # of connection points: 2
#     Edge 66, Type (0, 0), BuildingBlock: AJUNOK_clean_linker_0, # of connection points: 2
#     Edge 67, Type (0, 0), BuildingBlock: AJUNOK_clean_linker_0, # of connection points: 2
#     Edge 68, Type (0, 0), BuildingBlock: AJUNOK_clean_linker_0, # of connection points: 2
#     Edge 69, Type (0, 0), BuildingBlock: AJUNOK_clean_linker_0, # of connection points: 2
#     Edge 70, Type (0, 0), BuildingBlock: AJUNOK_clean_linker_0, # of connection points: 2
#     Edge 71, Type (0, 0), BuildingBlock: AJUNOK_clean_linker_0, # of connection points: 2
# Relax obj value: 0.071
# Max RMSD: 0.085
# Mean RMSD: 0.085
data_MOF--net-afi--node1-NAHDIM_clean_sbu_0--edge1-AJUNOK_clean_linker_0
_symmetry_space_group_name_H-M    P1
_symmetry_Int_Tables_number       1
_symmetry_cell_setting            triclinic
loop_
_symmetry_equiv_pos_as_xyz
'x, y, z'
_cell_length_a     50.81911
_cell_length_b     50.814115
_cell_length_c     28.749805
_cell_angle_alpha  89.988274
_cell_angle_beta   89.926631
_cell_angle_gamma 119.9986
loop_
_atom_site_label
_atom_site_type_symbol
_atom_site_fract_x
_atom_site_fract_y
_atom_site_fract_z
_atom_type_partial_charge
C0 C 0.46908 0.18319 0.21962 0.0
O1 O 0.49366 0.18558 0.20043 0.0
O2 O 0.49032 0.12886 0.22238 0.0
Zn3 Zn 0.45144 0.12393 0.19526 0.0
O4 O 0.45433 0.12744 0.12538 0.0
C5 C 0.42337 0.06153 0.19557 0.0
O6 O 0.4459 0.07019 0.16586 0.0
O7 O 0.44522 0.15719 0.22129 0.0
C8 C 0.43081 0.1204 0.10127 0.0
O9 O 0.40481 0.11119 0.12278 0.0
C10 C 0.51264 0.1319 0.19822 0.0
O11 O 0.51108 0.13261 0.15268 0.0
O12 O 0.41887 0.08177 0.21366 0.0
C13 C 0.27617 0.45939 0.21491 0.0
O14 O 0.297 0.48377 0.19335 0.0
O15 O 0.35328 0.4865 0.22652 0.0
Zn16 Zn 0.32212 0.4471 0.19699 0.0
O17 O 0.32257 0.45104 0.12722 0.0
C18 C 0.36099 0.42442 0.19623 0.0
O19 O 0.37372 0.44846 0.16909 0.0
O20 O 0.28101 0.4374 0.22132 0.0
C21 C 0.30695 0.42736 0.10293 0.0
O22 O 0.29063 0.40122 0.12432 0.0
C23 C 0.36982 0.51112 0.20463 0.0
O24 O 0.36651 0.51184 0.15943 0.0
O25 O 0.33514 0.41672 0.21376 0.0
C26 C 0.81967 0.272 0.19945 0.0
O27 O 0.81489 0.27579 0.1557 0.0
O28 O 0.85828 0.36376 0.20847 0.0
Zn29 Zn 0.87012 0.33307 0.18859 0.0
O30 O 0.8677 0.3286 0.11896 0.0
C31 C 0.92169 0.35856 0.24894 0.0
O32 O 0.90146 0.35804 0.27801 0.0
O33 O 0.84232 0.29332 0.22031 0.0
C34 C 0.87837 0.31339 0.09977 0.0
O35 O 0.89022 0.30093 0.12627 0.0
C36 C 0.87673 0.39183 0.20177 0.0
O37 O 0.90254 0.39985 0.18042 0.0
O38 O 0.91332 0.34821 0.20814 0.0
C39 C 0.52544 0.81221 0.2059 0.0
O40 O 0.50289 0.81028 0.18098 0.0
O41 O 0.49987 0.86269 0.22325 0.0
Zn42 Zn 0.53971 0.87168 0.1943 0.0
O43 O 0.53834 0.87242 0.12414 0.0
C44 C 0.56196 0.9325 0.21221 0.0
O45 O 0.53623 0.92403 0.19046 0.0
O46 O 0.54735 0.83845 0.21578 0.0
C47 C 0.56347 0.88494 0.10229 0.0
O48 O 0.58877 0.89647 0.12639 0.0
C49 C 0.47655 0.85921 0.20173 0.0
O50 O 0.47717 0.8608 0.15609 0.0
O51 O 0.57061 0.91317 0.21793 0.0
C52 C 0.72502 0.55301 0.20823 0.0
O53 O 0.71417 0.53496 0.17198 0.0
O54 O 0.63808 0.511 0.21962 0.0
Zn55 Zn 0.66953 0.55222 0.19524 0.0
O56 O 0.67519 0.55422 0.12539 0.0
C57 C 0.62674 0.57064 0.20302 0.0
O58 O 0.61236 0.54496 0.17995 0.0
O59 O 0.70957 0.56406 0.22538 0.0
C60 C 0.65564 0.53816 0.09488 0.0
O61 O 0.62838 0.51716 0.10824 0.0
C62 C 0.6299 0.48439 0.20511 0.0
O63 O 0.64331 0.48073 0.16862 0.0
O64 O 0.65435 0.58056 0.21394 0.0
C65 C 0.18313 0.71629 0.20839 0.0
O66 O 0.18655 0.69581 0.18555 0.0
O67 O 0.13342 0.64006 0.21757 0.0
Zn68 Zn 0.12355 0.67117 0.19161 0.0
O69 O 0.12368 0.67092 0.12131 0.0
C70 C 0.0652 0.6336 0.23082 0.0
O71 O 0.07405 0.61369 0.22383 0.0
O72 O 0.15643 0.71179 0.2146 0.0
C73 C 0.10114 0.65132 0.09802 0.0
O74 O 0.07699 0.63081 0.12041 0.0
C75 C 0.13709 0.62088 0.1943 0.0
O76 O 0.13653 0.62174 0.14868 0.0
O77 O 0.08219 0.66095 0.21762 0.0
C78 C 0.83589 0.56863 0.29339 0.0
O79 O 0.84482 0.58085 0.33471 0.0
O80 O 0.88075 0.51352 0.28231 0.0
Zn81 Zn 0.88215 0.55144 0.30594 0.0
O82 O 0.87656 0.54886 0.37571 0.0
C83 C 0.94438 0.58057 0.30912 0.0
O84 O 0.93514 0.55789 0.33862 0.0
O85 O 0.84921 0.55589 0.27429 0.0
C86 C 0.88844 0.57294 0.40011 0.0
O87 O 0.90411 0.59932 0.37914 0.0
C88 C 0.8576 0.48715 0.279 0.0
O89 O 0.83102 0.48271 0.29271 0.0
O90 O 0.92439 0.58482 0.28953 0.0
C91 C 0.28671 0.82122 0.29158 0.0
O92 O 0.30677 0.81791 0.31581 0.0
O93 O 0.36248 0.86987 0.28145 0.0
Zn94 Zn 0.33204 0.88049 0.30785 0.0
O95 O 0.33199 0.87999 0.37817 0.0
C96 C 0.37041 0.93935 0.27047 0.0
O97 O 0.38977 0.92958 0.27541 0.0
O98 O 0.29135 0.84789 0.28443 0.0
C99 C 0.35244 0.90156 0.40205 0.0
O100 O 0.37447 0.92496 0.38028 0.0
C101 C 0.37918 0.86233 0.30399 0.0
O102 O 0.37674 0.86004 0.34948 0.0
O103 O 0.34296 0.9223 0.28317 0.0
C104 C 0.47096 0.29154 0.28934 0.0
O105 O 0.49361 0.31163 0.31471 0.0
O106 O 0.50053 0.36852 0.27215 0.0
Zn107 Zn 0.45884 0.33862 0.29785 0.0
O108 O 0.45875 0.33916 0.36797 0.0
C109 C 0.43699 0.3749 0.25517 0.0
O110 O 0.46638 0.39375 0.25261 0.0
O111 O 0.45029 0.29727 0.27731 0.0
C112 C 0.45437 0.3578 0.3915 0.0
O113 O 0.45013 0.37802 0.36943 0.0
C114 C 0.52271 0.38792 0.29626 0.0
O115 O 0.51923 0.38911 0.34134 0.0
O116 O 0.42751 0.34881 0.27318 0.0
C117 C 0.17104 0.4635 0.28567 0.0
O118 O 0.17577 0.48911 0.30436 0.0
O119 O 0.12321 0.49306 0.27203 0.0
Zn120 Zn 0.11274 0.45302 0.30173 0.0
O121 O 0.11307 0.45535 0.37194 0.0
C122 C 0.04978 0.42768 0.29769 0.0
O123 O 0.05796 0.45068 0.32623 0.0
O124 O 0.14383 0.44205 0.28062 0.0
C125 C 0.09662 0.43078 0.39403 0.0
O126 O 0.08163 0.4053 0.3706 0.0
C127 C 0.12728 0.51651 0.2939 0.0
O128 O 0.12485 0.51542 0.33945 0.0
O129 O 0.07021 0.42295 0.28092 0.0
C130 C 0.72399 0.16764 0.29688 0.0
O131 O 0.71995 0.1692 0.3417 0.0
O132 O 0.6316 0.1251 0.27195 0.0
Zn133 Zn 0.66248 0.11612 0.3005 0.0
O134 O 0.66218 0.11876 0.37049 0.0
C135 C 0.62279 0.05403 0.29069 0.0
O136 O 0.60618 0.06308 0.31312 0.0
O137 O 0.70304 0.14631 0.27332 0.0
C138 C 0.67387 0.10638 0.39488 0.0
O139 O 0.68635 0.09244 0.37359 0.0
C140 C 0.61196 0.12858 0.29423 0.0
O141 O 0.6116 0.1272 0.33988 0.0
O142 O 0.65026 0.0734 0.28144 0.0
C143 C 0.51979 0.70492 0.28834 0.0
O144 O 0.4943 0.68395 0.3072 0.0
O145 O 0.49233 0.62945 0.28358 0.0
Zn146 Zn 0.53336 0.65959 0.3104 0.0
O147 O 0.53287 0.65862 0.38077 0.0
C148 C 0.55391 0.62125 0.27265 0.0
O149 O 0.52472 0.6019 0.27669 0.0
O150 O 0.54246 0.70077 0.28734 0.0
C151 C 0.53368 0.63724 0.40254 0.0
O152 O 0.53457 0.61575 0.37849 0.0
C153 C 0.46897 0.61016 0.3058 0.0
O154 O 0.47002 0.60919 0.35138 0.0
O155 O 0.56411 0.6486 0.28559 0.0
C156 C 0.52649 0.81649 0.78883 0.0
O157 O 0.50125 0.81247 0.808 0.0
O158 O 0.49957 0.86619 0.77888 0.0
Zn159 Zn 0.53969 0.87554 0.80725 0.0
O160 O 0.53831 0.87536 0.87741 0.0
C161 C 0.56173 0.93672 0.78973 0.0
O162 O 0.5358 0.92821 0.81103 0.0
O163 O 0.54876 0.84338 0.78485 0.0
C164 C 0.56343 0.88702 0.8991 0.0
O165 O 0.58869 0.89841 0.87481 0.0
C166 C 0.47592 0.86138 0.80097 0.0
O167 O 0.47644 0.86189 0.84666 0.0
O168 O 0.57037 0.91737 0.78427 0.0
C169 C 0.72564 0.55127 0.79622 0.0
O170 O 0.71619 0.53689 0.83607 0.0
O171 O 0.63729 0.50831 0.76515 0.0
Zn172 Zn 0.66696 0.54673 0.79831 0.0
O173 O 0.6634 0.53969 0.86768 0.0
C174 C 0.62832 0.57022 0.79929 0.0
O175 O 0.61428 0.54558 0.82498 0.0
O176 O 0.70873 0.55886 0.77433 0.0
C177 C 0.68031 0.56026 0.89632 0.0
O178 O 0.70133 0.58675 0.88029 0.0
C179 C 0.62077 0.48306 0.78544 0.0
O180 O 0.62327 0.4812 0.83064 0.0
O181 O 0.65433 0.57748 0.78294 0.0
C182 C 0.16549 0.72668 0.79038 0.0
O183 O 0.15412 0.72927 0.83003 0.0
O184 O 0.12799 0.6282 0.77471 0.0
Zn185 Zn 0.12159 0.66179 0.79968 0.0
O186 O 0.12383 0.66389 0.87021 0.0
C187 C 0.05974 0.62652 0.77156 0.0
O188 O 0.0663 0.60491 0.77865 0.0
O189 O 0.15464 0.70061 0.77184 0.0
C190 C 0.10052 0.64745 0.89504 0.0
O191 O 0.07491 0.62857 0.87431 0.0
C192 C 0.12721 0.60683 0.79875 0.0
O193 O 0.12317 0.60652 0.84391 0.0
O194 O 0.0803 0.65397 0.77822 0.0
C195 C 0.46801 0.18536 0.78378 0.0
O196 O 0.49206 0.18843 0.80566 0.0
O197 O 0.49216 0.13343 0.77564 0.0
Zn198 Zn 0.4531 0.12663 0.80476 0.0
O199 O 0.45633 0.12982 0.87462 0.0
C200 C 0.42736 0.06444 0.80377 0.0
O201 O 0.45075 0.07383 0.83183 0.0
O202 O 0.44514 0.15887 0.77937 0.0
C203 C 0.43242 0.12209 0.89826 0.0
O204 O 0.40665 0.11282 0.87613 0.0
C205 C 0.51497 0.13579 0.7974 0.0
O206 O 0.51416 0.13427 0.84304 0.0
O207 O 0.4215 0.08405 0.78687 0.0
C208 C 0.27956 0.46201 0.7865 0.0
O209 O 0.29988 0.48703 0.80723 0.0
O210 O 0.35713 0.48973 0.77866 0.0
Zn211 Zn 0.32572 0.44983 0.80663 0.0
O212 O 0.32555 0.45242 0.87648 0.0
C213 C 0.36391 0.42603 0.80299 0.0
O214 O 0.3779 0.4496 0.83076 0.0
O215 O 0.28502 0.44034 0.78184 0.0
C216 C 0.30885 0.42859 0.89996 0.0
O217 O 0.29201 0.40294 0.87771 0.0
C218 C 0.37354 0.51387 0.80161 0.0
O219 O 0.36996 0.51365 0.84688 0.0
O220 O 0.3379 0.41934 0.78748 0.0
C221 C 0.818 0.2823 0.77989 0.0
O222 O 0.8147 0.30391 0.79912 0.0
O223 O 0.87632 0.35999 0.77534 0.0
Zn224 Zn 0.87803 0.32468 0.8042 0.0
O225 O 0.87299 0.32406 0.87378 0.0
C226 C 0.94126 0.34937 0.8152 0.0
O227 O 0.93519 0.36216 0.85012 0.0
O228 O 0.84446 0.2856 0.7775 0.0
C229 C 0.878 0.30585 0.89731 0.0
O230 O 0.88513 0.28768 0.87511 0.0
C231 C 0.86443 0.37418 0.79423 0.0
O232 O 0.85221 0.36586 0.83576 0.0
O233 O 0.91956 0.3309 0.78933 0.0
C234 C 0.17258 0.46004 0.71063 0.0
O235 O 0.17552 0.48569 0.69508 0.0
O236 O 0.11698 0.48046 0.71948 0.0
Zn237 Zn 0.11204 0.44239 0.68958 0.0
O238 O 0.11269 0.44511 0.61945 0.0
C239 C 0.06681 0.4067 0.75579 0.0
O240 O 0.08884 0.42521 0.78358 0.0
O241 O 0.14632 0.43656 0.71128 0.0
C242 C 0.0884 0.43051 0.596 0.0
O243 O 0.06254 0.41438 0.61813 0.0
C244 C 0.12384 0.50521 0.69899 0.0
O245 O 0.12834 0.50726 0.65381 0.0
O246 O 0.07196 0.40846 0.71233 0.0
C247 C 0.70934 0.1775 0.70739 0.0
O248 O 0.6885 0.18207 0.6882 0.0
O249 O 0.63151 0.12784 0.72019 0.0
Zn250 Zn 0.66221 0.11848 0.69139 0.0
O251 O 0.66043 0.11893 0.62144 0.0
C252 C 0.62293 0.05725 0.70691 0.0
O253 O 0.60603 0.06609 0.68492 0.0
O254 O 0.70374 0.15036 0.71275 0.0
C255 C 0.67469 0.10888 0.59789 0.0
O256 O 0.69013 0.09839 0.62011 0.0
C257 C 0.61373 0.13376 0.69725 0.0
O258 O 0.61566 0.13499 0.65167 0.0
O259 O 0.65081 0.07648 0.71358 0.0
C260 C 0.52565 0.71012 0.71241 0.0
O261 O 0.50052 0.6894 0.69245 0.0
O262 O 0.49615 0.63358 0.72477 0.0
Zn263 Zn 0.53726 0.66282 0.69708 0.0
O264 O 0.53598 0.66089 0.6269 0.0
C265 C 0.55736 0.62493 0.739 0.0
O266 O 0.52783 0.60667 0.7405 0.0
O267 O 0.54726 0.70463 0.71793 0.0
C268 C 0.53592 0.63892 0.60565 0.0
O269 O 0.53659 0.61748 0.63023 0.0
C270 C 0.47251 0.61483 0.70266 0.0
O271 O 0.47325 0.6145 0.65701 0.0
O272 O 0.5678 0.65131 0.72144 0.0
C273 C 0.82421 0.54662 0.70243 0.0
O274 O 0.81831 0.53567 0.65996 0.0
O275 O 0.8602 0.4934 0.7119 0.0
Zn276 Zn 0.87441 0.53626 0.6914 0.0
O277 O 0.87343 0.53887 0.62147 0.0
C278 C 0.93535 0.58845 0.71738 0.0
O279 O 0.92531 0.60722 0.70828 0.0
O280 O 0.84793 0.55006 0.72268 0.0
C281 C 0.87942 0.5638 0.60226 0.0
O282 O 0.88506 0.58706 0.62881 0.0
C283 C 0.87655 0.48176 0.70192 0.0
O284 O 0.90044 0.49713 0.67511 0.0
O285 O 0.91769 0.56003 0.71279 0.0
C286 C 0.27518 0.82577 0.70775 0.0
O287 O 0.28856 0.81878 0.67477 0.0
O288 O 0.35866 0.86794 0.72606 0.0
Zn289 Zn 0.33052 0.88147 0.69942 0.0
O290 O 0.33046 0.88045 0.62905 0.0
C291 C 0.37173 0.94003 0.73681 0.0
O292 O 0.3895 0.92819 0.73581 0.0
O293 O 0.28868 0.85264 0.72381 0.0
C294 C 0.35116 0.90193 0.60524 0.0
O295 O 0.3731 0.92529 0.62711 0.0
C296 C 0.37601 0.86167 0.70255 0.0
O297 O 0.37478 0.86194 0.65695 0.0
O298 O 0.34458 0.92432 0.72217 0.0
C299 C 0.46823 0.29051 0.7032 0.0
O300 O 0.49157 0.31056 0.6788 0.0
O301 O 0.49616 0.36684 0.71242 0.0
Zn302 Zn 0.45452 0.33625 0.68828 0.0
O303 O 0.45397 0.3362 0.61813 0.0
C304 C 0.43454 0.37474 0.7272 0.0
O305 O 0.46362 0.39414 0.7218 0.0
O306 O 0.4465 0.29547 0.71127 0.0
C307 C 0.45235 0.3565 0.59456 0.0
O308 O 0.45063 0.37824 0.6166 0.0
C309 C 0.51923 0.38425 0.68791 0.0
O310 O 0.51724 0.38219 0.64239 0.0
O311 O 0.42412 0.34731 0.71444 0.0
C312 C 0.41878 0.01055 0.20073 0.0
C313 C 0.40698 0.02958 0.21206 0.0
C314 C 0.40624 0.9813 0.21917 0.0
C315 C 0.38105 0.96952 0.24921 0.0
H316 H 0.43855 0.01854 0.17851 0.0
H317 H 0.41669 0.96791 0.21008 0.0
S318 S 0.34 0.00897 0.28737 0.0
N319 N 0.36758 0.03394 0.25368 0.0
N320 N 0.34362 0.97841 0.28781 0.0
C321 C 0.36808 0.98766 0.25943 0.0
C322 C 0.38117 0.01782 0.24105 0.0
C323 C 0.42705 0.41029 0.20875 0.0
C324 C 0.4158 0.38486 0.23824 0.0
C325 C 0.40875 0.42207 0.19442 0.0
C326 C 0.37837 0.40916 0.20923 0.0
H327 H 0.45043 0.42157 0.1969 0.0
H328 H 0.41894 0.44202 0.17233 0.0
S329 S 0.33726 0.34121 0.28485 0.0
N330 N 0.37185 0.34615 0.28033 0.0
N331 N 0.33734 0.36853 0.25361 0.0
C332 C 0.36644 0.38314 0.23774 0.0
C333 C 0.38515 0.37092 0.25213 0.0
C334 C 0.9642 0.39281 0.30148 0.0
C335 C 0.95425 0.37394 0.26205 0.0
C336 C 0.99504 0.40963 0.31291 0.0
C337 C 0.01727 0.4081 0.28568 0.0
H338 H 0.94815 0.39529 0.32323 0.0
H339 H 0.00148 0.42419 0.34324 0.0
S340 S 0.00308 0.36062 0.18035 0.0
N341 N 0.96903 0.35365 0.1967 0.0
N342 N 0.02707 0.38515 0.21849 0.0
C343 C 0.00762 0.38858 0.24695 0.0
C344 C 0.97613 0.37158 0.23504 0.0
C345 C 0.56226 0.97774 0.24534 0.0
C346 C 0.57858 0.96315 0.23301 0.0
C347 C 0.57681 0.00678 0.26488 0.0
C348 C 0.60839 0.02274 0.27209 0.0
H349 H 0.53791 0.96655 0.2402 0.0
H350 H 0.56315 0.01701 0.27349 0.0
S351 S 0.66158 0.99462 0.24602 0.0
N352 N 0.62798 0.96651 0.23005 0.0
N353 N 0.65562 0.02171 0.26589 0.0
C354 C 0.62508 0.00847 0.26002 0.0
C355 C 0.6101 0.9785 0.24079 0.0
C356 C 0.56065 0.58283 0.22912 0.0
C357 C 0.57396 0.61055 0.25334 0.0
C358 C 0.57814 0.57076 0.21219 0.0
C359 C 0.60977 0.58571 0.21899 0.0
H360 H 0.53635 0.57005 0.2233 0.0
H361 H 0.56646 0.54912 0.19434 0.0
S362 S 0.65607 0.65969 0.27874 0.0
N363 N 0.6209 0.65331 0.28209 0.0
N364 N 0.65397 0.63041 0.25044 0.0
C365 C 0.62361 0.61383 0.24235 0.0
C366 C 0.60568 0.62632 0.25941 0.0
C367 C 0.0156 0.63258 0.23948 0.0
C368 C 0.03622 0.62377 0.25518 0.0
C369 C 0.98619 0.6195 0.25847 0.0
C370 C 0.97669 0.59754 0.29417 0.0
H371 H 0.02166 0.64845 0.21085 0.0
H372 H 0.97051 0.62585 0.24391 0.0
S373 S 0.02451 0.57074 0.35191 0.0
N374 N 0.04662 0.59445 0.31128 0.0
N375 N 0.99198 0.57043 0.3478 0.0
C376 C -0.00191 0.59029 0.31217 0.0
C377 C 0.02769 0.60325 0.29241 0.0
C378 C 0.56255 0.98242 0.75726 0.0
C379 C 0.57855 0.96738 0.76874 0.0
C380 C 0.57717 0.01119 0.7367 0.0
C381 C 0.60855 0.02644 0.72748 0.0
H382 H 0.53834 0.97175 0.76367 0.0
H383 H 0.56371 0.02172 0.72862 0.0
S384 S 0.66101 0.99714 0.75124 0.0
N385 N 0.62753 0.96973 0.76923 0.0
N386 N 0.65531 0.0244 0.73139 0.0
C387 C 0.62498 0.01182 0.73901 0.0
C388 C 0.6099 0.98213 0.75933 0.0
C389 C 0.58209 0.5753 0.80087 0.0
C390 C 0.61236 0.58692 0.78637 0.0
C391 C 0.56503 0.58838 0.78621 0.0
C392 C 0.57746 0.61385 0.75667 0.0
H393 H 0.57102 0.55536 0.8229 0.0
H394 H 0.54163 0.57803 0.79777 0.0
S395 S 0.65636 0.65456 0.7111 0.0
N396 N 0.65468 0.62652 0.74248 0.0
N397 N 0.62243 0.6513 0.71513 0.0
C398 C 0.60807 0.62659 0.74326 0.0
C399 C 0.62554 0.61306 0.75801 0.0
C400 C 0.97577 0.57841 0.74586 0.0
C401 C 0.9672 0.59965 0.73205 0.0
C402 C 0.00561 0.58751 0.75853 0.0
C403 C 0.02839 0.6183 0.75812 0.0
H404 H 0.9593 0.55434 0.74684 0.0
H405 H 0.01074 0.57005 0.76881 0.0
S406 S 0.0182 0.68322 0.7246 0.0
N407 N 0.98408 0.65308 0.71864 0.0
N408 N 0.04043 0.67026 0.74272 0.0
C409 C 0.02027 0.63996 0.74472 0.0
C410 C 0.98966 0.63062 0.73166 0.0
C411 C 0.42303 0.01351 0.79971 0.0
C412 C 0.41087 0.03225 0.78855 0.0
C413 C 0.40986 0.98374 0.78323 0.0
C414 C 0.3837 0.97117 0.75525 0.0
H415 H 0.44343 0.02204 0.82054 0.0
H416 H 0.4205 0.97055 0.79239 0.0
S417 S 0.34177 0.0099 0.71785 0.0
N418 N 0.37037 0.03567 0.74898 0.0
N419 N 0.3453 0.97931 0.71834 0.0
C420 C 0.37062 0.9892 0.74487 0.0
C421 C 0.38429 0.01983 0.76137 0.0
C422 C 0.41152 0.42386 0.79463 0.0
C423 C 0.38017 0.41045 0.78605 0.0
C424 C 0.42854 0.4117 0.77601 0.0
C425 C 0.41494 0.38533 0.74847 0.0
H426 H 0.4234 0.44451 0.81492 0.0
H427 H 0.45271 0.42332 0.78307 0.0
S428 S 0.33326 0.34017 0.71781 0.0
N429 N 0.33585 0.36845 0.74959 0.0
N430 N 0.36798 0.34528 0.71501 0.0
C431 C 0.38342 0.37092 0.74087 0.0
C432 C 0.36602 0.38358 0.75949 0.0
C433 C 0.01134 0.37106 0.74223 0.0
C434 C 0.03528 0.38797 0.77353 0.0
C435 C 0.98092 0.35711 0.75656 0.0
C436 C 0.97325 0.35969 0.80268 0.0
H437 H 0.01601 0.36958 0.70584 0.0
H438 H 0.96333 0.34555 0.73069 0.0
S439 S 0.02717 0.39719 0.90004 0.0
N440 N 0.04908 0.4033 0.85419 0.0
N441 N 0.99194 0.37727 0.88087 0.0
C442 C 0.99689 0.37474 0.83503 0.0
C443 C 0.02789 0.38879 0.82054 0.0
C444 C 0.44285 0.21211 0.2414 0.0
C445 C 0.46961 0.2104 0.23904 0.0
C446 C 0.4434 0.23843 0.25773 0.0
C447 C 0.47061 0.26369 0.27314 0.0
H448 H 0.42146 0.19326 0.22962 0.0
H449 H 0.42235 0.23894 0.25836 0.0
S450 S 0.54664 0.26999 0.27597 0.0
N451 N 0.52386 0.23583 0.25464 0.0
N452 N 0.52488 0.28495 0.28581 0.0
C453 C 0.49738 0.26193 0.27185 0.0
C454 C 0.49688 0.23538 0.25464 0.0
C455 C 0.22462 0.48781 0.25854 0.0
C456 C 0.19714 0.46104 0.26817 0.0
C457 C 0.2498 0.4868 0.24123 0.0
C458 C 0.24879 0.45899 0.23346 0.0
H459 H 0.22669 0.50988 0.26381 0.0
H460 H 0.27034 0.50814 0.23425 0.0
S461 S 0.18244 0.38224 0.25377 0.0
N462 N 0.17034 0.40576 0.26886 0.0
N463 N 0.21809 0.40389 0.23699 0.0
C464 C 0.2216 0.43195 0.24338 0.0
C465 C 0.19566 0.43298 0.26046 0.0
C466 C 0.7498 0.19562 0.22412 0.0
C467 C 0.75051 0.19269 0.27272 0.0
C468 C 0.77273 0.22088 0.20073 0.0
C469 C 0.79746 0.24422 0.22486 0.0
H470 H 0.73084 0.1788 0.20394 0.0
H471 H 0.77056 0.22236 0.16348 0.0
S472 S 0.81189 0.24579 0.3518 0.0
N473 N 0.7793 0.21408 0.34381 0.0
N474 N 0.82252 0.26152 0.29988 0.0
C475 C 0.79928 0.24086 0.27322 0.0
C476 C 0.77578 0.21514 0.29711 0.0
C477 C 0.55008 0.78545 0.24377 0.0
C478 C 0.52396 0.7844 0.22509 0.0
C479 C 0.54878 0.75955 0.26357 0.0
C480 C 0.52119 0.73187 0.26623 0.0
H481 H 0.57171 0.80643 0.24314 0.0
H482 H 0.56938 0.76138 0.27769 0.0
S483 S 0.44648 0.71663 0.22101 0.0
N484 N 0.46982 0.75285 0.20937 0.0
N485 N 0.46741 0.70456 0.24702 0.0
C486 C 0.49501 0.73041 0.24729 0.0
C487 C 0.49638 0.75656 0.22658 0.0
C488 C 0.7704 0.54619 0.20966 0.0
C489 C 0.75416 0.55915 0.22946 0.0
C490 C 0.79714 0.55009 0.22991 0.0
C491 C 0.80884 0.56708 0.27096 0.0
H492 H 0.76222 0.53247 0.17849 0.0
H493 H 0.80835 0.53911 0.21359 0.0
S494 S 0.77609 0.60746 0.33529 0.0
N495 N 0.75255 0.59095 0.29146 0.0
N496 N 0.80283 0.59828 0.32957 0.0
C497 C 0.79333 0.58092 0.29052 0.0
C498 C 0.76603 0.57696 0.26979 0.0
C499 C 0.20865 0.76945 0.23978 0.0
C500 C 0.20978 0.74301 0.229 0.0
C501 C 0.2337 0.79485 0.25966 0.0
C502 C 0.26048 0.79441 0.27041 0.0
H503 H 0.18837 0.77065 0.23243 0.0
H504 H 0.23194 0.8148 0.2672 0.0
S505 S 0.27497 0.73066 0.24926 0.0
N506 N 0.24002 0.71805 0.23045 0.0
N507 N 0.28674 0.76541 0.26832 0.0
C508 C 0.26182 0.76806 0.25998 0.0
C509 C 0.23658 0.74246 0.23911 0.0
C510 C 0.50005 0.73799 0.74035 0.0
C511 C 0.52724 0.73796 0.7314 0.0
C512 C 0.50024 0.76341 0.75927 0.0
C513 C 0.52764 0.7901 0.76942 0.0
H514 H 0.47826 0.71803 0.73326 0.0
H515 H 0.4786 0.76213 0.76552 0.0
S516 S 0.60525 0.80207 0.75196 0.0
N517 N 0.58247 0.76693 0.73404 0.0
N518 N 0.58284 0.81512 0.76897 0.0
C519 C 0.55511 0.7906 0.76032 0.0
C520 C 0.5549 0.76442 0.74156 0.0
C521 C 0.75589 0.556 0.72501 0.0
C522 C 0.75326 0.5543 0.77378 0.0
C523 C 0.77955 0.55455 0.70237 0.0
C524 C 0.80177 0.55183 0.72762 0.0
H525 H 0.73881 0.5571 0.70392 0.0
H526 H 0.77999 0.55486 0.6647 0.0
S527 S 0.80697 0.54981 0.85629 0.0
N528 N 0.77611 0.55205 0.84683 0.0
N529 N 0.82087 0.54976 0.80437 0.0
C530 C 0.80038 0.55183 0.77654 0.0
C531 C 0.77602 0.55291 0.79958 0.0
C532 C 0.2311 0.77279 0.70778 0.0
C533 C 0.24597 0.80191 0.7279 0.0
C534 C 0.20477 0.74901 0.72763 0.0
C535 C 0.19211 0.75319 0.76864 0.0
H536 H 0.24007 0.76806 0.67669 0.0
H537 H 0.19464 0.72696 0.71096 0.0
S538 S 0.22124 0.82556 0.83386 0.0
N539 N 0.24529 0.83402 0.7902 0.0
N540 N 0.19579 0.78925 0.82761 0.0
C541 C 0.2062 0.78244 0.78847 0.0
C542 C 0.23308 0.80678 0.7681 0.0
C543 C 0.441 0.23727 0.73447 0.0
C544 C 0.46841 0.26378 0.72329 0.0
C545 C 0.44095 0.2118 0.7536 0.0
C546 C 0.46832 0.21222 0.76312 0.0
H547 H 0.41944 0.23607 0.72798 0.0
H548 H 0.41934 0.19181 0.76149 0.0
S549 S 0.54625 0.27636 0.74097 0.0
N550 N 0.52362 0.28893 0.7234 0.0
N551 N 0.52355 0.24144 0.75977 0.0
C552 C 0.49586 0.23869 0.75236 0.0
C553 C 0.4959 0.26436 0.73231 0.0
C554 C 0.2254 0.48681 0.74142 0.0
C555 C 0.19933 0.45933 0.72939 0.0
C556 C 0.25099 0.48725 0.76011 0.0
C557 C 0.25178 0.46026 0.76702 0.0
H558 H 0.22604 0.50829 0.73689 0.0
H559 H 0.27042 0.50908 0.76882 0.0
S560 S 0.18957 0.38216 0.74076 0.0
N561 N 0.17582 0.40428 0.72558 0.0
N562 N 0.22423 0.40515 0.76026 0.0
C563 C 0.22597 0.43255 0.75485 0.0
C564 C 0.19967 0.43207 0.73623 0.0
C565 C 0.7648 0.25656 0.75072 0.0
C566 C 0.79118 0.25516 0.76055 0.0
C567 C 0.73876 0.23144 0.73298 0.0
C568 C 0.73778 0.20367 0.72494 0.0
H569 H 0.76422 0.27732 0.75654 0.0
H570 H 0.71906 0.23377 0.72622 0.0
S571 S 0.80083 0.18798 0.74456 0.0
N572 N 0.81492 0.22378 0.7604 0.0
N573 N 0.76563 0.17626 0.72761 0.0
C574 C 0.76398 0.20185 0.73451 0.0
C575 C 0.79076 0.22767 0.75208 0.0
C576 C 0.40575 0.11314 0.02377 0.0
C577 C 0.43234 0.12179 0.04962 0.0
C578 C 0.40614 0.11356 0.97506 0.0
C579 C 0.43315 0.12266 0.94995 0.0
H580 H 0.38426 0.10578 0.0412 0.0
H581 H 0.38494 0.1065 0.95704 0.0
S582 S 0.5093 0.14798 0.00085 0.0
N583 N 0.48669 0.14013 0.04629 0.0
N584 N 0.48742 0.14092 0.95479 0.0
C585 C 0.46003 0.13162 0.97529 0.0
C586 C 0.45963 0.13119 0.02503 0.0
C587 C 0.29068 0.40237 0.97668 0.0
C588 C 0.3086 0.42939 0.95163 0.0
C589 C 0.2902 0.40208 0.02539 0.0
C590 C 0.3076 0.4288 0.05128 0.0
H591 H 0.27693 0.38108 0.95863 0.0
H592 H 0.2761 0.38058 0.04278 0.0
S593 S 0.35812 0.50584 0.00264 0.0
N594 N 0.34402 0.48381 0.95655 0.0
N595 N 0.34311 0.48327 0.04805 0.0
C596 C 0.32549 0.4561 0.02674 0.0
C597 C 0.326 0.45639 0.97701 0.0
C598 C 0.86661 0.32357 0.97192 0.0
C599 C 0.87745 0.30641 0.94893 0.0
C600 C 0.86672 0.32539 0.02056 0.0
C601 C 0.87782 0.31026 0.04834 0.0
H602 H 0.85801 0.33586 0.95225 0.0
H603 H 0.85824 0.33905 0.03638 0.0
S604 S 0.90867 0.26208 0.00542 0.0
N605 N 0.89944 0.27374 0.95782 0.0
N606 N 0.89973 0.27722 0.04909 0.0
C607 C 0.88854 0.29281 0.02585 0.0
C608 C 0.88832 0.29086 0.97625 0.0
C609 C 0.53685 0.87215 0.02516 0.0
C610 C 0.56417 0.88623 0.05057 0.0
C611 C 0.53684 0.87267 0.97637 0.0
C612 C 0.56415 0.88729 0.95084 0.0
H613 H 0.51518 0.86042 0.04301 0.0
H614 H 0.51516 0.86132 0.9586 0.0
S615 S 0.64201 0.92854 0.00056 0.0
N616 N 0.61938 0.91588 0.04631 0.0
N617 N 0.61936 0.91686 0.9549 0.0
C618 C 0.59166 0.90174 0.9758 0.0
C619 C 0.59168 0.90121 0.02551 0.0
C620 C 0.64165 0.52516 0.01115 0.0
C621 C 0.66317 0.54376 0.04456 0.0
C622 C 0.64763 0.53041 0.96344 0.0
C623 C 0.6753 0.55463 0.94705 0.0
H624 H 0.61982 0.50644 0.02181 0.0
H625 H 0.63013 0.51561 0.93924 0.0
S626 S 0.74005 0.60916 0.01975 0.0
N627 N 0.71394 0.5868 0.0576 0.0
N628 N 0.72498 0.59669 0.96796 0.0
C629 C 0.69726 0.57315 0.97994 0.0
C630 C 0.69127 0.56769 0.02862 0.0
C631 C 0.07612 0.62899 0.97284 0.0
C632 C 0.10182 0.64919 0.94667 0.0
C633 C 0.07623 0.62993 0.02151 0.0
C634 C 0.10203 0.65116 0.04632 0.0
H635 H 0.05557 0.61216 0.9557 0.0
H636 H 0.05578 0.61381 0.03974 0.0
S637 S 0.17541 0.70926 0.99453 0.0
N638 N 0.15394 0.69119 0.94934 0.0
N639 N 0.15418 0.69299 0.04085 0.0
C640 C 0.12798 0.67156 0.02067 0.0
C641 C 0.12788 0.67055 0.97093 0.0
C642 C 0.8733 0.54108 0.52294 0.0
C643 C 0.88081 0.56668 0.55077 0.0
C644 C 0.87539 0.54325 0.47433 0.0
C645 C 0.8853 0.57115 0.45149 0.0
H646 H 0.86591 0.51911 0.53873 0.0
H647 H 0.86966 0.52291 0.45461 0.0
S648 S 0.90636 0.64483 0.50792 0.0
N649 N 0.89756 0.62073 0.55155 0.0
N650 N 0.9016 0.62478 0.46034 0.0
C651 C 0.89243 0.59686 0.47877 0.0
C652 C 0.89013 0.59463 0.52831 0.0
C653 C 0.37319 0.92562 0.52807 0.0
C654 C 0.35081 0.90081 0.55352 0.0
C655 C 0.37351 0.92553 0.47934 0.0
C656 C 0.35149 0.90061 0.45378 0.0
H657 H 0.39066 0.94549 0.54584 0.0
H658 H 0.39121 0.94532 0.46165 0.0
S659 S 0.28822 0.82947 0.50352 0.0
N660 N 0.30619 0.85028 0.54931 0.0
N661 N 0.3068 0.85009 0.4578 0.0
C662 C 0.32904 0.87549 0.47872 0.0
C663 C 0.3287 0.87559 0.52848 0.0
C664 C 0.44975 0.378 0.51743 0.0
C665 C 0.45294 0.35609 0.54287 0.0
C666 C 0.45027 0.37834 0.46868 0.0
C667 C 0.45408 0.35683 0.44319 0.0
H668 H 0.44675 0.39511 0.53521 0.0
H669 H 0.44766 0.39571 0.45094 0.0
S670 S 0.46374 0.29466 0.49298 0.0
N671 N 0.46025 0.3123 0.53872 0.0
N672 N 0.46127 0.31295 0.44727 0.0
C673 C 0.45741 0.33479 0.46816 0.0
C674 C 0.45682 0.33442 0.51787 0.0
C675 C 0.11541 0.45309 0.52086 0.0
C676 C 0.0895 0.43073 0.54442 0.0
C677 C 0.11737 0.45329 0.47216 0.0
C678 C 0.09374 0.43081 0.44524 0.0
H679 H 0.13438 0.47064 0.54014 0.0
H680 H 0.1378 0.47085 0.45556 0.0
S681 S 0.02055 0.36783 0.4895 0.0
N682 N 0.03926 0.38603 0.53668 0.0
N683 N 0.04318 0.38623 0.44542 0.0
C684 C 0.06759 0.40852 0.46823 0.0
C685 C 0.0654 0.40854 0.51772 0.0
C686 C 0.68836 0.09526 0.47248 0.0
C687 C 0.67364 0.10762 0.44653 0.0
C688 C 0.68856 0.09588 0.52119 0.0
C689 C 0.67399 0.10879 0.5462 0.0
H690 H 0.69992 0.08499 0.45514 0.0
H691 H 0.70025 0.08601 0.53929 0.0
S692 S 0.63207 0.1443 0.49502 0.0
N693 N 0.64403 0.13327 0.44966 0.0
N694 N 0.64439 0.13437 0.54116 0.0
C695 C 0.65915 0.12127 0.52076 0.0
C696 C 0.65899 0.1207 0.47102 0.0
C697 C 0.53506 0.6611 0.4795 0.0
C698 C 0.53379 0.63675 0.45426 0.0
C699 C 0.53564 0.66152 0.52825 0.0
C700 C 0.53496 0.6376 0.55397 0.0
H701 H 0.53578 0.68019 0.46153 0.0
H702 H 0.53676 0.6809 0.54583 0.0
S703 S 0.53073 0.56794 0.50482 0.0
N704 N 0.53126 0.58769 0.4589 0.0
N705 N 0.53235 0.58848 0.55033 0.0
C706 C 0.53343 0.61294 0.52922 0.0
C707 C 0.53284 0.61252 0.47951 0.0
C708 C 0.54005 0.1317 0.27044 0.0
C709 C 0.53927 0.13304 0.22155 0.0
C710 C 0.56395 0.13102 0.29355 0.0
C711 C 0.58814 0.13159 0.26882 0.0
H712 H 0.52179 0.13072 0.29125 0.0
H713 H 0.56308 0.12945 0.33115 0.0
S714 S 0.59807 0.13694 0.14038 0.0
N715 N 0.56566 0.1363 0.14918 0.0
N716 N 0.61055 0.13502 0.19252 0.0
C717 C 0.58812 0.13376 0.21993 0.0
C718 C 0.56374 0.13449 0.19635 0.0
C719 C 0.42086 0.55999 0.30277 0.0
C720 C 0.44223 0.58672 0.27999 0.0
C721 C 0.39717 0.53607 0.27826 0.0
C722 C 0.39374 0.53791 0.22993 0.0
H723 H 0.42292 0.55701 0.33964 0.0
H724 H 0.38182 0.51571 0.29738 0.0
S725 S 0.44182 0.60444 0.1547 0.0
N726 N 0.45711 0.61466 0.20688 0.0
N727 N 0.4126 0.56976 0.16082 0.0
C728 C 0.41419 0.56508 0.20704 0.0
C729 C 0.4384 0.58944 0.23203 0.0
C730 C 0.88907 0.46885 0.23876 0.0
C731 C 0.86111 0.46211 0.25892 0.0
C732 C 0.89359 0.44605 0.21984 0.0
C733 C 0.87044 0.4154 0.22043 0.0
H734 H 0.90784 0.49201 0.23751 0.0
H735 H 0.91567 0.4526 0.20514 0.0
S736 S 0.79268 0.38546 0.2684 0.0
N737 N 0.80964 0.42244 0.27772 0.0
N738 N 0.81817 0.37948 0.24232 0.0
C739 C 0.84222 0.40825 0.24015 0.0
C740 C 0.83755 0.43159 0.2593 0.0
C741 C 0.42839 0.86119 0.20531 0.0
C742 C 0.45035 0.85685 0.22823 0.0
C743 C 0.40509 0.86209 0.23003 0.0
C744 C 0.40264 0.85857 0.27876 0.0
H745 H 0.42963 0.86483 0.16807 0.0
H746 H 0.38926 0.86626 0.21067 0.0
S747 S 0.45265 0.84352 0.35489 0.0
N748 N 0.4669 0.84674 0.30221 0.0
N749 N 0.4231 0.84842 0.34862 0.0
C750 C 0.42369 0.85291 0.30194 0.0
C751 C 0.44752 0.85207 0.27672 0.0
C752 C 0.59688 0.46103 0.27469 0.0
C753 C 0.60406 0.45812 0.22837 0.0
C754 C 0.57115 0.43778 0.29676 0.0
C755 C 0.55123 0.4108 0.2732 0.0
H756 H 0.61107 0.48167 0.29403 0.0
H757 H 0.56641 0.44147 0.33216 0.0
S758 S 0.56046 0.39119 0.15209 0.0
N759 N 0.58985 0.42555 0.16021 0.0
N760 N 0.54121 0.3819 0.20144 0.0
C761 C 0.55853 0.4072 0.2272 0.0
C762 C 0.58503 0.43081 0.20489 0.0
C763 C 0.13341 0.5926 0.26755 0.0
C764 C 0.1378 0.59554 0.219 0.0
C765 C 0.13088 0.56743 0.29152 0.0
C766 C 0.13259 0.54406 0.26802 0.0
H767 H 0.13106 0.60946 0.2873 0.0
H768 H 0.12675 0.56599 0.32865 0.0
S769 S 0.14694 0.54214 0.14161 0.0
N770 N 0.14595 0.57385 0.14874 0.0
N771 N 0.14122 0.52657 0.19373 0.0
C772 C 0.1382 0.54725 0.21973 0.0
C773 C 0.14081 0.57296 0.19528 0.0
C774 C 0.4261 0.86023 0.79937 0.0
C775 C 0.44911 0.85816 0.7753 0.0
C776 C 0.40205 0.86024 0.77562 0.0
C777 C 0.39987 0.85807 0.72676 0.0
H778 H 0.42709 0.86282 0.83683 0.0
H779 H 0.38547 0.86279 0.79586 0.0
S780 S 0.45253 0.84884 0.64761 0.0
N781 N 0.46692 0.85146 0.69996 0.0
N782 N 0.42173 0.85144 0.6554 0.0
C783 C 0.42196 0.85455 0.70238 0.0
C784 C 0.44655 0.85462 0.72659 0.0
C785 C 0.57355 0.43217 0.78348 0.0
C786 C 0.59687 0.45687 0.7592 0.0
C787 C 0.5491 0.40844 0.75996 0.0
C788 C 0.54699 0.40827 0.7111 0.0
H789 H 0.57361 0.4315 0.82114 0.0
H790 H 0.53138 0.39039 0.7805 0.0
S791 S 0.60366 0.46621 0.63081 0.0
N792 N 0.61744 0.47871 0.68324 0.0
N793 N 0.57152 0.43405 0.63901 0.0
C794 C 0.57084 0.43216 0.6862 0.0
C795 C 0.59572 0.45647 0.71023 0.0
C796 C 0.13211 0.58215 0.7264 0.0
C797 C 0.12808 0.58129 0.77499 0.0
C798 C 0.13115 0.55771 0.70236 0.0
C799 C 0.12604 0.53125 0.72579 0.0
H800 H 0.13567 0.60175 0.70644 0.0
H801 H 0.13402 0.55949 0.66494 0.0
S802 S 0.11539 0.51781 0.85333 0.0
N803 N 0.11977 0.55199 0.84596 0.0
N804 N 0.11792 0.50607 0.80089 0.0
C805 C 0.12259 0.53027 0.77456 0.0
C806 C 0.12364 0.55525 0.79909 0.0
C807 C 0.5869 0.13331 0.77064 0.0
C808 C 0.58966 0.13679 0.72195 0.0
C809 C 0.5632 0.13385 0.79478 0.0
C810 C 0.54117 0.13781 0.7713 0.0
H811 H 0.60284 0.12953 0.79043 0.0
H812 H 0.56182 0.13039 0.83208 0.0
S813 S 0.53935 0.1505 0.6443 0.0
N814 N 0.5692 0.1462 0.6514 0.0
N815 N 0.52471 0.14722 0.6967 0.0
C816 C 0.54418 0.14235 0.72277 0.0
C817 C 0.56839 0.14186 0.69815 0.0
C818 C 0.39985 0.54107 0.72848 0.0
C819 C 0.39749 0.54122 0.7773 0.0
C820 C 0.42347 0.56548 0.70455 0.0
C821 C 0.44585 0.59105 0.72841 0.0
H822 H 0.38366 0.52165 0.70841 0.0
H823 H 0.42463 0.56377 0.66713 0.0
S824 S 0.4487 0.60411 0.85593 0.0
N825 N 0.41859 0.57018 0.84843 0.0
N826 N 0.46299 0.61602 0.80349 0.0
C827 C 0.44315 0.5921 0.77708 0.0
C828 C 0.41898 0.56723 0.80148 0.0
C829 C 0.88504 0.41362 0.7316 0.0
C830 C 0.8655 0.40049 0.76996 0.0
C831 C 0.88779 0.43936 0.7092 0.0
C832 C 0.87093 0.45294 0.72388 0.0
H833 H 0.89892 0.4044 0.71925 0.0
H834 H 0.90365 0.44889 0.6805 0.0
S835 S 0.8149 0.42617 0.8207 0.0
N836 N 0.82785 0.40216 0.82033 0.0
N837 N 0.83285 0.45042 0.77808 0.0
C838 C 0.85053 0.43948 0.76129 0.0
C839 C 0.84791 0.41334 0.78438 0.0
loop_
_geom_bond_atom_site_label_1
_geom_bond_atom_site_label_2
_geom_bond_distance
_geom_bond_site_symmetry_2
_ccdc_geom_bond_type
C0 O1 1.160 . S
C0 O7 1.185 . S
O1 C0 1.160 . S
O2 Zn3 1.899 . S
O2 C10 1.284 . S
Zn3 O2 1.899 . S
Zn3 O4 2.032 . S
Zn3 O7 2.086 . S
Zn3 O12 1.977 . S
O4 Zn3 2.032 . S
O4 C8 1.278 . S
C5 O6 1.203 . S
C5 O12 1.267 . S
O6 C5 1.203 . S
O7 C0 1.185 . S
O7 Zn3 2.086 . S
C8 O4 1.278 . S
C8 O9 1.211 . S
O9 C8 1.211 . S
C10 O2 1.284 . S
C10 O11 1.273 . S
O11 C10 1.273 . S
O12 Zn3 1.977 . S
O12 C5 1.267 . S
C13 O14 1.160 . S
C13 O20 1.185 . S
O14 C13 1.160 . S
O15 Zn16 1.899 . S
O15 C23 1.284 . S
Zn16 O15 1.899 . S
Zn16 O17 2.032 . S
Zn16 O20 2.086 . S
Zn16 O25 1.977 . S
O17 Zn16 2.032 . S
O17 C21 1.278 . S
C18 O19 1.203 . S
C18 O25 1.267 . S
O19 C18 1.203 . S
O20 C13 1.185 . S
O20 Zn16 2.086 . S
C21 O17 1.278 . S
C21 O22 1.211 . S
O22 C21 1.211 . S
C23 O15 1.284 . S
C23 O24 1.273 . S
O24 C23 1.273 . S
O25 Zn16 1.977 . S
O25 C18 1.267 . S
C26 O27 1.160 . S
C26 O33 1.185 . S
O27 C26 1.160 . S
O28 Zn29 1.899 . S
O28 C36 1.284 . S
Zn29 O28 1.899 . S
Zn29 O30 2.032 . S
Zn29 O33 2.086 . S
Zn29 O38 1.977 . S
O30 Zn29 2.032 . S
O30 C34 1.278 . S
C31 O32 1.203 . S
C31 O38 1.267 . S
O32 C31 1.203 . S
O33 C26 1.185 . S
O33 Zn29 2.086 . S
C34 O30 1.278 . S
C34 O35 1.211 . S
O35 C34 1.211 . S
C36 O28 1.284 . S
C36 O37 1.273 . S
O37 C36 1.273 . S
O38 Zn29 1.977 . S
O38 C31 1.267 . S
C39 O40 1.160 . S
C39 O46 1.185 . S
O40 C39 1.160 . S
O41 Zn42 1.899 . S
O41 C49 1.284 . S
Zn42 O41 1.899 . S
Zn42 O43 2.032 . S
Zn42 O46 2.086 . S
Zn42 O51 1.977 . S
O43 Zn42 2.032 . S
O43 C47 1.278 . S
C44 O45 1.203 . S
C44 O51 1.267 . S
O45 C44 1.203 . S
O46 C39 1.185 . S
O46 Zn42 2.086 . S
C47 O43 1.278 . S
C47 O48 1.211 . S
O48 C47 1.211 . S
C49 O41 1.284 . S
C49 O50 1.273 . S
O50 C49 1.273 . S
O51 Zn42 1.977 . S
O51 C44 1.267 . S
C52 O53 1.160 . S
C52 O59 1.185 . S
O53 C52 1.160 . S
O54 Zn55 1.899 . S
O54 C62 1.284 . S
Zn55 O54 1.899 . S
Zn55 O56 2.032 . S
Zn55 O59 2.086 . S
Zn55 O64 1.977 . S
O56 Zn55 2.032 . S
O56 C60 1.278 . S
C57 O58 1.203 . S
C57 O64 1.267 . S
O58 C57 1.203 . S
O59 C52 1.185 . S
O59 Zn55 2.086 . S
C60 O56 1.278 . S
C60 O61 1.211 . S
O61 C60 1.211 . S
C62 O54 1.284 . S
C62 O63 1.273 . S
O63 C62 1.273 . S
O64 Zn55 1.977 . S
O64 C57 1.267 . S
C65 O66 1.160 . S
C65 O72 1.185 . S
O66 C65 1.160 . S
O67 Zn68 1.899 . S
O67 C75 1.284 . S
Zn68 O67 1.899 . S
Zn68 O69 2.032 . S
Zn68 O72 2.086 . S
Zn68 O77 1.977 . S
O69 Zn68 2.032 . S
O69 C73 1.278 . S
C70 O71 1.203 . S
C70 O77 1.267 . S
O71 C70 1.203 . S
O72 C65 1.185 . S
O72 Zn68 2.086 . S
C73 O69 1.278 . S
C73 O74 1.211 . S
O74 C73 1.211 . S
C75 O67 1.284 . S
C75 O76 1.273 . S
O76 C75 1.273 . S
O77 Zn68 1.977 . S
O77 C70 1.267 . S
C78 O79 1.160 . S
C78 O85 1.185 . S
O79 C78 1.160 . S
O80 Zn81 1.899 . S
O80 C88 1.284 . S
Zn81 O80 1.899 . S
Zn81 O82 2.032 . S
Zn81 O85 2.086 . S
Zn81 O90 1.977 . S
O82 Zn81 2.032 . S
O82 C86 1.278 . S
C83 O84 1.203 . S
C83 O90 1.267 . S
O84 C83 1.203 . S
O85 C78 1.185 . S
O85 Zn81 2.086 . S
C86 O82 1.278 . S
C86 O87 1.211 . S
O87 C86 1.211 . S
C88 O80 1.284 . S
C88 O89 1.273 . S
O89 C88 1.273 . S
O90 Zn81 1.977 . S
O90 C83 1.267 . S
C91 O92 1.160 . S
C91 O98 1.185 . S
O92 C91 1.160 . S
O93 Zn94 1.899 . S
O93 C101 1.284 . S
Zn94 O93 1.899 . S
Zn94 O95 2.032 . S
Zn94 O98 2.086 . S
Zn94 O103 1.977 . S
O95 Zn94 2.032 . S
O95 C99 1.278 . S
C96 O97 1.203 . S
C96 O103 1.267 . S
O97 C96 1.203 . S
O98 C91 1.185 . S
O98 Zn94 2.086 . S
C99 O95 1.278 . S
C99 O100 1.211 . S
O100 C99 1.211 . S
C101 O93 1.284 . S
C101 O102 1.273 . S
O102 C101 1.273 . S
O103 Zn94 1.977 . S
O103 C96 1.267 . S
C104 O105 1.160 . S
C104 O111 1.185 . S
O105 C104 1.160 . S
O106 Zn107 1.899 . S
O106 C114 1.284 . S
Zn107 O106 1.899 . S
Zn107 O108 2.032 . S
Zn107 O111 2.086 . S
Zn107 O116 1.977 . S
O108 Zn107 2.032 . S
O108 C112 1.278 . S
C109 O110 1.203 . S
C109 O116 1.267 . S
O110 C109 1.203 . S
O111 C104 1.185 . S
O111 Zn107 2.086 . S
C112 O108 1.278 . S
C112 O113 1.211 . S
O113 C112 1.211 . S
C114 O106 1.284 . S
C114 O115 1.273 . S
O115 C114 1.273 . S
O116 Zn107 1.977 . S
O116 C109 1.267 . S
C117 O118 1.160 . S
C117 O124 1.185 . S
O118 C117 1.160 . S
O119 Zn120 1.899 . S
O119 C127 1.284 . S
Zn120 O119 1.899 . S
Zn120 O121 2.032 . S
Zn120 O124 2.086 . S
Zn120 O129 1.977 . S
O121 Zn120 2.032 . S
O121 C125 1.278 . S
C122 O123 1.203 . S
C122 O129 1.267 . S
O123 C122 1.203 . S
O124 C117 1.185 . S
O124 Zn120 2.086 . S
C125 O121 1.278 . S
C125 O126 1.211 . S
O126 C125 1.211 . S
C127 O119 1.284 . S
C127 O128 1.273 . S
O128 C127 1.273 . S
O129 Zn120 1.977 . S
O129 C122 1.267 . S
C130 O131 1.160 . S
C130 O137 1.185 . S
O131 C130 1.160 . S
O132 Zn133 1.899 . S
O132 C140 1.284 . S
Zn133 O132 1.899 . S
Zn133 O134 2.032 . S
Zn133 O137 2.086 . S
Zn133 O142 1.977 . S
O134 Zn133 2.032 . S
O134 C138 1.278 . S
C135 O136 1.203 . S
C135 O142 1.267 . S
O136 C135 1.203 . S
O137 C130 1.185 . S
O137 Zn133 2.086 . S
C138 O134 1.278 . S
C138 O139 1.211 . S
O139 C138 1.211 . S
C140 O132 1.284 . S
C140 O141 1.273 . S
O141 C140 1.273 . S
O142 Zn133 1.977 . S
O142 C135 1.267 . S
C143 O144 1.160 . S
C143 O150 1.185 . S
O144 C143 1.160 . S
O145 Zn146 1.899 . S
O145 C153 1.284 . S
Zn146 O145 1.899 . S
Zn146 O147 2.032 . S
Zn146 O150 2.086 . S
Zn146 O155 1.977 . S
O147 Zn146 2.032 . S
O147 C151 1.278 . S
C148 O149 1.203 . S
C148 O155 1.267 . S
O149 C148 1.203 . S
O150 C143 1.185 . S
O150 Zn146 2.086 . S
C151 O147 1.278 . S
C151 O152 1.211 . S
O152 C151 1.211 . S
C153 O145 1.284 . S
C153 O154 1.273 . S
O154 C153 1.273 . S
O155 Zn146 1.977 . S
O155 C148 1.267 . S
C156 O157 1.160 . S
C156 O163 1.185 . S
O157 C156 1.160 . S
O158 Zn159 1.899 . S
O158 C166 1.284 . S
Zn159 O158 1.899 . S
Zn159 O160 2.032 . S
Zn159 O163 2.086 . S
Zn159 O168 1.977 . S
O160 Zn159 2.032 . S
O160 C164 1.278 . S
C161 O162 1.203 . S
C161 O168 1.267 . S
O162 C161 1.203 . S
O163 C156 1.185 . S
O163 Zn159 2.086 . S
C164 O160 1.278 . S
C164 O165 1.211 . S
O165 C164 1.211 . S
C166 O158 1.284 . S
C166 O167 1.273 . S
O167 C166 1.273 . S
O168 Zn159 1.977 . S
O168 C161 1.267 . S
C169 O170 1.160 . S
C169 O176 1.185 . S
O170 C169 1.160 . S
O171 Zn172 1.899 . S
O171 C179 1.284 . S
Zn172 O171 1.899 . S
Zn172 O173 2.032 . S
Zn172 O176 2.086 . S
Zn172 O181 1.977 . S
O173 Zn172 2.032 . S
O173 C177 1.278 . S
C174 O175 1.203 . S
C174 O181 1.267 . S
O175 C174 1.203 . S
O176 C169 1.185 . S
O176 Zn172 2.086 . S
C177 O173 1.278 . S
C177 O178 1.211 . S
O178 C177 1.211 . S
C179 O171 1.284 . S
C179 O180 1.273 . S
O180 C179 1.273 . S
O181 Zn172 1.977 . S
O181 C174 1.267 . S
C182 O183 1.160 . S
C182 O189 1.185 . S
O183 C182 1.160 . S
O184 Zn185 1.899 . S
O184 C192 1.284 . S
Zn185 O184 1.899 . S
Zn185 O186 2.032 . S
Zn185 O189 2.086 . S
Zn185 O194 1.977 . S
O186 Zn185 2.032 . S
O186 C190 1.278 . S
C187 O188 1.203 . S
C187 O194 1.267 . S
O188 C187 1.203 . S
O189 C182 1.185 . S
O189 Zn185 2.086 . S
C190 O186 1.278 . S
C190 O191 1.211 . S
O191 C190 1.211 . S
C192 O184 1.284 . S
C192 O193 1.273 . S
O193 C192 1.273 . S
O194 Zn185 1.977 . S
O194 C187 1.267 . S
C195 O196 1.160 . S
C195 O202 1.185 . S
O196 C195 1.160 . S
O197 Zn198 1.899 . S
O197 C205 1.284 . S
Zn198 O197 1.899 . S
Zn198 O199 2.032 . S
Zn198 O202 2.086 . S
Zn198 O207 1.977 . S
O199 Zn198 2.032 . S
O199 C203 1.278 . S
C200 O201 1.203 . S
C200 O207 1.267 . S
O201 C200 1.203 . S
O202 C195 1.185 . S
O202 Zn198 2.086 . S
C203 O199 1.278 . S
C203 O204 1.211 . S
O204 C203 1.211 . S
C205 O197 1.284 . S
C205 O206 1.273 . S
O206 C205 1.273 . S
O207 Zn198 1.977 . S
O207 C200 1.267 . S
C208 O209 1.160 . S
C208 O215 1.185 . S
O209 C208 1.160 . S
O210 Zn211 1.899 . S
O210 C218 1.284 . S
Zn211 O210 1.899 . S
Zn211 O212 2.032 . S
Zn211 O215 2.086 . S
Zn211 O220 1.977 . S
O212 Zn211 2.032 . S
O212 C216 1.278 . S
C213 O214 1.203 . S
C213 O220 1.267 . S
O214 C213 1.203 . S
O215 C208 1.185 . S
O215 Zn211 2.086 . S
C216 O212 1.278 . S
C216 O217 1.211 . S
O217 C216 1.211 . S
C218 O210 1.284 . S
C218 O219 1.273 . S
O219 C218 1.273 . S
O220 Zn211 1.977 . S
O220 C213 1.267 . S
C221 O222 1.160 . S
C221 O228 1.185 . S
O222 C221 1.160 . S
O223 Zn224 1.899 . S
O223 C231 1.284 . S
Zn224 O223 1.899 . S
Zn224 O225 2.032 . S
Zn224 O228 2.086 . S
Zn224 O233 1.977 . S
O225 Zn224 2.032 . S
O225 C229 1.278 . S
C226 O227 1.203 . S
C226 O233 1.267 . S
O227 C226 1.203 . S
O228 C221 1.185 . S
O228 Zn224 2.086 . S
C229 O225 1.278 . S
C229 O230 1.211 . S
O230 C229 1.211 . S
C231 O223 1.284 . S
C231 O232 1.273 . S
O232 C231 1.273 . S
O233 Zn224 1.977 . S
O233 C226 1.267 . S
C234 O235 1.160 . S
C234 O241 1.185 . S
O235 C234 1.160 . S
O236 Zn237 1.899 . S
O236 C244 1.284 . S
Zn237 O236 1.899 . S
Zn237 O238 2.032 . S
Zn237 O241 2.086 . S
Zn237 O246 1.977 . S
O238 Zn237 2.032 . S
O238 C242 1.278 . S
C239 O240 1.203 . S
C239 O246 1.267 . S
O240 C239 1.203 . S
O241 C234 1.185 . S
O241 Zn237 2.086 . S
C242 O238 1.278 . S
C242 O243 1.211 . S
O243 C242 1.211 . S
C244 O236 1.284 . S
C244 O245 1.273 . S
O245 C244 1.273 . S
O246 Zn237 1.977 . S
O246 C239 1.267 . S
C247 O248 1.160 . S
C247 O254 1.185 . S
O248 C247 1.160 . S
O249 Zn250 1.899 . S
O249 C257 1.284 . S
Zn250 O249 1.899 . S
Zn250 O251 2.032 . S
Zn250 O254 2.086 . S
Zn250 O259 1.977 . S
O251 Zn250 2.032 . S
O251 C255 1.278 . S
C252 O253 1.203 . S
C252 O259 1.267 . S
O253 C252 1.203 . S
O254 C247 1.185 . S
O254 Zn250 2.086 . S
C255 O251 1.278 . S
C255 O256 1.211 . S
O256 C255 1.211 . S
C257 O249 1.284 . S
C257 O258 1.273 . S
O258 C257 1.273 . S
O259 Zn250 1.977 . S
O259 C252 1.267 . S
C260 O261 1.160 . S
C260 O267 1.185 . S
O261 C260 1.160 . S
O262 Zn263 1.899 . S
O262 C270 1.284 . S
Zn263 O262 1.899 . S
Zn263 O264 2.032 . S
Zn263 O267 2.086 . S
Zn263 O272 1.977 . S
O264 Zn263 2.032 . S
O264 C268 1.278 . S
C265 O266 1.203 . S
C265 O272 1.267 . S
O266 C265 1.203 . S
O267 C260 1.185 . S
O267 Zn263 2.086 . S
C268 O264 1.278 . S
C268 O269 1.211 . S
O269 C268 1.211 . S
C270 O262 1.284 . S
C270 O271 1.273 . S
O271 C270 1.273 . S
O272 Zn263 1.977 . S
O272 C265 1.267 . S
C273 O274 1.160 . S
C273 O280 1.185 . S
O274 C273 1.160 . S
O275 Zn276 1.899 . S
O275 C283 1.284 . S
Zn276 O275 1.899 . S
Zn276 O277 2.032 . S
Zn276 O280 2.086 . S
Zn276 O285 1.977 . S
O277 Zn276 2.032 . S
O277 C281 1.278 . S
C278 O279 1.203 . S
C278 O285 1.267 . S
O279 C278 1.203 . S
O280 C273 1.185 . S
O280 Zn276 2.086 . S
C281 O277 1.278 . S
C281 O282 1.211 . S
O282 C281 1.211 . S
C283 O275 1.284 . S
C283 O284 1.273 . S
O284 C283 1.273 . S
O285 Zn276 1.977 . S
O285 C278 1.267 . S
C286 O287 1.160 . S
C286 O293 1.185 . S
O287 C286 1.160 . S
O288 Zn289 1.899 . S
O288 C296 1.284 . S
Zn289 O288 1.899 . S
Zn289 O290 2.032 . S
Zn289 O293 2.086 . S
Zn289 O298 1.977 . S
O290 Zn289 2.032 . S
O290 C294 1.278 . S
C291 O292 1.203 . S
C291 O298 1.267 . S
O292 C291 1.203 . S
O293 C286 1.185 . S
O293 Zn289 2.086 . S
C294 O290 1.278 . S
C294 O295 1.211 . S
O295 C294 1.211 . S
C296 O288 1.284 . S
C296 O297 1.273 . S
O297 C296 1.273 . S
O298 Zn289 1.977 . S
O298 C291 1.267 . S
C299 O300 1.160 . S
C299 O306 1.185 . S
O300 C299 1.160 . S
O301 Zn302 1.899 . S
O301 C309 1.284 . S
Zn302 O301 1.899 . S
Zn302 O303 2.032 . S
Zn302 O306 2.086 . S
Zn302 O311 1.977 . S
O303 Zn302 2.032 . S
O303 C307 1.278 . S
C304 O305 1.203 . S
C304 O311 1.267 . S
O305 C304 1.203 . S
O306 C299 1.185 . S
O306 Zn302 2.086 . S
C307 O303 1.278 . S
C307 O308 1.211 . S
O308 C307 1.211 . S
C309 O301 1.284 . S
C309 O310 1.273 . S
O310 C309 1.273 . S
O311 Zn302 1.977 . S
O311 C304 1.267 . S
C312 C313 1.369 . S
C312 C314 1.419 1_545 S
C312 H316 0.930 . S
C313 C312 1.369 . S
C313 C322 1.429 . S
C314 C312 1.419 1_565 S
C314 C315 1.363 . S
C314 H317 0.929 . S
C315 C314 1.363 . S
C315 C321 1.428 . S
H316 C312 0.930 . S
H317 C314 0.929 . S
S318 N319 1.613 . S
S318 N320 1.610 1_545 S
N319 S318 1.613 . S
N319 C322 1.350 . S
N320 S318 1.610 1_565 S
N320 C321 1.351 . S
C321 C315 1.428 . S
C321 N320 1.351 . S
C321 C322 1.434 1_565 S
C322 C313 1.429 . S
C322 N319 1.350 . S
C322 C321 1.434 1_545 S
C323 C324 1.369 . S
C323 C325 1.419 . S
C323 H327 0.930 . S
C324 C323 1.369 . S
C324 C333 1.429 . S
C325 C323 1.419 . S
C325 C326 1.363 . S
C325 H328 0.929 . S
C326 C325 1.363 . S
C326 C332 1.428 . S
H327 C323 0.930 . S
H328 C325 0.929 . S
S329 N330 1.613 . S
S329 N331 1.610 . S
N330 S329 1.613 . S
N330 C333 1.350 . S
N331 S329 1.610 . S
N331 C332 1.351 . S
C332 C326 1.428 . S
C332 N331 1.351 . S
C332 C333 1.434 . S
C333 C324 1.429 . S
C333 N330 1.350 . S
C333 C332 1.434 . S
C334 C335 1.369 . S
C334 C336 1.419 1_655 S
C334 H338 0.930 . S
C335 C334 1.369 . S
C335 C344 1.429 . S
C336 C334 1.419 1_455 S
C336 C337 1.363 . S
C336 H339 0.929 . S
C337 C336 1.363 . S
C337 C343 1.428 . S
H338 C334 0.930 . S
H339 C336 0.929 . S
S340 N341 1.613 1_455 S
S340 N342 1.610 . S
N341 S340 1.613 1_655 S
N341 C344 1.350 . S
N342 S340 1.610 . S
N342 C343 1.351 . S
C343 C337 1.428 . S
C343 N342 1.351 . S
C343 C344 1.434 1_455 S
C344 C335 1.429 . S
C344 N341 1.350 . S
C344 C343 1.434 1_655 S
C345 C346 1.369 . S
C345 C347 1.419 1_565 S
C345 H349 0.930 . S
C346 C345 1.369 . S
C346 C355 1.429 . S
C347 C345 1.419 1_545 S
C347 C348 1.363 . S
C347 H350 0.929 . S
C348 C347 1.363 . S
C348 C354 1.428 . S
H349 C345 0.930 . S
H350 C347 0.929 . S
S351 N352 1.613 1_545 S
S351 N353 1.610 . S
N352 S351 1.613 1_565 S
N352 C355 1.350 . S
N353 S351 1.610 . S
N353 C354 1.351 . S
C354 C348 1.428 . S
C354 N353 1.351 . S
C354 C355 1.434 1_545 S
C355 C346 1.429 . S
C355 N352 1.350 . S
C355 C354 1.434 1_565 S
C356 C357 1.369 . S
C356 C358 1.419 . S
C356 H360 0.930 . S
C357 C356 1.369 . S
C357 C366 1.429 . S
C358 C356 1.419 . S
C358 C359 1.363 . S
C358 H361 0.929 . S
C359 C358 1.363 . S
C359 C365 1.428 . S
H360 C356 0.930 . S
H361 C358 0.929 . S
S362 N363 1.613 . S
S362 N364 1.610 . S
N363 S362 1.613 . S
N363 C366 1.350 . S
N364 S362 1.610 . S
N364 C365 1.351 . S
C365 C359 1.428 . S
C365 N364 1.351 . S
C365 C366 1.434 . S
C366 C357 1.429 . S
C366 N363 1.350 . S
C366 C365 1.434 . S
C367 C368 1.369 . S
C367 C369 1.419 1_455 S
C367 H371 0.930 . S
C368 C367 1.369 . S
C368 C377 1.429 . S
C369 C367 1.419 1_655 S
C369 C370 1.363 . S
C369 H372 0.929 . S
C370 C369 1.363 . S
C370 C376 1.428 . S
H371 C367 0.930 . S
H372 C369 0.929 . S
S373 N374 1.613 . S
S373 N375 1.610 1_455 S
N374 S373 1.613 . S
N374 C377 1.350 . S
N375 S373 1.610 1_655 S
N375 C376 1.351 . S
C376 C370 1.428 . S
C376 N375 1.351 . S
C376 C377 1.434 1_655 S
C377 C368 1.429 . S
C377 N374 1.350 . S
C377 C376 1.434 1_455 S
C378 C379 1.369 . S
C378 C380 1.419 1_565 S
C378 H382 0.930 . S
C379 C378 1.369 . S
C379 C388 1.429 . S
C380 C378 1.419 1_545 S
C380 C381 1.363 . S
C380 H383 0.929 . S
C381 C380 1.363 . S
C381 C387 1.428 . S
H382 C378 0.930 . S
H383 C380 0.929 . S
S384 N385 1.613 1_545 S
S384 N386 1.610 . S
N385 S384 1.613 1_565 S
N385 C388 1.350 . S
N386 S384 1.610 . S
N386 C387 1.351 . S
C387 C381 1.428 . S
C387 N386 1.351 . S
C387 C388 1.434 1_545 S
C388 C379 1.429 . S
C388 N385 1.350 . S
C388 C387 1.434 1_565 S
C389 C390 1.369 . S
C389 C391 1.419 . S
C389 H393 0.930 . S
C390 C389 1.369 . S
C390 C399 1.429 . S
C391 C389 1.419 . S
C391 C392 1.363 . S
C391 H394 0.929 . S
C392 C391 1.363 . S
C392 C398 1.428 . S
H393 C389 0.930 . S
H394 C391 0.929 . S
S395 N396 1.613 . S
S395 N397 1.610 . S
N396 S395 1.613 . S
N396 C399 1.350 . S
N397 S395 1.610 . S
N397 C398 1.351 . S
C398 C392 1.428 . S
C398 N397 1.351 . S
C398 C399 1.434 . S
C399 C390 1.429 . S
C399 N396 1.350 . S
C399 C398 1.434 . S
C400 C401 1.369 . S
C400 C402 1.419 1_655 S
C400 H404 0.930 . S
C401 C400 1.369 . S
C401 C410 1.429 . S
C402 C400 1.419 1_455 S
C402 C403 1.363 . S
C402 H405 0.929 . S
C403 C402 1.363 . S
C403 C409 1.428 . S
H404 C400 0.930 . S
H405 C402 0.929 . S
S406 N407 1.613 1_455 S
S406 N408 1.610 . S
N407 S406 1.613 1_655 S
N407 C410 1.350 . S
N408 S406 1.610 . S
N408 C409 1.351 . S
C409 C403 1.428 . S
C409 N408 1.351 . S
C409 C410 1.434 1_455 S
C410 C401 1.429 . S
C410 N407 1.350 . S
C410 C409 1.434 1_655 S
C411 C412 1.369 . S
C411 C413 1.419 1_545 S
C411 H415 0.930 . S
C412 C411 1.369 . S
C412 C421 1.429 . S
C413 C411 1.419 1_565 S
C413 C414 1.363 . S
C413 H416 0.929 . S
C414 C413 1.363 . S
C414 C420 1.428 . S
H415 C411 0.930 . S
H416 C413 0.929 . S
S417 N418 1.613 1_565 S
S417 N419 1.610 . S
N418 S417 1.613 1_545 S
N418 C421 1.350 . S
N419 S417 1.610 . S
N419 C420 1.351 . S
C420 C414 1.428 . S
C420 N419 1.351 . S
C420 C421 1.434 1_565 S
C421 C412 1.429 . S
C421 N418 1.350 . S
C421 C420 1.434 1_545 S
C422 C423 1.369 . S
C422 C424 1.419 . S
C422 H426 0.930 . S
C423 C422 1.369 . S
C423 C432 1.429 . S
C424 C422 1.419 . S
C424 C425 1.363 . S
C424 H427 0.929 . S
C425 C424 1.363 . S
C425 C431 1.428 . S
H426 C422 0.930 . S
H427 C424 0.929 . S
S428 N429 1.613 . S
S428 N430 1.610 . S
N429 S428 1.613 . S
N429 C432 1.350 . S
N430 S428 1.610 . S
N430 C431 1.351 . S
C431 C425 1.428 . S
C431 N430 1.351 . S
C431 C432 1.434 . S
C432 C423 1.429 . S
C432 N429 1.350 . S
C432 C431 1.434 . S
C433 C434 1.369 . S
C433 C435 1.419 1_455 S
C433 H437 0.930 . S
C434 C433 1.369 . S
C434 C443 1.429 . S
C435 C433 1.419 1_655 S
C435 C436 1.363 . S
C435 H438 0.929 . S
C436 C435 1.363 . S
C436 C442 1.428 . S
H437 C433 0.930 . S
H438 C435 0.929 . S
S439 N440 1.613 . S
S439 N441 1.610 1_455 S
N440 S439 1.613 . S
N440 C443 1.350 . S
N441 S439 1.610 1_655 S
N441 C442 1.351 . S
C442 C436 1.428 . S
C442 N441 1.351 . S
C442 C443 1.434 1_655 S
C443 C434 1.429 . S
C443 N440 1.350 . S
C443 C442 1.434 1_455 S
C444 C445 1.369 . S
C444 C446 1.419 . S
C444 H448 0.930 . S
C445 C444 1.369 . S
C445 C454 1.429 . S
C446 C444 1.419 . S
C446 C447 1.363 . S
C446 H449 0.929 . S
C447 C446 1.363 . S
C447 C453 1.428 . S
H448 C444 0.930 . S
H449 C446 0.929 . S
S450 N451 1.613 . S
S450 N452 1.610 . S
N451 S450 1.613 . S
N451 C454 1.350 . S
N452 S450 1.610 . S
N452 C453 1.351 . S
C453 C447 1.428 . S
C453 N452 1.351 . S
C453 C454 1.434 . S
C454 C445 1.429 . S
C454 N451 1.350 . S
C454 C453 1.434 . S
C455 C456 1.369 . S
C455 C457 1.419 . S
C455 H459 0.930 . S
C456 C455 1.369 . S
C456 C465 1.429 . S
C457 C455 1.419 . S
C457 C458 1.363 . S
C457 H460 0.929 . S
C458 C457 1.363 . S
C458 C464 1.428 . S
H459 C455 0.930 . S
H460 C457 0.929 . S
S461 N462 1.613 . S
S461 N463 1.610 . S
N462 S461 1.613 . S
N462 C465 1.350 . S
N463 S461 1.610 . S
N463 C464 1.351 . S
C464 C458 1.428 . S
C464 N463 1.351 . S
C464 C465 1.434 . S
C465 C456 1.429 . S
C465 N462 1.350 . S
C465 C464 1.434 . S
C466 C467 1.369 . S
C466 C468 1.419 . S
C466 H470 0.930 . S
C467 C466 1.369 . S
C467 C476 1.429 . S
C468 C466 1.419 . S
C468 C469 1.363 . S
C468 H471 0.929 . S
C469 C468 1.363 . S
C469 C475 1.428 . S
H470 C466 0.930 . S
H471 C468 0.929 . S
S472 N473 1.613 . S
S472 N474 1.610 . S
N473 S472 1.613 . S
N473 C476 1.350 . S
N474 S472 1.610 . S
N474 C475 1.351 . S
C475 C469 1.428 . S
C475 N474 1.351 . S
C475 C476 1.434 . S
C476 C467 1.429 . S
C476 N473 1.350 . S
C476 C475 1.434 . S
C477 C478 1.369 . S
C477 C479 1.419 . S
C477 H481 0.930 . S
C478 C477 1.369 . S
C478 C487 1.429 . S
C479 C477 1.419 . S
C479 C480 1.363 . S
C479 H482 0.929 . S
C480 C479 1.363 . S
C480 C486 1.428 . S
H481 C477 0.930 . S
H482 C479 0.929 . S
S483 N484 1.613 . S
S483 N485 1.610 . S
N484 S483 1.613 . S
N484 C487 1.350 . S
N485 S483 1.610 . S
N485 C486 1.351 . S
C486 C480 1.428 . S
C486 N485 1.351 . S
C486 C487 1.434 . S
C487 C478 1.429 . S
C487 N484 1.350 . S
C487 C486 1.434 . S
C488 C489 1.369 . S
C488 C490 1.419 . S
C488 H492 0.930 . S
C489 C488 1.369 . S
C489 C498 1.429 . S
C490 C488 1.419 . S
C490 C491 1.363 . S
C490 H493 0.929 . S
C491 C490 1.363 . S
C491 C497 1.428 . S
H492 C488 0.930 . S
H493 C490 0.929 . S
S494 N495 1.613 . S
S494 N496 1.610 . S
N495 S494 1.613 . S
N495 C498 1.350 . S
N496 S494 1.610 . S
N496 C497 1.351 . S
C497 C491 1.428 . S
C497 N496 1.351 . S
C497 C498 1.434 . S
C498 C489 1.429 . S
C498 N495 1.350 . S
C498 C497 1.434 . S
C499 C500 1.369 . S
C499 C501 1.419 . S
C499 H503 0.930 . S
C500 C499 1.369 . S
C500 C509 1.429 . S
C501 C499 1.419 . S
C501 C502 1.363 . S
C501 H504 0.929 . S
C502 C501 1.363 . S
C502 C508 1.428 . S
H503 C499 0.930 . S
H504 C501 0.929 . S
S505 N506 1.613 . S
S505 N507 1.610 . S
N506 S505 1.613 . S
N506 C509 1.350 . S
N507 S505 1.610 . S
N507 C508 1.351 . S
C508 C502 1.428 . S
C508 N507 1.351 . S
C508 C509 1.434 . S
C509 C500 1.429 . S
C509 N506 1.350 . S
C509 C508 1.434 . S
C510 C511 1.369 . S
C510 C512 1.419 . S
C510 H514 0.930 . S
C511 C510 1.369 . S
C511 C520 1.429 . S
C512 C510 1.419 . S
C512 C513 1.363 . S
C512 H515 0.929 . S
C513 C512 1.363 . S
C513 C519 1.428 . S
H514 C510 0.930 . S
H515 C512 0.929 . S
S516 N517 1.613 . S
S516 N518 1.610 . S
N517 S516 1.613 . S
N517 C520 1.350 . S
N518 S516 1.610 . S
N518 C519 1.351 . S
C519 C513 1.428 . S
C519 N518 1.351 . S
C519 C520 1.434 . S
C520 C511 1.429 . S
C520 N517 1.350 . S
C520 C519 1.434 . S
C521 C522 1.369 . S
C521 C523 1.419 . S
C521 H525 0.930 . S
C522 C521 1.369 . S
C522 C531 1.429 . S
C523 C521 1.419 . S
C523 C524 1.363 . S
C523 H526 0.929 . S
C524 C523 1.363 . S
C524 C530 1.428 . S
H525 C521 0.930 . S
H526 C523 0.929 . S
S527 N528 1.613 . S
S527 N529 1.610 . S
N528 S527 1.613 . S
N528 C531 1.350 . S
N529 S527 1.610 . S
N529 C530 1.351 . S
C530 C524 1.428 . S
C530 N529 1.351 . S
C530 C531 1.434 . S
C531 C522 1.429 . S
C531 N528 1.350 . S
C531 C530 1.434 . S
C532 C533 1.369 . S
C532 C534 1.419 . S
C532 H536 0.930 . S
C533 C532 1.369 . S
C533 C542 1.429 . S
C534 C532 1.419 . S
C534 C535 1.363 . S
C534 H537 0.929 . S
C535 C534 1.363 . S
C535 C541 1.428 . S
H536 C532 0.930 . S
H537 C534 0.929 . S
S538 N539 1.613 . S
S538 N540 1.610 . S
N539 S538 1.613 . S
N539 C542 1.350 . S
N540 S538 1.610 . S
N540 C541 1.351 . S
C541 C535 1.428 . S
C541 N540 1.351 . S
C541 C542 1.434 . S
C542 C533 1.429 . S
C542 N539 1.350 . S
C542 C541 1.434 . S
C543 C544 1.369 . S
C543 C545 1.419 . S
C543 H547 0.930 . S
C544 C543 1.369 . S
C544 C553 1.429 . S
C545 C543 1.419 . S
C545 C546 1.363 . S
C545 H548 0.929 . S
C546 C545 1.363 . S
C546 C552 1.428 . S
H547 C543 0.930 . S
H548 C545 0.929 . S
S549 N550 1.613 . S
S549 N551 1.610 . S
N550 S549 1.613 . S
N550 C553 1.350 . S
N551 S549 1.610 . S
N551 C552 1.351 . S
C552 C546 1.428 . S
C552 N551 1.351 . S
C552 C553 1.434 . S
C553 C544 1.429 . S
C553 N550 1.350 . S
C553 C552 1.434 . S
C554 C555 1.369 . S
C554 C556 1.419 . S
C554 H558 0.930 . S
C555 C554 1.369 . S
C555 C564 1.429 . S
C556 C554 1.419 . S
C556 C557 1.363 . S
C556 H559 0.929 . S
C557 C556 1.363 . S
C557 C563 1.428 . S
H558 C554 0.930 . S
H559 C556 0.929 . S
S560 N561 1.613 . S
S560 N562 1.610 . S
N561 S560 1.613 . S
N561 C564 1.350 . S
N562 S560 1.610 . S
N562 C563 1.351 . S
C563 C557 1.428 . S
C563 N562 1.351 . S
C563 C564 1.434 . S
C564 C555 1.429 . S
C564 N561 1.350 . S
C564 C563 1.434 . S
C565 C566 1.369 . S
C565 C567 1.419 . S
C565 H569 0.930 . S
C566 C565 1.369 . S
C566 C575 1.429 . S
C567 C565 1.419 . S
C567 C568 1.363 . S
C567 H570 0.929 . S
C568 C567 1.363 . S
C568 C574 1.428 . S
H569 C565 0.930 . S
H570 C567 0.929 . S
S571 N572 1.613 . S
S571 N573 1.610 . S
N572 S571 1.613 . S
N572 C575 1.350 . S
N573 S571 1.610 . S
N573 C574 1.351 . S
C574 C568 1.428 . S
C574 N573 1.351 . S
C574 C575 1.434 . S
C575 C566 1.429 . S
C575 N572 1.350 . S
C575 C574 1.434 . S
C576 C577 1.369 . S
C576 C578 1.419 1_554 S
C576 H580 0.930 . S
C577 C576 1.369 . S
C577 C586 1.429 . S
C578 C576 1.419 1_556 S
C578 C579 1.363 . S
C578 H581 0.929 . S
C579 C578 1.363 . S
C579 C585 1.428 . S
H580 C576 0.930 . S
H581 C578 0.929 . S
S582 N583 1.615 1_556 S
S582 N584 1.609 . S
N583 S582 1.615 1_554 S
N583 C586 1.350 . S
N584 S582 1.609 . S
N584 C585 1.351 . S
C585 C579 1.428 . S
C585 N584 1.351 . S
C585 C586 1.434 1_556 S
C586 C577 1.429 . S
C586 N583 1.350 . S
C586 C585 1.434 1_554 S
C587 C588 1.369 . S
C587 C589 1.419 1_556 S
C587 H591 0.930 . S
C588 C587 1.369 . S
C588 C597 1.429 . S
C589 C587 1.419 1_554 S
C589 C590 1.363 . S
C589 H592 0.929 . S
C590 C589 1.363 . S
C590 C596 1.428 . S
H591 C587 0.930 . S
H592 C589 0.929 . S
S593 N594 1.615 1_554 S
S593 N595 1.609 . S
N594 S593 1.615 1_556 S
N594 C597 1.350 . S
N595 S593 1.609 . S
N595 C596 1.351 . S
C596 C590 1.428 . S
C596 N595 1.351 . S
C596 C597 1.434 1_554 S
C597 C588 1.429 . S
C597 N594 1.350 . S
C597 C596 1.434 1_556 S
C598 C599 1.369 . S
C598 C600 1.419 1_556 S
C598 H602 0.930 . S
C599 C598 1.369 . S
C599 C608 1.429 . S
C600 C598 1.419 1_554 S
C600 C601 1.363 . S
C600 H603 0.929 . S
C601 C600 1.363 . S
C601 C607 1.428 . S
H602 C598 0.930 . S
H603 C600 0.929 . S
S604 N605 1.615 1_554 S
S604 N606 1.609 . S
N605 S604 1.615 1_556 S
N605 C608 1.350 . S
N606 S604 1.609 . S
N606 C607 1.351 . S
C607 C601 1.428 . S
C607 N606 1.351 . S
C607 C608 1.434 1_554 S
C608 C599 1.429 . S
C608 N605 1.350 . S
C608 C607 1.434 1_556 S
C609 C610 1.369 . S
C609 C611 1.419 1_554 S
C609 H613 0.930 . S
C610 C609 1.369 . S
C610 C619 1.429 . S
C611 C609 1.419 1_556 S
C611 C612 1.363 . S
C611 H614 0.929 . S
C612 C611 1.363 . S
C612 C618 1.428 . S
H613 C609 0.930 . S
H614 C611 0.929 . S
S615 N616 1.615 1_556 S
S615 N617 1.609 . S
N616 S615 1.615 1_554 S
N616 C619 1.350 . S
N617 S615 1.609 . S
N617 C618 1.351 . S
C618 C612 1.428 . S
C618 N617 1.351 . S
C618 C619 1.434 1_556 S
C619 C610 1.429 . S
C619 N616 1.350 . S
C619 C618 1.434 1_554 S
C620 C621 1.369 . S
C620 C622 1.419 1_554 S
C620 H624 0.930 . S
C621 C620 1.369 . S
C621 C630 1.429 . S
C622 C620 1.419 1_556 S
C622 C623 1.363 . S
C622 H625 0.929 . S
C623 C622 1.363 . S
C623 C629 1.428 . S
H624 C620 0.930 . S
H625 C622 0.929 . S
S626 N627 1.615 1_556 S
S626 N628 1.609 . S
N627 S626 1.615 1_554 S
N627 C630 1.350 . S
N628 S626 1.609 . S
N628 C629 1.351 . S
C629 C623 1.428 . S
C629 N628 1.351 . S
C629 C630 1.434 1_556 S
C630 C621 1.429 . S
C630 N627 1.350 . S
C630 C629 1.434 1_554 S
C631 C632 1.369 . S
C631 C633 1.419 1_556 S
C631 H635 0.930 . S
C632 C631 1.369 . S
C632 C641 1.429 . S
C633 C631 1.419 1_554 S
C633 C634 1.363 . S
C633 H636 0.929 . S
C634 C633 1.363 . S
C634 C640 1.428 . S
H635 C631 0.930 . S
H636 C633 0.929 . S
S637 N638 1.615 1_554 S
S637 N639 1.609 . S
N638 S637 1.615 1_556 S
N638 C641 1.350 . S
N639 S637 1.609 . S
N639 C640 1.351 . S
C640 C634 1.428 . S
C640 N639 1.351 . S
C640 C641 1.434 1_554 S
C641 C632 1.429 . S
C641 N638 1.350 . S
C641 C640 1.434 1_556 S
C642 C643 1.369 . S
C642 C644 1.419 . S
C642 H646 0.930 . S
C643 C642 1.369 . S
C643 C652 1.429 . S
C644 C642 1.419 . S
C644 C645 1.363 . S
C644 H647 0.929 . S
C645 C644 1.363 . S
C645 C651 1.428 . S
H646 C642 0.930 . S
H647 C644 0.929 . S
S648 N649 1.613 . S
S648 N650 1.610 . S
N649 S648 1.613 . S
N649 C652 1.350 . S
N650 S648 1.610 . S
N650 C651 1.351 . S
C651 C645 1.428 . S
C651 N650 1.351 . S
C651 C652 1.434 . S
C652 C643 1.429 . S
C652 N649 1.350 . S
C652 C651 1.434 . S
C653 C654 1.369 . S
C653 C655 1.419 . S
C653 H657 0.930 . S
C654 C653 1.369 . S
C654 C663 1.429 . S
C655 C653 1.419 . S
C655 C656 1.363 . S
C655 H658 0.929 . S
C656 C655 1.363 . S
C656 C662 1.428 . S
H657 C653 0.930 . S
H658 C655 0.929 . S
S659 N660 1.613 . S
S659 N661 1.610 . S
N660 S659 1.613 . S
N660 C663 1.350 . S
N661 S659 1.610 . S
N661 C662 1.351 . S
C662 C656 1.428 . S
C662 N661 1.351 . S
C662 C663 1.434 . S
C663 C654 1.429 . S
C663 N660 1.350 . S
C663 C662 1.434 . S
C664 C665 1.369 . S
C664 C666 1.419 . S
C664 H668 0.930 . S
C665 C664 1.369 . S
C665 C674 1.429 . S
C666 C664 1.419 . S
C666 C667 1.363 . S
C666 H669 0.929 . S
C667 C666 1.363 . S
C667 C673 1.428 . S
H668 C664 0.930 . S
H669 C666 0.929 . S
S670 N671 1.613 . S
S670 N672 1.610 . S
N671 S670 1.613 . S
N671 C674 1.350 . S
N672 S670 1.610 . S
N672 C673 1.351 . S
C673 C667 1.428 . S
C673 N672 1.351 . S
C673 C674 1.434 . S
C674 C665 1.429 . S
C674 N671 1.350 . S
C674 C673 1.434 . S
C675 C676 1.369 . S
C675 C677 1.419 . S
C675 H679 0.930 . S
C676 C675 1.369 . S
C676 C685 1.429 . S
C677 C675 1.419 . S
C677 C678 1.363 . S
C677 H680 0.929 . S
C678 C677 1.363 . S
C678 C684 1.428 . S
H679 C675 0.930 . S
H680 C677 0.929 . S
S681 N682 1.613 . S
S681 N683 1.610 . S
N682 S681 1.613 . S
N682 C685 1.350 . S
N683 S681 1.610 . S
N683 C684 1.351 . S
C684 C678 1.428 . S
C684 N683 1.351 . S
C684 C685 1.434 . S
C685 C676 1.429 . S
C685 N682 1.350 . S
C685 C684 1.434 . S
C686 C687 1.369 . S
C686 C688 1.419 . S
C686 H690 0.930 . S
C687 C686 1.369 . S
C687 C696 1.429 . S
C688 C686 1.419 . S
C688 C689 1.363 . S
C688 H691 0.929 . S
C689 C688 1.363 . S
C689 C695 1.428 . S
H690 C686 0.930 . S
H691 C688 0.929 . S
S692 N693 1.613 . S
S692 N694 1.610 . S
N693 S692 1.613 . S
N693 C696 1.350 . S
N694 S692 1.610 . S
N694 C695 1.351 . S
C695 C689 1.428 . S
C695 N694 1.351 . S
C695 C696 1.434 . S
C696 C687 1.429 . S
C696 N693 1.350 . S
C696 C695 1.434 . S
C697 C698 1.369 . S
C697 C699 1.419 . S
C697 H701 0.930 . S
C698 C697 1.369 . S
C698 C707 1.429 . S
C699 C697 1.419 . S
C699 C700 1.363 . S
C699 H702 0.929 . S
C700 C699 1.363 . S
C700 C706 1.428 . S
H701 C697 0.930 . S
H702 C699 0.929 . S
S703 N704 1.613 . S
S703 N705 1.610 . S
N704 S703 1.613 . S
N704 C707 1.350 . S
N705 S703 1.610 . S
N705 C706 1.351 . S
C706 C700 1.428 . S
C706 N705 1.351 . S
C706 C707 1.434 . S
C707 C698 1.429 . S
C707 N704 1.350 . S
C707 C706 1.434 . S
C708 C709 1.369 . S
C708 C710 1.419 . S
C708 H712 0.930 . S
C709 C708 1.369 . S
C709 C718 1.429 . S
C710 C708 1.419 . S
C710 C711 1.363 . S
C710 H713 0.929 . S
C711 C710 1.363 . S
C711 C717 1.428 . S
H712 C708 0.930 . S
H713 C710 0.929 . S
S714 N715 1.613 . S
S714 N716 1.610 . S
N715 S714 1.613 . S
N715 C718 1.350 . S
N716 S714 1.610 . S
N716 C717 1.351 . S
C717 C711 1.428 . S
C717 N716 1.351 . S
C717 C718 1.434 . S
C718 C709 1.429 . S
C718 N715 1.350 . S
C718 C717 1.434 . S
C719 C720 1.369 . S
C719 C721 1.419 . S
C719 H723 0.930 . S
C720 C719 1.369 . S
C720 C729 1.429 . S
C721 C719 1.419 . S
C721 C722 1.363 . S
C721 H724 0.929 . S
C722 C721 1.363 . S
C722 C728 1.428 . S
H723 C719 0.930 . S
H724 C721 0.929 . S
S725 N726 1.613 . S
S725 N727 1.610 . S
N726 S725 1.613 . S
N726 C729 1.350 . S
N727 S725 1.610 . S
N727 C728 1.351 . S
C728 C722 1.428 . S
C728 N727 1.351 . S
C728 C729 1.434 . S
C729 C720 1.429 . S
C729 N726 1.350 . S
C729 C728 1.434 . S
C730 C731 1.369 . S
C730 C732 1.419 . S
C730 H734 0.930 . S
C731 C730 1.369 . S
C731 C740 1.429 . S
C732 C730 1.419 . S
C732 C733 1.363 . S
C732 H735 0.929 . S
C733 C732 1.363 . S
C733 C739 1.428 . S
H734 C730 0.930 . S
H735 C732 0.929 . S
S736 N737 1.613 . S
S736 N738 1.610 . S
N737 S736 1.613 . S
N737 C740 1.350 . S
N738 S736 1.610 . S
N738 C739 1.351 . S
C739 C733 1.428 . S
C739 N738 1.351 . S
C739 C740 1.434 . S
C740 C731 1.429 . S
C740 N737 1.350 . S
C740 C739 1.434 . S
C741 C742 1.369 . S
C741 C743 1.419 . S
C741 H745 0.930 . S
C742 C741 1.369 . S
C742 C751 1.429 . S
C743 C741 1.419 . S
C743 C744 1.363 . S
C743 H746 0.929 . S
C744 C743 1.363 . S
C744 C750 1.428 . S
H745 C741 0.930 . S
H746 C743 0.929 . S
S747 N748 1.613 . S
S747 N749 1.610 . S
N748 S747 1.613 . S
N748 C751 1.350 . S
N749 S747 1.610 . S
N749 C750 1.351 . S
C750 C744 1.428 . S
C750 N749 1.351 . S
C750 C751 1.434 . S
C751 C742 1.429 . S
C751 N748 1.350 . S
C751 C750 1.434 . S
C752 C753 1.369 . S
C752 C754 1.419 . S
C752 H756 0.930 . S
C753 C752 1.369 . S
C753 C762 1.429 . S
C754 C752 1.419 . S
C754 C755 1.363 . S
C754 H757 0.929 . S
C755 C754 1.363 . S
C755 C761 1.428 . S
H756 C752 0.930 . S
H757 C754 0.929 . S
S758 N759 1.613 . S
S758 N760 1.610 . S
N759 S758 1.613 . S
N759 C762 1.350 . S
N760 S758 1.610 . S
N760 C761 1.351 . S
C761 C755 1.428 . S
C761 N760 1.351 . S
C761 C762 1.434 . S
C762 C753 1.429 . S
C762 N759 1.350 . S
C762 C761 1.434 . S
C763 C764 1.369 . S
C763 C765 1.419 . S
C763 H767 0.930 . S
C764 C763 1.369 . S
C764 C773 1.429 . S
C765 C763 1.419 . S
C765 C766 1.363 . S
C765 H768 0.929 . S
C766 C765 1.363 . S
C766 C772 1.428 . S
H767 C763 0.930 . S
H768 C765 0.929 . S
S769 N770 1.613 . S
S769 N771 1.610 . S
N770 S769 1.613 . S
N770 C773 1.350 . S
N771 S769 1.610 . S
N771 C772 1.351 . S
C772 C766 1.428 . S
C772 N771 1.351 . S
C772 C773 1.434 . S
C773 C764 1.429 . S
C773 N770 1.350 . S
C773 C772 1.434 . S
C774 C775 1.369 . S
C774 C776 1.419 . S
C774 H778 0.930 . S
C775 C774 1.369 . S
C775 C784 1.429 . S
C776 C774 1.419 . S
C776 C777 1.363 . S
C776 H779 0.929 . S
C777 C776 1.363 . S
C777 C783 1.428 . S
H778 C774 0.930 . S
H779 C776 0.929 . S
S780 N781 1.613 . S
S780 N782 1.610 . S
N781 S780 1.613 . S
N781 C784 1.350 . S
N782 S780 1.610 . S
N782 C783 1.351 . S
C783 C777 1.428 . S
C783 N782 1.351 . S
C783 C784 1.434 . S
C784 C775 1.429 . S
C784 N781 1.350 . S
C784 C783 1.434 . S
C785 C786 1.369 . S
C785 C787 1.419 . S
C785 H789 0.930 . S
C786 C785 1.369 . S
C786 C795 1.429 . S
C787 C785 1.419 . S
C787 C788 1.363 . S
C787 H790 0.929 . S
C788 C787 1.363 . S
C788 C794 1.428 . S
H789 C785 0.930 . S
H790 C787 0.929 . S
S791 N792 1.613 . S
S791 N793 1.610 . S
N792 S791 1.613 . S
N792 C795 1.350 . S
N793 S791 1.610 . S
N793 C794 1.351 . S
C794 C788 1.428 . S
C794 N793 1.351 . S
C794 C795 1.434 . S
C795 C786 1.429 . S
C795 N792 1.350 . S
C795 C794 1.434 . S
C796 C797 1.369 . S
C796 C798 1.419 . S
C796 H800 0.930 . S
C797 C796 1.369 . S
C797 C806 1.429 . S
C798 C796 1.419 . S
C798 C799 1.363 . S
C798 H801 0.929 . S
C799 C798 1.363 . S
C799 C805 1.428 . S
H800 C796 0.930 . S
H801 C798 0.929 . S
S802 N803 1.613 . S
S802 N804 1.610 . S
N803 S802 1.613 . S
N803 C806 1.350 . S
N804 S802 1.610 . S
N804 C805 1.351 . S
C805 C799 1.428 . S
C805 N804 1.351 . S
C805 C806 1.434 . S
C806 C797 1.429 . S
C806 N803 1.350 . S
C806 C805 1.434 . S
C807 C808 1.369 . S
C807 C809 1.419 . S
C807 H811 0.930 . S
C808 C807 1.369 . S
C808 C817 1.429 . S
C809 C807 1.419 . S
C809 C810 1.363 . S
C809 H812 0.929 . S
C810 C809 1.363 . S
C810 C816 1.428 . S
H811 C807 0.930 . S
H812 C809 0.929 . S
S813 N814 1.613 . S
S813 N815 1.610 . S
N814 S813 1.613 . S
N814 C817 1.350 . S
N815 S813 1.610 . S
N815 C816 1.351 . S
C816 C810 1.428 . S
C816 N815 1.351 . S
C816 C817 1.434 . S
C817 C808 1.429 . S
C817 N814 1.350 . S
C817 C816 1.434 . S
C818 C819 1.369 . S
C818 C820 1.419 . S
C818 H822 0.930 . S
C819 C818 1.369 . S
C819 C828 1.429 . S
C820 C818 1.419 . S
C820 C821 1.363 . S
C820 H823 0.929 . S
C821 C820 1.363 . S
C821 C827 1.428 . S
H822 C818 0.930 . S
H823 C820 0.929 . S
S824 N825 1.613 . S
S824 N826 1.610 . S
N825 S824 1.613 . S
N825 C828 1.350 . S
N826 S824 1.610 . S
N826 C827 1.351 . S
C827 C821 1.428 . S
C827 N826 1.351 . S
C827 C828 1.434 . S
C828 C819 1.429 . S
C828 N825 1.350 . S
C828 C827 1.434 . S
C829 C830 1.369 . S
C829 C831 1.419 . S
C829 H833 0.930 . S
C830 C829 1.369 . S
C830 C839 1.429 . S
C831 C829 1.419 . S
C831 C832 1.363 . S
C831 H834 0.929 . S
C832 C831 1.363 . S
C832 C838 1.428 . S
H833 C829 0.930 . S
H834 C831 0.929 . S
S835 N836 1.613 . S
S835 N837 1.610 . S
N836 S835 1.613 . S
N836 C839 1.350 . S
N837 S835 1.610 . S
N837 C838 1.351 . S
C838 C832 1.428 . S
C838 N837 1.351 . S
C838 C839 1.434 . S
C839 C830 1.429 . S
C839 N836 1.350 . S
C839 C838 1.434 . S
C313 C5 1.314 . S
C315 C96 1.313 . S
C324 C109 1.316 . S
C326 C18 1.315 . S
C335 C31 1.315 . S
C337 C122 1.315 . S
C346 C44 1.317 . S
C348 C135 1.315 . S
C357 C148 1.317 . S
C359 C57 1.315 . S
C368 C70 1.306 . S
C370 C83 1.307 . S
C379 C161 1.315 . S
C381 C252 1.315 . S
C390 C174 1.314 . S
C392 C265 1.315 . S
C401 C278 1.310 . S
C403 C187 1.312 . S
C412 C200 1.316 . S
C414 C291 1.315 . S
C423 C213 1.316 . S
C425 C304 1.315 . S
C434 C239 1.312 . S
C436 C226 1.310 . S
C445 C0 1.298 . S
C447 C104 1.300 . S
C456 C117 1.306 . S
C458 C13 1.304 . S
C467 C130 1.303 . S
C469 C26 1.301 . S
C478 C39 1.299 . S
C480 C143 1.298 . S
C489 C52 1.304 . S
C491 C78 1.304 . S
C500 C65 1.297 . S
C502 C91 1.298 . S
C511 C260 1.306 . S
C513 C156 1.303 . S
C522 C169 1.303 . S
C524 C273 1.301 . S
C533 C286 1.300 . S
C535 C182 1.303 . S
C544 C299 1.297 . S
C546 C195 1.299 . S
C555 C234 1.306 . S
C557 C208 1.304 . S
C566 C221 1.302 . S
C568 C247 1.304 . S
C577 C8 1.488 . S
C579 C203 1.487 . S
C588 C216 1.487 . S
C590 C21 1.487 . S
C599 C229 1.483 . S
C601 C34 1.483 . S
C610 C47 1.482 . S
C612 C164 1.482 . S
C621 C60 1.483 . S
C623 C177 1.484 . S
C632 C190 1.487 . S
C634 C73 1.487 . S
C643 C281 1.484 . S
C645 C86 1.484 . S
C654 C294 1.487 . S
C656 C99 1.486 . S
C665 C307 1.486 . S
C667 C112 1.485 . S
C676 C242 1.481 . S
C678 C125 1.482 . S
C687 C138 1.488 . S
C689 C255 1.487 . S
C698 C151 1.483 . S
C700 C268 1.484 . S
C709 C10 1.520 . S
C711 C140 1.521 . S
C720 C153 1.523 . S
C722 C23 1.520 . S
C731 C88 1.521 . S
C733 C36 1.522 . S
C742 C49 1.523 . S
C744 C101 1.520 . S
C753 C62 1.519 . S
C755 C114 1.521 . S
C764 C75 1.521 . S
C766 C127 1.522 . S
C775 C166 1.520 . S
C777 C296 1.521 . S
C786 C179 1.523 . S
C788 C309 1.520 . S
C797 C192 1.520 . S
C799 C244 1.523 . S
C808 C257 1.519 . S
C810 C205 1.522 . S
C819 C218 1.519 . S
C821 C270 1.521 . S
C830 C231 1.522 . S
C832 C283 1.522 . S
