# Generated by pormake.
# Topology wje, (4)-cn, num edge types: 1
# Building blocks:
#     Node 0, Type 0, BuildingBlock: QUQFOY_clean_sbu_3, # of connection points: 4
#     Node 1, Type 0, BuildingBlock: QUQFOY_clean_sbu_3, # of connection points: 4
#     Node 2, Type 0, BuildingBlock: QUQFOY_clean_sbu_3, # of connection points: 4
#     Node 3, Type 0, BuildingBlock: QUQFOY_clean_sbu_3, # of connection points: 4
#     Node 4, Type 0, BuildingBlock: QUQFOY_clean_sbu_3, # of connection points: 4
#     Node 5, Type 0, BuildingBlock: QUQFOY_clean_sbu_3, # of connection points: 4
#     Node 6, Type 0, BuildingBlock: QUQFOY_clean_sbu_3, # of connection points: 4
#     Node 7, Type 0, BuildingBlock: QUQFOY_clean_sbu_3, # of connection points: 4
#     Node 8, Type 0, BuildingBlock: QUQFOY_clean_sbu_3, # of connection points: 4
#     Node 9, Type 0, BuildingBlock: QUQFOY_clean_sbu_3, # of connection points: 4
#     Node 10, Type 0, BuildingBlock: QUQFOY_clean_sbu_3, # of connection points: 4
#     Node 11, Type 0, BuildingBlock: QUQFOY_clean_sbu_3, # of connection points: 4
#     Edge 12, Type (0, 0), BuildingBlock: EYOCIG_clean_linker_4, # of connection points: 2
#     Edge 13, Type (0, 0), BuildingBlock: EYOCIG_clean_linker_4, # of connection points: 2
#     Edge 14, Type (0, 0), BuildingBlock: EYOCIG_clean_linker_4, # of connection points: 2
#     Edge 15, Type (0, 0), BuildingBlock: EYOCIG_clean_linker_4, # of connection points: 2
#     Edge 16, Type (0, 0), BuildingBlock: EYOCIG_clean_linker_4, # of connection points: 2
#     Edge 17, Type (0, 0), BuildingBlock: EYOCIG_clean_linker_4, # of connection points: 2
#     Edge 18, Type (0, 0), BuildingBlock: EYOCIG_clean_linker_4, # of connection points: 2
#     Edge 19, Type (0, 0), BuildingBlock: EYOCIG_clean_linker_4, # of connection points: 2
#     Edge 20, Type (0, 0), BuildingBlock: EYOCIG_clean_linker_4, # of connection points: 2
#     Edge 21, Type (0, 0), BuildingBlock: EYOCIG_clean_linker_4, # of connection points: 2
#     Edge 22, Type (0, 0), BuildingBlock: EYOCIG_clean_linker_4, # of connection points: 2
#     Edge 23, Type (0, 0), BuildingBlock: EYOCIG_clean_linker_4, # of connection points: 2
#     Edge 24, Type (0, 0), BuildingBlock: EYOCIG_clean_linker_4, # of connection points: 2
#     Edge 25, Type (0, 0), BuildingBlock: EYOCIG_clean_linker_4, # of connection points: 2
#     Edge 26, Type (0, 0), BuildingBlock: EYOCIG_clean_linker_4, # of connection points: 2
#     Edge 27, Type (0, 0), BuildingBlock: EYOCIG_clean_linker_4, # of connection points: 2
#     Edge 28, Type (0, 0), BuildingBlock: EYOCIG_clean_linker_4, # of connection points: 2
#     Edge 29, Type (0, 0), BuildingBlock: EYOCIG_clean_linker_4, # of connection points: 2
#     Edge 30, Type (0, 0), BuildingBlock: EYOCIG_clean_linker_4, # of connection points: 2
#     Edge 31, Type (0, 0), BuildingBlock: EYOCIG_clean_linker_4, # of connection points: 2
#     Edge 32, Type (0, 0), BuildingBlock: EYOCIG_clean_linker_4, # of connection points: 2
#     Edge 33, Type (0, 0), BuildingBlock: EYOCIG_clean_linker_4, # of connection points: 2
#     Edge 34, Type (0, 0), BuildingBlock: EYOCIG_clean_linker_4, # of connection points: 2
#     Edge 35, Type (0, 0), BuildingBlock: EYOCIG_clean_linker_4, # of connection points: 2
# Relax obj value: 0.142
# Max RMSD: 0.092
# Mean RMSD: 0.092
data_MOF--net-wje--node1-QUQFOY_clean_sbu_3--edge1-EYOCIG_clean_linker_4
_symmetry_space_group_name_H-M    P1
_symmetry_Int_Tables_number       1
_symmetry_cell_setting            triclinic
loop_
_symmetry_equiv_pos_as_xyz
'x, y, z'
_cell_length_a     33.674597
_cell_length_b     33.692002
_cell_length_c     32.274073
_cell_angle_alpha  90.057132
_cell_angle_beta   89.97962
_cell_angle_gamma 119.99556
loop_
_atom_site_label
_atom_site_type_symbol
_atom_site_fract_x
_atom_site_fract_y
_atom_site_fract_z
_atom_type_partial_charge
C0 C 0.20576 0.91037 0.28581 0.0
O1 O 0.22525 0.88678 0.29091 0.0
Cd2 Cd 0.30457 0.92172 0.30811 0.0
O3 O 0.22858 0.95367 0.28237 0.0
Cd4 Cd 0.30733 0.01861 0.27754 0.0
C5 C 0.29628 -0.00325 0.37883 0.0
O6 O 0.34631 -0.02152 0.25858 0.0
O7 O 0.39041 0.0461 0.28384 0.0
O8 O 0.28749 0.03127 0.20874 0.0
C9 C 0.38609 0.00904 0.26951 0.0
O10 O 0.29983 0.96227 0.36835 0.0
C11 C 0.29687 0.07209 0.2158 0.0
O12 O 0.29724 0.0253 0.35232 0.0
O13 O 0.31186 0.08878 0.25156 0.0
C14 C 0.27295 0.21679 0.61727 0.0
O15 O 0.31563 0.23616 0.62469 0.0
Cd16 Cd 0.35964 0.31507 0.64321 0.0
O17 O 0.25247 0.23957 0.61324 0.0
Cd18 Cd 0.26645 0.31845 0.61099 0.0
C19 C 0.27542 0.30629 0.71276 0.0
O20 O 0.34597 0.3569 0.59258 0.0
O21 O 0.3228 0.40154 0.61705 0.0
O22 O 0.2323 0.30019 0.54243 0.0
C23 C 0.35546 0.39686 0.60307 0.0
O24 O 0.31376 0.31003 0.70314 0.0
C25 C 0.20123 0.30968 0.55108 0.0
O26 O 0.24852 0.30747 0.6856 0.0
O27 O 0.20072 0.32409 0.58739 0.0
C28 C 0.03351 0.28409 0.95045 0.0
O29 O 0.05691 0.32683 0.95746 0.0
Cd30 Cd 0.02246 0.37125 0.97591 0.0
O31 O -0.00981 0.26361 0.94676 0.0
Cd32 Cd 0.9253 0.27779 0.94438 0.0
C33 C 0.94669 0.28771 0.0459 0.0
O34 O -0.03357 0.35715 0.92586 0.0
O35 O 0.89879 0.33423 0.95067 0.0
O36 O 0.91075 0.24491 0.87556 0.0
C37 C 0.93612 0.36678 0.93662 0.0
O38 O -0.01864 0.32573 0.03578 0.0
C39 C 0.86994 0.21382 0.88319 0.0
O40 O 0.91831 0.2604 0.0191 0.0
O41 O 0.85414 0.21245 0.91929 0.0
C42 C 0.72463 0.04528 0.28336 0.0
O43 O 0.70469 0.06818 0.29008 0.0
Cd44 Cd 0.62602 0.03212 0.30948 0.0
O45 O 0.70234 0.00194 0.27991 0.0
Cd46 Cd 0.62382 0.93605 0.27781 0.0
C47 C 0.63883 0.9593 0.37921 0.0
O48 O 0.5843 0.97591 0.25931 0.0
O49 O 0.54048 0.90841 0.28461 0.0
O50 O 0.64278 0.92149 0.2092 0.0
C51 C 0.54457 0.9453 0.27016 0.0
O52 O 0.63401 -0.00681 0.36945 0.0
C53 C 0.6331 0.88073 0.21698 0.0
O54 O 0.63711 0.93072 0.35228 0.0
O55 O 0.61845 0.86502 0.25303 0.0
C56 C 0.65724 0.73602 0.61849 0.0
O57 O 0.6143 0.71586 0.62471 0.0
Cd58 Cd 0.57171 0.63694 0.64302 0.0
O59 O 0.67846 0.71393 0.61466 0.0
Cd60 Cd 0.66608 0.63567 0.61088 0.0
C61 C 0.65691 0.64789 0.7126 0.0
O62 O 0.58664 0.59613 0.59231 0.0
O63 O 0.61065 0.55225 0.61683 0.0
O64 O 0.69995 0.65568 0.54238 0.0
C65 C 0.57768 0.55636 0.60279 0.0
O66 O 0.61826 0.64338 0.70293 0.0
C67 C 0.73153 0.64671 0.55025 0.0
O68 O 0.68404 0.64702 0.68549 0.0
O69 O 0.7325 0.6317 0.58615 0.0
C70 C 0.89881 0.67002 0.95083 0.0
O71 O 0.87556 0.62727 0.95776 0.0
Cd72 Cd 0.91093 0.58365 0.97633 0.0
O73 O 0.9421 0.69061 0.94708 0.0
Cd74 Cd 0.00716 0.6769 0.94431 0.0
C75 C -0.01374 0.66799 0.04593 0.0
O76 O -0.03295 0.59729 0.92631 0.0
O77 O 0.03498 0.62161 0.95115 0.0
O78 O 0.02057 0.70906 0.87524 0.0
C79 C -0.00208 0.58852 0.93722 0.0
O80 O 0.95177 0.62966 0.03615 0.0
C81 C 0.06126 0.74062 0.8826 0.0
O82 O 0.01432 0.69511 0.01888 0.0
O83 O 0.0775 0.74246 0.91858 0.0
C84 C 0.03341 0.73711 0.33686 0.0
O85 O 0.05716 0.71787 0.33123 0.0
Cd86 Cd 0.0226 0.63896 0.31256 0.0
O87 O -0.00996 0.71412 0.3398 0.0
Cd88 Cd 0.92476 0.63555 0.34296 0.0
C89 C 0.94843 0.64893 0.24193 0.0
O90 O 0.96479 0.59611 0.36089 0.0
O91 O 0.89712 0.55241 0.3356 0.0
O92 O 0.91156 0.65522 0.41185 0.0
C93 C 0.93437 0.55657 0.34924 0.0
O94 O -0.01727 0.64512 0.25251 0.0
C95 C 0.87098 0.64642 0.40438 0.0
O96 O 0.9194 0.64736 0.26827 0.0
O97 O 0.8546 0.63153 0.36851 0.0
C98 C 0.27226 0.04404 0.66874 0.0
O99 O 0.31532 0.06787 0.66353 0.0
Cd100 Cd 0.36054 0.03405 0.64611 0.0
O101 O 0.25195 0.00072 0.67209 0.0
Cd102 Cd 0.26592 0.93587 0.67629 0.0
C103 C 0.2774 0.95877 0.57516 0.0
O104 O 0.34508 0.97697 0.69515 0.0
O105 O 0.32249 0.90961 0.66984 0.0
O106 O 0.23197 0.92063 0.74476 0.0
C107 C 0.35498 0.94701 0.68387 0.0
O108 O 0.31526 -0.00665 0.58588 0.0
C109 C 0.20084 0.88 0.73649 0.0
O110 O 0.24976 0.92991 0.60146 0.0
O111 O 0.20006 0.86464 0.70031 0.0
C112 C 0.20663 0.28473 0.00218 0.0
O113 O 0.22615 0.32789 -0.0022 0.0
Cd114 Cd 0.30535 0.3719 -0.01996 0.0
O115 O 0.22944 0.26418 0.0051 0.0
Cd116 Cd 0.3079 0.27726 0.00964 0.0
C117 C 0.29426 0.28791 0.90874 0.0
O118 O 0.34783 0.35653 0.0286 0.0
O119 O 0.39105 0.33247 0.00232 0.0
O120 O 0.28827 0.2433 0.07811 0.0
C121 C 0.38731 0.36546 0.0169 0.0
O122 O 0.29854 0.32619 0.91945 0.0
C123 C 0.29735 0.21184 0.06996 0.0
O124 O 0.29581 0.26038 0.93495 0.0
O125 O 0.31213 0.21095 0.0339 0.0
C126 C 0.89831 0.21836 0.33618 0.0
O127 O 0.87518 0.23826 0.33069 0.0
Cd128 Cd 0.91057 0.31715 0.31231 0.0
O129 O 0.94169 0.24072 0.33942 0.0
Cd130 Cd 0.00742 0.3192 0.34322 0.0
C131 C -0.01506 0.3069 0.24201 0.0
O132 O -0.03216 0.3591 0.36121 0.0
O133 O 0.03534 0.40233 0.3355 0.0
O134 O 0.02083 0.30012 0.4122 0.0
C135 C -0.00166 0.3985 0.34945 0.0
O136 O 0.9508 0.31108 0.25244 0.0
C137 C 0.06152 0.30919 0.40484 0.0
O138 O 0.01347 0.30777 0.26854 0.0
O139 O 0.07776 0.32364 0.36887 0.0
C140 C 0.65664 0.90919 0.67097 0.0
O141 O 0.61398 0.88661 0.66335 0.0
Cd142 Cd 0.57167 0.92282 0.64344 0.0
O143 O 0.67786 0.95249 0.67481 0.0
Cd144 Cd 0.66541 0.01843 0.67629 0.0
C145 C 0.65798 -0.00355 0.57463 0.0
O146 O 0.58548 -0.02107 0.6935 0.0
O147 O 0.61042 0.04672 0.66838 0.0
O148 O 0.69833 0.03366 0.74528 0.0
C149 C 0.57701 0.00985 0.68219 0.0
O150 O 0.61905 0.96253 0.58388 0.0
C151 C 0.72989 0.0741 0.7371 0.0
O152 O 0.68473 0.02439 0.60198 0.0
O153 O 0.73136 0.08932 0.70076 0.0
C154 C 0.72639 0.67063 0.00224 0.0
O155 O 0.70724 0.62754 -0.00262 0.0
Cd156 Cd 0.62828 0.58275 -0.02057 0.0
O157 O 0.70328 0.69087 0.00537 0.0
Cd158 Cd 0.6243 0.67668 0.00968 0.0
C159 C 0.63816 0.66661 0.90862 0.0
O160 O 0.58593 0.59746 0.02854 0.0
O161 O 0.54143 0.62009 0.00268 0.0
O162 O 0.64315 0.71005 0.07834 0.0
C163 C 0.54612 0.58765 0.01714 0.0
O164 O 0.63446 0.62856 0.91918 0.0
C165 C 0.63316 0.74095 0.07072 0.0
O166 O 0.63614 0.69383 0.93497 0.0
O167 O 0.61839 0.74202 0.0347 0.0
C168 C 0.28839 0.12235 0.15779 0.0
C169 C 0.29206 0.09892 0.18392 0.0
C170 C 0.28855 0.15204 0.12701 0.0
C171 C 0.29253 0.1794 0.10103 0.0
C172 C 0.14171 0.30159 0.49395 0.0
C173 C 0.16869 0.30543 0.52032 0.0
C174 C 0.11221 0.30128 0.46286 0.0
C175 C 0.08873 0.30475 0.43661 0.0
C176 C 0.78887 0.12575 0.79453 0.0
C177 C 0.76189 0.10209 0.76836 0.0
C178 C 0.81847 0.15529 0.82542 0.0
C179 C 0.84223 0.18216 0.85161 0.0
C180 C 0.64025 0.79954 0.12849 0.0
C181 C 0.6371 0.77267 0.10227 0.0
C182 C 0.64026 0.8291 0.15942 0.0
C183 C 0.63708 0.85289 0.18553 0.0
C184 C 0.82115 0.65603 0.46225 0.0
C185 C 0.8441 0.65172 0.43597 0.0
C186 C 0.79159 0.6561 0.49312 0.0
C187 C 0.76406 0.65189 0.51907 0.0
C188 C 0.14128 0.82843 0.79351 0.0
C189 C 0.1685 0.85202 0.7675 0.0
C190 C 0.11172 0.799 0.82443 0.0
C191 C 0.08843 0.77219 0.85081 0.0
C192 C 0.44982 -0.01447 0.27412 0.0
C193 C 0.4222 -0.00168 0.27278 0.0
C194 C 0.48066 0.96862 0.27428 0.0
C195 C 0.50831 0.95584 0.2732 0.0
C196 C 0.49053 0.49203 0.60714 0.0
C197 C 0.5309 0.51996 0.60588 0.0
C198 C 0.44281 0.46074 0.60717 0.0
C199 C 0.40241 0.43293 0.60598 0.0
C200 C -0.02411 0.50167 0.94155 0.0
C201 C -0.0121 0.5419 0.94029 0.0
C202 C 0.95981 0.45408 0.94138 0.0
C203 C 0.94723 0.41372 0.93986 0.0
C204 C 0.95804 0.49305 0.34242 0.0
C205 C 0.94523 0.52063 0.34477 0.0
C206 C -0.02524 0.46204 0.34244 0.0
C207 C -0.01242 0.43448 0.34484 0.0
C208 C 0.49016 -0.01207 0.67683 0.0
C209 C 0.53044 1e-05 0.67849 0.0
C210 C 0.44249 0.97168 0.67729 0.0
C211 C 0.40207 0.95873 0.67965 0.0
C212 C 0.45168 0.45248 0.01161 0.0
C213 C 0.42367 0.41218 0.01326 0.0
C214 C 0.48295 0.50017 0.01171 0.0
C215 C 0.51051 0.5406 0.0135 0.0
C216 C 0.0807 0.82419 0.32033 0.0
C217 C 0.05464 0.78509 0.32933 0.0
C218 C 0.11917 0.86296 0.30442 0.0
C219 C 0.15798 0.88909 0.29451 0.0
C220 C 0.23329 0.12965 0.63318 0.0
C221 C 0.24616 0.1687 0.62415 0.0
C222 C 0.23295 0.09105 0.6495 0.0
C223 C 0.24556 0.065 0.65978 0.0
C224 C 0.1203 0.2454 -0.01777 0.0
C225 C 0.15905 0.25836 -0.0074 0.0
C226 C 0.08159 0.24501 0.96602 0.0
C227 C 0.055 0.25744 0.95714 0.0
C228 C 0.85001 0.13199 0.31715 0.0
C229 C 0.87651 0.17059 0.32735 0.0
C230 C 0.81152 0.09373 0.3005 0.0
C231 C 0.77267 0.0672 0.291 0.0
C232 C 0.69511 0.8223 0.63765 0.0
C233 C 0.6831 0.78378 0.62728 0.0
C234 C 0.69488 0.86048 0.65443 0.0
C235 C 0.68268 0.88712 0.6638 0.0
C236 C 0.81273 0.70994 -0.0172 0.0
C237 C 0.77404 0.69731 -0.0069 0.0
C238 C 0.85108 0.70955 0.96664 0.0
C239 C 0.87731 0.69664 0.95777 0.0
C240 C 0.27499 -0.01276 0.45688 0.0
C241 C 0.28466 -0.00193 0.42119 0.0
C242 C 0.26575 0.9686 0.49715 0.0
C243 C 0.26463 0.95767 0.5328 0.0
C244 C 0.27077 0.27535 0.83108 0.0
C245 C 0.2813 0.2747 0.8666 0.0
C246 C 0.2616 0.28444 0.79065 0.0
C247 C 0.26135 0.29433 0.75487 0.0
C248 C -0.02537 0.28477 0.16413 0.0
C249 C -0.01418 0.29472 0.19974 0.0
C250 C 0.9558 0.27544 0.1239 0.0
C251 C 0.94502 0.27443 0.08819 0.0
C252 C 0.66357 0.96947 0.45656 0.0
C253 C 0.65255 0.95859 0.42103 0.0
C254 C 0.67281 -0.0124 0.49709 0.0
C255 C 0.67269 -0.00202 0.53278 0.0
C256 C 0.6615 0.67943 0.83092 0.0
C257 C 0.65094 0.67997 0.86648 0.0
C258 C 0.6707 0.67038 0.79045 0.0
C259 C 0.67096 0.66033 0.75469 0.0
C260 C 0.95905 0.67168 0.16418 0.0
C261 C 0.94779 0.6614 0.19972 0.0
C262 C -0.02232 0.68105 0.12388 0.0
C263 C -0.01184 0.68174 0.08813 0.0
loop_
_geom_bond_atom_site_label_1
_geom_bond_atom_site_label_2
_geom_bond_distance
_geom_bond_site_symmetry_2
_ccdc_geom_bond_type
C0 O1 1.306 . S
C0 O3 1.160 . S
O1 C0 1.306 . S
O1 Cd2 2.228 . S
Cd2 O1 2.228 . S
Cd2 O6 2.273 . S
Cd2 O10 2.277 . S
O3 C0 1.160 . S
O3 Cd4 2.203 1_565 S
Cd4 O3 2.203 1_545 S
Cd4 O6 2.411 1_545 S
Cd4 O7 2.333 . S
Cd4 O8 2.352 . S
Cd4 O12 2.277 . S
Cd4 O13 2.356 . S
C5 O10 1.209 1_545 S
C5 O12 1.226 . S
O6 Cd2 2.273 . S
O6 Cd4 2.411 1_565 S
O6 C9 1.320 1_565 S
O7 Cd4 2.333 . S
O7 C9 1.214 . S
O8 Cd4 2.352 . S
O8 C11 1.258 . S
C9 O6 1.320 1_545 S
C9 O7 1.214 . S
O10 Cd2 2.277 . S
O10 C5 1.209 1_565 S
C11 O8 1.258 . S
C11 O13 1.282 . S
O12 Cd4 2.277 . S
O12 C5 1.226 . S
O13 Cd4 2.356 . S
O13 C11 1.282 . S
C14 O15 1.306 . S
C14 O17 1.160 . S
O15 C14 1.306 . S
O15 Cd16 2.228 . S
Cd16 O15 2.228 . S
Cd16 O20 2.273 . S
Cd16 O24 2.277 . S
O17 C14 1.160 . S
O17 Cd18 2.203 . S
Cd18 O17 2.203 . S
Cd18 O20 2.411 . S
Cd18 O21 2.333 . S
Cd18 O22 2.352 . S
Cd18 O26 2.277 . S
Cd18 O27 2.356 . S
C19 O24 1.209 . S
C19 O26 1.226 . S
O20 Cd16 2.273 . S
O20 Cd18 2.411 . S
O20 C23 1.320 . S
O21 Cd18 2.333 . S
O21 C23 1.214 . S
O22 Cd18 2.352 . S
O22 C25 1.258 . S
C23 O20 1.320 . S
C23 O21 1.214 . S
O24 Cd16 2.277 . S
O24 C19 1.209 . S
C25 O22 1.258 . S
C25 O27 1.282 . S
O26 Cd18 2.277 . S
O26 C19 1.226 . S
O27 Cd18 2.356 . S
O27 C25 1.282 . S
C28 O29 1.306 . S
C28 O31 1.160 . S
O29 C28 1.306 . S
O29 Cd30 2.228 1_556 S
Cd30 O29 2.228 1_554 S
Cd30 O34 2.273 1_554 S
Cd30 O38 2.277 . S
O31 C28 1.160 . S
O31 Cd32 2.203 1_455 S
Cd32 O31 2.203 1_655 S
Cd32 O34 2.411 1_655 S
Cd32 O35 2.333 . S
Cd32 O36 2.352 . S
Cd32 O40 2.277 1_556 S
Cd32 O41 2.356 . S
C33 O38 1.209 1_655 S
C33 O40 1.226 . S
O34 Cd30 2.273 1_556 S
O34 Cd32 2.411 1_455 S
O34 C37 1.320 1_455 S
O35 Cd32 2.333 . S
O35 C37 1.214 . S
O36 Cd32 2.352 . S
O36 C39 1.258 . S
C37 O34 1.320 1_655 S
C37 O35 1.214 . S
O38 Cd30 2.277 . S
O38 C33 1.209 1_455 S
C39 O36 1.258 . S
C39 O41 1.282 . S
O40 Cd32 2.277 1_554 S
O40 C33 1.226 . S
O41 Cd32 2.356 . S
O41 C39 1.282 . S
C42 O43 1.306 . S
C42 O45 1.160 . S
O43 C42 1.306 . S
O43 Cd44 2.228 . S
Cd44 O43 2.228 . S
Cd44 O48 2.273 . S
Cd44 O52 2.277 . S
O45 C42 1.160 . S
O45 Cd46 2.203 1_545 S
Cd46 O45 2.203 1_565 S
Cd46 O48 2.411 1_565 S
Cd46 O49 2.333 . S
Cd46 O50 2.352 . S
Cd46 O54 2.277 . S
Cd46 O55 2.356 . S
C47 O52 1.209 1_565 S
C47 O54 1.226 . S
O48 Cd44 2.273 . S
O48 Cd46 2.411 1_545 S
O48 C51 1.320 1_545 S
O49 Cd46 2.333 . S
O49 C51 1.214 . S
O50 Cd46 2.352 . S
O50 C53 1.258 . S
C51 O48 1.320 1_565 S
C51 O49 1.214 . S
O52 Cd44 2.277 . S
O52 C47 1.209 1_545 S
C53 O50 1.258 . S
C53 O55 1.282 . S
O54 Cd46 2.277 . S
O54 C47 1.226 . S
O55 Cd46 2.356 . S
O55 C53 1.282 . S
C56 O57 1.306 . S
C56 O59 1.160 . S
O57 C56 1.306 . S
O57 Cd58 2.228 . S
Cd58 O57 2.228 . S
Cd58 O62 2.273 . S
Cd58 O66 2.277 . S
O59 C56 1.160 . S
O59 Cd60 2.203 . S
Cd60 O59 2.203 . S
Cd60 O62 2.411 . S
Cd60 O63 2.333 . S
Cd60 O64 2.352 . S
Cd60 O68 2.277 . S
Cd60 O69 2.356 . S
C61 O66 1.209 . S
C61 O68 1.226 . S
O62 Cd58 2.273 . S
O62 Cd60 2.411 . S
O62 C65 1.320 . S
O63 Cd60 2.333 . S
O63 C65 1.214 . S
O64 Cd60 2.352 . S
O64 C67 1.258 . S
C65 O62 1.320 . S
C65 O63 1.214 . S
O66 Cd58 2.277 . S
O66 C61 1.209 . S
C67 O64 1.258 . S
C67 O69 1.282 . S
O68 Cd60 2.277 . S
O68 C61 1.226 . S
O69 Cd60 2.356 . S
O69 C67 1.282 . S
C70 O71 1.306 . S
C70 O73 1.160 . S
O71 C70 1.306 . S
O71 Cd72 2.228 1_556 S
Cd72 O71 2.228 1_554 S
Cd72 O76 2.273 1_554 S
Cd72 O80 2.277 . S
O73 C70 1.160 . S
O73 Cd74 2.203 1_655 S
Cd74 O73 2.203 1_455 S
Cd74 O76 2.411 1_455 S
Cd74 O77 2.333 . S
Cd74 O78 2.352 . S
Cd74 O82 2.277 1_556 S
Cd74 O83 2.356 . S
C75 O80 1.209 1_455 S
C75 O82 1.226 . S
O76 Cd72 2.273 1_556 S
O76 Cd74 2.411 1_655 S
O76 C79 1.320 1_655 S
O77 Cd74 2.333 . S
O77 C79 1.214 . S
O78 Cd74 2.352 . S
O78 C81 1.258 . S
C79 O76 1.320 1_455 S
C79 O77 1.214 . S
O80 Cd72 2.277 . S
O80 C75 1.209 1_655 S
C81 O78 1.258 . S
C81 O83 1.282 . S
O82 Cd74 2.277 1_554 S
O82 C75 1.226 . S
O83 Cd74 2.356 . S
O83 C81 1.282 . S
C84 O85 1.306 . S
C84 O87 1.160 . S
O85 C84 1.306 . S
O85 Cd86 2.228 . S
Cd86 O85 2.228 . S
Cd86 O90 2.273 . S
Cd86 O94 2.277 . S
O87 C84 1.160 . S
O87 Cd88 2.203 1_455 S
Cd88 O87 2.203 1_655 S
Cd88 O90 2.411 1_655 S
Cd88 O91 2.333 . S
Cd88 O92 2.352 . S
Cd88 O96 2.277 . S
Cd88 O97 2.356 . S
C89 O94 1.209 1_655 S
C89 O96 1.226 . S
O90 Cd86 2.273 . S
O90 Cd88 2.411 1_455 S
O90 C93 1.320 1_455 S
O91 Cd88 2.333 . S
O91 C93 1.214 . S
O92 Cd88 2.352 . S
O92 C95 1.258 . S
C93 O90 1.320 1_655 S
C93 O91 1.214 . S
O94 Cd86 2.277 . S
O94 C89 1.209 1_455 S
C95 O92 1.258 . S
C95 O97 1.282 . S
O96 Cd88 2.277 . S
O96 C89 1.226 . S
O97 Cd88 2.356 . S
O97 C95 1.282 . S
C98 O99 1.306 . S
C98 O101 1.160 . S
O99 C98 1.306 . S
O99 Cd100 2.228 . S
Cd100 O99 2.228 . S
Cd100 O104 2.273 . S
Cd100 O108 2.277 . S
O101 C98 1.160 . S
O101 Cd102 2.203 1_545 S
Cd102 O101 2.203 1_565 S
Cd102 O104 2.411 1_565 S
Cd102 O105 2.333 . S
Cd102 O106 2.352 . S
Cd102 O110 2.277 . S
Cd102 O111 2.356 . S
C103 O108 1.209 1_565 S
C103 O110 1.226 . S
O104 Cd100 2.273 . S
O104 Cd102 2.411 1_545 S
O104 C107 1.320 1_545 S
O105 Cd102 2.333 . S
O105 C107 1.214 . S
O106 Cd102 2.352 . S
O106 C109 1.258 . S
C107 O104 1.320 1_565 S
C107 O105 1.214 . S
O108 Cd100 2.277 . S
O108 C103 1.209 1_545 S
C109 O106 1.258 . S
C109 O111 1.282 . S
O110 Cd102 2.277 . S
O110 C103 1.226 . S
O111 Cd102 2.356 . S
O111 C109 1.282 . S
C112 O113 1.306 . S
C112 O115 1.160 . S
O113 C112 1.306 . S
O113 Cd114 2.228 1_554 S
Cd114 O113 2.228 1_556 S
Cd114 O118 2.273 1_556 S
Cd114 O122 2.277 . S
O115 C112 1.160 . S
O115 Cd116 2.203 . S
Cd116 O115 2.203 . S
Cd116 O118 2.411 . S
Cd116 O119 2.333 . S
Cd116 O120 2.352 . S
Cd116 O124 2.277 1_554 S
Cd116 O125 2.356 . S
C117 O122 1.209 . S
C117 O124 1.226 . S
O118 Cd114 2.273 1_554 S
O118 Cd116 2.411 . S
O118 C121 1.320 . S
O119 Cd116 2.333 . S
O119 C121 1.214 . S
O120 Cd116 2.352 . S
O120 C123 1.258 . S
C121 O118 1.320 . S
C121 O119 1.214 . S
O122 Cd114 2.277 . S
O122 C117 1.209 . S
C123 O120 1.258 . S
C123 O125 1.282 . S
O124 Cd116 2.277 1_556 S
O124 C117 1.226 . S
O125 Cd116 2.356 . S
O125 C123 1.282 . S
C126 O127 1.306 . S
C126 O129 1.160 . S
O127 C126 1.306 . S
O127 Cd128 2.228 . S
Cd128 O127 2.228 . S
Cd128 O132 2.273 . S
Cd128 O136 2.277 . S
O129 C126 1.160 . S
O129 Cd130 2.203 1_655 S
Cd130 O129 2.203 1_455 S
Cd130 O132 2.411 1_455 S
Cd130 O133 2.333 . S
Cd130 O134 2.352 . S
Cd130 O138 2.277 . S
Cd130 O139 2.356 . S
C131 O136 1.209 1_455 S
C131 O138 1.226 . S
O132 Cd128 2.273 . S
O132 Cd130 2.411 1_655 S
O132 C135 1.320 1_655 S
O133 Cd130 2.333 . S
O133 C135 1.214 . S
O134 Cd130 2.352 . S
O134 C137 1.258 . S
C135 O132 1.320 1_455 S
C135 O133 1.214 . S
O136 Cd128 2.277 . S
O136 C131 1.209 1_655 S
C137 O134 1.258 . S
C137 O139 1.282 . S
O138 Cd130 2.277 . S
O138 C131 1.226 . S
O139 Cd130 2.356 . S
O139 C137 1.282 . S
C140 O141 1.306 . S
C140 O143 1.160 . S
O141 C140 1.306 . S
O141 Cd142 2.228 . S
Cd142 O141 2.228 . S
Cd142 O146 2.273 . S
Cd142 O150 2.277 . S
O143 C140 1.160 . S
O143 Cd144 2.203 1_565 S
Cd144 O143 2.203 1_545 S
Cd144 O146 2.411 1_545 S
Cd144 O147 2.333 . S
Cd144 O148 2.352 . S
Cd144 O152 2.277 . S
Cd144 O153 2.356 . S
C145 O150 1.209 1_545 S
C145 O152 1.226 . S
O146 Cd142 2.273 . S
O146 Cd144 2.411 1_565 S
O146 C149 1.320 1_565 S
O147 Cd144 2.333 . S
O147 C149 1.214 . S
O148 Cd144 2.352 . S
O148 C151 1.258 . S
C149 O146 1.320 1_545 S
C149 O147 1.214 . S
O150 Cd142 2.277 . S
O150 C145 1.209 1_565 S
C151 O148 1.258 . S
C151 O153 1.282 . S
O152 Cd144 2.277 . S
O152 C145 1.226 . S
O153 Cd144 2.356 . S
O153 C151 1.282 . S
C154 O155 1.306 . S
C154 O157 1.160 . S
O155 C154 1.306 . S
O155 Cd156 2.228 1_554 S
Cd156 O155 2.228 1_556 S
Cd156 O160 2.273 1_556 S
Cd156 O164 2.277 . S
O157 C154 1.160 . S
O157 Cd158 2.203 . S
Cd158 O157 2.203 . S
Cd158 O160 2.411 . S
Cd158 O161 2.333 . S
Cd158 O162 2.352 . S
Cd158 O166 2.277 1_554 S
Cd158 O167 2.356 . S
C159 O164 1.209 . S
C159 O166 1.226 . S
O160 Cd156 2.273 1_554 S
O160 Cd158 2.411 . S
O160 C163 1.320 . S
O161 Cd158 2.333 . S
O161 C163 1.214 . S
O162 Cd158 2.352 . S
O162 C165 1.258 . S
C163 O160 1.320 . S
C163 O161 1.214 . S
O164 Cd156 2.277 . S
O164 C159 1.209 . S
C165 O162 1.258 . S
C165 O167 1.282 . S
O166 Cd158 2.277 1_556 S
O166 C159 1.226 . S
O167 Cd158 2.356 . S
O167 C165 1.282 . S
C168 C169 1.170 . S
C168 C170 1.380 . S
C169 C168 1.170 . S
C170 C168 1.380 . S
C170 C171 1.170 . S
C171 C170 1.170 . S
C172 C173 1.170 . S
C172 C174 1.380 . S
C173 C172 1.170 . S
C174 C172 1.380 . S
C174 C175 1.170 . S
C175 C174 1.170 . S
C176 C177 1.170 . S
C176 C178 1.380 . S
C177 C176 1.170 . S
C178 C176 1.380 . S
C178 C179 1.170 . S
C179 C178 1.170 . S
C180 C181 1.170 . S
C180 C182 1.380 . S
C181 C180 1.170 . S
C182 C180 1.380 . S
C182 C183 1.170 . S
C183 C182 1.170 . S
C184 C185 1.170 . S
C184 C186 1.380 . S
C185 C184 1.170 . S
C186 C184 1.380 . S
C186 C187 1.170 . S
C187 C186 1.170 . S
C188 C189 1.170 . S
C188 C190 1.380 . S
C189 C188 1.170 . S
C190 C188 1.380 . S
C190 C191 1.170 . S
C191 C190 1.170 . S
C192 C193 1.170 . S
C192 C194 1.380 1_545 S
C193 C192 1.170 . S
C194 C192 1.380 1_565 S
C194 C195 1.170 . S
C195 C194 1.170 . S
C196 C197 1.170 . S
C196 C198 1.380 . S
C197 C196 1.170 . S
C198 C196 1.380 . S
C198 C199 1.170 . S
C199 C198 1.170 . S
C200 C201 1.170 . S
C200 C202 1.380 1_455 S
C201 C200 1.170 . S
C202 C200 1.380 1_655 S
C202 C203 1.170 . S
C203 C202 1.170 . S
C204 C205 1.170 . S
C204 C206 1.380 1_655 S
C205 C204 1.170 . S
C206 C204 1.380 1_455 S
C206 C207 1.170 . S
C207 C206 1.170 . S
C208 C209 1.170 . S
C208 C210 1.380 1_545 S
C209 C208 1.170 . S
C210 C208 1.380 1_565 S
C210 C211 1.170 . S
C211 C210 1.170 . S
C212 C213 1.170 . S
C212 C214 1.380 . S
C213 C212 1.170 . S
C214 C212 1.380 . S
C214 C215 1.170 . S
C215 C214 1.170 . S
C216 C217 1.170 . S
C216 C218 1.380 . S
C217 C216 1.170 . S
C218 C216 1.380 . S
C218 C219 1.170 . S
C219 C218 1.170 . S
C220 C221 1.170 . S
C220 C222 1.380 . S
C221 C220 1.170 . S
C222 C220 1.380 . S
C222 C223 1.170 . S
C223 C222 1.170 . S
C224 C225 1.170 . S
C224 C226 1.380 1_554 S
C225 C224 1.170 . S
C226 C224 1.380 1_556 S
C226 C227 1.170 . S
C227 C226 1.170 . S
C228 C229 1.170 . S
C228 C230 1.380 . S
C229 C228 1.170 . S
C230 C228 1.380 . S
C230 C231 1.170 . S
C231 C230 1.170 . S
C232 C233 1.170 . S
C232 C234 1.380 . S
C233 C232 1.170 . S
C234 C232 1.380 . S
C234 C235 1.170 . S
C235 C234 1.170 . S
C236 C237 1.170 . S
C236 C238 1.380 1_554 S
C237 C236 1.170 . S
C238 C236 1.380 1_556 S
C238 C239 1.170 . S
C239 C238 1.170 . S
C240 C241 1.170 . S
C240 C242 1.380 1_545 S
C241 C240 1.170 . S
C242 C240 1.380 1_565 S
C242 C243 1.170 . S
C243 C242 1.170 . S
C244 C245 1.170 . S
C244 C246 1.380 . S
C245 C244 1.170 . S
C246 C244 1.380 . S
C246 C247 1.170 . S
C247 C246 1.170 . S
C248 C249 1.170 . S
C248 C250 1.380 1_455 S
C249 C248 1.170 . S
C250 C248 1.380 1_655 S
C250 C251 1.170 . S
C251 C250 1.170 . S
C252 C253 1.170 . S
C252 C254 1.380 1_565 S
C253 C252 1.170 . S
C254 C252 1.380 1_545 S
C254 C255 1.170 . S
C255 C254 1.170 . S
C256 C257 1.170 . S
C256 C258 1.380 . S
C257 C256 1.170 . S
C258 C256 1.380 . S
C258 C259 1.170 . S
C259 C258 1.170 . S
C260 C261 1.170 . S
C260 C262 1.380 1_655 S
C261 C260 1.170 . S
C262 C260 1.380 1_455 S
C262 C263 1.170 . S
C263 C262 1.170 . S
C169 C11 1.726 . S
C171 C123 1.715 . S
C173 C25 1.715 . S
C175 C137 1.726 . S
C177 C151 1.719 . S
C179 C39 1.723 . S
C181 C165 1.721 . S
C183 C53 1.721 . S
C185 C95 1.723 . S
C187 C67 1.717 . S
C189 C109 1.715 . S
C191 C81 1.726 . S
C193 C9 1.599 . S
C195 C51 1.596 . S
C197 C65 1.599 . S
C199 C23 1.596 . S
C201 C79 1.599 . S
C203 C37 1.593 . S
C205 C93 1.589 . S
C207 C135 1.588 . S
C209 C149 1.593 . S
C211 C107 1.587 . S
C213 C121 1.597 . S
C215 C163 1.590 . S
C217 C84 1.082 . S
C219 C0 1.055 . S
C221 C14 1.083 . S
C223 C98 1.050 . S
C225 C112 1.041 . S
C227 C28 1.083 . S
C229 C126 1.021 . S
C231 C42 1.041 . S
C233 C56 1.018 . S
C235 C140 1.048 . S
C237 C154 1.049 . S
C239 C70 1.083 . S
C241 C5 1.178 . S
C243 C103 1.170 . S
C245 C117 1.152 . S
C247 C19 1.189 . S
C249 C131 1.168 . S
C251 C33 1.180 . S
C253 C47 1.157 . S
C255 C145 1.178 . S
C257 C159 1.152 . S
C259 C61 1.189 . S
C261 C89 1.155 . S
C263 C75 1.188 . S
