# Generated by pormake.
# Topology tes, (8)-cn, num edge types: 1
# Building blocks:
#     Node 0, Type 0, BuildingBlock: TAGTUT_clean_sbu_3, # of connection points: 8
#     Node 1, Type 0, BuildingBlock: TAGTUT_clean_sbu_3, # of connection points: 8
#     Node 2, Type 0, BuildingBlock: TAGTUT_clean_sbu_3, # of connection points: 8
#     Node 3, Type 0, BuildingBlock: TAGTUT_clean_sbu_3, # of connection points: 8
#     Node 4, Type 0, BuildingBlock: TAGTUT_clean_sbu_3, # of connection points: 8
#     Node 5, Type 0, BuildingBlock: TAGTUT_clean_sbu_3, # of connection points: 8
#     Node 6, Type 0, BuildingBlock: TAGTUT_clean_sbu_3, # of connection points: 8
#     Node 7, Type 0, BuildingBlock: TAGTUT_clean_sbu_3, # of connection points: 8
#     Node 8, Type 0, BuildingBlock: TAGTUT_clean_sbu_3, # of connection points: 8
#     Node 9, Type 0, BuildingBlock: TAGTUT_clean_sbu_3, # of connection points: 8
#     Node 10, Type 0, BuildingBlock: TAGTUT_clean_sbu_3, # of connection points: 8
#     Node 11, Type 0, BuildingBlock: TAGTUT_clean_sbu_3, # of connection points: 8
#     Node 12, Type 0, BuildingBlock: TAGTUT_clean_sbu_3, # of connection points: 8
#     Node 13, Type 0, BuildingBlock: TAGTUT_clean_sbu_3, # of connection points: 8
#     Node 14, Type 0, BuildingBlock: TAGTUT_clean_sbu_3, # of connection points: 8
#     Node 15, Type 0, BuildingBlock: TAGTUT_clean_sbu_3, # of connection points: 8
#     Node 16, Type 0, BuildingBlock: TAGTUT_clean_sbu_3, # of connection points: 8
#     Node 17, Type 0, BuildingBlock: TAGTUT_clean_sbu_3, # of connection points: 8
#     Node 18, Type 0, BuildingBlock: TAGTUT_clean_sbu_3, # of connection points: 8
#     Node 19, Type 0, BuildingBlock: TAGTUT_clean_sbu_3, # of connection points: 8
#     Node 20, Type 0, BuildingBlock: TAGTUT_clean_sbu_3, # of connection points: 8
#     Node 21, Type 0, BuildingBlock: TAGTUT_clean_sbu_3, # of connection points: 8
#     Node 22, Type 0, BuildingBlock: TAGTUT_clean_sbu_3, # of connection points: 8
#     Node 23, Type 0, BuildingBlock: TAGTUT_clean_sbu_3, # of connection points: 8
#     Edge 24, Type (0, 0), BuildingBlock: CIFDUS_clean_linker_0, # of connection points: 2
#     Edge 25, Type (0, 0), BuildingBlock: CIFDUS_clean_linker_0, # of connection points: 2
#     Edge 26, Type (0, 0), BuildingBlock: CIFDUS_clean_linker_0, # of connection points: 2
#     Edge 27, Type (0, 0), BuildingBlock: CIFDUS_clean_linker_0, # of connection points: 2
#     Edge 28, Type (0, 0), BuildingBlock: CIFDUS_clean_linker_0, # of connection points: 2
#     Edge 29, Type (0, 0), BuildingBlock: CIFDUS_clean_linker_0, # of connection points: 2
#     Edge 30, Type (0, 0), BuildingBlock: CIFDUS_clean_linker_0, # of connection points: 2
#     Edge 31, Type (0, 0), BuildingBlock: CIFDUS_clean_linker_0, # of connection points: 2
#     Edge 32, Type (0, 0), BuildingBlock: CIFDUS_clean_linker_0, # of connection points: 2
#     Edge 33, Type (0, 0), BuildingBlock: CIFDUS_clean_linker_0, # of connection points: 2
#     Edge 34, Type (0, 0), BuildingBlock: CIFDUS_clean_linker_0, # of connection points: 2
#     Edge 35, Type (0, 0), BuildingBlock: CIFDUS_clean_linker_0, # of connection points: 2
#     Edge 36, Type (0, 0), BuildingBlock: CIFDUS_clean_linker_0, # of connection points: 2
#     Edge 37, Type (0, 0), BuildingBlock: CIFDUS_clean_linker_0, # of connection points: 2
#     Edge 38, Type (0, 0), BuildingBlock: CIFDUS_clean_linker_0, # of connection points: 2
#     Edge 39, Type (0, 0), BuildingBlock: CIFDUS_clean_linker_0, # of connection points: 2
#     Edge 40, Type (0, 0), BuildingBlock: CIFDUS_clean_linker_0, # of connection points: 2
#     Edge 41, Type (0, 0), BuildingBlock: CIFDUS_clean_linker_0, # of connection points: 2
#     Edge 42, Type (0, 0), BuildingBlock: CIFDUS_clean_linker_0, # of connection points: 2
#     Edge 43, Type (0, 0), BuildingBlock: CIFDUS_clean_linker_0, # of connection points: 2
#     Edge 44, Type (0, 0), BuildingBlock: CIFDUS_clean_linker_0, # of connection points: 2
#     Edge 45, Type (0, 0), BuildingBlock: CIFDUS_clean_linker_0, # of connection points: 2
#     Edge 46, Type (0, 0), BuildingBlock: CIFDUS_clean_linker_0, # of connection points: 2
#     Edge 47, Type (0, 0), BuildingBlock: CIFDUS_clean_linker_0, # of connection points: 2
#     Edge 48, Type (0, 0), BuildingBlock: CIFDUS_clean_linker_0, # of connection points: 2
#     Edge 49, Type (0, 0), BuildingBlock: CIFDUS_clean_linker_0, # of connection points: 2
#     Edge 50, Type (0, 0), BuildingBlock: CIFDUS_clean_linker_0, # of connection points: 2
#     Edge 51, Type (0, 0), BuildingBlock: CIFDUS_clean_linker_0, # of connection points: 2
#     Edge 52, Type (0, 0), BuildingBlock: CIFDUS_clean_linker_0, # of connection points: 2
#     Edge 53, Type (0, 0), BuildingBlock: CIFDUS_clean_linker_0, # of connection points: 2
#     Edge 54, Type (0, 0), BuildingBlock: CIFDUS_clean_linker_0, # of connection points: 2
#     Edge 55, Type (0, 0), BuildingBlock: CIFDUS_clean_linker_0, # of connection points: 2
#     Edge 56, Type (0, 0), BuildingBlock: CIFDUS_clean_linker_0, # of connection points: 2
#     Edge 57, Type (0, 0), BuildingBlock: CIFDUS_clean_linker_0, # of connection points: 2
#     Edge 58, Type (0, 0), BuildingBlock: CIFDUS_clean_linker_0, # of connection points: 2
#     Edge 59, Type (0, 0), BuildingBlock: CIFDUS_clean_linker_0, # of connection points: 2
#     Edge 60, Type (0, 0), BuildingBlock: CIFDUS_clean_linker_0, # of connection points: 2
#     Edge 61, Type (0, 0), BuildingBlock: CIFDUS_clean_linker_0, # of connection points: 2
#     Edge 62, Type (0, 0), BuildingBlock: CIFDUS_clean_linker_0, # of connection points: 2
#     Edge 63, Type (0, 0), BuildingBlock: CIFDUS_clean_linker_0, # of connection points: 2
#     Edge 64, Type (0, 0), BuildingBlock: CIFDUS_clean_linker_0, # of connection points: 2
#     Edge 65, Type (0, 0), BuildingBlock: CIFDUS_clean_linker_0, # of connection points: 2
#     Edge 66, Type (0, 0), BuildingBlock: CIFDUS_clean_linker_0, # of connection points: 2
#     Edge 67, Type (0, 0), BuildingBlock: CIFDUS_clean_linker_0, # of connection points: 2
#     Edge 68, Type (0, 0), BuildingBlock: CIFDUS_clean_linker_0, # of connection points: 2
#     Edge 69, Type (0, 0), BuildingBlock: CIFDUS_clean_linker_0, # of connection points: 2
#     Edge 70, Type (0, 0), BuildingBlock: CIFDUS_clean_linker_0, # of connection points: 2
#     Edge 71, Type (0, 0), BuildingBlock: CIFDUS_clean_linker_0, # of connection points: 2
#     Edge 72, Type (0, 0), BuildingBlock: CIFDUS_clean_linker_0, # of connection points: 2
#     Edge 73, Type (0, 0), BuildingBlock: CIFDUS_clean_linker_0, # of connection points: 2
#     Edge 74, Type (0, 0), BuildingBlock: CIFDUS_clean_linker_0, # of connection points: 2
#     Edge 75, Type (0, 0), BuildingBlock: CIFDUS_clean_linker_0, # of connection points: 2
#     Edge 76, Type (0, 0), BuildingBlock: CIFDUS_clean_linker_0, # of connection points: 2
#     Edge 77, Type (0, 0), BuildingBlock: CIFDUS_clean_linker_0, # of connection points: 2
#     Edge 78, Type (0, 0), BuildingBlock: CIFDUS_clean_linker_0, # of connection points: 2
#     Edge 79, Type (0, 0), BuildingBlock: CIFDUS_clean_linker_0, # of connection points: 2
#     Edge 80, Type (0, 0), BuildingBlock: CIFDUS_clean_linker_0, # of connection points: 2
#     Edge 81, Type (0, 0), BuildingBlock: CIFDUS_clean_linker_0, # of connection points: 2
#     Edge 82, Type (0, 0), BuildingBlock: CIFDUS_clean_linker_0, # of connection points: 2
#     Edge 83, Type (0, 0), BuildingBlock: CIFDUS_clean_linker_0, # of connection points: 2
#     Edge 84, Type (0, 0), BuildingBlock: CIFDUS_clean_linker_0, # of connection points: 2
#     Edge 85, Type (0, 0), BuildingBlock: CIFDUS_clean_linker_0, # of connection points: 2
#     Edge 86, Type (0, 0), BuildingBlock: CIFDUS_clean_linker_0, # of connection points: 2
#     Edge 87, Type (0, 0), BuildingBlock: CIFDUS_clean_linker_0, # of connection points: 2
#     Edge 88, Type (0, 0), BuildingBlock: CIFDUS_clean_linker_0, # of connection points: 2
#     Edge 89, Type (0, 0), BuildingBlock: CIFDUS_clean_linker_0, # of connection points: 2
#     Edge 90, Type (0, 0), BuildingBlock: CIFDUS_clean_linker_0, # of connection points: 2
#     Edge 91, Type (0, 0), BuildingBlock: CIFDUS_clean_linker_0, # of connection points: 2
#     Edge 92, Type (0, 0), BuildingBlock: CIFDUS_clean_linker_0, # of connection points: 2
#     Edge 93, Type (0, 0), BuildingBlock: CIFDUS_clean_linker_0, # of connection points: 2
#     Edge 94, Type (0, 0), BuildingBlock: CIFDUS_clean_linker_0, # of connection points: 2
#     Edge 95, Type (0, 0), BuildingBlock: CIFDUS_clean_linker_0, # of connection points: 2
#     Edge 96, Type (0, 0), BuildingBlock: CIFDUS_clean_linker_0, # of connection points: 2
#     Edge 97, Type (0, 0), BuildingBlock: CIFDUS_clean_linker_0, # of connection points: 2
#     Edge 98, Type (0, 0), BuildingBlock: CIFDUS_clean_linker_0, # of connection points: 2
#     Edge 99, Type (0, 0), BuildingBlock: CIFDUS_clean_linker_0, # of connection points: 2
#     Edge 100, Type (0, 0), BuildingBlock: CIFDUS_clean_linker_0, # of connection points: 2
#     Edge 101, Type (0, 0), BuildingBlock: CIFDUS_clean_linker_0, # of connection points: 2
#     Edge 102, Type (0, 0), BuildingBlock: CIFDUS_clean_linker_0, # of connection points: 2
#     Edge 103, Type (0, 0), BuildingBlock: CIFDUS_clean_linker_0, # of connection points: 2
#     Edge 104, Type (0, 0), BuildingBlock: CIFDUS_clean_linker_0, # of connection points: 2
#     Edge 105, Type (0, 0), BuildingBlock: CIFDUS_clean_linker_0, # of connection points: 2
#     Edge 106, Type (0, 0), BuildingBlock: CIFDUS_clean_linker_0, # of connection points: 2
#     Edge 107, Type (0, 0), BuildingBlock: CIFDUS_clean_linker_0, # of connection points: 2
#     Edge 108, Type (0, 0), BuildingBlock: CIFDUS_clean_linker_0, # of connection points: 2
#     Edge 109, Type (0, 0), BuildingBlock: CIFDUS_clean_linker_0, # of connection points: 2
#     Edge 110, Type (0, 0), BuildingBlock: CIFDUS_clean_linker_0, # of connection points: 2
#     Edge 111, Type (0, 0), BuildingBlock: CIFDUS_clean_linker_0, # of connection points: 2
#     Edge 112, Type (0, 0), BuildingBlock: CIFDUS_clean_linker_0, # of connection points: 2
#     Edge 113, Type (0, 0), BuildingBlock: CIFDUS_clean_linker_0, # of connection points: 2
#     Edge 114, Type (0, 0), BuildingBlock: CIFDUS_clean_linker_0, # of connection points: 2
#     Edge 115, Type (0, 0), BuildingBlock: CIFDUS_clean_linker_0, # of connection points: 2
#     Edge 116, Type (0, 0), BuildingBlock: CIFDUS_clean_linker_0, # of connection points: 2
#     Edge 117, Type (0, 0), BuildingBlock: CIFDUS_clean_linker_0, # of connection points: 2
#     Edge 118, Type (0, 0), BuildingBlock: CIFDUS_clean_linker_0, # of connection points: 2
#     Edge 119, Type (0, 0), BuildingBlock: CIFDUS_clean_linker_0, # of connection points: 2
# Relax obj value: 0.278
# Max RMSD: 0.243
# Mean RMSD: 0.243
data_MOF--net-tes--node1-TAGTUT_clean_sbu_3--edge1-CIFDUS_clean_linker_0
_symmetry_space_group_name_H-M    P1
_symmetry_Int_Tables_number       1
_symmetry_cell_setting            triclinic
loop_
_symmetry_equiv_pos_as_xyz
'x, y, z'
_cell_length_a     40.715071
_cell_length_b     40.485887
_cell_length_c     40.381776
_cell_angle_alpha  89.976727
_cell_angle_beta   90.270325
_cell_angle_gamma 90.183479
loop_
_atom_site_label
_atom_site_type_symbol
_atom_site_fract_x
_atom_site_fract_y
_atom_site_fract_z
_atom_type_partial_charge
C0 C 0.14605 0.32291 0.41395 0.0
C1 C 0.17922 0.27855 0.3 0.0
C2 C 0.15587 0.37734 0.26521 0.0
Mg3 Mg 0.11298 0.39413 0.42591 0.0
Mg4 Mg 0.05869 0.43317 0.37616 0.0
O5 O 0.09919 0.41261 0.38242 0.0
Mg6 Mg 0.11387 0.37532 0.35629 0.0
O7 O 0.1324 0.33704 0.33348 0.0
Mg8 Mg 0.17829 0.34982 0.34224 0.0
Mg9 Mg 0.11826 0.3197 0.29243 0.0
C10 C 0.08777 0.44088 0.30546 0.0
O11 O 0.06316 0.34389 0.35135 0.0
O12 O 0.09905 0.44316 0.44561 0.0
O13 O 0.07008 0.30781 0.30929 0.0
O14 O 0.06028 0.37227 0.42861 0.0
O15 O 0.06673 0.47188 0.41111 0.0
O16 O 0.02819 0.39289 0.38811 0.0
O17 O 0.16499 0.40118 0.36162 0.0
O18 O 0.16672 0.41915 0.41299 0.0
C19 C 0.17946 0.41892 0.38377 0.0
C20 C 0.08548 0.46997 0.43644 0.0
O21 O 0.10513 0.4141 0.30952 0.0
O22 O 0.18835 0.30208 0.3189 0.0
O23 O 0.06606 0.44938 0.32651 0.0
O24 O 0.17515 0.37408 0.29044 0.0
O25 O 0.151 0.27813 0.28616 0.0
O26 O 0.12999 0.3599 0.2613 0.0
O27 O 0.12347 0.34301 0.40451 0.0
O28 O 0.17225 0.32185 0.39605 0.0
C29 C 0.0341 0.37152 0.41054 0.0
C30 C 0.05388 0.31834 0.33421 0.0
C31 C 0.81213 0.93775 0.65964 0.0
C32 C 0.77449 0.83073 0.68009 0.0
C33 C 0.87876 0.79834 0.69253 0.0
Mg34 Mg 0.88237 0.94913 0.62209 0.0
Mg35 Mg 0.91736 0.89471 0.57059 0.0
O36 O 0.90193 0.90494 0.613 0.0
Mg37 Mg 0.86658 0.87884 0.63258 0.0
O38 O 0.8305 0.85489 0.65555 0.0
Mg39 Mg 0.84326 0.87382 0.70262 0.0
Mg40 Mg 0.82107 0.8091 0.64116 0.0
C41 C 0.92994 0.82684 0.60548 0.0
O42 O 0.83724 0.86482 0.58309 0.0
O43 O 0.93073 0.9683 0.60267 0.0
O44 O 0.81951 0.81266 0.58802 0.0
O45 O 0.85589 0.94504 0.57105 0.0
O46 O 0.954 0.932 0.56814 0.0
O47 O 0.87378 0.901 0.54276 0.0
O48 O 0.89227 0.89266 0.68268 0.0
O49 O 0.91031 0.94356 0.6759 0.0
C50 C 0.9101 0.91682 0.69332 0.0
C51 C 0.95514 0.95819 0.58569 0.0
O52 O 0.90527 0.83219 0.62527 0.0
O53 O 0.80341 0.84117 0.6847 0.0
O54 O 0.93693 0.84675 0.58193 0.0
O55 O 0.87346 0.8254 0.70838 0.0
O56 O 0.77134 0.80598 0.66107 0.0
O57 O 0.86154 0.78866 0.6677 0.0
O58 O 0.83236 0.92691 0.63769 0.0
O59 O 0.81235 0.92308 0.68796 0.0
C60 C 0.85242 0.92343 0.54781 0.0
C61 C 0.82243 0.83921 0.57126 0.0
C62 C 0.3066 0.58448 0.91514 0.0
C63 C 0.33381 0.51298 0.93671 0.0
C64 C 0.42407 0.54391 0.99424 0.0
Mg65 Mg 0.32975 0.65683 0.89389 0.0
Mg66 Mg 0.40118 0.68149 0.8642 0.0
O67 O 0.37687 0.66399 0.89953 0.0
Mg68 Mg 0.38577 0.62101 0.9185 0.0
O69 O 0.39128 0.57937 0.94089 0.0
Mg70 Mg 0.35442 0.58079 0.97539 0.0
Mg71 Mg 0.3998 0.53689 0.92618 0.0
C72 C 0.45644 0.67306 0.91453 0.0
O73 O 0.40381 0.59431 0.86814 0.0
O74 O 0.33068 0.7112 0.88066 0.0
O75 O 0.43009 0.54882 0.88555 0.0
O76 O 0.34002 0.64186 0.83914 0.0
O77 O 0.37773 0.72798 0.8573 0.0
O78 O 0.39282 0.64936 0.82508 0.0
O79 O 0.367 0.63944 0.97138 0.0
O80 O 0.32873 0.6734 0.95215 0.0
C81 C 0.34834 0.66471 0.97585 0.0
C82 C 0.34891 0.73371 0.868 0.0
O83 O 0.43965 0.65034 0.93044 0.0
O84 O 0.33985 0.52572 0.96547 0.0
O85 O 0.44772 0.6835 0.88608 0.0
O86 O 0.40383 0.56747 1.00063 0.0
O87 O 0.35354 0.51754 0.91298 0.0
O88 O 0.41654 0.52103 0.97377 0.0
O89 O 0.3314 0.59909 0.90145 0.0
O90 O 0.30572 0.58556 0.94642 0.0
C91 C 0.36441 0.6377 0.81939 0.0
C92 C 0.4191 0.56693 0.86219 0.0
C93 C 0.69279 0.07456 0.16791 0.0
C94 C 0.74224 0.17927 0.18877 0.0
C95 C 0.64306 0.21672 0.20869 0.0
Mg96 Mg 0.62034 0.07571 0.13118 0.0
Mg97 Mg 0.59435 0.13406 0.07716 0.0
O98 O 0.61027 0.12241 0.11934 0.0
Mg99 Mg 0.64852 0.14265 0.1406 0.0
O100 O 0.68688 0.16057 0.16593 0.0
Mg101 Mg 0.67274 0.1396 0.21339 0.0
Mg102 Mg 0.69749 0.20677 0.1519 0.0
C103 C 0.59399 0.20312 0.11368 0.0
O104 O 0.68035 0.15226 0.09056 0.0
O105 O 0.57031 0.06488 0.11191 0.0
O106 O 0.69872 0.20383 0.09823 0.0
O107 O 0.64521 0.07181 0.08056 0.0
O108 O 0.54976 0.10634 0.08131 0.0
O109 O 0.63441 0.11535 0.04767 0.0
O110 O 0.62075 0.13488 0.18979 0.0
O111 O 0.59314 0.08856 0.18336 0.0
C112 C 0.59739 0.11569 0.19946 0.0
C113 C 0.54635 0.07999 0.09829 0.0
O114 O 0.61726 0.1939 0.13381 0.0
O115 O 0.71205 0.17168 0.1918 0.0
O116 O 0.5849 0.1853 0.08906 0.0
O117 O 0.64846 0.18913 0.22346 0.0
O118 O 0.74832 0.20427 0.17082 0.0
O119 O 0.65849 0.2266 0.18269 0.0
O120 O 0.67335 0.08931 0.14724 0.0
O121 O 0.69746 0.08853 0.19599 0.0
C122 C 0.65097 0.08947 0.05483 0.0
C123 C 0.69641 0.17788 0.08026 0.0
C124 C 0.19108 0.58998 0.09031 0.0
C125 C 0.06204 0.5519 0.07393 0.0
C126 C 0.0434 0.65088 0.06753 0.0
Mg127 Mg 0.20994 0.66593 0.11034 0.0
Mg128 Mg 0.1562 0.67395 0.18129 0.0
O129 O 0.16599 0.67922 0.1339 0.0
Mg130 Mg 0.13712 0.64273 0.11936 0.0
O131 O 0.11085 0.6059 0.104 0.0
Mg132 Mg 0.11663 0.61221 0.056 0.0
Mg133 Mg 0.06827 0.60995 0.12077 0.0
C134 C 0.08558 0.68461 0.16285 0.0
O135 O 0.13115 0.6116 0.17172 0.0
O136 O 0.18901 0.70794 0.14573 0.0
O137 O 0.07662 0.60394 0.17234 0.0
O138 O 0.23087 0.64511 0.1585 0.0
O139 O 0.16895 0.72313 0.19383 0.0
O140 O 0.18882 0.63392 0.1926 0.0
O141 O 0.13655 0.66808 0.06443 0.0
O142 O 0.18625 0.68976 0.06168 0.0
C143 C 0.15708 0.68784 0.04961 0.0
C144 C 0.1777 0.73084 0.1647 0.0
O145 O 0.09369 0.6763 0.13354 0.0
O146 O 0.08636 0.5631 0.05656 0.0
O147 O 0.10334 0.67563 0.18733 0.0
O148 O 0.06457 0.63608 0.04938 0.0
O149 O 0.05013 0.56653 0.09904 0.0
O150 O 0.0475 0.6526 0.09857 0.0
O151 O 0.18422 0.61463 0.10875 0.0
O152 O 0.1698 0.58289 0.06744 0.0
C153 C 0.21901 0.63163 0.18453 0.0
C154 C 0.10482 0.59997 0.18568 0.0
C155 C 0.65746 0.94594 0.35903 0.0
C156 C 0.69253 0.84493 0.29756 0.0
C157 C 0.59329 0.80667 0.33378 0.0
Mg158 Mg 0.59208 0.9539 0.40275 0.0
Mg159 Mg 0.57692 0.88195 0.46743 0.0
O160 O 0.58312 0.90371 0.42135 0.0
Mg161 Mg 0.6141 0.88291 0.39119 0.0
O162 O 0.64613 0.86564 0.35968 0.0
Mg163 Mg 0.62342 0.88143 0.31853 0.0
Mg164 Mg 0.66123 0.82244 0.36348 0.0
C165 C 0.57257 0.8176 0.42661 0.0
O166 O 0.65357 0.87005 0.43311 0.0
O167 O 0.55824 0.9165 0.42998 0.0
O168 O 0.68266 0.82751 0.41298 0.0
O169 O 0.62418 0.95522 0.45056 0.0
O170 O 0.525 0.8978 0.46777 0.0
O171 O 0.6152 0.91519 0.48608 0.0
O172 O 0.57686 0.89388 0.34686 0.0
O173 O 0.55907 0.94431 0.35287 0.0
C174 C 0.55681 0.91651 0.33775 0.0
C175 C 0.52902 0.91615 0.44255 0.0
O176 O 0.58331 0.83301 0.40087 0.0
O177 O 0.66804 0.8638 0.29232 0.0
O178 O 0.57688 0.82941 0.45574 0.0
O179 O 0.59596 0.83199 0.31487 0.0
O180 O 0.69448 0.82564 0.32262 0.0
O181 O 0.61569 0.79846 0.35445 0.0
O182 O 0.64117 0.93348 0.38335 0.0
O183 O 0.65341 0.93242 0.33033 0.0
C184 C 0.61032 0.94512 0.47699 0.0
C185 C 0.67733 0.84906 0.43564 0.0
C186 C 0.37207 0.34474 0.57783 0.0
C187 C 0.32636 0.29086 0.69117 0.0
C188 C 0.3284 0.39222 0.72347 0.0
Mg189 Mg 0.40636 0.4214 0.58222 0.0
Mg190 Mg 0.45212 0.44191 0.64724 0.0
O191 O 0.41061 0.43149 0.63003 0.0
Mg192 Mg 0.39206 0.39042 0.64636 0.0
O193 O 0.37174 0.3496 0.66125 0.0
Mg194 Mg 0.32667 0.36104 0.6456 0.0
Mg195 Mg 0.37852 0.34159 0.70675 0.0
C196 C 0.41479 0.43988 0.71199 0.0
O197 O 0.4423 0.36125 0.66024 0.0
O198 O 0.42663 0.47416 0.57891 0.0
O199 O 0.43047 0.33583 0.70817 0.0
O200 O 0.46079 0.40393 0.58155 0.0
O201 O 0.46152 0.48597 0.62104 0.0
O202 O 0.48189 0.40291 0.63258 0.0
O203 O 0.34035 0.41599 0.63459 0.0
O204 O 0.3507 0.44239 0.58815 0.0
C205 C 0.33095 0.43711 0.6125 0.0
C206 C 0.44666 0.49357 0.59436 0.0
O207 O 0.39443 0.41897 0.69889 0.0
O208 O 0.31665 0.3095 0.66717 0.0
O209 O 0.44089 0.44897 0.69731 0.0
O210 O 0.3149 0.38393 0.69591 0.0
O211 O 0.34949 0.29836 0.71119 0.0
O212 O 0.3562 0.38079 0.73218 0.0
O213 O 0.39164 0.36572 0.59231 0.0
O214 O 0.34452 0.33852 0.59233 0.0
C215 C 0.48393 0.3966 0.60196 0.0
C216 C 0.45071 0.34283 0.68511 0.0
C217 C 0.93567 0.0968 0.81863 0.0
C218 C 0.97338 0.05882 0.93424 0.0
C219 C 0.87011 0.07349 0.96274 0.0
Mg220 Mg 0.86636 0.12793 0.79929 0.0
Mg221 Mg 0.83588 0.19553 0.86318 0.0
O222 O 0.85176 0.14969 0.84802 0.0
Mg223 Mg 0.88513 0.1285 0.87533 0.0
O224 O 0.91968 0.10532 0.89927 0.0
Mg225 Mg 0.90597 0.05929 0.88839 0.0
Mg226 Mg 0.92673 0.11655 0.94336 0.0
C227 C 0.83173 0.16304 0.93302 0.0
O228 O 0.91753 0.1775 0.88672 0.0
O229 O 0.82817 0.15188 0.83122 0.0
O230 O 0.9382 0.16753 0.93739 0.0
O231 O 0.88831 0.1803 0.78952 0.0
O232 O 0.78712 0.18463 0.84026 0.0
O233 O 0.87906 0.20941 0.83437 0.0
O234 O 0.85812 0.07743 0.86542 0.0
O235 O 0.84141 0.07557 0.81357 0.0
C236 C 0.84201 0.06234 0.84243 0.0
C237 C 0.79788 0.1591 0.82563 0.0
O238 O 0.84934 0.13851 0.92272 0.0
O239 O 0.95167 0.04467 0.91606 0.0
O240 O 0.83031 0.18987 0.91637 0.0
O241 O 0.87725 0.05492 0.93808 0.0
O242 O 0.96798 0.08548 0.95015 0.0
O243 O 0.88418 0.10119 0.96733 0.0
O244 O 0.91508 0.1192 0.82725 0.0
O245 O 0.93715 0.0704 0.83683 0.0
C246 C 0.87425 0.20483 0.80345 0.0
C247 C 0.93568 0.18597 0.9118 0.0
C248 C 0.41293 0.2079 0.42635 0.0
C249 C 0.44683 0.10834 0.48693 0.0
C250 C 0.43767 0.05814 0.38644 0.0
Mg251 Mg 0.37719 0.20506 0.34913 0.0
Mg252 Mg 0.32175 0.14525 0.33807 0.0
O253 O 0.36619 0.15822 0.34154 0.0
Mg254 Mg 0.38569 0.14197 0.38203 0.0
O255 O 0.40612 0.12718 0.42274 0.0
Mg256 Mg 0.4522 0.13684 0.40996 0.0
Mg257 Mg 0.39427 0.08585 0.43932 0.0
C258 C 0.35511 0.07847 0.33572 0.0
O259 O 0.33595 0.13519 0.41189 0.0
O260 O 0.3517 0.20733 0.29774 0.0
O261 O 0.34313 0.09213 0.44613 0.0
O262 O 0.32713 0.21343 0.37351 0.0
O263 O 0.3111 0.16916 0.29313 0.0
O264 O 0.29578 0.16833 0.37667 0.0
O265 O 0.43654 0.14769 0.35584 0.0
O266 O 0.43036 0.19113 0.32394 0.0
C267 C 0.44774 0.16583 0.33221 0.0
C268 C 0.32822 0.19281 0.28159 0.0
O269 O 0.37866 0.09024 0.35382 0.0
O270 O 0.46249 0.12149 0.46277 0.0
O271 O 0.32767 0.09342 0.33281 0.0
O272 O 0.45664 0.08335 0.39007 0.0
O273 O 0.42167 0.08991 0.48321 0.0
O274 O 0.41102 0.05495 0.40237 0.0
O275 O 0.39245 0.19535 0.40506 0.0
O276 O 0.43984 0.1919 0.4315 0.0
C277 C 0.30153 0.19833 0.38424 0.0
C278 C 0.32546 0.11527 0.43439 0.0
C279 C 0.05627 0.16128 0.66329 0.0
C280 C 0.1649 0.20573 0.70272 0.0
C281 C 0.18015 0.22967 0.61015 0.0
Mg282 Mg 0.0663 0.11312 0.59582 0.0
Mg283 Mg 0.13446 0.06941 0.58691 0.0
O284 O 0.1135 0.11102 0.58673 0.0
Mg285 Mg 0.12657 0.14261 0.6211 0.0
O286 O 0.13845 0.17734 0.65462 0.0
Mg287 Mg 0.10877 0.21792 0.63372 0.0
Mg288 Mg 0.18716 0.171 0.65236 0.0
C289 C 0.19345 0.1155 0.57683 0.0
O290 O 0.14287 0.10243 0.65855 0.0
O291 O 0.06371 0.07786 0.55138 0.0
O292 O 0.19464 0.11798 0.66461 0.0
O293 O 0.07117 0.06682 0.62974 0.0
O294 O 0.10846 0.04522 0.54799 0.0
O295 O 0.1221 0.04611 0.63179 0.0
O296 O 0.11182 0.18526 0.5862 0.0
O297 O 0.07008 0.16299 0.55949 0.0
C298 C 0.09202 0.18627 0.56139 0.0
C299 C 0.07995 0.05391 0.53832 0.0
O300 O 0.17812 0.13859 0.59245 0.0
O301 O 0.14726 0.20919 0.6765 0.0
O302 O 0.18268 0.08583 0.57567 0.0
O303 O 0.1526 0.24446 0.6095 0.0
O304 O 0.19389 0.19493 0.69912 0.0
O305 O 0.18021 0.19865 0.60636 0.0
O306 O 0.07376 0.14067 0.64652 0.0
O307 O 0.06436 0.19182 0.66153 0.0
C308 C 0.09275 0.04725 0.64236 0.0
C309 C 0.17139 0.09757 0.67086 0.0
C310 C 0.10255 0.84301 0.92071 0.0
C311 C 0.10541 0.96634 0.96935 0.0
C312 C 0.11169 0.99581 0.86624 0.0
Mg313 Mg 0.11038 0.8307 0.83893 0.0
Mg314 Mg 0.1595 0.87438 0.78672 0.0
O315 O 0.13776 0.87029 0.82685 0.0
Mg316 Mg 0.13552 0.89632 0.86598 0.0
O317 O 0.12946 0.92113 0.90659 0.0
Mg318 Mg 0.08163 0.9239 0.90156 0.0
Mg319 Mg 0.15377 0.96034 0.91337 0.0
C320 C 0.16685 0.94827 0.80357 0.0
O321 O 0.18989 0.88994 0.89085 0.0
O322 O 0.09755 0.82439 0.78364 0.0
O323 O 0.20091 0.93931 0.91462 0.0
O324 O 0.16188 0.80851 0.83581 0.0
O325 O 0.11725 0.86837 0.75688 0.0
O326 O 0.19171 0.83459 0.79668 0.0
O327 O 0.0799 0.90556 0.84681 0.0
O328 O 0.05984 0.85633 0.83647 0.0
C329 C 0.05658 0.88745 0.83462 0.0
C330 C 0.09518 0.84642 0.76074 0.0
O331 O 0.15125 0.94321 0.83113 0.0
O332 O 0.08598 0.94823 0.95199 0.0
O333 O 0.17721 0.92438 0.78593 0.0
O334 O 0.08902 0.97579 0.87622 0.0
O335 O 0.13384 0.97536 0.95977 0.0
O336 O 0.14136 0.99313 0.8755 0.0
O337 O 0.12131 0.84593 0.89517 0.0
O338 O 0.08329 0.8677 0.92731 0.0
C339 C 0.18872 0.81326 0.81988 0.0
C340 C 0.20817 0.90919 0.90909 0.0
C341 C 0.40594 0.85831 0.20752 0.0
C342 C 0.28975 0.86107 0.24947 0.0
C343 C 0.26292 0.86376 0.14079 0.0
Mg344 Mg 0.42859 0.87416 0.13323 0.0
Mg345 Mg 0.39166 0.92452 0.07946 0.0
O346 O 0.38952 0.88837 0.10715 0.0
Mg347 Mg 0.35909 0.88753 0.14417 0.0
O348 O 0.33155 0.88268 0.18305 0.0
Mg349 Mg 0.331 0.83405 0.18192 0.0
Mg350 Mg 0.29368 0.90776 0.19143 0.0
C351 C 0.31784 0.90957 0.07148 0.0
O352 O 0.36217 0.94378 0.16339 0.0
O353 O 0.45407 0.87592 0.08521 0.0
O354 O 0.31495 0.95536 0.18981 0.0
O355 O 0.44013 0.92985 0.14423 0.0
O356 O 0.43055 0.91007 0.04838 0.0
O357 O 0.4051 0.96005 0.1137 0.0
O358 O 0.35612 0.83134 0.12978 0.0
O359 O 0.4083 0.82026 0.11862 0.0
C360 C 0.37779 0.81162 0.11732 0.0
C361 C 0.45239 0.88919 0.0567 0.0
O362 O 0.31674 0.89762 0.10141 0.0
O363 O 0.30462 0.84015 0.23106 0.0
O364 O 0.34371 0.92315 0.06006 0.0
O365 O 0.28244 0.84067 0.15072 0.0
O366 O 0.28237 0.89009 0.23988 0.0
O367 O 0.26286 0.8926 0.15314 0.0
O368 O 0.40207 0.87704 0.18215 0.0
O369 O 0.38312 0.83675 0.21295 0.0
C370 C 0.4261 0.95741 0.13697 0.0
C371 C 0.34376 0.96338 0.18045 0.0
C372 C 0.34244 0.46468 0.1551 0.0
C373 C 0.30888 0.35313 0.19615 0.0
C374 C 0.39525 0.33931 0.21991 0.0
Mg375 Mg 0.41625 0.45959 0.11737 0.0
Mg376 Mg 0.43517 0.39414 0.07103 0.0
O377 O 0.42685 0.4122 0.11333 0.0
Mg378 Mg 0.38972 0.39527 0.13865 0.0
O379 O 0.35279 0.37979 0.1667 0.0
Mg380 Mg 0.36443 0.40947 0.21247 0.0
Mg381 Mg 0.35435 0.32966 0.15858 0.0
C382 C 0.44401 0.33161 0.11324 0.0
O383 O 0.35487 0.38106 0.09323 0.0
O384 O 0.46616 0.46383 0.09273 0.0
O385 O 0.33814 0.33044 0.10622 0.0
O386 O 0.3881 0.45645 0.06747 0.0
O387 O 0.47572 0.42225 0.05712 0.0
O388 O 0.39333 0.40621 0.04429 0.0
O389 O 0.41727 0.40989 0.18763 0.0
O390 O 0.44461 0.45399 0.17129 0.0
C391 C 0.44049 0.43096 0.19318 0.0
C392 C 0.48503 0.44744 0.07337 0.0
O393 O 0.42302 0.34357 0.13423 0.0
O394 O 0.33262 0.37165 0.18599 0.0
O395 O 0.44917 0.34558 0.08541 0.0
O396 O 0.38523 0.36323 0.23788 0.0
O397 O 0.30832 0.32375 0.18508 0.0
O398 O 0.39719 0.34344 0.18895 0.0
O399 O 0.36365 0.44859 0.13761 0.0
O400 O 0.33814 0.45481 0.18488 0.0
C401 C 0.37922 0.43406 0.04669 0.0
C402 C 0.33671 0.35565 0.08718 0.0
C403 C 0.87325 0.83696 0.08502 0.0
C404 C 0.85215 0.78443 0.20216 0.0
C405 C 0.85206 0.88645 0.23537 0.0
Mg406 Mg 0.89218 0.9156 0.07345 0.0
Mg407 Mg 0.96013 0.93701 0.13415 0.0
O408 O 0.91372 0.92598 0.12157 0.0
Mg409 Mg 0.90068 0.88628 0.14503 0.0
O410 O 0.88611 0.84611 0.16626 0.0
Mg411 Mg 0.83913 0.85397 0.15829 0.0
Mg412 Mg 0.90134 0.8396 0.21017 0.0
C413 C 0.93765 0.92992 0.20577 0.0
O414 O 0.95273 0.85883 0.14876 0.0
O415 O 0.91373 0.95328 0.11047 0.0
O416 O 0.95244 0.83751 0.20016 0.0
O417 O 0.94614 0.90634 0.05714 0.0
O418 O 0.95342 0.98858 0.11838 0.0
O419 O 0.97971 0.90087 0.10146 0.0
O420 O 0.8467 0.90941 0.14335 0.0
O421 O 0.83923 0.93084 0.09375 0.0
C422 C 0.82928 0.92754 0.12361 0.0
C423 C 0.92496 0.98292 0.10643 0.0
O424 O 0.91154 0.91526 0.1952 0.0
O425 O 0.83709 0.80295 0.18116 0.0
O426 O 0.9626 0.93339 0.18711 0.0
O427 O 0.83585 0.87738 0.20959 0.0
O428 O 0.87729 0.79369 0.21873 0.0
O429 O 0.88118 0.87664 0.24089 0.0
O430 O 0.8922 0.86097 0.09411 0.0
O431 O 0.84899 0.82966 0.10407 0.0
C432 C 0.97419 0.8996 0.07038 0.0
C433 C 0.96623 0.84142 0.17202 0.0
C434 C 0.18407 0.57276 0.66592 0.0
C435 C 0.23681 0.67948 0.70463 0.0
C436 C 0.134 0.7184 0.68746 0.0
Mg437 Mg 0.11101 0.57019 0.62619 0.0
Mg438 Mg 0.08633 0.62923 0.5738 0.0
O439 O 0.09759 0.61625 0.617 0.0
Mg440 Mg 0.13704 0.63643 0.63606 0.0
O441 O 0.17637 0.65392 0.65811 0.0
Mg442 Mg 0.16292 0.64273 0.70429 0.0
Mg443 Mg 0.19225 0.69605 0.64723 0.0
C444 C 0.08059 0.69681 0.60697 0.0
O445 O 0.16957 0.64458 0.58615 0.0
O446 O 0.06202 0.55881 0.60027 0.0
O447 O 0.20517 0.68576 0.59689 0.0
O448 O 0.13649 0.56905 0.57443 0.0
O449 O 0.04749 0.59689 0.56211 0.0
O450 O 0.12763 0.6163 0.54675 0.0
O451 O 0.11096 0.62744 0.68736 0.0
O452 O 0.08451 0.58033 0.68117 0.0
C453 C 0.09022 0.60632 0.69909 0.0
C454 C 0.04313 0.5696 0.57698 0.0
O455 O 0.10375 0.68794 0.62766 0.0
O456 O 0.21408 0.66099 0.71635 0.0
O457 O 0.07238 0.67865 0.58252 0.0
O458 O 0.13898 0.69426 0.70744 0.0
O459 O 0.23309 0.69773 0.67924 0.0
O460 O 0.15151 0.72361 0.66189 0.0
O461 O 0.16454 0.58437 0.64326 0.0
O462 O 0.18648 0.58933 0.69312 0.0
C463 C 0.14265 0.589 0.55035 0.0
C464 C 0.19454 0.66275 0.57799 0.0
C465 C 0.72041 0.90225 0.87994 0.0
C466 C 0.70181 0.97862 0.93866 0.0
C467 C 0.62366 0.92432 0.98965 0.0
Mg468 Mg 0.68732 0.83423 0.85263 0.0
Mg469 Mg 0.60988 0.81382 0.83365 0.0
O470 O 0.6406 0.83297 0.86305 0.0
Mg471 Mg 0.64116 0.87396 0.8889 0.0
O472 O 0.64974 0.9121 0.91705 0.0
Mg473 Mg 0.68653 0.89769 0.94849 0.0
Mg474 Mg 0.6336 0.95387 0.91982 0.0
C475 C 0.56796 0.82618 0.89663 0.0
O476 O 0.61855 0.91177 0.84626 0.0
O477 O 0.68045 0.78219 0.83623 0.0
O478 O 0.60827 0.95927 0.87347 0.0
O479 O 0.6689 0.85366 0.80131 0.0
O480 O 0.62955 0.76502 0.82438 0.0
O481 O 0.61481 0.84503 0.79229 0.0
O482 O 0.6635 0.8452 0.93467 0.0
O483 O 0.69427 0.80993 0.90762 0.0
C484 C 0.67826 0.81747 0.93401 0.0
C485 C 0.66019 0.75965 0.82778 0.0
O486 O 0.58824 0.84859 0.90848 0.0
O487 O 0.70642 0.9521 0.9556 0.0
O488 O 0.57021 0.81471 0.86724 0.0
O489 O 0.64804 0.905 0.98639 0.0
O490 O 0.67672 0.98203 0.92018 0.0
O491 O 0.61451 0.9455 0.9679 0.0
O492 O 0.69361 0.89104 0.86664 0.0
O493 O 0.72631 0.89465 0.90976 0.0
C494 C 0.64238 0.85741 0.78398 0.0
C495 C 0.60898 0.94254 0.8466 0.0
C496 C 0.80337 0.08082 0.41985 0.0
C497 C 0.90642 0.0393 0.46424 0.0
C498 C 0.93625 0.11942 0.48289 0.0
Mg499 Mg 0.8175 0.14567 0.37007 0.0
Mg500 Mg 0.88633 0.14677 0.32631 0.0
O501 O 0.86502 0.15263 0.36759 0.0
Mg502 Mg 0.87701 0.1185 0.39858 0.0
O503 O 0.88926 0.08497 0.43116 0.0
Mg504 Mg 0.86108 0.10446 0.47512 0.0
Mg505 Mg 0.93905 0.07712 0.42452 0.0
C506 C 0.94594 0.15871 0.36912 0.0
O507 O 0.89119 0.08065 0.35799 0.0
O508 O 0.82065 0.18991 0.33416 0.0
O509 O 0.94111 0.06347 0.37197 0.0
O510 O 0.81821 0.11153 0.32331 0.0
O511 O 0.86541 0.18646 0.30109 0.0
O512 O 0.86869 0.1039 0.30319 0.0
O513 O 0.86384 0.15177 0.44266 0.0
O514 O 0.82328 0.18062 0.42125 0.0
C515 C 0.84452 0.17654 0.44503 0.0
C516 C 0.83896 0.20023 0.31016 0.0
O517 O 0.92919 0.14728 0.39377 0.0
O518 O 0.89398 0.06601 0.45222 0.0
O519 O 0.9362 0.15511 0.33929 0.0
O520 O 0.90976 0.12186 0.4996 0.0
O521 O 0.93435 0.03088 0.45316 0.0
O522 O 0.93482 0.12351 0.45181 0.0
O523 O 0.822 0.09504 0.39814 0.0
O524 O 0.81281 0.0822 0.45015 0.0
C525 C 0.83828 0.09678 0.30375 0.0
C526 C 0.91653 0.06297 0.35219 0.0
C527 C 0.6518 0.17342 0.5694 0.0
C528 C 0.7249 0.20825 0.65853 0.0
C529 C 0.68643 0.11495 0.71074 0.0
Mg530 Mg 0.59634 0.11222 0.57541 0.0
Mg531 Mg 0.55133 0.09635 0.64312 0.0
O532 O 0.59242 0.10011 0.62279 0.0
Mg533 Mg 0.62388 0.13329 0.63876 0.0
O534 O 0.65836 0.16505 0.65074 0.0
Mg535 Mg 0.69564 0.13843 0.63189 0.0
Mg536 Mg 0.66108 0.18398 0.69264 0.0
C537 C 0.59544 0.08318 0.70424 0.0
O538 O 0.58733 0.17645 0.65529 0.0
O539 O 0.55917 0.06974 0.56747 0.0
O540 O 0.61336 0.20789 0.69321 0.0
O541 O 0.552 0.14888 0.58423 0.0
O542 O 0.52704 0.06141 0.61191 0.0
O543 O 0.53273 0.14397 0.63612 0.0
O544 O 0.66281 0.09504 0.6233 0.0
O545 O 0.64502 0.07343 0.5769 0.0
C546 C 0.66637 0.07312 0.60094 0.0
C547 C 0.53502 0.05529 0.58205 0.0
O548 O 0.61783 0.10241 0.6915 0.0
O549 O 0.72817 0.18042 0.64437 0.0
O550 O 0.56739 0.07922 0.69051 0.0
O551 O 0.7017 0.11356 0.68299 0.0
O552 O 0.7021 0.21437 0.67936 0.0
O553 O 0.66924 0.13988 0.7191 0.0
O554 O 0.62749 0.16024 0.58545 0.0
O555 O 0.68103 0.1669 0.58029 0.0
C556 C 0.5343 0.15929 0.6086 0.0
C557 C 0.5884 0.20186 0.67474 0.0
C558 C 0.17694 0.43022 0.86236 0.0
C559 C 0.21706 0.31237 0.8212 0.0
C560 C 0.11619 0.28385 0.84431 0.0
Mg561 Mg 0.10329 0.44346 0.8888 0.0
Mg562 Mg 0.08683 0.38298 0.96391 0.0
O563 O 0.09462 0.39592 0.91568 0.0
Mg564 Mg 0.13053 0.37054 0.89524 0.0
O565 O 0.16632 0.34859 0.8721 0.0
Mg566 Mg 0.14976 0.35877 0.82683 0.0
Mg567 Mg 0.17607 0.30455 0.88305 0.0
C568 C 0.08659 0.31268 0.93426 0.0
O569 O 0.16715 0.36254 0.94478 0.0
O570 O 0.06905 0.41071 0.91937 0.0
O571 O 0.19019 0.31328 0.93353 0.0
O572 O 0.12837 0.46067 0.93697 0.0
O573 O 0.03518 0.39935 0.95891 0.0
O574 O 0.1275 0.41731 0.96965 0.0
O575 O 0.09829 0.37347 0.84515 0.0
O576 O 0.07563 0.42211 0.84045 0.0
C577 C 0.07702 0.39213 0.83059 0.0
C578 C 0.03962 0.413 0.9309 0.0
O579 O 0.10028 0.32306 0.9077 0.0
O580 O 0.19609 0.33434 0.81279 0.0
O581 O 0.08795 0.32947 0.96106 0.0
O582 O 0.1226 0.30846 0.82526 0.0
O583 O 0.21499 0.29622 0.84829 0.0
O584 O 0.13273 0.2782 0.87056 0.0
O585 O 0.15506 0.42013 0.88289 0.0
O586 O 0.18025 0.41265 0.83583 0.0
C587 C 0.11855 0.44683 0.96347 0.0
C588 C 0.18695 0.33835 0.95261 0.0
C589 C 0.40775 0.60964 0.29628 0.0
C590 C 0.47649 0.5606 0.38268 0.0
C591 C 0.38869 0.547 0.43772 0.0
Mg592 Mg 0.33118 0.63964 0.30936 0.0
Mg593 Mg 0.33163 0.69198 0.38471 0.0
O594 O 0.33151 0.64827 0.36113 0.0
Mg595 Mg 0.37279 0.62586 0.37046 0.0
O596 O 0.41368 0.60193 0.37671 0.0
Mg597 Mg 0.4 0.55711 0.35835 0.0
Mg598 Mg 0.42691 0.60329 0.42051 0.0
C599 C 0.33859 0.64909 0.4449 0.0
O600 O 0.40655 0.67418 0.38341 0.0
O601 O 0.30214 0.65402 0.35774 0.0
O602 O 0.43706 0.65542 0.42556 0.0
O603 O 0.3455 0.69627 0.30525 0.0
O604 O 0.28001 0.70023 0.37369 0.0
O605 O 0.36636 0.71513 0.35325 0.0
O606 O 0.34498 0.57392 0.36118 0.0
O607 O 0.31204 0.58363 0.31904 0.0
C608 C 0.32055 0.56457 0.34301 0.0
C609 C 0.27685 0.67337 0.35757 0.0
O610 O 0.34981 0.6261 0.42589 0.0
O611 O 0.45485 0.54995 0.36204 0.0
O612 O 0.3382 0.67909 0.43546 0.0
O613 O 0.39508 0.53393 0.40982 0.0
O614 O 0.4695 0.57592 0.40943 0.0
O615 O 0.38603 0.57796 0.4399 0.0
O616 O 0.38985 0.62964 0.31397 0.0
O617 O 0.41058 0.57979 0.30612 0.0
C618 C 0.35987 0.71891 0.32267 0.0
C619 C 0.4295 0.67859 0.4054 0.0
C620 C 0.91113 0.69628 0.93871 0.0
C621 C 0.89631 0.59123 0.99985 0.0
C622 C 0.90799 0.54067 0.90503 0.0
Mg623 Mg 0.91068 0.71042 0.85855 0.0
Mg624 Mg 0.86522 0.65531 0.7977 0.0
O625 O 0.88654 0.66687 0.84032 0.0
Mg626 Mg 0.88439 0.64176 0.88261 0.0
O627 O 0.88561 0.62005 0.92511 0.0
Mg628 Mg 0.93341 0.61787 0.92899 0.0
Mg629 Mg 0.85811 0.58423 0.93661 0.0
C630 C 0.85944 0.58413 0.82294 0.0
O631 O 0.82843 0.65153 0.90135 0.0
O632 O 0.91199 0.67508 0.81745 0.0
O633 O 0.81171 0.60284 0.92161 0.0
O634 O 0.85477 0.72533 0.8475 0.0
O635 O 0.90882 0.65819 0.76731 0.0
O636 O 0.83537 0.69759 0.80218 0.0
O637 O 0.94175 0.63202 0.87144 0.0
O638 O 0.96227 0.68199 0.86068 0.0
C639 C 0.96452 0.65029 0.85797 0.0
C640 C 0.92544 0.67379 0.78895 0.0
O641 O 0.87256 0.59168 0.85123 0.0
O642 O 0.91992 0.60205 0.98174 0.0
O643 O 0.84891 0.606 0.8029 0.0
O644 O 0.92927 0.56347 0.91112 0.0
O645 O 0.86842 0.58243 0.98833 0.0
O646 O 0.87768 0.54367 0.91164 0.0
O647 O 0.89563 0.69086 0.9112 0.0
O648 O 0.93059 0.67366 0.9493 0.0
C649 C 0.83208 0.71854 0.82577 0.0
C650 C 0.80737 0.63375 0.91762 0.0
C651 C 0.55974 0.64579 0.16168 0.0
C652 C 0.61285 0.69265 0.2363 0.0
C653 C 0.69541 0.72072 0.16641 0.0
Mg654 Mg 0.58208 0.60847 0.0932 0.0
Mg655 Mg 0.65396 0.57436 0.07328 0.0
O656 O 0.62988 0.61087 0.08769 0.0
Mg657 Mg 0.63802 0.63444 0.12912 0.0
O658 O 0.64089 0.66084 0.16818 0.0
Mg659 Mg 0.61667 0.70194 0.15498 0.0
Mg660 Mg 0.66998 0.65969 0.20288 0.0
C661 C 0.7086 0.62727 0.08067 0.0
O662 O 0.6553 0.5874 0.16526 0.0
O663 O 0.58268 0.58633 0.04205 0.0
O664 O 0.68527 0.61006 0.20633 0.0
O665 O 0.59137 0.55583 0.11575 0.0
O666 O 0.62879 0.55972 0.02841 0.0
O667 O 0.64456 0.54121 0.11132 0.0
O668 O 0.62456 0.68331 0.09998 0.0
O669 O 0.58455 0.66347 0.06834 0.0
C670 C 0.60596 0.6864 0.07441 0.0
C671 C 0.59975 0.56946 0.02168 0.0
O672 O 0.6923 0.64274 0.10364 0.0
O673 O 0.60902 0.7111 0.21062 0.0
O674 O 0.69944 0.59935 0.06906 0.0
O675 O 0.66763 0.72726 0.15302 0.0
O676 O 0.63587 0.67171 0.23903 0.0
O677 O 0.7004 0.69678 0.18624 0.0
O678 O 0.5816 0.62643 0.14851 0.0
O679 O 0.56582 0.67662 0.16174 0.0
C680 C 0.61577 0.53661 0.12251 0.0
C681 C 0.67275 0.58476 0.1924 0.0
C682 C 0.56652 0.37239 0.34829 0.0
C683 C 0.62358 0.36469 0.28625 0.0
C684 C 0.70028 0.30243 0.33399 0.0
Mg685 Mg 0.58873 0.41016 0.41553 0.0
Mg686 Mg 0.65831 0.44995 0.43093 0.0
O687 O 0.63637 0.40918 0.42335 0.0
Mg688 Mg 0.64544 0.38519 0.38327 0.0
O689 O 0.65104 0.35942 0.34319 0.0
Mg690 Mg 0.62147 0.31633 0.35503 0.0
Mg691 Mg 0.68259 0.37386 0.30871 0.0
C692 C 0.71775 0.40426 0.42812 0.0
O693 O 0.66037 0.4336 0.35147 0.0
O694 O 0.59161 0.43354 0.46698 0.0
O695 O 0.70379 0.42012 0.32153 0.0
O696 O 0.59589 0.46058 0.38764 0.0
O697 O 0.63783 0.46268 0.47686 0.0
O698 O 0.6464 0.48233 0.39312 0.0
O699 O 0.63141 0.33457 0.411 0.0
O700 O 0.59101 0.35464 0.44137 0.0
C701 C 0.61158 0.33082 0.43585 0.0
C702 C 0.61013 0.45125 0.48574 0.0
O703 O 0.7011 0.38253 0.41074 0.0
O704 O 0.63101 0.35684 0.31636 0.0
O705 O 0.70676 0.4333 0.43288 0.0
O706 O 0.67382 0.29533 0.34984 0.0
O707 O 0.64588 0.38023 0.27077 0.0
O708 O 0.70557 0.32836 0.31659 0.0
O709 O 0.58915 0.39173 0.36034 0.0
O710 O 0.56994 0.34142 0.35313 0.0
C711 C 0.61852 0.48124 0.37923 0.0
C712 C 0.6837 0.44175 0.33158 0.0
C713 C 0.92461 0.3297 0.70344 0.0
C714 C 0.78789 0.31594 0.7208 0.0
C715 C 0.78897 0.34536 0.61861 0.0
Mg716 Mg 0.95366 0.35557 0.63299 0.0
Mg717 Mg 0.91773 0.42603 0.60691 0.0
O718 O 0.91484 0.38025 0.61159 0.0
Mg719 Mg 0.88091 0.36899 0.64446 0.0
O720 O 0.849 0.35515 0.67868 0.0
Mg721 Mg 0.85037 0.30846 0.66606 0.0
Mg722 Mg 0.80793 0.37674 0.68176 0.0
C723 C 0.84542 0.41128 0.58181 0.0
O724 O 0.87686 0.42077 0.67535 0.0
O725 O 0.97657 0.36984 0.58451 0.0
O726 O 0.8268 0.42255 0.69899 0.0
O727 O 0.9765 0.40171 0.6561 0.0
O728 O 0.95723 0.42095 0.57328 0.0
O729 O 0.93372 0.43356 0.65655 0.0
O730 O 0.87994 0.317 0.61759 0.0
O731 O 0.93172 0.30758 0.6063 0.0
C732 C 0.90151 0.29931 0.60249 0.0
C733 C 0.97367 0.39518 0.56558 0.0
O734 O 0.84355 0.38741 0.60286 0.0
O735 O 0.81252 0.30132 0.70743 0.0
O736 O 0.86958 0.43176 0.58267 0.0
O737 O 0.80678 0.32097 0.62912 0.0
O738 O 0.78099 0.34613 0.71528 0.0
O739 O 0.78727 0.37254 0.63428 0.0
O740 O 0.92298 0.3509 0.68006 0.0
O741 O 0.90022 0.30876 0.70518 0.0
C742 C 0.96458 0.43058 0.65772 0.0
C743 C 0.85556 0.43455 0.69476 0.0
H744 H 0.24393 0.27944 0.30034 0.0
H745 H 0.16175 0.21279 0.3066 0.0
H746 H 0.1896 0.18249 0.35158 0.0
H747 H 0.23506 0.18163 0.39401 0.0
H748 H 0.29905 0.26508 0.40139 0.0
H749 H 0.27552 0.28893 0.35105 0.0
C750 C 0.23249 0.25765 0.31105 0.0
C751 C 0.20027 0.24947 0.30171 0.0
C752 C 0.24334 0.24692 0.34182 0.0
C753 C 0.1862 0.2203 0.3142 0.0
C754 C 0.20117 0.20418 0.34102 0.0
C755 C 0.24295 0.20565 0.38509 0.0
C756 C 0.27356 0.21861 0.39505 0.0
C757 C 0.22874 0.21869 0.35627 0.0
C758 C 0.27863 0.25245 0.38954 0.0
C759 C 0.26643 0.26538 0.35999 0.0
H760 H 0.96821 0.99539 0.63959 0.0
H761 H 0.01504 0.94306 0.55927 0.0
H762 H 0.06872 0.95361 0.58447 0.0
H763 H 0.10151 0.98458 0.62447 0.0
H764 H 0.05445 0.04274 0.69891 0.0
H765 H 1.00119 0.0184 0.68449 0.0
C766 C 0.99002 0.98647 0.62718 0.0
C767 C 0.98766 0.96946 0.59684 0.0
C768 C 0.0204 0.99186 0.64206 0.0
C769 C 0.01629 0.95715 0.58204 0.0
C770 C 0.04686 0.96247 0.5968 0.0
C771 C 0.07965 0.99072 0.63848 0.0
C772 C 0.08028 0.0182 0.65953 0.0
C773 C 0.04915 0.98038 0.62641 0.0
C774 C 0.05338 0.02355 0.68032 0.0
C775 C 0.0229 0.0106 0.67123 0.0
H776 H 0.24901 0.81107 0.79175 0.0
H777 H 0.19678 0.79052 0.88253 0.0
H778 H 0.248 0.77725 0.91023 0.0
H779 H 0.30547 0.76358 0.90641 0.0
H780 H 0.35583 0.77296 0.81334 0.0
H781 H 0.3087 0.80221 0.78973 0.0
C782 C 0.24886 0.8034 0.81749 0.0
C783 C 0.21907 0.80072 0.8347 0.0
C784 C 0.27835 0.7953 0.83321 0.0
C785 C 0.21924 0.79155 0.86831 0.0
C786 C 0.24857 0.78467 0.88443 0.0
C787 C 0.30641 0.77316 0.88129 0.0
C788 C 0.33296 0.76511 0.86104 0.0
C789 C 0.27803 0.78564 0.86686 0.0
C790 C 0.33509 0.77848 0.82909 0.0
C791 C 0.30783 0.79427 0.81535 0.0
H792 H 0.41015 0.01899 0.11723 0.0
H793 H 0.46783 0.96648 0.19005 0.0
H794 H 0.50711 0.01204 0.19164 0.0
H795 H 0.53439 0.05157 0.15651 0.0
H796 H 0.48552 0.091 0.06998 0.0
H797 H 0.43379 0.06579 0.08831 0.0
C798 C 0.43102 0.01775 0.13399 0.0
C799 C 0.43796 0.98843 0.15139 0.0
C800 C 0.45587 0.04104 0.13061 0.0
C801 C 0.46317 0.98818 0.17509 0.0
C802 C 0.48578 0.014 0.17558 0.0
C803 C 0.51246 0.05463 0.14142 0.0
C804 C 0.51396 0.07067 0.11054 0.0
C805 C 0.48421 0.03805 0.15059 0.0
C806 C 0.48503 0.07702 0.09285 0.0
C807 C 0.45561 0.06288 0.1035 0.0
H808 H 0.19335 0.75056 0.10366 0.0
H809 H 0.14817 0.7843 0.19389 0.0
H810 H 0.15701 0.84155 0.17712 0.0
H811 H 0.2004 0.87492 0.15363 0.0
H812 H 0.26404 0.83259 0.08053 0.0
H813 H 0.2245 0.78848 0.07022 0.0
C814 C 0.18486 0.77052 0.11935 0.0
C815 C 0.17298 0.76385 0.15118 0.0
C816 C 0.19365 0.80266 0.11149 0.0
C817 C 0.15961 0.78934 0.17025 0.0
C818 C 0.16441 0.82197 0.16047 0.0
C819 C 0.2045 0.8568 0.13426 0.0
C820 C 0.23543 0.85492 0.11952 0.0
C821 C 0.18517 0.82844 0.1336 0.0
C822 C 0.24067 0.83307 0.09324 0.0
C823 C 0.21827 0.80765 0.08783 0.0
H824 H 0.5396 0.96831 0.40525 0.0
H825 H 0.46168 0.90986 0.44682 0.0
H826 H 0.42133 0.94434 0.41707 0.0
H827 H 0.41124 0.99639 0.38789 0.0
H828 H 0.49247 0.05195 0.34773 0.0
H829 H 0.52962 1.00753 0.36195 0.0
C830 C 0.51418 0.96139 0.40631 0.0
C831 C 0.50368 0.93661 0.42778 0.0
C832 C 0.49222 0.97912 0.38756 0.0
C833 C 0.47013 0.92963 0.43089 0.0
C834 C 0.44733 0.94861 0.41327 0.0
C835 C 0.43686 0.99815 0.38084 0.0
C836 C 0.45018 0.02852 0.37024 0.0
C837 C 0.45835 0.97416 0.39242 0.0
C838 C 0.4823 0.02952 0.3581 0.0
C839 C 0.50366 1.00454 0.36707 0.0
H840 H 0.26896 0.29073 0.72036 0.0
H841 H 0.33901 0.2274 0.6733 0.0
H842 H 0.29492 0.19972 0.64268 0.0
H843 H 0.24083 0.20651 0.61754 0.0
H844 H 0.17349 0.27884 0.65662 0.0
H845 H 0.2129 0.29296 0.70004 0.0
C846 C 0.27402 0.26954 0.70478 0.0
C847 C 0.3066 0.26189 0.69745 0.0
C848 C 0.24955 0.25792 0.68364 0.0
C849 C 0.31376 0.234 0.67839 0.0
C850 C 0.28877 0.21915 0.66002 0.0
C851 C 0.23477 0.22527 0.63565 0.0
C852 C 0.20462 0.24181 0.63378 0.0
C853 C 0.25736 0.23325 0.66022 0.0
C854 C 0.19692 0.26626 0.65716 0.0
C855 C 0.21906 0.2738 0.6824 0.0
H856 H 0.12134 0.05433 0.89562 0.0
H857 H 0.0764 0.0126 0.80888 0.0
H858 H 0.02316 0.02989 0.82696 0.0
H859 H 0.98998 0.03753 0.87455 0.0
H860 H 0.0314 0.07341 0.96671 0.0
H861 H 0.08631 0.07346 0.94137 0.0
C862 C 0.09983 0.05054 0.88007 0.0
C863 C 0.10144 0.02795 0.8538 0.0
C864 C 0.06884 0.05605 0.89359 0.0
C865 C 0.07527 0.02709 0.83116 0.0
C866 C 0.04438 0.0359 0.84213 0.0
C867 C 0.01075 0.04522 0.88966 0.0
C868 C 0.00696 0.05396 0.92306 0.0
C869 C 0.04101 0.04669 0.87482 0.0
C870 C 0.03419 0.06516 0.94137 0.0
C871 C 0.0652 0.06608 0.92667 0.0
H872 H 0.33908 0.32154 0.24877 0.0
H873 H 0.42909 0.28399 0.20759 0.0
H874 H 0.40636 0.22791 0.20742 0.0
H875 H 0.36273 0.19021 0.22483 0.0
H876 H 0.2735 0.22798 0.26504 0.0
H877 H 0.29138 0.28475 0.25425 0.0
C878 C 0.35375 0.301 0.24009 0.0
C879 C 0.38585 0.3062 0.22917 0.0
C880 C 0.33975 0.2698 0.2376 0.0
C881 C 0.40464 0.2798 0.21727 0.0
C882 C 0.39136 0.24817 0.21612 0.0
C883 C 0.34661 0.21102 0.22938 0.0
C884 C 0.31934 0.20656 0.2497 0.0
C885 C 0.35899 0.24297 0.22638 0.0
C886 C 0.29643 0.23209 0.25222 0.0
C887 C 0.30717 0.26439 0.24734 0.0
H888 H 0.02849 0.01331 0.54455 0.0
H889 H 0.09257 0.05407 0.47147 0.0
H890 H 0.04609 0.08022 0.44359 0.0
H891 H 0.99369 0.10748 0.45378 0.0
H892 H 0.93233 0.07542 0.53485 0.0
H893 H 0.97207 0.0324 0.54872 0.0
C894 C 0.03166 0.02625 0.52128 0.0
C895 C 0.06346 0.03561 0.51203 0.0
C896 C 0.0058 0.04553 0.50942 0.0
C897 C 0.06801 0.04921 0.48051 0.0
C898 C 0.04166 0.06526 0.46539 0.0
C899 C 0.98881 0.0909 0.47433 0.0
C900 C 0.96055 0.095 0.4937 0.0
C901 C 0.01151 0.06654 0.48206 0.0
C902 C 0.95443 0.07334 0.52019 0.0
C903 C 0.97669 0.04827 0.52762 0.0
H904 H 0.04019 0.80688 0.75883 0.0
H905 H 0.09169 0.87645 0.69854 0.0
H906 H 0.10225 0.83422 0.65722 0.0
H907 H 0.12352 0.77764 0.65926 0.0
H908 H 0.08003 0.7069 0.72591 0.0
H909 H 0.04122 0.74818 0.74503 0.0
C910 C 0.05217 0.81288 0.73561 0.0
C911 C 0.07105 0.84173 0.73372 0.0
C912 C 0.0618 0.78724 0.7148 0.0
C913 C 0.08108 0.85214 0.70214 0.0
C914 C 0.08783 0.8278 0.6788 0.0
C915 C 0.1048 0.77086 0.67708 0.0
C916 C 0.106 0.7402 0.69308 0.0
C917 C 0.08303 0.79476 0.68806 0.0
C918 C 0.08085 0.7312 0.71503 0.0
C919 C 0.05818 0.75457 0.7254 0.0
H920 H 0.57866 0.88212 0.97264 0.0
H921 H 0.6135 0.94262 0.05341 0.0
H922 H 0.56149 0.93395 0.08278 0.0
H923 H 0.50455 0.91705 0.08012 0.0
H924 H 0.46707 0.86187 0.99669 0.0
H925 H 0.52226 0.86183 0.97184 0.0
C926 C 0.57482 0.89264 0.99708 0.0
C927 C 0.59864 0.9131 0.01136 0.0
C928 C 0.54461 0.88956 0.01208 0.0
C929 C 0.59471 0.92689 0.04265 0.0
C930 C 0.56517 0.92225 0.05895 0.0
C931 C 0.50873 0.90491 0.0565 0.0
C932 C 0.48282 0.8898 0.03958 0.0
C933 C 0.53964 0.90511 0.04298 0.0
C934 C 0.48734 0.874 0.00928 0.0
C935 C 0.51859 0.87363 0.99557 0.0
H936 H 0.34256 0.86741 0.28703 0.0
H937 H 0.24181 0.83556 0.2896 0.0
H938 H 0.2579 0.78522 0.31873 0.0
H939 H 0.30144 0.74405 0.32511 0.0
H940 H 0.40224 0.76994 0.30843 0.0
H941 H 0.38643 0.82816 0.3003 0.0
C942 C 0.32408 0.85006 0.29568 0.0
C943 C 0.29146 0.85367 0.28464 0.0
C944 C 0.33422 0.81892 0.30642 0.0
C945 C 0.26725 0.83246 0.29692 0.0
C946 C 0.27664 0.80316 0.31235 0.0
C947 C 0.31954 0.7624 0.31867 0.0
C948 C 0.35222 0.75292 0.31455 0.0
C949 C 0.31008 0.79492 0.31369 0.0
C950 C 0.37658 0.77685 0.30951 0.0
C951 C 0.3676 0.80997 0.30561 0.0
H952 H 0.47211 0.1549 0.62946 0.0
H953 H 0.53435 0.21729 0.57067 0.0
H954 H 0.4964 0.21333 0.5248 0.0
H955 H 0.46872 0.16983 0.49539 0.0
H956 H 0.42781 0.08674 0.54848 0.0
H957 H 0.43634 0.11608 0.60092 0.0
C958 C 0.47667 0.1684 0.60669 0.0
C959 C 0.50769 0.18267 0.6017 0.0
C960 C 0.46042 0.15816 0.57806 0.0
C961 C 0.51163 0.20396 0.57452 0.0
C962 C 0.49054 0.20049 0.54761 0.0
C963 C 0.46174 0.15785 0.51837 0.0
C964 C 0.4502 0.12515 0.51863 0.0
C965 C 0.46868 0.17369 0.54783 0.0
C966 C 0.43877 0.11115 0.54821 0.0
C967 C 0.44299 0.12819 0.57796 0.0
H968 H 0.10746 0.23493 0.71678 0.0
H969 H 0.18712 0.17964 0.76059 0.0
H970 H 0.16244 0.1855 0.8152 0.0
H971 H 0.12787 0.21898 0.85018 0.0
H972 H 0.05938 0.28664 0.80635 0.0
H973 H 0.06577 0.25986 0.75261 0.0
C974 C 0.11922 0.22394 0.73829 0.0
C975 C 0.14975 0.20832 0.73524 0.0
C976 C 0.10568 0.22861 0.76954 0.0
C977 C 0.16434 0.19318 0.76286 0.0
C978 C 0.14993 0.19595 0.79389 0.0
C979 C 0.11329 0.22684 0.82903 0.0
C980 C 0.09639 0.25683 0.83055 0.0
C981 C 0.12181 0.21538 0.7977 0.0
C982 C 0.07466 0.26484 0.80469 0.0
C983 C 0.07921 0.2503 0.77375 0.0
H984 H 0.98503 0.95585 0.0401 0.0
H985 H 0.02894 0.86206 0.06407 0.0
H986 H 0.08288 0.88293 0.04668 0.0
H987 H 0.11531 0.92639 0.02017 0.0
H988 H 0.06964 0.01787 0.99228 0.0
H989 H 0.01909 1.00138 0.02016 0.0
C990 C 0.0063 0.93971 0.04044 0.0
C991 C 1.0032 0.90702 0.05132 0.0
C992 C 0.03694 0.95236 0.03217 0.0
C993 C 0.03094 0.88677 0.05394 0.0
C994 C 0.06169 0.899 0.04504 0.0
C995 C 0.09476 0.94334 0.02194 0.0
C996 C 0.09499 0.97227 1.00296 0.0
C997 C 0.06486 0.93174 0.03407 0.0
C998 C 0.06932 0.99497 1.00618 0.0
C999 C 0.04006 0.98495 0.02085 0.0
H1000 H 0.24907 0.34709 0.17099 0.0
H1001 H 0.30658 0.39875 0.2445 0.0
H1002 H 0.25793 0.42941 0.26216 0.0
H1003 H 0.19859 0.42877 0.26572 0.0
H1004 H 0.14141 0.36926 0.19885 0.0
H1005 H 0.18999 0.3583 0.16571 0.0
C1006 C 0.25065 0.36486 0.19107 0.0
C1007 C 0.28008 0.36929 0.2084 0.0
C1008 C 0.22298 0.38221 0.20066 0.0
C1009 C 0.28316 0.39392 0.23256 0.0
C1010 C 0.25576 0.41189 0.24196 0.0
C1011 C 0.19666 0.41473 0.24291 0.0
C1012 C 0.16834 0.39599 0.2368 0.0
C1013 C 0.22528 0.40473 0.22742 0.0
C1014 C 0.16426 0.38135 0.20556 0.0
C1015 C 0.19219 0.37422 0.18719 0.0
H1016 H 0.73541 0.13907 0.83386 0.0
H1017 H 0.8193 0.13027 0.76979 0.0
H1018 H 0.79098 0.09067 0.73553 0.0
H1019 H 0.73853 0.07419 0.71448 0.0
H1020 H 0.65179 0.10019 0.76768 0.0
H1021 H 0.68358 0.11156 0.81711 0.0
C1022 C 0.74719 0.12843 0.81231 0.0
C1023 C 0.77895 0.13806 0.80373 0.0
C1024 C 0.72998 0.10696 0.79149 0.0
C1025 C 0.79474 0.12337 0.77669 0.0
C1026 C 0.77866 0.10038 0.75718 0.0
C1027 C 0.72661 0.08075 0.73753 0.0
C1028 C 0.69394 0.09069 0.73677 0.0
C1029 C 0.74566 0.09375 0.76307 0.0
C1030 C 0.67766 0.09468 0.76718 0.0
C1031 C 0.69609 0.10283 0.79516 0.0
H1032 H 0.0906 0.4267 0.01958 0.0
H1033 H 0.0746 0.4894 0.93458 0.0
H1034 H 0.03366 0.52044 0.96456 0.0
H1035 H 0.02784 0.54487 0.01865 0.0
H1036 H 0.06083 0.49246 0.10503 0.0
H1037 H 0.06744 0.44214 0.0726 0.0
C1038 C 0.07709 0.44635 1.00736 0.0
C1039 C 0.08648 0.45689 0.97578 0.0
C1040 C 0.05667 0.46651 0.02597 0.0
C1041 C 0.06852 0.4817 0.95949 0.0
C1042 C 0.04503 0.49942 0.97662 0.0
C1043 C 0.03456 0.52168 0.03038 0.0
C1044 C 0.04588 0.52198 0.06298 0.0
C1045 C 0.04251 0.49473 0.0108 0.0
C1046 C 0.05324 0.49241 0.07928 0.0
C1047 C 0.05747 0.46389 0.06059 0.0
H1048 H 0.80066 0.9276 0.2291 0.0
H1049 H 0.86021 0.88048 0.30303 0.0
H1050 H 0.81105 0.85898 0.33021 0.0
H1051 H 0.75387 0.8406 0.32259 0.0
H1052 H 0.69812 0.87611 0.23848 0.0
H1053 H 0.74395 0.91121 0.22216 0.0
C1054 C 0.80255 0.91359 0.25195 0.0
C1055 C 0.83335 0.902 0.26196 0.0
C1056 C 0.77522 0.89613 0.26296 0.0
C1057 C 0.83633 0.88731 0.29331 0.0
C1058 C 0.80838 0.87381 0.30801 0.0
C1059 C 0.75201 0.85527 0.30017 0.0
C1060 C 0.72281 0.85555 0.28154 0.0
C1061 C 0.77832 0.87528 0.29092 0.0
C1062 C 0.72063 0.87517 0.25287 0.0
C1063 C 0.74636 0.89591 0.24408 0.0
H1064 H 0.86758 0.09872 0.02458 0.0
H1065 H 0.83403 0.01574 0.96655 0.0
H1066 H 0.84298 0.97919 0.01381 0.0
H1067 H 0.87957 0.96915 0.06029 0.0
H1068 H 0.92799 0.05 0.11008 0.0
H1069 H 0.89742 0.08933 0.07569 0.0
C1070 C 0.86148 0.07268 0.02249 0.0
C1071 C 0.85332 0.05909 0.99147 0.0
C1072 C 0.87213 0.0514 0.04731 0.0
C1073 C 0.84234 0.02627 0.9898 0.0
C1074 C 0.84826 1.00531 0.0165 0.0
C1075 C 0.88299 0.99525 0.06419 0.0
C1076 C 0.90647 1.0068 0.08691 0.0
C1077 C 0.86657 0.01717 0.04357 0.0
C1078 C 0.91072 0.04078 0.09177 0.0
C1079 C 0.89289 0.06311 0.07259 0.0
H1080 H 0.37485 0.67479 0.76704 0.0
H1081 H 0.3362 0.58055 0.79752 0.0
H1082 H 0.29415 0.5834 0.75428 0.0
H1083 H 0.2586 0.62111 0.7247 0.0
H1084 H 0.28975 0.72127 0.7053 0.0
H1085 H 0.3442 0.70881 0.72819 0.0
C1086 C 0.35819 0.65418 0.76285 0.0
C1087 C 0.35706 0.62824 0.78571 0.0
C1088 C 0.3316 0.65842 0.74162 0.0
C1089 C 0.33645 0.60108 0.7803 0.0
C1090 C 0.31212 0.60314 0.75618 0.0
C1091 C 0.27732 0.64026 0.72554 0.0
C1092 C 0.27005 0.67259 0.71559 0.0
C1093 C 0.30754 0.63322 0.73961 0.0
C1094 C 0.2948 0.69664 0.71447 0.0
C1095 C 0.32584 0.68938 0.7271 0.0
H1096 H 0.13316 0.6069 0.48684 0.0
H1097 H 0.19198 0.54247 0.54745 0.0
H1098 H 0.18141 0.49691 0.50942 0.0
H1099 H 0.13904 0.4728 0.47533 0.0
H1100 H 0.0686 0.53452 0.42404 0.0
H1101 H 0.09715 0.58376 0.44469 0.0
C1102 C 0.14457 0.58306 0.49105 0.0
C1103 C 0.16009 0.57645 0.52145 0.0
C1104 C 0.13342 0.55615 0.47276 0.0
C1105 C 0.17791 0.54714 0.52512 0.0
C1106 C 0.17095 0.52092 0.50401 0.0
C1107 C 0.12955 0.49689 0.46853 0.0
C1108 C 0.10059 0.50008 0.44962 0.0
C1109 C 0.14561 0.52451 0.48063 0.0
C1110 C 0.08991 0.53156 0.4399 0.0
C1111 C 0.10661 0.55957 0.45107 0.0
H1112 H 0.36452 0.40642 0.98762 0.0
H1113 H 0.32706 0.47126 0.06271 0.0
H1114 H 0.28299 0.48906 0.02632 0.0
H1115 H 0.27571 0.50452 0.96977 0.0
H1116 H 0.33109 0.45771 0.89427 0.0
H1117 H 0.34269 0.41104 0.93068 0.0
C1118 C 0.34609 0.42373 0.99608 0.0
C1119 C 0.34994 0.43958 0.0267 0.0
C1120 C 0.32276 0.4358 0.97388 0.0
C1121 C 0.32573 0.4612 0.03811 0.0
C1122 C 0.29998 0.47041 0.01767 0.0
C1123 C 0.28884 0.48299 0.96102 0.0
C1124 C 0.30877 0.48657 0.93324 0.0
C1125 C 0.3008 0.46091 0.98449 0.0
C1126 C 0.32004 0.45727 0.91862 0.0
C1127 C 0.32742 0.43093 0.93976 0.0
H1128 H 0.68664 0.72017 0.87388 0.0
H1129 H 0.66969 0.7274 0.76917 0.0
H1130 H 0.72828 0.71994 0.75878 0.0
H1131 H 0.7844 0.72582 0.78024 0.0
H1132 H 0.80209 0.72531 0.88575 0.0
H1133 H 0.74294 0.72064 0.89564 0.0
C1134 C 0.69577 0.71834 0.84872 0.0
C1135 C 0.67488 0.72735 0.82239 0.0
C1136 C 0.72977 0.71927 0.84357 0.0
C1137 C 0.68588 0.72246 0.78995 0.0
C1138 C 0.71955 0.71974 0.78409 0.0
C1139 C 0.77528 0.72527 0.80546 0.0
C1140 C 0.79753 0.72674 0.83224 0.0
C1141 C 0.74169 0.72113 0.81085 0.0
C1142 C 0.78543 0.72549 0.86475 0.0
C1143 C 0.75176 0.72167 0.87038 0.0
H1144 H 0.50729 0.45042 0.13458 0.0
H1145 H 0.53906 0.4393 0.03357 0.0
H1146 H 0.59611 0.44961 0.05085 0.0
H1147 H 0.62865 0.48296 0.08862 0.0
H1148 H 0.58471 0.51663 0.17929 0.0
H1149 H 0.54355 0.47321 0.17558 0.0
C1150 C 0.5268 0.45037 0.11631 0.0
C1151 C 0.5194 0.44788 0.0825 0.0
C1152 C 0.55815 0.45904 0.12601 0.0
C1153 C 0.54457 0.44415 0.05938 0.0
C1154 C 0.57697 0.44941 0.06941 0.0
C1155 C 0.6108 0.47951 0.10825 0.0
C1156 C 0.60825 0.50333 0.13321 0.0
C1157 C 0.58325 0.46024 0.10191 0.0
C1158 C 0.58638 0.4987 0.15945 0.0
C1159 C 0.56242 0.47444 0.15679 0.0
H1160 H 0.71543 0.25843 0.28894 0.0
H1161 H 0.74725 0.30407 0.38002 0.0
H1162 H 0.80422 0.28922 0.36839 0.0
H1163 H 0.84335 0.26072 0.33379 0.0
H1164 H 0.80981 0.20539 0.24958 0.0
H1165 H 0.75569 0.23117 0.2531 0.0
C1166 C 0.73484 0.26376 0.30672 0.0
C1167 C 0.72781 0.28094 0.33571 0.0
C1168 C 0.76713 0.25614 0.29933 0.0
C1169 C 0.75264 0.28932 0.35831 0.0
C1170 C 0.78507 0.28208 0.35104 0.0
C1171 C 0.82442 0.2558 0.31535 0.0
C1172 C 0.82868 0.22976 0.29334 0.0
C1173 C 0.7925 0.26583 0.32147 0.0
C1174 C 0.80584 0.22457 0.26783 0.0
C1175 C 0.77463 0.23804 0.27079 0.0
H1176 H 0.04719 0.50861 0.55496 0.0
H1177 H 0.97777 0.58396 0.58027 0.0
H1178 H 0.94404 0.54336 0.60963 0.0
H1179 H 0.94456 0.49192 0.64146 0.0
H1180 H 0.02467 0.42305 0.62834 0.0
H1181 H 0.04671 0.45693 0.58429 0.0
C1182 C 0.02375 0.51548 0.5657 0.0
C1183 C 0.01565 0.54883 0.56779 0.0
C1184 C 0.00856 0.49395 0.58753 0.0
C1185 C 0.98482 0.55818 0.57971 0.0
C1186 C 0.96637 0.53533 0.59758 0.0
C1187 C 0.96695 0.48442 0.62912 0.0
C1188 C 0.98257 0.4548 0.63788 0.0
C1189 C 0.97992 0.50422 0.60429 0.0
C1190 C 0.01201 0.44573 0.62214 0.0
C1191 C 0.02429 0.46464 0.5964 0.0
H1192 H 0.79229 0.30585 0.56181 0.0
H1193 H 0.72539 0.37112 0.60737 0.0
H1194 H 0.69242 0.32465 0.62768 0.0
H1195 H 0.69882 0.26891 0.65201 0.0
H1196 H 0.7788 0.20697 0.61939 0.0
H1197 H 0.79409 0.24798 0.57807 0.0
C1198 C 0.76994 0.30935 0.57567 0.0
C1199 C 0.76511 0.3396 0.5914 0.0
C1200 C 0.75607 0.28244 0.5921 0.0
C1201 C 0.73269 0.34623 0.60096 0.0
C1202 C 0.71443 0.31977 0.61355 0.0
C1203 C 0.7199 0.26454 0.63628 0.0
C1204 C 0.73859 0.23566 0.63968 0.0
C1205 C 0.72884 0.28824 0.61313 0.0
C1206 C 0.76495 0.22975 0.61804 0.0
C1207 C 0.77306 0.25259 0.59373 0.0
H1208 H 0.95997 0.52666 0.86747 0.0
H1209 H 0.88306 0.48156 0.92498 0.0
H1210 H 0.9172 0.4331 0.9347 0.0
H1211 H 0.97377 0.4119 0.93951 0.0
H1212 H 0.05074 0.46048 0.88482 0.0
H1213 H 0.01221 0.49901 0.86158 0.0
C1214 C 0.95035 0.50557 0.88099 0.0
C1215 C 0.9201 0.50792 0.89678 0.0
C1216 C 0.97064 0.47893 0.88807 0.0
C1217 C 0.90689 0.48034 0.91323 0.0
C1218 C 0.92657 0.4529 0.91929 0.0
C1219 C 0.98187 0.43074 0.92224 0.0
C1220 C 0.01522 0.43401 0.91475 0.0
C1221 C 0.95939 0.45334 0.90915 0.0
C1222 C 0.02539 0.4576 0.89142 0.0
C1223 C 1.00327 0.47978 0.87796 0.0
H1224 H 0.84156 0.73127 0.16305 0.0
H1225 H 0.82246 0.76925 0.26018 0.0
H1226 H 0.7634 0.76642 0.25 0.0
H1227 H 0.71869 0.76232 0.20993 0.0
H1228 H 0.73638 0.7201 0.11388 0.0
H1229 H 0.79574 0.72091 0.12445 0.0
C1230 C 0.82421 0.73719 0.18248 0.0
C1231 C 0.83536 0.75408 0.21065 0.0
C1232 C 0.79078 0.73871 0.17483 0.0
C1233 C 0.81377 0.75848 0.23716 0.0
C1234 C 0.78014 0.75849 0.2308 0.0
C1235 C 0.73581 0.75478 0.19082 0.0
C1236 C 0.72375 0.74134 0.16131 0.0
C1237 C 0.7688 0.7511 0.19882 0.0
C1238 C 0.74556 0.73116 0.13657 0.0
C1239 C 0.77918 0.73009 0.14324 0.0
H1240 H 0.62415 0.54645 0.38476 0.0
H1241 H 0.59719 0.47078 0.31569 0.0
H1242 H 0.54675 0.50008 0.3015 0.0
H1243 H 0.5027 0.52881 0.3303 0.0
H1244 H 0.52681 0.59546 0.41047 0.0
H1245 H 0.5849 0.58849 0.3998 0.0
C1246 C 0.608 0.5377 0.36513 0.0
C1247 C 0.61137 0.50548 0.35372 0.0
C1248 C 0.5773 0.55215 0.36117 0.0
C1249 C 0.59279 0.49482 0.32647 0.0
C1250 C 0.56378 0.51122 0.31892 0.0
C1251 C 0.52068 0.5422 0.34505 0.0
C1252 C 0.51088 0.56027 0.37282 0.0
C1253 C 0.55396 0.53691 0.33981 0.0
C1254 C 0.53408 0.57928 0.39046 0.0
C1255 C 0.56729 0.57593 0.38396 0.0
H1256 H 0.91738 0.80432 0.74742 0.0
H1257 H 0.90172 0.74443 0.66036 0.0
H1258 H 0.94024 0.70394 0.68048 0.0
H1259 H 0.95685 0.67636 0.73046 0.0
H1260 H 0.95234 0.72827 0.82286 0.0
H1261 H 0.94778 0.78048 0.79425 0.0
C1262 C 0.92319 0.7829 0.73249 0.0
C1263 C 0.90638 0.77726 0.70263 0.0
C1264 C 0.94238 0.75765 0.746 0.0
C1265 C 0.91439 0.74953 0.68336 0.0
C1266 C 0.9364 0.72612 0.69497 0.0
C1267 C 0.95619 0.69941 0.74418 0.0
C1268 C 0.95008 0.69839 0.7782 0.0
C1269 C 0.94765 0.72836 0.72756 0.0
C1270 C 0.95336 0.72795 0.79626 0.0
C1271 C 0.95018 0.75806 0.7798 0.0
H1272 H 0.56442 0.60397 0.97836 0.0
H1273 H 0.59168 0.50476 1.00393 0.0
H1274 H 0.5348 0.48642 0.99613 0.0
H1275 H 0.47604 0.50223 0.99834 0.0
H1276 H 0.45016 0.60505 0.98683 0.0
H1277 H 0.5071 0.61916 0.97628 0.0
C1278 C 0.55798 0.578 0.98061 0.0
C1279 C 0.58134 0.55614 0.99354 0.0
C1280 C 0.52488 0.56911 0.98204 0.0
C1281 C 0.57368 0.52233 0.99497 0.0
C1282 C 0.54093 0.51212 0.99197 0.0
C1283 C 0.48308 0.52774 0.99404 0.0
C1284 C 0.45911 0.55265 0.99456 0.0
C1285 C 0.51612 0.53592 0.98866 0.0
C1286 C 0.46829 0.58555 0.98801 0.0
C1287 C 0.50075 0.59358 0.98111 0.0
H1288 H 0.61697 0.27197 0.18115 0.0
H1289 H 0.61107 0.20918 0.26748 0.0
H1290 H 0.58442 0.25291 0.29812 0.0
H1291 H 0.58799 0.3116 0.30564 0.0
H1292 H 0.60271 0.37637 0.22262 0.0
H1293 H 0.59851 0.32956 0.1849 0.0
C1294 C 0.60908 0.26763 0.2064 0.0
C1295 C 0.61821 0.23856 0.22296 0.0
C1296 C 0.5954 0.29347 0.22446 0.0
C1297 C 0.60602 0.23223 0.25485 0.0
C1298 C 0.59051 0.25714 0.27235 0.0
C1299 C 0.58812 0.31603 0.27937 0.0
C1300 C 0.59868 0.34651 0.26702 0.0
C1301 C 0.58875 0.28875 0.25849 0.0
C1302 C 0.59677 0.35229 0.23272 0.0
C1303 C 0.59487 0.32545 0.21117 0.0
H1304 H 0.97017 0.38692 0.41236 0.0
H1305 H 0.03354 0.30553 0.43233 0.0
H1306 H 0.01765 0.30577 0.49084 0.0
H1307 H 1.00275 0.34257 0.53682 0.0
H1308 H 0.95285 0.43452 0.51516 0.0
H1309 H 0.94979 0.42003 0.45715 0.0
C1310 C 0.9795 0.36854 0.42957 0.0
C1311 C 0.00698 0.35018 0.42086 0.0
C1312 C 0.97512 0.37349 0.4633 0.0
C1313 C 0.0153 0.32295 0.44064 0.0
C1314 C 0.00707 0.3238 0.47409 0.0
C1315 C 0.99143 0.35957 0.51944 0.0
C1316 C 0.9787 0.38982 0.53028 0.0
C1317 C 0.99031 0.35155 0.48601 0.0
C1318 C 0.9637 0.4114 0.50741 0.0
C1319 C 0.96106 0.40282 0.47433 0.0
H1320 H 0.76258 0.25483 0.71443 0.0
H1321 H 0.7716 0.33406 0.78418 0.0
H1322 H 0.79528 0.29663 0.82505 0.0
H1323 H 0.83532 0.25201 0.82844 0.0
H1324 H 0.8411 0.18055 0.74925 0.0
H1325 H 0.79215 0.20382 0.72366 0.0
C1326 C 0.76815 0.26315 0.73942 0.0
C1327 C 0.7694 0.2972 0.74553 0.0
C1328 C 0.78723 0.24299 0.75984 0.0
C1329 C 0.77307 0.308 0.77828 0.0
C1330 C 0.78768 0.2868 0.80124 0.0
C1331 C 0.82528 0.24085 0.80615 0.0
C1332 C 0.84189 0.21476 0.79065 0.0
C1333 C 0.79873 0.25583 0.79038 0.0
C1334 C 0.82879 0.2007 0.76162 0.0
C1335 C 0.8007 0.21391 0.74705 0.0
H1336 H 0.8922 0.64377 0.04087 0.0
H1337 H 0.91618 0.54067 0.03957 0.0
H1338 H 0.97181 0.55301 0.0584 0.0
H1339 H 0.0157 0.59381 0.0563 0.0
H1340 H 0.99425 0.6975 0.06228 0.0
H1341 H 0.93509 0.68513 0.05563 0.0
C1342 C 0.90919 0.62398 0.04673 0.0
C1343 C 0.90225 0.59187 0.03532 0.0
C1344 C 0.94184 0.63195 0.0544 0.0
C1345 C 0.92236 0.56595 0.04592 0.0
C1346 C 0.95453 0.5731 0.0553 0.0
C1347 C 0.99818 0.61365 0.05672 0.0
C1348 C 0.00908 0.64639 0.05824 0.0
C1349 C 0.96499 0.60613 0.0562 0.0
C1350 C 0.98617 0.67214 0.05933 0.0
C1351 C 0.95255 0.66499 0.05654 0.0
H1352 H 0.55416 0.72291 0.23571 0.0
H1353 H 0.6188 0.66669 0.29885 0.0
H1354 H 0.59452 0.69147 0.3476 0.0
H1355 H 0.58289 0.74772 0.36389 0.0
H1356 H 0.53936 0.81379 0.29288 0.0
H1357 H 0.52223 0.76761 0.2591 0.0
C1358 C 0.56211 0.71548 0.2603 0.0
C1359 C 0.59028 0.69612 0.26409 0.0
C1360 C 0.55057 0.73247 0.28778 0.0
C1361 C 0.59868 0.68384 0.29556 0.0
C1362 C 0.58453 0.69781 0.32349 0.0
C1363 C 0.56857 0.75172 0.3415 0.0
C1364 C 0.5657 0.78373 0.32858 0.0
C1365 C 0.56477 0.72574 0.31924 0.0
C1366 C 0.5439 0.78917 0.30212 0.0
C1367 C 0.5346 0.76258 0.28239 0.0
H1368 H 0.61246 0.39834 0.52276 0.0
H1369 H 0.58853 0.50187 0.52411 0.0
H1370 H 0.55028 0.49249 0.56979 0.0
H1371 H 0.51297 0.45311 0.59487 0.0
H1372 H 0.52723 0.34843 0.58253 0.0
H1373 H 0.57991 0.35911 0.55463 0.0
C1374 C 0.59986 0.4189 0.53436 0.0
C1375 C 0.60231 0.4505 0.52046 0.0
C1376 C 0.57531 0.41253 0.5572 0.0
C1377 C 0.58658 0.47744 0.5349 0.0
C1378 C 0.56437 0.47187 0.56037 0.0
C1379 C 0.52811 0.43273 0.58655 0.0
C1380 C 0.5167 0.40024 0.58943 0.0
C1381 C 0.55671 0.43926 0.56941 0.0
C1382 C 0.53587 0.37358 0.57945 0.0
C1383 C 0.56578 0.37976 0.5639 0.0
H1384 H 0.70957 0.82122 0.66742 0.0
H1385 H 0.77818 0.88371 0.72019 0.0
H1386 H 0.73369 0.91421 0.74466 0.0
H1387 H 0.67898 0.9092 0.76583 0.0
H1388 H 0.61362 0.83542 0.72663 0.0
H1389 H 0.65064 0.82558 0.68042 0.0
C1390 C 0.71455 0.84183 0.68388 0.0
C1391 C 0.74693 0.84993 0.69243 0.0
C1392 C 0.68877 0.85761 0.70009 0.0
C1393 C 0.75338 0.8771 0.71316 0.0
C1394 C 0.72791 0.89462 0.72724 0.0
C1395 C 0.67225 0.89233 0.74599 0.0
C1396 C 0.64581 0.8709 0.75063 0.0
C1397 C 0.69579 0.88336 0.72291 0.0
C1398 C 0.63526 0.85087 0.72424 0.0
C1399 C 0.65689 0.84454 0.69834 0.0
H1400 H 0.24618 0.68277 0.21124 0.0
H1401 H 0.23347 0.57767 0.22243 0.0
H1402 H 0.24477 0.58242 0.28213 0.0
H1403 H 0.25412 0.61795 0.3307 0.0
H1404 H 0.25184 0.72371 0.31969 0.0
H1405 H 0.24704 0.71789 0.25965 0.0
C1406 C 0.24727 0.66077 0.22667 0.0
C1407 C 0.2403 0.62983 0.21294 0.0
C1408 C 0.24875 0.66432 0.26074 0.0
C1409 C 0.24015 0.60146 0.23279 0.0
C1410 C 0.24537 0.6044 0.2668 0.0
C1411 C 0.25153 0.63963 0.31508 0.0
C1412 C 0.25585 0.67123 0.3286 0.0
C1413 C 0.24838 0.63589 0.28102 0.0
C1414 C 0.25087 0.69927 0.30905 0.0
C1415 C 0.24845 0.6959 0.27492 0.0
H1416 H 0.51635 0.05264 0.51856 0.0
H1417 H 0.52125 0.99439 0.60742 0.0
H1418 H 0.53672 0.94588 0.57541 0.0
H1419 H 0.5711 0.92977 0.5285 0.0
H1420 H 0.57904 0.99563 0.44463 0.0
H1421 H 0.5366 0.03045 0.46705 0.0
C1422 C 0.51905 0.02871 0.53044 0.0
C1423 C 0.52009 0.02712 0.56501 0.0
C1424 C 0.53198 1.00245 0.51247 0.0
C1425 C 0.52171 0.99622 0.58065 0.0
C1426 C 0.53133 0.96866 0.56239 0.0
C1427 C 0.56266 0.95111 0.51464 0.0
C1428 C 0.57865 0.96033 0.48532 0.0
C1429 C 0.54034 0.97284 0.52916 0.0
C1430 C 0.56742 0.98795 0.46742 0.0
C1431 C 0.5431 0.00808 0.48029 0.0
H1432 H 0.33623 0.39284 0.79231 0.0
H1433 H 0.26839 0.42604 0.71884 0.0
H1434 H 0.23017 0.3815 0.73264 0.0
H1435 H 0.22312 0.32698 0.75755 0.0
H1436 H 0.28016 0.30369 0.84451 0.0
H1437 H 0.32134 0.34519 0.82852 0.0
C1438 C 0.31252 0.39071 0.7801 0.0
C1439 C 0.30729 0.40616 0.74939 0.0
C1440 C 0.29198 0.36407 0.7878 0.0
C1441 C 0.2745 0.4097 0.73918 0.0
C1442 C 0.25338 0.38339 0.74578 0.0
C1443 C 0.24501 0.33054 0.77266 0.0
C1444 C 0.24783 0.31393 0.80295 0.0
C1445 C 0.2636 0.35886 0.7681 0.0
C1446 C 0.27699 0.31704 0.82146 0.0
C1447 C 0.29955 0.34184 0.81337 0.0
H1448 H 0.48797 0.50319 0.54478 0.0
H1449 H 0.41963 0.55404 0.60682 0.0
H1450 H 0.38868 0.57255 0.55823 0.0
H1451 H 0.37393 0.56145 0.50036 0.0
H1452 H 0.438 0.50179 0.43999 0.0
H1453 H 0.47543 0.49483 0.48659 0.0
C1454 C 0.46719 0.51978 0.54723 0.0
C1455 C 0.45373 0.52474 0.57852 0.0
C1456 C 0.44687 0.52509 0.51994 0.0
C1457 C 0.42892 0.5483 0.58239 0.0
C1458 C 0.4104 0.55752 0.55483 0.0
C1459 C 0.39571 0.54627 0.49773 0.0
C1460 C 0.40312 0.53197 0.46706 0.0
C1461 C 0.41759 0.54337 0.52404 0.0
C1462 C 0.43141 0.51247 0.46363 0.0
C1463 C 0.4534 0.50941 0.48985 0.0
H1464 H 0.73141 0.12893 0.22955 0.0
H1465 H 0.80841 0.1783 0.17548 0.0
H1466 H 0.84852 0.13872 0.1976 0.0
H1467 H 0.86134 0.09871 0.24115 0.0
H1468 H 0.78379 0.05604 0.2988 0.0
H1469 H 0.74288 0.07946 0.26143 0.0
C1470 C 0.75668 0.13043 0.22148 0.0
C1471 C 0.76717 0.15666 0.20145 0.0
C1472 C 0.7789 0.1075 0.2335 0.0
C1473 C 0.80014 0.15876 0.19178 0.0
C1474 C 0.82281 0.13581 0.20382 0.0
C1475 C 0.83543 0.09337 0.24457 0.0
C1476 C 0.82471 0.07982 0.27469 0.0
C1477 C 0.81254 0.11102 0.22585 0.0
C1478 C 0.79206 0.06915 0.27703 0.0
C1479 C 0.76871 0.08354 0.25639 0.0
H1480 H 0.74153 0.99255 0.99204 0.0
H1481 H 0.70308 0.03651 0.90306 0.0
H1482 H 0.68611 0.08518 0.9337 0.0
H1483 H 0.66215 0.10057 0.98847 0.0
H1484 H 0.70717 0.06151 0.07635 0.0
H1485 H 0.74215 0.02544 0.04358 0.0
C1486 C 0.73142 0.01361 0.9789 0.0
C1487 C 0.71941 0.00964 0.94664 0.0
C1488 C 0.72133 0.04134 0.99685 0.0
C1489 C 0.70969 0.03815 0.92904 0.0
C1490 C 0.69941 0.06589 0.9466 0.0
C1491 C 0.68036 0.08501 1.00034 0.0
C1492 C 0.6794 0.07988 0.03463 0.0
C1493 C 0.70152 0.06557 0.98116 0.0
C1494 C 0.70481 0.06193 0.04983 0.0
C1495 C 0.72547 0.04221 0.03112 0.0
H1496 H 0.89181 0.97803 0.44622 0.0
H1497 H 0.86806 0.05566 0.51504 0.0
H1498 H 0.82179 0.02351 0.5362 0.0
H1499 H 0.8005 0.96822 0.54502 0.0
H1500 H 0.83597 0.88783 0.48877 0.0
H1501 H 0.85988 0.92544 0.44784 0.0
C1502 C 0.87672 0.98744 0.46619 0.0
C1503 C 0.88414 0.01769 0.48101 0.0
C1504 C 0.85068 0.96884 0.47817 0.0
C1505 C 0.86342 0.03123 0.50508 0.0
C1506 C 0.83649 0.0135 0.51629 0.0
C1507 C 0.81276 0.95933 0.52304 0.0
C1508 C 0.82547 0.92739 0.52319 0.0
C1509 C 0.83119 0.98154 0.50438 0.0
C1510 C 0.83252 0.91417 0.49184 0.0
C1511 C 0.84707 0.93555 0.46898 0.0
H1512 H 0.08801 0.29198 0.43796 0.0
H1513 H 0.19173 0.29638 0.45807 0.0
H1514 H 0.18462 0.25772 0.50436 0.0
H1515 H 0.14914 0.22083 0.54013 0.0
H1516 H 0.04608 0.21249 0.51696 0.0
H1517 H 0.05269 0.25326 0.4724 0.0
C1518 C 0.10911 0.28497 0.45264 0.0
C1519 C 0.14056 0.29867 0.44386 0.0
C1520 C 0.10488 0.26127 0.47938 0.0
C1521 C 0.16723 0.28742 0.4634 0.0
C1522 C 0.16308 0.26491 0.49029 0.0
C1523 C 0.12782 0.228 0.52572 0.0
C1524 C 0.09666 0.21295 0.53344 0.0
C1525 C 0.13205 0.25142 0.49877 0.0
C1526 C 0.07024 0.22293 0.51286 0.0
C1527 C 0.0741 0.24664 0.48695 0.0
H1528 H 0.9979 0.85814 0.81369 0.0
H1529 H 0.05427 0.94711 0.79941 0.0
H1530 H 0.01553 0.96478 0.75596 0.0
H1531 H 0.96562 0.95376 0.7188 0.0
H1532 H 0.90848 0.86608 0.73794 0.0
H1533 H 0.94657 0.84991 0.78135 0.0
C1534 C 1.00169 0.88175 0.80162 0.0
C1535 C 0.02967 0.90107 0.81091 0.0
C1536 C 0.97874 0.89214 0.77652 0.0
C1537 C 0.0333 0.93148 0.79394 0.0
C1538 C 0.01096 0.9416 0.76856 0.0
C1539 C 0.96104 0.93131 0.73266 0.0
C1540 C 0.93333 0.91106 0.72362 0.0
C1541 C 0.98349 0.92205 0.75915 0.0
C1542 C 0.92909 0.88214 0.74279 0.0
C1543 C 0.95116 0.87278 0.76818 0.0
H1544 H 0.41409 0.76011 0.08734 0.0
H1545 H 0.31607 0.79972 0.09091 0.0
H1546 H 0.29819 0.76019 0.0487 0.0
H1547 H 0.31008 0.71416 1.00821 0.0
H1548 H 0.40722 0.67203 1.00836 0.0
H1549 H 0.42484 0.71167 0.0503 0.0
C1550 C 0.38865 0.76001 0.07935 0.0
C1551 C 0.36673 0.7837 0.09332 0.0
C1552 C 0.37801 0.73625 0.05489 0.0
C1553 C 0.33391 0.78231 0.08161 0.0
C1554 C 0.32353 0.75948 0.05698 0.0
C1555 C 0.33506 0.71329 0.01753 0.0
C1556 C 0.35695 0.68911 1.00429 0.0
C1557 C 0.34528 0.73626 0.04303 0.0
C1558 C 0.38923 0.68938 0.01752 0.0
C1559 C 0.39958 0.71248 0.04178 0.0
H1560 H 0.49048 0.19859 0.28609 0.0
H1561 H 0.46983 0.10215 0.32594 0.0
H1562 H 0.51178 0.078 0.2904 0.0
H1563 H 0.55523 0.08295 0.24614 0.0
H1564 H 0.57743 0.17973 0.20792 0.0
H1565 H 0.53543 0.20386 0.24343 0.0
C1566 C 0.4952 0.17231 0.28743 0.0
C1567 C 0.4763 0.15273 0.31006 0.0
C1568 C 0.5204 0.15809 0.26654 0.0
C1569 C 0.48368 0.11856 0.31011 0.0
C1570 C 0.50787 0.10443 0.28923 0.0
C1571 C 0.55127 0.10939 0.24564 0.0
C1572 C 0.57101 0.12914 0.22394 0.0
C1573 C 0.52664 0.12373 0.26712 0.0
C1574 C 0.56414 0.16342 0.22438 0.0
C1575 C 0.53952 0.17746 0.2448 0.0
H1576 H 0.15371 0.79522 0.92816 0.0
H1577 H 0.06151 0.82218 0.97217 0.0
H1578 H 0.06763 0.77742 0.01274 0.0
H1579 H 0.10017 0.72984 0.03852 0.0
H1580 H 0.19407 0.70625 0.99606 0.0
H1581 H 0.18612 0.74878 0.95385 0.0
C1582 C 0.13455 0.79137 0.94627 0.0
C1583 C 0.10661 0.8131 0.94561 0.0
C1584 C 0.13859 0.76522 0.97073 0.0
C1585 C 0.08313 0.80675 0.97072 0.0
C1586 C 0.08672 0.78068 0.99442 0.0
C1587 C 0.11874 0.73329 0.01971 0.0
C1588 C 0.14771 0.71282 0.02105 0.0
C1589 C 0.11439 0.75944 0.99505 0.0
C1590 C 0.17132 0.72002 0.99634 0.0
C1591 C 0.16681 0.74495 0.97184 0.0
H1592 H 0.44578 0.91502 0.21979 0.0
H1593 H 0.4326 0.81505 0.25393 0.0
H1594 H 0.47649 0.82316 0.29488 0.0
H1595 H 0.51961 0.85896 0.32304 0.0
H1596 H 0.53029 0.95986 0.29139 0.0
H1597 H 0.48768 0.95123 0.24906 0.0
C1598 C 0.45262 0.89468 0.23581 0.0
C1599 C 0.43512 0.86391 0.23243 0.0
C1600 C 0.47821 0.89981 0.26047 0.0
C1601 C 0.44486 0.83882 0.2548 0.0
C1602 C 0.4704 0.84353 0.27861 0.0
C1603 C 0.51327 0.87897 0.30643 0.0
C1604 C 0.52994 0.91004 0.3106 0.0
C1605 C 0.48753 0.87389 0.28191 0.0
C1606 C 0.51919 0.93561 0.28929 0.0
C1607 C 0.49441 0.93058 0.26471 0.0
H1608 H 0.44869 0.24935 0.47208 0.0
H1609 H 0.34963 0.22853 0.44005 0.0
H1610 H 0.32855 0.26649 0.48181 0.0
H1611 H 0.3369 0.30582 0.5299 0.0
H1612 H 0.43595 0.33057 0.55879 0.0
H1613 H 0.45718 0.29228 0.51718 0.0
C1614 C 0.42243 0.25324 0.4737 0.0
C1615 C 0.40125 0.23512 0.4515 0.0
C1616 C 0.40993 0.27646 0.4981 0.0
C1617 C 0.36726 0.24148 0.45548 0.0
C1618 C 0.35491 0.26348 0.47995 0.0
C1619 C 0.36322 0.30333 0.52709 0.0
C1620 C 0.38435 0.32223 0.54864 0.0
C1621 C 0.37579 0.28122 0.50176 0.0
C1622 C 0.41842 0.31747 0.54336 0.0
C1623 C 0.43081 0.29506 0.51922 0.0
H1624 H 0.94424 0.1528 0.7775 0.0
H1625 H 0.98167 0.05432 0.79001 0.0
H1626 H 0.02024 0.06359 0.7444 0.0
H1627 H 0.04552 0.10077 0.69982 0.0
H1628 H 0.00674 0.19906 0.68872 0.0
H1629 H 0.96763 0.1886 0.73301 0.0
C1630 C 0.96034 0.13295 0.7702 0.0
C1631 C 0.95888 0.10246 0.78824 0.0
C1632 C 0.98293 0.13852 0.74318 0.0
C1633 C 0.98127 0.07798 0.77756 0.0
C1634 C 1.00368 0.08337 0.75095 0.0
C1635 C 0.02816 0.11977 0.70651 0.0
C1636 C 0.02974 0.15092 0.68938 0.0
C1637 C 0.00503 0.11363 0.73327 0.0
C1638 C 0.0069 0.17489 0.70021 0.0
C1639 C 0.98418 0.1689 0.72608 0.0
H1640 H 0.25792 0.57508 0.07135 0.0
H1641 H 0.18371 0.54715 0.14179 0.0
H1642 H 0.22196 0.5085 0.1679 0.0
H1643 H 0.27705 0.48093 0.17172 0.0
H1644 H 0.35264 0.50946 0.10319 0.0
H1645 H 0.31437 0.54807 0.07631 0.0
C1646 C 0.24978 0.56029 0.09212 0.0
C1647 C 0.21659 0.56425 0.10356 0.0
C1648 C 0.27276 0.53761 0.10789 0.0
C1649 C 0.20809 0.54486 0.1314 0.0
C1650 C 0.23036 0.52255 0.14671 0.0
C1651 C 0.28554 0.49563 0.151 0.0
C1652 C 0.31862 0.49099 0.1397 0.0
C1653 C 0.2629 0.51846 0.13537 0.0
C1654 C 0.32791 0.51126 0.11275 0.0
C1655 C 0.30566 0.53372 0.09716 0.0
H1656 H 0.78957 0.02908 0.80843 0.0
H1657 H 0.8514 0.02079 0.89492 0.0
H1658 H 0.82081 0.97258 0.913 0.0
H1659 H 0.77582 0.9324 0.90611 0.0
H1660 H 0.71307 0.93755 0.82007 0.0
H1661 H 0.74455 0.98569 0.80015 0.0
C1662 C 0.7967 0.01659 0.83107 0.0
C1663 C 0.82334 0.0299 0.85038 0.0
C1664 C 0.7786 0.9876 0.84156 0.0
C1665 C 0.83122 0.01257 0.87965 0.0
C1666 C 0.81361 0.98441 0.89002 0.0
C1667 C 0.76889 0.94358 0.88273 0.0
C1668 C 0.74153 0.93029 0.86486 0.0
C1669 C 0.7871 0.97169 0.87147 0.0
C1670 C 0.73371 0.94626 0.83468 0.0
C1671 C 0.75185 0.97423 0.82328 0.0
H1672 H 0.77982 0.05229 0.35817 0.0
H1673 H 0.75731 0.05545 0.46231 0.0
H1674 H 0.71224 0.01674 0.45382 0.0
H1675 H 0.67832 0.97937 0.41772 0.0
H1676 H 0.69968 0.97529 0.31346 0.0
H1677 H 0.74414 0.01544 0.32119 0.0
C1678 C 0.76488 0.04506 0.37905 0.0
C1679 C 0.77306 0.0582 0.41117 0.0
C1680 C 0.73795 0.02172 0.37402 0.0
C1681 C 0.75271 0.04692 0.4373 0.0
C1682 C 0.72643 0.02427 0.43246 0.0
C1683 C 0.69225 0.98735 0.39638 0.0
C1684 C 0.68421 0.97345 0.36467 0.0
C1685 C 0.71863 0.01111 0.40104 0.0
C1686 C 0.70398 0.98485 0.33815 0.0
C1687 C 0.72998 0.00819 0.34263 0.0
H1688 H 0.76936 0.95261 0.09655 0.0
H1689 H 0.83172 0.96161 0.18259 0.0
H1690 H 0.797 1.00609 0.20369 0.0
H1691 H 0.74946 0.0455 0.19727 0.0
H1692 H 0.68205 0.03044 0.11632 0.0
H1693 H 0.7173 0.98673 0.09439 0.0
C1694 C 0.77531 0.96386 0.12017 0.0
C1695 C 0.80398 0.95271 0.13762 0.0
C1696 C 0.75409 0.9894 0.13316 0.0
C1697 C 0.81025 0.96853 0.16827 0.0
C1698 C 0.79022 0.9945 0.18046 0.0
C1699 C 0.74208 0.03264 0.17493 0.0
C1700 C 0.7131 0.0435 0.15776 0.0
C1701 C 0.76209 1.00561 0.16311 0.0
C1702 C 0.70456 0.02482 0.12944 0.0
C1703 C 0.72481 0.99915 0.11696 0.0
H1704 H 0.29635 0.45707 0.67097 0.0
H1705 H 0.29555 0.47217 0.5654 0.0
H1706 H 0.25071 0.51192 0.57107 0.0
H1707 H 0.21179 0.54593 0.60614 0.0
H1708 H 0.21495 0.53292 0.71196 0.0
H1709 H 0.25706 0.49046 0.70588 0.0
C1710 C 0.28622 0.46852 0.64895 0.0
C1711 C 0.30025 0.46016 0.61741 0.0
C1712 C 0.2601 0.49275 0.65247 0.0
C1713 C 0.28616 0.47691 0.58998 0.0
C1714 C 0.2601 0.50016 0.59326 0.0
C1715 C 0.22111 0.53356 0.62801 0.0
C1716 C 0.20861 0.54343 0.65978 0.0
C1717 C 0.24676 0.50879 0.62439 0.0
C1718 C 0.2228 0.52668 0.68716 0.0
C1719 C 0.24743 0.502 0.68367 0.0
H1720 H 0.23182 0.45281 0.41862 0.0
H1721 H 0.18663 0.44595 0.32213 0.0
H1722 H 0.22407 0.48797 0.30101 0.0
H1723 H 0.26994 0.52908 0.30898 0.0
H1724 H 0.31817 0.53354 0.40407 0.0
H1725 H 0.28055 0.49153 0.42551 0.0
C1726 C 0.23012 0.4602 0.39288 0.0
C1727 C 0.20555 0.44494 0.37233 0.0
C1728 C 0.25289 0.48478 0.38013 0.0
C1729 C 0.20486 0.45594 0.33899 0.0
C1730 C 0.22649 0.48055 0.32669 0.0
C1731 C 0.27266 0.52081 0.33435 0.0
C1732 C 0.29793 0.53546 0.3544 0.0
C1733 C 0.25076 0.49546 0.34684 0.0
C1734 C 0.29989 0.52341 0.38732 0.0
C1735 C 0.27791 0.4991 0.39991 0.0
H1736 H 0.22622 0.47187 0.82751 0.0
H1737 H 0.18485 0.45561 0.92409 0.0
H1738 H 0.2134 0.50328 0.94552 0.0
H1739 H 0.25275 0.5495 0.93986 0.0
H1740 H 0.30573 0.5608 0.84874 0.0
H1741 H 0.27153 0.51705 0.82333 0.0
C1742 C 0.22302 0.47875 0.8532 0.0
C1743 C 0.19973 0.46027 0.87301 0.0
C1744 C 0.24263 0.50605 0.86695 0.0
C1745 C 0.19872 0.47006 0.90666 0.0
C1746 C 0.21628 0.49738 0.91953 0.0
C1747 C 0.25709 0.5428 0.9143 0.0
C1748 C 0.28265 0.55975 0.89686 0.0
C1749 C 0.23829 0.51587 0.90018 0.0
C1750 C 0.28669 0.54943 0.86352 0.0
C1751 C 0.26698 0.52371 0.84887 0.0
H1752 H 0.66703 0.70439 0.048 0.0
H1753 H 0.56428 0.72791 0.03927 0.0
H1754 H 0.57727 0.77019 0.9976 0.0
H1755 H 0.618 0.80163 0.96297 0.0
H1756 H 0.71965 0.77257 0.96562 0.0
H1757 H 0.70709 0.73199 0.00917 0.0
C1758 C 0.64734 0.71874 0.03709 0.0
C1759 C 0.6144 0.71275 0.04797 0.0
C1760 C 0.65499 0.74244 0.01157 0.0
C1761 C 0.58969 0.73161 0.03234 0.0
C1762 C 0.59724 0.75601 1.00822 0.0
C1763 C 0.6376 0.78656 0.97306 0.0
C1764 C 0.67024 0.79134 0.96082 0.0
C1765 C 0.62981 0.76191 0.99757 0.0
C1766 C 0.69457 0.77038 0.97419 0.0
C1767 C 0.68727 0.74693 0.99937 0.0
H1768 H 0.56027 0.42827 0.30334 0.0
H1769 H 0.50939 0.33976 0.33323 0.0
H1770 H 0.46786 0.34913 0.29073 0.0
H1771 H 0.44534 0.38081 0.24262 0.0
H1772 H 0.4942 0.46998 0.21209 0.0
H1773 H 0.53573 0.46182 0.25551 0.0
C1774 C 0.53977 0.41137 0.30135 0.0
C1775 C 0.5388 0.38329 0.32329 0.0
C1776 C 0.51497 0.41687 0.27572 0.0
C1777 C 0.51175 0.36172 0.31809 0.0
C1778 C 0.48756 0.36702 0.29322 0.0
C1779 C 0.46447 0.39905 0.24554 0.0
C1780 C 0.4652 0.42648 0.223 0.0
C1781 C 0.48873 0.39434 0.27153 0.0
C1782 C 0.49174 0.44873 0.22817 0.0
C1783 C 0.51591 0.44404 0.25354 0.0
H1784 H 0.89643 0.18348 0.49083 0.0
H1785 H 0.80331 0.22769 0.46697 0.0
H1786 H 0.81091 0.26724 0.51265 0.0
H1787 H 0.84538 0.2914 0.56007 0.0
H1788 H 0.93849 0.24641 0.58213 0.0
H1789 H 0.92948 0.20614 0.53795 0.0
C1790 C 0.87725 0.20119 0.49574 0.0
C1791 C 0.84874 0.2012 0.47469 0.0
C1792 C 0.88195 0.22445 0.52252 0.0
C1793 C 0.82535 0.22596 0.48196 0.0
C1794 C 0.8298 0.24894 0.50851 0.0
C1795 C 0.86332 0.27232 0.55589 0.0
C1796 C 0.8925 0.27237 0.57611 0.0
C1797 C 0.85806 0.24868 0.52924 0.0
C1798 C 0.91569 0.24764 0.56827 0.0
C1799 C 0.91054 0.2243 0.54251 0.0
H1800 H 0.02304 0.67521 0.82841 0.0
H1801 H 0.95683 0.59232 0.82148 0.0
H1802 H 0.98742 0.57133 0.7738 0.0
H1803 H 0.03323 0.57667 0.73103 0.0
H1804 H 0.10259 0.65629 0.74332 0.0
H1805 H 0.07133 0.6774 0.78991 0.0
C1806 C 0.01531 0.65224 0.81698 0.0
C1807 C 0.98691 0.63573 0.82998 0.0
C1808 C 0.03392 0.63944 0.78926 0.0
C1809 C 0.97827 0.606 0.81345 0.0
C1810 C 0.99594 0.59386 0.78554 0.0
C1811 C 0.04196 0.59846 0.74393 0.0
C1812 C 0.07081 0.61506 0.73161 0.0
C1813 C 0.02395 0.61029 0.77275 0.0
C1814 C 0.08059 0.64308 0.75023 0.0
C1815 C 0.06255 0.65526 0.77763 0.0
H1816 H 0.66328 0.28357 0.44944 0.0
H1817 H 0.56558 0.3081 0.48142 0.0
H1818 H 0.56757 0.26341 0.52227 0.0
H1819 H 0.59723 0.2163 0.5517 0.0
H1820 H 0.69627 0.19439 0.52195 0.0
H1821 H 0.69319 0.23731 0.47943 0.0
C1822 C 0.64207 0.27922 0.46494 0.0
C1823 C 0.61385 0.30038 0.46066 0.0
C1824 C 0.64358 0.25299 0.48986 0.0
C1825 C 0.58762 0.29325 0.48265 0.0
C1826 C 0.58878 0.26718 0.50659 0.0
C1827 C 0.61821 0.22035 0.5358 0.0
C1828 C 0.64705 0.20021 0.54099 0.0
C1829 C 0.61661 0.24659 0.51084 0.0
C1830 C 0.67353 0.20799 0.51955 0.0
C1831 C 0.67181 0.23314 0.49475 0.0
H1832 H 0.98403 0.36565 0.70132 0.0
H1833 H 0.9306 0.3035 0.7684 0.0
H1834 H 0.97205 0.31484 0.81168 0.0
H1835 H 0.02352 0.34548 0.83262 0.0
H1836 H 0.0733 0.41074 0.76497 0.0
H1837 H 0.03402 0.39585 0.72126 0.0
C1838 C 0.98079 0.35476 0.7253 0.0
C1839 C 0.95273 0.3337 0.73032 0.0
C1840 C 0.00485 0.36225 0.75081 0.0
C1841 C 0.95108 0.31949 0.76239 0.0
C1842 C 0.97512 0.32632 0.78765 0.0
C1843 C 0.0262 0.35629 0.80823 0.0
C1844 C 0.05285 0.37936 0.80289 0.0
C1845 C 1.0022 0.34803 0.78252 0.0
C1846 C 0.05422 0.39298 0.7707 0.0
C1847 C 0.0313 0.38439 0.74535 0.0
H1848 H 0.83684 0.79967 0.03686 0.0
H1849 H 0.93601 0.81775 0.07008 0.0
H1850 H 0.9564 0.77707 0.0305 0.0
H1851 H 0.947 0.7344 0.98594 0.0
H1852 H 0.84886 0.72116 0.94781 0.0
H1853 H 0.82809 0.7607 0.98849 0.0
C1854 C 0.86299 0.79509 0.03538 0.0
C1855 C 0.88454 0.81272 0.05737 0.0
C1856 C 0.87516 0.77191 0.01101 0.0
C1857 C 0.91837 0.80555 0.05403 0.0
C1858 C 0.93024 0.78184 0.03114 0.0
C1859 C 0.92108 0.74038 0.98603 0.0
C1860 C 0.89992 0.72415 0.96268 0.0
C1861 C 0.90905 0.76461 0.00933 0.0
C1862 C 0.86633 0.73293 0.96436 0.0
C1863 C 0.85421 0.75572 0.98812 0.0
H1864 H 0.51208 0.68198 0.19705 0.0
H1865 H 0.53989 0.58121 0.17753 0.0
H1866 H 0.49645 0.56197 0.21498 0.0
H1867 H 0.45081 0.57304 0.25557 0.0
H1868 H 0.42283 0.67382 0.27481 0.0
H1869 H 0.46511 0.69297 0.23601 0.0
C1870 C 0.50865 0.65565 0.20043 0.0
C1871 C 0.5302 0.63336 0.18319 0.0
C1872 C 0.48304 0.64447 0.22259 0.0
C1873 C 0.52444 0.59944 0.1893 0.0
C1874 C 0.49929 0.58831 0.21118 0.0
C1875 C 0.45337 0.59931 0.25117 0.0
C1876 C 0.43223 0.62163 0.26887 0.0
C1877 C 0.47837 0.61046 0.22826 0.0
C1878 C 0.43745 0.65552 0.2621 0.0
C1879 C 0.46214 0.66662 0.23968 0.0
H1880 H 0.78278 0.96027 0.59863 0.0
H1881 H 0.77907 0.9774 0.70375 0.0
H1882 H 0.73604 0.01838 0.69538 0.0
H1883 H 0.69851 0.05135 0.65881 0.0
H1884 H 0.69857 0.03314 0.55379 0.0
H1885 H 0.74296 0.99257 0.5614 0.0
C1886 C 0.77323 0.97347 0.61973 0.0
C1887 C 0.78599 0.96531 0.65209 0.0
C1888 C 0.74723 0.9977 0.61468 0.0
C1889 C 0.77123 0.98253 0.67861 0.0
C1890 C 0.7462 1.00648 0.67376 0.0
C1891 C 0.7082 0.03891 0.63725 0.0
C1892 C 0.69435 0.04672 0.60534 0.0
C1893 C 0.73387 0.01462 0.64199 0.0
C1894 C 0.70779 0.02873 0.57858 0.0
C1895 C 0.73365 1.00518 0.58305 0.0
H1896 H 0.14491 0.54563 0.19986 0.0
H1897 H 0.06228 0.6009 0.23646 0.0
H1898 H 0.04787 0.55567 0.27335 0.0
H1899 H 0.0555 0.49903 0.29263 0.0
H1900 H 0.14122 0.44543 0.26412 0.0
H1901 H 0.15709 0.49011 0.22606 0.0
C1902 C 0.12454 0.54831 0.21682 0.0
C1903 C 0.10495 0.57728 0.2153 0.0
C1904 C 0.11598 0.52159 0.23835 0.0
C1905 C 0.07814 0.57945 0.23713 0.0
C1906 C 0.06949 0.55322 0.258 0.0
C1907 C 0.07754 0.49661 0.27788 0.0
C1908 C 0.09615 0.46706 0.27975 0.0
C1909 C 0.08757 0.52378 0.25815 0.0
C1910 C 0.12519 0.46605 0.26118 0.0
C1911 C 0.13466 0.49236 0.2402 0.0
H1912 H 0.73227 0.81138 0.44671 0.0
H1913 H 0.67926 0.89423 0.48689 0.0
H1914 H 0.72154 0.90119 0.52962 0.0
H1915 H 0.77298 0.88237 0.55723 0.0
H1916 H 0.82452 0.79855 0.51774 0.0
H1917 H 0.78407 0.7939 0.47287 0.0
C1918 C 0.72966 0.8309 0.46487 0.0
C1919 C 0.70193 0.85191 0.46353 0.0
C1920 C 0.75434 0.83498 0.48932 0.0
C1921 C 0.69972 0.87724 0.48733 0.0
C1922 C 0.72417 0.88144 0.51172 0.0
C1923 C 0.77582 0.8637 0.53821 0.0
C1924 C 0.80237 0.84137 0.54033 0.0
C1925 C 0.75162 0.86044 0.51304 0.0
C1926 C 0.8049 0.81651 0.51624 0.0
C1927 C 0.78149 0.81362 0.49079 0.0
H1928 H 0.41659 0.50583 0.71789 0.0
H1929 H 0.39613 0.41739 0.77373 0.0
H1930 H 0.39373 0.45026 0.82484 0.0
H1931 H 0.40308 0.50293 0.85374 0.0
H1932 H 0.42407 0.59157 0.79826 0.0
H1933 H 0.42031 0.55979 0.74643 0.0
C1934 C 0.41111 0.49382 0.74126 0.0
C1935 C 0.4067 0.45913 0.74214 0.0
C1936 C 0.41035 0.51284 0.77038 0.0
C1937 C 0.3993 0.44392 0.77236 0.0
C1938 C 0.39832 0.46273 0.80156 0.0
C1939 C 0.40698 0.51542 0.8303 0.0
C1940 C 0.41478 0.54957 0.82992 0.0
C1941 C 0.4048 0.49698 0.8009 0.0
C1942 C 0.41849 0.56543 0.79931 0.0
C1943 C 0.41639 0.54718 0.76975 0.0
H1944 H 0.79372 0.21108 0.96205 0.0
H1945 H 0.81308 0.10689 0.96761 0.0
H1946 H 0.77298 0.10117 0.0123 0.0
H1947 H 0.73179 0.12658 0.05097 0.0
H1948 H 0.70935 0.22998 0.04004 0.0
H1949 H 0.75003 0.23492 0.99626 0.0
C1950 C 0.78961 0.18703 0.97313 0.0
C1951 C 0.80837 0.15966 0.9622 0.0
C1952 C 0.76491 0.18368 0.99767 0.0
C1953 C 0.80118 0.12878 0.97664 0.0
C1954 C 0.77738 0.12541 1.0018 0.0
C1955 C 0.7349 0.14988 0.03822 0.0
C1956 C 0.71659 0.17771 0.04882 0.0
C1957 C 0.7589 0.15271 0.01262 0.0
C1958 C 0.72245 0.20798 0.03256 0.0
C1959 C 0.74608 0.21094 1.00753 0.0
H1960 H 0.19728 0.09312 0.51468 0.0
H1961 H 0.24715 0.15736 0.58366 0.0
H1962 H 0.29049 0.1675 0.54242 0.0
H1963 H 0.31664 0.15295 0.48862 0.0
H1964 H 0.26607 0.08783 0.42107 0.0
H1965 H 0.21992 0.08361 0.45957 0.0
C1966 C 0.21767 0.10937 0.52079 0.0
C1967 C 0.21949 0.12387 0.55253 0.0
C1968 C 0.24201 0.11515 0.49697 0.0
C1969 C 0.24542 0.14568 0.55961 0.0
C1970 C 0.27012 0.15142 0.536 0.0
C1971 C 0.29489 0.13887 0.48193 0.0
C1972 C 0.29426 0.12126 0.45174 0.0
C1973 C 0.26894 0.13578 0.50479 0.0
C1974 C 0.2666 0.10221 0.44369 0.0
C1975 C 0.24051 0.09945 0.46594 0.0
H1976 H 0.21574 0.98567 0.77395 0.0
H1977 H 0.11152 0.97881 0.78691 0.0
H1978 H 0.10294 0.02452 0.74799 0.0
H1979 H 0.12504 0.06416 0.70721 0.0
H1980 H 0.2296 0.06966 0.69166 0.0
H1981 H 0.23821 0.02684 0.73373 0.0
C1982 C 0.19129 0.99508 0.76913 0.0
C1983 C 0.16418 0.98057 0.7856 0.0
C1984 C 0.18667 0.02053 0.74523 0.0
C1985 C 0.13266 0.99176 0.77725 0.0
C1986 C 0.12783 0.01711 0.75401 0.0
C1987 C 0.14975 0.05583 0.71267 0.0
C1988 C 0.17658 0.06999 0.69549 0.0
C1989 C 0.1546 0.03142 0.73743 0.0
C1990 C 0.20839 0.05919 0.70394 0.0
C1991 C 0.21336 0.0347 0.72824 0.0
H1992 H 0.19538 0.89919 0.97332 0.0
H1993 H 0.27365 0.89417 0.90213 0.0
H1994 H 0.31399 0.89146 0.94747 0.0
H1995 H 0.3271 0.89723 1.00656 0.0
H1996 H 0.24959 0.90859 0.07802 0.0
H1997 H 0.2086 0.90162 0.03349 0.0
C1998 C 0.22125 0.89612 0.96779 0.0
C1999 C 0.23144 0.89575 0.9342 0.0
C2000 C 0.2443 0.89645 0.99409 0.0
C2001 C 0.26505 0.89324 0.92746 0.0
C2002 C 0.2881 0.89234 0.95349 0.0
C2003 C 0.3012 0.8981 0.01265 0.0
C2004 C 0.29154 0.90333 0.04599 0.0
C2005 C 0.27803 0.89507 0.98677 0.0
C2006 C 0.25784 0.90402 0.05302 0.0
C2007 C 0.23445 0.90031 0.02739 0.0
H2008 H 0.34326 0.08644 0.27086 0.0
H2009 H 0.38307 0.01621 0.34008 0.0
H2010 H 0.39103 0.97638 0.29471 0.0
H2011 H 0.37926 0.95944 0.23654 0.0
H2012 H 0.33514 0.02909 0.16927 0.0
H2013 H 0.33712 0.07177 0.2122 0.0
C2014 C 0.35384 0.06241 0.27607 0.0
C2015 C 0.3623 0.05408 0.30902 0.0
C2016 C 0.35788 0.03983 0.24991 0.0
C2017 C 0.37658 0.02321 0.31511 0.0
C2018 C 0.38093 1.00048 0.28909 0.0
C2019 C 0.37159 0.98447 0.23087 0.0
C2020 C 0.35794 0.99139 0.19932 0.0
C2021 C 0.371 0.00829 0.25647 0.0
C2022 C 0.34673 0.02346 0.1928 0.0
C2023 C 0.34723 0.04763 0.21765 0.0
H2024 H 0.51036 0.33503 0.10953 0.0
H2025 H 0.43279 0.26792 0.137 0.0
H2026 H 0.47327 0.2231 0.14262 0.0
H2027 H 0.53025 0.20174 0.1338 0.0
H2028 H 0.60766 0.26969 0.10811 0.0
H2029 H 0.56808 0.31543 0.10826 0.0
C2030 C 0.50228 0.31066 0.11723 0.0
C2031 C 0.46823 0.30493 0.12247 0.0
C2032 C 0.52586 0.28512 0.12063 0.0
C2033 C 0.45852 0.27324 0.13278 0.0
C2034 C 0.4818 0.24754 0.1358 0.0
C2035 C 0.53861 0.22674 0.12902 0.0
C2036 C 0.57221 0.23218 0.12113 0.0
C2037 C 0.51544 0.25298 0.129 0.0
C2038 C 0.58236 0.2647 0.11466 0.0
C2039 C 0.55952 0.29083 0.11445 0.0
H2040 H 0.97511 0.20838 0.96132 0.0
H2041 H 0.95249 0.22614 0.85832 0.0
H2042 H 0.9992 0.26475 0.85506 0.0
H2043 H 0.04751 0.29275 0.88187 0.0
H2044 H 0.06933 0.27177 0.98445 0.0
H2045 H 0.02261 0.23412 0.98694 0.0
C2046 C 0.97996 0.22073 0.938 0.0
C2047 C 0.95977 0.21419 0.91012 0.0
C2048 C 0.00746 0.24173 0.93602 0.0
C2049 C 0.96701 0.23081 0.88037 0.0
C2050 C 0.9941 0.25259 0.8784 0.0
C2051 C 0.04254 0.27925 0.9045 0.0
C2052 C 0.06246 0.28481 0.93289 0.0
C2053 C 0.01488 0.25787 0.906 0.0
C2054 C 0.05488 0.26778 0.9622 0.0
C2055 C 0.02788 0.24647 0.96374 0.0
H2056 H 0.99547 0.7991 0.21505 0.0
H2057 H 0.99703 0.8283 0.11221 0.0
H2058 H 0.0323 0.78086 0.09961 0.0
H2059 H 0.06088 0.7294 0.11785 0.0
H2060 H 0.05509 0.70007 0.22052 0.0
H2061 H 0.0219 0.74849 0.23265 0.0
C2062 C 1.00369 0.7956 0.18979 0.0
C2063 C 0.99355 0.8178 0.1647 0.0
C2064 C 0.02241 0.76747 0.18249 0.0
C2065 C 1.00471 0.81223 0.13223 0.0
C2066 C 0.02447 0.78469 0.12492 0.0
C2067 C 0.05183 0.73327 0.14276 0.0
C2068 C 0.06042 0.71077 0.16823 0.0
C2069 C 0.03294 0.76172 0.14977 0.0
C2070 C 0.04884 0.71667 0.20041 0.0
C2071 C 0.03009 0.7446 0.20745 0.0
H2072 H 0.52119 0.8064 0.38253 0.0
H2073 H 0.57218 0.76274 0.46539 0.0
H2074 H 0.53189 0.71796 0.4671 0.0
H2075 H 0.48168 0.69154 0.44651 0.0
H2076 H 0.4299 0.7332 0.363 0.0
H2077 H 0.47048 0.77817 0.36037 0.0
C2078 C 0.52393 0.78662 0.40042 0.0
C2079 C 0.55051 0.78775 0.42335 0.0
C2080 C 0.5 0.76081 0.40162 0.0
C2081 C 0.55264 0.76242 0.44709 0.0
C2082 C 0.52933 0.73684 0.44824 0.0
C2083 C 0.47878 0.7105 0.42776 0.0
C2084 C 0.45187 0.70873 0.4053 0.0
C2085 C 0.50269 0.73594 0.42595 0.0
C2086 C 0.44955 0.73377 0.38112 0.0
C2087 C 0.47312 0.75948 0.37941 0.0
H2088 H 0.99697 0.83027 0.60962 0.0
H2089 H 0.91746 0.76011 0.60855 0.0
H2090 H 0.95701 0.71454 0.61347 0.0
H2091 H 0.01457 0.69436 0.61487 0.0
H2092 H 0.09424 0.76394 0.60738 0.0
H2093 H 0.05482 0.80987 0.60924 0.0
C2094 C 0.98824 0.80499 0.61105 0.0
C2095 C 0.95382 0.7988 0.61063 0.0
C2096 C 0.01147 0.77881 0.61241 0.0
C2097 C 0.94335 0.76578 0.61102 0.0
C2098 C 0.96615 0.7397 0.6132 0.0
C2099 C 0.02342 0.71965 0.61447 0.0
C2100 C 0.05783 0.72556 0.61293 0.0
C2101 C 1.0003 0.74586 0.61386 0.0
C2102 C 0.06841 0.75851 0.61061 0.0
C2103 C 0.04565 0.78479 0.61105 0.0
H2104 H 0.06501 0.25406 0.34535 0.0
H2105 H 0.98897 0.32724 0.35393 0.0
H2106 H 0.95007 0.28398 0.37166 0.0
H2107 H 0.93649 0.22411 0.37834 0.0
H2108 H 0.0125 0.1515 0.36594 0.0
H2109 H 0.05282 0.19561 0.35654 0.0
C2110 C 0.03992 0.26066 0.35133 0.0
C2111 C 0.02987 0.29396 0.3481 0.0
C2112 C 0.01782 0.2356 0.36099 0.0
C2113 C 0.99742 0.30202 0.35628 0.0
C2114 C 0.9752 0.27716 0.36629 0.0
C2115 C 0.96219 0.21808 0.37489 0.0
C2116 C 0.97172 0.18445 0.37396 0.0
C2117 C 0.98496 0.24373 0.36808 0.0
C2118 C 1.00476 0.17699 0.36792 0.0
C2119 C 0.02767 0.20229 0.36203 0.0
H2120 H 0.4479 0.73651 0.93208 0.0
H2121 H 0.52281 0.66204 0.9261 0.0
H2122 H 0.56529 0.70533 0.92762 0.0
H2123 H 0.58032 0.76442 0.91886 0.0
H2124 H 0.50432 0.838 0.91638 0.0
H2125 H 0.46343 0.79567 0.93038 0.0
C2126 C 0.47361 0.72958 0.93281 0.0
C2127 C 0.48183 0.6955 0.93011 0.0
C2128 C 0.49783 0.75492 0.93139 0.0
C2129 C 0.5154 0.68749 0.92944 0.0
C2130 C 0.53976 0.71252 0.9296 0.0
C2131 C 0.55501 0.77152 0.92304 0.0
C2132 C 0.54591 0.80512 0.9179 0.0
C2133 C 0.53123 0.74637 0.92904 0.0
C2134 C 0.51258 0.81313 0.92162 0.0
C2135 C 0.48902 0.78857 0.929 0.0
H2136 H 0.61435 0.01823 0.70677 0.0
H2137 H 0.58529 0.09938 0.76884 0.0
H2138 H 0.58458 0.06263 0.81708 0.0
H2139 H 0.59098 0.00765 0.84163 0.0
H2140 H 0.61803 0.92501 0.78055 0.0
H2141 H 0.6201 0.96166 0.73197 0.0
C2142 C 0.60874 0.02801 0.73108 0.0
C2143 C 0.60151 0.06219 0.73435 0.0
C2144 C 0.60726 1.00618 0.75875 0.0
C2145 C 0.59238 0.0738 0.76572 0.0
C2146 C 0.59154 0.05258 0.79327 0.0
C2147 C 0.59708 0.99719 0.81774 0.0
C2148 C 0.60448 0.96293 0.81525 0.0
C2149 C 0.59859 0.01868 0.79007 0.0
C2150 C 0.61222 0.95079 0.78361 0.0
C2151 C 0.61361 0.972 0.75579 0.0
H2152 H 0.30275 0.30547 0.05428 0.0
H2153 H 0.30241 0.41024 0.06879 0.0
H2154 H 0.25648 0.41615 0.02961 0.0
H2155 H 0.21639 0.39099 0.98893 0.0
H2156 H 0.21164 0.28457 0.98368 0.0
H2157 H 0.25796 0.28007 0.02126 0.0
C2158 C 0.29315 0.32972 0.04839 0.0
C2159 C 0.3087 0.35794 0.06213 0.0
C2160 C 0.26492 0.3326 0.02748 0.0
C2161 C 0.29382 0.38867 0.05567 0.0
C2162 C 0.26666 0.39186 0.03401 0.0
C2163 C 0.22487 0.3668 0.99657 0.0
C2164 C 0.21002 0.33822 0.98252 0.0
C2165 C 0.25202 0.364 0.01923 0.0
C2166 C 0.22219 0.30726 0.99326 0.0
C2167 C 0.24913 0.30449 0.01486 0.0
H2168 H 0.8856 0.95701 0.23946 0.0
H2169 H 0.99106 0.94756 0.24255 0.0
H2170 H 0.99425 0.98831 0.28691 0.0
H2171 H 0.96762 0.02949 0.32296 0.0
H2172 H 0.86207 0.03688 0.32208 0.0
H2173 H 0.85856 0.99524 0.27867 0.0
C2174 C 0.90919 0.96318 0.25043 0.0
C2175 C 0.93802 0.94886 0.2376 0.0
C2176 C 0.91101 0.98733 0.27577 0.0
C2177 C 0.9684 0.95791 0.25187 0.0
C2178 C 0.97032 0.98152 0.27715 0.0
C2179 C 0.94385 0.02219 0.31312 0.0
C2180 C 0.91526 0.03791 0.32477 0.0
C2181 C 0.94189 0.99701 0.28884 0.0
C2182 C 0.88468 0.02707 0.31226 0.0
C2183 C 0.88257 1.00253 0.28785 0.0
H2184 H 0.2606 0.65605 0.57917 0.0
H2185 H 0.17803 0.6495 0.5124 0.0
H2186 H 0.2157 0.6394 0.46601 0.0
H2187 H 0.27284 0.6384 0.44364 0.0
H2188 H 0.35493 0.64638 0.51082 0.0
H2189 H 0.31701 0.6494 0.55782 0.0
C2190 C 0.25075 0.6522 0.55446 0.0
C2191 C 0.21631 0.65376 0.54937 0.0
C2192 C 0.27268 0.64652 0.52798 0.0
C2193 C 0.20417 0.64824 0.51723 0.0
C2194 C 0.22585 0.64264 0.49065 0.0
C2195 C 0.28241 0.63964 0.46873 0.0
C2196 C 0.3169 0.64135 0.47372 0.0
C2197 C 0.26022 0.64234 0.49561 0.0
C2198 C 0.32878 0.64416 0.50627 0.0
C2199 C 0.30697 0.64634 0.53311 0.0
H2200 H 0.69601 0.65551 0.02192 0.0
H2201 H 0.77581 0.63202 0.08799 0.0
H2202 H 0.81491 0.63868 0.0423 0.0
H2203 H 0.82476 0.6405 0.98173 0.0
H2204 H 0.74373 0.657 0.91492 0.0
H2205 H 0.70691 0.66465 0.96235 0.0
C2206 C 0.72217 0.65357 0.02671 0.0
C2207 C 0.73295 0.64433 0.05887 0.0
C2208 C 0.74422 0.65554 0.99973 0.0
C2209 C 0.76682 0.64023 0.06409 0.0
C2210 C 0.78912 0.64346 0.03766 0.0
C2211 C 0.79925 0.64705 0.97758 0.0
C2212 C 0.78723 0.64893 0.94457 0.0
C2213 C 0.77793 0.64964 1.0051 0.0
C2214 C 0.75389 0.6563 0.93974 0.0
C2215 C 0.73275 0.66019 0.96701 0.0
H2216 H 0.65116 0.45086 0.27361 0.0
H2217 H 0.71479 0.50086 0.34285 0.0
H2218 H 0.71903 0.5481 0.30483 0.0
H2219 H 0.70521 0.57481 0.25168 0.0
H2220 H 0.64407 0.52426 0.18133 0.0
H2221 H 0.6382 0.47746 0.21949 0.0
C2222 C 0.66544 0.47243 0.28061 0.0
C2223 C 0.6819 0.47273 0.31156 0.0
C2224 C 0.66843 0.49914 0.25812 0.0
C2225 C 0.70112 0.50038 0.31977 0.0
C2226 C 0.70383 0.52722 0.29778 0.0
C2227 C 0.69075 0.55351 0.24426 0.0
C2228 C 0.67437 0.55347 0.21302 0.0
C2229 C 0.68782 0.52677 0.26674 0.0
C2230 C 0.65625 0.52523 0.20473 0.0
C2231 C 0.65302 0.49852 0.22684 0.0
H2232 H 0.81291 0.36115 0.54717 0.0
H2233 H 0.82696 0.4667 0.54882 0.0
H2234 H 0.79461 0.47198 0.49824 0.0
H2235 H 0.76111 0.44794 0.45456 0.0
H2236 H 0.7391 0.34368 0.45461 0.0
H2237 H 0.77631 0.33638 0.50248 0.0
C2238 C 0.80776 0.38538 0.53719 0.0
C2239 C 0.82166 0.41365 0.55298 0.0
C2240 C 0.78842 0.38835 0.5077 0.0
C2241 C 0.81637 0.44458 0.53804 0.0
C2242 C 0.79797 0.4476 0.50879 0.0
C2243 C 0.76449 0.4233 0.46455 0.0
C2244 C 0.74698 0.39637 0.45024 0.0
C2245 C 0.78391 0.41977 0.49342 0.0
C2246 C 0.75237 0.36489 0.46414 0.0
C2247 C 0.77324 0.36087 0.49213 0.0
H2248 H 0.83793 0.44363 0.75875 0.0
H2249 H 0.89363 0.48926 0.6804 0.0
H2250 H 0.90275 0.53805 0.71551 0.0
H2251 H 0.89018 0.56959 0.76627 0.0
H2252 H 0.8352 0.52397 0.84501 0.0
H2253 H 0.83109 0.47276 0.81229 0.0
C2254 C 0.85226 0.4642 0.74937 0.0
C2255 C 0.86461 0.46302 0.71659 0.0
C2256 C 0.85755 0.49197 0.76987 0.0
C2257 C 0.88376 0.48952 0.70525 0.0
C2258 C 0.88885 0.51743 0.72537 0.0
C2259 C 0.8778 0.54817 0.77656 0.0
C2260 C 0.86278 0.55063 0.80803 0.0
C2261 C 0.87526 0.51918 0.75739 0.0
C2262 C 0.84704 0.52271 0.82109 0.0
C2263 C 0.84445 0.4936 0.80215 0.0
H2264 H 0.48396 0.31191 0.6344 0.0
H2265 H 0.48763 0.33009 0.73952 0.0
H2266 H 0.52964 0.28777 0.74625 0.0
H2267 H 0.56226 0.24172 0.72323 0.0
H2268 H 0.56203 0.2255 0.61835 0.0
H2269 H 0.52164 0.26986 0.61048 0.0
C2270 C 0.4947 0.30734 0.65859 0.0
C2271 C 0.48259 0.32451 0.68639 0.0
C2272 C 0.51856 0.28208 0.66253 0.0
C2273 C 0.49652 0.31756 0.71764 0.0
C2274 C 0.52035 0.29297 0.72161 0.0
C2275 C 0.55298 0.24762 0.69872 0.0
C2276 C 0.56303 0.22842 0.67146 0.0
C2277 C 0.53084 0.27427 0.69444 0.0
C2278 C 0.55214 0.23779 0.63981 0.0
C2279 C 0.52983 0.26383 0.63532 0.0
loop_
_geom_bond_atom_site_label_1
_geom_bond_atom_site_label_2
_geom_bond_distance
_geom_bond_site_symmetry_2
_ccdc_geom_bond_type
C0 O27 1.312 . S
C0 O28 1.208 . S
C1 O22 1.331 . S
C1 O25 1.244 . S
C2 O24 1.264 . S
C2 O26 1.273 . S
Mg3 O5 1.936 . S
Mg3 O12 2.081 . S
Mg3 O14 2.023 . S
Mg3 O18 2.031 . S
Mg3 O27 2.291 . S
Mg4 O5 1.963 . S
Mg4 O15 1.942 . S
Mg4 O16 1.955 . S
Mg4 O23 1.986 . S
O5 Mg3 1.936 . S
O5 Mg4 1.963 . S
O5 Mg6 1.915 . S
Mg6 O5 1.915 . S
Mg6 O7 1.915 . S
Mg6 O11 2.013 . S
Mg6 O17 2.114 . S
Mg6 O21 2.013 . S
Mg6 O27 2.114 . S
O7 Mg6 1.915 . S
O7 Mg8 1.936 . S
O7 Mg9 1.963 . S
Mg8 O7 1.936 . S
Mg8 O17 2.291 . S
Mg8 O22 2.081 . S
Mg8 O24 2.023 . S
Mg8 O28 2.031 . S
Mg9 O7 1.963 . S
Mg9 O13 1.986 . S
Mg9 O25 1.942 . S
Mg9 O26 1.955 . S
C10 O21 1.191 . S
C10 O23 1.307 . S
O11 Mg6 2.013 . S
O11 C30 1.191 . S
O12 Mg3 2.081 . S
O12 C20 1.331 . S
O13 Mg9 1.986 . S
O13 C30 1.307 . S
O14 Mg3 2.023 . S
O14 C29 1.264 . S
O15 Mg4 1.942 . S
O15 C20 1.244 . S
O16 Mg4 1.955 . S
O16 C29 1.273 . S
O17 Mg6 2.114 . S
O17 Mg8 2.291 . S
O17 C19 1.312 . S
O18 Mg3 2.031 . S
O18 C19 1.208 . S
C19 O17 1.312 . S
C19 O18 1.208 . S
C20 O12 1.331 . S
C20 O15 1.244 . S
O21 Mg6 2.013 . S
O21 C10 1.191 . S
O22 C1 1.331 . S
O22 Mg8 2.081 . S
O23 Mg4 1.986 . S
O23 C10 1.307 . S
O24 C2 1.264 . S
O24 Mg8 2.023 . S
O25 C1 1.244 . S
O25 Mg9 1.942 . S
O26 C2 1.273 . S
O26 Mg9 1.955 . S
O27 C0 1.312 . S
O27 Mg3 2.291 . S
O27 Mg6 2.114 . S
O28 C0 1.208 . S
O28 Mg8 2.031 . S
C29 O14 1.264 . S
C29 O16 1.273 . S
C30 O11 1.191 . S
C30 O13 1.307 . S
C31 O58 1.312 . S
C31 O59 1.208 . S
C32 O53 1.331 . S
C32 O56 1.244 . S
C33 O55 1.264 . S
C33 O57 1.273 . S
Mg34 O36 1.936 . S
Mg34 O43 2.081 . S
Mg34 O45 2.023 . S
Mg34 O49 2.031 . S
Mg34 O58 2.291 . S
Mg35 O36 1.963 . S
Mg35 O46 1.942 . S
Mg35 O47 1.955 . S
Mg35 O54 1.986 . S
O36 Mg34 1.936 . S
O36 Mg35 1.963 . S
O36 Mg37 1.915 . S
Mg37 O36 1.915 . S
Mg37 O38 1.915 . S
Mg37 O42 2.013 . S
Mg37 O48 2.114 . S
Mg37 O52 2.013 . S
Mg37 O58 2.114 . S
O38 Mg37 1.915 . S
O38 Mg39 1.936 . S
O38 Mg40 1.963 . S
Mg39 O38 1.936 . S
Mg39 O48 2.291 . S
Mg39 O53 2.081 . S
Mg39 O55 2.023 . S
Mg39 O59 2.031 . S
Mg40 O38 1.963 . S
Mg40 O44 1.986 . S
Mg40 O56 1.942 . S
Mg40 O57 1.955 . S
C41 O52 1.191 . S
C41 O54 1.307 . S
O42 Mg37 2.013 . S
O42 C61 1.191 . S
O43 Mg34 2.081 . S
O43 C51 1.331 . S
O44 Mg40 1.986 . S
O44 C61 1.307 . S
O45 Mg34 2.023 . S
O45 C60 1.264 . S
O46 Mg35 1.942 . S
O46 C51 1.244 . S
O47 Mg35 1.955 . S
O47 C60 1.273 . S
O48 Mg37 2.114 . S
O48 Mg39 2.291 . S
O48 C50 1.312 . S
O49 Mg34 2.031 . S
O49 C50 1.208 . S
C50 O48 1.312 . S
C50 O49 1.208 . S
C51 O43 1.331 . S
C51 O46 1.244 . S
O52 Mg37 2.013 . S
O52 C41 1.191 . S
O53 C32 1.331 . S
O53 Mg39 2.081 . S
O54 Mg35 1.986 . S
O54 C41 1.307 . S
O55 C33 1.264 . S
O55 Mg39 2.023 . S
O56 C32 1.244 . S
O56 Mg40 1.942 . S
O57 C33 1.273 . S
O57 Mg40 1.955 . S
O58 C31 1.312 . S
O58 Mg34 2.291 . S
O58 Mg37 2.114 . S
O59 C31 1.208 . S
O59 Mg39 2.031 . S
C60 O45 1.264 . S
C60 O47 1.273 . S
C61 O42 1.191 . S
C61 O44 1.307 . S
C62 O89 1.312 . S
C62 O90 1.208 . S
C63 O84 1.331 . S
C63 O87 1.244 . S
C64 O86 1.264 . S
C64 O88 1.273 . S
Mg65 O67 1.936 . S
Mg65 O74 2.081 . S
Mg65 O76 2.023 . S
Mg65 O80 2.031 . S
Mg65 O89 2.291 . S
Mg66 O67 1.963 . S
Mg66 O77 1.942 . S
Mg66 O78 1.955 . S
Mg66 O85 1.986 . S
O67 Mg65 1.936 . S
O67 Mg66 1.963 . S
O67 Mg68 1.915 . S
Mg68 O67 1.915 . S
Mg68 O69 1.915 . S
Mg68 O73 2.013 . S
Mg68 O79 2.114 . S
Mg68 O83 2.013 . S
Mg68 O89 2.114 . S
O69 Mg68 1.915 . S
O69 Mg70 1.936 . S
O69 Mg71 1.963 . S
Mg70 O69 1.936 . S
Mg70 O79 2.291 . S
Mg70 O84 2.081 . S
Mg70 O86 2.023 . S
Mg70 O90 2.031 . S
Mg71 O69 1.963 . S
Mg71 O75 1.986 . S
Mg71 O87 1.942 . S
Mg71 O88 1.955 . S
C72 O83 1.191 . S
C72 O85 1.307 . S
O73 Mg68 2.013 . S
O73 C92 1.191 . S
O74 Mg65 2.081 . S
O74 C82 1.331 . S
O75 Mg71 1.986 . S
O75 C92 1.307 . S
O76 Mg65 2.023 . S
O76 C91 1.264 . S
O77 Mg66 1.942 . S
O77 C82 1.244 . S
O78 Mg66 1.955 . S
O78 C91 1.273 . S
O79 Mg68 2.114 . S
O79 Mg70 2.291 . S
O79 C81 1.312 . S
O80 Mg65 2.031 . S
O80 C81 1.208 . S
C81 O79 1.312 . S
C81 O80 1.208 . S
C82 O74 1.331 . S
C82 O77 1.244 . S
O83 Mg68 2.013 . S
O83 C72 1.191 . S
O84 C63 1.331 . S
O84 Mg70 2.081 . S
O85 Mg66 1.986 . S
O85 C72 1.307 . S
O86 C64 1.264 . S
O86 Mg70 2.023 . S
O87 C63 1.244 . S
O87 Mg71 1.942 . S
O88 C64 1.273 . S
O88 Mg71 1.955 . S
O89 C62 1.312 . S
O89 Mg65 2.291 . S
O89 Mg68 2.114 . S
O90 C62 1.208 . S
O90 Mg70 2.031 . S
C91 O76 1.264 . S
C91 O78 1.273 . S
C92 O73 1.191 . S
C92 O75 1.307 . S
C93 O120 1.312 . S
C93 O121 1.208 . S
C94 O115 1.331 . S
C94 O118 1.244 . S
C95 O117 1.264 . S
C95 O119 1.273 . S
Mg96 O98 1.936 . S
Mg96 O105 2.081 . S
Mg96 O107 2.023 . S
Mg96 O111 2.031 . S
Mg96 O120 2.291 . S
Mg97 O98 1.963 . S
Mg97 O108 1.942 . S
Mg97 O109 1.955 . S
Mg97 O116 1.986 . S
O98 Mg96 1.936 . S
O98 Mg97 1.963 . S
O98 Mg99 1.915 . S
Mg99 O98 1.915 . S
Mg99 O100 1.915 . S
Mg99 O104 2.013 . S
Mg99 O110 2.114 . S
Mg99 O114 2.013 . S
Mg99 O120 2.114 . S
O100 Mg99 1.915 . S
O100 Mg101 1.936 . S
O100 Mg102 1.963 . S
Mg101 O100 1.936 . S
Mg101 O110 2.291 . S
Mg101 O115 2.081 . S
Mg101 O117 2.023 . S
Mg101 O121 2.031 . S
Mg102 O100 1.963 . S
Mg102 O106 1.986 . S
Mg102 O118 1.942 . S
Mg102 O119 1.955 . S
C103 O114 1.191 . S
C103 O116 1.307 . S
O104 Mg99 2.013 . S
O104 C123 1.191 . S
O105 Mg96 2.081 . S
O105 C113 1.331 . S
O106 Mg102 1.986 . S
O106 C123 1.307 . S
O107 Mg96 2.023 . S
O107 C122 1.264 . S
O108 Mg97 1.942 . S
O108 C113 1.244 . S
O109 Mg97 1.955 . S
O109 C122 1.273 . S
O110 Mg99 2.114 . S
O110 Mg101 2.291 . S
O110 C112 1.312 . S
O111 Mg96 2.031 . S
O111 C112 1.208 . S
C112 O110 1.312 . S
C112 O111 1.208 . S
C113 O105 1.331 . S
C113 O108 1.244 . S
O114 Mg99 2.013 . S
O114 C103 1.191 . S
O115 C94 1.331 . S
O115 Mg101 2.081 . S
O116 Mg97 1.986 . S
O116 C103 1.307 . S
O117 C95 1.264 . S
O117 Mg101 2.023 . S
O118 C94 1.244 . S
O118 Mg102 1.942 . S
O119 C95 1.273 . S
O119 Mg102 1.955 . S
O120 C93 1.312 . S
O120 Mg96 2.291 . S
O120 Mg99 2.114 . S
O121 C93 1.208 . S
O121 Mg101 2.031 . S
C122 O107 1.264 . S
C122 O109 1.273 . S
C123 O104 1.191 . S
C123 O106 1.307 . S
C124 O151 1.312 . S
C124 O152 1.208 . S
C125 O146 1.331 . S
C125 O149 1.244 . S
C126 O148 1.264 . S
C126 O150 1.273 . S
Mg127 O129 1.936 . S
Mg127 O136 2.081 . S
Mg127 O138 2.023 . S
Mg127 O142 2.031 . S
Mg127 O151 2.291 . S
Mg128 O129 1.963 . S
Mg128 O139 1.942 . S
Mg128 O140 1.955 . S
Mg128 O147 1.986 . S
O129 Mg127 1.936 . S
O129 Mg128 1.963 . S
O129 Mg130 1.915 . S
Mg130 O129 1.915 . S
Mg130 O131 1.915 . S
Mg130 O135 2.013 . S
Mg130 O141 2.114 . S
Mg130 O145 2.013 . S
Mg130 O151 2.114 . S
O131 Mg130 1.915 . S
O131 Mg132 1.936 . S
O131 Mg133 1.963 . S
Mg132 O131 1.936 . S
Mg132 O141 2.291 . S
Mg132 O146 2.081 . S
Mg132 O148 2.023 . S
Mg132 O152 2.031 . S
Mg133 O131 1.963 . S
Mg133 O137 1.986 . S
Mg133 O149 1.942 . S
Mg133 O150 1.955 . S
C134 O145 1.191 . S
C134 O147 1.307 . S
O135 Mg130 2.013 . S
O135 C154 1.191 . S
O136 Mg127 2.081 . S
O136 C144 1.331 . S
O137 Mg133 1.986 . S
O137 C154 1.307 . S
O138 Mg127 2.023 . S
O138 C153 1.264 . S
O139 Mg128 1.942 . S
O139 C144 1.244 . S
O140 Mg128 1.955 . S
O140 C153 1.273 . S
O141 Mg130 2.114 . S
O141 Mg132 2.291 . S
O141 C143 1.312 . S
O142 Mg127 2.031 . S
O142 C143 1.208 . S
C143 O141 1.312 . S
C143 O142 1.208 . S
C144 O136 1.331 . S
C144 O139 1.244 . S
O145 Mg130 2.013 . S
O145 C134 1.191 . S
O146 C125 1.331 . S
O146 Mg132 2.081 . S
O147 Mg128 1.986 . S
O147 C134 1.307 . S
O148 C126 1.264 . S
O148 Mg132 2.023 . S
O149 C125 1.244 . S
O149 Mg133 1.942 . S
O150 C126 1.273 . S
O150 Mg133 1.955 . S
O151 C124 1.312 . S
O151 Mg127 2.291 . S
O151 Mg130 2.114 . S
O152 C124 1.208 . S
O152 Mg132 2.031 . S
C153 O138 1.264 . S
C153 O140 1.273 . S
C154 O135 1.191 . S
C154 O137 1.307 . S
C155 O182 1.312 . S
C155 O183 1.208 . S
C156 O177 1.331 . S
C156 O180 1.244 . S
C157 O179 1.264 . S
C157 O181 1.273 . S
Mg158 O160 1.936 . S
Mg158 O167 2.081 . S
Mg158 O169 2.023 . S
Mg158 O173 2.031 . S
Mg158 O182 2.291 . S
Mg159 O160 1.963 . S
Mg159 O170 1.942 . S
Mg159 O171 1.955 . S
Mg159 O178 1.986 . S
O160 Mg158 1.936 . S
O160 Mg159 1.963 . S
O160 Mg161 1.915 . S
Mg161 O160 1.915 . S
Mg161 O162 1.915 . S
Mg161 O166 2.013 . S
Mg161 O172 2.114 . S
Mg161 O176 2.013 . S
Mg161 O182 2.114 . S
O162 Mg161 1.915 . S
O162 Mg163 1.936 . S
O162 Mg164 1.963 . S
Mg163 O162 1.936 . S
Mg163 O172 2.291 . S
Mg163 O177 2.081 . S
Mg163 O179 2.023 . S
Mg163 O183 2.031 . S
Mg164 O162 1.963 . S
Mg164 O168 1.986 . S
Mg164 O180 1.942 . S
Mg164 O181 1.955 . S
C165 O176 1.191 . S
C165 O178 1.307 . S
O166 Mg161 2.013 . S
O166 C185 1.191 . S
O167 Mg158 2.081 . S
O167 C175 1.331 . S
O168 Mg164 1.986 . S
O168 C185 1.307 . S
O169 Mg158 2.023 . S
O169 C184 1.264 . S
O170 Mg159 1.942 . S
O170 C175 1.244 . S
O171 Mg159 1.955 . S
O171 C184 1.273 . S
O172 Mg161 2.114 . S
O172 Mg163 2.291 . S
O172 C174 1.312 . S
O173 Mg158 2.031 . S
O173 C174 1.208 . S
C174 O172 1.312 . S
C174 O173 1.208 . S
C175 O167 1.331 . S
C175 O170 1.244 . S
O176 Mg161 2.013 . S
O176 C165 1.191 . S
O177 C156 1.331 . S
O177 Mg163 2.081 . S
O178 Mg159 1.986 . S
O178 C165 1.307 . S
O179 C157 1.264 . S
O179 Mg163 2.023 . S
O180 C156 1.244 . S
O180 Mg164 1.942 . S
O181 C157 1.273 . S
O181 Mg164 1.955 . S
O182 C155 1.312 . S
O182 Mg158 2.291 . S
O182 Mg161 2.114 . S
O183 C155 1.208 . S
O183 Mg163 2.031 . S
C184 O169 1.264 . S
C184 O171 1.273 . S
C185 O166 1.191 . S
C185 O168 1.307 . S
C186 O213 1.312 . S
C186 O214 1.208 . S
C187 O208 1.331 . S
C187 O211 1.244 . S
C188 O210 1.264 . S
C188 O212 1.273 . S
Mg189 O191 1.936 . S
Mg189 O198 2.081 . S
Mg189 O200 2.023 . S
Mg189 O204 2.031 . S
Mg189 O213 2.291 . S
Mg190 O191 1.963 . S
Mg190 O201 1.942 . S
Mg190 O202 1.955 . S
Mg190 O209 1.986 . S
O191 Mg189 1.936 . S
O191 Mg190 1.963 . S
O191 Mg192 1.915 . S
Mg192 O191 1.915 . S
Mg192 O193 1.915 . S
Mg192 O197 2.013 . S
Mg192 O203 2.114 . S
Mg192 O207 2.013 . S
Mg192 O213 2.114 . S
O193 Mg192 1.915 . S
O193 Mg194 1.936 . S
O193 Mg195 1.963 . S
Mg194 O193 1.936 . S
Mg194 O203 2.291 . S
Mg194 O208 2.081 . S
Mg194 O210 2.023 . S
Mg194 O214 2.031 . S
Mg195 O193 1.963 . S
Mg195 O199 1.986 . S
Mg195 O211 1.942 . S
Mg195 O212 1.955 . S
C196 O207 1.191 . S
C196 O209 1.307 . S
O197 Mg192 2.013 . S
O197 C216 1.191 . S
O198 Mg189 2.081 . S
O198 C206 1.331 . S
O199 Mg195 1.986 . S
O199 C216 1.307 . S
O200 Mg189 2.023 . S
O200 C215 1.264 . S
O201 Mg190 1.942 . S
O201 C206 1.244 . S
O202 Mg190 1.955 . S
O202 C215 1.273 . S
O203 Mg192 2.114 . S
O203 Mg194 2.291 . S
O203 C205 1.312 . S
O204 Mg189 2.031 . S
O204 C205 1.208 . S
C205 O203 1.312 . S
C205 O204 1.208 . S
C206 O198 1.331 . S
C206 O201 1.244 . S
O207 Mg192 2.013 . S
O207 C196 1.191 . S
O208 C187 1.331 . S
O208 Mg194 2.081 . S
O209 Mg190 1.986 . S
O209 C196 1.307 . S
O210 C188 1.264 . S
O210 Mg194 2.023 . S
O211 C187 1.244 . S
O211 Mg195 1.942 . S
O212 C188 1.273 . S
O212 Mg195 1.955 . S
O213 C186 1.312 . S
O213 Mg189 2.291 . S
O213 Mg192 2.114 . S
O214 C186 1.208 . S
O214 Mg194 2.031 . S
C215 O200 1.264 . S
C215 O202 1.273 . S
C216 O197 1.191 . S
C216 O199 1.307 . S
C217 O244 1.312 . S
C217 O245 1.208 . S
C218 O239 1.331 . S
C218 O242 1.244 . S
C219 O241 1.264 . S
C219 O243 1.273 . S
Mg220 O222 1.936 . S
Mg220 O229 2.081 . S
Mg220 O231 2.023 . S
Mg220 O235 2.031 . S
Mg220 O244 2.291 . S
Mg221 O222 1.963 . S
Mg221 O232 1.942 . S
Mg221 O233 1.955 . S
Mg221 O240 1.986 . S
O222 Mg220 1.936 . S
O222 Mg221 1.963 . S
O222 Mg223 1.915 . S
Mg223 O222 1.915 . S
Mg223 O224 1.915 . S
Mg223 O228 2.013 . S
Mg223 O234 2.114 . S
Mg223 O238 2.013 . S
Mg223 O244 2.114 . S
O224 Mg223 1.915 . S
O224 Mg225 1.936 . S
O224 Mg226 1.963 . S
Mg225 O224 1.936 . S
Mg225 O234 2.291 . S
Mg225 O239 2.081 . S
Mg225 O241 2.023 . S
Mg225 O245 2.031 . S
Mg226 O224 1.963 . S
Mg226 O230 1.986 . S
Mg226 O242 1.942 . S
Mg226 O243 1.955 . S
C227 O238 1.191 . S
C227 O240 1.307 . S
O228 Mg223 2.013 . S
O228 C247 1.191 . S
O229 Mg220 2.081 . S
O229 C237 1.331 . S
O230 Mg226 1.986 . S
O230 C247 1.307 . S
O231 Mg220 2.023 . S
O231 C246 1.264 . S
O232 Mg221 1.942 . S
O232 C237 1.244 . S
O233 Mg221 1.955 . S
O233 C246 1.273 . S
O234 Mg223 2.114 . S
O234 Mg225 2.291 . S
O234 C236 1.312 . S
O235 Mg220 2.031 . S
O235 C236 1.208 . S
C236 O234 1.312 . S
C236 O235 1.208 . S
C237 O229 1.331 . S
C237 O232 1.244 . S
O238 Mg223 2.013 . S
O238 C227 1.191 . S
O239 C218 1.331 . S
O239 Mg225 2.081 . S
O240 Mg221 1.986 . S
O240 C227 1.307 . S
O241 C219 1.264 . S
O241 Mg225 2.023 . S
O242 C218 1.244 . S
O242 Mg226 1.942 . S
O243 C219 1.273 . S
O243 Mg226 1.955 . S
O244 C217 1.312 . S
O244 Mg220 2.291 . S
O244 Mg223 2.114 . S
O245 C217 1.208 . S
O245 Mg225 2.031 . S
C246 O231 1.264 . S
C246 O233 1.273 . S
C247 O228 1.191 . S
C247 O230 1.307 . S
C248 O275 1.312 . S
C248 O276 1.208 . S
C249 O270 1.331 . S
C249 O273 1.244 . S
C250 O272 1.264 . S
C250 O274 1.273 . S
Mg251 O253 1.936 . S
Mg251 O260 2.081 . S
Mg251 O262 2.023 . S
Mg251 O266 2.031 . S
Mg251 O275 2.291 . S
Mg252 O253 1.963 . S
Mg252 O263 1.942 . S
Mg252 O264 1.955 . S
Mg252 O271 1.986 . S
O253 Mg251 1.936 . S
O253 Mg252 1.963 . S
O253 Mg254 1.915 . S
Mg254 O253 1.915 . S
Mg254 O255 1.915 . S
Mg254 O259 2.013 . S
Mg254 O265 2.114 . S
Mg254 O269 2.013 . S
Mg254 O275 2.114 . S
O255 Mg254 1.915 . S
O255 Mg256 1.936 . S
O255 Mg257 1.963 . S
Mg256 O255 1.936 . S
Mg256 O265 2.291 . S
Mg256 O270 2.081 . S
Mg256 O272 2.023 . S
Mg256 O276 2.031 . S
Mg257 O255 1.963 . S
Mg257 O261 1.986 . S
Mg257 O273 1.942 . S
Mg257 O274 1.955 . S
C258 O269 1.191 . S
C258 O271 1.307 . S
O259 Mg254 2.013 . S
O259 C278 1.191 . S
O260 Mg251 2.081 . S
O260 C268 1.331 . S
O261 Mg257 1.986 . S
O261 C278 1.307 . S
O262 Mg251 2.023 . S
O262 C277 1.264 . S
O263 Mg252 1.942 . S
O263 C268 1.244 . S
O264 Mg252 1.955 . S
O264 C277 1.273 . S
O265 Mg254 2.114 . S
O265 Mg256 2.291 . S
O265 C267 1.312 . S
O266 Mg251 2.031 . S
O266 C267 1.208 . S
C267 O265 1.312 . S
C267 O266 1.208 . S
C268 O260 1.331 . S
C268 O263 1.244 . S
O269 Mg254 2.013 . S
O269 C258 1.191 . S
O270 C249 1.331 . S
O270 Mg256 2.081 . S
O271 Mg252 1.986 . S
O271 C258 1.307 . S
O272 C250 1.264 . S
O272 Mg256 2.023 . S
O273 C249 1.244 . S
O273 Mg257 1.942 . S
O274 C250 1.273 . S
O274 Mg257 1.955 . S
O275 C248 1.312 . S
O275 Mg251 2.291 . S
O275 Mg254 2.114 . S
O276 C248 1.208 . S
O276 Mg256 2.031 . S
C277 O262 1.264 . S
C277 O264 1.273 . S
C278 O259 1.191 . S
C278 O261 1.307 . S
C279 O306 1.312 . S
C279 O307 1.208 . S
C280 O301 1.331 . S
C280 O304 1.244 . S
C281 O303 1.264 . S
C281 O305 1.273 . S
Mg282 O284 1.936 . S
Mg282 O291 2.081 . S
Mg282 O293 2.023 . S
Mg282 O297 2.031 . S
Mg282 O306 2.291 . S
Mg283 O284 1.963 . S
Mg283 O294 1.942 . S
Mg283 O295 1.955 . S
Mg283 O302 1.986 . S
O284 Mg282 1.936 . S
O284 Mg283 1.963 . S
O284 Mg285 1.915 . S
Mg285 O284 1.915 . S
Mg285 O286 1.915 . S
Mg285 O290 2.013 . S
Mg285 O296 2.114 . S
Mg285 O300 2.013 . S
Mg285 O306 2.114 . S
O286 Mg285 1.915 . S
O286 Mg287 1.936 . S
O286 Mg288 1.963 . S
Mg287 O286 1.936 . S
Mg287 O296 2.291 . S
Mg287 O301 2.081 . S
Mg287 O303 2.023 . S
Mg287 O307 2.031 . S
Mg288 O286 1.963 . S
Mg288 O292 1.986 . S
Mg288 O304 1.942 . S
Mg288 O305 1.955 . S
C289 O300 1.191 . S
C289 O302 1.307 . S
O290 Mg285 2.013 . S
O290 C309 1.191 . S
O291 Mg282 2.081 . S
O291 C299 1.331 . S
O292 Mg288 1.986 . S
O292 C309 1.307 . S
O293 Mg282 2.023 . S
O293 C308 1.264 . S
O294 Mg283 1.942 . S
O294 C299 1.244 . S
O295 Mg283 1.955 . S
O295 C308 1.273 . S
O296 Mg285 2.114 . S
O296 Mg287 2.291 . S
O296 C298 1.312 . S
O297 Mg282 2.031 . S
O297 C298 1.208 . S
C298 O296 1.312 . S
C298 O297 1.208 . S
C299 O291 1.331 . S
C299 O294 1.244 . S
O300 Mg285 2.013 . S
O300 C289 1.191 . S
O301 C280 1.331 . S
O301 Mg287 2.081 . S
O302 Mg283 1.986 . S
O302 C289 1.307 . S
O303 C281 1.264 . S
O303 Mg287 2.023 . S
O304 C280 1.244 . S
O304 Mg288 1.942 . S
O305 C281 1.273 . S
O305 Mg288 1.955 . S
O306 C279 1.312 . S
O306 Mg282 2.291 . S
O306 Mg285 2.114 . S
O307 C279 1.208 . S
O307 Mg287 2.031 . S
C308 O293 1.264 . S
C308 O295 1.273 . S
C309 O290 1.191 . S
C309 O292 1.307 . S
C310 O337 1.312 . S
C310 O338 1.208 . S
C311 O332 1.331 . S
C311 O335 1.244 . S
C312 O334 1.264 . S
C312 O336 1.273 . S
Mg313 O315 1.936 . S
Mg313 O322 2.081 . S
Mg313 O324 2.023 . S
Mg313 O328 2.031 . S
Mg313 O337 2.291 . S
Mg314 O315 1.963 . S
Mg314 O325 1.942 . S
Mg314 O326 1.955 . S
Mg314 O333 1.986 . S
O315 Mg313 1.936 . S
O315 Mg314 1.963 . S
O315 Mg316 1.915 . S
Mg316 O315 1.915 . S
Mg316 O317 1.915 . S
Mg316 O321 2.013 . S
Mg316 O327 2.114 . S
Mg316 O331 2.013 . S
Mg316 O337 2.114 . S
O317 Mg316 1.915 . S
O317 Mg318 1.936 . S
O317 Mg319 1.963 . S
Mg318 O317 1.936 . S
Mg318 O327 2.291 . S
Mg318 O332 2.081 . S
Mg318 O334 2.023 . S
Mg318 O338 2.031 . S
Mg319 O317 1.963 . S
Mg319 O323 1.986 . S
Mg319 O335 1.942 . S
Mg319 O336 1.955 . S
C320 O331 1.191 . S
C320 O333 1.307 . S
O321 Mg316 2.013 . S
O321 C340 1.191 . S
O322 Mg313 2.081 . S
O322 C330 1.331 . S
O323 Mg319 1.986 . S
O323 C340 1.307 . S
O324 Mg313 2.023 . S
O324 C339 1.264 . S
O325 Mg314 1.942 . S
O325 C330 1.244 . S
O326 Mg314 1.955 . S
O326 C339 1.273 . S
O327 Mg316 2.114 . S
O327 Mg318 2.291 . S
O327 C329 1.312 . S
O328 Mg313 2.031 . S
O328 C329 1.208 . S
C329 O327 1.312 . S
C329 O328 1.208 . S
C330 O322 1.331 . S
C330 O325 1.244 . S
O331 Mg316 2.013 . S
O331 C320 1.191 . S
O332 C311 1.331 . S
O332 Mg318 2.081 . S
O333 Mg314 1.986 . S
O333 C320 1.307 . S
O334 C312 1.264 . S
O334 Mg318 2.023 . S
O335 C311 1.244 . S
O335 Mg319 1.942 . S
O336 C312 1.273 . S
O336 Mg319 1.955 . S
O337 C310 1.312 . S
O337 Mg313 2.291 . S
O337 Mg316 2.114 . S
O338 C310 1.208 . S
O338 Mg318 2.031 . S
C339 O324 1.264 . S
C339 O326 1.273 . S
C340 O321 1.191 . S
C340 O323 1.307 . S
C341 O368 1.312 . S
C341 O369 1.208 . S
C342 O363 1.331 . S
C342 O366 1.244 . S
C343 O365 1.264 . S
C343 O367 1.273 . S
Mg344 O346 1.936 . S
Mg344 O353 2.081 . S
Mg344 O355 2.023 . S
Mg344 O359 2.031 . S
Mg344 O368 2.291 . S
Mg345 O346 1.963 . S
Mg345 O356 1.942 . S
Mg345 O357 1.955 . S
Mg345 O364 1.986 . S
O346 Mg344 1.936 . S
O346 Mg345 1.963 . S
O346 Mg347 1.915 . S
Mg347 O346 1.915 . S
Mg347 O348 1.915 . S
Mg347 O352 2.013 . S
Mg347 O358 2.114 . S
Mg347 O362 2.013 . S
Mg347 O368 2.114 . S
O348 Mg347 1.915 . S
O348 Mg349 1.936 . S
O348 Mg350 1.963 . S
Mg349 O348 1.936 . S
Mg349 O358 2.291 . S
Mg349 O363 2.081 . S
Mg349 O365 2.023 . S
Mg349 O369 2.031 . S
Mg350 O348 1.963 . S
Mg350 O354 1.986 . S
Mg350 O366 1.942 . S
Mg350 O367 1.955 . S
C351 O362 1.191 . S
C351 O364 1.307 . S
O352 Mg347 2.013 . S
O352 C371 1.191 . S
O353 Mg344 2.081 . S
O353 C361 1.331 . S
O354 Mg350 1.986 . S
O354 C371 1.307 . S
O355 Mg344 2.023 . S
O355 C370 1.264 . S
O356 Mg345 1.942 . S
O356 C361 1.244 . S
O357 Mg345 1.955 . S
O357 C370 1.273 . S
O358 Mg347 2.114 . S
O358 Mg349 2.291 . S
O358 C360 1.312 . S
O359 Mg344 2.031 . S
O359 C360 1.208 . S
C360 O358 1.312 . S
C360 O359 1.208 . S
C361 O353 1.331 . S
C361 O356 1.244 . S
O362 Mg347 2.013 . S
O362 C351 1.191 . S
O363 C342 1.331 . S
O363 Mg349 2.081 . S
O364 Mg345 1.986 . S
O364 C351 1.307 . S
O365 C343 1.264 . S
O365 Mg349 2.023 . S
O366 C342 1.244 . S
O366 Mg350 1.942 . S
O367 C343 1.273 . S
O367 Mg350 1.955 . S
O368 C341 1.312 . S
O368 Mg344 2.291 . S
O368 Mg347 2.114 . S
O369 C341 1.208 . S
O369 Mg349 2.031 . S
C370 O355 1.264 . S
C370 O357 1.273 . S
C371 O352 1.191 . S
C371 O354 1.307 . S
C372 O399 1.312 . S
C372 O400 1.208 . S
C373 O394 1.331 . S
C373 O397 1.244 . S
C374 O396 1.264 . S
C374 O398 1.273 . S
Mg375 O377 1.936 . S
Mg375 O384 2.081 . S
Mg375 O386 2.023 . S
Mg375 O390 2.031 . S
Mg375 O399 2.291 . S
Mg376 O377 1.963 . S
Mg376 O387 1.942 . S
Mg376 O388 1.955 . S
Mg376 O395 1.986 . S
O377 Mg375 1.936 . S
O377 Mg376 1.963 . S
O377 Mg378 1.915 . S
Mg378 O377 1.915 . S
Mg378 O379 1.915 . S
Mg378 O383 2.013 . S
Mg378 O389 2.114 . S
Mg378 O393 2.013 . S
Mg378 O399 2.114 . S
O379 Mg378 1.915 . S
O379 Mg380 1.936 . S
O379 Mg381 1.963 . S
Mg380 O379 1.936 . S
Mg380 O389 2.291 . S
Mg380 O394 2.081 . S
Mg380 O396 2.023 . S
Mg380 O400 2.031 . S
Mg381 O379 1.963 . S
Mg381 O385 1.986 . S
Mg381 O397 1.942 . S
Mg381 O398 1.955 . S
C382 O393 1.191 . S
C382 O395 1.307 . S
O383 Mg378 2.013 . S
O383 C402 1.191 . S
O384 Mg375 2.081 . S
O384 C392 1.331 . S
O385 Mg381 1.986 . S
O385 C402 1.307 . S
O386 Mg375 2.023 . S
O386 C401 1.264 . S
O387 Mg376 1.942 . S
O387 C392 1.244 . S
O388 Mg376 1.955 . S
O388 C401 1.273 . S
O389 Mg378 2.114 . S
O389 Mg380 2.291 . S
O389 C391 1.312 . S
O390 Mg375 2.031 . S
O390 C391 1.208 . S
C391 O389 1.312 . S
C391 O390 1.208 . S
C392 O384 1.331 . S
C392 O387 1.244 . S
O393 Mg378 2.013 . S
O393 C382 1.191 . S
O394 C373 1.331 . S
O394 Mg380 2.081 . S
O395 Mg376 1.986 . S
O395 C382 1.307 . S
O396 C374 1.264 . S
O396 Mg380 2.023 . S
O397 C373 1.244 . S
O397 Mg381 1.942 . S
O398 C374 1.273 . S
O398 Mg381 1.955 . S
O399 C372 1.312 . S
O399 Mg375 2.291 . S
O399 Mg378 2.114 . S
O400 C372 1.208 . S
O400 Mg380 2.031 . S
C401 O386 1.264 . S
C401 O388 1.273 . S
C402 O383 1.191 . S
C402 O385 1.307 . S
C403 O430 1.312 . S
C403 O431 1.208 . S
C404 O425 1.331 . S
C404 O428 1.244 . S
C405 O427 1.264 . S
C405 O429 1.273 . S
Mg406 O408 1.936 . S
Mg406 O415 2.081 . S
Mg406 O417 2.023 . S
Mg406 O421 2.031 . S
Mg406 O430 2.291 . S
Mg407 O408 1.963 . S
Mg407 O418 1.942 . S
Mg407 O419 1.955 . S
Mg407 O426 1.986 . S
O408 Mg406 1.936 . S
O408 Mg407 1.963 . S
O408 Mg409 1.915 . S
Mg409 O408 1.915 . S
Mg409 O410 1.915 . S
Mg409 O414 2.013 . S
Mg409 O420 2.114 . S
Mg409 O424 2.013 . S
Mg409 O430 2.114 . S
O410 Mg409 1.915 . S
O410 Mg411 1.936 . S
O410 Mg412 1.963 . S
Mg411 O410 1.936 . S
Mg411 O420 2.291 . S
Mg411 O425 2.081 . S
Mg411 O427 2.023 . S
Mg411 O431 2.031 . S
Mg412 O410 1.963 . S
Mg412 O416 1.986 . S
Mg412 O428 1.942 . S
Mg412 O429 1.955 . S
C413 O424 1.191 . S
C413 O426 1.307 . S
O414 Mg409 2.013 . S
O414 C433 1.191 . S
O415 Mg406 2.081 . S
O415 C423 1.331 . S
O416 Mg412 1.986 . S
O416 C433 1.307 . S
O417 Mg406 2.023 . S
O417 C432 1.264 . S
O418 Mg407 1.942 . S
O418 C423 1.244 . S
O419 Mg407 1.955 . S
O419 C432 1.273 . S
O420 Mg409 2.114 . S
O420 Mg411 2.291 . S
O420 C422 1.312 . S
O421 Mg406 2.031 . S
O421 C422 1.208 . S
C422 O420 1.312 . S
C422 O421 1.208 . S
C423 O415 1.331 . S
C423 O418 1.244 . S
O424 Mg409 2.013 . S
O424 C413 1.191 . S
O425 C404 1.331 . S
O425 Mg411 2.081 . S
O426 Mg407 1.986 . S
O426 C413 1.307 . S
O427 C405 1.264 . S
O427 Mg411 2.023 . S
O428 C404 1.244 . S
O428 Mg412 1.942 . S
O429 C405 1.273 . S
O429 Mg412 1.955 . S
O430 C403 1.312 . S
O430 Mg406 2.291 . S
O430 Mg409 2.114 . S
O431 C403 1.208 . S
O431 Mg411 2.031 . S
C432 O417 1.264 . S
C432 O419 1.273 . S
C433 O414 1.191 . S
C433 O416 1.307 . S
C434 O461 1.312 . S
C434 O462 1.208 . S
C435 O456 1.331 . S
C435 O459 1.244 . S
C436 O458 1.264 . S
C436 O460 1.273 . S
Mg437 O439 1.936 . S
Mg437 O446 2.081 . S
Mg437 O448 2.023 . S
Mg437 O452 2.031 . S
Mg437 O461 2.291 . S
Mg438 O439 1.963 . S
Mg438 O449 1.942 . S
Mg438 O450 1.955 . S
Mg438 O457 1.986 . S
O439 Mg437 1.936 . S
O439 Mg438 1.963 . S
O439 Mg440 1.915 . S
Mg440 O439 1.915 . S
Mg440 O441 1.915 . S
Mg440 O445 2.013 . S
Mg440 O451 2.114 . S
Mg440 O455 2.013 . S
Mg440 O461 2.114 . S
O441 Mg440 1.915 . S
O441 Mg442 1.936 . S
O441 Mg443 1.963 . S
Mg442 O441 1.936 . S
Mg442 O451 2.291 . S
Mg442 O456 2.081 . S
Mg442 O458 2.023 . S
Mg442 O462 2.031 . S
Mg443 O441 1.963 . S
Mg443 O447 1.986 . S
Mg443 O459 1.942 . S
Mg443 O460 1.955 . S
C444 O455 1.191 . S
C444 O457 1.307 . S
O445 Mg440 2.013 . S
O445 C464 1.191 . S
O446 Mg437 2.081 . S
O446 C454 1.331 . S
O447 Mg443 1.986 . S
O447 C464 1.307 . S
O448 Mg437 2.023 . S
O448 C463 1.264 . S
O449 Mg438 1.942 . S
O449 C454 1.244 . S
O450 Mg438 1.955 . S
O450 C463 1.273 . S
O451 Mg440 2.114 . S
O451 Mg442 2.291 . S
O451 C453 1.312 . S
O452 Mg437 2.031 . S
O452 C453 1.208 . S
C453 O451 1.312 . S
C453 O452 1.208 . S
C454 O446 1.331 . S
C454 O449 1.244 . S
O455 Mg440 2.013 . S
O455 C444 1.191 . S
O456 C435 1.331 . S
O456 Mg442 2.081 . S
O457 Mg438 1.986 . S
O457 C444 1.307 . S
O458 C436 1.264 . S
O458 Mg442 2.023 . S
O459 C435 1.244 . S
O459 Mg443 1.942 . S
O460 C436 1.273 . S
O460 Mg443 1.955 . S
O461 C434 1.312 . S
O461 Mg437 2.291 . S
O461 Mg440 2.114 . S
O462 C434 1.208 . S
O462 Mg442 2.031 . S
C463 O448 1.264 . S
C463 O450 1.273 . S
C464 O445 1.191 . S
C464 O447 1.307 . S
C465 O492 1.312 . S
C465 O493 1.208 . S
C466 O487 1.331 . S
C466 O490 1.244 . S
C467 O489 1.264 . S
C467 O491 1.273 . S
Mg468 O470 1.936 . S
Mg468 O477 2.081 . S
Mg468 O479 2.023 . S
Mg468 O483 2.031 . S
Mg468 O492 2.291 . S
Mg469 O470 1.963 . S
Mg469 O480 1.942 . S
Mg469 O481 1.955 . S
Mg469 O488 1.986 . S
O470 Mg468 1.936 . S
O470 Mg469 1.963 . S
O470 Mg471 1.915 . S
Mg471 O470 1.915 . S
Mg471 O472 1.915 . S
Mg471 O476 2.013 . S
Mg471 O482 2.114 . S
Mg471 O486 2.013 . S
Mg471 O492 2.114 . S
O472 Mg471 1.915 . S
O472 Mg473 1.936 . S
O472 Mg474 1.963 . S
Mg473 O472 1.936 . S
Mg473 O482 2.291 . S
Mg473 O487 2.081 . S
Mg473 O489 2.023 . S
Mg473 O493 2.031 . S
Mg474 O472 1.963 . S
Mg474 O478 1.986 . S
Mg474 O490 1.942 . S
Mg474 O491 1.955 . S
C475 O486 1.191 . S
C475 O488 1.307 . S
O476 Mg471 2.013 . S
O476 C495 1.191 . S
O477 Mg468 2.081 . S
O477 C485 1.331 . S
O478 Mg474 1.986 . S
O478 C495 1.307 . S
O479 Mg468 2.023 . S
O479 C494 1.264 . S
O480 Mg469 1.942 . S
O480 C485 1.244 . S
O481 Mg469 1.955 . S
O481 C494 1.273 . S
O482 Mg471 2.114 . S
O482 Mg473 2.291 . S
O482 C484 1.312 . S
O483 Mg468 2.031 . S
O483 C484 1.208 . S
C484 O482 1.312 . S
C484 O483 1.208 . S
C485 O477 1.331 . S
C485 O480 1.244 . S
O486 Mg471 2.013 . S
O486 C475 1.191 . S
O487 C466 1.331 . S
O487 Mg473 2.081 . S
O488 Mg469 1.986 . S
O488 C475 1.307 . S
O489 C467 1.264 . S
O489 Mg473 2.023 . S
O490 C466 1.244 . S
O490 Mg474 1.942 . S
O491 C467 1.273 . S
O491 Mg474 1.955 . S
O492 C465 1.312 . S
O492 Mg468 2.291 . S
O492 Mg471 2.114 . S
O493 C465 1.208 . S
O493 Mg473 2.031 . S
C494 O479 1.264 . S
C494 O481 1.273 . S
C495 O476 1.191 . S
C495 O478 1.307 . S
C496 O523 1.312 . S
C496 O524 1.208 . S
C497 O518 1.331 . S
C497 O521 1.244 . S
C498 O520 1.264 . S
C498 O522 1.273 . S
Mg499 O501 1.936 . S
Mg499 O508 2.081 . S
Mg499 O510 2.023 . S
Mg499 O514 2.031 . S
Mg499 O523 2.291 . S
Mg500 O501 1.963 . S
Mg500 O511 1.942 . S
Mg500 O512 1.955 . S
Mg500 O519 1.986 . S
O501 Mg499 1.936 . S
O501 Mg500 1.963 . S
O501 Mg502 1.915 . S
Mg502 O501 1.915 . S
Mg502 O503 1.915 . S
Mg502 O507 2.013 . S
Mg502 O513 2.114 . S
Mg502 O517 2.013 . S
Mg502 O523 2.114 . S
O503 Mg502 1.915 . S
O503 Mg504 1.936 . S
O503 Mg505 1.963 . S
Mg504 O503 1.936 . S
Mg504 O513 2.291 . S
Mg504 O518 2.081 . S
Mg504 O520 2.023 . S
Mg504 O524 2.031 . S
Mg505 O503 1.963 . S
Mg505 O509 1.986 . S
Mg505 O521 1.942 . S
Mg505 O522 1.955 . S
C506 O517 1.191 . S
C506 O519 1.307 . S
O507 Mg502 2.013 . S
O507 C526 1.191 . S
O508 Mg499 2.081 . S
O508 C516 1.331 . S
O509 Mg505 1.986 . S
O509 C526 1.307 . S
O510 Mg499 2.023 . S
O510 C525 1.264 . S
O511 Mg500 1.942 . S
O511 C516 1.244 . S
O512 Mg500 1.955 . S
O512 C525 1.273 . S
O513 Mg502 2.114 . S
O513 Mg504 2.291 . S
O513 C515 1.312 . S
O514 Mg499 2.031 . S
O514 C515 1.208 . S
C515 O513 1.312 . S
C515 O514 1.208 . S
C516 O508 1.331 . S
C516 O511 1.244 . S
O517 Mg502 2.013 . S
O517 C506 1.191 . S
O518 C497 1.331 . S
O518 Mg504 2.081 . S
O519 Mg500 1.986 . S
O519 C506 1.307 . S
O520 C498 1.264 . S
O520 Mg504 2.023 . S
O521 C497 1.244 . S
O521 Mg505 1.942 . S
O522 C498 1.273 . S
O522 Mg505 1.955 . S
O523 C496 1.312 . S
O523 Mg499 2.291 . S
O523 Mg502 2.114 . S
O524 C496 1.208 . S
O524 Mg504 2.031 . S
C525 O510 1.264 . S
C525 O512 1.273 . S
C526 O507 1.191 . S
C526 O509 1.307 . S
C527 O554 1.312 . S
C527 O555 1.208 . S
C528 O549 1.331 . S
C528 O552 1.244 . S
C529 O551 1.264 . S
C529 O553 1.273 . S
Mg530 O532 1.936 . S
Mg530 O539 2.081 . S
Mg530 O541 2.023 . S
Mg530 O545 2.031 . S
Mg530 O554 2.291 . S
Mg531 O532 1.963 . S
Mg531 O542 1.942 . S
Mg531 O543 1.955 . S
Mg531 O550 1.986 . S
O532 Mg530 1.936 . S
O532 Mg531 1.963 . S
O532 Mg533 1.915 . S
Mg533 O532 1.915 . S
Mg533 O534 1.915 . S
Mg533 O538 2.013 . S
Mg533 O544 2.114 . S
Mg533 O548 2.013 . S
Mg533 O554 2.114 . S
O534 Mg533 1.915 . S
O534 Mg535 1.936 . S
O534 Mg536 1.963 . S
Mg535 O534 1.936 . S
Mg535 O544 2.291 . S
Mg535 O549 2.081 . S
Mg535 O551 2.023 . S
Mg535 O555 2.031 . S
Mg536 O534 1.963 . S
Mg536 O540 1.986 . S
Mg536 O552 1.942 . S
Mg536 O553 1.955 . S
C537 O548 1.191 . S
C537 O550 1.307 . S
O538 Mg533 2.013 . S
O538 C557 1.191 . S
O539 Mg530 2.081 . S
O539 C547 1.331 . S
O540 Mg536 1.986 . S
O540 C557 1.307 . S
O541 Mg530 2.023 . S
O541 C556 1.264 . S
O542 Mg531 1.942 . S
O542 C547 1.244 . S
O543 Mg531 1.955 . S
O543 C556 1.273 . S
O544 Mg533 2.114 . S
O544 Mg535 2.291 . S
O544 C546 1.312 . S
O545 Mg530 2.031 . S
O545 C546 1.208 . S
C546 O544 1.312 . S
C546 O545 1.208 . S
C547 O539 1.331 . S
C547 O542 1.244 . S
O548 Mg533 2.013 . S
O548 C537 1.191 . S
O549 C528 1.331 . S
O549 Mg535 2.081 . S
O550 Mg531 1.986 . S
O550 C537 1.307 . S
O551 C529 1.264 . S
O551 Mg535 2.023 . S
O552 C528 1.244 . S
O552 Mg536 1.942 . S
O553 C529 1.273 . S
O553 Mg536 1.955 . S
O554 C527 1.312 . S
O554 Mg530 2.291 . S
O554 Mg533 2.114 . S
O555 C527 1.208 . S
O555 Mg535 2.031 . S
C556 O541 1.264 . S
C556 O543 1.273 . S
C557 O538 1.191 . S
C557 O540 1.307 . S
C558 O585 1.312 . S
C558 O586 1.208 . S
C559 O580 1.331 . S
C559 O583 1.244 . S
C560 O582 1.264 . S
C560 O584 1.273 . S
Mg561 O563 1.936 . S
Mg561 O570 2.081 . S
Mg561 O572 2.023 . S
Mg561 O576 2.031 . S
Mg561 O585 2.291 . S
Mg562 O563 1.963 . S
Mg562 O573 1.942 . S
Mg562 O574 1.955 . S
Mg562 O581 1.986 . S
O563 Mg561 1.936 . S
O563 Mg562 1.963 . S
O563 Mg564 1.915 . S
Mg564 O563 1.915 . S
Mg564 O565 1.915 . S
Mg564 O569 2.013 . S
Mg564 O575 2.114 . S
Mg564 O579 2.013 . S
Mg564 O585 2.114 . S
O565 Mg564 1.915 . S
O565 Mg566 1.936 . S
O565 Mg567 1.963 . S
Mg566 O565 1.936 . S
Mg566 O575 2.291 . S
Mg566 O580 2.081 . S
Mg566 O582 2.023 . S
Mg566 O586 2.031 . S
Mg567 O565 1.963 . S
Mg567 O571 1.986 . S
Mg567 O583 1.942 . S
Mg567 O584 1.955 . S
C568 O579 1.191 . S
C568 O581 1.307 . S
O569 Mg564 2.013 . S
O569 C588 1.191 . S
O570 Mg561 2.081 . S
O570 C578 1.331 . S
O571 Mg567 1.986 . S
O571 C588 1.307 . S
O572 Mg561 2.023 . S
O572 C587 1.264 . S
O573 Mg562 1.942 . S
O573 C578 1.244 . S
O574 Mg562 1.955 . S
O574 C587 1.273 . S
O575 Mg564 2.114 . S
O575 Mg566 2.291 . S
O575 C577 1.312 . S
O576 Mg561 2.031 . S
O576 C577 1.208 . S
C577 O575 1.312 . S
C577 O576 1.208 . S
C578 O570 1.331 . S
C578 O573 1.244 . S
O579 Mg564 2.013 . S
O579 C568 1.191 . S
O580 C559 1.331 . S
O580 Mg566 2.081 . S
O581 Mg562 1.986 . S
O581 C568 1.307 . S
O582 C560 1.264 . S
O582 Mg566 2.023 . S
O583 C559 1.244 . S
O583 Mg567 1.942 . S
O584 C560 1.273 . S
O584 Mg567 1.955 . S
O585 C558 1.312 . S
O585 Mg561 2.291 . S
O585 Mg564 2.114 . S
O586 C558 1.208 . S
O586 Mg566 2.031 . S
C587 O572 1.264 . S
C587 O574 1.273 . S
C588 O569 1.191 . S
C588 O571 1.307 . S
C589 O616 1.312 . S
C589 O617 1.208 . S
C590 O611 1.331 . S
C590 O614 1.244 . S
C591 O613 1.264 . S
C591 O615 1.273 . S
Mg592 O594 1.936 . S
Mg592 O601 2.081 . S
Mg592 O603 2.023 . S
Mg592 O607 2.031 . S
Mg592 O616 2.291 . S
Mg593 O594 1.963 . S
Mg593 O604 1.942 . S
Mg593 O605 1.955 . S
Mg593 O612 1.986 . S
O594 Mg592 1.936 . S
O594 Mg593 1.963 . S
O594 Mg595 1.915 . S
Mg595 O594 1.915 . S
Mg595 O596 1.915 . S
Mg595 O600 2.013 . S
Mg595 O606 2.114 . S
Mg595 O610 2.013 . S
Mg595 O616 2.114 . S
O596 Mg595 1.915 . S
O596 Mg597 1.936 . S
O596 Mg598 1.963 . S
Mg597 O596 1.936 . S
Mg597 O606 2.291 . S
Mg597 O611 2.081 . S
Mg597 O613 2.023 . S
Mg597 O617 2.031 . S
Mg598 O596 1.963 . S
Mg598 O602 1.986 . S
Mg598 O614 1.942 . S
Mg598 O615 1.955 . S
C599 O610 1.191 . S
C599 O612 1.307 . S
O600 Mg595 2.013 . S
O600 C619 1.191 . S
O601 Mg592 2.081 . S
O601 C609 1.331 . S
O602 Mg598 1.986 . S
O602 C619 1.307 . S
O603 Mg592 2.023 . S
O603 C618 1.264 . S
O604 Mg593 1.942 . S
O604 C609 1.244 . S
O605 Mg593 1.955 . S
O605 C618 1.273 . S
O606 Mg595 2.114 . S
O606 Mg597 2.291 . S
O606 C608 1.312 . S
O607 Mg592 2.031 . S
O607 C608 1.208 . S
C608 O606 1.312 . S
C608 O607 1.208 . S
C609 O601 1.331 . S
C609 O604 1.244 . S
O610 Mg595 2.013 . S
O610 C599 1.191 . S
O611 C590 1.331 . S
O611 Mg597 2.081 . S
O612 Mg593 1.986 . S
O612 C599 1.307 . S
O613 C591 1.264 . S
O613 Mg597 2.023 . S
O614 C590 1.244 . S
O614 Mg598 1.942 . S
O615 C591 1.273 . S
O615 Mg598 1.955 . S
O616 C589 1.312 . S
O616 Mg592 2.291 . S
O616 Mg595 2.114 . S
O617 C589 1.208 . S
O617 Mg597 2.031 . S
C618 O603 1.264 . S
C618 O605 1.273 . S
C619 O600 1.191 . S
C619 O602 1.307 . S
C620 O647 1.312 . S
C620 O648 1.208 . S
C621 O642 1.331 . S
C621 O645 1.244 . S
C622 O644 1.264 . S
C622 O646 1.273 . S
Mg623 O625 1.936 . S
Mg623 O632 2.081 . S
Mg623 O634 2.023 . S
Mg623 O638 2.031 . S
Mg623 O647 2.291 . S
Mg624 O625 1.963 . S
Mg624 O635 1.942 . S
Mg624 O636 1.955 . S
Mg624 O643 1.986 . S
O625 Mg623 1.936 . S
O625 Mg624 1.963 . S
O625 Mg626 1.915 . S
Mg626 O625 1.915 . S
Mg626 O627 1.915 . S
Mg626 O631 2.013 . S
Mg626 O637 2.114 . S
Mg626 O641 2.013 . S
Mg626 O647 2.114 . S
O627 Mg626 1.915 . S
O627 Mg628 1.936 . S
O627 Mg629 1.963 . S
Mg628 O627 1.936 . S
Mg628 O637 2.291 . S
Mg628 O642 2.081 . S
Mg628 O644 2.023 . S
Mg628 O648 2.031 . S
Mg629 O627 1.963 . S
Mg629 O633 1.986 . S
Mg629 O645 1.942 . S
Mg629 O646 1.955 . S
C630 O641 1.191 . S
C630 O643 1.307 . S
O631 Mg626 2.013 . S
O631 C650 1.191 . S
O632 Mg623 2.081 . S
O632 C640 1.331 . S
O633 Mg629 1.986 . S
O633 C650 1.307 . S
O634 Mg623 2.023 . S
O634 C649 1.264 . S
O635 Mg624 1.942 . S
O635 C640 1.244 . S
O636 Mg624 1.955 . S
O636 C649 1.273 . S
O637 Mg626 2.114 . S
O637 Mg628 2.291 . S
O637 C639 1.312 . S
O638 Mg623 2.031 . S
O638 C639 1.208 . S
C639 O637 1.312 . S
C639 O638 1.208 . S
C640 O632 1.331 . S
C640 O635 1.244 . S
O641 Mg626 2.013 . S
O641 C630 1.191 . S
O642 C621 1.331 . S
O642 Mg628 2.081 . S
O643 Mg624 1.986 . S
O643 C630 1.307 . S
O644 C622 1.264 . S
O644 Mg628 2.023 . S
O645 C621 1.244 . S
O645 Mg629 1.942 . S
O646 C622 1.273 . S
O646 Mg629 1.955 . S
O647 C620 1.312 . S
O647 Mg623 2.291 . S
O647 Mg626 2.114 . S
O648 C620 1.208 . S
O648 Mg628 2.031 . S
C649 O634 1.264 . S
C649 O636 1.273 . S
C650 O631 1.191 . S
C650 O633 1.307 . S
C651 O678 1.312 . S
C651 O679 1.208 . S
C652 O673 1.331 . S
C652 O676 1.244 . S
C653 O675 1.264 . S
C653 O677 1.273 . S
Mg654 O656 1.936 . S
Mg654 O663 2.081 . S
Mg654 O665 2.023 . S
Mg654 O669 2.031 . S
Mg654 O678 2.291 . S
Mg655 O656 1.963 . S
Mg655 O666 1.942 . S
Mg655 O667 1.955 . S
Mg655 O674 1.986 . S
O656 Mg654 1.936 . S
O656 Mg655 1.963 . S
O656 Mg657 1.915 . S
Mg657 O656 1.915 . S
Mg657 O658 1.915 . S
Mg657 O662 2.013 . S
Mg657 O668 2.114 . S
Mg657 O672 2.013 . S
Mg657 O678 2.114 . S
O658 Mg657 1.915 . S
O658 Mg659 1.936 . S
O658 Mg660 1.963 . S
Mg659 O658 1.936 . S
Mg659 O668 2.291 . S
Mg659 O673 2.081 . S
Mg659 O675 2.023 . S
Mg659 O679 2.031 . S
Mg660 O658 1.963 . S
Mg660 O664 1.986 . S
Mg660 O676 1.942 . S
Mg660 O677 1.955 . S
C661 O672 1.191 . S
C661 O674 1.307 . S
O662 Mg657 2.013 . S
O662 C681 1.191 . S
O663 Mg654 2.081 . S
O663 C671 1.331 . S
O664 Mg660 1.986 . S
O664 C681 1.307 . S
O665 Mg654 2.023 . S
O665 C680 1.264 . S
O666 Mg655 1.942 . S
O666 C671 1.244 . S
O667 Mg655 1.955 . S
O667 C680 1.273 . S
O668 Mg657 2.114 . S
O668 Mg659 2.291 . S
O668 C670 1.312 . S
O669 Mg654 2.031 . S
O669 C670 1.208 . S
C670 O668 1.312 . S
C670 O669 1.208 . S
C671 O663 1.331 . S
C671 O666 1.244 . S
O672 Mg657 2.013 . S
O672 C661 1.191 . S
O673 C652 1.331 . S
O673 Mg659 2.081 . S
O674 Mg655 1.986 . S
O674 C661 1.307 . S
O675 C653 1.264 . S
O675 Mg659 2.023 . S
O676 C652 1.244 . S
O676 Mg660 1.942 . S
O677 C653 1.273 . S
O677 Mg660 1.955 . S
O678 C651 1.312 . S
O678 Mg654 2.291 . S
O678 Mg657 2.114 . S
O679 C651 1.208 . S
O679 Mg659 2.031 . S
C680 O665 1.264 . S
C680 O667 1.273 . S
C681 O662 1.191 . S
C681 O664 1.307 . S
C682 O709 1.312 . S
C682 O710 1.208 . S
C683 O704 1.331 . S
C683 O707 1.244 . S
C684 O706 1.264 . S
C684 O708 1.273 . S
Mg685 O687 1.936 . S
Mg685 O694 2.081 . S
Mg685 O696 2.023 . S
Mg685 O700 2.031 . S
Mg685 O709 2.291 . S
Mg686 O687 1.963 . S
Mg686 O697 1.942 . S
Mg686 O698 1.955 . S
Mg686 O705 1.986 . S
O687 Mg685 1.936 . S
O687 Mg686 1.963 . S
O687 Mg688 1.915 . S
Mg688 O687 1.915 . S
Mg688 O689 1.915 . S
Mg688 O693 2.013 . S
Mg688 O699 2.114 . S
Mg688 O703 2.013 . S
Mg688 O709 2.114 . S
O689 Mg688 1.915 . S
O689 Mg690 1.936 . S
O689 Mg691 1.963 . S
Mg690 O689 1.936 . S
Mg690 O699 2.291 . S
Mg690 O704 2.081 . S
Mg690 O706 2.023 . S
Mg690 O710 2.031 . S
Mg691 O689 1.963 . S
Mg691 O695 1.986 . S
Mg691 O707 1.942 . S
Mg691 O708 1.955 . S
C692 O703 1.191 . S
C692 O705 1.307 . S
O693 Mg688 2.013 . S
O693 C712 1.191 . S
O694 Mg685 2.081 . S
O694 C702 1.331 . S
O695 Mg691 1.986 . S
O695 C712 1.307 . S
O696 Mg685 2.023 . S
O696 C711 1.264 . S
O697 Mg686 1.942 . S
O697 C702 1.244 . S
O698 Mg686 1.955 . S
O698 C711 1.273 . S
O699 Mg688 2.114 . S
O699 Mg690 2.291 . S
O699 C701 1.312 . S
O700 Mg685 2.031 . S
O700 C701 1.208 . S
C701 O699 1.312 . S
C701 O700 1.208 . S
C702 O694 1.331 . S
C702 O697 1.244 . S
O703 Mg688 2.013 . S
O703 C692 1.191 . S
O704 C683 1.331 . S
O704 Mg690 2.081 . S
O705 Mg686 1.986 . S
O705 C692 1.307 . S
O706 C684 1.264 . S
O706 Mg690 2.023 . S
O707 C683 1.244 . S
O707 Mg691 1.942 . S
O708 C684 1.273 . S
O708 Mg691 1.955 . S
O709 C682 1.312 . S
O709 Mg685 2.291 . S
O709 Mg688 2.114 . S
O710 C682 1.208 . S
O710 Mg690 2.031 . S
C711 O696 1.264 . S
C711 O698 1.273 . S
C712 O693 1.191 . S
C712 O695 1.307 . S
C713 O740 1.312 . S
C713 O741 1.208 . S
C714 O735 1.331 . S
C714 O738 1.244 . S
C715 O737 1.264 . S
C715 O739 1.273 . S
Mg716 O718 1.936 . S
Mg716 O725 2.081 . S
Mg716 O727 2.023 . S
Mg716 O731 2.031 . S
Mg716 O740 2.291 . S
Mg717 O718 1.963 . S
Mg717 O728 1.942 . S
Mg717 O729 1.955 . S
Mg717 O736 1.986 . S
O718 Mg716 1.936 . S
O718 Mg717 1.963 . S
O718 Mg719 1.915 . S
Mg719 O718 1.915 . S
Mg719 O720 1.915 . S
Mg719 O724 2.013 . S
Mg719 O730 2.114 . S
Mg719 O734 2.013 . S
Mg719 O740 2.114 . S
O720 Mg719 1.915 . S
O720 Mg721 1.936 . S
O720 Mg722 1.963 . S
Mg721 O720 1.936 . S
Mg721 O730 2.291 . S
Mg721 O735 2.081 . S
Mg721 O737 2.023 . S
Mg721 O741 2.031 . S
Mg722 O720 1.963 . S
Mg722 O726 1.986 . S
Mg722 O738 1.942 . S
Mg722 O739 1.955 . S
C723 O734 1.191 . S
C723 O736 1.307 . S
O724 Mg719 2.013 . S
O724 C743 1.191 . S
O725 Mg716 2.081 . S
O725 C733 1.331 . S
O726 Mg722 1.986 . S
O726 C743 1.307 . S
O727 Mg716 2.023 . S
O727 C742 1.264 . S
O728 Mg717 1.942 . S
O728 C733 1.244 . S
O729 Mg717 1.955 . S
O729 C742 1.273 . S
O730 Mg719 2.114 . S
O730 Mg721 2.291 . S
O730 C732 1.312 . S
O731 Mg716 2.031 . S
O731 C732 1.208 . S
C732 O730 1.312 . S
C732 O731 1.208 . S
C733 O725 1.331 . S
C733 O728 1.244 . S
O734 Mg719 2.013 . S
O734 C723 1.191 . S
O735 C714 1.331 . S
O735 Mg721 2.081 . S
O736 Mg717 1.986 . S
O736 C723 1.307 . S
O737 C715 1.264 . S
O737 Mg721 2.023 . S
O738 C714 1.244 . S
O738 Mg722 1.942 . S
O739 C715 1.273 . S
O739 Mg722 1.955 . S
O740 C713 1.312 . S
O740 Mg716 2.291 . S
O740 Mg719 2.114 . S
O741 C713 1.208 . S
O741 Mg721 2.031 . S
C742 O727 1.264 . S
C742 O729 1.273 . S
C743 O724 1.191 . S
C743 O726 1.307 . S
H744 C750 0.930 . S
H745 C753 0.930 . S
H746 C754 0.930 . S
H747 C755 0.930 . S
H748 C758 0.930 . S
H749 C759 0.930 . S
C750 H744 0.930 . S
C750 C751 1.355 . S
C750 C752 1.415 . S
C751 C750 1.355 . S
C751 C753 1.419 . S
C752 C750 1.415 . S
C752 C757 1.425 . S
C752 C759 1.409 . S
C753 H745 0.930 . S
C753 C751 1.419 . S
C753 C754 1.362 . S
C754 H746 0.930 . S
C754 C753 1.362 . S
C754 C757 1.409 . S
C755 H747 0.930 . S
C755 C756 1.355 . S
C755 C757 1.415 . S
C756 C755 1.355 . S
C756 C758 1.419 . S
C757 C752 1.425 . S
C757 C754 1.409 . S
C757 C755 1.415 . S
C758 H748 0.930 . S
C758 C756 1.419 . S
C758 C759 1.362 . S
C759 H749 0.930 . S
C759 C752 1.409 . S
C759 C758 1.362 . S
H760 C766 0.930 . S
H761 C769 0.930 . S
H762 C770 0.930 . S
H763 C771 0.930 . S
H764 C774 0.930 . S
H765 C775 0.930 . S
C766 H760 0.930 . S
C766 C767 1.355 1_455 S
C766 C768 1.415 . S
C767 C766 1.355 1_655 S
C767 C769 1.419 . S
C768 C766 1.415 . S
C768 C773 1.425 . S
C768 C775 1.409 . S
C769 H761 0.930 . S
C769 C767 1.419 . S
C769 C770 1.362 . S
C770 H762 0.930 . S
C770 C769 1.362 . S
C770 C773 1.409 1_655 S
C771 H763 0.930 . S
C771 C772 1.355 . S
C771 C773 1.415 1_545 S
C772 C771 1.355 . S
C772 C774 1.419 1_545 S
C773 C768 1.425 . S
C773 C770 1.409 1_455 S
C773 C771 1.415 1_565 S
C774 H764 0.930 . S
C774 C772 1.419 1_565 S
C774 C775 1.362 . S
C775 H765 0.930 . S
C775 C768 1.409 . S
C775 C774 1.362 . S
H776 C782 0.930 . S
H777 C785 0.930 . S
H778 C786 0.930 . S
H779 C787 0.930 . S
H780 C790 0.930 . S
H781 C791 0.930 . S
C782 H776 0.930 . S
C782 C783 1.355 . S
C782 C784 1.415 . S
C783 C782 1.355 . S
C783 C785 1.419 . S
C784 C782 1.415 . S
C784 C789 1.425 . S
C784 C791 1.409 . S
C785 H777 0.930 . S
C785 C783 1.419 . S
C785 C786 1.362 . S
C786 H778 0.930 . S
C786 C785 1.362 . S
C786 C789 1.409 . S
C787 H779 0.930 . S
C787 C788 1.355 . S
C787 C789 1.415 . S
C788 C787 1.355 . S
C788 C790 1.419 . S
C789 C784 1.425 . S
C789 C786 1.409 . S
C789 C787 1.415 . S
C790 H780 0.930 . S
C790 C788 1.419 . S
C790 C791 1.362 . S
C791 H781 0.930 . S
C791 C784 1.409 . S
C791 C790 1.362 . S
H792 C798 0.930 . S
H793 C801 0.930 . S
H794 C802 0.930 1_565 S
H795 C803 0.930 . S
H796 C806 0.930 . S
H797 C807 0.930 . S
C798 H792 0.930 . S
C798 C799 1.355 1_545 S
C798 C800 1.415 . S
C799 C798 1.355 1_565 S
C799 C801 1.419 . S
C800 C798 1.415 . S
C800 C805 1.425 . S
C800 C807 1.409 . S
C801 H793 0.930 . S
C801 C799 1.419 . S
C801 C802 1.362 1_565 S
C802 H794 0.930 1_545 S
C802 C801 1.362 1_545 S
C802 C805 1.409 . S
C803 H795 0.930 . S
C803 C804 1.355 . S
C803 C805 1.415 . S
C804 C803 1.355 . S
C804 C806 1.419 . S
C805 C800 1.425 . S
C805 C802 1.409 . S
C805 C803 1.415 . S
C806 H796 0.930 . S
C806 C804 1.419 . S
C806 C807 1.362 . S
C807 H797 0.930 . S
C807 C800 1.409 . S
C807 C806 1.362 . S
H808 C814 0.930 . S
H809 C817 0.930 . S
H810 C818 0.930 . S
H811 C819 0.930 . S
H812 C822 0.930 . S
H813 C823 0.930 . S
C814 H808 0.930 . S
C814 C815 1.355 . S
C814 C816 1.415 . S
C815 C814 1.355 . S
C815 C817 1.419 . S
C816 C814 1.415 . S
C816 C821 1.425 . S
C816 C823 1.409 . S
C817 H809 0.930 . S
C817 C815 1.419 . S
C817 C818 1.362 . S
C818 H810 0.930 . S
C818 C817 1.362 . S
C818 C821 1.409 . S
C819 H811 0.930 . S
C819 C820 1.355 . S
C819 C821 1.415 . S
C820 C819 1.355 . S
C820 C822 1.419 . S
C821 C816 1.425 . S
C821 C818 1.409 . S
C821 C819 1.415 . S
C822 H812 0.930 . S
C822 C820 1.419 . S
C822 C823 1.362 . S
C823 H813 0.930 . S
C823 C816 1.409 . S
C823 C822 1.362 . S
H824 C830 0.930 . S
H825 C833 0.930 . S
H826 C834 0.930 . S
H827 C835 0.930 . S
H828 C838 0.930 . S
H829 C839 0.930 . S
C830 H824 0.930 . S
C830 C831 1.355 . S
C830 C832 1.415 . S
C831 C830 1.355 . S
C831 C833 1.419 . S
C832 C830 1.415 . S
C832 C837 1.425 . S
C832 C839 1.409 . S
C833 H825 0.930 . S
C833 C831 1.419 . S
C833 C834 1.362 . S
C834 H826 0.930 . S
C834 C833 1.362 . S
C834 C837 1.409 . S
C835 H827 0.930 . S
C835 C836 1.355 1_565 S
C835 C837 1.415 . S
C836 C835 1.355 1_545 S
C836 C838 1.419 . S
C837 C832 1.425 . S
C837 C834 1.409 . S
C837 C835 1.415 . S
C838 H828 0.930 . S
C838 C836 1.419 . S
C838 C839 1.362 1_545 S
C839 H829 0.930 . S
C839 C832 1.409 . S
C839 C838 1.362 1_565 S
H840 C846 0.930 . S
H841 C849 0.930 . S
H842 C850 0.930 . S
H843 C851 0.930 . S
H844 C854 0.930 . S
H845 C855 0.930 . S
C846 H840 0.930 . S
C846 C847 1.355 . S
C846 C848 1.415 . S
C847 C846 1.355 . S
C847 C849 1.419 . S
C848 C846 1.415 . S
C848 C853 1.425 . S
C848 C855 1.409 . S
C849 H841 0.930 . S
C849 C847 1.419 . S
C849 C850 1.362 . S
C850 H842 0.930 . S
C850 C849 1.362 . S
C850 C853 1.409 . S
C851 H843 0.930 . S
C851 C852 1.355 . S
C851 C853 1.415 . S
C852 C851 1.355 . S
C852 C854 1.419 . S
C853 C848 1.425 . S
C853 C850 1.409 . S
C853 C851 1.415 . S
C854 H844 0.930 . S
C854 C852 1.419 . S
C854 C855 1.362 . S
C855 H845 0.930 . S
C855 C848 1.409 . S
C855 C854 1.362 . S
H856 C862 0.930 . S
H857 C865 0.930 . S
H858 C866 0.934 . S
H859 C867 0.930 . S
H860 C870 0.930 . S
H861 C871 0.930 . S
C862 H856 0.930 . S
C862 C863 1.355 1_545 S
C862 C864 1.415 . S
C863 C862 1.355 1_565 S
C863 C865 1.419 . S
C864 C862 1.415 . S
C864 C869 1.425 . S
C864 C871 1.409 . S
C865 H857 0.930 . S
C865 C863 1.419 . S
C865 C866 1.369 . S
C866 H858 0.934 . S
C866 C865 1.369 . S
C866 C869 1.399 1_565 S
C867 H859 0.930 . S
C867 C868 1.355 . S
C867 C869 1.415 1_655 S
C868 C867 1.355 . S
C868 C870 1.419 1_655 S
C869 C864 1.425 . S
C869 C866 1.399 1_545 S
C869 C867 1.415 1_455 S
C870 H860 0.930 . S
C870 C868 1.419 1_455 S
C870 C871 1.362 . S
C871 H861 0.930 . S
C871 C864 1.409 . S
C871 C870 1.362 . S
H872 C878 0.930 . S
H873 C881 0.930 . S
H874 C882 0.930 . S
H875 C883 0.930 . S
H876 C886 0.930 . S
H877 C887 0.930 . S
C878 H872 0.930 . S
C878 C879 1.355 . S
C878 C880 1.415 . S
C879 C878 1.355 . S
C879 C881 1.419 . S
C880 C878 1.415 . S
C880 C885 1.425 . S
C880 C887 1.409 . S
C881 H873 0.930 . S
C881 C879 1.419 . S
C881 C882 1.362 . S
C882 H874 0.930 . S
C882 C881 1.362 . S
C882 C885 1.409 . S
C883 H875 0.930 . S
C883 C884 1.355 . S
C883 C885 1.415 . S
C884 C883 1.355 . S
C884 C886 1.419 . S
C885 C880 1.425 . S
C885 C882 1.409 . S
C885 C883 1.415 . S
C886 H876 0.930 . S
C886 C884 1.419 . S
C886 C887 1.362 . S
C887 H877 0.930 . S
C887 C880 1.409 . S
C887 C886 1.362 . S
H888 C894 0.930 . S
H889 C897 0.930 . S
H890 C898 0.930 . S
H891 C899 0.930 . S
H892 C902 0.930 . S
H893 C903 0.937 . S
C894 H888 0.930 . S
C894 C895 1.355 . S
C894 C896 1.415 . S
C895 C894 1.355 . S
C895 C897 1.419 . S
C896 C894 1.415 . S
C896 C901 1.425 . S
C896 C903 1.393 1_455 S
C897 H889 0.930 . S
C897 C895 1.419 . S
C897 C898 1.362 . S
C898 H890 0.930 . S
C898 C897 1.362 . S
C898 C901 1.409 . S
C899 H891 0.930 . S
C899 C900 1.355 1_455 S
C899 C901 1.415 . S
C900 C899 1.355 1_655 S
C900 C902 1.419 . S
C901 C896 1.425 . S
C901 C898 1.409 . S
C901 C899 1.415 . S
C902 H892 0.930 . S
C902 C900 1.419 . S
C902 C903 1.373 . S
C903 H893 0.937 . S
C903 C896 1.393 1_655 S
C903 C902 1.373 . S
H904 C910 0.930 . S
H905 C913 0.930 . S
H906 C914 0.930 . S
H907 C915 0.930 . S
H908 C918 0.930 . S
H909 C919 0.930 . S
C910 H904 0.930 . S
C910 C911 1.355 . S
C910 C912 1.415 . S
C911 C910 1.355 . S
C911 C913 1.419 . S
C912 C910 1.415 . S
C912 C917 1.425 . S
C912 C919 1.409 . S
C913 H905 0.930 . S
C913 C911 1.419 . S
C913 C914 1.362 . S
C914 H906 0.930 . S
C914 C913 1.362 . S
C914 C917 1.409 . S
C915 H907 0.930 . S
C915 C916 1.355 . S
C915 C917 1.415 . S
C916 C915 1.355 . S
C916 C918 1.419 . S
C917 C912 1.425 . S
C917 C914 1.409 . S
C917 C915 1.415 . S
C918 H908 0.930 . S
C918 C916 1.419 . S
C918 C919 1.362 . S
C919 H909 0.930 . S
C919 C912 1.409 . S
C919 C918 1.362 . S
H920 C926 0.930 . S
H921 C929 0.930 . S
H922 C930 0.930 . S
H923 C931 0.930 . S
H924 C934 0.930 . S
H925 C935 0.930 . S
C926 H920 0.930 . S
C926 C927 1.355 . S
C926 C928 1.415 . S
C927 C926 1.355 . S
C927 C929 1.419 . S
C928 C926 1.415 . S
C928 C933 1.425 . S
C928 C935 1.409 1_556 S
C929 H921 0.930 . S
C929 C927 1.419 . S
C929 C930 1.362 . S
C930 H922 0.930 . S
C930 C929 1.362 . S
C930 C933 1.409 . S
C931 H923 0.930 . S
C931 C932 1.355 1_556 S
C931 C933 1.415 . S
C932 C931 1.355 1_554 S
C932 C934 1.419 . S
C933 C928 1.425 . S
C933 C930 1.409 . S
C933 C931 1.415 . S
C934 H924 0.930 . S
C934 C932 1.419 . S
C934 C935 1.362 . S
C935 H925 0.930 . S
C935 C928 1.409 1_554 S
C935 C934 1.362 . S
H936 C942 0.930 . S
H937 C945 0.930 . S
H938 C946 0.930 . S
H939 C947 0.930 . S
H940 C950 0.930 . S
H941 C951 0.930 . S
C942 H936 0.930 . S
C942 C943 1.355 . S
C942 C944 1.415 . S
C943 C942 1.355 . S
C943 C945 1.419 . S
C944 C942 1.415 . S
C944 C949 1.425 . S
C944 C951 1.409 . S
C945 H937 0.930 . S
C945 C943 1.419 . S
C945 C946 1.362 . S
C946 H938 0.930 . S
C946 C945 1.362 . S
C946 C949 1.409 . S
C947 H939 0.930 . S
C947 C948 1.355 . S
C947 C949 1.415 . S
C948 C947 1.355 . S
C948 C950 1.419 . S
C949 C944 1.425 . S
C949 C946 1.409 . S
C949 C947 1.415 . S
C950 H940 0.930 . S
C950 C948 1.419 . S
C950 C951 1.362 . S
C951 H941 0.930 . S
C951 C944 1.409 . S
C951 C950 1.362 . S
H952 C958 0.930 . S
H953 C961 0.930 . S
H954 C962 0.930 . S
H955 C963 0.930 . S
H956 C966 0.930 . S
H957 C967 0.930 . S
C958 H952 0.930 . S
C958 C959 1.355 . S
C958 C960 1.415 . S
C959 C958 1.355 . S
C959 C961 1.419 . S
C960 C958 1.415 . S
C960 C965 1.425 . S
C960 C967 1.409 . S
C961 H953 0.930 . S
C961 C959 1.419 . S
C961 C962 1.362 . S
C962 H954 0.930 . S
C962 C961 1.362 . S
C962 C965 1.409 . S
C963 H955 0.930 . S
C963 C964 1.355 . S
C963 C965 1.415 . S
C964 C963 1.355 . S
C964 C966 1.419 . S
C965 C960 1.425 . S
C965 C962 1.409 . S
C965 C963 1.415 . S
C966 H956 0.930 . S
C966 C964 1.419 . S
C966 C967 1.362 . S
C967 H957 0.930 . S
C967 C960 1.409 . S
C967 C966 1.362 . S
H968 C974 0.930 . S
H969 C977 0.930 . S
H970 C978 0.930 . S
H971 C979 0.930 . S
H972 C982 0.930 . S
H973 C983 0.930 . S
C974 H968 0.930 . S
C974 C975 1.355 . S
C974 C976 1.415 . S
C975 C974 1.355 . S
C975 C977 1.419 . S
C976 C974 1.415 . S
C976 C981 1.425 . S
C976 C983 1.409 . S
C977 H969 0.930 . S
C977 C975 1.419 . S
C977 C978 1.362 . S
C978 H970 0.930 . S
C978 C977 1.362 . S
C978 C981 1.409 . S
C979 H971 0.930 . S
C979 C980 1.355 . S
C979 C981 1.415 . S
C980 C979 1.355 . S
C980 C982 1.419 . S
C981 C976 1.425 . S
C981 C978 1.409 . S
C981 C979 1.415 . S
C982 H972 0.930 . S
C982 C980 1.419 . S
C982 C983 1.362 . S
C983 H973 0.930 . S
C983 C976 1.409 . S
C983 C982 1.362 . S
H984 C990 0.930 . S
H985 C993 0.930 . S
H986 C994 0.930 . S
H987 C995 0.930 . S
H988 C998 0.930 . S
H989 C999 0.930 . S
C990 H984 0.930 . S
C990 C991 1.355 . S
C990 C992 1.415 1_655 S
C991 C990 1.355 . S
C991 C993 1.419 1_655 S
C992 C990 1.415 1_455 S
C992 C997 1.425 . S
C992 C999 1.409 1_554 S
C993 H985 0.930 . S
C993 C991 1.419 1_455 S
C993 C994 1.362 . S
C994 H986 0.930 . S
C994 C993 1.362 . S
C994 C997 1.409 . S
C995 H987 0.930 . S
C995 C996 1.355 1_554 S
C995 C997 1.415 . S
C996 C995 1.355 1_556 S
C996 C998 1.419 . S
C997 C992 1.425 . S
C997 C994 1.409 . S
C997 C995 1.415 . S
C998 H988 0.930 . S
C998 C996 1.419 . S
C998 C999 1.362 . S
C999 H989 0.930 . S
C999 C992 1.409 1_556 S
C999 C998 1.362 . S
H1000 C1006 0.930 . S
H1001 C1009 0.930 . S
H1002 C1010 0.930 . S
H1003 C1011 0.930 . S
H1004 C1014 0.930 . S
H1005 C1015 0.930 . S
C1006 H1000 0.930 . S
C1006 C1007 1.355 . S
C1006 C1008 1.415 . S
C1007 C1006 1.355 . S
C1007 C1009 1.419 . S
C1008 C1006 1.415 . S
C1008 C1013 1.425 . S
C1008 C1015 1.409 . S
C1009 H1001 0.930 . S
C1009 C1007 1.419 . S
C1009 C1010 1.362 . S
C1010 H1002 0.930 . S
C1010 C1009 1.362 . S
C1010 C1013 1.409 . S
C1011 H1003 0.930 . S
C1011 C1012 1.355 . S
C1011 C1013 1.415 . S
C1012 C1011 1.355 . S
C1012 C1014 1.419 . S
C1013 C1008 1.425 . S
C1013 C1010 1.409 . S
C1013 C1011 1.415 . S
C1014 H1004 0.930 . S
C1014 C1012 1.419 . S
C1014 C1015 1.362 . S
C1015 H1005 0.930 . S
C1015 C1008 1.409 . S
C1015 C1014 1.362 . S
H1016 C1022 0.930 . S
H1017 C1025 0.930 . S
H1018 C1026 0.930 . S
H1019 C1027 0.930 . S
H1020 C1030 0.930 . S
H1021 C1031 0.930 . S
C1022 H1016 0.930 . S
C1022 C1023 1.355 . S
C1022 C1024 1.415 . S
C1023 C1022 1.355 . S
C1023 C1025 1.419 . S
C1024 C1022 1.415 . S
C1024 C1029 1.425 . S
C1024 C1031 1.409 . S
C1025 H1017 0.930 . S
C1025 C1023 1.419 . S
C1025 C1026 1.362 . S
C1026 H1018 0.930 . S
C1026 C1025 1.362 . S
C1026 C1029 1.409 . S
C1027 H1019 0.930 . S
C1027 C1028 1.355 . S
C1027 C1029 1.415 . S
C1028 C1027 1.355 . S
C1028 C1030 1.419 . S
C1029 C1024 1.425 . S
C1029 C1026 1.409 . S
C1029 C1027 1.415 . S
C1030 H1020 0.930 . S
C1030 C1028 1.419 . S
C1030 C1031 1.362 . S
C1031 H1021 0.930 . S
C1031 C1024 1.409 . S
C1031 C1030 1.362 . S
H1032 C1038 0.930 . S
H1033 C1041 0.930 . S
H1034 C1042 0.930 . S
H1035 C1043 0.930 . S
H1036 C1046 0.930 . S
H1037 C1047 0.930 . S
C1038 H1032 0.930 . S
C1038 C1039 1.355 1_554 S
C1038 C1040 1.415 . S
C1039 C1038 1.355 1_556 S
C1039 C1041 1.419 . S
C1040 C1038 1.415 . S
C1040 C1045 1.425 . S
C1040 C1047 1.409 . S
C1041 H1033 0.930 . S
C1041 C1039 1.419 . S
C1041 C1042 1.362 1_556 S
C1042 H1034 0.930 . S
C1042 C1041 1.362 1_554 S
C1042 C1045 1.409 . S
C1043 H1035 0.930 . S
C1043 C1044 1.355 . S
C1043 C1045 1.415 . S
C1044 C1043 1.355 . S
C1044 C1046 1.419 . S
C1045 C1040 1.425 . S
C1045 C1042 1.409 . S
C1045 C1043 1.415 . S
C1046 H1036 0.930 . S
C1046 C1044 1.419 . S
C1046 C1047 1.362 . S
C1047 H1037 0.930 . S
C1047 C1040 1.409 . S
C1047 C1046 1.362 . S
H1048 C1054 0.930 . S
H1049 C1057 0.930 . S
H1050 C1058 0.930 . S
H1051 C1059 0.930 . S
H1052 C1062 0.930 . S
H1053 C1063 0.930 . S
C1054 H1048 0.930 . S
C1054 C1055 1.355 . S
C1054 C1056 1.415 . S
C1055 C1054 1.355 . S
C1055 C1057 1.419 . S
C1056 C1054 1.415 . S
C1056 C1061 1.425 . S
C1056 C1063 1.409 . S
C1057 H1049 0.930 . S
C1057 C1055 1.419 . S
C1057 C1058 1.362 . S
C1058 H1050 0.930 . S
C1058 C1057 1.362 . S
C1058 C1061 1.409 . S
C1059 H1051 0.930 . S
C1059 C1060 1.355 . S
C1059 C1061 1.415 . S
C1060 C1059 1.355 . S
C1060 C1062 1.419 . S
C1061 C1056 1.425 . S
C1061 C1058 1.409 . S
C1061 C1059 1.415 . S
C1062 H1052 0.930 . S
C1062 C1060 1.419 . S
C1062 C1063 1.362 . S
C1063 H1053 0.930 . S
C1063 C1056 1.409 . S
C1063 C1062 1.362 . S
H1064 C1070 0.930 . S
H1065 C1073 0.930 . S
H1066 C1074 0.930 1_565 S
H1067 C1075 0.930 . S
H1068 C1078 0.930 . S
H1069 C1079 0.930 . S
C1070 H1064 0.930 . S
C1070 C1071 1.355 1_554 S
C1070 C1072 1.415 . S
C1071 C1070 1.355 1_556 S
C1071 C1073 1.419 . S
C1072 C1070 1.415 . S
C1072 C1077 1.425 . S
C1072 C1079 1.409 . S
C1073 H1065 0.930 . S
C1073 C1071 1.419 . S
C1073 C1074 1.362 1_556 S
C1074 H1066 0.930 1_545 S
C1074 C1073 1.362 1_554 S
C1074 C1077 1.409 . S
C1075 H1067 0.930 . S
C1075 C1076 1.353 1_565 S
C1075 C1077 1.415 1_565 S
C1076 C1075 1.353 1_545 S
C1076 C1078 1.424 . S
C1077 C1072 1.425 . S
C1077 C1074 1.409 . S
C1077 C1075 1.415 1_545 S
C1078 H1068 0.930 . S
C1078 C1076 1.424 . S
C1078 C1079 1.362 . S
C1079 H1069 0.930 . S
C1079 C1072 1.409 . S
C1079 C1078 1.362 . S
H1080 C1086 0.930 . S
H1081 C1089 0.930 . S
H1082 C1090 0.930 . S
H1083 C1091 0.930 . S
H1084 C1094 0.930 . S
H1085 C1095 0.930 . S
C1086 H1080 0.930 . S
C1086 C1087 1.355 . S
C1086 C1088 1.415 . S
C1087 C1086 1.355 . S
C1087 C1089 1.419 . S
C1088 C1086 1.415 . S
C1088 C1093 1.425 . S
C1088 C1095 1.409 . S
C1089 H1081 0.930 . S
C1089 C1087 1.419 . S
C1089 C1090 1.362 . S
C1090 H1082 0.930 . S
C1090 C1089 1.362 . S
C1090 C1093 1.409 . S
C1091 H1083 0.930 . S
C1091 C1092 1.355 . S
C1091 C1093 1.415 . S
C1092 C1091 1.355 . S
C1092 C1094 1.419 . S
C1093 C1088 1.425 . S
C1093 C1090 1.409 . S
C1093 C1091 1.415 . S
C1094 H1084 0.930 . S
C1094 C1092 1.419 . S
C1094 C1095 1.362 . S
C1095 H1085 0.930 . S
C1095 C1088 1.409 . S
C1095 C1094 1.362 . S
H1096 C1102 0.930 . S
H1097 C1105 0.930 . S
H1098 C1106 0.930 . S
H1099 C1107 0.930 . S
H1100 C1110 0.930 . S
H1101 C1111 0.930 . S
C1102 H1096 0.930 . S
C1102 C1103 1.355 . S
C1102 C1104 1.415 . S
C1103 C1102 1.355 . S
C1103 C1105 1.419 . S
C1104 C1102 1.415 . S
C1104 C1109 1.425 . S
C1104 C1111 1.409 . S
C1105 H1097 0.930 . S
C1105 C1103 1.419 . S
C1105 C1106 1.362 . S
C1106 H1098 0.930 . S
C1106 C1105 1.362 . S
C1106 C1109 1.409 . S
C1107 H1099 0.930 . S
C1107 C1108 1.355 . S
C1107 C1109 1.415 . S
C1108 C1107 1.355 . S
C1108 C1110 1.419 . S
C1109 C1104 1.425 . S
C1109 C1106 1.409 . S
C1109 C1107 1.415 . S
C1110 H1100 0.930 . S
C1110 C1108 1.419 . S
C1110 C1111 1.362 . S
C1111 H1101 0.930 . S
C1111 C1104 1.409 . S
C1111 C1110 1.362 . S
H1112 C1118 0.930 1_554 S
H1113 C1121 0.930 1_554 S
H1114 C1122 0.930 . S
H1115 C1123 0.930 . S
H1116 C1126 0.930 . S
H1117 C1127 0.930 . S
C1118 H1112 0.930 1_556 S
C1118 C1119 1.355 1_556 S
C1118 C1120 1.415 . S
C1119 C1118 1.355 1_554 S
C1119 C1121 1.419 1_554 S
C1120 C1118 1.415 . S
C1120 C1125 1.425 . S
C1120 C1127 1.409 . S
C1121 H1113 0.930 1_556 S
C1121 C1119 1.419 1_556 S
C1121 C1122 1.362 . S
C1122 H1114 0.930 . S
C1122 C1121 1.362 . S
C1122 C1125 1.409 . S
C1123 H1115 0.930 . S
C1123 C1124 1.355 . S
C1123 C1125 1.415 . S
C1124 C1123 1.355 . S
C1124 C1126 1.419 . S
C1125 C1120 1.425 . S
C1125 C1122 1.409 . S
C1125 C1123 1.415 . S
C1126 H1116 0.930 . S
C1126 C1124 1.419 . S
C1126 C1127 1.362 . S
C1127 H1117 0.930 . S
C1127 C1120 1.409 . S
C1127 C1126 1.362 . S
H1128 C1134 0.930 . S
H1129 C1137 0.930 . S
H1130 C1138 0.930 . S
H1131 C1139 0.930 . S
H1132 C1142 0.930 . S
H1133 C1143 0.930 . S
C1134 H1128 0.930 . S
C1134 C1135 1.355 . S
C1134 C1136 1.415 . S
C1135 C1134 1.355 . S
C1135 C1137 1.419 . S
C1136 C1134 1.415 . S
C1136 C1141 1.425 . S
C1136 C1143 1.409 . S
C1137 H1129 0.930 . S
C1137 C1135 1.419 . S
C1137 C1138 1.362 . S
C1138 H1130 0.930 . S
C1138 C1137 1.362 . S
C1138 C1141 1.409 . S
C1139 H1131 0.930 . S
C1139 C1140 1.355 . S
C1139 C1141 1.415 . S
C1140 C1139 1.355 . S
C1140 C1142 1.419 . S
C1141 C1136 1.425 . S
C1141 C1138 1.409 . S
C1141 C1139 1.415 . S
C1142 H1132 0.930 . S
C1142 C1140 1.419 . S
C1142 C1143 1.362 . S
C1143 H1133 0.930 . S
C1143 C1136 1.409 . S
C1143 C1142 1.362 . S
H1144 C1150 0.930 . S
H1145 C1153 0.930 . S
H1146 C1154 0.930 . S
H1147 C1155 0.930 . S
H1148 C1158 0.930 . S
H1149 C1159 0.930 . S
C1150 H1144 0.930 . S
C1150 C1151 1.355 . S
C1150 C1152 1.415 . S
C1151 C1150 1.355 . S
C1151 C1153 1.419 . S
C1152 C1150 1.415 . S
C1152 C1157 1.425 . S
C1152 C1159 1.409 . S
C1153 H1145 0.930 . S
C1153 C1151 1.419 . S
C1153 C1154 1.362 . S
C1154 H1146 0.930 . S
C1154 C1153 1.362 . S
C1154 C1157 1.409 . S
C1155 H1147 0.930 . S
C1155 C1156 1.355 . S
C1155 C1157 1.415 . S
C1156 C1155 1.355 . S
C1156 C1158 1.419 . S
C1157 C1152 1.425 . S
C1157 C1154 1.409 . S
C1157 C1155 1.415 . S
C1158 H1148 0.930 . S
C1158 C1156 1.419 . S
C1158 C1159 1.362 . S
C1159 H1149 0.930 . S
C1159 C1152 1.409 . S
C1159 C1158 1.362 . S
H1160 C1166 0.930 . S
H1161 C1169 0.930 . S
H1162 C1170 0.930 . S
H1163 C1171 0.930 . S
H1164 C1174 0.930 . S
H1165 C1175 0.930 . S
C1166 H1160 0.930 . S
C1166 C1167 1.355 . S
C1166 C1168 1.415 . S
C1167 C1166 1.355 . S
C1167 C1169 1.419 . S
C1168 C1166 1.415 . S
C1168 C1173 1.425 . S
C1168 C1175 1.409 . S
C1169 H1161 0.930 . S
C1169 C1167 1.419 . S
C1169 C1170 1.362 . S
C1170 H1162 0.930 . S
C1170 C1169 1.362 . S
C1170 C1173 1.409 . S
C1171 H1163 0.930 . S
C1171 C1172 1.355 . S
C1171 C1173 1.415 . S
C1172 C1171 1.355 . S
C1172 C1174 1.419 . S
C1173 C1168 1.425 . S
C1173 C1170 1.409 . S
C1173 C1171 1.415 . S
C1174 H1164 0.930 . S
C1174 C1172 1.419 . S
C1174 C1175 1.362 . S
C1175 H1165 0.930 . S
C1175 C1168 1.409 . S
C1175 C1174 1.362 . S
H1176 C1182 0.930 . S
H1177 C1185 0.930 . S
H1178 C1186 0.930 . S
H1179 C1187 0.930 . S
H1180 C1190 0.930 . S
H1181 C1191 0.930 1_455 S
C1182 H1176 0.930 . S
C1182 C1183 1.355 . S
C1182 C1184 1.415 1_455 S
C1183 C1182 1.355 . S
C1183 C1185 1.420 1_455 S
C1184 C1182 1.415 1_655 S
C1184 C1189 1.425 . S
C1184 C1191 1.409 . S
C1185 H1177 0.930 . S
C1185 C1183 1.420 1_655 S
C1185 C1186 1.362 . S
C1186 H1178 0.930 . S
C1186 C1185 1.362 . S
C1186 C1189 1.409 . S
C1187 H1179 0.930 . S
C1187 C1188 1.355 . S
C1187 C1189 1.415 . S
C1188 C1187 1.355 . S
C1188 C1190 1.419 . S
C1189 C1184 1.425 . S
C1189 C1186 1.409 . S
C1189 C1187 1.415 . S
C1190 H1180 0.930 . S
C1190 C1188 1.419 . S
C1190 C1191 1.362 . S
C1191 H1181 0.930 1_655 S
C1191 C1184 1.409 . S
C1191 C1190 1.362 . S
H1192 C1198 0.930 . S
H1193 C1201 0.930 . S
H1194 C1202 0.930 . S
H1195 C1203 0.930 . S
H1196 C1206 0.930 . S
H1197 C1207 0.930 . S
C1198 H1192 0.930 . S
C1198 C1199 1.355 . S
C1198 C1200 1.415 . S
C1199 C1198 1.355 . S
C1199 C1201 1.419 . S
C1200 C1198 1.415 . S
C1200 C1205 1.425 . S
C1200 C1207 1.409 . S
C1201 H1193 0.930 . S
C1201 C1199 1.419 . S
C1201 C1202 1.362 . S
C1202 H1194 0.930 . S
C1202 C1201 1.362 . S
C1202 C1205 1.409 . S
C1203 H1195 0.930 . S
C1203 C1204 1.355 . S
C1203 C1205 1.415 . S
C1204 C1203 1.355 . S
C1204 C1206 1.419 . S
C1205 C1200 1.425 . S
C1205 C1202 1.409 . S
C1205 C1203 1.415 . S
C1206 H1196 0.930 . S
C1206 C1204 1.419 . S
C1206 C1207 1.362 . S
C1207 H1197 0.930 . S
C1207 C1200 1.409 . S
C1207 C1206 1.362 . S
H1208 C1214 0.930 . S
H1209 C1217 0.930 . S
H1210 C1218 0.930 . S
H1211 C1219 0.930 . S
H1212 C1222 0.930 . S
H1213 C1223 0.930 . S
C1214 H1208 0.930 . S
C1214 C1215 1.355 . S
C1214 C1216 1.415 . S
C1215 C1214 1.355 . S
C1215 C1217 1.419 . S
C1216 C1214 1.415 . S
C1216 C1221 1.425 . S
C1216 C1223 1.409 1_655 S
C1217 H1209 0.930 . S
C1217 C1215 1.419 . S
C1217 C1218 1.362 . S
C1218 H1210 0.930 . S
C1218 C1217 1.362 . S
C1218 C1221 1.409 . S
C1219 H1211 0.930 . S
C1219 C1220 1.355 1_655 S
C1219 C1221 1.415 . S
C1220 C1219 1.355 1_455 S
C1220 C1222 1.419 . S
C1221 C1216 1.425 . S
C1221 C1218 1.409 . S
C1221 C1219 1.415 . S
C1222 H1212 0.930 . S
C1222 C1220 1.419 . S
C1222 C1223 1.362 . S
C1223 H1213 0.930 . S
C1223 C1216 1.409 1_455 S
C1223 C1222 1.362 . S
H1224 C1230 0.930 . S
H1225 C1233 0.930 . S
H1226 C1234 0.930 . S
H1227 C1235 0.930 . S
H1228 C1238 0.930 . S
H1229 C1239 0.930 . S
C1230 H1224 0.930 . S
C1230 C1231 1.355 . S
C1230 C1232 1.415 . S
C1231 C1230 1.355 . S
C1231 C1233 1.419 . S
C1232 C1230 1.415 . S
C1232 C1237 1.425 . S
C1232 C1239 1.409 . S
C1233 H1225 0.930 . S
C1233 C1231 1.419 . S
C1233 C1234 1.362 . S
C1234 H1226 0.930 . S
C1234 C1233 1.362 . S
C1234 C1237 1.409 . S
C1235 H1227 0.930 . S
C1235 C1236 1.355 . S
C1235 C1237 1.415 . S
C1236 C1235 1.355 . S
C1236 C1238 1.419 . S
C1237 C1232 1.425 . S
C1237 C1234 1.409 . S
C1237 C1235 1.415 . S
C1238 H1228 0.930 . S
C1238 C1236 1.419 . S
C1238 C1239 1.362 . S
C1239 H1229 0.930 . S
C1239 C1232 1.409 . S
C1239 C1238 1.362 . S
H1240 C1246 0.930 . S
H1241 C1249 0.930 . S
H1242 C1250 0.930 . S
H1243 C1251 0.930 . S
H1244 C1254 0.930 . S
H1245 C1255 0.930 . S
C1246 H1240 0.930 . S
C1246 C1247 1.355 . S
C1246 C1248 1.415 . S
C1247 C1246 1.355 . S
C1247 C1249 1.419 . S
C1248 C1246 1.415 . S
C1248 C1253 1.425 . S
C1248 C1255 1.409 . S
C1249 H1241 0.930 . S
C1249 C1247 1.419 . S
C1249 C1250 1.362 . S
C1250 H1242 0.930 . S
C1250 C1249 1.362 . S
C1250 C1253 1.409 . S
C1251 H1243 0.930 . S
C1251 C1252 1.355 . S
C1251 C1253 1.415 . S
C1252 C1251 1.355 . S
C1252 C1254 1.419 . S
C1253 C1248 1.425 . S
C1253 C1250 1.409 . S
C1253 C1251 1.415 . S
C1254 H1244 0.930 . S
C1254 C1252 1.419 . S
C1254 C1255 1.362 . S
C1255 H1245 0.930 . S
C1255 C1248 1.409 . S
C1255 C1254 1.362 . S
H1256 C1262 0.930 . S
H1257 C1265 0.930 . S
H1258 C1266 0.930 . S
H1259 C1267 0.930 . S
H1260 C1270 0.930 . S
H1261 C1271 0.930 . S
C1262 H1256 0.930 . S
C1262 C1263 1.355 . S
C1262 C1264 1.415 . S
C1263 C1262 1.355 . S
C1263 C1265 1.419 . S
C1264 C1262 1.415 . S
C1264 C1269 1.425 . S
C1264 C1271 1.409 . S
C1265 H1257 0.930 . S
C1265 C1263 1.419 . S
C1265 C1266 1.362 . S
C1266 H1258 0.930 . S
C1266 C1265 1.362 . S
C1266 C1269 1.409 . S
C1267 H1259 0.930 . S
C1267 C1268 1.355 . S
C1267 C1269 1.415 . S
C1268 C1267 1.355 . S
C1268 C1270 1.419 . S
C1269 C1264 1.425 . S
C1269 C1266 1.409 . S
C1269 C1267 1.415 . S
C1270 H1260 0.930 . S
C1270 C1268 1.419 . S
C1270 C1271 1.362 . S
C1271 H1261 0.930 . S
C1271 C1264 1.409 . S
C1271 C1270 1.362 . S
H1272 C1278 0.930 . S
H1273 C1281 0.930 1_554 S
H1274 C1282 0.930 . S
H1275 C1283 0.930 . S
H1276 C1286 0.930 . S
H1277 C1287 0.930 . S
C1278 H1272 0.930 . S
C1278 C1279 1.355 1_556 S
C1278 C1280 1.415 . S
C1279 C1278 1.355 1_554 S
C1279 C1281 1.419 1_554 S
C1280 C1278 1.415 . S
C1280 C1285 1.425 . S
C1280 C1287 1.409 . S
C1281 H1273 0.930 1_556 S
C1281 C1279 1.419 1_556 S
C1281 C1282 1.362 . S
C1282 H1274 0.930 . S
C1282 C1281 1.362 . S
C1282 C1285 1.409 . S
C1283 H1275 0.930 . S
C1283 C1284 1.355 . S
C1283 C1285 1.415 . S
C1284 C1283 1.355 . S
C1284 C1286 1.419 . S
C1285 C1280 1.425 . S
C1285 C1282 1.409 . S
C1285 C1283 1.415 . S
C1286 H1276 0.930 . S
C1286 C1284 1.419 . S
C1286 C1287 1.362 . S
C1287 H1277 0.930 . S
C1287 C1280 1.409 . S
C1287 C1286 1.362 . S
H1288 C1294 0.930 . S
H1289 C1297 0.930 . S
H1290 C1298 0.930 . S
H1291 C1299 0.930 . S
H1292 C1302 0.930 . S
H1293 C1303 0.930 . S
C1294 H1288 0.930 . S
C1294 C1295 1.355 . S
C1294 C1296 1.415 . S
C1295 C1294 1.355 . S
C1295 C1297 1.419 . S
C1296 C1294 1.415 . S
C1296 C1301 1.425 . S
C1296 C1303 1.409 . S
C1297 H1289 0.930 . S
C1297 C1295 1.419 . S
C1297 C1298 1.362 . S
C1298 H1290 0.930 . S
C1298 C1297 1.362 . S
C1298 C1301 1.409 . S
C1299 H1291 0.930 . S
C1299 C1300 1.355 . S
C1299 C1301 1.415 . S
C1300 C1299 1.355 . S
C1300 C1302 1.419 . S
C1301 C1296 1.425 . S
C1301 C1298 1.409 . S
C1301 C1299 1.415 . S
C1302 H1292 0.930 . S
C1302 C1300 1.419 . S
C1302 C1303 1.362 . S
C1303 H1293 0.930 . S
C1303 C1296 1.409 . S
C1303 C1302 1.362 . S
H1304 C1310 0.930 . S
H1305 C1313 0.930 . S
H1306 C1314 0.930 . S
H1307 C1315 0.930 . S
H1308 C1318 0.930 . S
H1309 C1319 0.930 . S
C1310 H1304 0.930 . S
C1310 C1311 1.355 1_655 S
C1310 C1312 1.415 . S
C1311 C1310 1.355 1_455 S
C1311 C1313 1.419 . S
C1312 C1310 1.415 . S
C1312 C1317 1.425 . S
C1312 C1319 1.409 . S
C1313 H1305 0.930 . S
C1313 C1311 1.419 . S
C1313 C1314 1.362 1_455 S
C1314 H1306 0.930 . S
C1314 C1313 1.362 1_655 S
C1314 C1317 1.409 . S
C1315 H1307 0.930 . S
C1315 C1316 1.355 . S
C1315 C1317 1.415 . S
C1316 C1315 1.355 . S
C1316 C1318 1.419 . S
C1317 C1312 1.425 . S
C1317 C1314 1.409 . S
C1317 C1315 1.415 . S
C1318 H1308 0.930 . S
C1318 C1316 1.419 . S
C1318 C1319 1.362 . S
C1319 H1309 0.930 . S
C1319 C1312 1.409 . S
C1319 C1318 1.362 . S
H1320 C1326 0.930 . S
H1321 C1329 0.930 . S
H1322 C1330 0.930 . S
H1323 C1331 0.930 . S
H1324 C1334 0.930 . S
H1325 C1335 0.930 . S
C1326 H1320 0.930 . S
C1326 C1327 1.355 . S
C1326 C1328 1.415 . S
C1327 C1326 1.355 . S
C1327 C1329 1.419 . S
C1328 C1326 1.415 . S
C1328 C1333 1.425 . S
C1328 C1335 1.409 . S
C1329 H1321 0.930 . S
C1329 C1327 1.419 . S
C1329 C1330 1.362 . S
C1330 H1322 0.930 . S
C1330 C1329 1.362 . S
C1330 C1333 1.409 . S
C1331 H1323 0.930 . S
C1331 C1332 1.355 . S
C1331 C1333 1.415 . S
C1332 C1331 1.355 . S
C1332 C1334 1.419 . S
C1333 C1328 1.425 . S
C1333 C1330 1.409 . S
C1333 C1331 1.415 . S
C1334 H1324 0.930 . S
C1334 C1332 1.419 . S
C1334 C1335 1.362 . S
C1335 H1325 0.930 . S
C1335 C1328 1.409 . S
C1335 C1334 1.362 . S
H1336 C1342 0.930 1_556 S
H1337 C1345 0.935 . S
H1338 C1346 0.930 . S
H1339 C1347 0.908 1_455 S
H1340 C1350 0.930 . S
H1341 C1351 0.930 . S
C1342 H1336 0.930 1_554 S
C1342 C1343 1.355 1_554 S
C1342 C1344 1.415 . S
C1343 C1342 1.355 1_556 S
C1343 C1345 1.419 1_556 S
C1344 C1342 1.415 . S
C1344 C1349 1.425 . S
C1344 C1351 1.409 . S
C1345 H1337 0.935 . S
C1345 C1343 1.419 1_554 S
C1345 C1346 1.362 . S
C1346 H1338 0.930 . S
C1346 C1345 1.362 . S
C1346 C1349 1.409 . S
C1347 H1339 0.908 1_655 S
C1347 C1348 1.349 1_655 S
C1347 C1349 1.443 . S
C1348 C1347 1.349 1_455 S
C1348 C1350 1.419 1_455 S
C1349 C1344 1.425 . S
C1349 C1346 1.409 . S
C1349 C1347 1.443 . S
C1350 H1340 0.930 . S
C1350 C1348 1.419 1_655 S
C1350 C1351 1.362 . S
C1351 H1341 0.930 . S
C1351 C1344 1.409 . S
C1351 C1350 1.362 . S
H1352 C1358 0.930 . S
H1353 C1361 0.930 . S
H1354 C1362 0.930 . S
H1355 C1363 0.930 . S
H1356 C1366 0.930 . S
H1357 C1367 0.930 . S
C1358 H1352 0.930 . S
C1358 C1359 1.355 . S
C1358 C1360 1.415 . S
C1359 C1358 1.355 . S
C1359 C1361 1.419 . S
C1360 C1358 1.415 . S
C1360 C1365 1.425 . S
C1360 C1367 1.409 . S
C1361 H1353 0.930 . S
C1361 C1359 1.419 . S
C1361 C1362 1.362 . S
C1362 H1354 0.930 . S
C1362 C1361 1.362 . S
C1362 C1365 1.409 . S
C1363 H1355 0.930 . S
C1363 C1364 1.355 . S
C1363 C1365 1.415 . S
C1364 C1363 1.355 . S
C1364 C1366 1.419 . S
C1365 C1360 1.425 . S
C1365 C1362 1.409 . S
C1365 C1363 1.415 . S
C1366 H1356 0.930 . S
C1366 C1364 1.419 . S
C1366 C1367 1.362 . S
C1367 H1357 0.930 . S
C1367 C1360 1.409 . S
C1367 C1366 1.362 . S
H1368 C1374 0.930 . S
H1369 C1377 0.930 . S
H1370 C1378 0.930 . S
H1371 C1379 0.930 . S
H1372 C1382 0.930 . S
H1373 C1383 0.930 . S
C1374 H1368 0.930 . S
C1374 C1375 1.355 . S
C1374 C1376 1.415 . S
C1375 C1374 1.355 . S
C1375 C1377 1.419 . S
C1376 C1374 1.415 . S
C1376 C1381 1.425 . S
C1376 C1383 1.409 . S
C1377 H1369 0.930 . S
C1377 C1375 1.419 . S
C1377 C1378 1.362 . S
C1378 H1370 0.930 . S
C1378 C1377 1.362 . S
C1378 C1381 1.409 . S
C1379 H1371 0.930 . S
C1379 C1380 1.355 . S
C1379 C1381 1.415 . S
C1380 C1379 1.355 . S
C1380 C1382 1.419 . S
C1381 C1376 1.425 . S
C1381 C1378 1.409 . S
C1381 C1379 1.415 . S
C1382 H1372 0.930 . S
C1382 C1380 1.419 . S
C1382 C1383 1.362 . S
C1383 H1373 0.930 . S
C1383 C1376 1.409 . S
C1383 C1382 1.362 . S
H1384 C1390 0.930 . S
H1385 C1393 0.930 . S
H1386 C1394 0.930 . S
H1387 C1395 0.930 . S
H1388 C1398 0.930 . S
H1389 C1399 0.930 . S
C1390 H1384 0.930 . S
C1390 C1391 1.355 . S
C1390 C1392 1.415 . S
C1391 C1390 1.355 . S
C1391 C1393 1.419 . S
C1392 C1390 1.415 . S
C1392 C1397 1.425 . S
C1392 C1399 1.409 . S
C1393 H1385 0.930 . S
C1393 C1391 1.419 . S
C1393 C1394 1.362 . S
C1394 H1386 0.930 . S
C1394 C1393 1.362 . S
C1394 C1397 1.409 . S
C1395 H1387 0.930 . S
C1395 C1396 1.355 . S
C1395 C1397 1.415 . S
C1396 C1395 1.355 . S
C1396 C1398 1.419 . S
C1397 C1392 1.425 . S
C1397 C1394 1.409 . S
C1397 C1395 1.415 . S
C1398 H1388 0.930 . S
C1398 C1396 1.419 . S
C1398 C1399 1.362 . S
C1399 H1389 0.930 . S
C1399 C1392 1.409 . S
C1399 C1398 1.362 . S
H1400 C1406 0.930 . S
H1401 C1409 0.930 . S
H1402 C1410 0.930 . S
H1403 C1411 0.930 . S
H1404 C1414 0.930 . S
H1405 C1415 0.930 . S
C1406 H1400 0.930 . S
C1406 C1407 1.355 . S
C1406 C1408 1.415 . S
C1407 C1406 1.355 . S
C1407 C1409 1.419 . S
C1408 C1406 1.415 . S
C1408 C1413 1.425 . S
C1408 C1415 1.409 . S
C1409 H1401 0.930 . S
C1409 C1407 1.419 . S
C1409 C1410 1.362 . S
C1410 H1402 0.930 . S
C1410 C1409 1.362 . S
C1410 C1413 1.409 . S
C1411 H1403 0.930 . S
C1411 C1412 1.355 . S
C1411 C1413 1.415 . S
C1412 C1411 1.355 . S
C1412 C1414 1.419 . S
C1413 C1408 1.425 . S
C1413 C1410 1.409 . S
C1413 C1411 1.415 . S
C1414 H1404 0.930 . S
C1414 C1412 1.419 . S
C1414 C1415 1.362 . S
C1415 H1405 0.930 . S
C1415 C1408 1.409 . S
C1415 C1414 1.362 . S
H1416 C1422 0.930 1_545 S
H1417 C1425 0.930 . S
H1418 C1426 0.930 . S
H1419 C1427 0.930 . S
H1420 C1430 0.930 . S
H1421 C1431 0.930 . S
C1422 H1416 0.930 1_565 S
C1422 C1423 1.350 1_565 S
C1422 C1424 1.415 . S
C1423 C1422 1.350 1_545 S
C1423 C1425 1.407 1_545 S
C1424 C1422 1.415 . S
C1424 C1429 1.425 . S
C1424 C1431 1.409 . S
C1425 H1417 0.930 . S
C1425 C1423 1.407 1_565 S
C1425 C1426 1.362 . S
C1426 H1418 0.930 . S
C1426 C1425 1.362 . S
C1426 C1429 1.409 . S
C1427 H1419 0.930 . S
C1427 C1428 1.355 . S
C1427 C1429 1.415 . S
C1428 C1427 1.355 . S
C1428 C1430 1.419 . S
C1429 C1424 1.425 . S
C1429 C1426 1.409 . S
C1429 C1427 1.415 . S
C1430 H1420 0.930 . S
C1430 C1428 1.419 . S
C1430 C1431 1.362 . S
C1431 H1421 0.930 . S
C1431 C1424 1.409 . S
C1431 C1430 1.362 . S
H1432 C1438 0.930 . S
H1433 C1441 0.930 . S
H1434 C1442 0.930 . S
H1435 C1443 0.930 . S
H1436 C1446 0.930 . S
H1437 C1447 0.930 . S
C1438 H1432 0.930 . S
C1438 C1439 1.355 . S
C1438 C1440 1.415 . S
C1439 C1438 1.355 . S
C1439 C1441 1.419 . S
C1440 C1438 1.415 . S
C1440 C1445 1.425 . S
C1440 C1447 1.409 . S
C1441 H1433 0.930 . S
C1441 C1439 1.419 . S
C1441 C1442 1.362 . S
C1442 H1434 0.930 . S
C1442 C1441 1.362 . S
C1442 C1445 1.409 . S
C1443 H1435 0.930 . S
C1443 C1444 1.355 . S
C1443 C1445 1.415 . S
C1444 C1443 1.355 . S
C1444 C1446 1.419 . S
C1445 C1440 1.425 . S
C1445 C1442 1.409 . S
C1445 C1443 1.415 . S
C1446 H1436 0.930 . S
C1446 C1444 1.419 . S
C1446 C1447 1.362 . S
C1447 H1437 0.930 . S
C1447 C1440 1.409 . S
C1447 C1446 1.362 . S
H1448 C1454 0.930 . S
H1449 C1457 0.930 . S
H1450 C1458 0.930 . S
H1451 C1459 0.930 . S
H1452 C1462 0.930 . S
H1453 C1463 0.930 . S
C1454 H1448 0.930 . S
C1454 C1455 1.355 . S
C1454 C1456 1.415 . S
C1455 C1454 1.355 . S
C1455 C1457 1.419 . S
C1456 C1454 1.415 . S
C1456 C1461 1.425 . S
C1456 C1463 1.409 . S
C1457 H1449 0.930 . S
C1457 C1455 1.419 . S
C1457 C1458 1.362 . S
C1458 H1450 0.930 . S
C1458 C1457 1.362 . S
C1458 C1461 1.409 . S
C1459 H1451 0.930 . S
C1459 C1460 1.355 . S
C1459 C1461 1.415 . S
C1460 C1459 1.355 . S
C1460 C1462 1.419 . S
C1461 C1456 1.425 . S
C1461 C1458 1.409 . S
C1461 C1459 1.415 . S
C1462 H1452 0.930 . S
C1462 C1460 1.419 . S
C1462 C1463 1.362 . S
C1463 H1453 0.930 . S
C1463 C1456 1.409 . S
C1463 C1462 1.362 . S
H1464 C1470 0.930 . S
H1465 C1473 0.930 . S
H1466 C1474 0.930 . S
H1467 C1475 0.930 . S
H1468 C1478 0.930 . S
H1469 C1479 0.930 . S
C1470 H1464 0.930 . S
C1470 C1471 1.355 . S
C1470 C1472 1.415 . S
C1471 C1470 1.355 . S
C1471 C1473 1.419 . S
C1472 C1470 1.415 . S
C1472 C1477 1.425 . S
C1472 C1479 1.409 . S
C1473 H1465 0.930 . S
C1473 C1471 1.419 . S
C1473 C1474 1.362 . S
C1474 H1466 0.930 . S
C1474 C1473 1.362 . S
C1474 C1477 1.409 . S
C1475 H1467 0.930 . S
C1475 C1476 1.355 . S
C1475 C1477 1.415 . S
C1476 C1475 1.355 . S
C1476 C1478 1.419 . S
C1477 C1472 1.425 . S
C1477 C1474 1.409 . S
C1477 C1475 1.415 . S
C1478 H1468 0.930 . S
C1478 C1476 1.419 . S
C1478 C1479 1.362 . S
C1479 H1469 0.930 . S
C1479 C1472 1.409 . S
C1479 C1478 1.362 . S
H1480 C1486 0.930 . S
H1481 C1489 0.930 . S
H1482 C1490 0.930 . S
H1483 C1491 0.930 . S
H1484 C1494 0.930 . S
H1485 C1495 0.922 1_564 S
C1486 H1480 0.930 . S
C1486 C1487 1.353 1_565 S
C1486 C1488 1.415 1_565 S
C1487 C1486 1.353 1_545 S
C1487 C1489 1.427 . S
C1488 C1486 1.415 1_545 S
C1488 C1493 1.425 . S
C1488 C1495 1.433 . S
C1489 H1481 0.930 . S
C1489 C1487 1.427 . S
C1489 C1490 1.362 . S
C1490 H1482 0.930 . S
C1490 C1489 1.362 . S
C1490 C1493 1.409 . S
C1491 H1483 0.930 . S
C1491 C1492 1.355 1_556 S
C1491 C1493 1.415 . S
C1492 C1491 1.355 1_554 S
C1492 C1494 1.419 . S
C1493 C1488 1.425 . S
C1493 C1490 1.409 . S
C1493 C1491 1.415 . S
C1494 H1484 0.930 . S
C1494 C1492 1.419 . S
C1494 C1495 1.347 1_554 S
C1495 H1485 0.922 1_546 S
C1495 C1488 1.433 . S
C1495 C1494 1.347 1_556 S
H1496 C1502 0.930 . S
H1497 C1505 0.930 . S
H1498 C1506 0.930 . S
H1499 C1507 0.930 . S
H1500 C1510 0.930 . S
H1501 C1511 0.930 . S
C1502 H1496 0.930 . S
C1502 C1503 1.355 1_565 S
C1502 C1504 1.415 . S
C1503 C1502 1.355 1_545 S
C1503 C1505 1.419 . S
C1504 C1502 1.415 . S
C1504 C1509 1.425 . S
C1504 C1511 1.409 . S
C1505 H1497 0.930 . S
C1505 C1503 1.419 . S
C1505 C1506 1.362 . S
C1506 H1498 0.930 . S
C1506 C1505 1.362 . S
C1506 C1509 1.409 1_545 S
C1507 H1499 0.930 . S
C1507 C1508 1.355 . S
C1507 C1509 1.415 . S
C1508 C1507 1.355 . S
C1508 C1510 1.419 . S
C1509 C1504 1.425 . S
C1509 C1506 1.409 1_565 S
C1509 C1507 1.415 . S
C1510 H1500 0.930 . S
C1510 C1508 1.419 . S
C1510 C1511 1.362 . S
C1511 H1501 0.930 . S
C1511 C1504 1.409 . S
C1511 C1510 1.362 . S
H1512 C1518 0.930 . S
H1513 C1521 0.930 . S
H1514 C1522 0.930 . S
H1515 C1523 0.930 . S
H1516 C1526 0.930 . S
H1517 C1527 0.930 . S
C1518 H1512 0.930 . S
C1518 C1519 1.355 . S
C1518 C1520 1.415 . S
C1519 C1518 1.355 . S
C1519 C1521 1.419 . S
C1520 C1518 1.415 . S
C1520 C1525 1.425 . S
C1520 C1527 1.409 . S
C1521 H1513 0.930 . S
C1521 C1519 1.419 . S
C1521 C1522 1.362 . S
C1522 H1514 0.930 . S
C1522 C1521 1.362 . S
C1522 C1525 1.409 . S
C1523 H1515 0.930 . S
C1523 C1524 1.355 . S
C1523 C1525 1.415 . S
C1524 C1523 1.355 . S
C1524 C1526 1.419 . S
C1525 C1520 1.425 . S
C1525 C1522 1.409 . S
C1525 C1523 1.415 . S
C1526 H1516 0.930 . S
C1526 C1524 1.419 . S
C1526 C1527 1.362 . S
C1527 H1517 0.930 . S
C1527 C1520 1.409 . S
C1527 C1526 1.362 . S
H1528 C1534 0.930 . S
H1529 C1537 0.930 . S
H1530 C1538 0.930 . S
H1531 C1539 0.930 1_455 S
H1532 C1542 0.930 . S
H1533 C1543 0.930 . S
C1534 H1528 0.930 . S
C1534 C1535 1.355 . S
C1534 C1536 1.415 1_455 S
C1535 C1534 1.355 . S
C1535 C1537 1.419 . S
C1536 C1534 1.415 1_655 S
C1536 C1541 1.425 1_655 S
C1536 C1543 1.409 . S
C1537 H1529 0.930 . S
C1537 C1535 1.419 . S
C1537 C1538 1.362 . S
C1538 H1530 0.930 . S
C1538 C1537 1.362 . S
C1538 C1541 1.409 . S
C1539 H1531 0.930 1_655 S
C1539 C1540 1.355 . S
C1539 C1541 1.415 1_655 S
C1540 C1539 1.355 . S
C1540 C1542 1.419 . S
C1541 C1536 1.425 1_455 S
C1541 C1538 1.409 . S
C1541 C1539 1.415 1_455 S
C1542 H1532 0.930 . S
C1542 C1540 1.419 . S
C1542 C1543 1.362 . S
C1543 H1533 0.930 . S
C1543 C1536 1.409 . S
C1543 C1542 1.362 . S
H1544 C1550 0.930 . S
H1545 C1553 0.930 . S
H1546 C1554 0.930 . S
H1547 C1555 0.930 . S
H1548 C1558 0.930 . S
H1549 C1559 0.930 . S
C1550 H1544 0.930 . S
C1550 C1551 1.355 . S
C1550 C1552 1.415 1_554 S
C1551 C1550 1.355 . S
C1551 C1553 1.419 . S
C1552 C1550 1.415 1_556 S
C1552 C1557 1.425 1_556 S
C1552 C1559 1.409 . S
C1553 H1545 0.930 . S
C1553 C1551 1.419 . S
C1553 C1554 1.362 . S
C1554 H1546 0.930 . S
C1554 C1553 1.362 . S
C1554 C1557 1.409 . S
C1555 H1547 0.930 . S
C1555 C1556 1.355 . S
C1555 C1557 1.415 1_556 S
C1556 C1555 1.355 . S
C1556 C1558 1.419 . S
C1557 C1552 1.425 1_554 S
C1557 C1554 1.409 . S
C1557 C1555 1.415 1_554 S
C1558 H1548 0.930 . S
C1558 C1556 1.419 . S
C1558 C1559 1.362 . S
C1559 H1549 0.930 . S
C1559 C1552 1.409 . S
C1559 C1558 1.362 . S
H1560 C1566 0.930 . S
H1561 C1569 0.930 . S
H1562 C1570 0.930 . S
H1563 C1571 0.930 . S
H1564 C1574 0.930 . S
H1565 C1575 0.930 . S
C1566 H1560 0.930 . S
C1566 C1567 1.355 . S
C1566 C1568 1.415 . S
C1567 C1566 1.355 . S
C1567 C1569 1.419 . S
C1568 C1566 1.415 . S
C1568 C1573 1.425 . S
C1568 C1575 1.409 . S
C1569 H1561 0.930 . S
C1569 C1567 1.419 . S
C1569 C1570 1.362 . S
C1570 H1562 0.930 . S
C1570 C1569 1.362 . S
C1570 C1573 1.409 . S
C1571 H1563 0.930 . S
C1571 C1572 1.355 . S
C1571 C1573 1.415 . S
C1572 C1571 1.355 . S
C1572 C1574 1.419 . S
C1573 C1568 1.425 . S
C1573 C1570 1.409 . S
C1573 C1571 1.415 . S
C1574 H1564 0.930 . S
C1574 C1572 1.419 . S
C1574 C1575 1.362 . S
C1575 H1565 0.930 . S
C1575 C1568 1.409 . S
C1575 C1574 1.362 . S
H1576 C1582 0.930 . S
H1577 C1585 0.930 . S
H1578 C1586 0.930 . S
H1579 C1587 0.930 . S
H1580 C1590 0.930 . S
H1581 C1591 0.930 . S
C1582 H1576 0.930 . S
C1582 C1583 1.355 . S
C1582 C1584 1.415 1_556 S
C1583 C1582 1.355 . S
C1583 C1585 1.419 . S
C1584 C1582 1.415 1_554 S
C1584 C1589 1.425 1_554 S
C1584 C1591 1.409 . S
C1585 H1577 0.930 . S
C1585 C1583 1.419 . S
C1585 C1586 1.362 . S
C1586 H1578 0.930 . S
C1586 C1585 1.362 . S
C1586 C1589 1.409 . S
C1587 H1579 0.930 . S
C1587 C1588 1.355 . S
C1587 C1589 1.415 1_554 S
C1588 C1587 1.355 . S
C1588 C1590 1.419 . S
C1589 C1584 1.425 1_556 S
C1589 C1586 1.409 . S
C1589 C1587 1.415 1_556 S
C1590 H1580 0.930 . S
C1590 C1588 1.419 . S
C1590 C1591 1.362 . S
C1591 H1581 0.930 . S
C1591 C1584 1.409 . S
C1591 C1590 1.362 . S
H1592 C1598 0.930 . S
H1593 C1601 0.930 . S
H1594 C1602 0.930 . S
H1595 C1603 0.930 . S
H1596 C1606 0.930 . S
H1597 C1607 0.930 . S
C1598 H1592 0.930 . S
C1598 C1599 1.355 . S
C1598 C1600 1.415 . S
C1599 C1598 1.355 . S
C1599 C1601 1.419 . S
C1600 C1598 1.415 . S
C1600 C1605 1.425 . S
C1600 C1607 1.409 . S
C1601 H1593 0.930 . S
C1601 C1599 1.419 . S
C1601 C1602 1.362 . S
C1602 H1594 0.930 . S
C1602 C1601 1.362 . S
C1602 C1605 1.409 . S
C1603 H1595 0.930 . S
C1603 C1604 1.355 . S
C1603 C1605 1.415 . S
C1604 C1603 1.355 . S
C1604 C1606 1.419 . S
C1605 C1600 1.425 . S
C1605 C1602 1.409 . S
C1605 C1603 1.415 . S
C1606 H1596 0.930 . S
C1606 C1604 1.419 . S
C1606 C1607 1.362 . S
C1607 H1597 0.930 . S
C1607 C1600 1.409 . S
C1607 C1606 1.362 . S
H1608 C1614 0.930 . S
H1609 C1617 0.930 . S
H1610 C1618 0.930 . S
H1611 C1619 0.930 . S
H1612 C1622 0.930 . S
H1613 C1623 0.930 . S
C1614 H1608 0.930 . S
C1614 C1615 1.355 . S
C1614 C1616 1.415 . S
C1615 C1614 1.355 . S
C1615 C1617 1.419 . S
C1616 C1614 1.415 . S
C1616 C1621 1.425 . S
C1616 C1623 1.409 . S
C1617 H1609 0.930 . S
C1617 C1615 1.419 . S
C1617 C1618 1.362 . S
C1618 H1610 0.930 . S
C1618 C1617 1.362 . S
C1618 C1621 1.409 . S
C1619 H1611 0.930 . S
C1619 C1620 1.355 . S
C1619 C1621 1.415 . S
C1620 C1619 1.355 . S
C1620 C1622 1.419 . S
C1621 C1616 1.425 . S
C1621 C1618 1.409 . S
C1621 C1619 1.415 . S
C1622 H1612 0.930 . S
C1622 C1620 1.419 . S
C1622 C1623 1.362 . S
C1623 H1613 0.930 . S
C1623 C1616 1.409 . S
C1623 C1622 1.362 . S
H1624 C1630 0.930 . S
H1625 C1633 0.930 . S
H1626 C1634 0.930 . S
H1627 C1635 0.930 . S
H1628 C1638 0.930 . S
H1629 C1639 0.930 . S
C1630 H1624 0.930 . S
C1630 C1631 1.355 . S
C1630 C1632 1.415 . S
C1631 C1630 1.355 . S
C1631 C1633 1.419 . S
C1632 C1630 1.415 . S
C1632 C1637 1.425 1_655 S
C1632 C1639 1.409 . S
C1633 H1625 0.930 . S
C1633 C1631 1.419 . S
C1633 C1634 1.362 1_655 S
C1634 H1626 0.930 . S
C1634 C1633 1.362 1_455 S
C1634 C1637 1.409 . S
C1635 H1627 0.930 . S
C1635 C1636 1.355 . S
C1635 C1637 1.415 . S
C1636 C1635 1.355 . S
C1636 C1638 1.419 . S
C1637 C1632 1.425 1_455 S
C1637 C1634 1.409 . S
C1637 C1635 1.415 . S
C1638 H1628 0.930 . S
C1638 C1636 1.419 . S
C1638 C1639 1.362 1_455 S
C1639 H1629 0.930 . S
C1639 C1632 1.409 . S
C1639 C1638 1.362 1_655 S
H1640 C1646 0.930 . S
H1641 C1649 0.930 . S
H1642 C1650 0.930 . S
H1643 C1651 0.930 . S
H1644 C1654 0.930 . S
H1645 C1655 0.930 . S
C1646 H1640 0.930 . S
C1646 C1647 1.355 . S
C1646 C1648 1.415 . S
C1647 C1646 1.355 . S
C1647 C1649 1.419 . S
C1648 C1646 1.415 . S
C1648 C1653 1.425 . S
C1648 C1655 1.409 . S
C1649 H1641 0.930 . S
C1649 C1647 1.419 . S
C1649 C1650 1.362 . S
C1650 H1642 0.930 . S
C1650 C1649 1.362 . S
C1650 C1653 1.409 . S
C1651 H1643 0.930 . S
C1651 C1652 1.355 . S
C1651 C1653 1.415 . S
C1652 C1651 1.355 . S
C1652 C1654 1.419 . S
C1653 C1648 1.425 . S
C1653 C1650 1.409 . S
C1653 C1651 1.415 . S
C1654 H1644 0.930 . S
C1654 C1652 1.419 . S
C1654 C1655 1.362 . S
C1655 H1645 0.930 . S
C1655 C1648 1.409 . S
C1655 C1654 1.362 . S
H1656 C1662 0.930 . S
H1657 C1665 0.930 . S
H1658 C1666 0.924 1_565 S
H1659 C1667 0.930 . S
H1660 C1670 0.930 . S
H1661 C1671 0.930 1_545 S
C1662 H1656 0.930 . S
C1662 C1663 1.355 . S
C1662 C1664 1.415 . S
C1663 C1662 1.355 . S
C1663 C1665 1.419 . S
C1664 C1662 1.415 . S
C1664 C1669 1.425 1_545 S
C1664 C1671 1.409 1_545 S
C1665 H1657 0.930 . S
C1665 C1663 1.419 . S
C1665 C1666 1.362 . S
C1666 H1658 0.924 1_545 S
C1666 C1665 1.362 . S
C1666 C1669 1.409 1_545 S
C1667 H1659 0.930 . S
C1667 C1668 1.355 . S
C1667 C1669 1.415 . S
C1668 C1667 1.355 . S
C1668 C1670 1.419 . S
C1669 C1664 1.425 1_565 S
C1669 C1666 1.409 1_565 S
C1669 C1667 1.415 . S
C1670 H1660 0.930 . S
C1670 C1668 1.419 . S
C1670 C1671 1.362 . S
C1671 H1661 0.930 1_565 S
C1671 C1664 1.409 1_565 S
C1671 C1670 1.362 . S
H1672 C1678 0.930 . S
H1673 C1681 0.930 . S
H1674 C1682 0.930 . S
H1675 C1683 0.930 . S
H1676 C1686 0.930 . S
H1677 C1687 0.917 1_545 S
C1678 H1672 0.930 . S
C1678 C1679 1.355 . S
C1678 C1680 1.415 . S
C1679 C1678 1.355 . S
C1679 C1681 1.419 . S
C1680 C1678 1.415 . S
C1680 C1685 1.425 1_545 S
C1680 C1687 1.404 1_545 S
C1681 H1673 0.930 . S
C1681 C1679 1.419 . S
C1681 C1682 1.362 1_545 S
C1682 H1674 0.930 . S
C1682 C1681 1.362 1_565 S
C1682 C1685 1.409 . S
C1683 H1675 0.930 . S
C1683 C1684 1.355 . S
C1683 C1685 1.415 . S
C1684 C1683 1.355 . S
C1684 C1686 1.419 . S
C1685 C1680 1.425 1_565 S
C1685 C1682 1.409 . S
C1685 C1683 1.415 . S
C1686 H1676 0.930 . S
C1686 C1684 1.419 . S
C1686 C1687 1.380 . S
C1687 H1677 0.917 1_565 S
C1687 C1680 1.404 1_565 S
C1687 C1686 1.380 . S
H1688 C1694 0.930 . S
H1689 C1697 0.930 . S
H1690 C1698 0.930 . S
H1691 C1699 0.930 . S
H1692 C1702 0.930 . S
H1693 C1703 0.930 . S
C1694 H1688 0.930 . S
C1694 C1695 1.355 . S
C1694 C1696 1.415 1_565 S
C1695 C1694 1.355 . S
C1695 C1697 1.419 . S
C1696 C1694 1.415 1_545 S
C1696 C1701 1.425 . S
C1696 C1703 1.409 . S
C1697 H1689 0.930 . S
C1697 C1695 1.419 . S
C1697 C1698 1.362 . S
C1698 H1690 0.930 . S
C1698 C1697 1.362 . S
C1698 C1701 1.409 1_565 S
C1699 H1691 0.930 . S
C1699 C1700 1.355 . S
C1699 C1701 1.415 . S
C1700 C1699 1.355 . S
C1700 C1702 1.419 . S
C1701 C1696 1.425 . S
C1701 C1698 1.409 1_545 S
C1701 C1699 1.415 . S
C1702 H1692 0.930 . S
C1702 C1700 1.419 . S
C1702 C1703 1.362 . S
C1703 H1693 0.930 . S
C1703 C1696 1.409 . S
C1703 C1702 1.362 . S
H1704 C1710 0.930 . S
H1705 C1713 0.930 . S
H1706 C1714 0.930 . S
H1707 C1715 0.930 . S
H1708 C1718 0.930 . S
H1709 C1719 0.930 . S
C1710 H1704 0.930 . S
C1710 C1711 1.355 . S
C1710 C1712 1.415 . S
C1711 C1710 1.355 . S
C1711 C1713 1.419 . S
C1712 C1710 1.415 . S
C1712 C1717 1.425 . S
C1712 C1719 1.409 . S
C1713 H1705 0.930 . S
C1713 C1711 1.419 . S
C1713 C1714 1.362 . S
C1714 H1706 0.930 . S
C1714 C1713 1.362 . S
C1714 C1717 1.409 . S
C1715 H1707 0.930 . S
C1715 C1716 1.355 . S
C1715 C1717 1.415 . S
C1716 C1715 1.355 . S
C1716 C1718 1.419 . S
C1717 C1712 1.425 . S
C1717 C1714 1.409 . S
C1717 C1715 1.415 . S
C1718 H1708 0.930 . S
C1718 C1716 1.419 . S
C1718 C1719 1.362 . S
C1719 H1709 0.930 . S
C1719 C1712 1.409 . S
C1719 C1718 1.362 . S
H1720 C1726 0.930 . S
H1721 C1729 0.930 . S
H1722 C1730 0.930 . S
H1723 C1731 0.930 . S
H1724 C1734 0.930 . S
H1725 C1735 0.930 . S
C1726 H1720 0.930 . S
C1726 C1727 1.355 . S
C1726 C1728 1.415 . S
C1727 C1726 1.355 . S
C1727 C1729 1.419 . S
C1728 C1726 1.415 . S
C1728 C1733 1.425 . S
C1728 C1735 1.409 . S
C1729 H1721 0.930 . S
C1729 C1727 1.419 . S
C1729 C1730 1.362 . S
C1730 H1722 0.930 . S
C1730 C1729 1.362 . S
C1730 C1733 1.409 . S
C1731 H1723 0.930 . S
C1731 C1732 1.355 . S
C1731 C1733 1.415 . S
C1732 C1731 1.355 . S
C1732 C1734 1.419 . S
C1733 C1728 1.425 . S
C1733 C1730 1.409 . S
C1733 C1731 1.415 . S
C1734 H1724 0.930 . S
C1734 C1732 1.419 . S
C1734 C1735 1.362 . S
C1735 H1725 0.930 . S
C1735 C1728 1.409 . S
C1735 C1734 1.362 . S
H1736 C1742 0.930 . S
H1737 C1745 0.930 . S
H1738 C1746 0.930 . S
H1739 C1747 0.930 . S
H1740 C1750 0.930 . S
H1741 C1751 0.930 . S
C1742 H1736 0.930 . S
C1742 C1743 1.355 . S
C1742 C1744 1.415 . S
C1743 C1742 1.355 . S
C1743 C1745 1.419 . S
C1744 C1742 1.415 . S
C1744 C1749 1.425 . S
C1744 C1751 1.409 . S
C1745 H1737 0.930 . S
C1745 C1743 1.419 . S
C1745 C1746 1.362 . S
C1746 H1738 0.930 . S
C1746 C1745 1.362 . S
C1746 C1749 1.409 . S
C1747 H1739 0.930 . S
C1747 C1748 1.355 . S
C1747 C1749 1.415 . S
C1748 C1747 1.355 . S
C1748 C1750 1.419 . S
C1749 C1744 1.425 . S
C1749 C1746 1.409 . S
C1749 C1747 1.415 . S
C1750 H1740 0.930 . S
C1750 C1748 1.419 . S
C1750 C1751 1.362 . S
C1751 H1741 0.930 . S
C1751 C1744 1.409 . S
C1751 C1750 1.362 . S
H1752 C1758 0.930 . S
H1753 C1761 0.930 . S
H1754 C1762 0.930 . S
H1755 C1763 0.930 . S
H1756 C1766 0.930 . S
H1757 C1767 0.930 . S
C1758 H1752 0.930 . S
C1758 C1759 1.355 . S
C1758 C1760 1.415 . S
C1759 C1758 1.355 . S
C1759 C1761 1.419 . S
C1760 C1758 1.415 . S
C1760 C1765 1.425 1_554 S
C1760 C1767 1.409 . S
C1761 H1753 0.930 . S
C1761 C1759 1.419 . S
C1761 C1762 1.362 1_554 S
C1762 H1754 0.930 . S
C1762 C1761 1.362 1_556 S
C1762 C1765 1.409 . S
C1763 H1755 0.930 . S
C1763 C1764 1.355 . S
C1763 C1765 1.415 . S
C1764 C1763 1.355 . S
C1764 C1766 1.419 . S
C1765 C1760 1.425 1_556 S
C1765 C1762 1.409 . S
C1765 C1763 1.415 . S
C1766 H1756 0.930 . S
C1766 C1764 1.419 . S
C1766 C1767 1.362 1_556 S
C1767 H1757 0.930 . S
C1767 C1760 1.409 . S
C1767 C1766 1.362 1_554 S
H1768 C1774 0.930 . S
H1769 C1777 0.930 . S
H1770 C1778 0.930 . S
H1771 C1779 0.930 . S
H1772 C1782 0.930 . S
H1773 C1783 0.930 . S
C1774 H1768 0.930 . S
C1774 C1775 1.355 . S
C1774 C1776 1.415 . S
C1775 C1774 1.355 . S
C1775 C1777 1.419 . S
C1776 C1774 1.415 . S
C1776 C1781 1.425 . S
C1776 C1783 1.409 . S
C1777 H1769 0.930 . S
C1777 C1775 1.419 . S
C1777 C1778 1.362 . S
C1778 H1770 0.930 . S
C1778 C1777 1.362 . S
C1778 C1781 1.409 . S
C1779 H1771 0.930 . S
C1779 C1780 1.355 . S
C1779 C1781 1.415 . S
C1780 C1779 1.355 . S
C1780 C1782 1.419 . S
C1781 C1776 1.425 . S
C1781 C1778 1.409 . S
C1781 C1779 1.415 . S
C1782 H1772 0.930 . S
C1782 C1780 1.419 . S
C1782 C1783 1.362 . S
C1783 H1773 0.930 . S
C1783 C1776 1.409 . S
C1783 C1782 1.362 . S
H1784 C1790 0.930 . S
H1785 C1793 0.930 . S
H1786 C1794 0.930 . S
H1787 C1795 0.930 . S
H1788 C1798 0.930 . S
H1789 C1799 0.930 . S
C1790 H1784 0.930 . S
C1790 C1791 1.355 . S
C1790 C1792 1.415 . S
C1791 C1790 1.355 . S
C1791 C1793 1.419 . S
C1792 C1790 1.415 . S
C1792 C1797 1.425 . S
C1792 C1799 1.409 . S
C1793 H1785 0.930 . S
C1793 C1791 1.419 . S
C1793 C1794 1.362 . S
C1794 H1786 0.930 . S
C1794 C1793 1.362 . S
C1794 C1797 1.409 . S
C1795 H1787 0.930 . S
C1795 C1796 1.355 . S
C1795 C1797 1.415 . S
C1796 C1795 1.355 . S
C1796 C1798 1.419 . S
C1797 C1792 1.425 . S
C1797 C1794 1.409 . S
C1797 C1795 1.415 . S
C1798 H1788 0.930 . S
C1798 C1796 1.419 . S
C1798 C1799 1.362 . S
C1799 H1789 0.930 . S
C1799 C1792 1.409 . S
C1799 C1798 1.362 . S
H1800 C1806 0.930 . S
H1801 C1809 0.930 . S
H1802 C1810 0.930 . S
H1803 C1811 0.930 . S
H1804 C1814 0.930 . S
H1805 C1815 0.930 . S
C1806 H1800 0.930 . S
C1806 C1807 1.355 . S
C1806 C1808 1.415 1_655 S
C1807 C1806 1.355 . S
C1807 C1809 1.419 . S
C1808 C1806 1.415 1_455 S
C1808 C1813 1.425 1_455 S
C1808 C1815 1.409 . S
C1809 H1801 0.930 . S
C1809 C1807 1.419 . S
C1809 C1810 1.362 . S
C1810 H1802 0.930 . S
C1810 C1809 1.362 . S
C1810 C1813 1.409 . S
C1811 H1803 0.930 . S
C1811 C1812 1.355 . S
C1811 C1813 1.415 1_455 S
C1812 C1811 1.355 . S
C1812 C1814 1.419 . S
C1813 C1808 1.425 1_655 S
C1813 C1810 1.409 . S
C1813 C1811 1.415 1_655 S
C1814 H1804 0.930 . S
C1814 C1812 1.419 . S
C1814 C1815 1.362 . S
C1815 H1805 0.930 . S
C1815 C1808 1.409 . S
C1815 C1814 1.362 . S
H1816 C1822 0.930 . S
H1817 C1825 0.930 . S
H1818 C1826 0.930 . S
H1819 C1827 0.930 . S
H1820 C1830 0.930 . S
H1821 C1831 0.930 . S
C1822 H1816 0.930 . S
C1822 C1823 1.355 . S
C1822 C1824 1.415 . S
C1823 C1822 1.355 . S
C1823 C1825 1.419 . S
C1824 C1822 1.415 . S
C1824 C1829 1.425 . S
C1824 C1831 1.409 . S
C1825 H1817 0.930 . S
C1825 C1823 1.419 . S
C1825 C1826 1.362 . S
C1826 H1818 0.930 . S
C1826 C1825 1.362 . S
C1826 C1829 1.409 . S
C1827 H1819 0.930 . S
C1827 C1828 1.355 . S
C1827 C1829 1.415 . S
C1828 C1827 1.355 . S
C1828 C1830 1.419 . S
C1829 C1824 1.425 . S
C1829 C1826 1.409 . S
C1829 C1827 1.415 . S
C1830 H1820 0.930 . S
C1830 C1828 1.419 . S
C1830 C1831 1.362 . S
C1831 H1821 0.930 . S
C1831 C1824 1.409 . S
C1831 C1830 1.362 . S
H1832 C1838 0.930 . S
H1833 C1841 0.930 . S
H1834 C1842 0.930 . S
H1835 C1843 0.930 . S
H1836 C1846 0.930 . S
H1837 C1847 0.930 . S
C1838 H1832 0.930 . S
C1838 C1839 1.355 . S
C1838 C1840 1.415 1_655 S
C1839 C1838 1.355 . S
C1839 C1841 1.419 . S
C1840 C1838 1.415 1_455 S
C1840 C1845 1.425 1_455 S
C1840 C1847 1.409 . S
C1841 H1833 0.930 . S
C1841 C1839 1.419 . S
C1841 C1842 1.362 . S
C1842 H1834 0.930 . S
C1842 C1841 1.362 . S
C1842 C1845 1.409 . S
C1843 H1835 0.930 . S
C1843 C1844 1.355 . S
C1843 C1845 1.415 1_455 S
C1844 C1843 1.355 . S
C1844 C1846 1.419 . S
C1845 C1840 1.425 1_655 S
C1845 C1842 1.409 . S
C1845 C1843 1.415 1_655 S
C1846 H1836 0.930 . S
C1846 C1844 1.419 . S
C1846 C1847 1.362 . S
C1847 H1837 0.930 . S
C1847 C1840 1.409 . S
C1847 C1846 1.362 . S
H1848 C1854 0.930 . S
H1849 C1857 0.930 . S
H1850 C1858 0.924 1_556 S
H1851 C1859 0.930 . S
H1852 C1862 0.930 . S
H1853 C1863 0.930 . S
C1854 H1848 0.930 . S
C1854 C1855 1.355 . S
C1854 C1856 1.415 . S
C1855 C1854 1.355 . S
C1855 C1857 1.419 . S
C1856 C1854 1.415 . S
C1856 C1861 1.425 1_554 S
C1856 C1863 1.409 . S
C1857 H1849 0.930 . S
C1857 C1855 1.419 . S
C1857 C1858 1.370 . S
C1858 H1850 0.924 1_554 S
C1858 C1857 1.370 . S
C1858 C1861 1.407 1_554 S
C1859 H1851 0.930 . S
C1859 C1860 1.355 . S
C1859 C1861 1.415 . S
C1860 C1859 1.355 . S
C1860 C1862 1.419 . S
C1861 C1856 1.425 1_556 S
C1861 C1858 1.407 1_556 S
C1861 C1859 1.415 . S
C1862 H1852 0.930 . S
C1862 C1860 1.419 . S
C1862 C1863 1.362 1_556 S
C1863 H1853 0.930 . S
C1863 C1856 1.409 . S
C1863 C1862 1.362 1_554 S
H1864 C1870 0.930 . S
H1865 C1873 0.930 . S
H1866 C1874 0.930 . S
H1867 C1875 0.930 . S
H1868 C1878 0.930 . S
H1869 C1879 0.930 . S
C1870 H1864 0.930 . S
C1870 C1871 1.355 . S
C1870 C1872 1.415 . S
C1871 C1870 1.355 . S
C1871 C1873 1.419 . S
C1872 C1870 1.415 . S
C1872 C1877 1.425 . S
C1872 C1879 1.409 . S
C1873 H1865 0.930 . S
C1873 C1871 1.419 . S
C1873 C1874 1.362 . S
C1874 H1866 0.930 . S
C1874 C1873 1.362 . S
C1874 C1877 1.409 . S
C1875 H1867 0.930 . S
C1875 C1876 1.355 . S
C1875 C1877 1.415 . S
C1876 C1875 1.355 . S
C1876 C1878 1.419 . S
C1877 C1872 1.425 . S
C1877 C1874 1.409 . S
C1877 C1875 1.415 . S
C1878 H1868 0.930 . S
C1878 C1876 1.419 . S
C1878 C1879 1.362 . S
C1879 H1869 0.930 . S
C1879 C1872 1.409 . S
C1879 C1878 1.362 . S
H1880 C1886 0.930 . S
H1881 C1889 0.930 . S
H1882 C1890 0.930 . S
H1883 C1891 0.930 . S
H1884 C1894 0.930 . S
H1885 C1895 0.930 . S
C1886 H1880 0.930 . S
C1886 C1887 1.355 . S
C1886 C1888 1.395 1_565 S
C1887 C1886 1.355 . S
C1887 C1889 1.419 . S
C1888 C1886 1.395 1_545 S
C1888 C1893 1.418 1_545 S
C1888 C1895 1.437 . S
C1889 H1881 0.930 . S
C1889 C1887 1.419 . S
C1889 C1890 1.362 . S
C1890 H1882 0.930 . S
C1890 C1889 1.362 . S
C1890 C1893 1.409 . S
C1891 H1883 0.930 . S
C1891 C1892 1.355 . S
C1891 C1893 1.415 1_545 S
C1892 C1891 1.355 . S
C1892 C1894 1.419 . S
C1893 C1888 1.418 1_565 S
C1893 C1890 1.409 . S
C1893 C1891 1.415 1_565 S
C1894 H1884 0.930 . S
C1894 C1892 1.419 . S
C1894 C1895 1.362 . S
C1895 H1885 0.930 . S
C1895 C1888 1.437 . S
C1895 C1894 1.362 . S
H1896 C1902 0.930 . S
H1897 C1905 0.930 . S
H1898 C1906 0.930 . S
H1899 C1907 0.930 . S
H1900 C1910 0.930 . S
H1901 C1911 0.930 . S
C1902 H1896 0.930 . S
C1902 C1903 1.355 . S
C1902 C1904 1.415 . S
C1903 C1902 1.355 . S
C1903 C1905 1.419 . S
C1904 C1902 1.415 . S
C1904 C1909 1.425 . S
C1904 C1911 1.409 . S
C1905 H1897 0.930 . S
C1905 C1903 1.419 . S
C1905 C1906 1.362 . S
C1906 H1898 0.930 . S
C1906 C1905 1.362 . S
C1906 C1909 1.409 . S
C1907 H1899 0.930 . S
C1907 C1908 1.355 . S
C1907 C1909 1.415 . S
C1908 C1907 1.355 . S
C1908 C1910 1.419 . S
C1909 C1904 1.425 . S
C1909 C1906 1.409 . S
C1909 C1907 1.415 . S
C1910 H1900 0.930 . S
C1910 C1908 1.419 . S
C1910 C1911 1.362 . S
C1911 H1901 0.930 . S
C1911 C1904 1.409 . S
C1911 C1910 1.362 . S
H1912 C1918 0.930 . S
H1913 C1921 0.930 . S
H1914 C1922 0.930 . S
H1915 C1923 0.930 . S
H1916 C1926 0.930 . S
H1917 C1927 0.930 . S
C1918 H1912 0.930 . S
C1918 C1919 1.355 . S
C1918 C1920 1.415 . S
C1919 C1918 1.355 . S
C1919 C1921 1.419 . S
C1920 C1918 1.415 . S
C1920 C1925 1.425 . S
C1920 C1927 1.409 . S
C1921 H1913 0.930 . S
C1921 C1919 1.419 . S
C1921 C1922 1.362 . S
C1922 H1914 0.930 . S
C1922 C1921 1.362 . S
C1922 C1925 1.409 . S
C1923 H1915 0.930 . S
C1923 C1924 1.355 . S
C1923 C1925 1.415 . S
C1924 C1923 1.355 . S
C1924 C1926 1.419 . S
C1925 C1920 1.425 . S
C1925 C1922 1.409 . S
C1925 C1923 1.415 . S
C1926 H1916 0.930 . S
C1926 C1924 1.419 . S
C1926 C1927 1.362 . S
C1927 H1917 0.930 . S
C1927 C1920 1.409 . S
C1927 C1926 1.362 . S
H1928 C1934 0.930 . S
H1929 C1937 0.930 . S
H1930 C1938 0.930 . S
H1931 C1939 0.930 . S
H1932 C1942 0.930 . S
H1933 C1943 0.930 . S
C1934 H1928 0.930 . S
C1934 C1935 1.355 . S
C1934 C1936 1.415 . S
C1935 C1934 1.355 . S
C1935 C1937 1.419 . S
C1936 C1934 1.415 . S
C1936 C1941 1.425 . S
C1936 C1943 1.409 . S
C1937 H1929 0.930 . S
C1937 C1935 1.419 . S
C1937 C1938 1.362 . S
C1938 H1930 0.930 . S
C1938 C1937 1.362 . S
C1938 C1941 1.409 . S
C1939 H1931 0.930 . S
C1939 C1940 1.355 . S
C1939 C1941 1.415 . S
C1940 C1939 1.355 . S
C1940 C1942 1.419 . S
C1941 C1936 1.425 . S
C1941 C1938 1.409 . S
C1941 C1939 1.415 . S
C1942 H1932 0.930 . S
C1942 C1940 1.419 . S
C1942 C1943 1.362 . S
C1943 H1933 0.930 . S
C1943 C1936 1.409 . S
C1943 C1942 1.362 . S
H1944 C1950 0.930 . S
H1945 C1953 0.930 . S
H1946 C1954 0.930 . S
H1947 C1955 0.930 . S
H1948 C1958 0.930 . S
H1949 C1959 0.930 . S
C1950 H1944 0.930 . S
C1950 C1951 1.355 . S
C1950 C1952 1.419 . S
C1951 C1950 1.355 . S
C1951 C1953 1.419 . S
C1952 C1950 1.419 . S
C1952 C1957 1.425 1_556 S
C1952 C1959 1.405 1_556 S
C1953 H1945 0.930 . S
C1953 C1951 1.419 . S
C1953 C1954 1.362 . S
C1954 H1946 0.930 . S
C1954 C1953 1.362 . S
C1954 C1957 1.405 1_556 S
C1955 H1947 0.930 . S
C1955 C1956 1.355 . S
C1955 C1957 1.419 . S
C1956 C1955 1.355 . S
C1956 C1958 1.419 . S
C1957 C1952 1.425 1_554 S
C1957 C1954 1.405 1_554 S
C1957 C1955 1.419 . S
C1958 H1948 0.930 . S
C1958 C1956 1.419 . S
C1958 C1959 1.362 . S
C1959 H1949 0.930 . S
C1959 C1952 1.405 1_554 S
C1959 C1958 1.362 . S
H1960 C1966 0.930 . S
H1961 C1969 0.930 . S
H1962 C1970 0.930 . S
H1963 C1971 0.930 . S
H1964 C1974 0.930 . S
H1965 C1975 0.930 . S
C1966 H1960 0.930 . S
C1966 C1967 1.355 . S
C1966 C1968 1.415 . S
C1967 C1966 1.355 . S
C1967 C1969 1.419 . S
C1968 C1966 1.415 . S
C1968 C1973 1.425 . S
C1968 C1975 1.409 . S
C1969 H1961 0.930 . S
C1969 C1967 1.419 . S
C1969 C1970 1.362 . S
C1970 H1962 0.930 . S
C1970 C1969 1.362 . S
C1970 C1973 1.409 . S
C1971 H1963 0.930 . S
C1971 C1972 1.355 . S
C1971 C1973 1.415 . S
C1972 C1971 1.355 . S
C1972 C1974 1.419 . S
C1973 C1968 1.425 . S
C1973 C1970 1.409 . S
C1973 C1971 1.415 . S
C1974 H1964 0.930 . S
C1974 C1972 1.419 . S
C1974 C1975 1.362 . S
C1975 H1965 0.930 . S
C1975 C1968 1.409 . S
C1975 C1974 1.362 . S
H1976 C1982 0.930 . S
H1977 C1985 0.930 . S
H1978 C1986 0.930 . S
H1979 C1987 0.930 . S
H1980 C1990 0.930 . S
H1981 C1991 0.930 . S
C1982 H1976 0.930 . S
C1982 C1983 1.355 . S
C1982 C1984 1.415 1_565 S
C1983 C1982 1.355 . S
C1983 C1985 1.419 . S
C1984 C1982 1.415 1_545 S
C1984 C1989 1.425 1_545 S
C1984 C1991 1.409 . S
C1985 H1977 0.930 . S
C1985 C1983 1.419 . S
C1985 C1986 1.362 . S
C1986 H1978 0.930 . S
C1986 C1985 1.362 . S
C1986 C1989 1.409 . S
C1987 H1979 0.930 . S
C1987 C1988 1.355 . S
C1987 C1989 1.415 1_545 S
C1988 C1987 1.355 . S
C1988 C1990 1.419 . S
C1989 C1984 1.425 1_565 S
C1989 C1986 1.409 . S
C1989 C1987 1.415 1_565 S
C1990 H1980 0.930 . S
C1990 C1988 1.419 . S
C1990 C1991 1.362 . S
C1991 H1981 0.930 . S
C1991 C1984 1.409 . S
C1991 C1990 1.362 . S
H1992 C1998 0.930 . S
H1993 C2001 0.930 . S
H1994 C2002 0.930 1_554 S
H1995 C2003 0.930 . S
H1996 C2006 0.930 . S
H1997 C2007 0.930 1_556 S
C1998 H1992 0.930 . S
C1998 C1999 1.355 . S
C1998 C2000 1.415 . S
C1999 C1998 1.355 . S
C1999 C2001 1.419 . S
C2000 C1998 1.415 . S
C2000 C2005 1.425 1_556 S
C2000 C2007 1.409 1_556 S
C2001 H1993 0.930 . S
C2001 C1999 1.419 . S
C2001 C2002 1.362 . S
C2002 H1994 0.930 1_556 S
C2002 C2001 1.362 . S
C2002 C2005 1.409 1_556 S
C2003 H1995 0.930 . S
C2003 C2004 1.355 . S
C2003 C2005 1.415 . S
C2004 C2003 1.355 . S
C2004 C2006 1.419 . S
C2005 C2000 1.425 1_554 S
C2005 C2002 1.409 1_554 S
C2005 C2003 1.415 . S
C2006 H1996 0.930 . S
C2006 C2004 1.419 . S
C2006 C2007 1.362 . S
C2007 H1997 0.930 1_554 S
C2007 C2000 1.409 1_554 S
C2007 C2006 1.362 . S
H2008 C2014 0.909 1_565 S
H2009 C2017 0.930 . S
H2010 C2018 0.930 . S
H2011 C2019 0.909 1_545 S
H2012 C2022 0.930 . S
H2013 C2023 0.930 . S
C2014 H2008 0.909 1_545 S
C2014 C2015 1.386 . S
C2014 C2016 1.404 1_545 S
C2015 C2014 1.386 . S
C2015 C2017 1.419 . S
C2016 C2014 1.404 1_565 S
C2016 C2021 1.425 1_565 S
C2016 C2023 1.409 . S
C2017 H2009 0.930 . S
C2017 C2015 1.419 . S
C2017 C2018 1.362 . S
C2018 H2010 0.930 . S
C2018 C2017 1.362 . S
C2018 C2021 1.409 . S
C2019 H2011 0.909 1_565 S
C2019 C2020 1.386 . S
C2019 C2021 1.404 1_565 S
C2020 C2019 1.386 . S
C2020 C2022 1.419 . S
C2021 C2016 1.425 1_545 S
C2021 C2018 1.409 . S
C2021 C2019 1.404 1_545 S
C2022 H2012 0.930 . S
C2022 C2020 1.419 . S
C2022 C2023 1.362 . S
C2023 H2013 0.930 . S
C2023 C2016 1.409 . S
C2023 C2022 1.362 . S
H2024 C2030 0.930 . S
H2025 C2033 0.930 . S
H2026 C2034 0.930 . S
H2027 C2035 0.930 . S
H2028 C2038 0.930 . S
H2029 C2039 0.930 . S
C2030 H2024 0.930 . S
C2030 C2031 1.355 . S
C2030 C2032 1.415 . S
C2031 C2030 1.355 . S
C2031 C2033 1.419 . S
C2032 C2030 1.415 . S
C2032 C2037 1.425 . S
C2032 C2039 1.409 . S
C2033 H2025 0.930 . S
C2033 C2031 1.419 . S
C2033 C2034 1.362 . S
C2034 H2026 0.930 . S
C2034 C2033 1.362 . S
C2034 C2037 1.409 . S
C2035 H2027 0.930 . S
C2035 C2036 1.355 . S
C2035 C2037 1.415 . S
C2036 C2035 1.355 . S
C2036 C2038 1.419 . S
C2037 C2032 1.425 . S
C2037 C2034 1.409 . S
C2037 C2035 1.415 . S
C2038 H2028 0.930 . S
C2038 C2036 1.419 . S
C2038 C2039 1.362 . S
C2039 H2029 0.930 . S
C2039 C2032 1.409 . S
C2039 C2038 1.362 . S
H2040 C2046 0.930 . S
H2041 C2049 0.930 . S
H2042 C2050 0.930 . S
H2043 C2051 0.930 . S
H2044 C2054 0.930 . S
H2045 C2055 0.930 . S
C2046 H2040 0.930 . S
C2046 C2047 1.355 . S
C2046 C2048 1.415 . S
C2047 C2046 1.355 . S
C2047 C2049 1.419 . S
C2048 C2046 1.415 . S
C2048 C2053 1.425 1_655 S
C2048 C2055 1.409 . S
C2049 H2041 0.930 . S
C2049 C2047 1.419 . S
C2049 C2050 1.362 1_655 S
C2050 H2042 0.930 . S
C2050 C2049 1.362 1_455 S
C2050 C2053 1.409 . S
C2051 H2043 0.930 . S
C2051 C2052 1.355 . S
C2051 C2053 1.415 . S
C2052 C2051 1.355 . S
C2052 C2054 1.419 . S
C2053 C2048 1.425 1_455 S
C2053 C2050 1.409 . S
C2053 C2051 1.415 . S
C2054 H2044 0.930 . S
C2054 C2052 1.419 . S
C2054 C2055 1.362 1_455 S
C2055 H2045 0.930 . S
C2055 C2048 1.409 . S
C2055 C2054 1.362 1_655 S
H2056 C2062 0.940 . S
H2057 C2065 0.930 . S
H2058 C2066 0.930 . S
H2059 C2067 0.940 . S
H2060 C2070 0.930 . S
H2061 C2071 0.930 . S
C2062 H2056 0.940 . S
C2062 C2063 1.339 1_455 S
C2062 C2064 1.420 . S
C2063 C2062 1.339 1_655 S
C2063 C2065 1.419 . S
C2064 C2062 1.420 . S
C2064 C2069 1.425 1_455 S
C2064 C2071 1.409 . S
C2065 H2057 0.930 . S
C2065 C2063 1.419 . S
C2065 C2066 1.362 . S
C2066 H2058 0.930 . S
C2066 C2065 1.362 . S
C2066 C2069 1.409 . S
C2067 H2059 0.940 . S
C2067 C2068 1.339 1_655 S
C2067 C2069 1.420 . S
C2068 C2067 1.339 1_455 S
C2068 C2070 1.419 . S
C2069 C2064 1.425 1_655 S
C2069 C2066 1.409 . S
C2069 C2067 1.420 . S
C2070 H2060 0.930 . S
C2070 C2068 1.419 . S
C2070 C2071 1.362 . S
C2071 H2061 0.930 . S
C2071 C2064 1.409 . S
C2071 C2070 1.362 . S
H2072 C2078 0.930 . S
H2073 C2081 0.930 . S
H2074 C2082 0.930 . S
H2075 C2083 0.930 . S
H2076 C2086 0.930 . S
H2077 C2087 0.930 . S
C2078 H2072 0.930 . S
C2078 C2079 1.355 . S
C2078 C2080 1.415 . S
C2079 C2078 1.355 . S
C2079 C2081 1.419 . S
C2080 C2078 1.415 . S
C2080 C2085 1.425 . S
C2080 C2087 1.409 . S
C2081 H2073 0.930 . S
C2081 C2079 1.419 . S
C2081 C2082 1.362 . S
C2082 H2074 0.930 . S
C2082 C2081 1.362 . S
C2082 C2085 1.409 . S
C2083 H2075 0.930 . S
C2083 C2084 1.355 . S
C2083 C2085 1.415 . S
C2084 C2083 1.355 . S
C2084 C2086 1.419 . S
C2085 C2080 1.425 . S
C2085 C2082 1.409 . S
C2085 C2083 1.415 . S
C2086 H2076 0.930 . S
C2086 C2084 1.419 . S
C2086 C2087 1.362 . S
C2087 H2077 0.930 . S
C2087 C2080 1.409 . S
C2087 C2086 1.362 . S
H2088 C2094 0.930 . S
H2089 C2097 0.930 . S
H2090 C2098 0.930 . S
H2091 C2099 0.930 . S
H2092 C2102 0.930 . S
H2093 C2103 0.930 . S
C2094 H2088 0.930 . S
C2094 C2095 1.355 . S
C2094 C2096 1.415 1_655 S
C2095 C2094 1.355 . S
C2095 C2097 1.419 . S
C2096 C2094 1.415 1_455 S
C2096 C2101 1.425 1_455 S
C2096 C2103 1.409 . S
C2097 H2089 0.930 . S
C2097 C2095 1.419 . S
C2097 C2098 1.362 . S
C2098 H2090 0.930 . S
C2098 C2097 1.362 . S
C2098 C2101 1.409 . S
C2099 H2091 0.930 . S
C2099 C2100 1.355 . S
C2099 C2101 1.415 1_455 S
C2100 C2099 1.355 . S
C2100 C2102 1.419 . S
C2101 C2096 1.425 1_655 S
C2101 C2098 1.409 . S
C2101 C2099 1.415 1_655 S
C2102 H2092 0.930 . S
C2102 C2100 1.419 . S
C2102 C2103 1.362 . S
C2103 H2093 0.930 . S
C2103 C2096 1.409 . S
C2103 C2102 1.362 . S
H2104 C2110 0.930 . S
H2105 C2113 0.930 . S
H2106 C2114 0.930 . S
H2107 C2115 0.930 . S
H2108 C2118 0.930 . S
H2109 C2119 0.930 . S
C2110 H2104 0.930 . S
C2110 C2111 1.355 . S
C2110 C2112 1.409 1_455 S
C2111 C2110 1.355 . S
C2111 C2113 1.419 . S
C2112 C2110 1.409 1_655 S
C2112 C2117 1.425 1_655 S
C2112 C2119 1.416 . S
C2113 H2105 0.930 . S
C2113 C2111 1.419 . S
C2113 C2114 1.362 . S
C2114 H2106 0.930 . S
C2114 C2113 1.362 . S
C2114 C2117 1.416 . S
C2115 H2107 0.930 . S
C2115 C2116 1.355 . S
C2115 C2117 1.409 1_655 S
C2116 C2115 1.355 . S
C2116 C2118 1.419 . S
C2117 C2112 1.425 1_455 S
C2117 C2114 1.416 . S
C2117 C2115 1.409 1_455 S
C2118 H2108 0.930 . S
C2118 C2116 1.419 . S
C2118 C2119 1.362 . S
C2119 H2109 0.930 . S
C2119 C2112 1.416 . S
C2119 C2118 1.362 . S
H2120 C2126 0.930 . S
H2121 C2129 0.930 . S
H2122 C2130 0.930 . S
H2123 C2131 0.930 . S
H2124 C2134 0.930 . S
H2125 C2135 0.930 . S
C2126 H2120 0.930 . S
C2126 C2127 1.355 . S
C2126 C2128 1.415 . S
C2127 C2126 1.355 . S
C2127 C2129 1.419 . S
C2128 C2126 1.415 . S
C2128 C2133 1.425 . S
C2128 C2135 1.409 . S
C2129 H2121 0.930 . S
C2129 C2127 1.419 . S
C2129 C2130 1.362 . S
C2130 H2122 0.930 . S
C2130 C2129 1.362 . S
C2130 C2133 1.409 . S
C2131 H2123 0.930 . S
C2131 C2132 1.355 . S
C2131 C2133 1.415 . S
C2132 C2131 1.355 . S
C2132 C2134 1.419 . S
C2133 C2128 1.425 . S
C2133 C2130 1.409 . S
C2133 C2131 1.415 . S
C2134 H2124 0.930 . S
C2134 C2132 1.419 . S
C2134 C2135 1.362 . S
C2135 H2125 0.930 . S
C2135 C2128 1.409 . S
C2135 C2134 1.362 . S
H2136 C2142 0.930 . S
H2137 C2145 0.930 . S
H2138 C2146 0.930 . S
H2139 C2147 0.930 . S
H2140 C2150 0.930 . S
H2141 C2151 0.930 . S
C2142 H2136 0.930 . S
C2142 C2143 1.355 . S
C2142 C2144 1.412 1_545 S
C2143 C2142 1.355 . S
C2143 C2145 1.419 . S
C2144 C2142 1.412 1_565 S
C2144 C2149 1.425 1_565 S
C2144 C2151 1.411 . S
C2145 H2137 0.930 . S
C2145 C2143 1.419 . S
C2145 C2146 1.362 . S
C2146 H2138 0.930 . S
C2146 C2145 1.362 . S
C2146 C2149 1.411 . S
C2147 H2139 0.930 . S
C2147 C2148 1.355 . S
C2147 C2149 1.412 1_565 S
C2148 C2147 1.355 . S
C2148 C2150 1.419 . S
C2149 C2144 1.425 1_545 S
C2149 C2146 1.411 . S
C2149 C2147 1.412 1_545 S
C2150 H2140 0.930 . S
C2150 C2148 1.419 . S
C2150 C2151 1.362 . S
C2151 H2141 0.930 . S
C2151 C2144 1.411 . S
C2151 C2150 1.362 . S
H2152 C2158 0.930 . S
H2153 C2161 0.930 . S
H2154 C2162 0.930 . S
H2155 C2163 0.930 . S
H2156 C2166 0.930 . S
H2157 C2167 0.930 . S
C2158 H2152 0.930 . S
C2158 C2159 1.355 . S
C2158 C2160 1.405 1_554 S
C2159 C2158 1.355 . S
C2159 C2161 1.419 . S
C2160 C2158 1.405 1_556 S
C2160 C2165 1.424 1_556 S
C2160 C2167 1.420 . S
C2161 H2153 0.930 . S
C2161 C2159 1.419 . S
C2161 C2162 1.362 . S
C2162 H2154 0.930 . S
C2162 C2161 1.362 . S
C2162 C2165 1.420 . S
C2163 H2155 0.930 . S
C2163 C2164 1.355 . S
C2163 C2165 1.405 1_556 S
C2164 C2163 1.355 . S
C2164 C2166 1.419 . S
C2165 C2160 1.424 1_554 S
C2165 C2162 1.420 . S
C2165 C2163 1.405 1_554 S
C2166 H2156 0.930 . S
C2166 C2164 1.419 . S
C2166 C2167 1.362 . S
C2167 H2157 0.930 . S
C2167 C2160 1.420 . S
C2167 C2166 1.362 . S
H2168 C2174 0.930 . S
H2169 C2177 0.930 . S
H2170 C2178 0.930 . S
H2171 C2179 0.930 . S
H2172 C2182 0.930 . S
H2173 C2183 0.930 . S
C2174 H2168 0.930 . S
C2174 C2175 1.355 . S
C2174 C2176 1.415 . S
C2175 C2174 1.355 . S
C2175 C2177 1.419 . S
C2176 C2174 1.415 . S
C2176 C2181 1.425 1_565 S
C2176 C2183 1.409 . S
C2177 H2169 0.930 . S
C2177 C2175 1.419 . S
C2177 C2178 1.362 1_565 S
C2178 H2170 0.930 . S
C2178 C2177 1.362 1_545 S
C2178 C2181 1.409 . S
C2179 H2171 0.930 . S
C2179 C2180 1.355 . S
C2179 C2181 1.415 . S
C2180 C2179 1.355 . S
C2180 C2182 1.419 . S
C2181 C2176 1.425 1_545 S
C2181 C2178 1.409 . S
C2181 C2179 1.415 . S
C2182 H2172 0.930 . S
C2182 C2180 1.419 . S
C2182 C2183 1.362 1_545 S
C2183 H2173 0.930 . S
C2183 C2176 1.409 . S
C2183 C2182 1.362 1_565 S
H2184 C2190 0.930 . S
H2185 C2193 0.930 . S
H2186 C2194 0.930 . S
H2187 C2195 0.930 . S
H2188 C2198 0.930 . S
H2189 C2199 0.930 . S
C2190 H2184 0.930 . S
C2190 C2191 1.355 . S
C2190 C2192 1.415 . S
C2191 C2190 1.355 . S
C2191 C2193 1.419 . S
C2192 C2190 1.415 . S
C2192 C2197 1.425 . S
C2192 C2199 1.409 . S
C2193 H2185 0.930 . S
C2193 C2191 1.419 . S
C2193 C2194 1.362 . S
C2194 H2186 0.930 . S
C2194 C2193 1.362 . S
C2194 C2197 1.409 . S
C2195 H2187 0.930 . S
C2195 C2196 1.355 . S
C2195 C2197 1.415 . S
C2196 C2195 1.355 . S
C2196 C2198 1.419 . S
C2197 C2192 1.425 . S
C2197 C2194 1.409 . S
C2197 C2195 1.415 . S
C2198 H2188 0.930 . S
C2198 C2196 1.419 . S
C2198 C2199 1.362 . S
C2199 H2189 0.930 . S
C2199 C2192 1.409 . S
C2199 C2198 1.362 . S
H2200 C2206 0.930 . S
H2201 C2209 0.930 . S
H2202 C2210 0.930 . S
H2203 C2211 0.930 . S
H2204 C2214 0.930 . S
H2205 C2215 0.930 . S
C2206 H2200 0.930 . S
C2206 C2207 1.355 . S
C2206 C2208 1.415 1_554 S
C2207 C2206 1.355 . S
C2207 C2209 1.419 . S
C2208 C2206 1.415 1_556 S
C2208 C2213 1.425 1_556 S
C2208 C2215 1.409 . S
C2209 H2201 0.930 . S
C2209 C2207 1.419 . S
C2209 C2210 1.362 . S
C2210 H2202 0.930 . S
C2210 C2209 1.362 . S
C2210 C2213 1.409 . S
C2211 H2203 0.930 . S
C2211 C2212 1.355 . S
C2211 C2213 1.415 1_556 S
C2212 C2211 1.355 . S
C2212 C2214 1.419 . S
C2213 C2208 1.425 1_554 S
C2213 C2210 1.409 . S
C2213 C2211 1.415 1_554 S
C2214 H2204 0.930 . S
C2214 C2212 1.419 . S
C2214 C2215 1.362 . S
C2215 H2205 0.930 . S
C2215 C2208 1.409 . S
C2215 C2214 1.362 . S
H2216 C2222 0.930 . S
H2217 C2225 0.930 . S
H2218 C2226 0.930 . S
H2219 C2227 0.930 . S
H2220 C2230 0.930 . S
H2221 C2231 0.930 . S
C2222 H2216 0.930 . S
C2222 C2223 1.355 . S
C2222 C2224 1.415 . S
C2223 C2222 1.355 . S
C2223 C2225 1.419 . S
C2224 C2222 1.415 . S
C2224 C2229 1.425 . S
C2224 C2231 1.409 . S
C2225 H2217 0.930 . S
C2225 C2223 1.419 . S
C2225 C2226 1.362 . S
C2226 H2218 0.930 . S
C2226 C2225 1.362 . S
C2226 C2229 1.409 . S
C2227 H2219 0.930 . S
C2227 C2228 1.355 . S
C2227 C2229 1.415 . S
C2228 C2227 1.355 . S
C2228 C2230 1.419 . S
C2229 C2224 1.425 . S
C2229 C2226 1.409 . S
C2229 C2227 1.415 . S
C2230 H2220 0.930 . S
C2230 C2228 1.419 . S
C2230 C2231 1.362 . S
C2231 H2221 0.930 . S
C2231 C2224 1.409 . S
C2231 C2230 1.362 . S
H2232 C2238 0.930 . S
H2233 C2241 0.930 . S
H2234 C2242 0.930 . S
H2235 C2243 0.930 . S
H2236 C2246 0.930 . S
H2237 C2247 0.930 . S
C2238 H2232 0.930 . S
C2238 C2239 1.355 . S
C2238 C2240 1.415 . S
C2239 C2238 1.355 . S
C2239 C2241 1.419 . S
C2240 C2238 1.415 . S
C2240 C2245 1.425 . S
C2240 C2247 1.409 . S
C2241 H2233 0.930 . S
C2241 C2239 1.419 . S
C2241 C2242 1.362 . S
C2242 H2234 0.930 . S
C2242 C2241 1.362 . S
C2242 C2245 1.409 . S
C2243 H2235 0.930 . S
C2243 C2244 1.355 . S
C2243 C2245 1.415 . S
C2244 C2243 1.355 . S
C2244 C2246 1.419 . S
C2245 C2240 1.425 . S
C2245 C2242 1.409 . S
C2245 C2243 1.415 . S
C2246 H2236 0.930 . S
C2246 C2244 1.419 . S
C2246 C2247 1.362 . S
C2247 H2237 0.930 . S
C2247 C2240 1.409 . S
C2247 C2246 1.362 . S
H2248 C2254 0.930 . S
H2249 C2257 0.930 . S
H2250 C2258 0.930 . S
H2251 C2259 0.930 . S
H2252 C2262 0.930 . S
H2253 C2263 0.930 . S
C2254 H2248 0.930 . S
C2254 C2255 1.355 . S
C2254 C2256 1.415 . S
C2255 C2254 1.355 . S
C2255 C2257 1.419 . S
C2256 C2254 1.415 . S
C2256 C2261 1.425 . S
C2256 C2263 1.409 . S
C2257 H2249 0.930 . S
C2257 C2255 1.419 . S
C2257 C2258 1.362 . S
C2258 H2250 0.930 . S
C2258 C2257 1.362 . S
C2258 C2261 1.409 . S
C2259 H2251 0.930 . S
C2259 C2260 1.355 . S
C2259 C2261 1.415 . S
C2260 C2259 1.355 . S
C2260 C2262 1.419 . S
C2261 C2256 1.425 . S
C2261 C2258 1.409 . S
C2261 C2259 1.415 . S
C2262 H2252 0.930 . S
C2262 C2260 1.419 . S
C2262 C2263 1.362 . S
C2263 H2253 0.930 . S
C2263 C2256 1.409 . S
C2263 C2262 1.362 . S
H2264 C2270 0.930 . S
H2265 C2273 0.930 . S
H2266 C2274 0.930 . S
H2267 C2275 0.930 . S
H2268 C2278 0.930 . S
H2269 C2279 0.930 . S
C2270 H2264 0.930 . S
C2270 C2271 1.355 . S
C2270 C2272 1.415 . S
C2271 C2270 1.355 . S
C2271 C2273 1.419 . S
C2272 C2270 1.415 . S
C2272 C2277 1.425 . S
C2272 C2279 1.409 . S
C2273 H2265 0.930 . S
C2273 C2271 1.419 . S
C2273 C2274 1.362 . S
C2274 H2266 0.930 . S
C2274 C2273 1.362 . S
C2274 C2277 1.409 . S
C2275 H2267 0.930 . S
C2275 C2276 1.355 . S
C2275 C2277 1.415 . S
C2276 C2275 1.355 . S
C2276 C2278 1.419 . S
C2277 C2272 1.425 . S
C2277 C2274 1.409 . S
C2277 C2275 1.415 . S
C2278 H2268 0.930 . S
C2278 C2276 1.419 . S
C2278 C2279 1.362 . S
C2279 H2269 0.930 . S
C2279 C2272 1.409 . S
C2279 C2278 1.362 . S
C751 C1 1.134 . S
C756 C277 1.061 . S
C767 C51 1.000 . S
C772 C308 1.073 . S
C783 C339 1.120 . S
C788 C82 1.044 . S
C799 C370 1.045 . S
C804 C113 1.127 . S
C815 C144 1.126 . S
C820 C343 1.125 . S
C831 C175 1.137 . S
C836 C250 1.108 . S
C847 C187 1.035 . S
C852 C281 0.984 . S
C863 C312 1.002 . S
C868 C218 1.090 . S
C879 C374 1.135 . S
C884 C268 1.107 . S
C895 C299 1.128 . S
C900 C498 1.046 . S
C911 C330 1.078 . S
C916 C436 1.134 . S
C927 C467 1.003 . S
C932 C361 0.999 . S
C943 C342 1.043 . S
C948 C618 1.119 . S
C959 C556 1.117 . S
C964 C249 1.039 . S
C975 C280 1.133 . S
C980 C560 1.116 . S
C991 C432 1.113 . S
C996 C311 1.034 . S
C1007 C373 0.996 . S
C1012 C2 1.008 . S
C1023 C237 1.004 . S
C1028 C529 0.998 . S
C1039 C587 0.984 . S
C1044 C125 1.045 . S
C1055 C405 1.091 . S
C1060 C156 1.012 . S
C1071 C219 1.072 . S
C1076 C423 1.132 1_545 S
C1087 C91 1.114 . S
C1092 C435 1.134 . S
C1103 C463 1.006 . S
C1108 C20 1.096 . S
C1119 C401 1.126 . S
C1124 C63 1.125 . S
C1135 C485 1.018 . S
C1140 C649 1.098 . S
C1151 C392 1.140 . S
C1156 C680 1.090 . S
C1167 C684 1.088 . S
C1172 C516 1.010 . S
C1183 C454 1.129 . S
C1188 C742 1.052 . S
C1199 C715 1.064 . S
C1204 C528 0.996 . S
C1215 C622 1.043 . S
C1220 C578 0.991 . S
C1231 C404 0.990 . S
C1236 C653 1.035 . S
C1247 C711 1.010 . S
C1252 C590 1.100 . S
C1263 C33 1.052 . S
C1268 C640 0.992 . S
C1279 C671 1.042 . S
C1284 C64 1.119 . S
C1295 C95 1.081 . S
C1300 C683 1.139 . S
C1311 C29 1.108 . S
C1316 C733 1.137 . S
C1327 C714 1.074 . S
C1332 C246 0.992 . S
C1343 C621 1.049 . S
C1348 C126 1.123 . S
C1359 C652 1.036 . S
C1364 C157 1.114 . S
C1375 C702 1.061 . S
C1380 C215 1.129 . S
C1391 C32 1.007 . S
C1396 C494 0.995 . S
C1407 C153 1.065 . S
C1412 C609 0.997 . S
C1423 C547 1.140 . S
C1428 C184 1.023 . S
C1439 C188 1.050 . S
C1444 C559 1.130 . S
C1455 C206 1.103 . S
C1460 C591 1.012 . S
C1471 C94 1.130 . S
C1476 C525 1.121 . S
C1487 C466 1.131 1_545 S
C1492 C122 1.080 . S
C1503 C497 1.014 . S
C1508 C60 0.990 . S
C1519 C0 2.671 . S
C1524 C298 2.660 . S
C1535 C329 2.657 . S
C1540 C50 2.667 . S
C1551 C360 2.676 . S
C1556 C81 2.669 . S
C1567 C267 2.672 . S
C1572 C112 2.677 . S
C1583 C310 2.670 . S
C1588 C143 2.659 . S
C1599 C341 2.654 . S
C1604 C174 2.659 . S
C1615 C248 2.673 . S
C1620 C186 2.663 . S
C1631 C217 2.655 . S
C1636 C279 2.664 . S
C1647 C124 2.676 . S
C1652 C372 2.670 . S
C1663 C236 2.675 . S
C1668 C465 2.676 . S
C1679 C496 2.654 . S
C1684 C155 2.657 . S
C1695 C422 2.676 . S
C1700 C93 2.675 . S
C1711 C205 2.667 . S
C1716 C434 2.657 . S
C1727 C19 2.663 . S
C1732 C608 2.673 . S
C1743 C558 2.674 . S
C1748 C62 2.664 . S
C1759 C670 2.654 . S
C1764 C484 2.660 . S
C1775 C682 2.663 . S
C1780 C391 2.655 . S
C1791 C515 2.667 . S
C1796 C732 2.657 . S
C1807 C639 2.658 . S
C1812 C453 2.668 . S
C1823 C701 2.656 . S
C1828 C527 2.664 . S
C1839 C713 2.656 . S
C1844 C577 2.665 . S
C1855 C403 2.676 . S
C1860 C620 2.674 . S
C1871 C651 2.656 . S
C1876 C589 2.666 . S
C1887 C31 2.654 . S
C1892 C546 2.658 . S
C1903 C154 1.450 . S
C1908 C10 1.469 . S
C1919 C185 1.463 . S
C1924 C61 1.445 . S
C1935 C196 1.455 . S
C1940 C92 1.474 . S
C1951 C227 1.477 . S
C1956 C123 1.458 . S
C1967 C289 1.469 . S
C1972 C278 1.451 . S
C1983 C320 1.467 . S
C1988 C309 1.448 . S
C1999 C340 1.432 . S
C2004 C351 1.446 . S
C2015 C258 1.444 . S
C2020 C371 1.430 . S
C2031 C382 1.449 . S
C2036 C103 1.468 . S
C2047 C247 1.428 . S
C2052 C568 1.426 . S
C2063 C433 1.435 . S
C2068 C134 1.426 . S
C2079 C165 1.429 . S
C2084 C619 1.425 . S
C2095 C41 1.480 . S
C2100 C444 1.493 . S
C2111 C30 1.475 . S
C2116 C506 1.456 . S
C2127 C72 1.464 . S
C2132 C475 1.481 . S
C2143 C537 1.467 . S
C2148 C495 1.484 . S
C2159 C402 1.474 . S
C2164 C588 1.456 . S
C2175 C413 1.429 . S
C2180 C526 1.425 . S
C2191 C464 1.491 . S
C2196 C599 1.497 . S
C2207 C661 1.477 . S
C2212 C650 1.491 . S
C2223 C712 1.430 . S
C2228 C681 1.443 . S
C2239 C723 1.426 . S
C2244 C692 1.433 . S
C2255 C743 1.476 . S
C2260 C630 1.490 . S
C2271 C216 1.426 . S
C2276 C557 1.428 . S
