# Generated by pormake.
# Topology svc, (7)-cn, num edge types: 1
# Building blocks:
#     Node 0, Type 0, BuildingBlock: HICVOG_clean_sbu_0, # of connection points: 7
#     Node 1, Type 0, BuildingBlock: HICVOG_clean_sbu_0, # of connection points: 7
#     Node 2, Type 0, BuildingBlock: HICVOG_clean_sbu_0, # of connection points: 7
#     Node 3, Type 0, BuildingBlock: HICVOG_clean_sbu_0, # of connection points: 7
#     Node 4, Type 0, BuildingBlock: HICVOG_clean_sbu_0, # of connection points: 7
#     Node 5, Type 0, BuildingBlock: HICVOG_clean_sbu_0, # of connection points: 7
#     Node 6, Type 0, BuildingBlock: HICVOG_clean_sbu_0, # of connection points: 7
#     Node 7, Type 0, BuildingBlock: HICVOG_clean_sbu_0, # of connection points: 7
#     Node 8, Type 0, BuildingBlock: HICVOG_clean_sbu_0, # of connection points: 7
#     Node 9, Type 0, BuildingBlock: HICVOG_clean_sbu_0, # of connection points: 7
#     Node 10, Type 0, BuildingBlock: HICVOG_clean_sbu_0, # of connection points: 7
#     Node 11, Type 0, BuildingBlock: HICVOG_clean_sbu_0, # of connection points: 7
#     Node 12, Type 0, BuildingBlock: HICVOG_clean_sbu_0, # of connection points: 7
#     Node 13, Type 0, BuildingBlock: HICVOG_clean_sbu_0, # of connection points: 7
#     Node 14, Type 0, BuildingBlock: HICVOG_clean_sbu_0, # of connection points: 7
#     Node 15, Type 0, BuildingBlock: HICVOG_clean_sbu_0, # of connection points: 7
#     Edge 16, Type (0, 0), None
#     Edge 17, Type (0, 0), None
#     Edge 18, Type (0, 0), None
#     Edge 19, Type (0, 0), None
#     Edge 20, Type (0, 0), None
#     Edge 21, Type (0, 0), None
#     Edge 22, Type (0, 0), None
#     Edge 23, Type (0, 0), None
#     Edge 24, Type (0, 0), None
#     Edge 25, Type (0, 0), None
#     Edge 26, Type (0, 0), None
#     Edge 27, Type (0, 0), None
#     Edge 28, Type (0, 0), None
#     Edge 29, Type (0, 0), None
#     Edge 30, Type (0, 0), None
#     Edge 31, Type (0, 0), None
#     Edge 32, Type (0, 0), None
#     Edge 33, Type (0, 0), None
#     Edge 34, Type (0, 0), None
#     Edge 35, Type (0, 0), None
#     Edge 36, Type (0, 0), None
#     Edge 37, Type (0, 0), None
#     Edge 38, Type (0, 0), None
#     Edge 39, Type (0, 0), None
#     Edge 40, Type (0, 0), None
#     Edge 41, Type (0, 0), None
#     Edge 42, Type (0, 0), None
#     Edge 43, Type (0, 0), None
#     Edge 44, Type (0, 0), None
#     Edge 45, Type (0, 0), None
#     Edge 46, Type (0, 0), None
#     Edge 47, Type (0, 0), None
#     Edge 48, Type (0, 0), None
#     Edge 49, Type (0, 0), None
#     Edge 50, Type (0, 0), None
#     Edge 51, Type (0, 0), None
#     Edge 52, Type (0, 0), None
#     Edge 53, Type (0, 0), None
#     Edge 54, Type (0, 0), None
#     Edge 55, Type (0, 0), None
#     Edge 56, Type (0, 0), None
#     Edge 57, Type (0, 0), None
#     Edge 58, Type (0, 0), None
#     Edge 59, Type (0, 0), None
#     Edge 60, Type (0, 0), None
#     Edge 61, Type (0, 0), None
#     Edge 62, Type (0, 0), None
#     Edge 63, Type (0, 0), None
#     Edge 64, Type (0, 0), None
#     Edge 65, Type (0, 0), None
#     Edge 66, Type (0, 0), None
#     Edge 67, Type (0, 0), None
#     Edge 68, Type (0, 0), None
#     Edge 69, Type (0, 0), None
#     Edge 70, Type (0, 0), None
#     Edge 71, Type (0, 0), None
# Relax obj value: 0.220
# Max RMSD: 0.265
# Mean RMSD: 0.227
data_MOF--net-svc--node1-HICVOG_clean_sbu_0--edge1-none
_symmetry_space_group_name_H-M    P1
_symmetry_Int_Tables_number       1
_symmetry_cell_setting            triclinic
loop_
_symmetry_equiv_pos_as_xyz
'x, y, z'
_cell_length_a     14.951142
_cell_length_b     12.928034
_cell_length_c     46.768351
_cell_angle_alpha  100.22867
_cell_angle_beta   96.131525
_cell_angle_gamma 88.144132
loop_
_atom_site_label
_atom_site_type_symbol
_atom_site_fract_x
_atom_site_fract_y
_atom_site_fract_z
_atom_type_partial_charge
Zn0 Zn 0.2994 0.52805 0.12123 0.0
C1 C 0.09739 0.40714 0.14244 0.0
N2 N 0.13115 0.32857 0.12351 0.0
C3 C 0.21992 0.34552 0.12647 0.0
N4 N 0.2363 0.4431 0.14158 0.0
N5 N 0.162 0.48108 0.15266 0.0
C6 C 1.01947 0.72068 0.16394 0.0
O7 O 0.0685 0.71552 0.14204 0.0
O8 O 0.42664 0.48477 0.12521 0.0
Zn9 Zn 0.17005 0.61474 0.18221 0.0
N10 N 0.24777 0.49996 0.08165 0.0
C11 C 0.11847 0.48359 0.04701 0.0
C12 C 0.15692 0.50572 0.07584 0.0
C13 C 0.30195 0.47239 0.06005 0.0
N14 N 0.17268 0.4579 0.02525 0.0
C15 C 0.26378 0.45145 0.031 0.0
O16 O 0.24102 0.74374 0.17372 0.0
C17 C 0.28679 0.76235 0.1537 0.0
O18 O 0.30804 0.68672 0.13418 0.0
H19 H 0.11498 0.52791 0.09346 0.0
H20 H 0.37401 0.4691 0.0656 0.0
C21 C 0.18648 0.52203 0.23588 0.0
C22 C 0.22656 0.5131 0.26409 0.0
C23 C 0.33939 0.63207 0.2594 0.0
C24 C 0.29957 0.64088 0.2316 0.0
N25 N 0.22334 0.58702 0.22039 0.0
N26 N 0.30181 0.56919 0.27503 0.0
H27 H 0.12555 0.48032 0.22673 0.0
C28 C 0.45678 0.48014 0.15134 0.0
O29 O 0.39999 0.47428 0.17047 0.0
O30 O 1.04724 0.6757 0.18531 0.0
H31 H 0.32882 0.69167 0.21919 0.0
H32 H 1.04642 0.48847 0.04197 0.0
H33 H 0.39951 0.67541 0.26859 0.0
Zn34 Zn 0.92502 0.95791 0.3596 0.0
C35 C 0.08615 0.74511 0.39354 0.0
N36 N 0.13088 0.83383 0.40635 0.0
C37 C 0.08523 0.9085 0.3939 0.0
N38 N 1.0098 0.87061 0.37813 0.0
N39 N 1.00252 0.77395 0.38267 0.0
C40 C 0.81233 0.6298 0.39991 0.0
O41 O 0.82146 0.63648 0.37266 0.0
O42 O 0.94893 0.09296 0.3875 0.0
Zn43 Zn 0.90799 0.79787 0.41 0.0
N44 N 0.96241 0.95884 0.32167 0.0
C45 C 1.03223 0.87133 0.28045 0.0
C46 C 1.01035 0.8753 0.30886 0.0
C47 C 0.93589 1.03889 0.3074 0.0
N48 N 1.00447 0.95059 0.26593 0.0
C49 C 0.95671 1.03457 0.27867 0.0
O50 O 0.78495 0.84648 0.39309 0.0
C51 C 0.74491 0.88548 0.37204 0.0
O52 O 0.78986 0.92211 0.35458 0.0
H53 H 1.03018 0.81154 0.32044 0.0
H54 H 0.8968 0.10341 0.31815 0.0
C55 C 0.88377 0.86247 0.46854 0.0
C56 C 0.89231 0.91721 0.49735 0.0
C57 C 1.00479 1.02189 0.48527 0.0
C58 C 0.99455 0.96823 0.45645 0.0
N59 N 0.93588 0.88715 0.44863 0.0
N60 N 0.95368 0.9952 0.50508 0.0
H61 H 0.83577 0.80009 0.46199 0.0
C62 C 0.89599 0.12662 0.40657 0.0
O63 O 0.92716 0.18803 0.43083 0.0
O64 O 0.87552 0.66287 0.41914 0.0
H65 H 1.03209 0.99381 0.44087 0.0
H66 H 0.07007 0.80532 0.26989 0.0
H67 H 1.05204 0.08553 0.49172 0.0
Zn68 Zn 0.4272 0.67902 0.60227 0.0
C69 C 0.60158 0.58798 0.66556 0.0
N70 N 0.64478 0.67807 0.66621 0.0
C71 C 0.59604 0.72622 0.64627 0.0
N72 N 0.52253 0.66746 0.63462 0.0
N73 N 0.5233 0.58604 0.64813 0.0
C74 C 0.32617 0.40162 0.63925 0.0
O75 O 0.33649 0.43634 0.61518 0.0
O76 O 0.40493 0.82889 0.60144 0.0
Zn77 Zn 0.41687 0.57547 0.66725 0.0
N78 N 0.45591 0.60231 0.56421 0.0
C79 C 0.47207 0.43458 0.53429 0.0
C80 C 0.46678 0.49643 0.56174 0.0
C81 C 0.45251 0.6493 0.54015 0.0
N82 N 0.46674 0.481 0.51027 0.0
C83 C 0.45754 0.58708 0.51227 0.0
O84 O 0.29824 0.64547 0.65528 0.0
C85 C 0.25574 0.63542 0.62993 0.0
O86 O 0.29801 0.63357 0.6075 0.0
H87 H 0.46849 0.46005 0.58091 0.0
H88 H 0.44275 0.73361 0.54259 0.0
C89 C 0.41033 0.56713 0.72619 0.0
C90 C 0.4294 0.59594 0.7564 0.0
C91 C 0.51334 0.74006 0.74914 0.0
C92 C 0.49337 0.71148 0.71902 0.0
N93 N 0.44377 0.62431 0.70824 0.0
N94 N 0.48118 0.6817 0.76714 0.0
H95 H 0.36973 0.49928 0.71689 0.0
C96 C 0.3823 0.87174 0.62622 0.0
O97 O 0.3933 0.82039 0.64817 0.0
O98 O 0.3774 0.43121 0.66236 0.0
H99 H 0.51755 0.7578 0.70442 0.0
H100 H 0.47963 0.35009 0.53204 0.0
H101 H 0.55416 0.80774 0.75815 0.0
Zn102 Zn 0.62201 0.08934 0.87576 0.0
C103 C 0.71592 0.39861 0.88512 0.0
N104 N 0.62821 0.41647 0.87798 0.0
C105 C 0.58932 0.32446 0.87786 0.0
N106 N 0.65069 0.24942 0.8845 0.0
N107 N 0.73085 0.2975 0.89037 0.0
C108 C 0.95708 0.13661 0.86741 0.0
O109 O 0.88182 0.12507 0.85 0.0
O110 O 0.49535 1.04539 0.88608 0.0
Zn111 Zn 0.83956 0.23512 0.91147 0.0
N112 N 0.60594 1.05294 0.83223 0.0
C113 C 0.49182 1.04664 0.7922 0.0
C114 C 0.51814 0.06452 0.82201 0.0
C115 C 0.66934 1.0242 0.81301 0.0
N116 N 0.55436 1.02062 0.77322 0.0
C117 C 0.64287 1.00887 0.78239 0.0
O118 O 0.82106 0.08629 0.91562 0.0
C119 C 0.78309 0.99778 0.9112 0.0
O120 O 0.71035 0.98359 0.89416 0.0
H121 H 0.46807 0.08861 0.83692 0.0
H122 H 0.73894 1.0151 0.82129 0.0
C123 C 0.8724 0.25662 0.97542 0.0
C124 C 0.88672 0.31251 1.00444 0.0
C125 C 0.88842 0.47118 0.98573 0.0
C126 C 0.87567 0.41559 0.95724 0.0
N127 N 0.86563 0.30974 0.95238 0.0
N128 N 0.89329 0.41882 1.00853 0.0
H129 H 0.86585 0.17206 0.97126 0.0
C130 C 0.46041 1.006 0.90554 0.0
O131 O 0.51078 0.98797 0.92894 0.0
O132 O 0.95739 0.20604 0.89065 0.0
H133 H 0.87396 0.45667 0.93918 0.0
H134 H 0.42196 1.05316 0.78418 0.0
H135 H 0.89496 0.5554 0.98975 0.0
Zn136 Zn 0.15512 0.44929 0.37127 0.0
C137 C 0.28094 0.71418 0.36682 0.0
N138 N 0.19433 0.73897 0.35991 0.0
C139 C 0.14537 0.67811 0.37302 0.0
N140 N 0.1998 0.60131 0.38214 0.0
N141 N 0.28427 0.62772 0.37982 0.0
C142 C 0.48017 0.44395 0.34566 0.0
O143 O 0.40015 0.42713 0.33128 0.0
O144 O 1.01641 0.44343 0.37573 0.0
Zn145 Zn 0.38883 0.55238 0.39446 0.0
N146 N 0.16065 0.40852 0.32884 0.0
C147 C 0.12821 0.2811 0.28562 0.0
C148 C 0.1292 0.31218 0.31586 0.0
C149 C 0.19212 0.47441 0.31255 0.0
N150 N 0.15776 0.3479 0.26939 0.0
C151 C 0.18995 0.44422 0.28204 0.0
O152 O 0.35548 0.40886 0.39878 0.0
C153 C 0.31098 0.327 0.39879 0.0
O154 O 0.2272 0.3259 0.38969 0.0
H155 H 0.10462 0.2601 0.32891 0.0
H156 H 0.21774 0.55012 0.32302 0.0
C157 C 0.42883 0.57859 0.45744 0.0
C158 C 0.45704 0.63461 0.48553 0.0
C159 C 0.4986 0.77612 0.46381 0.0
C160 C 0.4705 0.7206 0.43613 0.0
N161 N 0.43482 0.62371 0.43341 0.0
N162 N 0.49035 0.73258 0.48773 0.0
H163 H 0.40152 0.50058 0.45473 0.0
C164 C 0.97664 0.39394 0.39205 0.0
O165 O 1.02541 0.34372 0.41039 0.0
O166 O 0.48834 0.52208 0.36672 0.0
H167 H 0.47687 0.75445 0.41694 0.0
H168 H 0.10445 0.20422 0.27511 0.0
H169 H 0.52833 0.85247 0.46629 0.0
Zn170 Zn 0.85144 0.90281 0.60829 0.0
C171 C 0.65161 0.77225 0.62796 0.0
N172 N 0.69025 0.69432 0.61013 0.0
C173 C 0.77831 0.71511 0.61458 0.0
N174 N 0.78956 0.81476 0.62893 0.0
N175 N 0.71292 0.84934 0.63917 0.0
C176 C 0.57267 0.11728 0.64961 0.0
O177 O 0.63147 0.13399 0.63214 0.0
O178 O 0.9761 0.85228 0.61081 0.0
Zn179 Zn 0.71268 0.98492 0.66904 0.0
N180 N 0.80667 0.88511 0.56767 0.0
C181 C 0.6928 0.83604 0.5286 0.0
C182 C 0.72178 0.85136 0.5583 0.0
C183 C 0.86279 0.90798 0.54868 0.0
N184 N 0.74924 0.85669 0.50949 0.0
C185 C 0.83375 0.89311 0.51873 0.0
O186 O 0.79543 0.11082 0.66402 0.0
C187 C 0.84211 0.13305 0.64452 0.0
O188 O 0.86283 1.06047 0.62403 0.0
H189 H 0.67683 0.83696 0.57369 0.0
H190 H 0.9297 0.93606 0.55689 0.0
C191 C 0.68252 0.98986 0.73025 0.0
C192 C 0.70645 0.97803 0.7597 0.0
C193 C 0.84515 0.90091 0.74613 0.0
C194 C 0.82083 0.91241 0.71714 0.0
N195 N 0.74047 0.95766 0.70962 0.0
N196 N 0.78785 0.93397 0.76669 0.0
H197 H 0.61896 1.02594 0.72386 0.0
C198 C 1.00547 0.86717 0.63756 0.0
O199 O 0.94801 0.88707 0.65718 0.0
O200 O 0.59023 1.05087 0.66654 0.0
H201 H 0.86634 0.88657 0.70086 0.0
H202 H 0.62581 0.80881 0.52092 0.0
H203 H 0.90926 0.8656 0.7522 0.0
Zn204 Zn 0.30139 0.46586 0.92077 0.0
C205 C 0.49092 0.32151 0.87937 0.0
N206 N 0.44972 0.23962 0.8864 0.0
C207 C 0.3704 0.28284 0.8939 0.0
N208 N 0.36353 0.38294 0.8919 0.0
N209 N 0.43683 0.40855 0.88204 0.0
C210 C 0.52872 0.70572 0.88991 0.0
O211 O 0.46379 0.73284 0.90655 0.0
O212 O 0.16858 0.44817 0.91324 0.0
Zn213 Zn 0.42113 0.53026 0.86405 0.0
N214 N 0.3457 0.43096 0.95772 0.0
C215 C 0.46415 0.37978 0.99063 0.0
C216 C 0.43255 0.39913 0.96293 0.0
C217 C 0.28918 0.4448 0.97889 0.0
N218 N 0.40811 0.39563 1.01205 0.0
C219 C 0.32116 0.42805 1.00694 0.0
O220 O 0.31575 0.62012 0.87605 0.0
C221 C 0.28695 0.65334 0.90058 0.0
O222 O 0.31685 0.61652 0.92308 0.0
H223 H 0.47712 0.39034 0.94589 0.0
H224 H 0.22116 0.47261 0.97402 0.0
C225 C 0.42899 0.54436 0.80539 0.0
C226 C 0.39255 0.53588 0.7763 0.0
C227 C 0.27984 0.42358 0.78513 0.0
C228 C 0.31796 0.42981 0.81382 0.0
N229 N 0.39085 0.49114 0.82334 0.0
N230 N 0.31861 0.47545 0.76695 0.0
H231 H 0.48475 0.5958 0.8141 0.0
C232 C 0.13472 0.46533 0.88847 0.0
O233 O 0.18712 0.46755 0.86787 0.0
O234 O 0.52542 0.62077 0.87154 0.0
H235 H 0.28764 0.38999 0.82871 0.0
H236 H 0.53302 0.35441 0.99525 0.0
H237 H 0.21989 0.3781 0.77733 0.0
Zn238 Zn 0.87033 0.32588 0.12163 0.0
C239 C 1.05345 0.22162 0.18036 0.0
N240 N 0.09764 0.31063 0.18056 0.0
C241 C 1.0456 0.36216 0.16207 0.0
N242 N 0.96893 0.30717 0.15199 0.0
N243 N 0.9732 0.22238 0.16419 0.0
C244 C 0.77055 1.01014 0.13891 0.0
O245 O 0.7564 0.06845 0.11865 0.0
O246 O 0.84445 0.47683 0.12585 0.0
Zn247 Zn 0.86851 0.16794 0.17613 0.0
N248 N 0.89825 0.26186 0.08207 0.0
C249 C 0.93179 0.10353 0.05009 0.0
C250 C 0.9212 0.15809 0.07811 0.0
C251 C 0.88688 0.31386 0.0589 0.0
N252 N 0.91922 0.15477 0.02697 0.0
C253 C 0.89725 0.25892 0.03038 0.0
O254 O 0.74843 0.2426 0.17126 0.0
C255 C 0.7029 0.26169 0.1483 0.0
O256 O 0.74197 0.27883 0.12665 0.0
H257 H 0.92909 0.11748 0.09658 0.0
H258 H 0.86757 0.39618 0.06255 0.0
C259 C 0.91668 0.10145 0.23174 0.0
C260 C 0.92752 0.11925 0.26241 0.0
C261 C 0.88627 0.29835 0.2632 0.0
C262 C 0.87514 0.28031 0.23282 0.0
N263 N 0.88967 0.18224 0.21776 0.0
N264 N 0.91146 0.21741 0.27729 0.0
H265 H 0.92809 1.02444 0.21908 0.0
C266 C 0.82016 0.51165 0.15106 0.0
O267 O 0.83423 0.45487 0.17179 0.0
O268 O 0.84209 1.02088 0.15651 0.0
H269 H 0.85449 0.34378 0.22121 0.0
H270 H 0.94929 1.02069 0.0467 0.0
H271 H 0.87483 0.37585 0.27552 0.0
Zn272 Zn 0.90344 0.637 0.86456 0.0
C273 C 0.84084 0.90764 0.91902 0.0
N274 N 0.92908 0.92736 0.92331 0.0
C275 C 0.96643 0.85031 0.90483 0.0
N276 N 0.90421 0.77429 0.89361 0.0
N277 N 0.82826 0.80894 0.90428 0.0
C278 C 0.61472 0.75438 0.89747 0.0
O279 O 0.67172 0.7368 0.87768 0.0
O280 O 1.02519 0.57078 0.86715 0.0
Zn281 Zn 0.77022 0.72362 0.92641 0.0
N282 N 0.87397 0.65862 0.82354 0.0
C283 C 0.76226 0.69007 0.78548 0.0
C284 C 0.78795 0.68518 0.81483 0.0
C285 C 0.93576 0.63769 0.80366 0.0
N286 N 0.82338 0.66775 0.76566 0.0
C287 C 0.91007 0.6417 0.77376 0.0
O288 O 0.75902 0.56432 0.91205 0.0
C289 C 0.7772 0.49161 0.89119 0.0
O290 O 0.82114 0.51351 0.871 0.0
H291 H 0.73896 0.7001 0.83042 0.0
H292 H 1.00363 0.61545 0.81095 0.0
C293 C 0.76473 0.76534 0.98798 0.0
C294 C 0.80062 0.78168 1.01743 0.0
C295 C 0.94768 0.76835 1.00221 0.0
C296 C 0.9116 0.75186 0.97307 0.0
N297 N 0.82094 0.75024 0.96658 0.0
N298 N 0.89172 0.78239 0.0237 0.0
H299 H 0.69284 0.76262 0.98195 0.0
C300 C 1.04455 0.51015 0.88557 0.0
O301 O 0.9881 0.50019 0.90449 0.0
O302 O 0.64446 0.77089 0.9242 0.0
H303 H 0.95533 0.73857 0.95575 0.0
H304 H 0.69381 0.71062 0.77846 0.0
H305 H 1.01952 0.76763 1.00759 0.0
Zn306 Zn 0.31961 0.16224 0.61082 0.0
C307 C 0.1279 0.30188 0.65611 0.0
N308 N 0.17163 0.38747 0.65257 0.0
C309 C 0.24687 0.3448 0.64152 0.0
N310 N 0.24875 0.24156 0.63814 0.0
N311 N 0.17714 0.21296 0.64841 0.0
C312 C 0.09221 0.91392 0.6451 0.0
O313 O 0.15824 0.88095 0.62936 0.0
O314 O 0.45132 0.18266 0.62164 0.0
Zn315 Zn 0.19885 0.09384 0.66743 0.0
N316 N 0.28564 0.19834 0.57317 0.0
C317 C 0.18109 0.26818 0.53935 0.0
C318 C 0.20699 0.25037 0.56758 0.0
C319 C 0.33955 0.16332 0.55181 0.0
N320 N 0.23384 0.2309 0.51781 0.0
C321 C 0.3126 0.17847 0.52325 0.0
O322 O 0.30271 1.00254 0.65412 0.0
C323 C 0.33173 0.96949 0.62955 0.0
O324 O 0.30566 1.00985 0.6073 0.0
H325 H 0.16389 0.27596 0.58469 0.0
H326 H 0.40056 0.11991 0.55692 0.0
C327 C 0.19061 0.08664 0.72677 0.0
C328 C 0.22278 0.10286 0.75643 0.0
C329 C 0.33273 0.21802 0.74726 0.0
C330 C 0.29857 0.20415 0.71801 0.0
N331 N 0.22931 0.1374 0.70834 0.0
N332 N 0.29342 0.16839 0.76585 0.0
H333 H 0.13728 1.03172 0.7181 0.0
C334 C 0.48225 0.16114 0.64624 0.0
O335 O 0.42719 0.15324 0.66568 0.0
O336 O 0.09493 1.00309 0.66155 0.0
H337 H 0.32861 0.24357 0.70298 0.0
H338 H 0.11864 0.3091 0.53442 0.0
H339 H 0.3902 0.26763 0.75517 0.0
Zn340 Zn 0.71578 0.29079 0.41593 0.0
C341 C 0.53516 0.34954 0.34979 0.0
N342 N 0.49313 0.26325 0.35294 0.0
C343 C 0.54627 0.22385 0.37375 0.0
N344 N 0.62031 0.28496 0.38275 0.0
N345 N 0.61514 0.35727 0.36586 0.0
C346 C 0.72098 0.63894 0.40832 0.0
O347 O 0.70027 0.70955 0.43055 0.0
O348 O 0.75048 0.14516 0.41981 0.0
Zn349 Zn 0.69547 0.46459 0.36294 0.0
N350 N 0.68584 0.3622 0.45455 0.0
C351 C 0.66613 0.52308 0.4872 0.0
C352 C 0.66769 0.46699 0.45883 0.0
C353 C 0.69899 0.31033 0.47772 0.0
N354 N 0.68081 0.47182 0.51029 0.0
C355 C 0.69657 0.36623 0.5065 0.0
O356 O 0.82938 0.42613 0.36953 0.0
C357 C 0.87617 0.38966 0.38989 0.0
O358 O 0.83851 0.34771 0.40819 0.0
H359 H 0.65773 0.50706 0.44042 0.0
H360 H 0.7152 0.2272 0.47385 0.0
C361 C 0.65628 0.57794 0.31286 0.0
C362 C 0.64533 0.57702 0.28245 0.0
C363 C 0.67173 0.39219 0.2741 0.0
C364 C 0.68383 0.39369 0.30398 0.0
N365 N 0.67558 0.48576 0.32277 0.0
N366 N 0.65322 0.48337 0.26414 0.0
H367 H 0.65071 0.65022 0.32834 0.0
C368 C 0.79921 0.11358 0.39942 0.0
O369 O 0.76799 0.12761 0.37302 0.0
O370 O 0.65948 0.58614 0.39218 0.0
H371 H 0.69961 0.32166 0.31233 0.0
H372 H 0.6545 0.60715 0.49086 0.0
H373 H 0.67737 0.31933 0.25888 0.0
Zn374 Zn 0.43668 0.16244 0.16758 0.0
C375 C 0.34732 0.85556 0.15909 0.0
N376 N 0.43576 0.83832 0.16511 0.0
C377 C 0.47333 0.93041 0.16449 0.0
N378 N 0.4106 1.00429 0.15833 0.0
N379 N 0.33044 0.95658 0.15425 0.0
C380 C 0.10802 0.12419 0.18264 0.0
O381 O 0.18458 0.13714 0.19937 0.0
O382 O 0.56863 0.20402 0.16419 0.0
Zn383 Zn 0.21773 1.02102 0.13658 0.0
N384 N 0.42607 0.2014 0.20949 0.0
C385 C 0.4506 0.32365 0.2541 0.0
C386 C 0.44873 0.29967 0.22367 0.0
C387 C 0.40448 0.12659 0.22466 0.0
N388 N 0.43136 0.24791 0.26922 0.0
C389 C 0.40826 0.14944 0.25526 0.0
O390 O 0.23716 0.16794 0.13143 0.0
C391 C 0.27733 0.25376 0.13292 0.0
O392 O 0.35588 0.2655 0.14633 0.0
H393 H 0.46718 0.3581 0.21153 0.0
H394 H 0.38714 1.0487 0.21318 0.0
C395 C 0.1784 1.00299 0.0737 0.0
C396 C 0.16463 0.94919 0.04459 0.0
C397 C 0.16268 0.78835 0.06231 0.0
C398 C 0.17491 0.84213 0.091 0.0
N399 N 0.18521 0.94798 0.0963 0.0
N400 N 0.15865 0.84271 0.03991 0.0
H401 H 0.18553 0.08743 0.07826 0.0
C402 C 0.60391 0.24667 0.14543 0.0
O403 O 0.55366 0.26831 0.12241 0.0
O404 O 0.10525 1.05128 0.1601 0.0
H405 H 0.17703 0.79961 0.10884 0.0
H406 H 0.46836 0.40157 0.26564 0.0
H407 H 0.15634 0.704 0.05779 0.0
Zn408 Zn 0.99783 0.5356 0.65846 0.0
C409 C 0.90259 0.22674 0.65102 0.0
N410 N 0.99027 0.20894 0.65814 0.0
C411 C 1.02943 0.30046 0.65796 0.0
N412 N 0.96811 0.37545 0.65113 0.0
N413 N 0.88775 0.32748 0.64542 0.0
C414 C 0.6588 0.4925 0.66796 0.0
O415 O 0.73302 0.507 0.68579 0.0
O416 O 0.1233 0.57681 0.64681 0.0
Zn417 Zn 0.7779 0.38978 0.62448 0.0
N418 N 1.01555 0.57811 0.70194 0.0
C419 C 0.12928 0.60542 0.74237 0.0
C420 C 0.10411 0.58123 0.7125 0.0
C421 C 0.95057 0.59836 0.72089 0.0
N422 N 0.06523 0.62284 0.76108 0.0
C423 C 0.97609 0.6201 0.75155 0.0
O424 O 0.7979 0.53766 0.61961 0.0
C425 C 0.83613 0.62581 0.62306 0.0
O426 O 0.90975 0.6408 0.63958 0.0
H427 H 0.15587 0.56401 0.69791 0.0
H428 H 0.8805 0.59588 0.71235 0.0
C429 C 0.7344 0.3673 0.56102 0.0
C430 C 0.71142 0.31225 0.53231 0.0
C431 C 0.71219 0.15351 0.55114 0.0
C432 C 0.73497 0.20824 0.57933 0.0
N433 N 0.74687 0.31381 0.58396 0.0
N434 N 0.70135 0.20633 0.52839 0.0
H435 H 0.74259 0.45162 0.56504 0.0
C436 C 0.15752 0.61286 0.62665 0.0
O437 O 0.10668 0.6269 0.60294 0.0
O438 O 0.66021 0.42057 0.64534 0.0
H439 H 0.74204 0.16674 0.59737 0.0
H440 H 0.19947 0.61052 0.75065 0.0
H441 H 0.70233 0.06963 0.54737 0.0
Zn442 Zn 0.46022 0.96695 0.35308 0.0
C443 C 0.36626 0.23246 0.4054 0.0
N444 N 0.45486 0.25245 0.41123 0.0
C445 C 0.49548 0.17709 0.39326 0.0
N446 N 0.43535 0.10075 0.38128 0.0
N447 N 0.35507 0.13418 0.38934 0.0
C448 C 0.12581 1.00842 0.39174 0.0
O449 O 0.14563 1.01877 0.36573 0.0
O450 O 0.59971 0.94695 0.35255 0.0
Zn451 Zn 0.30705 1.03673 0.41018 0.0
N452 N 0.40487 0.98512 0.31414 0.0
C453 C 0.29633 0.92218 0.27411 0.0
C454 C 0.3389 0.91615 0.30175 0.0
C455 C 0.42873 0.06163 0.29981 0.0
N456 N 0.32052 0.99774 0.25985 0.0
C457 C 0.38526 0.06853 0.27192 0.0
O458 O 0.31242 0.88411 0.39172 0.0
C459 C 0.34344 0.80638 0.37493 0.0
O460 O 0.40397 0.8223 0.3589 0.0
H461 H 0.31917 0.85625 0.31311 0.0
H462 H 0.48291 0.11379 0.30944 0.0
C463 C 0.3217 0.10589 0.47066 0.0
C464 C 0.36468 0.13264 0.49896 0.0
C465 C 0.50331 0.07074 0.48147 0.0
C466 C 0.45985 1.04389 0.45326 0.0
N467 N 0.36978 1.06102 0.44861 0.0
N468 N 0.45473 0.11371 0.50371 0.0
H469 H 0.2504 0.12024 0.46607 0.0
C470 C 0.64476 0.89306 0.36967 0.0
O471 O 0.60162 0.84982 0.38746 0.0
O472 O 0.17549 1.0534 0.41384 0.0
H473 H 0.49742 1.01035 0.43523 0.0
H474 H 0.24424 0.86727 0.26406 0.0
H475 H 0.57492 1.05726 0.48567 0.0
Zn476 Zn 0.75624 0.77116 0.12983 0.0
C477 C 0.57207 0.93658 0.16424 0.0
N478 N 0.61161 1.00674 0.15147 0.0
C479 C 0.69469 0.96425 0.14892 0.0
N480 N 0.70383 0.87294 0.15786 0.0
N481 N 0.62968 0.85649 0.16896 0.0
C482 C 0.53718 0.53779 0.16244 0.0
O483 O 0.60407 0.49341 0.17648 0.0
O484 O 0.88988 0.76888 0.13628 0.0
Zn485 Zn 0.62713 0.73017 0.18551 0.0
N486 N 0.7156 0.79428 0.09078 0.0
C487 C 0.59379 0.82465 0.05608 0.0
C488 C 0.62643 0.81312 0.08438 0.0
C489 C 0.77376 0.78576 0.06997 0.0
N490 N 0.65146 0.81497 0.0352 0.0
C491 C 0.74096 0.79547 0.04122 0.0
O492 O 0.74052 0.64342 0.18022 0.0
C493 C 0.75946 0.6014 0.1549 0.0
O494 O 0.71867 0.6304 0.13255 0.0
H495 H 0.581 0.81791 0.10109 0.0
H496 H 0.84408 0.76874 0.07568 0.0
C497 C 0.63121 0.66853 0.23938 0.0
C498 C 0.62724 0.67334 0.26943 0.0
C499 C 0.5905 0.85499 0.27361 0.0
C500 C 0.59334 0.84881 0.24349 0.0
N501 N 0.61394 0.75528 0.22703 0.0
N502 N 0.60723 0.76738 0.2859 0.0
H503 H 0.6497 0.59647 0.22573 0.0
C504 C 0.92854 0.76378 0.1615 0.0
O505 O 0.88204 0.77856 0.18417 0.0
O506 O 0.53223 0.63692 0.16424 0.0
H507 H 0.58053 0.91784 0.23348 0.0
H508 H 0.52299 0.83973 0.05063 0.0
H509 H 0.57603 0.92907 0.28715 0.0
Zn510 Zn 0.18985 0.93936 0.92935 0.0
C511 C 1.01348 1.03972 0.86849 0.0
N512 N 0.96969 0.94964 0.86741 0.0
C513 C 1.01995 0.89828 0.88631 0.0
N514 N 0.09472 0.95496 0.89764 0.0
N515 N 0.09304 1.03887 0.88513 0.0
C516 C 0.29176 0.22608 0.89689 0.0
O517 O 0.28695 0.18325 0.92 0.0
O518 O 0.21023 0.78947 0.92851 0.0
Zn519 Zn 0.19898 1.05703 0.86654 0.0
N520 N 0.15867 1.0065 0.96796 0.0
C521 C 0.12273 0.16271 1.00029 0.0
C522 C 0.13575 0.11024 0.97223 0.0
C523 C 0.1678 0.95259 0.99071 0.0
N524 N 0.13334 0.10948 0.02304 0.0
C525 C 0.15539 1.00525 0.01918 0.0
O526 O 0.31836 0.985 0.87717 0.0
C527 C 0.36162 0.98625 0.90217 0.0
O528 O 0.3199 0.98368 0.92453 0.0
H529 H 0.12954 0.15226 0.95405 0.0
H530 H 0.18709 0.8703 0.98674 0.0
C531 C 0.20488 0.07327 0.8071 0.0
C532 C 0.18559 1.0444 0.77677 0.0
C533 C 0.10161 0.90032 0.78411 0.0
C534 C 0.12234 0.92823 0.81417 0.0
N535 N 0.17193 1.01532 0.82505 0.0
N536 N 0.13364 0.9587 0.76613 0.0
H537 H 0.24569 0.14095 0.81647 0.0
C538 C 0.23402 0.74902 0.90374 0.0
O539 O 0.22405 0.80238 0.88219 0.0
O540 O 0.23619 0.20289 0.87441 0.0
H541 H 0.09902 0.88102 0.8287 0.0
H542 H 0.1049 0.24542 1.004 0.0
H543 H 0.06088 0.83259 0.77511 0.0
loop_
_geom_bond_atom_site_label_1
_geom_bond_atom_site_label_2
_geom_bond_distance
_geom_bond_site_symmetry_2
_ccdc_geom_bond_type
Zn0 N4 2.020 . S
Zn0 O8 2.019 . S
Zn0 N10 2.119 . S
Zn0 O18 1.975 . S
C1 N2 1.334 . S
C1 N5 1.336 . S
N2 C1 1.334 . S
N2 C3 1.334 . S
C3 N2 1.334 . S
C3 N4 1.336 . S
N4 Zn0 2.020 . S
N4 C3 1.336 . S
N4 N5 1.354 . S
N5 C1 1.336 . S
N5 N4 1.354 . S
N5 Zn9 2.020 . S
C6 O7 1.244 . S
C6 O30 1.257 . S
O7 C6 1.244 . S
O8 Zn0 2.019 . S
O8 C28 1.257 . S
Zn9 N5 2.020 . S
Zn9 O16 1.975 . S
Zn9 N25 2.119 . S
Zn9 O30 2.019 1_455 S
N10 Zn0 2.119 . S
N10 C12 1.334 . S
N10 C13 1.328 . S
C11 C12 1.391 . S
C11 N14 1.329 1_554 S
C11 H32 0.930 . S
C12 N10 1.334 . S
C12 C11 1.391 . S
C12 H19 0.930 . S
C13 N10 1.328 . S
C13 C15 1.392 . S
C13 H20 0.930 . S
N14 C11 1.329 1_556 S
N14 C15 1.331 1_556 S
C15 C13 1.392 . S
C15 N14 1.331 1_554 S
O16 Zn9 1.975 . S
O16 C17 1.252 . S
C17 O16 1.252 . S
C17 O18 1.252 . S
O18 Zn0 1.975 . S
O18 C17 1.252 . S
H19 C12 0.930 . S
H20 C13 0.930 . S
C21 C22 1.392 . S
C21 N25 1.328 . S
C21 H27 0.930 1_455 S
C22 C21 1.392 . S
C22 N26 1.331 . S
C23 C24 1.391 . S
C23 N26 1.329 . S
C23 H33 0.930 . S
C24 C23 1.391 . S
C24 N25 1.334 . S
C24 H31 0.930 . S
N25 Zn9 2.119 . S
N25 C21 1.328 . S
N25 C24 1.334 . S
N26 C22 1.331 . S
N26 C23 1.329 . S
H27 C21 0.930 1_655 S
C28 O8 1.257 . S
C28 O29 1.244 . S
O29 C28 1.244 . S
O30 C6 1.257 . S
O30 Zn9 2.019 1_655 S
H31 C24 0.930 . S
H32 C11 0.930 . S
H33 C23 0.930 . S
Zn34 N38 2.020 1_545 S
Zn34 O42 2.019 . S
Zn34 N44 2.119 1_545 S
Zn34 O52 1.975 . S
C35 N36 1.334 1_655 S
C35 N39 1.336 . S
N36 C35 1.334 1_455 S
N36 C37 1.334 . S
C37 N36 1.334 . S
C37 N38 1.336 1_455 S
N38 Zn34 2.020 1_565 S
N38 C37 1.336 1_655 S
N38 N39 1.354 . S
N39 C35 1.336 . S
N39 N38 1.354 . S
N39 Zn43 2.020 . S
C40 O41 1.244 . S
C40 O64 1.257 . S
O41 C40 1.244 . S
O42 Zn34 2.019 . S
O42 C62 1.257 . S
Zn43 N39 2.020 . S
Zn43 O50 1.975 . S
Zn43 N59 2.119 . S
Zn43 O64 2.019 . S
N44 Zn34 2.119 1_565 S
N44 C46 1.334 . S
N44 C47 1.328 1_565 S
C45 C46 1.391 . S
C45 N48 1.329 . S
C45 H66 0.930 . S
C46 N44 1.334 . S
C46 C45 1.391 . S
C46 H53 0.930 . S
C47 N44 1.328 1_545 S
C47 C49 1.392 . S
C47 H54 0.930 . S
N48 C45 1.329 . S
N48 C49 1.331 1_565 S
C49 C47 1.392 . S
C49 N48 1.331 1_545 S
O50 Zn43 1.975 . S
O50 C51 1.252 . S
C51 O50 1.252 . S
C51 O52 1.252 1_565 S
O52 Zn34 1.975 . S
O52 C51 1.252 1_545 S
H53 C46 0.930 . S
H54 C47 0.930 . S
C55 C56 1.392 . S
C55 N59 1.328 . S
C55 H61 0.930 . S
C56 C55 1.392 . S
C56 N60 1.331 . S
C57 C58 1.391 1_545 S
C57 N60 1.329 1_545 S
C57 H67 0.930 . S
C58 C57 1.391 1_565 S
C58 N59 1.334 . S
C58 H65 0.930 1_565 S
N59 Zn43 2.119 . S
N59 C55 1.328 . S
N59 C58 1.334 . S
N60 C56 1.331 . S
N60 C57 1.329 1_565 S
H61 C55 0.930 . S
C62 O42 1.257 . S
C62 O63 1.244 . S
O63 C62 1.244 . S
O64 C40 1.257 . S
O64 Zn43 2.019 . S
H65 C58 0.930 1_545 S
H66 C45 0.930 . S
H67 C57 0.930 . S
Zn68 N72 2.020 . S
Zn68 O76 2.019 . S
Zn68 N78 2.119 . S
Zn68 O86 1.975 . S
C69 N70 1.334 . S
C69 N73 1.336 . S
N70 C69 1.334 . S
N70 C71 1.334 . S
C71 N70 1.334 . S
C71 N72 1.336 . S
N72 Zn68 2.020 . S
N72 C71 1.336 . S
N72 N73 1.354 . S
N73 C69 1.336 . S
N73 N72 1.354 . S
N73 Zn77 2.020 . S
C74 O75 1.244 . S
C74 O98 1.257 . S
O75 C74 1.244 . S
O76 Zn68 2.019 . S
O76 C96 1.257 . S
Zn77 N73 2.020 . S
Zn77 O84 1.975 . S
Zn77 N93 2.119 . S
Zn77 O98 2.019 . S
N78 Zn68 2.119 . S
N78 C80 1.334 . S
N78 C81 1.328 . S
C79 C80 1.391 . S
C79 N82 1.329 . S
C79 H100 0.930 . S
C80 N78 1.334 . S
C80 C79 1.391 . S
C80 H87 0.930 . S
C81 N78 1.328 . S
C81 C83 1.392 . S
C81 H88 0.930 . S
N82 C79 1.329 . S
N82 C83 1.331 . S
C83 C81 1.392 . S
C83 N82 1.331 . S
O84 Zn77 1.975 . S
O84 C85 1.252 . S
C85 O84 1.252 . S
C85 O86 1.252 . S
O86 Zn68 1.975 . S
O86 C85 1.252 . S
H87 C80 0.930 . S
H88 C81 0.930 . S
C89 C90 1.392 . S
C89 N93 1.328 . S
C89 H95 0.930 . S
C90 C89 1.392 . S
C90 N94 1.331 . S
C91 C92 1.391 . S
C91 N94 1.329 . S
C91 H101 0.930 . S
C92 C91 1.391 . S
C92 N93 1.334 . S
C92 H99 0.930 . S
N93 Zn77 2.119 . S
N93 C89 1.328 . S
N93 C92 1.334 . S
N94 C90 1.331 . S
N94 C91 1.329 . S
H95 C89 0.930 . S
C96 O76 1.257 . S
C96 O97 1.244 . S
O97 C96 1.244 . S
O98 C74 1.257 . S
O98 Zn77 2.019 . S
H99 C92 0.930 . S
H100 C79 0.930 . S
H101 C91 0.930 . S
Zn102 N106 2.020 . S
Zn102 O110 2.019 1_545 S
Zn102 N112 2.119 . S
Zn102 O120 1.975 1_545 S
C103 N104 1.334 . S
C103 N107 1.336 . S
N104 C103 1.334 . S
N104 C105 1.334 . S
C105 N104 1.334 . S
C105 N106 1.336 . S
N106 Zn102 2.020 . S
N106 C105 1.336 . S
N106 N107 1.354 . S
N107 C103 1.336 . S
N107 N106 1.354 . S
N107 Zn111 2.020 . S
C108 O109 1.244 . S
C108 O132 1.257 . S
O109 C108 1.244 . S
O110 Zn102 2.019 1_565 S
O110 C130 1.257 1_565 S
Zn111 N107 2.020 . S
Zn111 O118 1.975 1_545 S
Zn111 N127 2.119 . S
Zn111 O132 2.019 . S
N112 Zn102 2.119 . S
N112 C114 1.334 . S
N112 C115 1.328 1_545 S
C113 C114 1.391 . S
C113 N116 1.329 1_545 S
C113 H134 0.930 . S
C114 N112 1.334 . S
C114 C113 1.391 . S
C114 H121 0.930 . S
C115 N112 1.328 1_565 S
C115 C117 1.392 . S
C115 H122 0.930 . S
N116 C113 1.329 1_565 S
N116 C117 1.331 . S
C117 C115 1.392 . S
C117 N116 1.331 . S
O118 Zn111 1.975 1_565 S
O118 C119 1.252 . S
C119 O118 1.252 . S
C119 O120 1.252 . S
O120 Zn102 1.975 1_565 S
O120 C119 1.252 . S
H121 C114 0.930 . S
H122 C115 0.930 . S
C123 C124 1.392 . S
C123 N127 1.328 . S
C123 H129 0.930 . S
C124 C123 1.392 . S
C124 N128 1.331 . S
C125 C126 1.391 . S
C125 N128 1.329 . S
C125 H135 0.930 . S
C126 C125 1.391 . S
C126 N127 1.334 . S
C126 H133 0.930 . S
N127 Zn111 2.119 . S
N127 C123 1.328 . S
N127 C126 1.334 . S
N128 C124 1.331 . S
N128 C125 1.329 . S
H129 C123 0.930 . S
C130 O110 1.257 1_545 S
C130 O131 1.244 . S
O131 C130 1.244 . S
O132 C108 1.257 . S
O132 Zn111 2.019 . S
H133 C126 0.930 . S
H134 C113 0.930 . S
H135 C125 0.930 . S
Zn136 N140 2.020 . S
Zn136 O144 2.019 1_455 S
Zn136 N146 2.119 . S
Zn136 O154 1.975 . S
C137 N138 1.334 . S
C137 N141 1.336 . S
N138 C137 1.334 . S
N138 C139 1.334 . S
C139 N138 1.334 . S
C139 N140 1.336 . S
N140 Zn136 2.020 . S
N140 C139 1.336 . S
N140 N141 1.354 . S
N141 C137 1.336 . S
N141 N140 1.354 . S
N141 Zn145 2.020 . S
C142 O143 1.244 . S
C142 O166 1.257 . S
O143 C142 1.244 . S
O144 Zn136 2.019 1_655 S
O144 C164 1.257 . S
Zn145 N141 2.020 . S
Zn145 O152 1.975 . S
Zn145 N161 2.119 . S
Zn145 O166 2.019 . S
N146 Zn136 2.119 . S
N146 C148 1.334 . S
N146 C149 1.328 . S
C147 C148 1.391 . S
C147 N150 1.329 . S
C147 H168 0.930 . S
C148 N146 1.334 . S
C148 C147 1.391 . S
C148 H155 0.930 . S
C149 N146 1.328 . S
C149 C151 1.392 . S
C149 H156 0.930 1_455 S
N150 C147 1.329 . S
N150 C151 1.331 . S
C151 C149 1.392 . S
C151 N150 1.331 . S
O152 Zn145 1.975 . S
O152 C153 1.252 . S
C153 O152 1.252 . S
C153 O154 1.252 . S
O154 Zn136 1.975 . S
O154 C153 1.252 . S
H155 C148 0.930 . S
H156 C149 0.930 1_655 S
C157 C158 1.392 . S
C157 N161 1.328 . S
C157 H163 0.930 . S
C158 C157 1.392 . S
C158 N162 1.331 . S
C159 C160 1.391 . S
C159 N162 1.329 . S
C159 H169 0.930 . S
C160 C159 1.391 . S
C160 N161 1.334 . S
C160 H167 0.930 . S
N161 Zn145 2.119 . S
N161 C157 1.328 . S
N161 C160 1.334 . S
N162 C158 1.331 . S
N162 C159 1.329 . S
H163 C157 0.930 . S
C164 O144 1.257 . S
C164 O165 1.244 . S
O165 C164 1.244 . S
O166 C142 1.257 . S
O166 Zn145 2.019 . S
H167 C160 0.930 . S
H168 C147 0.930 . S
H169 C159 0.930 . S
Zn170 N174 2.020 . S
Zn170 O178 2.019 . S
Zn170 N180 2.119 . S
Zn170 O188 1.975 . S
C171 N172 1.334 . S
C171 N175 1.336 . S
N172 C171 1.334 . S
N172 C173 1.334 . S
C173 N172 1.334 . S
C173 N174 1.336 . S
N174 Zn170 2.020 . S
N174 C173 1.336 . S
N174 N175 1.354 . S
N175 C171 1.336 . S
N175 N174 1.354 . S
N175 Zn179 2.020 . S
C176 O177 1.244 . S
C176 O200 1.257 . S
O177 C176 1.244 . S
O178 Zn170 2.019 . S
O178 C198 1.257 . S
Zn179 N175 2.020 . S
Zn179 O186 1.975 1_565 S
Zn179 N195 2.119 . S
Zn179 O200 2.019 . S
N180 Zn170 2.119 . S
N180 C182 1.334 . S
N180 C183 1.328 . S
C181 C182 1.391 . S
C181 N184 1.329 . S
C181 H202 0.930 . S
C182 N180 1.334 . S
C182 C181 1.391 . S
C182 H189 0.930 . S
C183 N180 1.328 . S
C183 C185 1.392 . S
C183 H190 0.930 . S
N184 C181 1.329 . S
N184 C185 1.331 . S
C185 C183 1.392 . S
C185 N184 1.331 . S
O186 Zn179 1.975 1_545 S
O186 C187 1.252 . S
C187 O186 1.252 . S
C187 O188 1.252 1_545 S
O188 Zn170 1.975 . S
O188 C187 1.252 1_565 S
H189 C182 0.930 . S
H190 C183 0.930 . S
C191 C192 1.392 . S
C191 N195 1.328 . S
C191 H197 0.930 . S
C192 C191 1.392 . S
C192 N196 1.331 . S
C193 C194 1.391 . S
C193 N196 1.329 . S
C193 H203 0.930 . S
C194 C193 1.391 . S
C194 N195 1.334 . S
C194 H201 0.930 . S
N195 Zn179 2.119 . S
N195 C191 1.328 . S
N195 C194 1.334 . S
N196 C192 1.331 . S
N196 C193 1.329 . S
H197 C191 0.930 . S
C198 O178 1.257 . S
C198 O199 1.244 . S
O199 C198 1.244 . S
O200 C176 1.257 . S
O200 Zn179 2.019 . S
H201 C194 0.930 . S
H202 C181 0.930 . S
H203 C193 0.930 . S
Zn204 N208 2.020 . S
Zn204 O212 2.019 . S
Zn204 N214 2.119 . S
Zn204 O222 1.975 . S
C205 N206 1.334 . S
C205 N209 1.336 . S
N206 C205 1.334 . S
N206 C207 1.334 . S
C207 N206 1.334 . S
C207 N208 1.336 . S
N208 Zn204 2.020 . S
N208 C207 1.336 . S
N208 N209 1.354 . S
N209 C205 1.336 . S
N209 N208 1.354 . S
N209 Zn213 2.020 . S
C210 O211 1.244 . S
C210 O234 1.257 . S
O211 C210 1.244 . S
O212 Zn204 2.019 . S
O212 C232 1.257 . S
Zn213 N209 2.020 . S
Zn213 O220 1.975 . S
Zn213 N229 2.119 . S
Zn213 O234 2.019 . S
N214 Zn204 2.119 . S
N214 C216 1.334 . S
N214 C217 1.328 . S
C215 C216 1.391 . S
C215 N218 1.329 . S
C215 H236 0.930 . S
C216 N214 1.334 . S
C216 C215 1.391 . S
C216 H223 0.930 . S
C217 N214 1.328 . S
C217 C219 1.392 . S
C217 H224 0.930 . S
N218 C215 1.329 . S
N218 C219 1.331 . S
C219 C217 1.392 . S
C219 N218 1.331 . S
O220 Zn213 1.975 . S
O220 C221 1.252 . S
C221 O220 1.252 . S
C221 O222 1.252 . S
O222 Zn204 1.975 . S
O222 C221 1.252 . S
H223 C216 0.930 . S
H224 C217 0.930 . S
C225 C226 1.392 . S
C225 N229 1.328 . S
C225 H231 0.930 . S
C226 C225 1.392 . S
C226 N230 1.331 . S
C227 C228 1.391 . S
C227 N230 1.329 . S
C227 H237 0.930 . S
C228 C227 1.391 . S
C228 N229 1.334 . S
C228 H235 0.930 . S
N229 Zn213 2.119 . S
N229 C225 1.328 . S
N229 C228 1.334 . S
N230 C226 1.331 . S
N230 C227 1.329 . S
H231 C225 0.930 . S
C232 O212 1.257 . S
C232 O233 1.244 . S
O233 C232 1.244 . S
O234 C210 1.257 . S
O234 Zn213 2.019 . S
H235 C228 0.930 . S
H236 C215 0.930 . S
H237 C227 0.930 . S
Zn238 N242 2.020 . S
Zn238 O246 2.019 . S
Zn238 N248 2.119 . S
Zn238 O256 1.975 . S
C239 N240 1.334 1_655 S
C239 N243 1.336 . S
N240 C239 1.334 1_455 S
N240 C241 1.334 1_455 S
C241 N240 1.334 1_655 S
C241 N242 1.336 . S
N242 Zn238 2.020 . S
N242 C241 1.336 . S
N242 N243 1.354 . S
N243 C239 1.336 . S
N243 N242 1.354 . S
N243 Zn247 2.020 1_545 S
C244 O245 1.244 . S
C244 O268 1.257 . S
O245 C244 1.244 . S
O246 Zn238 2.019 . S
O246 C266 1.257 . S
Zn247 N243 2.020 1_565 S
Zn247 O254 1.975 1_565 S
Zn247 N263 2.119 1_565 S
Zn247 O268 2.019 . S
N248 Zn238 2.119 . S
N248 C250 1.334 . S
N248 C251 1.328 . S
C249 C250 1.391 . S
C249 N252 1.329 . S
C249 H270 0.930 1_545 S
C250 N248 1.334 . S
C250 C249 1.391 . S
C250 H257 0.930 . S
C251 N248 1.328 . S
C251 C253 1.392 . S
C251 H258 0.930 . S
N252 C249 1.329 . S
N252 C253 1.331 . S
C253 C251 1.392 . S
C253 N252 1.331 . S
O254 Zn247 1.975 1_545 S
O254 C255 1.252 . S
C255 O254 1.252 . S
C255 O256 1.252 . S
O256 Zn238 1.975 . S
O256 C255 1.252 . S
H257 C250 0.930 . S
H258 C251 0.930 . S
C259 C260 1.392 . S
C259 N263 1.328 . S
C259 H265 0.930 1_545 S
C260 C259 1.392 . S
C260 N264 1.331 . S
C261 C262 1.391 . S
C261 N264 1.329 . S
C261 H271 0.930 . S
C262 C261 1.391 . S
C262 N263 1.334 . S
C262 H269 0.930 . S
N263 Zn247 2.119 1_545 S
N263 C259 1.328 . S
N263 C262 1.334 . S
N264 C260 1.331 . S
N264 C261 1.329 . S
H265 C259 0.930 1_565 S
C266 O246 1.257 . S
C266 O267 1.244 . S
O267 C266 1.244 . S
O268 C244 1.257 . S
O268 Zn247 2.019 . S
H269 C262 0.930 . S
H270 C249 0.930 1_565 S
H271 C261 0.930 . S
Zn272 N276 2.020 . S
Zn272 O280 2.019 1_655 S
Zn272 N282 2.119 . S
Zn272 O290 1.975 . S
C273 N274 1.334 . S
C273 N277 1.336 . S
N274 C273 1.334 . S
N274 C275 1.334 . S
C275 N274 1.334 . S
C275 N276 1.336 . S
N276 Zn272 2.020 . S
N276 C275 1.336 . S
N276 N277 1.354 . S
N277 C273 1.336 . S
N277 N276 1.354 . S
N277 Zn281 2.020 . S
C278 O279 1.244 . S
C278 O302 1.257 . S
O279 C278 1.244 . S
O280 Zn272 2.019 1_455 S
O280 C300 1.257 . S
Zn281 N277 2.020 . S
Zn281 O288 1.975 . S
Zn281 N297 2.119 . S
Zn281 O302 2.019 . S
N282 Zn272 2.119 . S
N282 C284 1.334 . S
N282 C285 1.328 . S
C283 C284 1.391 . S
C283 N286 1.329 . S
C283 H304 0.930 . S
C284 N282 1.334 . S
C284 C283 1.391 . S
C284 H291 0.930 . S
C285 N282 1.328 . S
C285 C287 1.392 . S
C285 H292 0.930 . S
N286 C283 1.329 . S
N286 C287 1.331 . S
C287 C285 1.392 . S
C287 N286 1.331 . S
O288 Zn281 1.975 . S
O288 C289 1.252 . S
C289 O288 1.252 . S
C289 O290 1.252 . S
O290 Zn272 1.975 . S
O290 C289 1.252 . S
H291 C284 0.930 . S
H292 C285 0.930 . S
C293 C294 1.392 . S
C293 N297 1.328 . S
C293 H299 0.930 . S
C294 C293 1.392 . S
C294 N298 1.331 1_556 S
C295 C296 1.391 . S
C295 N298 1.329 1_556 S
C295 H305 0.930 . S
C296 C295 1.391 . S
C296 N297 1.334 . S
C296 H303 0.930 . S
N297 Zn281 2.119 . S
N297 C293 1.328 . S
N297 C296 1.334 . S
N298 C294 1.331 1_554 S
N298 C295 1.329 1_554 S
H299 C293 0.930 . S
C300 O280 1.257 . S
C300 O301 1.244 . S
O301 C300 1.244 . S
O302 C278 1.257 . S
O302 Zn281 2.019 . S
H303 C296 0.930 . S
H304 C283 0.930 . S
H305 C295 0.930 . S
Zn306 N310 2.020 . S
Zn306 O314 2.019 . S
Zn306 N316 2.119 . S
Zn306 O324 1.975 1_545 S
C307 N308 1.334 . S
C307 N311 1.336 . S
N308 C307 1.334 . S
N308 C309 1.334 . S
C309 N308 1.334 . S
C309 N310 1.336 . S
N310 Zn306 2.020 . S
N310 C309 1.336 . S
N310 N311 1.354 . S
N311 C307 1.336 . S
N311 N310 1.354 . S
N311 Zn315 2.020 . S
C312 O313 1.244 1_565 S
C312 O336 1.257 . S
O313 C312 1.244 1_545 S
O314 Zn306 2.019 . S
O314 C334 1.257 . S
Zn315 N311 2.020 . S
Zn315 O322 1.975 1_545 S
Zn315 N331 2.119 . S
Zn315 O336 2.019 1_445 S
N316 Zn306 2.119 . S
N316 C318 1.334 . S
N316 C319 1.328 . S
C317 C318 1.391 1_565 S
C317 N320 1.329 . S
C317 H338 0.930 . S
C318 N316 1.334 . S
C318 C317 1.391 1_545 S
C318 H325 0.930 . S
C319 N316 1.328 . S
C319 C321 1.392 . S
C319 H326 0.930 . S
N320 C317 1.329 . S
N320 C321 1.331 1_565 S
C321 C319 1.392 . S
C321 N320 1.331 1_545 S
O322 Zn315 1.975 1_565 S
O322 C323 1.252 . S
C323 O322 1.252 . S
C323 O324 1.252 . S
O324 Zn306 1.975 1_565 S
O324 C323 1.252 . S
H325 C318 0.930 . S
H326 C319 0.930 . S
C327 C328 1.392 . S
C327 N331 1.328 . S
C327 H333 0.930 . S
C328 C327 1.392 . S
C328 N332 1.331 . S
C329 C330 1.391 . S
C329 N332 1.329 . S
C329 H339 0.930 . S
C330 C329 1.391 . S
C330 N331 1.334 . S
C330 H337 0.930 . S
N331 Zn315 2.119 . S
N331 C327 1.328 . S
N331 C330 1.334 . S
N332 C328 1.331 . S
N332 C329 1.329 . S
H333 C327 0.930 . S
C334 O314 1.257 . S
C334 O335 1.244 . S
O335 C334 1.244 . S
O336 C312 1.257 . S
O336 Zn315 2.019 1_665 S
H337 C330 0.930 . S
H338 C317 0.930 . S
H339 C329 0.930 . S
Zn340 N344 2.020 . S
Zn340 O348 2.019 . S
Zn340 N350 2.119 . S
Zn340 O358 1.975 . S
C341 N342 1.334 . S
C341 N345 1.336 . S
N342 C341 1.334 . S
N342 C343 1.334 . S
C343 N342 1.334 . S
C343 N344 1.336 . S
N344 Zn340 2.020 . S
N344 C343 1.336 . S
N344 N345 1.354 . S
N345 C341 1.336 . S
N345 N344 1.354 . S
N345 Zn349 2.020 . S
C346 O347 1.244 . S
C346 O370 1.257 . S
O347 C346 1.244 . S
O348 Zn340 2.019 . S
O348 C368 1.257 . S
Zn349 N345 2.020 . S
Zn349 O356 1.975 . S
Zn349 N365 2.119 . S
Zn349 O370 2.019 . S
N350 Zn340 2.119 . S
N350 C352 1.334 . S
N350 C353 1.328 . S
C351 C352 1.391 . S
C351 N354 1.329 . S
C351 H372 0.930 . S
C352 N350 1.334 . S
C352 C351 1.391 . S
C352 H359 0.930 . S
C353 N350 1.328 . S
C353 C355 1.392 . S
C353 H360 0.930 . S
N354 C351 1.329 . S
N354 C355 1.331 . S
C355 C353 1.392 . S
C355 N354 1.331 . S
O356 Zn349 1.975 . S
O356 C357 1.252 . S
C357 O356 1.252 . S
C357 O358 1.252 . S
O358 Zn340 1.975 . S
O358 C357 1.252 . S
H359 C352 0.930 . S
H360 C353 0.930 . S
C361 C362 1.392 . S
C361 N365 1.328 . S
C361 H367 0.930 . S
C362 C361 1.392 . S
C362 N366 1.331 . S
C363 C364 1.391 . S
C363 N366 1.329 . S
C363 H373 0.930 . S
C364 C363 1.391 . S
C364 N365 1.334 . S
C364 H371 0.930 . S
N365 Zn349 2.119 . S
N365 C361 1.328 . S
N365 C364 1.334 . S
N366 C362 1.331 . S
N366 C363 1.329 . S
H367 C361 0.930 . S
C368 O348 1.257 . S
C368 O369 1.244 . S
O369 C368 1.244 . S
O370 C346 1.257 . S
O370 Zn349 2.019 . S
H371 C364 0.930 . S
H372 C351 0.930 . S
H373 C363 0.930 . S
Zn374 N378 2.020 . S
Zn374 O382 2.019 1_565 S
Zn374 N384 2.119 . S
Zn374 O392 1.975 1_565 S
C375 N376 1.334 . S
C375 N379 1.336 . S
N376 C375 1.334 . S
N376 C377 1.334 . S
C377 N376 1.334 . S
C377 N378 1.336 . S
N378 Zn374 2.020 . S
N378 C377 1.336 . S
N378 N379 1.354 . S
N379 C375 1.336 . S
N379 N378 1.354 . S
N379 Zn383 2.020 . S
C380 O381 1.244 . S
C380 O404 1.257 . S
O381 C380 1.244 . S
O382 Zn374 2.019 1_545 S
O382 C402 1.257 . S
Zn383 N379 2.020 . S
Zn383 O390 1.975 1_565 S
Zn383 N399 2.119 . S
Zn383 O404 2.019 . S
N384 Zn374 2.119 . S
N384 C386 1.334 . S
N384 C387 1.328 1_565 S
C385 C386 1.391 1_545 S
C385 N388 1.329 . S
C385 H406 0.930 . S
C386 N384 1.334 . S
C386 C385 1.391 1_565 S
C386 H393 0.930 . S
C387 N384 1.328 1_545 S
C387 C389 1.392 . S
C387 H394 0.930 . S
N388 C385 1.329 . S
N388 C389 1.331 . S
C389 C387 1.392 . S
C389 N388 1.331 . S
O390 Zn383 1.975 1_545 S
O390 C391 1.252 . S
C391 O390 1.252 . S
C391 O392 1.252 . S
O392 Zn374 1.975 1_545 S
O392 C391 1.252 . S
H393 C386 0.930 . S
H394 C387 0.930 . S
C395 C396 1.392 . S
C395 N399 1.328 . S
C395 H401 0.930 . S
C396 C395 1.392 . S
C396 N400 1.331 . S
C397 C398 1.391 . S
C397 N400 1.329 . S
C397 H407 0.930 . S
C398 C397 1.391 . S
C398 N399 1.334 . S
C398 H405 0.930 . S
N399 Zn383 2.119 . S
N399 C395 1.328 . S
N399 C398 1.334 . S
N400 C396 1.331 . S
N400 C397 1.329 . S
H401 C395 0.930 . S
C402 O382 1.257 . S
C402 O403 1.244 1_545 S
O403 C402 1.244 1_565 S
O404 C380 1.257 . S
O404 Zn383 2.019 . S
H405 C398 0.930 . S
H406 C385 0.930 . S
H407 C397 0.930 . S
Zn408 N412 2.020 . S
Zn408 O416 2.019 1_655 S
Zn408 N418 2.119 . S
Zn408 O426 1.975 . S
C409 N410 1.334 . S
C409 N413 1.336 . S
N410 C409 1.334 . S
N410 C411 1.334 . S
C411 N410 1.334 . S
C411 N412 1.336 . S
N412 Zn408 2.020 . S
N412 C411 1.336 . S
N412 N413 1.354 . S
N413 C409 1.336 . S
N413 N412 1.354 . S
N413 Zn417 2.020 . S
C414 O415 1.244 . S
C414 O438 1.257 . S
O415 C414 1.244 . S
O416 Zn408 2.019 1_455 S
O416 C436 1.257 . S
Zn417 N413 2.020 . S
Zn417 O424 1.975 . S
Zn417 N433 2.119 . S
Zn417 O438 2.019 . S
N418 Zn408 2.119 . S
N418 C420 1.334 . S
N418 C421 1.328 . S
C419 C420 1.391 . S
C419 N422 1.329 . S
C419 H440 0.930 . S
C420 N418 1.334 . S
C420 C419 1.391 . S
C420 H427 0.930 . S
C421 N418 1.328 . S
C421 C423 1.392 . S
C421 H428 0.930 1_655 S
N422 C419 1.329 . S
N422 C423 1.331 . S
C423 C421 1.392 . S
C423 N422 1.331 . S
O424 Zn417 1.975 . S
O424 C425 1.252 . S
C425 O424 1.252 . S
C425 O426 1.252 . S
O426 Zn408 1.975 . S
O426 C425 1.252 . S
H427 C420 0.930 . S
H428 C421 0.930 1_455 S
C429 C430 1.392 . S
C429 N433 1.328 . S
C429 H435 0.930 . S
C430 C429 1.392 . S
C430 N434 1.331 . S
C431 C432 1.391 . S
C431 N434 1.329 . S
C431 H441 0.930 . S
C432 C431 1.391 . S
C432 N433 1.334 . S
C432 H439 0.930 . S
N433 Zn417 2.119 . S
N433 C429 1.328 . S
N433 C432 1.334 . S
N434 C430 1.331 . S
N434 C431 1.329 . S
H435 C429 0.930 . S
C436 O416 1.257 . S
C436 O437 1.244 . S
O437 C436 1.244 . S
O438 C414 1.257 . S
O438 Zn417 2.019 . S
H439 C432 0.930 . S
H440 C419 0.930 . S
H441 C431 0.930 . S
Zn442 N446 2.020 . S
Zn442 O450 2.019 1_545 S
Zn442 N452 2.119 . S
Zn442 O460 1.975 1_545 S
C443 N444 1.334 . S
C443 N447 1.336 . S
N444 C443 1.334 . S
N444 C445 1.334 . S
C445 N444 1.334 . S
C445 N446 1.336 . S
N446 Zn442 2.020 . S
N446 C445 1.336 . S
N446 N447 1.354 . S
N447 C443 1.336 . S
N447 N446 1.354 . S
N447 Zn451 2.020 . S
C448 O449 1.244 . S
C448 O472 1.257 . S
O449 C448 1.244 . S
O450 Zn442 2.019 1_565 S
O450 C470 1.257 1_565 S
Zn451 N447 2.020 . S
Zn451 O458 1.975 1_545 S
Zn451 N467 2.119 . S
Zn451 O472 2.019 . S
N452 Zn442 2.119 . S
N452 C454 1.334 . S
N452 C455 1.328 . S
C453 C454 1.391 . S
C453 N456 1.329 1_545 S
C453 H474 0.930 . S
C454 N452 1.334 . S
C454 C453 1.391 . S
C454 H461 0.930 . S
C455 N452 1.328 . S
C455 C457 1.392 1_545 S
C455 H462 0.930 . S
N456 C453 1.329 1_565 S
N456 C457 1.331 . S
C457 C455 1.392 1_565 S
C457 N456 1.331 . S
O458 Zn451 1.975 1_565 S
O458 C459 1.252 . S
C459 O458 1.252 . S
C459 O460 1.252 . S
O460 Zn442 1.975 1_565 S
O460 C459 1.252 . S
H461 C454 0.930 . S
H462 C455 0.930 . S
C463 C464 1.392 . S
C463 N467 1.328 . S
C463 H469 0.930 . S
C464 C463 1.392 . S
C464 N468 1.331 . S
C465 C466 1.391 . S
C465 N468 1.329 . S
C465 H475 0.930 . S
C466 C465 1.391 . S
C466 N467 1.334 . S
C466 H473 0.930 . S
N467 Zn451 2.119 . S
N467 C463 1.328 . S
N467 C466 1.334 . S
N468 C464 1.331 . S
N468 C465 1.329 . S
H469 C463 0.930 . S
C470 O450 1.257 1_545 S
C470 O471 1.244 . S
O471 C470 1.244 . S
O472 C448 1.257 . S
O472 Zn451 2.019 . S
H473 C466 0.930 . S
H474 C453 0.930 . S
H475 C465 0.930 . S
Zn476 N480 2.020 . S
Zn476 O484 2.019 . S
Zn476 N486 2.119 . S
Zn476 O494 1.975 . S
C477 N478 1.334 . S
C477 N481 1.336 . S
N478 C477 1.334 . S
N478 C479 1.334 . S
C479 N478 1.334 . S
C479 N480 1.336 . S
N480 Zn476 2.020 . S
N480 C479 1.336 . S
N480 N481 1.354 . S
N481 C477 1.336 . S
N481 N480 1.354 . S
N481 Zn485 2.020 . S
C482 O483 1.244 . S
C482 O506 1.257 . S
O483 C482 1.244 . S
O484 Zn476 2.019 . S
O484 C504 1.257 . S
Zn485 N481 2.020 . S
Zn485 O492 1.975 . S
Zn485 N501 2.119 . S
Zn485 O506 2.019 . S
N486 Zn476 2.119 . S
N486 C488 1.334 . S
N486 C489 1.328 . S
C487 C488 1.391 . S
C487 N490 1.329 . S
C487 H508 0.930 . S
C488 N486 1.334 . S
C488 C487 1.391 . S
C488 H495 0.930 . S
C489 N486 1.328 . S
C489 C491 1.392 . S
C489 H496 0.930 . S
N490 C487 1.329 . S
N490 C491 1.331 . S
C491 C489 1.392 . S
C491 N490 1.331 . S
O492 Zn485 1.975 . S
O492 C493 1.252 . S
C493 O492 1.252 . S
C493 O494 1.252 . S
O494 Zn476 1.975 . S
O494 C493 1.252 . S
H495 C488 0.930 . S
H496 C489 0.930 . S
C497 C498 1.392 . S
C497 N501 1.328 . S
C497 H503 0.930 . S
C498 C497 1.392 . S
C498 N502 1.331 . S
C499 C500 1.391 . S
C499 N502 1.329 . S
C499 H509 0.930 . S
C500 C499 1.391 . S
C500 N501 1.334 . S
C500 H507 0.930 . S
N501 Zn485 2.119 . S
N501 C497 1.328 . S
N501 C500 1.334 . S
N502 C498 1.331 . S
N502 C499 1.329 . S
H503 C497 0.930 . S
C504 O484 1.257 . S
C504 O505 1.244 . S
O505 C504 1.244 . S
O506 C482 1.257 . S
O506 Zn485 2.019 . S
H507 C500 0.930 . S
H508 C487 0.930 . S
H509 C499 0.930 . S
Zn510 N514 2.020 . S
Zn510 O518 2.019 . S
Zn510 N520 2.119 . S
Zn510 O528 1.975 . S
C511 N512 1.334 . S
C511 N515 1.336 1_655 S
N512 C511 1.334 . S
N512 C513 1.334 . S
C513 N512 1.334 . S
C513 N514 1.336 1_655 S
N514 Zn510 2.020 . S
N514 C513 1.336 1_455 S
N514 N515 1.354 . S
N515 C511 1.336 1_455 S
N515 N514 1.354 . S
N515 Zn519 2.020 1_565 S
C516 O517 1.244 . S
C516 O540 1.257 . S
O517 C516 1.244 . S
O518 Zn510 2.019 . S
O518 C538 1.257 . S
Zn519 N515 2.020 1_545 S
Zn519 O526 1.975 . S
Zn519 N535 2.119 1_545 S
Zn519 O540 2.019 . S
N520 Zn510 2.119 . S
N520 C522 1.334 . S
N520 C523 1.328 . S
C521 C522 1.391 1_545 S
C521 N524 1.329 1_545 S
C521 H542 0.930 . S
C522 N520 1.334 . S
C522 C521 1.391 1_565 S
C522 H529 0.930 1_565 S
C523 N520 1.328 . S
C523 C525 1.392 . S
C523 H530 0.930 . S
N524 C521 1.329 1_565 S
N524 C525 1.331 . S
C525 C523 1.392 . S
C525 N524 1.331 . S
O526 Zn519 1.975 . S
O526 C527 1.252 1_545 S
C527 O526 1.252 1_565 S
C527 O528 1.252 . S
O528 Zn510 1.975 . S
O528 C527 1.252 . S
H529 C522 0.930 1_545 S
H530 C523 0.930 . S
C531 C532 1.392 1_545 S
C531 N535 1.328 1_545 S
C531 H537 0.930 . S
C532 C531 1.392 1_565 S
C532 N536 1.331 . S
C533 C534 1.391 . S
C533 N536 1.329 . S
C533 H543 0.930 . S
C534 C533 1.391 . S
C534 N535 1.334 . S
C534 H541 0.930 . S
N535 Zn519 2.119 1_565 S
N535 C531 1.328 1_565 S
N535 C534 1.334 . S
N536 C532 1.331 . S
N536 C533 1.329 . S
H537 C531 0.930 . S
C538 O518 1.257 . S
C538 O539 1.244 . S
O539 C538 1.244 . S
O540 C516 1.257 . S
O540 Zn519 2.019 . S
H541 C534 0.930 . S
H542 C521 0.930 . S
H543 C533 0.930 . S
C1 C241 1.674 1_455 S
C35 C139 1.753 1_655 S
C71 C171 1.559 . S
C205 C105 2.621 . S
C275 C513 1.611 . S
C307 C411 2.724 1_455 S
C445 C343 1.597 . S
C377 C477 2.721 . S
C391 C3 3.329 . S
C37 C448 2.667 1_565 S
C96 C323 1.749 . S
C130 C527 2.413 1_545 S
C459 C137 3.001 . S
C176 C334 1.928 1_565 S
C516 C207 2.853 . S
C380 C239 2.854 1_465 S
C273 C119 3.379 . S
C312 C198 1.884 . S
C368 C62 2.568 . S
C255 C402 2.294 . S
C409 C187 2.861 . S
C51 C470 1.853 1_565 S
C244 C479 2.585 . S
C511 C108 2.579 1_565 S
C425 C173 3.088 . S
C278 C210 1.613 . S
C493 C266 1.470 . S
C357 C164 2.233 . S
C289 C103 2.880 . S
C504 C6 1.662 . S
C40 C346 2.633 . S
C414 C69 2.646 . S
C443 C153 3.333 . S
C28 C482 1.733 . S
C538 C221 1.837 . S
C436 C85 2.428 . S
C375 C17 2.776 . S
C232 C300 1.578 . S
C74 C309 2.730 . S
C341 C142 2.587 . S
C219 C15 1.658 1_556 S
C260 C49 1.622 . S
C83 C158 1.334 . S
C192 C117 2.045 . S
C294 C491 1.612 1_556 S
C328 C532 1.562 1_545 S
C430 C355 1.659 . S
C457 C389 1.905 1_565 S
C56 C185 1.440 . S
C90 C226 1.601 . S
C253 C124 1.783 1_554 S
C151 C22 2.241 . S
C321 C464 2.018 . S
C498 C362 1.859 . S
C396 C525 1.599 1_554 S
C423 C287 2.075 . S
