# Generated by pormake.
# Topology uou, (4)-cn, num edge types: 1
# Building blocks:
#     Node 0, Type 0, BuildingBlock: UXUYUI_clean_sbu_0, # of connection points: 4
#     Node 1, Type 0, BuildingBlock: UXUYUI_clean_sbu_0, # of connection points: 4
#     Node 2, Type 0, BuildingBlock: UXUYUI_clean_sbu_0, # of connection points: 4
#     Node 3, Type 0, BuildingBlock: UXUYUI_clean_sbu_0, # of connection points: 4
#     Node 4, Type 0, BuildingBlock: UXUYUI_clean_sbu_0, # of connection points: 4
#     Node 5, Type 0, BuildingBlock: UXUYUI_clean_sbu_0, # of connection points: 4
#     Node 6, Type 0, BuildingBlock: UXUYUI_clean_sbu_0, # of connection points: 4
#     Node 7, Type 0, BuildingBlock: UXUYUI_clean_sbu_0, # of connection points: 4
#     Node 8, Type 0, BuildingBlock: UXUYUI_clean_sbu_0, # of connection points: 4
#     Node 9, Type 0, BuildingBlock: UXUYUI_clean_sbu_0, # of connection points: 4
#     Node 10, Type 0, BuildingBlock: UXUYUI_clean_sbu_0, # of connection points: 4
#     Node 11, Type 0, BuildingBlock: UXUYUI_clean_sbu_0, # of connection points: 4
#     Node 12, Type 0, BuildingBlock: UXUYUI_clean_sbu_0, # of connection points: 4
#     Node 13, Type 0, BuildingBlock: UXUYUI_clean_sbu_0, # of connection points: 4
#     Node 14, Type 0, BuildingBlock: UXUYUI_clean_sbu_0, # of connection points: 4
#     Node 15, Type 0, BuildingBlock: UXUYUI_clean_sbu_0, # of connection points: 4
#     Edge 16, Type (0, 0), BuildingBlock: ZUJKAS_clean_linker_0, # of connection points: 2
#     Edge 17, Type (0, 0), BuildingBlock: ZUJKAS_clean_linker_0, # of connection points: 2
#     Edge 18, Type (0, 0), BuildingBlock: ZUJKAS_clean_linker_0, # of connection points: 2
#     Edge 19, Type (0, 0), BuildingBlock: ZUJKAS_clean_linker_0, # of connection points: 2
#     Edge 20, Type (0, 0), BuildingBlock: ZUJKAS_clean_linker_0, # of connection points: 2
#     Edge 21, Type (0, 0), BuildingBlock: ZUJKAS_clean_linker_0, # of connection points: 2
#     Edge 22, Type (0, 0), BuildingBlock: ZUJKAS_clean_linker_0, # of connection points: 2
#     Edge 23, Type (0, 0), BuildingBlock: ZUJKAS_clean_linker_0, # of connection points: 2
#     Edge 24, Type (0, 0), BuildingBlock: ZUJKAS_clean_linker_0, # of connection points: 2
#     Edge 25, Type (0, 0), BuildingBlock: ZUJKAS_clean_linker_0, # of connection points: 2
#     Edge 26, Type (0, 0), BuildingBlock: ZUJKAS_clean_linker_0, # of connection points: 2
#     Edge 27, Type (0, 0), BuildingBlock: ZUJKAS_clean_linker_0, # of connection points: 2
#     Edge 28, Type (0, 0), BuildingBlock: ZUJKAS_clean_linker_0, # of connection points: 2
#     Edge 29, Type (0, 0), BuildingBlock: ZUJKAS_clean_linker_0, # of connection points: 2
#     Edge 30, Type (0, 0), BuildingBlock: ZUJKAS_clean_linker_0, # of connection points: 2
#     Edge 31, Type (0, 0), BuildingBlock: ZUJKAS_clean_linker_0, # of connection points: 2
#     Edge 32, Type (0, 0), BuildingBlock: ZUJKAS_clean_linker_0, # of connection points: 2
#     Edge 33, Type (0, 0), BuildingBlock: ZUJKAS_clean_linker_0, # of connection points: 2
#     Edge 34, Type (0, 0), BuildingBlock: ZUJKAS_clean_linker_0, # of connection points: 2
#     Edge 35, Type (0, 0), BuildingBlock: ZUJKAS_clean_linker_0, # of connection points: 2
#     Edge 36, Type (0, 0), BuildingBlock: ZUJKAS_clean_linker_0, # of connection points: 2
#     Edge 37, Type (0, 0), BuildingBlock: ZUJKAS_clean_linker_0, # of connection points: 2
#     Edge 38, Type (0, 0), BuildingBlock: ZUJKAS_clean_linker_0, # of connection points: 2
#     Edge 39, Type (0, 0), BuildingBlock: ZUJKAS_clean_linker_0, # of connection points: 2
#     Edge 40, Type (0, 0), BuildingBlock: ZUJKAS_clean_linker_0, # of connection points: 2
#     Edge 41, Type (0, 0), BuildingBlock: ZUJKAS_clean_linker_0, # of connection points: 2
#     Edge 42, Type (0, 0), BuildingBlock: ZUJKAS_clean_linker_0, # of connection points: 2
#     Edge 43, Type (0, 0), BuildingBlock: ZUJKAS_clean_linker_0, # of connection points: 2
#     Edge 44, Type (0, 0), BuildingBlock: ZUJKAS_clean_linker_0, # of connection points: 2
#     Edge 45, Type (0, 0), BuildingBlock: ZUJKAS_clean_linker_0, # of connection points: 2
#     Edge 46, Type (0, 0), BuildingBlock: ZUJKAS_clean_linker_0, # of connection points: 2
#     Edge 47, Type (0, 0), BuildingBlock: ZUJKAS_clean_linker_0, # of connection points: 2
# Relax obj value: 0.194
# Max RMSD: 0.198
# Mean RMSD: 0.197
data_MOF--net-uou--node1-UXUYUI_clean_sbu_0--edge1-ZUJKAS_clean_linker_0
_symmetry_space_group_name_H-M    P1
_symmetry_Int_Tables_number       1
_symmetry_cell_setting            triclinic
loop_
_symmetry_equiv_pos_as_xyz
'x, y, z'
_cell_length_a     68.491768
_cell_length_b     66.354185
_cell_length_c     93.539735
_cell_angle_alpha  90.008052
_cell_angle_beta   90.001347
_cell_angle_gamma 90.000088
loop_
_atom_site_label
_atom_site_type_symbol
_atom_site_fract_x
_atom_site_fract_y
_atom_site_fract_z
_atom_type_partial_charge
Li0 Li 0.05549 0.05221 0.11099 0.0
Li1 Li 0.08464 0.05752 0.12465 0.0
Li2 Li 0.05326 0.04995 0.13656 0.0
Li3 Li 0.05897 0.08273 0.12421 0.0
C4 C 0.06698 0.01263 0.12213 0.0
N5 N 0.06379 0.97131 0.11918 0.0
C6 C 0.0826 0.00143 0.1167 0.0
C7 C 0.04981 0.00277 0.1262 0.0
C8 C 0.08067 0.98057 0.11525 0.0
C9 C 0.04847 0.98189 0.12458 0.0
C10 C 0.08689 0.06982 0.09643 0.0
C11 C 0.10596 0.08152 0.07641 0.0
N12 N 0.11034 0.06211 0.07302 0.0
C13 C 0.09158 0.04999 0.09275 0.0
C14 C 0.09412 0.08573 0.0882 0.0
C15 C 0.10345 0.0464 0.08088 0.0
C16 C 0.04184 0.05756 0.08347 0.0
N17 N 0.04541 0.04278 0.09318 0.0
C18 C 0.03425 0.01767 0.07682 0.0
C19 C 0.0418 0.0231 0.09013 0.0
C20 C 0.03033 0.03267 0.06663 0.0
C21 C 0.03419 0.05285 0.07009 0.0
H22 H 0.0449 0.07309 0.08618 0.0
H23 H 0.04464 0.01158 0.09796 0.0
C24 C 0.11625 0.03586 0.13455 0.0
N25 N 0.11161 0.05185 0.12615 0.0
C26 C 0.13545 0.02903 0.13529 0.0
C27 C 0.14491 0.05575 0.11913 0.0
C28 C 0.12548 0.06214 0.11876 0.0
C29 C 0.15003 0.03874 0.12727 0.0
H30 H 0.10487 0.02812 0.1404 0.0
H31 H 0.12144 0.07497 0.1123 0.0
C32 C 0.01941 0.06403 0.11532 0.0
N33 N 0.98729 0.06153 0.09752 0.0
C34 C 0.01311 0.08098 0.10774 0.0
C35 C 0.00923 0.04587 0.11397 0.0
C36 C 0.99687 0.0794 0.09877 0.0
C37 C 0.99307 0.04489 0.10488 0.0
C38 C 0.08572 0.08543 0.14669 0.0
C39 C 0.08872 0.08694 0.16142 0.0
C40 C 0.09599 0.0981 0.13741 0.0
C41 C 0.10198 0.10114 0.16665 0.0
C42 C 0.10912 0.1121 0.14305 0.0
N43 N 0.11182 0.11332 0.15744 0.0
C44 C 0.05453 0.02904 0.1624 0.0
C45 C 0.02253 0.03563 0.15392 0.0
C46 C 0.04709 0.01948 0.17451 0.0
N47 N 0.04222 0.03697 0.15251 0.0
C48 C 0.01445 0.02604 0.1658 0.0
C49 C 0.02677 0.01801 0.17639 0.0
H50 H 0.07015 0.0304 0.16093 0.0
H51 H 0.01312 0.04207 0.14585 0.0
C52 C 0.05442 0.12076 0.11183 0.0
N53 N 0.05298 0.1105 0.12435 0.0
C54 C 0.04826 0.14075 0.111 0.0
C55 C 0.03976 0.13939 0.13608 0.0
C56 C 0.04606 0.11937 0.13642 0.0
C57 C 0.04051 0.15023 0.12317 0.0
H58 H 0.05979 0.11318 0.10238 0.0
H59 H 0.04494 0.11071 0.14618 0.0
O60 O 0.06877 0.03303 0.12385 0.0
O61 O 0.07534 0.0738 0.10804 0.0
O62 O 0.03558 0.06516 0.12388 0.0
O63 O 0.0728 0.07155 0.14145 0.0
H64 H 0.09609 0.00874 0.11366 0.0
H65 H 0.0376 0.01112 0.13045 0.0
H66 H 0.09263 0.97173 0.11102 0.0
H67 H 0.03523 0.97409 0.12762 0.0
H68 H 0.11168 0.09369 0.06996 0.0
H69 H 0.08609 0.03751 0.09893 0.0
H70 H 0.09071 0.10118 0.09094 0.0
H71 H 0.10718 0.03112 0.07791 0.0
H72 H 0.0313 0.00195 0.07458 0.0
H73 H 0.03161 0.06484 0.06247 0.0
H74 H 0.13879 0.01614 0.14195 0.0
H75 H 0.15563 0.06364 0.11273 0.0
H76 H 0.02076 0.09516 0.10867 0.0
H77 H 0.0139 0.03259 0.11972 0.0
H78 H 0.99191 0.09236 0.09278 0.0
H79 H 0.98517 0.03088 0.10364 0.0
H80 H 0.08088 0.07721 0.16873 0.0
H81 H 0.09389 0.09717 0.12597 0.0
H82 H 0.10445 0.10248 0.17803 0.0
H83 H 0.11717 0.12199 0.136 0.0
H84 H 0.05715 0.01385 0.18249 0.0
H85 H -0.00128 0.02503 0.16669 0.0
H86 H 0.0493 0.14862 0.10088 0.0
H87 H 0.0337 0.14604 0.14568 0.0
Li88 Li 0.43501 0.91506 0.12455 0.0
Li89 Li 0.44162 0.94628 0.13774 0.0
Li90 Li 0.41092 0.94122 0.1239 0.0
Li91 Li 0.4414 0.9474 0.11139 0.0
C92 C 0.41747 0.91036 0.14984 0.0
N93 N 0.41243 0.87729 0.1674 0.0
C94 C 0.42802 0.90877 0.16258 0.0
C95 C 0.40417 0.89527 0.14612 0.0
C96 C 0.4253 0.8919 0.17129 0.0
C97 C 0.40189 0.87862 0.15511 0.0
C98 C 0.47878 0.93309 0.12556 0.0
C99 C 0.50907 0.9512 0.12254 0.0
N100 N 0.51895 0.93533 0.12821 0.0
C101 C 0.4893 0.91685 0.13117 0.0
C102 C 0.4888 0.95032 0.12105 0.0
C103 C 0.50957 0.91832 0.1325 0.0
C104 C 0.43577 0.87651 0.11195 0.0
N105 N 0.44013 0.88693 0.12404 0.0
C106 C 0.45451 0.85769 0.13455 0.0
C107 C 0.44925 0.87796 0.13526 0.0
C108 C 0.45054 0.84661 0.12209 0.0
C109 C 0.44087 0.85621 0.11073 0.0
H110 H 0.42874 0.88409 0.10311 0.0
H111 H 0.45297 0.88669 0.14462 0.0
C112 C 0.4428 0.97291 0.16104 0.0
N113 N 0.45256 0.95758 0.15456 0.0
C114 C 0.45015 0.98158 0.17353 0.0
C115 C 0.47742 0.95849 0.17241 0.0
C116 C 0.46949 0.95023 0.16001 0.0
C117 C 0.46766 0.9743 0.17941 0.0
H118 H 0.42922 0.97829 0.15654 0.0
H119 H 0.47674 0.93776 0.15488 0.0
C120 C 0.40585 0.92397 0.09881 0.0
N121 N 0.37307 0.92038 0.0818 0.0
C122 C 0.40341 0.93656 0.08697 0.0
C123 C 0.39175 0.90939 0.1019 0.0
C124 C 0.38671 0.93455 0.07852 0.0
C125 C 0.37523 0.90787 0.09321 0.0
C126 C 0.43301 0.98544 0.12417 0.0
C127 C 0.41943 -5e-05 0.11986 0.0
C128 C 0.45184 0.99145 0.12802 0.0
C129 C 0.42505 0.02016 0.11917 0.0
C130 C 0.45691 0.01181 0.12722 0.0
N131 N 0.44353 0.02563 0.12282 0.0
C132 C 0.37126 0.93951 0.1328 0.0
C133 C 0.37817 0.96123 0.11331 0.0
C134 C 0.35169 0.94542 0.13269 0.0
N135 N 0.38401 0.94758 0.12325 0.0
C136 C 0.3588 0.96761 0.11285 0.0
C137 C 0.34534 0.95988 0.12275 0.0
H138 H 0.37638 0.92883 0.14068 0.0
H139 H 0.38866 0.96736 0.10586 0.0
C140 C 0.46729 0.94733 0.08849 0.0
N141 N 0.45294 0.95831 0.0948 0.0
C142 C 0.47564 0.95385 0.07572 0.0
C143 C 0.45412 0.98276 0.07613 0.0
C144 C 0.44626 0.97572 0.08894 0.0
C145 C 0.46892 0.97169 0.06932 0.0
H146 H 0.47199 0.9333 0.09327 0.0
H147 H 0.43446 0.98385 0.09397 0.0
O148 O 0.42004 0.92669 0.14112 0.0
O149 O 0.4589 0.93182 0.12414 0.0
O150 O 0.42196 0.92592 0.10734 0.0
O151 O 0.42767 0.96557 0.12493 0.0
H152 H 0.43828 0.92037 0.16567 0.0
H153 H 0.39582 0.89632 0.13634 0.0
H154 H 0.43345 0.89042 0.18114 0.0
H155 H 0.39176 0.86676 0.15231 0.0
H156 H 0.51696 0.96447 0.11911 0.0
H157 H 0.48191 0.90331 0.13458 0.0
H158 H 0.4811 0.9628 0.11625 0.0
H159 H 0.51784 0.90591 0.13694 0.0
H160 H 0.46225 0.85097 0.14345 0.0
H161 H 0.43746 0.84816 0.10097 0.0
H162 H 0.44197 0.9935 0.17869 0.0
H163 H 0.49104 0.95251 0.17648 0.0
H164 H 0.41422 0.94787 0.0844 0.0
H165 H 0.3935 0.89943 0.11096 0.0
H166 H 0.38456 0.94428 0.06938 0.0
H167 H 0.36414 0.89673 0.09553 0.0
H168 H 0.4047 0.99567 0.11703 0.0
H169 H 0.46236 0.98061 0.1318 0.0
H170 H 0.41471 0.03151 0.11577 0.0
H171 H 0.47145 0.01664 0.13016 0.0
H172 H 0.3418 0.93925 0.1406 0.0
H173 H 0.35444 0.97857 0.10489 0.0
H174 H 0.48677 0.94469 0.07067 0.0
H175 H 0.44857 0.9966 0.07153 0.0
Li176 Li 0.58545 0.94055 0.37005 0.0
Li177 Li 0.55488 0.94492 0.38288 0.0
Li178 Li 0.56017 0.91594 0.36741 0.0
Li179 Li 0.55558 0.94961 0.35755 0.0
C180 C 0.59002 0.92036 0.39357 0.0
N181 N 0.62324 0.91666 0.41012 0.0
C182 C 0.59235 0.93224 0.40579 0.0
C183 C 0.60454 0.90653 0.3898 0.0
C184 C 0.60926 0.93014 0.41402 0.0
C185 C 0.62124 0.90492 0.39829 0.0
C186 C 0.56988 0.9838 0.36601 0.0
C187 C 0.55368 0.01479 0.35959 0.0
N188 N 0.56967 0.02041 0.35194 0.0
C189 C 0.58615 0.9899 0.3581 0.0
C190 C 0.55351 0.99635 0.36679 0.0
C191 C 0.58576 0.00847 0.35107 0.0
C192 C 0.62586 0.9366 0.36284 0.0
N193 N 0.61256 0.94583 0.37139 0.0
C194 C 0.63748 0.96548 0.38249 0.0
C195 C 0.61795 0.95996 0.38112 0.0
C196 C 0.65162 0.95636 0.37375 0.0
C197 C 0.64562 0.94161 0.36388 0.0
H198 H 0.62112 0.92551 0.35512 0.0
H199 H 0.60696 0.96719 0.38766 0.0
C200 C 0.53686 0.93845 0.40929 0.0
N201 N 0.54398 0.95301 0.40052 0.0
C202 C 0.52909 0.94354 0.42257 0.0
C203 C 0.53659 0.97849 0.41767 0.0
C204 C 0.54408 0.97272 0.40442 0.0
C205 C 0.52899 0.96379 0.42696 0.0
H206 H 0.53731 0.92285 0.40595 0.0
H207 H 0.55028 0.9839 0.39736 0.0
C208 C 0.57636 0.91412 0.34228 0.0
N209 N 0.57683 0.8824 0.32315 0.0
C210 C 0.56398 0.91427 0.3304 0.0
C211 C 0.58903 0.89788 0.3444 0.0
C212 C 0.56445 0.89809 0.32085 0.0
C213 C 0.58902 0.88196 0.33462 0.0
C214 C 0.51971 0.93292 0.37593 0.0
C215 C 0.51257 0.91463 0.3812 0.0
C216 C 0.50962 0.95078 0.37885 0.0
C217 C 0.49548 0.91453 0.38936 0.0
C218 C 0.49261 0.95005 0.38707 0.0
N219 N 0.48595 0.93209 0.39211 0.0
C220 C 0.56146 0.87438 0.37412 0.0
C221 C 0.54047 0.88314 0.35494 0.0
C222 C 0.55556 0.85428 0.37328 0.0
N223 N 0.55381 0.8883 0.36506 0.0
C224 C 0.5342 0.86321 0.35369 0.0
C225 C 0.54159 0.84852 0.36306 0.0
H226 H 0.57179 0.87897 0.38222 0.0
H227 H 0.53429 0.89464 0.34812 0.0
C228 C 0.55819 0.97013 0.33144 0.0
N229 N 0.54556 0.96455 0.34192 0.0
C230 C 0.55144 0.98047 0.31944 0.0
C231 C 0.51886 0.97947 0.3294 0.0
C232 C 0.52625 0.96909 0.34118 0.0
C233 C 0.53147 0.98503 0.31822 0.0
H234 H 0.57346 0.96614 0.33229 0.0
H235 H 0.51652 0.96437 0.34962 0.0
O236 O 0.57382 0.92255 0.38516 0.0
O237 O 0.56977 0.96545 0.37267 0.0
O238 O 0.57591 0.92966 0.35188 0.0
O239 O 0.53658 0.93337 0.36809 0.0
H240 H 0.58136 0.94312 0.40882 0.0
H241 H 0.60306 0.89737 0.3803 0.0
H242 H 0.61131 0.93931 0.42347 0.0
H243 H 0.63265 0.89439 0.39544 0.0
H244 H 0.54107 0.02458 0.36002 0.0
H245 H 0.59885 0.98029 0.35721 0.0
H246 H 0.5407 0.99177 0.37272 0.0
H247 H 0.59822 0.01334 0.34485 0.0
H248 H 0.64133 0.97719 0.39005 0.0
H249 H 0.65605 0.93407 0.35703 0.0
H250 H 0.52321 0.93174 0.4293 0.0
H251 H 0.53718 0.99422 0.42073 0.0
H252 H 0.55397 0.92663 0.32865 0.0
H253 H 0.59854 0.8974 0.35362 0.0
H254 H 0.55489 0.89797 0.31164 0.0
H255 H 0.59865 0.86923 0.33619 0.0
H256 H 0.52022 0.90068 0.37916 0.0
H257 H 0.51507 0.9651 0.37505 0.0
H258 H 0.48984 0.9005 0.39354 0.0
H259 H 0.48476 0.96377 0.38951 0.0
H260 H 0.56173 0.84341 0.38064 0.0
H261 H 0.52318 0.8595 0.34582 0.0
H262 H 0.56162 0.98411 0.31098 0.0
H263 H 0.5034 0.98281 0.32893 0.0
Li264 Li 0.94141 0.0517 0.38256 0.0
Li265 Li 0.90984 0.05859 0.37163 0.0
Li266 Li 0.93964 0.05136 0.35705 0.0
Li267 Li 0.93616 0.08376 0.36916 0.0
C268 C 0.92693 0.01553 0.37751 0.0
N269 N 0.93007 0.97977 0.39248 0.0
C270 C 0.91087 0.00789 0.38497 0.0
C271 C 0.94451 0.00483 0.37751 0.0
C272 C 0.91277 0.98982 0.39251 0.0
C273 C 0.94584 0.98683 0.38519 0.0
C274 C 0.91164 0.08574 0.39547 0.0
C275 C 0.89207 0.11551 0.39927 0.0
N276 N 0.88875 0.10961 0.41298 0.0
C277 C 0.90827 0.08015 0.40967 0.0
C278 C 0.90368 0.10371 0.39028 0.0
C279 C 0.89656 0.09234 0.41832 0.0
C280 C 0.97282 0.04142 0.40079 0.0
N281 N 0.95313 0.04069 0.39908 0.0
C282 C 0.94913 0.02553 0.422 0.0
C283 C 0.94127 0.03293 0.40932 0.0
C284 C 0.9694 0.02629 0.4242 0.0
C285 C 0.98133 0.03425 0.41336 0.0
H286 H 0.98187 0.04786 0.3925 0.0
H287 H 0.92564 0.03277 0.4077 0.0
C288 C 0.87249 0.05008 0.36102 0.0
N289 N 0.88271 0.05357 0.37322 0.0
C290 C 0.85299 0.04408 0.36171 0.0
C291 C 0.85492 0.04543 0.38751 0.0
C292 C 0.87435 0.0515 0.38632 0.0
C293 C 0.84407 0.04137 0.3751 0.0
H294 H 0.87967 0.05137 0.35077 0.0
H295 H 0.88297 0.05373 0.39584 0.0
C296 C 0.97573 0.06463 0.361 0.0
N297 N 0.00871 0.06256 0.34404 0.0
C298 C 0.98176 0.08146 0.35316 0.0
C299 C 0.98662 0.04684 0.36034 0.0
C300 C -0.00156 0.08009 0.34462 0.0
C301 C 0.00319 0.04606 0.35166 0.0
C302 C 0.90876 0.08604 0.34611 0.0
C303 C 0.914 0.0903 0.33199 0.0
C304 C 0.89248 0.09555 0.35209 0.0
C305 C 0.90316 0.10436 0.3242 0.0
C306 C 0.882 0.10951 0.34396 0.0
N307 N 0.88753 0.11362 0.33031 0.0
C308 C 0.94732 0.01862 0.33833 0.0
C309 C 0.95599 0.05095 0.32959 0.0
C310 C 0.95337 0.00964 0.32556 0.0
N311 N 0.9487 0.03892 0.34005 0.0
C312 C 0.96214 0.04265 0.31668 0.0
C313 C 0.96068 0.02176 0.31449 0.0
H314 H 0.94123 0.00944 0.34675 0.0
H315 H 0.95691 0.06703 0.33125 0.0
C316 C 0.95189 0.11772 0.38157 0.0
N317 N 0.94318 0.11144 0.3693 0.0
C318 C 0.95911 0.1373 0.38269 0.0
C319 C 0.94797 0.14374 0.35859 0.0
C320 C 0.94102 0.12397 0.35792 0.0
C321 C 0.95738 0.15053 0.37105 0.0
H322 H 0.95351 0.10734 0.3904 0.0
H323 H 0.93444 0.11855 0.34818 0.0
O324 O 0.92544 0.03336 0.37025 0.0
O325 O 0.92325 0.07403 0.38691 0.0
O326 O 0.95928 0.06559 0.36926 0.0
O327 O 0.9192 0.07222 0.35385 0.0
H328 H 0.89711 0.01586 0.385 0.0
H329 H 0.95705 0.01047 0.37175 0.0
H330 H 0.90048 0.9838 0.39839 0.0
H331 H 0.9594 0.97849 0.38538 0.0
H332 H 0.88578 0.12941 0.39536 0.0
H333 H 0.91453 0.06648 0.41396 0.0
H334 H 0.9066 0.10868 0.37951 0.0
H335 H 0.89372 0.08809 0.42929 0.0
H336 H 0.93938 0.01983 0.43017 0.0
H337 H 0.99703 0.03498 0.41461 0.0
H338 H 0.84524 0.04078 0.35189 0.0
H339 H 0.84856 0.04357 0.39803 0.0
H340 H 0.97356 0.09536 0.35354 0.0
H341 H 0.98225 0.03372 0.36641 0.0
H342 H 0.0032 0.09296 0.33843 0.0
H343 H 0.01167 0.03235 0.35098 0.0
H344 H 0.92636 0.08292 0.32708 0.0
H345 H 0.88779 0.09203 0.36282 0.0
H346 H 0.90716 0.1079 0.3133 0.0
H347 H 0.86941 0.117 0.34849 0.0
H348 H 0.95186 0.9935 0.32423 0.0
H349 H 0.96796 0.05249 0.30849 0.0
H350 H 0.96607 0.14199 0.39254 0.0
H351 H 0.94659 0.15338 0.3493 0.0
Li352 Li 0.93758 0.91523 0.87219 0.0
Li353 Li 0.94074 0.94716 0.88474 0.0
Li354 Li 0.91148 0.93917 0.87112 0.0
Li355 Li 0.94214 0.94684 0.85919 0.0
C356 C 0.92037 0.90916 0.8969 0.0
N357 N 0.91947 0.87512 0.9139 0.0
C358 C 0.93261 0.9077 0.90882 0.0
C359 C 0.90759 0.89339 0.89368 0.0
C360 C 0.93194 0.89035 0.91727 0.0
C361 C 0.90739 0.87628 0.90238 0.0
C362 C 0.9775 0.93484 0.86554 0.0
C363 C 0.00459 0.95431 0.85655 0.0
N364 N 0.01145 0.93767 0.84971 0.0
C365 C 0.98485 0.91791 0.85846 0.0
C366 C 0.98747 0.95318 0.86464 0.0
C367 C 0.00203 0.91965 0.85051 0.0
C368 C 0.93796 0.87432 0.86313 0.0
N369 N 0.94488 0.88768 0.87289 0.0
C370 C 0.96499 0.86237 0.88349 0.0
C371 C 0.95814 0.88214 0.88296 0.0
C372 C 0.95839 0.84823 0.8734 0.0
C373 C 0.94453 0.85439 0.8632 0.0
H374 H 0.9277 0.87925 0.85508 0.0
H375 H 0.96362 0.89321 0.89043 0.0
C376 C 0.93649 0.9641 0.91195 0.0
N377 N 0.94982 0.95931 0.90174 0.0
C378 C 0.94255 0.97234 0.92492 0.0
C379 C 0.97596 0.97045 0.91662 0.0
C380 C 0.96923 0.96233 0.90378 0.0
C381 C 0.96255 0.97543 0.92742 0.0
H382 H 0.92117 0.96118 0.91007 0.0
H383 H 0.9795 0.95814 0.89554 0.0
C384 C 0.9083 0.92184 0.84609 0.0
N385 N 0.87597 0.91757 0.82869 0.0
C386 C 0.90603 0.93418 0.83409 0.0
C387 C 0.89421 0.90725 0.84919 0.0
C388 C 0.88956 0.93179 0.82543 0.0
C389 C 0.87794 0.90536 0.84028 0.0
C390 C 0.92545 0.98217 0.87879 0.0
C391 C 0.90839 0.98718 0.88618 0.0
C392 C 0.94175 0.99478 0.87972 0.0
C393 C 0.90796 0.00471 0.89444 0.0
C394 C 0.94075 0.01215 0.88812 0.0
N395 N 0.92401 0.01672 0.89525 0.0
C396 C 0.87193 0.93626 0.88012 0.0
C397 C 0.87826 0.95762 0.86032 0.0
C398 C 0.85248 0.94256 0.88049 0.0
N399 N 0.88435 0.94405 0.87023 0.0
C400 C 0.85898 0.96424 0.86026 0.0
C401 C 0.84591 0.95708 0.87066 0.0
H402 H 0.87732 0.92585 0.88807 0.0
H403 H 0.88862 0.96388 0.85281 0.0
C404 C 0.96068 0.94619 0.83253 0.0
N405 N 0.95298 0.95866 0.84257 0.0
C406 C 0.96813 0.95406 0.81985 0.0
C407 C 0.95921 0.98744 0.82794 0.0
C408 C 0.95207 0.97892 0.84054 0.0
C409 C 0.96735 0.97493 0.8174 0.0
H410 H 0.96073 0.93009 0.83431 0.0
H411 H 0.94551 0.98842 0.84859 0.0
O412 O 0.92102 0.92587 0.88836 0.0
O413 O 0.96052 0.93354 0.87319 0.0
O414 O 0.92417 0.92413 0.85481 0.0
O415 O 0.92631 0.96486 0.87086 0.0
H416 H 0.94267 0.91971 0.91143 0.0
H417 H 0.89805 0.89427 0.88449 0.0
H418 H 0.94139 0.88896 0.92648 0.0
H419 H 0.89765 0.8639 0.89997 0.0
H420 H 0.01238 0.96844 0.85568 0.0
H421 H 0.97728 0.90363 0.85896 0.0
H422 H 0.98191 0.96647 0.86995 0.0
H423 H 0.00784 0.9067 0.84492 0.0
H424 H 0.97547 0.85828 0.89166 0.0
H425 H 0.93927 0.84412 0.85507 0.0
H426 H 0.93177 0.97568 0.93305 0.0
H427 H 0.99149 0.97273 0.91811 0.0
H428 H 0.91675 0.94559 0.83155 0.0
H429 H 0.89573 0.89762 0.85845 0.0
H430 H 0.88756 0.94129 0.81615 0.0
H431 H 0.86686 0.89421 0.8426 0.0
H432 H 0.89567 0.97755 0.88569 0.0
H433 H 0.95512 0.99104 0.87416 0.0
H434 H 0.89488 0.00873 0.90027 0.0
H435 H 0.9533 0.02197 0.88901 0.0
H436 H 0.84296 0.93684 0.8888 0.0
H437 H 0.85448 0.97524 0.85236 0.0
H438 H 0.97392 0.94385 0.81187 0.0
H439 H 0.95836 0.0036 0.82643 0.0
Li440 Li 0.56083 0.0817 0.87287 0.0
Li441 Li 0.55763 0.04994 0.88579 0.0
Li442 Li 0.58808 0.05863 0.87218 0.0
Li443 Li 0.55849 0.04882 0.85947 0.0
C444 C 0.57938 0.08826 0.8979 0.0
N445 N 0.5842 0.12166 0.9152 0.0
C446 C 0.56887 0.08997 0.91065 0.0
C447 C 0.59258 0.10337 0.89407 0.0
C448 C 0.57145 0.10701 0.91922 0.0
C449 C 0.59474 0.12019 0.90292 0.0
C450 C 0.5198 0.05696 0.87423 0.0
C451 C 0.49352 0.03284 0.87272 0.0
N452 N 0.4811 0.04668 0.87841 0.0
C453 C 0.50669 0.07104 0.87985 0.0
C454 C 0.5131 0.03779 0.87046 0.0
C455 C 0.48723 0.06551 0.88197 0.0
C456 C 0.55647 0.12141 0.86204 0.0
N457 N 0.55261 0.10902 0.87325 0.0
C458 C 0.535 0.13512 0.88519 0.0
C459 C 0.5421 0.11545 0.88469 0.0
C460 C 0.53853 0.14827 0.87371 0.0
C461 C 0.54955 0.14122 0.86205 0.0
H462 H 0.56459 0.1158 0.85296 0.0
H463 H 0.53898 0.10518 0.89335 0.0
C464 C 0.55739 0.02223 0.90856 0.0
N465 N 0.54779 0.03812 0.90268 0.0
C466 C 0.55115 0.01413 0.92155 0.0
C467 C 0.5254 0.03905 0.9222 0.0
C468 C 0.53211 0.04661 0.90922 0.0
C469 C 0.53502 0.02267 0.92859 0.0
H470 H 0.5701 0.01607 0.90329 0.0
H471 H 0.52527 0.05975 0.90463 0.0
C472 C 0.59049 0.07776 0.84681 0.0
N473 N 0.62111 0.08788 0.82896 0.0
C474 C 0.59373 0.06686 0.83425 0.0
C475 C 0.60262 0.09401 0.85018 0.0
C476 C 0.60934 0.07216 0.82539 0.0
C477 C 0.61808 0.09884 0.84105 0.0
C478 C 0.57278 0.01217 0.87133 0.0
C479 C 0.58875 0.00157 0.86584 0.0
C480 C 0.55588 0.00168 0.87518 0.0
C481 C 0.58736 0.98073 0.86396 0.0
C482 C 0.55506 0.98084 0.87316 0.0
N483 N 0.57067 0.97088 0.86761 0.0
C484 C 0.62623 0.06052 0.88368 0.0
C485 C 0.62368 0.04563 0.86071 0.0
C486 C 0.64605 0.05567 0.88434 0.0
N487 N 0.6155 0.05526 0.87204 0.0
C488 C 0.64343 0.04061 0.86087 0.0
C489 C 0.65479 0.04531 0.87291 0.0
H490 H 0.61925 0.06783 0.89265 0.0
H491 H 0.61468 0.04105 0.85181 0.0
C492 C 0.53201 0.04334 0.83704 0.0
N493 N 0.54879 0.03605 0.8428 0.0
C494 C 0.52482 0.0354 0.82429 0.0
C495 C 0.55235 0.01261 0.82358 0.0
C496 C 0.55898 0.02098 0.83638 0.0
C497 C 0.53513 0.01996 0.81731 0.0
H498 H 0.52446 0.05567 0.8422 0.0
H499 H 0.57261 0.01591 0.8409 0.0
O500 O 0.57689 0.07177 0.8893 0.0
O501 O 0.53892 0.06219 0.87205 0.0
O502 O 0.57536 0.0727 0.85566 0.0
O503 O 0.57394 0.0326 0.87326 0.0
H504 H 0.55874 0.07833 0.91387 0.0
H505 H 0.60109 0.10212 0.88439 0.0
H506 H 0.56331 0.10858 0.92907 0.0
H507 H 0.60483 0.13206 0.90004 0.0
H508 H 0.48817 0.01803 0.86988 0.0
H509 H 0.51151 0.08605 0.88263 0.0
H510 H 0.5228 0.02693 0.86563 0.0
H511 H 0.47698 0.07622 0.88642 0.0
H512 H 0.5268 0.13994 0.89448 0.0
H513 H 0.55237 0.15071 0.85286 0.0
H514 H 0.55894 0.00145 0.92608 0.0
H515 H 0.51324 0.04643 0.92743 0.0
H516 H 0.58438 0.05437 0.8314 0.0
H517 H 0.60011 0.10284 0.8597 0.0
H518 H 0.6121 0.06376 0.81569 0.0
H519 H 0.62765 0.11131 0.84357 0.0
H520 H 0.60205 0.00933 0.86297 0.0
H521 H 0.54364 0.00946 0.87991 0.0
H522 H 0.59956 0.97238 0.85961 0.0
H523 H 0.54205 0.97257 0.87608 0.0
H524 H 0.65435 0.05961 0.8938 0.0
H525 H 0.64948 0.03227 0.85197 0.0
H526 H 0.51175 0.04187 0.81966 0.0
H527 H 0.56077 0.00077 0.81853 0.0
Li528 Li 0.40891 0.05966 0.62187 0.0
Li529 Li 0.43958 0.05261 0.63394 0.0
Li530 Li 0.43467 0.08387 0.62068 0.0
Li531 Li 0.43827 0.05175 0.60839 0.0
C532 C 0.40528 0.07686 0.64677 0.0
N533 N 0.37261 0.07984 0.66396 0.0
C534 C 0.40323 0.0643 0.65866 0.0
C535 C 0.39077 0.09101 0.64365 0.0
C536 C 0.3866 0.06603 0.66723 0.0
C537 C 0.37434 0.09225 0.65246 0.0
C538 C 0.42337 0.0165 0.61482 0.0
C539 C 0.43919 0.98663 0.60577 0.0
N540 N 0.42233 0.98127 0.5991 0.0
C541 C 0.40619 0.01067 0.6079 0.0
C542 C 0.44 0.00436 0.6138 0.0
C543 C 0.40596 0.9928 0.6 0.0
C544 C 0.36935 0.06396 0.6133 0.0
N545 N 0.38171 0.05497 0.6227 0.0
C546 C 0.35569 0.0356 0.63263 0.0
C547 C 0.37531 0.04113 0.63231 0.0
C548 C 0.34258 0.0443 0.62286 0.0
C549 C 0.34958 0.05885 0.61322 0.0
H550 H 0.37493 0.07469 0.60564 0.0
H551 H 0.3856 0.03394 0.63945 0.0
C552 C 0.45792 0.05506 0.66035 0.0
N553 N 0.45117 0.04166 0.65056 0.0
C554 C 0.46704 0.0483 0.67274 0.0
C555 C 0.46152 0.01397 0.66502 0.0
C556 C 0.45263 0.02144 0.65266 0.0
C557 C 0.46899 0.02751 0.67517 0.0
H558 H 0.45618 0.07105 0.65849 0.0
H559 H 0.44688 0.01113 0.64477 0.0
C560 C 0.41839 0.08951 0.59592 0.0
N561 N 0.41902 0.12363 0.57901 0.0
C562 C 0.43122 0.09075 0.58434 0.0
C563 C 0.40581 0.10557 0.59886 0.0
C564 C 0.43132 0.10814 0.57591 0.0
C565 C 0.40639 0.12272 0.5902 0.0
C566 C 0.47488 0.06459 0.62731 0.0
C567 C 0.48194 0.08132 0.63478 0.0
C568 C 0.48523 0.04644 0.62774 0.0
C569 C 0.49923 0.07958 0.64261 0.0
C570 C 0.50243 0.04529 0.63572 0.0
N571 N 0.50901 0.06174 0.64293 0.0
C572 C 0.43327 0.12551 0.62815 0.0
C573 C 0.45666 0.11624 0.61064 0.0
C574 C 0.4397 0.14548 0.62776 0.0
N575 N 0.44187 0.11141 0.6197 0.0
C576 C 0.46359 0.13596 0.60995 0.0
C577 C 0.45522 0.15083 0.6187 0.0
H578 H 0.42172 0.12117 0.63538 0.0
H579 H 0.46329 0.10463 0.60413 0.0
C580 C 0.43471 0.03294 0.58167 0.0
N581 N 0.44779 0.03965 0.5915 0.0
C582 C 0.44118 0.02498 0.56871 0.0
C583 C 0.47444 0.03138 0.57617 0.0
C584 C 0.46732 0.03902 0.58904 0.0
C585 C 0.46127 0.02435 0.5658 0.0
H586 H 0.41923 0.03416 0.58379 0.0
H587 H 0.47735 0.04487 0.59693 0.0
O588 O 0.42129 0.07516 0.63811 0.0
O589 O 0.42398 0.03408 0.62246 0.0
O590 O 0.41838 0.07282 0.6045 0.0
O591 O 0.45775 0.06585 0.61984 0.0
H592 H 0.41426 0.05319 0.66119 0.0
H593 H 0.39203 0.10071 0.63441 0.0
H594 H 0.38478 0.05636 0.67643 0.0
H595 H 0.36293 0.10302 0.65012 0.0
H596 H 0.45198 0.97716 0.60482 0.0
H597 H 0.39322 0.01992 0.60847 0.0
H598 H 0.45345 0.00871 0.619 0.0
H599 H 0.39279 0.98815 0.59454 0.0
H600 H 0.35102 0.02406 0.64006 0.0
H601 H 0.33993 0.06601 0.60558 0.0
H602 H 0.47222 0.05922 0.68046 0.0
H603 H 0.4627 0.99784 0.66656 0.0
H604 H 0.44114 0.07853 0.58195 0.0
H605 H 0.39591 0.10494 0.60786 0.0
H606 H 0.44123 0.10935 0.56695 0.0
H607 H 0.39683 0.13532 0.59242 0.0
H608 H 0.47405 0.09543 0.63471 0.0
H609 H 0.4799 0.0333 0.62212 0.0
H610 H 0.50481 0.09237 0.6485 0.0
H611 H 0.5105 0.0313 0.63622 0.0
H612 H 0.43301 0.15646 0.63479 0.0
H613 H 0.47545 0.13951 0.60272 0.0
H614 H 0.43058 0.02001 0.56088 0.0
H615 H 0.49004 0.0311 0.5743 0.0
Li616 Li 0.054 0.95006 0.635 0.0
Li617 Li 0.08427 0.94162 0.6229 0.0
Li618 Li 0.05301 0.94713 0.60941 0.0
Li619 Li 0.0578 0.91626 0.62325 0.0
C620 C 0.06757 0.98563 0.62624 0.0
N621 N 0.0655 0.02392 0.63777 0.0
C622 C 0.0838 0.99401 0.63307 0.0
C623 C 0.05039 0.99687 0.62507 0.0
C624 C 0.08244 0.01335 0.63888 0.0
C625 C 0.0496 0.01616 0.63103 0.0
C626 C 0.08556 0.91739 0.6479 0.0
C627 C 0.10671 0.88875 0.65146 0.0
N628 N 0.11177 0.89605 0.66453 0.0
C629 C 0.09074 0.92444 0.66147 0.0
C630 C 0.09342 0.89926 0.64293 0.0
C631 C 0.10411 0.91352 0.66967 0.0
C632 C 0.02505 0.96417 0.65434 0.0
N633 N 0.04445 0.96373 0.65133 0.0
C634 C 0.05185 0.98138 0.67289 0.0
C635 C 0.0578 0.97221 0.66022 0.0
C636 C 0.03196 0.9816 0.67653 0.0
C637 C 0.01843 0.97313 0.66695 0.0
H638 H 0.01478 0.95706 0.64716 0.0
H639 H 0.07315 0.97149 0.65759 0.0
C640 C 0.12077 0.94812 0.60994 0.0
N641 N 0.11146 0.94672 0.62274 0.0
C642 C 0.14022 0.95431 0.60935 0.0
C643 C 0.1401 0.9575 0.6351 0.0
C644 C 0.12071 0.95112 0.6352 0.0
C645 C 0.14999 0.95945 0.62203 0.0
H646 H 0.11287 0.94508 0.60016 0.0
H647 H 0.11278 0.95061 0.64516 0.0
C648 C 0.01687 0.93547 0.6171 0.0
N649 N 0.98083 0.93718 0.60385 0.0
C650 C 0.0084 0.91798 0.61154 0.0
C651 C 0.00685 0.95377 0.61612 0.0
C652 C 0.99021 0.91916 0.60483 0.0
C653 C 0.9887 0.95434 0.60932 0.0
C654 C 0.08248 0.91209 0.59832 0.0
C655 C 0.0754 0.9077 0.58464 0.0
C656 C 0.09941 0.90255 0.60319 0.0
C657 C 0.08509 0.89346 0.57624 0.0
C658 C 0.1087 0.88842 0.59446 0.0
N659 N 0.10139 0.88417 0.58128 0.0
C660 C 0.04666 0.97601 0.58774 0.0
C661 C 0.03239 0.944 0.58358 0.0
C662 C 0.04049 0.98278 0.57435 0.0
N663 N 0.04261 0.9569 0.59201 0.0
C664 C 0.0259 0.95012 0.57015 0.0
C665 C 0.03018 0.96966 0.5653 0.0
H666 H 0.05517 0.98582 0.59455 0.0
H667 H 0.02972 0.92875 0.58713 0.0
C668 C 0.0476 0.87995 0.63709 0.0
N669 N 0.05111 0.88847 0.62412 0.0
C670 C 0.04117 0.86001 0.63799 0.0
C671 C 0.04217 0.85802 0.6122 0.0
C672 C 0.04857 0.87796 0.6118 0.0
C673 C 0.03815 0.84885 0.62541 0.0
H674 H 0.0494 0.88881 0.64671 0.0
H675 H 0.05085 0.88522 0.60163 0.0
O676 O 0.06852 0.96658 0.62066 0.0
O677 O 0.07244 0.92792 0.63976 0.0
O678 O 0.03474 0.93462 0.62362 0.0
O679 O 0.0732 0.92612 0.60664 0.0
H680 H 0.09727 0.98563 0.63397 0.0
H681 H 0.03781 0.99078 0.61962 0.0
H682 H 0.09486 0.01995 0.64429 0.0
H683 H 0.03635 0.02497 0.63027 0.0
H684 H 0.11294 0.87472 0.64771 0.0
H685 H 0.0846 0.93828 0.6656 0.0
H686 H 0.08913 0.89319 0.6327 0.0
H687 H 0.10836 0.9189 0.68013 0.0
H688 H 0.06275 0.9879 0.67989 0.0
H689 H 0.00299 0.97268 0.66944 0.0
H690 H 0.14725 0.95592 0.59904 0.0
H691 H 0.14714 0.96128 0.64511 0.0
H692 H 0.0158 0.90365 0.61233 0.0
H693 H 0.01302 0.96738 0.62055 0.0
H694 H 0.98355 0.90576 0.60041 0.0
H695 H 0.98085 0.96843 0.60842 0.0
H696 H 0.0625 0.9151 0.58058 0.0
H697 H 0.10555 0.90623 0.6135 0.0
H698 H 0.07966 0.88982 0.56569 0.0
H699 H 0.1218 0.88091 0.59813 0.0
H700 H 0.04433 0.99787 0.57095 0.0
H701 H 0.01782 0.93959 0.56358 0.0
H702 H 0.03797 0.85365 0.64839 0.0
H703 H 0.04019 0.84995 0.60224 0.0
Li704 Li 0.55716 0.58266 0.12381 0.0
Li705 Li 0.55301 0.55016 0.13541 0.0
Li706 Li 0.5833 0.55714 0.12172 0.0
Li707 Li 0.55214 0.55079 0.10986 0.0
C708 C 0.58504 0.58495 0.14599 0.0
N709 N 0.60845 0.61327 0.15927 0.0
C710 C 0.58226 0.58956 0.16043 0.0
C711 C 0.59993 0.59455 0.13838 0.0
C712 C 0.59419 0.60398 0.16693 0.0
C713 C 0.61156 0.60886 0.14525 0.0
C714 C 0.51744 0.56322 0.13111 0.0
C715 C 0.48928 0.54451 0.13906 0.0
N716 N 0.48453 0.55989 0.14802 0.0
C717 C 0.51221 0.57891 0.14032 0.0
C718 C 0.50582 0.54594 0.13038 0.0
C719 C 0.49554 0.57692 0.14881 0.0
C720 C 0.54266 0.6172 0.11133 0.0
N721 N 0.55037 0.61033 0.12378 0.0
C722 C 0.54513 0.64224 0.13494 0.0
C723 C 0.55177 0.62236 0.1355 0.0
C724 C 0.53688 0.64971 0.12224 0.0
C725 C 0.53585 0.63694 0.11029 0.0
H726 H 0.54147 0.60715 0.10226 0.0
H727 H 0.55756 0.61644 0.14537 0.0
C728 C 0.54062 0.51755 0.1531 0.0
N729 N 0.54294 0.53786 0.15215 0.0
C730 C 0.53365 0.50889 0.16572 0.0
C731 C 0.53167 0.54224 0.17607 0.0
C732 C 0.53852 0.55022 0.16325 0.0
C733 C 0.52931 0.52131 0.17745 0.0
H734 H 0.54442 0.50804 0.14416 0.0
H735 H 0.54035 0.56632 0.16212 0.0
C736 C 0.58193 0.5836 0.09685 0.0
N737 N 0.60387 0.60521 0.07731 0.0
C738 C 0.58572 0.57566 0.08328 0.0
C739 C 0.58899 0.60276 0.10034 0.0
C740 C 0.59694 0.58674 0.0736 0.0
C741 C 0.60013 0.61339 0.09036 0.0
C742 C 0.56632 0.51411 0.11528 0.0
C743 C 0.58313 0.50559 0.10936 0.0
C744 C 0.54845 0.50411 0.11395 0.0
C745 C 0.58173 0.48731 0.10201 0.0
C746 C 0.54765 0.48587 0.10652 0.0
N747 N 0.56416 0.47792 0.10074 0.0
C748 C 0.62056 0.54913 0.13291 0.0
C749 C 0.61895 0.54909 0.10759 0.0
C750 C 0.64012 0.54328 0.1325 0.0
N751 N 0.61044 0.55187 0.12057 0.0
C752 C 0.63844 0.54315 0.10668 0.0
C753 C 0.6492 0.53994 0.11925 0.0
H754 H 0.61327 0.55096 0.14309 0.0
H755 H 0.61042 0.5507 0.09797 0.0
C756 C 0.52174 0.54501 0.09015 0.0
N757 N 0.54077 0.5407 0.0929 0.0
C758 C 0.51338 0.53938 0.07715 0.0
C759 C 0.54427 0.52463 0.07022 0.0
C760 C 0.55204 0.53063 0.08331 0.0
C761 C 0.52477 0.52925 0.06693 0.0
H762 H 0.5132 0.55324 0.09792 0.0
H763 H 0.56722 0.52773 0.08567 0.0
O764 O 0.5734 0.5709 0.13947 0.0
O765 O 0.53395 0.56471 0.12295 0.0
O766 O 0.57067 0.57304 0.10638 0.0
O767 O 0.56739 0.53209 0.12241 0.0
H768 H 0.57098 0.58214 0.16657 0.0
H769 H 0.60268 0.59078 0.12734 0.0
H770 H 0.59211 0.60777 0.17808 0.0
H771 H 0.62311 0.6164 0.13946 0.0
H772 H 0.48022 0.53117 0.13867 0.0
H773 H 0.52105 0.59237 0.14103 0.0
H774 H 0.50958 0.53373 0.12324 0.0
H775 H 0.49139 0.58888 0.15606 0.0
H776 H 0.54631 0.65161 0.14439 0.0
H777 H 0.5293 0.64193 0.10036 0.0
H778 H 0.53213 0.49268 0.16643 0.0
H779 H 0.52819 0.55234 0.1848 0.0
H780 H 0.58022 0.56101 0.08028 0.0
H781 H 0.58578 0.60952 0.11057 0.0
H782 H 0.6001 0.58066 0.06312 0.0
H783 H 0.60572 0.62819 0.09296 0.0
H784 H 0.59712 0.51298 0.11041 0.0
H785 H 0.5353 0.51048 0.11847 0.0
H786 H 0.59462 0.48058 0.09733 0.0
H787 H 0.53388 0.47805 0.10532 0.0
H788 H 0.6478 0.54064 0.14244 0.0
H789 H 0.64492 0.54079 0.09625 0.0
H790 H 0.49825 0.54308 0.07505 0.0
H791 H 0.55362 0.51712 0.06256 0.0
Li792 Li 0.93554 0.41554 0.1224 0.0
Li793 Li 0.93969 0.44633 0.13594 0.0
Li794 Li 0.90881 0.44022 0.12198 0.0
Li795 Li 0.94001 0.44789 0.11048 0.0
C796 C 0.91512 0.40961 0.14772 0.0
N797 N 0.90664 0.37802 0.16595 0.0
C798 C 0.93014 0.39954 0.15487 0.0
C799 C 0.89577 0.40358 0.14982 0.0
C800 C 0.92556 0.38362 0.16404 0.0
C801 C 0.89179 0.38758 0.15908 0.0
C802 C 0.97564 0.43466 0.13048 0.0
C803 C 0.00289 0.45395 0.13942 0.0
N804 N 0.00953 0.43734 0.14642 0.0
C805 C 0.98279 0.41776 0.13772 0.0
C806 C 0.98583 0.45288 0.13128 0.0
C807 C -7e-05 0.41943 0.14573 0.0
C808 C 0.95921 0.38436 0.1135 0.0
N809 N 0.9422 0.38773 0.12058 0.0
C810 C 0.93827 0.35244 0.12483 0.0
C811 C 0.93135 0.37221 0.12579 0.0
C812 C 0.95632 0.34862 0.1182 0.0
C813 C 0.96659 0.36488 0.1122 0.0
H814 H 0.96726 0.39693 0.10911 0.0
H815 H 0.9175 0.37511 0.1309 0.0
C816 C 0.94518 0.4781 0.15568 0.0
N817 N 0.94893 0.45826 0.15322 0.0
C818 C 0.9508 0.48705 0.16857 0.0
C819 C 0.96411 0.45503 0.17606 0.0
C820 C 0.95826 0.44674 0.16308 0.0
C821 C 0.96017 0.47537 0.17902 0.0
H822 H 0.93748 0.48689 0.14777 0.0
H823 H 0.96109 0.43107 0.16097 0.0
C824 C 0.90993 0.41191 0.09922 0.0
N825 N 0.88744 0.38263 0.08623 0.0
C826 C 0.91162 0.40847 0.08454 0.0
C827 C 0.89683 0.4005 0.1073 0.0
C828 C 0.9001 0.3936 0.07816 0.0
C829 C 0.88559 0.38574 0.10054 0.0
C830 C 0.92548 0.48323 0.11663 0.0
C831 C 0.90932 0.49 0.10887 0.0
C832 C 0.9425 0.49485 0.11696 0.0
C833 C 0.91056 0.5082 0.10141 0.0
C834 C 0.94316 0.51294 0.10934 0.0
N835 N 0.92732 0.51917 0.10178 0.0
C836 C 0.87291 0.45047 0.13394 0.0
C837 C 0.87195 0.44558 0.10884 0.0
C838 C 0.85343 0.45655 0.13401 0.0
N839 N 0.88172 0.44526 0.12148 0.0
C840 C 0.85244 0.4516 0.10839 0.0
C841 C 0.84302 0.45748 0.12107 0.0
H842 H 0.8812 0.45036 0.14379 0.0
H843 H 0.87951 0.44189 0.09903 0.0
C844 C 0.97002 0.46095 0.09179 0.0
N845 N 0.95042 0.45981 0.09383 0.0
C846 C 0.97744 0.46807 0.07884 0.0
C847 C 0.94433 0.473 0.07054 0.0
C848 C 0.93758 0.46564 0.08358 0.0
C849 C 0.96452 0.47398 0.06794 0.0
H850 H 0.97987 0.45575 0.10002 0.0
H851 H 0.92206 0.46418 0.08545 0.0
O852 O 0.91924 0.4253 0.13871 0.0
O853 O 0.95881 0.43338 0.12264 0.0
O854 O 0.92108 0.42647 0.10558 0.0
O855 O 0.92468 0.46528 0.1238 0.0
H856 H 0.9452 0.40355 0.15305 0.0
H857 H 0.88395 0.4111 0.14433 0.0
H858 H 0.93707 0.37561 0.16957 0.0
H859 H 0.87688 0.38276 0.1608 0.0
H860 H 0.01085 0.46799 0.14019 0.0
H861 H 0.97509 0.40355 0.13733 0.0
H862 H 0.98056 0.46609 0.12573 0.0
H863 H 0.00555 0.4065 0.15144 0.0
H864 H 0.92981 0.34039 0.12958 0.0
H865 H 0.98028 0.36262 0.10664 0.0
H866 H 0.94736 0.50275 0.17049 0.0
H867 H 0.9716 0.44556 0.18374 0.0
H868 H 0.92169 0.41724 0.07814 0.0
H869 H 0.89532 0.40303 0.11865 0.0
H870 H 0.90122 0.39078 0.0668 0.0
H871 H 0.87539 0.37678 0.10666 0.0
H872 H 0.89602 0.48126 0.10853 0.0
H873 H 0.95508 0.48989 0.12298 0.0
H874 H 0.8982 0.51357 0.0953 0.0
H875 H 0.95628 0.52201 0.10944 0.0
H876 H 0.84667 0.46075 0.14404 0.0
H877 H 0.84508 0.45243 0.09817 0.0
H878 H 0.99309 0.46822 0.07722 0.0
H879 H 0.93384 0.47763 0.06253 0.0
Li880 Li 0.05481 0.44878 0.38297 0.0
Li881 Li 0.08649 0.44223 0.37201 0.0
Li882 Li 0.05662 0.4484 0.35738 0.0
Li883 Li 0.06072 0.41637 0.3699 0.0
C884 C 0.06853 0.48544 0.37687 0.0
N885 N 0.06472 0.52244 0.39015 0.0
C886 C 0.08466 0.49447 0.38341 0.0
C887 C 0.05053 0.49537 0.37691 0.0
C888 C 0.08242 0.51315 0.39011 0.0
C889 C 0.04888 0.51402 0.38374 0.0
C890 C 0.08554 0.41721 0.39688 0.0
C891 C 0.10591 0.38888 0.40317 0.0
N892 N 0.10947 0.39743 0.41612 0.0
C893 C 0.08916 0.42554 0.41035 0.0
C894 C 0.09377 0.39858 0.39334 0.0
C895 C 0.1014 0.41539 0.41989 0.0
C896 C 0.02339 0.4559 0.4017 0.0
N897 N 0.04262 0.45972 0.39935 0.0
C898 C 0.04527 0.47703 0.42162 0.0
C899 C 0.05359 0.4701 0.40895 0.0
C900 C 0.02554 0.47297 0.4245 0.0
C901 C 0.01449 0.46242 0.4143 0.0
H902 H 0.0151 0.44738 0.39394 0.0
H903 H 0.06893 0.47258 0.40693 0.0
C904 C 0.12407 0.44907 0.36111 0.0
N905 N 0.11357 0.44777 0.3734 0.0
C906 C 0.14355 0.45518 0.36147 0.0
C907 C 0.14101 0.45866 0.38714 0.0
C908 C 0.12162 0.45232 0.38629 0.0
C909 C 0.15215 0.46035 0.3746 0.0
H910 H 0.11714 0.44596 0.35096 0.0
H911 H 0.11278 0.45189 0.39583 0.0
C912 C 0.02066 0.43482 0.36168 0.0
N913 N 0.98737 0.43645 0.34503 0.0
C914 C 0.0151 0.41816 0.3535 0.0
C915 C 0.00915 0.45221 0.36155 0.0
C916 C -0.00175 0.4193 0.34512 0.0
C917 C 0.99242 0.45277 0.35302 0.0
C918 C 0.08809 0.41354 0.34736 0.0
C919 C 0.08385 0.40893 0.33311 0.0
C920 C 0.10352 0.40373 0.35422 0.0
C921 C 0.09486 0.39424 0.32606 0.0
C922 C 0.11421 0.38915 0.34681 0.0
N923 N 0.10967 0.38472 0.33301 0.0
C924 C 0.04806 0.48048 0.33833 0.0
C925 C 0.04057 0.44773 0.32981 0.0
C926 C 0.04172 0.48905 0.32551 0.0
N927 N 0.04734 0.46017 0.34022 0.0
C928 C 0.03408 0.45562 0.31686 0.0
C929 C 0.03474 0.47654 0.31454 0.0
H930 H 0.05382 0.49001 0.34669 0.0
H931 H 0.0403 0.43164 0.33157 0.0
C932 C 0.04805 0.38124 0.383 0.0
N933 N 0.05449 0.38849 0.37026 0.0
C934 C 0.04173 0.36133 0.38417 0.0
C935 C 0.0489 0.35664 0.35908 0.0
C936 C 0.05506 0.37667 0.35839 0.0
C937 C 0.04193 0.3488 0.37207 0.0
H938 H 0.04755 0.39108 0.39221 0.0
H939 H 0.05965 0.38292 0.34829 0.0
O940 O 0.07039 0.46705 0.37038 0.0
O941 O 0.07338 0.42687 0.38748 0.0
O942 O 0.03727 0.43409 0.36979 0.0
O943 O 0.07738 0.42784 0.35441 0.0
H944 H 0.09875 0.48715 0.38334 0.0
H945 H 0.03795 0.48868 0.37182 0.0
H946 H 0.09476 0.52026 0.39527 0.0
H947 H 0.035 0.52179 0.38394 0.0
H948 H 0.11241 0.3745 0.40053 0.0
H949 H 0.08272 0.43977 0.41339 0.0
H950 H 0.09067 0.39152 0.38319 0.0
H951 H 0.10444 0.42178 0.43029 0.0
H952 H 0.05437 0.48481 0.42932 0.0
H953 H -0.00079 0.45908 0.41612 0.0
H954 H 0.15154 0.45664 0.35154 0.0
H955 H 0.14712 0.46253 0.39746 0.0
H956 H 0.02378 0.40456 0.35349 0.0
H957 H 0.0131 0.46514 0.36796 0.0
H958 H 0.99385 0.40657 0.33865 0.0
H959 H 0.98345 0.46618 0.35275 0.0
H960 H 0.07213 0.41652 0.32756 0.0
H961 H 0.10742 0.40752 0.36507 0.0
H962 H 0.09165 0.39043 0.31507 0.0
H963 H 0.12616 0.38143 0.35201 0.0
H964 H 0.04267 0.50522 0.32409 0.0
H965 H 0.02855 0.44544 0.30877 0.0
H966 H 0.03663 0.35584 0.39441 0.0
H967 H 0.04896 0.3476 0.34944 0.0
Li968 Li 0.44347 0.5532 0.38278 0.0
Li969 Li 0.41196 0.55874 0.37102 0.0
Li970 Li 0.44081 0.54968 0.35792 0.0
Li971 Li 0.43831 0.58315 0.36867 0.0
C972 C 0.42859 0.51461 0.3666 0.0
N973 N 0.43186 0.47725 0.35371 0.0
C974 C 0.4121 0.5051 0.36094 0.0
C975 C 0.44667 0.50489 0.36594 0.0
C976 C 0.41406 0.48627 0.35441 0.0
C977 C 0.44806 0.48608 0.35931 0.0
C978 C 0.41525 0.57283 0.39926 0.0
C979 C 0.40109 0.58636 0.42084 0.0
N980 N 0.39721 0.56732 0.42542 0.0
C981 C 0.41109 0.55337 0.40419 0.0
C982 C 0.41022 0.58945 0.40767 0.0
C983 C 0.40199 0.55092 0.41743 0.0
C984 C 0.46233 0.55846 0.40898 0.0
N985 N 0.45552 0.54414 0.39987 0.0
C986 C 0.46414 0.51803 0.41624 0.0
C987 C 0.45625 0.52423 0.40321 0.0
C988 C 0.47128 0.53251 0.42586 0.0
C989 C 0.47045 0.55295 0.42206 0.0
H990 H 0.4611 0.57422 0.40616 0.0
H991 H 0.45034 0.5132 0.39591 0.0
C992 C 0.37703 0.54677 0.35883 0.0
N993 N 0.38426 0.55526 0.37094 0.0
C994 C 0.35739 0.54138 0.35796 0.0
C995 C 0.35261 0.55486 0.3817 0.0
C996 C 0.37234 0.56008 0.38206 0.0
C997 C 0.34501 0.54487 0.36968 0.0
H998 H 0.38673 0.54362 0.34998 0.0
H999 H 0.37804 0.56757 0.39138 0.0
C1000 C 0.47846 0.5658 0.37548 0.0
N1001 N 0.51287 0.56748 0.39092 0.0
C1002 C 0.48485 0.58407 0.38129 0.0
C1003 C 0.48975 0.54845 0.37738 0.0
C1004 C 0.50224 0.5846 0.38908 0.0
C1005 C 0.50704 0.54959 0.38527 0.0
C1006 C 0.40884 0.58559 0.3487 0.0
C1007 C 0.40462 0.5874 0.33415 0.0
C1008 C 0.3997 0.5984 0.35851 0.0
C1009 C 0.39134 0.60205 0.32962 0.0
C1010 C 0.38651 0.61285 0.35357 0.0
N1011 N 0.38264 0.61437 0.33934 0.0
C1012 C 0.43585 0.53034 0.33147 0.0
C1013 C 0.46866 0.53219 0.33945 0.0
C1014 C 0.44171 0.52103 0.3188 0.0
N1015 N 0.44934 0.53586 0.34137 0.0
C1016 C 0.47517 0.52284 0.32698 0.0
C1017 C 0.46166 0.51745 0.31633 0.0
H1018 H 0.42057 0.53356 0.33332 0.0
H1019 H 0.47905 0.53681 0.3475 0.0
C1020 C 0.443 0.62345 0.37771 0.0
N1021 N 0.44456 0.6107 0.3664 0.0
C1022 C 0.44933 0.64337 0.3765 0.0
C1023 C 0.45828 0.63671 0.35194 0.0
C1024 C 0.45178 0.61692 0.35363 0.0
C1025 C 0.45737 0.65014 0.36354 0.0
H1026 H 0.43746 0.61794 0.38779 0.0
H1027 H 0.45287 0.60635 0.34485 0.0
O1028 O 0.42704 0.53326 0.37279 0.0
O1029 O 0.42461 0.5757 0.38648 0.0
O1030 O 0.46128 0.56492 0.36799 0.0
O1031 O 0.42178 0.57124 0.35323 0.0
H1032 H 0.3979 0.51208 0.36164 0.0
H1033 H 0.45956 0.51192 0.37033 0.0
H1034 H 0.40142 0.47881 0.34993 0.0
H1035 H 0.46202 0.47853 0.3586 0.0
H1036 H 0.39711 0.5991 0.42744 0.0
H1037 H 0.41474 0.54028 0.39788 0.0
H1038 H 0.4133 0.6046 0.40406 0.0
H1039 H 0.3987 0.53596 0.42136 0.0
H1040 H 0.46456 0.50212 0.41879 0.0
H1041 H 0.47545 0.5646 0.4293 0.0
H1042 H 0.35206 0.53421 0.34832 0.0
H1043 H 0.34363 0.55791 0.39097 0.0
H1044 H 0.47644 0.59768 0.37993 0.0
H1045 H 0.48517 0.53419 0.37296 0.0
H1046 H 0.50727 0.59862 0.3937 0.0
H1047 H 0.51581 0.53623 0.38691 0.0
H1048 H 0.41155 0.57756 0.32643 0.0
H1049 H 0.4027 0.59722 0.36983 0.0
H1050 H 0.38794 0.60362 0.31838 0.0
H1051 H 0.37934 0.62286 0.36103 0.0
H1052 H 0.43083 0.51739 0.31081 0.0
H1053 H 0.49065 0.52015 0.32561 0.0
H1054 H 0.44861 0.65311 0.38578 0.0
H1055 H 0.46415 0.64138 0.34171 0.0
Li1056 Li 0.43784 0.44724 0.8841 0.0
Li1057 Li 0.43615 0.4152 0.87284 0.0
Li1058 Li 0.44074 0.4473 0.85859 0.0
Li1059 Li 0.40926 0.4396 0.87133 0.0
C1060 C 0.47459 0.43117 0.88065 0.0
N1061 N 0.50717 0.42538 0.89755 0.0
C1062 C 0.47316 0.42008 0.89331 0.0
C1063 C 0.49255 0.43934 0.87659 0.0
C1064 C 0.48981 0.41732 0.90171 0.0
C1065 C 0.50886 0.43623 0.88527 0.0
C1066 C 0.40651 0.41046 0.89251 0.0
C1067 C 0.38303 0.38479 0.88636 0.0
N1068 N 0.38104 0.38016 0.90045 0.0
C1069 C 0.40419 0.40548 0.90693 0.0
C1070 C 0.39583 0.40006 0.88214 0.0
C1071 C 0.39126 0.39011 0.91073 0.0
C1072 C 0.43534 0.45851 0.91262 0.0
N1073 N 0.44678 0.46039 0.90085 0.0
C1074 C 0.47008 0.47985 0.91387 0.0
C1075 C 0.46376 0.47099 0.90116 0.0
C1076 C 0.45874 0.4778 0.9263 0.0
C1077 C 0.44107 0.46711 0.92553 0.0
H1078 H 0.42182 0.45017 0.91199 0.0
H1079 H 0.47242 0.47249 0.89155 0.0
C1080 C 0.45148 0.38013 0.86077 0.0
N1081 N 0.44388 0.38774 0.87305 0.0
C1082 C 0.45858 0.36042 0.86037 0.0
C1083 C 0.44978 0.35671 0.88527 0.0
C1084 C 0.44292 0.37652 0.88519 0.0
C1085 C 0.45788 0.34848 0.87277 0.0
H1086 H 0.45222 0.3895 0.85132 0.0
H1087 H 0.43727 0.38304 0.89492 0.0
C1088 C 0.4273 0.48334 0.87648 0.0
N1089 N 0.43441 0.51973 0.88983 0.0
C1090 C 0.41441 0.49054 0.88687 0.0
C1091 C 0.44375 0.49469 0.87281 0.0
C1092 C 0.41829 0.50896 0.89353 0.0
C1093 C 0.44709 0.51305 0.87969 0.0
C1094 C 0.41286 0.41849 0.84336 0.0
C1095 C 0.40877 0.43253 0.83264 0.0
C1096 C 0.40766 0.3983 0.8414 0.0
C1097 C 0.39932 0.42619 0.82019 0.0
C1098 C 0.39822 0.39255 0.8288 0.0
N1099 N 0.39428 0.4065 0.81855 0.0
C1100 C 0.46902 0.44969 0.83714 0.0
C1101 C 0.4443 0.47462 0.83565 0.0
C1102 C 0.47784 0.45704 0.82476 0.0
N1103 N 0.4525 0.45842 0.8422 0.0
C1104 C 0.45251 0.48235 0.82315 0.0
C1105 C 0.46942 0.47341 0.81745 0.0
H1106 H 0.47523 0.43688 0.84267 0.0
H1107 H 0.43114 0.48125 0.84 0.0
C1108 C 0.37417 0.44892 0.88415 0.0
N1109 N 0.38188 0.44392 0.87125 0.0
C1110 C 0.35473 0.45489 0.88524 0.0
C1111 C 0.35126 0.44979 0.85977 0.0
C1112 C 0.37083 0.44394 0.85918 0.0
C1113 C 0.34309 0.45576 0.87289 0.0
H1114 H 0.38338 0.44896 0.89355 0.0
H1115 H 0.37724 0.44002 0.84904 0.0
O1116 O 0.4584 0.43442 0.87243 0.0
O1117 O 0.41923 0.42545 0.88871 0.0
O1118 O 0.424 0.46514 0.87006 0.0
O1119 O 0.42242 0.42431 0.85553 0.0
H1120 H 0.45928 0.41399 0.89673 0.0
H1121 H 0.49383 0.4481 0.86686 0.0
H1122 H 0.48891 0.40884 0.91157 0.0
H1123 H 0.52286 0.44249 0.88228 0.0
H1124 H 0.37467 0.37663 0.87844 0.0
H1125 H 0.41239 0.41335 0.9151 0.0
H1126 H 0.39727 0.40378 0.87098 0.0
H1127 H 0.38937 0.38607 0.92185 0.0
H1128 H 0.48367 0.48819 0.91397 0.0
H1129 H 0.432 0.46495 0.93489 0.0
H1130 H 0.46457 0.3546 0.85049 0.0
H1131 H 0.44925 0.34813 0.89511 0.0
H1132 H 0.40165 0.48192 0.88985 0.0
H1133 H 0.45396 0.48924 0.86487 0.0
H1134 H 0.4085 0.51466 0.90165 0.0
H1135 H 0.45981 0.52194 0.87702 0.0
H1136 H 0.41255 0.44822 0.83401 0.0
H1137 H 0.4109 0.38716 0.84951 0.0
H1138 H 0.39595 0.43694 0.81185 0.0
H1139 H 0.39407 0.37699 0.82716 0.0
H1140 H 0.49105 0.44989 0.82092 0.0
H1141 H 0.44537 0.4948 0.81781 0.0
H1142 H 0.34914 0.45961 0.89554 0.0
H1143 H 0.34273 0.45 0.85003 0.0
Li1144 Li 0.05501 0.54999 0.88355 0.0
Li1145 Li 0.05984 0.5815 0.86926 0.0
Li1146 Li 0.05665 0.54706 0.85821 0.0
Li1147 Li 0.08507 0.55573 0.87098 0.0
C1148 C 0.01975 0.56261 0.87666 0.0
N1149 N 0.98539 0.56267 0.89217 0.0
C1150 C 0.01185 0.58076 0.88158 0.0
C1151 C 0.01007 0.5445 0.87955 0.0
C1152 C 0.99448 0.58047 0.88942 0.0
C1153 C 0.99276 0.54485 0.88744 0.0
C1154 C 0.08898 0.57523 0.89537 0.0
C1155 C 0.11698 0.59452 0.90291 0.0
N1156 N 0.12135 0.57998 0.91265 0.0
C1157 C 0.0937 0.56051 0.90548 0.0
C1158 C 0.10067 0.5924 0.89407 0.0
C1159 C 0.11014 0.56318 0.9141 0.0
C1160 C 0.04624 0.5213 0.90501 0.0
N1161 N 0.04447 0.54091 0.90106 0.0
C1162 C 0.02942 0.54923 0.92329 0.0
C1163 C 0.03643 0.55488 0.9099 0.0
C1164 C 0.0311 0.52909 0.92771 0.0
C1165 C 0.03958 0.515 0.91838 0.0
H1166 H 0.0532 0.51064 0.89791 0.0
H1167 H 0.03576 0.57049 0.9066 0.0
C1168 C 0.0437 0.61597 0.85636 0.0
N1169 N 0.05289 0.609 0.86824 0.0
C1170 C 0.03674 0.63574 0.85593 0.0
C1171 C 0.0492 0.6408 0.87986 0.0
C1172 C 0.05579 0.62091 0.87986 0.0
C1173 C 0.03933 0.64837 0.86785 0.0
H1174 H 0.04143 0.60601 0.84735 0.0
H1175 H 0.0627 0.61477 0.8893 0.0
C1176 C 0.06914 0.51245 0.86543 0.0
N1177 N 0.06615 0.47701 0.85005 0.0
C1178 C 0.08413 0.50663 0.85616 0.0
C1179 C 0.05265 0.5002 0.8669 0.0
C1180 C 0.08235 0.48865 0.84848 0.0
C1181 C 0.05141 0.48236 0.85901 0.0
C1182 C 0.09169 0.57648 0.84687 0.0
C1183 C 0.10455 0.56325 0.84003 0.0
C1184 C 0.09568 0.59715 0.84689 0.0
C1185 C 0.12125 0.57091 0.83339 0.0
C1186 C 0.11251 0.60422 0.8401 0.0
N1187 N 0.12484 0.59107 0.83356 0.0
C1188 C 0.02715 0.52824 0.84154 0.0
C1189 C 0.05842 0.52943 0.83075 0.0
C1190 C 0.01937 0.51875 0.82949 0.0
N1191 N 0.04633 0.53345 0.84191 0.0
C1192 C 0.05131 0.51991 0.81854 0.0
C1193 C 0.03148 0.51465 0.81773 0.0
H1194 H 0.01781 0.5317 0.8505 0.0
H1195 H 0.07356 0.5338 0.83128 0.0
C1196 C 0.11756 0.53302 0.87845 0.0
N1197 N 0.11259 0.55145 0.87328 0.0
C1198 C 0.13707 0.52797 0.88053 0.0
C1199 C 0.14616 0.56133 0.87259 0.0
C1200 C 0.12638 0.56577 0.87072 0.0
C1201 C 0.15169 0.54213 0.87743 0.0
H1202 H 0.10635 0.52214 0.88094 0.0
H1203 H 0.1221 0.58065 0.86727 0.0
O1204 O 0.03688 0.56256 0.86912 0.0
O1205 O 0.07325 0.57262 0.88657 0.0
O1206 O 0.07039 0.53026 0.87276 0.0
O1207 O 0.07512 0.56934 0.85329 0.0
H1208 H 0.01906 0.59493 0.87945 0.0
H1209 H 0.01602 0.5303 0.87596 0.0
H1210 H 0.98826 0.59441 0.89332 0.0
H1211 H 0.98522 0.53093 0.88985 0.0
H1212 H 0.12623 0.60766 0.90196 0.0
H1213 H 0.08489 0.54705 0.90653 0.0
H1214 H 0.09736 0.6038 0.88615 0.0
H1215 H 0.11404 0.55187 0.92192 0.0
H1216 H 0.0233 0.5606 0.93029 0.0
H1217 H 0.04112 0.49933 0.92141 0.0
H1218 H 0.02931 0.64106 0.84643 0.0
H1219 H 0.05121 0.64994 0.88935 0.0
H1220 H 0.09689 0.51601 0.85473 0.0
H1221 H 0.04083 0.50452 0.8739 0.0
H1222 H 0.0938 0.48403 0.84122 0.0
H1223 H 0.03868 0.4728 0.85999 0.0
H1224 H 0.10195 0.5472 0.8401 0.0
H1225 H 0.08594 0.60764 0.85211 0.0
H1226 H 0.13139 0.56083 0.82816 0.0
H1227 H 0.11578 0.62017 0.84006 0.0
H1228 H 0.00401 0.51488 0.82932 0.0
H1229 H 0.06109 0.51737 0.80962 0.0
H1230 H 0.14067 0.51296 0.88423 0.0
H1231 H 0.15698 0.5728 0.87034 0.0
Li1232 Li 0.91116 0.55663 0.62093 0.0
Li1233 Li 0.93852 0.54905 0.63544 0.0
Li1234 Li 0.93481 0.58286 0.62313 0.0
Li1235 Li 0.94094 0.55098 0.60922 0.0
C1236 C 0.90417 0.57012 0.64811 0.0
N1237 N 0.87312 0.56858 0.6669 0.0
C1238 C 0.89725 0.55154 0.65298 0.0
C1239 C 0.8954 0.58792 0.65284 0.0
C1240 C 0.8815 0.55107 0.66247 0.0
C1241 C 0.87969 0.58682 0.66234 0.0
C1242 C 0.93611 0.51323 0.621 0.0
C1243 C 0.9663 0.49448 0.62132 0.0
N1244 N 0.95599 0.47697 0.62124 0.0
C1245 C 0.92583 0.49503 0.62093 0.0
C1246 C 0.95653 0.51296 0.62121 0.0
C1247 C 0.93614 0.47686 0.62105 0.0
C1248 C 0.87927 0.5332 0.6133 0.0
N1249 N 0.88392 0.55135 0.61909 0.0
C1250 C 0.85017 0.5593 0.62225 0.0
C1251 C 0.86986 0.56452 0.62335 0.0
C1252 C 0.84497 0.54041 0.61663 0.0
C1253 C 0.85982 0.52738 0.61198 0.0
H1254 H 0.89073 0.52315 0.60981 0.0
H1255 H 0.8739 0.57905 0.62764 0.0
C1256 C 0.96168 0.54832 0.6597 0.0
N1257 N 0.94833 0.53731 0.65237 0.0
C1258 C 0.96914 0.54124 0.6726 0.0
C1259 C 0.94889 0.51155 0.67021 0.0
C1260 C 0.94186 0.51922 0.65729 0.0
C1261 C 0.96258 0.52272 0.67811 0.0
H1262 H 0.96637 0.56275 0.65556 0.0
H1263 H 0.93098 0.51092 0.65135 0.0
C1264 C 0.90577 0.57831 0.59826 0.0
N1265 N 0.87113 0.58769 0.58465 0.0
C1266 C 0.89899 0.5663 0.58703 0.0
C1267 C 0.89498 0.59515 0.60252 0.0
C1268 C 0.88142 0.57126 0.58031 0.0
C1269 C 0.87751 0.59964 0.5955 0.0
C1270 C 0.9763 0.57066 0.62138 0.0
C1271 C 0.97964 0.58654 0.61187 0.0
C1272 C 0.99207 0.56164 0.62838 0.0
C1273 C -0.00127 0.59321 0.60958 0.0
C1274 C 0.01095 0.56872 0.62578 0.0
N1275 N 0.01386 0.58424 0.61653 0.0
C1276 C 0.94948 0.6171 0.63707 0.0
C1277 C 0.93927 0.62275 0.61318 0.0
C1278 C 0.95636 0.63686 0.63811 0.0
N1279 N 0.94131 0.61047 0.6247 0.0
C1280 C 0.9459 0.64261 0.61375 0.0
C1281 C 0.95485 0.64982 0.62627 0.0
H1282 H 0.95116 0.60683 0.64597 0.0
H1283 H 0.93305 0.61694 0.60339 0.0
C1284 C 0.94108 0.52714 0.58491 0.0
N1285 N 0.95261 0.53979 0.5926 0.0
C1286 C 0.9475 0.51953 0.57183 0.0
C1287 C 0.97795 0.53733 0.57517 0.0
C1288 C 0.97092 0.54462 0.58817 0.0
C1289 C 0.96602 0.52495 0.56668 0.0
H1290 H 0.92667 0.52337 0.5888 0.0
H1291 H 0.98001 0.55434 0.59452 0.0
O1292 O 0.91934 0.5709 0.63865 0.0
O1293 O 0.92606 0.53108 0.62098 0.0
O1294 O 0.92274 0.57348 0.60516 0.0
O1295 O 0.95769 0.56414 0.62401 0.0
H1296 H 0.90378 0.53763 0.64929 0.0
H1297 H 0.9006 0.60241 0.64912 0.0
H1298 H 0.8759 0.5368 0.66626 0.0
H1299 H 0.87269 0.60047 0.66605 0.0
H1300 H 0.98209 0.49408 0.62147 0.0
H1301 H 0.91003 0.49494 0.62084 0.0
H1302 H 0.9648 0.52678 0.62127 0.0
H1303 H 0.92835 0.46268 0.62101 0.0
H1304 H 0.83916 0.56992 0.62576 0.0
H1305 H 0.85649 0.5126 0.60772 0.0
H1306 H 0.97986 0.55022 0.67824 0.0
H1307 H 0.94327 0.49736 0.67416 0.0
H1308 H 0.90713 0.55322 0.58359 0.0
H1309 H 0.89987 0.60445 0.61132 0.0
H1310 H 0.87596 0.56203 0.57166 0.0
H1311 H 0.86895 0.61255 0.59875 0.0
H1312 H 0.96768 0.5934 0.60613 0.0
H1313 H 0.98976 0.54926 0.63572 0.0
H1314 H 0.00153 0.60547 0.60223 0.0
H1315 H 0.02328 0.56187 0.63113 0.0
H1316 H 0.9634 0.64169 0.6479 0.0
H1317 H 0.94423 0.65214 0.60443 0.0
H1318 H 0.93778 0.51012 0.56561 0.0
H1319 H 0.99249 0.54154 0.57173 0.0
Li1320 Li 0.55523 0.45021 0.6352 0.0
Li1321 Li 0.58564 0.44145 0.62337 0.0
Li1322 Li 0.55504 0.44885 0.60968 0.0
Li1323 Li 0.55835 0.41713 0.6226 0.0
C1324 C 0.57137 0.48506 0.62889 0.0
N1325 N 0.57226 0.52097 0.64385 0.0
C1326 C 0.58793 0.49039 0.63676 0.0
C1327 C 0.55535 0.49811 0.62849 0.0
C1328 C 0.58808 0.50859 0.64428 0.0
C1329 C 0.55606 0.51615 0.63617 0.0
C1330 C 0.58506 0.41499 0.64746 0.0
C1331 C 0.60489 0.38507 0.64955 0.0
N1332 N 0.60927 0.39016 0.66326 0.0
C1333 C 0.58955 0.41977 0.66165 0.0
C1334 C 0.59262 0.39738 0.64142 0.0
C1335 C 0.6019 0.40709 0.66943 0.0
C1336 C 0.52572 0.46666 0.65304 0.0
N1337 N 0.54521 0.46343 0.6516 0.0
C1338 C 0.55143 0.47838 0.67436 0.0
C1339 C 0.55807 0.46923 0.66186 0.0
C1340 C 0.53133 0.48159 0.67632 0.0
C1341 C 0.51843 0.47585 0.66535 0.0
H1342 H 0.51581 0.46185 0.64473 0.0
H1343 H 0.57349 0.46649 0.66039 0.0
C1344 C 0.62068 0.45158 0.61049 0.0
N1345 N 0.61298 0.44561 0.62318 0.0
C1346 C 0.64026 0.45716 0.60958 0.0
C1347 C 0.64371 0.44999 0.6348 0.0
C1348 C 0.62404 0.44457 0.63522 0.0
C1349 C 0.65198 0.4567 0.6219 0.0
H1350 H 0.6114 0.45258 0.60115 0.0
H1351 H 0.61749 0.44026 0.64525 0.0
C1352 C 0.51861 0.43835 0.6159 0.0
N1353 N 0.48399 0.44283 0.60104 0.0
C1354 C 0.50924 0.42152 0.6101 0.0
C1355 C 0.51023 0.45743 0.6143 0.0
C1356 C 0.49178 0.4241 0.60259 0.0
C1357 C 0.49277 0.45939 0.6067 0.0
C1358 C 0.58412 0.41366 0.59804 0.0
C1359 C 0.57724 0.4095 0.58428 0.0
C1360 C 0.60128 0.40443 0.60281 0.0
C1361 C 0.5873 0.39576 0.57569 0.0
C1362 C 0.61094 0.3908 0.5939 0.0
N1363 N 0.6038 0.38675 0.58065 0.0
C1364 C 0.54845 0.47981 0.58949 0.0
C1365 C 0.53561 0.44778 0.58332 0.0
C1366 C 0.54178 0.48795 0.57662 0.0
N1367 N 0.54527 0.46007 0.59253 0.0
C1368 C 0.5287 0.45525 0.57036 0.0
C1369 C 0.53185 0.47557 0.56683 0.0
H1370 H 0.55632 0.48918 0.59698 0.0
H1371 H 0.53343 0.4321 0.586 0.0
C1372 C 0.54711 0.3802 0.6351 0.0
N1373 N 0.55072 0.38961 0.62247 0.0
C1374 C 0.54022 0.3604 0.63527 0.0
C1375 C 0.54075 0.36043 0.60942 0.0
C1376 C 0.54767 0.38019 0.60977 0.0
C1377 C 0.53681 0.3503 0.62229 0.0
H1378 H 0.54934 0.38819 0.64505 0.0
H1379 H 0.54994 0.38824 0.59989 0.0
O1380 O 0.57079 0.46712 0.62169 0.0
O1381 O 0.57295 0.42728 0.63973 0.0
O1382 O 0.53585 0.43614 0.62313 0.0
O1383 O 0.57452 0.42731 0.60652 0.0
H1384 H 0.60046 0.48052 0.63719 0.0
H1385 H 0.54247 0.49429 0.6224 0.0
H1386 H 0.60075 0.51284 0.65049 0.0
H1387 H 0.54371 0.52632 0.63604 0.0
H1388 H 0.61084 0.37142 0.64497 0.0
H1389 H 0.58364 0.43315 0.66661 0.0
H1390 H 0.58882 0.39304 0.63066 0.0
H1391 H 0.60559 0.41069 0.68038 0.0
H1392 H 0.5619 0.48224 0.68259 0.0
H1393 H 0.50284 0.4782 0.66635 0.0
H1394 H 0.64593 0.46254 0.59947 0.0
H1395 H 0.65226 0.44928 0.64453 0.0
H1396 H 0.51537 0.40662 0.61135 0.0
H1397 H 0.51724 0.47061 0.61874 0.0
H1398 H 0.48443 0.41121 0.598 0.0
H1399 H 0.48622 0.47409 0.60528 0.0
H1400 H 0.5642 0.41671 0.58027 0.0
H1401 H 0.60728 0.40791 0.61319 0.0
H1402 H 0.58202 0.3923 0.56507 0.0
H1403 H 0.6242 0.38352 0.5975 0.0
H1404 H 0.54437 0.50373 0.57436 0.0
H1405 H 0.52141 0.44509 0.56305 0.0
H1406 H 0.53753 0.35313 0.64544 0.0
H1407 H 0.53791 0.35341 0.59918 0.0
H1408 H 0.33326 0.9989 0.12057 0.0
H1409 H 0.29985 0.01174 0.12146 0.0
H1410 H 0.2781 0.95113 0.12643 0.0
H1411 H 0.31158 0.93815 0.12564 0.0
H1412 H 0.26872 0.00357 0.10384 0.0
H1413 H 0.25244 0.98057 0.15967 0.0
H1414 H 0.27689 0.98056 0.15246 0.0
H1415 H 0.26038 0.9603 0.14835 0.0
C1416 C 0.32136 0.98829 0.12177 0.0
C1417 C 0.32502 0.96752 0.12306 0.0
C1418 C 0.3023 0.99566 0.12234 0.0
C1419 C 0.28655 0.98242 0.12423 0.0
C1420 C 0.2901 0.96164 0.1253 0.0
H1421 H 0.16134 -0.00077 0.12649 0.0
H1422 H 0.19453 0.98582 0.12576 0.0
C1423 C 0.3092 0.95425 0.12481 0.0
C1424 C 0.26641 0.99045 0.12484 0.0
H1425 H 0.22602 0.99361 0.14611 0.0
C1426 C 0.2594 0.00146 0.1131 0.0
C1427 C 0.25433 0.98769 0.13695 0.0
C1428 C 0.26141 0.9768 0.15014 0.0
C1429 C 0.2405 0.00959 0.11307 0.0
C1430 C 0.22844 0.00676 0.12516 0.0
C1431 C 0.23538 0.9957 0.13687 0.0
C1432 C 0.20845 0.01506 0.1258 0.0
C1433 C 0.23342 0.02084 0.10005 0.0
C1434 C 0.20539 0.03595 0.12625 0.0
C1435 C 0.18643 0.0437 0.12683 0.0
C1436 C 0.17024 0.03065 0.12699 0.0
C1437 C 0.17346 0.00971 0.12663 0.0
C1438 C 0.1924 0.002 0.12611 0.0
H1439 H 0.24294 0.01818 0.09062 0.0
H1440 H 0.21826 0.01634 0.09731 0.0
H1441 H 0.23339 0.03725 0.10236 0.0
H1442 H 0.21767 0.04624 0.12624 0.0
H1443 H 0.18447 0.05988 0.1273 0.0
H1444 H 0.67727 0.96205 0.35165 0.0
H1445 H 0.71061 0.97508 0.35294 0.0
H1446 H 0.70598 0.97933 0.3988 0.0
H1447 H 0.67279 0.9658 0.3977 0.0
H1448 H 0.71873 0.01572 0.38374 0.0
H1449 H 0.761 0.94716 0.36917 0.0
H1450 H 0.74071 0.95316 0.35772 0.0
H1451 H 0.73632 0.94604 0.37595 0.0
C1452 C 0.68346 0.96531 0.36205 0.0
C1453 C 0.67233 0.9629 0.37458 0.0
C1454 C 0.70249 0.97283 0.36275 0.0
C1455 C 0.71071 0.97805 0.37596 0.0
C1456 C 0.69982 0.97538 0.3885 0.0
H1457 H 0.83077 0.01204 0.39308 0.0
H1458 H 0.79805 0.99731 0.39397 0.0
C1459 C 0.68084 0.96776 0.38783 0.0
C1460 C 0.7303 0.98727 0.37663 0.0
H1461 H 0.77852 0.97795 0.37034 0.0
C1462 C 0.73184 0.00748 0.38088 0.0
C1463 C 0.74729 0.97636 0.37297 0.0
C1464 C 0.74639 0.95442 0.36879 0.0
C1465 C 0.74999 0.01724 0.3813 0.0
C1466 C 0.76693 0.00649 0.37729 0.0
C1467 C 0.76544 0.98615 0.37332 0.0
C1468 C 0.78639 0.01608 0.37711 0.0
C1469 C 0.75096 0.03891 0.38614 0.0
C1470 C 0.79058 0.0315 0.36733 0.0
C1471 C 0.80924 0.03999 0.36681 0.0
C1472 C 0.82398 0.03318 0.37609 0.0
C1473 C 0.81964 0.01783 0.38596 0.0
C1474 C 0.80102 0.0093 0.38642 0.0
H1475 H 0.73745 0.04359 0.39181 0.0
H1476 H 0.76366 0.04135 0.39332 0.0
H1477 H 0.75281 0.04879 0.37666 0.0
H1478 H 0.77951 0.03675 0.35995 0.0
H1479 H 0.81214 0.05184 0.35914 0.0
H1480 H 0.83527 0.99648 0.86772 0.0
H1481 H 0.80262 0.01091 0.86947 0.0
H1482 H 0.77889 0.95206 0.87848 0.0
H1483 H 0.81155 0.93729 0.87622 0.0
H1484 H 0.75784 0.97304 0.85815 0.0
H1485 H 0.77114 0.0208 0.90575 0.0
H1486 H 0.78852 0.02501 0.89171 0.0
H1487 H 0.78754 0.00086 0.90043 0.0
C1488 C 0.8231 0.98654 0.86994 0.0
C1489 C 0.82599 0.96571 0.87177 0.0
C1490 C 0.80449 0.99487 0.87115 0.0
C1491 C 0.78843 0.98261 0.87437 0.0
C1492 C 0.79117 0.9618 0.87612 0.0
H1493 H 0.67256 0.02746 0.89577 0.0
H1494 H 0.70505 0.01217 0.89655 0.0
C1495 C 0.80982 0.95341 0.87489 0.0
C1496 C 0.76868 0.99151 0.87534 0.0
H1497 H 0.74219 0.02789 0.89235 0.0
C1498 C 0.75435 0.98491 0.8657 0.0
C1499 C 0.76412 0.00681 0.88533 0.0
C1500 C 0.77858 0.01366 0.89649 0.0
C1501 C 0.73572 0.99366 0.86549 0.0
C1502 C 0.7315 0.00968 0.87498 0.0
C1503 C 0.74561 0.01583 0.88494 0.0
C1504 C 0.71243 0.02012 0.87478 0.0
C1505 C 0.72069 0.98556 0.85518 0.0
C1506 C 0.70613 0.03021 0.86243 0.0
C1507 C 0.68762 0.03898 0.86196 0.0
C1508 C 0.67518 0.03799 0.87389 0.0
C1509 C 0.68188 0.02863 0.88646 0.0
C1510 C 0.70038 0.01979 0.8869 0.0
H1511 H 0.72438 0.97008 0.85155 0.0
H1512 H 0.70595 0.98531 0.86012 0.0
H1513 H 0.72013 0.99543 0.84562 0.0
H1514 H 0.71544 0.03105 0.85309 0.0
H1515 H 0.68295 0.04635 0.85221 0.0
H1516 H 0.16365 0.99217 0.63651 0.0
H1517 H 0.19636 0.00687 0.63547 0.0
H1518 H 0.21399 0.96124 0.60529 0.0
H1519 H 0.18127 0.94623 0.6064 0.0
H1520 H 0.24026 0.96816 0.62936 0.0
H1521 H 0.21969 0.03836 0.60068 0.0
H1522 H 0.20495 0.03243 0.61602 0.0
H1523 H 0.20451 0.01609 0.60072 0.0
C1524 C 0.17453 0.98516 0.62974 0.0
C1525 C 0.16995 0.96802 0.62156 0.0
C1526 C 0.19312 0.99369 0.62905 0.0
C1527 C 0.20742 0.98526 0.62017 0.0
C1528 C 0.20303 0.96801 0.61212 0.0
H1529 H 0.3206 0.03658 0.59907 0.0
H1530 H 0.28761 0.0225 0.59811 0.0
C1531 C 0.18437 0.95952 0.61273 0.0
C1532 C 0.22713 0.99423 0.61961 0.0
H1533 H 0.25173 0.03704 0.61042 0.0
C1534 C 0.24283 0.98316 0.62515 0.0
C1535 C 0.23036 0.01371 0.61398 0.0
C1536 C 0.21404 0.02584 0.60739 0.0
C1537 C 0.26171 0.99133 0.62556 0.0
C1538 C 0.26481 0.01111 0.62041 0.0
C1539 C 0.2492 0.02196 0.6145 0.0
C1540 C 0.28423 0.02074 0.62106 0.0
C1541 C 0.2782 0.97871 0.63142 0.0
C1542 C 0.29295 0.02488 0.6343 0.0
C1543 C 0.31171 0.03306 0.6349 0.0
C1544 C 0.32204 0.03728 0.62226 0.0
C1545 C 0.31296 0.03371 0.609 0.0
C1546 C 0.29418 0.02556 0.60842 0.0
H1547 H 0.27433 0.96245 0.63179 0.0
H1548 H 0.29159 0.98057 0.62485 0.0
H1549 H 0.28158 0.9837 0.64247 0.0
H1550 H 0.2853 0.02162 0.64416 0.0
H1551 H 0.31818 0.03596 0.64526 0.0
H1552 H 0.81191 0.44362 0.10548 0.0
H1553 H 0.77903 0.45805 0.10422 0.0
H1554 H 0.79552 0.50359 0.13483 0.0
H1555 H 0.82852 0.48974 0.13579 0.0
H1556 H 0.75187 0.4635 0.12629 0.0
H1557 H 0.7728 0.53655 0.1018 0.0
H1558 H 0.78899 0.51509 0.10219 0.0
H1559 H 0.78608 0.53062 0.1178 0.0
C1560 C 0.80858 0.45682 0.11184 0.0
C1561 C 0.82283 0.46557 0.1207 0.0
C1562 C 0.78979 0.46497 0.11116 0.0
C1563 C 0.78499 0.48207 0.11925 0.0
C1564 C 0.79906 0.49062 0.12829 0.0
H1565 H 0.68077 0.55191 0.13505 0.0
H1566 H 0.71373 0.53753 0.13473 0.0
C1567 C 0.81783 0.4825 0.12897 0.0
C1568 C 0.76516 0.49078 0.11848 0.0
H1569 H 0.74026 0.53393 0.11056 0.0
C1570 C 0.74929 0.47884 0.12275 0.0
C1571 C 0.7619 0.51079 0.11386 0.0
C1572 C 0.77831 0.52397 0.10852 0.0
C1573 C 0.73023 0.48658 0.12284 0.0
C1574 C 0.72703 0.50666 0.11838 0.0
C1575 C 0.74285 0.51855 0.11401 0.0
C1576 C 0.7073 0.51562 0.11826 0.0
C1577 C 0.71374 0.4734 0.12803 0.0
C1578 C 0.69297 0.50825 0.10892 0.0
C1579 C 0.67419 0.51639 0.10909 0.0
C1580 C 0.66943 0.53208 0.11858 0.0
C1581 C 0.68396 0.53969 0.12773 0.0
C1582 C 0.70277 0.53157 0.12752 0.0
H1583 H 0.71915 0.45998 0.13392 0.0
H1584 H 0.70377 0.48202 0.13513 0.0
H1585 H 0.70515 0.46806 0.11871 0.0
H1586 H 0.69631 0.4961 0.10158 0.0
H1587 H 0.66326 0.51008 0.10201 0.0
H1588 H 0.31209 0.563 0.38046 0.0
H1589 H 0.27923 0.54867 0.38212 0.0
H1590 H 0.29894 0.4952 0.36025 0.0
H1591 H 0.33193 0.50893 0.3591 0.0
H1592 H 0.2538 0.5361 0.36104 0.0
H1593 H 0.27417 0.47217 0.39619 0.0
H1594 H 0.29022 0.49327 0.39302 0.0
H1595 H 0.28833 0.4733 0.38007 0.0
C1596 C 0.30947 0.54812 0.37611 0.0
C1597 C 0.32468 0.53707 0.36973 0.0
C1598 C 0.29067 0.54002 0.377 0.0
C1599 C 0.28678 0.52072 0.37157 0.0
C1600 C 0.30175 0.50993 0.36479 0.0
H1601 H 0.18448 0.44642 0.3606 0.0
H1602 H 0.21718 0.46148 0.36028 0.0
C1603 C 0.32054 0.51796 0.36395 0.0
C1604 C 0.26704 0.51186 0.37289 0.0
H1605 H 0.24236 0.47105 0.38586 0.0
C1606 C 0.25126 0.52197 0.36656 0.0
C1607 C 0.26379 0.49345 0.38016 0.0
C1608 C 0.27999 0.4825 0.38787 0.0
C1609 C 0.23236 0.51385 0.36697 0.0
C1610 C 0.22923 0.49526 0.37398 0.0
C1611 C 0.24493 0.48526 0.38044 0.0
C1612 C 0.20971 0.4859 0.37459 0.0
C1613 C 0.21591 0.52493 0.35967 0.0
C1614 C 0.19493 0.49452 0.38294 0.0
C1615 C 0.17632 0.48594 0.38319 0.0
C1616 C 0.17222 0.46863 0.37504 0.0
C1617 C 0.1872 0.45985 0.36688 0.0
C1618 C 0.20585 0.46837 0.36672 0.0
H1619 H 0.22132 0.53731 0.35273 0.0
H1620 H 0.20711 0.51438 0.35308 0.0
H1621 H 0.20612 0.53153 0.36788 0.0
H1622 H 0.19775 0.50797 0.38917 0.0
H1623 H 0.16501 0.49315 0.38946 0.0
H1624 H 0.16903 0.52072 0.89894 0.0
H1625 H 0.20241 0.50765 0.89952 0.0
H1626 H 0.2147 0.53724 0.85947 0.0
H1627 H 0.1813 0.55025 0.85875 0.0
H1628 H 0.21759 0.4822 0.87831 0.0
H1629 H 0.26241 0.55141 0.8842 0.0
H1630 H 0.23663 0.55077 0.88827 0.0
H1631 H 0.24473 0.55248 0.87004 0.0
C1632 C 0.1789 0.52459 0.89032 0.0
C1633 C 0.17253 0.53642 0.87875 0.0
C1634 C 0.19796 0.51719 0.89071 0.0
C1635 C 0.21102 0.52161 0.8796 0.0
C1636 C 0.20494 0.53398 0.86829 0.0
H1637 H 0.32552 0.48149 0.85407 0.0
H1638 H 0.29311 0.49664 0.8559 0.0
C1639 C 0.18586 0.5414 0.86789 0.0
C1640 C 0.23039 0.51181 0.87921 0.0
H1641 H 0.27931 0.5213 0.87798 0.0
C1642 C 0.23111 0.49071 0.87837 0.0
C1643 C 0.24793 0.52301 0.8792 0.0
C1644 C 0.24798 0.54566 0.8806 0.0
C1645 C 0.24894 0.48048 0.87717 0.0
C1646 C 0.26649 0.49168 0.87706 0.0
C1647 C 0.26579 0.51279 0.87803 0.0
C1648 C 0.28576 0.48181 0.87578 0.0
C1649 C 0.24881 0.45784 0.87561 0.0
C1650 C 0.2923 0.46841 0.88634 0.0
C1651 C 0.31073 0.45953 0.88525 0.0
C1652 C 0.323 0.46403 0.87361 0.0
C1653 C 0.31631 0.47741 0.86302 0.0
C1654 C 0.29788 0.48624 0.86412 0.0
H1655 H 0.23424 0.45213 0.8723 0.0
H1656 H 0.2598 0.45284 0.86764 0.0
H1657 H 0.25251 0.45087 0.88604 0.0
H1658 H 0.28327 0.46504 0.89554 0.0
H1659 H 0.31541 0.44922 0.89354 0.0
H1660 H 0.67944 0.45073 0.601 0.0
H1661 H 0.71232 0.46515 0.59974 0.0
H1662 H 0.70327 0.49446 0.64034 0.0
H1663 H 0.67037 0.48039 0.64162 0.0
H1664 H 0.72211 0.50698 0.60036 0.0
H1665 H 0.75576 0.46476 0.64533 0.0
H1666 H 0.73328 0.45692 0.6369 0.0
H1667 H 0.73321 0.47717 0.64966 0.0
C1668 C 0.68446 0.46024 0.60966 0.0
C1669 C 0.67233 0.46433 0.62145 0.0
C1670 C 0.70324 0.46839 0.60894 0.0
C1671 C 0.71025 0.48064 0.62003 0.0
C1672 C 0.69825 0.4847 0.63182 0.0
H1673 H 0.81699 0.54577 0.6371 0.0
H1674 H 0.78365 0.53259 0.63716 0.0
C1675 C 0.67948 0.47659 0.63255 0.0
C1676 C 0.72985 0.48982 0.61906 0.0
H1677 H 0.77411 0.49186 0.63569 0.0
C1678 C 0.73355 0.50362 0.60802 0.0
C1679 C 0.74465 0.4854 0.62911 0.0
C1680 C 0.74165 0.47012 0.64086 0.0
C1681 C 0.75162 0.51348 0.60694 0.0
C1682 C 0.76638 0.50913 0.61704 0.0
C1683 C 0.76269 0.49524 0.62802 0.0
C1684 C 0.78592 0.51856 0.61635 0.0
C1685 C 0.75458 0.5288 0.59522 0.0
C1686 C 0.79814 0.51516 0.60456 0.0
C1687 C 0.81713 0.52281 0.60444 0.0
C1688 C 0.82428 0.53386 0.61616 0.0
C1689 C 0.81184 0.53757 0.62783 0.0
C1690 C 0.79285 0.52993 0.62793 0.0
H1691 H 0.74045 0.53425 0.59083 0.0
H1692 H 0.76304 0.54196 0.59916 0.0
H1693 H 0.76289 0.52176 0.58635 0.0
H1694 H 0.79317 0.50615 0.59562 0.0
H1695 H 0.8263 0.51986 0.59524 0.0
H1696 H 0.98203 0.98749 0.30941 0.0
H1697 H 0.99282 0.97448 0.2861 0.0
H1698 H 0.96284 0.0233 0.26501 0.0
H1699 H 0.95173 0.03605 0.28807 0.0
H1700 H 0.95832 0.98401 0.25175 0.0
H1701 H 0.03582 0.00468 0.26301 0.0
H1702 H 0.02315 0.98859 0.27542 0.0
H1703 H 0.01603 0.01448 0.27368 0.0
C1704 C 0.97755 0.99524 0.29977 0.0
C1705 C 0.96628 0.01294 0.30054 0.0
C1706 C 0.98379 0.98786 0.28651 0.0
C1707 C 0.97876 0.99807 0.2739 0.0
C1708 C 0.96689 0.01524 0.27465 0.0
H1709 H 0.99523 0.03143 0.19147 0.0
H1710 H 0.98336 0.01944 0.21442 0.0
C1711 C 0.96072 0.02262 0.28782 0.0
C1712 C 0.9867 0.99205 0.25985 0.0
H1713 H 0.02741 0.99789 0.2393 0.0
C1714 C 0.97353 0.98651 0.24906 0.0
C1715 C 0.00659 0.99512 0.25644 0.0
C1716 C 0.02131 0.00111 0.26768 0.0
C1717 C 0.97944 0.9855 0.23473 0.0
C1718 C -0.00111 0.99051 0.23116 0.0
C1719 C 0.01247 0.99418 0.24209 0.0
C1720 C 0.00461 0.99545 0.21633 0.0
C1721 C 0.9646 0.98005 0.22348 0.0
C1722 C 0.02062 0.98602 0.20981 0.0
C1723 C 0.02744 0.99282 0.19656 0.0
C1724 C 0.01851 0.00935 0.18974 0.0
C1725 C 0.00221 0.01841 0.19622 0.0
C1726 C 0.99536 0.01155 0.20937 0.0
H1727 H 0.95322 0.96987 0.22789 0.0
H1728 H 0.95721 0.99397 0.21973 0.0
H1729 H 0.97158 0.97263 0.21414 0.0
H1730 H 0.02807 0.9737 0.2151 0.0
H1731 H 0.03989 0.98534 0.19178 0.0
H1732 H 0.46827 0.01374 0.18849 0.0
H1733 H 0.48054 0.02668 0.21139 0.0
H1734 H 0.49658 0.96638 0.2239 0.0
H1735 H 0.48406 0.9533 0.2014 0.0
H1736 H 0.46818 0.01507 0.23946 0.0
H1737 H 0.54662 -0.00026 0.231 0.0
H1738 H 0.52934 0.00127 0.21643 0.0
H1739 H 0.5318 0.97833 0.22656 0.0
C1740 C 0.47438 0.00325 0.19615 0.0
C1741 C 0.47535 0.98249 0.19306 0.0
C1742 C 0.48147 0.01069 0.20916 0.0
C1743 C 0.48982 0.99752 0.21916 0.0
C1744 C 0.49067 0.97685 0.21614 0.0
H1745 H 0.49817 0.9744 0.30418 0.0
H1746 H 0.48772 0.98497 0.28053 0.0
C1747 C 0.48352 0.9694 0.20324 0.0
C1748 C 0.49677 0.0048 0.23318 0.0
H1749 H 0.5356 6e-05 0.25565 0.0
C1750 C 0.48305 0.01233 0.24295 0.0
C1751 C 0.51626 0.00171 0.2376 0.0
C1752 C 0.5319 0.99502 0.22729 0.0
C1753 C 0.4879 0.01491 0.25741 0.0
C1754 C 0.5068 0.00948 0.26214 0.0
C1755 C 0.52101 0.00395 0.25207 0.0
C1756 C 0.5113 0.00628 0.27745 0.0
C1757 C 0.4725 0.02259 0.26756 0.0
C1758 C 0.52807 0.01473 0.28365 0.0
C1759 C 0.53417 0.00861 0.29724 0.0
C1760 C 0.52366 0.99382 0.3048 0.0
C1761 C 0.50641 0.98608 0.29879 0.0
C1762 C 0.50035 0.99219 0.28525 0.0
H1763 H 0.46241 0.03315 0.26205 0.0
H1764 H 0.46369 0.0097 0.2715 0.0
H1765 H 0.4791 0.0304 0.27688 0.0
H1766 H 0.53682 0.0255 0.27776 0.0
H1767 H 0.54741 0.01501 0.30165 0.0
H1768 H -0.00056 0.00405 0.68303 0.0
H1769 H 0.98748 0.0131 0.7069 0.0
H1770 H 0.03781 0.98454 0.72583 0.0
H1771 H 0.04974 0.97546 0.70221 0.0
H1772 H 0.97764 0.98607 0.72713 0.0
H1773 H 0.03493 0.03575 0.74894 0.0
H1774 H 0.03287 0.03038 0.73006 0.0
H1775 H 0.04539 0.01314 0.74179 0.0
C1776 C 0.00805 -6e-05 0.6923 0.0
C1777 C 0.02556 0.98908 0.69073 0.0
C1778 C 0.00128 0.00523 0.7059 0.0
C1779 C 0.01195 -0.00015 0.71813 0.0
C1780 C 0.02965 0.98944 0.71654 0.0
H1781 H 0.00088 0.96564 0.80313 0.0
H1782 H 0.01039 0.97642 0.77912 0.0
C1783 C 0.03643 0.98419 0.703 0.0
C1784 C 0.00362 0.00264 0.7326 0.0
H1785 H 0.01593 0.01692 0.76648 0.0
C1786 C 0.98572 0.99331 0.73568 0.0
C1787 C 0.01418 0.01214 0.74372 0.0
C1788 C 0.03281 0.0236 0.74091 0.0
C1789 C 0.97887 0.99181 0.74976 0.0
C1790 C 0.99014 7e-05 0.76098 0.0
C1791 C 0.00741 0.01051 0.75782 0.0
C1792 C 0.98537 0.99585 0.77608 0.0
C1793 C 0.9603 0.98024 0.75264 0.0
C1794 C 0.96842 0.00365 0.7824 0.0
C1795 C 0.9629 0.99745 0.7961 0.0
C1796 C 0.97426 0.98332 0.80363 0.0
C1797 C 0.9917 0.9763 0.79749 0.0
C1798 C 0.99723 0.98255 0.78384 0.0
H1799 H 0.95461 0.97265 0.74291 0.0
H1800 H 0.9628 0.96868 0.76103 0.0
H1801 H 0.94892 0.99075 0.75661 0.0
H1802 H 0.95918 0.01404 0.77657 0.0
H1803 H 0.94934 0.00304 0.80055 0.0
H1804 H 0.50267 0.04095 0.68731 0.0
H1805 H 0.51536 0.0327 0.71102 0.0
H1806 H 0.46876 0.98981 0.71701 0.0
H1807 H 0.45595 0.99801 0.69324 0.0
H1808 H 0.49136 0.03944 0.73512 0.0
H1809 H 0.51805 0.96031 0.73275 0.0
H1810 H 0.51524 0.97579 0.71697 0.0
H1811 H 0.49419 0.96495 0.72541 0.0
C1812 C 0.4953 0.02955 0.6936 0.0
C1813 C 0.47822 0.02027 0.68852 0.0
C1814 C 0.50262 0.02477 0.70708 0.0
C1815 C 0.49304 0.01059 0.7157 0.0
C1816 C 0.47655 0.00053 0.7104 0.0
H1817 H 0.4979 0.01204 0.80826 0.0
H1818 H 0.48712 0.00633 0.78363 0.0
C1819 C 0.46922 0.00527 0.69685 0.0
C1820 C 0.49882 0.0085 0.73084 0.0
H1821 H 0.51735 0.97588 0.75562 0.0
C1822 C 0.49704 0.02554 0.7396 0.0
C1823 C 0.50617 0.99033 0.73659 0.0
C1824 C 0.5087 0.97179 0.72746 0.0
C1825 C 0.50251 0.02497 0.754 0.0
C1826 C 0.50976 0.0068 0.7598 0.0
C1827 C 0.51158 0.9897 0.75109 0.0
C1828 C 0.51629 0.00597 0.7748 0.0
C1829 C 0.50085 0.04391 0.76287 0.0
C1830 C 0.53626 0.00694 0.77794 0.0
C1831 C 0.54247 0.01039 0.79195 0.0
C1832 C 0.52875 0.0129 0.80301 0.0
C1833 C 0.50879 0.01052 0.79992 0.0
C1834 C 0.50261 0.00709 0.78591 0.0
H1835 H 0.49769 0.0574 0.75622 0.0
H1836 H 0.48885 0.04212 0.77074 0.0
H1837 H 0.51456 0.0466 0.76891 0.0
H1838 H 0.54699 0.00624 0.76944 0.0
H1839 H 0.55793 0.01231 0.79394 0.0
H1840 H 0.54254 0.53061 0.20402 0.0
H1841 H 0.53004 0.51866 0.2269 0.0
H1842 H 0.4888 0.48043 0.205 0.0
H1843 H 0.50118 0.49262 0.18189 0.0
H1844 H 0.47209 0.50557 0.22557 0.0
H1845 H 0.53532 0.46536 0.24846 0.0
H1846 H 0.54227 0.48951 0.24152 0.0
H1847 H 0.53306 0.47048 0.22955 0.0
C1848 C 0.53092 0.51953 0.20406 0.0
C1849 C 0.52273 0.51263 0.1912 0.0
C1850 C 0.52397 0.51251 0.21714 0.0
C1851 C 0.50874 0.49839 0.21763 0.0
C1852 C 0.50074 0.49113 0.20481 0.0
H1853 H 0.44534 0.48758 0.29979 0.0
H1854 H 0.45535 0.47719 0.27569 0.0
C1855 C 0.50782 0.49807 0.19166 0.0
C1856 C 0.49996 0.49324 0.2316 0.0
H1857 H 0.51284 0.4804 0.26561 0.0
C1858 C 0.48074 0.49948 0.23427 0.0
C1859 C 0.51127 0.48517 0.24287 0.0
C1860 C 0.53156 0.47705 0.24041 0.0
C1861 C 0.47319 0.49973 0.24822 0.0
C1862 C 0.48515 0.4933 0.25966 0.0
C1863 C 0.50377 0.48545 0.25681 0.0
C1864 C 0.4799 0.49766 0.27467 0.0
C1865 C 0.4531 0.5084 0.25074 0.0
C1866 C 0.49071 0.51216 0.28216 0.0
C1867 C 0.48505 0.51813 0.29581 0.0
C1868 C 0.46847 0.50965 0.30232 0.0
C1869 C 0.45801 0.49459 0.29498 0.0
C1870 C 0.46372 0.4886 0.28125 0.0
H1871 H 0.44662 0.51479 0.24084 0.0
H1872 H 0.44326 0.49638 0.25474 0.0
H1873 H 0.45373 0.52044 0.25898 0.0
H1874 H 0.50317 0.5194 0.27721 0.0
H1875 H 0.49325 0.52999 0.30103 0.0
H1876 H 0.04232 0.4618 0.28792 0.0
H1877 H 0.02956 0.4738 0.26519 0.0
H1878 H 0.00057 0.52292 0.28672 0.0
H1879 H 0.01276 0.51045 0.30974 0.0
H1880 H 0.97615 0.50343 0.26944 0.0
H1881 H 0.04305 0.51966 0.23906 0.0
H1882 H 0.04493 0.49502 0.24676 0.0
H1883 H 0.04317 0.51677 0.25827 0.0
C1884 C 0.03329 0.47521 0.28784 0.0
C1885 C 0.0284 0.48507 0.30064 0.0
C1886 C 0.02629 0.48228 0.2748 0.0
C1887 C 0.01445 0.49952 0.27421 0.0
C1888 C 0.0099 0.50973 0.28692 0.0
H1889 H 0.97715 0.51197 0.18475 0.0
H1890 H 0.98791 0.5247 0.20812 0.0
C1891 C 0.0169 0.50263 0.30004 0.0
C1892 C 0.00513 0.50513 0.26049 0.0
H1893 H 0.01512 0.50755 0.22484 0.0
C1894 C 0.98466 0.50494 0.25972 0.0
C1895 C 0.01613 0.50771 0.24783 0.0
C1896 C 0.03803 0.51004 0.24807 0.0
C1897 C 0.97504 0.50501 0.2465 0.0
C1898 C 0.98622 0.50477 0.23379 0.0
C1899 C 0.00654 0.50726 0.23459 0.0
C1900 C 0.97762 0.49873 0.21992 0.0
C1901 C 0.95303 0.50437 0.24628 0.0
C1902 C 0.96829 0.47997 0.21883 0.0
C1903 C 0.96216 0.47274 0.2056 0.0
C1904 C 0.96543 0.484 0.19311 0.0
C1905 C 0.97434 0.50304 0.19422 0.0
C1906 C 0.98051 0.51029 0.20753 0.0
H1907 H 0.94688 0.51258 0.2556 0.0
H1908 H 0.94705 0.51105 0.23632 0.0
H1909 H 0.94811 0.48847 0.24704 0.0
H1910 H 0.96636 0.47052 0.22816 0.0
H1911 H 0.95512 0.45813 0.20512 0.0
H1912 H 0.49916 0.46887 0.69097 0.0
H1913 H 0.48925 0.47823 0.71503 0.0
H1914 H 0.53695 0.5205 0.71755 0.0
H1915 H 0.54688 0.51142 0.69322 0.0
H1916 H 0.53676 0.4933 0.73951 0.0
H1917 H 0.46329 0.52657 0.73386 0.0
H1918 H 0.46519 0.50338 0.72411 0.0
H1919 H 0.4801 0.52457 0.71904 0.0
C1920 C 0.5072 0.48065 0.6964 0.0
C1921 C 0.52385 0.48935 0.69016 0.0
C1922 C 0.50147 0.48602 0.71019 0.0
C1923 C 0.5122 0.50027 0.718 0.0
C1924 C 0.52841 0.50957 0.71164 0.0
H1925 H 0.47243 0.51228 0.80741 0.0
H1926 H 0.4846 0.52323 0.78401 0.0
C1927 C 0.53413 0.50425 0.6978 0.0
C1928 C 0.50795 0.50313 0.73337 0.0
H1929 H 0.47007 0.50987 0.75656 0.0
C1930 C 0.52233 0.49745 0.74327 0.0
C1931 C 0.48923 0.50883 0.7383 0.0
C1932 C 0.47365 0.51639 0.72826 0.0
C1933 C 0.51795 0.49561 0.75784 0.0
C1934 C 0.49868 0.49934 0.76254 0.0
C1935 C 0.48478 0.50674 0.75287 0.0
C1936 C 0.49213 0.4932 0.77693 0.0
C1937 C 0.53373 0.48881 0.768 0.0
C1938 C 0.49214 0.47271 0.78055 0.0
C1939 C 0.48499 0.46638 0.79375 0.0
C1940 C 0.47769 0.48044 0.80364 0.0
C1941 C 0.47778 0.50104 0.8 0.0
C1942 C 0.48484 0.50735 0.78669 0.0
H1943 H 0.54849 0.49257 0.76384 0.0
H1944 H 0.5319 0.49584 0.77869 0.0
H1945 H 0.5329 0.47221 0.76929 0.0
H1946 H 0.49729 0.46152 0.773 0.0
H1947 H 0.48472 0.45038 0.79602 0.0
H1948 H 0.04708 0.48589 0.80001 0.0
H1949 H 0.03585 0.47686 0.77595 0.0
H1950 H 0.98645 0.51657 0.78083 0.0
H1951 H 0.99749 0.52562 0.80476 0.0
H1952 H 0.97769 0.48031 0.76601 0.0
H1953 H 0.04354 0.5195 0.74458 0.0
H1954 H 0.04762 0.4988 0.75661 0.0
H1955 H 0.03641 0.5215 0.76308 0.0
C1956 C 0.0337 0.49249 0.796 0.0
C1957 C 0.02328 0.50665 0.8042 0.0
C1958 C 0.0273 0.48728 0.78229 0.0
C1959 C 0.0105 0.4963 0.77657 0.0
C1960 C -0.00056 0.50942 0.78508 0.0
H1961 H 0.96794 0.54516 0.70217 0.0
H1962 H 0.9804 0.53407 0.72528 0.0
C1963 C 0.00575 0.51455 0.79878 0.0
C1964 C 0.00542 0.49408 0.76129 0.0
H1965 H 0.01929 0.5105 0.72824 0.0
C1966 C 0.98695 0.48645 0.75767 0.0
C1967 C 0.01754 0.50224 0.75048 0.0
C1968 C 0.03734 0.51111 0.7538 0.0
C1969 C 0.97985 0.48777 0.74361 0.0
C1970 C 0.99157 0.49693 0.73304 0.0
C1971 C 0.01045 0.50343 0.73646 0.0
C1972 C 0.98348 0.50285 0.71906 0.0
C1973 C 0.95944 0.48067 0.7403 0.0
C1974 C 0.98107 0.48885 0.70798 0.0
C1975 C 0.97409 0.49519 0.69464 0.0
C1976 C 0.96951 0.51561 0.69226 0.0
C1977 C 0.9717 0.52943 0.70354 0.0
C1978 C 0.97869 0.52311 0.71678 0.0
H1979 H 0.9522 0.47379 0.74973 0.0
H1980 H 0.95048 0.49357 0.73653 0.0
H1981 H 0.95989 0.46939 0.73154 0.0
H1982 H 0.98483 0.47316 0.70959 0.0
H1983 H 0.97266 0.48423 0.68613 0.0
H1984 H 0.04437 0.18113 0.14242 0.0
H1985 H 0.02979 0.21479 0.1411 0.0
H1986 H 0.00369 0.19971 0.10053 0.0
H1987 H 0.01808 0.16606 0.10179 0.0
H1988 H 0.02183 0.23764 0.10093 0.0
H1989 H 0.97157 0.22761 0.14699 0.0
H1990 H 0.99678 0.22249 0.15087 0.0
H1991 H 0.98381 0.20672 0.13846 0.0
C1992 C 0.03543 0.18495 0.13327 0.0
C1993 C 0.03235 0.17092 0.12223 0.0
C1994 C 0.02711 0.20416 0.13253 0.0
C1995 C 0.01545 0.2096 0.12082 0.0
C1996 C 0.01263 0.19577 0.10967 0.0
H1997 H 0.93725 0.31262 0.11411 0.0
H1998 H 0.95139 0.27872 0.11425 0.0
C1999 C 0.02095 0.17659 0.11038 0.0
C2000 C 0.00621 0.22974 0.12011 0.0
H2001 H 0.97367 0.26049 0.1371 0.0
C2002 C 0.01127 0.24264 0.10881 0.0
C2003 C 0.99224 0.23606 0.1303 0.0
C2004 C 0.9856 0.22246 0.14228 0.0
C2005 C 0.003 0.26191 0.1076 0.0
C2006 C 0.98949 0.26845 0.11804 0.0
C2007 C 0.98413 0.25542 0.12918 0.0
C2008 C 0.981 0.28892 0.11774 0.0
C2009 C 0.00862 0.27507 0.09511 0.0
C2010 C 0.99296 0.30579 0.11983 0.0
C2011 C 0.98494 0.32512 0.11991 0.0
C2012 C 0.96476 0.32798 0.11789 0.0
C2013 C 0.9528 0.31098 0.11584 0.0
C2014 C 0.96085 0.29161 0.11583 0.0
H2015 H 0.01549 0.26622 0.08637 0.0
H2016 H 0.99567 0.28308 0.09078 0.0
H2017 H 0.01929 0.28657 0.09875 0.0
H2018 H 0.0085 0.30397 0.12161 0.0
H2019 H 0.99453 0.33781 0.12185 0.0
H2020 H 0.46843 0.82904 0.09914 0.0
H2021 H 0.48185 0.7949 0.09757 0.0
H2022 H 0.46234 0.78272 0.14054 0.0
H2023 H 0.44853 0.81666 0.1421 0.0
H2024 H 0.51095 0.7792 0.11603 0.0
H2025 H 0.44317 0.73343 0.11762 0.0
H2026 H 0.44318 0.75995 0.11325 0.0
H2027 H 0.44492 0.75196 0.13157 0.0
C2028 C 0.46664 0.81894 0.10814 0.0
C2029 C 0.45739 0.8255 0.12074 0.0
C2030 C 0.47442 0.79952 0.10726 0.0
C2031 C 0.4729 0.78627 0.11888 0.0
C2032 C 0.46339 0.79263 0.13137 0.0
H2033 H 0.51529 0.66906 0.14264 0.0
H2034 H 0.50059 0.70256 0.14123 0.0
C2035 C 0.45567 0.81207 0.13229 0.0
C2036 C 0.4823 0.76623 0.11833 0.0
H2037 H 0.4731 0.71587 0.12123 0.0
C2038 C 0.5027 0.76531 0.11703 0.0
C2039 C 0.47145 0.74822 0.11964 0.0
C2040 C 0.44945 0.74834 0.12047 0.0
C2041 C 0.51262 0.74683 0.1175 0.0
C2042 C 0.50178 0.72882 0.11906 0.0
C2043 C 0.48135 0.72973 0.1201 0.0
C2044 C 0.51135 0.70888 0.11996 0.0
C2045 C 0.53463 0.74678 0.1168 0.0
C2046 C 0.52228 0.70136 0.10845 0.0
C2047 C 0.53089 0.68231 0.10928 0.0
C2048 C 0.52859 0.67036 0.12159 0.0
C2049 C 0.51764 0.678 0.1331 0.0
C2050 C 0.50907 0.69705 0.13227 0.0
H2051 H 0.54085 0.76191 0.11908 0.0
H2052 H 0.54086 0.73581 0.12452 0.0
H2053 H 0.53931 0.74228 0.1059 0.0
H2054 H 0.52396 0.71013 0.09876 0.0
H2055 H 0.53933 0.67692 0.10026 0.0
H2056 H 0.44231 0.68537 0.37417 0.0
H2057 H 0.457 0.71898 0.37328 0.0
H2058 H 0.5056 0.69522 0.3493 0.0
H2059 H 0.49135 0.66149 0.35051 0.0
H2060 H 0.51669 0.71931 0.37234 0.0
H2061 H 0.46073 0.75725 0.33889 0.0
H2062 H 0.45112 0.74458 0.35434 0.0
H2063 H 0.46246 0.73017 0.34034 0.0
C2064 C 0.45612 0.6873 0.36871 0.0
C2065 C 0.46562 0.67077 0.36236 0.0
C2066 C 0.46439 0.70654 0.36809 0.0
C2067 C 0.48224 0.7096 0.36106 0.0
C2068 C 0.49174 0.69317 0.35469 0.0
H2069 H 0.53398 0.82539 0.33946 0.0
H2070 H 0.52031 0.79129 0.33882 0.0
C2071 C 0.48349 0.67395 0.35529 0.0
C2072 C 0.49144 0.72978 0.36082 0.0
H2073 H 0.48462 0.77828 0.34974 0.0
C2074 C 0.50974 0.7322 0.36735 0.0
C2075 C 0.48241 0.74648 0.35415 0.0
C2076 C 0.46318 0.74453 0.34641 0.0
C2077 C 0.51912 0.75099 0.36763 0.0
C2078 C 0.50979 0.76784 0.36137 0.0
C2079 C 0.49166 0.76535 0.35461 0.0
C2080 C 0.51854 0.78823 0.36181 0.0
C2081 C 0.53902 0.75259 0.37446 0.0
C2082 C 0.52194 0.79781 0.37495 0.0
C2083 C 0.52971 0.81725 0.37534 0.0
C2084 C 0.53409 0.82755 0.3626 0.0
C2085 C 0.53063 0.8179 0.34945 0.0
C2086 C 0.52289 0.79843 0.34907 0.0
H2087 H 0.54628 0.73765 0.37524 0.0
H2088 H 0.54861 0.76294 0.36833 0.0
H2089 H 0.53742 0.75867 0.38545 0.0
H2090 H 0.51825 0.79037 0.3849 0.0
H2091 H 0.53183 0.82441 0.38563 0.0
H2092 H 0.00896 0.33593 0.38574 0.0
H2093 H 0.99546 0.30186 0.38633 0.0
H2094 H 0.04345 0.28054 0.36058 0.0
H2095 H 0.0571 0.31465 0.35995 0.0
H2096 H 0.00755 0.26802 0.35063 0.0
H2097 H 0.01439 0.25289 0.40873 0.0
H2098 H 0.00164 0.27583 0.40469 0.0
H2099 H 0.027 0.27338 0.40002 0.0
C2100 C 0.01683 0.32393 0.3804 0.0
C2101 C 0.03416 0.32796 0.37285 0.0
C2102 C 0.00909 0.30447 0.38075 0.0
C2103 C 0.01861 0.28864 0.37368 0.0
C2104 C 0.03592 0.29257 0.36616 0.0
H2105 H 0.99296 0.16121 0.3818 0.0
H2106 H 0.00769 0.19476 0.38236 0.0
C2107 C 0.04365 0.31205 0.36576 0.0
C2108 C 0.01002 0.26817 0.37358 0.0
H2109 H 0.99509 0.2298 0.39529 0.0
C2110 C 0.0049 0.25961 0.36038 0.0
C2111 C 0.00678 0.25717 0.38632 0.0
C2112 C 0.0129 0.26517 0.40074 0.0
C2113 C 0.99633 0.24044 0.35958 0.0
C2114 C 0.99245 0.22975 0.37235 0.0
C2115 C 0.99787 0.23816 0.38554 0.0
C2116 C 0.9832 0.20959 0.37223 0.0
C2117 C 0.99181 0.23169 0.34506 0.0
C2118 C 0.96441 0.20689 0.36655 0.0
C2119 C 0.95595 0.18773 0.3662 0.0
C2120 C 0.96605 0.17099 0.3717 0.0
C2121 C 0.98472 0.17384 0.37763 0.0
C2122 C 0.99319 0.19297 0.37791 0.0
H2123 H 0.00023 0.2393 0.33646 0.0
H2124 H 0.99511 0.21531 0.34474 0.0
H2125 H 0.97605 0.23374 0.34274 0.0
H2126 H 0.95628 0.21961 0.36241 0.0
H2127 H 0.94143 0.18603 0.36176 0.0
H2128 H 0.05682 0.68297 0.87725 0.0
H2129 H 0.04263 0.71687 0.87832 0.0
H2130 H 0.98922 0.69433 0.85989 0.0
H2131 H 0.0032 0.66038 0.85891 0.0
H2132 H 0.0256 0.73973 0.85383 0.0
H2133 H 0.97335 0.72424 0.89806 0.0
H2134 H 0.99466 0.70882 0.89486 0.0
H2135 H 0.97367 0.7065 0.8835 0.0
C2136 C 0.04203 0.68524 0.87348 0.0
C2137 C 0.0311 0.66904 0.86801 0.0
C2138 C 0.034 0.70458 0.87405 0.0
C2139 C 0.01485 0.70797 0.86932 0.0
C2140 C 0.00397 0.69191 0.86372 0.0
H2141 H 0.93905 0.8128 0.86801 0.0
H2142 H 0.9529 0.77886 0.86664 0.0
C2143 C 0.01203 0.6726 0.86305 0.0
C2144 C 0.00632 0.72838 0.8701 0.0
H2145 H 0.97146 0.75624 0.88709 0.0
C2146 C 0.0138 0.74342 0.86111 0.0
C2147 C 0.99087 0.73298 0.87957 0.0
C2148 C 0.98268 0.71738 0.88964 0.0
C2149 C 0.00602 0.76298 0.8612 0.0
C2150 C 0.99071 0.76769 0.8708 0.0
C2151 C 0.98321 0.75259 0.87976 0.0
C2152 C 0.98234 0.78824 0.87175 0.0
C2153 C 0.01399 0.77826 0.85077 0.0
C2154 C 0.99424 0.80469 0.87531 0.0
C2155 C 0.98644 0.82411 0.87592 0.0
C2156 C 0.96649 0.82744 0.87317 0.0
C2157 C 0.95452 0.81082 0.86995 0.0
C2158 C 0.96237 0.7914 0.86926 0.0
H2159 H 0.0214 0.77088 0.84158 0.0
H2160 H 0.00222 0.78814 0.84659 0.0
H2161 H 0.0249 0.78787 0.85629 0.0
H2162 H 0.0096 0.80253 0.87758 0.0
H2163 H 0.99615 0.83654 0.87829 0.0
H2164 H 0.44215 0.31455 0.88475 0.0
H2165 H 0.45616 0.28056 0.88519 0.0
H2166 H 0.50585 0.30162 0.86116 0.0
H2167 H 0.49214 0.33568 0.86086 0.0
H2168 H 0.46731 0.25628 0.86054 0.0
H2169 H 0.52946 0.27295 0.89692 0.0
H2170 H 0.50828 0.28907 0.8956 0.0
H2171 H 0.5267 0.28971 0.88195 0.0
C2172 C 0.45613 0.31196 0.87966 0.0
C2173 C 0.46607 0.32778 0.87279 0.0
C2174 C 0.46405 0.29255 0.87987 0.0
C2175 C 0.48211 0.2887 0.87336 0.0
C2176 C 0.492 0.30439 0.8664 0.0
H2177 H 0.55574 0.18315 0.86427 0.0
H2178 H 0.54166 0.21704 0.86383 0.0
C2179 C 0.48405 0.32377 0.86612 0.0
C2180 C 0.49047 0.26816 0.8736 0.0
H2181 H 0.52888 0.24064 0.88621 0.0
C2182 C 0.48072 0.25279 0.86619 0.0
C2183 C 0.508 0.26378 0.88094 0.0
C2184 C 0.5187 0.27967 0.88941 0.0
C2185 C 0.48825 0.23314 0.8657 0.0
C2186 C 0.50575 0.2287 0.87311 0.0
C2187 C 0.51548 0.2441 0.88053 0.0
C2188 C 0.51418 0.20814 0.87334 0.0
C2189 C 0.47764 0.21745 0.85697 0.0
C2190 C 0.50349 0.19197 0.87899 0.0
C2191 C 0.51139 0.17258 0.87911 0.0
C2192 C 0.53027 0.16899 0.87373 0.0
C2193 C 0.54106 0.18532 0.86829 0.0
C2194 C 0.5331 0.20471 0.86812 0.0
H2195 H 0.4679 0.22445 0.84888 0.0
H2196 H 0.48808 0.20733 0.85141 0.0
H2197 H 0.46845 0.20814 0.86418 0.0
H2198 H 0.48902 0.19436 0.88334 0.0
H2199 H 0.50258 0.16035 0.88325 0.0
H2200 H 0.49352 0.16213 0.61893 0.0
H2201 H 0.50679 0.19634 0.61952 0.0
H2202 H 0.44842 0.22066 0.61951 0.0
H2203 H 0.43496 0.18641 0.61871 0.0
H2204 H 0.47611 0.23902 0.59942 0.0
H2205 H 0.50391 0.23442 0.65517 0.0
H2206 H 0.51086 0.21399 0.64361 0.0
H2207 H 0.48563 0.21739 0.64824 0.0
C2208 C 0.4835 0.17476 0.61892 0.0
C2209 C 0.46319 0.1716 0.61878 0.0
C2210 C 0.49111 0.19426 0.61939 0.0
C2211 C 0.47856 0.21094 0.61972 0.0
C2212 C 0.4583 0.20792 0.61934 0.0
H2213 H 0.50808 0.33495 0.63948 0.0
H2214 H 0.49378 0.3012 0.63874 0.0
C2215 C 0.45066 0.18839 0.61896 0.0
C2216 C 0.48666 0.23155 0.62043 0.0
H2217 H 0.51302 0.26322 0.64173 0.0
C2218 C 0.48413 0.24438 0.60867 0.0
C2219 C 0.49693 0.23845 0.63259 0.0
C2220 C 0.49941 0.22545 0.64569 0.0
C2221 C 0.49198 0.26392 0.60863 0.0
C2222 C 0.50272 0.27063 0.62064 0.0
C2223 C 0.50491 0.25792 0.63251 0.0
C2224 C 0.51166 0.2909 0.62114 0.0
C2225 C 0.48855 0.27731 0.59584 0.0
C2226 C 0.52667 0.2961 0.61164 0.0
C2227 C 0.53501 0.3153 0.61211 0.0
C2228 C 0.52849 0.32963 0.62213 0.0
C2229 C 0.51362 0.32421 0.63177 0.0
C2230 C 0.50534 0.30499 0.6313 0.0
H2231 H 0.47642 0.27167 0.58904 0.0
H2232 H 0.48516 0.29295 0.59925 0.0
H2233 H 0.502 0.27775 0.58923 0.0
H2234 H 0.53201 0.28526 0.60391 0.0
H2235 H 0.54665 0.31888 0.6047 0.0
H2236 H 0.04731 0.81862 0.64427 0.0
H2237 H 0.03333 0.78468 0.64536 0.0
H2238 H 0.99712 0.79811 0.60887 0.0
H2239 H 0.01048 0.83221 0.608 0.0
H2240 H 0.9769 0.7798 0.63104 0.0
H2241 H 0.04484 0.73792 0.61797 0.0
H2242 H 0.04689 0.75492 0.63284 0.0
H2243 H 0.04244 0.76474 0.61524 0.0
C2244 C 0.0363 0.81437 0.63653 0.0
C2245 C 0.0301 0.82808 0.62599 0.0
C2246 C 0.02848 0.79492 0.63707 0.0
C2247 C 0.01441 0.78882 0.62706 0.0
C2248 C 0.00808 0.8025 0.61663 0.0
H2249 H 0.97526 0.66928 0.60529 0.0
H2250 H 0.98912 0.70316 0.606 0.0
C2251 C 0.01586 0.82192 0.61607 0.0
C2252 C 0.00592 0.76831 0.62757 0.0
H2253 H 0.01724 0.71842 0.62436 0.0
C2254 C 0.9857 0.76635 0.62961 0.0
C2255 C 0.01744 0.75086 0.62553 0.0
C2256 C 0.03908 0.75212 0.62264 0.0
C2257 C 0.97667 0.74738 0.62967 0.0
C2258 C 0.98824 0.7299 0.62789 0.0
C2259 C 0.00845 0.73186 0.62584 0.0
C2260 C 0.97956 0.70947 0.62759 0.0
C2261 C 0.95476 0.74624 0.63125 0.0
C2262 C 0.96969 0.70174 0.63953 0.0
C2263 C 0.96154 0.68243 0.63911 0.0
C2264 C 0.96324 0.67046 0.62675 0.0
C2265 C 0.97334 0.67822 0.61487 0.0
C2266 C 0.98144 0.69752 0.6153 0.0
H2267 H 0.94767 0.76096 0.62901 0.0
H2268 H 0.94851 0.73473 0.62394 0.0
H2269 H 0.95111 0.74187 0.64238 0.0
H2270 H 0.96837 0.7106 0.64921 0.0
H2271 H 0.95379 0.67693 0.64842 0.0
H2272 H 0.99324 0.96157 0.94316 0.0
H2273 H 0.00384 0.97305 0.96674 0.0
H2274 H 0.95801 0.01763 0.967 0.0
H2275 H 0.94727 0.00619 0.94337 0.0
H2276 H 0.01631 0.01102 0.97547 0.0
H2277 H 0.94935 0.98739 0.0046 0.0
H2278 H 0.95475 0.979 0.98668 0.0
H2279 H 0.9452 0.00387 0.98967 0.0
C2280 C 0.98553 0.97394 0.94818 0.0
C2281 C 0.96939 0.98296 0.94145 0.0
C2282 C 0.99154 0.98041 0.96166 0.0
C2283 C 0.98151 0.99595 0.96868 0.0
C2284 C 0.96565 0.00529 0.96188 0.0
H2285 H 0.00104 0.05133 0.05188 0.0
H2286 H 0.98908 0.04322 0.02786 0.0
C2287 C 0.95957 0.99878 0.9484 0.0
C2288 C 0.98784 0.00238 0.98308 0.0
H2289 H 0.97327 0.00495 0.01793 0.0
C2290 C 0.00691 0.00971 0.98476 0.0
C2291 C 0.97549 0.00065 0.99514 0.0
C2292 C 0.95511 0.99214 0.99402 0.0
C2293 C 0.014 0.01537 -0.00178 0.0
C2294 C 0.00175 0.0134 0.01029 0.0
C2295 C 0.98258 0.0064 0.0086 0.0
C2296 C 0.00878 0.0181 0.02482 0.0
C2297 C 0.0345 0.02354 -0.00056 0.0
C2298 C 0.02355 0.00641 0.03106 0.0
C2299 C 0.03039 0.01099 0.04473 0.0
C2300 C 0.02256 0.02734 0.05236 0.0
C2301 C 0.00752 0.03882 0.04615 0.0
C2302 C 0.00062 0.03416 0.0325 0.0
H2303 H 0.04031 0.02849 0.98892 0.0
H2304 H 0.03502 0.03647 0.00698 0.0
H2305 H 0.04424 0.01157 0.00365 0.0
H2306 H 0.02981 0.99378 0.02533 0.0
H2307 H 0.04207 0.00198 0.04921 0.0
H2308 H 0.55829 0.01164 0.95102 0.0
H2309 H 0.54801 0.00201 0.97511 0.0
H2310 H 0.48769 0.00816 0.96267 0.0
H2311 H 0.49778 0.01747 0.93847 0.0
H2312 H 0.49951 0.02995 0.98812 0.0
H2313 H 0.52123 0.94915 0.98916 0.0
H2314 H 0.53947 0.96665 0.98305 0.0
H2315 H 0.51771 0.96292 0.97269 0.0
C2316 C 0.54283 0.01051 0.95331 0.0
C2317 C 0.52884 0.01532 0.94284 0.0
C2318 C 0.53701 0.00506 0.96708 0.0
C2319 C 0.51712 0.00427 0.97058 0.0
C2320 C 0.50311 0.0087 0.96012 0.0
H2321 H 0.4482 0.98529 0.04639 0.0
H2322 H 0.46064 0.99418 0.02274 0.0
C2323 C 0.50891 0.0141 0.94635 0.0
C2324 C 0.51092 -3e-05 0.98536 0.0
H2325 H 0.5098 0.96322 0.01082 0.0
C2326 C 0.5017 0.01537 0.9931 0.0
C2327 C 0.51403 0.98099 0.99179 0.0
C2328 C 0.52352 0.96388 0.98376 0.0
C2329 C 0.49551 0.01229 0.00721 0.0
C2330 C 0.49827 0.99317 0.01357 0.0
C2331 C 0.50772 0.97785 0.00588 0.0
C2332 C 0.49091 0.98855 0.02805 0.0
C2333 C 0.48635 0.02961 0.01523 0.0
C2334 C 0.50379 0.98212 0.03877 0.0
C2335 C 0.49672 0.97695 0.05228 0.0
C2336 C 0.47663 0.9781 0.05525 0.0
C2337 C 0.46379 0.98465 0.04449 0.0
C2338 C 0.47086 0.98972 0.03099 0.0
H2339 H 0.49046 0.04438 0.01051 0.0
H2340 H 0.47022 0.02824 0.01468 0.0
H2341 H 0.49072 0.0295 0.02666 0.0
H2342 H 0.51932 0.98105 0.03667 0.0
H2343 H 0.50695 0.97207 0.0604 0.0
H2344 H 0.48821 0.04242 0.54867 0.0
H2345 H 0.49915 0.03156 0.52501 0.0
H2346 H 0.46157 0.9795 0.52764 0.0
H2347 H 0.4503 0.99051 0.55125 0.0
H2348 H 0.51763 0.99767 0.5167 0.0
H2349 H 0.44582 0.00342 0.48956 0.0
H2350 H 0.45019 0.01374 0.50712 0.0
H2351 H 0.44554 0.98723 0.50493 0.0
C2352 C 0.48237 0.0286 0.54423 0.0
C2353 C 0.46838 0.01731 0.55174 0.0
C2354 C 0.48856 0.02247 0.53071 0.0
C2355 C 0.48092 0.00492 0.52448 0.0
C2356 C 0.46727 0.99337 0.5321 0.0
H2357 H 0.53349 0.94338 0.45218 0.0
H2358 H 0.52138 0.95293 0.47575 0.0
C2359 C 0.46092 -0.0004 0.54558 0.0
C2360 C 0.48752 0.99866 0.5101 0.0
H2361 H 0.47149 0.98811 0.47638 0.0
C2362 C 0.50756 0.99561 0.50786 0.0
C2363 C 0.47435 0.99629 0.49856 0.0
C2364 C 0.4528 0.00053 0.50009 0.0
C2365 C 0.51481 0.9901 0.49441 0.0
C2366 C 0.50158 0.98704 0.483 0.0
C2367 C 0.48156 0.99026 0.4852 0.0
C2368 C 0.50827 0.98085 0.46863 0.0
C2369 C 0.53661 0.98807 0.49248 0.0
C2370 C 0.50427 0.99302 0.45673 0.0
C2371 C 0.51081 0.98741 0.44317 0.0
C2372 C 0.52148 0.96949 0.44128 0.0
C2373 C 0.52517 0.95718 0.45322 0.0
C2374 C 0.51849 0.96274 0.46675 0.0
H2375 H 0.54478 0.99633 0.50091 0.0
H2376 H 0.54071 0.97192 0.4932 0.0
H2377 H 0.54128 0.99383 0.48188 0.0
H2378 H 0.49623 0.00698 0.45796 0.0
H2379 H 0.50743 0.99705 0.43417 0.0
H2380 H 0.01547 0.0061 0.55668 0.0
H2381 H 0.00657 0.01631 0.53238 0.0
H2382 H 0.02312 0.95765 0.51663 0.0
H2383 H 0.03263 0.94755 0.54076 0.0
H2384 H 0.03728 0.98978 0.50003 0.0
H2385 H 0.95774 0.99668 0.51085 0.0
H2386 H 0.97321 0.01104 0.52256 0.0
H2387 H 0.97423 0.98398 0.52291 0.0
C2388 C 0.01733 0.99543 0.54803 0.0
C2389 C 0.02459 0.97596 0.55066 0.0
C2390 C 0.01208 0.00122 0.53419 0.0
C2391 C 0.01395 0.98762 0.52279 0.0
C2392 C 0.02146 0.96831 0.52533 0.0
H2393 H 0.95991 0.9927 0.43959 0.0
H2394 H 0.9719 0.98316 0.46327 0.0
C2395 C 0.02671 0.96251 0.53914 0.0
C2396 C 0.00807 0.99341 0.50816 0.0
H2397 H 0.96869 0.00677 0.48796 0.0
C2398 C 0.0223 0.99352 0.49736 0.0
C2399 C 0.98847 0.99803 0.50475 0.0
C2400 C 0.97246 0.99729 0.51583 0.0
C2401 C 0.01744 0.99825 0.48319 0.0
C2402 C 0.9979 0.00321 0.47983 0.0
C2403 C 0.98368 0.00302 0.49062 0.0
C2404 C 0.99175 0.00839 0.46515 0.0
C2405 C 0.03313 0.9975 0.47188 0.0
C2406 C -0.00096 0.02567 0.45838 0.0
C2407 C 0.9922 0.03119 0.44487 0.0
C2408 C 0.97783 0.01957 0.43798 0.0
C2409 C 0.97082 0.00206 0.44471 0.0
C2410 C 0.97769 0.99656 0.45819 0.0
H2411 H 0.04609 0.98883 0.47551 0.0
H2412 H 0.02749 0.99058 0.46188 0.0
H2413 H 0.03793 0.01307 0.46937 0.0
H2414 H 0.00963 0.0352 0.46371 0.0
H2415 H 0.99764 0.04492 0.44005 0.0
H2416 H 0.52917 0.49435 0.05176 0.0
H2417 H 0.51757 0.48726 0.02751 0.0
H2418 H 0.49054 0.5459 0.0257 0.0
H2419 H 0.5024 0.55329 0.04982 0.0
H2420 H 0.47799 0.48798 0.01702 0.0
H2421 H 0.52642 0.54321 0.98974 0.0
H2422 H 0.5308 0.53453 0.00776 0.0
H2423 H 0.51218 0.55296 0.00434 0.0
C2424 C 0.52081 0.50575 0.04617 0.0
C2425 C 0.51674 0.5244 0.05265 0.0
C2426 C 0.51415 0.50165 0.03237 0.0
C2427 C 0.50346 0.51618 0.02481 0.0
C2428 C 0.49901 0.53463 0.03134 0.0
H2429 H 0.43718 0.49699 0.94682 0.0
H2430 H 0.44793 0.50728 0.97069 0.0
C2431 C 0.50561 0.53872 0.04515 0.0
C2432 C 0.49692 0.51195 0.01009 0.0
H2433 H 0.50313 0.52636 0.97536 0.0
C2434 C 0.48343 0.49637 0.0079 0.0
C2435 C 0.50427 0.52284 -0.00174 0.0
C2436 C 0.51934 0.53923 5e-05 0.0
C2437 C 0.47693 0.49145 0.99413 0.0
C2438 C 0.48401 0.50257 0.98233 0.0
C2439 C 0.49763 0.51804 0.98449 0.0
C2440 C 0.47785 0.49784 0.9676 0.0
C2441 C 0.46284 0.47416 0.99226 0.0
C2442 C 0.49132 0.48975 0.95788 0.0
C2443 C 0.48524 0.48378 0.94428 0.0
C2444 C 0.46559 0.48592 0.94018 0.0
C2445 C 0.45233 0.49481 0.94977 0.0
C2446 C 0.45842 0.50073 0.96337 0.0
H2447 H 0.46191 0.46464 0.00201 0.0
H2448 H 0.44806 0.48023 0.98999 0.0
H2449 H 0.46722 0.46453 0.9831 0.0
H2450 H 0.5064 0.48746 0.96099 0.0
H2451 H 0.49576 0.47682 0.93719 0.0
H2452 H 0.94931 0.46469 0.04172 0.0
H2453 H 0.96175 0.47438 0.01829 0.0
H2454 H 0.00958 0.50589 0.03829 0.0
H2455 H 0.99669 0.49711 0.06188 0.0
H2456 H 0.99306 0.52765 0.01678 0.0
H2457 H 0.00852 0.44995 -0.00168 0.0
H2458 H 0.98368 0.45321 0.00392 0.0
H2459 H 0.00312 0.45581 0.01674 0.0
C2460 C 0.96233 0.47392 0.04118 0.0
C2461 C 0.97201 0.48013 0.0537 0.0
C2462 C 0.96959 0.47917 0.02776 0.0
C2463 C 0.9868 0.49047 0.02656 0.0
C2464 C 0.99637 0.49697 0.039 0.0
H2465 H 0.05062 0.50548 0.94684 0.0
H2466 H 0.04053 0.49653 0.97112 0.0
C2467 C 0.98905 0.49183 0.05246 0.0
C2468 C 0.99455 0.49584 0.01231 0.0
H2469 H 0.00899 0.47568 0.98046 0.0
C2470 C 0.99669 0.5163 0.00886 0.0
C2471 C -0.00043 0.48099 0.0021 0.0
C2472 C -0.00119 0.45876 0.00549 0.0
C2473 C 0.00321 0.52234 0.99531 0.0
C2474 C 0.00724 0.50749 0.98486 0.0
C2475 C 0.00562 0.48703 0.98844 0.0
C2476 C 0.0132 0.51285 0.97015 0.0
C2477 C 0.00593 0.54453 0.99239 0.0
C2478 C 0.001 0.52468 0.9615 0.0
C2479 C 0.00675 0.52985 0.94766 0.0
C2480 C 0.02467 0.52303 0.94218 0.0
C2481 C 0.03665 0.5108 0.95075 0.0
C2482 C 0.03095 0.50575 0.96462 0.0
H2483 H 0.00781 0.55323 0.00245 0.0
H2484 H 0.01882 0.54723 0.98545 0.0
H2485 H 0.9928 0.55043 0.98686 0.0
H2486 H 0.98699 0.52984 0.96543 0.0
H2487 H 0.99711 0.53905 0.9412 0.0
H2488 H 0.9612 0.48812 0.55383 0.0
H2489 H 0.97066 0.47847 0.5295 0.0
H2490 H 0.99457 0.53779 0.52258 0.0
H2491 H 0.98498 0.54765 0.54672 0.0
H2492 H 0.95887 0.49793 0.50337 0.0
H2493 H 0.03925 0.49903 0.51117 0.0
H2494 H 0.02226 0.49787 0.52591 0.0
H2495 H 0.02687 0.52142 0.51704 0.0
C2496 C 0.96846 0.49911 0.54712 0.0
C2497 C 0.97246 0.51861 0.55223 0.0
C2498 C 0.97389 0.49355 0.53327 0.0
C2499 C 0.98351 0.50736 0.52437 0.0
C2500 C 0.98751 0.52681 0.52942 0.0
H2501 H 0.02957 0.50873 0.43865 0.0
H2502 H 0.01788 0.51705 0.46266 0.0
C2503 C 0.98207 0.53239 0.54323 0.0
C2504 C 0.9889 0.50171 0.50963 0.0
H2505 H 0.02788 0.49657 0.48727 0.0
C2506 C 0.97395 0.49747 0.49983 0.0
C2507 C 0.00857 0.50122 0.50512 0.0
C2508 C 0.0252 0.50495 0.51537 0.0
C2509 C 0.97816 0.49325 0.48546 0.0
C2510 C 0.99785 0.49294 0.48092 0.0
C2511 C 0.01279 0.49695 0.49078 0.0
C2512 C 0.00342 0.48842 0.46599 0.0
C2513 C 0.96151 0.48972 0.4752 0.0
C2514 C -0.00097 0.46964 0.45991 0.0
C2515 C 0.00565 0.46488 0.4462 0.0
C2516 C 0.01695 0.47876 0.43843 0.0
C2517 C 0.02102 0.4977 0.44445 0.0
C2518 C 0.01432 0.50247 0.45813 0.0
H2519 H 0.9475 0.49572 0.47943 0.0
H2520 H 0.96447 0.49685 0.46468 0.0
H2521 H 0.9597 0.47328 0.47349 0.0
H2522 H 0.99103 0.45842 0.46594 0.0
H2523 H 0.00257 0.45005 0.44192 0.0
H2524 H 0.55156 0.50104 0.54893 0.0
H2525 H 0.54141 0.51275 0.52527 0.0
H2526 H 0.48787 0.47896 0.52909 0.0
H2527 H 0.49752 0.46782 0.55295 0.0
H2528 H 0.53382 0.48892 0.50179 0.0
H2529 H 0.46849 0.53393 0.51616 0.0
H2530 H 0.48633 0.52607 0.52923 0.0
H2531 H 0.46789 0.50876 0.52316 0.0
C2532 C 0.53743 0.49645 0.54486 0.0
C2533 C 0.52531 0.48354 0.55282 0.0
C2534 C 0.53174 0.50304 0.53131 0.0
C2535 C 0.5138 0.49691 0.52553 0.0
C2536 C 0.5016 0.48417 0.53348 0.0
H2537 H 0.45525 0.50538 0.44436 0.0
H2538 H 0.46666 0.49666 0.46838 0.0
C2539 C 0.50725 0.47762 0.54704 0.0
C2540 C 0.50829 0.50294 0.51086 0.0
H2541 H 0.47245 0.52588 0.49145 0.0
C2542 C 0.5205 0.49718 0.49952 0.0
C2543 C 0.49091 0.5137 0.50798 0.0
C2544 C 0.47774 0.52115 0.51978 0.0
C2545 C 0.5155 0.50141 0.4853 0.0
C2546 C 0.49794 0.5118 0.48243 0.0
C2547 C 0.48585 0.5178 0.49375 0.0
C2548 C 0.49172 0.51647 0.4677 0.0
C2549 C 0.52873 0.49431 0.47342 0.0
C2550 C 0.50212 0.53046 0.45944 0.0
C2551 C 0.49567 0.53544 0.44573 0.0
C2552 C 0.47874 0.52648 0.44008 0.0
C2553 C 0.4685 0.5123 0.44835 0.0
C2554 C 0.4749 0.50741 0.46208 0.0
H2555 H 0.53971 0.48324 0.47726 0.0
H2556 H 0.52008 0.48732 0.46469 0.0
H2557 H 0.53662 0.50743 0.46888 0.0
H2558 H 0.51503 0.53774 0.4637 0.0
H2559 H 0.5039 0.54633 0.43955 0.0
loop_
_geom_bond_atom_site_label_1
_geom_bond_atom_site_label_2
_geom_bond_distance
_geom_bond_site_symmetry_2
_ccdc_geom_bond_type
Li0 N17 1.990 . S
Li0 O60 1.956 . S
Li0 O61 1.970 . S
Li0 O62 1.961 . S
Li1 N25 1.990 . S
Li1 O60 1.970 . S
Li1 O61 1.956 . S
Li1 O63 1.961 . S
Li2 N47 1.990 . S
Li2 O60 1.961 . S
Li2 O62 1.956 . S
Li2 O63 1.970 . S
Li3 N53 1.990 . S
Li3 O61 1.961 . S
Li3 O62 1.970 . S
Li3 O63 1.956 . S
C4 C6 1.348 1_545 S
C4 C7 1.356 1_545 S
C4 O60 1.325 . S
N5 C8 1.314 . S
N5 C9 1.279 . S
C6 C4 1.348 1_565 S
C6 C8 1.353 . S
C6 H64 0.929 1_565 S
C7 C4 1.356 1_565 S
C7 C9 1.358 . S
C7 H65 0.916 1_565 S
C8 N5 1.314 . S
C8 C6 1.353 . S
C8 H66 0.930 . S
C9 N5 1.279 . S
C9 C7 1.358 . S
C9 H67 0.930 . S
C10 C13 1.348 . S
C10 C14 1.356 . S
C10 O61 1.325 . S
C11 N12 1.279 . S
C11 C14 1.358 . S
C11 H68 0.930 . S
N12 C11 1.279 . S
N12 C15 1.314 . S
C13 C10 1.348 . S
C13 C15 1.353 . S
C13 H69 0.929 . S
C14 C10 1.356 . S
C14 C11 1.358 . S
C14 H70 0.930 . S
C15 N12 1.314 . S
C15 C13 1.353 . S
C15 H71 0.930 . S
C16 N17 1.314 . S
C16 C21 1.353 . S
C16 H22 0.930 . S
N17 Li0 1.990 . S
N17 C16 1.314 . S
N17 C19 1.279 . S
C18 C19 1.358 1_565 S
C18 C20 1.356 1_565 S
C18 H72 0.930 . S
C19 N17 1.279 . S
C19 C18 1.358 1_545 S
C19 H23 0.956 . S
C20 C18 1.356 1_545 S
C20 C21 1.348 . S
C21 C16 1.353 . S
C21 C20 1.348 . S
C21 H73 0.929 . S
H22 C16 0.930 . S
H23 C19 0.956 . S
C24 N25 1.314 . S
C24 C26 1.353 . S
C24 H30 0.930 . S
N25 Li1 1.990 . S
N25 C24 1.314 . S
N25 C28 1.279 . S
C26 C24 1.353 . S
C26 C29 1.348 . S
C26 H74 0.929 . S
C27 C28 1.358 . S
C27 C29 1.356 . S
C27 H75 0.930 . S
C28 N25 1.279 . S
C28 C27 1.358 . S
C28 H31 0.930 . S
C29 C26 1.348 . S
C29 C27 1.356 . S
H30 C24 0.930 . S
H31 C28 0.930 . S
C32 C34 1.348 . S
C32 C35 1.356 1_455 S
C32 O62 1.325 . S
N33 C36 1.314 . S
N33 C37 1.279 . S
C34 C32 1.348 . S
C34 C36 1.353 1_455 S
C34 H76 0.929 . S
C35 C32 1.356 1_655 S
C35 C37 1.359 . S
C35 H77 0.929 1_655 S
C36 N33 1.314 . S
C36 C34 1.353 1_655 S
C36 H78 0.930 . S
C37 N33 1.279 . S
C37 C35 1.359 . S
C37 H79 0.930 . S
C38 C39 1.348 . S
C38 C40 1.356 . S
C38 O63 1.325 . S
C39 C38 1.348 . S
C39 C41 1.353 . S
C39 H80 0.929 . S
C40 C38 1.356 . S
C40 C42 1.358 . S
C40 H81 0.930 . S
C41 C39 1.353 . S
C41 N43 1.314 . S
C41 H82 0.930 . S
C42 C40 1.358 . S
C42 N43 1.279 . S
C42 H83 0.930 . S
N43 C41 1.314 . S
N43 C42 1.279 . S
C44 C46 1.353 . S
C44 N47 1.314 . S
C44 H50 0.930 . S
C45 N47 1.279 . S
C45 C48 1.358 . S
C45 H51 0.930 . S
C46 C44 1.353 . S
C46 C49 1.348 . S
C46 H84 0.929 . S
N47 Li2 1.990 . S
N47 C44 1.314 . S
N47 C45 1.279 . S
C48 C45 1.358 . S
C48 C49 1.356 . S
C48 H85 0.930 1_455 S
C49 C46 1.348 . S
C49 C48 1.356 . S
H50 C44 0.930 . S
H51 C45 0.930 . S
C52 N53 1.314 . S
C52 C54 1.353 . S
C52 H58 0.930 . S
N53 Li3 1.990 . S
N53 C52 1.314 . S
N53 C56 1.279 . S
C54 C52 1.353 . S
C54 C57 1.348 . S
C54 H86 0.929 . S
C55 C56 1.358 . S
C55 C57 1.356 . S
C55 H87 0.930 . S
C56 N53 1.279 . S
C56 C55 1.358 . S
C56 H59 0.930 . S
C57 C54 1.348 . S
C57 C55 1.356 . S
H58 C52 0.930 . S
H59 C56 0.930 . S
O60 Li0 1.956 . S
O60 Li1 1.970 . S
O60 Li2 1.961 . S
O60 C4 1.325 . S
O61 Li0 1.970 . S
O61 Li1 1.956 . S
O61 Li3 1.961 . S
O61 C10 1.325 . S
O62 Li0 1.961 . S
O62 Li2 1.956 . S
O62 Li3 1.970 . S
O62 C32 1.325 . S
O63 Li1 1.961 . S
O63 Li2 1.970 . S
O63 Li3 1.956 . S
O63 C38 1.325 . S
H64 C6 0.929 1_545 S
H65 C7 0.916 1_545 S
H66 C8 0.930 . S
H67 C9 0.930 . S
H68 C11 0.930 . S
H69 C13 0.929 . S
H70 C14 0.930 . S
H71 C15 0.930 . S
H72 C18 0.930 . S
H73 C21 0.929 . S
H74 C26 0.929 . S
H75 C27 0.930 . S
H76 C34 0.929 . S
H77 C35 0.929 1_455 S
H78 C36 0.930 . S
H79 C37 0.930 . S
H80 C39 0.929 . S
H81 C40 0.930 . S
H82 C41 0.930 . S
H83 C42 0.930 . S
H84 C46 0.929 . S
H85 C48 0.930 1_655 S
H86 C54 0.929 . S
H87 C55 0.930 . S
Li88 N105 1.990 . S
Li88 O148 1.956 . S
Li88 O149 1.970 . S
Li88 O150 1.961 . S
Li89 N113 1.990 . S
Li89 O148 1.970 . S
Li89 O149 1.956 . S
Li89 O151 1.961 . S
Li90 N135 1.990 . S
Li90 O148 1.961 . S
Li90 O150 1.956 . S
Li90 O151 1.970 . S
Li91 N141 1.990 . S
Li91 O149 1.961 . S
Li91 O150 1.970 . S
Li91 O151 1.956 . S
C92 C94 1.348 . S
C92 C95 1.356 . S
C92 O148 1.325 . S
N93 C96 1.314 . S
N93 C97 1.279 . S
C94 C92 1.348 . S
C94 C96 1.353 . S
C94 H152 0.929 . S
C95 C92 1.356 . S
C95 C97 1.358 . S
C95 H153 0.930 . S
C96 N93 1.314 . S
C96 C94 1.353 . S
C96 H154 0.930 . S
C97 N93 1.279 . S
C97 C95 1.358 . S
C97 H155 0.930 . S
C98 C101 1.348 . S
C98 C102 1.356 . S
C98 O149 1.325 . S
C99 N100 1.279 . S
C99 C102 1.358 . S
C99 H156 0.930 . S
N100 C99 1.279 . S
N100 C103 1.314 . S
C101 C98 1.348 . S
C101 C103 1.353 . S
C101 H157 0.929 . S
C102 C98 1.356 . S
C102 C99 1.358 . S
C102 H158 0.930 . S
C103 N100 1.314 . S
C103 C101 1.353 . S
C103 H159 0.930 . S
C104 N105 1.314 . S
C104 C109 1.353 . S
C104 H110 0.930 . S
N105 Li88 1.990 . S
N105 C104 1.314 . S
N105 C107 1.279 . S
C106 C107 1.358 . S
C106 C108 1.356 . S
C106 H160 0.930 . S
C107 N105 1.279 . S
C107 C106 1.358 . S
C107 H111 0.930 . S
C108 C106 1.356 . S
C108 C109 1.348 . S
C109 C104 1.353 . S
C109 C108 1.348 . S
C109 H161 0.929 . S
H110 C104 0.930 . S
H111 C107 0.930 . S
C112 N113 1.314 . S
C112 C114 1.353 . S
C112 H118 0.930 . S
N113 Li89 1.990 . S
N113 C112 1.314 . S
N113 C116 1.279 . S
C114 C112 1.353 . S
C114 C117 1.348 . S
C114 H162 0.929 . S
C115 C116 1.358 . S
C115 C117 1.356 . S
C115 H163 0.930 . S
C116 N113 1.279 . S
C116 C115 1.358 . S
C116 H119 0.930 . S
C117 C114 1.348 . S
C117 C115 1.356 . S
H118 C112 0.930 . S
H119 C116 0.930 . S
C120 C122 1.348 . S
C120 C123 1.356 . S
C120 O150 1.325 . S
N121 C124 1.314 . S
N121 C125 1.279 . S
C122 C120 1.348 . S
C122 C124 1.353 . S
C122 H164 0.929 . S
C123 C120 1.356 . S
C123 C125 1.358 . S
C123 H165 0.930 . S
C124 N121 1.314 . S
C124 C122 1.353 . S
C124 H166 0.930 . S
C125 N121 1.279 . S
C125 C123 1.358 . S
C125 H167 0.930 . S
C126 C127 1.348 1_565 S
C126 C128 1.356 1_565 S
C126 O151 1.325 . S
C127 C126 1.348 1_545 S
C127 C129 1.353 . S
C127 H168 0.929 1_545 S
C128 C126 1.356 1_545 S
C128 C130 1.358 . S
C128 H169 0.916 1_545 S
C129 C127 1.353 . S
C129 N131 1.314 . S
C129 H170 0.930 . S
C130 C128 1.358 . S
C130 N131 1.279 . S
C130 H171 0.930 . S
N131 C129 1.314 . S
N131 C130 1.279 . S
C132 C134 1.353 . S
C132 N135 1.314 . S
C132 H138 0.930 . S
C133 N135 1.279 . S
C133 C136 1.358 . S
C133 H139 0.930 . S
C134 C132 1.353 . S
C134 C137 1.348 . S
C134 H172 0.929 . S
N135 Li90 1.990 . S
N135 C132 1.314 . S
N135 C133 1.279 . S
C136 C133 1.358 . S
C136 C137 1.356 . S
C136 H173 0.930 . S
C137 C134 1.348 . S
C137 C136 1.356 . S
H138 C132 0.930 . S
H139 C133 0.930 . S
C140 N141 1.314 . S
C140 C142 1.353 . S
C140 H146 0.930 . S
N141 Li91 1.990 . S
N141 C140 1.314 . S
N141 C144 1.279 . S
C142 C140 1.353 . S
C142 C145 1.348 . S
C142 H174 0.929 . S
C143 C144 1.358 1_545 S
C143 C145 1.356 1_545 S
C143 H175 0.930 . S
C144 N141 1.279 . S
C144 C143 1.358 1_565 S
C144 H147 0.956 . S
C145 C142 1.348 . S
C145 C143 1.356 1_565 S
H146 C140 0.930 . S
H147 C144 0.956 . S
O148 Li88 1.956 . S
O148 Li89 1.970 . S
O148 Li90 1.961 . S
O148 C92 1.325 . S
O149 Li88 1.970 . S
O149 Li89 1.956 . S
O149 Li91 1.961 . S
O149 C98 1.325 . S
O150 Li88 1.961 . S
O150 Li90 1.956 . S
O150 Li91 1.970 . S
O150 C120 1.325 . S
O151 Li89 1.961 . S
O151 Li90 1.970 . S
O151 Li91 1.956 . S
O151 C126 1.325 . S
H152 C94 0.929 . S
H153 C95 0.930 . S
H154 C96 0.930 . S
H155 C97 0.930 . S
H156 C99 0.930 . S
H157 C101 0.929 . S
H158 C102 0.930 . S
H159 C103 0.930 . S
H160 C106 0.930 . S
H161 C109 0.929 . S
H162 C114 0.929 . S
H163 C115 0.930 . S
H164 C122 0.929 . S
H165 C123 0.930 . S
H166 C124 0.930 . S
H167 C125 0.930 . S
H168 C127 0.929 1_565 S
H169 C128 0.916 1_565 S
H170 C129 0.930 . S
H171 C130 0.930 . S
H172 C134 0.929 . S
H173 C136 0.930 . S
H174 C142 0.929 . S
H175 C143 0.930 . S
Li176 N193 1.990 . S
Li176 O236 1.956 . S
Li176 O237 1.970 . S
Li176 O238 1.961 . S
Li177 N201 1.990 . S
Li177 O236 1.970 . S
Li177 O237 1.956 . S
Li177 O239 1.961 . S
Li178 N223 1.990 . S
Li178 O236 1.961 . S
Li178 O238 1.956 . S
Li178 O239 1.970 . S
Li179 N229 1.990 . S
Li179 O237 1.961 . S
Li179 O238 1.970 . S
Li179 O239 1.956 . S
C180 C182 1.348 . S
C180 C183 1.356 . S
C180 O236 1.325 . S
N181 C184 1.314 . S
N181 C185 1.279 . S
C182 C180 1.348 . S
C182 C184 1.353 . S
C182 H240 0.929 . S
C183 C180 1.356 . S
C183 C185 1.358 . S
C183 H241 0.930 . S
C184 N181 1.314 . S
C184 C182 1.353 . S
C184 H242 0.930 . S
C185 N181 1.279 . S
C185 C183 1.358 . S
C185 H243 0.930 . S
C186 C189 1.348 1_565 S
C186 C190 1.356 1_565 S
C186 O237 1.325 . S
C187 N188 1.279 . S
C187 C190 1.358 . S
C187 H244 0.930 . S
N188 C187 1.279 . S
N188 C191 1.314 . S
C189 C186 1.348 1_545 S
C189 C191 1.353 . S
C189 H245 0.929 1_545 S
C190 C186 1.356 1_545 S
C190 C187 1.358 . S
C190 H246 0.916 1_545 S
C191 N188 1.314 . S
C191 C189 1.353 . S
C191 H247 0.930 . S
C192 N193 1.314 . S
C192 C197 1.353 . S
C192 H198 0.930 . S
N193 Li176 1.990 . S
N193 C192 1.314 . S
N193 C195 1.279 . S
C194 C195 1.358 . S
C194 C196 1.356 . S
C194 H248 0.930 . S
C195 N193 1.279 . S
C195 C194 1.358 . S
C195 H199 0.930 . S
C196 C194 1.356 . S
C196 C197 1.348 . S
C197 C192 1.353 . S
C197 C196 1.348 . S
C197 H249 0.929 . S
H198 C192 0.930 . S
H199 C195 0.930 . S
C200 N201 1.314 . S
C200 C202 1.353 . S
C200 H206 0.930 . S
N201 Li177 1.990 . S
N201 C200 1.314 . S
N201 C204 1.279 . S
C202 C200 1.353 . S
C202 C205 1.348 . S
C202 H250 0.929 . S
C203 C204 1.358 1_545 S
C203 C205 1.356 1_545 S
C203 H251 0.930 . S
C204 N201 1.279 . S
C204 C203 1.358 1_565 S
C204 H207 0.956 . S
C205 C202 1.348 . S
C205 C203 1.356 1_565 S
H206 C200 0.930 . S
H207 C204 0.956 . S
C208 C210 1.348 . S
C208 C211 1.356 . S
C208 O238 1.325 . S
N209 C212 1.314 . S
N209 C213 1.279 . S
C210 C208 1.348 . S
C210 C212 1.353 . S
C210 H252 0.929 . S
C211 C208 1.356 . S
C211 C213 1.358 . S
C211 H253 0.930 . S
C212 N209 1.314 . S
C212 C210 1.353 . S
C212 H254 0.930 . S
C213 N209 1.279 . S
C213 C211 1.358 . S
C213 H255 0.930 . S
C214 C215 1.348 . S
C214 C216 1.356 . S
C214 O239 1.325 . S
C215 C214 1.348 . S
C215 C217 1.353 . S
C215 H256 0.929 . S
C216 C214 1.356 . S
C216 C218 1.358 . S
C216 H257 0.930 . S
C217 C215 1.353 . S
C217 N219 1.314 . S
C217 H258 0.930 . S
C218 C216 1.358 . S
C218 N219 1.279 . S
C218 H259 0.930 . S
N219 C217 1.314 . S
N219 C218 1.279 . S
C220 C222 1.353 . S
C220 N223 1.314 . S
C220 H226 0.930 . S
C221 N223 1.279 . S
C221 C224 1.358 . S
C221 H227 0.930 . S
C222 C220 1.353 . S
C222 C225 1.348 . S
C222 H260 0.929 . S
N223 Li178 1.990 . S
N223 C220 1.314 . S
N223 C221 1.279 . S
C224 C221 1.358 . S
C224 C225 1.356 . S
C224 H261 0.930 . S
C225 C222 1.348 . S
C225 C224 1.356 . S
H226 C220 0.930 . S
H227 C221 0.930 . S
C228 N229 1.314 . S
C228 C230 1.353 . S
C228 H234 0.930 . S
N229 Li179 1.990 . S
N229 C228 1.314 . S
N229 C232 1.279 . S
C230 C228 1.353 . S
C230 C233 1.348 . S
C230 H262 0.929 . S
C231 C232 1.358 . S
C231 C233 1.356 . S
C231 H263 0.930 . S
C232 N229 1.279 . S
C232 C231 1.358 . S
C232 H235 0.930 . S
C233 C230 1.348 . S
C233 C231 1.356 . S
H234 C228 0.930 . S
H235 C232 0.930 . S
O236 Li176 1.956 . S
O236 Li177 1.970 . S
O236 Li178 1.961 . S
O236 C180 1.325 . S
O237 Li176 1.970 . S
O237 Li177 1.956 . S
O237 Li179 1.961 . S
O237 C186 1.325 . S
O238 Li176 1.961 . S
O238 Li178 1.956 . S
O238 Li179 1.970 . S
O238 C208 1.325 . S
O239 Li177 1.961 . S
O239 Li178 1.970 . S
O239 Li179 1.956 . S
O239 C214 1.325 . S
H240 C182 0.929 . S
H241 C183 0.930 . S
H242 C184 0.930 . S
H243 C185 0.930 . S
H244 C187 0.930 . S
H245 C189 0.929 1_565 S
H246 C190 0.916 1_565 S
H247 C191 0.930 . S
H248 C194 0.930 . S
H249 C197 0.929 . S
H250 C202 0.929 . S
H251 C203 0.930 . S
H252 C210 0.929 . S
H253 C211 0.930 . S
H254 C212 0.930 . S
H255 C213 0.930 . S
H256 C215 0.929 . S
H257 C216 0.930 . S
H258 C217 0.930 . S
H259 C218 0.930 . S
H260 C222 0.929 . S
H261 C224 0.930 . S
H262 C230 0.929 . S
H263 C231 0.930 . S
Li264 N281 1.990 . S
Li264 O324 1.956 . S
Li264 O325 1.970 . S
Li264 O326 1.961 . S
Li265 N289 1.990 . S
Li265 O324 1.970 . S
Li265 O325 1.956 . S
Li265 O327 1.961 . S
Li266 N311 1.990 . S
Li266 O324 1.961 . S
Li266 O326 1.956 . S
Li266 O327 1.970 . S
Li267 N317 1.990 . S
Li267 O325 1.961 . S
Li267 O326 1.970 . S
Li267 O327 1.956 . S
C268 C270 1.348 1_545 S
C268 C271 1.356 1_545 S
C268 O324 1.325 . S
N269 C272 1.314 . S
N269 C273 1.279 . S
C270 C268 1.348 1_565 S
C270 C272 1.353 . S
C270 H328 0.929 1_565 S
C271 C268 1.356 1_565 S
C271 C273 1.358 . S
C271 H329 0.916 1_565 S
C272 N269 1.314 . S
C272 C270 1.353 . S
C272 H330 0.930 . S
C273 N269 1.279 . S
C273 C271 1.358 . S
C273 H331 0.930 . S
C274 C277 1.348 . S
C274 C278 1.356 . S
C274 O325 1.325 . S
C275 N276 1.279 . S
C275 C278 1.358 . S
C275 H332 0.930 . S
N276 C275 1.279 . S
N276 C279 1.314 . S
C277 C274 1.348 . S
C277 C279 1.353 . S
C277 H333 0.929 . S
C278 C274 1.356 . S
C278 C275 1.358 . S
C278 H334 0.930 . S
C279 N276 1.314 . S
C279 C277 1.353 . S
C279 H335 0.930 . S
C280 N281 1.314 . S
C280 C285 1.353 . S
C280 H286 0.930 . S
N281 Li264 1.990 . S
N281 C280 1.314 . S
N281 C283 1.279 . S
C282 C283 1.358 1_565 S
C282 C284 1.356 1_565 S
C282 H336 0.930 . S
C283 N281 1.279 . S
C283 C282 1.358 1_545 S
C283 H287 0.956 . S
C284 C282 1.356 1_545 S
C284 C285 1.348 . S
C285 C280 1.353 . S
C285 C284 1.348 . S
C285 H337 0.929 . S
H286 C280 0.930 . S
H287 C283 0.956 . S
C288 N289 1.314 . S
C288 C290 1.353 . S
C288 H294 0.930 . S
N289 Li265 1.990 . S
N289 C288 1.314 . S
N289 C292 1.279 . S
C290 C288 1.353 . S
C290 C293 1.348 . S
C290 H338 0.929 . S
C291 C292 1.358 . S
C291 C293 1.356 . S
C291 H339 0.930 . S
C292 N289 1.279 . S
C292 C291 1.358 . S
C292 H295 0.930 . S
C293 C290 1.348 . S
C293 C291 1.356 . S
H294 C288 0.930 . S
H295 C292 0.930 . S
C296 C298 1.348 . S
C296 C299 1.356 1_655 S
C296 O326 1.325 . S
N297 C300 1.314 . S
N297 C301 1.279 . S
C298 C296 1.348 . S
C298 C300 1.353 1_655 S
C298 H340 0.929 . S
C299 C296 1.356 1_455 S
C299 C301 1.359 . S
C299 H341 0.929 1_455 S
C300 N297 1.314 . S
C300 C298 1.353 1_455 S
C300 H342 0.930 . S
C301 N297 1.279 . S
C301 C299 1.359 . S
C301 H343 0.930 . S
C302 C303 1.348 . S
C302 C304 1.356 . S
C302 O327 1.325 . S
C303 C302 1.348 . S
C303 C305 1.353 . S
C303 H344 0.929 . S
C304 C302 1.356 . S
C304 C306 1.358 . S
C304 H345 0.930 . S
C305 C303 1.353 . S
C305 N307 1.314 . S
C305 H346 0.930 . S
C306 C304 1.358 . S
C306 N307 1.279 . S
C306 H347 0.930 . S
N307 C305 1.314 . S
N307 C306 1.279 . S
C308 C310 1.353 . S
C308 N311 1.314 . S
C308 H314 0.930 . S
C309 N311 1.279 . S
C309 C312 1.358 . S
C309 H315 0.930 . S
C310 C308 1.353 . S
C310 C313 1.348 . S
C310 H348 0.929 . S
N311 Li266 1.990 . S
N311 C308 1.314 . S
N311 C309 1.279 . S
C312 C309 1.358 . S
C312 C313 1.356 . S
C312 H349 0.930 1_655 S
C313 C310 1.348 . S
C313 C312 1.356 . S
H314 C308 0.930 . S
H315 C309 0.930 . S
C316 N317 1.314 . S
C316 C318 1.353 . S
C316 H322 0.930 . S
N317 Li267 1.990 . S
N317 C316 1.314 . S
N317 C320 1.279 . S
C318 C316 1.353 . S
C318 C321 1.348 . S
C318 H350 0.929 . S
C319 C320 1.358 . S
C319 C321 1.356 . S
C319 H351 0.930 . S
C320 N317 1.279 . S
C320 C319 1.358 . S
C320 H323 0.930 . S
C321 C318 1.348 . S
C321 C319 1.356 . S
H322 C316 0.930 . S
H323 C320 0.930 . S
O324 Li264 1.956 . S
O324 Li265 1.970 . S
O324 Li266 1.961 . S
O324 C268 1.325 . S
O325 Li264 1.970 . S
O325 Li265 1.956 . S
O325 Li267 1.961 . S
O325 C274 1.325 . S
O326 Li264 1.961 . S
O326 Li266 1.956 . S
O326 Li267 1.970 . S
O326 C296 1.325 . S
O327 Li265 1.961 . S
O327 Li266 1.970 . S
O327 Li267 1.956 . S
O327 C302 1.325 . S
H328 C270 0.929 1_545 S
H329 C271 0.916 1_545 S
H330 C272 0.930 . S
H331 C273 0.930 . S
H332 C275 0.930 . S
H333 C277 0.929 . S
H334 C278 0.930 . S
H335 C279 0.930 . S
H336 C282 0.930 . S
H337 C285 0.929 . S
H338 C290 0.929 . S
H339 C291 0.930 . S
H340 C298 0.929 . S
H341 C299 0.929 1_655 S
H342 C300 0.930 . S
H343 C301 0.930 . S
H344 C303 0.929 . S
H345 C304 0.930 . S
H346 C305 0.930 . S
H347 C306 0.930 . S
H348 C310 0.929 . S
H349 C312 0.930 1_455 S
H350 C318 0.929 . S
H351 C319 0.930 . S
Li352 N369 1.990 . S
Li352 O412 1.956 . S
Li352 O413 1.970 . S
Li352 O414 1.961 . S
Li353 N377 1.990 . S
Li353 O412 1.970 . S
Li353 O413 1.956 . S
Li353 O415 1.961 . S
Li354 N399 1.990 . S
Li354 O412 1.961 . S
Li354 O414 1.956 . S
Li354 O415 1.970 . S
Li355 N405 1.990 . S
Li355 O413 1.961 . S
Li355 O414 1.970 . S
Li355 O415 1.956 . S
C356 C358 1.348 . S
C356 C359 1.356 . S
C356 O412 1.325 . S
N357 C360 1.314 . S
N357 C361 1.279 . S
C358 C356 1.348 . S
C358 C360 1.353 . S
C358 H416 0.929 . S
C359 C356 1.356 . S
C359 C361 1.358 . S
C359 H417 0.930 . S
C360 N357 1.314 . S
C360 C358 1.353 . S
C360 H418 0.930 . S
C361 N357 1.279 . S
C361 C359 1.358 . S
C361 H419 0.930 . S
C362 C365 1.348 . S
C362 C366 1.360 . S
C362 O413 1.325 . S
C363 N364 1.279 . S
C363 C366 1.353 1_455 S
C363 H420 0.930 . S
N364 C363 1.279 . S
N364 C367 1.314 . S
C365 C362 1.348 . S
C365 C367 1.353 1_655 S
C365 H421 0.929 . S
C366 C362 1.360 . S
C366 C363 1.353 1_655 S
C366 H422 0.931 . S
C367 N364 1.314 . S
C367 C365 1.353 1_455 S
C367 H423 0.930 . S
C368 N369 1.314 . S
C368 C373 1.353 . S
C368 H374 0.930 . S
N369 Li352 1.990 . S
N369 C368 1.314 . S
N369 C371 1.279 . S
C370 C371 1.358 . S
C370 C372 1.356 . S
C370 H424 0.930 . S
C371 N369 1.279 . S
C371 C370 1.358 . S
C371 H375 0.930 . S
C372 C370 1.356 . S
C372 C373 1.348 . S
C373 C368 1.353 . S
C373 C372 1.348 . S
C373 H425 0.929 . S
H374 C368 0.930 . S
H375 C371 0.930 . S
C376 N377 1.314 . S
C376 C378 1.353 . S
C376 H382 0.930 . S
N377 Li353 1.990 . S
N377 C376 1.314 . S
N377 C380 1.279 . S
C378 C376 1.353 . S
C378 C381 1.348 . S
C378 H426 0.929 1_565 S
C379 C380 1.358 . S
C379 C381 1.356 . S
C379 H427 0.930 1_655 S
C380 N377 1.279 . S
C380 C379 1.358 . S
C380 H383 0.930 . S
C381 C378 1.348 . S
C381 C379 1.356 . S
H382 C376 0.930 . S
H383 C380 0.930 . S
C384 C386 1.348 . S
C384 C387 1.356 . S
C384 O414 1.325 . S
N385 C388 1.314 . S
N385 C389 1.279 . S
C386 C384 1.348 . S
C386 C388 1.353 . S
C386 H428 0.929 . S
C387 C384 1.356 . S
C387 C389 1.358 . S
C387 H429 0.930 . S
C388 N385 1.314 . S
C388 C386 1.353 . S
C388 H430 0.930 . S
C389 N385 1.279 . S
C389 C387 1.358 . S
C389 H431 0.930 . S
C390 C391 1.336 1_565 S
C390 C392 1.356 1_565 S
C390 O415 1.325 . S
C391 C390 1.336 1_545 S
C391 C393 1.383 . S
C391 H432 0.913 1_545 S
C392 C390 1.356 1_545 S
C392 C394 1.358 . S
C392 H433 0.940 . S
C393 C391 1.383 . S
C393 N395 1.314 . S
C393 H434 0.930 . S
C394 C392 1.358 . S
C394 N395 1.279 . S
C394 H435 0.930 . S
N395 C393 1.314 . S
N395 C394 1.279 . S
C396 C398 1.353 . S
C396 N399 1.314 . S
C396 H402 0.930 . S
C397 N399 1.279 . S
C397 C400 1.358 . S
C397 H403 0.930 . S
C398 C396 1.353 . S
C398 C401 1.348 . S
C398 H436 0.929 . S
N399 Li354 1.990 . S
N399 C396 1.314 . S
N399 C397 1.279 . S
C400 C397 1.358 . S
C400 C401 1.356 . S
C400 H437 0.930 . S
C401 C398 1.348 . S
C401 C400 1.356 . S
H402 C396 0.930 . S
H403 C397 0.930 . S
C404 N405 1.314 . S
C404 C406 1.353 . S
C404 H410 0.930 . S
N405 Li355 1.990 . S
N405 C404 1.314 . S
N405 C408 1.279 . S
C406 C404 1.353 . S
C406 C409 1.348 . S
C406 H438 0.929 . S
C407 C408 1.358 . S
C407 C409 1.356 . S
C407 H439 0.930 1_565 S
C408 N405 1.279 . S
C408 C407 1.358 . S
C408 H411 0.930 . S
C409 C406 1.348 . S
C409 C407 1.356 . S
H410 C404 0.930 . S
H411 C408 0.930 . S
O412 Li352 1.956 . S
O412 Li353 1.970 . S
O412 Li354 1.961 . S
O412 C356 1.325 . S
O413 Li352 1.970 . S
O413 Li353 1.956 . S
O413 Li355 1.961 . S
O413 C362 1.325 . S
O414 Li352 1.961 . S
O414 Li354 1.956 . S
O414 Li355 1.970 . S
O414 C384 1.325 . S
O415 Li353 1.961 . S
O415 Li354 1.970 . S
O415 Li355 1.956 . S
O415 C390 1.325 . S
H416 C358 0.929 . S
H417 C359 0.930 . S
H418 C360 0.930 . S
H419 C361 0.930 . S
H420 C363 0.930 . S
H421 C365 0.929 . S
H422 C366 0.931 . S
H423 C367 0.930 . S
H424 C370 0.930 . S
H425 C373 0.929 . S
H426 C378 0.929 1_545 S
H427 C379 0.930 1_455 S
H428 C386 0.929 . S
H429 C387 0.930 . S
H430 C388 0.930 . S
H431 C389 0.930 . S
H432 C391 0.913 1_565 S
H433 C392 0.940 . S
H434 C393 0.930 . S
H435 C394 0.930 . S
H436 C398 0.929 . S
H437 C400 0.930 . S
H438 C406 0.929 . S
H439 C407 0.930 1_545 S
Li440 N457 1.990 . S
Li440 O500 1.956 . S
Li440 O501 1.970 . S
Li440 O502 1.961 . S
Li441 N465 1.990 . S
Li441 O500 1.970 . S
Li441 O501 1.956 . S
Li441 O503 1.961 . S
Li442 N487 1.990 . S
Li442 O500 1.961 . S
Li442 O502 1.956 . S
Li442 O503 1.970 . S
Li443 N493 1.990 . S
Li443 O501 1.961 . S
Li443 O502 1.970 . S
Li443 O503 1.956 . S
C444 C446 1.348 . S
C444 C447 1.356 . S
C444 O500 1.325 . S
N445 C448 1.314 . S
N445 C449 1.279 . S
C446 C444 1.348 . S
C446 C448 1.353 . S
C446 H504 0.929 . S
C447 C444 1.356 . S
C447 C449 1.358 . S
C447 H505 0.930 . S
C448 N445 1.314 . S
C448 C446 1.353 . S
C448 H506 0.930 . S
C449 N445 1.279 . S
C449 C447 1.358 . S
C449 H507 0.930 . S
C450 C453 1.348 . S
C450 C454 1.356 . S
C450 O501 1.325 . S
C451 N452 1.279 . S
C451 C454 1.358 . S
C451 H508 0.930 . S
N452 C451 1.279 . S
N452 C455 1.314 . S
C453 C450 1.348 . S
C453 C455 1.353 . S
C453 H509 0.929 . S
C454 C450 1.356 . S
C454 C451 1.358 . S
C454 H510 0.930 . S
C455 N452 1.314 . S
C455 C453 1.353 . S
C455 H511 0.930 . S
C456 N457 1.314 . S
C456 C461 1.353 . S
C456 H462 0.930 . S
N457 Li440 1.990 . S
N457 C456 1.314 . S
N457 C459 1.279 . S
C458 C459 1.358 . S
C458 C460 1.356 . S
C458 H512 0.930 . S
C459 N457 1.279 . S
C459 C458 1.358 . S
C459 H463 0.930 . S
C460 C458 1.356 . S
C460 C461 1.348 . S
C461 C456 1.353 . S
C461 C460 1.348 . S
C461 H513 0.929 . S
H462 C456 0.930 . S
H463 C459 0.930 . S
C464 N465 1.314 . S
C464 C466 1.353 . S
C464 H470 0.930 . S
N465 Li441 1.990 . S
N465 C464 1.314 . S
N465 C468 1.279 . S
C466 C464 1.353 . S
C466 C469 1.348 . S
C466 H514 0.929 1_545 S
C467 C468 1.358 . S
C467 C469 1.356 . S
C467 H515 0.930 . S
C468 N465 1.279 . S
C468 C467 1.358 . S
C468 H471 0.930 . S
C469 C466 1.348 . S
C469 C467 1.356 . S
H470 C464 0.930 . S
H471 C468 0.930 . S
C472 C474 1.348 . S
C472 C475 1.356 . S
C472 O502 1.325 . S
N473 C476 1.314 . S
N473 C477 1.279 . S
C474 C472 1.348 . S
C474 C476 1.353 . S
C474 H516 0.929 . S
C475 C472 1.356 . S
C475 C477 1.358 . S
C475 H517 0.930 . S
C476 N473 1.314 . S
C476 C474 1.353 . S
C476 H518 0.930 . S
C477 N473 1.279 . S
C477 C475 1.358 . S
C477 H519 0.930 . S
C478 C479 1.336 1_545 S
C478 C480 1.356 1_545 S
C478 O503 1.325 . S
C479 C478 1.336 1_565 S
C479 C481 1.383 . S
C479 H520 0.913 1_565 S
C480 C478 1.356 1_565 S
C480 C482 1.358 . S
C480 H521 0.940 . S
C481 C479 1.383 . S
C481 N483 1.314 . S
C481 H522 0.930 . S
C482 C480 1.358 . S
C482 N483 1.279 . S
C482 H523 0.930 . S
N483 C481 1.314 . S
N483 C482 1.279 . S
C484 C486 1.353 . S
C484 N487 1.314 . S
C484 H490 0.930 . S
C485 N487 1.279 . S
C485 C488 1.358 . S
C485 H491 0.930 . S
C486 C484 1.353 . S
C486 C489 1.348 . S
C486 H524 0.929 . S
N487 Li442 1.990 . S
N487 C484 1.314 . S
N487 C485 1.279 . S
C488 C485 1.358 . S
C488 C489 1.356 . S
C488 H525 0.930 . S
C489 C486 1.348 . S
C489 C488 1.356 . S
H490 C484 0.930 . S
H491 C485 0.930 . S
C492 N493 1.314 . S
C492 C494 1.353 . S
C492 H498 0.930 . S
N493 Li443 1.990 . S
N493 C492 1.314 . S
N493 C496 1.279 . S
C494 C492 1.353 . S
C494 C497 1.348 . S
C494 H526 0.929 . S
C495 C496 1.358 . S
C495 C497 1.356 . S
C495 H527 0.930 1_545 S
C496 N493 1.279 . S
C496 C495 1.358 . S
C496 H499 0.930 . S
C497 C494 1.348 . S
C497 C495 1.356 . S
H498 C492 0.930 . S
H499 C496 0.930 . S
O500 Li440 1.956 . S
O500 Li441 1.970 . S
O500 Li442 1.961 . S
O500 C444 1.325 . S
O501 Li440 1.970 . S
O501 Li441 1.956 . S
O501 Li443 1.961 . S
O501 C450 1.325 . S
O502 Li440 1.961 . S
O502 Li442 1.956 . S
O502 Li443 1.970 . S
O502 C472 1.325 . S
O503 Li441 1.961 . S
O503 Li442 1.970 . S
O503 Li443 1.956 . S
O503 C478 1.325 . S
H504 C446 0.929 . S
H505 C447 0.930 . S
H506 C448 0.930 . S
H507 C449 0.930 . S
H508 C451 0.930 . S
H509 C453 0.929 . S
H510 C454 0.930 . S
H511 C455 0.930 . S
H512 C458 0.930 . S
H513 C461 0.929 . S
H514 C466 0.929 1_565 S
H515 C467 0.930 . S
H516 C474 0.929 . S
H517 C475 0.930 . S
H518 C476 0.930 . S
H519 C477 0.930 . S
H520 C479 0.913 1_545 S
H521 C480 0.940 . S
H522 C481 0.930 . S
H523 C482 0.930 . S
H524 C486 0.929 . S
H525 C488 0.930 . S
H526 C494 0.929 . S
H527 C495 0.930 1_565 S
Li528 N545 1.990 . S
Li528 O588 1.956 . S
Li528 O589 1.970 . S
Li528 O590 1.961 . S
Li529 N553 1.990 . S
Li529 O588 1.970 . S
Li529 O589 1.956 . S
Li529 O591 1.961 . S
Li530 N575 1.990 . S
Li530 O588 1.961 . S
Li530 O590 1.956 . S
Li530 O591 1.970 . S
Li531 N581 1.990 . S
Li531 O589 1.961 . S
Li531 O590 1.970 . S
Li531 O591 1.956 . S
C532 C534 1.348 . S
C532 C535 1.356 . S
C532 O588 1.325 . S
N533 C536 1.314 . S
N533 C537 1.279 . S
C534 C532 1.348 . S
C534 C536 1.353 . S
C534 H592 0.929 . S
C535 C532 1.356 . S
C535 C537 1.358 . S
C535 H593 0.930 . S
C536 N533 1.314 . S
C536 C534 1.353 . S
C536 H594 0.930 . S
C537 N533 1.279 . S
C537 C535 1.358 . S
C537 H595 0.930 . S
C538 C541 1.336 1_545 S
C538 C542 1.356 1_545 S
C538 O589 1.325 . S
C539 N540 1.279 . S
C539 C542 1.358 . S
C539 H596 0.930 . S
N540 C539 1.279 . S
N540 C543 1.314 . S
C541 C538 1.336 1_565 S
C541 C543 1.383 . S
C541 H597 0.913 1_565 S
C542 C538 1.356 1_565 S
C542 C539 1.358 . S
C542 H598 0.940 . S
C543 N540 1.314 . S
C543 C541 1.383 . S
C543 H599 0.930 . S
C544 N545 1.314 . S
C544 C549 1.353 . S
C544 H550 0.930 . S
N545 Li528 1.990 . S
N545 C544 1.314 . S
N545 C547 1.279 . S
C546 C547 1.358 . S
C546 C548 1.356 . S
C546 H600 0.930 . S
C547 N545 1.279 . S
C547 C546 1.358 . S
C547 H551 0.930 . S
C548 C546 1.356 . S
C548 C549 1.348 . S
C549 C544 1.353 . S
C549 C548 1.348 . S
C549 H601 0.929 . S
H550 C544 0.930 . S
H551 C547 0.930 . S
C552 N553 1.314 . S
C552 C554 1.353 . S
C552 H558 0.930 . S
N553 Li529 1.990 . S
N553 C552 1.314 . S
N553 C556 1.279 . S
C554 C552 1.353 . S
C554 C557 1.348 . S
C554 H602 0.929 . S
C555 C556 1.358 . S
C555 C557 1.356 . S
C555 H603 0.930 1_545 S
C556 N553 1.279 . S
C556 C555 1.358 . S
C556 H559 0.930 . S
C557 C554 1.348 . S
C557 C555 1.356 . S
H558 C552 0.930 . S
H559 C556 0.930 . S
C560 C562 1.348 . S
C560 C563 1.356 . S
C560 O590 1.325 . S
N561 C564 1.314 . S
N561 C565 1.279 . S
C562 C560 1.348 . S
C562 C564 1.353 . S
C562 H604 0.929 . S
C563 C560 1.356 . S
C563 C565 1.358 . S
C563 H605 0.930 . S
C564 N561 1.314 . S
C564 C562 1.353 . S
C564 H606 0.930 . S
C565 N561 1.279 . S
C565 C563 1.358 . S
C565 H607 0.930 . S
C566 C567 1.348 . S
C566 C568 1.356 . S
C566 O591 1.325 . S
C567 C566 1.348 . S
C567 C569 1.353 . S
C567 H608 0.929 . S
C568 C566 1.356 . S
C568 C570 1.358 . S
C568 H609 0.930 . S
C569 C567 1.353 . S
C569 N571 1.314 . S
C569 H610 0.930 . S
C570 C568 1.358 . S
C570 N571 1.279 . S
C570 H611 0.930 . S
N571 C569 1.314 . S
N571 C570 1.279 . S
C572 C574 1.353 . S
C572 N575 1.314 . S
C572 H578 0.930 . S
C573 N575 1.279 . S
C573 C576 1.358 . S
C573 H579 0.930 . S
C574 C572 1.353 . S
C574 C577 1.348 . S
C574 H612 0.929 . S
N575 Li530 1.990 . S
N575 C572 1.314 . S
N575 C573 1.279 . S
C576 C573 1.358 . S
C576 C577 1.356 . S
C576 H613 0.930 . S
C577 C574 1.348 . S
C577 C576 1.356 . S
H578 C572 0.930 . S
H579 C573 0.930 . S
C580 N581 1.314 . S
C580 C582 1.353 . S
C580 H586 0.930 . S
N581 Li531 1.990 . S
N581 C580 1.314 . S
N581 C584 1.279 . S
C582 C580 1.353 . S
C582 C585 1.348 . S
C582 H614 0.929 1_545 S
C583 C584 1.358 . S
C583 C585 1.356 . S
C583 H615 0.930 . S
C584 N581 1.279 . S
C584 C583 1.358 . S
C584 H587 0.930 . S
C585 C582 1.348 . S
C585 C583 1.356 . S
H586 C580 0.930 . S
H587 C584 0.930 . S
O588 Li528 1.956 . S
O588 Li529 1.970 . S
O588 Li530 1.961 . S
O588 C532 1.325 . S
O589 Li528 1.970 . S
O589 Li529 1.956 . S
O589 Li531 1.961 . S
O589 C538 1.325 . S
O590 Li528 1.961 . S
O590 Li530 1.956 . S
O590 Li531 1.970 . S
O590 C560 1.325 . S
O591 Li529 1.961 . S
O591 Li530 1.970 . S
O591 Li531 1.956 . S
O591 C566 1.325 . S
H592 C534 0.929 . S
H593 C535 0.930 . S
H594 C536 0.930 . S
H595 C537 0.930 . S
H596 C539 0.930 . S
H597 C541 0.913 1_545 S
H598 C542 0.940 . S
H599 C543 0.930 . S
H600 C546 0.930 . S
H601 C549 0.929 . S
H602 C554 0.929 . S
H603 C555 0.930 1_565 S
H604 C562 0.929 . S
H605 C563 0.930 . S
H606 C564 0.930 . S
H607 C565 0.930 . S
H608 C567 0.929 . S
H609 C568 0.930 . S
H610 C569 0.930 . S
H611 C570 0.930 . S
H612 C574 0.929 . S
H613 C576 0.930 . S
H614 C582 0.929 1_565 S
H615 C583 0.930 . S
Li616 N633 1.990 . S
Li616 O676 1.956 . S
Li616 O677 1.970 . S
Li616 O678 1.961 . S
Li617 N641 1.990 . S
Li617 O676 1.970 . S
Li617 O677 1.956 . S
Li617 O679 1.961 . S
Li618 N663 1.990 . S
Li618 O676 1.961 . S
Li618 O678 1.956 . S
Li618 O679 1.970 . S
Li619 N669 1.990 . S
Li619 O677 1.961 . S
Li619 O678 1.970 . S
Li619 O679 1.956 . S
C620 C622 1.336 1_565 S
C620 C623 1.356 1_565 S
C620 O676 1.325 . S
N621 C624 1.314 . S
N621 C625 1.279 . S
C622 C620 1.336 1_545 S
C622 C624 1.383 . S
C622 H680 0.913 1_545 S
C623 C620 1.356 1_545 S
C623 C625 1.358 . S
C623 H681 0.940 . S
C624 N621 1.314 . S
C624 C622 1.383 . S
C624 H682 0.930 . S
C625 N621 1.279 . S
C625 C623 1.358 . S
C625 H683 0.930 . S
C626 C629 1.348 . S
C626 C630 1.356 . S
C626 O677 1.325 . S
C627 N628 1.279 . S
C627 C630 1.358 . S
C627 H684 0.930 . S
N628 C627 1.279 . S
N628 C631 1.314 . S
C629 C626 1.348 . S
C629 C631 1.353 . S
C629 H685 0.929 . S
C630 C626 1.356 . S
C630 C627 1.358 . S
C630 H686 0.930 . S
C631 N628 1.314 . S
C631 C629 1.353 . S
C631 H687 0.930 . S
C632 N633 1.314 . S
C632 C637 1.353 . S
C632 H638 0.930 . S
N633 Li616 1.990 . S
N633 C632 1.314 . S
N633 C635 1.279 . S
C634 C635 1.358 . S
C634 C636 1.356 . S
C634 H688 0.930 1_565 S
C635 N633 1.279 . S
C635 C634 1.358 . S
C635 H639 0.930 . S
C636 C634 1.356 . S
C636 C637 1.348 . S
C637 C632 1.353 . S
C637 C636 1.348 . S
C637 H689 0.929 . S
H638 C632 0.930 . S
H639 C635 0.930 . S
C640 N641 1.314 . S
C640 C642 1.353 . S
C640 H646 0.930 . S
N641 Li617 1.990 . S
N641 C640 1.314 . S
N641 C644 1.279 . S
C642 C640 1.353 . S
C642 C645 1.348 . S
C642 H690 0.929 . S
C643 C644 1.358 . S
C643 C645 1.356 . S
C643 H691 0.930 . S
C644 N641 1.279 . S
C644 C643 1.358 . S
C644 H647 0.930 . S
C645 C642 1.348 . S
C645 C643 1.356 . S
H646 C640 0.930 . S
H647 C644 0.930 . S
C648 C650 1.348 . S
C648 C651 1.360 . S
C648 O678 1.325 . S
N649 C652 1.314 . S
N649 C653 1.279 . S
C650 C648 1.348 . S
C650 C652 1.353 1_455 S
C650 H692 0.929 . S
C651 C648 1.360 . S
C651 C653 1.353 1_455 S
C651 H693 0.931 . S
C652 N649 1.314 . S
C652 C650 1.353 1_655 S
C652 H694 0.930 . S
C653 N649 1.279 . S
C653 C651 1.353 1_655 S
C653 H695 0.930 . S
C654 C655 1.348 . S
C654 C656 1.356 . S
C654 O679 1.325 . S
C655 C654 1.348 . S
C655 C657 1.353 . S
C655 H696 0.929 . S
C656 C654 1.356 . S
C656 C658 1.358 . S
C656 H697 0.930 . S
C657 C655 1.353 . S
C657 N659 1.314 . S
C657 H698 0.930 . S
C658 C656 1.358 . S
C658 N659 1.279 . S
C658 H699 0.930 . S
N659 C657 1.314 . S
N659 C658 1.279 . S
C660 C662 1.353 . S
C660 N663 1.314 . S
C660 H666 0.930 . S
C661 N663 1.279 . S
C661 C664 1.358 . S
C661 H667 0.930 . S
C662 C660 1.353 . S
C662 C665 1.348 . S
C662 H700 0.929 1_565 S
N663 Li618 1.990 . S
N663 C660 1.314 . S
N663 C661 1.279 . S
C664 C661 1.358 . S
C664 C665 1.356 . S
C664 H701 0.930 1_455 S
C665 C662 1.348 . S
C665 C664 1.356 . S
H666 C660 0.930 . S
H667 C661 0.930 . S
C668 N669 1.314 . S
C668 C670 1.353 . S
C668 H674 0.930 . S
N669 Li619 1.990 . S
N669 C668 1.314 . S
N669 C672 1.279 . S
C670 C668 1.353 . S
C670 C673 1.348 . S
C670 H702 0.929 . S
C671 C672 1.358 . S
C671 C673 1.356 . S
C671 H703 0.930 . S
C672 N669 1.279 . S
C672 C671 1.358 . S
C672 H675 0.930 . S
C673 C670 1.348 . S
C673 C671 1.356 . S
H674 C668 0.930 . S
H675 C672 0.930 . S
O676 Li616 1.956 . S
O676 Li617 1.970 . S
O676 Li618 1.961 . S
O676 C620 1.325 . S
O677 Li616 1.970 . S
O677 Li617 1.956 . S
O677 Li619 1.961 . S
O677 C626 1.325 . S
O678 Li616 1.961 . S
O678 Li618 1.956 . S
O678 Li619 1.970 . S
O678 C648 1.325 . S
O679 Li617 1.961 . S
O679 Li618 1.970 . S
O679 Li619 1.956 . S
O679 C654 1.325 . S
H680 C622 0.913 1_565 S
H681 C623 0.940 . S
H682 C624 0.930 . S
H683 C625 0.930 . S
H684 C627 0.930 . S
H685 C629 0.929 . S
H686 C630 0.930 . S
H687 C631 0.930 . S
H688 C634 0.930 1_545 S
H689 C637 0.929 . S
H690 C642 0.929 . S
H691 C643 0.930 . S
H692 C650 0.929 . S
H693 C651 0.931 . S
H694 C652 0.930 . S
H695 C653 0.930 . S
H696 C655 0.929 . S
H697 C656 0.930 . S
H698 C657 0.930 . S
H699 C658 0.930 . S
H700 C662 0.929 1_545 S
H701 C664 0.930 1_655 S
H702 C670 0.929 . S
H703 C671 0.930 . S
Li704 N721 1.990 . S
Li704 O764 1.956 . S
Li704 O765 1.970 . S
Li704 O766 1.961 . S
Li705 N729 1.990 . S
Li705 O764 1.970 . S
Li705 O765 1.956 . S
Li705 O767 1.961 . S
Li706 N751 1.990 . S
Li706 O764 1.961 . S
Li706 O766 1.956 . S
Li706 O767 1.970 . S
Li707 N757 1.990 . S
Li707 O765 1.961 . S
Li707 O766 1.970 . S
Li707 O767 1.956 . S
C708 C710 1.348 . S
C708 C711 1.356 . S
C708 O764 1.325 . S
N709 C712 1.314 . S
N709 C713 1.279 . S
C710 C708 1.348 . S
C710 C712 1.353 . S
C710 H768 0.929 . S
C711 C708 1.356 . S
C711 C713 1.358 . S
C711 H769 0.930 . S
C712 N709 1.314 . S
C712 C710 1.353 . S
C712 H770 0.930 . S
C713 N709 1.279 . S
C713 C711 1.358 . S
C713 H771 0.930 . S
C714 C717 1.348 . S
C714 C718 1.356 . S
C714 O765 1.325 . S
C715 N716 1.279 . S
C715 C718 1.358 . S
C715 H772 0.930 . S
N716 C715 1.279 . S
N716 C719 1.314 . S
C717 C714 1.348 . S
C717 C719 1.353 . S
C717 H773 0.929 . S
C718 C714 1.356 . S
C718 C715 1.358 . S
C718 H774 0.930 . S
C719 N716 1.314 . S
C719 C717 1.353 . S
C719 H775 0.930 . S
C720 N721 1.314 . S
C720 C725 1.353 . S
C720 H726 0.930 . S
N721 Li704 1.990 . S
N721 C720 1.314 . S
N721 C723 1.279 . S
C722 C723 1.358 . S
C722 C724 1.356 . S
C722 H776 0.930 . S
C723 N721 1.279 . S
C723 C722 1.358 . S
C723 H727 0.930 . S
C724 C722 1.356 . S
C724 C725 1.348 . S
C725 C720 1.353 . S
C725 C724 1.348 . S
C725 H777 0.929 . S
H726 C720 0.930 . S
H727 C723 0.930 . S
C728 N729 1.314 . S
C728 C730 1.353 . S
C728 H734 0.930 . S
N729 Li705 1.990 . S
N729 C728 1.314 . S
N729 C732 1.279 . S
C730 C728 1.353 . S
C730 C733 1.348 . S
C730 H778 0.929 . S
C731 C732 1.358 . S
C731 C733 1.356 . S
C731 H779 0.930 . S
C732 N729 1.279 . S
C732 C731 1.358 . S
C732 H735 0.930 . S
C733 C730 1.348 . S
C733 C731 1.356 . S
H734 C728 0.930 . S
H735 C732 0.930 . S
C736 C738 1.348 . S
C736 C739 1.356 . S
C736 O766 1.325 . S
N737 C740 1.314 . S
N737 C741 1.279 . S
C738 C736 1.348 . S
C738 C740 1.353 . S
C738 H780 0.929 . S
C739 C736 1.356 . S
C739 C741 1.358 . S
C739 H781 0.930 . S
C740 N737 1.314 . S
C740 C738 1.353 . S
C740 H782 0.930 . S
C741 N737 1.279 . S
C741 C739 1.358 . S
C741 H783 0.930 . S
C742 C743 1.348 . S
C742 C744 1.356 . S
C742 O767 1.325 . S
C743 C742 1.348 . S
C743 C745 1.353 . S
C743 H784 0.929 . S
C744 C742 1.356 . S
C744 C746 1.358 . S
C744 H785 0.930 . S
C745 C743 1.353 . S
C745 N747 1.314 . S
C745 H786 0.930 . S
C746 C744 1.358 . S
C746 N747 1.279 . S
C746 H787 0.930 . S
N747 C745 1.314 . S
N747 C746 1.279 . S
C748 C750 1.353 . S
C748 N751 1.314 . S
C748 H754 0.930 . S
C749 N751 1.279 . S
C749 C752 1.358 . S
C749 H755 0.930 . S
C750 C748 1.353 . S
C750 C753 1.348 . S
C750 H788 0.929 . S
N751 Li706 1.990 . S
N751 C748 1.314 . S
N751 C749 1.279 . S
C752 C749 1.358 . S
C752 C753 1.356 . S
C752 H789 0.930 . S
C753 C750 1.348 . S
C753 C752 1.356 . S
H754 C748 0.930 . S
H755 C749 0.930 . S
C756 N757 1.314 . S
C756 C758 1.353 . S
C756 H762 0.930 . S
N757 Li707 1.990 . S
N757 C756 1.314 . S
N757 C760 1.279 . S
C758 C756 1.353 . S
C758 C761 1.348 . S
C758 H790 0.929 . S
C759 C760 1.358 . S
C759 C761 1.356 . S
C759 H791 0.930 . S
C760 N757 1.279 . S
C760 C759 1.358 . S
C760 H763 0.930 . S
C761 C758 1.348 . S
C761 C759 1.356 . S
H762 C756 0.930 . S
H763 C760 0.930 . S
O764 Li704 1.956 . S
O764 Li705 1.970 . S
O764 Li706 1.961 . S
O764 C708 1.325 . S
O765 Li704 1.970 . S
O765 Li705 1.956 . S
O765 Li707 1.961 . S
O765 C714 1.325 . S
O766 Li704 1.961 . S
O766 Li706 1.956 . S
O766 Li707 1.970 . S
O766 C736 1.325 . S
O767 Li705 1.961 . S
O767 Li706 1.970 . S
O767 Li707 1.956 . S
O767 C742 1.325 . S
H768 C710 0.929 . S
H769 C711 0.930 . S
H770 C712 0.930 . S
H771 C713 0.930 . S
H772 C715 0.930 . S
H773 C717 0.929 . S
H774 C718 0.930 . S
H775 C719 0.930 . S
H776 C722 0.930 . S
H777 C725 0.929 . S
H778 C730 0.929 . S
H779 C731 0.930 . S
H780 C738 0.929 . S
H781 C739 0.930 . S
H782 C740 0.930 . S
H783 C741 0.930 . S
H784 C743 0.929 . S
H785 C744 0.930 . S
H786 C745 0.930 . S
H787 C746 0.930 . S
H788 C750 0.929 . S
H789 C752 0.930 . S
H790 C758 0.929 . S
H791 C759 0.930 . S
Li792 N809 1.990 . S
Li792 O852 1.956 . S
Li792 O853 1.970 . S
Li792 O854 1.961 . S
Li793 N817 1.990 . S
Li793 O852 1.970 . S
Li793 O853 1.956 . S
Li793 O855 1.961 . S
Li794 N839 1.990 . S
Li794 O852 1.961 . S
Li794 O854 1.956 . S
Li794 O855 1.970 . S
Li795 N845 1.990 . S
Li795 O853 1.961 . S
Li795 O854 1.970 . S
Li795 O855 1.956 . S
C796 C798 1.348 . S
C796 C799 1.356 . S
C796 O852 1.325 . S
N797 C800 1.314 . S
N797 C801 1.279 . S
C798 C796 1.348 . S
C798 C800 1.353 . S
C798 H856 0.929 . S
C799 C796 1.356 . S
C799 C801 1.358 . S
C799 H857 0.930 . S
C800 N797 1.314 . S
C800 C798 1.353 . S
C800 H858 0.930 . S
C801 N797 1.279 . S
C801 C799 1.358 . S
C801 H859 0.930 . S
C802 C805 1.348 . S
C802 C806 1.356 1_655 S
C802 O853 1.325 . S
C803 N804 1.279 . S
C803 C806 1.359 . S
C803 H860 0.930 . S
N804 C803 1.279 . S
N804 C807 1.314 . S
C805 C802 1.348 . S
C805 C807 1.353 1_655 S
C805 H861 0.929 . S
C806 C802 1.356 1_455 S
C806 C803 1.359 . S
C806 H862 0.929 1_455 S
C807 N804 1.314 . S
C807 C805 1.353 1_455 S
C807 H863 0.930 . S
C808 N809 1.314 . S
C808 C813 1.353 . S
C808 H814 0.930 . S
N809 Li792 1.990 . S
N809 C808 1.314 . S
N809 C811 1.279 . S
C810 C811 1.358 . S
C810 C812 1.356 . S
C810 H864 0.930 . S
C811 N809 1.279 . S
C811 C810 1.358 . S
C811 H815 0.930 . S
C812 C810 1.356 . S
C812 C813 1.348 . S
C813 C808 1.353 . S
C813 C812 1.348 . S
C813 H865 0.929 . S
H814 C808 0.930 . S
H815 C811 0.930 . S
C816 N817 1.314 . S
C816 C818 1.353 . S
C816 H822 0.930 . S
N817 Li793 1.990 . S
N817 C816 1.314 . S
N817 C820 1.279 . S
C818 C816 1.353 . S
C818 C821 1.348 . S
C818 H866 0.929 . S
C819 C820 1.358 . S
C819 C821 1.356 . S
C819 H867 0.930 1_655 S
C820 N817 1.279 . S
C820 C819 1.358 . S
C820 H823 0.930 . S
C821 C818 1.348 . S
C821 C819 1.356 . S
H822 C816 0.930 . S
H823 C820 0.930 . S
C824 C826 1.348 . S
C824 C827 1.356 . S
C824 O854 1.325 . S
N825 C828 1.314 . S
N825 C829 1.279 . S
C826 C824 1.348 . S
C826 C828 1.353 . S
C826 H868 0.929 . S
C827 C824 1.356 . S
C827 C829 1.358 . S
C827 H869 0.930 . S
C828 N825 1.314 . S
C828 C826 1.353 . S
C828 H870 0.930 . S
C829 N825 1.279 . S
C829 C827 1.358 . S
C829 H871 0.930 . S
C830 C831 1.348 . S
C830 C832 1.356 . S
C830 O855 1.325 . S
C831 C830 1.348 . S
C831 C833 1.353 . S
C831 H872 0.929 . S
C832 C830 1.356 . S
C832 C834 1.358 . S
C832 H873 0.930 . S
C833 C831 1.353 . S
C833 N835 1.314 . S
C833 H874 0.930 . S
C834 C832 1.358 . S
C834 N835 1.279 . S
C834 H875 0.930 . S
N835 C833 1.314 . S
N835 C834 1.279 . S
C836 C838 1.353 . S
C836 N839 1.314 . S
C836 H842 0.930 . S
C837 N839 1.279 . S
C837 C840 1.358 . S
C837 H843 0.930 . S
C838 C836 1.353 . S
C838 C841 1.348 . S
C838 H876 0.929 . S
N839 Li794 1.990 . S
N839 C836 1.314 . S
N839 C837 1.279 . S
C840 C837 1.358 . S
C840 C841 1.356 . S
C840 H877 0.930 . S
C841 C838 1.348 . S
C841 C840 1.356 . S
H842 C836 0.930 . S
H843 C837 0.930 . S
C844 N845 1.314 . S
C844 C846 1.353 . S
C844 H850 0.930 . S
N845 Li795 1.990 . S
N845 C844 1.314 . S
N845 C848 1.279 . S
C846 C844 1.353 . S
C846 C849 1.348 . S
C846 H878 0.929 . S
C847 C848 1.358 . S
C847 C849 1.356 . S
C847 H879 0.930 . S
C848 N845 1.279 . S
C848 C847 1.358 . S
C848 H851 0.930 . S
C849 C846 1.348 . S
C849 C847 1.356 . S
H850 C844 0.930 . S
H851 C848 0.930 . S
O852 Li792 1.956 . S
O852 Li793 1.970 . S
O852 Li794 1.961 . S
O852 C796 1.325 . S
O853 Li792 1.970 . S
O853 Li793 1.956 . S
O853 Li795 1.961 . S
O853 C802 1.325 . S
O854 Li792 1.961 . S
O854 Li794 1.956 . S
O854 Li795 1.970 . S
O854 C824 1.325 . S
O855 Li793 1.961 . S
O855 Li794 1.970 . S
O855 Li795 1.956 . S
O855 C830 1.325 . S
H856 C798 0.929 . S
H857 C799 0.930 . S
H858 C800 0.930 . S
H859 C801 0.930 . S
H860 C803 0.930 . S
H861 C805 0.929 . S
H862 C806 0.929 1_655 S
H863 C807 0.930 . S
H864 C810 0.930 . S
H865 C813 0.929 . S
H866 C818 0.929 . S
H867 C819 0.930 1_455 S
H868 C826 0.929 . S
H869 C827 0.930 . S
H870 C828 0.930 . S
H871 C829 0.930 . S
H872 C831 0.929 . S
H873 C832 0.930 . S
H874 C833 0.930 . S
H875 C834 0.930 . S
H876 C838 0.929 . S
H877 C840 0.930 . S
H878 C846 0.929 . S
H879 C847 0.930 . S
Li880 N897 1.990 . S
Li880 O940 1.956 . S
Li880 O941 1.970 . S
Li880 O942 1.961 . S
Li881 N905 1.990 . S
Li881 O940 1.970 . S
Li881 O941 1.956 . S
Li881 O943 1.961 . S
Li882 N927 1.990 . S
Li882 O940 1.961 . S
Li882 O942 1.956 . S
Li882 O943 1.970 . S
Li883 N933 1.990 . S
Li883 O941 1.961 . S
Li883 O942 1.970 . S
Li883 O943 1.956 . S
C884 C886 1.348 . S
C884 C887 1.356 . S
C884 O940 1.325 . S
N885 C888 1.314 . S
N885 C889 1.279 . S
C886 C884 1.348 . S
C886 C888 1.353 . S
C886 H944 0.929 . S
C887 C884 1.356 . S
C887 C889 1.358 . S
C887 H945 0.930 . S
C888 N885 1.314 . S
C888 C886 1.353 . S
C888 H946 0.930 . S
C889 N885 1.279 . S
C889 C887 1.358 . S
C889 H947 0.930 . S
C890 C893 1.348 . S
C890 C894 1.356 . S
C890 O941 1.325 . S
C891 N892 1.279 . S
C891 C894 1.358 . S
C891 H948 0.930 . S
N892 C891 1.279 . S
N892 C895 1.314 . S
C893 C890 1.348 . S
C893 C895 1.353 . S
C893 H949 0.929 . S
C894 C890 1.356 . S
C894 C891 1.358 . S
C894 H950 0.930 . S
C895 N892 1.314 . S
C895 C893 1.353 . S
C895 H951 0.930 . S
C896 N897 1.314 . S
C896 C901 1.353 . S
C896 H902 0.930 . S
N897 Li880 1.990 . S
N897 C896 1.314 . S
N897 C899 1.279 . S
C898 C899 1.358 . S
C898 C900 1.356 . S
C898 H952 0.930 . S
C899 N897 1.279 . S
C899 C898 1.358 . S
C899 H903 0.930 . S
C900 C898 1.356 . S
C900 C901 1.348 . S
C901 C896 1.353 . S
C901 C900 1.348 . S
C901 H953 0.929 . S
H902 C896 0.930 . S
H903 C899 0.930 . S
C904 N905 1.314 . S
C904 C906 1.353 . S
C904 H910 0.930 . S
N905 Li881 1.990 . S
N905 C904 1.314 . S
N905 C908 1.279 . S
C906 C904 1.353 . S
C906 C909 1.348 . S
C906 H954 0.929 . S
C907 C908 1.358 . S
C907 C909 1.356 . S
C907 H955 0.930 . S
C908 N905 1.279 . S
C908 C907 1.358 . S
C908 H911 0.930 . S
C909 C906 1.348 . S
C909 C907 1.356 . S
H910 C904 0.930 . S
H911 C908 0.930 . S
C912 C914 1.348 . S
C912 C915 1.356 1_455 S
C912 O942 1.325 . S
N913 C916 1.314 . S
N913 C917 1.279 . S
C914 C912 1.348 . S
C914 C916 1.353 1_455 S
C914 H956 0.929 . S
C915 C912 1.356 1_655 S
C915 C917 1.359 . S
C915 H957 0.929 1_655 S
C916 N913 1.314 . S
C916 C914 1.353 1_655 S
C916 H958 0.930 . S
C917 N913 1.279 . S
C917 C915 1.359 . S
C917 H959 0.930 . S
C918 C919 1.348 . S
C918 C920 1.356 . S
C918 O943 1.325 . S
C919 C918 1.348 . S
C919 C921 1.353 . S
C919 H960 0.929 . S
C920 C918 1.356 . S
C920 C922 1.358 . S
C920 H961 0.930 . S
C921 C919 1.353 . S
C921 N923 1.314 . S
C921 H962 0.930 . S
C922 C920 1.358 . S
C922 N923 1.279 . S
C922 H963 0.930 . S
N923 C921 1.314 . S
N923 C922 1.279 . S
C924 C926 1.353 . S
C924 N927 1.314 . S
C924 H930 0.930 . S
C925 N927 1.279 . S
C925 C928 1.358 . S
C925 H931 0.930 . S
C926 C924 1.353 . S
C926 C929 1.348 . S
C926 H964 0.929 . S
N927 Li882 1.990 . S
N927 C924 1.314 . S
N927 C925 1.279 . S
C928 C925 1.358 . S
C928 C929 1.356 . S
C928 H965 0.930 1_455 S
C929 C926 1.348 . S
C929 C928 1.356 . S
H930 C924 0.930 . S
H931 C925 0.930 . S
C932 N933 1.314 . S
C932 C934 1.353 . S
C932 H938 0.930 . S
N933 Li883 1.990 . S
N933 C932 1.314 . S
N933 C936 1.279 . S
C934 C932 1.353 . S
C934 C937 1.348 . S
C934 H966 0.929 . S
C935 C936 1.358 . S
C935 C937 1.356 . S
C935 H967 0.930 . S
C936 N933 1.279 . S
C936 C935 1.358 . S
C936 H939 0.930 . S
C937 C934 1.348 . S
C937 C935 1.356 . S
H938 C932 0.930 . S
H939 C936 0.930 . S
O940 Li880 1.956 . S
O940 Li881 1.970 . S
O940 Li882 1.961 . S
O940 C884 1.325 . S
O941 Li880 1.970 . S
O941 Li881 1.956 . S
O941 Li883 1.961 . S
O941 C890 1.325 . S
O942 Li880 1.961 . S
O942 Li882 1.956 . S
O942 Li883 1.970 . S
O942 C912 1.325 . S
O943 Li881 1.961 . S
O943 Li882 1.970 . S
O943 Li883 1.956 . S
O943 C918 1.325 . S
H944 C886 0.929 . S
H945 C887 0.930 . S
H946 C888 0.930 . S
H947 C889 0.930 . S
H948 C891 0.930 . S
H949 C893 0.929 . S
H950 C894 0.930 . S
H951 C895 0.930 . S
H952 C898 0.930 . S
H953 C901 0.929 . S
H954 C906 0.929 . S
H955 C907 0.930 . S
H956 C914 0.929 . S
H957 C915 0.929 1_455 S
H958 C916 0.930 . S
H959 C917 0.930 . S
H960 C919 0.929 . S
H961 C920 0.930 . S
H962 C921 0.930 . S
H963 C922 0.930 . S
H964 C926 0.929 . S
H965 C928 0.930 1_655 S
H966 C934 0.929 . S
H967 C935 0.930 . S
Li968 N985 1.990 . S
Li968 O1028 1.956 . S
Li968 O1029 1.970 . S
Li968 O1030 1.961 . S
Li969 N993 1.990 . S
Li969 O1028 1.970 . S
Li969 O1029 1.956 . S
Li969 O1031 1.961 . S
Li970 N1015 1.990 . S
Li970 O1028 1.961 . S
Li970 O1030 1.956 . S
Li970 O1031 1.970 . S
Li971 N1021 1.990 . S
Li971 O1029 1.961 . S
Li971 O1030 1.970 . S
Li971 O1031 1.956 . S
C972 C974 1.348 . S
C972 C975 1.356 . S
C972 O1028 1.325 . S
N973 C976 1.314 . S
N973 C977 1.279 . S
C974 C972 1.348 . S
C974 C976 1.353 . S
C974 H1032 0.929 . S
C975 C972 1.356 . S
C975 C977 1.358 . S
C975 H1033 0.930 . S
C976 N973 1.314 . S
C976 C974 1.353 . S
C976 H1034 0.930 . S
C977 N973 1.279 . S
C977 C975 1.358 . S
C977 H1035 0.930 . S
C978 C981 1.348 . S
C978 C982 1.356 . S
C978 O1029 1.325 . S
C979 N980 1.279 . S
C979 C982 1.358 . S
C979 H1036 0.930 . S
N980 C979 1.279 . S
N980 C983 1.314 . S
C981 C978 1.348 . S
C981 C983 1.353 . S
C981 H1037 0.929 . S
C982 C978 1.356 . S
C982 C979 1.358 . S
C982 H1038 0.930 . S
C983 N980 1.314 . S
C983 C981 1.353 . S
C983 H1039 0.930 . S
C984 N985 1.314 . S
C984 C989 1.353 . S
C984 H990 0.930 . S
N985 Li968 1.990 . S
N985 C984 1.314 . S
N985 C987 1.279 . S
C986 C987 1.358 . S
C986 C988 1.356 . S
C986 H1040 0.930 . S
C987 N985 1.279 . S
C987 C986 1.358 . S
C987 H991 0.930 . S
C988 C986 1.356 . S
C988 C989 1.348 . S
C989 C984 1.353 . S
C989 C988 1.348 . S
C989 H1041 0.929 . S
H990 C984 0.930 . S
H991 C987 0.930 . S
C992 N993 1.314 . S
C992 C994 1.353 . S
C992 H998 0.930 . S
N993 Li969 1.990 . S
N993 C992 1.314 . S
N993 C996 1.279 . S
C994 C992 1.353 . S
C994 C997 1.348 . S
C994 H1042 0.929 . S
C995 C996 1.358 . S
C995 C997 1.356 . S
C995 H1043 0.930 . S
C996 N993 1.279 . S
C996 C995 1.358 . S
C996 H999 0.930 . S
C997 C994 1.348 . S
C997 C995 1.356 . S
H998 C992 0.930 . S
H999 C996 0.930 . S
C1000 C1002 1.348 . S
C1000 C1003 1.356 . S
C1000 O1030 1.325 . S
N1001 C1004 1.314 . S
N1001 C1005 1.279 . S
C1002 C1000 1.348 . S
C1002 C1004 1.353 . S
C1002 H1044 0.929 . S
C1003 C1000 1.356 . S
C1003 C1005 1.358 . S
C1003 H1045 0.930 . S
C1004 N1001 1.314 . S
C1004 C1002 1.353 . S
C1004 H1046 0.930 . S
C1005 N1001 1.279 . S
C1005 C1003 1.358 . S
C1005 H1047 0.930 . S
C1006 C1007 1.348 . S
C1006 C1008 1.356 . S
C1006 O1031 1.325 . S
C1007 C1006 1.348 . S
C1007 C1009 1.353 . S
C1007 H1048 0.929 . S
C1008 C1006 1.356 . S
C1008 C1010 1.358 . S
C1008 H1049 0.930 . S
C1009 C1007 1.353 . S
C1009 N1011 1.314 . S
C1009 H1050 0.930 . S
C1010 C1008 1.358 . S
C1010 N1011 1.279 . S
C1010 H1051 0.930 . S
N1011 C1009 1.314 . S
N1011 C1010 1.279 . S
C1012 C1014 1.353 . S
C1012 N1015 1.314 . S
C1012 H1018 0.930 . S
C1013 N1015 1.279 . S
C1013 C1016 1.358 . S
C1013 H1019 0.930 . S
C1014 C1012 1.353 . S
C1014 C1017 1.348 . S
C1014 H1052 0.929 . S
N1015 Li970 1.990 . S
N1015 C1012 1.314 . S
N1015 C1013 1.279 . S
C1016 C1013 1.358 . S
C1016 C1017 1.356 . S
C1016 H1053 0.930 . S
C1017 C1014 1.348 . S
C1017 C1016 1.356 . S
H1018 C1012 0.930 . S
H1019 C1013 0.930 . S
C1020 N1021 1.314 . S
C1020 C1022 1.353 . S
C1020 H1026 0.930 . S
N1021 Li971 1.990 . S
N1021 C1020 1.314 . S
N1021 C1024 1.279 . S
C1022 C1020 1.353 . S
C1022 C1025 1.348 . S
C1022 H1054 0.929 . S
C1023 C1024 1.358 . S
C1023 C1025 1.356 . S
C1023 H1055 0.930 . S
C1024 N1021 1.279 . S
C1024 C1023 1.358 . S
C1024 H1027 0.930 . S
C1025 C1022 1.348 . S
C1025 C1023 1.356 . S
H1026 C1020 0.930 . S
H1027 C1024 0.930 . S
O1028 Li968 1.956 . S
O1028 Li969 1.970 . S
O1028 Li970 1.961 . S
O1028 C972 1.325 . S
O1029 Li968 1.970 . S
O1029 Li969 1.956 . S
O1029 Li971 1.961 . S
O1029 C978 1.325 . S
O1030 Li968 1.961 . S
O1030 Li970 1.956 . S
O1030 Li971 1.970 . S
O1030 C1000 1.325 . S
O1031 Li969 1.961 . S
O1031 Li970 1.970 . S
O1031 Li971 1.956 . S
O1031 C1006 1.325 . S
H1032 C974 0.929 . S
H1033 C975 0.930 . S
H1034 C976 0.930 . S
H1035 C977 0.930 . S
H1036 C979 0.930 . S
H1037 C981 0.929 . S
H1038 C982 0.930 . S
H1039 C983 0.930 . S
H1040 C986 0.930 . S
H1041 C989 0.929 . S
H1042 C994 0.929 . S
H1043 C995 0.930 . S
H1044 C1002 0.929 . S
H1045 C1003 0.930 . S
H1046 C1004 0.930 . S
H1047 C1005 0.930 . S
H1048 C1007 0.929 . S
H1049 C1008 0.930 . S
H1050 C1009 0.930 . S
H1051 C1010 0.930 . S
H1052 C1014 0.929 . S
H1053 C1016 0.930 . S
H1054 C1022 0.929 . S
H1055 C1023 0.930 . S
Li1056 N1073 1.990 . S
Li1056 O1116 1.956 . S
Li1056 O1117 1.970 . S
Li1056 O1118 1.961 . S
Li1057 N1081 1.990 . S
Li1057 O1116 1.970 . S
Li1057 O1117 1.956 . S
Li1057 O1119 1.961 . S
Li1058 N1103 1.990 . S
Li1058 O1116 1.961 . S
Li1058 O1118 1.956 . S
Li1058 O1119 1.970 . S
Li1059 N1109 1.990 . S
Li1059 O1117 1.961 . S
Li1059 O1118 1.970 . S
Li1059 O1119 1.956 . S
C1060 C1062 1.348 . S
C1060 C1063 1.356 . S
C1060 O1116 1.325 . S
N1061 C1064 1.314 . S
N1061 C1065 1.279 . S
C1062 C1060 1.348 . S
C1062 C1064 1.353 . S
C1062 H1120 0.929 . S
C1063 C1060 1.356 . S
C1063 C1065 1.358 . S
C1063 H1121 0.930 . S
C1064 N1061 1.314 . S
C1064 C1062 1.353 . S
C1064 H1122 0.930 . S
C1065 N1061 1.279 . S
C1065 C1063 1.358 . S
C1065 H1123 0.930 . S
C1066 C1069 1.348 . S
C1066 C1070 1.356 . S
C1066 O1117 1.325 . S
C1067 N1068 1.279 . S
C1067 C1070 1.358 . S
C1067 H1124 0.930 . S
N1068 C1067 1.279 . S
N1068 C1071 1.314 . S
C1069 C1066 1.348 . S
C1069 C1071 1.353 . S
C1069 H1125 0.929 . S
C1070 C1066 1.356 . S
C1070 C1067 1.358 . S
C1070 H1126 0.930 . S
C1071 N1068 1.314 . S
C1071 C1069 1.353 . S
C1071 H1127 0.930 . S
C1072 N1073 1.314 . S
C1072 C1077 1.353 . S
C1072 H1078 0.930 . S
N1073 Li1056 1.990 . S
N1073 C1072 1.314 . S
N1073 C1075 1.279 . S
C1074 C1075 1.358 . S
C1074 C1076 1.356 . S
C1074 H1128 0.930 . S
C1075 N1073 1.279 . S
C1075 C1074 1.358 . S
C1075 H1079 0.930 . S
C1076 C1074 1.356 . S
C1076 C1077 1.348 . S
C1077 C1072 1.353 . S
C1077 C1076 1.348 . S
C1077 H1129 0.929 . S
H1078 C1072 0.930 . S
H1079 C1075 0.930 . S
C1080 N1081 1.314 . S
C1080 C1082 1.353 . S
C1080 H1086 0.930 . S
N1081 Li1057 1.990 . S
N1081 C1080 1.314 . S
N1081 C1084 1.279 . S
C1082 C1080 1.353 . S
C1082 C1085 1.348 . S
C1082 H1130 0.929 . S
C1083 C1084 1.358 . S
C1083 C1085 1.356 . S
C1083 H1131 0.930 . S
C1084 N1081 1.279 . S
C1084 C1083 1.358 . S
C1084 H1087 0.930 . S
C1085 C1082 1.348 . S
C1085 C1083 1.356 . S
H1086 C1080 0.930 . S
H1087 C1084 0.930 . S
C1088 C1090 1.348 . S
C1088 C1091 1.356 . S
C1088 O1118 1.325 . S
N1089 C1092 1.314 . S
N1089 C1093 1.279 . S
C1090 C1088 1.348 . S
C1090 C1092 1.353 . S
C1090 H1132 0.929 . S
C1091 C1088 1.356 . S
C1091 C1093 1.358 . S
C1091 H1133 0.930 . S
C1092 N1089 1.314 . S
C1092 C1090 1.353 . S
C1092 H1134 0.930 . S
C1093 N1089 1.279 . S
C1093 C1091 1.358 . S
C1093 H1135 0.930 . S
C1094 C1095 1.348 . S
C1094 C1096 1.356 . S
C1094 O1119 1.325 . S
C1095 C1094 1.348 . S
C1095 C1097 1.353 . S
C1095 H1136 0.929 . S
C1096 C1094 1.356 . S
C1096 C1098 1.358 . S
C1096 H1137 0.930 . S
C1097 C1095 1.353 . S
C1097 N1099 1.314 . S
C1097 H1138 0.930 . S
C1098 C1096 1.358 . S
C1098 N1099 1.279 . S
C1098 H1139 0.930 . S
N1099 C1097 1.314 . S
N1099 C1098 1.279 . S
C1100 C1102 1.353 . S
C1100 N1103 1.314 . S
C1100 H1106 0.930 . S
C1101 N1103 1.279 . S
C1101 C1104 1.358 . S
C1101 H1107 0.930 . S
C1102 C1100 1.353 . S
C1102 C1105 1.348 . S
C1102 H1140 0.929 . S
N1103 Li1058 1.990 . S
N1103 C1100 1.314 . S
N1103 C1101 1.279 . S
C1104 C1101 1.358 . S
C1104 C1105 1.356 . S
C1104 H1141 0.930 . S
C1105 C1102 1.348 . S
C1105 C1104 1.356 . S
H1106 C1100 0.930 . S
H1107 C1101 0.930 . S
C1108 N1109 1.314 . S
C1108 C1110 1.353 . S
C1108 H1114 0.930 . S
N1109 Li1059 1.990 . S
N1109 C1108 1.314 . S
N1109 C1112 1.279 . S
C1110 C1108 1.353 . S
C1110 C1113 1.348 . S
C1110 H1142 0.929 . S
C1111 C1112 1.358 . S
C1111 C1113 1.356 . S
C1111 H1143 0.930 . S
C1112 N1109 1.279 . S
C1112 C1111 1.358 . S
C1112 H1115 0.930 . S
C1113 C1110 1.348 . S
C1113 C1111 1.356 . S
H1114 C1108 0.930 . S
H1115 C1112 0.930 . S
O1116 Li1056 1.956 . S
O1116 Li1057 1.970 . S
O1116 Li1058 1.961 . S
O1116 C1060 1.325 . S
O1117 Li1056 1.970 . S
O1117 Li1057 1.956 . S
O1117 Li1059 1.961 . S
O1117 C1066 1.325 . S
O1118 Li1056 1.961 . S
O1118 Li1058 1.956 . S
O1118 Li1059 1.970 . S
O1118 C1088 1.325 . S
O1119 Li1057 1.961 . S
O1119 Li1058 1.970 . S
O1119 Li1059 1.956 . S
O1119 C1094 1.325 . S
H1120 C1062 0.929 . S
H1121 C1063 0.930 . S
H1122 C1064 0.930 . S
H1123 C1065 0.930 . S
H1124 C1067 0.930 . S
H1125 C1069 0.929 . S
H1126 C1070 0.930 . S
H1127 C1071 0.930 . S
H1128 C1074 0.930 . S
H1129 C1077 0.929 . S
H1130 C1082 0.929 . S
H1131 C1083 0.930 . S
H1132 C1090 0.929 . S
H1133 C1091 0.930 . S
H1134 C1092 0.930 . S
H1135 C1093 0.930 . S
H1136 C1095 0.929 . S
H1137 C1096 0.930 . S
H1138 C1097 0.930 . S
H1139 C1098 0.930 . S
H1140 C1102 0.929 . S
H1141 C1104 0.930 . S
H1142 C1110 0.929 . S
H1143 C1111 0.930 . S
Li1144 N1161 1.990 . S
Li1144 O1204 1.956 . S
Li1144 O1205 1.970 . S
Li1144 O1206 1.961 . S
Li1145 N1169 1.990 . S
Li1145 O1204 1.970 . S
Li1145 O1205 1.956 . S
Li1145 O1207 1.961 . S
Li1146 N1191 1.990 . S
Li1146 O1204 1.961 . S
Li1146 O1206 1.956 . S
Li1146 O1207 1.970 . S
Li1147 N1197 1.990 . S
Li1147 O1205 1.961 . S
Li1147 O1206 1.970 . S
Li1147 O1207 1.956 . S
C1148 C1150 1.348 . S
C1148 C1151 1.360 . S
C1148 O1204 1.325 . S
N1149 C1152 1.314 . S
N1149 C1153 1.279 . S
C1150 C1148 1.348 . S
C1150 C1152 1.353 1_455 S
C1150 H1208 0.929 . S
C1151 C1148 1.360 . S
C1151 C1153 1.353 1_455 S
C1151 H1209 0.931 . S
C1152 N1149 1.314 . S
C1152 C1150 1.353 1_655 S
C1152 H1210 0.930 . S
C1153 N1149 1.279 . S
C1153 C1151 1.353 1_655 S
C1153 H1211 0.930 . S
C1154 C1157 1.348 . S
C1154 C1158 1.356 . S
C1154 O1205 1.325 . S
C1155 N1156 1.279 . S
C1155 C1158 1.358 . S
C1155 H1212 0.930 . S
N1156 C1155 1.279 . S
N1156 C1159 1.314 . S
C1157 C1154 1.348 . S
C1157 C1159 1.353 . S
C1157 H1213 0.929 . S
C1158 C1154 1.356 . S
C1158 C1155 1.358 . S
C1158 H1214 0.930 . S
C1159 N1156 1.314 . S
C1159 C1157 1.353 . S
C1159 H1215 0.930 . S
C1160 N1161 1.314 . S
C1160 C1165 1.353 . S
C1160 H1166 0.930 . S
N1161 Li1144 1.990 . S
N1161 C1160 1.314 . S
N1161 C1163 1.279 . S
C1162 C1163 1.358 . S
C1162 C1164 1.356 . S
C1162 H1216 0.930 1_455 S
C1163 N1161 1.279 . S
C1163 C1162 1.358 . S
C1163 H1167 0.930 . S
C1164 C1162 1.356 . S
C1164 C1165 1.348 . S
C1165 C1160 1.353 . S
C1165 C1164 1.348 . S
C1165 H1217 0.929 . S
H1166 C1160 0.930 . S
H1167 C1163 0.930 . S
C1168 N1169 1.314 . S
C1168 C1170 1.353 . S
C1168 H1174 0.930 . S
N1169 Li1145 1.990 . S
N1169 C1168 1.314 . S
N1169 C1172 1.279 . S
C1170 C1168 1.353 . S
C1170 C1173 1.348 . S
C1170 H1218 0.929 . S
C1171 C1172 1.358 . S
C1171 C1173 1.356 . S
C1171 H1219 0.930 . S
C1172 N1169 1.279 . S
C1172 C1171 1.358 . S
C1172 H1175 0.930 . S
C1173 C1170 1.348 . S
C1173 C1171 1.356 . S
H1174 C1168 0.930 . S
H1175 C1172 0.930 . S
C1176 C1178 1.348 . S
C1176 C1179 1.356 . S
C1176 O1206 1.325 . S
N1177 C1180 1.314 . S
N1177 C1181 1.279 . S
C1178 C1176 1.348 . S
C1178 C1180 1.353 . S
C1178 H1220 0.929 . S
C1179 C1176 1.356 . S
C1179 C1181 1.358 . S
C1179 H1221 0.930 . S
C1180 N1177 1.314 . S
C1180 C1178 1.353 . S
C1180 H1222 0.930 . S
C1181 N1177 1.279 . S
C1181 C1179 1.358 . S
C1181 H1223 0.930 . S
C1182 C1183 1.348 . S
C1182 C1184 1.356 . S
C1182 O1207 1.325 . S
C1183 C1182 1.348 . S
C1183 C1185 1.353 . S
C1183 H1224 0.929 . S
C1184 C1182 1.356 . S
C1184 C1186 1.358 . S
C1184 H1225 0.930 . S
C1185 C1183 1.353 . S
C1185 N1187 1.314 . S
C1185 H1226 0.930 . S
C1186 C1184 1.358 . S
C1186 N1187 1.279 . S
C1186 H1227 0.930 . S
N1187 C1185 1.314 . S
N1187 C1186 1.279 . S
C1188 C1190 1.353 . S
C1188 N1191 1.314 . S
C1188 H1194 0.930 . S
C1189 N1191 1.279 . S
C1189 C1192 1.358 . S
C1189 H1195 0.930 . S
C1190 C1188 1.353 . S
C1190 C1193 1.348 . S
C1190 H1228 0.929 . S
N1191 Li1146 1.990 . S
N1191 C1188 1.314 . S
N1191 C1189 1.279 . S
C1192 C1189 1.358 . S
C1192 C1193 1.356 . S
C1192 H1229 0.930 . S
C1193 C1190 1.348 . S
C1193 C1192 1.356 . S
H1194 C1188 0.930 . S
H1195 C1189 0.930 . S
C1196 N1197 1.314 . S
C1196 C1198 1.353 . S
C1196 H1202 0.930 . S
N1197 Li1147 1.990 . S
N1197 C1196 1.314 . S
N1197 C1200 1.279 . S
C1198 C1196 1.353 . S
C1198 C1201 1.348 . S
C1198 H1230 0.929 . S
C1199 C1200 1.358 . S
C1199 C1201 1.356 . S
C1199 H1231 0.930 . S
C1200 N1197 1.279 . S
C1200 C1199 1.358 . S
C1200 H1203 0.930 . S
C1201 C1198 1.348 . S
C1201 C1199 1.356 . S
H1202 C1196 0.930 . S
H1203 C1200 0.930 . S
O1204 Li1144 1.956 . S
O1204 Li1145 1.970 . S
O1204 Li1146 1.961 . S
O1204 C1148 1.325 . S
O1205 Li1144 1.970 . S
O1205 Li1145 1.956 . S
O1205 Li1147 1.961 . S
O1205 C1154 1.325 . S
O1206 Li1144 1.961 . S
O1206 Li1146 1.956 . S
O1206 Li1147 1.970 . S
O1206 C1176 1.325 . S
O1207 Li1145 1.961 . S
O1207 Li1146 1.970 . S
O1207 Li1147 1.956 . S
O1207 C1182 1.325 . S
H1208 C1150 0.929 . S
H1209 C1151 0.931 . S
H1210 C1152 0.930 . S
H1211 C1153 0.930 . S
H1212 C1155 0.930 . S
H1213 C1157 0.929 . S
H1214 C1158 0.930 . S
H1215 C1159 0.930 . S
H1216 C1162 0.930 1_655 S
H1217 C1165 0.929 . S
H1218 C1170 0.929 . S
H1219 C1171 0.930 . S
H1220 C1178 0.929 . S
H1221 C1179 0.930 . S
H1222 C1180 0.930 . S
H1223 C1181 0.930 . S
H1224 C1183 0.929 . S
H1225 C1184 0.930 . S
H1226 C1185 0.930 . S
H1227 C1186 0.930 . S
H1228 C1190 0.929 . S
H1229 C1192 0.930 . S
H1230 C1198 0.929 . S
H1231 C1199 0.930 . S
Li1232 N1249 1.990 . S
Li1232 O1292 1.956 . S
Li1232 O1293 1.970 . S
Li1232 O1294 1.961 . S
Li1233 N1257 1.990 . S
Li1233 O1292 1.970 . S
Li1233 O1293 1.956 . S
Li1233 O1295 1.961 . S
Li1234 N1279 1.990 . S
Li1234 O1292 1.961 . S
Li1234 O1294 1.956 . S
Li1234 O1295 1.970 . S
Li1235 N1285 1.990 . S
Li1235 O1293 1.961 . S
Li1235 O1294 1.970 . S
Li1235 O1295 1.956 . S
C1236 C1238 1.348 . S
C1236 C1239 1.356 . S
C1236 O1292 1.325 . S
N1237 C1240 1.314 . S
N1237 C1241 1.279 . S
C1238 C1236 1.348 . S
C1238 C1240 1.353 . S
C1238 H1296 0.929 . S
C1239 C1236 1.356 . S
C1239 C1241 1.358 . S
C1239 H1297 0.930 . S
C1240 N1237 1.314 . S
C1240 C1238 1.353 . S
C1240 H1298 0.930 . S
C1241 N1237 1.279 . S
C1241 C1239 1.358 . S
C1241 H1299 0.930 . S
C1242 C1245 1.348 . S
C1242 C1246 1.356 . S
C1242 O1293 1.325 . S
C1243 N1244 1.279 . S
C1243 C1246 1.358 . S
C1243 H1300 0.930 . S
N1244 C1243 1.279 . S
N1244 C1247 1.314 . S
C1245 C1242 1.348 . S
C1245 C1247 1.353 . S
C1245 H1301 0.929 . S
C1246 C1242 1.356 . S
C1246 C1243 1.358 . S
C1246 H1302 0.930 . S
C1247 N1244 1.314 . S
C1247 C1245 1.353 . S
C1247 H1303 0.930 . S
C1248 N1249 1.314 . S
C1248 C1253 1.353 . S
C1248 H1254 0.930 . S
N1249 Li1232 1.990 . S
N1249 C1248 1.314 . S
N1249 C1251 1.279 . S
C1250 C1251 1.358 . S
C1250 C1252 1.356 . S
C1250 H1304 0.930 . S
C1251 N1249 1.279 . S
C1251 C1250 1.358 . S
C1251 H1255 0.930 . S
C1252 C1250 1.356 . S
C1252 C1253 1.348 . S
C1253 C1248 1.353 . S
C1253 C1252 1.348 . S
C1253 H1305 0.929 . S
H1254 C1248 0.930 . S
H1255 C1251 0.930 . S
C1256 N1257 1.314 . S
C1256 C1258 1.353 . S
C1256 H1262 0.930 . S
N1257 Li1233 1.990 . S
N1257 C1256 1.314 . S
N1257 C1260 1.279 . S
C1258 C1256 1.353 . S
C1258 C1261 1.348 . S
C1258 H1306 0.929 . S
C1259 C1260 1.358 . S
C1259 C1261 1.356 . S
C1259 H1307 0.930 . S
C1260 N1257 1.279 . S
C1260 C1259 1.358 . S
C1260 H1263 0.930 . S
C1261 C1258 1.348 . S
C1261 C1259 1.356 . S
H1262 C1256 0.930 . S
H1263 C1260 0.930 . S
C1264 C1266 1.348 . S
C1264 C1267 1.356 . S
C1264 O1294 1.325 . S
N1265 C1268 1.314 . S
N1265 C1269 1.279 . S
C1266 C1264 1.348 . S
C1266 C1268 1.353 . S
C1266 H1308 0.929 . S
C1267 C1264 1.356 . S
C1267 C1269 1.358 . S
C1267 H1309 0.930 . S
C1268 N1265 1.314 . S
C1268 C1266 1.353 . S
C1268 H1310 0.930 . S
C1269 N1265 1.279 . S
C1269 C1267 1.358 . S
C1269 H1311 0.930 . S
C1270 C1271 1.348 . S
C1270 C1272 1.360 . S
C1270 O1295 1.325 . S
C1271 C1270 1.348 . S
C1271 C1273 1.353 1_655 S
C1271 H1312 0.929 . S
C1272 C1270 1.360 . S
C1272 C1274 1.353 1_655 S
C1272 H1313 0.931 . S
C1273 C1271 1.353 1_455 S
C1273 N1275 1.314 . S
C1273 H1314 0.930 . S
C1274 C1272 1.353 1_455 S
C1274 N1275 1.279 . S
C1274 H1315 0.930 . S
N1275 C1273 1.314 . S
N1275 C1274 1.279 . S
C1276 C1278 1.353 . S
C1276 N1279 1.314 . S
C1276 H1282 0.930 . S
C1277 N1279 1.279 . S
C1277 C1280 1.358 . S
C1277 H1283 0.930 . S
C1278 C1276 1.353 . S
C1278 C1281 1.348 . S
C1278 H1316 0.929 . S
N1279 Li1234 1.990 . S
N1279 C1276 1.314 . S
N1279 C1277 1.279 . S
C1280 C1277 1.358 . S
C1280 C1281 1.356 . S
C1280 H1317 0.930 . S
C1281 C1278 1.348 . S
C1281 C1280 1.356 . S
H1282 C1276 0.930 . S
H1283 C1277 0.930 . S
C1284 N1285 1.314 . S
C1284 C1286 1.353 . S
C1284 H1290 0.930 . S
N1285 Li1235 1.990 . S
N1285 C1284 1.314 . S
N1285 C1288 1.279 . S
C1286 C1284 1.353 . S
C1286 C1289 1.348 . S
C1286 H1318 0.929 . S
C1287 C1288 1.358 . S
C1287 C1289 1.356 . S
C1287 H1319 0.930 1_655 S
C1288 N1285 1.279 . S
C1288 C1287 1.358 . S
C1288 H1291 0.930 . S
C1289 C1286 1.348 . S
C1289 C1287 1.356 . S
H1290 C1284 0.930 . S
H1291 C1288 0.930 . S
O1292 Li1232 1.956 . S
O1292 Li1233 1.970 . S
O1292 Li1234 1.961 . S
O1292 C1236 1.325 . S
O1293 Li1232 1.970 . S
O1293 Li1233 1.956 . S
O1293 Li1235 1.961 . S
O1293 C1242 1.325 . S
O1294 Li1232 1.961 . S
O1294 Li1234 1.956 . S
O1294 Li1235 1.970 . S
O1294 C1264 1.325 . S
O1295 Li1233 1.961 . S
O1295 Li1234 1.970 . S
O1295 Li1235 1.956 . S
O1295 C1270 1.325 . S
H1296 C1238 0.929 . S
H1297 C1239 0.930 . S
H1298 C1240 0.930 . S
H1299 C1241 0.930 . S
H1300 C1243 0.930 . S
H1301 C1245 0.929 . S
H1302 C1246 0.930 . S
H1303 C1247 0.930 . S
H1304 C1250 0.930 . S
H1305 C1253 0.929 . S
H1306 C1258 0.929 . S
H1307 C1259 0.930 . S
H1308 C1266 0.929 . S
H1309 C1267 0.930 . S
H1310 C1268 0.930 . S
H1311 C1269 0.930 . S
H1312 C1271 0.929 . S
H1313 C1272 0.931 . S
H1314 C1273 0.930 . S
H1315 C1274 0.930 . S
H1316 C1278 0.929 . S
H1317 C1280 0.930 . S
H1318 C1286 0.929 . S
H1319 C1287 0.930 1_455 S
Li1320 N1337 1.990 . S
Li1320 O1380 1.956 . S
Li1320 O1381 1.970 . S
Li1320 O1382 1.961 . S
Li1321 N1345 1.990 . S
Li1321 O1380 1.970 . S
Li1321 O1381 1.956 . S
Li1321 O1383 1.961 . S
Li1322 N1367 1.990 . S
Li1322 O1380 1.961 . S
Li1322 O1382 1.956 . S
Li1322 O1383 1.970 . S
Li1323 N1373 1.990 . S
Li1323 O1381 1.961 . S
Li1323 O1382 1.970 . S
Li1323 O1383 1.956 . S
C1324 C1326 1.348 . S
C1324 C1327 1.356 . S
C1324 O1380 1.325 . S
N1325 C1328 1.314 . S
N1325 C1329 1.279 . S
C1326 C1324 1.348 . S
C1326 C1328 1.353 . S
C1326 H1384 0.929 . S
C1327 C1324 1.356 . S
C1327 C1329 1.358 . S
C1327 H1385 0.930 . S
C1328 N1325 1.314 . S
C1328 C1326 1.353 . S
C1328 H1386 0.930 . S
C1329 N1325 1.279 . S
C1329 C1327 1.358 . S
C1329 H1387 0.930 . S
C1330 C1333 1.348 . S
C1330 C1334 1.356 . S
C1330 O1381 1.325 . S
C1331 N1332 1.279 . S
C1331 C1334 1.358 . S
C1331 H1388 0.930 . S
N1332 C1331 1.279 . S
N1332 C1335 1.314 . S
C1333 C1330 1.348 . S
C1333 C1335 1.353 . S
C1333 H1389 0.929 . S
C1334 C1330 1.356 . S
C1334 C1331 1.358 . S
C1334 H1390 0.930 . S
C1335 N1332 1.314 . S
C1335 C1333 1.353 . S
C1335 H1391 0.930 . S
C1336 N1337 1.314 . S
C1336 C1341 1.353 . S
C1336 H1342 0.930 . S
N1337 Li1320 1.990 . S
N1337 C1336 1.314 . S
N1337 C1339 1.279 . S
C1338 C1339 1.358 . S
C1338 C1340 1.356 . S
C1338 H1392 0.930 . S
C1339 N1337 1.279 . S
C1339 C1338 1.358 . S
C1339 H1343 0.930 . S
C1340 C1338 1.356 . S
C1340 C1341 1.348 . S
C1341 C1336 1.353 . S
C1341 C1340 1.348 . S
C1341 H1393 0.929 . S
H1342 C1336 0.930 . S
H1343 C1339 0.930 . S
C1344 N1345 1.314 . S
C1344 C1346 1.353 . S
C1344 H1350 0.930 . S
N1345 Li1321 1.990 . S
N1345 C1344 1.314 . S
N1345 C1348 1.279 . S
C1346 C1344 1.353 . S
C1346 C1349 1.348 . S
C1346 H1394 0.929 . S
C1347 C1348 1.358 . S
C1347 C1349 1.356 . S
C1347 H1395 0.930 . S
C1348 N1345 1.279 . S
C1348 C1347 1.358 . S
C1348 H1351 0.930 . S
C1349 C1346 1.348 . S
C1349 C1347 1.356 . S
H1350 C1344 0.930 . S
H1351 C1348 0.930 . S
C1352 C1354 1.348 . S
C1352 C1355 1.356 . S
C1352 O1382 1.325 . S
N1353 C1356 1.314 . S
N1353 C1357 1.279 . S
C1354 C1352 1.348 . S
C1354 C1356 1.353 . S
C1354 H1396 0.929 . S
C1355 C1352 1.356 . S
C1355 C1357 1.358 . S
C1355 H1397 0.930 . S
C1356 N1353 1.314 . S
C1356 C1354 1.353 . S
C1356 H1398 0.930 . S
C1357 N1353 1.279 . S
C1357 C1355 1.358 . S
C1357 H1399 0.930 . S
C1358 C1359 1.348 . S
C1358 C1360 1.356 . S
C1358 O1383 1.325 . S
C1359 C1358 1.348 . S
C1359 C1361 1.353 . S
C1359 H1400 0.929 . S
C1360 C1358 1.356 . S
C1360 C1362 1.358 . S
C1360 H1401 0.930 . S
C1361 C1359 1.353 . S
C1361 N1363 1.314 . S
C1361 H1402 0.930 . S
C1362 C1360 1.358 . S
C1362 N1363 1.279 . S
C1362 H1403 0.930 . S
N1363 C1361 1.314 . S
N1363 C1362 1.279 . S
C1364 C1366 1.353 . S
C1364 N1367 1.314 . S
C1364 H1370 0.930 . S
C1365 N1367 1.279 . S
C1365 C1368 1.358 . S
C1365 H1371 0.930 . S
C1366 C1364 1.353 . S
C1366 C1369 1.348 . S
C1366 H1404 0.929 . S
N1367 Li1322 1.990 . S
N1367 C1364 1.314 . S
N1367 C1365 1.279 . S
C1368 C1365 1.358 . S
C1368 C1369 1.356 . S
C1368 H1405 0.930 . S
C1369 C1366 1.348 . S
C1369 C1368 1.356 . S
H1370 C1364 0.930 . S
H1371 C1365 0.930 . S
C1372 N1373 1.314 . S
C1372 C1374 1.353 . S
C1372 H1378 0.930 . S
N1373 Li1323 1.990 . S
N1373 C1372 1.314 . S
N1373 C1376 1.279 . S
C1374 C1372 1.353 . S
C1374 C1377 1.348 . S
C1374 H1406 0.929 . S
C1375 C1376 1.358 . S
C1375 C1377 1.356 . S
C1375 H1407 0.930 . S
C1376 N1373 1.279 . S
C1376 C1375 1.358 . S
C1376 H1379 0.930 . S
C1377 C1374 1.348 . S
C1377 C1375 1.356 . S
H1378 C1372 0.930 . S
H1379 C1376 0.930 . S
O1380 Li1320 1.956 . S
O1380 Li1321 1.970 . S
O1380 Li1322 1.961 . S
O1380 C1324 1.325 . S
O1381 Li1320 1.970 . S
O1381 Li1321 1.956 . S
O1381 Li1323 1.961 . S
O1381 C1330 1.325 . S
O1382 Li1320 1.961 . S
O1382 Li1322 1.956 . S
O1382 Li1323 1.970 . S
O1382 C1352 1.325 . S
O1383 Li1321 1.961 . S
O1383 Li1322 1.970 . S
O1383 Li1323 1.956 . S
O1383 C1358 1.325 . S
H1384 C1326 0.929 . S
H1385 C1327 0.930 . S
H1386 C1328 0.930 . S
H1387 C1329 0.930 . S
H1388 C1331 0.930 . S
H1389 C1333 0.929 . S
H1390 C1334 0.930 . S
H1391 C1335 0.930 . S
H1392 C1338 0.930 . S
H1393 C1341 0.929 . S
H1394 C1346 0.929 . S
H1395 C1347 0.930 . S
H1396 C1354 0.929 . S
H1397 C1355 0.930 . S
H1398 C1356 0.930 . S
H1399 C1357 0.930 . S
H1400 C1359 0.929 . S
H1401 C1360 0.930 . S
H1402 C1361 0.930 . S
H1403 C1362 0.930 . S
H1404 C1366 0.929 . S
H1405 C1368 0.930 . S
H1406 C1374 0.929 . S
H1407 C1375 0.930 . S
H1408 C1416 0.918 1_545 S
H1409 C1418 0.875 1_545 S
H1410 C1420 0.930 . S
H1411 C1423 0.929 . S
H1412 C1426 0.929 1_565 S
H1413 C1428 0.960 . S
H1414 C1428 0.974 . S
H1415 C1428 0.960 . S
C1416 H1408 0.918 1_565 S
C1416 C1417 1.377 . S
C1416 C1418 1.405 . S
C1417 C1416 1.377 . S
C1417 C1423 1.390 . S
C1418 H1409 0.875 1_565 S
C1418 C1416 1.405 . S
C1418 C1419 1.407 . S
C1419 C1418 1.407 . S
C1419 C1420 1.400 . S
C1419 C1424 1.490 . S
C1420 H1410 0.930 . S
C1420 C1419 1.400 . S
C1420 C1423 1.386 . S
H1421 C1437 0.930 1_565 S
H1422 C1438 0.931 1_565 S
C1423 H1411 0.929 . S
C1423 C1417 1.390 . S
C1423 C1420 1.386 . S
C1424 C1419 1.490 . S
C1424 C1426 1.392 1_565 S
C1424 C1427 1.403 . S
H1425 C1431 0.930 . S
C1426 H1412 0.929 1_545 S
C1426 C1424 1.392 1_545 S
C1426 C1429 1.407 . S
C1427 C1424 1.403 . S
C1427 C1428 1.524 . S
C1427 C1431 1.400 1_565 S
C1428 H1413 0.960 . S
C1428 H1414 0.974 . S
C1428 H1415 0.960 . S
C1428 C1427 1.524 . S
C1429 C1426 1.407 . S
C1429 C1430 1.392 . S
C1429 C1433 1.495 . S
C1430 C1429 1.392 . S
C1430 C1431 1.385 . S
C1430 C1432 1.478 . S
C1431 H1425 0.930 . S
C1431 C1427 1.400 1_545 S
C1431 C1430 1.385 . S
C1432 C1430 1.478 . S
C1432 C1434 1.381 . S
C1432 C1438 1.383 . S
C1433 C1429 1.495 . S
C1433 H1439 0.959 . S
C1433 H1440 0.961 . S
C1433 H1441 0.960 . S
C1434 C1432 1.381 . S
C1434 C1435 1.394 . S
C1434 H1442 0.930 . S
C1435 C1434 1.394 . S
C1435 C1436 1.383 . S
C1435 H1443 0.929 . S
C1436 C1435 1.383 . S
C1436 C1437 1.377 . S
C1437 H1421 0.930 1_545 S
C1437 C1436 1.377 . S
C1437 C1438 1.379 . S
C1438 H1422 0.931 1_545 S
C1438 C1432 1.383 . S
C1438 C1437 1.379 . S
H1439 C1433 0.959 . S
H1440 C1433 0.961 . S
H1441 C1433 0.960 . S
H1442 C1434 0.930 . S
H1443 C1435 0.929 . S
H1444 C1452 0.929 . S
H1445 C1454 0.930 . S
H1446 C1456 0.930 . S
H1447 C1459 0.929 . S
H1448 C1462 0.930 . S
H1449 C1464 0.960 . S
H1450 C1464 0.960 . S
H1451 C1464 0.960 . S
C1452 H1444 0.929 . S
C1452 C1453 1.377 . S
C1452 C1454 1.384 . S
C1453 C1452 1.377 . S
C1453 C1459 1.390 . S
C1454 H1445 0.930 . S
C1454 C1452 1.384 . S
C1454 C1455 1.372 . S
C1455 C1454 1.372 . S
C1455 C1456 1.400 . S
C1455 C1460 1.490 . S
C1456 H1446 0.930 . S
C1456 C1455 1.400 . S
C1456 C1459 1.386 . S
H1457 C1473 0.930 . S
H1458 C1474 0.931 . S
C1459 H1447 0.929 . S
C1459 C1453 1.390 . S
C1459 C1456 1.386 . S
C1460 C1455 1.490 . S
C1460 C1462 1.395 1_565 S
C1460 C1463 1.403 . S
H1461 C1467 0.930 . S
C1462 H1448 0.930 . S
C1462 C1460 1.395 1_545 S
C1462 C1465 1.403 . S
C1463 C1460 1.403 . S
C1463 C1464 1.524 . S
C1463 C1467 1.400 . S
C1464 H1449 0.960 . S
C1464 H1450 0.960 . S
C1464 H1451 0.960 . S
C1464 C1463 1.524 . S
C1465 C1462 1.403 . S
C1465 C1466 1.392 . S
C1465 C1469 1.495 . S
C1466 C1465 1.392 . S
C1466 C1467 1.385 1_545 S
C1466 C1468 1.478 . S
C1467 H1461 0.930 . S
C1467 C1463 1.400 . S
C1467 C1466 1.385 1_565 S
C1468 C1466 1.478 . S
C1468 C1470 1.381 . S
C1468 C1474 1.383 . S
C1469 C1465 1.495 . S
C1469 H1475 0.959 . S
C1469 H1476 0.961 . S
C1469 H1477 0.960 . S
C1470 C1468 1.381 . S
C1470 C1471 1.394 . S
C1470 H1478 0.930 . S
C1471 C1470 1.394 . S
C1471 C1472 1.383 . S
C1471 H1479 0.929 . S
C1472 C1471 1.383 . S
C1472 C1473 1.377 . S
C1473 H1457 0.930 . S
C1473 C1472 1.377 . S
C1473 C1474 1.379 . S
C1474 H1458 0.931 . S
C1474 C1468 1.383 . S
C1474 C1473 1.379 . S
H1475 C1469 0.959 . S
H1476 C1469 0.961 . S
H1477 C1469 0.960 . S
H1478 C1470 0.930 . S
H1479 C1471 0.929 . S
H1480 C1488 0.929 . S
H1481 C1490 0.930 1_545 S
H1482 C1492 0.930 . S
H1483 C1495 0.929 . S
H1484 C1498 0.930 . S
H1485 C1500 0.960 . S
H1486 C1500 0.960 . S
H1487 C1500 0.960 1_565 S
C1488 H1480 0.929 . S
C1488 C1489 1.377 . S
C1488 C1490 1.384 . S
C1489 C1488 1.377 . S
C1489 C1495 1.390 . S
C1490 H1481 0.930 1_565 S
C1490 C1488 1.384 . S
C1490 C1491 1.372 . S
C1491 C1490 1.372 . S
C1491 C1492 1.400 . S
C1491 C1496 1.490 . S
C1492 H1482 0.930 . S
C1492 C1491 1.400 . S
C1492 C1495 1.386 . S
H1493 C1509 0.930 . S
H1494 C1510 0.931 1_565 S
C1495 H1483 0.929 . S
C1495 C1489 1.390 . S
C1495 C1492 1.386 . S
C1496 C1491 1.490 . S
C1496 C1498 1.395 . S
C1496 C1499 1.403 1_565 S
H1497 C1503 0.930 . S
C1498 H1484 0.930 . S
C1498 C1496 1.395 . S
C1498 C1501 1.403 . S
C1499 C1496 1.403 1_545 S
C1499 C1500 1.524 . S
C1499 C1503 1.400 . S
C1500 H1485 0.960 . S
C1500 H1486 0.960 . S
C1500 H1487 0.960 1_545 S
C1500 C1499 1.524 . S
C1501 C1498 1.403 . S
C1501 C1502 1.392 1_565 S
C1501 C1505 1.495 . S
C1502 C1501 1.392 1_545 S
C1502 C1503 1.385 . S
C1502 C1504 1.478 . S
C1503 H1497 0.930 . S
C1503 C1499 1.400 . S
C1503 C1502 1.385 . S
C1504 C1502 1.478 . S
C1504 C1506 1.381 . S
C1504 C1510 1.383 . S
C1505 C1501 1.495 . S
C1505 H1511 0.959 . S
C1505 H1512 0.961 . S
C1505 H1513 0.960 1_565 S
C1506 C1504 1.381 . S
C1506 C1507 1.394 . S
C1506 H1514 0.930 . S
C1507 C1506 1.394 . S
C1507 C1508 1.383 . S
C1507 H1515 0.929 . S
C1508 C1507 1.383 . S
C1508 C1509 1.377 . S
C1509 H1493 0.930 . S
C1509 C1508 1.377 . S
C1509 C1510 1.379 . S
C1510 H1494 0.931 1_545 S
C1510 C1504 1.383 . S
C1510 C1509 1.379 . S
H1511 C1505 0.959 . S
H1512 C1505 0.961 . S
H1513 C1505 0.960 1_545 S
H1514 C1506 0.930 . S
H1515 C1507 0.929 . S
H1516 C1524 0.929 . S
H1517 C1526 0.930 1_545 S
H1518 C1528 0.930 . S
H1519 C1531 0.929 . S
H1520 C1534 0.930 . S
H1521 C1536 0.960 . S
H1522 C1536 0.960 . S
H1523 C1536 0.960 1_565 S
C1524 H1516 0.929 . S
C1524 C1525 1.377 . S
C1524 C1526 1.384 . S
C1525 C1524 1.377 . S
C1525 C1531 1.390 . S
C1526 H1517 0.930 1_565 S
C1526 C1524 1.384 . S
C1526 C1527 1.372 . S
C1527 C1526 1.372 . S
C1527 C1528 1.400 . S
C1527 C1532 1.490 . S
C1528 H1518 0.930 . S
C1528 C1527 1.400 . S
C1528 C1531 1.386 . S
H1529 C1545 0.930 . S
H1530 C1546 0.931 1_565 S
C1531 H1519 0.929 . S
C1531 C1525 1.390 . S
C1531 C1528 1.386 . S
C1532 C1527 1.490 . S
C1532 C1534 1.395 . S
C1532 C1535 1.403 1_565 S
H1533 C1539 0.930 . S
C1534 H1520 0.930 . S
C1534 C1532 1.395 . S
C1534 C1537 1.412 . S
C1535 C1532 1.403 1_545 S
C1535 C1536 1.524 . S
C1535 C1539 1.400 . S
C1536 H1521 0.960 . S
C1536 H1522 0.960 . S
C1536 H1523 0.960 1_545 S
C1536 C1535 1.524 . S
C1537 C1534 1.412 . S
C1537 C1538 1.383 1_565 S
C1537 C1541 1.497 . S
C1538 C1537 1.383 1_545 S
C1538 C1539 1.385 . S
C1538 C1540 1.478 . S
C1539 H1533 0.930 . S
C1539 C1535 1.400 . S
C1539 C1538 1.385 . S
C1540 C1538 1.478 . S
C1540 C1542 1.381 . S
C1540 C1546 1.383 . S
C1541 C1537 1.497 . S
C1541 H1547 0.959 . S
C1541 H1548 0.961 . S
C1541 H1549 0.960 1_565 S
C1542 C1540 1.381 . S
C1542 C1543 1.394 . S
C1542 H1550 0.930 . S
C1543 C1542 1.394 . S
C1543 C1544 1.383 . S
C1543 H1551 0.929 . S
C1544 C1543 1.383 . S
C1544 C1545 1.377 . S
C1545 H1529 0.930 . S
C1545 C1544 1.377 . S
C1545 C1546 1.379 . S
C1546 H1530 0.931 1_545 S
C1546 C1540 1.383 . S
C1546 C1545 1.379 . S
H1547 C1541 0.959 . S
H1548 C1541 0.961 . S
H1549 C1541 0.960 1_545 S
H1550 C1542 0.930 . S
H1551 C1543 0.929 . S
H1552 C1560 0.929 . S
H1553 C1562 0.930 . S
H1554 C1564 0.930 . S
H1555 C1567 0.929 . S
H1556 C1570 0.930 . S
H1557 C1572 0.960 . S
H1558 C1572 0.960 . S
H1559 C1572 0.960 . S
C1560 H1552 0.929 . S
C1560 C1561 1.377 . S
C1560 C1562 1.384 . S
C1561 C1560 1.377 . S
C1561 C1567 1.390 . S
C1562 H1553 0.930 . S
C1562 C1560 1.384 . S
C1562 C1563 1.372 . S
C1563 C1562 1.372 . S
C1563 C1564 1.400 . S
C1563 C1568 1.490 . S
C1564 H1554 0.930 . S
C1564 C1563 1.400 . S
C1564 C1567 1.386 . S
H1565 C1581 0.930 . S
H1566 C1582 0.931 . S
C1567 H1555 0.929 . S
C1567 C1561 1.390 . S
C1567 C1564 1.386 . S
C1568 C1563 1.490 . S
C1568 C1570 1.395 . S
C1568 C1571 1.403 . S
H1569 C1575 0.930 . S
C1570 H1556 0.930 . S
C1570 C1568 1.395 . S
C1570 C1573 1.403 . S
C1571 C1568 1.403 . S
C1571 C1572 1.524 . S
C1571 C1575 1.400 . S
C1572 H1557 0.960 . S
C1572 H1558 0.960 . S
C1572 H1559 0.960 . S
C1572 C1571 1.524 . S
C1573 C1570 1.403 . S
C1573 C1574 1.392 . S
C1573 C1577 1.495 . S
C1574 C1573 1.392 . S
C1574 C1575 1.385 . S
C1574 C1576 1.478 . S
C1575 H1569 0.930 . S
C1575 C1571 1.400 . S
C1575 C1574 1.385 . S
C1576 C1574 1.478 . S
C1576 C1578 1.381 . S
C1576 C1582 1.383 . S
C1577 C1573 1.495 . S
C1577 H1583 0.959 . S
C1577 H1584 0.961 . S
C1577 H1585 0.960 . S
C1578 C1576 1.381 . S
C1578 C1579 1.394 . S
C1578 H1586 0.930 . S
C1579 C1578 1.394 . S
C1579 C1580 1.383 . S
C1579 H1587 0.929 . S
C1580 C1579 1.383 . S
C1580 C1581 1.377 . S
C1581 H1565 0.930 . S
C1581 C1580 1.377 . S
C1581 C1582 1.379 . S
C1582 H1566 0.931 . S
C1582 C1576 1.383 . S
C1582 C1581 1.379 . S
H1583 C1577 0.959 . S
H1584 C1577 0.961 . S
H1585 C1577 0.960 . S
H1586 C1578 0.930 . S
H1587 C1579 0.929 . S
H1588 C1596 0.929 . S
H1589 C1598 0.930 . S
H1590 C1600 0.930 . S
H1591 C1603 0.929 . S
H1592 C1606 0.930 . S
H1593 C1608 0.960 . S
H1594 C1608 0.960 . S
H1595 C1608 0.960 . S
C1596 H1588 0.929 . S
C1596 C1597 1.377 . S
C1596 C1598 1.384 . S
C1597 C1596 1.377 . S
C1597 C1603 1.390 . S
C1598 H1589 0.930 . S
C1598 C1596 1.384 . S
C1598 C1599 1.372 . S
C1599 C1598 1.372 . S
C1599 C1600 1.400 . S
C1599 C1604 1.490 . S
C1600 H1590 0.930 . S
C1600 C1599 1.400 . S
C1600 C1603 1.386 . S
H1601 C1617 0.930 . S
H1602 C1618 0.931 . S
C1603 H1591 0.929 . S
C1603 C1597 1.390 . S
C1603 C1600 1.386 . S
C1604 C1599 1.490 . S
C1604 C1606 1.395 . S
C1604 C1607 1.403 . S
H1605 C1611 0.930 . S
C1606 H1592 0.930 . S
C1606 C1604 1.395 . S
C1606 C1609 1.403 . S
C1607 C1604 1.403 . S
C1607 C1608 1.524 . S
C1607 C1611 1.400 . S
C1608 H1593 0.960 . S
C1608 H1594 0.960 . S
C1608 H1595 0.960 . S
C1608 C1607 1.524 . S
C1609 C1606 1.403 . S
C1609 C1610 1.392 . S
C1609 C1613 1.495 . S
C1610 C1609 1.392 . S
C1610 C1611 1.385 . S
C1610 C1612 1.478 . S
C1611 H1605 0.930 . S
C1611 C1607 1.400 . S
C1611 C1610 1.385 . S
C1612 C1610 1.478 . S
C1612 C1614 1.381 . S
C1612 C1618 1.383 . S
C1613 C1609 1.495 . S
C1613 H1619 0.959 . S
C1613 H1620 0.961 . S
C1613 H1621 0.960 . S
C1614 C1612 1.381 . S
C1614 C1615 1.394 . S
C1614 H1622 0.930 . S
C1615 C1614 1.394 . S
C1615 C1616 1.383 . S
C1615 H1623 0.929 . S
C1616 C1615 1.383 . S
C1616 C1617 1.377 . S
C1617 H1601 0.930 . S
C1617 C1616 1.377 . S
C1617 C1618 1.379 . S
C1618 H1602 0.931 . S
C1618 C1612 1.383 . S
C1618 C1617 1.379 . S
H1619 C1613 0.959 . S
H1620 C1613 0.961 . S
H1621 C1613 0.960 . S
H1622 C1614 0.930 . S
H1623 C1615 0.929 . S
H1624 C1632 0.929 . S
H1625 C1634 0.930 . S
H1626 C1636 0.930 . S
H1627 C1639 0.929 . S
H1628 C1642 0.930 . S
H1629 C1644 0.960 . S
H1630 C1644 0.960 . S
H1631 C1644 0.960 . S
C1632 H1624 0.929 . S
C1632 C1633 1.377 . S
C1632 C1634 1.384 . S
C1633 C1632 1.377 . S
C1633 C1639 1.390 . S
C1634 H1625 0.930 . S
C1634 C1632 1.384 . S
C1634 C1635 1.372 . S
C1635 C1634 1.372 . S
C1635 C1636 1.400 . S
C1635 C1640 1.490 . S
C1636 H1626 0.930 . S
C1636 C1635 1.400 . S
C1636 C1639 1.386 . S
H1637 C1653 0.930 . S
H1638 C1654 0.931 . S
C1639 H1627 0.929 . S
C1639 C1633 1.390 . S
C1639 C1636 1.386 . S
C1640 C1635 1.490 . S
C1640 C1642 1.395 . S
C1640 C1643 1.403 . S
H1641 C1647 0.930 . S
C1642 H1628 0.930 . S
C1642 C1640 1.395 . S
C1642 C1645 1.403 . S
C1643 C1640 1.403 . S
C1643 C1644 1.524 . S
C1643 C1647 1.400 . S
C1644 H1629 0.960 . S
C1644 H1630 0.960 . S
C1644 H1631 0.960 . S
C1644 C1643 1.524 . S
C1645 C1642 1.403 . S
C1645 C1646 1.392 . S
C1645 C1649 1.495 . S
C1646 C1645 1.392 . S
C1646 C1647 1.385 . S
C1646 C1648 1.478 . S
C1647 H1641 0.930 . S
C1647 C1643 1.400 . S
C1647 C1646 1.385 . S
C1648 C1646 1.478 . S
C1648 C1650 1.381 . S
C1648 C1654 1.383 . S
C1649 C1645 1.495 . S
C1649 H1655 0.959 . S
C1649 H1656 0.961 . S
C1649 H1657 0.960 . S
C1650 C1648 1.381 . S
C1650 C1651 1.394 . S
C1650 H1658 0.930 . S
C1651 C1650 1.394 . S
C1651 C1652 1.383 . S
C1651 H1659 0.929 . S
C1652 C1651 1.383 . S
C1652 C1653 1.377 . S
C1653 H1637 0.930 . S
C1653 C1652 1.377 . S
C1653 C1654 1.379 . S
C1654 H1638 0.931 . S
C1654 C1648 1.383 . S
C1654 C1653 1.379 . S
H1655 C1649 0.959 . S
H1656 C1649 0.961 . S
H1657 C1649 0.960 . S
H1658 C1650 0.930 . S
H1659 C1651 0.929 . S
H1660 C1668 0.929 . S
H1661 C1670 0.930 . S
H1662 C1672 0.930 . S
H1663 C1675 0.929 . S
H1664 C1678 0.930 . S
H1665 C1680 0.960 . S
H1666 C1680 0.960 . S
H1667 C1680 0.960 . S
C1668 H1660 0.929 . S
C1668 C1669 1.377 . S
C1668 C1670 1.384 . S
C1669 C1668 1.377 . S
C1669 C1675 1.390 . S
C1670 H1661 0.930 . S
C1670 C1668 1.384 . S
C1670 C1671 1.372 . S
C1671 C1670 1.372 . S
C1671 C1672 1.400 . S
C1671 C1676 1.490 . S
C1672 H1662 0.930 . S
C1672 C1671 1.400 . S
C1672 C1675 1.386 . S
H1673 C1689 0.930 . S
H1674 C1690 0.931 . S
C1675 H1663 0.929 . S
C1675 C1669 1.390 . S
C1675 C1672 1.386 . S
C1676 C1671 1.490 . S
C1676 C1678 1.395 . S
C1676 C1679 1.403 . S
H1677 C1683 0.930 . S
C1678 H1664 0.930 . S
C1678 C1676 1.395 . S
C1678 C1681 1.403 . S
C1679 C1676 1.403 . S
C1679 C1680 1.524 . S
C1679 C1683 1.400 . S
C1680 H1665 0.960 . S
C1680 H1666 0.960 . S
C1680 H1667 0.960 . S
C1680 C1679 1.524 . S
C1681 C1678 1.403 . S
C1681 C1682 1.392 . S
C1681 C1685 1.495 . S
C1682 C1681 1.392 . S
C1682 C1683 1.385 . S
C1682 C1684 1.478 . S
C1683 H1677 0.930 . S
C1683 C1679 1.400 . S
C1683 C1682 1.385 . S
C1684 C1682 1.478 . S
C1684 C1686 1.381 . S
C1684 C1690 1.383 . S
C1685 C1681 1.495 . S
C1685 H1691 0.959 . S
C1685 H1692 0.961 . S
C1685 H1693 0.960 . S
C1686 C1684 1.381 . S
C1686 C1687 1.394 . S
C1686 H1694 0.930 . S
C1687 C1686 1.394 . S
C1687 C1688 1.383 . S
C1687 H1695 0.929 . S
C1688 C1687 1.383 . S
C1688 C1689 1.377 . S
C1689 H1673 0.930 . S
C1689 C1688 1.377 . S
C1689 C1690 1.379 . S
C1690 H1674 0.931 . S
C1690 C1684 1.383 . S
C1690 C1689 1.379 . S
H1691 C1685 0.959 . S
H1692 C1685 0.961 . S
H1693 C1685 0.960 . S
H1694 C1686 0.930 . S
H1695 C1687 0.929 . S
H1696 C1704 0.929 1_565 S
H1697 C1706 0.930 1_565 S
H1698 C1708 0.930 . S
H1699 C1711 0.929 . S
H1700 C1714 0.930 . S
H1701 C1716 0.960 . S
H1702 C1716 0.960 . S
H1703 C1716 0.960 . S
C1704 H1696 0.929 1_545 S
C1704 C1705 1.377 . S
C1704 C1706 1.384 . S
C1705 C1704 1.377 . S
C1705 C1711 1.390 . S
C1706 H1697 0.930 1_545 S
C1706 C1704 1.384 . S
C1706 C1707 1.372 . S
C1707 C1706 1.372 . S
C1707 C1708 1.400 . S
C1707 C1712 1.490 . S
C1708 H1698 0.930 . S
C1708 C1707 1.400 . S
C1708 C1711 1.386 . S
H1709 C1725 0.930 . S
H1710 C1726 0.931 . S
C1711 H1699 0.929 . S
C1711 C1705 1.390 . S
C1711 C1708 1.386 . S
C1712 C1707 1.490 . S
C1712 C1714 1.395 . S
C1712 C1715 1.403 1_655 S
H1713 C1719 0.930 . S
C1714 H1700 0.930 . S
C1714 C1712 1.395 . S
C1714 C1717 1.403 . S
C1715 C1712 1.403 1_455 S
C1715 C1716 1.524 . S
C1715 C1719 1.400 . S
C1716 H1701 0.960 . S
C1716 H1702 0.960 . S
C1716 H1703 0.960 . S
C1716 C1715 1.524 . S
C1717 C1714 1.403 . S
C1717 C1718 1.381 1_655 S
C1717 C1721 1.495 . S
C1718 C1717 1.381 1_455 S
C1718 C1719 1.395 . S
C1718 C1720 1.480 . S
C1719 H1713 0.930 . S
C1719 C1715 1.400 . S
C1719 C1718 1.395 . S
C1720 C1718 1.480 . S
C1720 C1722 1.424 . S
C1720 C1726 1.383 . S
C1721 C1717 1.495 . S
C1721 H1727 0.970 . S
C1721 H1728 0.961 . S
C1721 H1729 0.960 1_545 S
C1722 C1720 1.424 . S
C1722 C1723 1.396 . S
C1722 H1730 0.886 1_545 S
C1723 C1722 1.396 . S
C1723 C1724 1.383 . S
C1723 H1731 0.929 1_545 S
C1724 C1723 1.383 . S
C1724 C1725 1.377 . S
C1725 H1709 0.930 . S
C1725 C1724 1.377 . S
C1725 C1726 1.379 . S
C1726 H1710 0.931 . S
C1726 C1720 1.383 . S
C1726 C1725 1.379 . S
H1727 C1721 0.970 . S
H1728 C1721 0.961 . S
H1729 C1721 0.960 1_565 S
H1730 C1722 0.886 1_565 S
H1731 C1723 0.929 1_565 S
H1732 C1740 0.929 1_545 S
H1733 C1742 0.930 1_545 S
H1734 C1744 0.930 . S
H1735 C1747 0.929 . S
H1736 C1750 0.930 1_545 S
H1737 C1752 0.960 . S
H1738 C1752 0.960 . S
H1739 C1752 0.960 . S
C1740 H1732 0.929 1_565 S
C1740 C1741 1.377 . S
C1740 C1742 1.384 . S
C1741 C1740 1.377 . S
C1741 C1747 1.390 . S
C1742 H1733 0.930 1_565 S
C1742 C1740 1.384 . S
C1742 C1743 1.372 . S
C1743 C1742 1.372 . S
C1743 C1744 1.400 . S
C1743 C1748 1.490 . S
C1744 H1734 0.930 . S
C1744 C1743 1.400 . S
C1744 C1747 1.386 . S
H1745 C1761 0.930 . S
H1746 C1762 0.931 . S
C1747 H1735 0.929 . S
C1747 C1741 1.390 . S
C1747 C1744 1.386 . S
C1748 C1743 1.490 . S
C1748 C1750 1.395 . S
C1748 C1751 1.403 . S
H1749 C1755 0.930 . S
C1750 H1736 0.930 1_565 S
C1750 C1748 1.395 . S
C1750 C1753 1.403 . S
C1751 C1748 1.403 . S
C1751 C1752 1.524 . S
C1751 C1755 1.400 . S
C1752 H1737 0.960 . S
C1752 H1738 0.960 . S
C1752 H1739 0.960 . S
C1752 C1751 1.524 . S
C1753 C1750 1.403 . S
C1753 C1754 1.392 . S
C1753 C1757 1.495 1_565 S
C1754 C1753 1.392 . S
C1754 C1755 1.385 . S
C1754 C1756 1.478 . S
C1755 H1749 0.930 . S
C1755 C1751 1.400 . S
C1755 C1754 1.385 . S
C1756 C1754 1.478 . S
C1756 C1758 1.381 . S
C1756 C1762 1.383 . S
C1757 C1753 1.495 1_545 S
C1757 H1763 0.959 . S
C1757 H1764 0.961 . S
C1757 H1765 0.960 . S
C1758 C1756 1.381 . S
C1758 C1759 1.394 . S
C1758 H1766 0.930 1_565 S
C1759 C1758 1.394 . S
C1759 C1760 1.383 . S
C1759 H1767 0.929 1_565 S
C1760 C1759 1.383 . S
C1760 C1761 1.377 . S
C1761 H1745 0.930 . S
C1761 C1760 1.377 . S
C1761 C1762 1.379 . S
C1762 H1746 0.931 . S
C1762 C1756 1.383 . S
C1762 C1761 1.379 . S
H1763 C1757 0.959 . S
H1764 C1757 0.961 . S
H1765 C1757 0.960 . S
H1766 C1758 0.930 1_545 S
H1767 C1759 0.929 1_545 S
H1768 C1776 0.929 . S
H1769 C1778 0.930 . S
H1770 C1780 0.930 . S
H1771 C1783 0.929 . S
H1772 C1786 0.930 . S
H1773 C1788 0.960 . S
H1774 C1788 0.960 . S
H1775 C1788 0.960 . S
C1776 H1768 0.929 . S
C1776 C1777 1.377 1_655 S
C1776 C1778 1.384 . S
C1777 C1776 1.377 1_455 S
C1777 C1783 1.390 . S
C1778 H1769 0.930 . S
C1778 C1776 1.384 . S
C1778 C1779 1.372 1_655 S
C1779 C1778 1.372 1_455 S
C1779 C1780 1.400 . S
C1779 C1784 1.490 . S
C1780 H1770 0.930 . S
C1780 C1779 1.400 . S
C1780 C1783 1.386 . S
H1781 C1797 0.930 . S
H1782 C1798 0.931 . S
C1783 H1771 0.929 . S
C1783 C1777 1.390 . S
C1783 C1780 1.386 . S
C1784 C1779 1.490 . S
C1784 C1786 1.395 1_455 S
C1784 C1787 1.403 . S
H1785 C1791 0.930 1_545 S
C1786 H1772 0.930 . S
C1786 C1784 1.395 1_655 S
C1786 C1789 1.403 . S
C1787 C1784 1.403 . S
C1787 C1788 1.524 1_565 S
C1787 C1791 1.400 . S
C1788 H1773 0.960 . S
C1788 H1774 0.960 . S
C1788 H1775 0.960 . S
C1788 C1787 1.524 1_545 S
C1789 C1786 1.403 . S
C1789 C1790 1.392 . S
C1789 C1793 1.495 . S
C1790 C1789 1.392 . S
C1790 C1791 1.385 1_655 S
C1790 C1792 1.478 . S
C1791 H1785 0.930 1_565 S
C1791 C1787 1.400 . S
C1791 C1790 1.385 1_455 S
C1792 C1790 1.478 . S
C1792 C1794 1.381 . S
C1792 C1798 1.383 1_655 S
C1793 C1789 1.495 . S
C1793 H1799 0.959 . S
C1793 H1800 0.961 . S
C1793 H1801 0.960 . S
C1794 C1792 1.381 . S
C1794 C1795 1.394 . S
C1794 H1802 0.930 . S
C1795 C1794 1.394 . S
C1795 C1796 1.383 . S
C1795 H1803 0.929 . S
C1796 C1795 1.383 . S
C1796 C1797 1.377 1_655 S
C1797 H1781 0.930 . S
C1797 C1796 1.377 1_455 S
C1797 C1798 1.379 . S
C1798 H1782 0.931 . S
C1798 C1792 1.383 1_455 S
C1798 C1797 1.379 . S
H1799 C1793 0.959 . S
H1800 C1793 0.961 . S
H1801 C1793 0.960 . S
H1802 C1794 0.930 . S
H1803 C1795 0.929 . S
H1804 C1812 0.929 . S
H1805 C1814 0.930 . S
H1806 C1816 0.930 . S
H1807 C1819 0.929 . S
H1808 C1822 0.930 . S
H1809 C1824 0.960 . S
H1810 C1824 0.960 . S
H1811 C1824 0.960 . S
C1812 H1804 0.929 . S
C1812 C1813 1.377 . S
C1812 C1814 1.384 . S
C1813 C1812 1.377 . S
C1813 C1819 1.390 . S
C1814 H1805 0.930 . S
C1814 C1812 1.384 . S
C1814 C1815 1.372 . S
C1815 C1814 1.372 . S
C1815 C1816 1.400 . S
C1815 C1820 1.490 . S
C1816 H1806 0.930 . S
C1816 C1815 1.400 . S
C1816 C1819 1.386 . S
H1817 C1833 0.930 . S
H1818 C1834 0.931 . S
C1819 H1807 0.929 . S
C1819 C1813 1.390 . S
C1819 C1816 1.386 . S
C1820 C1815 1.490 . S
C1820 C1822 1.395 . S
C1820 C1823 1.403 . S
H1821 C1827 0.930 1_565 S
C1822 H1808 0.930 . S
C1822 C1820 1.395 . S
C1822 C1825 1.403 . S
C1823 C1820 1.403 . S
C1823 C1824 1.524 1_545 S
C1823 C1827 1.400 . S
C1824 H1809 0.960 . S
C1824 H1810 0.960 . S
C1824 H1811 0.960 . S
C1824 C1823 1.524 1_565 S
C1825 C1822 1.403 . S
C1825 C1826 1.392 . S
C1825 C1829 1.495 . S
C1826 C1825 1.392 . S
C1826 C1827 1.385 . S
C1826 C1828 1.478 . S
C1827 H1821 0.930 1_545 S
C1827 C1823 1.400 . S
C1827 C1826 1.385 . S
C1828 C1826 1.478 . S
C1828 C1830 1.381 . S
C1828 C1834 1.383 . S
C1829 C1825 1.495 . S
C1829 H1835 0.959 . S
C1829 H1836 0.961 . S
C1829 H1837 0.960 . S
C1830 C1828 1.381 . S
C1830 C1831 1.394 . S
C1830 H1838 0.930 . S
C1831 C1830 1.394 . S
C1831 C1832 1.383 . S
C1831 H1839 0.929 . S
C1832 C1831 1.383 . S
C1832 C1833 1.377 . S
C1833 H1817 0.930 . S
C1833 C1832 1.377 . S
C1833 C1834 1.379 . S
C1834 H1818 0.931 . S
C1834 C1828 1.383 . S
C1834 C1833 1.379 . S
H1835 C1829 0.959 . S
H1836 C1829 0.961 . S
H1837 C1829 0.960 . S
H1838 C1830 0.930 . S
H1839 C1831 0.929 . S
H1840 C1848 0.929 . S
H1841 C1850 0.930 . S
H1842 C1852 0.930 . S
H1843 C1855 0.929 . S
H1844 C1858 0.930 . S
H1845 C1860 0.960 . S
H1846 C1860 0.960 . S
H1847 C1860 0.960 . S
C1848 H1840 0.929 . S
C1848 C1849 1.377 . S
C1848 C1850 1.384 . S
C1849 C1848 1.377 . S
C1849 C1855 1.390 . S
C1850 H1841 0.930 . S
C1850 C1848 1.384 . S
C1850 C1851 1.372 . S
C1851 C1850 1.372 . S
C1851 C1852 1.400 . S
C1851 C1856 1.490 . S
C1852 H1842 0.930 . S
C1852 C1851 1.400 . S
C1852 C1855 1.386 . S
H1853 C1869 0.930 . S
H1854 C1870 0.931 . S
C1855 H1843 0.929 . S
C1855 C1849 1.390 . S
C1855 C1852 1.386 . S
C1856 C1851 1.490 . S
C1856 C1858 1.395 . S
C1856 C1859 1.403 . S
H1857 C1863 0.930 . S
C1858 H1844 0.930 . S
C1858 C1856 1.395 . S
C1858 C1861 1.403 . S
C1859 C1856 1.403 . S
C1859 C1860 1.524 . S
C1859 C1863 1.400 . S
C1860 H1845 0.960 . S
C1860 H1846 0.960 . S
C1860 H1847 0.960 . S
C1860 C1859 1.524 . S
C1861 C1858 1.403 . S
C1861 C1862 1.392 . S
C1861 C1865 1.495 . S
C1862 C1861 1.392 . S
C1862 C1863 1.385 . S
C1862 C1864 1.478 . S
C1863 H1857 0.930 . S
C1863 C1859 1.400 . S
C1863 C1862 1.385 . S
C1864 C1862 1.478 . S
C1864 C1866 1.381 . S
C1864 C1870 1.383 . S
C1865 C1861 1.495 . S
C1865 H1871 0.959 . S
C1865 H1872 0.961 . S
C1865 H1873 0.960 . S
C1866 C1864 1.381 . S
C1866 C1867 1.394 . S
C1866 H1874 0.930 . S
C1867 C1866 1.394 . S
C1867 C1868 1.383 . S
C1867 H1875 0.929 . S
C1868 C1867 1.383 . S
C1868 C1869 1.377 . S
C1869 H1853 0.930 . S
C1869 C1868 1.377 . S
C1869 C1870 1.379 . S
C1870 H1854 0.931 . S
C1870 C1864 1.383 . S
C1870 C1869 1.379 . S
H1871 C1865 0.959 . S
H1872 C1865 0.961 . S
H1873 C1865 0.960 . S
H1874 C1866 0.930 . S
H1875 C1867 0.929 . S
H1876 C1884 0.929 . S
H1877 C1886 0.930 . S
H1878 C1888 0.930 . S
H1879 C1891 0.929 . S
H1880 C1894 0.930 . S
H1881 C1896 0.960 . S
H1882 C1896 0.960 . S
H1883 C1896 0.960 . S
C1884 H1876 0.929 . S
C1884 C1885 1.377 . S
C1884 C1886 1.384 . S
C1885 C1884 1.377 . S
C1885 C1891 1.390 . S
C1886 H1877 0.930 . S
C1886 C1884 1.384 . S
C1886 C1887 1.372 . S
C1887 C1886 1.372 . S
C1887 C1888 1.400 . S
C1887 C1892 1.490 . S
C1888 H1878 0.930 . S
C1888 C1887 1.400 . S
C1888 C1891 1.386 . S
H1889 C1905 0.930 . S
H1890 C1906 0.931 . S
C1891 H1879 0.929 . S
C1891 C1885 1.390 . S
C1891 C1888 1.386 . S
C1892 C1887 1.490 . S
C1892 C1894 1.395 1_455 S
C1892 C1895 1.403 . S
H1893 C1899 0.930 . S
C1894 H1880 0.930 . S
C1894 C1892 1.395 1_655 S
C1894 C1897 1.403 . S
C1895 C1892 1.403 . S
C1895 C1896 1.524 . S
C1895 C1899 1.400 . S
C1896 H1881 0.960 . S
C1896 H1882 0.960 . S
C1896 H1883 0.960 . S
C1896 C1895 1.524 . S
C1897 C1894 1.403 . S
C1897 C1898 1.392 . S
C1897 C1901 1.495 . S
C1898 C1897 1.392 . S
C1898 C1899 1.385 1_655 S
C1898 C1900 1.478 . S
C1899 H1893 0.930 . S
C1899 C1895 1.400 . S
C1899 C1898 1.385 1_455 S
C1900 C1898 1.478 . S
C1900 C1902 1.381 . S
C1900 C1906 1.383 . S
C1901 C1897 1.495 . S
C1901 H1907 0.959 . S
C1901 H1908 0.961 . S
C1901 H1909 0.960 . S
C1902 C1900 1.381 . S
C1902 C1903 1.394 . S
C1902 H1910 0.930 . S
C1903 C1902 1.394 . S
C1903 C1904 1.383 . S
C1903 H1911 0.929 . S
C1904 C1903 1.383 . S
C1904 C1905 1.377 . S
C1905 H1889 0.930 . S
C1905 C1904 1.377 . S
C1905 C1906 1.379 . S
C1906 H1890 0.931 . S
C1906 C1900 1.383 . S
C1906 C1905 1.379 . S
H1907 C1901 0.959 . S
H1908 C1901 0.961 . S
H1909 C1901 0.960 . S
H1910 C1902 0.930 . S
H1911 C1903 0.929 . S
H1912 C1920 0.929 . S
H1913 C1922 0.930 . S
H1914 C1924 0.930 . S
H1915 C1927 0.929 . S
H1916 C1930 0.930 . S
H1917 C1932 0.960 . S
H1918 C1932 0.960 . S
H1919 C1932 0.960 . S
C1920 H1912 0.929 . S
C1920 C1921 1.377 . S
C1920 C1922 1.384 . S
C1921 C1920 1.377 . S
C1921 C1927 1.390 . S
C1922 H1913 0.930 . S
C1922 C1920 1.384 . S
C1922 C1923 1.372 . S
C1923 C1922 1.372 . S
C1923 C1924 1.400 . S
C1923 C1928 1.490 . S
C1924 H1914 0.930 . S
C1924 C1923 1.400 . S
C1924 C1927 1.386 . S
H1925 C1941 0.930 . S
H1926 C1942 0.931 . S
C1927 H1915 0.929 . S
C1927 C1921 1.390 . S
C1927 C1924 1.386 . S
C1928 C1923 1.490 . S
C1928 C1930 1.395 . S
C1928 C1931 1.403 . S
H1929 C1935 0.930 . S
C1930 H1916 0.930 . S
C1930 C1928 1.395 . S
C1930 C1933 1.403 . S
C1931 C1928 1.403 . S
C1931 C1932 1.524 . S
C1931 C1935 1.400 . S
C1932 H1917 0.960 . S
C1932 H1918 0.960 . S
C1932 H1919 0.960 . S
C1932 C1931 1.524 . S
C1933 C1930 1.403 . S
C1933 C1934 1.392 . S
C1933 C1937 1.495 . S
C1934 C1933 1.392 . S
C1934 C1935 1.385 . S
C1934 C1936 1.478 . S
C1935 H1929 0.930 . S
C1935 C1931 1.400 . S
C1935 C1934 1.385 . S
C1936 C1934 1.478 . S
C1936 C1938 1.381 . S
C1936 C1942 1.383 . S
C1937 C1933 1.495 . S
C1937 H1943 0.959 . S
C1937 H1944 0.961 . S
C1937 H1945 0.960 . S
C1938 C1936 1.381 . S
C1938 C1939 1.394 . S
C1938 H1946 0.930 . S
C1939 C1938 1.394 . S
C1939 C1940 1.383 . S
C1939 H1947 0.929 . S
C1940 C1939 1.383 . S
C1940 C1941 1.377 . S
C1941 H1925 0.930 . S
C1941 C1940 1.377 . S
C1941 C1942 1.379 . S
C1942 H1926 0.931 . S
C1942 C1936 1.383 . S
C1942 C1941 1.379 . S
H1943 C1937 0.959 . S
H1944 C1937 0.961 . S
H1945 C1937 0.960 . S
H1946 C1938 0.930 . S
H1947 C1939 0.929 . S
H1948 C1956 0.929 . S
H1949 C1958 0.930 . S
H1950 C1960 0.930 1_655 S
H1951 C1963 0.929 . S
H1952 C1966 0.930 . S
H1953 C1968 0.960 . S
H1954 C1968 0.960 . S
H1955 C1968 0.960 . S
C1956 H1948 0.929 . S
C1956 C1957 1.377 . S
C1956 C1958 1.384 . S
C1957 C1956 1.377 . S
C1957 C1963 1.390 . S
C1958 H1949 0.930 . S
C1958 C1956 1.384 . S
C1958 C1959 1.372 . S
C1959 C1958 1.372 . S
C1959 C1960 1.400 . S
C1959 C1964 1.490 . S
C1960 H1950 0.930 1_455 S
C1960 C1959 1.400 . S
C1960 C1963 1.386 . S
H1961 C1977 0.930 . S
H1962 C1978 0.931 . S
C1963 H1951 0.929 . S
C1963 C1957 1.390 . S
C1963 C1960 1.386 . S
C1964 C1959 1.490 . S
C1964 C1966 1.395 1_455 S
C1964 C1967 1.403 . S
H1965 C1971 0.930 . S
C1966 H1952 0.930 . S
C1966 C1964 1.395 1_655 S
C1966 C1969 1.403 . S
C1967 C1964 1.403 . S
C1967 C1968 1.524 . S
C1967 C1971 1.400 . S
C1968 H1953 0.960 . S
C1968 H1954 0.960 . S
C1968 H1955 0.960 . S
C1968 C1967 1.524 . S
C1969 C1966 1.403 . S
C1969 C1970 1.392 . S
C1969 C1973 1.495 . S
C1970 C1969 1.392 . S
C1970 C1971 1.385 1_655 S
C1970 C1972 1.478 . S
C1971 H1965 0.930 . S
C1971 C1967 1.400 . S
C1971 C1970 1.385 1_455 S
C1972 C1970 1.478 . S
C1972 C1974 1.381 . S
C1972 C1978 1.383 . S
C1973 C1969 1.495 . S
C1973 H1979 0.959 . S
C1973 H1980 0.961 . S
C1973 H1981 0.960 . S
C1974 C1972 1.381 . S
C1974 C1975 1.394 . S
C1974 H1982 0.930 1_655 S
C1975 C1974 1.394 . S
C1975 C1976 1.383 . S
C1975 H1983 0.929 . S
C1976 C1975 1.383 . S
C1976 C1977 1.377 . S
C1977 H1961 0.930 . S
C1977 C1976 1.377 . S
C1977 C1978 1.379 . S
C1978 H1962 0.931 . S
C1978 C1972 1.383 . S
C1978 C1977 1.379 . S
H1979 C1973 0.959 . S
H1980 C1973 0.961 . S
H1981 C1973 0.960 . S
H1982 C1974 0.930 1_455 S
H1983 C1975 0.929 . S
H1984 C1992 0.929 . S
H1985 C1994 0.930 . S
H1986 C1996 0.930 1_655 S
H1987 C1999 0.929 . S
H1988 C2002 0.930 . S
H1989 C2004 0.960 . S
H1990 C2004 0.960 1_455 S
H1991 C2004 0.960 . S
C1992 H1984 0.929 . S
C1992 C1993 1.377 . S
C1992 C1994 1.384 . S
C1993 C1992 1.377 . S
C1993 C1999 1.390 . S
C1994 H1985 0.930 . S
C1994 C1992 1.384 . S
C1994 C1995 1.372 . S
C1995 C1994 1.372 . S
C1995 C1996 1.400 . S
C1995 C2000 1.490 . S
C1996 H1986 0.930 1_455 S
C1996 C1995 1.400 . S
C1996 C1999 1.386 . S
H1997 C2013 0.930 . S
H1998 C2014 0.931 . S
C1999 H1987 0.929 . S
C1999 C1993 1.390 . S
C1999 C1996 1.386 . S
C2000 C1995 1.490 . S
C2000 C2002 1.395 . S
C2000 C2003 1.403 1_455 S
H2001 C2007 0.930 . S
C2002 H1988 0.930 . S
C2002 C2000 1.395 . S
C2002 C2005 1.403 . S
C2003 C2000 1.403 1_655 S
C2003 C2004 1.524 . S
C2003 C2007 1.400 . S
C2004 H1989 0.960 . S
C2004 H1990 0.960 1_655 S
C2004 H1991 0.960 . S
C2004 C2003 1.524 . S
C2005 C2002 1.403 . S
C2005 C2006 1.392 1_455 S
C2005 C2009 1.495 . S
C2006 C2005 1.392 1_655 S
C2006 C2007 1.385 . S
C2006 C2008 1.478 . S
C2007 H2001 0.930 . S
C2007 C2003 1.400 . S
C2007 C2006 1.385 . S
C2008 C2006 1.478 . S
C2008 C2010 1.381 . S
C2008 C2014 1.383 . S
C2009 C2005 1.495 . S
C2009 H2015 0.959 . S
C2009 H2016 0.961 . S
C2009 H2017 0.960 . S
C2010 C2008 1.381 . S
C2010 C2011 1.394 . S
C2010 H2018 0.930 1_655 S
C2011 C2010 1.394 . S
C2011 C2012 1.383 . S
C2011 H2019 0.929 . S
C2012 C2011 1.383 . S
C2012 C2013 1.377 . S
C2013 H1997 0.930 . S
C2013 C2012 1.377 . S
C2013 C2014 1.379 . S
C2014 H1998 0.931 . S
C2014 C2008 1.383 . S
C2014 C2013 1.379 . S
H2015 C2009 0.959 . S
H2016 C2009 0.961 . S
H2017 C2009 0.960 . S
H2018 C2010 0.930 1_455 S
H2019 C2011 0.929 . S
H2020 C2028 0.929 . S
H2021 C2030 0.930 . S
H2022 C2032 0.930 . S
H2023 C2035 0.929 . S
H2024 C2038 0.930 . S
H2025 C2040 0.960 . S
H2026 C2040 0.960 . S
H2027 C2040 0.960 . S
C2028 H2020 0.929 . S
C2028 C2029 1.377 . S
C2028 C2030 1.384 . S
C2029 C2028 1.377 . S
C2029 C2035 1.390 . S
C2030 H2021 0.930 . S
C2030 C2028 1.384 . S
C2030 C2031 1.372 . S
C2031 C2030 1.372 . S
C2031 C2032 1.400 . S
C2031 C2036 1.490 . S
C2032 H2022 0.930 . S
C2032 C2031 1.400 . S
C2032 C2035 1.386 . S
H2033 C2049 0.930 . S
H2034 C2050 0.931 . S
C2035 H2023 0.929 . S
C2035 C2029 1.390 . S
C2035 C2032 1.386 . S
C2036 C2031 1.490 . S
C2036 C2038 1.395 . S
C2036 C2039 1.403 . S
H2037 C2043 0.930 . S
C2038 H2024 0.930 . S
C2038 C2036 1.395 . S
C2038 C2041 1.403 . S
C2039 C2036 1.403 . S
C2039 C2040 1.524 . S
C2039 C2043 1.400 . S
C2040 H2025 0.960 . S
C2040 H2026 0.960 . S
C2040 H2027 0.960 . S
C2040 C2039 1.524 . S
C2041 C2038 1.403 . S
C2041 C2042 1.392 . S
C2041 C2045 1.495 . S
C2042 C2041 1.392 . S
C2042 C2043 1.385 . S
C2042 C2044 1.478 . S
C2043 H2037 0.930 . S
C2043 C2039 1.400 . S
C2043 C2042 1.385 . S
C2044 C2042 1.478 . S
C2044 C2046 1.381 . S
C2044 C2050 1.383 . S
C2045 C2041 1.495 . S
C2045 H2051 0.959 . S
C2045 H2052 0.961 . S
C2045 H2053 0.960 . S
C2046 C2044 1.381 . S
C2046 C2047 1.394 . S
C2046 H2054 0.930 . S
C2047 C2046 1.394 . S
C2047 C2048 1.383 . S
C2047 H2055 0.929 . S
C2048 C2047 1.383 . S
C2048 C2049 1.377 . S
C2049 H2033 0.930 . S
C2049 C2048 1.377 . S
C2049 C2050 1.379 . S
C2050 H2034 0.931 . S
C2050 C2044 1.383 . S
C2050 C2049 1.379 . S
H2051 C2045 0.959 . S
H2052 C2045 0.961 . S
H2053 C2045 0.960 . S
H2054 C2046 0.930 . S
H2055 C2047 0.929 . S
H2056 C2064 0.929 . S
H2057 C2066 0.930 . S
H2058 C2068 0.930 . S
H2059 C2071 0.929 . S
H2060 C2074 0.930 . S
H2061 C2076 0.960 . S
H2062 C2076 0.960 . S
H2063 C2076 0.960 . S
C2064 H2056 0.929 . S
C2064 C2065 1.377 . S
C2064 C2066 1.384 . S
C2065 C2064 1.377 . S
C2065 C2071 1.390 . S
C2066 H2057 0.930 . S
C2066 C2064 1.384 . S
C2066 C2067 1.372 . S
C2067 C2066 1.372 . S
C2067 C2068 1.400 . S
C2067 C2072 1.490 . S
C2068 H2058 0.930 . S
C2068 C2067 1.400 . S
C2068 C2071 1.386 . S
H2069 C2085 0.930 . S
H2070 C2086 0.931 . S
C2071 H2059 0.929 . S
C2071 C2065 1.390 . S
C2071 C2068 1.386 . S
C2072 C2067 1.490 . S
C2072 C2074 1.395 . S
C2072 C2075 1.403 . S
H2073 C2079 0.930 . S
C2074 H2060 0.930 . S
C2074 C2072 1.395 . S
C2074 C2077 1.403 . S
C2075 C2072 1.403 . S
C2075 C2076 1.524 . S
C2075 C2079 1.400 . S
C2076 H2061 0.960 . S
C2076 H2062 0.960 . S
C2076 H2063 0.960 . S
C2076 C2075 1.524 . S
C2077 C2074 1.403 . S
C2077 C2078 1.392 . S
C2077 C2081 1.495 . S
C2078 C2077 1.392 . S
C2078 C2079 1.385 . S
C2078 C2080 1.478 . S
C2079 H2073 0.930 . S
C2079 C2075 1.400 . S
C2079 C2078 1.385 . S
C2080 C2078 1.478 . S
C2080 C2082 1.381 . S
C2080 C2086 1.383 . S
C2081 C2077 1.495 . S
C2081 H2087 0.959 . S
C2081 H2088 0.961 . S
C2081 H2089 0.960 . S
C2082 C2080 1.381 . S
C2082 C2083 1.394 . S
C2082 H2090 0.930 . S
C2083 C2082 1.394 . S
C2083 C2084 1.383 . S
C2083 H2091 0.929 . S
C2084 C2083 1.383 . S
C2084 C2085 1.377 . S
C2085 H2069 0.930 . S
C2085 C2084 1.377 . S
C2085 C2086 1.379 . S
C2086 H2070 0.931 . S
C2086 C2080 1.383 . S
C2086 C2085 1.379 . S
H2087 C2081 0.959 . S
H2088 C2081 0.961 . S
H2089 C2081 0.960 . S
H2090 C2082 0.930 . S
H2091 C2083 0.929 . S
H2092 C2100 0.929 . S
H2093 C2102 0.930 1_655 S
H2094 C2104 0.930 . S
H2095 C2107 0.929 . S
H2096 C2110 0.930 . S
H2097 C2112 0.960 . S
H2098 C2112 0.960 . S
H2099 C2112 0.960 . S
C2100 H2092 0.929 . S
C2100 C2101 1.377 . S
C2100 C2102 1.384 . S
C2101 C2100 1.377 . S
C2101 C2107 1.390 . S
C2102 H2093 0.930 1_455 S
C2102 C2100 1.384 . S
C2102 C2103 1.372 . S
C2103 C2102 1.372 . S
C2103 C2104 1.400 . S
C2103 C2108 1.490 . S
C2104 H2094 0.930 . S
C2104 C2103 1.400 . S
C2104 C2107 1.386 . S
H2105 C2121 0.930 . S
H2106 C2122 0.931 1_455 S
C2107 H2095 0.929 . S
C2107 C2101 1.390 . S
C2107 C2104 1.386 . S
C2108 C2103 1.490 . S
C2108 C2110 1.395 1_455 S
C2108 C2111 1.403 . S
H2109 C2115 0.929 . S
C2110 H2096 0.930 . S
C2110 C2108 1.395 1_655 S
C2110 C2113 1.403 . S
C2111 C2108 1.403 . S
C2111 C2112 1.524 . S
C2111 C2115 1.381 1_455 S
C2112 H2097 0.960 . S
C2112 H2098 0.960 . S
C2112 H2099 0.960 . S
C2112 C2111 1.524 . S
C2113 C2110 1.403 . S
C2113 C2114 1.392 . S
C2113 C2117 1.495 . S
C2114 C2113 1.392 . S
C2114 C2115 1.407 . S
C2114 C2116 1.478 . S
C2115 H2109 0.929 . S
C2115 C2111 1.381 1_655 S
C2115 C2114 1.407 . S
C2116 C2114 1.478 . S
C2116 C2118 1.381 . S
C2116 C2122 1.383 . S
C2117 C2113 1.495 . S
C2117 H2123 0.959 . S
C2117 H2124 0.961 . S
C2117 H2125 0.960 . S
C2118 C2116 1.381 . S
C2118 C2119 1.394 . S
C2118 H2126 0.930 . S
C2119 C2118 1.394 . S
C2119 C2120 1.383 . S
C2119 H2127 0.929 . S
C2120 C2119 1.383 . S
C2120 C2121 1.377 . S
C2121 H2105 0.930 . S
C2121 C2120 1.377 . S
C2121 C2122 1.379 . S
C2122 H2106 0.931 1_655 S
C2122 C2116 1.383 . S
C2122 C2121 1.379 . S
H2123 C2117 0.959 . S
H2124 C2117 0.961 . S
H2125 C2117 0.960 . S
H2126 C2118 0.930 . S
H2127 C2119 0.929 . S
H2128 C2136 0.929 . S
H2129 C2138 0.930 . S
H2130 C2140 0.930 1_655 S
H2131 C2143 0.929 . S
H2132 C2146 0.930 . S
H2133 C2148 0.960 . S
H2134 C2148 0.960 . S
H2135 C2148 0.960 . S
C2136 H2128 0.929 . S
C2136 C2137 1.377 . S
C2136 C2138 1.384 . S
C2137 C2136 1.377 . S
C2137 C2143 1.390 . S
C2138 H2129 0.930 . S
C2138 C2136 1.384 . S
C2138 C2139 1.372 . S
C2139 C2138 1.372 . S
C2139 C2140 1.400 . S
C2139 C2144 1.490 . S
C2140 H2130 0.930 1_455 S
C2140 C2139 1.400 . S
C2140 C2143 1.386 . S
H2141 C2157 0.930 . S
H2142 C2158 0.931 . S
C2143 H2131 0.929 . S
C2143 C2137 1.390 . S
C2143 C2140 1.386 . S
C2144 C2139 1.490 . S
C2144 C2146 1.395 . S
C2144 C2147 1.403 1_455 S
H2145 C2151 0.930 . S
C2146 H2132 0.930 . S
C2146 C2144 1.395 . S
C2146 C2149 1.403 . S
C2147 C2144 1.403 1_655 S
C2147 C2148 1.524 . S
C2147 C2151 1.400 . S
C2148 H2133 0.960 . S
C2148 H2134 0.960 . S
C2148 H2135 0.960 . S
C2148 C2147 1.524 . S
C2149 C2146 1.403 . S
C2149 C2150 1.392 1_455 S
C2149 C2153 1.495 . S
C2150 C2149 1.392 1_655 S
C2150 C2151 1.385 . S
C2150 C2152 1.478 . S
C2151 H2145 0.930 . S
C2151 C2147 1.400 . S
C2151 C2150 1.385 . S
C2152 C2150 1.478 . S
C2152 C2154 1.381 . S
C2152 C2158 1.383 . S
C2153 C2149 1.495 . S
C2153 H2159 0.959 . S
C2153 H2160 0.961 . S
C2153 H2161 0.960 . S
C2154 C2152 1.381 . S
C2154 C2155 1.394 . S
C2154 H2162 0.930 1_655 S
C2155 C2154 1.394 . S
C2155 C2156 1.383 . S
C2155 H2163 0.929 . S
C2156 C2155 1.383 . S
C2156 C2157 1.377 . S
C2157 H2141 0.930 . S
C2157 C2156 1.377 . S
C2157 C2158 1.379 . S
C2158 H2142 0.931 . S
C2158 C2152 1.383 . S
C2158 C2157 1.379 . S
H2159 C2153 0.959 . S
H2160 C2153 0.961 . S
H2161 C2153 0.960 . S
H2162 C2154 0.930 1_455 S
H2163 C2155 0.929 . S
H2164 C2172 0.929 . S
H2165 C2174 0.930 . S
H2166 C2176 0.930 . S
H2167 C2179 0.929 . S
H2168 C2182 0.930 . S
H2169 C2184 0.960 . S
H2170 C2184 0.960 . S
H2171 C2184 0.960 . S
C2172 H2164 0.929 . S
C2172 C2173 1.377 . S
C2172 C2174 1.384 . S
C2173 C2172 1.377 . S
C2173 C2179 1.390 . S
C2174 H2165 0.930 . S
C2174 C2172 1.384 . S
C2174 C2175 1.372 . S
C2175 C2174 1.372 . S
C2175 C2176 1.400 . S
C2175 C2180 1.490 . S
C2176 H2166 0.930 . S
C2176 C2175 1.400 . S
C2176 C2179 1.386 . S
H2177 C2193 0.930 . S
H2178 C2194 0.931 . S
C2179 H2167 0.929 . S
C2179 C2173 1.390 . S
C2179 C2176 1.386 . S
C2180 C2175 1.490 . S
C2180 C2182 1.395 . S
C2180 C2183 1.403 . S
H2181 C2187 0.930 . S
C2182 H2168 0.930 . S
C2182 C2180 1.395 . S
C2182 C2185 1.403 . S
C2183 C2180 1.403 . S
C2183 C2184 1.524 . S
C2183 C2187 1.400 . S
C2184 H2169 0.960 . S
C2184 H2170 0.960 . S
C2184 H2171 0.960 . S
C2184 C2183 1.524 . S
C2185 C2182 1.403 . S
C2185 C2186 1.392 . S
C2185 C2189 1.495 . S
C2186 C2185 1.392 . S
C2186 C2187 1.385 . S
C2186 C2188 1.478 . S
C2187 H2181 0.930 . S
C2187 C2183 1.400 . S
C2187 C2186 1.385 . S
C2188 C2186 1.478 . S
C2188 C2190 1.381 . S
C2188 C2194 1.383 . S
C2189 C2185 1.495 . S
C2189 H2195 0.959 . S
C2189 H2196 0.961 . S
C2189 H2197 0.960 . S
C2190 C2188 1.381 . S
C2190 C2191 1.394 . S
C2190 H2198 0.930 . S
C2191 C2190 1.394 . S
C2191 C2192 1.383 . S
C2191 H2199 0.929 . S
C2192 C2191 1.383 . S
C2192 C2193 1.377 . S
C2193 H2177 0.930 . S
C2193 C2192 1.377 . S
C2193 C2194 1.379 . S
C2194 H2178 0.931 . S
C2194 C2188 1.383 . S
C2194 C2193 1.379 . S
H2195 C2189 0.959 . S
H2196 C2189 0.961 . S
H2197 C2189 0.960 . S
H2198 C2190 0.930 . S
H2199 C2191 0.929 . S
H2200 C2208 0.929 . S
H2201 C2210 0.930 . S
H2202 C2212 0.930 . S
H2203 C2215 0.929 . S
H2204 C2218 0.930 . S
H2205 C2220 0.960 . S
H2206 C2220 0.960 . S
H2207 C2220 0.960 . S
C2208 H2200 0.929 . S
C2208 C2209 1.377 . S
C2208 C2210 1.384 . S
C2209 C2208 1.377 . S
C2209 C2215 1.390 . S
C2210 H2201 0.930 . S
C2210 C2208 1.384 . S
C2210 C2211 1.372 . S
C2211 C2210 1.372 . S
C2211 C2212 1.400 . S
C2211 C2216 1.490 . S
C2212 H2202 0.930 . S
C2212 C2211 1.400 . S
C2212 C2215 1.386 . S
H2213 C2229 0.930 . S
H2214 C2230 0.931 . S
C2215 H2203 0.929 . S
C2215 C2209 1.390 . S
C2215 C2212 1.386 . S
C2216 C2211 1.490 . S
C2216 C2218 1.395 . S
C2216 C2219 1.403 . S
H2217 C2223 0.930 . S
C2218 H2204 0.930 . S
C2218 C2216 1.395 . S
C2218 C2221 1.403 . S
C2219 C2216 1.403 . S
C2219 C2220 1.524 . S
C2219 C2223 1.400 . S
C2220 H2205 0.960 . S
C2220 H2206 0.960 . S
C2220 H2207 0.960 . S
C2220 C2219 1.524 . S
C2221 C2218 1.403 . S
C2221 C2222 1.392 . S
C2221 C2225 1.495 . S
C2222 C2221 1.392 . S
C2222 C2223 1.385 . S
C2222 C2224 1.478 . S
C2223 H2217 0.930 . S
C2223 C2219 1.400 . S
C2223 C2222 1.385 . S
C2224 C2222 1.478 . S
C2224 C2226 1.381 . S
C2224 C2230 1.383 . S
C2225 C2221 1.495 . S
C2225 H2231 0.959 . S
C2225 H2232 0.961 . S
C2225 H2233 0.960 . S
C2226 C2224 1.381 . S
C2226 C2227 1.394 . S
C2226 H2234 0.930 . S
C2227 C2226 1.394 . S
C2227 C2228 1.383 . S
C2227 H2235 0.929 . S
C2228 C2227 1.383 . S
C2228 C2229 1.377 . S
C2229 H2213 0.930 . S
C2229 C2228 1.377 . S
C2229 C2230 1.379 . S
C2230 H2214 0.931 . S
C2230 C2224 1.383 . S
C2230 C2229 1.379 . S
H2231 C2225 0.959 . S
H2232 C2225 0.961 . S
H2233 C2225 0.960 . S
H2234 C2226 0.930 . S
H2235 C2227 0.929 . S
H2236 C2244 0.929 . S
H2237 C2246 0.930 . S
H2238 C2248 0.930 . S
H2239 C2251 0.929 . S
H2240 C2254 0.930 . S
H2241 C2256 0.960 . S
H2242 C2256 0.960 . S
H2243 C2256 0.960 . S
C2244 H2236 0.929 . S
C2244 C2245 1.377 . S
C2244 C2246 1.384 . S
C2245 C2244 1.377 . S
C2245 C2251 1.390 . S
C2246 H2237 0.930 . S
C2246 C2244 1.384 . S
C2246 C2247 1.372 . S
C2247 C2246 1.372 . S
C2247 C2248 1.400 . S
C2247 C2252 1.490 . S
C2248 H2238 0.930 . S
C2248 C2247 1.400 . S
C2248 C2251 1.386 . S
H2249 C2265 0.930 . S
H2250 C2266 0.931 . S
C2251 H2239 0.929 . S
C2251 C2245 1.390 . S
C2251 C2248 1.386 . S
C2252 C2247 1.490 . S
C2252 C2254 1.395 1_455 S
C2252 C2255 1.403 . S
H2253 C2259 0.930 . S
C2254 H2240 0.930 . S
C2254 C2252 1.395 1_655 S
C2254 C2257 1.403 . S
C2255 C2252 1.403 . S
C2255 C2256 1.524 . S
C2255 C2259 1.400 . S
C2256 H2241 0.960 . S
C2256 H2242 0.960 . S
C2256 H2243 0.960 . S
C2256 C2255 1.524 . S
C2257 C2254 1.403 . S
C2257 C2258 1.392 . S
C2257 C2261 1.495 . S
C2258 C2257 1.392 . S
C2258 C2259 1.385 1_655 S
C2258 C2260 1.478 . S
C2259 H2253 0.930 . S
C2259 C2255 1.400 . S
C2259 C2258 1.385 1_455 S
C2260 C2258 1.478 . S
C2260 C2262 1.381 . S
C2260 C2266 1.383 . S
C2261 C2257 1.495 . S
C2261 H2267 0.959 . S
C2261 H2268 0.961 . S
C2261 H2269 0.960 . S
C2262 C2260 1.381 . S
C2262 C2263 1.394 . S
C2262 H2270 0.930 . S
C2263 C2262 1.394 . S
C2263 C2264 1.383 . S
C2263 H2271 0.929 . S
C2264 C2263 1.383 . S
C2264 C2265 1.377 . S
C2265 H2249 0.930 . S
C2265 C2264 1.377 . S
C2265 C2266 1.379 . S
C2266 H2250 0.931 . S
C2266 C2260 1.383 . S
C2266 C2265 1.379 . S
H2267 C2261 0.959 . S
H2268 C2261 0.961 . S
H2269 C2261 0.960 . S
H2270 C2262 0.930 . S
H2271 C2263 0.929 . S
H2272 C2280 0.961 . S
H2273 C2282 0.930 . S
H2274 C2284 0.930 . S
H2275 C2287 0.929 . S
H2276 C2290 0.930 . S
H2277 C2292 1.002 . S
H2278 C2292 0.960 . S
H2279 C2292 0.986 . S
C2280 H2272 0.961 . S
C2280 C2281 1.339 1_455 S
C2280 C2282 1.395 . S
C2281 C2280 1.339 1_655 S
C2281 C2287 1.390 1_565 S
C2282 H2273 0.930 . S
C2282 C2280 1.395 . S
C2282 C2283 1.372 1_455 S
C2283 C2282 1.372 1_655 S
C2283 C2284 1.400 1_565 S
C2283 C2288 1.490 . S
C2284 H2274 0.930 . S
C2284 C2283 1.400 1_545 S
C2284 C2287 1.386 . S
H2285 C2301 0.930 1_655 S
H2286 C2302 0.918 1_655 S
C2287 H2275 0.929 . S
C2287 C2281 1.390 1_545 S
C2287 C2284 1.386 . S
C2288 C2283 1.490 . S
C2288 C2290 1.395 1_665 S
C2288 C2291 1.403 . S
H2289 C2295 0.930 . S
C2290 H2276 0.930 . S
C2290 C2288 1.395 1_445 S
C2290 C2293 1.403 1_556 S
C2291 C2288 1.403 . S
C2291 C2292 1.524 . S
C2291 C2295 1.400 1_556 S
C2292 H2277 1.002 . S
C2292 H2278 0.960 . S
C2292 H2279 0.986 . S
C2292 C2291 1.524 . S
C2293 C2290 1.403 1_554 S
C2293 C2294 1.392 . S
C2293 C2297 1.495 . S
C2294 C2293 1.392 . S
C2294 C2295 1.385 1_445 S
C2294 C2296 1.478 . S
C2295 H2289 0.930 . S
C2295 C2291 1.400 1_554 S
C2295 C2294 1.385 1_665 S
C2296 C2294 1.478 . S
C2296 C2298 1.381 1_545 S
C2296 C2302 1.394 . S
C2297 C2293 1.495 . S
C2297 H2303 1.012 . S
C2297 H2304 0.961 . S
C2297 H2305 0.960 1_545 S
C2298 C2296 1.381 1_565 S
C2298 C2299 1.394 . S
C2298 H2306 0.930 . S
C2299 C2298 1.394 . S
C2299 C2300 1.383 1_565 S
C2299 H2307 0.929 . S
C2300 C2299 1.383 1_545 S
C2300 C2301 1.377 . S
C2301 H2285 0.930 1_455 S
C2301 C2300 1.377 . S
C2301 C2302 1.382 . S
C2302 H2286 0.918 1_455 S
C2302 C2296 1.394 . S
C2302 C2301 1.382 . S
H2303 C2297 1.012 . S
H2304 C2297 0.961 . S
H2305 C2297 0.960 1_565 S
H2306 C2298 0.930 . S
H2307 C2299 0.929 . S
H2308 C2316 0.929 . S
H2309 C2318 0.930 . S
H2310 C2320 0.930 . S
H2311 C2323 0.929 . S
H2312 C2326 0.930 . S
H2313 C2328 0.960 . S
H2314 C2328 0.960 . S
H2315 C2328 0.960 . S
C2316 H2308 0.929 . S
C2316 C2317 1.377 . S
C2316 C2318 1.384 . S
C2317 C2316 1.377 . S
C2317 C2323 1.390 1_545 S
C2318 H2309 0.930 . S
C2318 C2316 1.384 . S
C2318 C2319 1.372 . S
C2319 C2318 1.372 . S
C2319 C2320 1.400 1_545 S
C2319 C2324 1.490 . S
C2320 H2310 0.930 . S
C2320 C2319 1.400 1_565 S
C2320 C2323 1.386 . S
H2321 C2337 0.930 . S
H2322 C2338 0.931 . S
C2323 H2311 0.929 . S
C2323 C2317 1.390 1_565 S
C2323 C2320 1.386 . S
C2324 C2319 1.490 . S
C2324 C2326 1.395 . S
C2324 C2327 1.403 1_545 S
H2325 C2331 0.930 . S
C2326 H2312 0.930 . S
C2326 C2324 1.395 . S
C2326 C2329 1.403 1_556 S
C2327 C2324 1.403 1_565 S
C2327 C2328 1.524 . S
C2327 C2331 1.400 1_556 S
C2328 H2313 0.960 . S
C2328 H2314 0.960 . S
C2328 H2315 0.960 . S
C2328 C2327 1.524 . S
C2329 C2326 1.403 1_554 S
C2329 C2330 1.392 . S
C2329 C2333 1.495 . S
C2330 C2329 1.392 . S
C2330 C2331 1.385 1_545 S
C2330 C2332 1.478 . S
C2331 H2325 0.930 . S
C2331 C2327 1.400 1_554 S
C2331 C2330 1.385 1_565 S
C2332 C2330 1.478 . S
C2332 C2334 1.381 . S
C2332 C2338 1.383 1_545 S
C2333 C2329 1.495 . S
C2333 H2339 0.959 . S
C2333 H2340 0.961 . S
C2333 H2341 0.960 . S
C2334 C2332 1.381 . S
C2334 C2335 1.394 . S
C2334 H2342 0.930 . S
C2335 C2334 1.394 . S
C2335 C2336 1.383 1_545 S
C2335 H2343 0.929 . S
C2336 C2335 1.383 1_565 S
C2336 C2337 1.377 . S
C2337 H2321 0.930 . S
C2337 C2336 1.377 . S
C2337 C2338 1.379 . S
C2338 H2322 0.931 . S
C2338 C2332 1.383 1_565 S
C2338 C2337 1.379 . S
H2339 C2333 0.959 . S
H2340 C2333 0.961 . S
H2341 C2333 0.960 . S
H2342 C2334 0.930 . S
H2343 C2335 0.929 . S
H2344 C2352 0.929 . S
H2345 C2354 0.930 . S
H2346 C2356 0.930 . S
H2347 C2359 0.929 . S
H2348 C2362 0.930 . S
H2349 C2364 0.960 . S
H2350 C2364 0.960 . S
H2351 C2364 0.960 . S
C2352 H2344 0.929 . S
C2352 C2353 1.377 . S
C2352 C2354 1.384 . S
C2353 C2352 1.377 . S
C2353 C2359 1.390 1_545 S
C2354 H2345 0.930 . S
C2354 C2352 1.384 . S
C2354 C2355 1.372 . S
C2355 C2354 1.372 . S
C2355 C2356 1.400 1_545 S
C2355 C2360 1.490 . S
C2356 H2346 0.930 . S
C2356 C2355 1.400 1_565 S
C2356 C2359 1.386 . S
H2357 C2373 0.930 . S
H2358 C2374 0.931 . S
C2359 H2347 0.929 . S
C2359 C2353 1.390 1_565 S
C2359 C2356 1.386 . S
C2360 C2355 1.490 . S
C2360 C2362 1.395 . S
C2360 C2363 1.403 1_545 S
H2361 C2367 0.930 . S
C2362 H2348 0.930 . S
C2362 C2360 1.395 . S
C2362 C2365 1.403 . S
C2363 C2360 1.403 1_565 S
C2363 C2364 1.524 . S
C2363 C2367 1.400 . S
C2364 H2349 0.960 . S
C2364 H2350 0.960 . S
C2364 H2351 0.960 . S
C2364 C2363 1.524 . S
C2365 C2362 1.403 . S
C2365 C2366 1.392 . S
C2365 C2369 1.495 . S
C2366 C2365 1.392 . S
C2366 C2367 1.385 1_545 S
C2366 C2368 1.478 . S
C2367 H2361 0.930 . S
C2367 C2363 1.400 . S
C2367 C2366 1.385 1_565 S
C2368 C2366 1.478 . S
C2368 C2370 1.381 . S
C2368 C2374 1.383 1_545 S
C2369 C2365 1.495 . S
C2369 H2375 0.959 . S
C2369 H2376 0.961 . S
C2369 H2377 0.960 . S
C2370 C2368 1.381 . S
C2370 C2371 1.394 . S
C2370 H2378 0.930 . S
C2371 C2370 1.394 . S
C2371 C2372 1.383 1_545 S
C2371 H2379 0.929 . S
C2372 C2371 1.383 1_565 S
C2372 C2373 1.377 . S
C2373 H2357 0.930 . S
C2373 C2372 1.377 . S
C2373 C2374 1.379 . S
C2374 H2358 0.931 . S
C2374 C2368 1.383 1_565 S
C2374 C2373 1.379 . S
H2375 C2369 0.959 . S
H2376 C2369 0.961 . S
H2377 C2369 0.960 . S
H2378 C2370 0.930 . S
H2379 C2371 0.929 . S
H2380 C2388 0.929 . S
H2381 C2390 0.930 . S
H2382 C2392 0.907 1_655 S
H2383 C2395 0.935 . S
H2384 C2398 0.930 . S
H2385 C2400 0.960 . S
H2386 C2400 0.960 1_545 S
H2387 C2400 0.960 . S
C2388 H2380 0.929 . S
C2388 C2389 1.377 1_545 S
C2388 C2390 1.384 . S
C2389 C2388 1.377 1_565 S
C2389 C2395 1.390 . S
C2390 H2381 0.930 . S
C2390 C2388 1.384 . S
C2390 C2391 1.362 1_545 S
C2391 C2390 1.362 1_565 S
C2391 C2392 1.427 . S
C2391 C2396 1.489 1_565 S
C2392 H2382 0.907 1_455 S
C2392 C2391 1.427 . S
C2392 C2395 1.395 . S
H2393 C2409 0.930 . S
H2394 C2410 0.931 . S
C2395 H2383 0.935 . S
C2395 C2389 1.390 . S
C2395 C2392 1.395 . S
C2396 C2391 1.489 1_545 S
C2396 C2398 1.399 . S
C2396 C2399 1.400 1_445 S
H2397 C2403 0.937 . S
C2398 H2384 0.930 . S
C2398 C2396 1.399 . S
C2398 C2401 1.403 . S
C2399 C2396 1.400 1_665 S
C2399 C2400 1.524 . S
C2399 C2403 1.402 . S
C2400 H2385 0.960 . S
C2400 H2386 0.960 1_565 S
C2400 H2387 0.960 . S
C2400 C2399 1.524 . S
C2401 C2398 1.403 . S
C2401 C2402 1.392 . S
C2401 C2405 1.495 . S
C2402 C2401 1.392 . S
C2402 C2403 1.379 1_445 S
C2402 C2404 1.478 1_455 S
C2403 H2397 0.937 . S
C2403 C2399 1.402 . S
C2403 C2402 1.379 1_665 S
C2404 C2402 1.478 1_655 S
C2404 C2406 1.377 1_655 S
C2404 C2410 1.383 1_545 S
C2405 C2401 1.495 . S
C2405 H2411 0.959 . S
C2405 H2412 0.961 1_545 S
C2405 H2413 0.960 . S
C2406 C2404 1.377 1_455 S
C2406 C2407 1.387 1_455 S
C2406 H2414 0.943 . S
C2407 C2406 1.387 1_655 S
C2407 C2408 1.383 . S
C2407 H2415 0.929 . S
C2408 C2407 1.383 . S
C2408 C2409 1.377 1_545 S
C2409 H2393 0.930 . S
C2409 C2408 1.377 1_565 S
C2409 C2410 1.379 . S
C2410 H2394 0.931 . S
C2410 C2404 1.383 1_565 S
C2410 C2409 1.379 . S
H2411 C2405 0.959 . S
H2412 C2405 0.961 1_565 S
H2413 C2405 0.960 . S
H2414 C2406 0.943 . S
H2415 C2407 0.929 . S
H2416 C2424 0.929 . S
H2417 C2426 0.930 . S
H2418 C2428 0.930 . S
H2419 C2431 0.929 . S
H2420 C2434 0.930 . S
H2421 C2436 0.960 . S
H2422 C2436 0.960 . S
H2423 C2436 0.960 . S
C2424 H2416 0.929 . S
C2424 C2425 1.377 . S
C2424 C2426 1.384 . S
C2425 C2424 1.377 . S
C2425 C2431 1.390 . S
C2426 H2417 0.930 . S
C2426 C2424 1.384 . S
C2426 C2427 1.372 . S
C2427 C2426 1.372 . S
C2427 C2428 1.400 . S
C2427 C2432 1.490 . S
C2428 H2418 0.930 . S
C2428 C2427 1.400 . S
C2428 C2431 1.386 . S
H2429 C2445 0.930 . S
H2430 C2446 0.931 . S
C2431 H2419 0.929 . S
C2431 C2425 1.390 . S
C2431 C2428 1.386 . S
C2432 C2427 1.490 . S
C2432 C2434 1.395 . S
C2432 C2435 1.403 . S
H2433 C2439 0.930 . S
C2434 H2420 0.930 . S
C2434 C2432 1.395 . S
C2434 C2437 1.403 1_554 S
C2435 C2432 1.403 . S
C2435 C2436 1.524 . S
C2435 C2439 1.400 1_554 S
C2436 H2421 0.960 . S
C2436 H2422 0.960 . S
C2436 H2423 0.960 . S
C2436 C2435 1.524 . S
C2437 C2434 1.403 1_556 S
C2437 C2438 1.392 . S
C2437 C2441 1.495 . S
C2438 C2437 1.392 . S
C2438 C2439 1.385 . S
C2438 C2440 1.478 . S
C2439 H2433 0.930 . S
C2439 C2435 1.400 1_556 S
C2439 C2438 1.385 . S
C2440 C2438 1.478 . S
C2440 C2442 1.381 . S
C2440 C2446 1.383 . S
C2441 C2437 1.495 . S
C2441 H2447 0.959 . S
C2441 H2448 0.961 . S
C2441 H2449 0.960 . S
C2442 C2440 1.381 . S
C2442 C2443 1.394 . S
C2442 H2450 0.930 . S
C2443 C2442 1.394 . S
C2443 C2444 1.383 . S
C2443 H2451 0.929 . S
C2444 C2443 1.383 . S
C2444 C2445 1.377 . S
C2445 H2429 0.930 . S
C2445 C2444 1.377 . S
C2445 C2446 1.379 . S
C2446 H2430 0.931 . S
C2446 C2440 1.383 . S
C2446 C2445 1.379 . S
H2447 C2441 0.959 . S
H2448 C2441 0.961 . S
H2449 C2441 0.960 . S
H2450 C2442 0.930 . S
H2451 C2443 0.929 . S
H2452 C2460 0.929 . S
H2453 C2462 0.930 . S
H2454 C2464 0.930 . S
H2455 C2467 0.929 . S
H2456 C2470 0.930 . S
H2457 C2472 0.960 . S
H2458 C2472 0.960 . S
H2459 C2472 0.960 . S
C2460 H2452 0.929 . S
C2460 C2461 1.377 . S
C2460 C2462 1.384 . S
C2461 C2460 1.377 . S
C2461 C2467 1.390 1_655 S
C2462 H2453 0.930 . S
C2462 C2460 1.384 . S
C2462 C2463 1.372 . S
C2463 C2462 1.372 . S
C2463 C2464 1.400 1_655 S
C2463 C2468 1.490 . S
C2464 H2454 0.930 . S
C2464 C2463 1.400 1_455 S
C2464 C2467 1.386 . S
H2465 C2481 0.930 . S
H2466 C2482 0.931 . S
C2467 H2455 0.929 . S
C2467 C2461 1.390 1_455 S
C2467 C2464 1.386 . S
C2468 C2463 1.490 . S
C2468 C2470 1.395 . S
C2468 C2471 1.403 1_655 S
H2469 C2475 0.930 . S
C2470 H2456 0.930 . S
C2470 C2468 1.395 . S
C2470 C2473 1.403 1_554 S
C2471 C2468 1.403 1_455 S
C2471 C2472 1.524 . S
C2471 C2475 1.400 1_554 S
C2472 H2457 0.960 . S
C2472 H2458 0.960 . S
C2472 H2459 0.960 . S
C2472 C2471 1.524 . S
C2473 C2470 1.403 1_556 S
C2473 C2474 1.410 . S
C2473 C2477 1.495 . S
C2474 C2473 1.410 . S
C2474 C2475 1.370 1_655 S
C2474 C2476 1.474 1_655 S
C2475 H2469 0.930 . S
C2475 C2471 1.400 1_556 S
C2475 C2474 1.370 1_455 S
C2476 C2474 1.474 1_455 S
C2476 C2478 1.381 1_455 S
C2476 C2482 1.383 . S
C2477 C2473 1.495 . S
C2477 H2483 0.959 . S
C2477 H2484 0.961 . S
C2477 H2485 0.960 . S
C2478 C2476 1.381 1_655 S
C2478 C2479 1.394 . S
C2478 H2486 0.930 . S
C2479 C2478 1.394 . S
C2479 C2480 1.383 1_655 S
C2479 H2487 0.929 . S
C2480 C2479 1.383 1_455 S
C2480 C2481 1.377 . S
C2481 H2465 0.930 . S
C2481 C2480 1.377 . S
C2481 C2482 1.379 . S
C2482 H2466 0.931 . S
C2482 C2476 1.383 . S
C2482 C2481 1.379 . S
H2483 C2477 0.959 . S
H2484 C2477 0.961 . S
H2485 C2477 0.960 . S
H2486 C2478 0.930 . S
H2487 C2479 0.929 . S
H2488 C2496 0.929 . S
H2489 C2498 0.930 . S
H2490 C2500 0.930 . S
H2491 C2503 0.929 . S
H2492 C2506 0.930 . S
H2493 C2508 0.960 . S
H2494 C2508 0.960 . S
H2495 C2508 0.960 . S
C2496 H2488 0.929 . S
C2496 C2497 1.377 . S
C2496 C2498 1.384 . S
C2497 C2496 1.377 . S
C2497 C2503 1.390 . S
C2498 H2489 0.930 . S
C2498 C2496 1.384 . S
C2498 C2499 1.372 . S
C2499 C2498 1.372 . S
C2499 C2500 1.400 . S
C2499 C2504 1.490 . S
C2500 H2490 0.930 . S
C2500 C2499 1.400 . S
C2500 C2503 1.386 . S
H2501 C2517 0.930 . S
H2502 C2518 0.931 . S
C2503 H2491 0.929 . S
C2503 C2497 1.390 . S
C2503 C2500 1.386 . S
C2504 C2499 1.490 . S
C2504 C2506 1.395 . S
C2504 C2507 1.403 1_655 S
H2505 C2511 0.930 . S
C2506 H2492 0.930 . S
C2506 C2504 1.395 . S
C2506 C2509 1.403 . S
C2507 C2504 1.403 1_455 S
C2507 C2508 1.524 . S
C2507 C2511 1.400 . S
C2508 H2493 0.960 . S
C2508 H2494 0.960 . S
C2508 H2495 0.960 . S
C2508 C2507 1.524 . S
C2509 C2506 1.403 . S
C2509 C2510 1.423 . S
C2509 C2513 1.495 . S
C2510 C2509 1.423 . S
C2510 C2511 1.358 1_655 S
C2510 C2512 1.473 1_655 S
C2511 H2505 0.930 . S
C2511 C2507 1.400 . S
C2511 C2510 1.358 1_455 S
C2512 C2510 1.473 1_455 S
C2512 C2514 1.381 . S
C2512 C2518 1.383 . S
C2513 C2509 1.495 . S
C2513 H2519 0.959 . S
C2513 H2520 0.961 . S
C2513 H2521 0.960 . S
C2514 C2512 1.381 . S
C2514 C2515 1.394 . S
C2514 H2522 0.930 . S
C2515 C2514 1.394 . S
C2515 C2516 1.383 . S
C2515 H2523 0.929 . S
C2516 C2515 1.383 . S
C2516 C2517 1.377 . S
C2517 H2501 0.930 . S
C2517 C2516 1.377 . S
C2517 C2518 1.379 . S
C2518 H2502 0.931 . S
C2518 C2512 1.383 . S
C2518 C2517 1.379 . S
H2519 C2513 0.959 . S
H2520 C2513 0.961 . S
H2521 C2513 0.960 . S
H2522 C2514 0.930 . S
H2523 C2515 0.929 . S
H2524 C2532 0.929 . S
H2525 C2534 0.930 . S
H2526 C2536 0.930 . S
H2527 C2539 0.929 . S
H2528 C2542 0.930 . S
H2529 C2544 0.960 . S
H2530 C2544 0.960 . S
H2531 C2544 0.960 . S
C2532 H2524 0.929 . S
C2532 C2533 1.377 . S
C2532 C2534 1.384 . S
C2533 C2532 1.377 . S
C2533 C2539 1.390 . S
C2534 H2525 0.930 . S
C2534 C2532 1.384 . S
C2534 C2535 1.372 . S
C2535 C2534 1.372 . S
C2535 C2536 1.400 . S
C2535 C2540 1.490 . S
C2536 H2526 0.930 . S
C2536 C2535 1.400 . S
C2536 C2539 1.386 . S
H2537 C2553 0.930 . S
H2538 C2554 0.931 . S
C2539 H2527 0.929 . S
C2539 C2533 1.390 . S
C2539 C2536 1.386 . S
C2540 C2535 1.490 . S
C2540 C2542 1.395 . S
C2540 C2543 1.403 . S
H2541 C2547 0.930 . S
C2542 H2528 0.930 . S
C2542 C2540 1.395 . S
C2542 C2545 1.403 . S
C2543 C2540 1.403 . S
C2543 C2544 1.524 . S
C2543 C2547 1.400 . S
C2544 H2529 0.960 . S
C2544 H2530 0.960 . S
C2544 H2531 0.960 . S
C2544 C2543 1.524 . S
C2545 C2542 1.403 . S
C2545 C2546 1.392 . S
C2545 C2549 1.495 . S
C2546 C2545 1.392 . S
C2546 C2547 1.385 . S
C2546 C2548 1.478 . S
C2547 H2541 0.930 . S
C2547 C2543 1.400 . S
C2547 C2546 1.385 . S
C2548 C2546 1.478 . S
C2548 C2550 1.381 . S
C2548 C2554 1.383 . S
C2549 C2545 1.495 . S
C2549 H2555 0.959 . S
C2549 H2556 0.961 . S
C2549 H2557 0.960 . S
C2550 C2548 1.381 . S
C2550 C2551 1.394 . S
C2550 H2558 0.930 . S
C2551 C2550 1.394 . S
C2551 C2552 1.383 . S
C2551 H2559 0.929 . S
C2552 C2551 1.383 . S
C2552 C2553 1.377 . S
C2553 H2537 0.930 . S
C2553 C2552 1.377 . S
C2553 C2554 1.379 . S
C2554 H2538 0.931 . S
C2554 C2548 1.383 . S
C2554 C2553 1.379 . S
H2555 C2549 0.959 . S
H2556 C2549 0.961 . S
H2557 C2549 0.960 . S
H2558 C2550 0.930 . S
H2559 C2551 0.929 . S
C1417 C137 1.507 . S
C1436 C29 1.503 . S
C1453 C196 1.508 . S
C1472 C293 1.509 . S
C1489 C401 1.498 . S
C1508 C489 1.493 . S
C1525 C645 1.498 . S
C1544 C548 1.493 . S
C1561 C841 1.508 . S
C1580 C753 1.503 . S
C1597 C997 1.508 . S
C1616 C909 1.502 . S
C1633 C1201 1.499 . S
C1652 C1113 1.500 . S
C1669 C1349 1.499 . S
C1688 C1252 1.499 . S
C1705 C313 0.946 . S
C1724 C49 0.962 . S
C1741 C117 0.944 . S
C1760 C233 0.967 . S
C1777 C636 0.945 . S
C1796 C409 0.910 . S
C1813 C557 0.945 . S
C1832 C497 0.917 . S
C1849 C733 0.935 . S
C1868 C1017 0.912 . S
C1885 C929 0.934 . S
C1904 C821 0.912 . S
C1921 C1340 0.940 . S
C1940 C1105 0.944 . S
C1957 C1193 0.937 . S
C1976 C1261 0.942 . S
C1993 C57 1.663 . S
C2012 C812 1.657 . S
C2029 C108 1.665 . S
C2048 C724 1.672 . S
C2065 C1025 1.665 . S
C2084 C225 1.668 . S
C2101 C937 1.661 . S
C2120 C321 1.658 . S
C2137 C1173 1.664 . S
C2156 C372 1.647 . S
C2173 C1085 1.665 . S
C2192 C460 1.648 . S
C2209 C577 1.661 . S
C2228 C1377 1.664 . S
C2245 C673 1.665 . S
C2264 C1281 1.671 . S
C2281 C381 0.864 . S
C2300 C20 0.836 . S
C2317 C469 0.869 . S
C2336 C145 0.896 . S
C2353 C585 0.865 . S
C2372 C205 0.873 . S
C2389 C665 0.882 . S
C2408 C284 0.898 . S
C2425 C761 0.870 . S
C2444 C1076 0.827 . S
C2461 C849 0.865 . S
C2480 C1164 0.867 . S
C2497 C1289 0.882 . S
C2516 C900 0.888 . S
C2533 C1369 0.877 . S
C2552 C988 0.916 . S
