# Generated by pormake.
# Topology smd, (6)-cn, num edge types: 1
# Building blocks:
#     Node 0, Type 0, BuildingBlock: BETFAJ_clean_sbu_0, # of connection points: 6
#     Node 1, Type 0, BuildingBlock: BETFAJ_clean_sbu_0, # of connection points: 6
#     Node 2, Type 0, BuildingBlock: BETFAJ_clean_sbu_0, # of connection points: 6
#     Node 3, Type 0, BuildingBlock: BETFAJ_clean_sbu_0, # of connection points: 6
#     Node 4, Type 0, BuildingBlock: BETFAJ_clean_sbu_0, # of connection points: 6
#     Node 5, Type 0, BuildingBlock: BETFAJ_clean_sbu_0, # of connection points: 6
#     Node 6, Type 0, BuildingBlock: BETFAJ_clean_sbu_0, # of connection points: 6
#     Node 7, Type 0, BuildingBlock: BETFAJ_clean_sbu_0, # of connection points: 6
#     Node 8, Type 0, BuildingBlock: BETFAJ_clean_sbu_0, # of connection points: 6
#     Node 9, Type 0, BuildingBlock: BETFAJ_clean_sbu_0, # of connection points: 6
#     Node 10, Type 0, BuildingBlock: BETFAJ_clean_sbu_0, # of connection points: 6
#     Node 11, Type 0, BuildingBlock: BETFAJ_clean_sbu_0, # of connection points: 6
#     Node 12, Type 0, BuildingBlock: BETFAJ_clean_sbu_0, # of connection points: 6
#     Node 13, Type 0, BuildingBlock: BETFAJ_clean_sbu_0, # of connection points: 6
#     Node 14, Type 0, BuildingBlock: BETFAJ_clean_sbu_0, # of connection points: 6
#     Node 15, Type 0, BuildingBlock: BETFAJ_clean_sbu_0, # of connection points: 6
#     Node 16, Type 0, BuildingBlock: BETFAJ_clean_sbu_0, # of connection points: 6
#     Node 17, Type 0, BuildingBlock: BETFAJ_clean_sbu_0, # of connection points: 6
#     Edge 18, Type (0, 0), None
#     Edge 19, Type (0, 0), None
#     Edge 20, Type (0, 0), None
#     Edge 21, Type (0, 0), None
#     Edge 22, Type (0, 0), None
#     Edge 23, Type (0, 0), None
#     Edge 24, Type (0, 0), None
#     Edge 25, Type (0, 0), None
#     Edge 26, Type (0, 0), None
#     Edge 27, Type (0, 0), None
#     Edge 28, Type (0, 0), None
#     Edge 29, Type (0, 0), None
#     Edge 30, Type (0, 0), None
#     Edge 31, Type (0, 0), None
#     Edge 32, Type (0, 0), None
#     Edge 33, Type (0, 0), None
#     Edge 34, Type (0, 0), None
#     Edge 35, Type (0, 0), None
#     Edge 36, Type (0, 0), None
#     Edge 37, Type (0, 0), None
#     Edge 38, Type (0, 0), None
#     Edge 39, Type (0, 0), None
#     Edge 40, Type (0, 0), None
#     Edge 41, Type (0, 0), None
#     Edge 42, Type (0, 0), None
#     Edge 43, Type (0, 0), None
#     Edge 44, Type (0, 0), None
#     Edge 45, Type (0, 0), None
#     Edge 46, Type (0, 0), None
#     Edge 47, Type (0, 0), None
#     Edge 48, Type (0, 0), None
#     Edge 49, Type (0, 0), None
#     Edge 50, Type (0, 0), None
#     Edge 51, Type (0, 0), None
#     Edge 52, Type (0, 0), None
#     Edge 53, Type (0, 0), None
#     Edge 54, Type (0, 0), None
#     Edge 55, Type (0, 0), None
#     Edge 56, Type (0, 0), None
#     Edge 57, Type (0, 0), None
#     Edge 58, Type (0, 0), None
#     Edge 59, Type (0, 0), None
#     Edge 60, Type (0, 0), None
#     Edge 61, Type (0, 0), None
#     Edge 62, Type (0, 0), None
#     Edge 63, Type (0, 0), None
#     Edge 64, Type (0, 0), None
#     Edge 65, Type (0, 0), None
#     Edge 66, Type (0, 0), None
#     Edge 67, Type (0, 0), None
#     Edge 68, Type (0, 0), None
#     Edge 69, Type (0, 0), None
#     Edge 70, Type (0, 0), None
#     Edge 71, Type (0, 0), None
# Relax obj value: 0.400
# Max RMSD: 0.456
# Mean RMSD: 0.426
data_MOF--net-smd--node1-BETFAJ_clean_sbu_0--edge1-none
_symmetry_space_group_name_H-M    P1
_symmetry_Int_Tables_number       1
_symmetry_cell_setting            triclinic
loop_
_symmetry_equiv_pos_as_xyz
'x, y, z'
_cell_length_a     29.195335
_cell_length_b     29.573142
_cell_length_c     15.289645
_cell_angle_alpha  92.900722
_cell_angle_beta   92.760402
_cell_angle_gamma 119.88391
loop_
_atom_site_label
_atom_site_type_symbol
_atom_site_fract_x
_atom_site_fract_y
_atom_site_fract_z
_atom_type_partial_charge
Sm0 Sm 0.01429 0.24396 0.62088 0.0
Sm1 Sm 0.96728 0.22158 0.50432 0.0
C2 C 0.06253 0.27309 0.78387 0.0
C3 C 0.03863 0.25333 0.86702 0.0
C4 C 0.98361 0.22102 0.86566 0.0
C5 C 0.95959 0.19906 0.94097 0.0
C6 C -0.01028 0.21083 1.02214 0.0
C7 C 0.04537 0.24304 1.02337 0.0
C8 C 0.06952 0.26308 0.94635 0.0
C9 C 0.05561 0.19062 0.52956 0.0
C10 C 0.91206 0.12629 0.60704 0.0
C11 C 0.90523 0.19375 0.35772 0.0
C12 C 0.92038 0.18487 0.27037 0.0
C13 C 0.96854 0.18556 0.26303 0.0
C14 C -0.01 0.19065 0.1817 0.0
C15 C 0.96295 0.19375 0.10547 0.0
C16 C 0.91116 0.18494 0.11211 0.0
C17 C 0.89085 0.18193 0.19369 0.0
C18 C 0.92408 0.25502 0.68221 0.0
C19 C 0.05933 0.31678 0.44274 0.0
O20 O 0.04561 0.29977 0.74203 0.0
O21 O 0.06392 0.23863 0.73038 0.0
O22 O 0.05056 0.22799 0.50392 0.0
O23 O 0.02586 0.17282 0.59371 0.0
O24 O 0.93485 0.1685 0.66194 0.0
O25 O 0.92826 0.13502 0.52928 0.0
O26 O 0.90041 0.16046 0.41475 0.0
O27 O 0.93265 0.24207 0.39194 0.0
O28 O 0.95286 0.26918 0.61644 0.0
O29 O 0.95405 0.27167 0.61533 0.0
O30 O 0.02317 0.27217 0.40689 0.0
O31 O 0.06342 0.31956 0.53159 0.0
H32 H 0.95874 0.21244 0.80605 0.0
H33 H 0.91713 0.1731 0.93455 0.0
H34 H 0.07061 0.25404 1.08387 0.0
H35 H 0.11225 0.28622 0.94955 0.0
H36 H -0.00899 0.1849 0.3209 0.0
H37 H 0.02842 0.19369 0.17957 0.0
H38 H 0.88714 0.18419 1.05563 0.0
H39 H 0.85348 0.18052 0.19638 0.0
Sm40 Sm 0.77008 0.74917 0.56648 0.0
Sm41 Sm 0.74869 0.7771 0.68015 0.0
C42 C 0.77797 0.71024 0.41199 0.0
C43 C 0.78185 0.73176 0.32557 0.0
C44 C 0.74386 0.70213 0.25563 0.0
C45 C 0.74662 0.72286 0.17467 0.0
C46 C 0.78641 0.77385 0.16281 0.0
C47 C 0.82386 0.8042 0.23273 0.0
C48 C 0.8217 0.78331 0.31353 0.0
C49 C 0.86379 0.79142 0.66988 0.0
C50 C 0.80177 0.87276 0.57735 0.0
C51 C 0.73264 0.81646 0.82599 0.0
C52 C 0.75796 0.81807 0.91376 0.0
C53 C 0.79003 0.79509 0.92181 0.0
C54 C 0.80236 0.78318 1.00404 0.0
C55 C 0.78466 0.79617 1.07971 0.0
C56 C 0.75789 0.82421 1.07304 0.0
C57 C 0.74485 0.83507 0.99077 0.0
C58 C 0.68053 0.76773 0.49234 0.0
C59 C 0.72933 0.67306 0.74412 0.0
O60 O 0.73289 0.69246 0.44669 0.0
O61 O 0.81798 0.73718 0.46969 0.0
O62 O 0.81828 0.76082 0.69407 0.0
O63 O 0.85949 0.80871 0.59535 0.0
O64 O 0.78318 0.83173 0.51973 0.0
O65 O 0.80608 0.86207 0.65716 0.0
O66 O 0.76414 0.84639 0.76966 0.0
O67 O 0.69998 0.7692 0.79026 0.0
O68 O 0.68839 0.74331 0.55455 0.0
O69 O 0.68689 0.74116 0.55447 0.0
O70 O 0.72465 0.71204 0.77257 0.0
O71 O 0.74451 0.67575 0.66148 0.0
H72 H 0.71146 0.66334 0.26397 0.0
H73 H 0.7168 0.69975 0.12146 0.0
H74 H 0.85425 0.8441 0.22514 0.0
H75 H 0.85088 0.80789 0.36674 0.0
H76 H 0.80304 0.78358 0.86414 0.0
H77 H 0.82348 0.76177 1.00808 0.0
H78 H 0.74384 0.83452 0.13085 0.0
H79 H 0.72126 0.85328 0.98804 0.0
Sm80 Sm 0.21744 -0.00356 0.6717 0.0
Sm81 Sm 0.25567 0.0411 0.58236 0.0
C82 C 0.19202 0.94513 0.81565 0.0
C83 C 0.20527 0.96202 0.91045 0.0
C84 C 0.25803 0.98802 0.94689 0.0
C85 C 0.27054 0.00899 1.03428 0.0
C86 C 0.23035 0.00268 0.08786 0.0
C87 C 0.17728 0.97439 1.05268 0.0
C88 C 0.16493 0.95471 0.96443 0.0
C89 C 0.12682 0.94696 0.56805 0.0
C90 C 0.18993 0.08621 0.6385 0.0
C91 C 0.29238 0.09475 0.44525 0.0
C92 C 0.27368 0.07324 0.3534 0.0
C93 C 0.23132 0.02166 0.33499 0.0
C94 C 0.2169 -0.00157 0.2488 0.0
C95 C 0.24427 0.02675 0.17951 0.0
C96 C 0.28471 0.07905 0.19782 0.0
C97 C 0.29897 0.10222 0.28401 0.0
C98 C 0.31945 0.08773 0.7537 0.0
C99 C 0.2571 0.95273 0.48715 0.0
O100 O 0.22987 0.9496 0.76875 0.0
O101 O 0.16257 0.96033 0.77576 0.0
O102 O 0.1729 0.95668 0.54662 0.0
O103 O 0.13332 0.97865 0.63512 0.0
O104 O 0.20758 0.07217 0.70662 0.0
O105 O 0.19285 0.06436 0.56556 0.0
O106 O 0.25779 0.09852 0.49157 0.0
O107 O 0.31669 0.07419 0.48701 0.0
O108 O 0.30347 0.043 0.71589 0.0
O109 O 0.30305 0.10998 0.69954 0.0
O110 O 0.28898 0.00218 0.49346 0.0
O111 O 0.22349 0.93808 0.55168 0.0
H112 H 0.28967 -0.0074 0.9076 0.0
H113 H 0.31165 0.02969 1.06038 0.0
H114 H 0.14553 0.96907 0.0925 0.0
H115 H 0.12391 0.93477 0.93779 0.0
H116 H 0.20985 -0.00097 0.38749 0.0
H117 H 0.18508 0.95817 0.2366 0.0
H118 H 0.30274 0.10281 0.14453 0.0
H119 H 0.32865 0.14285 0.29625 0.0
Sm120 Sm 0.02407 0.79328 0.662 0.0
Sm121 Sm 0.97763 0.77456 0.55455 0.0
C122 C 0.08029 0.81184 0.8135 0.0
C123 C 0.06268 0.81949 0.89998 0.0
C124 C 0.01377 0.8179 0.90343 0.0
C125 C -0.00935 0.81362 0.98319 0.0
C126 C 0.0165 0.81188 1.06187 0.0
C127 C 0.06719 0.81742 1.05879 0.0
C128 C 0.08993 0.82145 0.97927 0.0
C129 C 0.0494 0.7634 0.45881 0.0
C130 C 0.93291 0.69063 0.71063 0.0
C131 C 0.92645 0.7654 0.39884 0.0
C132 C 0.94732 0.77795 0.31124 0.0
C133 C 0.00137 0.81362 0.30635 0.0
C134 C 0.02287 0.82628 0.22595 0.0
C135 C -0.00888 0.80314 0.14682 0.0
C136 C 0.93612 0.76943 0.15098 0.0
C137 C 0.91442 0.75694 0.23261 0.0
C138 C 0.91074 0.78652 0.69668 0.0
C139 C 0.08176 0.89253 0.57669 0.0
O140 O 0.09102 0.848 0.75912 0.0
O141 O 0.05095 0.76481 0.77438 0.0
O142 O 0.04275 0.75464 0.54046 0.0
O143 O 0.04349 0.75235 0.54262 0.0
O144 O 0.969 0.73396 0.75016 0.0
O145 O 0.92763 0.69178 0.62315 0.0
O146 O 0.92555 0.7257 0.43396 0.0
O147 O 0.94504 0.80573 0.45571 0.0
O148 O 0.95487 0.81227 0.66149 0.0
O149 O 0.95565 0.81414 0.66252 0.0
O150 O 0.05645 0.85294 0.5167 0.0
O151 O 0.06717 0.88067 0.65423 0.0
H152 H -0.00754 0.81819 0.84386 0.0
H153 H 0.95235 0.81111 0.98291 0.0
H154 H 0.08887 0.81654 0.1175 0.0
H155 H 0.12824 0.82485 0.98127 0.0
H156 H 0.0276 0.8321 0.36482 0.0
H157 H 0.06482 0.85416 0.22627 0.0
H158 H 0.91014 0.75107 0.09146 0.0
H159 H 0.87244 0.72966 0.2341 0.0
Sm160 Sm 0.21878 0.2024 0.49009 0.0
Sm161 Sm 0.20697 0.2519 0.61868 0.0
C162 C 0.21032 0.1495 0.33968 0.0
C163 C 0.19227 0.15682 0.25199 0.0
C164 C 0.16765 0.18721 0.24467 0.0
C165 C 0.16228 0.20508 0.16381 0.0
C166 C 0.18046 0.19186 0.08892 0.0
C167 C 0.20033 0.15753 0.09448 0.0
C168 C 0.20543 0.13965 0.17536 0.0
C169 C 0.30428 0.24289 0.63395 0.0
C170 C 0.24121 0.30827 0.41905 0.0
C171 C 0.20954 0.2977 0.77142 0.0
C172 C 0.19915 0.27228 0.8551 0.0
C173 C 0.24048 0.29054 0.92184 0.0
C174 C 0.23361 0.26461 0.99827 0.0
C175 C 0.18562 0.21926 1.00881 0.0
C176 C 0.14444 0.19981 0.94167 0.0
C177 C 0.15138 0.22577 0.86488 0.0
C178 C 0.1074 0.19184 0.53851 0.0
C179 C 0.17709 0.12917 0.63152 0.0
O180 O 0.17452 0.13093 0.39627 0.0
O181 O 0.2549 0.18897 0.375 0.0
O182 O 0.28515 0.26638 0.59341 0.0
O183 O 0.28204 0.19655 0.59168 0.0
O184 O 0.23859 0.26462 0.39439 0.0
O185 O 0.23336 0.31513 0.50458 0.0
O186 O 0.25245 0.30483 0.73774 0.0
O187 O 0.17005 0.28217 0.71189 0.0
O188 O 0.14865 0.22056 0.49898 0.0
O189 O 0.12154 0.18617 0.61674 0.0
O190 O 0.2038 0.17565 0.67669 0.0
O191 O 0.16013 0.13054 0.55254 0.0
H192 H 0.15494 0.19931 0.30218 0.0
H193 H 0.14647 0.23128 0.16068 0.0
H194 H 0.21434 0.14664 1.03722 0.0
H195 H 0.22217 0.11469 0.1786 0.0
H196 H 0.27862 0.32446 0.91409 0.0
H197 H 0.26599 0.27974 1.04924 0.0
H198 H 0.10739 0.1642 0.94799 0.0
H199 H 0.11979 0.20863 0.81273 0.0
Sm200 Sm 0.74035 0.97638 0.6096 0.0
Sm201 Sm 0.77571 0.01409 0.52692 0.0
C202 C 0.70587 0.92721 0.75098 0.0
C203 C 0.72644 0.94951 0.84162 0.0
C204 C 0.768 0.00155 0.85985 0.0
C205 C 0.78328 0.02399 0.94668 0.0
C206 C 0.75756 -0.00592 1.01568 0.0
C207 C 0.71889 0.94149 0.99709 0.0
C208 C 0.70342 0.91966 0.91076 0.0
C209 C 0.67256 0.92516 0.44163 0.0
C210 C 0.73479 0.06131 0.70498 0.0
C211 C 0.80292 0.06404 0.38224 0.0
C212 C 0.79122 0.04939 0.28736 0.0
C213 C 0.73917 0.02521 0.24848 0.0
C214 C 0.72859 0.00804 0.1596 0.0
C215 C 0.77005 0.01636 0.10759 0.0
C216 C 0.82232 0.04206 0.14569 0.0
C217 C 0.83267 0.05761 0.23545 0.0
C218 C 0.86808 0.07201 0.62206 0.0
C219 C 0.80085 0.92299 0.56563 0.0
O220 O 0.73835 0.92056 0.70347 0.0
O221 O 0.68208 0.94832 0.70955 0.0
O222 O 0.69061 0.97126 0.47521 0.0
O223 O 0.68877 0.90408 0.4985 0.0
O224 O 0.70175 0.01212 0.69483 0.0
O225 O 0.77066 0.07493 0.64446 0.0
O226 O 0.76513 0.06104 0.42783 0.0
O227 O 0.83014 0.04623 0.42175 0.0
O228 O 0.82215 0.06236 0.6438 0.0
O229 O 0.86158 0.03618 0.56219 0.0
O230 O 0.78251 0.93578 0.49697 0.0
O231 O 0.80143 0.94978 0.63521 0.0
H232 H 0.788 0.02495 0.80714 0.0
H233 H 0.81411 0.06462 0.9597 0.0
H234 H 0.70158 0.91699 1.05002 0.0
H235 H 0.67483 0.87905 0.89813 0.0
H236 H 0.70663 0.01903 0.28682 0.0
H237 H 0.68792 0.9884 0.13119 0.0
H238 H 0.85474 0.0481 0.107 0.0
H239 H 0.87299 0.07522 0.26474 0.0
Sm240 Sm 0.62621 0.54115 0.87132 0.0
Sm241 Sm 0.67451 0.55814 0.98132 0.0
C242 C 0.57918 0.52967 0.71008 0.0
C243 C 0.60362 0.53451 0.62473 0.0
C244 C 0.65604 0.5448 0.62402 0.0
C245 C 0.67978 0.5478 0.54563 0.0
C246 C 0.65137 0.53967 0.46425 0.0
C247 C 0.59822 0.52796 0.46418 0.0
C248 C 0.57484 0.52571 0.54342 0.0
C249 C 0.57111 0.44676 0.95105 0.0
C250 C 0.71917 0.51041 0.86568 0.0
C251 C 0.73755 0.58695 0.12833 0.0
C252 C 0.72161 0.5678 0.21589 0.0
C253 C 0.6715 0.52374 0.22278 0.0
C254 C 0.64925 0.51344 0.30361 0.0
C255 C 0.67762 0.54562 0.38032 0.0
C256 C 0.73062 0.58533 0.37485 0.0
C257 C 0.75204 0.59702 0.29318 0.0
C258 C 0.72024 0.62948 0.80523 0.0
C259 C 0.59466 0.57774 1.06575 0.0
O260 O 0.59735 0.57185 0.76314 0.0
O261 O 0.5744 0.49109 0.75282 0.0
O262 O 0.58674 0.49272 0.98326 0.0
O263 O 0.59559 0.45198 0.88067 0.0
O264 O 0.70134 0.53662 0.82458 0.0
O265 O 0.69625 0.49652 0.93728 0.0
O266 O 0.73488 0.55272 1.06772 0.0
O267 O 0.7168 0.61393 0.09874 0.0
O268 O 0.69823 0.62269 0.87892 0.0
O269 O 0.6979 0.62485 0.88114 0.0
O270 O 0.61899 0.55336 0.08631 0.0
O271 O 0.59623 0.58547 0.97925 0.0
H272 H 0.67902 0.5502 0.68405 0.0
H273 H 0.72033 0.55584 0.54909 0.0
H274 H 0.57493 0.52175 0.40285 0.0
H275 H 0.53465 0.51791 0.54054 0.0
H276 H 0.64816 0.49875 0.16473 0.0
H277 H 0.60935 0.4809 0.3056 0.0
H278 H 0.75456 0.60961 0.43297 0.0
H279 H 0.79123 0.63053 0.29004 0.0
Sm280 Sm 0.44107 0.08702 0.89111 0.0
Sm281 Sm 0.43769 0.13256 1.01185 0.0
C282 C 0.43744 0.04036 0.73694 0.0
C283 C 0.44905 0.06555 0.65267 0.0
C284 C 0.41055 0.04418 0.58119 0.0
C285 C 0.41849 0.06963 0.5038 0.0
C286 C 0.46419 0.11796 0.4971 0.0
C287 C 0.50286 0.14002 0.56847 0.0
C288 C 0.49526 0.11417 0.64574 0.0
C289 C 0.54495 0.14473 0.95991 0.0
C290 C 0.47263 0.21056 0.872 0.0
C291 C 0.43171 0.17771 0.16159 0.0
C292 C 0.45377 0.1773 0.25142 0.0
C293 C 0.48694 0.15577 0.26356 0.0
C294 C 0.4936 0.1394 0.34554 0.0
C295 C 0.46855 0.14589 0.41724 0.0
C296 C 0.44099 0.17321 0.40774 0.0
C297 C 0.43451 0.18945 0.32582 0.0
C298 C 0.35318 0.11432 0.84292 0.0
C299 C 0.41299 0.02829 0.08552 0.0
O300 O 0.39504 0.03461 0.77068 0.0
O301 O 0.4767 0.05577 0.79663 0.0
O302 O 0.50622 0.11422 1.00148 0.0
O303 O 0.52657 0.15418 0.88904 0.0
O304 O 0.45368 0.16423 0.82848 0.0
O305 O 0.48305 0.21218 0.956 0.0
O306 O 0.46559 0.20398 0.10491 0.0
O307 O 0.39437 0.13189 0.1268 0.0
O308 O 0.36627 0.09198 0.90255 0.0
O309 O 0.36499 0.09004 0.90293 0.0
O310 O 0.43288 0.07654 0.11356 0.0
O311 O 0.4071 0.01934 0.99711 0.0
H312 H 0.37374 0.00812 0.58581 0.0
H313 H 0.38853 0.05184 0.44893 0.0
H314 H 0.53817 0.17772 0.56528 0.0
H315 H 0.52469 0.13326 0.70097 0.0
H316 H 0.50524 0.14875 0.20864 0.0
H317 H 0.51574 0.11909 0.35158 0.0
H318 H 0.42193 0.17939 0.46247 0.0
H319 H 0.41161 0.20854 0.31978 0.0
Sm320 Sm 0.8972 0.35839 0.85886 0.0
Sm321 Sm 0.8904 0.32212 0.94896 0.0
C322 C 0.92378 0.40409 0.71095 0.0
C323 C 0.9122 0.38099 0.62017 0.0
C324 C 0.87221 0.32868 0.59808 0.0
C325 C 0.86065 0.30774 0.51054 0.0
C326 C 0.8883 0.33938 0.44459 0.0
C327 C 0.92626 0.39204 0.46674 0.0
C328 C 0.93886 0.41212 0.55418 0.0
C329 C 0.86796 0.41957 0.95498 0.0
C330 C 0.77958 0.2692 0.87777 0.0
C331 C 0.86662 0.26453 1.08255 0.0
C332 C 0.87073 0.28013 0.17704 0.0
C333 C 0.92024 0.30414 0.22588 0.0
C334 C 0.92544 0.32349 0.3125 0.0
C335 C 0.88108 0.3174 0.35348 0.0
C336 C 0.83113 0.29184 0.30645 0.0
C337 C 0.82616 0.27419 0.21815 0.0
C338 C 0.92999 0.29407 0.75839 0.0
C339 C -0.01012 0.4011 1.03768 0.0
O340 O 0.95697 0.39735 0.76114 0.0
O341 O 0.88202 0.39611 0.74936 0.0
O342 O 0.90206 0.40661 0.97881 0.0
O343 O 0.83925 0.38857 0.88662 0.0
O344 O 0.81275 0.28129 0.81743 0.0
O345 O 0.80281 0.2973 0.95051 0.0
O346 O 0.83097 0.26804 1.03329 0.0
O347 O 0.91146 0.2815 1.04647 0.0
O348 O 0.8983 0.28205 0.82034 0.0
O349 O 0.89597 0.27839 0.81961 0.0
O350 O 0.96367 0.35192 1.04179 0.0
O351 O 0.97415 0.41615 0.96656 0.0
H352 H 0.85034 0.30404 0.64844 0.0
H353 H 0.8311 0.26689 0.4946 0.0
H354 H 0.94668 0.41741 0.41628 0.0
H355 H 0.96991 0.45189 0.57057 0.0
H356 H 0.95529 0.30848 0.19729 0.0
H357 H 0.96402 0.34177 0.34856 0.0
H358 H 0.79647 0.28712 0.33704 0.0
H359 H 0.78771 0.25694 0.18183 0.0
Sm360 Sm 0.6881 0.11859 0.9733 0.0
Sm361 Sm 0.63876 0.09512 0.86002 0.0
C362 C 0.74778 0.14025 0.12149 0.0
C363 C 0.73106 0.14692 0.20969 0.0
C364 C 0.68473 0.15009 0.21663 0.0
C365 C 0.66141 0.1438 0.2967 0.0
C366 C 0.68563 0.13733 0.37308 0.0
C367 C 0.73556 0.14137 0.36778 0.0
C368 C 0.75717 0.14463 0.28703 0.0
C369 C 0.73455 0.09662 0.78532 0.0
C370 C 0.60102 0.02348 1.03983 0.0
C371 C 0.58792 0.06563 0.69879 0.0
C372 C 0.61066 0.08619 0.61505 0.0
C373 C 0.665 0.12226 0.61584 0.0
C374 C 0.68855 0.1409 0.53838 0.0
C375 C 0.65848 0.1235 0.45668 0.0
C376 C 0.60316 0.08934 0.45609 0.0
C377 C 0.57945 0.07119 0.53475 0.0
C378 C 0.59555 0.14457 0.95504 0.0
C379 C 0.73279 0.21648 0.8842 0.0
O380 O 0.7547 0.1756 1.06738 0.0
O381 O 0.72055 0.09291 1.08251 0.0
O382 O 0.70624 0.07825 0.8517 0.0
O383 O 0.70533 0.07589 0.85252 0.0
O384 O 0.63286 0.06991 1.07246 0.0
O385 O 0.59761 0.01885 0.951 0.0
O386 O 0.60648 0.03984 0.73917 0.0
O387 O 0.58605 0.0992 0.75369 0.0
O388 O 0.60357 0.10875 0.97989 0.0
O389 O 0.62085 0.16193 0.88631 0.0
O390 O 0.71442 0.17567 0.82656 0.0
O391 O 0.71728 0.20449 0.96118 0.0
H392 H 0.66505 0.15501 0.15915 0.0
H393 H 0.62417 0.14339 0.29843 0.0
H394 H 0.75698 0.1393 0.42549 0.0
H395 H 0.79314 0.14316 0.28555 0.0
H396 H 0.68975 0.13578 0.67654 0.0
H397 H 0.73073 0.16853 0.54285 0.0
H398 H 0.57843 0.07485 0.3947 0.0
H399 H 0.53712 0.04438 0.5325 0.0
Sm400 Sm 0.886 0.58889 0.95578 0.0
Sm401 Sm 0.90152 0.55513 0.85123 0.0
C402 C 0.89006 0.64439 0.09705 0.0
C403 C 0.88268 0.62512 0.18529 0.0
C404 C 0.84184 0.57414 0.19704 0.0
C405 C 0.83828 0.5533 0.27799 0.0
C406 C 0.87625 0.58269 0.34771 0.0
C407 C 0.91851 0.63233 0.33518 0.0
C408 C 0.92187 0.6533 0.25439 0.0
C409 C 0.90211 0.64505 0.76721 0.0
C410 C 0.97811 0.5876 1.03973 0.0
C411 C 0.90713 0.52468 0.68637 0.0
C412 C 0.88961 0.53172 0.59831 0.0
C413 C 0.86519 0.56194 0.58828 0.0
C414 C 0.85889 0.57735 0.5057 0.0
C415 C 0.87467 0.56043 0.43181 0.0
C416 C 0.89275 0.52491 0.44002 0.0
C417 C 0.8995 0.51025 0.52279 0.0
C418 C 0.88604 0.47643 0.95159 0.0
C419 C 0.77733 0.53149 0.87492 0.0
O420 O 0.84827 0.62224 1.03979 0.0
O421 O 0.93316 0.65052 1.06431 0.0
O422 O 0.9234 0.63979 0.83944 0.0
O423 O 0.92585 0.64138 0.84055 0.0
O424 O 0.93145 0.57307 1.06182 0.0
O425 O 0.98208 0.59147 0.95297 0.0
O426 O 0.94508 0.56656 0.73098 0.0
O427 O 0.86977 0.49616 0.73517 0.0
O428 O 0.85619 0.49709 0.94743 0.0
O429 O 0.92859 0.50321 0.91201 0.0
O430 O 0.80784 0.52585 0.81898 0.0
O431 O 0.80072 0.55863 0.94701 0.0
H432 H 0.81359 0.54954 0.14299 0.0
H433 H 0.80648 0.51405 0.28576 0.0
H434 H 0.94963 0.65419 0.38733 0.0
H435 H 0.95616 0.69056 0.24476 0.0
H436 H 0.85168 0.57419 0.64402 0.0
H437 H 0.84297 0.60334 0.49977 0.0
H438 H 0.9038 0.51034 0.3831 0.0
H439 H 0.91399 0.48349 0.52765 0.0
Sm440 Sm 0.3975 0.29361 0.89794 0.0
Sm441 Sm 0.43187 0.34548 0.83343 0.0
C442 C 0.36695 0.24056 1.03775 0.0
C443 C 0.38235 0.26284 0.13052 0.0
C444 C 0.4302 0.31024 0.15303 0.0
C445 C 0.44491 0.33218 0.24024 0.0
C446 C 0.41208 0.30723 0.30709 0.0
C447 C 0.3642 0.26039 0.28379 0.0
C448 C 0.34944 0.23825 0.19672 0.0
C449 C 0.33436 0.25974 0.72793 0.0
C450 C 0.39161 0.38264 1.00926 0.0
C451 C 0.47194 0.37382 0.67808 0.0
C452 C 0.45729 0.36175 0.58245 0.0
C453 C 0.40532 0.34335 0.54727 0.0
C454 C 0.39058 0.32548 0.45824 0.0
C455 C 0.42827 0.32809 0.4014 0.0
C456 C 0.48108 0.34905 0.43636 0.0
C457 C 0.49528 0.36527 0.5261 0.0
C458 C 0.51343 0.40851 0.94366 0.0
C459 C 0.45454 0.24662 0.84129 0.0
O460 O 0.40581 0.24384 0.99444 0.0
O461 O 0.33649 0.25334 0.99226 0.0
O462 O 0.34541 0.29937 0.78085 0.0
O463 O 0.35794 0.23751 0.76479 0.0
O464 O 0.37053 0.33242 1.00657 0.0
O465 O 0.41567 0.40109 0.93677 0.0
O466 O 0.45171 0.39694 0.72331 0.0
O467 O 0.47247 0.3368 0.71932 0.0
O468 O 0.49225 0.35811 0.93385 0.0
O469 O 0.48407 0.42451 0.90486 0.0
O470 O 0.47807 0.29726 0.86457 0.0
O471 O 0.40446 0.22758 0.82946 0.0
H472 H 0.45628 0.33047 0.10294 0.0
H473 H 0.48188 0.36869 0.25518 0.0
H474 H 0.34027 0.23919 0.33448 0.0
H475 H 0.31312 0.20141 0.18146 0.0
H476 H 0.37629 0.34279 0.58902 0.0
H477 H 0.34978 0.31048 0.43354 0.0
H478 H 0.5111 0.35114 0.39511 0.0
H479 H 0.53582 0.37961 0.5519 0.0
Sm480 Sm 0.34953 0.91456 0.32614 0.0
Sm481 Sm 0.29838 0.88926 0.21962 0.0
C482 C 0.40094 0.92759 0.48405 0.0
C483 C 0.3785 0.91594 0.57135 0.0
C484 C 0.32338 0.88705 0.57412 0.0
C485 C 0.3 0.87053 0.6523 0.0
C486 C 0.33084 0.88409 0.73298 0.0
C487 C 0.38669 0.91276 0.73087 0.0
C488 C 0.41022 0.92804 0.65075 0.0
C489 C 0.40814 0.88879 0.18449 0.0
C490 C 0.2449 0.79681 0.31866 0.0
C491 C 0.24156 0.86992 1.06888 0.0
C492 C 0.25812 0.8615 0.98148 0.0
C493 C 0.30457 0.85846 0.97486 0.0
C494 C 0.32811 0.86473 0.89467 0.0
C495 C 0.30418 0.87137 0.81785 0.0
C496 C 0.25435 0.86764 0.82362 0.0
C497 C 0.23286 0.86475 0.90429 0.0
C498 C 0.25604 0.9171 0.40683 0.0
C499 C 0.3899 0.98577 0.15173 0.0
O500 O 0.40169 0.96604 0.44468 0.0
O501 O 0.3831 0.88651 0.42934 0.0
O502 O 0.36606 0.86768 0.22618 0.0
O503 O 0.3653 0.86572 0.22563 0.0
O504 O 0.27185 0.84022 0.36982 0.0
O505 O 0.25658 0.80258 0.23861 0.0
O506 O 0.23032 0.83403 0.12417 0.0
O507 O 0.27142 0.91709 0.10701 0.0
O508 O 0.28399 0.93425 0.33949 0.0
O509 O 0.28485 0.93635 0.33867 0.0
O510 O 0.35596 0.93908 0.12149 0.0
O511 O 0.39389 0.99195 0.24026 0.0
H512 H 0.29769 0.87619 0.51526 0.0
H513 H 0.25727 0.8467 0.64829 0.0
H514 H 0.41238 0.92467 0.79105 0.0
H515 H 0.45302 0.94981 0.65116 0.0
H516 H 0.32418 0.85376 1.03261 0.0
H517 H 0.36516 0.86476 0.89335 0.0
H518 H 0.23248 0.86946 0.76647 0.0
H519 H 0.19706 0.86659 0.90607 0.0
Sm520 Sm 0.1199 0.43603 0.20807 0.0
Sm521 Sm 0.10285 0.45684 0.30748 0.0
C522 C 0.13326 0.40242 1.05186 0.0
C523 C 0.12619 0.41831 0.96538 0.0
C524 C 0.11702 0.46041 0.9579 0.0
C525 C 0.11019 0.47534 0.87529 0.0
C526 C 0.11401 0.44918 0.79958 0.0
C527 C 0.127 0.40979 0.80773 0.0
C528 C 0.13193 0.39388 0.89004 0.0
C529 C 0.21903 0.47966 0.29278 0.0
C530 C 0.1455 0.55682 0.23229 0.0
C531 C 0.063 0.4762 0.44524 0.0
C532 C 0.07376 0.47166 0.53894 0.0
C533 C 0.11181 0.51498 0.5946 0.0
C534 C 0.1241 0.50858 0.68114 0.0
C535 C 0.09937 0.45855 0.71186 0.0
C536 C 0.06096 0.41573 0.65695 0.0
C537 C 0.0487 0.42203 0.57155 0.0
C538 C 0.03045 0.4363 0.11343 0.0
C539 C 0.08668 0.36188 0.38322 0.0
O540 O 0.09093 0.37587 0.09241 0.0
O541 O 0.171 0.43951 0.10332 0.0
O542 O 0.17631 0.44371 0.31869 0.0
O543 O 0.20688 0.50205 0.23285 0.0
O544 O 0.11968 0.51592 0.17531 0.0
O545 O 0.15871 0.54419 0.30414 0.0
O546 O 0.10121 0.51371 0.40681 0.0
O547 O 0.03926 0.43197 0.39625 0.0
O548 O 0.03702 0.41887 0.18604 0.0
O549 O 0.03532 0.41667 0.18769 0.0
O550 O 0.11062 0.40943 0.41541 0.0
O551 O 0.07946 0.35849 0.29517 0.0
H552 H 0.11484 0.48152 1.01565 0.0
H553 H 0.10053 0.50608 0.87047 0.0
H554 H 0.13198 0.39043 0.74995 0.0
H555 H 0.14028 0.36256 0.89501 0.0
H556 H 0.13293 0.55341 0.57077 0.0
H557 H 0.154 0.54216 0.72286 0.0
H558 H 0.04059 0.37704 0.67993 0.0
H559 H 0.01973 0.38744 0.53081 0.0
Sm560 Sm 0.54195 0.64882 0.32317 0.0
Sm561 Sm 0.58086 0.69547 0.23377 0.0
C562 C 0.51153 0.59475 0.4641 0.0
C563 C 0.52219 0.60908 0.55978 0.0
C564 C 0.57422 0.63594 0.59901 0.0
C565 C 0.58429 0.65494 0.68713 0.0
C566 C 0.54259 0.6464 0.7388 0.0
C567 C 0.49026 0.61755 0.70083 0.0
C568 C 0.48027 0.59985 0.61152 0.0
C569 C 0.45462 0.59981 0.21152 0.0
C570 C 0.51652 0.74133 0.29085 0.0
C571 C 0.61397 0.74412 0.09204 0.0
C572 C 0.59138 0.71967 1.00225 0.0
C573 C 0.54889 0.66773 0.98748 0.0
C574 C 0.5314 0.64329 0.90174 0.0
C575 C 0.55516 0.6713 0.82982 0.0
C576 C 0.59372 0.72418 0.84508 0.0
C577 C 0.6129 0.74742 0.93038 0.0
C578 C 0.6455 0.74167 0.40405 0.0
C579 C 0.58682 0.60987 0.14058 0.0
O580 O 0.55014 0.59868 0.41965 0.0
O581 O 0.48457 0.61251 0.42361 0.0
O582 O 0.50138 0.61053 0.19483 0.0
O583 O 0.45828 0.63018 0.27871 0.0
O584 O 0.5347 0.72652 0.35765 0.0
O585 O 0.51781 0.71887 0.21752 0.0
O586 O 0.58237 0.75131 0.1412 0.0
O587 O 0.63962 0.72478 0.13362 0.0
O588 O 0.62791 0.69624 0.36773 0.0
O589 O 0.63085 0.76493 0.3489 0.0
O590 O 0.61645 0.65954 0.1469 0.0
O591 O 0.55378 0.59284 0.20583 0.0
H592 H 0.60727 0.64319 0.56125 0.0
H593 H 0.62492 0.67644 0.7151 0.0
H594 H 0.45744 0.61089 0.73891 0.0
H595 H 0.43991 0.58049 0.58216 0.0
H596 H 0.53008 0.64568 1.04206 0.0
H597 H 0.50058 0.60252 0.89193 0.0
H598 H 0.60893 0.74759 0.79015 0.0
H599 H 0.64336 0.7877 0.94016 0.0
Sm600 Sm 0.35466 0.4427 0.28679 0.0
Sm601 Sm 0.31015 0.42812 0.18063 0.0
C602 C 0.4161 0.45954 0.431 0.0
C603 C 0.40322 0.4701 0.52042 0.0
C604 C 0.36022 0.47861 0.52953 0.0
C605 C 0.33983 0.47703 0.61137 0.0
C606 C 0.3639 0.47004 0.6874 0.0
C607 C 0.41088 0.46845 0.67968 0.0
C608 C 0.42907 0.46632 0.59693 0.0
C609 C 0.39013 0.41707 0.08947 0.0
C610 C 0.26408 0.35197 0.35535 0.0
C611 C 0.26406 0.41075 1.01688 0.0
C612 C 0.28942 0.42804 0.93286 0.0
C613 C 0.34416 0.46328 0.93296 0.0
C614 C 0.36829 0.47839 0.85407 0.0
C615 C 0.33805 0.45963 0.77241 0.0
C616 C 0.28281 0.42699 0.77273 0.0
C617 C 0.2591 0.41154 0.85185 0.0
C618 C 0.26751 0.47612 0.28249 0.0
C619 C 0.40988 0.54484 0.21287 0.0
O620 O 0.42673 0.49557 0.37618 0.0
O621 O 0.3834 0.41261 0.39378 0.0
O622 O 0.36819 0.40019 0.16175 0.0
O623 O 0.36746 0.39758 0.16306 0.0
O624 O 0.29764 0.3979 0.38816 0.0
O625 O 0.26297 0.34861 0.26633 0.0
O626 O 0.27049 0.37612 1.05636 0.0
O627 O 0.27091 0.44822 1.07289 0.0
O628 O 0.27254 0.43766 0.30025 0.0
O629 O 0.29463 0.49617 0.21658 0.0
O630 O 0.39252 0.50527 0.15347 0.0
O631 O 0.38921 0.53053 0.28573 0.0
H632 H 0.34093 0.48454 0.47265 0.0
H633 H 0.3048 0.48061 0.61483 0.0
H634 H 0.43193 0.46604 0.73757 0.0
H635 H 0.46203 0.45971 0.59288 0.0
H636 H 0.36863 0.47919 0.99394 0.0
H637 H 0.41074 0.50467 0.8572 0.0
H638 H 0.25793 0.41128 0.71154 0.0
H639 H 0.21716 0.38515 0.84901 0.0
Sm640 Sm 0.55896 0.87842 0.1727 0.0
Sm641 Sm 0.54583 0.91341 0.28972 0.0
C642 C 0.57342 0.83851 1.02539 0.0
C643 C 0.54862 0.83624 0.93631 0.0
C644 C 0.509 0.85009 0.92585 0.0
C645 C 0.49665 0.8625 0.84359 0.0
C646 C 0.52255 0.85942 0.77043 0.0
C647 C 0.55706 0.83973 0.77892 0.0
C648 C 0.56951 0.82813 0.86065 0.0
C649 C 0.63639 0.89607 0.35498 0.0
C650 C 0.57946 0.97989 0.1027 0.0
C651 C 0.54066 0.95479 0.4441 0.0
C652 C 0.53285 0.9316 0.52982 0.0
C653 C 0.57388 0.95458 0.59711 0.0
C654 C 0.56834 0.93197 0.67674 0.0
C655 C 0.52252 0.88526 0.69029 0.0
C656 C 0.48127 0.86148 0.62327 0.0
C657 C 0.48647 0.88438 0.54341 0.0
C658 C 0.44941 0.87378 0.19558 0.0
C659 C 0.51035 0.78891 0.28496 0.0
O660 O 0.54153 0.80922 1.08199 0.0
O661 O 0.60698 0.88574 1.06062 0.0
O662 O 0.62574 0.9175 0.29086 0.0
O663 O 0.62724 0.9197 0.29027 0.0
O664 O 0.5619 0.93286 1.07115 0.0
O665 O 0.58293 0.98592 0.19156 0.0
O666 O 0.58547 0.96825 0.41095 0.0
O667 O 0.50104 0.93209 0.38475 0.0
O668 O 0.49407 0.90131 0.16679 0.0
O669 O 0.45547 0.85582 0.26822 0.0
O670 O 0.53494 0.83195 0.33831 0.0
O671 O 0.49891 0.79708 0.2069 0.0
H672 H 0.4899 0.85438 0.98202 0.0
H673 H 0.46956 0.87745 0.83842 0.0
H674 H 0.57736 0.83674 0.72327 0.0
H675 H 0.59816 0.81615 0.86415 0.0
H676 H 0.61068 0.98969 0.58758 0.0
H677 H 0.60019 0.95052 0.72839 0.0
H678 H 0.44598 0.82464 0.6316 0.0
H679 H 0.45477 0.86423 0.4917 0.0
Sm680 Sm 0.08049 0.64713 0.31693 0.0
Sm681 Sm 0.10284 0.69322 0.2176 0.0
C682 C 0.03847 0.58595 0.44345 0.0
C683 C 0.0638 0.59568 0.53319 0.0
C684 C 0.11418 0.63992 0.5543 0.0
C685 C 0.13307 0.65786 0.64209 0.0
C686 C 0.1022 0.63126 0.71006 0.0
C687 C 0.05471 0.5839 0.68848 0.0
C688 C 0.03515 0.56724 0.60079 0.0
C689 C 0.02252 0.60396 0.11169 0.0
C690 C 0.0657 0.7339 0.39398 0.0
C691 C 0.12826 0.72868 1.05984 0.0
C692 C 0.12328 0.7035 0.97114 0.0
C693 C 0.11127 0.65118 0.95887 0.0
C694 C 0.10617 0.62775 0.87435 0.0
C695 C 0.11435 0.65672 0.80078 0.0
C696 C 0.12879 0.70964 0.81385 0.0
C697 C 0.1332 0.73252 0.89798 0.0
C698 C 0.18924 0.75846 0.33142 0.0
C699 C 0.13955 0.60422 0.23913 0.0
O700 O 0.06119 0.57475 0.3808 0.0
O701 O 0.02638 0.62141 0.42366 0.0
O702 O 0.02193 0.62274 0.18959 0.0
O703 O 0.01987 0.62281 0.19089 0.0
O704 O 0.08569 0.70701 0.4227 0.0
O705 O 0.0606 0.73155 0.30596 0.0
O706 O 0.08483 0.72082 0.09329 0.0
O707 O 0.16034 0.72498 0.11689 0.0
O708 O 0.17044 0.70947 0.31498 0.0
O709 O 0.15517 0.7707 0.30075 0.0
O710 O 0.11628 0.61927 0.18091 0.0
O711 O 0.14242 0.62359 0.31719 0.0
H712 H 0.13732 0.6626 0.50303 0.0
H713 H 0.17044 0.69403 0.65672 0.0
H714 H 0.03051 0.56199 0.73933 0.0
H715 H -0.00355 0.53405 0.58641 0.0
H716 H 0.10562 0.62824 1.01423 0.0
H717 H 0.09539 0.58697 0.86645 0.0
H718 H 0.13479 0.73307 0.75872 0.0
H719 H 0.14419 0.77286 0.90499 0.0
loop_
_geom_bond_atom_site_label_1
_geom_bond_atom_site_label_2
_geom_bond_distance
_geom_bond_site_symmetry_2
_ccdc_geom_bond_type
Sm0 C2 2.846 . S
Sm0 O20 2.543 . S
Sm0 O21 2.450 . S
Sm0 O22 2.681 . S
Sm0 O23 2.464 . S
Sm0 O24 2.396 1_455 S
Sm0 O28 2.386 1_455 S
Sm0 O31 2.408 . S
Sm1 C11 2.846 . S
Sm1 O22 2.386 1_655 S
Sm1 O25 2.408 . S
Sm1 O26 2.543 1_655 S
Sm1 O27 2.450 . S
Sm1 O28 2.681 . S
Sm1 O29 2.464 . S
Sm1 O30 2.396 1_655 S
C2 Sm0 2.846 . S
C2 C3 1.506 . S
C2 O20 1.261 . S
C2 O21 1.242 . S
C3 C2 1.506 . S
C3 C4 1.358 1_455 S
C3 C8 1.382 . S
C4 C3 1.358 1_655 S
C4 C5 1.385 . S
C4 H32 0.930 . S
C5 C4 1.385 . S
C5 C6 1.400 1_655 S
C5 H33 0.929 . S
C6 C5 1.400 1_455 S
C6 C7 1.341 . S
C7 C6 1.341 . S
C7 C8 1.398 . S
C7 H34 0.930 . S
C8 C3 1.382 . S
C8 C7 1.398 . S
C8 H35 0.929 . S
C9 O22 1.271 . S
C9 O23 1.251 . S
C10 O24 1.252 . S
C10 O25 1.272 . S
C11 Sm1 2.846 . S
C11 C12 1.506 . S
C11 O26 1.261 1_655 S
C11 O27 1.242 . S
C12 C11 1.506 . S
C12 C13 1.358 1_655 S
C12 C17 1.382 . S
C13 C12 1.358 1_455 S
C13 C14 1.385 . S
C13 H36 0.930 . S
C14 C13 1.385 . S
C14 C15 1.395 1_455 S
C14 H37 0.929 . S
C15 C14 1.395 1_655 S
C15 C16 1.335 . S
C16 C15 1.335 . S
C16 C17 1.398 . S
C16 H38 0.930 . S
C17 C12 1.382 . S
C17 C16 1.398 . S
C17 H39 0.929 . S
C18 O28 1.271 . S
C18 O29 1.251 . S
C19 O30 1.252 . S
C19 O31 1.272 . S
O20 Sm0 2.543 . S
O20 C2 1.261 . S
O21 Sm0 2.450 . S
O21 C2 1.242 . S
O22 Sm0 2.681 . S
O22 Sm1 2.386 1_455 S
O22 C9 1.271 . S
O23 Sm0 2.464 . S
O23 C9 1.251 . S
O24 Sm0 2.396 1_655 S
O24 C10 1.252 . S
O25 Sm1 2.408 . S
O25 C10 1.272 . S
O26 Sm1 2.543 1_455 S
O26 C11 1.261 1_455 S
O27 Sm1 2.450 . S
O27 C11 1.242 . S
O28 Sm0 2.386 1_655 S
O28 Sm1 2.681 . S
O28 C18 1.271 . S
O29 Sm1 2.464 . S
O29 C18 1.251 . S
O30 Sm1 2.396 1_455 S
O30 C19 1.252 . S
O31 Sm0 2.408 . S
O31 C19 1.272 . S
H32 C4 0.930 . S
H33 C5 0.929 . S
H34 C7 0.930 . S
H35 C8 0.929 . S
H36 C13 0.930 . S
H37 C14 0.929 . S
H38 C16 0.930 . S
H39 C17 0.929 . S
Sm40 C42 2.846 . S
Sm40 O60 2.543 . S
Sm40 O61 2.450 . S
Sm40 O62 2.681 . S
Sm40 O63 2.464 . S
Sm40 O64 2.396 . S
Sm40 O68 2.386 . S
Sm40 O71 2.408 . S
Sm41 C51 2.846 . S
Sm41 O62 2.386 . S
Sm41 O65 2.408 . S
Sm41 O66 2.543 . S
Sm41 O67 2.450 . S
Sm41 O68 2.681 . S
Sm41 O69 2.464 . S
Sm41 O70 2.396 . S
C42 Sm40 2.846 . S
C42 C43 1.506 . S
C42 O60 1.261 . S
C42 O61 1.242 . S
C43 C42 1.506 . S
C43 C44 1.358 . S
C43 C48 1.382 . S
C44 C43 1.358 . S
C44 C45 1.385 . S
C44 H72 0.930 . S
C45 C44 1.385 . S
C45 C46 1.395 . S
C45 H73 0.929 . S
C46 C45 1.395 . S
C46 C47 1.335 . S
C47 C46 1.335 . S
C47 C48 1.398 . S
C47 H74 0.930 . S
C48 C43 1.382 . S
C48 C47 1.398 . S
C48 H75 0.929 . S
C49 O62 1.271 . S
C49 O63 1.251 . S
C50 O64 1.252 . S
C50 O65 1.272 . S
C51 Sm41 2.846 . S
C51 C52 1.506 . S
C51 O66 1.261 . S
C51 O67 1.242 . S
C52 C51 1.506 . S
C52 C53 1.358 . S
C52 C57 1.382 . S
C53 C52 1.358 . S
C53 C54 1.385 . S
C53 H76 0.930 . S
C54 C53 1.385 . S
C54 C55 1.395 . S
C54 H77 0.929 . S
C55 C54 1.395 . S
C55 C56 1.335 . S
C56 C55 1.335 . S
C56 C57 1.398 . S
C56 H78 0.930 . S
C57 C52 1.382 . S
C57 C56 1.398 . S
C57 H79 0.929 . S
C58 O68 1.271 . S
C58 O69 1.251 . S
C59 O70 1.252 . S
C59 O71 1.272 . S
O60 Sm40 2.543 . S
O60 C42 1.261 . S
O61 Sm40 2.450 . S
O61 C42 1.242 . S
O62 Sm40 2.681 . S
O62 Sm41 2.386 . S
O62 C49 1.271 . S
O63 Sm40 2.464 . S
O63 C49 1.251 . S
O64 Sm40 2.396 . S
O64 C50 1.252 . S
O65 Sm41 2.408 . S
O65 C50 1.272 . S
O66 Sm41 2.543 . S
O66 C51 1.261 . S
O67 Sm41 2.450 . S
O67 C51 1.242 . S
O68 Sm40 2.386 . S
O68 Sm41 2.681 . S
O68 C58 1.271 . S
O69 Sm41 2.464 . S
O69 C58 1.251 . S
O70 Sm41 2.396 . S
O70 C59 1.252 . S
O71 Sm40 2.408 . S
O71 C59 1.272 . S
H72 C44 0.930 . S
H73 C45 0.929 . S
H74 C47 0.930 . S
H75 C48 0.929 . S
H76 C53 0.930 . S
H77 C54 0.929 . S
H78 C56 0.930 . S
H79 C57 0.929 . S
Sm80 C82 2.846 . S
Sm80 O100 2.543 1_565 S
Sm80 O101 2.450 . S
Sm80 O102 2.681 . S
Sm80 O103 2.464 . S
Sm80 O104 2.396 1_565 S
Sm80 O108 2.386 1_565 S
Sm80 O111 2.408 . S
Sm81 C91 2.846 . S
Sm81 O102 2.386 1_545 S
Sm81 O105 2.408 . S
Sm81 O106 2.543 1_545 S
Sm81 O107 2.450 . S
Sm81 O108 2.681 . S
Sm81 O109 2.464 . S
Sm81 O110 2.396 1_545 S
C82 Sm80 2.846 . S
C82 C83 1.506 . S
C82 O100 1.261 1_565 S
C82 O101 1.242 . S
C83 C82 1.506 . S
C83 C84 1.358 1_565 S
C83 C88 1.382 . S
C84 C83 1.358 1_545 S
C84 C85 1.385 . S
C84 H112 0.930 . S
C85 C84 1.385 . S
C85 C86 1.395 . S
C85 H113 0.929 . S
C86 C85 1.395 . S
C86 C87 1.335 1_545 S
C87 C86 1.335 1_565 S
C87 C88 1.398 . S
C87 H114 0.930 . S
C88 C83 1.382 . S
C88 C87 1.398 . S
C88 H115 0.929 . S
C89 O102 1.271 . S
C89 O103 1.251 . S
C90 O104 1.252 . S
C90 O105 1.272 . S
C91 Sm81 2.846 . S
C91 C92 1.506 . S
C91 O106 1.261 1_545 S
C91 O107 1.242 . S
C92 C91 1.506 . S
C92 C93 1.358 1_545 S
C92 C97 1.382 . S
C93 C92 1.358 1_565 S
C93 C94 1.385 . S
C93 H116 0.930 . S
C94 C93 1.385 . S
C94 C95 1.395 1_565 S
C94 H117 0.929 . S
C95 C94 1.395 1_545 S
C95 C96 1.335 . S
C96 C95 1.335 . S
C96 C97 1.398 . S
C96 H118 0.930 . S
C97 C92 1.382 . S
C97 C96 1.398 . S
C97 H119 0.929 . S
C98 O108 1.271 . S
C98 O109 1.251 . S
C99 O110 1.252 . S
C99 O111 1.272 . S
O100 Sm80 2.543 1_545 S
O100 C82 1.261 1_545 S
O101 Sm80 2.450 . S
O101 C82 1.242 . S
O102 Sm80 2.681 . S
O102 Sm81 2.386 1_565 S
O102 C89 1.271 . S
O103 Sm80 2.464 . S
O103 C89 1.251 . S
O104 Sm80 2.396 1_545 S
O104 C90 1.252 . S
O105 Sm81 2.408 . S
O105 C90 1.272 . S
O106 Sm81 2.543 1_565 S
O106 C91 1.261 1_565 S
O107 Sm81 2.450 . S
O107 C91 1.242 . S
O108 Sm80 2.386 1_545 S
O108 Sm81 2.681 . S
O108 C98 1.271 . S
O109 Sm81 2.464 . S
O109 C98 1.251 . S
O110 Sm81 2.396 1_565 S
O110 C99 1.252 . S
O111 Sm80 2.408 . S
O111 C99 1.272 . S
H112 C84 0.930 . S
H113 C85 0.929 . S
H114 C87 0.930 . S
H115 C88 0.929 . S
H116 C93 0.930 . S
H117 C94 0.929 . S
H118 C96 0.930 . S
H119 C97 0.929 . S
Sm120 C122 2.846 . S
Sm120 O140 2.543 . S
Sm120 O141 2.450 . S
Sm120 O142 2.681 . S
Sm120 O143 2.464 . S
Sm120 O144 2.396 1_455 S
Sm120 O148 2.386 1_455 S
Sm120 O151 2.408 . S
Sm121 C131 2.846 . S
Sm121 O142 2.386 1_655 S
Sm121 O145 2.408 . S
Sm121 O146 2.543 1_655 S
Sm121 O147 2.450 . S
Sm121 O148 2.681 . S
Sm121 O149 2.464 . S
Sm121 O150 2.396 1_655 S
C122 Sm120 2.846 . S
C122 C123 1.506 . S
C122 O140 1.261 . S
C122 O141 1.242 . S
C123 C122 1.506 . S
C123 C124 1.358 1_455 S
C123 C128 1.382 . S
C124 C123 1.358 1_655 S
C124 C125 1.385 . S
C124 H152 0.930 . S
C125 C124 1.385 . S
C125 C126 1.395 1_656 S
C125 H153 0.929 . S
C126 C125 1.395 1_454 S
C126 C127 1.335 1_554 S
C127 C126 1.335 1_556 S
C127 C128 1.398 . S
C127 H154 0.930 . S
C128 C123 1.382 . S
C128 C127 1.398 . S
C128 H155 0.929 . S
C129 O142 1.271 . S
C129 O143 1.251 . S
C130 O144 1.252 . S
C130 O145 1.272 . S
C131 Sm121 2.846 . S
C131 C132 1.506 . S
C131 O146 1.261 1_655 S
C131 O147 1.242 . S
C132 C131 1.506 . S
C132 C133 1.358 1_655 S
C132 C137 1.382 . S
C133 C132 1.358 1_455 S
C133 C134 1.385 . S
C133 H156 0.930 . S
C134 C133 1.385 . S
C134 C135 1.395 1_455 S
C134 H157 0.929 . S
C135 C134 1.395 1_655 S
C135 C136 1.335 . S
C136 C135 1.335 . S
C136 C137 1.398 . S
C136 H158 0.930 . S
C137 C132 1.382 . S
C137 C136 1.398 . S
C137 H159 0.929 . S
C138 O148 1.271 . S
C138 O149 1.251 . S
C139 O150 1.252 . S
C139 O151 1.272 . S
O140 Sm120 2.543 . S
O140 C122 1.261 . S
O141 Sm120 2.450 . S
O141 C122 1.242 . S
O142 Sm120 2.681 . S
O142 Sm121 2.386 1_455 S
O142 C129 1.271 . S
O143 Sm120 2.464 . S
O143 C129 1.251 . S
O144 Sm120 2.396 1_655 S
O144 C130 1.252 . S
O145 Sm121 2.408 . S
O145 C130 1.272 . S
O146 Sm121 2.543 1_455 S
O146 C131 1.261 1_455 S
O147 Sm121 2.450 . S
O147 C131 1.242 . S
O148 Sm120 2.386 1_655 S
O148 Sm121 2.681 . S
O148 C138 1.271 . S
O149 Sm121 2.464 . S
O149 C138 1.251 . S
O150 Sm121 2.396 1_455 S
O150 C139 1.252 . S
O151 Sm120 2.408 . S
O151 C139 1.272 . S
H152 C124 0.930 . S
H153 C125 0.929 . S
H154 C127 0.930 . S
H155 C128 0.929 . S
H156 C133 0.930 . S
H157 C134 0.929 . S
H158 C136 0.930 . S
H159 C137 0.929 . S
Sm160 C162 2.846 . S
Sm160 O180 2.543 . S
Sm160 O181 2.450 . S
Sm160 O182 2.681 . S
Sm160 O183 2.464 . S
Sm160 O184 2.396 . S
Sm160 O188 2.386 . S
Sm160 O191 2.408 . S
Sm161 C171 2.846 . S
Sm161 O182 2.386 . S
Sm161 O185 2.408 . S
Sm161 O186 2.543 . S
Sm161 O187 2.450 . S
Sm161 O188 2.681 . S
Sm161 O189 2.464 . S
Sm161 O190 2.396 . S
C162 Sm160 2.846 . S
C162 C163 1.506 . S
C162 O180 1.261 . S
C162 O181 1.242 . S
C163 C162 1.506 . S
C163 C164 1.358 . S
C163 C168 1.382 . S
C164 C163 1.358 . S
C164 C165 1.385 . S
C164 H192 0.930 . S
C165 C164 1.385 . S
C165 C166 1.395 . S
C165 H193 0.929 . S
C166 C165 1.395 . S
C166 C167 1.335 . S
C167 C166 1.335 . S
C167 C168 1.398 . S
C167 H194 0.930 . S
C168 C163 1.382 . S
C168 C167 1.398 . S
C168 H195 0.929 . S
C169 O182 1.271 . S
C169 O183 1.251 . S
C170 O184 1.252 . S
C170 O185 1.272 . S
C171 Sm161 2.846 . S
C171 C172 1.506 . S
C171 O186 1.261 . S
C171 O187 1.242 . S
C172 C171 1.506 . S
C172 C173 1.358 . S
C172 C177 1.382 . S
C173 C172 1.358 . S
C173 C174 1.385 . S
C173 H196 0.930 . S
C174 C173 1.385 . S
C174 C175 1.395 1_556 S
C174 H197 0.929 1_556 S
C175 C174 1.395 1_554 S
C175 C176 1.335 1_554 S
C176 C175 1.335 1_556 S
C176 C177 1.398 . S
C176 H198 0.930 . S
C177 C172 1.382 . S
C177 C176 1.398 . S
C177 H199 0.929 . S
C178 O188 1.271 . S
C178 O189 1.251 . S
C179 O190 1.252 . S
C179 O191 1.272 . S
O180 Sm160 2.543 . S
O180 C162 1.261 . S
O181 Sm160 2.450 . S
O181 C162 1.242 . S
O182 Sm160 2.681 . S
O182 Sm161 2.386 . S
O182 C169 1.271 . S
O183 Sm160 2.464 . S
O183 C169 1.251 . S
O184 Sm160 2.396 . S
O184 C170 1.252 . S
O185 Sm161 2.408 . S
O185 C170 1.272 . S
O186 Sm161 2.543 . S
O186 C171 1.261 . S
O187 Sm161 2.450 . S
O187 C171 1.242 . S
O188 Sm160 2.386 . S
O188 Sm161 2.681 . S
O188 C178 1.271 . S
O189 Sm161 2.464 . S
O189 C178 1.251 . S
O190 Sm161 2.396 . S
O190 C179 1.252 . S
O191 Sm160 2.408 . S
O191 C179 1.272 . S
H192 C164 0.930 . S
H193 C165 0.929 . S
H194 C167 0.930 . S
H195 C168 0.929 . S
H196 C173 0.930 . S
H197 C174 0.929 1_554 S
H198 C176 0.930 . S
H199 C177 0.929 . S
Sm200 C202 2.846 . S
Sm200 O220 2.543 1_565 S
Sm200 O221 2.450 . S
Sm200 O222 2.681 . S
Sm200 O223 2.464 . S
Sm200 O224 2.396 1_565 S
Sm200 O228 2.386 1_565 S
Sm200 O231 2.408 . S
Sm201 C211 2.846 . S
Sm201 O222 2.386 1_545 S
Sm201 O225 2.408 . S
Sm201 O226 2.551 . S
Sm201 O227 2.450 . S
Sm201 O228 2.681 . S
Sm201 O229 2.464 . S
Sm201 O230 2.396 1_545 S
C202 Sm200 2.846 . S
C202 C203 1.506 . S
C202 O220 1.261 1_565 S
C202 O221 1.242 . S
C203 C202 1.506 . S
C203 C204 1.358 1_565 S
C203 C208 1.382 . S
C204 C203 1.358 1_545 S
C204 C205 1.385 . S
C204 H232 0.930 . S
C205 C204 1.385 . S
C205 C206 1.395 . S
C205 H233 0.929 . S
C206 C205 1.395 . S
C206 C207 1.335 1_545 S
C207 C206 1.335 1_565 S
C207 C208 1.398 . S
C207 H234 0.930 . S
C208 C203 1.382 . S
C208 C207 1.398 . S
C208 H235 0.929 . S
C209 O222 1.271 . S
C209 O223 1.251 . S
C210 O224 1.252 . S
C210 O225 1.272 . S
C211 Sm201 2.846 . S
C211 C212 1.506 . S
C211 O226 1.269 . S
C211 O227 1.242 . S
C212 C211 1.506 . S
C212 C213 1.358 1_545 S
C212 C217 1.382 . S
C213 C212 1.358 1_565 S
C213 C214 1.385 . S
C213 H236 0.930 . S
C214 C213 1.385 . S
C214 C215 1.395 1_565 S
C214 H237 0.929 . S
C215 C214 1.395 1_545 S
C215 C216 1.335 . S
C216 C215 1.335 . S
C216 C217 1.398 . S
C216 H238 0.930 . S
C217 C212 1.382 . S
C217 C216 1.398 . S
C217 H239 0.929 . S
C218 O228 1.271 . S
C218 O229 1.251 . S
C219 O230 1.252 . S
C219 O231 1.272 . S
O220 Sm200 2.543 1_545 S
O220 C202 1.261 1_545 S
O221 Sm200 2.450 . S
O221 C202 1.242 . S
O222 Sm200 2.681 . S
O222 Sm201 2.386 1_565 S
O222 C209 1.271 . S
O223 Sm200 2.464 . S
O223 C209 1.251 . S
O224 Sm200 2.396 1_545 S
O224 C210 1.252 . S
O225 Sm201 2.408 . S
O225 C210 1.272 . S
O226 Sm201 2.551 . S
O226 C211 1.269 . S
O227 Sm201 2.450 . S
O227 C211 1.242 . S
O228 Sm200 2.386 1_545 S
O228 Sm201 2.681 . S
O228 C218 1.271 . S
O229 Sm201 2.464 . S
O229 C218 1.251 . S
O230 Sm201 2.396 1_565 S
O230 C219 1.252 . S
O231 Sm200 2.408 . S
O231 C219 1.272 . S
H232 C204 0.930 . S
H233 C205 0.929 . S
H234 C207 0.930 . S
H235 C208 0.929 . S
H236 C213 0.930 . S
H237 C214 0.929 . S
H238 C216 0.930 . S
H239 C217 0.929 . S
Sm240 C242 2.846 . S
Sm240 O260 2.543 . S
Sm240 O261 2.450 . S
Sm240 O262 2.681 . S
Sm240 O263 2.464 . S
Sm240 O264 2.396 . S
Sm240 O268 2.386 . S
Sm240 O271 2.408 . S
Sm241 C251 2.846 1_556 S
Sm241 O262 2.386 . S
Sm241 O265 2.408 . S
Sm241 O266 2.543 1_556 S
Sm241 O267 2.450 1_556 S
Sm241 O268 2.681 . S
Sm241 O269 2.464 . S
Sm241 O270 2.396 . S
C242 Sm240 2.846 . S
C242 C243 1.506 . S
C242 O260 1.261 . S
C242 O261 1.242 . S
C243 C242 1.506 . S
C243 C244 1.358 . S
C243 C248 1.382 . S
C244 C243 1.358 . S
C244 C245 1.385 . S
C244 H272 0.930 . S
C245 C244 1.385 . S
C245 C246 1.395 . S
C245 H273 0.929 . S
C246 C245 1.395 . S
C246 C247 1.335 . S
C247 C246 1.335 . S
C247 C248 1.398 . S
C247 H274 0.930 . S
C248 C243 1.382 . S
C248 C247 1.398 . S
C248 H275 0.929 . S
C249 O262 1.271 . S
C249 O263 1.251 . S
C250 O264 1.252 . S
C250 O265 1.272 . S
C251 Sm241 2.846 1_554 S
C251 C252 1.506 . S
C251 O266 1.261 . S
C251 O267 1.242 . S
C252 C251 1.506 . S
C252 C253 1.358 . S
C252 C257 1.382 . S
C253 C252 1.358 . S
C253 C254 1.385 . S
C253 H276 0.930 . S
C254 C253 1.385 . S
C254 C255 1.395 . S
C254 H277 0.929 . S
C255 C254 1.395 . S
C255 C256 1.335 . S
C256 C255 1.335 . S
C256 C257 1.398 . S
C256 H278 0.930 . S
C257 C252 1.382 . S
C257 C256 1.398 . S
C257 H279 0.929 . S
C258 O268 1.271 . S
C258 O269 1.251 . S
C259 O270 1.252 . S
C259 O271 1.272 . S
O260 Sm240 2.543 . S
O260 C242 1.261 . S
O261 Sm240 2.450 . S
O261 C242 1.242 . S
O262 Sm240 2.681 . S
O262 Sm241 2.386 . S
O262 C249 1.271 . S
O263 Sm240 2.464 . S
O263 C249 1.251 . S
O264 Sm240 2.396 . S
O264 C250 1.252 . S
O265 Sm241 2.408 . S
O265 C250 1.272 . S
O266 Sm241 2.543 1_554 S
O266 C251 1.261 . S
O267 Sm241 2.450 1_554 S
O267 C251 1.242 . S
O268 Sm240 2.386 . S
O268 Sm241 2.681 . S
O268 C258 1.271 . S
O269 Sm241 2.464 . S
O269 C258 1.251 . S
O270 Sm241 2.396 . S
O270 C259 1.252 . S
O271 Sm240 2.408 . S
O271 C259 1.272 . S
H272 C244 0.930 . S
H273 C245 0.929 . S
H274 C247 0.930 . S
H275 C248 0.929 . S
H276 C253 0.930 . S
H277 C254 0.929 . S
H278 C256 0.930 . S
H279 C257 0.929 . S
Sm280 C282 2.846 . S
Sm280 O300 2.543 . S
Sm280 O301 2.450 . S
Sm280 O302 2.681 . S
Sm280 O303 2.464 . S
Sm280 O304 2.396 . S
Sm280 O308 2.386 . S
Sm280 O311 2.408 . S
Sm281 C291 2.846 1_556 S
Sm281 O302 2.386 . S
Sm281 O305 2.408 . S
Sm281 O306 2.552 . S
Sm281 O307 2.450 . S
Sm281 O308 2.681 . S
Sm281 O309 2.464 . S
Sm281 O310 2.396 . S
C282 Sm280 2.846 . S
C282 C283 1.506 . S
C282 O300 1.261 . S
C282 O301 1.242 . S
C283 C282 1.506 . S
C283 C284 1.358 . S
C283 C288 1.382 . S
C284 C283 1.358 . S
C284 C285 1.385 . S
C284 H312 0.930 . S
C285 C284 1.385 . S
C285 C286 1.395 . S
C285 H313 0.929 . S
C286 C285 1.395 . S
C286 C287 1.335 . S
C287 C286 1.335 . S
C287 C288 1.398 . S
C287 H314 0.930 . S
C288 C283 1.382 . S
C288 C287 1.398 . S
C288 H315 0.929 . S
C289 O302 1.271 . S
C289 O303 1.251 . S
C290 O304 1.252 . S
C290 O305 1.272 . S
C291 Sm281 2.846 1_554 S
C291 C292 1.506 . S
C291 O306 1.256 1_554 S
C291 O307 1.242 1_554 S
C292 C291 1.506 . S
C292 C293 1.358 . S
C292 C297 1.382 . S
C293 C292 1.358 . S
C293 C294 1.385 . S
C293 H316 0.930 . S
C294 C293 1.385 . S
C294 C295 1.395 . S
C294 H317 0.929 . S
C295 C294 1.395 . S
C295 C296 1.335 . S
C296 C295 1.335 . S
C296 C297 1.398 . S
C296 H318 0.930 . S
C297 C292 1.382 . S
C297 C296 1.398 . S
C297 H319 0.929 . S
C298 O308 1.271 . S
C298 O309 1.251 . S
C299 O310 1.252 . S
C299 O311 1.272 . S
O300 Sm280 2.543 . S
O300 C282 1.261 . S
O301 Sm280 2.450 . S
O301 C282 1.242 . S
O302 Sm280 2.681 . S
O302 Sm281 2.386 . S
O302 C289 1.271 . S
O303 Sm280 2.464 . S
O303 C289 1.251 . S
O304 Sm280 2.396 . S
O304 C290 1.252 . S
O305 Sm281 2.408 . S
O305 C290 1.272 . S
O306 Sm281 2.552 . S
O306 C291 1.256 1_556 S
O307 Sm281 2.450 . S
O307 C291 1.242 1_556 S
O308 Sm280 2.386 . S
O308 Sm281 2.681 . S
O308 C298 1.271 . S
O309 Sm281 2.464 . S
O309 C298 1.251 . S
O310 Sm281 2.396 . S
O310 C299 1.252 . S
O311 Sm280 2.408 . S
O311 C299 1.272 . S
H312 C284 0.930 . S
H313 C285 0.929 . S
H314 C287 0.930 . S
H315 C288 0.929 . S
H316 C293 0.930 . S
H317 C294 0.929 . S
H318 C296 0.930 . S
H319 C297 0.929 . S
Sm320 C322 2.846 . S
Sm320 O340 2.543 . S
Sm320 O341 2.450 . S
Sm320 O342 2.681 . S
Sm320 O343 2.464 . S
Sm320 O344 2.396 . S
Sm320 O348 2.386 . S
Sm320 O351 2.408 1_655 S
Sm321 C331 2.846 1_556 S
Sm321 O342 2.386 . S
Sm321 O345 2.408 . S
Sm321 O346 2.543 1_556 S
Sm321 O347 2.450 1_556 S
Sm321 O348 2.681 . S
Sm321 O349 2.464 . S
Sm321 O350 2.396 . S
C322 Sm320 2.846 . S
C322 C323 1.506 . S
C322 O340 1.261 . S
C322 O341 1.242 . S
C323 C322 1.506 . S
C323 C324 1.358 . S
C323 C328 1.382 . S
C324 C323 1.358 . S
C324 C325 1.385 . S
C324 H352 0.930 . S
C325 C324 1.385 . S
C325 C326 1.395 . S
C325 H353 0.929 . S
C326 C325 1.395 . S
C326 C327 1.335 . S
C327 C326 1.335 . S
C327 C328 1.398 . S
C327 H354 0.930 . S
C328 C323 1.382 . S
C328 C327 1.398 . S
C328 H355 0.929 . S
C329 O342 1.271 . S
C329 O343 1.251 . S
C330 O344 1.252 . S
C330 O345 1.272 . S
C331 Sm321 2.846 1_554 S
C331 C332 1.506 . S
C331 O346 1.261 . S
C331 O347 1.242 . S
C332 C331 1.506 . S
C332 C333 1.358 . S
C332 C337 1.382 . S
C333 C332 1.358 . S
C333 C334 1.385 . S
C333 H356 0.930 . S
C334 C333 1.385 . S
C334 C335 1.395 . S
C334 H357 0.929 . S
C335 C334 1.395 . S
C335 C336 1.335 . S
C336 C335 1.335 . S
C336 C337 1.398 . S
C336 H358 0.930 . S
C337 C332 1.382 . S
C337 C336 1.398 . S
C337 H359 0.929 . S
C338 O348 1.271 . S
C338 O349 1.251 . S
C339 O350 1.252 1_455 S
C339 O351 1.272 . S
O340 Sm320 2.543 . S
O340 C322 1.261 . S
O341 Sm320 2.450 . S
O341 C322 1.242 . S
O342 Sm320 2.681 . S
O342 Sm321 2.386 . S
O342 C329 1.271 . S
O343 Sm320 2.464 . S
O343 C329 1.251 . S
O344 Sm320 2.396 . S
O344 C330 1.252 . S
O345 Sm321 2.408 . S
O345 C330 1.272 . S
O346 Sm321 2.543 1_554 S
O346 C331 1.261 . S
O347 Sm321 2.450 1_554 S
O347 C331 1.242 . S
O348 Sm320 2.386 . S
O348 Sm321 2.681 . S
O348 C338 1.271 . S
O349 Sm321 2.464 . S
O349 C338 1.251 . S
O350 Sm321 2.396 . S
O350 C339 1.252 1_655 S
O351 Sm320 2.408 1_455 S
O351 C339 1.272 . S
H352 C324 0.930 . S
H353 C325 0.929 . S
H354 C327 0.930 . S
H355 C328 0.929 . S
H356 C333 0.930 . S
H357 C334 0.929 . S
H358 C336 0.930 . S
H359 C337 0.929 . S
Sm360 C362 2.846 1_556 S
Sm360 O380 2.543 1_556 S
Sm360 O381 2.450 1_556 S
Sm360 O382 2.681 . S
Sm360 O383 2.464 . S
Sm360 O384 2.396 . S
Sm360 O388 2.386 . S
Sm360 O391 2.408 . S
Sm361 C371 2.846 . S
Sm361 O382 2.386 . S
Sm361 O385 2.408 . S
Sm361 O386 2.543 . S
Sm361 O387 2.450 . S
Sm361 O388 2.681 . S
Sm361 O389 2.464 . S
Sm361 O390 2.396 . S
C362 Sm360 2.846 1_554 S
C362 C363 1.506 . S
C362 O380 1.261 . S
C362 O381 1.242 . S
C363 C362 1.506 . S
C363 C364 1.358 . S
C363 C368 1.382 . S
C364 C363 1.358 . S
C364 C365 1.385 . S
C364 H392 0.930 . S
C365 C364 1.385 . S
C365 C366 1.395 . S
C365 H393 0.929 . S
C366 C365 1.395 . S
C366 C367 1.335 . S
C367 C366 1.335 . S
C367 C368 1.398 . S
C367 H394 0.930 . S
C368 C363 1.382 . S
C368 C367 1.398 . S
C368 H395 0.929 . S
C369 O382 1.271 . S
C369 O383 1.251 . S
C370 O384 1.252 . S
C370 O385 1.272 . S
C371 Sm361 2.846 . S
C371 C372 1.506 . S
C371 O386 1.261 . S
C371 O387 1.242 . S
C372 C371 1.506 . S
C372 C373 1.358 . S
C372 C377 1.382 . S
C373 C372 1.358 . S
C373 C374 1.385 . S
C373 H396 0.930 . S
C374 C373 1.385 . S
C374 C375 1.395 . S
C374 H397 0.929 . S
C375 C374 1.395 . S
C375 C376 1.335 . S
C376 C375 1.335 . S
C376 C377 1.398 . S
C376 H398 0.930 . S
C377 C372 1.382 . S
C377 C376 1.398 . S
C377 H399 0.929 . S
C378 O388 1.271 . S
C378 O389 1.251 . S
C379 O390 1.252 . S
C379 O391 1.272 . S
O380 Sm360 2.543 1_554 S
O380 C362 1.261 . S
O381 Sm360 2.450 1_554 S
O381 C362 1.242 . S
O382 Sm360 2.681 . S
O382 Sm361 2.386 . S
O382 C369 1.271 . S
O383 Sm360 2.464 . S
O383 C369 1.251 . S
O384 Sm360 2.396 . S
O384 C370 1.252 . S
O385 Sm361 2.408 . S
O385 C370 1.272 . S
O386 Sm361 2.543 . S
O386 C371 1.261 . S
O387 Sm361 2.450 . S
O387 C371 1.242 . S
O388 Sm360 2.386 . S
O388 Sm361 2.681 . S
O388 C378 1.271 . S
O389 Sm361 2.464 . S
O389 C378 1.251 . S
O390 Sm361 2.396 . S
O390 C379 1.252 . S
O391 Sm360 2.408 . S
O391 C379 1.272 . S
H392 C364 0.930 . S
H393 C365 0.929 . S
H394 C367 0.930 . S
H395 C368 0.929 . S
H396 C373 0.930 . S
H397 C374 0.929 . S
H398 C376 0.930 . S
H399 C377 0.929 . S
Sm400 C402 2.846 1_556 S
Sm400 O420 2.543 1_556 S
Sm400 O421 2.450 1_556 S
Sm400 O422 2.681 . S
Sm400 O423 2.464 . S
Sm400 O424 2.396 . S
Sm400 O428 2.386 . S
Sm400 O431 2.408 . S
Sm401 C411 2.846 . S
Sm401 O422 2.386 . S
Sm401 O425 2.408 1_655 S
Sm401 O426 2.543 . S
Sm401 O427 2.450 . S
Sm401 O428 2.681 . S
Sm401 O429 2.464 . S
Sm401 O430 2.396 . S
C402 Sm400 2.846 1_554 S
C402 C403 1.506 . S
C402 O420 1.261 . S
C402 O421 1.242 . S
C403 C402 1.506 . S
C403 C404 1.358 . S
C403 C408 1.382 . S
C404 C403 1.358 . S
C404 C405 1.385 . S
C404 H432 0.930 . S
C405 C404 1.385 . S
C405 C406 1.395 . S
C405 H433 0.929 . S
C406 C405 1.395 . S
C406 C407 1.335 . S
C407 C406 1.335 . S
C407 C408 1.398 . S
C407 H434 0.930 . S
C408 C403 1.382 . S
C408 C407 1.398 . S
C408 H435 0.929 . S
C409 O422 1.271 . S
C409 O423 1.251 . S
C410 O424 1.252 1_455 S
C410 O425 1.272 . S
C411 Sm401 2.846 . S
C411 C412 1.506 . S
C411 O426 1.261 . S
C411 O427 1.242 . S
C412 C411 1.506 . S
C412 C413 1.358 . S
C412 C417 1.382 . S
C413 C412 1.358 . S
C413 C414 1.385 . S
C413 H436 0.930 . S
C414 C413 1.385 . S
C414 C415 1.395 . S
C414 H437 0.929 . S
C415 C414 1.395 . S
C415 C416 1.335 . S
C416 C415 1.335 . S
C416 C417 1.398 . S
C416 H438 0.930 . S
C417 C412 1.382 . S
C417 C416 1.398 . S
C417 H439 0.929 . S
C418 O428 1.271 . S
C418 O429 1.251 . S
C419 O430 1.252 . S
C419 O431 1.272 . S
O420 Sm400 2.543 1_554 S
O420 C402 1.261 . S
O421 Sm400 2.450 1_554 S
O421 C402 1.242 . S
O422 Sm400 2.681 . S
O422 Sm401 2.386 . S
O422 C409 1.271 . S
O423 Sm400 2.464 . S
O423 C409 1.251 . S
O424 Sm400 2.396 . S
O424 C410 1.252 1_655 S
O425 Sm401 2.408 1_455 S
O425 C410 1.272 . S
O426 Sm401 2.543 . S
O426 C411 1.261 . S
O427 Sm401 2.450 . S
O427 C411 1.242 . S
O428 Sm400 2.386 . S
O428 Sm401 2.681 . S
O428 C418 1.271 . S
O429 Sm401 2.464 . S
O429 C418 1.251 . S
O430 Sm401 2.396 . S
O430 C419 1.252 . S
O431 Sm400 2.408 . S
O431 C419 1.272 . S
H432 C404 0.930 . S
H433 C405 0.929 . S
H434 C407 0.930 . S
H435 C408 0.929 . S
H436 C413 0.930 . S
H437 C414 0.929 . S
H438 C416 0.930 . S
H439 C417 0.929 . S
Sm440 C442 2.846 1_556 S
Sm440 O460 2.543 1_556 S
Sm440 O461 2.450 1_556 S
Sm440 O462 2.681 . S
Sm440 O463 2.464 . S
Sm440 O464 2.396 . S
Sm440 O468 2.386 . S
Sm440 O471 2.408 . S
Sm441 C451 2.846 . S
Sm441 O462 2.386 . S
Sm441 O465 2.408 . S
Sm441 O466 2.543 . S
Sm441 O467 2.450 . S
Sm441 O468 2.681 . S
Sm441 O469 2.464 . S
Sm441 O470 2.396 . S
C442 Sm440 2.846 1_554 S
C442 C443 1.506 . S
C442 O460 1.261 . S
C442 O461 1.242 . S
C443 C442 1.506 . S
C443 C444 1.358 . S
C443 C448 1.382 . S
C444 C443 1.358 . S
C444 C445 1.385 . S
C444 H472 0.930 . S
C445 C444 1.385 . S
C445 C446 1.395 . S
C445 H473 0.929 . S
C446 C445 1.395 . S
C446 C447 1.335 . S
C447 C446 1.335 . S
C447 C448 1.398 . S
C447 H474 0.930 . S
C448 C443 1.382 . S
C448 C447 1.398 . S
C448 H475 0.929 . S
C449 O462 1.271 . S
C449 O463 1.251 . S
C450 O464 1.252 . S
C450 O465 1.272 . S
C451 Sm441 2.846 . S
C451 C452 1.506 . S
C451 O466 1.261 . S
C451 O467 1.242 . S
C452 C451 1.506 . S
C452 C453 1.358 . S
C452 C457 1.382 . S
C453 C452 1.358 . S
C453 C454 1.385 . S
C453 H476 0.930 . S
C454 C453 1.385 . S
C454 C455 1.395 . S
C454 H477 0.929 . S
C455 C454 1.395 . S
C455 C456 1.335 . S
C456 C455 1.335 . S
C456 C457 1.398 . S
C456 H478 0.930 . S
C457 C452 1.382 . S
C457 C456 1.398 . S
C457 H479 0.929 . S
C458 O468 1.271 . S
C458 O469 1.251 . S
C459 O470 1.252 . S
C459 O471 1.272 . S
O460 Sm440 2.543 1_554 S
O460 C442 1.261 . S
O461 Sm440 2.450 1_554 S
O461 C442 1.242 . S
O462 Sm440 2.681 . S
O462 Sm441 2.386 . S
O462 C449 1.271 . S
O463 Sm440 2.464 . S
O463 C449 1.251 . S
O464 Sm440 2.396 . S
O464 C450 1.252 . S
O465 Sm441 2.408 . S
O465 C450 1.272 . S
O466 Sm441 2.543 . S
O466 C451 1.261 . S
O467 Sm441 2.450 . S
O467 C451 1.242 . S
O468 Sm440 2.386 . S
O468 Sm441 2.681 . S
O468 C458 1.271 . S
O469 Sm441 2.464 . S
O469 C458 1.251 . S
O470 Sm441 2.396 . S
O470 C459 1.252 . S
O471 Sm440 2.408 . S
O471 C459 1.272 . S
H472 C444 0.930 . S
H473 C445 0.929 . S
H474 C447 0.930 . S
H475 C448 0.929 . S
H476 C453 0.930 . S
H477 C454 0.929 . S
H478 C456 0.930 . S
H479 C457 0.929 . S
Sm480 C482 2.846 . S
Sm480 O500 2.543 . S
Sm480 O501 2.450 . S
Sm480 O502 2.681 . S
Sm480 O503 2.464 . S
Sm480 O504 2.396 . S
Sm480 O508 2.386 . S
Sm480 O511 2.408 1_565 S
Sm481 C491 2.846 1_554 S
Sm481 O502 2.386 . S
Sm481 O505 2.408 . S
Sm481 O506 2.543 1_554 S
Sm481 O507 2.450 1_554 S
Sm481 O508 2.681 . S
Sm481 O509 2.464 . S
Sm481 O510 2.396 . S
C482 Sm480 2.846 . S
C482 C483 1.506 . S
C482 O500 1.261 . S
C482 O501 1.242 . S
C483 C482 1.506 . S
C483 C484 1.358 . S
C483 C488 1.382 . S
C484 C483 1.358 . S
C484 C485 1.385 . S
C484 H512 0.930 . S
C485 C484 1.385 . S
C485 C486 1.395 . S
C485 H513 0.929 . S
C486 C485 1.395 . S
C486 C487 1.335 . S
C487 C486 1.335 . S
C487 C488 1.398 . S
C487 H514 0.930 . S
C488 C483 1.382 . S
C488 C487 1.398 . S
C488 H515 0.929 . S
C489 O502 1.271 . S
C489 O503 1.251 . S
C490 O504 1.252 . S
C490 O505 1.272 . S
C491 Sm481 2.846 1_556 S
C491 C492 1.506 . S
C491 O506 1.261 . S
C491 O507 1.242 . S
C492 C491 1.506 . S
C492 C493 1.358 . S
C492 C497 1.382 . S
C493 C492 1.358 . S
C493 C494 1.385 . S
C493 H516 0.930 . S
C494 C493 1.385 . S
C494 C495 1.395 . S
C494 H517 0.929 . S
C495 C494 1.395 . S
C495 C496 1.335 . S
C496 C495 1.335 . S
C496 C497 1.398 . S
C496 H518 0.930 . S
C497 C492 1.382 . S
C497 C496 1.398 . S
C497 H519 0.929 . S
C498 O508 1.271 . S
C498 O509 1.251 . S
C499 O510 1.252 1_545 S
C499 O511 1.272 . S
O500 Sm480 2.543 . S
O500 C482 1.261 . S
O501 Sm480 2.450 . S
O501 C482 1.242 . S
O502 Sm480 2.681 . S
O502 Sm481 2.386 . S
O502 C489 1.271 . S
O503 Sm480 2.464 . S
O503 C489 1.251 . S
O504 Sm480 2.396 . S
O504 C490 1.252 . S
O505 Sm481 2.408 . S
O505 C490 1.272 . S
O506 Sm481 2.543 1_556 S
O506 C491 1.261 . S
O507 Sm481 2.450 1_556 S
O507 C491 1.242 . S
O508 Sm480 2.386 . S
O508 Sm481 2.681 . S
O508 C498 1.271 . S
O509 Sm481 2.464 . S
O509 C498 1.251 . S
O510 Sm481 2.396 . S
O510 C499 1.252 1_565 S
O511 Sm480 2.408 1_545 S
O511 C499 1.272 . S
H512 C484 0.930 . S
H513 C485 0.929 . S
H514 C487 0.930 . S
H515 C488 0.929 . S
H516 C493 0.930 . S
H517 C494 0.929 . S
H518 C496 0.930 . S
H519 C497 0.929 . S
Sm520 C522 2.846 1_554 S
Sm520 O540 2.543 1_554 S
Sm520 O541 2.450 1_554 S
Sm520 O542 2.681 . S
Sm520 O543 2.464 . S
Sm520 O544 2.396 . S
Sm520 O548 2.386 . S
Sm520 O551 2.408 . S
Sm521 C531 2.846 . S
Sm521 O542 2.386 . S
Sm521 O545 2.408 . S
Sm521 O546 2.543 . S
Sm521 O547 2.450 . S
Sm521 O548 2.681 . S
Sm521 O549 2.464 . S
Sm521 O550 2.396 . S
C522 Sm520 2.846 1_556 S
C522 C523 1.506 . S
C522 O540 1.261 . S
C522 O541 1.242 . S
C523 C522 1.506 . S
C523 C524 1.358 . S
C523 C528 1.382 . S
C524 C523 1.358 . S
C524 C525 1.385 . S
C524 H552 0.930 . S
C525 C524 1.385 . S
C525 C526 1.395 . S
C525 H553 0.929 . S
C526 C525 1.395 . S
C526 C527 1.335 . S
C527 C526 1.335 . S
C527 C528 1.398 . S
C527 H554 0.930 . S
C528 C523 1.382 . S
C528 C527 1.398 . S
C528 H555 0.929 . S
C529 O542 1.271 . S
C529 O543 1.251 . S
C530 O544 1.252 . S
C530 O545 1.272 . S
C531 Sm521 2.846 . S
C531 C532 1.506 . S
C531 O546 1.261 . S
C531 O547 1.242 . S
C532 C531 1.506 . S
C532 C533 1.358 . S
C532 C537 1.382 . S
C533 C532 1.358 . S
C533 C534 1.385 . S
C533 H556 0.930 . S
C534 C533 1.385 . S
C534 C535 1.395 . S
C534 H557 0.929 . S
C535 C534 1.395 . S
C535 C536 1.335 . S
C536 C535 1.335 . S
C536 C537 1.398 . S
C536 H558 0.930 1_455 S
C537 C532 1.382 . S
C537 C536 1.398 . S
C537 H559 0.929 . S
C538 O548 1.271 . S
C538 O549 1.251 . S
C539 O550 1.252 . S
C539 O551 1.272 . S
O540 Sm520 2.543 1_556 S
O540 C522 1.261 . S
O541 Sm520 2.450 1_556 S
O541 C522 1.242 . S
O542 Sm520 2.681 . S
O542 Sm521 2.386 . S
O542 C529 1.271 . S
O543 Sm520 2.464 . S
O543 C529 1.251 . S
O544 Sm520 2.396 . S
O544 C530 1.252 . S
O545 Sm521 2.408 . S
O545 C530 1.272 . S
O546 Sm521 2.543 . S
O546 C531 1.261 . S
O547 Sm521 2.450 . S
O547 C531 1.242 . S
O548 Sm520 2.386 . S
O548 Sm521 2.681 . S
O548 C538 1.271 . S
O549 Sm521 2.464 . S
O549 C538 1.251 . S
O550 Sm521 2.396 . S
O550 C539 1.252 . S
O551 Sm520 2.408 . S
O551 C539 1.272 . S
H552 C524 0.930 . S
H553 C525 0.929 . S
H554 C527 0.930 . S
H555 C528 0.929 . S
H556 C533 0.930 . S
H557 C534 0.929 . S
H558 C536 0.930 1_655 S
H559 C537 0.929 . S
Sm560 C562 2.846 . S
Sm560 O580 2.543 . S
Sm560 O581 2.450 . S
Sm560 O582 2.681 . S
Sm560 O583 2.464 . S
Sm560 O584 2.396 . S
Sm560 O588 2.386 . S
Sm560 O591 2.408 . S
Sm561 C571 2.846 1_554 S
Sm561 O582 2.386 . S
Sm561 O585 2.408 . S
Sm561 O586 2.543 1_554 S
Sm561 O587 2.450 1_554 S
Sm561 O588 2.681 . S
Sm561 O589 2.464 . S
Sm561 O590 2.396 . S
C562 Sm560 2.846 . S
C562 C563 1.506 . S
C562 O580 1.261 . S
C562 O581 1.242 . S
C563 C562 1.506 . S
C563 C564 1.358 . S
C563 C568 1.382 . S
C564 C563 1.358 . S
C564 C565 1.385 . S
C564 H592 0.930 . S
C565 C564 1.385 . S
C565 C566 1.395 . S
C565 H593 0.929 . S
C566 C565 1.395 . S
C566 C567 1.335 . S
C567 C566 1.335 . S
C567 C568 1.398 . S
C567 H594 0.930 . S
C568 C563 1.382 . S
C568 C567 1.398 . S
C568 H595 0.929 . S
C569 O582 1.271 . S
C569 O583 1.251 . S
C570 O584 1.252 . S
C570 O585 1.272 . S
C571 Sm561 2.846 1_556 S
C571 C572 1.506 . S
C571 O586 1.261 . S
C571 O587 1.242 . S
C572 C571 1.506 . S
C572 C573 1.358 . S
C572 C577 1.382 . S
C573 C572 1.358 . S
C573 C574 1.385 . S
C573 H596 0.930 . S
C574 C573 1.385 . S
C574 C575 1.395 . S
C574 H597 0.929 . S
C575 C574 1.395 . S
C575 C576 1.335 . S
C576 C575 1.335 . S
C576 C577 1.398 . S
C576 H598 0.930 . S
C577 C572 1.382 . S
C577 C576 1.398 . S
C577 H599 0.929 . S
C578 O588 1.271 . S
C578 O589 1.251 . S
C579 O590 1.252 . S
C579 O591 1.272 . S
O580 Sm560 2.543 . S
O580 C562 1.261 . S
O581 Sm560 2.450 . S
O581 C562 1.242 . S
O582 Sm560 2.681 . S
O582 Sm561 2.386 . S
O582 C569 1.271 . S
O583 Sm560 2.464 . S
O583 C569 1.251 . S
O584 Sm560 2.396 . S
O584 C570 1.252 . S
O585 Sm561 2.408 . S
O585 C570 1.272 . S
O586 Sm561 2.543 1_556 S
O586 C571 1.261 . S
O587 Sm561 2.450 1_556 S
O587 C571 1.242 . S
O588 Sm560 2.386 . S
O588 Sm561 2.681 . S
O588 C578 1.271 . S
O589 Sm561 2.464 . S
O589 C578 1.251 . S
O590 Sm561 2.396 . S
O590 C579 1.252 . S
O591 Sm560 2.408 . S
O591 C579 1.272 . S
H592 C564 0.930 . S
H593 C565 0.929 . S
H594 C567 0.930 . S
H595 C568 0.929 . S
H596 C573 0.930 . S
H597 C574 0.929 . S
H598 C576 0.930 . S
H599 C577 0.929 . S
Sm600 C602 2.846 . S
Sm600 O620 2.543 . S
Sm600 O621 2.450 . S
Sm600 O622 2.681 . S
Sm600 O623 2.464 . S
Sm600 O624 2.396 . S
Sm600 O628 2.386 . S
Sm600 O631 2.408 . S
Sm601 C611 2.846 1_554 S
Sm601 O622 2.386 . S
Sm601 O625 2.408 . S
Sm601 O626 2.543 1_554 S
Sm601 O627 2.450 1_554 S
Sm601 O628 2.681 . S
Sm601 O629 2.464 . S
Sm601 O630 2.396 . S
C602 Sm600 2.846 . S
C602 C603 1.506 . S
C602 O620 1.261 . S
C602 O621 1.242 . S
C603 C602 1.506 . S
C603 C604 1.358 . S
C603 C608 1.382 . S
C604 C603 1.358 . S
C604 C605 1.385 . S
C604 H632 0.930 . S
C605 C604 1.385 . S
C605 C606 1.395 . S
C605 H633 0.929 . S
C606 C605 1.395 . S
C606 C607 1.335 . S
C607 C606 1.335 . S
C607 C608 1.398 . S
C607 H634 0.930 . S
C608 C603 1.382 . S
C608 C607 1.398 . S
C608 H635 0.929 . S
C609 O622 1.271 . S
C609 O623 1.251 . S
C610 O624 1.252 . S
C610 O625 1.272 . S
C611 Sm601 2.846 1_556 S
C611 C612 1.506 . S
C611 O626 1.261 . S
C611 O627 1.242 . S
C612 C611 1.506 . S
C612 C613 1.358 . S
C612 C617 1.382 . S
C613 C612 1.358 . S
C613 C614 1.385 . S
C613 H636 0.930 . S
C614 C613 1.385 . S
C614 C615 1.395 . S
C614 H637 0.929 . S
C615 C614 1.395 . S
C615 C616 1.335 . S
C616 C615 1.335 . S
C616 C617 1.398 . S
C616 H638 0.930 . S
C617 C612 1.382 . S
C617 C616 1.398 . S
C617 H639 0.929 . S
C618 O628 1.271 . S
C618 O629 1.251 . S
C619 O630 1.252 . S
C619 O631 1.272 . S
O620 Sm600 2.543 . S
O620 C602 1.261 . S
O621 Sm600 2.450 . S
O621 C602 1.242 . S
O622 Sm600 2.681 . S
O622 Sm601 2.386 . S
O622 C609 1.271 . S
O623 Sm600 2.464 . S
O623 C609 1.251 . S
O624 Sm600 2.396 . S
O624 C610 1.252 . S
O625 Sm601 2.408 . S
O625 C610 1.272 . S
O626 Sm601 2.543 1_556 S
O626 C611 1.261 . S
O627 Sm601 2.450 1_556 S
O627 C611 1.242 . S
O628 Sm600 2.386 . S
O628 Sm601 2.681 . S
O628 C618 1.271 . S
O629 Sm601 2.464 . S
O629 C618 1.251 . S
O630 Sm601 2.396 . S
O630 C619 1.252 . S
O631 Sm600 2.408 . S
O631 C619 1.272 . S
H632 C604 0.930 . S
H633 C605 0.929 . S
H634 C607 0.930 . S
H635 C608 0.929 . S
H636 C613 0.930 . S
H637 C614 0.929 . S
H638 C616 0.930 . S
H639 C617 0.929 . S
Sm640 C642 2.846 1_554 S
Sm640 O660 2.543 1_554 S
Sm640 O661 2.450 . S
Sm640 O662 2.681 . S
Sm640 O663 2.464 . S
Sm640 O664 2.396 . S
Sm640 O668 2.386 . S
Sm640 O671 2.408 . S
Sm641 C651 2.846 . S
Sm641 O662 2.386 . S
Sm641 O665 2.408 1_565 S
Sm641 O666 2.543 . S
Sm641 O667 2.450 . S
Sm641 O668 2.681 . S
Sm641 O669 2.464 . S
Sm641 O670 2.396 . S
C642 Sm640 2.846 1_556 S
C642 C643 1.506 . S
C642 O660 1.261 . S
C642 O661 1.241 1_556 S
C643 C642 1.506 . S
C643 C644 1.358 . S
C643 C648 1.382 . S
C644 C643 1.358 . S
C644 C645 1.385 . S
C644 H672 0.930 . S
C645 C644 1.385 . S
C645 C646 1.395 . S
C645 H673 0.929 . S
C646 C645 1.395 . S
C646 C647 1.335 . S
C647 C646 1.335 . S
C647 C648 1.398 . S
C647 H674 0.930 . S
C648 C643 1.382 . S
C648 C647 1.398 . S
C648 H675 0.929 . S
C649 O662 1.271 . S
C649 O663 1.251 . S
C650 O664 1.252 1_545 S
C650 O665 1.272 . S
C651 Sm641 2.846 . S
C651 C652 1.506 . S
C651 O666 1.261 . S
C651 O667 1.242 . S
C652 C651 1.506 . S
C652 C653 1.358 . S
C652 C657 1.382 . S
C653 C652 1.358 . S
C653 C654 1.385 . S
C653 H676 0.930 . S
C654 C653 1.385 . S
C654 C655 1.395 . S
C654 H677 0.929 . S
C655 C654 1.395 . S
C655 C656 1.335 . S
C656 C655 1.335 . S
C656 C657 1.398 . S
C656 H678 0.930 . S
C657 C652 1.382 . S
C657 C656 1.398 . S
C657 H679 0.929 . S
C658 O668 1.271 . S
C658 O669 1.251 . S
C659 O670 1.252 . S
C659 O671 1.272 . S
O660 Sm640 2.543 1_556 S
O660 C642 1.261 . S
O661 Sm640 2.450 . S
O661 C642 1.241 1_554 S
O662 Sm640 2.681 . S
O662 Sm641 2.386 . S
O662 C649 1.271 . S
O663 Sm640 2.464 . S
O663 C649 1.251 . S
O664 Sm640 2.396 . S
O664 C650 1.252 1_565 S
O665 Sm641 2.408 1_545 S
O665 C650 1.272 . S
O666 Sm641 2.543 . S
O666 C651 1.261 . S
O667 Sm641 2.450 . S
O667 C651 1.242 . S
O668 Sm640 2.386 . S
O668 Sm641 2.681 . S
O668 C658 1.271 . S
O669 Sm641 2.464 . S
O669 C658 1.251 . S
O670 Sm641 2.396 . S
O670 C659 1.252 . S
O671 Sm640 2.408 . S
O671 C659 1.272 . S
H672 C644 0.930 . S
H673 C645 0.929 . S
H674 C647 0.930 . S
H675 C648 0.929 . S
H676 C653 0.930 . S
H677 C654 0.929 . S
H678 C656 0.930 . S
H679 C657 0.929 . S
Sm680 C682 2.846 . S
Sm680 O700 2.543 . S
Sm680 O701 2.450 . S
Sm680 O702 2.681 . S
Sm680 O703 2.464 . S
Sm680 O704 2.396 . S
Sm680 O708 2.386 . S
Sm680 O711 2.408 . S
Sm681 C691 2.846 1_554 S
Sm681 O702 2.386 . S
Sm681 O705 2.408 . S
Sm681 O706 2.543 1_554 S
Sm681 O707 2.450 1_554 S
Sm681 O708 2.681 . S
Sm681 O709 2.464 . S
Sm681 O710 2.396 . S
C682 Sm680 2.846 . S
C682 C683 1.506 . S
C682 O700 1.261 . S
C682 O701 1.242 . S
C683 C682 1.506 . S
C683 C684 1.358 . S
C683 C688 1.382 . S
C684 C683 1.358 . S
C684 C685 1.385 . S
C684 H712 0.930 . S
C685 C684 1.385 . S
C685 C686 1.395 . S
C685 H713 0.929 . S
C686 C685 1.395 . S
C686 C687 1.335 . S
C687 C686 1.335 . S
C687 C688 1.398 . S
C687 H714 0.930 . S
C688 C683 1.382 . S
C688 C687 1.398 . S
C688 H715 0.929 . S
C689 O702 1.271 . S
C689 O703 1.251 . S
C690 O704 1.252 . S
C690 O705 1.272 . S
C691 Sm681 2.846 1_556 S
C691 C692 1.506 . S
C691 O706 1.261 . S
C691 O707 1.242 . S
C692 C691 1.506 . S
C692 C693 1.358 . S
C692 C697 1.382 . S
C693 C692 1.358 . S
C693 C694 1.385 . S
C693 H716 0.930 . S
C694 C693 1.385 . S
C694 C695 1.395 . S
C694 H717 0.929 . S
C695 C694 1.395 . S
C695 C696 1.335 . S
C696 C695 1.335 . S
C696 C697 1.398 . S
C696 H718 0.930 . S
C697 C692 1.382 . S
C697 C696 1.398 . S
C697 H719 0.929 . S
C698 O708 1.271 . S
C698 O709 1.251 . S
C699 O710 1.252 . S
C699 O711 1.272 . S
O700 Sm680 2.543 . S
O700 C682 1.261 . S
O701 Sm680 2.450 . S
O701 C682 1.242 . S
O702 Sm680 2.681 . S
O702 Sm681 2.386 . S
O702 C689 1.271 . S
O703 Sm680 2.464 . S
O703 C689 1.251 . S
O704 Sm680 2.396 . S
O704 C690 1.252 . S
O705 Sm681 2.408 . S
O705 C690 1.272 . S
O706 Sm681 2.543 1_556 S
O706 C691 1.261 . S
O707 Sm681 2.450 1_556 S
O707 C691 1.242 . S
O708 Sm680 2.386 . S
O708 Sm681 2.681 . S
O708 C698 1.271 . S
O709 Sm681 2.464 . S
O709 C698 1.251 . S
O710 Sm681 2.396 . S
O710 C699 1.252 . S
O711 Sm680 2.408 . S
O711 C699 1.272 . S
H712 C684 0.930 . S
H713 C685 0.929 . S
H714 C687 0.930 . S
H715 C688 0.929 . S
H716 C693 0.930 . S
H717 C694 0.929 . S
H718 C696 0.930 . S
H719 C697 0.929 . S
C539 C19 4.347 . S
C58 C578 4.328 . S
C99 C498 4.309 . S
C98 C298 4.105 . S
C338 C18 4.523 . S
C59 C258 4.462 . S
C130 C409 4.274 . S
C169 C449 3.861 . S
C369 C210 3.802 . S
C649 C209 4.350 . S
C129 C690 4.331 . S
C610 C170 4.362 . S
C339 C538 4.160 1_556 S
C259 C579 4.149 1_556 S
C299 C499 4.590 1_556 S
C370 C650 4.813 1_556 S
C689 C410 4.431 1_554 S
C609 C450 4.822 1_554 S
C9 C178 1.323 . S
C219 C50 2.418 . S
C139 C89 1.766 . S
C179 C90 2.489 . S
C218 C10 2.032 . S
C138 C49 1.536 . S
C419 C250 2.508 . S
C459 C290 2.646 . S
C379 C330 2.628 . S
C418 C329 1.455 . S
C458 C249 1.534 . S
C378 C289 1.350 . S
C658 C489 1.499 . S
C699 C530 2.462 . S
C569 C619 2.007 . S
C570 C659 2.687 . S
C490 C698 1.995 . S
C618 C529 1.485 . S
C15 C6 2.498 1_654 S
C46 C55 2.797 1_554 S
C95 C86 1.977 1_554 S
C126 C135 2.855 1_455 S
C166 C175 2.184 . S
C215 C206 2.738 1_554 S
C255 C246 3.655 . S
C286 C295 2.188 . S
C335 C326 3.292 . S
C366 C375 2.408 . S
C406 C415 3.296 . S
C446 C455 1.912 . S
C486 C495 2.517 . S
C526 C535 2.672 . S
C575 C566 2.200 . S
C615 C606 3.019 . S
C646 C655 2.345 . S
C686 C695 2.435 . S
