# Generated by pormake.
# Topology wiv, (6)-cn, num edge types: 1
# Building blocks:
#     Node 0, Type 0, BuildingBlock: BETFEN_clean_sbu_0, # of connection points: 6
#     Node 1, Type 0, BuildingBlock: BETFEN_clean_sbu_0, # of connection points: 6
#     Node 2, Type 0, BuildingBlock: BETFEN_clean_sbu_0, # of connection points: 6
#     Node 3, Type 0, BuildingBlock: BETFEN_clean_sbu_0, # of connection points: 6
#     Node 4, Type 0, BuildingBlock: BETFEN_clean_sbu_0, # of connection points: 6
#     Node 5, Type 0, BuildingBlock: BETFEN_clean_sbu_0, # of connection points: 6
#     Node 6, Type 0, BuildingBlock: BETFEN_clean_sbu_0, # of connection points: 6
#     Node 7, Type 0, BuildingBlock: BETFEN_clean_sbu_0, # of connection points: 6
#     Node 8, Type 0, BuildingBlock: BETFEN_clean_sbu_0, # of connection points: 6
#     Node 9, Type 0, BuildingBlock: BETFEN_clean_sbu_0, # of connection points: 6
#     Node 10, Type 0, BuildingBlock: BETFEN_clean_sbu_0, # of connection points: 6
#     Node 11, Type 0, BuildingBlock: BETFEN_clean_sbu_0, # of connection points: 6
#     Node 12, Type 0, BuildingBlock: BETFEN_clean_sbu_0, # of connection points: 6
#     Node 13, Type 0, BuildingBlock: BETFEN_clean_sbu_0, # of connection points: 6
#     Node 14, Type 0, BuildingBlock: BETFEN_clean_sbu_0, # of connection points: 6
#     Node 15, Type 0, BuildingBlock: BETFEN_clean_sbu_0, # of connection points: 6
#     Edge 16, Type (0, 0), BuildingBlock: XIVTED_clean_linker_0, # of connection points: 2
#     Edge 17, Type (0, 0), BuildingBlock: XIVTED_clean_linker_0, # of connection points: 2
#     Edge 18, Type (0, 0), BuildingBlock: XIVTED_clean_linker_0, # of connection points: 2
#     Edge 19, Type (0, 0), BuildingBlock: XIVTED_clean_linker_0, # of connection points: 2
#     Edge 20, Type (0, 0), BuildingBlock: XIVTED_clean_linker_0, # of connection points: 2
#     Edge 21, Type (0, 0), BuildingBlock: XIVTED_clean_linker_0, # of connection points: 2
#     Edge 22, Type (0, 0), BuildingBlock: XIVTED_clean_linker_0, # of connection points: 2
#     Edge 23, Type (0, 0), BuildingBlock: XIVTED_clean_linker_0, # of connection points: 2
#     Edge 24, Type (0, 0), BuildingBlock: XIVTED_clean_linker_0, # of connection points: 2
#     Edge 25, Type (0, 0), BuildingBlock: XIVTED_clean_linker_0, # of connection points: 2
#     Edge 26, Type (0, 0), BuildingBlock: XIVTED_clean_linker_0, # of connection points: 2
#     Edge 27, Type (0, 0), BuildingBlock: XIVTED_clean_linker_0, # of connection points: 2
#     Edge 28, Type (0, 0), BuildingBlock: XIVTED_clean_linker_0, # of connection points: 2
#     Edge 29, Type (0, 0), BuildingBlock: XIVTED_clean_linker_0, # of connection points: 2
#     Edge 30, Type (0, 0), BuildingBlock: XIVTED_clean_linker_0, # of connection points: 2
#     Edge 31, Type (0, 0), BuildingBlock: XIVTED_clean_linker_0, # of connection points: 2
#     Edge 32, Type (0, 0), BuildingBlock: XIVTED_clean_linker_0, # of connection points: 2
#     Edge 33, Type (0, 0), BuildingBlock: XIVTED_clean_linker_0, # of connection points: 2
#     Edge 34, Type (0, 0), BuildingBlock: XIVTED_clean_linker_0, # of connection points: 2
#     Edge 35, Type (0, 0), BuildingBlock: XIVTED_clean_linker_0, # of connection points: 2
#     Edge 36, Type (0, 0), BuildingBlock: XIVTED_clean_linker_0, # of connection points: 2
#     Edge 37, Type (0, 0), BuildingBlock: XIVTED_clean_linker_0, # of connection points: 2
#     Edge 38, Type (0, 0), BuildingBlock: XIVTED_clean_linker_0, # of connection points: 2
#     Edge 39, Type (0, 0), BuildingBlock: XIVTED_clean_linker_0, # of connection points: 2
#     Edge 40, Type (0, 0), BuildingBlock: XIVTED_clean_linker_0, # of connection points: 2
#     Edge 41, Type (0, 0), BuildingBlock: XIVTED_clean_linker_0, # of connection points: 2
#     Edge 42, Type (0, 0), BuildingBlock: XIVTED_clean_linker_0, # of connection points: 2
#     Edge 43, Type (0, 0), BuildingBlock: XIVTED_clean_linker_0, # of connection points: 2
#     Edge 44, Type (0, 0), BuildingBlock: XIVTED_clean_linker_0, # of connection points: 2
#     Edge 45, Type (0, 0), BuildingBlock: XIVTED_clean_linker_0, # of connection points: 2
#     Edge 46, Type (0, 0), BuildingBlock: XIVTED_clean_linker_0, # of connection points: 2
#     Edge 47, Type (0, 0), BuildingBlock: XIVTED_clean_linker_0, # of connection points: 2
#     Edge 48, Type (0, 0), BuildingBlock: XIVTED_clean_linker_0, # of connection points: 2
#     Edge 49, Type (0, 0), BuildingBlock: XIVTED_clean_linker_0, # of connection points: 2
#     Edge 50, Type (0, 0), BuildingBlock: XIVTED_clean_linker_0, # of connection points: 2
#     Edge 51, Type (0, 0), BuildingBlock: XIVTED_clean_linker_0, # of connection points: 2
#     Edge 52, Type (0, 0), BuildingBlock: XIVTED_clean_linker_0, # of connection points: 2
#     Edge 53, Type (0, 0), BuildingBlock: XIVTED_clean_linker_0, # of connection points: 2
#     Edge 54, Type (0, 0), BuildingBlock: XIVTED_clean_linker_0, # of connection points: 2
#     Edge 55, Type (0, 0), BuildingBlock: XIVTED_clean_linker_0, # of connection points: 2
#     Edge 56, Type (0, 0), BuildingBlock: XIVTED_clean_linker_0, # of connection points: 2
#     Edge 57, Type (0, 0), BuildingBlock: XIVTED_clean_linker_0, # of connection points: 2
#     Edge 58, Type (0, 0), BuildingBlock: XIVTED_clean_linker_0, # of connection points: 2
#     Edge 59, Type (0, 0), BuildingBlock: XIVTED_clean_linker_0, # of connection points: 2
#     Edge 60, Type (0, 0), BuildingBlock: XIVTED_clean_linker_0, # of connection points: 2
#     Edge 61, Type (0, 0), BuildingBlock: XIVTED_clean_linker_0, # of connection points: 2
#     Edge 62, Type (0, 0), BuildingBlock: XIVTED_clean_linker_0, # of connection points: 2
#     Edge 63, Type (0, 0), BuildingBlock: XIVTED_clean_linker_0, # of connection points: 2
# Relax obj value: 0.128
# Max RMSD: 0.182
# Mean RMSD: 0.182
data_MOF--net-wiv--node1-BETFEN_clean_sbu_0--edge1-XIVTED_clean_linker_0
_symmetry_space_group_name_H-M    P1
_symmetry_Int_Tables_number       1
_symmetry_cell_setting            triclinic
loop_
_symmetry_equiv_pos_as_xyz
'x, y, z'
_cell_length_a     51.758681
_cell_length_b     51.707844
_cell_length_c     25.309423
_cell_angle_alpha  90.044175
_cell_angle_beta   89.992881
_cell_angle_gamma 90.085803
loop_
_atom_site_label
_atom_site_type_symbol
_atom_site_fract_x
_atom_site_fract_y
_atom_site_fract_z
_atom_type_partial_charge
Pr0 Pr 0.333 0.1049 0.17356 0.0
Pr1 Pr 0.37062 0.10859 0.07882 0.0
C2 C 0.31374 0.08787 0.26596 0.0
C3 C 0.31745 0.09357 0.32286 0.0
C4 C 0.31106 0.11766 0.34536 0.0
C5 C 0.31573 0.12243 0.39913 0.0
C6 C 0.32705 0.1033 0.4311 0.0
C7 C 0.33303 0.0792 0.40849 0.0
C8 C 0.32828 0.07443 0.35517 0.0
C9 C 0.33734 0.15721 0.15057 0.0
C10 C 0.39619 0.12275 0.18927 0.0
C11 C 0.39109 0.11 0.98122 0.0
C12 C 0.38188 0.11111 0.92591 0.0
C13 C 0.3848 0.08918 0.89381 0.0
C14 C 0.3773 0.08968 0.84098 0.0
C15 C 0.36689 0.11224 0.81858 0.0
C16 C 0.36318 0.13403 0.85102 0.0
C17 C 0.37061 0.13348 0.90428 0.0
C18 C 0.37002 0.0618 0.13384 0.0
C19 C 0.30736 0.10469 0.05577 0.0
O20 O 0.3334 0.07706 0.24208 0.0
O21 O 0.30176 0.10496 0.23662 0.0
O22 O 0.34903 0.13961 0.12545 0.0
O23 O 0.32185 0.14786 0.18589 0.0
O24 O 0.39851 0.12756 0.1384 0.0
O25 O 0.37514 0.11165 0.20918 0.0
O26 O 0.38892 0.13069 1.01087 0.0
O27 O 0.38609 0.08856 1.00652 0.0
O28 O 0.35018 0.0742 0.11951 0.0
O29 O 0.39107 0.07374 0.12028 0.0
O30 O 0.3032 0.09629 0.10452 0.0
O31 O 0.33005 0.11353 0.04107 0.0
H32 H 0.30275 0.13288 0.32145 0.0
H33 H 0.31101 0.14124 0.41535 0.0
H34 H 0.34128 0.06384 0.43213 0.0
H35 H 0.33326 0.05567 0.33901 0.0
H36 H 0.39322 0.07161 0.90948 0.0
H37 H 0.3799 0.07235 0.8175 0.0
H38 H 0.3553 0.15173 0.83491 0.0
H39 H 0.36791 0.15066 0.92813 0.0
Pr40 Pr 0.10713 0.6327 0.96242 0.0
Pr41 Pr 0.10635 0.67172 0.86336 0.0
C42 C 0.11395 0.61208 0.05865 0.0
C43 C 0.11432 0.62175 0.11372 0.0
C44 C 0.09152 0.62142 0.14379 0.0
C45 C 0.09165 0.62957 0.19623 0.0
C46 C 0.11463 0.63805 0.2202 0.0
C47 C 0.13739 0.63897 0.18995 0.0
C48 C 0.13725 0.63085 0.13718 0.0
C49 C 0.06043 0.63622 0.90832 0.0
C50 C 0.10371 0.69678 0.98385 0.0
C51 C 0.09294 0.695 0.77232 0.0
C52 C 0.09729 0.69039 0.7152 0.0
C53 C 0.12143 0.6948 0.69108 0.0
C54 C 0.12498 0.68952 0.63723 0.0
C55 C 0.10452 0.67962 0.60669 0.0
C56 C 0.08037 0.6757 0.6308 0.0
C57 C 0.07682 0.68102 0.68428 0.0
C58 C 0.15736 0.66337 0.89349 0.0
C59 C 0.11947 0.60728 0.84858 0.0
O60 O 0.13331 0.61844 0.02789 0.0
O61 O 0.09159 0.6125 0.03449 0.0
O62 O 0.07517 0.65521 0.91838 0.0
O63 O 0.06875 0.61493 0.92948 0.0
O64 O 0.09973 0.70197 0.93304 0.0
O65 O 0.10799 0.67322 1.00125 0.0
O66 O 0.07829 0.67814 0.79657 0.0
O67 O 0.11253 0.70273 0.80106 0.0
O68 O 0.13764 0.6535 0.91448 0.0
O69 O 0.15082 0.67929 0.85635 0.0
O70 O 0.12283 0.60455 0.89992 0.0
O71 O 0.11121 0.62926 0.82688 0.0
H72 H 0.07351 0.61459 0.127 0.0
H73 H 0.07368 0.62906 0.21815 0.0
H74 H 0.15545 0.64521 0.20745 0.0
H75 H 0.15517 0.63132 0.11511 0.0
H76 H 0.13762 0.70206 0.71377 0.0
H77 H 0.14385 0.69264 0.61984 0.0
H78 H 0.06405 0.66862 0.60823 0.0
H79 H 0.05796 0.67766 0.70159 0.0
Pr80 Pr 0.66964 0.89704 0.16974 0.0
Pr81 Pr 0.63409 0.89883 0.07941 0.0
C82 C 0.69201 0.90303 0.26544 0.0
C83 C 0.6854 0.89975 0.32199 0.0
C84 C 0.70042 0.88338 0.35383 0.0
C85 C 0.69542 0.88117 0.408 0.0
C86 C 0.67536 0.89543 0.43149 0.0
C87 C 0.65994 0.91133 0.39928 0.0
C88 C 0.66486 0.91344 0.34516 0.0
C89 C 0.66394 0.84875 0.12324 0.0
C90 C 0.60499 0.88654 0.18694 0.0
C91 C 0.61264 0.89878 0.98252 0.0
C92 C 0.62118 0.89703 0.92712 0.0
C93 C 0.60949 0.91315 0.88978 0.0
C94 C 0.61734 0.91257 0.83711 0.0
C95 C 0.6372 0.89588 0.82057 0.0
C96 C 0.649 0.87968 0.85813 0.0
C97 C 0.64114 0.88033 0.91112 0.0
C98 C 0.6373 0.94518 0.13546 0.0
C99 C 0.69635 0.89943 0.05458 0.0
O100 O 0.68072 0.92183 0.23979 0.0
O101 O 0.69448 0.88205 0.23716 0.0
O102 O 0.6455 0.86417 0.13218 0.0
O103 O 0.6861 0.85845 0.13713 0.0
O104 O 0.60221 0.88486 0.13547 0.0
O105 O 0.62762 0.89252 0.20858 0.0
O106 O 0.61439 0.87799 1.01175 0.0
O107 O 0.61915 0.91991 1.00749 0.0
O108 O 0.65665 0.93187 0.12151 0.0
O109 O 0.61576 0.93464 0.12067 0.0
O110 O 0.7002 0.908 0.10323 0.0
O111 O 0.67372 0.8903 0.04094 0.0
H112 H 0.71637 0.87263 0.33694 0.0
H113 H 0.70779 0.86892 0.43171 0.0
H114 H 0.64404 0.92223 0.41591 0.0
H115 H 0.65275 0.92604 0.32169 0.0
H116 H 0.59419 0.92626 0.90142 0.0
H117 H 0.60758 0.92505 0.80918 0.0
H118 H 0.66456 0.86684 0.84676 0.0
H119 H 0.65072 0.86795 0.93949 0.0
Pr120 Pr 0.89921 0.37287 0.96344 0.0
Pr121 Pr 0.89792 0.33439 0.86276 0.0
C122 C 0.89047 0.39363 0.05889 0.0
C123 C 0.89032 0.3845 0.11425 0.0
C124 C 0.91332 0.38379 0.1437 0.0
C125 C 0.91312 0.37556 0.19613 0.0
C126 C 0.88993 0.36788 0.22041 0.0
C127 C 0.86691 0.36857 0.19104 0.0
C128 C 0.8671 0.37681 0.13849 0.0
C129 C 0.94485 0.36953 0.90651 0.0
C130 C 0.90545 0.30894 0.98309 0.0
C131 C 0.91055 0.31085 0.77163 0.0
C132 C 0.9061 0.31551 0.71469 0.0
C133 C 0.88143 0.31327 0.69174 0.0
C134 C 0.87793 0.31807 0.63778 0.0
C135 C 0.89901 0.32519 0.60587 0.0
C136 C 0.92356 0.32759 0.62909 0.0
C137 C 0.92706 0.32273 0.68277 0.0
C138 C 0.84754 0.34509 0.89405 0.0
C139 C 0.88716 0.39899 0.84944 0.0
O140 O 0.87186 0.38523 0.02819 0.0
O141 O 0.91293 0.39487 0.03509 0.0
O142 O 0.92998 0.35057 0.91623 0.0
O143 O 0.9375 0.39057 0.9304 0.0
O144 O 0.90378 0.30367 0.93174 0.0
O145 O 0.90434 0.3326 1.00211 0.0
O146 O 0.92562 0.32743 0.79556 0.0
O147 O 0.89088 0.30352 0.80063 0.0
O148 O 0.86788 0.3536 0.91505 0.0
O149 O 0.85295 0.32951 0.85552 0.0
O150 O 0.88447 0.40164 0.90099 0.0
O151 O 0.89429 0.37686 0.82682 0.0
H152 H 0.93151 0.38979 0.12645 0.0
H153 H 0.93111 0.37569 0.21796 0.0
H154 H 0.84877 0.36255 0.20851 0.0
H155 H 0.84903 0.37722 0.11691 0.0
H156 H 0.86484 0.30779 0.71531 0.0
H157 H 0.85882 0.31584 0.62094 0.0
H158 H 0.94013 0.33349 0.60588 0.0
H159 H 0.94624 0.32474 0.69945 0.0
Pr160 Pr 0.33419 0.39541 0.11385 0.0
Pr161 Pr 0.3726 0.39831 0.21182 0.0
C162 C 0.31055 0.39803 1.01929 0.0
C163 C 0.31701 0.39746 0.96268 0.0
C164 C 0.30302 0.38092 0.92935 0.0
C165 C 0.30858 0.37979 0.87547 0.0
C166 C 0.32829 0.39522 0.85385 0.0
C167 C 0.34248 0.41164 0.88746 0.0
C168 C 0.33695 0.41271 0.94149 0.0
C169 C 0.34071 0.34923 0.16732 0.0
C170 C 0.39992 0.38902 0.09812 0.0
C171 C 0.39415 0.38719 0.3053 0.0
C172 C 0.38525 0.38896 0.36062 0.0
C173 C 0.39849 0.40495 0.39628 0.0
C174 C 0.39053 0.40663 0.44887 0.0
C175 C 0.36919 0.39225 0.46685 0.0
C176 C 0.35567 0.37655 0.43094 0.0
C177 C 0.36354 0.37498 0.37829 0.0
C178 C 0.36441 0.44835 0.16923 0.0
C179 C 0.30893 0.40228 0.2323 0.0
O180 O 0.31704 0.41858 0.04657 0.0
O181 O 0.31399 0.37639 0.04492 0.0
O182 O 0.3589 0.36486 0.15652 0.0
O183 O 0.31842 0.35817 0.1524 0.0
O184 O 0.40372 0.38959 0.14961 0.0
O185 O 0.37658 0.39147 0.0763 0.0
O186 O 0.38291 0.36978 0.27556 0.0
O187 O 0.39843 0.40908 0.28077 0.0
O188 O 0.3545 0.42727 0.15569 0.0
O189 O 0.37955 0.44407 0.20915 0.0
O190 O 0.30452 0.40736 0.18161 0.0
O191 O 0.33197 0.39589 0.24965 0.0
H192 H 0.28764 0.36894 0.94503 0.0
H193 H 0.29708 0.36717 0.85064 0.0
H194 H 0.35805 0.42347 0.87214 0.0
H195 H 0.34825 0.42538 0.96656 0.0
H196 H 0.41516 0.41599 0.38354 0.0
H197 H 0.40148 0.41872 0.47572 0.0
H198 H 0.3389 0.36558 0.44346 0.0
H199 H 0.35265 0.36273 0.35162 0.0
Pr200 Pr 0.39639 0.63456 0.83209 0.0
Pr201 Pr 0.3979 0.67 0.92113 0.0
C202 C 0.3945 0.61375 0.73459 0.0
C203 C 0.39396 0.62317 0.6794 0.0
C204 C 0.41453 0.6169 0.64574 0.0
C205 C 0.41434 0.62467 0.59299 0.0
C206 C 0.39342 0.63875 0.57233 0.0
C207 C 0.37313 0.64575 0.60647 0.0
C208 C 0.37341 0.63808 0.65956 0.0
C209 C 0.44418 0.63623 0.88347 0.0
C210 C 0.39928 0.69646 0.80581 0.0
C211 C 0.40601 0.69231 1.01633 0.0
C212 C 0.40256 0.68598 0.07313 0.0
C213 C 0.38106 0.69527 0.10137 0.0
C214 C 0.3783 0.69002 0.15537 0.0
C215 C 0.39703 0.67543 0.18236 0.0
C216 C 0.41854 0.66626 0.15403 0.0
C217 C 0.42126 0.67143 0.10019 0.0
C218 C 0.34815 0.66594 0.88079 0.0
C219 C 0.38503 0.60589 0.94023 0.0
O220 O 0.37392 0.61715 0.76382 0.0
O221 O 0.41602 0.61754 0.76034 0.0
O222 O 0.43133 0.65599 0.87032 0.0
O223 O 0.4323 0.61503 0.87082 0.0
O224 O 0.40926 0.69985 0.85343 0.0
O225 O 0.38836 0.6744 0.7939 0.0
O226 O 0.42384 0.67971 0.99032 0.0
O227 O 0.3852 0.69621 0.98829 0.0
O228 O 0.36314 0.64693 0.8878 0.0
O229 O 0.3593 0.68774 0.8924 0.0
O230 O 0.38095 0.60356 0.88918 0.0
O231 O 0.3938 0.62798 0.96038 0.0
H232 H 0.43075 0.60572 0.66017 0.0
H233 H 0.43062 0.61948 0.5683 0.0
H234 H 0.35666 0.65649 0.59187 0.0
H235 H 0.35738 0.64349 0.68472 0.0
H236 H 0.3664 0.7067 0.08178 0.0
H237 H 0.36138 0.69721 0.1758 0.0
H238 H 0.43364 0.65543 0.17363 0.0
H239 H 0.43823 0.66422 0.07998 0.0
Pr240 Pr 0.66948 0.60709 0.11866 0.0
Pr241 Pr 0.63482 0.60753 0.20855 0.0
C242 C 0.69173 0.59884 0.02352 0.0
C243 C 0.68574 0.60239 0.96668 0.0
C244 C 0.69325 0.62496 0.93966 0.0
C245 C 0.68814 0.62774 0.88563 0.0
C246 C 0.67544 0.60799 0.85756 0.0
C247 C 0.66818 0.58537 0.88459 0.0
C248 C 0.67327 0.58261 0.93838 0.0
C249 C 0.66566 0.65677 0.15895 0.0
C250 C 0.60494 0.61852 0.10174 0.0
C251 C 0.61427 0.60895 0.3062 0.0
C252 C 0.62349 0.61018 0.36136 0.0
C253 C 0.61876 0.58906 0.39471 0.0
C254 C 0.62639 0.58975 0.44745 0.0
C255 C 0.63873 0.61172 0.46839 0.0
C256 C 0.64419 0.63263 0.43464 0.0
C257 C 0.63667 0.63186 0.3815 0.0
C258 C 0.63748 0.55959 0.15755 0.0
C259 C 0.69647 0.60612 0.23388 0.0
O260 O 0.67844 0.58133 0.04897 0.0
O261 O 0.69609 0.6195 0.05189 0.0
O262 O 0.6465 0.64163 0.15359 0.0
O263 O 0.68729 0.64565 0.14633 0.0
O264 O 0.60256 0.62092 0.15312 0.0
O265 O 0.62737 0.61195 0.07995 0.0
O266 O 0.61671 0.62956 0.27661 0.0
O267 O 0.61916 0.5875 0.28095 0.0
O268 O 0.65691 0.57327 0.16949 0.0
O269 O 0.61611 0.57047 0.17218 0.0
O270 O 0.69974 0.59613 0.18618 0.0
O271 O 0.67438 0.61676 0.246 0.0
H272 H 0.70314 0.64047 0.96019 0.0
H273 H 0.69385 0.64546 0.86605 0.0
H274 H 0.65888 0.56952 0.86401 0.0
H275 H 0.66759 0.56479 0.95765 0.0
H276 H 0.60889 0.57201 0.38003 0.0
H277 H 0.62244 0.57303 0.47193 0.0
H278 H 0.65357 0.64989 0.44956 0.0
H279 H 0.64084 0.64836 0.35656 0.0
Pr280 Pr 0.60925 0.37337 0.82886 0.0
Pr281 Pr 0.60441 0.33497 0.92388 0.0
C282 C 0.61563 0.39403 0.73219 0.0
C283 C 0.61501 0.38436 0.67691 0.0
C284 C 0.59255 0.38727 0.64629 0.0
C285 C 0.59184 0.37871 0.59394 0.0
C286 C 0.61362 0.36708 0.57073 0.0
C287 C 0.63606 0.36403 0.60139 0.0
C288 C 0.63675 0.37255 0.65388 0.0
C289 C 0.56227 0.37361 0.88261 0.0
C290 C 0.5994 0.31027 0.80414 0.0
C291 C 0.5869 0.31618 1.01638 0.0
C292 C 0.59239 0.31993 0.07344 0.0
C293 C 0.61626 0.31322 0.09637 0.0
C294 C 0.62053 0.317 0.15062 0.0
C295 C 0.60104 0.32752 0.18291 0.0
C296 C 0.57743 0.33454 0.15951 0.0
C297 C 0.57316 0.33071 0.10565 0.0
C298 C 0.65684 0.33938 0.9024 0.0
C299 C 0.62272 0.39785 0.94114 0.0
O300 O 0.63504 0.38692 0.76203 0.0
O301 O 0.59361 0.39444 0.75755 0.0
O302 O 0.57458 0.35347 0.86939 0.0
O303 O 0.57414 0.39453 0.86758 0.0
O304 O 0.59647 0.30478 0.85504 0.0
O305 O 0.60529 0.33359 0.78749 0.0
O306 O 0.57628 0.33581 0.99205 0.0
O307 O 0.60398 0.30395 0.9874 0.0
O308 O 0.63935 0.35113 0.87703 0.0
O309 O 0.6472 0.32384 0.93733 0.0
O310 O 0.62812 0.40028 0.89055 0.0
O311 O 0.61112 0.37691 0.96025 0.0
H312 H 0.57552 0.39643 0.66263 0.0
H313 H 0.57435 0.38175 0.57131 0.0
H314 H 0.65308 0.3549 0.58494 0.0
H315 H 0.65438 0.36996 0.67628 0.0
H316 H 0.63157 0.30498 0.07258 0.0
H317 H 0.6389 0.31123 0.16738 0.0
H318 H 0.56217 0.34321 0.18279 0.0
H319 H 0.55468 0.33624 0.08905 0.0
Pr320 Pr 0.83547 0.6068 0.67117 0.0
Pr321 Pr 0.871 0.60784 0.58078 0.0
C322 C 0.81318 0.59954 0.76659 0.0
C323 C 0.81939 0.60295 0.82334 0.0
C324 C 0.8058 0.62123 0.85356 0.0
C325 C 0.81072 0.62401 0.90764 0.0
C326 C 0.82929 0.60845 0.93276 0.0
C327 C 0.84293 0.59023 0.90231 0.0
C328 C 0.83812 0.58757 0.84828 0.0
C329 C 0.83815 0.65586 0.62638 0.0
C330 C 0.89928 0.62013 0.68967 0.0
C331 C 0.8924 0.61211 0.48436 0.0
C332 C 0.88321 0.61132 0.4291 0.0
C333 C 0.89389 0.59319 0.39426 0.0
C334 C 0.88642 0.59267 0.34131 0.0
C335 C 0.86819 0.61043 0.3218 0.0
C336 C 0.8568 0.62804 0.35718 0.0
C337 C 0.86418 0.62845 0.41038 0.0
C338 C 0.8699 0.5606 0.63378 0.0
C339 C 0.80891 0.59969 0.55564 0.0
O340 O 0.82529 0.5813 0.74075 0.0
O341 O 0.80999 0.62049 0.73861 0.0
O342 O 0.85749 0.64143 0.63452 0.0
O343 O 0.8167 0.64442 0.6393 0.0
O344 O 0.9014 0.62387 0.6385 0.0
O345 O 0.87736 0.61142 0.71042 0.0
O346 O 0.88584 0.63212 0.51302 0.0
O347 O 0.89161 0.59031 0.51042 0.0
O348 O 0.85003 0.5733 0.62077 0.0
O349 O 0.89104 0.57219 0.61962 0.0
O350 O 0.80507 0.59418 0.60606 0.0
O351 O 0.83113 0.60871 0.53921 0.0
H352 H 0.79121 0.63331 0.83537 0.0
H353 H 0.80006 0.63847 0.9296 0.0
H354 H 0.85703 0.57755 0.92035 0.0
H355 H 0.8489 0.5732 0.82631 0.0
H356 H 0.9083 0.57957 0.40791 0.0
H357 H 0.89511 0.57839 0.31556 0.0
H358 H 0.84279 0.64206 0.34352 0.0
H359 H 0.85532 0.64245 0.43651 0.0
Pr360 Pr 0.60476 0.13369 0.46067 0.0
Pr361 Pr 0.60559 0.17036 0.36485 0.0
C362 C 0.60331 0.11338 0.55829 0.0
C363 C 0.60688 0.12174 0.61324 0.0
C364 C 0.59099 0.11084 0.65198 0.0
C365 C 0.59312 0.11867 0.70443 0.0
C366 C 0.61123 0.13762 0.71929 0.0
C367 C 0.62683 0.14901 0.68014 0.0
C368 C 0.62468 0.1411 0.62736 0.0
C369 C 0.55888 0.13618 0.40294 0.0
C370 C 0.60566 0.19687 0.48242 0.0
C371 C 0.59093 0.18995 0.27107 0.0
C372 C 0.59692 0.18552 0.21444 0.0
C373 C 0.61431 0.20153 0.18684 0.0
C374 C 0.61924 0.1973 0.13301 0.0
C375 C 0.60694 0.17695 0.10597 0.0
C376 C 0.58943 0.16119 0.13361 0.0
C377 C 0.5845 0.1654 0.18697 0.0
C378 C 0.65683 0.16438 0.3932 0.0
C379 C 0.62081 0.10614 0.35292 0.0
O380 O 0.62378 0.11195 0.52792 0.0
O381 O 0.58305 0.12291 0.53456 0.0
O382 O 0.57246 0.15553 0.41598 0.0
O383 O 0.56898 0.11479 0.41976 0.0
O384 O 0.59812 0.20125 0.43308 0.0
O385 O 0.61283 0.17372 0.49764 0.0
O386 O 0.57881 0.17114 0.29525 0.0
O387 O 0.60844 0.20118 0.30074 0.0
O388 O 0.63824 0.1535 0.41711 0.0
O389 O 0.64901 0.17987 0.35637 0.0
O390 O 0.62218 0.1037 0.40453 0.0
O391 O 0.61315 0.12796 0.32998 0.0
H392 H 0.57681 0.09626 0.64157 0.0
H393 H 0.5804 0.10993 0.73336 0.0
H394 H 0.64099 0.16361 0.69043 0.0
H395 H 0.6369 0.14998 0.59775 0.0
H396 H 0.62403 0.21733 0.20676 0.0
H397 H 0.63288 0.20974 0.11278 0.0
H398 H 0.57913 0.14573 0.11378 0.0
H399 H 0.5707 0.15288 0.20651 0.0
Pr400 Pr 0.16982 0.39791 0.66984 0.0
Pr401 Pr 0.13463 0.398 0.57959 0.0
C402 C 0.1917 0.40491 0.76572 0.0
C403 C 0.18508 0.40177 0.82241 0.0
C404 C 0.19148 0.37895 0.84968 0.0
C405 C 0.1866 0.37668 0.90387 0.0
C406 C 0.17537 0.39723 0.93204 0.0
C407 C 0.1686 0.41985 0.90454 0.0
C408 C 0.17345 0.42211 0.85048 0.0
C409 C 0.1656 0.34847 0.62667 0.0
C410 C 0.10585 0.38632 0.68823 0.0
C411 C 0.11289 0.39466 0.48325 0.0
C412 C 0.12214 0.3944 0.42787 0.0
C413 C 0.11853 0.41627 0.39587 0.0
C414 C 0.12661 0.41621 0.34325 0.0
C415 C 0.13844 0.39422 0.32129 0.0
C416 C 0.1423 0.37241 0.35343 0.0
C417 C 0.13429 0.3725 0.40619 0.0
C418 C 0.13685 0.44523 0.63297 0.0
C419 C 0.197 0.40385 0.55477 0.0
O420 O 0.18002 0.42333 0.73964 0.0
O421 O 0.19483 0.38396 0.73764 0.0
O422 O 0.14676 0.36377 0.63324 0.0
O423 O 0.18729 0.35936 0.63991 0.0
O424 O 0.10355 0.38294 0.63699 0.0
O425 O 0.128 0.39426 0.70905 0.0
O426 O 0.11797 0.37442 0.51244 0.0
O427 O 0.11526 0.41647 0.50894 0.0
O428 O 0.15639 0.43201 0.61991 0.0
O429 O 0.11545 0.43405 0.61908 0.0
O430 O 0.20079 0.40941 0.60516 0.0
O431 O 0.17456 0.39551 0.53806 0.0
H432 H 0.20067 0.36298 0.82936 0.0
H433 H 0.1923 0.35909 0.92394 0.0
H434 H 0.15953 0.4359 0.9248 0.0
H435 H 0.16832 0.43999 0.83086 0.0
H436 H 0.10916 0.43339 0.41141 0.0
H437 H 0.12301 0.43322 0.31942 0.0
H438 H 0.15165 0.35529 0.33792 0.0
H439 H 0.13751 0.35535 0.42978 0.0
Pr440 Pr 0.39787 0.8713 0.46089 0.0
Pr441 Pr 0.3975 0.83668 0.36931 0.0
C442 C 0.39458 0.89226 0.5579 0.0
C443 C 0.39377 0.88261 0.61293 0.0
C444 C 0.41645 0.88217 0.64349 0.0
C445 C 0.41579 0.87378 0.69587 0.0
C446 C 0.39241 0.8659 0.71895 0.0
C447 C 0.36977 0.86608 0.68841 0.0
C448 C 0.37044 0.87427 0.63585 0.0
C449 C 0.44468 0.87018 0.40635 0.0
C450 C 0.40427 0.80872 0.48348 0.0
C451 C 0.40439 0.81487 0.27339 0.0
C452 C 0.40098 0.82103 0.21666 0.0
C453 C 0.37693 0.81776 0.19151 0.0
C454 C 0.37436 0.82235 0.13731 0.0
C455 C 0.39584 0.82998 0.10721 0.0
C456 C 0.41978 0.83343 0.13232 0.0
C457 C 0.42231 0.82904 0.18645 0.0
C458 C 0.34894 0.83974 0.4155 0.0
C459 C 0.38594 0.90111 0.35356 0.0
O460 O 0.37435 0.88791 0.52812 0.0
O461 O 0.41642 0.88953 0.5326 0.0
O462 O 0.43174 0.85032 0.41868 0.0
O463 O 0.43362 0.89127 0.4223 0.0
O464 O 0.40952 0.80535 0.43283 0.0
O465 O 0.39602 0.83102 0.50117 0.0
O466 O 0.42268 0.82714 0.29882 0.0
O467 O 0.38362 0.81144 0.30187 0.0
O468 O 0.36359 0.859 0.40753 0.0
O469 O 0.35996 0.81819 0.40183 0.0
O470 O 0.38405 0.90342 0.40506 0.0
O471 O 0.39219 0.87873 0.33121 0.0
H472 H 0.43469 0.8886 0.62713 0.0
H473 H 0.43348 0.87412 0.71874 0.0
H474 H 0.35153 0.85988 0.7052 0.0
H475 H 0.35263 0.8743 0.61342 0.0
H476 H 0.36015 0.81133 0.21347 0.0
H477 H 0.35575 0.81933 0.1187 0.0
H478 H 0.43658 0.83954 0.11003 0.0
H479 H 0.44112 0.83159 0.20452 0.0
Pr480 Pr 0.83473 0.8972 0.61758 0.0
Pr481 Pr 0.87066 0.89645 0.70828 0.0
C482 C 0.81198 0.903 0.52225 0.0
C483 C 0.81844 0.9004 0.46551 0.0
C484 C 0.80702 0.88062 0.43539 0.0
C485 C 0.81221 0.8784 0.38136 0.0
C486 C 0.82885 0.89604 0.35618 0.0
C487 C 0.8403 0.9158 0.38649 0.0
C488 C 0.83523 0.91792 0.4405 0.0
C489 C 0.8375 0.84856 0.66407 0.0
C490 C 0.89831 0.88452 0.59869 0.0
C491 C 0.89184 0.89088 0.8046 0.0
C492 C 0.8827 0.89223 0.85993 0.0
C493 C 0.89169 0.9121 0.89293 0.0
C494 C 0.88427 0.9131 0.94591 0.0
C495 C 0.86783 0.8941 0.96729 0.0
C496 C 0.85821 0.87462 0.93383 0.0
C497 C 0.86551 0.87372 0.88067 0.0
C498 C 0.86963 0.94387 0.65565 0.0
C499 C 0.80836 0.90528 0.73301 0.0
O500 O 0.8225 0.92208 0.54849 0.0
O501 O 0.8106 0.8817 0.54974 0.0
O502 O 0.85681 0.8629 0.65479 0.0
O503 O 0.816 0.85994 0.65161 0.0
O504 O 0.90051 0.87994 0.64956 0.0
O505 O 0.87661 0.89404 0.57875 0.0
O506 O 0.88391 0.87134 0.77599 0.0
O507 O 0.89261 0.91263 0.77837 0.0
O508 O 0.84973 0.93076 0.66725 0.0
O509 O 0.89063 0.93305 0.67289 0.0
O510 O 0.80429 0.90983 0.68228 0.0
O511 O 0.83077 0.89709 0.7501 0.0
H512 H 0.79394 0.8669 0.45363 0.0
H513 H 0.8033 0.86275 0.35948 0.0
H514 H 0.85284 0.93004 0.36834 0.0
H515 H 0.84426 0.9335 0.46242 0.0
H516 H 0.90475 0.92673 0.87788 0.0
H517 H 0.8916 0.92872 0.9702 0.0
H518 H 0.84567 0.85957 0.949 0.0
H519 H 0.85804 0.85824 0.8562 0.0
Pr520 Pr 0.89662 0.13383 0.33102 0.0
Pr521 Pr 0.89864 0.16958 0.42007 0.0
C522 C 0.89418 0.11287 0.23358 0.0
C523 C 0.89315 0.12234 0.17829 0.0
C524 C 0.91532 0.12081 0.14644 0.0
C525 C 0.9147 0.12894 0.09386 0.0
C526 C 0.89183 0.13873 0.07162 0.0
C527 C 0.86966 0.14051 0.10358 0.0
C528 C 0.87031 0.13245 0.15639 0.0
C529 C 0.94468 0.13569 0.3815 0.0
C530 C 0.89985 0.19579 0.30463 0.0
C531 C 0.90693 0.19171 0.51542 0.0
C532 C 0.90361 0.18555 0.57237 0.0
C533 C 0.8797 0.18895 0.59802 0.0
C534 C 0.87729 0.1844 0.65238 0.0
C535 C 0.89875 0.17648 0.68235 0.0
C536 C 0.92249 0.17272 0.65643 0.0
C537 C 0.9249 0.17727 0.60226 0.0
C538 C 0.84883 0.16573 0.37976 0.0
C539 C 0.88602 0.10562 0.43969 0.0
O540 O 0.8738 0.11615 0.26345 0.0
O541 O 0.91583 0.11675 0.25887 0.0
O542 O 0.9317 0.1554 0.36847 0.0
O543 O 0.93275 0.11444 0.36936 0.0
O544 O 0.91001 0.19922 0.35211 0.0
O545 O 0.88879 0.17375 0.29293 0.0
O546 O 0.92469 0.17898 0.48949 0.0
O547 O 0.88617 0.19575 0.48732 0.0
O548 O 0.86367 0.14663 0.38707 0.0
O549 O 0.86003 0.18746 0.39163 0.0
O550 O 0.88101 0.10323 0.38901 0.0
O551 O 0.89546 0.12756 0.45906 0.0
H552 H 0.93317 0.11301 0.16203 0.0
H553 H 0.93204 0.12693 0.07026 0.0
H554 H 0.85181 0.14824 0.08787 0.0
H555 H 0.85289 0.13402 0.17985 0.0
H556 H 0.8629 0.1955 0.57634 0.0
H557 H 0.85878 0.18775 0.67111 0.0
H558 H 0.93933 0.16621 0.67801 0.0
H559 H 0.9436 0.17455 0.58386 0.0
Pr560 Pr 0.1715 0.11153 0.61386 0.0
Pr561 Pr 0.13378 0.10598 0.71174 0.0
C562 C 0.19482 0.11001 0.51899 0.0
C563 C 0.18809 0.11009 0.46241 0.0
C564 C 0.19534 0.13137 0.43138 0.0
C565 C 0.18962 0.13195 0.37761 0.0
C566 C 0.17659 0.11118 0.35369 0.0
C567 C 0.16928 0.08985 0.38475 0.0
C568 C 0.17494 0.08931 0.4387 0.0
C569 C 0.1635 0.15684 0.67009 0.0
C570 C 0.10582 0.11658 0.5988 0.0
C571 C 0.11186 0.11728 0.80475 0.0
C572 C 0.12024 0.11572 0.8605 0.0
C573 C 0.11468 0.09378 0.8912 0.0
C574 C 0.12248 0.0926 0.94396 0.0
C575 C 0.13596 0.11336 0.96703 0.0
C576 C 0.14182 0.13511 0.93611 0.0
C577 C 0.13399 0.13632 0.88353 0.0
C578 C 0.14185 0.05689 0.66559 0.0
C579 C 0.19745 0.10067 0.73111 0.0
O580 O 0.18971 0.08917 0.54657 0.0
O581 O 0.19037 0.13147 0.54471 0.0
O582 O 0.1461 0.14054 0.6584 0.0
O583 O 0.18612 0.1491 0.65434 0.0
O584 O 0.10232 0.11483 0.65027 0.0
O585 O 0.12911 0.1151 0.57647 0.0
O586 O 0.12374 0.13447 0.77553 0.0
O587 O 0.10734 0.09549 0.77985 0.0
O588 O 0.15154 0.07819 0.65237 0.0
O589 O 0.12696 0.06047 0.7063 0.0
O590 O 0.20198 0.09981 0.67953 0.0
O591 O 0.17432 0.10473 0.75078 0.0
H592 H 0.20564 0.14754 0.44871 0.0
H593 H 0.19584 0.14848 0.35461 0.0
H594 H 0.15894 0.07369 0.3675 0.0
H595 H 0.16902 0.07266 0.46167 0.0
H596 H 0.10408 0.07762 0.87466 0.0
H597 H 0.11741 0.07569 0.967 0.0
H598 H 0.15251 0.15125 0.9525 0.0
H599 H 0.13869 0.15351 0.86103 0.0
Pr600 Pr 0.10691 0.872 0.328 0.0
Pr601 Pr 0.10499 0.8349 0.42494 0.0
C602 C 0.11232 0.89242 0.23116 0.0
C603 C 0.11231 0.88271 0.17635 0.0
C604 C 0.09412 0.8925 0.14066 0.0
C605 C 0.09408 0.88438 0.08815 0.0
C606 C 0.11241 0.86638 0.07002 0.0
C607 C 0.13014 0.8559 0.1062 0.0
C608 C 0.13006 0.86394 0.15898 0.0
C609 C 0.06016 0.8711 0.38259 0.0
C610 C 0.09908 0.80858 0.3065 0.0
C611 C 0.08912 0.81531 0.51793 0.0
C612 C 0.09501 0.81935 0.57468 0.0
C613 C 0.11517 0.80607 0.6003 0.0
C614 C 0.12022 0.81045 0.65402 0.0
C615 C 0.1053 0.82827 0.6828 0.0
C616 C 0.08502 0.8412 0.65721 0.0
C617 C 0.07991 0.83676 0.60401 0.0
C618 C 0.15675 0.83975 0.39842 0.0
C619 C 0.12145 0.89844 0.43895 0.0
O620 O 0.13203 0.88643 0.26116 0.0
O621 O 0.09017 0.89154 0.25593 0.0
O622 O 0.07349 0.85129 0.37139 0.0
O623 O 0.0707 0.89212 0.36441 0.0
O624 O 0.09725 0.80374 0.35786 0.0
O625 O 0.10361 0.83185 0.28793 0.0
O626 O 0.07778 0.83462 0.49398 0.0
O627 O 0.10638 0.80371 0.48834 0.0
O628 O 0.13855 0.85096 0.37414 0.0
O629 O 0.14823 0.8247 0.43537 0.0
O630 O 0.12476 0.90065 0.38759 0.0
O631 O 0.11186 0.87705 0.46048 0.0
H632 H 0.08002 0.90669 0.15331 0.0
H633 H 0.07976 0.89238 0.06163 0.0
H634 H 0.14456 0.84208 0.09344 0.0
H635 H 0.14412 0.85576 0.18586 0.0
H636 H 0.12705 0.79239 0.57892 0.0
H637 H 0.13599 0.80022 0.67278 0.0
H638 H 0.07278 0.85461 0.67853 0.0
H639 H 0.064 0.84704 0.58587 0.0
H640 H 0.40116 0.94981 0.37783 0.0
H641 H 0.33298 0.02351 0.14122 0.0
H642 H 0.36254 0.90598 0.2562 0.0
H643 H 0.40706 0.04689 0.20295 0.0
H644 H 0.33568 0.9835 0.19437 0.0
H645 H 0.39565 0.98908 0.32515 0.0
C646 C 0.39137 0.94851 0.34008 0.0
C647 C 0.3824 0.92463 0.32112 0.0
C648 C 0.35125 0.99748 0.19607 0.0
C649 C 0.37555 0.96961 0.26126 0.0
C650 C 0.34967 0.02029 0.16616 0.0
C651 C 0.36996 0.03835 0.1674 0.0
C652 C 0.37289 0.99324 0.22846 0.0
C653 C 0.39114 0.03333 0.2004 0.0
C654 C 0.38831 0.97089 0.31006 0.0
C655 C 0.36993 0.92402 0.27187 0.0
N656 N 0.39196 0.01139 0.22986 0.0
N657 N 0.36664 0.94628 0.24368 0.0
H658 H 0.9469 0.63732 0.65873 0.0
H659 H 0.01119 0.63485 0.94683 0.0
H660 H 0.90428 0.61454 0.79782 0.0
H661 H 0.05431 0.63733 0.80167 0.0
H662 H 0.97082 0.6328 0.89536 0.0
H663 H 0.98518 0.64371 0.71296 0.0
C664 C 0.94549 0.6337 0.70077 0.0
C665 C 0.92223 0.62517 0.72356 0.0
C666 C 0.9891 0.6344 0.87481 0.0
C667 C 0.96643 0.63252 0.78626 0.0
C668 C 0.01207 0.63572 0.9041 0.0
C669 C 0.03599 0.63763 0.8783 0.0
C670 C 0.99016 0.63489 0.81932 0.0
C671 C 0.03624 0.63765 0.82302 0.0
C672 C 0.96748 0.63734 0.73176 0.0
C673 C 0.92178 0.62102 0.77844 0.0
N674 N 0.01373 0.63647 0.7954 0.0
N675 N 0.94357 0.62467 0.80793 0.0
H676 H 0.6033 0.957 0.21226 0.0
H677 H 0.64184 0.10292 0.25294 0.0
H678 H 0.67246 0.98549 0.13719 0.0
H679 H 0.61152 0.05624 0.37983 0.0
H680 H 0.64925 0.06307 0.20114 0.0
H681 H 0.60158 0.99621 0.26605 0.0
C682 C 0.61819 0.97156 0.20728 0.0
C683 C 0.63804 0.96809 0.17031 0.0
C684 C 0.64115 0.0617 0.24049 0.0
C685 C 0.63581 0.01332 0.23083 0.0
C686 C 0.63676 0.08435 0.26978 0.0
C687 C 0.62602 0.08284 0.32063 0.0
C688 C 0.63398 0.03763 0.26177 0.0
C689 C 0.61993 0.05831 0.34089 0.0
C690 C 0.61723 0.99387 0.23802 0.0
C691 C 0.65693 0.98748 0.16553 0.0
N692 N 0.62365 0.03677 0.31118 0.0
N693 N 0.65516 0.00957 0.19496 0.0
H694 H 0.94926 0.3684 0.79958 0.0
H695 H 0.10226 0.38984 0.79662 0.0
H696 H 0.99458 0.37092 0.94188 0.0
H697 H 0.05722 0.37175 0.65783 0.0
H698 H 0.06361 0.3831 0.85108 0.0
H699 H 0.98892 0.36895 0.74724 0.0
C700 C 0.96766 0.36798 0.81974 0.0
C701 C 0.96877 0.36812 0.87495 0.0
C702 C 0.06226 0.38049 0.80872 0.0
C703 C 0.01438 0.37097 0.81554 0.0
C704 C 0.08432 0.38438 0.77758 0.0
C705 C 0.08303 0.38151 0.72246 0.0
C706 C 0.03869 0.37385 0.78453 0.0
C707 C 0.05922 0.37432 0.70007 0.0
C708 C 0.99035 0.3689 0.78992 0.0
C709 C 0.99305 0.37006 0.89926 0.0
N710 N 0.03806 0.37089 0.73108 0.0
N711 N 0.01494 0.37149 0.86942 0.0
H712 H 0.38259 0.49568 0.1989 0.0
H713 H 0.36368 0.5592 0.91307 0.0
H714 H 0.34659 0.45624 0.06825 0.0
H715 H 0.39433 0.601 0.04685 0.0
H716 H 0.35625 0.52183 0.96985 0.0
H717 H 0.38579 0.53482 0.14488 0.0
C718 C 0.37508 0.49534 0.15896 0.0
C719 C 0.36412 0.47269 0.13817 0.0
C720 C 0.36451 0.53918 0.98692 0.0
C721 C 0.36804 0.51738 0.07567 0.0
C722 C 0.36883 0.56059 0.95444 0.0
C723 C 0.37979 0.58336 0.97507 0.0
C724 C 0.37128 0.54033 0.04058 0.0
C725 C 0.3859 0.5839 0.02912 0.0
C726 C 0.37695 0.5177 0.12809 0.0
C727 C 0.35482 0.47333 0.08611 0.0
N728 N 0.38169 0.56269 0.05989 0.0
N729 N 0.35714 0.49522 0.05655 0.0
H730 H 0.55556 0.60709 0.1284 0.0
H731 H 0.48411 0.67182 0.8852 0.0
H732 H 0.601 0.63904 1.00134 0.0
H733 H 0.4579 0.60076 0.95644 0.0
H734 H 0.5244 0.66876 0.93755 0.0
H735 H 0.51651 0.61343 0.07577 0.0
C736 C 0.5573 0.61557 0.08942 0.0
C737 C 0.58157 0.62238 0.06898 0.0
C738 C 0.50972 0.65394 0.9415 0.0
C739 C 0.53679 0.6302 1.00905 0.0
C740 C 0.48676 0.65576 0.91208 0.0
C741 C 0.46784 0.63638 0.91629 0.0
C742 C 0.51318 0.63308 0.97635 0.0
C743 C 0.47214 0.61595 0.95161 0.0
C744 C 0.53502 0.61913 0.05945 0.0
C745 C 0.58266 0.63327 1.0182 0.0
N746 N 0.4942 0.61495 0.98052 0.0
N747 N 0.56049 0.63707 0.98995 0.0
H748 H 0.6778 0.5373 0.10211 0.0
H749 H 0.59918 0.40843 0.03507 0.0
H750 H 0.59857 0.52475 0.14837 0.0
H751 H 0.65702 0.43806 0.92813 0.0
H752 H 0.6048 0.4468 0.0904 0.0
H753 H 0.67617 0.49694 0.05017 0.0
C754 C 0.66015 0.52605 0.10153 0.0
C755 C 0.63819 0.53452 0.12914 0.0
C756 C 0.61639 0.44481 0.055 0.0
C757 C 0.63647 0.48824 0.07143 0.0
C758 C 0.61331 0.42285 0.02354 0.0
C759 C 0.62758 0.42007 0.9768 0.0
C760 C 0.63421 0.464 0.04026 0.0
C761 C 0.64549 0.43953 0.9637 0.0
C762 C 0.65925 0.50309 0.07195 0.0
C763 C 0.61591 0.51904 0.1275 0.0
N764 N 0.64836 0.46068 0.99535 0.0
N765 N 0.61567 0.49665 0.09944 0.0
H766 H 0.40462 0.36365 1.00252 0.0
H767 H 0.54868 0.41054 0.95305 0.0
H768 H 0.4483 0.40665 0.11815 0.0
H769 H 0.52266 0.33789 0.88846 0.0
H770 H 0.5091 0.41314 1.00545 0.0
H771 H 0.44469 0.35756 0.95089 0.0
C772 C 0.42254 0.37196 1.01674 0.0
C773 C 0.42314 0.38578 0.06449 0.0
C774 C 0.51201 0.39659 0.9799 0.0
C775 C 0.46867 0.37913 1.00585 0.0
C776 C 0.53455 0.39513 0.94988 0.0
C777 C 0.53884 0.37405 0.91621 0.0
C778 C 0.49317 0.37715 0.97535 0.0
C779 C 0.52002 0.35446 0.91404 0.0
C780 C 0.44537 0.36828 0.98762 0.0
C781 C 0.44693 0.39585 0.08158 0.0
N782 N 0.49776 0.35663 0.94271 0.0
N783 N 0.4686 0.39256 0.05211 0.0
H784 H 0.89647 0.4486 0.87838 0.0
H785 H 0.83628 0.51924 0.62949 0.0
H786 H 0.86903 0.40296 0.74707 0.0
H787 H 0.90357 0.54797 0.71098 0.0
H788 H 0.83942 0.47866 0.68085 0.0
H789 H 0.89038 0.48774 0.82611 0.0
C790 C 0.88902 0.44681 0.83855 0.0
C791 C 0.88335 0.42246 0.8169 0.0
C792 C 0.85339 0.49395 0.68732 0.0
C793 C 0.87595 0.46738 0.75719 0.0
C794 C 0.85151 0.51706 0.65848 0.0
C795 C 0.86982 0.53678 0.66596 0.0
C796 C 0.87318 0.49112 0.72486 0.0
C797 C 0.88924 0.5331 0.70376 0.0
C798 C 0.88563 0.46917 0.80876 0.0
C799 C 0.87384 0.42137 0.76497 0.0
N800 N 0.89028 0.51084 0.73209 0.0
N801 N 0.87022 0.4436 0.73683 0.0
H802 H 0.53646 0.17706 0.34898 0.0
H803 H 0.40604 0.10125 0.28568 0.0
H804 H 0.52411 0.09728 0.39192 0.0
H805 H 0.43768 0.15514 0.17265 0.0
H806 H 0.44478 0.10665 0.33996 0.0
H807 H 0.49606 0.17585 0.29727 0.0
C808 C 0.52534 0.15933 0.34751 0.0
C809 C 0.53395 0.13707 0.37397 0.0
C810 C 0.44313 0.11742 0.30344 0.0
C811 C 0.4874 0.13596 0.31719 0.0
C812 C 0.42097 0.11447 0.27255 0.0
C813 C 0.41864 0.12765 0.22437 0.0
C814 C 0.46296 0.13406 0.2867 0.0
C815 C 0.43876 0.14445 0.20935 0.0
C816 C 0.50231 0.1587 0.3182 0.0
C817 C 0.51841 0.11482 0.37174 0.0
N818 N 0.46008 0.14724 0.24047 0.0
N819 N 0.49588 0.11488 0.34422 0.0
H820 H 0.1339 0.60443 0.74353 0.0
H821 H 0.10955 0.45321 0.72232 0.0
H822 H 0.11494 0.55702 0.87829 0.0
H823 H 0.16479 0.49015 0.61971 0.0
H824 H 0.10701 0.49287 0.77492 0.0
H825 H 0.14101 0.5647 0.6913 0.0
C826 C 0.13118 0.58574 0.76202 0.0
C827 C 0.12383 0.58404 0.81531 0.0
C828 C 0.1198 0.49233 0.74107 0.0
C829 C 0.13155 0.5388 0.756 0.0
C830 C 0.12124 0.46973 0.71111 0.0
C831 C 0.13744 0.4685 0.66687 0.0
C832 C 0.13406 0.51423 0.72581 0.0
C833 C 0.15222 0.49038 0.65389 0.0
C834 C 0.13541 0.56314 0.7324 0.0
C835 C 0.12073 0.55932 0.83745 0.0
N836 N 0.14991 0.51257 0.68282 0.0
N837 N 0.12433 0.53778 0.80765 0.0
H838 H 0.602 0.86539 0.28662 0.0
H839 H 0.45699 0.90591 0.33292 0.0
H840 H 0.55541 0.89831 0.16254 0.0
H841 H 0.48482 0.83514 0.40237 0.0
H842 H 0.49613 0.90829 0.27905 0.0
H843 H 0.56241 0.85867 0.33944 0.0
C844 C 0.5835 0.87126 0.27069 0.0
C845 C 0.5819 0.88244 0.22029 0.0
C846 C 0.49368 0.8922 0.30598 0.0
C847 C 0.53702 0.87523 0.28026 0.0
C848 C 0.47142 0.89086 0.33678 0.0
C849 C 0.46779 0.87034 0.37212 0.0
C850 C 0.51288 0.87328 0.31155 0.0
C851 C 0.48696 0.85122 0.37537 0.0
C852 C 0.561 0.86725 0.30053 0.0
C853 C 0.55748 0.88954 0.20114 0.0
N854 N 0.50898 0.85333 0.34594 0.0
N855 N 0.53608 0.88612 0.23136 0.0
H856 H 0.83062 0.96595 0.59675 0.0
H857 H 0.90814 0.09617 0.53588 0.0
H858 H 0.90857 0.9791 0.65057 0.0
H859 H 0.85407 0.064 0.42387 0.0
H860 H 0.90244 0.05774 0.59146 0.0
H861 H 0.83308 0.00625 0.54516 0.0
C862 C 0.84817 0.97731 0.59785 0.0
C863 C 0.86955 0.96898 0.62738 0.0
C864 C 0.89174 0.0592 0.55482 0.0
C865 C 0.87218 0.01532 0.57014 0.0
C866 C 0.89489 0.08115 0.52322 0.0
C867 C 0.88168 0.08321 0.47505 0.0
C868 C 0.87486 0.03941 0.5387 0.0
C869 C 0.8648 0.06309 0.46052 0.0
C870 C 0.84955 1.00027 0.56851 0.0
C871 C 0.89171 0.98468 0.62804 0.0
N872 N 0.86179 0.04206 0.49229 0.0
N873 N 0.8924 0.00712 0.60012 0.0
H874 H 0.05631 0.10449 0.62473 0.0
H875 H 0.98653 0.16887 0.37725 0.0
H876 H 0.10158 0.13798 0.49889 0.0
H877 H 0.95624 0.10288 0.46088 0.0
H878 H 0.02681 0.16544 0.42947 0.0
H879 H 0.0173 0.11154 0.57309 0.0
C880 C 0.05809 0.11337 0.58615 0.0
C881 C 0.08237 0.12047 0.56597 0.0
C882 C 0.01124 0.15183 0.43627 0.0
C883 C 0.03739 0.12891 0.50671 0.0
C884 C 0.98828 0.15389 0.40692 0.0
C885 C 0.96822 0.13598 0.41462 0.0
C886 C 0.01363 0.13223 0.47443 0.0
C887 C 0.97138 0.11688 0.45334 0.0
C888 C 0.03575 0.11735 0.55666 0.0
C889 C 0.0833 0.13195 0.51567 0.0
N890 N 0.99353 0.11562 0.48194 0.0
N891 N 0.06107 0.13596 0.48774 0.0
H892 H 0.14138 0.94556 0.40932 0.0
H893 H 0.12635 0.00893 0.69638 0.0
H894 H 0.11528 0.90332 0.54644 0.0
H895 H 0.15832 0.04975 0.56315 0.0
H896 H 0.12381 0.96967 0.64267 0.0
H897 H 0.14911 0.98333 0.46515 0.0
C898 C 0.13737 0.94412 0.45122 0.0
C899 C 0.12752 0.92112 0.47306 0.0
C900 C 0.1316 0.98712 0.62517 0.0
C901 C 0.13634 0.96459 0.53738 0.0
C902 C 0.13309 0.00955 0.65588 0.0
C903 C 0.14267 0.03262 0.6343 0.0
C904 C 0.13946 0.98774 0.57207 0.0
C905 C 0.15107 0.03233 0.58155 0.0
C906 C 0.14183 0.96577 0.4831 0.0
C907 C 0.1228 0.92057 0.52769 0.0
N908 N 0.14909 0.01031 0.55211 0.0
N909 N 0.12712 0.94198 0.55782 0.0
H910 H 0.0258 0.91053 0.38963 0.0
H911 H 0.93989 0.85293 0.61697 0.0
H912 H 0.03659 0.83132 0.43798 0.0
H913 H 0.90814 0.90519 0.50118 0.0
H914 H 0.97812 0.84718 0.56069 0.0
H915 H 0.98508 0.91163 0.43842 0.0
C916 C 0.01967 0.89336 0.41071 0.0
C917 C 0.03491 0.87094 0.41047 0.0
C918 C 0.96264 0.85969 0.54753 0.0
C919 C 0.98844 0.8723 0.46732 0.0
C920 C 0.9409 0.86312 0.57965 0.0
C921 C 0.92081 0.87967 0.56381 0.0
C922 C 0.96461 0.87342 0.49991 0.0
C923 C 0.92312 0.89225 0.51494 0.0
C924 C 0.99637 0.89401 0.43838 0.0
C925 C 0.02578 0.84919 0.43809 0.0
N926 N 0.94478 0.88916 0.4851 0.0
N927 N 0.00331 0.85054 0.46623 0.0
H928 H 0.29819 0.19086 0.15003 0.0
H929 H 0.3838 0.31971 0.1443 0.0
H930 H 0.38095 0.18695 0.13359 0.0
H931 H 0.30467 0.31456 0.19675 0.0
H932 H 0.38451 0.27224 0.13404 0.0
H933 H 0.30086 0.23767 0.15491 0.0
C934 C 0.31695 0.20004 0.14657 0.0
C935 C 0.33935 0.18519 0.14139 0.0
C936 C 0.36716 0.28158 0.14836 0.0
C937 C 0.34281 0.23894 0.14894 0.0
C938 C 0.36682 0.30855 0.15478 0.0
C939 C 0.34409 0.32099 0.17136 0.0
C940 C 0.34456 0.26725 0.15827 0.0
C941 C 0.32254 0.30576 0.18369 0.0
C942 C 0.31854 0.22678 0.14992 0.0
C943 C 0.36323 0.19792 0.13706 0.0
N944 N 0.32326 0.27983 0.17647 0.0
N945 N 0.36442 0.22423 0.14156 0.0
H946 H 0.31351 0.70491 0.87504 0.0
H947 H 0.18633 0.61901 0.89806 0.0
H948 H 0.31828 0.62204 0.89227 0.0
H949 H 0.1895 0.70144 0.92162 0.0
H950 H 0.23403 0.61783 0.89803 0.0
H951 H 0.26719 0.70256 0.8891 0.0
C952 C 0.30473 0.68614 0.8814 0.0
C953 C 0.31975 0.66367 0.88255 0.0
C954 C 0.22422 0.63604 0.90457 0.0
C955 C 0.26645 0.66076 0.89941 0.0
C956 C 0.19711 0.63664 0.90531 0.0
C957 C 0.18426 0.66036 0.91018 0.0
C958 C 0.23814 0.65938 0.90825 0.0
C959 C 0.19885 0.6828 0.91794 0.0
C960 C 0.27825 0.6848 0.88994 0.0
C961 C 0.3073 0.63983 0.89085 0.0
N962 N 0.22496 0.6818 0.91618 0.0
N963 N 0.28126 0.63896 0.899 0.0
H964 H 0.69639 0.81483 0.07708 0.0
H965 H 0.6269 0.6887 0.19528 0.0
H966 H 0.62464 0.81895 0.1631 0.0
H967 H 0.69877 0.68902 0.10889 0.0
H968 H 0.62372 0.73586 0.18172 0.0
H969 H 0.69495 0.7678 0.08302 0.0
C970 C 0.68014 0.80568 0.09661 0.0
C971 C 0.66062 0.82059 0.11946 0.0
C972 C 0.6401 0.72549 0.16568 0.0
C973 C 0.6591 0.7668 0.12814 0.0
C974 C 0.64195 0.6987 0.17362 0.0
C975 C 0.66326 0.68507 0.15381 0.0
C976 C 0.65951 0.73842 0.13701 0.0
C977 C 0.6822 0.69878 0.12571 0.0
C978 C 0.67934 0.77885 0.10035 0.0
C979 C 0.63995 0.80795 0.14452 0.0
N980 N 0.67981 0.72457 0.11807 0.0
N981 N 0.63987 0.78169 0.14882 0.0
H982 H 0.81775 0.31588 0.95722 0.0
H983 H 0.68469 0.38169 0.86612 0.0
H984 H 0.81685 0.38462 0.86146 0.0
H985 H 0.69291 0.30453 0.92837 0.0
H986 H 0.73211 0.38711 0.87194 0.0
H987 H 0.77062 0.31657 0.96021 0.0
C988 C 0.80751 0.33169 0.93851 0.0
C989 C 0.82095 0.35051 0.91007 0.0
C990 C 0.7234 0.36898 0.8839 0.0
C991 C 0.76705 0.35082 0.91071 0.0
C992 C 0.69649 0.36581 0.88001 0.0
C993 C 0.685 0.34261 0.89669 0.0
C994 C 0.73858 0.34882 0.90474 0.0
C995 C 0.70098 0.32277 0.9153 0.0
C996 C 0.78062 0.33188 0.93935 0.0
C997 C 0.80694 0.37012 0.88477 0.0
N998 N 0.72682 0.32636 0.91897 0.0
N999 N 0.78061 0.36968 0.88522 0.0
H1000 H 0.88158 0.68661 0.6313 0.0
H1001 H 0.79782 0.8148 0.67641 0.0
H1002 H 0.7984 0.69002 0.62291 0.0
H1003 H 0.88033 0.81746 0.65285 0.0
H1004 H 0.79885 0.76804 0.66518 0.0
H1005 H 0.88268 0.73379 0.64362 0.0
C1006 C 0.8636 0.69731 0.63132 0.0
C1007 C 0.83984 0.6844 0.62622 0.0
C1008 C 0.8168 0.77875 0.66263 0.0
C1009 C 0.84093 0.73805 0.64131 0.0
C1010 C 0.81623 0.80546 0.66944 0.0
C1011 C 0.83899 0.82003 0.66532 0.0
C1012 C 0.84032 0.76634 0.65162 0.0
C1013 C 0.86233 0.8069 0.65639 0.0
C1014 C 0.86424 0.72417 0.63869 0.0
C1015 C 0.81714 0.69915 0.62687 0.0
N1016 N 0.8624 0.78075 0.64954 0.0
N1017 N 0.81825 0.72508 0.63467 0.0
H1018 H 0.81478 0.20472 0.36648 0.0
H1019 H 0.68643 0.1205 0.40643 0.0
H1020 H 0.81827 0.12248 0.3941 0.0
H1021 H 0.68985 0.20374 0.40436 0.0
H1022 H 0.73416 0.11925 0.40367 0.0
H1023 H 0.76822 0.20325 0.37745 0.0
C1024 C 0.80565 0.18626 0.37446 0.0
C1025 C 0.82039 0.16373 0.37954 0.0
C1026 C 0.7244 0.13775 0.40493 0.0
C1027 C 0.76679 0.16184 0.39298 0.0
C1028 C 0.69727 0.13844 0.40727 0.0
C1029 C 0.68441 0.16229 0.40615 0.0
C1030 C 0.73836 0.16107 0.40122 0.0
C1031 C 0.69914 0.18499 0.40555 0.0
C1032 C 0.77901 0.18542 0.38114 0.0
C1033 C 0.80752 0.1403 0.38971 0.0
N1034 N 0.72522 0.18382 0.40274 0.0
N1035 N 0.78136 0.13994 0.3963 0.0
H1036 H 0.13382 0.31471 0.57284 0.0
H1037 H 0.1888 0.19187 0.73023 0.0
H1038 H 0.18993 0.31846 0.69845 0.0
H1039 H 0.12844 0.18525 0.61383 0.0
H1040 H 0.18685 0.23892 0.7224 0.0
H1041 H 0.12979 0.26769 0.58792 0.0
C1042 C 0.14521 0.30561 0.60353 0.0
C1043 C 0.16256 0.32028 0.63379 0.0
C1044 C 0.17374 0.22731 0.69893 0.0
C1045 C 0.15766 0.26704 0.65221 0.0
C1046 C 0.17474 0.20047 0.70384 0.0
C1047 C 0.15854 0.18483 0.67327 0.0
C1048 C 0.15686 0.23865 0.66206 0.0
C1049 C 0.14093 0.19679 0.63886 0.0
C1050 C 0.14286 0.27889 0.61229 0.0
C1051 C 0.17676 0.30775 0.67339 0.0
N1052 N 0.14077 0.22303 0.63362 0.0
N1053 N 0.17397 0.28197 0.68141 0.0
H1054 H 0.31506 0.80067 0.43112 0.0
H1055 H 0.18651 0.8833 0.3811 0.0
H1056 H 0.31815 0.88257 0.39933 0.0
H1057 H 0.18998 0.80029 0.39371 0.0
H1058 H 0.23422 0.88486 0.38516 0.0
H1059 H 0.26849 0.8016 0.41953 0.0
C1060 C 0.30583 0.81896 0.42222 0.0
C1061 C 0.32047 0.84154 0.41617 0.0
C1062 C 0.22448 0.86632 0.38604 0.0
C1063 C 0.26687 0.84279 0.40184 0.0
C1064 C 0.19737 0.86543 0.38301 0.0
C1065 C 0.18452 0.84161 0.38687 0.0
C1066 C 0.23845 0.8432 0.39301 0.0
C1067 C 0.19925 0.81903 0.39063 0.0
C1068 C 0.2792 0.81948 0.41514 0.0
C1069 C 0.30748 0.86473 0.40463 0.0
N1070 N 0.22532 0.8204 0.39394 0.0
N1071 N 0.28134 0.86476 0.3976 0.0
H1072 H 0.23597 0.13508 0.75393 0.0
H1073 H 0.27122 0.06686 0.031 0.0
H1074 H 0.20342 0.06227 0.80274 0.0
H1075 H 0.2995 0.14156 0.98221 0.0
H1076 H 0.24612 0.06421 0.94827 0.0
H1077 H 0.26124 0.13644 0.83598 0.0
C1078 C 0.23497 0.11888 0.78098 0.0
C1079 C 0.21826 0.09812 0.7708 0.0
C1080 C 0.25759 0.08132 0.9561 0.0
C1081 C 0.24613 0.1 0.86609 0.0
C1082 C 0.27158 0.08297 1.00369 0.0
C1083 C 0.28731 0.10455 1.01375 0.0
C1084 C 0.25944 0.10136 0.91847 0.0
C1085 C 0.28759 0.12458 0.97618 0.0
C1086 C 0.24899 0.11985 0.82836 0.0
C1087 C 0.21666 0.07826 0.80854 0.0
N1088 N 0.27408 0.12245 0.93037 0.0
N1089 N 0.23033 0.07968 0.85446 0.0
H1090 H 0.07101 0.73883 0.99958 0.0
H1091 H 0.1272 0.76395 0.29254 0.0
H1092 H 0.13684 0.69937 0.06555 0.0
H1093 H 0.06597 0.80925 0.22427 0.0
H1094 H 0.12902 0.73814 0.21097 0.0
H1095 H 0.06809 0.76485 0.08121 0.0
C1096 C 0.0852 0.7361 0.03052 0.0
C1097 C 0.10424 0.71698 0.02564 0.0
C1098 C 0.11485 0.75345 0.21414 0.0
C1099 C 0.10058 0.7459 0.11954 0.0
C1100 C 0.11352 0.76783 0.26114 0.0
C1101 C 0.09599 0.78833 0.26559 0.0
C1102 C 0.09857 0.75969 0.17128 0.0
C1103 C 0.07943 0.79325 0.22271 0.0
C1104 C 0.08334 0.75065 0.07743 0.0
C1105 C 0.1218 0.71388 0.06762 0.0
N1106 N 0.08115 0.77916 0.17743 0.0
N1107 N 0.11944 0.72795 0.11265 0.0
H1108 H 0.7003 0.86498 0.97507 0.0
H1109 H 0.81115 0.93849 0.81494 0.0
H1110 H 0.73675 0.93401 0.03543 0.0
H1111 H 0.76276 0.87912 0.74814 0.0
H1112 H 0.78544 0.93725 0.89625 0.0
H1113 H 0.72552 0.86864 0.89461 0.0
C1114 C 0.71398 0.88079 0.97176 0.0
C1115 C 0.7163 0.89929 1.01228 0.0
C1116 C 0.78005 0.92487 0.86353 0.0
C1117 C 0.74533 0.90374 0.91886 0.0
C1118 C 0.79449 0.92581 0.81685 0.0
C1119 C 0.78855 0.90945 0.77419 0.0
C1120 C 0.75982 0.90695 0.8682 0.0
C1121 C 0.76746 0.89264 0.77939 0.0
C1122 C 0.72826 0.88295 0.92537 0.0
C1123 C 0.73448 0.91919 1.00556 0.0
N1124 N 0.754 0.89168 0.8257 0.0
N1125 N 0.74823 0.92098 0.95951 0.0
H1126 H 0.87706 0.26419 0.9961 0.0
H1127 H 0.93432 0.23646 0.28714 0.0
H1128 H 0.93879 0.30878 0.06523 0.0
H1129 H 0.86702 0.19887 0.22175 0.0
H1130 H 0.9376 0.26253 0.20575 0.0
H1131 H 0.87561 0.23753 0.07652 0.0
C1132 C 0.89085 0.26781 0.02744 0.0
C1133 C 0.90831 0.28846 0.02369 0.0
C1134 C 0.92205 0.24864 0.20957 0.0
C1135 C 0.90629 0.25872 0.11656 0.0
C1136 C 0.92003 0.234 0.25631 0.0
C1137 C 0.90045 0.21537 0.26145 0.0
C1138 C 0.90443 0.24449 0.16781 0.0
C1139 C 0.88263 0.21281 0.21964 0.0
C1140 C 0.88976 0.25291 0.07378 0.0
C1141 C 0.92519 0.29286 0.06637 0.0
N1142 N 0.88515 0.22697 0.1748 0.0
N1143 N 0.92371 0.27825 0.11095 0.0
H1144 H 0.2687 0.43701 0.25082 0.0
H1145 H 0.24086 0.37535 0.5379 0.0
H1146 H 0.30368 0.36714 0.30978 0.0
H1147 H 0.1962 0.43828 0.47461 0.0
H1148 H 0.26645 0.37458 0.45614 0.0
H1149 H 0.24236 0.43923 0.33221 0.0
C1150 C 0.27037 0.42185 0.2801 0.0
C1151 C 0.28837 0.40185 0.27338 0.0
C1152 C 0.25135 0.38891 0.46041 0.0
C1153 C 0.25915 0.40468 0.36705 0.0
C1154 C 0.2371 0.38962 0.50755 0.0
C1155 C 0.21697 0.40744 0.5136 0.0
C1156 C 0.24533 0.40606 0.41887 0.0
C1157 C 0.21206 0.4247 0.47191 0.0
C1158 C 0.25565 0.42329 0.32688 0.0
C1159 C 0.29012 0.38299 0.3133 0.0
N1160 N 0.22608 0.42361 0.42639 0.0
N1161 N 0.27598 0.38498 0.35826 0.0
H1162 H 0.43398 0.73696 0.78809 0.0
H1163 H 0.37688 0.76367 0.49663 0.0
H1164 H 0.36636 0.69978 0.72318 0.0
H1165 H 0.43761 0.80965 0.56538 0.0
H1166 H 0.37567 0.73732 0.5774 0.0
H1167 H 0.43737 0.76293 0.7065 0.0
C1168 C 0.41963 0.73458 0.75734 0.0
C1169 C 0.39992 0.71609 0.76267 0.0
C1170 C 0.38963 0.75288 0.57452 0.0
C1171 C 0.40406 0.74506 0.66881 0.0
C1172 C 0.3906 0.76758 0.52796 0.0
C1173 C 0.40788 0.78836 0.52382 0.0
C1174 C 0.40595 0.75912 0.61735 0.0
C1175 C 0.42444 0.79336 0.56665 0.0
C1176 C 0.42172 0.74915 0.7105 0.0
C1177 C 0.38205 0.71361 0.72094 0.0
N1178 N 0.42307 0.77894 0.61157 0.0
N1179 N 0.38465 0.72768 0.67601 0.0
H1180 H 0.69879 0.63859 0.31732 0.0
H1181 H 0.81424 0.56944 0.46972 0.0
H1182 H 0.73793 0.57238 0.25129 0.0
H1183 H 0.76106 0.62225 0.54357 0.0
H1184 H 0.7882 0.57048 0.3889 0.0
H1185 H 0.724 0.63438 0.39736 0.0
C1186 C 0.71299 0.62324 0.31926 0.0
C1187 C 0.71605 0.6057 0.27711 0.0
C1188 C 0.78187 0.58142 0.42302 0.0
C1189 C 0.74527 0.60074 0.3703 0.0
C1190 C 0.79653 0.58061 0.46939 0.0
C1191 C 0.78939 0.59522 0.5139 0.0
C1192 C 0.7601 0.59747 0.42054 0.0
C1193 C 0.76684 0.6101 0.51079 0.0
C1194 C 0.7273 0.62079 0.3655 0.0
C1195 C 0.73499 0.58645 0.28239 0.0
N1196 N 0.75315 0.61102 0.46474 0.0
N1197 N 0.74885 0.58442 0.3283 0.0
H1198 H 0.57644 0.24204 0.49275 0.0
H1199 H 0.61874 0.26041 0.79722 0.0
H1200 H 0.63488 0.19658 0.571 0.0
H1201 H 0.57424 0.31708 0.71193 0.0
H1202 H 0.6206 0.23388 0.71642 0.0
H1203 H 0.57284 0.26878 0.57332 0.0
C1204 C 0.58875 0.23791 0.52628 0.0
C1205 C 0.60581 0.21685 0.52499 0.0
C1206 C 0.61014 0.252 0.71565 0.0
C1207 C 0.60119 0.24664 0.6177 0.0
C1208 C 0.60875 0.26689 0.76205 0.0
C1209 C 0.59607 0.29082 0.76147 0.0
C1210 C 0.59866 0.26108 0.66856 0.0
C1211 C 0.58407 0.29863 0.71417 0.0
C1212 C 0.58649 0.25295 0.57251 0.0
C1213 C 0.62111 0.2123 0.57014 0.0
N1214 N 0.5857 0.28392 0.66976 0.0
N1215 N 0.61825 0.22678 0.61447 0.0
H1216 H 0.29783 0.12879 0.50615 0.0
H1217 H 0.39563 0.09176 0.73872 0.0
H1218 H 0.37035 0.08898 0.48499 0.0
H1219 H 0.32565 0.13498 0.76701 0.0
H1220 H 0.38619 0.0917 0.64498 0.0
H1221 H 0.30758 0.13326 0.60075 0.0
C1222 C 0.31587 0.1212 0.52123 0.0
C1223 C 0.33313 0.10815 0.48767 0.0
C1224 C 0.37284 0.10129 0.67145 0.0
C1225 C 0.34425 0.11298 0.59552 0.0
C1226 C 0.37813 0.10114 0.72525 0.0
C1227 C 0.36126 0.11311 0.76104 0.0
C1228 C 0.35047 0.11355 0.65271 0.0
C1229 C 0.33925 0.12558 0.74082 0.0
C1230 C 0.32134 0.12363 0.57522 0.0
C1231 C 0.35615 0.09863 0.50942 0.0
N1232 N 0.33439 0.12537 0.6879 0.0
N1233 N 0.36092 0.10111 0.5618 0.0
H1234 H 0.08566 0.6375 0.55443 0.0
H1235 H 0.14011 0.678 0.2704 0.0
H1236 H 0.13173 0.70615 0.53012 0.0
H1237 H 0.08978 0.61293 0.30003 0.0
H1238 H 0.13948 0.68806 0.36518 0.0
H1239 H 0.08909 0.62765 0.46097 0.0
C1240 C 0.09643 0.6506 0.52934 0.0
C1241 C 0.10811 0.67289 0.55013 0.0
C1242 C 0.12858 0.67161 0.35075 0.0
C1243 C 0.11246 0.66149 0.44253 0.0
C1244 C 0.12903 0.66579 0.29679 0.0
C1245 C 0.11484 0.64468 0.2772 0.0
C1246 C 0.11396 0.65611 0.38516 0.0
C1247 C 0.10063 0.62966 0.31307 0.0
C1248 C 0.09851 0.64489 0.47587 0.0
C1249 C 0.12246 0.68873 0.5158 0.0
N1250 N 0.10055 0.63569 0.36513 0.0
N1251 N 0.12413 0.68279 0.46351 0.0
H1252 H 0.67731 0.85331 0.49813 0.0
H1253 H 0.64334 0.93728 0.7547 0.0
H1254 H 0.66377 0.93567 0.49744 0.0
H1255 H 0.64971 0.85407 0.75806 0.0
H1256 H 0.65354 0.93676 0.66094 0.0
H1257 H 0.66994 0.8529 0.59383 0.0
C1258 C 0.67289 0.87131 0.51805 0.0
C1259 C 0.671 0.89455 0.48954 0.0
C1260 C 0.65276 0.91857 0.68205 0.0
C1261 C 0.66251 0.89418 0.59884 0.0
C1262 C 0.64682 0.91885 0.73567 0.0
C1263 C 0.64533 0.89566 0.76426 0.0
C1264 C 0.65734 0.89492 0.65647 0.0
C1265 C 0.65073 0.87242 0.73763 0.0
C1266 C 0.66859 0.87103 0.57261 0.0
C1267 C 0.66499 0.91722 0.51744 0.0
N1268 N 0.65636 0.87262 0.68509 0.0
N1269 N 0.66097 0.91645 0.57037 0.0
H1270 H 0.92539 0.3375 0.27076 0.0
H1271 H 0.85925 0.35033 0.55523 0.0
H1272 H 0.85436 0.37921 0.29755 0.0
H1273 H 0.93127 0.31083 0.52561 0.0
H1274 H 0.8555 0.3592 0.46054 0.0
H1275 H 0.92647 0.32596 0.36393 0.0
C1276 C 0.91003 0.34429 0.2963 0.0
C1277 C 0.88988 0.35954 0.27639 0.0
C1278 C 0.87209 0.34855 0.47486 0.0
C1279 C 0.89084 0.34614 0.38324 0.0
C1280 C 0.87417 0.34335 0.52883 0.0
C1281 C 0.89571 0.32996 0.54848 0.0
C1282 C 0.89166 0.34024 0.44039 0.0
C1283 C 0.91457 0.32163 0.51247 0.0
C1284 C 0.91058 0.33758 0.34949 0.0
C1285 C 0.87018 0.36727 0.31114 0.0
N1286 N 0.91213 0.32698 0.4603 0.0
N1287 N 0.87122 0.3606 0.36301 0.0
H1288 H 0.36665 0.43461 0.53154 0.0
H1289 H 0.32899 0.35287 0.78842 0.0
H1290 H 0.35428 0.35203 0.53034 0.0
H1291 H 0.33996 0.43568 0.78819 0.0
H1292 H 0.33736 0.35217 0.69354 0.0
H1293 H 0.35612 0.43541 0.62548 0.0
C1294 C 0.36176 0.41664 0.5511 0.0
C1295 C 0.3615 0.39321 0.52316 0.0
C1296 C 0.33792 0.37049 0.71426 0.0
C1297 C 0.34929 0.39397 0.6306 0.0
C1298 C 0.33303 0.37093 0.76841 0.0
C1299 C 0.33377 0.39438 0.79638 0.0
C1300 C 0.34362 0.39367 0.68785 0.0
C1301 C 0.33954 0.41711 0.76846 0.0
C1302 C 0.35564 0.41711 0.60467 0.0
C1303 C 0.35453 0.37056 0.55025 0.0
N1304 N 0.34424 0.41618 0.71576 0.0
N1305 N 0.34882 0.37149 0.60256 0.0
H1306 H 0.40938 0.63065 0.23405 0.0
H1307 H 0.37549 0.68309 0.52356 0.0
H1308 H 0.37861 0.70704 0.26187 0.0
H1309 H 0.40886 0.60835 0.48984 0.0
H1310 H 0.3745 0.69214 0.42846 0.0
H1311 H 0.40764 0.6222 0.3283 0.0
C1312 C 0.40234 0.64574 0.25997 0.0
C1313 C 0.39443 0.66973 0.23978 0.0
C1314 C 0.38206 0.6738 0.44207 0.0
C1315 C 0.39199 0.65997 0.34849 0.0
C1316 C 0.38251 0.66855 0.49631 0.0
C1317 C 0.39246 0.64497 0.51496 0.0
C1318 C 0.39154 0.65531 0.40632 0.0
C1319 C 0.40152 0.62701 0.4777 0.0
C1320 C 0.4012 0.64083 0.31395 0.0
C1321 C 0.3848 0.68822 0.2755 0.0
N1322 N 0.40087 0.63258 0.4254 0.0
N1323 N 0.38395 0.68299 0.32819 0.0
H1324 H 0.63172 0.59284 0.80555 0.0
H1325 H 0.68163 0.63256 0.51755 0.0
H1326 H 0.70565 0.62943 0.77913 0.0
H1327 H 0.60926 0.59404 0.55017 0.0
H1328 H 0.69058 0.63363 0.6127 0.0
H1329 H 0.6231 0.59485 0.71141 0.0
C1330 C 0.64623 0.60124 0.77991 0.0
C1331 C 0.66959 0.6107 0.80037 0.0
C1332 C 0.67278 0.62494 0.59883 0.0
C1333 C 0.65964 0.61341 0.69193 0.0
C1334 C 0.66759 0.62443 0.5446 0.0
C1335 C 0.64474 0.61298 0.5257 0.0
C1336 C 0.65495 0.61399 0.63423 0.0
C1337 C 0.62737 0.60256 0.5626 0.0
C1338 C 0.64122 0.60252 0.72603 0.0
C1339 C 0.68733 0.622 0.76516 0.0
N1340 N 0.63288 0.60328 0.61488 0.0
N1341 N 0.68204 0.62294 0.71252 0.0
H1342 H 0.57381 0.34355 0.51774 0.0
H1343 H 0.64475 0.34367 0.23634 0.0
H1344 H 0.65179 0.37123 0.49542 0.0
H1345 H 0.56598 0.3191 0.26199 0.0
H1346 H 0.64918 0.35119 0.33158 0.0
H1347 H 0.57191 0.33221 0.42444 0.0
C1348 C 0.59054 0.34732 0.49321 0.0
C1349 C 0.6129 0.35862 0.51452 0.0
C1350 C 0.63096 0.34411 0.31624 0.0
C1351 C 0.61095 0.34537 0.40724 0.0
C1352 C 0.62846 0.33967 0.26191 0.0
C1353 C 0.60484 0.331 0.24085 0.0
C1354 C 0.60974 0.33977 0.34974 0.0
C1355 C 0.58437 0.32633 0.27603 0.0
C1356 C 0.58949 0.34069 0.43988 0.0
C1357 C 0.63419 0.36242 0.48086 0.0
N1358 N 0.58727 0.33087 0.3285 0.0
N1359 N 0.63264 0.35595 0.42883 0.0
H1360 H 0.79457 0.61823 1.01313 0.0
H1361 H 0.90146 0.60361 0.23918 0.0
H1362 H 0.87567 0.60437 0.98445 0.0
H1363 H 0.82123 0.61945 0.27315 0.0
H1364 H 0.89172 0.60428 0.14546 0.0
H1365 H 0.80353 0.62025 0.10796 0.0
C1366 C 0.81428 0.6158 0.02656 0.0
C1367 C 0.83436 0.61089 0.99047 0.0
C1368 C 0.87619 0.60765 0.17327 0.0
C1369 C 0.84461 0.61277 0.0991 0.0
C1370 C 0.8817 0.60703 0.22702 0.0
C1371 C 0.86211 0.61118 0.26439 0.0
C1372 C 0.85087 0.61256 0.15626 0.0
C1373 C 0.83701 0.61628 0.24585 0.0
C1374 C 0.81932 0.61678 0.0808 0.0
C1375 C 0.85943 0.60762 1.01054 0.0
N1376 N 0.83208 0.61675 0.19302 0.0
N1377 N 0.86377 0.60851 0.06334 0.0
H1378 H 0.61811 0.18599 0.76335 0.0
H1379 H 0.61276 0.13013 0.05781 0.0
H1380 H 0.61088 0.10522 0.80399 0.0
H1381 H 0.61252 0.21201 0.02458 0.0
H1382 H 0.61633 0.12132 0.96396 0.0
H1383 H 0.6204 0.19657 0.85789 0.0
C1384 C 0.6172 0.1705 0.79206 0.0
C1385 C 0.61401 0.1447 0.77578 0.0
C1386 C 0.61561 0.14127 0.97698 0.0
C1387 C 0.6165 0.15663 0.88343 0.0
C1388 C 0.61346 0.14631 0.0307 0.0
C1389 C 0.6119 0.17185 0.04913 0.0
C1390 C 0.61628 0.16187 0.94096 0.0
C1391 C 0.61366 0.19202 1.0121 0.0
C1392 C 0.61837 0.17656 0.84591 0.0
C1393 C 0.61279 0.12542 0.81463 0.0
N1394 N 0.61555 0.1866 0.95958 0.0
N1395 N 0.61394 0.13179 0.86645 0.0
H1396 H 0.16069 0.43329 0.26391 0.0
H1397 H 0.15877 0.35544 0.99039 0.0
H1398 H 0.13367 0.35455 0.24971 0.0
H1399 H 0.18285 0.43507 1.00618 0.0
H1400 H 0.1516 0.3537 0.08589 0.0
H1401 H 0.17082 0.43335 0.16988 0.0
C1402 C 0.15683 0.41601 0.24101 0.0
C1403 C 0.14612 0.39395 0.26475 0.0
C1404 C 0.15846 0.37153 0.06837 0.0
C1405 C 0.15791 0.3938 0.1569 0.0
C1406 C 0.16269 0.37251 1.01389 0.0
C1407 C 0.17125 0.39551 0.99005 0.0
C1408 C 0.16291 0.39368 0.09925 0.0
C1409 C 0.17576 0.41707 0.02253 0.0
C1410 C 0.16275 0.41601 0.18731 0.0
C1411 C 0.14209 0.37193 0.23322 0.0
N1412 N 0.17149 0.41564 0.07533 0.0
N1413 N 0.14787 0.37246 0.18085 0.0
H1414 H 0.35913 0.85755 0.05355 0.0
H1415 H 0.42542 0.83382 0.77179 0.0
H1416 H 0.42741 0.81121 0.03008 0.0
H1417 H 0.35761 0.88102 0.79403 0.0
H1418 H 0.42511 0.8236 0.86602 0.0
H1419 H 0.35688 0.86487 0.95802 0.0
C1420 C 0.37351 0.84877 0.02815 0.0
C1421 C 0.39357 0.83389 0.04955 0.0
C1422 C 0.41024 0.83614 0.85032 0.0
C1423 C 0.39115 0.84209 0.94065 0.0
C1424 C 0.41047 0.84202 0.79662 0.0
C1425 C 0.39158 0.85836 0.77527 0.0
C1426 C 0.3911 0.84685 0.88301 0.0
C1427 C 0.37241 0.86818 0.80893 0.0
C1428 C 0.37228 0.853 0.97375 0.0
C1429 C 0.41184 0.8231 1.01513 0.0
N1430 N 0.37275 0.86241 0.86126 0.0
N1431 N 0.4102 0.82742 0.96238 0.0
H1432 H 0.79538 0.88229 0.27619 0.0
H1433 H 0.90015 0.90617 0.04915 0.0
H1434 H 0.87447 0.90531 0.30437 0.0
H1435 H 0.82199 0.8814 1.01674 0.0
H1436 H 0.89049 0.90592 0.14299 0.0
H1437 H 0.80451 0.88074 0.18146 0.0
C1438 C 0.81471 0.88684 0.26265 0.0
C1439 C 0.83414 0.89411 0.29855 0.0
C1440 C 0.8754 0.90052 0.11546 0.0
C1441 C 0.84454 0.89279 0.19003 0.0
C1442 C 0.88084 0.90089 0.06166 0.0
C1443 C 0.86181 0.89401 0.02472 0.0
C1444 C 0.85074 0.89311 0.13289 0.0
C1445 C 0.83735 0.88665 0.04371 0.0
C1446 C 0.81983 0.88613 0.20847 0.0
C1447 C 0.85869 0.90013 0.27837 0.0
N1448 N 0.8325 0.88644 0.09654 0.0
N1449 N 0.86313 0.89941 0.22559 0.0
H1450 H 0.85309 0.13046 0.99918 0.0
H1451 H 0.93412 0.18955 0.75832 0.0
H1452 H 0.92898 0.16437 1.01467 0.0
H1453 H 0.8587 0.15496 0.73941 0.0
H1454 H 0.93152 0.18182 0.85298 0.0
H1455 H 0.85348 0.14119 0.90507 0.0
C1456 C 0.86973 0.14038 0.98298 0.0
C1457 C 0.8911 0.14638 1.01498 0.0
C1458 C 0.91548 0.17593 0.82824 0.0
C1459 C 0.89179 0.15842 0.90706 0.0
C1460 C 0.91703 0.18018 0.77398 0.0
C1461 C 0.89673 0.17265 0.74052 0.0
C1462 C 0.89344 0.16406 0.84963 0.0
C1463 C 0.87478 0.16122 0.76357 0.0
C1464 C 0.87 0.14635 0.92913 0.0
C1465 C 0.91225 0.15895 0.9915 0.0
N1466 N 0.87378 0.15717 0.81667 0.0
N1467 N 0.91208 0.16446 0.93906 0.0
H1468 H 0.15469 0.07245 0.02432 0.0
H1469 H 0.15994 0.15226 0.29473 0.0
H1470 H 0.13351 0.15292 0.03856 0.0
H1471 H 0.18021 0.0715 0.28231 0.0
H1472 H 0.15126 0.15304 0.20013 0.0
H1473 H 0.16503 0.0718 0.11846 0.0
C1474 C 0.15215 0.08995 0.04726 0.0
C1475 C 0.14316 0.11275 0.02357 0.0
C1476 C 0.15761 0.13514 0.21807 0.0
C1477 C 0.15514 0.1122 0.13102 0.0
C1478 C 0.16268 0.13471 0.27205 0.0
C1479 C 0.17082 0.11177 0.29645 0.0
C1480 C 0.16067 0.11246 0.18823 0.0
C1481 C 0.17364 0.08951 0.26524 0.0
C1482 C 0.15818 0.08961 0.1009 0.0
C1483 C 0.14067 0.13499 0.05498 0.0
N1484 N 0.16858 0.09041 0.21268 0.0
N1485 N 0.14657 0.13413 0.10711 0.0
H1486 H 0.10566 0.87517 0.73168 0.0
H1487 H 0.12191 0.8189 0.02397 0.0
H1488 H 0.11666 0.79385 0.76259 0.0
H1489 H 0.10616 0.89878 0.98612 0.0
H1490 H 0.12342 0.80907 0.92916 0.0
H1491 H 0.10935 0.88394 0.82558 0.0
C1492 C 0.10889 0.85912 0.75834 0.0
C1493 C 0.11044 0.83369 0.73934 0.0
C1494 C 0.11964 0.82872 0.94181 0.0
C1495 C 0.11487 0.84362 0.84743 0.0
C1496 C 0.11887 0.83437 0.99584 0.0
C1497 C 0.11364 0.85968 1.01308 0.0
C1498 C 0.11525 0.84855 0.90502 0.0
C1499 C 0.10969 0.87889 0.97487 0.0
C1500 C 0.11107 0.86414 0.81205 0.0
C1501 C 0.11533 0.81374 0.77563 0.0
N1502 N 0.11051 0.8729 0.92284 0.0
N1503 N 0.11716 0.8191 0.82817 0.0
loop_
_geom_bond_atom_site_label_1
_geom_bond_atom_site_label_2
_geom_bond_distance
_geom_bond_site_symmetry_2
_ccdc_geom_bond_type
Pr0 C2 2.880 . S
Pr0 O20 2.562 . S
Pr0 O21 2.490 . S
Pr0 O22 2.695 . S
Pr0 O23 2.512 . S
Pr0 O25 2.437 . S
Pr0 O28 2.436 . S
Pr0 O30 2.438 . S
Pr1 C11 2.880 1_554 S
Pr1 O22 2.436 . S
Pr1 O24 2.438 . S
Pr1 O26 2.562 1_554 S
Pr1 O27 2.490 1_554 S
Pr1 O28 2.695 . S
Pr1 O29 2.512 . S
Pr1 O31 2.437 . S
C2 Pr0 2.880 . S
C2 C3 1.491 . S
C2 O20 1.254 . S
C2 O21 1.225 . S
C3 C2 1.491 . S
C3 C4 1.392 . S
C3 C8 1.356 . S
C4 C3 1.392 . S
C4 C5 1.368 . S
C4 H32 0.929 . S
C5 C4 1.368 . S
C5 C6 1.386 . S
C5 H33 0.929 . S
C6 C5 1.386 . S
C6 C7 1.373 . S
C7 C6 1.373 . S
C7 C8 1.409 . S
C7 H34 0.931 . S
C8 C3 1.356 . S
C8 C7 1.409 . S
C8 H35 0.930 . S
C9 O22 1.270 . S
C9 O23 1.248 . S
C10 O24 1.267 . S
C10 O25 1.278 . S
C11 Pr1 2.880 1_556 S
C11 C12 1.491 . S
C11 O26 1.254 . S
C11 O27 1.225 . S
C12 C11 1.491 . S
C12 C13 1.392 . S
C12 C17 1.356 . S
C13 C12 1.392 . S
C13 C14 1.368 . S
C13 H36 0.929 . S
C14 C13 1.368 . S
C14 C15 1.386 . S
C14 H37 0.929 . S
C15 C14 1.386 . S
C15 C16 1.373 . S
C16 C15 1.373 . S
C16 C17 1.409 . S
C16 H38 0.931 . S
C17 C12 1.356 . S
C17 C16 1.409 . S
C17 H39 0.930 . S
C18 O28 1.270 . S
C18 O29 1.248 . S
C19 O30 1.267 . S
C19 O31 1.278 . S
O20 Pr0 2.562 . S
O20 C2 1.254 . S
O21 Pr0 2.490 . S
O21 C2 1.225 . S
O22 Pr0 2.695 . S
O22 Pr1 2.436 . S
O22 C9 1.270 . S
O23 Pr0 2.512 . S
O23 C9 1.248 . S
O24 Pr1 2.438 . S
O24 C10 1.267 . S
O25 Pr0 2.437 . S
O25 C10 1.278 . S
O26 Pr1 2.562 1_556 S
O26 C11 1.254 . S
O27 Pr1 2.490 1_556 S
O27 C11 1.225 . S
O28 Pr0 2.436 . S
O28 Pr1 2.695 . S
O28 C18 1.270 . S
O29 Pr1 2.512 . S
O29 C18 1.248 . S
O30 Pr0 2.438 . S
O30 C19 1.267 . S
O31 Pr1 2.437 . S
O31 C19 1.278 . S
H32 C4 0.929 . S
H33 C5 0.929 . S
H34 C7 0.931 . S
H35 C8 0.930 . S
H36 C13 0.929 . S
H37 C14 0.929 . S
H38 C16 0.931 . S
H39 C17 0.930 . S
Pr40 C42 2.880 1_556 S
Pr40 O60 2.562 1_556 S
Pr40 O61 2.490 1_556 S
Pr40 O62 2.695 . S
Pr40 O63 2.512 . S
Pr40 O65 2.437 . S
Pr40 O68 2.436 . S
Pr40 O70 2.438 . S
Pr41 C51 2.880 . S
Pr41 O62 2.436 . S
Pr41 O64 2.438 . S
Pr41 O66 2.562 . S
Pr41 O67 2.490 . S
Pr41 O68 2.695 . S
Pr41 O69 2.512 . S
Pr41 O71 2.437 . S
C42 Pr40 2.880 1_554 S
C42 C43 1.491 . S
C42 O60 1.254 . S
C42 O61 1.225 . S
C43 C42 1.491 . S
C43 C44 1.392 . S
C43 C48 1.356 . S
C44 C43 1.392 . S
C44 C45 1.368 . S
C44 H72 0.929 . S
C45 C44 1.368 . S
C45 C46 1.386 . S
C45 H73 0.929 . S
C46 C45 1.386 . S
C46 C47 1.373 . S
C47 C46 1.373 . S
C47 C48 1.409 . S
C47 H74 0.931 . S
C48 C43 1.356 . S
C48 C47 1.409 . S
C48 H75 0.930 . S
C49 O62 1.270 . S
C49 O63 1.248 . S
C50 O64 1.267 . S
C50 O65 1.278 . S
C51 Pr41 2.880 . S
C51 C52 1.491 . S
C51 O66 1.254 . S
C51 O67 1.225 . S
C52 C51 1.491 . S
C52 C53 1.392 . S
C52 C57 1.356 . S
C53 C52 1.392 . S
C53 C54 1.368 . S
C53 H76 0.929 . S
C54 C53 1.368 . S
C54 C55 1.386 . S
C54 H77 0.929 . S
C55 C54 1.386 . S
C55 C56 1.373 . S
C56 C55 1.373 . S
C56 C57 1.409 . S
C56 H78 0.931 . S
C57 C52 1.356 . S
C57 C56 1.409 . S
C57 H79 0.930 . S
C58 O68 1.270 . S
C58 O69 1.248 . S
C59 O70 1.267 . S
C59 O71 1.278 . S
O60 Pr40 2.562 1_554 S
O60 C42 1.254 . S
O61 Pr40 2.490 1_554 S
O61 C42 1.225 . S
O62 Pr40 2.695 . S
O62 Pr41 2.436 . S
O62 C49 1.270 . S
O63 Pr40 2.512 . S
O63 C49 1.248 . S
O64 Pr41 2.438 . S
O64 C50 1.267 . S
O65 Pr40 2.437 . S
O65 C50 1.278 . S
O66 Pr41 2.562 . S
O66 C51 1.254 . S
O67 Pr41 2.490 . S
O67 C51 1.225 . S
O68 Pr40 2.436 . S
O68 Pr41 2.695 . S
O68 C58 1.270 . S
O69 Pr41 2.512 . S
O69 C58 1.248 . S
O70 Pr40 2.438 . S
O70 C59 1.267 . S
O71 Pr41 2.437 . S
O71 C59 1.278 . S
H72 C44 0.929 . S
H73 C45 0.929 . S
H74 C47 0.931 . S
H75 C48 0.930 . S
H76 C53 0.929 . S
H77 C54 0.929 . S
H78 C56 0.931 . S
H79 C57 0.930 . S
Pr80 C82 2.880 . S
Pr80 O100 2.562 . S
Pr80 O101 2.490 . S
Pr80 O102 2.695 . S
Pr80 O103 2.512 . S
Pr80 O105 2.437 . S
Pr80 O108 2.436 . S
Pr80 O110 2.438 . S
Pr81 C91 2.880 1_554 S
Pr81 O102 2.436 . S
Pr81 O104 2.438 . S
Pr81 O106 2.562 1_554 S
Pr81 O107 2.490 1_554 S
Pr81 O108 2.695 . S
Pr81 O109 2.512 . S
Pr81 O111 2.437 . S
C82 Pr80 2.880 . S
C82 C83 1.491 . S
C82 O100 1.254 . S
C82 O101 1.225 . S
C83 C82 1.491 . S
C83 C84 1.392 . S
C83 C88 1.356 . S
C84 C83 1.392 . S
C84 C85 1.368 . S
C84 H112 0.929 . S
C85 C84 1.368 . S
C85 C86 1.386 . S
C85 H113 0.929 . S
C86 C85 1.386 . S
C86 C87 1.373 . S
C87 C86 1.373 . S
C87 C88 1.409 . S
C87 H114 0.931 . S
C88 C83 1.356 . S
C88 C87 1.409 . S
C88 H115 0.930 . S
C89 O102 1.270 . S
C89 O103 1.248 . S
C90 O104 1.267 . S
C90 O105 1.278 . S
C91 Pr81 2.880 1_556 S
C91 C92 1.491 . S
C91 O106 1.254 . S
C91 O107 1.225 . S
C92 C91 1.491 . S
C92 C93 1.392 . S
C92 C97 1.356 . S
C93 C92 1.392 . S
C93 C94 1.368 . S
C93 H116 0.929 . S
C94 C93 1.368 . S
C94 C95 1.386 . S
C94 H117 0.929 . S
C95 C94 1.386 . S
C95 C96 1.373 . S
C96 C95 1.373 . S
C96 C97 1.409 . S
C96 H118 0.931 . S
C97 C92 1.356 . S
C97 C96 1.409 . S
C97 H119 0.930 . S
C98 O108 1.270 . S
C98 O109 1.248 . S
C99 O110 1.267 . S
C99 O111 1.278 . S
O100 Pr80 2.562 . S
O100 C82 1.254 . S
O101 Pr80 2.490 . S
O101 C82 1.225 . S
O102 Pr80 2.695 . S
O102 Pr81 2.436 . S
O102 C89 1.270 . S
O103 Pr80 2.512 . S
O103 C89 1.248 . S
O104 Pr81 2.438 . S
O104 C90 1.267 . S
O105 Pr80 2.437 . S
O105 C90 1.278 . S
O106 Pr81 2.562 1_556 S
O106 C91 1.254 . S
O107 Pr81 2.490 1_556 S
O107 C91 1.225 . S
O108 Pr80 2.436 . S
O108 Pr81 2.695 . S
O108 C98 1.270 . S
O109 Pr81 2.512 . S
O109 C98 1.248 . S
O110 Pr80 2.438 . S
O110 C99 1.267 . S
O111 Pr81 2.437 . S
O111 C99 1.278 . S
H112 C84 0.929 . S
H113 C85 0.929 . S
H114 C87 0.931 . S
H115 C88 0.930 . S
H116 C93 0.929 . S
H117 C94 0.929 . S
H118 C96 0.931 . S
H119 C97 0.930 . S
Pr120 C122 2.880 1_556 S
Pr120 O140 2.562 1_556 S
Pr120 O141 2.490 1_556 S
Pr120 O142 2.695 . S
Pr120 O143 2.512 . S
Pr120 O145 2.437 . S
Pr120 O148 2.436 . S
Pr120 O150 2.438 . S
Pr121 C131 2.880 . S
Pr121 O142 2.436 . S
Pr121 O144 2.438 . S
Pr121 O146 2.562 . S
Pr121 O147 2.490 . S
Pr121 O148 2.695 . S
Pr121 O149 2.512 . S
Pr121 O151 2.437 . S
C122 Pr120 2.880 1_554 S
C122 C123 1.491 . S
C122 O140 1.254 . S
C122 O141 1.225 . S
C123 C122 1.491 . S
C123 C124 1.392 . S
C123 C128 1.356 . S
C124 C123 1.392 . S
C124 C125 1.368 . S
C124 H152 0.929 . S
C125 C124 1.368 . S
C125 C126 1.386 . S
C125 H153 0.929 . S
C126 C125 1.386 . S
C126 C127 1.373 . S
C127 C126 1.373 . S
C127 C128 1.409 . S
C127 H154 0.931 . S
C128 C123 1.356 . S
C128 C127 1.409 . S
C128 H155 0.930 . S
C129 O142 1.270 . S
C129 O143 1.248 . S
C130 O144 1.267 . S
C130 O145 1.278 . S
C131 Pr121 2.880 . S
C131 C132 1.491 . S
C131 O146 1.254 . S
C131 O147 1.225 . S
C132 C131 1.491 . S
C132 C133 1.392 . S
C132 C137 1.356 . S
C133 C132 1.392 . S
C133 C134 1.368 . S
C133 H156 0.929 . S
C134 C133 1.368 . S
C134 C135 1.386 . S
C134 H157 0.929 . S
C135 C134 1.386 . S
C135 C136 1.373 . S
C136 C135 1.373 . S
C136 C137 1.409 . S
C136 H158 0.931 . S
C137 C132 1.356 . S
C137 C136 1.409 . S
C137 H159 0.930 . S
C138 O148 1.270 . S
C138 O149 1.248 . S
C139 O150 1.267 . S
C139 O151 1.278 . S
O140 Pr120 2.562 1_554 S
O140 C122 1.254 . S
O141 Pr120 2.490 1_554 S
O141 C122 1.225 . S
O142 Pr120 2.695 . S
O142 Pr121 2.436 . S
O142 C129 1.270 . S
O143 Pr120 2.512 . S
O143 C129 1.248 . S
O144 Pr121 2.438 . S
O144 C130 1.267 . S
O145 Pr120 2.437 . S
O145 C130 1.278 . S
O146 Pr121 2.562 . S
O146 C131 1.254 . S
O147 Pr121 2.490 . S
O147 C131 1.225 . S
O148 Pr120 2.436 . S
O148 Pr121 2.695 . S
O148 C138 1.270 . S
O149 Pr121 2.512 . S
O149 C138 1.248 . S
O150 Pr120 2.438 . S
O150 C139 1.267 . S
O151 Pr121 2.437 . S
O151 C139 1.278 . S
H152 C124 0.929 . S
H153 C125 0.929 . S
H154 C127 0.931 . S
H155 C128 0.930 . S
H156 C133 0.929 . S
H157 C134 0.929 . S
H158 C136 0.931 . S
H159 C137 0.930 . S
Pr160 C162 2.880 1_554 S
Pr160 O180 2.562 1_554 S
Pr160 O181 2.490 1_554 S
Pr160 O182 2.695 . S
Pr160 O183 2.512 . S
Pr160 O185 2.437 . S
Pr160 O188 2.436 . S
Pr160 O190 2.438 . S
Pr161 C171 2.880 . S
Pr161 O182 2.436 . S
Pr161 O184 2.438 . S
Pr161 O186 2.562 . S
Pr161 O187 2.490 . S
Pr161 O188 2.695 . S
Pr161 O189 2.512 . S
Pr161 O191 2.437 . S
C162 Pr160 2.880 1_556 S
C162 C163 1.491 . S
C162 O180 1.254 . S
C162 O181 1.225 . S
C163 C162 1.491 . S
C163 C164 1.392 . S
C163 C168 1.356 . S
C164 C163 1.392 . S
C164 C165 1.368 . S
C164 H192 0.929 . S
C165 C164 1.368 . S
C165 C166 1.386 . S
C165 H193 0.929 . S
C166 C165 1.386 . S
C166 C167 1.373 . S
C167 C166 1.373 . S
C167 C168 1.409 . S
C167 H194 0.931 . S
C168 C163 1.356 . S
C168 C167 1.409 . S
C168 H195 0.930 . S
C169 O182 1.270 . S
C169 O183 1.248 . S
C170 O184 1.267 . S
C170 O185 1.278 . S
C171 Pr161 2.880 . S
C171 C172 1.491 . S
C171 O186 1.254 . S
C171 O187 1.225 . S
C172 C171 1.491 . S
C172 C173 1.392 . S
C172 C177 1.356 . S
C173 C172 1.392 . S
C173 C174 1.368 . S
C173 H196 0.929 . S
C174 C173 1.368 . S
C174 C175 1.386 . S
C174 H197 0.929 . S
C175 C174 1.386 . S
C175 C176 1.373 . S
C176 C175 1.373 . S
C176 C177 1.409 . S
C176 H198 0.931 . S
C177 C172 1.356 . S
C177 C176 1.409 . S
C177 H199 0.930 . S
C178 O188 1.270 . S
C178 O189 1.248 . S
C179 O190 1.267 . S
C179 O191 1.278 . S
O180 Pr160 2.562 1_556 S
O180 C162 1.254 . S
O181 Pr160 2.490 1_556 S
O181 C162 1.225 . S
O182 Pr160 2.695 . S
O182 Pr161 2.436 . S
O182 C169 1.270 . S
O183 Pr160 2.512 . S
O183 C169 1.248 . S
O184 Pr161 2.438 . S
O184 C170 1.267 . S
O185 Pr160 2.437 . S
O185 C170 1.278 . S
O186 Pr161 2.562 . S
O186 C171 1.254 . S
O187 Pr161 2.490 . S
O187 C171 1.225 . S
O188 Pr160 2.436 . S
O188 Pr161 2.695 . S
O188 C178 1.270 . S
O189 Pr161 2.512 . S
O189 C178 1.248 . S
O190 Pr160 2.438 . S
O190 C179 1.267 . S
O191 Pr161 2.437 . S
O191 C179 1.278 . S
H192 C164 0.929 . S
H193 C165 0.929 . S
H194 C167 0.931 . S
H195 C168 0.930 . S
H196 C173 0.929 . S
H197 C174 0.929 . S
H198 C176 0.931 . S
H199 C177 0.930 . S
Pr200 C202 2.880 . S
Pr200 O220 2.562 . S
Pr200 O221 2.490 . S
Pr200 O222 2.695 . S
Pr200 O223 2.512 . S
Pr200 O225 2.437 . S
Pr200 O228 2.436 . S
Pr200 O230 2.438 . S
Pr201 C211 2.880 1_556 S
Pr201 O222 2.436 . S
Pr201 O224 2.438 . S
Pr201 O226 2.562 1_556 S
Pr201 O227 2.490 1_556 S
Pr201 O228 2.695 . S
Pr201 O229 2.512 . S
Pr201 O231 2.437 . S
C202 Pr200 2.880 . S
C202 C203 1.491 . S
C202 O220 1.254 . S
C202 O221 1.225 . S
C203 C202 1.491 . S
C203 C204 1.392 . S
C203 C208 1.356 . S
C204 C203 1.392 . S
C204 C205 1.368 . S
C204 H232 0.929 . S
C205 C204 1.368 . S
C205 C206 1.386 . S
C205 H233 0.929 . S
C206 C205 1.386 . S
C206 C207 1.373 . S
C207 C206 1.373 . S
C207 C208 1.409 . S
C207 H234 0.931 . S
C208 C203 1.356 . S
C208 C207 1.409 . S
C208 H235 0.930 . S
C209 O222 1.270 . S
C209 O223 1.248 . S
C210 O224 1.267 . S
C210 O225 1.278 . S
C211 Pr201 2.880 1_554 S
C211 C212 1.491 . S
C211 O226 1.254 . S
C211 O227 1.225 . S
C212 C211 1.491 . S
C212 C213 1.392 . S
C212 C217 1.356 . S
C213 C212 1.392 . S
C213 C214 1.368 . S
C213 H236 0.929 . S
C214 C213 1.368 . S
C214 C215 1.386 . S
C214 H237 0.929 . S
C215 C214 1.386 . S
C215 C216 1.373 . S
C216 C215 1.373 . S
C216 C217 1.409 . S
C216 H238 0.931 . S
C217 C212 1.356 . S
C217 C216 1.409 . S
C217 H239 0.930 . S
C218 O228 1.270 . S
C218 O229 1.248 . S
C219 O230 1.267 . S
C219 O231 1.278 . S
O220 Pr200 2.562 . S
O220 C202 1.254 . S
O221 Pr200 2.490 . S
O221 C202 1.225 . S
O222 Pr200 2.695 . S
O222 Pr201 2.436 . S
O222 C209 1.270 . S
O223 Pr200 2.512 . S
O223 C209 1.248 . S
O224 Pr201 2.438 . S
O224 C210 1.267 . S
O225 Pr200 2.437 . S
O225 C210 1.278 . S
O226 Pr201 2.562 1_554 S
O226 C211 1.254 . S
O227 Pr201 2.490 1_554 S
O227 C211 1.225 . S
O228 Pr200 2.436 . S
O228 Pr201 2.695 . S
O228 C218 1.270 . S
O229 Pr201 2.512 . S
O229 C218 1.248 . S
O230 Pr200 2.438 . S
O230 C219 1.267 . S
O231 Pr201 2.437 . S
O231 C219 1.278 . S
H232 C204 0.929 . S
H233 C205 0.929 . S
H234 C207 0.931 . S
H235 C208 0.930 . S
H236 C213 0.929 . S
H237 C214 0.929 . S
H238 C216 0.931 . S
H239 C217 0.930 . S
Pr240 C242 2.880 1_554 S
Pr240 O260 2.562 1_554 S
Pr240 O261 2.490 1_554 S
Pr240 O262 2.695 . S
Pr240 O263 2.512 . S
Pr240 O265 2.437 . S
Pr240 O268 2.436 . S
Pr240 O270 2.438 . S
Pr241 C251 2.880 . S
Pr241 O262 2.436 . S
Pr241 O264 2.438 . S
Pr241 O266 2.562 . S
Pr241 O267 2.490 . S
Pr241 O268 2.695 . S
Pr241 O269 2.512 . S
Pr241 O271 2.437 . S
C242 Pr240 2.880 1_556 S
C242 C243 1.491 . S
C242 O260 1.254 . S
C242 O261 1.225 . S
C243 C242 1.491 . S
C243 C244 1.392 . S
C243 C248 1.356 . S
C244 C243 1.392 . S
C244 C245 1.368 . S
C244 H272 0.929 . S
C245 C244 1.368 . S
C245 C246 1.386 . S
C245 H273 0.929 . S
C246 C245 1.386 . S
C246 C247 1.373 . S
C247 C246 1.373 . S
C247 C248 1.409 . S
C247 H274 0.931 . S
C248 C243 1.356 . S
C248 C247 1.409 . S
C248 H275 0.930 . S
C249 O262 1.270 . S
C249 O263 1.248 . S
C250 O264 1.267 . S
C250 O265 1.278 . S
C251 Pr241 2.880 . S
C251 C252 1.491 . S
C251 O266 1.254 . S
C251 O267 1.225 . S
C252 C251 1.491 . S
C252 C253 1.392 . S
C252 C257 1.356 . S
C253 C252 1.392 . S
C253 C254 1.368 . S
C253 H276 0.929 . S
C254 C253 1.368 . S
C254 C255 1.386 . S
C254 H277 0.929 . S
C255 C254 1.386 . S
C255 C256 1.373 . S
C256 C255 1.373 . S
C256 C257 1.409 . S
C256 H278 0.931 . S
C257 C252 1.356 . S
C257 C256 1.409 . S
C257 H279 0.930 . S
C258 O268 1.270 . S
C258 O269 1.248 . S
C259 O270 1.267 . S
C259 O271 1.278 . S
O260 Pr240 2.562 1_556 S
O260 C242 1.254 . S
O261 Pr240 2.490 1_556 S
O261 C242 1.225 . S
O262 Pr240 2.695 . S
O262 Pr241 2.436 . S
O262 C249 1.270 . S
O263 Pr240 2.512 . S
O263 C249 1.248 . S
O264 Pr241 2.438 . S
O264 C250 1.267 . S
O265 Pr240 2.437 . S
O265 C250 1.278 . S
O266 Pr241 2.562 . S
O266 C251 1.254 . S
O267 Pr241 2.490 . S
O267 C251 1.225 . S
O268 Pr240 2.436 . S
O268 Pr241 2.695 . S
O268 C258 1.270 . S
O269 Pr241 2.512 . S
O269 C258 1.248 . S
O270 Pr240 2.438 . S
O270 C259 1.267 . S
O271 Pr241 2.437 . S
O271 C259 1.278 . S
H272 C244 0.929 . S
H273 C245 0.929 . S
H274 C247 0.931 . S
H275 C248 0.930 . S
H276 C253 0.929 . S
H277 C254 0.929 . S
H278 C256 0.931 . S
H279 C257 0.930 . S
Pr280 C282 2.880 . S
Pr280 O300 2.562 . S
Pr280 O301 2.490 . S
Pr280 O302 2.695 . S
Pr280 O303 2.512 . S
Pr280 O305 2.437 . S
Pr280 O308 2.436 . S
Pr280 O310 2.438 . S
Pr281 C291 2.880 1_556 S
Pr281 O302 2.436 . S
Pr281 O304 2.438 . S
Pr281 O306 2.562 1_556 S
Pr281 O307 2.490 1_556 S
Pr281 O308 2.695 . S
Pr281 O309 2.512 . S
Pr281 O311 2.437 . S
C282 Pr280 2.880 . S
C282 C283 1.491 . S
C282 O300 1.254 . S
C282 O301 1.225 . S
C283 C282 1.491 . S
C283 C284 1.392 . S
C283 C288 1.356 . S
C284 C283 1.392 . S
C284 C285 1.368 . S
C284 H312 0.929 . S
C285 C284 1.368 . S
C285 C286 1.386 . S
C285 H313 0.929 . S
C286 C285 1.386 . S
C286 C287 1.373 . S
C287 C286 1.373 . S
C287 C288 1.409 . S
C287 H314 0.931 . S
C288 C283 1.356 . S
C288 C287 1.409 . S
C288 H315 0.930 . S
C289 O302 1.270 . S
C289 O303 1.248 . S
C290 O304 1.267 . S
C290 O305 1.278 . S
C291 Pr281 2.880 1_554 S
C291 C292 1.491 . S
C291 O306 1.254 . S
C291 O307 1.225 . S
C292 C291 1.491 . S
C292 C293 1.392 . S
C292 C297 1.356 . S
C293 C292 1.392 . S
C293 C294 1.368 . S
C293 H316 0.929 . S
C294 C293 1.368 . S
C294 C295 1.386 . S
C294 H317 0.929 . S
C295 C294 1.386 . S
C295 C296 1.373 . S
C296 C295 1.373 . S
C296 C297 1.409 . S
C296 H318 0.931 . S
C297 C292 1.356 . S
C297 C296 1.409 . S
C297 H319 0.930 . S
C298 O308 1.270 . S
C298 O309 1.248 . S
C299 O310 1.267 . S
C299 O311 1.278 . S
O300 Pr280 2.562 . S
O300 C282 1.254 . S
O301 Pr280 2.490 . S
O301 C282 1.225 . S
O302 Pr280 2.695 . S
O302 Pr281 2.436 . S
O302 C289 1.270 . S
O303 Pr280 2.512 . S
O303 C289 1.248 . S
O304 Pr281 2.438 . S
O304 C290 1.267 . S
O305 Pr280 2.437 . S
O305 C290 1.278 . S
O306 Pr281 2.562 1_554 S
O306 C291 1.254 . S
O307 Pr281 2.490 1_554 S
O307 C291 1.225 . S
O308 Pr280 2.436 . S
O308 Pr281 2.695 . S
O308 C298 1.270 . S
O309 Pr281 2.512 . S
O309 C298 1.248 . S
O310 Pr280 2.438 . S
O310 C299 1.267 . S
O311 Pr281 2.437 . S
O311 C299 1.278 . S
H312 C284 0.929 . S
H313 C285 0.929 . S
H314 C287 0.931 . S
H315 C288 0.930 . S
H316 C293 0.929 . S
H317 C294 0.929 . S
H318 C296 0.931 . S
H319 C297 0.930 . S
Pr320 C322 2.880 . S
Pr320 O340 2.562 . S
Pr320 O341 2.490 . S
Pr320 O342 2.695 . S
Pr320 O343 2.512 . S
Pr320 O345 2.437 . S
Pr320 O348 2.436 . S
Pr320 O350 2.438 . S
Pr321 C331 2.880 . S
Pr321 O342 2.436 . S
Pr321 O344 2.438 . S
Pr321 O346 2.562 . S
Pr321 O347 2.490 . S
Pr321 O348 2.695 . S
Pr321 O349 2.512 . S
Pr321 O351 2.437 . S
C322 Pr320 2.880 . S
C322 C323 1.491 . S
C322 O340 1.254 . S
C322 O341 1.225 . S
C323 C322 1.491 . S
C323 C324 1.392 . S
C323 C328 1.356 . S
C324 C323 1.392 . S
C324 C325 1.368 . S
C324 H352 0.929 . S
C325 C324 1.368 . S
C325 C326 1.386 . S
C325 H353 0.929 . S
C326 C325 1.386 . S
C326 C327 1.373 . S
C327 C326 1.373 . S
C327 C328 1.409 . S
C327 H354 0.931 . S
C328 C323 1.356 . S
C328 C327 1.409 . S
C328 H355 0.930 . S
C329 O342 1.270 . S
C329 O343 1.248 . S
C330 O344 1.267 . S
C330 O345 1.278 . S
C331 Pr321 2.880 . S
C331 C332 1.491 . S
C331 O346 1.254 . S
C331 O347 1.225 . S
C332 C331 1.491 . S
C332 C333 1.392 . S
C332 C337 1.356 . S
C333 C332 1.392 . S
C333 C334 1.368 . S
C333 H356 0.929 . S
C334 C333 1.368 . S
C334 C335 1.386 . S
C334 H357 0.929 . S
C335 C334 1.386 . S
C335 C336 1.373 . S
C336 C335 1.373 . S
C336 C337 1.409 . S
C336 H358 0.931 . S
C337 C332 1.356 . S
C337 C336 1.409 . S
C337 H359 0.930 . S
C338 O348 1.270 . S
C338 O349 1.248 . S
C339 O350 1.267 . S
C339 O351 1.278 . S
O340 Pr320 2.562 . S
O340 C322 1.254 . S
O341 Pr320 2.490 . S
O341 C322 1.225 . S
O342 Pr320 2.695 . S
O342 Pr321 2.436 . S
O342 C329 1.270 . S
O343 Pr320 2.512 . S
O343 C329 1.248 . S
O344 Pr321 2.438 . S
O344 C330 1.267 . S
O345 Pr320 2.437 . S
O345 C330 1.278 . S
O346 Pr321 2.562 . S
O346 C331 1.254 . S
O347 Pr321 2.490 . S
O347 C331 1.225 . S
O348 Pr320 2.436 . S
O348 Pr321 2.695 . S
O348 C338 1.270 . S
O349 Pr321 2.512 . S
O349 C338 1.248 . S
O350 Pr320 2.438 . S
O350 C339 1.267 . S
O351 Pr321 2.437 . S
O351 C339 1.278 . S
H352 C324 0.929 . S
H353 C325 0.929 . S
H354 C327 0.931 . S
H355 C328 0.930 . S
H356 C333 0.929 . S
H357 C334 0.929 . S
H358 C336 0.931 . S
H359 C337 0.930 . S
Pr360 C362 2.880 . S
Pr360 O380 2.562 . S
Pr360 O381 2.490 . S
Pr360 O382 2.695 . S
Pr360 O383 2.512 . S
Pr360 O385 2.437 . S
Pr360 O388 2.436 . S
Pr360 O390 2.438 . S
Pr361 C371 2.880 . S
Pr361 O382 2.436 . S
Pr361 O384 2.438 . S
Pr361 O386 2.562 . S
Pr361 O387 2.490 . S
Pr361 O388 2.695 . S
Pr361 O389 2.512 . S
Pr361 O391 2.437 . S
C362 Pr360 2.880 . S
C362 C363 1.491 . S
C362 O380 1.254 . S
C362 O381 1.225 . S
C363 C362 1.491 . S
C363 C364 1.392 . S
C363 C368 1.356 . S
C364 C363 1.392 . S
C364 C365 1.368 . S
C364 H392 0.929 . S
C365 C364 1.368 . S
C365 C366 1.386 . S
C365 H393 0.929 . S
C366 C365 1.386 . S
C366 C367 1.373 . S
C367 C366 1.373 . S
C367 C368 1.409 . S
C367 H394 0.931 . S
C368 C363 1.356 . S
C368 C367 1.409 . S
C368 H395 0.930 . S
C369 O382 1.270 . S
C369 O383 1.248 . S
C370 O384 1.267 . S
C370 O385 1.278 . S
C371 Pr361 2.880 . S
C371 C372 1.491 . S
C371 O386 1.254 . S
C371 O387 1.225 . S
C372 C371 1.491 . S
C372 C373 1.392 . S
C372 C377 1.356 . S
C373 C372 1.392 . S
C373 C374 1.368 . S
C373 H396 0.929 . S
C374 C373 1.368 . S
C374 C375 1.386 . S
C374 H397 0.929 . S
C375 C374 1.386 . S
C375 C376 1.373 . S
C376 C375 1.373 . S
C376 C377 1.409 . S
C376 H398 0.931 . S
C377 C372 1.356 . S
C377 C376 1.409 . S
C377 H399 0.930 . S
C378 O388 1.270 . S
C378 O389 1.248 . S
C379 O390 1.267 . S
C379 O391 1.278 . S
O380 Pr360 2.562 . S
O380 C362 1.254 . S
O381 Pr360 2.490 . S
O381 C362 1.225 . S
O382 Pr360 2.695 . S
O382 Pr361 2.436 . S
O382 C369 1.270 . S
O383 Pr360 2.512 . S
O383 C369 1.248 . S
O384 Pr361 2.438 . S
O384 C370 1.267 . S
O385 Pr360 2.437 . S
O385 C370 1.278 . S
O386 Pr361 2.562 . S
O386 C371 1.254 . S
O387 Pr361 2.490 . S
O387 C371 1.225 . S
O388 Pr360 2.436 . S
O388 Pr361 2.695 . S
O388 C378 1.270 . S
O389 Pr361 2.512 . S
O389 C378 1.248 . S
O390 Pr360 2.438 . S
O390 C379 1.267 . S
O391 Pr361 2.437 . S
O391 C379 1.278 . S
H392 C364 0.929 . S
H393 C365 0.929 . S
H394 C367 0.931 . S
H395 C368 0.930 . S
H396 C373 0.929 . S
H397 C374 0.929 . S
H398 C376 0.931 . S
H399 C377 0.930 . S
Pr400 C402 2.880 . S
Pr400 O420 2.562 . S
Pr400 O421 2.490 . S
Pr400 O422 2.695 . S
Pr400 O423 2.512 . S
Pr400 O425 2.437 . S
Pr400 O428 2.436 . S
Pr400 O430 2.438 . S
Pr401 C411 2.880 . S
Pr401 O422 2.436 . S
Pr401 O424 2.438 . S
Pr401 O426 2.562 . S
Pr401 O427 2.490 . S
Pr401 O428 2.695 . S
Pr401 O429 2.512 . S
Pr401 O431 2.437 . S
C402 Pr400 2.880 . S
C402 C403 1.491 . S
C402 O420 1.254 . S
C402 O421 1.225 . S
C403 C402 1.491 . S
C403 C404 1.392 . S
C403 C408 1.356 . S
C404 C403 1.392 . S
C404 C405 1.368 . S
C404 H432 0.929 . S
C405 C404 1.368 . S
C405 C406 1.386 . S
C405 H433 0.929 . S
C406 C405 1.386 . S
C406 C407 1.373 . S
C407 C406 1.373 . S
C407 C408 1.409 . S
C407 H434 0.931 . S
C408 C403 1.356 . S
C408 C407 1.409 . S
C408 H435 0.930 . S
C409 O422 1.270 . S
C409 O423 1.248 . S
C410 O424 1.267 . S
C410 O425 1.278 . S
C411 Pr401 2.880 . S
C411 C412 1.491 . S
C411 O426 1.254 . S
C411 O427 1.225 . S
C412 C411 1.491 . S
C412 C413 1.392 . S
C412 C417 1.356 . S
C413 C412 1.392 . S
C413 C414 1.368 . S
C413 H436 0.929 . S
C414 C413 1.368 . S
C414 C415 1.386 . S
C414 H437 0.929 . S
C415 C414 1.386 . S
C415 C416 1.373 . S
C416 C415 1.373 . S
C416 C417 1.409 . S
C416 H438 0.931 . S
C417 C412 1.356 . S
C417 C416 1.409 . S
C417 H439 0.930 . S
C418 O428 1.270 . S
C418 O429 1.248 . S
C419 O430 1.267 . S
C419 O431 1.278 . S
O420 Pr400 2.562 . S
O420 C402 1.254 . S
O421 Pr400 2.490 . S
O421 C402 1.225 . S
O422 Pr400 2.695 . S
O422 Pr401 2.436 . S
O422 C409 1.270 . S
O423 Pr400 2.512 . S
O423 C409 1.248 . S
O424 Pr401 2.438 . S
O424 C410 1.267 . S
O425 Pr400 2.437 . S
O425 C410 1.278 . S
O426 Pr401 2.562 . S
O426 C411 1.254 . S
O427 Pr401 2.490 . S
O427 C411 1.225 . S
O428 Pr400 2.436 . S
O428 Pr401 2.695 . S
O428 C418 1.270 . S
O429 Pr401 2.512 . S
O429 C418 1.248 . S
O430 Pr400 2.438 . S
O430 C419 1.267 . S
O431 Pr401 2.437 . S
O431 C419 1.278 . S
H432 C404 0.929 . S
H433 C405 0.929 . S
H434 C407 0.931 . S
H435 C408 0.930 . S
H436 C413 0.929 . S
H437 C414 0.929 . S
H438 C416 0.931 . S
H439 C417 0.930 . S
Pr440 C442 2.880 . S
Pr440 O460 2.562 . S
Pr440 O461 2.490 . S
Pr440 O462 2.695 . S
Pr440 O463 2.512 . S
Pr440 O465 2.437 . S
Pr440 O468 2.436 . S
Pr440 O470 2.438 . S
Pr441 C451 2.880 . S
Pr441 O462 2.436 . S
Pr441 O464 2.438 . S
Pr441 O466 2.562 . S
Pr441 O467 2.490 . S
Pr441 O468 2.695 . S
Pr441 O469 2.512 . S
Pr441 O471 2.437 . S
C442 Pr440 2.880 . S
C442 C443 1.491 . S
C442 O460 1.254 . S
C442 O461 1.225 . S
C443 C442 1.491 . S
C443 C444 1.392 . S
C443 C448 1.356 . S
C444 C443 1.392 . S
C444 C445 1.368 . S
C444 H472 0.929 . S
C445 C444 1.368 . S
C445 C446 1.386 . S
C445 H473 0.929 . S
C446 C445 1.386 . S
C446 C447 1.373 . S
C447 C446 1.373 . S
C447 C448 1.409 . S
C447 H474 0.931 . S
C448 C443 1.356 . S
C448 C447 1.409 . S
C448 H475 0.930 . S
C449 O462 1.270 . S
C449 O463 1.248 . S
C450 O464 1.267 . S
C450 O465 1.278 . S
C451 Pr441 2.880 . S
C451 C452 1.491 . S
C451 O466 1.254 . S
C451 O467 1.225 . S
C452 C451 1.491 . S
C452 C453 1.392 . S
C452 C457 1.356 . S
C453 C452 1.392 . S
C453 C454 1.368 . S
C453 H476 0.929 . S
C454 C453 1.368 . S
C454 C455 1.386 . S
C454 H477 0.929 . S
C455 C454 1.386 . S
C455 C456 1.373 . S
C456 C455 1.373 . S
C456 C457 1.409 . S
C456 H478 0.931 . S
C457 C452 1.356 . S
C457 C456 1.409 . S
C457 H479 0.930 . S
C458 O468 1.270 . S
C458 O469 1.248 . S
C459 O470 1.267 . S
C459 O471 1.278 . S
O460 Pr440 2.562 . S
O460 C442 1.254 . S
O461 Pr440 2.490 . S
O461 C442 1.225 . S
O462 Pr440 2.695 . S
O462 Pr441 2.436 . S
O462 C449 1.270 . S
O463 Pr440 2.512 . S
O463 C449 1.248 . S
O464 Pr441 2.438 . S
O464 C450 1.267 . S
O465 Pr440 2.437 . S
O465 C450 1.278 . S
O466 Pr441 2.562 . S
O466 C451 1.254 . S
O467 Pr441 2.490 . S
O467 C451 1.225 . S
O468 Pr440 2.436 . S
O468 Pr441 2.695 . S
O468 C458 1.270 . S
O469 Pr441 2.512 . S
O469 C458 1.248 . S
O470 Pr440 2.438 . S
O470 C459 1.267 . S
O471 Pr441 2.437 . S
O471 C459 1.278 . S
H472 C444 0.929 . S
H473 C445 0.929 . S
H474 C447 0.931 . S
H475 C448 0.930 . S
H476 C453 0.929 . S
H477 C454 0.929 . S
H478 C456 0.931 . S
H479 C457 0.930 . S
Pr480 C482 2.880 . S
Pr480 O500 2.562 . S
Pr480 O501 2.490 . S
Pr480 O502 2.695 . S
Pr480 O503 2.512 . S
Pr480 O505 2.437 . S
Pr480 O508 2.436 . S
Pr480 O510 2.438 . S
Pr481 C491 2.880 . S
Pr481 O502 2.436 . S
Pr481 O504 2.438 . S
Pr481 O506 2.562 . S
Pr481 O507 2.490 . S
Pr481 O508 2.695 . S
Pr481 O509 2.512 . S
Pr481 O511 2.437 . S
C482 Pr480 2.880 . S
C482 C483 1.491 . S
C482 O500 1.254 . S
C482 O501 1.225 . S
C483 C482 1.491 . S
C483 C484 1.392 . S
C483 C488 1.356 . S
C484 C483 1.392 . S
C484 C485 1.368 . S
C484 H512 0.929 . S
C485 C484 1.368 . S
C485 C486 1.386 . S
C485 H513 0.929 . S
C486 C485 1.386 . S
C486 C487 1.373 . S
C487 C486 1.373 . S
C487 C488 1.409 . S
C487 H514 0.931 . S
C488 C483 1.356 . S
C488 C487 1.409 . S
C488 H515 0.930 . S
C489 O502 1.270 . S
C489 O503 1.248 . S
C490 O504 1.267 . S
C490 O505 1.278 . S
C491 Pr481 2.880 . S
C491 C492 1.491 . S
C491 O506 1.254 . S
C491 O507 1.225 . S
C492 C491 1.491 . S
C492 C493 1.392 . S
C492 C497 1.356 . S
C493 C492 1.392 . S
C493 C494 1.368 . S
C493 H516 0.929 . S
C494 C493 1.368 . S
C494 C495 1.386 . S
C494 H517 0.929 . S
C495 C494 1.386 . S
C495 C496 1.373 . S
C496 C495 1.373 . S
C496 C497 1.409 . S
C496 H518 0.931 . S
C497 C492 1.356 . S
C497 C496 1.409 . S
C497 H519 0.930 . S
C498 O508 1.270 . S
C498 O509 1.248 . S
C499 O510 1.267 . S
C499 O511 1.278 . S
O500 Pr480 2.562 . S
O500 C482 1.254 . S
O501 Pr480 2.490 . S
O501 C482 1.225 . S
O502 Pr480 2.695 . S
O502 Pr481 2.436 . S
O502 C489 1.270 . S
O503 Pr480 2.512 . S
O503 C489 1.248 . S
O504 Pr481 2.438 . S
O504 C490 1.267 . S
O505 Pr480 2.437 . S
O505 C490 1.278 . S
O506 Pr481 2.562 . S
O506 C491 1.254 . S
O507 Pr481 2.490 . S
O507 C491 1.225 . S
O508 Pr480 2.436 . S
O508 Pr481 2.695 . S
O508 C498 1.270 . S
O509 Pr481 2.512 . S
O509 C498 1.248 . S
O510 Pr480 2.438 . S
O510 C499 1.267 . S
O511 Pr481 2.437 . S
O511 C499 1.278 . S
H512 C484 0.929 . S
H513 C485 0.929 . S
H514 C487 0.931 . S
H515 C488 0.930 . S
H516 C493 0.929 . S
H517 C494 0.929 . S
H518 C496 0.931 . S
H519 C497 0.930 . S
Pr520 C522 2.880 . S
Pr520 O540 2.562 . S
Pr520 O541 2.490 . S
Pr520 O542 2.695 . S
Pr520 O543 2.512 . S
Pr520 O545 2.437 . S
Pr520 O548 2.436 . S
Pr520 O550 2.438 . S
Pr521 C531 2.880 . S
Pr521 O542 2.436 . S
Pr521 O544 2.438 . S
Pr521 O546 2.562 . S
Pr521 O547 2.490 . S
Pr521 O548 2.695 . S
Pr521 O549 2.512 . S
Pr521 O551 2.437 . S
C522 Pr520 2.880 . S
C522 C523 1.491 . S
C522 O540 1.254 . S
C522 O541 1.225 . S
C523 C522 1.491 . S
C523 C524 1.392 . S
C523 C528 1.356 . S
C524 C523 1.392 . S
C524 C525 1.368 . S
C524 H552 0.929 . S
C525 C524 1.368 . S
C525 C526 1.386 . S
C525 H553 0.929 . S
C526 C525 1.386 . S
C526 C527 1.373 . S
C527 C526 1.373 . S
C527 C528 1.409 . S
C527 H554 0.931 . S
C528 C523 1.356 . S
C528 C527 1.409 . S
C528 H555 0.930 . S
C529 O542 1.270 . S
C529 O543 1.248 . S
C530 O544 1.267 . S
C530 O545 1.278 . S
C531 Pr521 2.880 . S
C531 C532 1.491 . S
C531 O546 1.254 . S
C531 O547 1.225 . S
C532 C531 1.491 . S
C532 C533 1.392 . S
C532 C537 1.356 . S
C533 C532 1.392 . S
C533 C534 1.368 . S
C533 H556 0.929 . S
C534 C533 1.368 . S
C534 C535 1.386 . S
C534 H557 0.929 . S
C535 C534 1.386 . S
C535 C536 1.373 . S
C536 C535 1.373 . S
C536 C537 1.409 . S
C536 H558 0.931 . S
C537 C532 1.356 . S
C537 C536 1.409 . S
C537 H559 0.930 . S
C538 O548 1.270 . S
C538 O549 1.248 . S
C539 O550 1.267 . S
C539 O551 1.278 . S
O540 Pr520 2.562 . S
O540 C522 1.254 . S
O541 Pr520 2.490 . S
O541 C522 1.225 . S
O542 Pr520 2.695 . S
O542 Pr521 2.436 . S
O542 C529 1.270 . S
O543 Pr520 2.512 . S
O543 C529 1.248 . S
O544 Pr521 2.438 . S
O544 C530 1.267 . S
O545 Pr520 2.437 . S
O545 C530 1.278 . S
O546 Pr521 2.562 . S
O546 C531 1.254 . S
O547 Pr521 2.490 . S
O547 C531 1.225 . S
O548 Pr520 2.436 . S
O548 Pr521 2.695 . S
O548 C538 1.270 . S
O549 Pr521 2.512 . S
O549 C538 1.248 . S
O550 Pr520 2.438 . S
O550 C539 1.267 . S
O551 Pr521 2.437 . S
O551 C539 1.278 . S
H552 C524 0.929 . S
H553 C525 0.929 . S
H554 C527 0.931 . S
H555 C528 0.930 . S
H556 C533 0.929 . S
H557 C534 0.929 . S
H558 C536 0.931 . S
H559 C537 0.930 . S
Pr560 C562 2.880 . S
Pr560 O580 2.562 . S
Pr560 O581 2.490 . S
Pr560 O582 2.695 . S
Pr560 O583 2.512 . S
Pr560 O585 2.437 . S
Pr560 O588 2.436 . S
Pr560 O590 2.438 . S
Pr561 C571 2.880 . S
Pr561 O582 2.436 . S
Pr561 O584 2.438 . S
Pr561 O586 2.562 . S
Pr561 O587 2.490 . S
Pr561 O588 2.695 . S
Pr561 O589 2.512 . S
Pr561 O591 2.437 . S
C562 Pr560 2.880 . S
C562 C563 1.491 . S
C562 O580 1.254 . S
C562 O581 1.225 . S
C563 C562 1.491 . S
C563 C564 1.392 . S
C563 C568 1.356 . S
C564 C563 1.392 . S
C564 C565 1.368 . S
C564 H592 0.929 . S
C565 C564 1.368 . S
C565 C566 1.386 . S
C565 H593 0.929 . S
C566 C565 1.386 . S
C566 C567 1.373 . S
C567 C566 1.373 . S
C567 C568 1.409 . S
C567 H594 0.931 . S
C568 C563 1.356 . S
C568 C567 1.409 . S
C568 H595 0.930 . S
C569 O582 1.270 . S
C569 O583 1.248 . S
C570 O584 1.267 . S
C570 O585 1.278 . S
C571 Pr561 2.880 . S
C571 C572 1.491 . S
C571 O586 1.254 . S
C571 O587 1.225 . S
C572 C571 1.491 . S
C572 C573 1.392 . S
C572 C577 1.356 . S
C573 C572 1.392 . S
C573 C574 1.368 . S
C573 H596 0.929 . S
C574 C573 1.368 . S
C574 C575 1.386 . S
C574 H597 0.929 . S
C575 C574 1.386 . S
C575 C576 1.373 . S
C576 C575 1.373 . S
C576 C577 1.409 . S
C576 H598 0.931 . S
C577 C572 1.356 . S
C577 C576 1.409 . S
C577 H599 0.930 . S
C578 O588 1.270 . S
C578 O589 1.248 . S
C579 O590 1.267 . S
C579 O591 1.278 . S
O580 Pr560 2.562 . S
O580 C562 1.254 . S
O581 Pr560 2.490 . S
O581 C562 1.225 . S
O582 Pr560 2.695 . S
O582 Pr561 2.436 . S
O582 C569 1.270 . S
O583 Pr560 2.512 . S
O583 C569 1.248 . S
O584 Pr561 2.438 . S
O584 C570 1.267 . S
O585 Pr560 2.437 . S
O585 C570 1.278 . S
O586 Pr561 2.562 . S
O586 C571 1.254 . S
O587 Pr561 2.490 . S
O587 C571 1.225 . S
O588 Pr560 2.436 . S
O588 Pr561 2.695 . S
O588 C578 1.270 . S
O589 Pr561 2.512 . S
O589 C578 1.248 . S
O590 Pr560 2.438 . S
O590 C579 1.267 . S
O591 Pr561 2.437 . S
O591 C579 1.278 . S
H592 C564 0.929 . S
H593 C565 0.929 . S
H594 C567 0.931 . S
H595 C568 0.930 . S
H596 C573 0.929 . S
H597 C574 0.929 . S
H598 C576 0.931 . S
H599 C577 0.930 . S
Pr600 C602 2.880 . S
Pr600 O620 2.562 . S
Pr600 O621 2.490 . S
Pr600 O622 2.695 . S
Pr600 O623 2.512 . S
Pr600 O625 2.437 . S
Pr600 O628 2.436 . S
Pr600 O630 2.438 . S
Pr601 C611 2.880 . S
Pr601 O622 2.436 . S
Pr601 O624 2.438 . S
Pr601 O626 2.562 . S
Pr601 O627 2.490 . S
Pr601 O628 2.695 . S
Pr601 O629 2.512 . S
Pr601 O631 2.437 . S
C602 Pr600 2.880 . S
C602 C603 1.491 . S
C602 O620 1.254 . S
C602 O621 1.225 . S
C603 C602 1.491 . S
C603 C604 1.392 . S
C603 C608 1.356 . S
C604 C603 1.392 . S
C604 C605 1.368 . S
C604 H632 0.929 . S
C605 C604 1.368 . S
C605 C606 1.386 . S
C605 H633 0.929 . S
C606 C605 1.386 . S
C606 C607 1.373 . S
C607 C606 1.373 . S
C607 C608 1.409 . S
C607 H634 0.931 . S
C608 C603 1.356 . S
C608 C607 1.409 . S
C608 H635 0.930 . S
C609 O622 1.270 . S
C609 O623 1.248 . S
C610 O624 1.267 . S
C610 O625 1.278 . S
C611 Pr601 2.880 . S
C611 C612 1.491 . S
C611 O626 1.254 . S
C611 O627 1.225 . S
C612 C611 1.491 . S
C612 C613 1.392 . S
C612 C617 1.356 . S
C613 C612 1.392 . S
C613 C614 1.368 . S
C613 H636 0.929 . S
C614 C613 1.368 . S
C614 C615 1.386 . S
C614 H637 0.929 . S
C615 C614 1.386 . S
C615 C616 1.373 . S
C616 C615 1.373 . S
C616 C617 1.409 . S
C616 H638 0.931 . S
C617 C612 1.356 . S
C617 C616 1.409 . S
C617 H639 0.930 . S
C618 O628 1.270 . S
C618 O629 1.248 . S
C619 O630 1.267 . S
C619 O631 1.278 . S
O620 Pr600 2.562 . S
O620 C602 1.254 . S
O621 Pr600 2.490 . S
O621 C602 1.225 . S
O622 Pr600 2.695 . S
O622 Pr601 2.436 . S
O622 C609 1.270 . S
O623 Pr600 2.512 . S
O623 C609 1.248 . S
O624 Pr601 2.438 . S
O624 C610 1.267 . S
O625 Pr600 2.437 . S
O625 C610 1.278 . S
O626 Pr601 2.562 . S
O626 C611 1.254 . S
O627 Pr601 2.490 . S
O627 C611 1.225 . S
O628 Pr600 2.436 . S
O628 Pr601 2.695 . S
O628 C618 1.270 . S
O629 Pr601 2.512 . S
O629 C618 1.248 . S
O630 Pr600 2.438 . S
O630 C619 1.267 . S
O631 Pr601 2.437 . S
O631 C619 1.278 . S
H632 C604 0.929 . S
H633 C605 0.929 . S
H634 C607 0.931 . S
H635 C608 0.930 . S
H636 C613 0.929 . S
H637 C614 0.929 . S
H638 C616 0.931 . S
H639 C617 0.930 . S
H640 C646 0.930 . S
H641 C650 0.930 . S
H642 C655 0.929 . S
H643 C653 0.929 . S
H644 C648 0.929 . S
H645 C654 0.929 . S
C646 H640 0.930 . S
C646 C647 1.367 . S
C646 C654 1.378 . S
C647 C646 1.367 . S
C647 C655 1.433 . S
C648 H644 0.929 . S
C648 C650 1.378 1_565 S
C648 C652 1.350 . S
C649 C652 1.463 . S
C649 C654 1.350 . S
C649 N657 1.427 . S
C650 H641 0.930 . S
C650 C648 1.378 1_545 S
C650 C651 1.367 . S
C651 C650 1.367 . S
C651 C653 1.433 . S
C652 C648 1.350 . S
C652 C649 1.463 . S
C652 N656 1.427 1_565 S
C653 H643 0.929 . S
C653 C651 1.433 . S
C653 N656 1.384 . S
C654 H645 0.929 . S
C654 C646 1.378 . S
C654 C649 1.350 . S
C655 H642 0.929 . S
C655 C647 1.433 . S
C655 N657 1.384 . S
N656 C652 1.427 1_545 S
N656 C653 1.384 . S
N657 C649 1.427 . S
N657 C655 1.384 . S
H658 C664 0.930 . S
H659 C668 0.930 . S
H660 C673 0.929 . S
H661 C671 0.929 . S
H662 C666 0.929 . S
H663 C672 0.929 . S
C664 H658 0.930 . S
C664 C665 1.367 . S
C664 C672 1.378 . S
C665 C664 1.367 . S
C665 C673 1.433 . S
C666 H662 0.929 . S
C666 C668 1.378 1_655 S
C666 C670 1.350 . S
C667 C670 1.463 . S
C667 C672 1.350 . S
C667 N675 1.427 . S
C668 H659 0.930 . S
C668 C666 1.378 1_455 S
C668 C669 1.367 . S
C669 C668 1.367 . S
C669 C671 1.433 . S
C670 C666 1.350 . S
C670 C667 1.463 . S
C670 N674 1.427 1_655 S
C671 H661 0.929 . S
C671 C669 1.433 . S
C671 N674 1.384 . S
C672 H663 0.929 . S
C672 C664 1.378 . S
C672 C667 1.350 . S
C673 H660 0.929 . S
C673 C665 1.433 . S
C673 N675 1.384 . S
N674 C670 1.427 1_455 S
N674 C671 1.384 . S
N675 C667 1.427 . S
N675 C673 1.384 . S
H676 C682 0.930 . S
H677 C686 0.930 . S
H678 C691 0.929 . S
H679 C689 0.929 . S
H680 C684 0.929 . S
H681 C690 0.929 . S
C682 H676 0.930 . S
C682 C683 1.367 . S
C682 C690 1.378 . S
C683 C682 1.367 . S
C683 C691 1.433 . S
C684 H680 0.929 . S
C684 C686 1.378 . S
C684 C688 1.350 . S
C685 C688 1.463 . S
C685 C690 1.350 1_545 S
C685 N693 1.427 . S
C686 H677 0.930 . S
C686 C684 1.378 . S
C686 C687 1.367 . S
C687 C686 1.367 . S
C687 C689 1.433 . S
C688 C684 1.350 . S
C688 C685 1.463 . S
C688 N692 1.427 . S
C689 H679 0.929 . S
C689 C687 1.433 . S
C689 N692 1.384 . S
C690 H681 0.929 . S
C690 C682 1.378 . S
C690 C685 1.350 1_565 S
C691 H678 0.929 . S
C691 C683 1.433 . S
C691 N693 1.384 1_565 S
N692 C688 1.427 . S
N692 C689 1.384 . S
N693 C685 1.427 . S
N693 C691 1.384 1_545 S
H694 C700 0.930 . S
H695 C704 0.930 . S
H696 C709 0.929 . S
H697 C707 0.929 . S
H698 C702 0.929 . S
H699 C708 0.929 . S
C700 H694 0.930 . S
C700 C701 1.367 . S
C700 C708 1.378 . S
C701 C700 1.367 . S
C701 C709 1.433 . S
C702 H698 0.929 . S
C702 C704 1.378 . S
C702 C706 1.350 . S
C703 C706 1.463 . S
C703 C708 1.350 1_455 S
C703 N711 1.427 . S
C704 H695 0.930 . S
C704 C702 1.378 . S
C704 C705 1.367 . S
C705 C704 1.367 . S
C705 C707 1.433 . S
C706 C702 1.350 . S
C706 C703 1.463 . S
C706 N710 1.427 . S
C707 H697 0.929 . S
C707 C705 1.433 . S
C707 N710 1.384 . S
C708 H699 0.929 . S
C708 C700 1.378 . S
C708 C703 1.350 1_655 S
C709 H696 0.929 . S
C709 C701 1.433 . S
C709 N711 1.384 1_655 S
N710 C706 1.427 . S
N710 C707 1.384 . S
N711 C703 1.427 . S
N711 C709 1.384 1_455 S
H712 C718 0.930 . S
H713 C722 0.930 . S
H714 C727 0.929 . S
H715 C725 0.929 . S
H716 C720 0.929 . S
H717 C726 0.929 . S
C718 H712 0.930 . S
C718 C719 1.367 . S
C718 C726 1.378 . S
C719 C718 1.367 . S
C719 C727 1.433 . S
C720 H716 0.929 . S
C720 C722 1.378 . S
C720 C724 1.350 1_556 S
C721 C724 1.463 . S
C721 C726 1.350 . S
C721 N729 1.427 . S
C722 H713 0.930 . S
C722 C720 1.378 . S
C722 C723 1.367 . S
C723 C722 1.367 . S
C723 C725 1.433 1_556 S
C724 C720 1.350 1_554 S
C724 C721 1.463 . S
C724 N728 1.427 . S
C725 H715 0.929 . S
C725 C723 1.433 1_554 S
C725 N728 1.384 . S
C726 H717 0.929 . S
C726 C718 1.378 . S
C726 C721 1.350 . S
C727 H714 0.929 . S
C727 C719 1.433 . S
C727 N729 1.384 . S
N728 C724 1.427 . S
N728 C725 1.384 . S
N729 C721 1.427 . S
N729 C727 1.384 . S
H730 C736 0.930 . S
H731 C740 0.930 . S
H732 C745 0.929 . S
H733 C743 0.929 . S
H734 C738 0.929 . S
H735 C744 0.929 . S
C736 H730 0.930 . S
C736 C737 1.367 . S
C736 C744 1.378 . S
C737 C736 1.367 . S
C737 C745 1.433 1_554 S
C738 H734 0.929 . S
C738 C740 1.378 . S
C738 C742 1.350 . S
C739 C742 1.463 . S
C739 C744 1.350 1_556 S
C739 N747 1.427 . S
C740 H731 0.930 . S
C740 C738 1.378 . S
C740 C741 1.367 . S
C741 C740 1.367 . S
C741 C743 1.433 . S
C742 C738 1.350 . S
C742 C739 1.463 . S
C742 N746 1.427 . S
C743 H733 0.929 . S
C743 C741 1.433 . S
C743 N746 1.384 . S
C744 H735 0.929 . S
C744 C736 1.378 . S
C744 C739 1.350 1_554 S
C745 H732 0.929 . S
C745 C737 1.433 1_556 S
C745 N747 1.384 . S
N746 C742 1.427 . S
N746 C743 1.384 . S
N747 C739 1.427 . S
N747 C745 1.384 . S
H748 C754 0.930 . S
H749 C758 0.930 . S
H750 C763 0.929 . S
H751 C761 0.929 . S
H752 C756 0.929 . S
H753 C762 0.929 . S
C754 H748 0.930 . S
C754 C755 1.367 . S
C754 C762 1.378 . S
C755 C754 1.367 . S
C755 C763 1.433 . S
C756 H752 0.929 . S
C756 C758 1.378 . S
C756 C760 1.350 . S
C757 C760 1.463 . S
C757 C762 1.350 . S
C757 N765 1.427 . S
C758 H749 0.930 . S
C758 C756 1.378 . S
C758 C759 1.367 1_554 S
C759 C758 1.367 1_556 S
C759 C761 1.433 . S
C760 C756 1.350 . S
C760 C757 1.463 . S
C760 N764 1.427 1_554 S
C761 H751 0.929 . S
C761 C759 1.433 . S
C761 N764 1.384 . S
C762 H753 0.929 . S
C762 C754 1.378 . S
C762 C757 1.350 . S
C763 H750 0.929 . S
C763 C755 1.433 . S
C763 N765 1.384 . S
N764 C760 1.427 1_556 S
N764 C761 1.384 . S
N765 C757 1.427 . S
N765 C763 1.384 . S
H766 C772 0.930 . S
H767 C776 0.930 . S
H768 C781 0.929 . S
H769 C779 0.929 . S
H770 C774 0.929 . S
H771 C780 0.929 . S
C772 H766 0.930 . S
C772 C773 1.367 1_556 S
C772 C780 1.378 . S
C773 C772 1.367 1_554 S
C773 C781 1.433 . S
C774 H770 0.929 . S
C774 C776 1.378 . S
C774 C778 1.350 . S
C775 C778 1.463 . S
C775 C780 1.350 . S
C775 N783 1.427 1_556 S
C776 H767 0.930 . S
C776 C774 1.378 . S
C776 C777 1.367 . S
C777 C776 1.367 . S
C777 C779 1.433 . S
C778 C774 1.350 . S
C778 C775 1.463 . S
C778 N782 1.427 . S
C779 H769 0.929 . S
C779 C777 1.433 . S
C779 N782 1.384 . S
C780 H771 0.929 . S
C780 C772 1.378 . S
C780 C775 1.350 . S
C781 H768 0.929 . S
C781 C773 1.433 . S
C781 N783 1.384 . S
N782 C778 1.427 . S
N782 C779 1.384 . S
N783 C775 1.427 1_554 S
N783 C781 1.384 . S
H784 C790 0.930 . S
H785 C794 0.930 . S
H786 C799 0.929 . S
H787 C797 0.929 . S
H788 C792 0.929 . S
H789 C798 0.929 . S
C790 H784 0.930 . S
C790 C791 1.367 . S
C790 C798 1.378 . S
C791 C790 1.367 . S
C791 C799 1.433 . S
C792 H788 0.929 . S
C792 C794 1.378 . S
C792 C796 1.350 . S
C793 C796 1.463 . S
C793 C798 1.350 . S
C793 N801 1.427 . S
C794 H785 0.930 . S
C794 C792 1.378 . S
C794 C795 1.367 . S
C795 C794 1.367 . S
C795 C797 1.433 . S
C796 C792 1.350 . S
C796 C793 1.463 . S
C796 N800 1.427 . S
C797 H787 0.929 . S
C797 C795 1.433 . S
C797 N800 1.384 . S
C798 H789 0.929 . S
C798 C790 1.378 . S
C798 C793 1.350 . S
C799 H786 0.929 . S
C799 C791 1.433 . S
C799 N801 1.384 . S
N800 C796 1.427 . S
N800 C797 1.384 . S
N801 C793 1.427 . S
N801 C799 1.384 . S
H802 C808 0.930 . S
H803 C812 0.930 . S
H804 C817 0.929 . S
H805 C815 0.929 . S
H806 C810 0.929 . S
H807 C816 0.929 . S
C808 H802 0.930 . S
C808 C809 1.367 . S
C808 C816 1.378 . S
C809 C808 1.367 . S
C809 C817 1.433 . S
C810 H806 0.929 . S
C810 C812 1.378 . S
C810 C814 1.350 . S
C811 C814 1.463 . S
C811 C816 1.350 . S
C811 N819 1.427 . S
C812 H803 0.930 . S
C812 C810 1.378 . S
C812 C813 1.367 . S
C813 C812 1.367 . S
C813 C815 1.433 . S
C814 C810 1.350 . S
C814 C811 1.463 . S
C814 N818 1.427 . S
C815 H805 0.929 . S
C815 C813 1.433 . S
C815 N818 1.384 . S
C816 H807 0.929 . S
C816 C808 1.378 . S
C816 C811 1.350 . S
C817 H804 0.929 . S
C817 C809 1.433 . S
C817 N819 1.384 . S
N818 C814 1.427 . S
N818 C815 1.384 . S
N819 C811 1.427 . S
N819 C817 1.384 . S
H820 C826 0.930 . S
H821 C830 0.930 . S
H822 C835 0.929 . S
H823 C833 0.929 . S
H824 C828 0.929 . S
H825 C834 0.929 . S
C826 H820 0.930 . S
C826 C827 1.367 . S
C826 C834 1.378 . S
C827 C826 1.367 . S
C827 C835 1.433 . S
C828 H824 0.929 . S
C828 C830 1.378 . S
C828 C832 1.350 . S
C829 C832 1.463 . S
C829 C834 1.350 . S
C829 N837 1.427 . S
C830 H821 0.930 . S
C830 C828 1.378 . S
C830 C831 1.367 . S
C831 C830 1.367 . S
C831 C833 1.433 . S
C832 C828 1.350 . S
C832 C829 1.463 . S
C832 N836 1.427 . S
C833 H823 0.929 . S
C833 C831 1.433 . S
C833 N836 1.384 . S
C834 H825 0.929 . S
C834 C826 1.378 . S
C834 C829 1.350 . S
C835 H822 0.929 . S
C835 C827 1.433 . S
C835 N837 1.384 . S
N836 C832 1.427 . S
N836 C833 1.384 . S
N837 C829 1.427 . S
N837 C835 1.384 . S
H838 C844 0.930 . S
H839 C848 0.930 . S
H840 C853 0.929 . S
H841 C851 0.929 . S
H842 C846 0.929 . S
H843 C852 0.929 . S
C844 H838 0.930 . S
C844 C845 1.367 . S
C844 C852 1.378 . S
C845 C844 1.367 . S
C845 C853 1.433 . S
C846 H842 0.929 . S
C846 C848 1.378 . S
C846 C850 1.350 . S
C847 C850 1.463 . S
C847 C852 1.350 . S
C847 N855 1.427 . S
C848 H839 0.930 . S
C848 C846 1.378 . S
C848 C849 1.367 . S
C849 C848 1.367 . S
C849 C851 1.433 . S
C850 C846 1.350 . S
C850 C847 1.463 . S
C850 N854 1.427 . S
C851 H841 0.929 . S
C851 C849 1.433 . S
C851 N854 1.384 . S
C852 H843 0.929 . S
C852 C844 1.378 . S
C852 C847 1.350 . S
C853 H840 0.929 . S
C853 C845 1.433 . S
C853 N855 1.384 . S
N854 C850 1.427 . S
N854 C851 1.384 . S
N855 C847 1.427 . S
N855 C853 1.384 . S
H856 C862 0.930 . S
H857 C866 0.930 . S
H858 C871 0.929 . S
H859 C869 0.929 . S
H860 C864 0.929 . S
H861 C870 0.929 1_545 S
C862 H856 0.930 . S
C862 C863 1.367 . S
C862 C870 1.378 . S
C863 C862 1.367 . S
C863 C871 1.433 . S
C864 H860 0.929 . S
C864 C866 1.378 . S
C864 C868 1.350 . S
C865 C868 1.463 . S
C865 C870 1.350 1_545 S
C865 N873 1.427 . S
C866 H857 0.930 . S
C866 C864 1.378 . S
C866 C867 1.367 . S
C867 C866 1.367 . S
C867 C869 1.433 . S
C868 C864 1.350 . S
C868 C865 1.463 . S
C868 N872 1.427 . S
C869 H859 0.929 . S
C869 C867 1.433 . S
C869 N872 1.384 . S
C870 H861 0.929 1_565 S
C870 C862 1.378 . S
C870 C865 1.350 1_565 S
C871 H858 0.929 . S
C871 C863 1.433 . S
C871 N873 1.384 1_565 S
N872 C868 1.427 . S
N872 C869 1.384 . S
N873 C865 1.427 . S
N873 C871 1.384 1_545 S
H874 C880 0.930 . S
H875 C884 0.930 . S
H876 C889 0.929 . S
H877 C887 0.929 . S
H878 C882 0.929 . S
H879 C888 0.929 . S
C880 H874 0.930 . S
C880 C881 1.367 . S
C880 C888 1.378 . S
C881 C880 1.367 . S
C881 C889 1.433 . S
C882 H878 0.929 . S
C882 C884 1.378 1_455 S
C882 C886 1.350 . S
C883 C886 1.463 . S
C883 C888 1.350 . S
C883 N891 1.427 . S
C884 H875 0.930 . S
C884 C882 1.378 1_655 S
C884 C885 1.367 . S
C885 C884 1.367 . S
C885 C887 1.433 . S
C886 C882 1.350 . S
C886 C883 1.463 . S
C886 N890 1.427 1_455 S
C887 H877 0.929 . S
C887 C885 1.433 . S
C887 N890 1.384 . S
C888 H879 0.929 . S
C888 C880 1.378 . S
C888 C883 1.350 . S
C889 H876 0.929 . S
C889 C881 1.433 . S
C889 N891 1.384 . S
N890 C886 1.427 1_655 S
N890 C887 1.384 . S
N891 C883 1.427 . S
N891 C889 1.384 . S
H892 C898 0.930 . S
H893 C902 0.930 . S
H894 C907 0.929 . S
H895 C905 0.929 . S
H896 C900 0.929 . S
H897 C906 0.929 . S
C898 H892 0.930 . S
C898 C899 1.367 . S
C898 C906 1.378 . S
C899 C898 1.367 . S
C899 C907 1.433 . S
C900 H896 0.929 . S
C900 C902 1.378 1_565 S
C900 C904 1.350 . S
C901 C904 1.463 . S
C901 C906 1.350 . S
C901 N909 1.427 . S
C902 H893 0.930 . S
C902 C900 1.378 1_545 S
C902 C903 1.367 . S
C903 C902 1.367 . S
C903 C905 1.433 . S
C904 C900 1.350 . S
C904 C901 1.463 . S
C904 N908 1.427 1_565 S
C905 H895 0.929 . S
C905 C903 1.433 . S
C905 N908 1.384 . S
C906 H897 0.929 . S
C906 C898 1.378 . S
C906 C901 1.350 . S
C907 H894 0.929 . S
C907 C899 1.433 . S
C907 N909 1.384 . S
N908 C904 1.427 1_545 S
N908 C905 1.384 . S
N909 C901 1.427 . S
N909 C907 1.384 . S
H910 C916 0.930 . S
H911 C920 0.930 . S
H912 C925 0.929 . S
H913 C923 0.929 . S
H914 C918 0.929 . S
H915 C924 0.929 . S
C916 H910 0.930 . S
C916 C917 1.367 . S
C916 C924 1.378 1_455 S
C917 C916 1.367 . S
C917 C925 1.433 . S
C918 H914 0.929 . S
C918 C920 1.378 . S
C918 C922 1.350 . S
C919 C922 1.463 . S
C919 C924 1.350 . S
C919 N927 1.427 1_655 S
C920 H911 0.930 . S
C920 C918 1.378 . S
C920 C921 1.367 . S
C921 C920 1.367 . S
C921 C923 1.433 . S
C922 C918 1.350 . S
C922 C919 1.463 . S
C922 N926 1.427 . S
C923 H913 0.929 . S
C923 C921 1.433 . S
C923 N926 1.384 . S
C924 H915 0.929 . S
C924 C916 1.378 1_655 S
C924 C919 1.350 . S
C925 H912 0.929 . S
C925 C917 1.433 . S
C925 N927 1.384 . S
N926 C922 1.427 . S
N926 C923 1.384 . S
N927 C919 1.427 1_455 S
N927 C925 1.384 . S
H928 C934 0.930 . S
H929 C938 0.930 . S
H930 C943 0.929 . S
H931 C941 0.929 . S
H932 C936 0.929 . S
H933 C942 0.929 . S
C934 H928 0.930 . S
C934 C935 1.367 . S
C934 C942 1.378 . S
C935 C934 1.367 . S
C935 C943 1.433 . S
C936 H932 0.929 . S
C936 C938 1.378 . S
C936 C940 1.350 . S
C937 C940 1.463 . S
C937 C942 1.350 . S
C937 N945 1.427 . S
C938 H929 0.930 . S
C938 C936 1.378 . S
C938 C939 1.367 . S
C939 C938 1.367 . S
C939 C941 1.433 . S
C940 C936 1.350 . S
C940 C937 1.463 . S
C940 N944 1.427 . S
C941 H931 0.929 . S
C941 C939 1.433 . S
C941 N944 1.384 . S
C942 H933 0.929 . S
C942 C934 1.378 . S
C942 C937 1.350 . S
C943 H930 0.929 . S
C943 C935 1.433 . S
C943 N945 1.384 . S
N944 C940 1.427 . S
N944 C941 1.384 . S
N945 C937 1.427 . S
N945 C943 1.384 . S
H946 C952 0.930 . S
H947 C956 0.930 . S
H948 C961 0.929 . S
H949 C959 0.929 . S
H950 C954 0.929 . S
H951 C960 0.929 . S
C952 H946 0.930 . S
C952 C953 1.367 . S
C952 C960 1.378 . S
C953 C952 1.367 . S
C953 C961 1.433 . S
C954 H950 0.929 . S
C954 C956 1.378 . S
C954 C958 1.350 . S
C955 C958 1.463 . S
C955 C960 1.350 . S
C955 N963 1.427 . S
C956 H947 0.930 . S
C956 C954 1.378 . S
C956 C957 1.367 . S
C957 C956 1.367 . S
C957 C959 1.433 . S
C958 C954 1.350 . S
C958 C955 1.463 . S
C958 N962 1.427 . S
C959 H949 0.929 . S
C959 C957 1.433 . S
C959 N962 1.384 . S
C960 H951 0.929 . S
C960 C952 1.378 . S
C960 C955 1.350 . S
C961 H948 0.929 . S
C961 C953 1.433 . S
C961 N963 1.384 . S
N962 C958 1.427 . S
N962 C959 1.384 . S
N963 C955 1.427 . S
N963 C961 1.384 . S
H964 C970 0.930 . S
H965 C974 0.930 . S
H966 C979 0.929 . S
H967 C977 0.929 . S
H968 C972 0.929 . S
H969 C978 0.929 . S
C970 H964 0.930 . S
C970 C971 1.367 . S
C970 C978 1.378 . S
C971 C970 1.367 . S
C971 C979 1.433 . S
C972 H968 0.929 . S
C972 C974 1.378 . S
C972 C976 1.350 . S
C973 C976 1.463 . S
C973 C978 1.350 . S
C973 N981 1.427 . S
C974 H965 0.930 . S
C974 C972 1.378 . S
C974 C975 1.367 . S
C975 C974 1.367 . S
C975 C977 1.433 . S
C976 C972 1.350 . S
C976 C973 1.463 . S
C976 N980 1.427 . S
C977 H967 0.929 . S
C977 C975 1.433 . S
C977 N980 1.384 . S
C978 H969 0.929 . S
C978 C970 1.378 . S
C978 C973 1.350 . S
C979 H966 0.929 . S
C979 C971 1.433 . S
C979 N981 1.384 . S
N980 C976 1.427 . S
N980 C977 1.384 . S
N981 C973 1.427 . S
N981 C979 1.384 . S
H982 C988 0.930 . S
H983 C992 0.930 . S
H984 C997 0.929 . S
H985 C995 0.929 . S
H986 C990 0.929 . S
H987 C996 0.929 . S
C988 H982 0.930 . S
C988 C989 1.367 . S
C988 C996 1.378 . S
C989 C988 1.367 . S
C989 C997 1.433 . S
C990 H986 0.929 . S
C990 C992 1.378 . S
C990 C994 1.350 . S
C991 C994 1.463 . S
C991 C996 1.350 . S
C991 N999 1.427 . S
C992 H983 0.930 . S
C992 C990 1.378 . S
C992 C993 1.367 . S
C993 C992 1.367 . S
C993 C995 1.433 . S
C994 C990 1.350 . S
C994 C991 1.463 . S
C994 N998 1.427 . S
C995 H985 0.929 . S
C995 C993 1.433 . S
C995 N998 1.384 . S
C996 H987 0.929 . S
C996 C988 1.378 . S
C996 C991 1.350 . S
C997 H984 0.929 . S
C997 C989 1.433 . S
C997 N999 1.384 . S
N998 C994 1.427 . S
N998 C995 1.384 . S
N999 C991 1.427 . S
N999 C997 1.384 . S
H1000 C1006 0.930 . S
H1001 C1010 0.930 . S
H1002 C1015 0.929 . S
H1003 C1013 0.929 . S
H1004 C1008 0.929 . S
H1005 C1014 0.929 . S
C1006 H1000 0.930 . S
C1006 C1007 1.367 . S
C1006 C1014 1.378 . S
C1007 C1006 1.367 . S
C1007 C1015 1.433 . S
C1008 H1004 0.929 . S
C1008 C1010 1.378 . S
C1008 C1012 1.350 . S
C1009 C1012 1.463 . S
C1009 C1014 1.350 . S
C1009 N1017 1.427 . S
C1010 H1001 0.930 . S
C1010 C1008 1.378 . S
C1010 C1011 1.367 . S
C1011 C1010 1.367 . S
C1011 C1013 1.433 . S
C1012 C1008 1.350 . S
C1012 C1009 1.463 . S
C1012 N1016 1.427 . S
C1013 H1003 0.929 . S
C1013 C1011 1.433 . S
C1013 N1016 1.384 . S
C1014 H1005 0.929 . S
C1014 C1006 1.378 . S
C1014 C1009 1.350 . S
C1015 H1002 0.929 . S
C1015 C1007 1.433 . S
C1015 N1017 1.384 . S
N1016 C1012 1.427 . S
N1016 C1013 1.384 . S
N1017 C1009 1.427 . S
N1017 C1015 1.384 . S
H1018 C1024 0.930 . S
H1019 C1028 0.930 . S
H1020 C1033 0.929 . S
H1021 C1031 0.929 . S
H1022 C1026 0.929 . S
H1023 C1032 0.929 . S
C1024 H1018 0.930 . S
C1024 C1025 1.367 . S
C1024 C1032 1.378 . S
C1025 C1024 1.367 . S
C1025 C1033 1.433 . S
C1026 H1022 0.929 . S
C1026 C1028 1.378 . S
C1026 C1030 1.350 . S
C1027 C1030 1.463 . S
C1027 C1032 1.350 . S
C1027 N1035 1.427 . S
C1028 H1019 0.930 . S
C1028 C1026 1.378 . S
C1028 C1029 1.367 . S
C1029 C1028 1.367 . S
C1029 C1031 1.433 . S
C1030 C1026 1.350 . S
C1030 C1027 1.463 . S
C1030 N1034 1.427 . S
C1031 H1021 0.929 . S
C1031 C1029 1.433 . S
C1031 N1034 1.384 . S
C1032 H1023 0.929 . S
C1032 C1024 1.378 . S
C1032 C1027 1.350 . S
C1033 H1020 0.929 . S
C1033 C1025 1.433 . S
C1033 N1035 1.384 . S
N1034 C1030 1.427 . S
N1034 C1031 1.384 . S
N1035 C1027 1.427 . S
N1035 C1033 1.384 . S
H1036 C1042 0.930 . S
H1037 C1046 0.930 . S
H1038 C1051 0.929 . S
H1039 C1049 0.929 . S
H1040 C1044 0.929 . S
H1041 C1050 0.929 . S
C1042 H1036 0.930 . S
C1042 C1043 1.367 . S
C1042 C1050 1.378 . S
C1043 C1042 1.367 . S
C1043 C1051 1.433 . S
C1044 H1040 0.929 . S
C1044 C1046 1.378 . S
C1044 C1048 1.350 . S
C1045 C1048 1.463 . S
C1045 C1050 1.350 . S
C1045 N1053 1.427 . S
C1046 H1037 0.930 . S
C1046 C1044 1.378 . S
C1046 C1047 1.367 . S
C1047 C1046 1.367 . S
C1047 C1049 1.433 . S
C1048 C1044 1.350 . S
C1048 C1045 1.463 . S
C1048 N1052 1.427 . S
C1049 H1039 0.929 . S
C1049 C1047 1.433 . S
C1049 N1052 1.384 . S
C1050 H1041 0.929 . S
C1050 C1042 1.378 . S
C1050 C1045 1.350 . S
C1051 H1038 0.929 . S
C1051 C1043 1.433 . S
C1051 N1053 1.384 . S
N1052 C1048 1.427 . S
N1052 C1049 1.384 . S
N1053 C1045 1.427 . S
N1053 C1051 1.384 . S
H1054 C1060 0.930 . S
H1055 C1064 0.930 . S
H1056 C1069 0.929 . S
H1057 C1067 0.929 . S
H1058 C1062 0.929 . S
H1059 C1068 0.929 . S
C1060 H1054 0.930 . S
C1060 C1061 1.367 . S
C1060 C1068 1.378 . S
C1061 C1060 1.367 . S
C1061 C1069 1.433 . S
C1062 H1058 0.929 . S
C1062 C1064 1.378 . S
C1062 C1066 1.350 . S
C1063 C1066 1.463 . S
C1063 C1068 1.350 . S
C1063 N1071 1.427 . S
C1064 H1055 0.930 . S
C1064 C1062 1.378 . S
C1064 C1065 1.367 . S
C1065 C1064 1.367 . S
C1065 C1067 1.433 . S
C1066 C1062 1.350 . S
C1066 C1063 1.463 . S
C1066 N1070 1.427 . S
C1067 H1057 0.929 . S
C1067 C1065 1.433 . S
C1067 N1070 1.384 . S
C1068 H1059 0.929 . S
C1068 C1060 1.378 . S
C1068 C1063 1.350 . S
C1069 H1056 0.929 . S
C1069 C1061 1.433 . S
C1069 N1071 1.384 . S
N1070 C1066 1.427 . S
N1070 C1067 1.384 . S
N1071 C1063 1.427 . S
N1071 C1069 1.384 . S
H1072 C1078 0.930 . S
H1073 C1082 0.930 . S
H1074 C1087 0.929 . S
H1075 C1085 0.929 . S
H1076 C1080 0.929 . S
H1077 C1086 0.929 . S
C1078 H1072 0.930 . S
C1078 C1079 1.367 . S
C1078 C1086 1.378 . S
C1079 C1078 1.367 . S
C1079 C1087 1.433 . S
C1080 H1076 0.929 . S
C1080 C1082 1.378 . S
C1080 C1084 1.350 . S
C1081 C1084 1.463 . S
C1081 C1086 1.350 . S
C1081 N1089 1.427 . S
C1082 H1073 0.930 . S
C1082 C1080 1.378 . S
C1082 C1083 1.367 . S
C1083 C1082 1.367 . S
C1083 C1085 1.433 . S
C1084 C1080 1.350 . S
C1084 C1081 1.463 . S
C1084 N1088 1.427 . S
C1085 H1075 0.929 . S
C1085 C1083 1.433 . S
C1085 N1088 1.384 . S
C1086 H1077 0.929 . S
C1086 C1078 1.378 . S
C1086 C1081 1.350 . S
C1087 H1074 0.929 . S
C1087 C1079 1.433 . S
C1087 N1089 1.384 . S
N1088 C1084 1.427 . S
N1088 C1085 1.384 . S
N1089 C1081 1.427 . S
N1089 C1087 1.384 . S
H1090 C1096 0.930 1_556 S
H1091 C1100 0.930 . S
H1092 C1105 0.929 . S
H1093 C1103 0.929 . S
H1094 C1098 0.929 . S
H1095 C1104 0.929 . S
C1096 H1090 0.930 1_554 S
C1096 C1097 1.367 . S
C1096 C1104 1.378 . S
C1097 C1096 1.367 . S
C1097 C1105 1.433 . S
C1098 H1094 0.929 . S
C1098 C1100 1.378 . S
C1098 C1102 1.350 . S
C1099 C1102 1.463 . S
C1099 C1104 1.350 . S
C1099 N1107 1.427 . S
C1100 H1091 0.930 . S
C1100 C1098 1.378 . S
C1100 C1101 1.367 . S
C1101 C1100 1.367 . S
C1101 C1103 1.433 . S
C1102 C1098 1.350 . S
C1102 C1099 1.463 . S
C1102 N1106 1.427 . S
C1103 H1093 0.929 . S
C1103 C1101 1.433 . S
C1103 N1106 1.384 . S
C1104 H1095 0.929 . S
C1104 C1096 1.378 . S
C1104 C1099 1.350 . S
C1105 H1092 0.929 . S
C1105 C1097 1.433 . S
C1105 N1107 1.384 . S
N1106 C1102 1.427 . S
N1106 C1103 1.384 . S
N1107 C1099 1.427 . S
N1107 C1105 1.384 . S
H1108 C1114 0.930 . S
H1109 C1118 0.930 . S
H1110 C1123 0.929 1_554 S
H1111 C1121 0.929 . S
H1112 C1116 0.929 . S
H1113 C1122 0.929 . S
C1114 H1108 0.930 . S
C1114 C1115 1.367 . S
C1114 C1122 1.378 . S
C1115 C1114 1.367 . S
C1115 C1123 1.433 . S
C1116 H1112 0.929 . S
C1116 C1118 1.378 . S
C1116 C1120 1.350 . S
C1117 C1120 1.463 . S
C1117 C1122 1.350 . S
C1117 N1125 1.427 . S
C1118 H1109 0.930 . S
C1118 C1116 1.378 . S
C1118 C1119 1.367 . S
C1119 C1118 1.367 . S
C1119 C1121 1.433 . S
C1120 C1116 1.350 . S
C1120 C1117 1.463 . S
C1120 N1124 1.427 . S
C1121 H1111 0.929 . S
C1121 C1119 1.433 . S
C1121 N1124 1.384 . S
C1122 H1113 0.929 . S
C1122 C1114 1.378 . S
C1122 C1117 1.350 . S
C1123 H1110 0.929 1_556 S
C1123 C1115 1.433 . S
C1123 N1125 1.384 . S
N1124 C1120 1.427 . S
N1124 C1121 1.384 . S
N1125 C1117 1.427 . S
N1125 C1123 1.384 . S
H1126 C1132 0.930 1_556 S
H1127 C1136 0.930 . S
H1128 C1141 0.929 . S
H1129 C1139 0.929 . S
H1130 C1134 0.929 . S
H1131 C1140 0.929 . S
C1132 H1126 0.930 1_554 S
C1132 C1133 1.367 . S
C1132 C1140 1.378 . S
C1133 C1132 1.367 . S
C1133 C1141 1.433 . S
C1134 H1130 0.929 . S
C1134 C1136 1.378 . S
C1134 C1138 1.350 . S
C1135 C1138 1.463 . S
C1135 C1140 1.350 . S
C1135 N1143 1.427 . S
C1136 H1127 0.930 . S
C1136 C1134 1.378 . S
C1136 C1137 1.367 . S
C1137 C1136 1.367 . S
C1137 C1139 1.433 . S
C1138 C1134 1.350 . S
C1138 C1135 1.463 . S
C1138 N1142 1.427 . S
C1139 H1129 0.929 . S
C1139 C1137 1.433 . S
C1139 N1142 1.384 . S
C1140 H1131 0.929 . S
C1140 C1132 1.378 . S
C1140 C1135 1.350 . S
C1141 H1128 0.929 . S
C1141 C1133 1.433 . S
C1141 N1143 1.384 . S
N1142 C1138 1.427 . S
N1142 C1139 1.384 . S
N1143 C1135 1.427 . S
N1143 C1141 1.384 . S
H1144 C1150 0.930 . S
H1145 C1154 0.930 . S
H1146 C1159 0.929 . S
H1147 C1157 0.929 . S
H1148 C1152 0.929 . S
H1149 C1158 0.929 . S
C1150 H1144 0.930 . S
C1150 C1151 1.367 . S
C1150 C1158 1.378 . S
C1151 C1150 1.367 . S
C1151 C1159 1.433 . S
C1152 H1148 0.929 . S
C1152 C1154 1.378 . S
C1152 C1156 1.350 . S
C1153 C1156 1.463 . S
C1153 C1158 1.350 . S
C1153 N1161 1.427 . S
C1154 H1145 0.930 . S
C1154 C1152 1.378 . S
C1154 C1155 1.367 . S
C1155 C1154 1.367 . S
C1155 C1157 1.433 . S
C1156 C1152 1.350 . S
C1156 C1153 1.463 . S
C1156 N1160 1.427 . S
C1157 H1147 0.929 . S
C1157 C1155 1.433 . S
C1157 N1160 1.384 . S
C1158 H1149 0.929 . S
C1158 C1150 1.378 . S
C1158 C1153 1.350 . S
C1159 H1146 0.929 . S
C1159 C1151 1.433 . S
C1159 N1161 1.384 . S
N1160 C1156 1.427 . S
N1160 C1157 1.384 . S
N1161 C1153 1.427 . S
N1161 C1159 1.384 . S
H1162 C1168 0.930 . S
H1163 C1172 0.930 . S
H1164 C1177 0.929 . S
H1165 C1175 0.929 . S
H1166 C1170 0.929 . S
H1167 C1176 0.929 . S
C1168 H1162 0.930 . S
C1168 C1169 1.367 . S
C1168 C1176 1.378 . S
C1169 C1168 1.367 . S
C1169 C1177 1.433 . S
C1170 H1166 0.929 . S
C1170 C1172 1.378 . S
C1170 C1174 1.350 . S
C1171 C1174 1.463 . S
C1171 C1176 1.350 . S
C1171 N1179 1.427 . S
C1172 H1163 0.930 . S
C1172 C1170 1.378 . S
C1172 C1173 1.367 . S
C1173 C1172 1.367 . S
C1173 C1175 1.433 . S
C1174 C1170 1.350 . S
C1174 C1171 1.463 . S
C1174 N1178 1.427 . S
C1175 H1165 0.929 . S
C1175 C1173 1.433 . S
C1175 N1178 1.384 . S
C1176 H1167 0.929 . S
C1176 C1168 1.378 . S
C1176 C1171 1.350 . S
C1177 H1164 0.929 . S
C1177 C1169 1.433 . S
C1177 N1179 1.384 . S
N1178 C1174 1.427 . S
N1178 C1175 1.384 . S
N1179 C1171 1.427 . S
N1179 C1177 1.384 . S
H1180 C1186 0.930 . S
H1181 C1190 0.930 . S
H1182 C1195 0.929 . S
H1183 C1193 0.929 . S
H1184 C1188 0.929 . S
H1185 C1194 0.929 . S
C1186 H1180 0.930 . S
C1186 C1187 1.367 . S
C1186 C1194 1.378 . S
C1187 C1186 1.367 . S
C1187 C1195 1.433 . S
C1188 H1184 0.929 . S
C1188 C1190 1.378 . S
C1188 C1192 1.350 . S
C1189 C1192 1.463 . S
C1189 C1194 1.350 . S
C1189 N1197 1.427 . S
C1190 H1181 0.930 . S
C1190 C1188 1.378 . S
C1190 C1191 1.367 . S
C1191 C1190 1.367 . S
C1191 C1193 1.433 . S
C1192 C1188 1.350 . S
C1192 C1189 1.463 . S
C1192 N1196 1.427 . S
C1193 H1183 0.929 . S
C1193 C1191 1.433 . S
C1193 N1196 1.384 . S
C1194 H1185 0.929 . S
C1194 C1186 1.378 . S
C1194 C1189 1.350 . S
C1195 H1182 0.929 . S
C1195 C1187 1.433 . S
C1195 N1197 1.384 . S
N1196 C1192 1.427 . S
N1196 C1193 1.384 . S
N1197 C1189 1.427 . S
N1197 C1195 1.384 . S
H1198 C1204 0.930 . S
H1199 C1208 0.930 . S
H1200 C1213 0.929 . S
H1201 C1211 0.929 . S
H1202 C1206 0.929 . S
H1203 C1212 0.929 . S
C1204 H1198 0.930 . S
C1204 C1205 1.367 . S
C1204 C1212 1.378 . S
C1205 C1204 1.367 . S
C1205 C1213 1.433 . S
C1206 H1202 0.929 . S
C1206 C1208 1.378 . S
C1206 C1210 1.350 . S
C1207 C1210 1.463 . S
C1207 C1212 1.350 . S
C1207 N1215 1.427 . S
C1208 H1199 0.930 . S
C1208 C1206 1.378 . S
C1208 C1209 1.367 . S
C1209 C1208 1.367 . S
C1209 C1211 1.433 . S
C1210 C1206 1.350 . S
C1210 C1207 1.463 . S
C1210 N1214 1.427 . S
C1211 H1201 0.929 . S
C1211 C1209 1.433 . S
C1211 N1214 1.384 . S
C1212 H1203 0.929 . S
C1212 C1204 1.378 . S
C1212 C1207 1.350 . S
C1213 H1200 0.929 . S
C1213 C1205 1.433 . S
C1213 N1215 1.384 . S
N1214 C1210 1.427 . S
N1214 C1211 1.384 . S
N1215 C1207 1.427 . S
N1215 C1213 1.384 . S
H1216 C1222 0.930 . S
H1217 C1226 0.930 . S
H1218 C1231 0.929 . S
H1219 C1229 0.929 . S
H1220 C1224 0.929 . S
H1221 C1230 0.929 . S
C1222 H1216 0.930 . S
C1222 C1223 1.367 . S
C1222 C1230 1.378 . S
C1223 C1222 1.367 . S
C1223 C1231 1.433 . S
C1224 H1220 0.929 . S
C1224 C1226 1.378 . S
C1224 C1228 1.350 . S
C1225 C1228 1.463 . S
C1225 C1230 1.350 . S
C1225 N1233 1.427 . S
C1226 H1217 0.930 . S
C1226 C1224 1.378 . S
C1226 C1227 1.367 . S
C1227 C1226 1.367 . S
C1227 C1229 1.433 . S
C1228 C1224 1.350 . S
C1228 C1225 1.463 . S
C1228 N1232 1.427 . S
C1229 H1219 0.929 . S
C1229 C1227 1.433 . S
C1229 N1232 1.384 . S
C1230 H1221 0.929 . S
C1230 C1222 1.378 . S
C1230 C1225 1.350 . S
C1231 H1218 0.929 . S
C1231 C1223 1.433 . S
C1231 N1233 1.384 . S
N1232 C1228 1.427 . S
N1232 C1229 1.384 . S
N1233 C1225 1.427 . S
N1233 C1231 1.384 . S
H1234 C1240 0.930 . S
H1235 C1244 0.930 . S
H1236 C1249 0.929 . S
H1237 C1247 0.929 . S
H1238 C1242 0.929 . S
H1239 C1248 0.929 . S
C1240 H1234 0.930 . S
C1240 C1241 1.367 . S
C1240 C1248 1.378 . S
C1241 C1240 1.367 . S
C1241 C1249 1.433 . S
C1242 H1238 0.929 . S
C1242 C1244 1.378 . S
C1242 C1246 1.350 . S
C1243 C1246 1.463 . S
C1243 C1248 1.350 . S
C1243 N1251 1.427 . S
C1244 H1235 0.930 . S
C1244 C1242 1.378 . S
C1244 C1245 1.367 . S
C1245 C1244 1.367 . S
C1245 C1247 1.433 . S
C1246 C1242 1.350 . S
C1246 C1243 1.463 . S
C1246 N1250 1.427 . S
C1247 H1237 0.929 . S
C1247 C1245 1.433 . S
C1247 N1250 1.384 . S
C1248 H1239 0.929 . S
C1248 C1240 1.378 . S
C1248 C1243 1.350 . S
C1249 H1236 0.929 . S
C1249 C1241 1.433 . S
C1249 N1251 1.384 . S
N1250 C1246 1.427 . S
N1250 C1247 1.384 . S
N1251 C1243 1.427 . S
N1251 C1249 1.384 . S
H1252 C1258 0.930 . S
H1253 C1262 0.930 . S
H1254 C1267 0.929 . S
H1255 C1265 0.929 . S
H1256 C1260 0.929 . S
H1257 C1266 0.929 . S
C1258 H1252 0.930 . S
C1258 C1259 1.367 . S
C1258 C1266 1.378 . S
C1259 C1258 1.367 . S
C1259 C1267 1.433 . S
C1260 H1256 0.929 . S
C1260 C1262 1.378 . S
C1260 C1264 1.350 . S
C1261 C1264 1.463 . S
C1261 C1266 1.350 . S
C1261 N1269 1.427 . S
C1262 H1253 0.930 . S
C1262 C1260 1.378 . S
C1262 C1263 1.367 . S
C1263 C1262 1.367 . S
C1263 C1265 1.433 . S
C1264 C1260 1.350 . S
C1264 C1261 1.463 . S
C1264 N1268 1.427 . S
C1265 H1255 0.929 . S
C1265 C1263 1.433 . S
C1265 N1268 1.384 . S
C1266 H1257 0.929 . S
C1266 C1258 1.378 . S
C1266 C1261 1.350 . S
C1267 H1254 0.929 . S
C1267 C1259 1.433 . S
C1267 N1269 1.384 . S
N1268 C1264 1.427 . S
N1268 C1265 1.384 . S
N1269 C1261 1.427 . S
N1269 C1267 1.384 . S
H1270 C1276 0.930 . S
H1271 C1280 0.930 . S
H1272 C1285 0.929 . S
H1273 C1283 0.929 . S
H1274 C1278 0.929 . S
H1275 C1284 0.929 . S
C1276 H1270 0.930 . S
C1276 C1277 1.367 . S
C1276 C1284 1.378 . S
C1277 C1276 1.367 . S
C1277 C1285 1.433 . S
C1278 H1274 0.929 . S
C1278 C1280 1.378 . S
C1278 C1282 1.350 . S
C1279 C1282 1.463 . S
C1279 C1284 1.350 . S
C1279 N1287 1.427 . S
C1280 H1271 0.930 . S
C1280 C1278 1.378 . S
C1280 C1281 1.367 . S
C1281 C1280 1.367 . S
C1281 C1283 1.433 . S
C1282 C1278 1.350 . S
C1282 C1279 1.463 . S
C1282 N1286 1.427 . S
C1283 H1273 0.929 . S
C1283 C1281 1.433 . S
C1283 N1286 1.384 . S
C1284 H1275 0.929 . S
C1284 C1276 1.378 . S
C1284 C1279 1.350 . S
C1285 H1272 0.929 . S
C1285 C1277 1.433 . S
C1285 N1287 1.384 . S
N1286 C1282 1.427 . S
N1286 C1283 1.384 . S
N1287 C1279 1.427 . S
N1287 C1285 1.384 . S
H1288 C1294 0.930 . S
H1289 C1298 0.930 . S
H1290 C1303 0.929 . S
H1291 C1301 0.929 . S
H1292 C1296 0.929 . S
H1293 C1302 0.929 . S
C1294 H1288 0.930 . S
C1294 C1295 1.367 . S
C1294 C1302 1.378 . S
C1295 C1294 1.367 . S
C1295 C1303 1.433 . S
C1296 H1292 0.929 . S
C1296 C1298 1.378 . S
C1296 C1300 1.350 . S
C1297 C1300 1.463 . S
C1297 C1302 1.350 . S
C1297 N1305 1.427 . S
C1298 H1289 0.930 . S
C1298 C1296 1.378 . S
C1298 C1299 1.367 . S
C1299 C1298 1.367 . S
C1299 C1301 1.433 . S
C1300 C1296 1.350 . S
C1300 C1297 1.463 . S
C1300 N1304 1.427 . S
C1301 H1291 0.929 . S
C1301 C1299 1.433 . S
C1301 N1304 1.384 . S
C1302 H1293 0.929 . S
C1302 C1294 1.378 . S
C1302 C1297 1.350 . S
C1303 H1290 0.929 . S
C1303 C1295 1.433 . S
C1303 N1305 1.384 . S
N1304 C1300 1.427 . S
N1304 C1301 1.384 . S
N1305 C1297 1.427 . S
N1305 C1303 1.384 . S
H1306 C1312 0.930 . S
H1307 C1316 0.930 . S
H1308 C1321 0.929 . S
H1309 C1319 0.929 . S
H1310 C1314 0.929 . S
H1311 C1320 0.929 . S
C1312 H1306 0.930 . S
C1312 C1313 1.367 . S
C1312 C1320 1.378 . S
C1313 C1312 1.367 . S
C1313 C1321 1.433 . S
C1314 H1310 0.929 . S
C1314 C1316 1.378 . S
C1314 C1318 1.350 . S
C1315 C1318 1.463 . S
C1315 C1320 1.350 . S
C1315 N1323 1.427 . S
C1316 H1307 0.930 . S
C1316 C1314 1.378 . S
C1316 C1317 1.367 . S
C1317 C1316 1.367 . S
C1317 C1319 1.433 . S
C1318 C1314 1.350 . S
C1318 C1315 1.463 . S
C1318 N1322 1.427 . S
C1319 H1309 0.929 . S
C1319 C1317 1.433 . S
C1319 N1322 1.384 . S
C1320 H1311 0.929 . S
C1320 C1312 1.378 . S
C1320 C1315 1.350 . S
C1321 H1308 0.929 . S
C1321 C1313 1.433 . S
C1321 N1323 1.384 . S
N1322 C1318 1.427 . S
N1322 C1319 1.384 . S
N1323 C1315 1.427 . S
N1323 C1321 1.384 . S
H1324 C1330 0.930 . S
H1325 C1334 0.930 . S
H1326 C1339 0.929 . S
H1327 C1337 0.929 . S
H1328 C1332 0.929 . S
H1329 C1338 0.929 . S
C1330 H1324 0.930 . S
C1330 C1331 1.367 . S
C1330 C1338 1.378 . S
C1331 C1330 1.367 . S
C1331 C1339 1.433 . S
C1332 H1328 0.929 . S
C1332 C1334 1.378 . S
C1332 C1336 1.350 . S
C1333 C1336 1.463 . S
C1333 C1338 1.350 . S
C1333 N1341 1.427 . S
C1334 H1325 0.930 . S
C1334 C1332 1.378 . S
C1334 C1335 1.367 . S
C1335 C1334 1.367 . S
C1335 C1337 1.433 . S
C1336 C1332 1.350 . S
C1336 C1333 1.463 . S
C1336 N1340 1.427 . S
C1337 H1327 0.929 . S
C1337 C1335 1.433 . S
C1337 N1340 1.384 . S
C1338 H1329 0.929 . S
C1338 C1330 1.378 . S
C1338 C1333 1.350 . S
C1339 H1326 0.929 . S
C1339 C1331 1.433 . S
C1339 N1341 1.384 . S
N1340 C1336 1.427 . S
N1340 C1337 1.384 . S
N1341 C1333 1.427 . S
N1341 C1339 1.384 . S
H1342 C1348 0.930 . S
H1343 C1352 0.930 . S
H1344 C1357 0.929 . S
H1345 C1355 0.929 . S
H1346 C1350 0.929 . S
H1347 C1356 0.929 . S
C1348 H1342 0.930 . S
C1348 C1349 1.367 . S
C1348 C1356 1.378 . S
C1349 C1348 1.367 . S
C1349 C1357 1.433 . S
C1350 H1346 0.929 . S
C1350 C1352 1.378 . S
C1350 C1354 1.350 . S
C1351 C1354 1.463 . S
C1351 C1356 1.350 . S
C1351 N1359 1.427 . S
C1352 H1343 0.930 . S
C1352 C1350 1.378 . S
C1352 C1353 1.367 . S
C1353 C1352 1.367 . S
C1353 C1355 1.433 . S
C1354 C1350 1.350 . S
C1354 C1351 1.463 . S
C1354 N1358 1.427 . S
C1355 H1345 0.929 . S
C1355 C1353 1.433 . S
C1355 N1358 1.384 . S
C1356 H1347 0.929 . S
C1356 C1348 1.378 . S
C1356 C1351 1.350 . S
C1357 H1344 0.929 . S
C1357 C1349 1.433 . S
C1357 N1359 1.384 . S
N1358 C1354 1.427 . S
N1358 C1355 1.384 . S
N1359 C1351 1.427 . S
N1359 C1357 1.384 . S
H1360 C1366 0.930 . S
H1361 C1370 0.930 . S
H1362 C1375 0.929 . S
H1363 C1373 0.929 . S
H1364 C1368 0.929 . S
H1365 C1374 0.929 . S
C1366 H1360 0.930 . S
C1366 C1367 1.355 1_554 S
C1366 C1374 1.378 . S
C1367 C1366 1.355 1_556 S
C1367 C1375 1.425 1_556 S
C1368 H1364 0.929 . S
C1368 C1370 1.378 . S
C1368 C1372 1.350 . S
C1369 C1372 1.463 . S
C1369 C1374 1.350 . S
C1369 N1377 1.427 . S
C1370 H1361 0.930 . S
C1370 C1368 1.378 . S
C1370 C1371 1.367 . S
C1371 C1370 1.367 . S
C1371 C1373 1.433 . S
C1372 C1368 1.350 . S
C1372 C1369 1.463 . S
C1372 N1376 1.427 . S
C1373 H1363 0.929 . S
C1373 C1371 1.433 . S
C1373 N1376 1.384 . S
C1374 H1365 0.929 . S
C1374 C1366 1.378 . S
C1374 C1369 1.350 . S
C1375 H1362 0.929 . S
C1375 C1367 1.425 1_554 S
C1375 N1377 1.384 . S
N1376 C1372 1.427 . S
N1376 C1373 1.384 . S
N1377 C1369 1.427 . S
N1377 C1375 1.384 . S
H1378 C1384 0.930 . S
H1379 C1388 0.930 . S
H1380 C1393 0.929 . S
H1381 C1391 0.929 . S
H1382 C1386 0.929 . S
H1383 C1392 0.929 . S
C1384 H1378 0.930 . S
C1384 C1385 1.367 . S
C1384 C1392 1.378 . S
C1385 C1384 1.367 . S
C1385 C1393 1.433 . S
C1386 H1382 0.929 . S
C1386 C1388 1.378 . S
C1386 C1390 1.350 . S
C1387 C1390 1.463 . S
C1387 C1392 1.350 . S
C1387 N1395 1.427 . S
C1388 H1379 0.930 . S
C1388 C1386 1.378 . S
C1388 C1389 1.367 1_556 S
C1389 C1388 1.367 1_554 S
C1389 C1391 1.433 1_554 S
C1390 C1386 1.350 . S
C1390 C1387 1.463 . S
C1390 N1394 1.427 . S
C1391 H1381 0.929 . S
C1391 C1389 1.433 1_556 S
C1391 N1394 1.384 . S
C1392 H1383 0.929 . S
C1392 C1384 1.378 . S
C1392 C1387 1.350 . S
C1393 H1380 0.929 . S
C1393 C1385 1.433 . S
C1393 N1395 1.384 . S
N1394 C1390 1.427 . S
N1394 C1391 1.384 . S
N1395 C1387 1.427 . S
N1395 C1393 1.384 . S
H1396 C1402 0.930 . S
H1397 C1406 0.930 . S
H1398 C1411 0.929 . S
H1399 C1409 0.929 1_556 S
H1400 C1404 0.929 . S
H1401 C1410 0.929 . S
C1402 H1396 0.930 . S
C1402 C1403 1.367 . S
C1402 C1410 1.378 . S
C1403 C1402 1.367 . S
C1403 C1411 1.433 . S
C1404 H1400 0.929 . S
C1404 C1406 1.378 . S
C1404 C1408 1.350 . S
C1405 C1408 1.463 . S
C1405 C1410 1.350 . S
C1405 N1413 1.427 . S
C1406 H1397 0.930 . S
C1406 C1404 1.378 . S
C1406 C1407 1.355 1_554 S
C1407 C1406 1.355 1_556 S
C1407 C1409 1.425 1_556 S
C1408 C1404 1.350 . S
C1408 C1405 1.463 . S
C1408 N1412 1.427 . S
C1409 H1399 0.929 1_554 S
C1409 C1407 1.425 1_554 S
C1409 N1412 1.384 . S
C1410 H1401 0.929 . S
C1410 C1402 1.378 . S
C1410 C1405 1.350 . S
C1411 H1398 0.929 . S
C1411 C1403 1.433 . S
C1411 N1413 1.384 . S
N1412 C1408 1.427 . S
N1412 C1409 1.384 . S
N1413 C1405 1.427 . S
N1413 C1411 1.384 . S
H1414 C1420 0.930 . S
H1415 C1424 0.930 . S
H1416 C1429 0.929 . S
H1417 C1427 0.929 . S
H1418 C1422 0.929 . S
H1419 C1428 0.929 . S
C1420 H1414 0.930 . S
C1420 C1421 1.355 1_556 S
C1420 C1428 1.378 . S
C1421 C1420 1.355 1_554 S
C1421 C1429 1.423 1_554 S
C1422 H1418 0.929 . S
C1422 C1424 1.378 . S
C1422 C1426 1.350 . S
C1423 C1426 1.463 . S
C1423 C1428 1.350 . S
C1423 N1431 1.427 . S
C1424 H1415 0.930 . S
C1424 C1422 1.378 . S
C1424 C1425 1.367 . S
C1425 C1424 1.367 . S
C1425 C1427 1.433 . S
C1426 C1422 1.350 . S
C1426 C1423 1.463 . S
C1426 N1430 1.427 . S
C1427 H1417 0.929 . S
C1427 C1425 1.433 . S
C1427 N1430 1.384 . S
C1428 H1419 0.929 . S
C1428 C1420 1.378 . S
C1428 C1423 1.350 . S
C1429 H1416 0.929 . S
C1429 C1421 1.423 1_556 S
C1429 N1431 1.384 . S
N1430 C1426 1.427 . S
N1430 C1427 1.384 . S
N1431 C1423 1.427 . S
N1431 C1429 1.384 . S
H1432 C1438 0.930 . S
H1433 C1442 0.930 . S
H1434 C1447 0.929 . S
H1435 C1445 0.929 1_556 S
H1436 C1440 0.929 . S
H1437 C1446 0.929 . S
C1438 H1432 0.930 . S
C1438 C1439 1.367 . S
C1438 C1446 1.378 . S
C1439 C1438 1.367 . S
C1439 C1447 1.433 . S
C1440 H1436 0.929 . S
C1440 C1442 1.378 . S
C1440 C1444 1.350 . S
C1441 C1444 1.463 . S
C1441 C1446 1.350 . S
C1441 N1449 1.427 . S
C1442 H1433 0.930 . S
C1442 C1440 1.378 . S
C1442 C1443 1.367 1_554 S
C1443 C1442 1.367 1_556 S
C1443 C1445 1.433 1_556 S
C1444 C1440 1.350 . S
C1444 C1441 1.463 . S
C1444 N1448 1.427 . S
C1445 H1435 0.929 1_554 S
C1445 C1443 1.433 1_554 S
C1445 N1448 1.384 . S
C1446 H1437 0.929 . S
C1446 C1438 1.378 . S
C1446 C1441 1.350 . S
C1447 H1434 0.929 . S
C1447 C1439 1.433 . S
C1447 N1449 1.384 . S
N1448 C1444 1.427 . S
N1448 C1445 1.384 . S
N1449 C1441 1.427 . S
N1449 C1447 1.384 . S
H1450 C1456 0.930 1_554 S
H1451 C1460 0.930 . S
H1452 C1465 0.929 . S
H1453 C1463 0.929 . S
H1454 C1458 0.929 . S
H1455 C1464 0.929 . S
C1456 H1450 0.930 1_556 S
C1456 C1457 1.367 1_556 S
C1456 C1464 1.378 . S
C1457 C1456 1.367 1_554 S
C1457 C1465 1.433 1_554 S
C1458 H1454 0.929 . S
C1458 C1460 1.378 . S
C1458 C1462 1.350 . S
C1459 C1462 1.463 . S
C1459 C1464 1.350 . S
C1459 N1467 1.427 . S
C1460 H1451 0.930 . S
C1460 C1458 1.378 . S
C1460 C1461 1.367 . S
C1461 C1460 1.367 . S
C1461 C1463 1.433 . S
C1462 C1458 1.350 . S
C1462 C1459 1.463 . S
C1462 N1466 1.427 . S
C1463 H1453 0.929 . S
C1463 C1461 1.433 . S
C1463 N1466 1.384 . S
C1464 H1455 0.929 . S
C1464 C1456 1.378 . S
C1464 C1459 1.350 . S
C1465 H1452 0.929 . S
C1465 C1457 1.433 1_556 S
C1465 N1467 1.384 . S
N1466 C1462 1.427 . S
N1466 C1463 1.384 . S
N1467 C1459 1.427 . S
N1467 C1465 1.384 . S
H1468 C1474 0.930 . S
H1469 C1478 0.930 . S
H1470 C1483 0.929 1_556 S
H1471 C1481 0.929 . S
H1472 C1476 0.929 . S
H1473 C1482 0.929 . S
C1474 H1468 0.930 . S
C1474 C1475 1.367 1_554 S
C1474 C1482 1.378 . S
C1475 C1474 1.367 1_556 S
C1475 C1483 1.433 1_556 S
C1476 H1472 0.929 . S
C1476 C1478 1.378 . S
C1476 C1480 1.350 . S
C1477 C1480 1.463 . S
C1477 C1482 1.350 . S
C1477 N1485 1.427 . S
C1478 H1469 0.930 . S
C1478 C1476 1.378 . S
C1478 C1479 1.367 . S
C1479 C1478 1.367 . S
C1479 C1481 1.433 . S
C1480 C1476 1.350 . S
C1480 C1477 1.463 . S
C1480 N1484 1.427 . S
C1481 H1471 0.929 . S
C1481 C1479 1.433 . S
C1481 N1484 1.384 . S
C1482 H1473 0.929 . S
C1482 C1474 1.378 . S
C1482 C1477 1.350 . S
C1483 H1470 0.929 1_554 S
C1483 C1475 1.433 1_554 S
C1483 N1485 1.384 . S
N1484 C1480 1.427 . S
N1484 C1481 1.384 . S
N1485 C1477 1.427 . S
N1485 C1483 1.384 . S
H1486 C1492 0.930 . S
H1487 C1496 0.930 1_554 S
H1488 C1501 0.929 . S
H1489 C1499 0.929 . S
H1490 C1494 0.929 . S
H1491 C1500 0.929 . S
C1492 H1486 0.930 . S
C1492 C1493 1.367 . S
C1492 C1500 1.378 . S
C1493 C1492 1.367 . S
C1493 C1501 1.433 . S
C1494 H1490 0.929 . S
C1494 C1496 1.378 . S
C1494 C1498 1.350 . S
C1495 C1498 1.463 . S
C1495 C1500 1.350 . S
C1495 N1503 1.427 . S
C1496 H1487 0.930 1_556 S
C1496 C1494 1.378 . S
C1496 C1497 1.367 1_556 S
C1497 C1496 1.367 1_554 S
C1497 C1499 1.433 1_554 S
C1498 C1494 1.350 . S
C1498 C1495 1.463 . S
C1498 N1502 1.427 . S
C1499 H1489 0.929 . S
C1499 C1497 1.433 1_556 S
C1499 N1502 1.384 . S
C1500 H1491 0.929 . S
C1500 C1492 1.378 . S
C1500 C1495 1.350 . S
C1501 H1488 0.929 . S
C1501 C1493 1.433 . S
C1501 N1503 1.384 . S
N1502 C1498 1.427 . S
N1502 C1499 1.384 . S
N1503 C1495 1.427 . S
N1503 C1501 1.384 . S
C647 C459 1.721 . S
C651 C18 1.723 . S
C665 C330 1.716 . S
C669 C49 1.716 . S
C683 C98 1.716 . S
C687 C379 1.720 . S
C701 C129 1.722 . S
C705 C410 1.726 . S
C719 C178 1.716 . S
C723 C219 1.716 . S
C737 C250 1.721 . S
C741 C209 1.722 . S
C755 C258 1.724 . S
C759 C299 1.726 . S
C773 C170 1.720 . S
C777 C289 1.716 . S
C791 C139 1.720 . S
C795 C338 1.721 . S
C809 C369 1.724 . S
C813 C10 1.726 . S
C827 C59 1.722 . S
C831 C418 1.718 . S
C845 C90 1.721 . S
C849 C449 1.716 . S
C863 C498 1.724 . S
C867 C539 1.726 . S
C881 C570 1.720 . S
C885 C529 1.721 . S
C899 C619 1.716 . S
C903 C578 1.717 . S
C917 C609 1.715 . S
C921 C490 1.716 . S
C935 C9 1.165 . S
C939 C169 1.173 . S
C953 C218 1.171 . S
C957 C58 1.179 . S
C971 C89 1.180 . S
C975 C249 1.184 . S
C989 C138 1.172 . S
C993 C298 1.180 . S
C1007 C329 1.178 . S
C1011 C489 1.170 . S
C1025 C538 1.171 . S
C1029 C378 1.179 . S
C1043 C409 1.184 . S
C1047 C569 1.182 . S
C1061 C458 1.171 . S
C1065 C618 1.179 . S
C1079 C579 2.304 . S
C1083 C19 2.302 1_556 S
C1097 C50 2.304 1_554 S
C1101 C610 2.305 . S
C1115 C99 2.301 1_556 S
C1119 C499 2.300 . S
C1133 C130 2.305 1_554 S
C1137 C530 2.304 . S
C1151 C179 2.304 . S
C1155 C419 2.305 . S
C1169 C210 2.304 . S
C1173 C450 2.305 . S
C1187 C259 2.301 . S
C1191 C339 2.300 . S
C1205 C370 2.305 . S
C1209 C290 2.306 . S
C1223 C6 1.079 . S
C1227 C15 1.079 . S
C1241 C55 1.073 . S
C1245 C46 1.073 . S
C1259 C86 1.080 . S
C1263 C95 1.080 . S
C1277 C126 1.078 . S
C1281 C135 1.078 . S
C1295 C175 1.080 . S
C1299 C166 1.080 . S
C1313 C215 1.073 . S
C1317 C206 1.073 . S
C1331 C246 1.073 . S
C1335 C255 1.073 . S
C1349 C286 1.079 . S
C1353 C295 1.079 . S
C1367 C326 1.099 . S
C1371 C335 1.077 . S
C1385 C366 1.076 . S
C1389 C375 1.076 . S
C1403 C415 1.079 . S
C1407 C406 1.100 . S
C1421 C455 1.101 . S
C1425 C446 1.077 . S
C1439 C486 1.078 . S
C1443 C495 1.078 . S
C1457 C526 1.074 . S
C1461 C535 1.074 . S
C1475 C575 1.079 . S
C1479 C566 1.079 . S
C1493 C615 1.075 . S
C1497 C606 1.075 . S
