# Generated by pormake.
# Topology uob, (4)-cn, num edge types: 1
# Building blocks:
#     Node 0, Type 0, BuildingBlock: QUQFOY_clean_sbu_1, # of connection points: 4
#     Node 1, Type 0, BuildingBlock: QUQFOY_clean_sbu_1, # of connection points: 4
#     Node 2, Type 0, BuildingBlock: QUQFOY_clean_sbu_1, # of connection points: 4
#     Node 3, Type 0, BuildingBlock: QUQFOY_clean_sbu_1, # of connection points: 4
#     Node 4, Type 0, BuildingBlock: QUQFOY_clean_sbu_1, # of connection points: 4
#     Node 5, Type 0, BuildingBlock: QUQFOY_clean_sbu_1, # of connection points: 4
#     Node 6, Type 0, BuildingBlock: QUQFOY_clean_sbu_1, # of connection points: 4
#     Node 7, Type 0, BuildingBlock: QUQFOY_clean_sbu_1, # of connection points: 4
#     Node 8, Type 0, BuildingBlock: QUQFOY_clean_sbu_1, # of connection points: 4
#     Node 9, Type 0, BuildingBlock: QUQFOY_clean_sbu_1, # of connection points: 4
#     Node 10, Type 0, BuildingBlock: QUQFOY_clean_sbu_1, # of connection points: 4
#     Node 11, Type 0, BuildingBlock: QUQFOY_clean_sbu_1, # of connection points: 4
#     Node 12, Type 0, BuildingBlock: QUQFOY_clean_sbu_1, # of connection points: 4
#     Node 13, Type 0, BuildingBlock: QUQFOY_clean_sbu_1, # of connection points: 4
#     Node 14, Type 0, BuildingBlock: QUQFOY_clean_sbu_1, # of connection points: 4
#     Node 15, Type 0, BuildingBlock: QUQFOY_clean_sbu_1, # of connection points: 4
#     Edge 16, Type (0, 0), BuildingBlock: MIFKUJ_clean_linker_0, # of connection points: 2
#     Edge 17, Type (0, 0), BuildingBlock: MIFKUJ_clean_linker_0, # of connection points: 2
#     Edge 18, Type (0, 0), BuildingBlock: MIFKUJ_clean_linker_0, # of connection points: 2
#     Edge 19, Type (0, 0), BuildingBlock: MIFKUJ_clean_linker_0, # of connection points: 2
#     Edge 20, Type (0, 0), BuildingBlock: MIFKUJ_clean_linker_0, # of connection points: 2
#     Edge 21, Type (0, 0), BuildingBlock: MIFKUJ_clean_linker_0, # of connection points: 2
#     Edge 22, Type (0, 0), BuildingBlock: MIFKUJ_clean_linker_0, # of connection points: 2
#     Edge 23, Type (0, 0), BuildingBlock: MIFKUJ_clean_linker_0, # of connection points: 2
#     Edge 24, Type (0, 0), BuildingBlock: MIFKUJ_clean_linker_0, # of connection points: 2
#     Edge 25, Type (0, 0), BuildingBlock: MIFKUJ_clean_linker_0, # of connection points: 2
#     Edge 26, Type (0, 0), BuildingBlock: MIFKUJ_clean_linker_0, # of connection points: 2
#     Edge 27, Type (0, 0), BuildingBlock: MIFKUJ_clean_linker_0, # of connection points: 2
#     Edge 28, Type (0, 0), BuildingBlock: MIFKUJ_clean_linker_0, # of connection points: 2
#     Edge 29, Type (0, 0), BuildingBlock: MIFKUJ_clean_linker_0, # of connection points: 2
#     Edge 30, Type (0, 0), BuildingBlock: MIFKUJ_clean_linker_0, # of connection points: 2
#     Edge 31, Type (0, 0), BuildingBlock: MIFKUJ_clean_linker_0, # of connection points: 2
#     Edge 32, Type (0, 0), BuildingBlock: MIFKUJ_clean_linker_0, # of connection points: 2
#     Edge 33, Type (0, 0), BuildingBlock: MIFKUJ_clean_linker_0, # of connection points: 2
#     Edge 34, Type (0, 0), BuildingBlock: MIFKUJ_clean_linker_0, # of connection points: 2
#     Edge 35, Type (0, 0), BuildingBlock: MIFKUJ_clean_linker_0, # of connection points: 2
#     Edge 36, Type (0, 0), BuildingBlock: MIFKUJ_clean_linker_0, # of connection points: 2
#     Edge 37, Type (0, 0), BuildingBlock: MIFKUJ_clean_linker_0, # of connection points: 2
#     Edge 38, Type (0, 0), BuildingBlock: MIFKUJ_clean_linker_0, # of connection points: 2
#     Edge 39, Type (0, 0), BuildingBlock: MIFKUJ_clean_linker_0, # of connection points: 2
#     Edge 40, Type (0, 0), BuildingBlock: MIFKUJ_clean_linker_0, # of connection points: 2
#     Edge 41, Type (0, 0), BuildingBlock: MIFKUJ_clean_linker_0, # of connection points: 2
#     Edge 42, Type (0, 0), BuildingBlock: MIFKUJ_clean_linker_0, # of connection points: 2
#     Edge 43, Type (0, 0), BuildingBlock: MIFKUJ_clean_linker_0, # of connection points: 2
#     Edge 44, Type (0, 0), BuildingBlock: MIFKUJ_clean_linker_0, # of connection points: 2
#     Edge 45, Type (0, 0), BuildingBlock: MIFKUJ_clean_linker_0, # of connection points: 2
#     Edge 46, Type (0, 0), BuildingBlock: MIFKUJ_clean_linker_0, # of connection points: 2
#     Edge 47, Type (0, 0), BuildingBlock: MIFKUJ_clean_linker_0, # of connection points: 2
# Relax obj value: 0.052
# Max RMSD: 0.120
# Mean RMSD: 0.120
data_MOF--net-uob--node1-QUQFOY_clean_sbu_1--edge1-MIFKUJ_clean_linker_0
_symmetry_space_group_name_H-M    P1
_symmetry_Int_Tables_number       1
_symmetry_cell_setting            triclinic
loop_
_symmetry_equiv_pos_as_xyz
'x, y, z'
_cell_length_a     72.255328
_cell_length_b     72.37056
_cell_length_c     36.699616
_cell_angle_alpha  90.059655
_cell_angle_beta   89.996353
_cell_angle_gamma 90.00054
loop_
_atom_site_label
_atom_site_type_symbol
_atom_site_fract_x
_atom_site_fract_y
_atom_site_fract_z
_atom_type_partial_charge
O0 O 0.13678 0.0789 0.33953 0.0
Cd1 Cd 0.13794 0.05443 0.31112 0.0
Cd2 Cd 0.12023 0.08122 0.2595 0.0
O3 O 0.12634 0.09978 0.30065 0.0
O4 O 0.15208 0.03923 0.34742 0.0
O5 O 0.1635 0.04662 0.29375 0.0
C6 C 0.166 0.03937 0.32552 0.0
C7 C 0.12198 0.09098 0.19826 0.0
C8 C 0.13255 0.09549 0.33193 0.0
C9 C 0.09847 0.0473 0.28707 0.0
O10 O 0.09923 0.06271 0.27045 0.0
O11 O 0.11277 0.04068 0.30279 0.0
O12 O 0.10931 0.09691 0.21998 0.0
O13 O 0.13414 0.07975 0.21149 0.0
O14 O 0.92867 0.63204 0.59919 0.0
Cd15 Cd 0.95431 0.63319 0.5756 0.0
Cd16 Cd 0.92876 0.61339 0.51906 0.0
O17 O 0.90987 0.61757 0.56094 0.0
O18 O 0.96771 0.64684 0.61529 0.0
O19 O 0.96314 0.65881 0.56089 0.0
C20 C 0.96879 0.66093 0.59402 0.0
C21 C 0.91763 0.61376 0.45866 0.0
C22 C 0.91281 0.62574 0.59107 0.0
C23 C 0.96442 0.59465 0.54792 0.0
O24 O 0.95012 0.59492 0.52771 0.0
O25 O 0.96855 0.60823 0.56859 0.0
O26 O 0.91373 0.60056 0.48082 0.0
O27 O 0.92761 0.6272 0.47096 0.0
O28 O 0.3734 0.4338 0.84444 0.0
Cd29 Cd 0.3728 0.45748 0.81369 0.0
Cd30 Cd 0.38925 0.42867 0.76487 0.0
O31 O 0.38241 0.41139 0.80752 0.0
O32 O 0.36022 0.47392 0.85 0.0
O33 O 0.34712 0.46584 0.7982 0.0
C34 C 0.34571 0.47372 0.82968 0.0
C35 C 0.38664 0.41779 0.70462 0.0
C36 C 0.37669 0.41684 0.83845 0.0
C37 C 0.41225 0.46257 0.78789 0.0
O38 O 0.41103 0.44656 0.77372 0.0
O39 O 0.39817 0.47022 0.80253 0.0
O40 O 0.39916 0.41169 0.72648 0.0
O41 O 0.3751 0.42983 0.71724 0.0
O42 O 0.56405 0.87308 0.11474 0.0
Cd43 Cd 0.54545 0.87046 0.07287 0.0
Cd44 Cd 0.57598 0.8838 0.03636 0.0
O45 O 0.58984 0.87549 0.08294 0.0
O46 O 0.52614 0.85444 0.0957 0.0
O47 O 0.54467 0.84474 0.05174 0.0
C48 C 0.53241 0.84096 0.07629 0.0
C49 C 0.58804 0.87917 0.97774 0.0
C50 C 0.5816 0.87323 0.11324 0.0
C51 C 0.54257 0.90881 0.04565 0.0
O52 O 0.55989 0.90725 0.04045 0.0
O53 O 0.533 0.89473 0.05461 0.0
O54 O 0.59529 0.8909 1.0 0.0
O55 O 0.57445 0.86921 0.98951 0.0
O56 O 0.13188 0.4445 0.95233 0.0
Cd57 Cd 0.13554 0.46279 0.99424 0.0
Cd58 Cd 0.12227 0.43149 0.02917 0.0
O59 O 0.13058 0.41807 0.98186 0.0
O60 O 0.15044 0.48188 0.96797 0.0
O61 O 0.16188 0.46505 0.01275 0.0
C62 C 0.16463 0.47668 0.9866 0.0
C63 C 0.12671 0.41892 0.08739 0.0
C64 C 0.13198 0.42697 0.95213 0.0
C65 C 0.09738 0.46541 0.0219 0.0
O66 O 0.09896 0.44801 0.02587 0.0
O67 O 0.11147 0.47514 0.0136 0.0
O68 O 0.11489 0.41199 0.06489 0.0
O69 O 0.13689 0.43243 0.07602 0.0
O70 O 0.5667 0.63294 0.20251 0.0
Cd71 Cd 0.54804 0.6335 0.2446 0.0
Cd72 Cd 0.57918 0.61905 0.27818 0.0
O73 O 0.59284 0.62863 0.23244 0.0
O74 O 0.52808 0.64894 0.2224 0.0
O75 O 0.54593 0.65882 0.26727 0.0
C76 C 0.53369 0.66242 0.24257 0.0
C77 C 0.5903 0.62359 0.33738 0.0
C78 C 0.58425 0.6325 0.20321 0.0
C79 C 0.546 0.59412 0.26776 0.0
O80 O 0.5634 0.59554 0.27222 0.0
O81 O 0.53631 0.60841 0.26077 0.0
O82 O 0.59826 0.61228 0.31518 0.0
O83 O 0.57651 0.63317 0.32525 0.0
O84 O 0.37523 0.07836 0.47013 0.0
Cd85 Cd 0.37518 0.0534 0.49699 0.0
Cd86 Cd 0.39351 0.08119 0.54803 0.0
O87 O 0.38658 0.09958 0.50742 0.0
O88 O 0.36244 0.03841 0.4584 0.0
O89 O 0.3496 0.04428 0.51158 0.0
C90 C 0.34804 0.0377 0.47899 0.0
C91 C 0.39179 0.09068 0.60927 0.0
C92 C 0.3794 0.09502 0.47715 0.0
C93 C 0.41508 0.04716 0.52074 0.0
O94 O 0.41448 0.06285 0.53634 0.0
O95 O 0.40065 0.04017 0.50606 0.0
O96 O 0.40432 0.0969 0.58755 0.0
O97 O 0.37978 0.07928 0.59601 0.0
O98 O 0.93372 0.87162 0.72425 0.0
Cd99 Cd 0.95667 0.87111 0.75728 0.0
Cd100 Cd 0.92736 0.88862 0.80241 0.0
O101 O 0.9107 0.88185 0.7585 0.0
O102 O 0.97375 0.85702 0.72443 0.0
O103 O 0.96338 0.84561 0.77618 0.0
C104 C 0.9722 0.84307 0.74596 0.0
C105 C 0.91626 0.88622 0.86243 0.0
C106 C 0.91671 0.87543 0.72851 0.0
C107 C 0.96229 0.91061 0.78219 0.0
O108 O 0.94593 0.90987 0.79491 0.0
O109 O 0.96985 0.89629 0.76832 0.0
O110 O 0.91024 0.89869 0.84039 0.0
O111 O 0.92813 0.87446 0.84992 0.0
O112 O 0.63208 0.57198 0.85691 0.0
Cd113 Cd 0.6337 0.54986 0.82177 0.0
Cd114 Cd 0.61755 0.57886 0.77782 0.0
O115 O 0.62523 0.59546 0.82094 0.0
O116 O 0.64853 0.53238 0.85243 0.0
O117 O 0.65944 0.54485 0.80203 0.0
C118 C 0.66238 0.53516 0.83102 0.0
C119 C 0.6194 0.59011 0.71786 0.0
C120 C 0.62974 0.58919 0.85203 0.0
C121 C 0.59449 0.54478 0.7974 0.0
O122 O 0.59543 0.56147 0.78678 0.0
O123 O 0.60891 0.53639 0.80875 0.0
O124 O 0.60738 0.5963 0.74071 0.0
O125 O 0.63101 0.57787 0.72941 0.0
O126 O 0.44502 0.12808 0.12724 0.0
Cd127 Cd 0.46337 0.13092 0.08503 0.0
Cd128 Cd 0.43246 0.11798 0.04943 0.0
O129 O 0.419 0.12708 0.09602 0.0
O130 O 0.48285 0.14641 0.10874 0.0
O131 O 0.46464 0.15688 0.06504 0.0
C132 C 0.47688 0.16021 0.08991 0.0
C133 C 0.42027 0.12235 0.99092 0.0
C134 C 0.42748 0.12878 0.12621 0.0
C135 C 0.46576 0.09273 0.05712 0.0
O136 O 0.44834 0.09433 0.05334 0.0
O137 O 0.47553 0.10679 0.06541 0.0
O138 O 0.41287 0.11096 0.01362 0.0
O139 O 0.43407 0.13218 1.0022 0.0
O140 O 0.87813 0.94409 0.37961 0.0
Cd141 Cd 0.87688 0.96375 0.33932 0.0
Cd142 Cd 0.89123 0.93285 0.30233 0.0
O143 O 0.88154 0.91862 0.34734 0.0
O144 O 0.86195 0.98294 0.36534 0.0
O145 O 0.85128 0.96738 0.31806 0.0
C146 C 0.84817 0.97863 0.34474 0.0
C147 C 0.88797 0.92077 0.24325 0.0
C148 C 0.87832 0.92658 0.37756 0.0
C149 C 0.91608 0.96619 0.31504 0.0
O150 O 0.91462 0.94891 0.30939 0.0
O151 O 0.90183 0.9758 0.32293 0.0
O152 O 0.89931 0.91367 0.26643 0.0
O153 O 0.87776 0.93437 0.25411 0.0
O154 O 0.07528 0.3771 0.6096 0.0
Cd155 Cd 0.05198 0.37392 0.57845 0.0
Cd156 Cd 0.07821 0.39155 0.52591 0.0
O157 O 0.09589 0.38745 0.56973 0.0
O158 O 0.03597 0.35747 0.60931 0.0
O159 O 0.04944 0.34805 0.55847 0.0
C160 C 0.04003 0.34414 0.58741 0.0
C161 C 0.09054 0.38951 0.46659 0.0
C162 C 0.09168 0.38185 0.60149 0.0
C163 C 0.04217 0.41155 0.54763 0.0
O164 O 0.05765 0.41122 0.53113 0.0
O165 O 0.03678 0.3978 0.56662 0.0
O166 O 0.09472 0.40286 0.48827 0.0
O167 O 0.07964 0.37682 0.47886 0.0
O168 O 0.63521 0.9338 0.46227 0.0
Cd169 Cd 0.63559 0.95662 0.49566 0.0
Cd170 Cd 0.6178 0.92658 0.53935 0.0
O171 O 0.62506 0.91036 0.4953 0.0
O172 O 0.64948 0.97359 0.4623 0.0
O173 O 0.66108 0.96391 0.51441 0.0
C174 C 0.66348 0.97245 0.48388 0.0
C175 C 0.61921 0.91433 0.59865 0.0
C176 C 0.63152 0.91674 0.46567 0.0
C177 C 0.59576 0.96157 0.51915 0.0
O178 O 0.59655 0.94509 0.5311 0.0
O179 O 0.61019 0.96954 0.50664 0.0
O180 O 0.60699 0.90892 0.57544 0.0
O181 O 0.6312 0.92639 0.58786 0.0
O182 O 0.05958 0.12858 0.68708 0.0
Cd183 Cd 0.04542 0.13126 0.73523 0.0
Cd184 Cd 0.07695 0.11764 0.76004 0.0
O185 O 0.08744 0.12786 0.71136 0.0
O186 O 0.02611 0.15013 0.72347 0.0
O187 O 0.05024 0.15582 0.75897 0.0
C188 C 0.03616 0.16197 0.74085 0.0
C189 C 0.09039 0.1222 0.81744 0.0
C190 C 0.07703 0.12964 0.6836 0.0
C191 C 0.04379 0.0926 0.75897 0.0
O192 O 0.06131 0.09384 0.75685 0.0
O193 O 0.03387 0.10713 0.75661 0.0
O194 O 0.09777 0.11129 0.7937 0.0
O195 O 0.07597 0.13154 0.80764 0.0
O196 O 0.87595 0.56031 0.94158 0.0
Cd197 Cd 0.87391 0.54238 0.98461 0.0
Cd198 Cd 0.8868 0.57344 0.01843 0.0
O199 O 0.877 0.58657 0.97195 0.0
O200 O 0.85795 0.5226 0.96313 0.0
O201 O 0.84833 0.54153 0.00647 0.0
C202 C 0.8445 0.52896 0.98254 0.0
C203 C 0.88221 0.58455 0.07776 0.0
C204 C 0.87503 0.57783 0.9421 0.0
C205 C 0.91255 0.54073 0.01052 0.0
O206 O 0.9108 0.55816 0.01349 0.0
O207 O 0.89846 0.53072 0.0036 0.0
O208 O 0.89321 0.59276 0.05532 0.0
O209 O 0.87279 0.57064 0.06568 0.0
O210 O 0.44744 0.37568 0.19369 0.0
Cd211 Cd 0.46348 0.37269 0.23936 0.0
Cd212 Cd 0.43212 0.38712 0.26919 0.0
O213 O 0.42026 0.37901 0.22023 0.0
O214 O 0.48301 0.35507 0.2224 0.0
O215 O 0.46126 0.34741 0.26201 0.0
C216 C 0.47473 0.34241 0.24099 0.0
C217 C 0.41789 0.38283 0.32593 0.0
C218 C 0.42991 0.37638 0.19169 0.0
C219 C 0.46648 0.4111 0.26623 0.0
O220 O 0.44893 0.41013 0.26802 0.0
O221 O 0.47595 0.39665 0.25929 0.0
O222 O 0.41163 0.3946 0.30263 0.0
O223 O 0.43163 0.37254 0.31605 0.0
H224 H 0.31468 0.03391 0.51457 0.0
H225 H 0.28411 0.02939 0.48679 0.0
H226 H 0.30949 0.02504 0.38083 0.0
H227 H 0.33997 0.02926 0.40826 0.0
H228 H 0.28123 0.05126 0.38387 0.0
H229 H 0.29087 0.9878 0.41717 0.0
H230 H 0.2979 0.96216 0.45914 0.0
H231 H 0.25075 0.97643 0.5246 0.0
H232 H 0.24359 1.00234 0.48328 0.0
H233 H 0.19836 0.03668 0.28627 0.0
H234 H 0.2296 0.03159 0.31018 0.0
H235 H 0.20721 0.02516 0.41841 0.0
H236 H 0.17604 0.02944 0.3945 0.0
H237 H 0.23476 1.00298 0.41249 0.0
H238 H 0.22616 0.06723 0.38543 0.0
H239 H 0.21883 0.09429 0.34728 0.0
H240 H 0.26356 0.08055 0.27512 0.0
H241 H 0.271 0.05325 0.31261 0.0
C242 C 0.31379 0.03157 0.48547 0.0
C243 C 0.32983 0.03195 0.46371 0.0
C244 C 0.29629 0.02901 0.4696 0.0
C245 C 0.29448 0.02692 0.43166 0.0
C246 C 0.31052 0.02665 0.41011 0.0
C247 C 0.32798 0.02898 0.42595 0.0
C248 C 0.27587 0.02636 0.41408 0.0
C249 C 0.27117 0.04052 0.38965 0.0
C250 C 0.26253 0.0127 0.42246 0.0
C251 C 0.2668 0.99712 0.44731 0.0
C252 C 0.2821 0.98558 0.44069 0.0
C253 C 0.28608 0.97097 0.46432 0.0
C254 C 0.27481 0.9677 0.49457 0.0
C255 C 0.25949 0.979 0.50119 0.0
C256 C 0.25545 0.99363 0.47765 0.0
C257 C 0.20007 0.03382 0.31504 0.0
C258 C 0.18466 0.03358 0.33844 0.0
C259 C 0.21798 0.03108 0.3288 0.0
C260 C 0.22093 0.02844 0.36638 0.0
C261 C 0.20544 0.02724 0.38939 0.0
C262 C 0.18755 0.02971 0.3756 0.0
C263 C 0.24004 0.02792 0.38216 0.0
C264 C 0.24484 0.01364 0.4064 0.0
C265 C 0.25342 0.04169 0.37415 0.0
C266 C 0.24899 0.05809 0.35157 0.0
C267 C 0.23434 0.06991 0.36127 0.0
C268 C 0.23018 0.0853 0.33979 0.0
C269 C 0.24068 0.08911 0.30873 0.0
C270 C 0.25541 0.07756 0.29914 0.0
C271 C 0.2596 0.06213 0.3205 0.0
H272 H 0.23745 0.10103 0.29214 0.0
H273 H 0.27792 0.95638 0.51283 0.0
H274 H 0.987 0.83348 0.68015 0.0
H275 H 0.99062 0.80245 0.65501 0.0
H276 H 0.97358 0.77893 0.75748 0.0
H277 H 0.96967 0.81008 0.78294 0.0
H278 H 1.00384 0.7594 0.7203 0.0
H279 H 0.94231 0.78323 0.69736 0.0
H280 H 0.92044 0.80684 0.6752 0.0
H281 H 0.94311 0.80214 0.56744 0.0
H282 H 0.96537 0.77873 0.58913 0.0
H283 H 0.97417 0.6705 0.66514 0.0
H284 H 0.97876 0.70124 0.69047 0.0
H285 H 0.98035 0.72409 0.58196 0.0
H286 H 0.97493 0.69325 0.5564 0.0
H287 H 0.95965 0.74477 0.62087 0.0
H288 H 0.02009 0.72055 0.64036 0.0
H289 H 0.04374 0.69828 0.66072 0.0
H290 H 0.02551 0.70457 0.7714 0.0
H291 H 1.00157 0.7267 0.75164 0.0
C292 C 0.98438 0.82175 0.69772 0.0
C293 C 0.97792 0.82433 0.73359 0.0
C294 C 0.98641 0.80399 0.68318 0.0
C295 C 0.98216 0.78837 0.70419 0.0
C296 C 0.97691 0.7908 0.74076 0.0
C297 C 0.9747 0.80862 0.75528 0.0
C298 C 0.98167 0.76972 0.68701 0.0
C299 C 0.99407 0.75608 0.69883 0.0
C300 C 0.9693 0.76561 0.6582 0.0
C301 C 0.95563 0.77936 0.64495 0.0
C302 C 0.94272 0.78732 0.66899 0.0
C303 C 0.93025 0.80066 0.65652 0.0
C304 C 0.93041 0.80602 0.61996 0.0
C305 C 0.94301 0.798 0.59577 0.0
C306 C 0.95556 0.78469 0.60813 0.0
C307 C 0.97581 0.68198 0.64653 0.0
C308 C 0.97427 0.67933 0.60864 0.0
C309 C 0.97852 0.69965 0.66113 0.0
C310 C 0.98018 0.71514 0.63827 0.0
C311 C 0.97914 0.71245 0.60031 0.0
C312 C 0.97616 0.69476 0.58567 0.0
C313 C 0.98185 0.73416 0.65411 0.0
C314 C 0.96958 0.74796 0.64212 0.0
C315 C 0.99454 0.73847 0.68243 0.0
C316 C 0.00893 0.72517 0.69446 0.0
C317 C 0.02103 0.71709 0.66901 0.0
C318 C 0.03451 0.7045 0.68044 0.0
C319 C 0.0361 0.69998 0.71731 0.0
C320 C 0.02425 0.70807 0.74284 0.0
C321 C 0.01074 0.72066 0.73154 0.0
H322 H 0.04654 0.69024 0.72612 0.0
H323 H 0.92076 0.81636 0.61036 0.0
H324 H 0.33794 0.48431 0.89935 0.0
H325 H 0.30752 0.48882 0.92688 0.0
H326 H 0.28171 0.48137 0.82206 0.0
H327 H 0.31223 0.47639 0.79416 0.0
H328 H 0.26678 0.51206 0.87258 0.0
H329 H 0.2815 0.44635 0.86748 0.0
H330 H 0.30233 0.41995 0.87861 0.0
H331 H 0.30226 0.432 0.99319 0.0
H332 H 0.28168 0.45869 0.98263 0.0
H333 H 0.17476 0.49069 0.92084 0.0
H334 H 0.20577 0.49386 0.89614 0.0
H335 H 0.22887 0.47733 0.99958 0.0
H336 H 0.19753 0.47296 0.02379 0.0
H337 H 0.24648 0.46031 0.95168 0.0
H338 H 0.23136 0.52403 0.96139 0.0
H339 H 0.21283 0.55241 0.95422 0.0
H340 H 0.21563 0.54699 0.83783 0.0
H341 H 0.23398 0.51844 0.84429 0.0
C342 C 0.32588 0.48399 0.88186 0.0
C343 C 0.32757 0.47991 0.84447 0.0
C344 C 0.30847 0.48654 0.89775 0.0
C345 C 0.29237 0.48531 0.87658 0.0
C346 C 0.29399 0.4824 0.83886 0.0
C347 C 0.31144 0.47955 0.82297 0.0
C348 C 0.2739 0.48548 0.89447 0.0
C349 C 0.26217 0.5007 0.88955 0.0
C350 C 0.26827 0.47097 0.91775 0.0
C351 C 0.28021 0.45462 0.92422 0.0
C352 C 0.28604 0.44345 0.89501 0.0
C353 C 0.29779 0.42843 0.90122 0.0
C354 C 0.30367 0.42433 0.93657 0.0
C355 C 0.29773 0.4352 0.96581 0.0
C356 C 0.28601 0.45027 0.95974 0.0
C357 C 0.18641 0.48808 0.93868 0.0
C358 C 0.18362 0.48169 0.97446 0.0
C359 C 0.20426 0.48999 0.92448 0.0
C360 C 0.2199 0.48616 0.94599 0.0
C361 C 0.21713 0.48039 0.98225 0.0
C362 C 0.1992 0.47804 0.99624 0.0
C363 C 0.23894 0.48695 0.92979 0.0
C364 C 0.25091 0.47185 0.93497 0.0
C365 C 0.24494 0.50181 0.90739 0.0
C366 C 0.23393 0.519 0.90335 0.0
C367 C 0.22792 0.52882 0.93427 0.0
C368 C 0.21747 0.54495 0.93032 0.0
C369 C 0.21302 0.55147 0.89559 0.0
C370 C 0.21907 0.54191 0.86472 0.0
C371 C 0.22953 0.52577 0.8685 0.0
H372 H 0.20492 0.56396 0.8926 0.0
H373 H 0.31279 0.41272 0.94131 0.0
H374 H 0.50423 0.82868 0.11976 0.0
H375 H 0.50114 0.79808 0.1472 0.0
H376 H 0.54838 0.7791 0.08578 0.0
H377 H 0.55112 0.8095 0.05731 0.0
H378 H 0.52571 0.75187 0.09218 0.0
H379 H 0.55227 0.79473 0.17526 0.0
H380 H 0.55459 0.82352 0.21098 0.0
H381 H 0.5047 0.80961 0.26831 0.0
H382 H 0.50193 0.78084 0.23252 0.0
H383 H 0.55123 0.69429 0.26315 0.0
H384 H 0.54806 0.72471 0.23491 0.0
H385 H 0.50206 0.70474 0.17111 0.0
H386 H 0.50558 0.67415 0.19836 0.0
H387 H 0.52475 0.75146 0.22741 0.0
H388 H 0.50366 0.72183 0.08603 0.0
H389 H 0.50778 0.69322 0.05025 0.0
H390 H 0.55739 0.68082 0.10975 0.0
H391 H 0.55369 0.70944 0.14561 0.0
C392 C 0.51367 0.81786 0.11138 0.0
C393 C 0.52799 0.82159 0.08647 0.0
C394 C 0.51201 0.80039 0.12739 0.0
C395 C 0.52484 0.78635 0.11943 0.0
C396 C 0.53835 0.78967 0.09263 0.0
C397 C 0.53988 0.80709 0.07624 0.0
C398 C 0.52493 0.76871 0.14056 0.0
C399 C 0.52535 0.75181 0.12173 0.0
C400 C 0.52515 0.7685 0.17923 0.0
C401 C 0.52679 0.78573 0.20094 0.0
C402 C 0.54172 0.79788 0.19531 0.0
C403 C 0.54313 0.81418 0.21558 0.0
C404 C 0.52977 0.81841 0.24183 0.0
C405 C 0.51501 0.80632 0.24792 0.0
C406 C 0.51352 0.79001 0.22766 0.0
C407 C 0.54014 0.69649 0.24378 0.0
C408 C 0.52876 0.68172 0.23282 0.0
C409 C 0.53837 0.71391 0.22751 0.0
C410 C 0.52513 0.71697 0.20009 0.0
C411 C 0.51273 0.70265 0.19143 0.0
C412 C 0.51463 0.68518 0.20733 0.0
C413 C 0.52509 0.73462 0.179 0.0
C414 C 0.52481 0.75152 0.19785 0.0
C415 C 0.52585 0.73484 0.14036 0.0
C416 C 0.52826 0.71767 0.11876 0.0
C417 C 0.51547 0.71302 0.09141 0.0
C418 C 0.51772 0.6968 0.07114 0.0
C419 C 0.53279 0.68519 0.07785 0.0
C420 C 0.54568 0.68979 0.10473 0.0
C421 C 0.5435 0.70599 0.12506 0.0
H422 H 0.53451 0.67265 0.06214 0.0
H423 H 0.53089 0.83104 0.25751 0.0
H424 H 0.69533 0.54169 0.79576 0.0
H425 H 0.72662 0.5366 0.81946 0.0
H426 H 0.70365 0.51202 0.91647 0.0
H427 H 0.67253 0.5166 0.89264 0.0
H428 H 0.74256 0.55118 0.87604 0.0
H429 H 0.73326 0.48224 0.9556 0.0
H430 H 0.7162 0.45287 0.94966 0.0
H431 H 0.71357 0.46 0.83364 0.0
H432 H 0.73083 0.48928 0.83882 0.0
H433 H 0.8127 0.54538 0.00731 0.0
H434 H 0.78171 0.54257 0.98099 0.0
H435 H 0.80128 0.49995 0.90844 0.0
H436 H 0.83227 0.50259 0.93472 0.0
H437 H 0.76577 0.49302 0.93113 0.0
H438 H 0.79985 0.54273 0.87791 0.0
H439 H 0.81915 0.57083 0.88024 0.0
H440 H 0.77501 0.60029 0.93285 0.0
H441 H 0.75555 0.57227 0.93136 0.0
C442 C 0.69696 0.5348 0.82174 0.0
C443 C 0.68136 0.5295 0.84218 0.0
C444 C 0.71488 0.53203 0.83543 0.0
C445 C 0.71762 0.52386 0.86979 0.0
C446 C 0.70205 0.51806 0.88967 0.0
C447 C 0.68418 0.52073 0.87596 0.0
C448 C 0.73657 0.52242 0.88594 0.0
C449 C 0.74758 0.53841 0.88792 0.0
C450 C 0.74344 0.50574 0.90111 0.0
C451 C 0.7332 0.48805 0.89767 0.0
C452 C 0.72911 0.4775 0.92881 0.0
C453 C 0.71939 0.46088 0.92558 0.0
C454 C 0.71376 0.4546 0.89131 0.0
C455 C 0.71788 0.46491 0.86019 0.0
C456 C 0.72761 0.48154 0.86326 0.0
C457 C 0.81033 0.53505 0.98647 0.0
C458 C 0.82505 0.5243 0.97299 0.0
C459 C 0.79261 0.53355 0.97123 0.0
C460 C 0.78924 0.5213 0.94223 0.0
C461 C 0.80355 0.50956 0.93065 0.0
C462 C 0.82129 0.5111 0.94576 0.0
C463 C 0.77134 0.52184 0.92201 0.0
C464 C 0.76063 0.50573 0.91919 0.0
C465 C 0.76494 0.53826 0.90524 0.0
C466 C 0.77631 0.55535 0.90488 0.0
C467 C 0.79429 0.55518 0.89014 0.0
C468 C 0.80527 0.57107 0.89136 0.0
C469 C 0.79835 0.58728 0.90694 0.0
C470 C 0.78037 0.58769 0.92094 0.0
C471 C 0.76935 0.57181 0.91989 0.0
H472 H 0.80691 0.59954 0.90804 0.0
H473 H 0.70622 0.44174 0.88887 0.0
H474 H 0.4522 0.31271 0.25325 0.0
H475 H 0.45587 0.28146 0.22914 0.0
H476 H 0.50976 0.29599 0.18731 0.0
H477 H 0.50573 0.32752 0.20994 0.0
H478 H 0.49235 0.2796 0.1368 0.0
H479 H 0.50157 0.26503 0.26324 0.0
H480 H 0.49407 0.2642 0.32879 0.0
H481 H 0.44399 0.23445 0.30574 0.0
H482 H 0.45106 0.23531 0.24003 0.0
H483 H 0.50142 0.17114 0.14233 0.0
H484 H 0.50482 0.20194 0.1687 0.0
H485 H 0.466 0.22355 0.09034 0.0
H486 H 0.46262 0.19274 0.06356 0.0
H487 H 0.47866 0.22129 0.20222 0.0
H488 H 0.47484 0.26952 0.07656 0.0
H489 H 0.48447 0.26974 0.01207 0.0
H490 H 0.52813 0.23139 0.0361 0.0
H491 H 0.51892 0.23113 0.10079 0.0
C492 C 0.46504 0.30912 0.23974 0.0
C493 C 0.47871 0.32261 0.23365 0.0
C494 C 0.46714 0.29118 0.22589 0.0
C495 C 0.48316 0.28617 0.20642 0.0
C496 C 0.49721 0.29943 0.20197 0.0
C497 C 0.49497 0.31745 0.21523 0.0
C498 C 0.48474 0.26765 0.1885 0.0
C499 C 0.48943 0.26688 0.15129 0.0
C500 C 0.48105 0.25088 0.20713 0.0
C501 C 0.47678 0.25039 0.24667 0.0
C502 C 0.48889 0.25843 0.27213 0.0
C503 C 0.48473 0.25794 0.30932 0.0
C504 C 0.46855 0.24932 0.32141 0.0
C505 C 0.45651 0.24114 0.29634 0.0
C506 C 0.4606 0.24161 0.25913 0.0
C507 C 0.49391 0.1825 0.13009 0.0
C508 C 0.48173 0.17942 0.10076 0.0
C509 C 0.49578 0.20011 0.14543 0.0
C510 C 0.48562 0.21511 0.1317 0.0
C511 C 0.47412 0.21227 0.10128 0.0
C512 C 0.47223 0.19462 0.0859 0.0
C513 C 0.48616 0.23335 0.15069 0.0
C514 C 0.48172 0.23405 0.18795 0.0
C515 C 0.49032 0.25001 0.13228 0.0
C516 C 0.49606 0.25017 0.09346 0.0
C517 C 0.48653 0.26118 0.0681 0.0
C518 C 0.49191 0.26131 0.0315 0.0
C519 C 0.50686 0.25054 0.01997 0.0
C520 C 0.5165 0.23966 0.04503 0.0
C521 C 0.51119 0.2395 0.08166 0.0
H522 H 0.511 0.25065 0.99163 0.0
H523 H 0.46535 0.24895 0.35022 0.0
H524 H 0.83713 0.99562 0.40749 0.0
H525 H 0.80562 0.99872 0.43073 0.0
H526 H 0.7841 0.97673 0.33015 0.0
H527 H 0.81576 0.97313 0.30679 0.0
H528 H 0.76372 0.00957 0.36576 0.0
H529 H 0.78764 0.94768 0.38925 0.0
H530 H 0.81158 0.92648 0.41258 0.0
H531 H 0.80595 0.94998 0.51948 0.0
H532 H 0.78221 0.97158 0.49658 0.0
H533 H 0.67415 0.9803 0.41454 0.0
H534 H 0.70528 0.98523 0.39166 0.0
H535 H 0.72657 0.98327 0.50148 0.0
H536 H 0.69528 0.9771 0.52439 0.0
H537 H 0.74821 0.96465 0.46317 0.0
H538 H 0.72402 0.02495 0.44515 0.0
H539 H 0.70205 0.04894 0.42509 0.0
H540 H 0.70962 0.03231 0.31374 0.0
H541 H 0.73146 0.00805 0.33317 0.0
C542 C 0.82573 0.99181 0.38985 0.0
C543 C 0.82903 0.98405 0.35523 0.0
C544 C 0.8077 0.99355 0.40331 0.0
C545 C 0.79254 0.98783 0.3823 0.0
C546 C 0.79563 0.98125 0.34679 0.0
C547 C 0.81373 0.97921 0.33347 0.0
C548 C 0.77372 0.98719 0.3987 0.0
C549 C 0.76018 0.99965 0.38677 0.0
C550 C 0.76941 0.97472 0.42713 0.0
C551 C 0.78329 0.96137 0.44111 0.0
C552 C 0.7916 0.94842 0.41766 0.0
C553 C 0.80513 0.93632 0.43082 0.0
C554 C 0.81033 0.93692 0.46747 0.0
C555 C 0.80194 0.94956 0.49108 0.0
C556 C 0.78844 0.96172 0.47803 0.0
C557 C 0.68537 0.98125 0.43402 0.0
C558 C 0.68214 0.97843 0.47141 0.0
C559 C 0.70328 0.98419 0.42082 0.0
C560 C 0.71848 0.985 0.44471 0.0
C561 C 0.7152 0.98273 0.4823 0.0
C562 C 0.69725 0.97934 0.49548 0.0
C563 C 0.73777 0.987 0.4301 0.0
C564 C 0.75155 0.97474 0.44235 0.0
C565 C 0.7424 0.99999 0.40252 0.0
C566 C 0.72928 0.01458 0.39067 0.0
C567 C 0.72091 0.02632 0.41641 0.0
C568 C 0.70849 0.03998 0.40514 0.0
C569 C 0.70441 0.04212 0.36817 0.0
C570 C 0.71278 0.03063 0.34238 0.0
C571 C 0.7252 0.01694 0.35349 0.0
H572 H 0.69479 0.0527 0.35951 0.0
H573 H 0.82083 0.92757 0.47759 0.0
H574 H 0.00825 0.32871 0.61459 0.0
H575 H 0.0046 0.29768 0.64029 0.0
H576 H 0.06203 0.28615 0.61645 0.0
H577 H 0.06492 0.31629 0.58739 0.0
H578 H 0.04699 0.25689 0.60886 0.0
H579 H 0.04071 0.30072 0.70778 0.0
H580 H 0.02703 0.32688 0.74171 0.0
H581 H 0.97458 0.29916 0.74434 0.0
H582 H 0.98781 0.27293 0.71013 0.0
H583 H 0.06197 0.1893 0.74724 0.0
H584 H 0.06002 0.22067 0.72256 0.0
H585 H 1.00293 0.21153 0.69391 0.0
H586 H 0.00491 0.17986 0.71749 0.0
H587 H 0.01593 0.25004 0.72862 0.0
H588 H 0.02553 0.20527 0.6302 0.0
H589 H 0.04222 0.17901 0.6026 0.0
H590 H 0.09293 0.20988 0.60587 0.0
H591 H 0.07662 0.23617 0.63428 0.0
C592 C 0.0199 0.31929 0.61412 0.0
C593 C 0.0368 0.32478 0.59866 0.0
C594 C 0.01795 0.30164 0.62947 0.0
C595 C 0.0332 0.28951 0.6317 0.0
C596 C 0.04996 0.29499 0.61532 0.0
C597 C 0.05164 0.31228 0.59856 0.0
C598 C 0.03199 0.27128 0.65122 0.0
C599 C 0.04034 0.25565 0.63523 0.0
C600 C 0.02313 0.26914 0.68562 0.0
C601 C 0.0152 0.28496 0.70605 0.0
C602 C 0.02623 0.30026 0.71539 0.0
C603 C 0.01857 0.31509 0.73468 0.0
C604 C 0.99997 0.3147 0.74504 0.0
C605 C 0.98898 0.29946 0.73623 0.0
C606 C 0.99654 0.28461 0.71692 0.0
C607 C 0.04883 0.1941 0.73666 0.0
C608 C 0.03358 0.18206 0.73438 0.0
C609 C 0.04779 0.21201 0.72237 0.0
C610 C 0.03137 0.21836 0.70621 0.0
C611 C 0.01572 0.20688 0.70629 0.0
C612 C 0.01687 0.18881 0.71985 0.0
C613 C 0.03113 0.23624 0.68632 0.0
C614 C 0.02252 0.2516 0.70224 0.0
C615 C 0.04019 0.2383 0.65245 0.0
C616 C 0.04989 0.22261 0.63476 0.0
C617 C 0.04028 0.20639 0.6254 0.0
C618 C 0.04966 0.1915 0.60956 0.0
C619 C 0.06863 0.19276 0.6026 0.0
C620 C 0.07825 0.20891 0.61137 0.0
C621 C 0.06894 0.2238 0.62734 0.0
H622 H 0.07586 0.18125 0.59029 0.0
H623 H 0.99409 0.32619 0.75997 0.0
H624 H 0.06479 0.06075 0.26643 0.0
H625 H 0.03452 0.04642 0.2731 0.0
H626 H 0.05985 0.99815 0.32038 0.0
H627 H 0.09052 0.01254 0.31409 0.0
H628 H 0.03254 0.99018 0.26653 0.0
H629 H 0.03789 0.02621 0.37631 0.0
H630 H 0.04373 0.0542 0.41292 0.0
H631 H 1.00068 0.08286 0.35543 0.0
H632 H 0.99459 0.05501 0.31846 0.0
H633 H 0.94922 0.94914 0.32502 0.0
H634 H 0.9801 0.96245 0.3217 0.0
H635 H 0.95649 0.01568 0.29633 0.0
H636 H 0.92529 1.0025 0.30157 0.0
H637 H 0.98364 0.02077 0.33991 0.0
H638 H 0.97782 0.98543 0.22999 0.0
H639 H 0.97146 0.95777 0.19271 0.0
H640 H 0.01528 0.92859 0.24684 0.0
H641 H 0.02175 0.956 0.28477 0.0
C642 C 0.06407 0.04704 0.27815 0.0
C643 C 0.08021 0.03781 0.28972 0.0
C644 C 0.04665 0.03891 0.28211 0.0
C645 C 0.04486 0.0213 0.29759 0.0
C646 C 0.06091 0.0118 0.30848 0.0
C647 C 0.07842 0.02004 0.30487 0.0
C648 C 0.02616 0.01295 0.30204 0.0
C649 C 0.02191 0.99667 0.28303 0.0
C650 C 0.01211 0.02175 0.3226 0.0
C651 C 0.01589 0.03858 0.34445 0.0
C652 C 0.02977 0.03852 0.3713 0.0
C653 C 0.03308 0.05434 0.39219 0.0
C654 C 0.02262 0.07031 0.38644 0.0
C655 C 0.00878 0.07048 0.35985 0.0
C656 C 0.00535 0.05467 0.339 0.0
C657 C 0.95056 0.9637 0.31867 0.0
C658 C 0.93476 0.97473 0.31323 0.0
C659 C 0.9683 0.97129 0.31653 0.0
C660 C 0.9708 0.99001 0.30776 0.0
C661 C 0.95501 1.00117 0.30291 0.0
C662 C 0.93717 0.99363 0.30585 0.0
C663 C 0.98985 0.99792 0.30423 0.0
C664 C 0.9942 0.01418 0.32337 0.0
C665 C 1.00393 0.98918 0.28341 0.0
C666 C 1.00016 0.97272 0.26044 0.0
C667 C 0.98602 0.97307 0.23409 0.0
C668 C 0.98241 0.95745 0.21283 0.0
C669 C 0.99293 0.94142 0.21746 0.0
C670 C 0.00713 0.94101 0.2433 0.0
C671 C 0.01079 0.95659 0.26466 0.0
H672 H 0.99011 0.92933 0.20099 0.0
H673 H 0.0252 0.08254 0.40265 0.0
H674 H 0.97788 0.57522 0.4904 0.0
H675 H 0.99144 0.54427 0.49114 0.0
H676 H 0.98681 0.54312 0.60844 0.0
H677 H 0.97465 0.57476 0.60769 0.0
H678 H 0.01526 0.52515 0.59288 0.0
H679 H 0.95375 0.52186 0.54482 0.0
H680 H 0.92799 0.53008 0.50382 0.0
H681 H 0.95962 0.51183 0.41151 0.0
H682 H 0.98567 0.50369 0.45193 0.0
H683 H 0.01922 0.42584 0.60021 0.0
H684 H 0.00528 0.45684 0.60139 0.0
H685 H 0.02674 0.46753 0.49387 0.0
H686 H 0.04103 0.43688 0.49287 0.0
H687 H 0.98843 0.47953 0.50675 0.0
H688 H 0.0502 0.48368 0.55852 0.0
H689 H 0.07463 0.47484 0.60205 0.0
H690 H 0.03959 0.49038 0.69149 0.0
H691 H 0.01483 0.49906 0.64845 0.0
C692 C 0.9802 0.56849 0.51635 0.0
C693 C 0.97531 0.57736 0.54899 0.0
C694 C 0.98768 0.55065 0.51679 0.0
C695 C 0.98955 0.5409 0.54976 0.0
C696 C 0.98542 0.55016 0.58256 0.0
C697 C 0.97852 0.56828 0.58218 0.0
C698 C 0.9953 0.521 0.54992 0.0
C699 C 0.00912 0.51519 0.57438 0.0
C700 C 0.98749 0.50778 0.52571 0.0
C701 C 0.97172 0.51231 0.50139 0.0
C702 C 0.95524 0.51966 0.51577 0.0
C703 C 0.94059 0.52431 0.49263 0.0
C704 C 0.94219 0.52152 0.45508 0.0
C705 C 0.95841 0.514 0.4406 0.0
C706 C 0.97311 0.50934 0.46361 0.0
C707 C 0.02066 0.43468 0.57658 0.0
C708 C 0.03123 0.42892 0.54646 0.0
C709 C 0.01279 0.45241 0.57737 0.0
C710 C 0.01508 0.46453 0.54779 0.0
C711 C 0.0248 0.45842 0.51697 0.0
C712 C 0.03297 0.4409 0.51647 0.0
C713 C 0.00828 0.48393 0.5495 0.0
C714 C 0.99434 0.48957 0.52539 0.0
C715 C 0.01567 0.49688 0.57447 0.0
C716 C 0.03059 0.49181 0.6003 0.0
C717 C 0.04764 0.48505 0.58748 0.0
C718 C 0.06156 0.4801 0.61206 0.0
C719 C 0.05865 0.48199 0.64951 0.0
C720 C 0.04182 0.48889 0.66247 0.0
C721 C 0.02784 0.49383 0.638 0.0
H722 H 0.06944 0.47815 0.6685 0.0
H723 H 0.93085 0.52516 0.4372 0.0
H724 H 0.44573 0.44698 0.7726 0.0
H725 H 0.47629 0.46109 0.77586 0.0
H726 H 0.45169 0.51281 0.80833 0.0
H727 H 0.42078 0.49867 0.80551 0.0
H728 H 0.47915 0.51596 0.75271 0.0
H729 H 0.47199 0.4883 0.87075 0.0
H730 H 0.46533 0.4631 0.91395 0.0
H731 H 0.51019 0.43132 0.86961 0.0
H732 H 0.51694 0.45622 0.82571 0.0
H733 H 0.56104 0.5616 0.80212 0.0
H734 H 0.53046 0.5476 0.80194 0.0
H735 H 0.55515 0.49353 0.79217 0.0
H736 H 0.58612 0.50758 0.79426 0.0
H737 H 0.52726 0.49138 0.83609 0.0
H738 H 0.53446 0.51809 0.71743 0.0
H739 H 0.54132 0.54279 0.67315 0.0
H740 H 0.49662 0.57532 0.71595 0.0
H741 H 0.48965 0.55095 0.76081 0.0
C742 C 0.4467 0.46139 0.78034 0.0
C743 C 0.43071 0.47169 0.78877 0.0
C744 C 0.46426 0.4694 0.78236 0.0
C745 C 0.46631 0.48795 0.79264 0.0
C746 C 0.45041 0.49844 0.80044 0.0
C747 C 0.43277 0.49034 0.79886 0.0
C748 C 0.48511 0.49627 0.79492 0.0
C749 C 0.48961 0.5108 0.7713 0.0
C750 C 0.49892 0.48909 0.81834 0.0
C751 C 0.49486 0.47407 0.8447 0.0
C752 C 0.48033 0.47588 0.86997 0.0
C753 C 0.47656 0.46166 0.89465 0.0
C754 C 0.48732 0.44562 0.89451 0.0
C755 C 0.50186 0.44376 0.86968 0.0
C756 C 0.50567 0.45792 0.84492 0.0
C757 C 0.56002 0.54671 0.79986 0.0
C758 C 0.57605 0.53571 0.79775 0.0
C759 C 0.54245 0.53871 0.79955 0.0
C760 C 0.54034 0.51951 0.79595 0.0
C761 C 0.55634 0.5084 0.79466 0.0
C762 C 0.57405 0.51642 0.79578 0.0
C763 C 0.52143 0.51119 0.79382 0.0
C764 C 0.51687 0.49659 0.81741 0.0
C765 C 0.5076 0.51818 0.77003 0.0
C766 C 0.51163 0.53275 0.74269 0.0
C767 C 0.52616 0.53056 0.71752 0.0
C768 C 0.53006 0.5445 0.69231 0.0
C769 C 0.51944 0.56063 0.69182 0.0
C770 C 0.50484 0.56283 0.7164 0.0
C771 C 0.5009 0.54895 0.7417 0.0
H772 H 0.52249 0.57145 0.67238 0.0
H773 H 0.4844 0.43463 0.91367 0.0
H774 H 0.56028 0.94172 0.03614 0.0
H775 H 0.54703 0.97265 0.03577 0.0
H776 H 0.49242 0.94966 0.04899 0.0
H777 H 0.50563 0.91835 0.04971 0.0
H778 H 0.49541 0.979 0.99523 0.0
H779 H 0.51168 0.96672 0.12049 0.0
H780 H 0.53296 0.95703 0.1694 0.0
H781 H 0.57018 1.00104 0.14148 0.0
H782 H 0.54924 0.01083 0.09201 0.0
H783 H 0.44798 0.05989 0.04693 0.0
H784 H 0.4613 0.02914 0.04232 0.0
H785 H 0.51611 0.0522 0.05269 0.0
H786 H 0.50274 0.08324 0.05843 0.0
H787 H 0.51359 0.02268 0.09326 0.0
H788 H 0.49886 0.03578 0.96977 0.0
H789 H 0.47985 0.04534 0.91728 0.0
H790 H 0.44226 1.00055 0.93742 0.0
H791 H 0.4609 0.99087 0.99041 0.0
C792 C 0.54542 0.94312 0.03876 0.0
C793 C 0.53403 0.92747 0.04313 0.0
C794 C 0.53788 0.96088 0.03862 0.0
C795 C 0.51878 0.96347 0.04268 0.0
C796 C 0.50723 0.94793 0.04589 0.0
C797 C 0.5148 0.93007 0.04638 0.0
C798 C 0.51108 0.98249 0.04456 0.0
C799 C 0.49911 0.9885 0.01694 0.0
C800 C 0.51653 0.99505 0.07214 0.0
C801 C 0.52897 0.9894 0.10233 0.0
C802 C 0.52446 0.97425 0.12462 0.0
C803 C 0.53646 0.96875 0.15246 0.0
C804 C 0.55294 0.97838 0.15848 0.0
C805 C 0.55742 0.99358 0.13676 0.0
C806 C 0.54548 0.99913 0.10883 0.0
C807 C 0.4629 0.05853 0.04805 0.0
C808 C 0.47428 0.07413 0.05294 0.0
C809 C 0.47052 0.04086 0.04519 0.0
C810 C 0.48975 0.03829 0.04653 0.0
C811 C 0.50122 0.05381 0.05144 0.0
C812 C 0.49357 0.07156 0.05461 0.0
C813 C 0.49772 0.01931 0.04397 0.0
C814 C 0.5098 0.01327 0.07147 0.0
C815 C 0.49259 0.00681 0.01591 0.0
C816 C 0.48121 0.01269 0.98428 0.0
C817 C 0.48645 0.02806 0.96323 0.0
C818 C 0.47576 0.03348 0.93335 0.0
C819 C 0.45986 0.02356 0.92404 0.0
C820 C 0.45459 0.00822 0.94467 0.0
C821 C 0.46522 1.00275 0.97461 0.0
H822 H 0.45168 0.02771 0.90075 0.0
H823 H 0.56222 0.97408 0.18001 0.0
H824 H 0.06459 0.44767 0.0335 0.0
H825 H 0.03353 0.46071 0.03395 0.0
H826 H 0.05615 0.51518 0.01747 0.0
H827 H 0.08756 0.50218 0.01678 0.0
H828 H 0.02723 0.51359 0.07052 0.0
H829 H 0.03858 0.49403 0.94711 0.0
H830 H 0.04777 0.47189 0.8993 0.0
H831 H 1.00402 0.43528 0.93174 0.0
H832 H 0.99473 0.45709 0.98012 0.0
H833 H 0.94546 0.55896 0.01615 0.0
H834 H 0.97641 0.54601 0.02076 0.0
H835 H 0.95357 0.49094 0.01859 0.0
H836 H 0.92232 0.50391 0.01285 0.0
H837 H 0.98274 0.49243 0.97625 0.0
H838 H 0.97071 0.51119 0.09858 0.0
H839 H 0.96138 0.5323 0.14804 0.0
H840 H 0.00586 0.56906 0.12047 0.0
H841 H 0.01532 0.54828 0.07048 0.0
C842 C 0.06308 0.46246 0.03019 0.0
C843 C 0.07866 0.47386 0.02488 0.0
C844 C 0.04525 0.46988 0.03036 0.0
C845 C 0.04249 0.48887 0.02531 0.0
C846 C 0.05798 0.50045 0.0213 0.0
C847 C 0.07591 0.493 0.02085 0.0
C848 C 0.02338 0.49642 0.02327 0.0
C849 C 0.01755 0.5092 0.04962 0.0
C850 C 0.0106 0.49019 0.9967 0.0
C851 C 0.01607 0.47712 0.96746 0.0
C852 C 0.03101 0.48119 0.94424 0.0
C853 C 0.03622 0.46871 0.91701 0.0
C854 C 0.02651 0.45217 0.91255 0.0
C855 C 0.01154 0.44809 0.93525 0.0
C856 C 0.00629 0.46051 0.96257 0.0
C857 C 0.94692 0.54407 0.01682 0.0
C858 C 0.93131 0.53248 0.01428 0.0
C859 C 0.9647 0.53667 0.01968 0.0
C860 C 0.9674 0.51748 0.02072 0.0
C861 C 0.95187 0.50581 0.01802 0.0
C862 C 0.934 0.51323 0.01482 0.0
C863 C 0.98647 0.50972 0.02351 0.0
C864 C 0.99233 0.49686 0.99726 0.0
C865 C 0.99922 0.51574 0.05043 0.0
C866 C 0.99362 0.52825 0.08056 0.0
C867 C 0.97842 0.52384 0.10288 0.0
C868 C 0.97312 0.53574 0.13104 0.0
C869 C 0.983 0.55203 0.13734 0.0
C870 C 0.99822 0.55644 0.11554 0.0
C871 C 1.00357 0.5446 0.0873 0.0
H872 H 0.97887 0.56122 0.15916 0.0
H873 H 0.03057 0.44252 0.89144 0.0
H874 H 0.44966 0.44403 0.28081 0.0
H875 H 0.46351 0.47466 0.2832 0.0
H876 H 0.51735 0.45105 0.2633 0.0
H877 H 0.50354 0.42004 0.26088 0.0
H878 H 0.51757 0.4787 0.31721 0.0
H879 H 0.49505 0.47092 0.19479 0.0
H880 H 0.47168 0.46351 0.14804 0.0
H881 H 0.43694 0.50729 0.18762 0.0
H882 H 0.46 0.51479 0.23495 0.0
H883 H 0.56369 0.56086 0.26851 0.0
H884 H 0.5502 0.53011 0.27049 0.0
H885 H 0.49548 0.5539 0.27421 0.0
H886 H 0.50898 0.58498 0.27093 0.0
H887 H 0.49551 0.52594 0.22942 0.0
H888 H 0.51728 0.53424 0.35128 0.0
H889 H 0.53982 0.54174 0.39951 0.0
H890 H 0.57487 0.4974 0.3636 0.0
H891 H 0.55265 0.48979 0.31481 0.0
C892 C 0.46448 0.44523 0.27711 0.0
C893 C 0.47546 0.42949 0.27037 0.0
C894 C 0.47237 0.46282 0.27839 0.0
C895 C 0.49142 0.4652 0.27289 0.0
C896 C 0.50259 0.44953 0.26746 0.0
C897 C 0.49467 0.43183 0.26605 0.0
C898 C 0.49944 0.48413 0.27199 0.0
C899 C 0.51296 0.48897 0.29771 0.0
C900 C 0.493 0.4977 0.24726 0.0
C901 C 0.47918 0.49331 0.21862 0.0
C902 C 0.48237 0.47888 0.19369 0.0
C903 C 0.46919 0.47467 0.16706 0.0
C904 C 0.45282 0.48489 0.16491 0.0
C905 C 0.44962 0.49937 0.18934 0.0
C906 C 0.46275 0.50362 0.21605 0.0
C907 C 0.54876 0.55964 0.26994 0.0
C908 C 0.53742 0.57547 0.26979 0.0
C909 C 0.54106 0.54196 0.27128 0.0
C910 C 0.52181 0.53958 0.27327 0.0
C911 C 0.51039 0.55534 0.27288 0.0
C912 C 0.51811 0.57311 0.27108 0.0
C913 C 0.51371 0.52062 0.27471 0.0
C914 C 0.50015 0.51574 0.24905 0.0
C915 C 0.52001 0.50707 0.29974 0.0
C916 C 0.53336 0.51155 0.32918 0.0
C917 C 0.52985 0.52617 0.3535 0.0
C918 C 0.54257 0.53043 0.38097 0.0
C919 C 0.55879 0.52008 0.38456 0.0
C920 C 0.56231 0.50542 0.36076 0.0
C921 C 0.54965 0.50111 0.33321 0.0
H922 H 0.56861 0.5234 0.40584 0.0
H923 H 0.44263 0.48161 0.14428 0.0
H924 H 0.44919 0.0627 0.52691 0.0
H925 H 0.47934 0.04765 0.52417 0.0
H926 H 0.45281 0.99495 0.50784 0.0
H927 H 0.42228 0.01007 0.5098 0.0
H928 H 0.48199 0.99685 0.56502 0.0
H929 H 0.47192 0.01141 0.4386 0.0
H930 H 0.46415 0.03188 0.38718 0.0
H931 H 0.5101 0.067 0.41389 0.0
H932 H 0.51798 0.04687 0.46585 0.0
H933 H 0.56196 0.94544 0.52645 0.0
H934 H 0.53163 0.95985 0.52509 0.0
H935 H 0.55704 0.01325 0.51002 0.0
H936 H 0.58776 0.99864 0.50992 0.0
H937 H 0.52794 0.01109 0.46852 0.0
H938 H 0.53822 0.99863 0.59432 0.0
H939 H 0.54629 0.98014 0.64843 0.0
H940 H 0.50064 0.94371 0.62714 0.0
H941 H 0.49244 0.96183 0.57258 0.0
C942 C 0.44967 0.04789 0.52271 0.0
C943 C 0.43326 0.03758 0.51869 0.0
C944 C 0.46697 0.03934 0.521 0.0
C945 C 0.46833 0.02021 0.51569 0.0
C946 C 0.45204 0.00976 0.51191 0.0
C947 C 0.43463 0.0184 0.51294 0.0
C948 C 0.48688 0.01131 0.5148 0.0
C949 C 0.49195 0.99966 0.5436 0.0
C950 C 0.50009 0.01564 0.48766 0.0
C951 C 0.49543 0.02772 0.45634 0.0
C952 C 0.48027 0.02359 0.43372 0.0
C953 C 0.47587 0.03511 0.40443 0.0
C954 C 0.4866 0.05076 0.39733 0.0
C955 C 0.50179 0.05488 0.41945 0.0
C956 C 0.50624 0.04341 0.4488 0.0
C957 C 0.56121 0.96028 0.52301 0.0
C958 C 0.5774 0.9709 0.51868 0.0
C959 C 0.54376 0.96854 0.5224 0.0
C960 C 0.54193 0.98773 0.51832 0.0
C961 C 0.55804 0.99842 0.51345 0.0
C962 C 0.57561 0.99008 0.5135 0.0
C963 C 0.52316 0.99643 0.51874 0.0
C964 C 0.51803 0.00815 0.48995 0.0
C965 C 0.50996 0.99242 0.5463 0.0
C966 C 0.51482 0.9815 0.57916 0.0
C967 C 0.52998 0.98659 0.60102 0.0
C968 C 0.53457 0.97619 0.6318 0.0
C969 C 0.52401 0.96073 0.64117 0.0
C970 C 0.50882 0.95567 0.61982 0.0
C971 C 0.50418 0.96602 0.58899 0.0
H972 H 0.52759 0.9527 0.66501 0.0
H973 H 0.48317 0.05966 0.37463 0.0
H974 H 0.00804 0.08358 0.7786 0.0
H975 H 0.99468 0.05246 0.78417 0.0
H976 H 0.0469 0.02854 0.75249 0.0
H977 H 0.06035 0.05932 0.74736 0.0
H978 H 0.01645 0.01335 0.71525 0.0
H979 H 0.03569 0.02709 0.838 0.0
H980 H 0.03685 0.04557 0.89443 0.0
H981 H 0.97799 0.04021 0.90664 0.0
H982 H 0.97645 0.02191 0.84994 0.0
H983 H 0.99729 0.91912 0.75691 0.0
H984 H 0.0119 0.9497 0.75456 0.0
H985 H 0.96345 0.97384 0.80415 0.0
H986 H 0.94909 0.94354 0.80751 0.0
H987 H 0.99248 0.98909 0.83246 0.0
H988 H 0.97232 0.97638 0.71044 0.0
H989 H 0.97003 0.9587 0.65314 0.0
H990 H 0.02881 0.96301 0.63814 0.0
H991 H 0.03148 0.98052 0.69564 0.0
C992 C 0.01666 0.07169 0.77289 0.0
C993 C 0.03528 0.07398 0.76268 0.0
C994 C 0.00903 0.05392 0.77615 0.0
C995 C 0.01982 0.03817 0.76881 0.0
C996 C 0.03831 0.04046 0.75824 0.0
C997 C 0.04599 0.05812 0.7555 0.0
C998 C 0.01198 0.01923 0.77207 0.0
C999 C 0.01139 0.00795 0.74095 0.0
C1000 C 0.00503 0.01233 0.80541 0.0
C1001 C 0.00593 0.0233 0.83951 0.0
C1002 C 0.02297 0.02999 0.85253 0.0
C1003 C 0.0237 0.04041 0.8846 0.0
C1004 C 0.00749 0.04411 0.90405 0.0
C1005 C 0.99052 0.03736 0.89151 0.0
C1006 C 0.98972 0.02696 0.85942 0.0
C1007 C 0.98982 0.93092 0.76756 0.0
C1008 C 0.97196 0.92879 0.78225 0.0
C1009 C 0.99814 0.94844 0.766 0.0
C1010 C 0.98868 0.96421 0.77869 0.0
C1011 C 0.97107 0.96198 0.79415 0.0
C1012 C 0.96284 0.94455 0.79593 0.0
C1013 C 0.99684 0.9831 0.77553 0.0
C1014 C 0.99752 0.99442 0.80669 0.0
C1015 C 1.00368 0.99011 0.74209 0.0
C1016 C 1.00213 0.97958 0.70754 0.0
C1017 C 0.98478 0.97343 0.69507 0.0
C1018 C 0.98341 0.96346 0.66254 0.0
C1019 C 0.99927 0.95968 0.64207 0.0
C1020 C 0.01654 0.96591 0.65406 0.0
C1021 C 0.01799 0.97587 0.68661 0.0
H1022 H 0.99818 0.95197 0.61688 0.0
H1023 H 0.00809 0.05217 0.92889 0.0
H1024 H 0.11289 0.12462 0.66067 0.0
H1025 H 0.12467 0.12723 0.59829 0.0
H1026 H 0.07073 0.14477 0.56155 0.0
H1027 H 0.05884 0.14184 0.62336 0.0
H1028 H 0.0825 0.11817 0.52043 0.0
H1029 H 0.10828 0.17466 0.56312 0.0
H1030 H 0.12576 0.19518 0.60427 0.0
H1031 H 0.17547 0.16457 0.5827 0.0
H1032 H 0.15823 0.14366 0.54186 0.0
H1033 H 0.10986 0.12538 0.34081 0.0
H1034 H 0.10362 0.14109 0.39866 0.0
H1035 H 0.14866 0.11155 0.44899 0.0
H1036 H 0.15489 0.09572 0.39149 0.0
H1037 H 0.1405 0.14882 0.48037 0.0
H1038 H 0.11188 0.08902 0.44966 0.0
H1039 H 0.09527 0.06967 0.40494 0.0
H1040 H 0.05055 0.10875 0.40297 0.0
H1041 H 0.06707 0.12844 0.44737 0.0
C1042 C 0.10362 0.12924 0.63934 0.0
C1043 C 0.08488 0.13277 0.64687 0.0
C1044 C 0.11039 0.13084 0.60373 0.0
C1045 C 0.0986 0.13627 0.57518 0.0
C1046 C 0.08007 0.14046 0.58302 0.0
C1047 C 0.07329 0.13874 0.61842 0.0
C1048 C 0.10503 0.13595 0.53674 0.0
C1049 C 0.09496 0.12526 0.51168 0.0
C1050 C 0.12145 0.14493 0.52518 0.0
C1051 C 0.13191 0.15748 0.54966 0.0
C1052 C 0.1229 0.1722 0.56739 0.0
C1053 C 0.13277 0.18392 0.59062 0.0
C1054 C 0.1517 0.18116 0.59615 0.0
C1055 C 0.1608 0.16669 0.57841 0.0
C1056 C 0.15099 0.1549 0.55518 0.0
C1057 C 0.11895 0.12286 0.36374 0.0
C1058 C 0.13261 0.10908 0.36193 0.0
C1059 C 0.11539 0.13186 0.39676 0.0
C1060 C 0.12555 0.12727 0.42812 0.0
C1061 C 0.1407 0.11529 0.42509 0.0
C1062 C 0.14413 0.10615 0.39228 0.0
C1063 C 0.11791 0.13117 0.46472 0.0
C1064 C 0.12782 0.14221 0.48932 0.0
C1065 C 0.10127 0.12266 0.47605 0.0
C1066 C 0.09074 0.11023 0.45153 0.0
C1067 C 0.09849 0.09345 0.43971 0.0
C1068 C 0.08912 0.08244 0.4144 0.0
C1069 C 0.0719 0.08802 0.40102 0.0
C1070 C 0.0639 0.10447 0.41333 0.0
C1071 C 0.07325 0.11555 0.43859 0.0
H1072 H 0.06479 0.07961 0.38105 0.0
H1073 H 0.15932 0.19026 0.61414 0.0
H1074 H 0.90491 0.65459 0.63532 0.0
H1075 H 0.88922 0.65283 0.69418 0.0
H1076 H 0.87436 0.59618 0.67208 0.0
H1077 H 0.88949 0.59816 0.61239 0.0
H1078 H 0.84898 0.61356 0.71842 0.0
H1079 H 0.91566 0.60535 0.70858 0.0
H1080 H 0.94679 0.61551 0.68958 0.0
H1081 H 0.94175 0.66397 0.75645 0.0
H1082 H 0.91044 0.65423 0.77537 0.0
H1083 H 0.86252 0.56313 0.8786 0.0
H1084 H 0.86077 0.57782 0.81927 0.0
H1085 H 0.87849 0.62949 0.86656 0.0
H1086 H 0.88058 0.61464 0.92659 0.0
H1087 H 0.89921 0.62062 0.8097 0.0
H1088 H 0.83426 0.62581 0.82796 0.0
H1089 H 0.80287 0.61583 0.84546 0.0
H1090 H 0.80458 0.5729 0.76472 0.0
H1091 H 0.83594 0.58273 0.74647 0.0
C1092 C 0.89758 0.64204 0.64238 0.0
C1093 C 0.89854 0.62644 0.61965 0.0
C1094 C 0.88867 0.64102 0.67602 0.0
C1095 C 0.8811 0.62422 0.68789 0.0
C1096 C 0.88021 0.60925 0.6635 0.0
C1097 C 0.88883 0.61039 0.62939 0.0
C1098 C 0.8774 0.62123 0.7272 0.0
C1099 C 0.85991 0.6151 0.73846 0.0
C1100 C 0.8916 0.62363 0.75344 0.0
C1101 C 0.91066 0.62916 0.74309 0.0
C1102 C 0.92118 0.6182 0.71913 0.0
C1103 C 0.93884 0.62389 0.70835 0.0
C1104 C 0.94623 0.6404 0.72173 0.0
C1105 C 0.936 0.65121 0.74606 0.0
C1106 C 0.9183 0.64561 0.75683 0.0
C1107 C 0.86586 0.57769 0.87661 0.0
C1108 C 0.87195 0.58767 0.90726 0.0
C1109 C 0.86461 0.58615 0.84262 0.0
C1110 C 0.8693 0.60483 0.83842 0.0
C1111 C 0.8747 0.61507 0.86923 0.0
C1112 C 0.8759 0.60659 0.90347 0.0
C1113 C 0.87078 0.61271 0.80118 0.0
C1114 C 0.88802 0.61959 0.79008 0.0
C1115 C 0.85635 0.61095 0.77523 0.0
C1116 C 0.83748 0.60497 0.78597 0.0
C1117 C 0.82797 0.61419 0.81403 0.0
C1118 C 0.81016 0.6086 0.82401 0.0
C1119 C 0.80176 0.59369 0.80632 0.0
C1120 C 0.8111 0.58445 0.77839 0.0
C1121 C 0.82885 0.59009 0.76807 0.0
H1122 H 0.78802 0.58931 0.81426 0.0
H1123 H 0.95989 0.6448 0.71329 0.0
H1124 H 0.39485 0.38666 0.17082 0.0
H1125 H 0.38217 0.38638 0.10883 0.0
H1126 H 0.4324 0.36106 0.06933 0.0
H1127 H 0.44523 0.3617 0.13063 0.0
H1128 H 0.42462 0.39015 0.03066 0.0
H1129 H 0.39062 0.33747 0.07189 0.0
H1130 H 0.37002 0.31978 0.1125 0.0
H1131 H 0.32579 0.35791 0.09125 0.0
H1132 H 0.34621 0.37599 0.05089 0.0
H1133 H 0.39754 0.3859 0.85006 0.0
H1134 H 0.40239 0.37079 0.90899 0.0
H1135 H 0.35922 0.4042 0.95644 0.0
H1136 H 0.35438 0.41941 0.89784 0.0
H1137 H 0.36318 0.36779 0.9892 0.0
H1138 H 0.39858 0.42254 0.95699 0.0
H1139 H 0.41847 0.44039 0.91526 0.0
H1140 H 0.46 0.39804 0.92054 0.0
H1141 H 0.44016 0.37976 0.96183 0.0
C1142 C 0.40305 0.3808 0.14896 0.0
C1143 C 0.42111 0.37442 0.15551 0.0
C1144 C 0.39576 0.38055 0.11359 0.0
C1145 C 0.40633 0.37366 0.0844 0.0
C1146 C 0.42403 0.36653 0.09134 0.0
C1147 C 0.43135 0.36694 0.12644 0.0
C1148 C 0.39985 0.37547 0.0462 0.0
C1149 C 0.41134 0.38487 0.02155 0.0
C1150 C 0.38233 0.36902 0.03438 0.0
C1151 C 0.37 0.35818 0.05861 0.0
C1152 C 0.37654 0.34217 0.07611 0.0
C1153 C 0.36489 0.33206 0.09904 0.0
C1154 C 0.34662 0.33774 0.10452 0.0
C1155 C 0.33995 0.35353 0.08701 0.0
C1156 C 0.35155 0.36371 0.06407 0.0
C1157 C 0.38859 0.38948 0.87267 0.0
C1158 C 0.37585 0.40405 0.86966 0.0
C1159 C 0.39137 0.38085 0.9063 0.0
C1160 C 0.38134 0.38662 0.93709 0.0
C1161 C 0.3671 0.39959 0.93302 0.0
C1162 C 0.36446 0.40835 0.89958 0.0
C1163 C 0.38807 0.38219 0.9741 0.0
C1164 C 0.37659 0.37262 0.99844 0.0
C1165 C 0.40561 0.38848 0.9859 0.0
C1166 C 0.41781 0.39969 0.96208 0.0
C1167 C 0.41191 0.41699 0.94907 0.0
C1168 C 0.42316 0.42718 0.92552 0.0
C1169 C 0.44045 0.42031 0.91513 0.0
C1170 C 0.44658 0.40331 0.92852 0.0
C1171 C 0.43533 0.39302 0.95199 0.0
H1172 H 0.44907 0.42817 0.8967 0.0
H1173 H 0.33762 0.32989 0.12228 0.0
H1174 H 0.61003 0.88732 0.44557 0.0
H1175 H 0.60856 0.87346 0.38475 0.0
H1176 H 0.65585 0.9058 0.35163 0.0
H1177 H 0.65692 0.9201 0.41182 0.0
H1178 H 0.62834 0.91233 0.30879 0.0
H1179 H 0.65654 0.85734 0.3537 0.0
H1180 H 0.66115 0.8309 0.39501 0.0
H1181 H 0.60694 0.81055 0.3688 0.0
H1182 H 0.60189 0.83701 0.32771 0.0
H1183 H 0.61753 0.88347 0.12671 0.0
H1184 H 0.63295 0.88455 0.18623 0.0
H1185 H 0.58482 0.86019 0.23646 0.0
H1186 H 0.5694 0.85903 0.17743 0.0
H1187 H 0.61772 0.84785 0.26793 0.0
H1188 H 0.58768 0.90526 0.23422 0.0
H1189 H 0.58174 0.93202 0.1943 0.0
H1190 H 0.63892 0.9478 0.20153 0.0
H1191 H 0.64523 0.92097 0.24115 0.0
C1192 C 0.62046 0.89099 0.42564 0.0
C1193 C 0.63344 0.90492 0.43315 0.0
C1194 C 0.61966 0.88303 0.39088 0.0
C1195 C 0.63207 0.88864 0.3635 0.0
C1196 C 0.64606 0.90135 0.37219 0.0
C1197 C 0.64666 0.90949 0.40659 0.0
C1198 C 0.62873 0.88364 0.32479 0.0
C1199 C 0.62656 0.89816 0.29976 0.0
C1200 C 0.62582 0.86522 0.3131 0.0
C1201 C 0.6288 0.84925 0.33778 0.0
C1202 C 0.64554 0.84731 0.35694 0.0
C1203 C 0.64824 0.8323 0.38029 0.0
C1204 C 0.63433 0.81907 0.38458 0.0
C1205 C 0.6177 0.82081 0.36546 0.0
C1206 C 0.61492 0.8358 0.34209 0.0
C1207 C 0.61041 0.878 0.15033 0.0
C1208 C 0.59215 0.87149 0.14755 0.0
C1209 C 0.61922 0.87861 0.18426 0.0
C1210 C 0.60992 0.87262 0.21574 0.0
C1211 C 0.59223 0.86487 0.21252 0.0
C1212 C 0.58338 0.8644 0.17879 0.0
C1213 C 0.61743 0.87653 0.25246 0.0
C1214 C 0.62012 0.86191 0.27703 0.0
C1215 C 0.62074 0.89487 0.264 0.0
C1216 C 0.61697 0.911 0.24021 0.0
C1217 C 0.59901 0.91435 0.22702 0.0
C1218 C 0.59557 0.92954 0.20451 0.0
C1219 C 0.60996 0.94156 0.19528 0.0
C1220 C 0.6278 0.93844 0.20863 0.0
C1221 C 0.63132 0.92326 0.23111 0.0
H1222 H 0.60726 0.95332 0.17787 0.0
H1223 H 0.63645 0.80746 0.40267 0.0
H1224 H 0.1042 0.35202 0.63845 0.0
H1225 H 0.12128 0.35237 0.69617 0.0
H1226 H 0.12522 0.41183 0.68981 0.0
H1227 H 0.10934 0.41124 0.63092 0.0
H1228 H 0.15403 0.3989 0.72539 0.0
H1229 H 0.08647 0.38718 0.7305 0.0
H1230 H 0.05949 0.36795 0.71401 0.0
H1231 H 0.08478 0.32088 0.76489 0.0
H1232 H 0.11197 0.33981 0.78132 0.0
H1233 H 0.13352 0.44299 0.88543 0.0
H1234 H 0.13533 0.42825 0.82644 0.0
H1235 H 0.13632 0.37463 0.87768 0.0
H1236 H 0.13405 0.38948 0.93789 0.0
H1237 H 0.11241 0.37535 0.82241 0.0
H1238 H 0.17544 0.39127 0.83436 0.0
H1239 H 0.20223 0.41085 0.84985 0.0
H1240 H 0.18628 0.44988 0.76763 0.0
H1241 H 0.15924 0.4307 0.75199 0.0
C1242 C 0.10941 0.36503 0.64885 0.0
C1243 C 0.10555 0.38162 0.63061 0.0
C1244 C 0.11901 0.36526 0.68189 0.0
C1245 C 0.12401 0.38218 0.69795 0.0
C1246 C 0.12145 0.3986 0.67811 0.0
C1247 C 0.11236 0.3983 0.64451 0.0
C1248 C 0.12939 0.38328 0.73699 0.0
C1249 C 0.14502 0.39369 0.74666 0.0
C1250 C 0.11803 0.37585 0.7649 0.0
C1251 C 0.10127 0.36482 0.7568 0.0
C1252 C 0.08622 0.37274 0.73822 0.0
C1253 C 0.07093 0.36189 0.72883 0.0
C1254 C 0.07047 0.34319 0.73826 0.0
C1255 C 0.08519 0.33535 0.75752 0.0
C1256 C 0.10053 0.34613 0.7669 0.0
C1257 C 0.13427 0.42805 0.8845 0.0
C1258 C 0.13366 0.41742 0.91655 0.0
C1259 C 0.1355 0.41963 0.85055 0.0
C1260 C 0.13645 0.40035 0.84757 0.0
C1261 C 0.13584 0.38956 0.87941 0.0
C1262 C 0.13452 0.39805 0.91373 0.0
C1263 C 0.13649 0.39187 0.81074 0.0
C1264 C 0.12187 0.38005 0.80141 0.0
C1265 C 0.14879 0.39803 0.78322 0.0
C1266 C 0.16527 0.4095 0.792 0.0
C1267 C 0.1776 0.40405 0.81965 0.0
C1268 C 0.19284 0.41509 0.82847 0.0
C1269 C 0.19596 0.4316 0.80974 0.0
C1270 C 0.18387 0.43708 0.78208 0.0
C1271 C 0.1686 0.42609 0.77316 0.0
H1272 H 0.20774 0.44014 0.81665 0.0
H1273 H 0.05876 0.33476 0.73057 0.0
H1274 H 0.57492 0.6569 0.15058 0.0
H1275 H 0.58782 0.65903 0.08921 0.0
H1276 H 0.62836 0.61749 0.11659 0.0
H1277 H 0.61596 0.61598 0.17876 0.0
H1278 H 0.64243 0.64128 0.06785 0.0
H1279 H 0.58595 0.60618 0.08084 0.0
H1280 H 0.55325 0.60129 0.0975 0.0
H1281 H 0.5367 0.64371 0.02257 0.0
H1282 H 0.56937 0.64921 0.0062 0.0
H1283 H 0.64839 0.58289 0.91504 0.0
H1284 H 0.64579 0.60004 0.9719 0.0
H1285 H 0.61114 0.64042 0.91885 0.0
H1286 H 0.61369 0.6232 0.86145 0.0
H1287 H 0.59454 0.62433 0.97687 0.0
H1288 H 0.65199 0.65392 0.95496 0.0
H1289 H 0.68487 0.65631 0.93766 0.0
H1290 H 0.69996 0.62144 0.02744 0.0
H1291 H 0.66716 0.61859 0.04501 0.0
C1292 C 0.58688 0.64856 0.14371 0.0
C1293 C 0.59429 0.63604 0.16903 0.0
C1294 C 0.59423 0.64978 0.10868 0.0
C1295 C 0.60872 0.63806 0.09802 0.0
C1296 C 0.61711 0.62661 0.12419 0.0
C1297 C 0.61 0.62569 0.15962 0.0
C1298 C 0.61347 0.63596 0.05892 0.0
C1299 C 0.63201 0.63756 0.04789 0.0
C1300 C 0.59976 0.63151 0.03271 0.0
C1301 C 0.58012 0.62829 0.04269 0.0
C1302 C 0.57535 0.61461 0.06822 0.0
C1303 C 0.55682 0.61173 0.07762 0.0
C1304 C 0.54292 0.62227 0.06127 0.0
C1305 C 0.5475 0.63566 0.0354 0.0
C1306 C 0.56602 0.63869 0.0261 0.0
C1307 C 0.64057 0.59566 0.9152 0.0
C1308 C 0.63103 0.60158 0.88393 0.0
C1309 C 0.63924 0.60556 0.94768 0.0
C1310 C 0.62833 0.62155 0.94959 0.0
C1311 C 0.61971 0.62815 0.91785 0.0
C1312 C 0.62119 0.61832 0.88511 0.0
C1313 C 0.62357 0.62931 0.98576 0.0
C1314 C 0.60496 0.62861 0.99643 0.0
C1315 C 0.63726 0.63428 0.01156 0.0
C1316 C 0.65706 0.63598 1.00121 0.0
C1317 C 0.6623 0.64664 0.97089 0.0
C1318 C 0.68093 0.6481 0.96105 0.0
C1319 C 0.69449 0.63901 0.98141 0.0
C1320 C 0.68945 0.62848 0.0117 0.0
C1321 C 0.67083 0.62697 0.02165 0.0
H1322 H 0.70891 0.64016 0.97374 0.0
H1323 H 0.52858 0.62 0.06853 0.0
H1324 H 0.34976 0.1 0.4331 0.0
H1325 H 0.35003 0.11503 0.37344 0.0
H1326 H 0.40595 0.13357 0.39283 0.0
H1327 H 0.40524 0.11948 0.45343 0.0
H1328 H 0.38907 0.1566 0.34684 0.0
H1329 H 0.3966 0.09 0.35727 0.0
H1330 H 0.38645 0.0589 0.37622 0.0
H1331 H 0.33761 0.06413 0.31034 0.0
H1332 H 0.34738 0.09539 0.29142 0.0
H1333 H 0.44184 0.13917 0.19148 0.0
H1334 H 0.42611 0.14151 0.24973 0.0
H1335 H 0.37432 0.12731 0.19833 0.0
H1336 H 0.39016 0.12471 0.13929 0.0
H1337 H 0.38151 0.10598 0.25669 0.0
H1338 H 0.38069 0.17067 0.23418 0.0
H1339 H 0.39343 0.20088 0.21595 0.0
H1340 H 0.43248 0.19856 0.30397 0.0
H1341 H 0.42017 0.16822 0.32248 0.0
C1342 C 0.36177 0.10801 0.42518 0.0
C1343 C 0.37755 0.1085 0.44749 0.0
C1344 C 0.36197 0.11649 0.39106 0.0
C1345 C 0.37823 0.12487 0.37819 0.0
C1346 C 0.39328 0.12707 0.40208 0.0
C1347 C 0.39289 0.11903 0.4367 0.0
C1348 C 0.38079 0.12833 0.33865 0.0
C1349 C 0.38737 0.1456 0.32703 0.0
C1350 C 0.37824 0.11404 0.31267 0.0
C1351 C 0.3726 0.09508 0.32327 0.0
C1352 C 0.38367 0.08453 0.34693 0.0
C1353 C 0.37798 0.06689 0.35769 0.0
C1354 C 0.36137 0.05957 0.34457 0.0
C1355 C 0.35045 0.06984 0.32054 0.0
C1356 C 0.35605 0.08751 0.30979 0.0
C1357 C 0.42706 0.1367 0.19231 0.0
C1358 C 0.41727 0.13157 0.16074 0.0
C1359 C 0.41803 0.13828 0.22568 0.0
C1360 C 0.39899 0.13487 0.22835 0.0
C1361 C 0.38902 0.13017 0.19677 0.0
C1362 C 0.39807 0.12867 0.16312 0.0
C1363 C 0.39025 0.13414 0.26487 0.0
C1364 C 0.38262 0.11727 0.27607 0.0
C1365 C 0.39217 0.14871 0.29043 0.0
C1366 C 0.39951 0.1671 0.27966 0.0
C1367 C 0.39206 0.17654 0.24955 0.0
C1368 C 0.3992 0.19371 0.23918 0.0
C1369 C 0.41376 0.20163 0.25878 0.0
C1370 C 0.42119 0.19242 0.28885 0.0
C1371 C 0.4141 0.17525 0.29934 0.0
H1372 H 0.41928 0.21491 0.25069 0.0
H1373 H 0.35698 0.04592 0.35294 0.0
H1374 H 0.88906 0.89867 0.70698 0.0
H1375 H 0.87514 0.89991 0.64627 0.0
H1376 H 0.90301 0.84919 0.61731 0.0
H1377 H 0.91758 0.84846 0.67731 0.0
H1378 H 0.91172 0.87394 0.57161 0.0
H1379 H 0.85396 0.85386 0.61911 0.0
H1380 H 0.82722 0.85317 0.66081 0.0
H1381 H 0.81322 0.90876 0.63074 0.0
H1382 H 0.84003 0.9099 0.58925 0.0
H1383 H 0.88542 0.88974 0.38948 0.0
H1384 H 0.8845 0.87351 0.4481 0.0
H1385 H 0.86401 0.9229 0.50025 0.0
H1386 H 0.86456 0.93901 0.4421 0.0
H1387 H 0.84895 0.8924 0.53095 0.0
H1388 H 0.91024 0.91413 0.49596 0.0
H1389 H 0.93746 0.9158 0.45551 0.0
H1390 H 0.94475 0.85707 0.4641 0.0
H1391 H 0.91741 0.85505 0.50426 0.0
C1392 C 0.89168 0.88749 0.68803 0.0
C1393 C 0.90449 0.87359 0.69657 0.0
C1394 C 0.88367 0.88814 0.65331 0.0
C1395 C 0.88803 0.87464 0.62703 0.0
C1396 C 0.89952 0.85983 0.63694 0.0
C1397 C 0.90781 0.8594 0.67125 0.0
C1398 C 0.88326 0.87759 0.58803 0.0
C1399 C 0.89783 0.87742 0.56267 0.0
C1400 C 0.86528 0.8826 0.57628 0.0
C1401 C 0.8491 0.88199 0.60119 0.0
C1402 C 0.84526 0.86599 0.62157 0.0
C1403 C 0.83007 0.86551 0.64515 0.0
C1404 C 0.81854 0.88092 0.64846 0.0
C1405 C 0.82216 0.89683 0.62815 0.0
C1406 C 0.83734 0.89739 0.60455 0.0
C1407 C 0.88038 0.89701 0.41332 0.0
C1408 C 0.87546 0.91577 0.41131 0.0
C1409 C 0.87987 0.88773 0.44677 0.0
C1410 C 0.87449 0.89711 0.47864 0.0
C1411 C 0.86827 0.9154 0.47609 0.0
C1412 C 0.86879 0.92465 0.44281 0.0
C1413 C 0.87744 0.8889 0.5152 0.0
C1414 C 0.86263 0.88828 0.53999 0.0
C1415 C 0.89522 0.88319 0.52668 0.0
C1416 C 0.91167 0.88441 0.50266 0.0
C1417 C 0.91758 0.90157 0.48898 0.0
C1418 C 0.93303 0.90257 0.46615 0.0
C1419 C 0.94279 0.88654 0.45713 0.0
C1420 C 0.93715 0.86947 0.47102 0.0
C1421 C 0.92168 0.86838 0.49381 0.0
H1422 H 0.95476 0.88734 0.43946 0.0
H1423 H 0.80679 0.88052 0.66673 0.0
H1424 H 0.07577 0.14072 0.87605 0.0
H1425 H 0.0846 0.1376 0.94012 0.0
H1426 H 0.12911 0.10102 0.90957 0.0
H1427 H 0.12022 0.10386 0.8456 0.0
H1428 H 0.10944 0.08629 0.96291 0.0
H1429 H 0.13747 0.14513 0.94182 0.0
H1430 H 0.13896 0.17761 0.92183 0.0
H1431 H 0.09699 0.1922 0.99953 0.0
H1432 H 0.09506 0.15974 0.01965 0.0
H1433 H 0.14479 0.07871 0.14334 0.0
H1434 H 0.14281 0.08611 0.07827 0.0
H1435 H 0.09676 0.12244 0.09967 0.0
H1436 H 0.09878 0.11533 0.16453 0.0
H1437 H 0.11967 0.13759 0.05035 0.0
H1438 H 0.08995 0.07864 0.06771 0.0
H1439 H 0.08798 0.04615 0.08755 0.0
H1440 H 0.13292 0.0319 0.01631 0.0
H1441 H 0.13532 0.06438 0.99641 0.0
C1442 C 0.08764 0.13227 0.88289 0.0
C1443 C 0.09726 0.12253 0.85562 0.0
C1444 C 0.09271 0.13052 0.91959 0.0
C1445 C 0.10758 0.11911 0.9298 0.0
C1446 C 0.11757 0.10987 0.90247 0.0
C1447 C 0.1125 0.11158 0.86583 0.0
C1448 C 0.11193 0.11581 0.969 0.0
C1449 C 0.11203 0.09752 0.98185 0.0
C1450 C 0.11488 0.13042 0.99404 0.0
C1451 C 0.116 0.14996 0.98201 0.0
C1452 C 0.12845 0.15523 0.95444 0.0
C1453 C 0.1294 0.17365 0.94312 0.0
C1454 C 0.11805 0.18695 0.95934 0.0
C1455 C 0.10576 0.18187 0.98697 0.0
C1456 C 0.10475 0.16347 0.99837 0.0
C1457 C 0.13436 0.08841 0.13423 0.0
C1458 C 0.12188 0.09634 0.15917 0.0
C1459 C 0.13319 0.09257 0.09698 0.0
C1460 C 0.11947 0.10468 0.08393 0.0
C1461 C 0.10744 0.11307 0.10899 0.0
C1462 C 0.10859 0.10891 0.14613 0.0
C1463 C 0.11711 0.10811 0.04414 0.0
C1464 C 0.1173 0.12638 0.03125 0.0
C1465 C 0.11438 0.0935 0.01901 0.0
C1466 C 0.11295 0.07397 0.0309 0.0
C1467 C 0.09951 0.06861 0.05651 0.0
C1468 C 0.0983 0.05019 0.06772 0.0
C1469 C 0.11035 0.03698 0.05329 0.0
C1470 C 0.12362 0.04216 0.02753 0.0
C1471 C 0.1249 0.06056 0.01625 0.0
H1472 H 0.10939 0.02273 0.062 0.0
H1473 H 0.11881 0.2012 0.95054 0.0
H1474 H 0.89398 0.58883 0.42801 0.0
H1475 H 0.88547 0.5857 0.364 0.0
H1476 H 0.91897 0.63314 0.33746 0.0
H1477 H 0.92729 0.63661 0.40193 0.0
H1478 H 0.88708 0.63341 0.29908 0.0
H1479 H 0.93503 0.58932 0.32327 0.0
H1480 H 0.95005 0.56379 0.35651 0.0
H1481 H 0.90443 0.52805 0.3309 0.0
H1482 H 0.889 0.55346 0.29793 0.0
H1483 H 0.89926 0.61411 0.10981 0.0
H1484 H 0.90236 0.6206 0.17482 0.0
H1485 H 0.86808 0.57348 0.19963 0.0
H1486 H 0.86502 0.56679 0.13444 0.0
H1487 H 0.89958 0.5732 0.23914 0.0
H1488 H 0.85221 0.61748 0.21265 0.0
H1489 H 0.83756 0.6433 0.17967 0.0
H1490 H 0.88275 0.67888 0.20892 0.0
H1491 H 0.8978 0.6532 0.24168 0.0
C1492 C 0.89946 0.59871 0.40867 0.0
C1493 C 0.91145 0.61289 0.4201 0.0
C1494 C 0.89462 0.59685 0.37198 0.0
C1495 C 0.90184 0.60896 0.34571 0.0
C1496 C 0.91328 0.62357 0.35718 0.0
C1497 C 0.91805 0.62552 0.39403 0.0
C1498 C 0.89791 0.60595 0.30628 0.0
C1499 C 0.89002 0.62032 0.28585 0.0
C1500 C 0.9014 0.58874 0.28911 0.0
C1501 C 0.91078 0.57335 0.30843 0.0
C1502 C 0.92814 0.57605 0.32492 0.0
C1503 C 0.93674 0.5616 0.34369 0.0
C1504 C 0.92817 0.54433 0.34591 0.0
C1505 C 0.91103 0.54145 0.32921 0.0
C1506 C 0.90236 0.55586 0.31045 0.0
C1507 C 0.89211 0.60528 0.12902 0.0
C1508 C 0.88188 0.58991 0.11685 0.0
C1509 C 0.89387 0.60905 0.16626 0.0
C1510 C 0.88541 0.59758 0.19222 0.0
C1511 C 0.87475 0.58252 0.18013 0.0
C1512 C 0.87292 0.57878 0.14283 0.0
C1513 C 0.88865 0.60064 0.23188 0.0
C1514 C 0.89653 0.58627 0.25236 0.0
C1515 C 0.88524 0.61788 0.24897 0.0
C1516 C 0.87621 0.63336 0.22934 0.0
C1517 C 0.8591 0.63077 0.2118 0.0
C1518 C 0.85071 0.64539 0.1932 0.0
C1519 C 0.85924 0.6627 0.19212 0.0
C1520 C 0.87616 0.66545 0.20974 0.0
C1521 C 0.88462 0.65087 0.22837 0.0
H1522 H 0.85272 0.674 0.17771 0.0
H1523 H 0.93484 0.53317 0.3605 0.0
H1524 H 0.40834 0.39161 0.67229 0.0
H1525 H 0.41 0.38358 0.60776 0.0
H1526 H 0.36601 0.42208 0.58455 0.0
H1527 H 0.36439 0.43038 0.64925 0.0
H1528 H 0.38636 0.3693 0.55822 0.0
H1529 H 0.37542 0.44307 0.50294 0.0
H1530 H 0.37973 0.47544 0.52246 0.0
H1531 H 0.42341 0.45879 0.59465 0.0
H1532 H 0.41952 0.42639 0.57521 0.0
H1533 H 0.38873 0.4024 0.35334 0.0
H1534 H 0.37957 0.40563 0.41706 0.0
H1535 H 0.42193 0.36679 0.44843 0.0
H1536 H 0.43103 0.36329 0.38455 0.0
H1537 H 0.40004 0.41945 0.47023 0.0
H1538 H 0.40984 0.34561 0.5283 0.0
H1539 H 0.40619 0.31322 0.50857 0.0
H1540 H 0.36549 0.32976 0.42985 0.0
H1541 H 0.36871 0.3622 0.44943 0.0
C1542 C 0.39889 0.39829 0.65356 0.0
C1543 C 0.38632 0.41176 0.66594 0.0
C1544 C 0.39982 0.39361 0.61663 0.0
C1545 C 0.3883 0.40236 0.59118 0.0
C1546 C 0.37523 0.41531 0.60361 0.0
C1547 C 0.37426 0.42 0.64063 0.0
C1548 C 0.39068 0.39854 0.55156 0.0
C1549 C 0.38948 0.38024 0.53899 0.0
C1550 C 0.39442 0.41283 0.5263 0.0
C1551 C 0.39701 0.43229 0.53795 0.0
C1552 C 0.38597 0.44634 0.52292 0.0
C1553 C 0.38834 0.46469 0.53397 0.0
C1554 C 0.40178 0.46916 0.55989 0.0
C1555 C 0.41294 0.4553 0.5747 0.0
C1556 C 0.41065 0.43694 0.56371 0.0
C1557 C 0.39589 0.39426 0.37368 0.0
C1558 C 0.41066 0.38261 0.3638 0.0
C1559 C 0.39067 0.39619 0.41017 0.0
C1560 C 0.40002 0.38646 0.43766 0.0
C1561 C 0.41432 0.37427 0.42775 0.0
C1562 C 0.41954 0.3723 0.39117 0.0
C1563 C 0.39574 0.39017 0.47672 0.0
C1564 C 0.39669 0.40849 0.48927 0.0
C1565 C 0.39184 0.37587 0.50189 0.0
C1566 C 0.38967 0.35637 0.49012 0.0
C1567 C 0.40007 0.34233 0.50688 0.0
C1568 C 0.39808 0.32396 0.4957 0.0
C1569 C 0.38566 0.31944 0.46789 0.0
C1570 C 0.37516 0.33329 0.45128 0.0
C1571 C 0.37709 0.35167 0.46237 0.0
H1572 H 0.38415 0.30522 0.45927 0.0
H1573 H 0.40359 0.48336 0.56842 0.0
H1574 H 0.64094 0.92505 0.6564 0.0
H1575 H 0.63777 0.91578 0.7203 0.0
H1576 H 0.59301 0.87921 0.69115 0.0
H1577 H 0.59593 0.88854 0.62755 0.0
H1578 H 0.58357 0.90003 0.74757 0.0
H1579 H 0.63583 0.86253 0.716 0.0
H1580 H 0.66703 0.85609 0.6919 0.0
H1581 H 0.69083 0.89211 0.77228 0.0
H1582 H 0.65973 0.89897 0.79656 0.0
H1583 H 0.5727 0.85955 0.92129 0.0
H1584 H 0.58017 0.86211 0.85639 0.0
H1585 H 0.62412 0.90034 0.88173 0.0
H1586 H 0.6169 0.8977 0.94652 0.0
H1587 H 0.63422 0.87723 0.82692 0.0
H1588 H 0.58226 0.91616 0.85581 0.0
H1589 H 0.5512 0.92314 0.88002 0.0
H1590 H 0.52702 0.8849 0.80418 0.0
H1591 H 0.558 0.8775 0.77986 0.0
C1592 C 0.63058 0.91487 0.66355 0.0
C1593 C 0.61867 0.90758 0.63684 0.0
C1594 C 0.62881 0.90953 0.7001 0.0
C1595 C 0.61519 0.89671 0.7106 0.0
C1596 C 0.60359 0.88913 0.68379 0.0
C1597 C 0.60533 0.89447 0.64736 0.0
C1598 C 0.61225 0.89196 0.74967 0.0
C1599 C 0.59459 0.89473 0.7647 0.0
C1600 C 0.62671 0.8855 0.77239 0.0
C1601 C 0.64543 0.8814 0.75787 0.0
C1602 C 0.6477 0.8692 0.72834 0.0
C1603 C 0.66537 0.86545 0.71469 0.0
C1604 C 0.6809 0.87372 0.73049 0.0
C1605 C 0.67879 0.88573 0.76004 0.0
C1606 C 0.66114 0.88954 0.77378 0.0
C1607 C 0.58416 0.86825 0.91312 0.0
C1608 C 0.59409 0.87853 0.93911 0.0
C1609 C 0.58836 0.86977 0.87598 0.0
C1610 C 0.60252 0.88166 0.86411 0.0
C1611 C 0.61311 0.89113 0.89017 0.0
C1612 C 0.60891 0.88963 0.92726 0.0
C1613 C 0.60554 0.88521 0.8246 0.0
C1614 C 0.62319 0.88234 0.80959 0.0
C1615 C 0.5911 0.89164 0.80182 0.0
C1616 C 0.57246 0.89612 0.8163 0.0
C1617 C 0.57033 0.90913 0.84449 0.0
C1618 C 0.55274 0.91318 0.8582 0.0
C1619 C 0.53715 0.90443 0.84372 0.0
C1620 C 0.53912 0.89165 0.81542 0.0
C1621 C 0.55668 0.88752 0.80165 0.0
H1622 H 0.52354 0.90759 0.85436 0.0
H1623 H 0.69457 0.8708 0.71988 0.0
H1624 H 0.07962 0.3673 0.40972 0.0
H1625 H 0.08883 0.36983 0.34565 0.0
H1626 H 0.12613 0.41425 0.37326 0.0
H1627 H 0.1167 0.41207 0.43692 0.0
H1628 H 0.10605 0.42378 0.31736 0.0
H1629 H 0.14157 0.37006 0.34861 0.0
H1630 H 0.14671 0.33866 0.37263 0.0
H1631 H 0.10943 0.31647 0.29267 0.0
H1632 H 0.10388 0.34777 0.26846 0.0
H1633 H 0.14702 0.4332 0.14398 0.0
H1634 H 0.14418 0.42562 0.20876 0.0
H1635 H 0.10417 0.38338 0.18293 0.0
H1636 H 0.1071 0.39068 0.11822 0.0
H1637 H 0.12675 0.37228 0.2379 0.0
H1638 H 0.08999 0.42579 0.2092 0.0
H1639 H 0.08439 0.45709 0.18505 0.0
H1640 H 0.12371 0.47951 0.26088 0.0
H1641 H 0.12973 0.44828 0.28514 0.0
C1642 C 0.08996 0.37744 0.40218 0.0
C1643 C 0.09737 0.38952 0.42843 0.0
C1644 C 0.09528 0.37884 0.36553 0.0
C1645 C 0.10828 0.39219 0.35451 0.0
C1646 C 0.11604 0.40388 0.38095 0.0
C1647 C 0.11066 0.40258 0.41743 0.0
C1648 C 0.11299 0.39483 0.3153 0.0
C1649 C 0.1109 0.41255 0.30023 0.0
C1650 C 0.11883 0.38013 0.2925 0.0
C1651 C 0.12218 0.36129 0.30695 0.0
C1652 C 0.13436 0.3585 0.33633 0.0
C1653 C 0.13736 0.34072 0.34994 0.0
C1654 C 0.12836 0.32559 0.33425 0.0
C1655 C 0.11637 0.3282 0.30483 0.0
C1656 C 0.11331 0.34596 0.29113 0.0
C1657 C 0.13787 0.42207 0.15201 0.0
C1658 C 0.12717 0.41266 0.1259 0.0
C1659 C 0.13619 0.41781 0.18909 0.0
C1660 C 0.12372 0.40413 0.2008 0.0
C1661 C 0.11383 0.39401 0.17461 0.0
C1662 C 0.1155 0.39826 0.13757 0.0
C1663 C 0.11998 0.40123 0.2403 0.0
C1664 C 0.1221 0.3835 0.25527 0.0
C1665 C 0.11413 0.4159 0.26311 0.0
C1666 C 0.11046 0.43469 0.2487 0.0
C1667 C 0.09754 0.43738 0.22053 0.0
C1668 C 0.09427 0.4551 0.20685 0.0
C1669 C 0.10372 0.47027 0.22135 0.0
C1670 C 0.11642 0.46774 0.24963 0.0
C1671 C 0.11976 0.45004 0.26337 0.0
H1672 H 0.10117 0.48398 0.21073 0.0
H1673 H 0.13071 0.31183 0.34483 0.0
H1674 H 0.59527 0.61426 0.68639 0.0
H1675 H 0.59246 0.62219 0.62207 0.0
H1676 H 0.63932 0.58756 0.597 0.0
H1677 H 0.64229 0.5795 0.66171 0.0
H1678 H 0.63979 0.62066 0.55836 0.0
H1679 H 0.59762 0.57129 0.58175 0.0
H1680 H 0.57245 0.55461 0.61296 0.0
H1681 H 0.53458 0.59837 0.58698 0.0
H1682 H 0.55961 0.61547 0.55608 0.0
H1683 H 0.62038 0.60727 0.36895 0.0
H1684 H 0.6273 0.60469 0.43389 0.0
H1685 H 0.57963 0.63821 0.45909 0.0
H1686 H 0.57256 0.64082 0.39401 0.0
H1687 H 0.58009 0.6062 0.49787 0.0
H1688 H 0.62292 0.65498 0.47182 0.0
H1689 H 0.64836 0.67041 0.43899 0.0
H1690 H 0.68536 0.62646 0.46839 0.0
H1691 H 0.66007 0.61062 0.50099 0.0
C1692 C 0.60513 0.60843 0.66735 0.0
C1693 C 0.61895 0.59614 0.67922 0.0
C1694 C 0.60345 0.61295 0.63051 0.0
C1695 C 0.61552 0.60529 0.60465 0.0
C1696 C 0.62983 0.5936 0.6165 0.0
C1697 C 0.63148 0.58898 0.65347 0.0
C1698 C 0.61263 0.60894 0.5652 0.0
C1699 C 0.62683 0.61731 0.54498 0.0
C1700 C 0.59559 0.60486 0.54791 0.0
C1701 C 0.58055 0.59475 0.56692 0.0
C1702 C 0.58398 0.57746 0.58303 0.0
C1703 C 0.56973 0.56791 0.6006 0.0
C1704 C 0.55194 0.57544 0.60198 0.0
C1705 C 0.54837 0.59257 0.5859 0.0
C1706 C 0.56259 0.60219 0.56834 0.0
C1707 C 0.61152 0.61437 0.38824 0.0
C1708 C 0.59588 0.62423 0.37627 0.0
C1709 C 0.61555 0.61292 0.4254 0.0
C1710 C 0.60403 0.6213 0.45141 0.0
C1711 C 0.58872 0.63163 0.4395 0.0
C1712 C 0.58474 0.63319 0.40228 0.0
C1713 C 0.60718 0.61811 0.49097 0.0
C1714 C 0.59303 0.6097 0.51123 0.0
C1715 C 0.6243 0.62204 0.50812 0.0
C1716 C 0.63954 0.63153 0.48857 0.0
C1717 C 0.63644 0.64852 0.47103 0.0
C1718 C 0.65084 0.65736 0.45251 0.0
C1719 C 0.66845 0.64939 0.45153 0.0
C1720 C 0.6717 0.6326 0.46914 0.0
C1721 C 0.65734 0.6237 0.48768 0.0
H1722 H 0.67959 0.65626 0.43719 0.0
H1723 H 0.54091 0.56796 0.61534 0.0
H1724 H 0.36931 0.07785 0.6641 0.0
H1725 H 0.37099 0.08545 0.72917 0.0
H1726 H 0.41638 0.12261 0.70791 0.0
H1727 H 0.41467 0.11529 0.64313 0.0
H1728 H 0.39897 0.07986 0.77619 0.0
H1729 H 0.41612 0.15804 0.76851 0.0
H1730 H 0.40915 0.1849 0.7295 0.0
H1731 H 0.35856 0.15924 0.69475 0.0
H1732 H 0.36508 0.13236 0.73391 0.0
H1733 H 0.4362 0.14058 0.93333 0.0
H1734 H 0.42859 0.13717 0.86859 0.0
H1735 H 0.38296 0.10147 0.89647 0.0
H1736 H 0.39061 0.10456 0.96097 0.0
H1737 H 0.39862 0.14376 0.82537 0.0
H1738 H 0.38091 0.06615 0.83545 0.0
H1739 H 0.38808 0.0394 0.87463 0.0
H1740 H 0.44014 0.06391 0.90384 0.0
H1741 H 0.4334 0.09066 0.86443 0.0
C1742 C 0.37951 0.0878 0.67325 0.0
C1743 C 0.39183 0.09598 0.64837 0.0
C1744 C 0.38049 0.09208 0.71047 0.0
C1745 C 0.3937 0.10474 0.72347 0.0
C1746 C 0.40586 0.11306 0.69856 0.0
C1747 C 0.40491 0.10877 0.66147 0.0
C1748 C 0.39542 0.10865 0.76318 0.0
C1749 C 0.39854 0.09381 0.787 0.0
C1750 C 0.39536 0.1269 0.77726 0.0
C1751 C 0.39119 0.14311 0.75391 0.0
C1752 C 0.40347 0.15817 0.75266 0.0
C1753 C 0.3996 0.17339 0.7305 0.0
C1754 C 0.38345 0.17375 0.70958 0.0
C1755 C 0.3711 0.15891 0.71086 0.0
C1756 C 0.37489 0.14367 0.73299 0.0
C1757 C 0.42437 0.13223 0.92571 0.0
C1758 C 0.41412 0.12271 0.95233 0.0
C1759 C 0.42003 0.1303 0.88868 0.0
C1760 C 0.40542 0.11878 0.8776 0.0
C1761 C 0.39452 0.11014 0.90429 0.0
C1762 C 0.39888 0.112 0.94121 0.0
C1763 C 0.40218 0.11498 0.83824 0.0
C1764 C 0.39887 0.12982 0.81453 0.0
C1765 C 0.40212 0.09673 0.82418 0.0
C1766 C 0.40653 0.0805 0.84731 0.0
C1767 C 0.39392 0.06579 0.85011 0.0
C1768 C 0.3979 0.05063 0.87237 0.0
C1769 C 0.41451 0.05 0.89184 0.0
C1770 C 0.42724 0.06446 0.88888 0.0
C1771 C 0.42333 0.07963 0.8666 0.0
H1772 H 0.41753 0.03828 0.90916 0.0
H1773 H 0.38049 0.18554 0.69242 0.0
H1774 H 0.86858 0.93506 0.18538 0.0
H1775 H 0.87109 0.92614 0.12117 0.0
H1776 H 0.90948 0.88293 0.15005 0.0
H1777 H 0.90726 0.89191 0.21402 0.0
H1778 H 0.9227 0.90265 0.09536 0.0
H1779 H 0.86488 0.87325 0.12187 0.0
H1780 H 0.83275 0.87129 0.14417 0.0
H1781 H 0.81585 0.91183 0.06558 0.0
H1782 H 0.84794 0.91423 0.04313 0.0
H1783 H 0.92897 0.86424 0.91803 0.0
H1784 H 0.92187 0.86703 0.9831 0.0
H1785 H 0.8841 0.91165 0.96 0.0
H1786 H 0.89091 0.9088 0.89508 0.0
H1787 H 0.87021 0.88946 0.01219 0.0
H1788 H 0.92799 0.92037 0.98868 0.0
H1789 H 0.9601 0.92291 0.96646 0.0
H1790 H 0.97696 0.87996 0.03996 0.0
H1791 H 0.94487 0.87699 0.06227 0.0
C1792 C 0.87735 0.92349 0.17812 0.0
C1793 C 0.88774 0.91423 0.20488 0.0
C1794 C 0.87874 0.91837 0.14137 0.0
C1795 C 0.89042 0.90379 0.13069 0.0
C1796 C 0.90041 0.89424 0.15753 0.0
C1797 C 0.89906 0.89936 0.19417 0.0
C1798 C 0.89315 0.89919 0.09145 0.0
C1799 C 0.91122 0.89943 0.07737 0.0
C1800 C 0.87818 0.89545 0.06763 0.0
C1801 C 0.85886 0.89404 0.08105 0.0
C1802 C 0.85434 0.88186 0.10954 0.0
C1803 C 0.83613 0.88065 0.12217 0.0
C1804 C 0.82228 0.89146 0.10636 0.0
C1805 C 0.8266 0.90348 0.07783 0.0
C1806 C 0.8448 0.90475 0.06511 0.0
C1807 C 0.91896 0.87448 0.92675 0.0
C1808 C 0.91061 0.88638 0.90134 0.0
C1809 C 0.91498 0.87612 0.96399 0.0
C1810 C 0.90264 0.88974 0.97655 0.0
C1811 C 0.89368 0.90106 0.95104 0.0
C1812 C 0.89765 0.89944 0.91388 0.0
C1813 C 0.89974 0.89289 0.01627 0.0
C1814 C 0.88167 0.89248 0.03035 0.0
C1815 C 0.9147 0.89653 0.04015 0.0
C1816 C 0.934 0.89832 0.02683 0.0
C1817 C 0.93851 0.91137 0.99989 0.0
C1818 C 0.95671 0.9129 0.98732 0.0
C1819 C 0.97055 0.90156 1.00171 0.0
C1820 C 0.96622 0.8887 0.02878 0.0
C1821 C 0.94803 0.8871 0.04141 0.0
H1822 H 0.98463 0.90278 0.99195 0.0
H1823 H 0.80818 0.8905 0.11617 0.0
loop_
_geom_bond_atom_site_label_1
_geom_bond_atom_site_label_2
_geom_bond_distance
_geom_bond_site_symmetry_2
_ccdc_geom_bond_type
O0 Cd1 2.223 . S
O0 C8 1.315 . S
Cd1 O0 2.223 . S
Cd1 O4 2.297 . S
Cd1 O5 2.439 . S
Cd1 O11 2.240 . S
Cd2 O3 2.240 . S
Cd2 O10 2.223 . S
Cd2 O12 2.297 . S
Cd2 O13 2.439 . S
O3 Cd2 2.240 . S
O3 C8 1.279 . S
O4 Cd1 2.297 . S
O4 C6 1.247 . S
O5 Cd1 2.439 . S
O5 C6 1.208 . S
C6 O4 1.247 . S
C6 O5 1.208 . S
C7 O12 1.247 . S
C7 O13 1.208 . S
C8 O0 1.315 . S
C8 O3 1.279 . S
C9 O10 1.315 . S
C9 O11 1.279 . S
O10 Cd2 2.223 . S
O10 C9 1.315 . S
O11 Cd1 2.240 . S
O11 C9 1.279 . S
O12 Cd2 2.297 . S
O12 C7 1.247 . S
O13 Cd2 2.439 . S
O13 C7 1.208 . S
O14 Cd15 2.223 . S
O14 C22 1.315 . S
Cd15 O14 2.223 . S
Cd15 O18 2.297 . S
Cd15 O19 2.439 . S
Cd15 O25 2.240 . S
Cd16 O17 2.240 . S
Cd16 O24 2.223 . S
Cd16 O26 2.297 . S
Cd16 O27 2.439 . S
O17 Cd16 2.240 . S
O17 C22 1.279 . S
O18 Cd15 2.297 . S
O18 C20 1.247 . S
O19 Cd15 2.439 . S
O19 C20 1.208 . S
C20 O18 1.247 . S
C20 O19 1.208 . S
C21 O26 1.247 . S
C21 O27 1.208 . S
C22 O14 1.315 . S
C22 O17 1.279 . S
C23 O24 1.315 . S
C23 O25 1.279 . S
O24 Cd16 2.223 . S
O24 C23 1.315 . S
O25 Cd15 2.240 . S
O25 C23 1.279 . S
O26 Cd16 2.297 . S
O26 C21 1.247 . S
O27 Cd16 2.439 . S
O27 C21 1.208 . S
O28 Cd29 2.223 . S
O28 C36 1.315 . S
Cd29 O28 2.223 . S
Cd29 O32 2.297 . S
Cd29 O33 2.439 . S
Cd29 O39 2.240 . S
Cd30 O31 2.240 . S
Cd30 O38 2.223 . S
Cd30 O40 2.297 . S
Cd30 O41 2.439 . S
O31 Cd30 2.240 . S
O31 C36 1.279 . S
O32 Cd29 2.297 . S
O32 C34 1.247 . S
O33 Cd29 2.439 . S
O33 C34 1.208 . S
C34 O32 1.247 . S
C34 O33 1.208 . S
C35 O40 1.247 . S
C35 O41 1.208 . S
C36 O28 1.315 . S
C36 O31 1.279 . S
C37 O38 1.315 . S
C37 O39 1.279 . S
O38 Cd30 2.223 . S
O38 C37 1.315 . S
O39 Cd29 2.240 . S
O39 C37 1.279 . S
O40 Cd30 2.297 . S
O40 C35 1.247 . S
O41 Cd30 2.439 . S
O41 C35 1.208 . S
O42 Cd43 2.223 . S
O42 C50 1.315 . S
Cd43 O42 2.223 . S
Cd43 O46 2.297 . S
Cd43 O47 2.439 . S
Cd43 O53 2.240 . S
Cd44 O45 2.240 . S
Cd44 O52 2.223 . S
Cd44 O54 2.297 1_554 S
Cd44 O55 2.439 1_554 S
O45 Cd44 2.240 . S
O45 C50 1.279 . S
O46 Cd43 2.297 . S
O46 C48 1.247 . S
O47 Cd43 2.439 . S
O47 C48 1.208 . S
C48 O46 1.247 . S
C48 O47 1.208 . S
C49 O54 1.247 . S
C49 O55 1.208 . S
C50 O42 1.315 . S
C50 O45 1.279 . S
C51 O52 1.315 . S
C51 O53 1.279 . S
O52 Cd44 2.223 . S
O52 C51 1.315 . S
O53 Cd43 2.240 . S
O53 C51 1.279 . S
O54 Cd44 2.297 1_556 S
O54 C49 1.247 . S
O55 Cd44 2.439 1_556 S
O55 C49 1.208 . S
O56 Cd57 2.223 . S
O56 C64 1.315 . S
Cd57 O56 2.223 . S
Cd57 O60 2.297 . S
Cd57 O61 2.449 . S
Cd57 O67 2.240 1_556 S
Cd58 O59 2.240 1_554 S
Cd58 O66 2.223 . S
Cd58 O68 2.297 . S
Cd58 O69 2.439 . S
O59 Cd58 2.240 1_556 S
O59 C64 1.279 . S
O60 Cd57 2.297 . S
O60 C62 1.247 . S
O61 Cd57 2.449 . S
O61 C62 1.228 . S
C62 O60 1.247 . S
C62 O61 1.228 . S
C63 O68 1.247 . S
C63 O69 1.208 . S
C64 O56 1.315 . S
C64 O59 1.279 . S
C65 O66 1.315 . S
C65 O67 1.279 . S
O66 Cd58 2.223 . S
O66 C65 1.315 . S
O67 Cd57 2.240 1_554 S
O67 C65 1.279 . S
O68 Cd58 2.297 . S
O68 C63 1.247 . S
O69 Cd58 2.439 . S
O69 C63 1.208 . S
O70 Cd71 2.223 . S
O70 C78 1.315 . S
Cd71 O70 2.223 . S
Cd71 O74 2.297 . S
Cd71 O75 2.439 . S
Cd71 O81 2.240 . S
Cd72 O73 2.240 . S
Cd72 O80 2.223 . S
Cd72 O82 2.297 . S
Cd72 O83 2.439 . S
O73 Cd72 2.240 . S
O73 C78 1.279 . S
O74 Cd71 2.297 . S
O74 C76 1.247 . S
O75 Cd71 2.439 . S
O75 C76 1.208 . S
C76 O74 1.247 . S
C76 O75 1.208 . S
C77 O82 1.247 . S
C77 O83 1.208 . S
C78 O70 1.315 . S
C78 O73 1.279 . S
C79 O80 1.315 . S
C79 O81 1.279 . S
O80 Cd72 2.223 . S
O80 C79 1.315 . S
O81 Cd71 2.240 . S
O81 C79 1.279 . S
O82 Cd72 2.297 . S
O82 C77 1.247 . S
O83 Cd72 2.439 . S
O83 C77 1.208 . S
O84 Cd85 2.223 . S
O84 C92 1.315 . S
Cd85 O84 2.223 . S
Cd85 O88 2.297 . S
Cd85 O89 2.439 . S
Cd85 O95 2.240 . S
Cd86 O87 2.240 . S
Cd86 O94 2.223 . S
Cd86 O96 2.297 . S
Cd86 O97 2.439 . S
O87 Cd86 2.240 . S
O87 C92 1.279 . S
O88 Cd85 2.297 . S
O88 C90 1.247 . S
O89 Cd85 2.439 . S
O89 C90 1.208 . S
C90 O88 1.247 . S
C90 O89 1.208 . S
C91 O96 1.247 . S
C91 O97 1.208 . S
C92 O84 1.315 . S
C92 O87 1.279 . S
C93 O94 1.315 . S
C93 O95 1.279 . S
O94 Cd86 2.223 . S
O94 C93 1.315 . S
O95 Cd85 2.240 . S
O95 C93 1.279 . S
O96 Cd86 2.297 . S
O96 C91 1.247 . S
O97 Cd86 2.439 . S
O97 C91 1.208 . S
O98 Cd99 2.223 . S
O98 C106 1.315 . S
Cd99 O98 2.223 . S
Cd99 O102 2.297 . S
Cd99 O103 2.439 . S
Cd99 O109 2.240 . S
Cd100 O101 2.240 . S
Cd100 O108 2.223 . S
Cd100 O110 2.297 . S
Cd100 O111 2.439 . S
O101 Cd100 2.240 . S
O101 C106 1.279 . S
O102 Cd99 2.297 . S
O102 C104 1.247 . S
O103 Cd99 2.439 . S
O103 C104 1.208 . S
C104 O102 1.247 . S
C104 O103 1.208 . S
C105 O110 1.247 . S
C105 O111 1.208 . S
C106 O98 1.315 . S
C106 O101 1.279 . S
C107 O108 1.315 . S
C107 O109 1.279 . S
O108 Cd100 2.223 . S
O108 C107 1.315 . S
O109 Cd99 2.240 . S
O109 C107 1.279 . S
O110 Cd100 2.297 . S
O110 C105 1.247 . S
O111 Cd100 2.439 . S
O111 C105 1.208 . S
O112 Cd113 2.223 . S
O112 C120 1.315 . S
Cd113 O112 2.223 . S
Cd113 O116 2.297 . S
Cd113 O117 2.439 . S
Cd113 O123 2.240 . S
Cd114 O115 2.240 . S
Cd114 O122 2.223 . S
Cd114 O124 2.297 . S
Cd114 O125 2.439 . S
O115 Cd114 2.240 . S
O115 C120 1.279 . S
O116 Cd113 2.297 . S
O116 C118 1.247 . S
O117 Cd113 2.439 . S
O117 C118 1.208 . S
C118 O116 1.247 . S
C118 O117 1.208 . S
C119 O124 1.247 . S
C119 O125 1.208 . S
C120 O112 1.315 . S
C120 O115 1.279 . S
C121 O122 1.315 . S
C121 O123 1.279 . S
O122 Cd114 2.223 . S
O122 C121 1.315 . S
O123 Cd113 2.240 . S
O123 C121 1.279 . S
O124 Cd114 2.297 . S
O124 C119 1.247 . S
O125 Cd114 2.439 . S
O125 C119 1.208 . S
O126 Cd127 2.223 . S
O126 C134 1.315 . S
Cd127 O126 2.223 . S
Cd127 O130 2.297 . S
Cd127 O131 2.439 . S
Cd127 O137 2.240 . S
Cd128 O129 2.240 . S
Cd128 O136 2.223 . S
Cd128 O138 2.297 1_554 S
Cd128 O139 2.439 1_554 S
O129 Cd128 2.240 . S
O129 C134 1.279 . S
O130 Cd127 2.297 . S
O130 C132 1.247 . S
O131 Cd127 2.439 . S
O131 C132 1.208 . S
C132 O130 1.247 . S
C132 O131 1.208 . S
C133 O138 1.247 . S
C133 O139 1.208 . S
C134 O126 1.315 . S
C134 O129 1.279 . S
C135 O136 1.315 . S
C135 O137 1.279 . S
O136 Cd128 2.223 . S
O136 C135 1.315 . S
O137 Cd127 2.240 . S
O137 C135 1.279 . S
O138 Cd128 2.297 1_556 S
O138 C133 1.247 . S
O139 Cd128 2.439 1_556 S
O139 C133 1.208 . S
O140 Cd141 2.223 . S
O140 C148 1.315 . S
Cd141 O140 2.223 . S
Cd141 O144 2.297 . S
Cd141 O145 2.439 . S
Cd141 O151 2.240 . S
Cd142 O143 2.240 . S
Cd142 O150 2.223 . S
Cd142 O152 2.297 . S
Cd142 O153 2.439 . S
O143 Cd142 2.240 . S
O143 C148 1.279 . S
O144 Cd141 2.297 . S
O144 C146 1.247 . S
O145 Cd141 2.439 . S
O145 C146 1.208 . S
C146 O144 1.247 . S
C146 O145 1.208 . S
C147 O152 1.247 . S
C147 O153 1.208 . S
C148 O140 1.315 . S
C148 O143 1.279 . S
C149 O150 1.315 . S
C149 O151 1.279 . S
O150 Cd142 2.223 . S
O150 C149 1.315 . S
O151 Cd141 2.240 . S
O151 C149 1.279 . S
O152 Cd142 2.297 . S
O152 C147 1.247 . S
O153 Cd142 2.439 . S
O153 C147 1.208 . S
O154 Cd155 2.223 . S
O154 C162 1.315 . S
Cd155 O154 2.223 . S
Cd155 O158 2.297 . S
Cd155 O159 2.439 . S
Cd155 O165 2.240 . S
Cd156 O157 2.240 . S
Cd156 O164 2.223 . S
Cd156 O166 2.297 . S
Cd156 O167 2.439 . S
O157 Cd156 2.240 . S
O157 C162 1.279 . S
O158 Cd155 2.297 . S
O158 C160 1.247 . S
O159 Cd155 2.439 . S
O159 C160 1.208 . S
C160 O158 1.247 . S
C160 O159 1.208 . S
C161 O166 1.247 . S
C161 O167 1.208 . S
C162 O154 1.315 . S
C162 O157 1.279 . S
C163 O164 1.315 . S
C163 O165 1.279 . S
O164 Cd156 2.223 . S
O164 C163 1.315 . S
O165 Cd155 2.240 . S
O165 C163 1.279 . S
O166 Cd156 2.297 . S
O166 C161 1.247 . S
O167 Cd156 2.439 . S
O167 C161 1.208 . S
O168 Cd169 2.223 . S
O168 C176 1.315 . S
Cd169 O168 2.223 . S
Cd169 O172 2.297 . S
Cd169 O173 2.439 . S
Cd169 O179 2.240 . S
Cd170 O171 2.240 . S
Cd170 O178 2.223 . S
Cd170 O180 2.297 . S
Cd170 O181 2.439 . S
O171 Cd170 2.240 . S
O171 C176 1.279 . S
O172 Cd169 2.297 . S
O172 C174 1.247 . S
O173 Cd169 2.439 . S
O173 C174 1.208 . S
C174 O172 1.247 . S
C174 O173 1.208 . S
C175 O180 1.247 . S
C175 O181 1.208 . S
C176 O168 1.315 . S
C176 O171 1.279 . S
C177 O178 1.315 . S
C177 O179 1.279 . S
O178 Cd170 2.223 . S
O178 C177 1.315 . S
O179 Cd169 2.240 . S
O179 C177 1.279 . S
O180 Cd170 2.297 . S
O180 C175 1.247 . S
O181 Cd170 2.439 . S
O181 C175 1.208 . S
O182 Cd183 2.223 . S
O182 C190 1.315 . S
Cd183 O182 2.223 . S
Cd183 O186 2.297 . S
Cd183 O187 2.439 . S
Cd183 O193 2.240 . S
Cd184 O185 2.240 . S
Cd184 O192 2.223 . S
Cd184 O194 2.297 . S
Cd184 O195 2.439 . S
O185 Cd184 2.240 . S
O185 C190 1.279 . S
O186 Cd183 2.297 . S
O186 C188 1.247 . S
O187 Cd183 2.439 . S
O187 C188 1.208 . S
C188 O186 1.247 . S
C188 O187 1.208 . S
C189 O194 1.247 . S
C189 O195 1.208 . S
C190 O182 1.315 . S
C190 O185 1.279 . S
C191 O192 1.315 . S
C191 O193 1.279 . S
O192 Cd184 2.223 . S
O192 C191 1.315 . S
O193 Cd183 2.240 . S
O193 C191 1.279 . S
O194 Cd184 2.297 . S
O194 C189 1.247 . S
O195 Cd184 2.439 . S
O195 C189 1.208 . S
O196 Cd197 2.223 . S
O196 C204 1.315 . S
Cd197 O196 2.223 . S
Cd197 O200 2.297 . S
Cd197 O201 2.449 . S
Cd197 O207 2.240 1_556 S
Cd198 O199 2.240 1_554 S
Cd198 O206 2.223 . S
Cd198 O208 2.297 . S
Cd198 O209 2.439 . S
O199 Cd198 2.240 1_556 S
O199 C204 1.279 . S
O200 Cd197 2.297 . S
O200 C202 1.247 . S
O201 Cd197 2.449 . S
O201 C202 1.228 . S
C202 O200 1.247 . S
C202 O201 1.228 . S
C203 O208 1.247 . S
C203 O209 1.208 . S
C204 O196 1.315 . S
C204 O199 1.279 . S
C205 O206 1.315 . S
C205 O207 1.279 . S
O206 Cd198 2.223 . S
O206 C205 1.315 . S
O207 Cd197 2.240 1_554 S
O207 C205 1.279 . S
O208 Cd198 2.297 . S
O208 C203 1.247 . S
O209 Cd198 2.439 . S
O209 C203 1.208 . S
O210 Cd211 2.223 . S
O210 C218 1.315 . S
Cd211 O210 2.223 . S
Cd211 O214 2.297 . S
Cd211 O215 2.439 . S
Cd211 O221 2.240 . S
Cd212 O213 2.240 . S
Cd212 O220 2.223 . S
Cd212 O222 2.297 . S
Cd212 O223 2.439 . S
O213 Cd212 2.240 . S
O213 C218 1.279 . S
O214 Cd211 2.297 . S
O214 C216 1.247 . S
O215 Cd211 2.439 . S
O215 C216 1.208 . S
C216 O214 1.247 . S
C216 O215 1.208 . S
C217 O222 1.247 . S
C217 O223 1.208 . S
C218 O210 1.315 . S
C218 O213 1.279 . S
C219 O220 1.315 . S
C219 O221 1.279 . S
O220 Cd212 2.223 . S
O220 C219 1.315 . S
O221 Cd211 2.240 . S
O221 C219 1.279 . S
O222 Cd212 2.297 . S
O222 C217 1.247 . S
O223 Cd212 2.439 . S
O223 C217 1.208 . S
H224 C242 0.951 . S
H225 C244 0.951 . S
H226 C246 0.950 . S
H227 C247 0.950 . S
H228 C249 0.950 . S
H229 C252 0.950 . S
H230 C253 0.950 . S
H231 C255 0.950 . S
H232 C256 0.950 . S
H233 C257 0.951 . S
H234 C259 0.951 . S
H235 C261 0.950 . S
H236 C262 0.950 . S
H237 C264 0.950 . S
H238 C267 0.950 . S
H239 C268 0.950 . S
H240 C270 0.950 . S
H241 C271 0.950 . S
C242 H224 0.951 . S
C242 C243 1.366 . S
C242 C244 1.388 . S
C243 C242 1.366 . S
C243 C247 1.385 . S
C244 H225 0.951 . S
C244 C242 1.388 . S
C244 C245 1.366 . S
C245 C244 1.366 . S
C245 C246 1.414 . S
C245 C248 1.499 . S
C246 H226 0.950 . S
C246 C245 1.414 . S
C246 C247 1.374 . S
C247 H227 0.950 . S
C247 C243 1.385 . S
C247 C246 1.374 . S
C248 C245 1.499 . S
C248 C249 1.373 . S
C248 C250 1.389 . S
C249 H228 0.950 . S
C249 C248 1.373 . S
C249 C265 1.377 . S
C250 C248 1.389 . S
C250 C251 1.524 . S
C250 C264 1.377 . S
C251 C250 1.524 . S
C251 C252 1.397 . S
C251 C256 1.363 . S
C252 H229 0.950 . S
C252 C251 1.397 . S
C252 C253 1.334 1_545 S
C253 H230 0.950 . S
C253 C252 1.334 1_565 S
C253 C254 1.287 . S
C254 C253 1.287 . S
C254 C255 1.524 . S
C254 H273 0.913 . S
C255 H231 0.950 . S
C255 C254 1.524 . S
C255 C256 1.415 1_565 S
C256 H232 0.950 . S
C256 C251 1.363 . S
C256 C255 1.415 1_545 S
C257 H233 0.951 . S
C257 C258 1.366 . S
C257 C259 1.388 . S
C258 C257 1.366 . S
C258 C262 1.385 . S
C259 H234 0.951 . S
C259 C257 1.388 . S
C259 C260 1.366 . S
C260 C259 1.366 . S
C260 C261 1.414 . S
C260 C263 1.499 . S
C261 H235 0.950 . S
C261 C260 1.414 . S
C261 C262 1.374 . S
C262 H236 0.950 . S
C262 C258 1.385 . S
C262 C261 1.374 . S
C263 C260 1.499 . S
C263 C264 1.373 . S
C263 C265 1.389 . S
C264 H237 0.950 . S
C264 C250 1.377 . S
C264 C263 1.373 . S
C265 C249 1.377 . S
C265 C263 1.389 . S
C265 C266 1.524 . S
C266 C265 1.524 . S
C266 C267 1.397 . S
C266 C271 1.363 . S
C267 H238 0.950 . S
C267 C266 1.397 . S
C267 C268 1.334 . S
C268 H239 0.950 . S
C268 C267 1.334 . S
C268 C269 1.287 . S
C269 C268 1.287 . S
C269 C270 1.524 . S
C269 H272 0.999 . S
C270 H240 0.950 . S
C270 C269 1.524 . S
C270 C271 1.415 . S
C271 H241 0.950 . S
C271 C266 1.363 . S
C271 C270 1.415 . S
H272 C269 0.999 . S
H273 C254 0.913 . S
H274 C292 0.951 . S
H275 C294 0.951 . S
H276 C296 0.950 . S
H277 C297 0.950 . S
H278 C299 0.950 . S
H279 C302 0.950 . S
H280 C303 0.950 . S
H281 C305 0.950 . S
H282 C306 0.950 . S
H283 C307 0.951 . S
H284 C309 0.951 . S
H285 C311 0.950 . S
H286 C312 0.950 . S
H287 C314 0.950 . S
H288 C317 0.950 . S
H289 C318 0.950 1_455 S
H290 C320 0.950 . S
H291 C321 0.950 . S
C292 H274 0.951 . S
C292 C293 1.366 . S
C292 C294 1.388 . S
C293 C292 1.366 . S
C293 C297 1.385 . S
C294 H275 0.951 . S
C294 C292 1.388 . S
C294 C295 1.366 . S
C295 C294 1.366 . S
C295 C296 1.414 . S
C295 C298 1.499 . S
C296 H276 0.950 . S
C296 C295 1.414 . S
C296 C297 1.374 . S
C297 H277 0.950 . S
C297 C293 1.385 . S
C297 C296 1.374 . S
C298 C295 1.499 . S
C298 C299 1.373 . S
C298 C300 1.389 . S
C299 H278 0.950 . S
C299 C298 1.373 . S
C299 C315 1.377 . S
C300 C298 1.389 . S
C300 C301 1.524 . S
C300 C314 1.377 . S
C301 C300 1.524 . S
C301 C302 1.397 . S
C301 C306 1.363 . S
C302 H279 0.950 . S
C302 C301 1.397 . S
C302 C303 1.334 . S
C303 H280 0.950 . S
C303 C302 1.334 . S
C303 C304 1.287 . S
C304 C303 1.287 . S
C304 C305 1.524 . S
C304 H323 0.913 . S
C305 H281 0.950 . S
C305 C304 1.524 . S
C305 C306 1.415 . S
C306 H282 0.950 . S
C306 C301 1.363 . S
C306 C305 1.415 . S
C307 H283 0.951 . S
C307 C308 1.366 . S
C307 C309 1.388 . S
C308 C307 1.366 . S
C308 C312 1.385 . S
C309 H284 0.951 . S
C309 C307 1.388 . S
C309 C310 1.366 . S
C310 C309 1.366 . S
C310 C311 1.414 . S
C310 C313 1.499 . S
C311 H285 0.950 . S
C311 C310 1.414 . S
C311 C312 1.374 . S
C312 H286 0.950 . S
C312 C308 1.385 . S
C312 C311 1.374 . S
C313 C310 1.499 . S
C313 C314 1.373 . S
C313 C315 1.389 . S
C314 H287 0.950 . S
C314 C300 1.377 . S
C314 C313 1.373 . S
C315 C299 1.377 . S
C315 C313 1.389 . S
C315 C316 1.524 . S
C316 C315 1.524 . S
C316 C317 1.397 . S
C316 C321 1.363 . S
C317 H288 0.950 . S
C317 C316 1.397 . S
C317 C318 1.334 . S
C318 H289 0.950 1_655 S
C318 C317 1.334 . S
C318 C319 1.290 . S
C319 C318 1.290 . S
C319 C320 1.549 . S
C319 H322 0.972 1_655 S
C320 H290 0.950 . S
C320 C319 1.549 . S
C320 C321 1.415 . S
C321 H291 0.950 . S
C321 C316 1.363 . S
C321 C320 1.415 . S
H322 C319 0.972 1_455 S
H323 C304 0.913 . S
H324 C342 0.951 . S
H325 C344 0.951 . S
H326 C346 0.950 . S
H327 C347 0.950 . S
H328 C349 0.950 . S
H329 C352 0.950 . S
H330 C353 0.950 . S
H331 C355 0.950 . S
H332 C356 0.950 . S
H333 C357 0.951 . S
H334 C359 0.951 . S
H335 C361 0.950 . S
H336 C362 0.950 1_554 S
H337 C364 0.950 . S
H338 C367 0.950 . S
H339 C368 0.950 . S
H340 C370 0.950 . S
H341 C371 0.950 . S
C342 H324 0.951 . S
C342 C343 1.366 . S
C342 C344 1.388 . S
C343 C342 1.366 . S
C343 C347 1.385 . S
C344 H325 0.951 . S
C344 C342 1.388 . S
C344 C345 1.366 . S
C345 C344 1.366 . S
C345 C346 1.414 . S
C345 C348 1.499 . S
C346 H326 0.950 . S
C346 C345 1.414 . S
C346 C347 1.374 . S
C347 H327 0.950 . S
C347 C343 1.385 . S
C347 C346 1.374 . S
C348 C345 1.499 . S
C348 C349 1.373 . S
C348 C350 1.389 . S
C349 H328 0.950 . S
C349 C348 1.373 . S
C349 C365 1.377 . S
C350 C348 1.389 . S
C350 C351 1.524 . S
C350 C364 1.377 . S
C351 C350 1.524 . S
C351 C352 1.397 . S
C351 C356 1.363 . S
C352 H329 0.950 . S
C352 C351 1.397 . S
C352 C353 1.334 . S
C353 H330 0.950 . S
C353 C352 1.334 . S
C353 C354 1.287 . S
C354 C353 1.287 . S
C354 C355 1.524 . S
C354 H373 0.913 . S
C355 H331 0.950 . S
C355 C354 1.524 . S
C355 C356 1.415 . S
C356 H332 0.950 . S
C356 C351 1.363 . S
C356 C355 1.415 . S
C357 H333 0.951 . S
C357 C358 1.366 . S
C357 C359 1.388 . S
C358 C357 1.366 . S
C358 C362 1.385 . S
C359 H334 0.951 . S
C359 C357 1.388 . S
C359 C360 1.366 . S
C360 C359 1.366 . S
C360 C361 1.414 . S
C360 C363 1.499 . S
C361 H335 0.950 . S
C361 C360 1.414 . S
C361 C362 1.374 . S
C362 H336 0.950 1_556 S
C362 C358 1.385 . S
C362 C361 1.374 . S
C363 C360 1.499 . S
C363 C364 1.373 . S
C363 C365 1.389 . S
C364 H337 0.950 . S
C364 C350 1.377 . S
C364 C363 1.373 . S
C365 C349 1.377 . S
C365 C363 1.389 . S
C365 C366 1.524 . S
C366 C365 1.524 . S
C366 C367 1.397 . S
C366 C371 1.363 . S
C367 H338 0.950 . S
C367 C366 1.397 . S
C367 C368 1.334 . S
C368 H339 0.950 . S
C368 C367 1.334 . S
C368 C369 1.287 . S
C369 C368 1.287 . S
C369 C370 1.524 . S
C369 H372 0.999 . S
C370 H340 0.950 . S
C370 C369 1.524 . S
C370 C371 1.415 . S
C371 H341 0.950 . S
C371 C366 1.363 . S
C371 C370 1.415 . S
H372 C369 0.999 . S
H373 C354 0.913 . S
H374 C392 0.951 . S
H375 C394 0.951 . S
H376 C396 0.950 . S
H377 C397 0.950 . S
H378 C399 0.950 . S
H379 C402 0.950 . S
H380 C403 0.950 . S
H381 C405 0.950 . S
H382 C406 0.950 . S
H383 C407 0.951 . S
H384 C409 0.951 . S
H385 C411 0.950 . S
H386 C412 0.950 . S
H387 C414 0.950 . S
H388 C417 0.950 . S
H389 C418 0.950 . S
H390 C420 0.950 . S
H391 C421 0.950 . S
C392 H374 0.951 . S
C392 C393 1.366 . S
C392 C394 1.388 . S
C393 C392 1.366 . S
C393 C397 1.385 . S
C394 H375 0.951 . S
C394 C392 1.388 . S
C394 C395 1.366 . S
C395 C394 1.366 . S
C395 C396 1.414 . S
C395 C398 1.499 . S
C396 H376 0.950 . S
C396 C395 1.414 . S
C396 C397 1.374 . S
C397 H377 0.950 . S
C397 C393 1.385 . S
C397 C396 1.374 . S
C398 C395 1.499 . S
C398 C399 1.373 . S
C398 C400 1.389 . S
C399 H378 0.950 . S
C399 C398 1.373 . S
C399 C415 1.377 . S
C400 C398 1.389 . S
C400 C401 1.524 . S
C400 C414 1.377 . S
C401 C400 1.524 . S
C401 C402 1.397 . S
C401 C406 1.363 . S
C402 H379 0.950 . S
C402 C401 1.397 . S
C402 C403 1.334 . S
C403 H380 0.950 . S
C403 C402 1.334 . S
C403 C404 1.287 . S
C404 C403 1.287 . S
C404 C405 1.524 . S
C404 H423 0.913 . S
C405 H381 0.950 . S
C405 C404 1.524 . S
C405 C406 1.415 . S
C406 H382 0.950 . S
C406 C401 1.363 . S
C406 C405 1.415 . S
C407 H383 0.951 . S
C407 C408 1.366 . S
C407 C409 1.388 . S
C408 C407 1.366 . S
C408 C412 1.385 . S
C409 H384 0.951 . S
C409 C407 1.388 . S
C409 C410 1.366 . S
C410 C409 1.366 . S
C410 C411 1.414 . S
C410 C413 1.499 . S
C411 H385 0.950 . S
C411 C410 1.414 . S
C411 C412 1.374 . S
C412 H386 0.950 . S
C412 C408 1.385 . S
C412 C411 1.374 . S
C413 C410 1.499 . S
C413 C414 1.373 . S
C413 C415 1.389 . S
C414 H387 0.950 . S
C414 C400 1.377 . S
C414 C413 1.373 . S
C415 C399 1.377 . S
C415 C413 1.389 . S
C415 C416 1.524 . S
C416 C415 1.524 . S
C416 C417 1.397 . S
C416 C421 1.363 . S
C417 H388 0.950 . S
C417 C416 1.397 . S
C417 C418 1.334 . S
C418 H389 0.950 . S
C418 C417 1.334 . S
C418 C419 1.287 . S
C419 C418 1.287 . S
C419 C420 1.524 . S
C419 H422 0.999 . S
C420 H390 0.950 . S
C420 C419 1.524 . S
C420 C421 1.415 . S
C421 H391 0.950 . S
C421 C416 1.363 . S
C421 C420 1.415 . S
H422 C419 0.999 . S
H423 C404 0.913 . S
H424 C442 0.951 . S
H425 C444 0.951 . S
H426 C446 0.950 . S
H427 C447 0.950 . S
H428 C449 0.950 . S
H429 C452 0.950 . S
H430 C453 0.950 . S
H431 C455 0.950 . S
H432 C456 0.950 . S
H433 C457 0.951 1_554 S
H434 C459 0.951 . S
H435 C461 0.950 . S
H436 C462 0.950 . S
H437 C464 0.950 . S
H438 C467 0.950 . S
H439 C468 0.950 . S
H440 C470 0.950 . S
H441 C471 0.950 . S
C442 H424 0.951 . S
C442 C443 1.366 . S
C442 C444 1.388 . S
C443 C442 1.366 . S
C443 C447 1.385 . S
C444 H425 0.951 . S
C444 C442 1.388 . S
C444 C445 1.366 . S
C445 C444 1.366 . S
C445 C446 1.414 . S
C445 C448 1.499 . S
C446 H426 0.950 . S
C446 C445 1.414 . S
C446 C447 1.374 . S
C447 H427 0.950 . S
C447 C443 1.385 . S
C447 C446 1.374 . S
C448 C445 1.499 . S
C448 C449 1.373 . S
C448 C450 1.389 . S
C449 H428 0.950 . S
C449 C448 1.373 . S
C449 C465 1.377 . S
C450 C448 1.389 . S
C450 C451 1.524 . S
C450 C464 1.377 . S
C451 C450 1.524 . S
C451 C452 1.397 . S
C451 C456 1.363 . S
C452 H429 0.950 . S
C452 C451 1.397 . S
C452 C453 1.334 . S
C453 H430 0.950 . S
C453 C452 1.334 . S
C453 C454 1.287 . S
C454 C453 1.287 . S
C454 C455 1.524 . S
C454 H473 0.913 . S
C455 H431 0.950 . S
C455 C454 1.524 . S
C455 C456 1.415 . S
C456 H432 0.950 . S
C456 C451 1.363 . S
C456 C455 1.415 . S
C457 H433 0.951 1_556 S
C457 C458 1.366 . S
C457 C459 1.388 . S
C458 C457 1.366 . S
C458 C462 1.385 . S
C459 H434 0.951 . S
C459 C457 1.388 . S
C459 C460 1.366 . S
C460 C459 1.366 . S
C460 C461 1.414 . S
C460 C463 1.499 . S
C461 H435 0.950 . S
C461 C460 1.414 . S
C461 C462 1.374 . S
C462 H436 0.950 . S
C462 C458 1.385 . S
C462 C461 1.374 . S
C463 C460 1.499 . S
C463 C464 1.373 . S
C463 C465 1.389 . S
C464 H437 0.950 . S
C464 C450 1.377 . S
C464 C463 1.373 . S
C465 C449 1.377 . S
C465 C463 1.389 . S
C465 C466 1.524 . S
C466 C465 1.524 . S
C466 C467 1.397 . S
C466 C471 1.363 . S
C467 H438 0.950 . S
C467 C466 1.397 . S
C467 C468 1.334 . S
C468 H439 0.950 . S
C468 C467 1.334 . S
C468 C469 1.287 . S
C469 C468 1.287 . S
C469 C470 1.524 . S
C469 H472 0.999 . S
C470 H440 0.950 . S
C470 C469 1.524 . S
C470 C471 1.415 . S
C471 H441 0.950 . S
C471 C466 1.363 . S
C471 C470 1.415 . S
H472 C469 0.999 . S
H473 C454 0.913 . S
H474 C492 0.951 . S
H475 C494 0.951 . S
H476 C496 0.950 . S
H477 C497 0.950 . S
H478 C499 0.950 . S
H479 C502 0.950 . S
H480 C503 0.950 . S
H481 C505 0.950 . S
H482 C506 0.950 . S
H483 C507 0.951 . S
H484 C509 0.951 . S
H485 C511 0.950 . S
H486 C512 0.950 . S
H487 C514 0.950 . S
H488 C517 0.950 . S
H489 C518 0.950 . S
H490 C520 0.950 . S
H491 C521 0.950 . S
C492 H474 0.951 . S
C492 C493 1.366 . S
C492 C494 1.388 . S
C493 C492 1.366 . S
C493 C497 1.385 . S
C494 H475 0.951 . S
C494 C492 1.388 . S
C494 C495 1.366 . S
C495 C494 1.366 . S
C495 C496 1.414 . S
C495 C498 1.499 . S
C496 H476 0.950 . S
C496 C495 1.414 . S
C496 C497 1.374 . S
C497 H477 0.950 . S
C497 C493 1.385 . S
C497 C496 1.374 . S
C498 C495 1.499 . S
C498 C499 1.373 . S
C498 C500 1.389 . S
C499 H478 0.950 . S
C499 C498 1.373 . S
C499 C515 1.377 . S
C500 C498 1.389 . S
C500 C501 1.524 . S
C500 C514 1.377 . S
C501 C500 1.524 . S
C501 C502 1.397 . S
C501 C506 1.363 . S
C502 H479 0.950 . S
C502 C501 1.397 . S
C502 C503 1.334 . S
C503 H480 0.950 . S
C503 C502 1.334 . S
C503 C504 1.287 . S
C504 C503 1.287 . S
C504 C505 1.524 . S
C504 H523 0.913 . S
C505 H481 0.950 . S
C505 C504 1.524 . S
C505 C506 1.415 . S
C506 H482 0.950 . S
C506 C501 1.363 . S
C506 C505 1.415 . S
C507 H483 0.951 . S
C507 C508 1.366 . S
C507 C509 1.388 . S
C508 C507 1.366 . S
C508 C512 1.385 . S
C509 H484 0.951 . S
C509 C507 1.388 . S
C509 C510 1.366 . S
C510 C509 1.366 . S
C510 C511 1.414 . S
C510 C513 1.499 . S
C511 H485 0.950 . S
C511 C510 1.414 . S
C511 C512 1.374 . S
C512 H486 0.950 . S
C512 C508 1.385 . S
C512 C511 1.374 . S
C513 C510 1.499 . S
C513 C514 1.373 . S
C513 C515 1.389 . S
C514 H487 0.950 . S
C514 C500 1.377 . S
C514 C513 1.373 . S
C515 C499 1.377 . S
C515 C513 1.389 . S
C515 C516 1.524 . S
C516 C515 1.524 . S
C516 C517 1.397 . S
C516 C521 1.363 . S
C517 H488 0.950 . S
C517 C516 1.397 . S
C517 C518 1.334 . S
C518 H489 0.950 . S
C518 C517 1.334 . S
C518 C519 1.287 . S
C519 C518 1.287 . S
C519 C520 1.524 . S
C519 H522 0.999 . S
C520 H490 0.950 . S
C520 C519 1.524 . S
C520 C521 1.415 . S
C521 H491 0.950 . S
C521 C516 1.363 . S
C521 C520 1.415 . S
H522 C519 0.999 . S
H523 C504 0.913 . S
H524 C542 0.951 . S
H525 C544 0.951 . S
H526 C546 0.950 . S
H527 C547 0.950 . S
H528 C549 0.950 . S
H529 C552 0.950 . S
H530 C553 0.950 . S
H531 C555 0.950 . S
H532 C556 0.950 . S
H533 C557 0.951 . S
H534 C559 0.951 . S
H535 C561 0.950 . S
H536 C562 0.950 . S
H537 C564 0.950 . S
H538 C567 0.950 . S
H539 C568 0.950 . S
H540 C570 0.950 . S
H541 C571 0.950 . S
C542 H524 0.951 . S
C542 C543 1.366 . S
C542 C544 1.388 . S
C543 C542 1.366 . S
C543 C547 1.385 . S
C544 H525 0.951 . S
C544 C542 1.388 . S
C544 C545 1.366 . S
C545 C544 1.366 . S
C545 C546 1.414 . S
C545 C548 1.499 . S
C546 H526 0.950 . S
C546 C545 1.414 . S
C546 C547 1.374 . S
C547 H527 0.950 . S
C547 C543 1.385 . S
C547 C546 1.374 . S
C548 C545 1.499 . S
C548 C549 1.373 . S
C548 C550 1.389 . S
C549 H528 0.950 . S
C549 C548 1.373 . S
C549 C565 1.377 . S
C550 C548 1.389 . S
C550 C551 1.524 . S
C550 C564 1.377 . S
C551 C550 1.524 . S
C551 C552 1.397 . S
C551 C556 1.363 . S
C552 H529 0.950 . S
C552 C551 1.397 . S
C552 C553 1.334 . S
C553 H530 0.950 . S
C553 C552 1.334 . S
C553 C554 1.287 . S
C554 C553 1.287 . S
C554 C555 1.524 . S
C554 H573 0.913 . S
C555 H531 0.950 . S
C555 C554 1.524 . S
C555 C556 1.415 . S
C556 H532 0.950 . S
C556 C551 1.363 . S
C556 C555 1.415 . S
C557 H533 0.951 . S
C557 C558 1.366 . S
C557 C559 1.388 . S
C558 C557 1.366 . S
C558 C562 1.385 . S
C559 H534 0.951 . S
C559 C557 1.388 . S
C559 C560 1.366 . S
C560 C559 1.366 . S
C560 C561 1.414 . S
C560 C563 1.499 . S
C561 H535 0.950 . S
C561 C560 1.414 . S
C561 C562 1.374 . S
C562 H536 0.950 . S
C562 C558 1.385 . S
C562 C561 1.374 . S
C563 C560 1.499 . S
C563 C564 1.373 . S
C563 C565 1.389 . S
C564 H537 0.950 . S
C564 C550 1.377 . S
C564 C563 1.373 . S
C565 C549 1.377 . S
C565 C563 1.389 . S
C565 C566 1.524 . S
C566 C565 1.524 . S
C566 C567 1.397 . S
C566 C571 1.363 . S
C567 H538 0.950 . S
C567 C566 1.397 . S
C567 C568 1.334 . S
C568 H539 0.950 . S
C568 C567 1.334 . S
C568 C569 1.287 . S
C569 C568 1.287 . S
C569 C570 1.524 . S
C569 H572 0.999 . S
C570 H540 0.950 . S
C570 C569 1.524 . S
C570 C571 1.415 . S
C571 H541 0.950 . S
C571 C566 1.363 . S
C571 C570 1.415 . S
H572 C569 0.999 . S
H573 C554 0.913 . S
H574 C592 0.951 . S
H575 C594 0.951 . S
H576 C596 0.950 . S
H577 C597 0.950 . S
H578 C599 0.950 . S
H579 C602 0.950 . S
H580 C603 0.950 . S
H581 C605 0.950 . S
H582 C606 0.950 . S
H583 C607 0.951 . S
H584 C609 0.951 . S
H585 C611 0.950 . S
H586 C612 0.950 . S
H587 C614 0.950 . S
H588 C617 0.950 . S
H589 C618 0.950 . S
H590 C620 0.950 . S
H591 C621 0.950 . S
C592 H574 0.951 . S
C592 C593 1.366 . S
C592 C594 1.388 . S
C593 C592 1.366 . S
C593 C597 1.385 . S
C594 H575 0.951 . S
C594 C592 1.388 . S
C594 C595 1.366 . S
C595 C594 1.366 . S
C595 C596 1.414 . S
C595 C598 1.499 . S
C596 H576 0.950 . S
C596 C595 1.414 . S
C596 C597 1.374 . S
C597 H577 0.950 . S
C597 C593 1.385 . S
C597 C596 1.374 . S
C598 C595 1.499 . S
C598 C599 1.373 . S
C598 C600 1.389 . S
C599 H578 0.950 . S
C599 C598 1.373 . S
C599 C615 1.377 . S
C600 C598 1.389 . S
C600 C601 1.524 . S
C600 C614 1.377 . S
C601 C600 1.524 . S
C601 C602 1.397 . S
C601 C606 1.363 . S
C602 H579 0.950 . S
C602 C601 1.397 . S
C602 C603 1.334 . S
C603 H580 0.950 . S
C603 C602 1.334 . S
C603 C604 1.287 . S
C604 C603 1.287 . S
C604 C605 1.524 1_455 S
C604 H623 0.913 1_455 S
C605 H581 0.950 . S
C605 C604 1.524 1_655 S
C605 C606 1.415 1_655 S
C606 H582 0.950 . S
C606 C601 1.363 . S
C606 C605 1.415 1_455 S
C607 H583 0.951 . S
C607 C608 1.366 . S
C607 C609 1.388 . S
C608 C607 1.366 . S
C608 C612 1.385 . S
C609 H584 0.951 . S
C609 C607 1.388 . S
C609 C610 1.366 . S
C610 C609 1.366 . S
C610 C611 1.414 . S
C610 C613 1.499 . S
C611 H585 0.950 . S
C611 C610 1.414 . S
C611 C612 1.374 . S
C612 H586 0.950 . S
C612 C608 1.385 . S
C612 C611 1.374 . S
C613 C610 1.499 . S
C613 C614 1.373 . S
C613 C615 1.389 . S
C614 H587 0.950 . S
C614 C600 1.377 . S
C614 C613 1.373 . S
C615 C599 1.377 . S
C615 C613 1.389 . S
C615 C616 1.524 . S
C616 C615 1.524 . S
C616 C617 1.397 . S
C616 C621 1.363 . S
C617 H588 0.950 . S
C617 C616 1.397 . S
C617 C618 1.334 . S
C618 H589 0.950 . S
C618 C617 1.334 . S
C618 C619 1.287 . S
C619 C618 1.287 . S
C619 C620 1.524 . S
C619 H622 0.999 . S
C620 H590 0.950 . S
C620 C619 1.524 . S
C620 C621 1.415 . S
C621 H591 0.950 . S
C621 C616 1.363 . S
C621 C620 1.415 . S
H622 C619 0.999 . S
H623 C604 0.913 1_655 S
H624 C642 0.951 . S
H625 C644 0.951 . S
H626 C646 0.950 . S
H627 C647 0.950 . S
H628 C649 0.950 . S
H629 C652 0.950 . S
H630 C653 0.950 . S
H631 C655 0.950 . S
H632 C656 0.950 . S
H633 C657 0.951 . S
H634 C659 0.951 . S
H635 C661 0.950 . S
H636 C662 0.950 . S
H637 C664 0.950 . S
H638 C667 0.950 . S
H639 C668 0.950 . S
H640 C670 0.950 . S
H641 C671 0.950 . S
C642 H624 0.951 . S
C642 C643 1.366 . S
C642 C644 1.388 . S
C643 C642 1.366 . S
C643 C647 1.385 . S
C644 H625 0.951 . S
C644 C642 1.388 . S
C644 C645 1.366 . S
C645 C644 1.366 . S
C645 C646 1.414 . S
C645 C648 1.499 . S
C646 H626 0.950 . S
C646 C645 1.414 . S
C646 C647 1.374 . S
C647 H627 0.950 . S
C647 C643 1.385 . S
C647 C646 1.374 . S
C648 C645 1.499 . S
C648 C649 1.373 1_545 S
C648 C650 1.389 . S
C649 H628 0.950 . S
C649 C648 1.373 1_565 S
C649 C665 1.377 1_455 S
C650 C648 1.389 . S
C650 C651 1.524 . S
C650 C664 1.377 1_455 S
C651 C650 1.524 . S
C651 C652 1.397 . S
C651 C656 1.363 1_455 S
C652 H629 0.950 . S
C652 C651 1.397 . S
C652 C653 1.334 . S
C653 H630 0.950 . S
C653 C652 1.334 . S
C653 C654 1.316 . S
C654 C653 1.316 . S
C654 C655 1.500 1_455 S
C654 H673 0.918 . S
C655 H631 0.950 . S
C655 C654 1.500 1_655 S
C655 C656 1.415 . S
C656 H632 0.950 . S
C656 C651 1.363 1_655 S
C656 C655 1.415 . S
C657 H633 0.951 . S
C657 C658 1.366 . S
C657 C659 1.388 . S
C658 C657 1.366 . S
C658 C662 1.385 . S
C659 H634 0.951 . S
C659 C657 1.388 . S
C659 C660 1.366 . S
C660 C659 1.366 . S
C660 C661 1.414 . S
C660 C663 1.499 . S
C661 H635 0.950 . S
C661 C660 1.414 . S
C661 C662 1.374 . S
C662 H636 0.950 . S
C662 C658 1.385 . S
C662 C661 1.374 . S
C663 C660 1.499 . S
C663 C664 1.373 1_565 S
C663 C665 1.389 . S
C664 H637 0.950 . S
C664 C650 1.377 1_655 S
C664 C663 1.373 1_545 S
C665 C649 1.377 1_655 S
C665 C663 1.389 . S
C665 C666 1.524 . S
C666 C665 1.524 . S
C666 C667 1.397 . S
C666 C671 1.363 1_655 S
C667 H638 0.950 . S
C667 C666 1.397 . S
C667 C668 1.334 . S
C668 H639 0.950 . S
C668 C667 1.334 . S
C668 C669 1.316 . S
C669 C668 1.316 . S
C669 C670 1.500 1_655 S
C669 H672 0.999 . S
C670 H640 0.950 . S
C670 C669 1.500 1_455 S
C670 C671 1.415 . S
C671 H641 0.950 . S
C671 C666 1.363 1_455 S
C671 C670 1.415 . S
H672 C669 0.999 . S
H673 C654 0.918 . S
H674 C692 0.951 . S
H675 C694 0.951 . S
H676 C696 0.950 . S
H677 C697 0.950 . S
H678 C699 0.950 . S
H679 C702 0.950 . S
H680 C703 0.950 . S
H681 C705 0.950 . S
H682 C706 0.950 . S
H683 C707 0.951 . S
H684 C709 0.951 . S
H685 C711 0.950 . S
H686 C712 0.950 . S
H687 C714 0.950 . S
H688 C717 0.950 . S
H689 C718 0.950 . S
H690 C720 0.950 . S
H691 C721 0.950 . S
C692 H674 0.951 . S
C692 C693 1.366 . S
C692 C694 1.388 . S
C693 C692 1.366 . S
C693 C697 1.385 . S
C694 H675 0.951 . S
C694 C692 1.388 . S
C694 C695 1.366 . S
C695 C694 1.366 . S
C695 C696 1.414 . S
C695 C698 1.499 . S
C696 H676 0.950 . S
C696 C695 1.414 . S
C696 C697 1.374 . S
C697 H677 0.950 . S
C697 C693 1.385 . S
C697 C696 1.374 . S
C698 C695 1.499 . S
C698 C699 1.373 1_655 S
C698 C700 1.389 . S
C699 H678 0.950 . S
C699 C698 1.373 1_455 S
C699 C715 1.377 . S
C700 C698 1.389 . S
C700 C701 1.524 . S
C700 C714 1.377 . S
C701 C700 1.524 . S
C701 C702 1.397 . S
C701 C706 1.363 . S
C702 H679 0.950 . S
C702 C701 1.397 . S
C702 C703 1.334 . S
C703 H680 0.950 . S
C703 C702 1.334 . S
C703 C704 1.287 . S
C704 C703 1.287 . S
C704 C705 1.524 . S
C704 H723 0.913 . S
C705 H681 0.950 . S
C705 C704 1.524 . S
C705 C706 1.415 . S
C706 H682 0.950 . S
C706 C701 1.363 . S
C706 C705 1.415 . S
C707 H683 0.951 . S
C707 C708 1.366 . S
C707 C709 1.388 . S
C708 C707 1.366 . S
C708 C712 1.385 . S
C709 H684 0.951 . S
C709 C707 1.388 . S
C709 C710 1.366 . S
C710 C709 1.366 . S
C710 C711 1.414 . S
C710 C713 1.499 . S
C711 H685 0.950 . S
C711 C710 1.414 . S
C711 C712 1.374 . S
C712 H686 0.950 . S
C712 C708 1.385 . S
C712 C711 1.374 . S
C713 C710 1.499 . S
C713 C714 1.373 1_455 S
C713 C715 1.389 . S
C714 H687 0.950 . S
C714 C700 1.377 . S
C714 C713 1.373 1_655 S
C715 C699 1.377 . S
C715 C713 1.389 . S
C715 C716 1.524 . S
C716 C715 1.524 . S
C716 C717 1.397 . S
C716 C721 1.363 . S
C717 H688 0.950 . S
C717 C716 1.397 . S
C717 C718 1.334 . S
C718 H689 0.950 . S
C718 C717 1.334 . S
C718 C719 1.287 . S
C719 C718 1.287 . S
C719 C720 1.524 . S
C719 H722 0.999 . S
C720 H690 0.950 . S
C720 C719 1.524 . S
C720 C721 1.415 . S
C721 H691 0.950 . S
C721 C716 1.363 . S
C721 C720 1.415 . S
H722 C719 0.999 . S
H723 C704 0.913 . S
H724 C742 0.951 . S
H725 C744 0.951 . S
H726 C746 0.950 . S
H727 C747 0.950 . S
H728 C749 0.950 . S
H729 C752 0.950 . S
H730 C753 0.950 . S
H731 C755 0.950 . S
H732 C756 0.950 . S
H733 C757 0.951 . S
H734 C759 0.951 . S
H735 C761 0.950 . S
H736 C762 0.950 . S
H737 C764 0.950 . S
H738 C767 0.950 . S
H739 C768 0.950 . S
H740 C770 0.950 . S
H741 C771 0.950 . S
C742 H724 0.951 . S
C742 C743 1.366 . S
C742 C744 1.388 . S
C743 C742 1.366 . S
C743 C747 1.385 . S
C744 H725 0.951 . S
C744 C742 1.388 . S
C744 C745 1.366 . S
C745 C744 1.366 . S
C745 C746 1.414 . S
C745 C748 1.499 . S
C746 H726 0.950 . S
C746 C745 1.414 . S
C746 C747 1.374 . S
C747 H727 0.950 . S
C747 C743 1.385 . S
C747 C746 1.374 . S
C748 C745 1.499 . S
C748 C749 1.373 . S
C748 C750 1.389 . S
C749 H728 0.950 . S
C749 C748 1.373 . S
C749 C765 1.377 . S
C750 C748 1.389 . S
C750 C751 1.524 . S
C750 C764 1.377 . S
C751 C750 1.524 . S
C751 C752 1.397 . S
C751 C756 1.363 . S
C752 H729 0.950 . S
C752 C751 1.397 . S
C752 C753 1.334 . S
C753 H730 0.950 . S
C753 C752 1.334 . S
C753 C754 1.287 . S
C754 C753 1.287 . S
C754 C755 1.524 . S
C754 H773 0.913 . S
C755 H731 0.950 . S
C755 C754 1.524 . S
C755 C756 1.415 . S
C756 H732 0.950 . S
C756 C751 1.363 . S
C756 C755 1.415 . S
C757 H733 0.951 . S
C757 C758 1.366 . S
C757 C759 1.388 . S
C758 C757 1.366 . S
C758 C762 1.385 . S
C759 H734 0.951 . S
C759 C757 1.388 . S
C759 C760 1.366 . S
C760 C759 1.366 . S
C760 C761 1.414 . S
C760 C763 1.499 . S
C761 H735 0.950 . S
C761 C760 1.414 . S
C761 C762 1.374 . S
C762 H736 0.950 . S
C762 C758 1.385 . S
C762 C761 1.374 . S
C763 C760 1.499 . S
C763 C764 1.373 . S
C763 C765 1.389 . S
C764 H737 0.950 . S
C764 C750 1.377 . S
C764 C763 1.373 . S
C765 C749 1.377 . S
C765 C763 1.389 . S
C765 C766 1.524 . S
C766 C765 1.524 . S
C766 C767 1.397 . S
C766 C771 1.363 . S
C767 H738 0.950 . S
C767 C766 1.397 . S
C767 C768 1.334 . S
C768 H739 0.950 . S
C768 C767 1.334 . S
C768 C769 1.287 . S
C769 C768 1.287 . S
C769 C770 1.524 . S
C769 H772 0.999 . S
C770 H740 0.950 . S
C770 C769 1.524 . S
C770 C771 1.415 . S
C771 H741 0.950 . S
C771 C766 1.363 . S
C771 C770 1.415 . S
H772 C769 0.999 . S
H773 C754 0.913 . S
H774 C792 0.951 . S
H775 C794 0.951 . S
H776 C796 0.950 . S
H777 C797 0.950 . S
H778 C799 0.950 . S
H779 C802 0.950 . S
H780 C803 0.950 . S
H781 C805 0.983 . S
H782 C806 0.950 . S
H783 C807 0.951 . S
H784 C809 0.951 . S
H785 C811 0.950 . S
H786 C812 0.950 . S
H787 C814 0.950 . S
H788 C817 0.950 . S
H789 C818 0.950 . S
H790 C820 0.983 . S
H791 C821 0.950 1_554 S
C792 H774 0.951 . S
C792 C793 1.366 . S
C792 C794 1.388 . S
C793 C792 1.366 . S
C793 C797 1.385 . S
C794 H775 0.951 . S
C794 C792 1.388 . S
C794 C795 1.366 . S
C795 C794 1.366 . S
C795 C796 1.414 . S
C795 C798 1.499 . S
C796 H776 0.950 . S
C796 C795 1.414 . S
C796 C797 1.374 . S
C797 H777 0.950 . S
C797 C793 1.385 . S
C797 C796 1.374 . S
C798 C795 1.499 . S
C798 C799 1.373 . S
C798 C800 1.389 . S
C799 H778 0.950 . S
C799 C798 1.373 . S
C799 C815 1.377 1_565 S
C800 C798 1.389 . S
C800 C801 1.524 . S
C800 C814 1.377 1_565 S
C801 C800 1.524 . S
C801 C802 1.397 . S
C801 C806 1.363 1_565 S
C802 H779 0.950 . S
C802 C801 1.397 . S
C802 C803 1.334 . S
C803 H780 0.950 . S
C803 C802 1.334 . S
C803 C804 1.287 . S
C804 C803 1.287 . S
C804 C805 1.479 1_565 S
C804 H823 0.913 . S
C805 H781 0.983 . S
C805 C804 1.479 1_545 S
C805 C806 1.425 . S
C806 H782 0.950 . S
C806 C801 1.363 1_545 S
C806 C805 1.425 . S
C807 H783 0.951 . S
C807 C808 1.366 . S
C807 C809 1.388 . S
C808 C807 1.366 . S
C808 C812 1.385 . S
C809 H784 0.951 . S
C809 C807 1.388 . S
C809 C810 1.366 . S
C810 C809 1.366 . S
C810 C811 1.414 . S
C810 C813 1.499 . S
C811 H785 0.950 . S
C811 C810 1.414 . S
C811 C812 1.374 . S
C812 H786 0.950 . S
C812 C808 1.385 . S
C812 C811 1.374 . S
C813 C810 1.499 . S
C813 C814 1.373 . S
C813 C815 1.389 . S
C814 H787 0.950 . S
C814 C800 1.377 1_545 S
C814 C813 1.373 . S
C815 C799 1.377 1_545 S
C815 C813 1.389 . S
C815 C816 1.535 . S
C816 C815 1.535 . S
C816 C817 1.388 1_554 S
C816 C821 1.360 1_544 S
C817 H788 0.950 . S
C817 C816 1.388 1_556 S
C817 C818 1.334 . S
C818 H789 0.950 . S
C818 C817 1.334 . S
C818 C819 1.287 . S
C819 C818 1.287 . S
C819 C820 1.479 1_545 S
C819 H822 0.999 . S
C820 H790 0.983 . S
C820 C819 1.479 1_565 S
C820 C821 1.425 . S
C821 H791 0.950 1_556 S
C821 C816 1.360 1_566 S
C821 C820 1.425 . S
H822 C819 0.999 . S
H823 C804 0.913 . S
H824 C842 0.951 . S
H825 C844 0.951 . S
H826 C846 0.950 . S
H827 C847 0.950 . S
H828 C849 0.950 . S
H829 C852 0.950 . S
H830 C853 0.950 . S
H831 C855 0.952 1_655 S
H832 C856 0.950 . S
H833 C857 0.951 . S
H834 C859 0.951 . S
H835 C861 0.950 . S
H836 C862 0.950 . S
H837 C864 0.950 . S
H838 C867 0.950 . S
H839 C868 0.950 . S
H840 C870 0.952 1_455 S
H841 C871 0.950 . S
C842 H824 0.951 . S
C842 C843 1.368 . S
C842 C844 1.388 . S
C843 C842 1.368 . S
C843 C847 1.383 1_556 S
C844 H825 0.951 . S
C844 C842 1.388 . S
C844 C845 1.366 . S
C845 C844 1.366 . S
C845 C846 1.414 1_556 S
C845 C848 1.499 . S
C846 H826 0.950 . S
C846 C845 1.414 1_554 S
C846 C847 1.374 . S
C847 H827 0.950 . S
C847 C843 1.383 1_554 S
C847 C846 1.374 . S
C848 C845 1.499 . S
C848 C849 1.373 1_556 S
C848 C850 1.389 . S
C849 H828 0.950 . S
C849 C848 1.373 1_554 S
C849 C865 1.377 1_455 S
C850 C848 1.389 . S
C850 C851 1.524 . S
C850 C864 1.377 1_455 S
C851 C850 1.524 . S
C851 C852 1.397 . S
C851 C856 1.363 1_455 S
C852 H829 0.950 . S
C852 C851 1.397 . S
C852 C853 1.334 . S
C853 H830 0.950 . S
C853 C852 1.334 . S
C853 C854 1.287 . S
C854 C853 1.287 . S
C854 C855 1.521 . S
C854 H873 0.913 . S
C855 H831 0.952 1_455 S
C855 C854 1.521 . S
C855 C856 1.416 1_455 S
C856 H832 0.950 . S
C856 C851 1.363 1_655 S
C856 C855 1.416 1_655 S
C857 H833 0.951 . S
C857 C858 1.364 1_554 S
C857 C859 1.388 . S
C858 C857 1.364 1_556 S
C858 C862 1.387 . S
C859 H834 0.951 . S
C859 C857 1.388 . S
C859 C860 1.366 . S
C860 C859 1.366 . S
C860 C861 1.414 1_554 S
C860 C863 1.499 . S
C861 H835 0.950 . S
C861 C860 1.414 1_556 S
C861 C862 1.374 . S
C862 H836 0.950 . S
C862 C858 1.387 . S
C862 C861 1.374 . S
C863 C860 1.499 . S
C863 C864 1.373 1_554 S
C863 C865 1.389 . S
C864 H837 0.950 . S
C864 C850 1.377 1_655 S
C864 C863 1.373 1_556 S
C865 C849 1.377 1_655 S
C865 C863 1.389 . S
C865 C866 1.524 . S
C866 C865 1.524 . S
C866 C867 1.397 . S
C866 C871 1.363 1_655 S
C867 H838 0.950 . S
C867 C866 1.397 . S
C867 C868 1.334 . S
C868 H839 0.950 . S
C868 C867 1.334 . S
C868 C869 1.287 . S
C869 C868 1.287 . S
C869 C870 1.521 . S
C869 H872 0.999 . S
C870 H840 0.952 1_655 S
C870 C869 1.521 . S
C870 C871 1.416 1_655 S
C871 H841 0.950 . S
C871 C866 1.363 1_455 S
C871 C870 1.416 1_455 S
H872 C869 0.999 . S
H873 C854 0.913 . S
H874 C892 0.951 . S
H875 C894 0.951 . S
H876 C896 0.950 . S
H877 C897 0.950 . S
H878 C899 0.950 . S
H879 C902 0.950 . S
H880 C903 0.950 . S
H881 C905 0.950 . S
H882 C906 0.950 . S
H883 C907 0.951 . S
H884 C909 0.951 . S
H885 C911 0.950 . S
H886 C912 0.950 . S
H887 C914 0.950 . S
H888 C917 0.950 . S
H889 C918 0.950 . S
H890 C920 0.950 . S
H891 C921 0.950 . S
C892 H874 0.951 . S
C892 C893 1.366 . S
C892 C894 1.388 . S
C893 C892 1.366 . S
C893 C897 1.385 . S
C894 H875 0.951 . S
C894 C892 1.388 . S
C894 C895 1.366 . S
C895 C894 1.366 . S
C895 C896 1.414 . S
C895 C898 1.499 . S
C896 H876 0.950 . S
C896 C895 1.414 . S
C896 C897 1.374 . S
C897 H877 0.950 . S
C897 C893 1.385 . S
C897 C896 1.374 . S
C898 C895 1.499 . S
C898 C899 1.373 . S
C898 C900 1.389 . S
C899 H878 0.950 . S
C899 C898 1.373 . S
C899 C915 1.377 . S
C900 C898 1.389 . S
C900 C901 1.524 . S
C900 C914 1.377 . S
C901 C900 1.524 . S
C901 C902 1.397 . S
C901 C906 1.363 . S
C902 H879 0.950 . S
C902 C901 1.397 . S
C902 C903 1.334 . S
C903 H880 0.950 . S
C903 C902 1.334 . S
C903 C904 1.287 . S
C904 C903 1.287 . S
C904 C905 1.524 . S
C904 H923 0.913 . S
C905 H881 0.950 . S
C905 C904 1.524 . S
C905 C906 1.415 . S
C906 H882 0.950 . S
C906 C901 1.363 . S
C906 C905 1.415 . S
C907 H883 0.951 . S
C907 C908 1.366 . S
C907 C909 1.388 . S
C908 C907 1.366 . S
C908 C912 1.385 . S
C909 H884 0.951 . S
C909 C907 1.388 . S
C909 C910 1.366 . S
C910 C909 1.366 . S
C910 C911 1.414 . S
C910 C913 1.499 . S
C911 H885 0.950 . S
C911 C910 1.414 . S
C911 C912 1.374 . S
C912 H886 0.950 . S
C912 C908 1.385 . S
C912 C911 1.374 . S
C913 C910 1.499 . S
C913 C914 1.373 . S
C913 C915 1.389 . S
C914 H887 0.950 . S
C914 C900 1.377 . S
C914 C913 1.373 . S
C915 C899 1.377 . S
C915 C913 1.389 . S
C915 C916 1.524 . S
C916 C915 1.524 . S
C916 C917 1.397 . S
C916 C921 1.363 . S
C917 H888 0.950 . S
C917 C916 1.397 . S
C917 C918 1.334 . S
C918 H889 0.950 . S
C918 C917 1.334 . S
C918 C919 1.287 . S
C919 C918 1.287 . S
C919 C920 1.524 . S
C919 H922 0.999 . S
C920 H890 0.950 . S
C920 C919 1.524 . S
C920 C921 1.415 . S
C921 H891 0.950 . S
C921 C916 1.363 . S
C921 C920 1.415 . S
H922 C919 0.999 . S
H923 C904 0.913 . S
H924 C942 0.951 . S
H925 C944 0.951 . S
H926 C946 0.950 1_565 S
H927 C947 0.950 . S
H928 C949 0.950 . S
H929 C952 0.950 . S
H930 C953 0.950 . S
H931 C955 0.950 . S
H932 C956 0.950 . S
H933 C957 0.951 . S
H934 C959 0.951 . S
H935 C961 0.950 1_545 S
H936 C962 0.950 . S
H937 C964 0.950 . S
H938 C967 0.950 . S
H939 C968 0.950 . S
H940 C970 0.950 . S
H941 C971 0.950 . S
C942 H924 0.951 . S
C942 C943 1.366 . S
C942 C944 1.388 . S
C943 C942 1.366 . S
C943 C947 1.385 . S
C944 H925 0.951 . S
C944 C942 1.388 . S
C944 C945 1.366 . S
C945 C944 1.366 . S
C945 C946 1.414 . S
C945 C948 1.499 . S
C946 H926 0.950 1_545 S
C946 C945 1.414 . S
C946 C947 1.374 . S
C947 H927 0.950 . S
C947 C943 1.385 . S
C947 C946 1.374 . S
C948 C945 1.499 . S
C948 C949 1.373 1_545 S
C948 C950 1.389 . S
C949 H928 0.950 . S
C949 C948 1.373 1_565 S
C949 C965 1.377 . S
C950 C948 1.389 . S
C950 C951 1.524 . S
C950 C964 1.377 . S
C951 C950 1.524 . S
C951 C952 1.397 . S
C951 C956 1.363 . S
C952 H929 0.950 . S
C952 C951 1.397 . S
C952 C953 1.334 . S
C953 H930 0.950 . S
C953 C952 1.334 . S
C953 C954 1.287 . S
C954 C953 1.287 . S
C954 C955 1.524 . S
C954 H973 0.913 . S
C955 H931 0.950 . S
C955 C954 1.524 . S
C955 C956 1.415 . S
C956 H932 0.950 . S
C956 C951 1.363 . S
C956 C955 1.415 . S
C957 H933 0.951 . S
C957 C958 1.366 . S
C957 C959 1.388 . S
C958 C957 1.366 . S
C958 C962 1.385 . S
C959 H934 0.951 . S
C959 C957 1.388 . S
C959 C960 1.366 . S
C960 C959 1.366 . S
C960 C961 1.414 . S
C960 C963 1.499 . S
C961 H935 0.950 1_565 S
C961 C960 1.414 . S
C961 C962 1.374 . S
C962 H936 0.950 . S
C962 C958 1.385 . S
C962 C961 1.374 . S
C963 C960 1.499 . S
C963 C964 1.373 1_565 S
C963 C965 1.389 . S
C964 H937 0.950 . S
C964 C950 1.377 . S
C964 C963 1.373 1_545 S
C965 C949 1.377 . S
C965 C963 1.389 . S
C965 C966 1.524 . S
C966 C965 1.524 . S
C966 C967 1.397 . S
C966 C971 1.363 . S
C967 H938 0.950 . S
C967 C966 1.397 . S
C967 C968 1.334 . S
C968 H939 0.950 . S
C968 C967 1.334 . S
C968 C969 1.287 . S
C969 C968 1.287 . S
C969 C970 1.524 . S
C969 H972 0.999 . S
C970 H940 0.950 . S
C970 C969 1.524 . S
C970 C971 1.415 . S
C971 H941 0.950 . S
C971 C966 1.363 . S
C971 C970 1.415 . S
H972 C969 0.999 . S
H973 C954 0.913 . S
H974 C992 0.951 . S
H975 C994 0.951 . S
H976 C996 0.950 . S
H977 C997 0.950 . S
H978 C999 0.950 . S
H979 C1002 0.950 . S
H980 C1003 0.950 . S
H981 C1005 0.950 . S
H982 C1006 0.950 1_655 S
H983 C1007 0.951 . S
H984 C1009 0.951 . S
H985 C1011 0.950 . S
H986 C1012 0.950 . S
H987 C1014 0.950 . S
H988 C1017 0.950 . S
H989 C1018 0.950 . S
H990 C1020 0.950 . S
H991 C1021 0.950 1_455 S
C992 H974 0.951 . S
C992 C993 1.366 . S
C992 C994 1.388 . S
C993 C992 1.366 . S
C993 C997 1.385 . S
C994 H975 0.951 . S
C994 C992 1.388 . S
C994 C995 1.366 . S
C995 C994 1.366 . S
C995 C996 1.414 . S
C995 C998 1.499 . S
C996 H976 0.950 . S
C996 C995 1.414 . S
C996 C997 1.374 . S
C997 H977 0.950 . S
C997 C993 1.385 . S
C997 C996 1.374 . S
C998 C995 1.499 . S
C998 C999 1.373 . S
C998 C1000 1.389 . S
C999 H978 0.950 . S
C999 C998 1.373 . S
C999 C1015 1.377 1_445 S
C1000 C998 1.389 . S
C1000 C1001 1.524 . S
C1000 C1014 1.377 1_445 S
C1001 C1000 1.524 . S
C1001 C1002 1.397 . S
C1001 C1006 1.363 . S
C1002 H979 0.950 . S
C1002 C1001 1.397 . S
C1002 C1003 1.334 . S
C1003 H980 0.950 . S
C1003 C1002 1.334 . S
C1003 C1004 1.287 . S
C1004 C1003 1.287 . S
C1004 C1005 1.524 . S
C1004 H1023 0.913 . S
C1005 H981 0.950 . S
C1005 C1004 1.524 . S
C1005 C1006 1.415 . S
C1006 H982 0.950 1_455 S
C1006 C1001 1.363 . S
C1006 C1005 1.415 . S
C1007 H983 0.951 . S
C1007 C1008 1.366 . S
C1007 C1009 1.388 . S
C1008 C1007 1.366 . S
C1008 C1012 1.385 . S
C1009 H984 0.951 . S
C1009 C1007 1.388 . S
C1009 C1010 1.366 . S
C1010 C1009 1.366 . S
C1010 C1011 1.414 . S
C1010 C1013 1.499 . S
C1011 H985 0.950 . S
C1011 C1010 1.414 . S
C1011 C1012 1.374 . S
C1012 H986 0.950 . S
C1012 C1008 1.385 . S
C1012 C1011 1.374 . S
C1013 C1010 1.499 . S
C1013 C1014 1.373 . S
C1013 C1015 1.389 . S
C1014 H987 0.950 . S
C1014 C1000 1.377 1_665 S
C1014 C1013 1.373 . S
C1015 C999 1.377 1_665 S
C1015 C1013 1.389 . S
C1015 C1016 1.524 . S
C1016 C1015 1.524 . S
C1016 C1017 1.397 . S
C1016 C1021 1.363 . S
C1017 H988 0.950 . S
C1017 C1016 1.397 . S
C1017 C1018 1.334 . S
C1018 H989 0.950 . S
C1018 C1017 1.334 . S
C1018 C1019 1.287 . S
C1019 C1018 1.287 . S
C1019 C1020 1.524 . S
C1019 H1022 0.999 . S
C1020 H990 0.950 . S
C1020 C1019 1.524 . S
C1020 C1021 1.415 . S
C1021 H991 0.950 1_655 S
C1021 C1016 1.363 . S
C1021 C1020 1.415 . S
H1022 C1019 0.999 . S
H1023 C1004 0.913 . S
H1024 C1042 0.951 . S
H1025 C1044 0.951 . S
H1026 C1046 0.950 . S
H1027 C1047 0.950 . S
H1028 C1049 0.950 . S
H1029 C1052 0.950 . S
H1030 C1053 0.950 . S
H1031 C1055 0.950 . S
H1032 C1056 0.950 . S
H1033 C1057 0.951 . S
H1034 C1059 0.951 . S
H1035 C1061 0.950 . S
H1036 C1062 0.950 . S
H1037 C1064 0.950 . S
H1038 C1067 0.950 . S
H1039 C1068 0.950 . S
H1040 C1070 0.950 . S
H1041 C1071 0.950 . S
C1042 H1024 0.951 . S
C1042 C1043 1.366 . S
C1042 C1044 1.388 . S
C1043 C1042 1.366 . S
C1043 C1047 1.385 . S
C1044 H1025 0.951 . S
C1044 C1042 1.388 . S
C1044 C1045 1.366 . S
C1045 C1044 1.366 . S
C1045 C1046 1.414 . S
C1045 C1048 1.499 . S
C1046 H1026 0.950 . S
C1046 C1045 1.414 . S
C1046 C1047 1.374 . S
C1047 H1027 0.950 . S
C1047 C1043 1.385 . S
C1047 C1046 1.374 . S
C1048 C1045 1.499 . S
C1048 C1049 1.373 . S
C1048 C1050 1.389 . S
C1049 H1028 0.950 . S
C1049 C1048 1.373 . S
C1049 C1065 1.377 . S
C1050 C1048 1.389 . S
C1050 C1051 1.524 . S
C1050 C1064 1.377 . S
C1051 C1050 1.524 . S
C1051 C1052 1.397 . S
C1051 C1056 1.363 . S
C1052 H1029 0.950 . S
C1052 C1051 1.397 . S
C1052 C1053 1.334 . S
C1053 H1030 0.950 . S
C1053 C1052 1.334 . S
C1053 C1054 1.287 . S
C1054 C1053 1.287 . S
C1054 C1055 1.524 . S
C1054 H1073 0.913 . S
C1055 H1031 0.950 . S
C1055 C1054 1.524 . S
C1055 C1056 1.415 . S
C1056 H1032 0.950 . S
C1056 C1051 1.363 . S
C1056 C1055 1.415 . S
C1057 H1033 0.951 . S
C1057 C1058 1.366 . S
C1057 C1059 1.388 . S
C1058 C1057 1.366 . S
C1058 C1062 1.385 . S
C1059 H1034 0.951 . S
C1059 C1057 1.388 . S
C1059 C1060 1.366 . S
C1060 C1059 1.366 . S
C1060 C1061 1.414 . S
C1060 C1063 1.499 . S
C1061 H1035 0.950 . S
C1061 C1060 1.414 . S
C1061 C1062 1.374 . S
C1062 H1036 0.950 . S
C1062 C1058 1.385 . S
C1062 C1061 1.374 . S
C1063 C1060 1.499 . S
C1063 C1064 1.373 . S
C1063 C1065 1.389 . S
C1064 H1037 0.950 . S
C1064 C1050 1.377 . S
C1064 C1063 1.373 . S
C1065 C1049 1.377 . S
C1065 C1063 1.389 . S
C1065 C1066 1.524 . S
C1066 C1065 1.524 . S
C1066 C1067 1.397 . S
C1066 C1071 1.363 . S
C1067 H1038 0.950 . S
C1067 C1066 1.397 . S
C1067 C1068 1.334 . S
C1068 H1039 0.950 . S
C1068 C1067 1.334 . S
C1068 C1069 1.287 . S
C1069 C1068 1.287 . S
C1069 C1070 1.524 . S
C1069 H1072 0.999 . S
C1070 H1040 0.950 . S
C1070 C1069 1.524 . S
C1070 C1071 1.415 . S
C1071 H1041 0.950 . S
C1071 C1066 1.363 . S
C1071 C1070 1.415 . S
H1072 C1069 0.999 . S
H1073 C1054 0.913 . S
H1074 C1092 0.951 . S
H1075 C1094 0.951 . S
H1076 C1096 0.950 . S
H1077 C1097 0.950 . S
H1078 C1099 0.950 . S
H1079 C1102 0.950 . S
H1080 C1103 0.950 . S
H1081 C1105 0.950 . S
H1082 C1106 0.950 . S
H1083 C1107 0.951 . S
H1084 C1109 0.951 . S
H1085 C1111 0.950 . S
H1086 C1112 0.950 . S
H1087 C1114 0.950 . S
H1088 C1117 0.950 . S
H1089 C1118 0.950 . S
H1090 C1120 0.950 . S
H1091 C1121 0.950 . S
C1092 H1074 0.951 . S
C1092 C1093 1.366 . S
C1092 C1094 1.388 . S
C1093 C1092 1.366 . S
C1093 C1097 1.385 . S
C1094 H1075 0.951 . S
C1094 C1092 1.388 . S
C1094 C1095 1.366 . S
C1095 C1094 1.366 . S
C1095 C1096 1.414 . S
C1095 C1098 1.499 . S
C1096 H1076 0.950 . S
C1096 C1095 1.414 . S
C1096 C1097 1.374 . S
C1097 H1077 0.950 . S
C1097 C1093 1.385 . S
C1097 C1096 1.374 . S
C1098 C1095 1.499 . S
C1098 C1099 1.373 . S
C1098 C1100 1.389 . S
C1099 H1078 0.950 . S
C1099 C1098 1.373 . S
C1099 C1115 1.377 . S
C1100 C1098 1.389 . S
C1100 C1101 1.524 . S
C1100 C1114 1.377 . S
C1101 C1100 1.524 . S
C1101 C1102 1.397 . S
C1101 C1106 1.363 . S
C1102 H1079 0.950 . S
C1102 C1101 1.397 . S
C1102 C1103 1.334 . S
C1103 H1080 0.950 . S
C1103 C1102 1.334 . S
C1103 C1104 1.287 . S
C1104 C1103 1.287 . S
C1104 C1105 1.524 . S
C1104 H1123 0.913 . S
C1105 H1081 0.950 . S
C1105 C1104 1.524 . S
C1105 C1106 1.415 . S
C1106 H1082 0.950 . S
C1106 C1101 1.363 . S
C1106 C1105 1.415 . S
C1107 H1083 0.951 . S
C1107 C1108 1.366 . S
C1107 C1109 1.388 . S
C1108 C1107 1.366 . S
C1108 C1112 1.385 . S
C1109 H1084 0.951 . S
C1109 C1107 1.388 . S
C1109 C1110 1.366 . S
C1110 C1109 1.366 . S
C1110 C1111 1.414 . S
C1110 C1113 1.499 . S
C1111 H1085 0.950 . S
C1111 C1110 1.414 . S
C1111 C1112 1.374 . S
C1112 H1086 0.950 . S
C1112 C1108 1.385 . S
C1112 C1111 1.374 . S
C1113 C1110 1.499 . S
C1113 C1114 1.373 . S
C1113 C1115 1.389 . S
C1114 H1087 0.950 . S
C1114 C1100 1.377 . S
C1114 C1113 1.373 . S
C1115 C1099 1.377 . S
C1115 C1113 1.389 . S
C1115 C1116 1.524 . S
C1116 C1115 1.524 . S
C1116 C1117 1.397 . S
C1116 C1121 1.363 . S
C1117 H1088 0.950 . S
C1117 C1116 1.397 . S
C1117 C1118 1.334 . S
C1118 H1089 0.950 . S
C1118 C1117 1.334 . S
C1118 C1119 1.287 . S
C1119 C1118 1.287 . S
C1119 C1120 1.524 . S
C1119 H1122 0.999 . S
C1120 H1090 0.950 . S
C1120 C1119 1.524 . S
C1120 C1121 1.415 . S
C1121 H1091 0.950 . S
C1121 C1116 1.363 . S
C1121 C1120 1.415 . S
H1122 C1119 0.999 . S
H1123 C1104 0.913 . S
H1124 C1142 0.951 . S
H1125 C1144 0.951 . S
H1126 C1146 0.950 . S
H1127 C1147 0.950 . S
H1128 C1149 0.950 . S
H1129 C1152 0.950 . S
H1130 C1153 0.950 . S
H1131 C1155 0.950 . S
H1132 C1156 0.950 . S
H1133 C1157 0.951 . S
H1134 C1159 0.951 . S
H1135 C1161 0.950 . S
H1136 C1162 0.950 . S
H1137 C1164 0.950 1_556 S
H1138 C1167 0.950 . S
H1139 C1168 0.950 . S
H1140 C1170 0.950 . S
H1141 C1171 0.950 . S
C1142 H1124 0.951 . S
C1142 C1143 1.366 . S
C1142 C1144 1.388 . S
C1143 C1142 1.366 . S
C1143 C1147 1.385 . S
C1144 H1125 0.951 . S
C1144 C1142 1.388 . S
C1144 C1145 1.366 . S
C1145 C1144 1.366 . S
C1145 C1146 1.414 . S
C1145 C1148 1.499 . S
C1146 H1126 0.950 . S
C1146 C1145 1.414 . S
C1146 C1147 1.374 . S
C1147 H1127 0.950 . S
C1147 C1143 1.385 . S
C1147 C1146 1.374 . S
C1148 C1145 1.499 . S
C1148 C1149 1.373 . S
C1148 C1150 1.389 . S
C1149 H1128 0.950 . S
C1149 C1148 1.373 . S
C1149 C1165 1.377 . S
C1150 C1148 1.389 . S
C1150 C1151 1.524 . S
C1150 C1164 1.377 . S
C1151 C1150 1.524 . S
C1151 C1152 1.397 . S
C1151 C1156 1.363 . S
C1152 H1129 0.950 . S
C1152 C1151 1.397 . S
C1152 C1153 1.334 . S
C1153 H1130 0.950 . S
C1153 C1152 1.334 . S
C1153 C1154 1.287 . S
C1154 C1153 1.287 . S
C1154 C1155 1.524 . S
C1154 H1173 0.913 . S
C1155 H1131 0.950 . S
C1155 C1154 1.524 . S
C1155 C1156 1.415 . S
C1156 H1132 0.950 . S
C1156 C1151 1.363 . S
C1156 C1155 1.415 . S
C1157 H1133 0.951 . S
C1157 C1158 1.366 . S
C1157 C1159 1.388 . S
C1158 C1157 1.366 . S
C1158 C1162 1.385 . S
C1159 H1134 0.951 . S
C1159 C1157 1.388 . S
C1159 C1160 1.366 . S
C1160 C1159 1.366 . S
C1160 C1161 1.414 . S
C1160 C1163 1.499 . S
C1161 H1135 0.950 . S
C1161 C1160 1.414 . S
C1161 C1162 1.374 . S
C1162 H1136 0.950 . S
C1162 C1158 1.385 . S
C1162 C1161 1.374 . S
C1163 C1160 1.499 . S
C1163 C1164 1.373 1_556 S
C1163 C1165 1.389 1_556 S
C1164 H1137 0.950 1_554 S
C1164 C1150 1.377 . S
C1164 C1163 1.373 1_554 S
C1165 C1149 1.377 . S
C1165 C1163 1.389 1_554 S
C1165 C1166 1.531 . S
C1166 C1165 1.531 . S
C1166 C1167 1.390 1_554 S
C1166 C1171 1.365 . S
C1167 H1138 0.950 . S
C1167 C1166 1.390 1_556 S
C1167 C1168 1.334 . S
C1168 H1139 0.950 . S
C1168 C1167 1.334 . S
C1168 C1169 1.287 . S
C1169 C1168 1.287 . S
C1169 C1170 1.524 . S
C1169 H1172 0.999 . S
C1170 H1140 0.950 . S
C1170 C1169 1.524 . S
C1170 C1171 1.415 1_556 S
C1171 H1141 0.950 . S
C1171 C1166 1.365 . S
C1171 C1170 1.415 1_554 S
H1172 C1169 0.999 . S
H1173 C1154 0.913 . S
H1174 C1192 0.951 . S
H1175 C1194 0.951 . S
H1176 C1196 0.950 . S
H1177 C1197 0.950 . S
H1178 C1199 0.950 . S
H1179 C1202 0.950 . S
H1180 C1203 0.950 . S
H1181 C1205 0.950 . S
H1182 C1206 0.950 . S
H1183 C1207 0.951 . S
H1184 C1209 0.951 . S
H1185 C1211 0.950 . S
H1186 C1212 0.950 . S
H1187 C1214 0.950 . S
H1188 C1217 0.950 . S
H1189 C1218 0.950 . S
H1190 C1220 0.950 . S
H1191 C1221 0.950 . S
C1192 H1174 0.951 . S
C1192 C1193 1.366 . S
C1192 C1194 1.388 . S
C1193 C1192 1.366 . S
C1193 C1197 1.385 . S
C1194 H1175 0.951 . S
C1194 C1192 1.388 . S
C1194 C1195 1.366 . S
C1195 C1194 1.366 . S
C1195 C1196 1.414 . S
C1195 C1198 1.499 . S
C1196 H1176 0.950 . S
C1196 C1195 1.414 . S
C1196 C1197 1.374 . S
C1197 H1177 0.950 . S
C1197 C1193 1.385 . S
C1197 C1196 1.374 . S
C1198 C1195 1.499 . S
C1198 C1199 1.373 . S
C1198 C1200 1.389 . S
C1199 H1178 0.950 . S
C1199 C1198 1.373 . S
C1199 C1215 1.377 . S
C1200 C1198 1.389 . S
C1200 C1201 1.524 . S
C1200 C1214 1.377 . S
C1201 C1200 1.524 . S
C1201 C1202 1.397 . S
C1201 C1206 1.363 . S
C1202 H1179 0.950 . S
C1202 C1201 1.397 . S
C1202 C1203 1.334 . S
C1203 H1180 0.950 . S
C1203 C1202 1.334 . S
C1203 C1204 1.287 . S
C1204 C1203 1.287 . S
C1204 C1205 1.524 . S
C1204 H1223 0.913 . S
C1205 H1181 0.950 . S
C1205 C1204 1.524 . S
C1205 C1206 1.415 . S
C1206 H1182 0.950 . S
C1206 C1201 1.363 . S
C1206 C1205 1.415 . S
C1207 H1183 0.951 . S
C1207 C1208 1.366 . S
C1207 C1209 1.388 . S
C1208 C1207 1.366 . S
C1208 C1212 1.385 . S
C1209 H1184 0.951 . S
C1209 C1207 1.388 . S
C1209 C1210 1.366 . S
C1210 C1209 1.366 . S
C1210 C1211 1.414 . S
C1210 C1213 1.499 . S
C1211 H1185 0.950 . S
C1211 C1210 1.414 . S
C1211 C1212 1.374 . S
C1212 H1186 0.950 . S
C1212 C1208 1.385 . S
C1212 C1211 1.374 . S
C1213 C1210 1.499 . S
C1213 C1214 1.373 . S
C1213 C1215 1.389 . S
C1214 H1187 0.950 . S
C1214 C1200 1.377 . S
C1214 C1213 1.373 . S
C1215 C1199 1.377 . S
C1215 C1213 1.389 . S
C1215 C1216 1.524 . S
C1216 C1215 1.524 . S
C1216 C1217 1.397 . S
C1216 C1221 1.363 . S
C1217 H1188 0.950 . S
C1217 C1216 1.397 . S
C1217 C1218 1.334 . S
C1218 H1189 0.950 . S
C1218 C1217 1.334 . S
C1218 C1219 1.287 . S
C1219 C1218 1.287 . S
C1219 C1220 1.524 . S
C1219 H1222 0.999 . S
C1220 H1190 0.950 . S
C1220 C1219 1.524 . S
C1220 C1221 1.415 . S
C1221 H1191 0.950 . S
C1221 C1216 1.363 . S
C1221 C1220 1.415 . S
H1222 C1219 0.999 . S
H1223 C1204 0.913 . S
H1224 C1242 0.951 . S
H1225 C1244 0.951 . S
H1226 C1246 0.950 . S
H1227 C1247 0.950 . S
H1228 C1249 0.950 . S
H1229 C1252 0.950 . S
H1230 C1253 0.950 . S
H1231 C1255 0.950 . S
H1232 C1256 0.950 . S
H1233 C1257 0.951 . S
H1234 C1259 0.951 . S
H1235 C1261 0.950 . S
H1236 C1262 0.950 . S
H1237 C1264 0.950 . S
H1238 C1267 0.950 . S
H1239 C1268 0.950 . S
H1240 C1270 0.950 . S
H1241 C1271 0.950 . S
C1242 H1224 0.951 . S
C1242 C1243 1.366 . S
C1242 C1244 1.388 . S
C1243 C1242 1.366 . S
C1243 C1247 1.385 . S
C1244 H1225 0.951 . S
C1244 C1242 1.388 . S
C1244 C1245 1.366 . S
C1245 C1244 1.366 . S
C1245 C1246 1.414 . S
C1245 C1248 1.499 . S
C1246 H1226 0.950 . S
C1246 C1245 1.414 . S
C1246 C1247 1.374 . S
C1247 H1227 0.950 . S
C1247 C1243 1.385 . S
C1247 C1246 1.374 . S
C1248 C1245 1.499 . S
C1248 C1249 1.373 . S
C1248 C1250 1.389 . S
C1249 H1228 0.950 . S
C1249 C1248 1.373 . S
C1249 C1265 1.377 . S
C1250 C1248 1.389 . S
C1250 C1251 1.524 . S
C1250 C1264 1.377 . S
C1251 C1250 1.524 . S
C1251 C1252 1.397 . S
C1251 C1256 1.363 . S
C1252 H1229 0.950 . S
C1252 C1251 1.397 . S
C1252 C1253 1.334 . S
C1253 H1230 0.950 . S
C1253 C1252 1.334 . S
C1253 C1254 1.287 . S
C1254 C1253 1.287 . S
C1254 C1255 1.524 . S
C1254 H1273 0.913 . S
C1255 H1231 0.950 . S
C1255 C1254 1.524 . S
C1255 C1256 1.415 . S
C1256 H1232 0.950 . S
C1256 C1251 1.363 . S
C1256 C1255 1.415 . S
C1257 H1233 0.951 . S
C1257 C1258 1.366 . S
C1257 C1259 1.388 . S
C1258 C1257 1.366 . S
C1258 C1262 1.385 . S
C1259 H1234 0.951 . S
C1259 C1257 1.388 . S
C1259 C1260 1.366 . S
C1260 C1259 1.366 . S
C1260 C1261 1.414 . S
C1260 C1263 1.499 . S
C1261 H1235 0.950 . S
C1261 C1260 1.414 . S
C1261 C1262 1.374 . S
C1262 H1236 0.950 . S
C1262 C1258 1.385 . S
C1262 C1261 1.374 . S
C1263 C1260 1.499 . S
C1263 C1264 1.373 . S
C1263 C1265 1.389 . S
C1264 H1237 0.950 . S
C1264 C1250 1.377 . S
C1264 C1263 1.373 . S
C1265 C1249 1.377 . S
C1265 C1263 1.389 . S
C1265 C1266 1.524 . S
C1266 C1265 1.524 . S
C1266 C1267 1.397 . S
C1266 C1271 1.363 . S
C1267 H1238 0.950 . S
C1267 C1266 1.397 . S
C1267 C1268 1.334 . S
C1268 H1239 0.950 . S
C1268 C1267 1.334 . S
C1268 C1269 1.287 . S
C1269 C1268 1.287 . S
C1269 C1270 1.524 . S
C1269 H1272 0.999 . S
C1270 H1240 0.950 . S
C1270 C1269 1.524 . S
C1270 C1271 1.415 . S
C1271 H1241 0.950 . S
C1271 C1266 1.363 . S
C1271 C1270 1.415 . S
H1272 C1269 0.999 . S
H1273 C1254 0.913 . S
H1274 C1292 0.951 . S
H1275 C1294 0.951 . S
H1276 C1296 0.950 . S
H1277 C1297 0.950 . S
H1278 C1299 0.950 . S
H1279 C1302 0.950 . S
H1280 C1303 0.950 . S
H1281 C1305 0.950 . S
H1282 C1306 0.950 . S
H1283 C1307 0.951 . S
H1284 C1309 0.951 . S
H1285 C1311 0.950 . S
H1286 C1312 0.950 . S
H1287 C1314 0.950 1_556 S
H1288 C1317 0.950 . S
H1289 C1318 0.950 . S
H1290 C1320 0.950 1_554 S
H1291 C1321 0.950 . S
C1292 H1274 0.951 . S
C1292 C1293 1.366 . S
C1292 C1294 1.388 . S
C1293 C1292 1.366 . S
C1293 C1297 1.385 . S
C1294 H1275 0.951 . S
C1294 C1292 1.388 . S
C1294 C1295 1.366 . S
C1295 C1294 1.366 . S
C1295 C1296 1.414 . S
C1295 C1298 1.499 . S
C1296 H1276 0.950 . S
C1296 C1295 1.414 . S
C1296 C1297 1.374 . S
C1297 H1277 0.950 . S
C1297 C1293 1.385 . S
C1297 C1296 1.374 . S
C1298 C1295 1.499 . S
C1298 C1299 1.373 . S
C1298 C1300 1.389 . S
C1299 H1278 0.950 . S
C1299 C1298 1.373 . S
C1299 C1315 1.377 . S
C1300 C1298 1.389 . S
C1300 C1301 1.524 . S
C1300 C1314 1.377 . S
C1301 C1300 1.524 . S
C1301 C1302 1.397 . S
C1301 C1306 1.363 . S
C1302 H1279 0.950 . S
C1302 C1301 1.397 . S
C1302 C1303 1.334 . S
C1303 H1280 0.950 . S
C1303 C1302 1.334 . S
C1303 C1304 1.287 . S
C1304 C1303 1.287 . S
C1304 C1305 1.524 . S
C1304 H1323 0.913 . S
C1305 H1281 0.950 . S
C1305 C1304 1.524 . S
C1305 C1306 1.415 . S
C1306 H1282 0.950 . S
C1306 C1301 1.363 . S
C1306 C1305 1.415 . S
C1307 H1283 0.951 . S
C1307 C1308 1.366 . S
C1307 C1309 1.388 . S
C1308 C1307 1.366 . S
C1308 C1312 1.385 . S
C1309 H1284 0.951 . S
C1309 C1307 1.388 . S
C1309 C1310 1.366 . S
C1310 C1309 1.366 . S
C1310 C1311 1.414 . S
C1310 C1313 1.499 . S
C1311 H1285 0.950 . S
C1311 C1310 1.414 . S
C1311 C1312 1.374 . S
C1312 H1286 0.950 . S
C1312 C1308 1.385 . S
C1312 C1311 1.374 . S
C1313 C1310 1.499 . S
C1313 C1314 1.373 1_556 S
C1313 C1315 1.389 1_556 S
C1314 H1287 0.950 1_554 S
C1314 C1300 1.377 . S
C1314 C1313 1.373 1_554 S
C1315 C1299 1.377 . S
C1315 C1313 1.389 1_554 S
C1315 C1316 1.524 1_554 S
C1316 C1315 1.524 1_556 S
C1316 C1317 1.397 . S
C1316 C1321 1.363 1_556 S
C1317 H1288 0.950 . S
C1317 C1316 1.397 . S
C1317 C1318 1.334 . S
C1318 H1289 0.950 . S
C1318 C1317 1.334 . S
C1318 C1319 1.287 . S
C1319 C1318 1.287 . S
C1319 C1320 1.524 . S
C1319 H1322 0.999 . S
C1320 H1290 0.950 1_556 S
C1320 C1319 1.524 . S
C1320 C1321 1.415 1_556 S
C1321 H1291 0.950 . S
C1321 C1316 1.363 1_554 S
C1321 C1320 1.415 1_554 S
H1322 C1319 0.999 . S
H1323 C1304 0.913 . S
H1324 C1342 0.951 . S
H1325 C1344 0.951 . S
H1326 C1346 0.950 . S
H1327 C1347 0.950 . S
H1328 C1349 0.950 . S
H1329 C1352 0.950 . S
H1330 C1353 0.950 . S
H1331 C1355 0.950 . S
H1332 C1356 0.950 . S
H1333 C1357 0.951 . S
H1334 C1359 0.951 . S
H1335 C1361 0.950 . S
H1336 C1362 0.950 . S
H1337 C1364 0.950 . S
H1338 C1367 0.950 . S
H1339 C1368 0.950 . S
H1340 C1370 0.950 . S
H1341 C1371 0.950 . S
C1342 H1324 0.951 . S
C1342 C1343 1.366 . S
C1342 C1344 1.388 . S
C1343 C1342 1.366 . S
C1343 C1347 1.385 . S
C1344 H1325 0.951 . S
C1344 C1342 1.388 . S
C1344 C1345 1.366 . S
C1345 C1344 1.366 . S
C1345 C1346 1.414 . S
C1345 C1348 1.499 . S
C1346 H1326 0.950 . S
C1346 C1345 1.414 . S
C1346 C1347 1.374 . S
C1347 H1327 0.950 . S
C1347 C1343 1.385 . S
C1347 C1346 1.374 . S
C1348 C1345 1.499 . S
C1348 C1349 1.373 . S
C1348 C1350 1.389 . S
C1349 H1328 0.950 . S
C1349 C1348 1.373 . S
C1349 C1365 1.377 . S
C1350 C1348 1.389 . S
C1350 C1351 1.524 . S
C1350 C1364 1.377 . S
C1351 C1350 1.524 . S
C1351 C1352 1.397 . S
C1351 C1356 1.363 . S
C1352 H1329 0.950 . S
C1352 C1351 1.397 . S
C1352 C1353 1.334 . S
C1353 H1330 0.950 . S
C1353 C1352 1.334 . S
C1353 C1354 1.287 . S
C1354 C1353 1.287 . S
C1354 C1355 1.524 . S
C1354 H1373 0.913 . S
C1355 H1331 0.950 . S
C1355 C1354 1.524 . S
C1355 C1356 1.415 . S
C1356 H1332 0.950 . S
C1356 C1351 1.363 . S
C1356 C1355 1.415 . S
C1357 H1333 0.951 . S
C1357 C1358 1.366 . S
C1357 C1359 1.388 . S
C1358 C1357 1.366 . S
C1358 C1362 1.385 . S
C1359 H1334 0.951 . S
C1359 C1357 1.388 . S
C1359 C1360 1.366 . S
C1360 C1359 1.366 . S
C1360 C1361 1.414 . S
C1360 C1363 1.499 . S
C1361 H1335 0.950 . S
C1361 C1360 1.414 . S
C1361 C1362 1.374 . S
C1362 H1336 0.950 . S
C1362 C1358 1.385 . S
C1362 C1361 1.374 . S
C1363 C1360 1.499 . S
C1363 C1364 1.373 . S
C1363 C1365 1.389 . S
C1364 H1337 0.950 . S
C1364 C1350 1.377 . S
C1364 C1363 1.373 . S
C1365 C1349 1.377 . S
C1365 C1363 1.389 . S
C1365 C1366 1.524 . S
C1366 C1365 1.524 . S
C1366 C1367 1.397 . S
C1366 C1371 1.363 . S
C1367 H1338 0.950 . S
C1367 C1366 1.397 . S
C1367 C1368 1.334 . S
C1368 H1339 0.950 . S
C1368 C1367 1.334 . S
C1368 C1369 1.287 . S
C1369 C1368 1.287 . S
C1369 C1370 1.524 . S
C1369 H1372 0.999 . S
C1370 H1340 0.950 . S
C1370 C1369 1.524 . S
C1370 C1371 1.415 . S
C1371 H1341 0.950 . S
C1371 C1366 1.363 . S
C1371 C1370 1.415 . S
H1372 C1369 0.999 . S
H1373 C1354 0.913 . S
H1374 C1392 0.951 . S
H1375 C1394 0.951 . S
H1376 C1396 0.950 . S
H1377 C1397 0.950 . S
H1378 C1399 0.950 . S
H1379 C1402 0.950 . S
H1380 C1403 0.950 . S
H1381 C1405 0.950 . S
H1382 C1406 0.950 . S
H1383 C1407 0.951 . S
H1384 C1409 0.951 . S
H1385 C1411 0.950 . S
H1386 C1412 0.950 . S
H1387 C1414 0.950 . S
H1388 C1417 0.950 . S
H1389 C1418 0.950 . S
H1390 C1420 0.950 . S
H1391 C1421 0.950 . S
C1392 H1374 0.951 . S
C1392 C1393 1.366 . S
C1392 C1394 1.388 . S
C1393 C1392 1.366 . S
C1393 C1397 1.385 . S
C1394 H1375 0.951 . S
C1394 C1392 1.388 . S
C1394 C1395 1.366 . S
C1395 C1394 1.366 . S
C1395 C1396 1.414 . S
C1395 C1398 1.499 . S
C1396 H1376 0.950 . S
C1396 C1395 1.414 . S
C1396 C1397 1.374 . S
C1397 H1377 0.950 . S
C1397 C1393 1.385 . S
C1397 C1396 1.374 . S
C1398 C1395 1.499 . S
C1398 C1399 1.373 . S
C1398 C1400 1.389 . S
C1399 H1378 0.950 . S
C1399 C1398 1.373 . S
C1399 C1415 1.377 . S
C1400 C1398 1.389 . S
C1400 C1401 1.524 . S
C1400 C1414 1.377 . S
C1401 C1400 1.524 . S
C1401 C1402 1.397 . S
C1401 C1406 1.363 . S
C1402 H1379 0.950 . S
C1402 C1401 1.397 . S
C1402 C1403 1.334 . S
C1403 H1380 0.950 . S
C1403 C1402 1.334 . S
C1403 C1404 1.287 . S
C1404 C1403 1.287 . S
C1404 C1405 1.524 . S
C1404 H1423 0.913 . S
C1405 H1381 0.950 . S
C1405 C1404 1.524 . S
C1405 C1406 1.415 . S
C1406 H1382 0.950 . S
C1406 C1401 1.363 . S
C1406 C1405 1.415 . S
C1407 H1383 0.951 . S
C1407 C1408 1.366 . S
C1407 C1409 1.388 . S
C1408 C1407 1.366 . S
C1408 C1412 1.385 . S
C1409 H1384 0.951 . S
C1409 C1407 1.388 . S
C1409 C1410 1.366 . S
C1410 C1409 1.366 . S
C1410 C1411 1.414 . S
C1410 C1413 1.499 . S
C1411 H1385 0.950 . S
C1411 C1410 1.414 . S
C1411 C1412 1.374 . S
C1412 H1386 0.950 . S
C1412 C1408 1.385 . S
C1412 C1411 1.374 . S
C1413 C1410 1.499 . S
C1413 C1414 1.373 . S
C1413 C1415 1.389 . S
C1414 H1387 0.950 . S
C1414 C1400 1.377 . S
C1414 C1413 1.373 . S
C1415 C1399 1.377 . S
C1415 C1413 1.389 . S
C1415 C1416 1.524 . S
C1416 C1415 1.524 . S
C1416 C1417 1.397 . S
C1416 C1421 1.363 . S
C1417 H1388 0.950 . S
C1417 C1416 1.397 . S
C1417 C1418 1.334 . S
C1418 H1389 0.950 . S
C1418 C1417 1.334 . S
C1418 C1419 1.287 . S
C1419 C1418 1.287 . S
C1419 C1420 1.524 . S
C1419 H1422 0.999 . S
C1420 H1390 0.950 . S
C1420 C1419 1.524 . S
C1420 C1421 1.415 . S
C1421 H1391 0.950 . S
C1421 C1416 1.363 . S
C1421 C1420 1.415 . S
H1422 C1419 0.999 . S
H1423 C1404 0.913 . S
H1424 C1442 0.951 . S
H1425 C1444 0.951 . S
H1426 C1446 0.950 . S
H1427 C1447 0.950 . S
H1428 C1449 0.950 1_556 S
H1429 C1452 0.950 . S
H1430 C1453 0.950 . S
H1431 C1455 0.950 . S
H1432 C1456 0.950 . S
H1433 C1457 0.951 . S
H1434 C1459 0.951 . S
H1435 C1461 0.950 . S
H1436 C1462 0.950 . S
H1437 C1464 0.950 . S
H1438 C1467 0.950 . S
H1439 C1468 0.950 . S
H1440 C1470 0.950 . S
H1441 C1471 0.950 . S
C1442 H1424 0.951 . S
C1442 C1443 1.366 . S
C1442 C1444 1.388 . S
C1443 C1442 1.366 . S
C1443 C1447 1.385 . S
C1444 H1425 0.951 . S
C1444 C1442 1.388 . S
C1444 C1445 1.366 . S
C1445 C1444 1.366 . S
C1445 C1446 1.414 . S
C1445 C1448 1.499 . S
C1446 H1426 0.950 . S
C1446 C1445 1.414 . S
C1446 C1447 1.374 . S
C1447 H1427 0.950 . S
C1447 C1443 1.385 . S
C1447 C1446 1.374 . S
C1448 C1445 1.499 . S
C1448 C1449 1.373 1_556 S
C1448 C1450 1.389 1_556 S
C1449 H1428 0.950 1_554 S
C1449 C1448 1.373 1_554 S
C1449 C1465 1.377 . S
C1450 C1448 1.389 1_554 S
C1450 C1451 1.514 1_554 S
C1450 C1464 1.377 . S
C1451 C1450 1.514 1_556 S
C1451 C1452 1.419 . S
C1451 C1456 1.350 1_556 S
C1452 H1429 0.950 . S
C1452 C1451 1.419 . S
C1452 C1453 1.334 . S
C1453 H1430 0.950 . S
C1453 C1452 1.334 . S
C1453 C1454 1.287 . S
C1454 C1453 1.287 . S
C1454 C1455 1.524 1_556 S
C1454 H1473 0.913 . S
C1455 H1431 0.950 . S
C1455 C1454 1.524 1_554 S
C1455 C1456 1.415 . S
C1456 H1432 0.950 . S
C1456 C1451 1.350 1_554 S
C1456 C1455 1.415 . S
C1457 H1433 0.951 . S
C1457 C1458 1.366 . S
C1457 C1459 1.388 . S
C1458 C1457 1.366 . S
C1458 C1462 1.385 . S
C1459 H1434 0.951 . S
C1459 C1457 1.388 . S
C1459 C1460 1.366 . S
C1460 C1459 1.366 . S
C1460 C1461 1.414 . S
C1460 C1463 1.499 . S
C1461 H1435 0.950 . S
C1461 C1460 1.414 . S
C1461 C1462 1.374 . S
C1462 H1436 0.950 . S
C1462 C1458 1.385 . S
C1462 C1461 1.374 . S
C1463 C1460 1.499 . S
C1463 C1464 1.373 . S
C1463 C1465 1.389 . S
C1464 H1437 0.950 . S
C1464 C1450 1.377 . S
C1464 C1463 1.373 . S
C1465 C1449 1.377 . S
C1465 C1463 1.389 . S
C1465 C1466 1.524 . S
C1466 C1465 1.524 . S
C1466 C1467 1.397 . S
C1466 C1471 1.363 . S
C1467 H1438 0.950 . S
C1467 C1466 1.397 . S
C1467 C1468 1.334 . S
C1468 H1439 0.950 . S
C1468 C1467 1.334 . S
C1468 C1469 1.287 . S
C1469 C1468 1.287 . S
C1469 C1470 1.524 . S
C1469 H1472 0.999 . S
C1470 H1440 0.950 . S
C1470 C1469 1.524 . S
C1470 C1471 1.415 . S
C1471 H1441 0.950 . S
C1471 C1466 1.363 . S
C1471 C1470 1.415 . S
H1472 C1469 0.999 . S
H1473 C1454 0.913 . S
H1474 C1492 0.951 . S
H1475 C1494 0.951 . S
H1476 C1496 0.950 . S
H1477 C1497 0.950 . S
H1478 C1499 0.950 . S
H1479 C1502 0.950 . S
H1480 C1503 0.950 . S
H1481 C1505 0.950 . S
H1482 C1506 0.950 . S
H1483 C1507 0.951 . S
H1484 C1509 0.951 . S
H1485 C1511 0.950 . S
H1486 C1512 0.950 . S
H1487 C1514 0.950 . S
H1488 C1517 0.950 . S
H1489 C1518 0.950 . S
H1490 C1520 0.950 . S
H1491 C1521 0.950 . S
C1492 H1474 0.951 . S
C1492 C1493 1.366 . S
C1492 C1494 1.388 . S
C1493 C1492 1.366 . S
C1493 C1497 1.385 . S
C1494 H1475 0.951 . S
C1494 C1492 1.388 . S
C1494 C1495 1.366 . S
C1495 C1494 1.366 . S
C1495 C1496 1.414 . S
C1495 C1498 1.499 . S
C1496 H1476 0.950 . S
C1496 C1495 1.414 . S
C1496 C1497 1.374 . S
C1497 H1477 0.950 . S
C1497 C1493 1.385 . S
C1497 C1496 1.374 . S
C1498 C1495 1.499 . S
C1498 C1499 1.373 . S
C1498 C1500 1.389 . S
C1499 H1478 0.950 . S
C1499 C1498 1.373 . S
C1499 C1515 1.377 . S
C1500 C1498 1.389 . S
C1500 C1501 1.524 . S
C1500 C1514 1.377 . S
C1501 C1500 1.524 . S
C1501 C1502 1.397 . S
C1501 C1506 1.363 . S
C1502 H1479 0.950 . S
C1502 C1501 1.397 . S
C1502 C1503 1.334 . S
C1503 H1480 0.950 . S
C1503 C1502 1.334 . S
C1503 C1504 1.287 . S
C1504 C1503 1.287 . S
C1504 C1505 1.524 . S
C1504 H1523 0.913 . S
C1505 H1481 0.950 . S
C1505 C1504 1.524 . S
C1505 C1506 1.415 . S
C1506 H1482 0.950 . S
C1506 C1501 1.363 . S
C1506 C1505 1.415 . S
C1507 H1483 0.951 . S
C1507 C1508 1.366 . S
C1507 C1509 1.388 . S
C1508 C1507 1.366 . S
C1508 C1512 1.385 . S
C1509 H1484 0.951 . S
C1509 C1507 1.388 . S
C1509 C1510 1.366 . S
C1510 C1509 1.366 . S
C1510 C1511 1.414 . S
C1510 C1513 1.499 . S
C1511 H1485 0.950 . S
C1511 C1510 1.414 . S
C1511 C1512 1.374 . S
C1512 H1486 0.950 . S
C1512 C1508 1.385 . S
C1512 C1511 1.374 . S
C1513 C1510 1.499 . S
C1513 C1514 1.373 . S
C1513 C1515 1.389 . S
C1514 H1487 0.950 . S
C1514 C1500 1.377 . S
C1514 C1513 1.373 . S
C1515 C1499 1.377 . S
C1515 C1513 1.389 . S
C1515 C1516 1.524 . S
C1516 C1515 1.524 . S
C1516 C1517 1.397 . S
C1516 C1521 1.363 . S
C1517 H1488 0.950 . S
C1517 C1516 1.397 . S
C1517 C1518 1.334 . S
C1518 H1489 0.950 . S
C1518 C1517 1.334 . S
C1518 C1519 1.287 . S
C1519 C1518 1.287 . S
C1519 C1520 1.524 . S
C1519 H1522 0.999 . S
C1520 H1490 0.950 . S
C1520 C1519 1.524 . S
C1520 C1521 1.415 . S
C1521 H1491 0.950 . S
C1521 C1516 1.363 . S
C1521 C1520 1.415 . S
H1522 C1519 0.999 . S
H1523 C1504 0.913 . S
H1524 C1542 0.951 . S
H1525 C1544 0.951 . S
H1526 C1546 0.950 . S
H1527 C1547 0.950 . S
H1528 C1549 0.950 . S
H1529 C1552 0.950 . S
H1530 C1553 0.950 . S
H1531 C1555 0.950 . S
H1532 C1556 0.950 . S
H1533 C1557 0.951 . S
H1534 C1559 0.951 . S
H1535 C1561 0.950 . S
H1536 C1562 0.950 . S
H1537 C1564 0.950 . S
H1538 C1567 0.950 . S
H1539 C1568 0.950 . S
H1540 C1570 0.950 . S
H1541 C1571 0.950 . S
C1542 H1524 0.951 . S
C1542 C1543 1.366 . S
C1542 C1544 1.388 . S
C1543 C1542 1.366 . S
C1543 C1547 1.385 . S
C1544 H1525 0.951 . S
C1544 C1542 1.388 . S
C1544 C1545 1.366 . S
C1545 C1544 1.366 . S
C1545 C1546 1.414 . S
C1545 C1548 1.499 . S
C1546 H1526 0.950 . S
C1546 C1545 1.414 . S
C1546 C1547 1.374 . S
C1547 H1527 0.950 . S
C1547 C1543 1.385 . S
C1547 C1546 1.374 . S
C1548 C1545 1.499 . S
C1548 C1549 1.373 . S
C1548 C1550 1.389 . S
C1549 H1528 0.950 . S
C1549 C1548 1.373 . S
C1549 C1565 1.377 . S
C1550 C1548 1.389 . S
C1550 C1551 1.524 . S
C1550 C1564 1.377 . S
C1551 C1550 1.524 . S
C1551 C1552 1.397 . S
C1551 C1556 1.363 . S
C1552 H1529 0.950 . S
C1552 C1551 1.397 . S
C1552 C1553 1.334 . S
C1553 H1530 0.950 . S
C1553 C1552 1.334 . S
C1553 C1554 1.287 . S
C1554 C1553 1.287 . S
C1554 C1555 1.524 . S
C1554 H1573 0.913 . S
C1555 H1531 0.950 . S
C1555 C1554 1.524 . S
C1555 C1556 1.415 . S
C1556 H1532 0.950 . S
C1556 C1551 1.363 . S
C1556 C1555 1.415 . S
C1557 H1533 0.951 . S
C1557 C1558 1.366 . S
C1557 C1559 1.388 . S
C1558 C1557 1.366 . S
C1558 C1562 1.385 . S
C1559 H1534 0.951 . S
C1559 C1557 1.388 . S
C1559 C1560 1.366 . S
C1560 C1559 1.366 . S
C1560 C1561 1.414 . S
C1560 C1563 1.499 . S
C1561 H1535 0.950 . S
C1561 C1560 1.414 . S
C1561 C1562 1.374 . S
C1562 H1536 0.950 . S
C1562 C1558 1.385 . S
C1562 C1561 1.374 . S
C1563 C1560 1.499 . S
C1563 C1564 1.373 . S
C1563 C1565 1.389 . S
C1564 H1537 0.950 . S
C1564 C1550 1.377 . S
C1564 C1563 1.373 . S
C1565 C1549 1.377 . S
C1565 C1563 1.389 . S
C1565 C1566 1.524 . S
C1566 C1565 1.524 . S
C1566 C1567 1.397 . S
C1566 C1571 1.363 . S
C1567 H1538 0.950 . S
C1567 C1566 1.397 . S
C1567 C1568 1.334 . S
C1568 H1539 0.950 . S
C1568 C1567 1.334 . S
C1568 C1569 1.287 . S
C1569 C1568 1.287 . S
C1569 C1570 1.524 . S
C1569 H1572 0.999 . S
C1570 H1540 0.950 . S
C1570 C1569 1.524 . S
C1570 C1571 1.415 . S
C1571 H1541 0.950 . S
C1571 C1566 1.363 . S
C1571 C1570 1.415 . S
H1572 C1569 0.999 . S
H1573 C1554 0.913 . S
H1574 C1592 0.951 . S
H1575 C1594 0.951 . S
H1576 C1596 0.950 . S
H1577 C1597 0.950 . S
H1578 C1599 0.950 . S
H1579 C1602 0.950 . S
H1580 C1603 0.950 . S
H1581 C1605 0.950 . S
H1582 C1606 0.950 . S
H1583 C1607 0.951 . S
H1584 C1609 0.951 . S
H1585 C1611 0.950 . S
H1586 C1612 0.950 . S
H1587 C1614 0.950 . S
H1588 C1617 0.950 . S
H1589 C1618 0.950 . S
H1590 C1620 0.950 . S
H1591 C1621 0.950 . S
C1592 H1574 0.951 . S
C1592 C1593 1.366 . S
C1592 C1594 1.388 . S
C1593 C1592 1.366 . S
C1593 C1597 1.385 . S
C1594 H1575 0.951 . S
C1594 C1592 1.388 . S
C1594 C1595 1.366 . S
C1595 C1594 1.366 . S
C1595 C1596 1.414 . S
C1595 C1598 1.499 . S
C1596 H1576 0.950 . S
C1596 C1595 1.414 . S
C1596 C1597 1.374 . S
C1597 H1577 0.950 . S
C1597 C1593 1.385 . S
C1597 C1596 1.374 . S
C1598 C1595 1.499 . S
C1598 C1599 1.373 . S
C1598 C1600 1.389 . S
C1599 H1578 0.950 . S
C1599 C1598 1.373 . S
C1599 C1615 1.377 . S
C1600 C1598 1.389 . S
C1600 C1601 1.524 . S
C1600 C1614 1.377 . S
C1601 C1600 1.524 . S
C1601 C1602 1.397 . S
C1601 C1606 1.363 . S
C1602 H1579 0.950 . S
C1602 C1601 1.397 . S
C1602 C1603 1.334 . S
C1603 H1580 0.950 . S
C1603 C1602 1.334 . S
C1603 C1604 1.287 . S
C1604 C1603 1.287 . S
C1604 C1605 1.524 . S
C1604 H1623 0.913 . S
C1605 H1581 0.950 . S
C1605 C1604 1.524 . S
C1605 C1606 1.415 . S
C1606 H1582 0.950 . S
C1606 C1601 1.363 . S
C1606 C1605 1.415 . S
C1607 H1583 0.951 . S
C1607 C1608 1.366 . S
C1607 C1609 1.388 . S
C1608 C1607 1.366 . S
C1608 C1612 1.385 . S
C1609 H1584 0.951 . S
C1609 C1607 1.388 . S
C1609 C1610 1.366 . S
C1610 C1609 1.366 . S
C1610 C1611 1.414 . S
C1610 C1613 1.499 . S
C1611 H1585 0.950 . S
C1611 C1610 1.414 . S
C1611 C1612 1.374 . S
C1612 H1586 0.950 . S
C1612 C1608 1.385 . S
C1612 C1611 1.374 . S
C1613 C1610 1.499 . S
C1613 C1614 1.373 . S
C1613 C1615 1.389 . S
C1614 H1587 0.950 . S
C1614 C1600 1.377 . S
C1614 C1613 1.373 . S
C1615 C1599 1.377 . S
C1615 C1613 1.389 . S
C1615 C1616 1.524 . S
C1616 C1615 1.524 . S
C1616 C1617 1.397 . S
C1616 C1621 1.363 . S
C1617 H1588 0.950 . S
C1617 C1616 1.397 . S
C1617 C1618 1.334 . S
C1618 H1589 0.950 . S
C1618 C1617 1.334 . S
C1618 C1619 1.287 . S
C1619 C1618 1.287 . S
C1619 C1620 1.524 . S
C1619 H1622 0.999 . S
C1620 H1590 0.950 . S
C1620 C1619 1.524 . S
C1620 C1621 1.415 . S
C1621 H1591 0.950 . S
C1621 C1616 1.363 . S
C1621 C1620 1.415 . S
H1622 C1619 0.999 . S
H1623 C1604 0.913 . S
H1624 C1642 0.951 . S
H1625 C1644 0.951 . S
H1626 C1646 0.950 . S
H1627 C1647 0.950 . S
H1628 C1649 0.950 . S
H1629 C1652 0.950 . S
H1630 C1653 0.950 . S
H1631 C1655 0.950 . S
H1632 C1656 0.950 . S
H1633 C1657 0.951 . S
H1634 C1659 0.951 . S
H1635 C1661 0.950 . S
H1636 C1662 0.950 . S
H1637 C1664 0.950 . S
H1638 C1667 0.950 . S
H1639 C1668 0.950 . S
H1640 C1670 0.950 . S
H1641 C1671 0.950 . S
C1642 H1624 0.951 . S
C1642 C1643 1.366 . S
C1642 C1644 1.388 . S
C1643 C1642 1.366 . S
C1643 C1647 1.385 . S
C1644 H1625 0.951 . S
C1644 C1642 1.388 . S
C1644 C1645 1.366 . S
C1645 C1644 1.366 . S
C1645 C1646 1.414 . S
C1645 C1648 1.499 . S
C1646 H1626 0.950 . S
C1646 C1645 1.414 . S
C1646 C1647 1.374 . S
C1647 H1627 0.950 . S
C1647 C1643 1.385 . S
C1647 C1646 1.374 . S
C1648 C1645 1.499 . S
C1648 C1649 1.373 . S
C1648 C1650 1.389 . S
C1649 H1628 0.950 . S
C1649 C1648 1.373 . S
C1649 C1665 1.377 . S
C1650 C1648 1.389 . S
C1650 C1651 1.524 . S
C1650 C1664 1.377 . S
C1651 C1650 1.524 . S
C1651 C1652 1.397 . S
C1651 C1656 1.363 . S
C1652 H1629 0.950 . S
C1652 C1651 1.397 . S
C1652 C1653 1.334 . S
C1653 H1630 0.950 . S
C1653 C1652 1.334 . S
C1653 C1654 1.287 . S
C1654 C1653 1.287 . S
C1654 C1655 1.524 . S
C1654 H1673 0.913 . S
C1655 H1631 0.950 . S
C1655 C1654 1.524 . S
C1655 C1656 1.415 . S
C1656 H1632 0.950 . S
C1656 C1651 1.363 . S
C1656 C1655 1.415 . S
C1657 H1633 0.951 . S
C1657 C1658 1.366 . S
C1657 C1659 1.388 . S
C1658 C1657 1.366 . S
C1658 C1662 1.385 . S
C1659 H1634 0.951 . S
C1659 C1657 1.388 . S
C1659 C1660 1.366 . S
C1660 C1659 1.366 . S
C1660 C1661 1.414 . S
C1660 C1663 1.499 . S
C1661 H1635 0.950 . S
C1661 C1660 1.414 . S
C1661 C1662 1.374 . S
C1662 H1636 0.950 . S
C1662 C1658 1.385 . S
C1662 C1661 1.374 . S
C1663 C1660 1.499 . S
C1663 C1664 1.373 . S
C1663 C1665 1.389 . S
C1664 H1637 0.950 . S
C1664 C1650 1.377 . S
C1664 C1663 1.373 . S
C1665 C1649 1.377 . S
C1665 C1663 1.389 . S
C1665 C1666 1.524 . S
C1666 C1665 1.524 . S
C1666 C1667 1.397 . S
C1666 C1671 1.363 . S
C1667 H1638 0.950 . S
C1667 C1666 1.397 . S
C1667 C1668 1.334 . S
C1668 H1639 0.950 . S
C1668 C1667 1.334 . S
C1668 C1669 1.287 . S
C1669 C1668 1.287 . S
C1669 C1670 1.524 . S
C1669 H1672 0.999 . S
C1670 H1640 0.950 . S
C1670 C1669 1.524 . S
C1670 C1671 1.415 . S
C1671 H1641 0.950 . S
C1671 C1666 1.363 . S
C1671 C1670 1.415 . S
H1672 C1669 0.999 . S
H1673 C1654 0.913 . S
H1674 C1692 0.951 . S
H1675 C1694 0.951 . S
H1676 C1696 0.950 . S
H1677 C1697 0.950 . S
H1678 C1699 0.950 . S
H1679 C1702 0.950 . S
H1680 C1703 0.950 . S
H1681 C1705 0.950 . S
H1682 C1706 0.950 . S
H1683 C1707 0.951 . S
H1684 C1709 0.951 . S
H1685 C1711 0.950 . S
H1686 C1712 0.950 . S
H1687 C1714 0.950 . S
H1688 C1717 0.950 . S
H1689 C1718 0.950 . S
H1690 C1720 0.950 . S
H1691 C1721 0.950 . S
C1692 H1674 0.951 . S
C1692 C1693 1.366 . S
C1692 C1694 1.388 . S
C1693 C1692 1.366 . S
C1693 C1697 1.385 . S
C1694 H1675 0.951 . S
C1694 C1692 1.388 . S
C1694 C1695 1.366 . S
C1695 C1694 1.366 . S
C1695 C1696 1.414 . S
C1695 C1698 1.499 . S
C1696 H1676 0.950 . S
C1696 C1695 1.414 . S
C1696 C1697 1.374 . S
C1697 H1677 0.950 . S
C1697 C1693 1.385 . S
C1697 C1696 1.374 . S
C1698 C1695 1.499 . S
C1698 C1699 1.373 . S
C1698 C1700 1.389 . S
C1699 H1678 0.950 . S
C1699 C1698 1.373 . S
C1699 C1715 1.377 . S
C1700 C1698 1.389 . S
C1700 C1701 1.524 . S
C1700 C1714 1.377 . S
C1701 C1700 1.524 . S
C1701 C1702 1.397 . S
C1701 C1706 1.363 . S
C1702 H1679 0.950 . S
C1702 C1701 1.397 . S
C1702 C1703 1.334 . S
C1703 H1680 0.950 . S
C1703 C1702 1.334 . S
C1703 C1704 1.287 . S
C1704 C1703 1.287 . S
C1704 C1705 1.524 . S
C1704 H1723 0.913 . S
C1705 H1681 0.950 . S
C1705 C1704 1.524 . S
C1705 C1706 1.415 . S
C1706 H1682 0.950 . S
C1706 C1701 1.363 . S
C1706 C1705 1.415 . S
C1707 H1683 0.951 . S
C1707 C1708 1.366 . S
C1707 C1709 1.388 . S
C1708 C1707 1.366 . S
C1708 C1712 1.385 . S
C1709 H1684 0.951 . S
C1709 C1707 1.388 . S
C1709 C1710 1.366 . S
C1710 C1709 1.366 . S
C1710 C1711 1.414 . S
C1710 C1713 1.499 . S
C1711 H1685 0.950 . S
C1711 C1710 1.414 . S
C1711 C1712 1.374 . S
C1712 H1686 0.950 . S
C1712 C1708 1.385 . S
C1712 C1711 1.374 . S
C1713 C1710 1.499 . S
C1713 C1714 1.373 . S
C1713 C1715 1.389 . S
C1714 H1687 0.950 . S
C1714 C1700 1.377 . S
C1714 C1713 1.373 . S
C1715 C1699 1.377 . S
C1715 C1713 1.389 . S
C1715 C1716 1.524 . S
C1716 C1715 1.524 . S
C1716 C1717 1.397 . S
C1716 C1721 1.363 . S
C1717 H1688 0.950 . S
C1717 C1716 1.397 . S
C1717 C1718 1.334 . S
C1718 H1689 0.950 . S
C1718 C1717 1.334 . S
C1718 C1719 1.287 . S
C1719 C1718 1.287 . S
C1719 C1720 1.524 . S
C1719 H1722 0.999 . S
C1720 H1690 0.950 . S
C1720 C1719 1.524 . S
C1720 C1721 1.415 . S
C1721 H1691 0.950 . S
C1721 C1716 1.363 . S
C1721 C1720 1.415 . S
H1722 C1719 0.999 . S
H1723 C1704 0.913 . S
H1724 C1742 0.951 . S
H1725 C1744 0.951 . S
H1726 C1746 0.950 . S
H1727 C1747 0.950 . S
H1728 C1749 0.950 . S
H1729 C1752 0.950 . S
H1730 C1753 0.950 . S
H1731 C1755 0.950 . S
H1732 C1756 0.950 . S
H1733 C1757 0.951 . S
H1734 C1759 0.951 . S
H1735 C1761 0.950 . S
H1736 C1762 0.950 . S
H1737 C1764 0.950 . S
H1738 C1767 0.950 . S
H1739 C1768 0.950 . S
H1740 C1770 0.950 . S
H1741 C1771 0.950 . S
C1742 H1724 0.951 . S
C1742 C1743 1.366 . S
C1742 C1744 1.388 . S
C1743 C1742 1.366 . S
C1743 C1747 1.385 . S
C1744 H1725 0.951 . S
C1744 C1742 1.388 . S
C1744 C1745 1.366 . S
C1745 C1744 1.366 . S
C1745 C1746 1.414 . S
C1745 C1748 1.499 . S
C1746 H1726 0.950 . S
C1746 C1745 1.414 . S
C1746 C1747 1.374 . S
C1747 H1727 0.950 . S
C1747 C1743 1.385 . S
C1747 C1746 1.374 . S
C1748 C1745 1.499 . S
C1748 C1749 1.373 . S
C1748 C1750 1.389 . S
C1749 H1728 0.950 . S
C1749 C1748 1.373 . S
C1749 C1765 1.377 . S
C1750 C1748 1.389 . S
C1750 C1751 1.524 . S
C1750 C1764 1.377 . S
C1751 C1750 1.524 . S
C1751 C1752 1.397 . S
C1751 C1756 1.363 . S
C1752 H1729 0.950 . S
C1752 C1751 1.397 . S
C1752 C1753 1.334 . S
C1753 H1730 0.950 . S
C1753 C1752 1.334 . S
C1753 C1754 1.287 . S
C1754 C1753 1.287 . S
C1754 C1755 1.524 . S
C1754 H1773 0.913 . S
C1755 H1731 0.950 . S
C1755 C1754 1.524 . S
C1755 C1756 1.415 . S
C1756 H1732 0.950 . S
C1756 C1751 1.363 . S
C1756 C1755 1.415 . S
C1757 H1733 0.951 . S
C1757 C1758 1.366 . S
C1757 C1759 1.388 . S
C1758 C1757 1.366 . S
C1758 C1762 1.385 . S
C1759 H1734 0.951 . S
C1759 C1757 1.388 . S
C1759 C1760 1.366 . S
C1760 C1759 1.366 . S
C1760 C1761 1.414 . S
C1760 C1763 1.499 . S
C1761 H1735 0.950 . S
C1761 C1760 1.414 . S
C1761 C1762 1.374 . S
C1762 H1736 0.950 . S
C1762 C1758 1.385 . S
C1762 C1761 1.374 . S
C1763 C1760 1.499 . S
C1763 C1764 1.373 . S
C1763 C1765 1.389 . S
C1764 H1737 0.950 . S
C1764 C1750 1.377 . S
C1764 C1763 1.373 . S
C1765 C1749 1.377 . S
C1765 C1763 1.389 . S
C1765 C1766 1.524 . S
C1766 C1765 1.524 . S
C1766 C1767 1.397 . S
C1766 C1771 1.363 . S
C1767 H1738 0.950 . S
C1767 C1766 1.397 . S
C1767 C1768 1.334 . S
C1768 H1739 0.950 . S
C1768 C1767 1.334 . S
C1768 C1769 1.287 . S
C1769 C1768 1.287 . S
C1769 C1770 1.524 . S
C1769 H1772 0.999 . S
C1770 H1740 0.950 . S
C1770 C1769 1.524 . S
C1770 C1771 1.415 . S
C1771 H1741 0.950 . S
C1771 C1766 1.363 . S
C1771 C1770 1.415 . S
H1772 C1769 0.999 . S
H1773 C1754 0.913 . S
H1774 C1792 0.951 . S
H1775 C1794 0.951 . S
H1776 C1796 0.950 . S
H1777 C1797 0.950 . S
H1778 C1799 0.950 . S
H1779 C1802 0.950 . S
H1780 C1803 0.950 . S
H1781 C1805 0.950 . S
H1782 C1806 0.950 . S
H1783 C1807 0.951 . S
H1784 C1809 0.951 . S
H1785 C1811 0.950 . S
H1786 C1812 0.950 . S
H1787 C1814 0.950 1_556 S
H1788 C1817 0.950 . S
H1789 C1818 0.950 . S
H1790 C1820 0.950 . S
H1791 C1821 0.950 . S
C1792 H1774 0.951 . S
C1792 C1793 1.366 . S
C1792 C1794 1.388 . S
C1793 C1792 1.366 . S
C1793 C1797 1.385 . S
C1794 H1775 0.951 . S
C1794 C1792 1.388 . S
C1794 C1795 1.366 . S
C1795 C1794 1.366 . S
C1795 C1796 1.414 . S
C1795 C1798 1.499 . S
C1796 H1776 0.950 . S
C1796 C1795 1.414 . S
C1796 C1797 1.374 . S
C1797 H1777 0.950 . S
C1797 C1793 1.385 . S
C1797 C1796 1.374 . S
C1798 C1795 1.499 . S
C1798 C1799 1.373 . S
C1798 C1800 1.389 . S
C1799 H1778 0.950 . S
C1799 C1798 1.373 . S
C1799 C1815 1.377 . S
C1800 C1798 1.389 . S
C1800 C1801 1.524 . S
C1800 C1814 1.377 . S
C1801 C1800 1.524 . S
C1801 C1802 1.397 . S
C1801 C1806 1.363 . S
C1802 H1779 0.950 . S
C1802 C1801 1.397 . S
C1802 C1803 1.334 . S
C1803 H1780 0.950 . S
C1803 C1802 1.334 . S
C1803 C1804 1.287 . S
C1804 C1803 1.287 . S
C1804 C1805 1.524 . S
C1804 H1823 0.913 . S
C1805 H1781 0.950 . S
C1805 C1804 1.524 . S
C1805 C1806 1.415 . S
C1806 H1782 0.950 . S
C1806 C1801 1.363 . S
C1806 C1805 1.415 . S
C1807 H1783 0.951 . S
C1807 C1808 1.366 . S
C1807 C1809 1.388 . S
C1808 C1807 1.366 . S
C1808 C1812 1.385 . S
C1809 H1784 0.951 . S
C1809 C1807 1.388 . S
C1809 C1810 1.366 . S
C1810 C1809 1.366 . S
C1810 C1811 1.414 . S
C1810 C1813 1.499 . S
C1811 H1785 0.950 . S
C1811 C1810 1.414 . S
C1811 C1812 1.374 . S
C1812 H1786 0.950 . S
C1812 C1808 1.385 . S
C1812 C1811 1.374 . S
C1813 C1810 1.499 . S
C1813 C1814 1.373 1_556 S
C1813 C1815 1.389 1_556 S
C1814 H1787 0.950 1_554 S
C1814 C1800 1.377 . S
C1814 C1813 1.373 1_554 S
C1815 C1799 1.377 . S
C1815 C1813 1.389 1_554 S
C1815 C1816 1.524 . S
C1816 C1815 1.524 . S
C1816 C1817 1.397 1_554 S
C1816 C1821 1.363 . S
C1817 H1788 0.950 . S
C1817 C1816 1.397 1_556 S
C1817 C1818 1.334 . S
C1818 H1789 0.950 . S
C1818 C1817 1.334 . S
C1818 C1819 1.287 . S
C1819 C1818 1.287 . S
C1819 C1820 1.524 1_556 S
C1819 H1822 0.999 . S
C1820 H1790 0.950 . S
C1820 C1819 1.524 1_554 S
C1820 C1821 1.415 . S
C1821 H1791 0.950 . S
C1821 C1816 1.363 . S
C1821 C1820 1.415 . S
H1822 C1819 0.999 . S
H1823 C1804 0.913 . S
C243 C90 1.388 . S
C258 C6 1.387 . S
C293 C104 1.388 . S
C308 C20 1.388 . S
C343 C34 1.387 . S
C358 C62 1.388 . S
C393 C48 1.388 . S
C408 C76 1.388 . S
C443 C118 1.388 . S
C458 C202 1.388 . S
C493 C216 1.387 . S
C508 C132 1.387 . S
C543 C146 1.388 . S
C558 C174 1.388 . S
C593 C160 1.388 . S
C608 C188 1.388 . S
C643 C9 1.330 . S
C658 C149 1.330 . S
C693 C23 1.330 . S
C708 C163 1.330 . S
C743 C37 1.330 . S
C758 C121 1.330 . S
C793 C51 1.329 . S
C808 C135 1.330 . S
C843 C65 1.327 1_556 S
C858 C205 1.327 1_556 S
C893 C219 1.330 . S
C908 C79 1.330 . S
C943 C93 1.329 . S
C958 C177 1.330 . S
C993 C191 1.330 . S
C1008 C107 1.330 . S
C1043 C190 0.623 . S
C1058 C8 0.623 . S
C1093 C22 0.624 . S
C1108 C204 0.623 . S
C1143 C218 0.623 . S
C1158 C36 0.624 . S
C1193 C176 0.622 . S
C1208 C50 0.623 . S
C1243 C162 0.624 . S
C1258 C64 0.624 . S
C1293 C78 0.622 . S
C1308 C120 0.622 . S
C1343 C92 0.623 . S
C1358 C134 0.622 . S
C1393 C106 0.621 . S
C1408 C148 0.621 . S
C1443 C189 1.511 . S
C1458 C7 1.511 . S
C1493 C21 1.511 . S
C1508 C203 1.511 . S
C1543 C35 1.510 . S
C1558 C217 1.510 . S
C1593 C175 1.511 . S
C1608 C49 1.511 . S
C1643 C161 1.510 . S
C1658 C63 1.511 . S
C1693 C119 1.511 . S
C1708 C77 1.510 . S
C1743 C91 1.511 . S
C1758 C133 1.511 . S
C1793 C147 1.510 . S
C1808 C105 1.511 . S
