# Generated by pormake.
# Topology uof, (4)-cn, num edge types: 1
# Building blocks:
#     Node 0, Type 0, BuildingBlock: UXUYUI_clean_sbu_0, # of connection points: 4
#     Node 1, Type 0, BuildingBlock: UXUYUI_clean_sbu_0, # of connection points: 4
#     Node 2, Type 0, BuildingBlock: UXUYUI_clean_sbu_0, # of connection points: 4
#     Node 3, Type 0, BuildingBlock: UXUYUI_clean_sbu_0, # of connection points: 4
#     Node 4, Type 0, BuildingBlock: UXUYUI_clean_sbu_0, # of connection points: 4
#     Node 5, Type 0, BuildingBlock: UXUYUI_clean_sbu_0, # of connection points: 4
#     Node 6, Type 0, BuildingBlock: UXUYUI_clean_sbu_0, # of connection points: 4
#     Node 7, Type 0, BuildingBlock: UXUYUI_clean_sbu_0, # of connection points: 4
#     Node 8, Type 0, BuildingBlock: UXUYUI_clean_sbu_0, # of connection points: 4
#     Node 9, Type 0, BuildingBlock: UXUYUI_clean_sbu_0, # of connection points: 4
#     Node 10, Type 0, BuildingBlock: UXUYUI_clean_sbu_0, # of connection points: 4
#     Node 11, Type 0, BuildingBlock: UXUYUI_clean_sbu_0, # of connection points: 4
#     Edge 12, Type (0, 0), None
#     Edge 13, Type (0, 0), None
#     Edge 14, Type (0, 0), None
#     Edge 15, Type (0, 0), None
#     Edge 16, Type (0, 0), None
#     Edge 17, Type (0, 0), None
#     Edge 18, Type (0, 0), None
#     Edge 19, Type (0, 0), None
#     Edge 20, Type (0, 0), None
#     Edge 21, Type (0, 0), None
#     Edge 22, Type (0, 0), None
#     Edge 23, Type (0, 0), None
#     Edge 24, Type (0, 0), None
#     Edge 25, Type (0, 0), None
#     Edge 26, Type (0, 0), None
#     Edge 27, Type (0, 0), None
#     Edge 28, Type (0, 0), None
#     Edge 29, Type (0, 0), None
#     Edge 30, Type (0, 0), None
#     Edge 31, Type (0, 0), None
#     Edge 32, Type (0, 0), None
#     Edge 33, Type (0, 0), None
#     Edge 34, Type (0, 0), None
#     Edge 35, Type (0, 0), None
# Relax obj value: 0.353
# Max RMSD: 0.222
# Mean RMSD: 0.221
data_MOF--net-uof--node1-UXUYUI_clean_sbu_0--edge1-none
_symmetry_space_group_name_H-M    P1
_symmetry_Int_Tables_number       1
_symmetry_cell_setting            triclinic
loop_
_symmetry_equiv_pos_as_xyz
'x, y, z'
_cell_length_a     29.114671
_cell_length_b     29.114329
_cell_length_c     56.589912
_cell_angle_alpha  90.00056
_cell_angle_beta   89.999645
_cell_angle_gamma 120.00184
loop_
_atom_site_label
_atom_site_type_symbol
_atom_site_fract_x
_atom_site_fract_y
_atom_site_fract_z
_atom_type_partial_charge
Li0 Li 0.19658 0.33987 0.21313 0.0
Li1 Li 0.23885 0.32659 0.25012 0.0
Li2 Li 0.2958 0.38218 0.21626 0.0
Li3 Li 0.23724 0.28425 0.21246 0.0
C4 C 0.21675 0.41668 0.24405 0.0
N5 N 0.15227 0.45674 0.25718 0.0
C6 C 0.18556 0.39785 0.26439 0.0
C7 C 0.21523 0.45588 0.23039 0.0
C8 C 0.15324 0.41867 0.27075 0.0
C9 C 0.18231 0.47559 0.23731 0.0
C10 C 0.13681 0.22183 0.23104 0.0
C11 C 0.09956 0.13096 0.24383 0.0
N12 N 0.05849 0.11623 0.22855 0.0
C13 C 0.09382 0.20575 0.21565 0.0
C14 C 0.13933 0.18411 0.24542 0.0
C15 C 0.0548 0.15223 0.21458 0.0
C16 C 0.12884 0.32743 0.1744 0.0
N17 N 0.1341 0.3373 0.19808 0.0
C18 C 0.04312 0.31659 0.19999 0.0
C19 C 0.09254 0.33325 0.21085 0.0
C20 C 0.03584 0.30336 0.17574 0.0
C21 C 0.08039 0.31077 0.1629 0.0
H22 H 0.16096 0.32838 0.16454 0.0
H23 H 0.09648 0.33943 0.22974 0.0
C24 C 0.29576 0.34852 0.29201 0.0
N25 N 0.24591 0.31755 0.28345 0.0
C26 C 0.31171 0.33479 0.31284 0.0
C27 C 0.22259 0.26159 0.31757 0.0
C28 C 0.20885 0.27569 0.2961 0.0
C29 C 0.27543 0.28983 0.32586 0.0
H30 H 0.32466 0.38136 0.28151 0.0
H31 H 0.16933 0.25167 0.28903 0.0
C32 C 0.26527 0.36523 0.1689 0.0
N33 N 0.302 0.41702 0.12629 0.0
C34 C 0.2776 0.34109 0.15055 0.0
C35 C 0.27144 0.41556 0.16561 0.0
C36 C 0.29616 0.36797 0.12913 0.0
C37 C 0.29012 0.44113 0.14392 0.0
C38 C 0.32587 0.30825 0.24657 0.0
C39 C 0.38013 0.34237 0.25022 0.0
C40 C 0.30107 0.25792 0.25693 0.0
C41 C 0.40838 0.32592 0.26448 0.0
C42 C 0.33064 0.24293 0.2711 0.0
N43 N 0.38324 0.27699 0.27458 0.0
C44 C 0.39628 0.46974 0.22814 0.0
C45 C 0.39424 0.43059 0.19117 0.0
C46 C 0.45189 0.49832 0.22771 0.0
N47 N 0.36866 0.43575 0.21026 0.0
C48 C 0.44969 0.45941 0.18976 0.0
C49 C 0.47925 0.49246 0.20854 0.0
H50 H 0.37533 0.47172 0.24354 0.0
H51 H 0.37205 0.40167 0.1777 0.0
C52 C 0.19077 0.19121 0.18535 0.0
N53 N 0.23431 0.22547 0.19793 0.0
C54 C 0.18895 0.14759 0.17436 0.0
C55 C 0.27793 0.17723 0.18854 0.0
C56 C 0.27792 0.22009 0.19921 0.0
C57 C 0.23299 0.14038 0.17599 0.0
H58 H 0.15797 0.19831 0.18344 0.0
H59 H 0.3131 0.24944 0.20816 0.0
O60 O 0.24784 0.39611 0.23729 0.0
O61 O 0.17547 0.27423 0.23235 0.0
O62 O 0.24732 0.33959 0.19 0.0
O63 O 0.29715 0.32425 0.23315 0.0
H64 H 0.18602 0.36726 0.27507 0.0
H65 H 0.23909 0.47077 0.21457 0.0
H66 H 0.1288 0.40442 0.28643 0.0
H67 H 0.18061 0.50584 0.22688 0.0
H68 H 0.10128 0.10142 0.2548 0.0
H69 H 0.09081 0.23393 0.20435 0.0
H70 H 0.17145 0.19556 0.25777 0.0
H71 H 0.02165 0.13932 0.20258 0.0
H72 H 0.01037 0.31204 0.21076 0.0
H73 H 0.07718 0.30015 0.1444 0.0
H74 H 0.353 0.35804 0.31775 0.0
H75 H 0.19212 0.22799 0.32713 0.0
H76 H 0.27299 0.30209 0.1529 0.0
H77 H 0.262 0.43463 0.17968 0.0
H78 H 0.30596 0.34987 0.11477 0.0
H79 H 0.29518 0.48015 0.1411 0.0
H80 H 0.40031 0.38121 0.24222 0.0
H81 H 0.25948 0.23074 0.25402 0.0
H82 H 0.45031 0.35209 0.26753 0.0
H83 H 0.31175 0.20421 0.27933 0.0
H84 H 0.47334 0.52363 0.2425 0.0
H85 H 0.46936 0.45359 0.17477 0.0
H86 H 0.15418 0.1206 0.16426 0.0
H87 H 0.31273 0.17302 0.19008 0.0
Li88 Li 0.86245 0.19361 0.54648 0.0
Li89 Li 0.91802 0.23585 0.58347 0.0
Li90 Li 0.91944 0.29281 0.54962 0.0
Li91 Li 0.95873 0.23419 0.54581 0.0
C92 C 0.80586 0.21384 0.57739 0.0
N93 N 0.7013 0.14942 0.59052 0.0
C94 C 0.79347 0.18267 0.59774 0.0
C95 C 0.76518 0.21235 0.56372 0.0
C96 C 0.74033 0.15038 0.6041 0.0
C97 C 0.71253 0.17945 0.57064 0.0
C98 C 0.92061 0.13374 0.56442 0.0
C99 C 0.97421 0.09646 0.57721 0.0
N100 N 0.94778 0.05533 0.56197 0.0
C101 C 0.89362 0.09069 0.54906 0.0
C102 C 0.9609 0.13628 0.57878 0.0
C103 C 0.90805 0.05163 0.54801 0.0
C104 C 0.80715 0.12592 0.50775 0.0
N105 N 0.80252 0.13117 0.53143 0.0
C106 C 0.73219 0.0402 0.53332 0.0
C107 C 0.76497 0.08961 0.54418 0.0
C108 C 0.73817 0.03294 0.50907 0.0
C109 C 0.77535 0.07749 0.49624 0.0
H110 H 0.83834 0.15805 0.4979 0.0
H111 H 0.76271 0.09354 0.56308 0.0
C112 C 0.95297 0.29275 0.62536 0.0
N113 N 0.93413 0.24291 0.6168 0.0
C114 C 0.98266 0.30873 0.64619 0.0
C115 C 0.96683 0.21964 0.65092 0.0
C116 C 0.93897 0.20587 0.62945 0.0
C117 C 0.99139 0.27248 0.65921 0.0
H118 H 0.949 0.32164 0.61487 0.0
H119 H 0.9235 0.16635 0.62238 0.0
C120 C 0.90593 0.26236 0.50226 0.0
N121 N 0.89107 0.29928 0.45966 0.0
C122 C 0.94244 0.2747 0.48393 0.0
C123 C 0.86181 0.2686 0.49895 0.0
C124 C 0.93423 0.29337 0.46251 0.0
C125 C 0.85502 0.28738 0.47727 0.0
C126 C 0.02338 0.32279 0.57994 0.0
C127 C 0.0434 0.377 0.58368 0.0
C128 C 0.049 0.29801 0.59023 0.0
C129 C 0.08808 0.40522 0.59797 0.0
C130 C 0.09352 0.32753 0.60443 0.0
N131 N 0.11194 0.38008 0.608 0.0
C132 C 0.93231 0.39331 0.56143 0.0
C133 C 0.96973 0.39126 0.52455 0.0
C134 C 0.95934 0.44892 0.561 0.0
N135 N 0.93881 0.36568 0.5436 0.0
C136 C 0.99638 0.44672 0.52314 0.0
C137 C 0.99273 0.47628 0.54188 0.0
H138 H 0.90923 0.37236 0.5768 0.0
H139 H 0.97658 0.36907 0.51112 0.0
C140 C 1.0054 0.18764 0.51879 0.0
N141 N 0.01459 0.23125 0.53129 0.0
C142 C 0.04726 0.1859 0.50781 0.0
C143 C 0.10642 0.27506 0.52183 0.0
C144 C 0.06352 0.27498 0.5325 0.0
C145 C 0.09843 0.23006 0.50937 0.0
H146 H 0.96556 0.15474 0.51694 0.0
H147 H 0.06925 0.3102 0.54139 0.0
O148 O 0.85754 0.24491 0.57064 0.0
O149 O 0.90694 0.17244 0.5657 0.0
O150 O 0.91351 0.24431 0.52335 0.0
O151 O 0.97869 0.29411 0.5665 0.0
H152 H 0.82451 0.18312 0.60843 0.0
H153 H 0.77416 0.23619 0.5479 0.0
H154 H 0.73011 0.12595 0.61978 0.0
H155 H 0.68059 0.17776 0.5602 0.0
H156 H 1.00549 0.09819 0.58817 0.0
H157 H 0.86239 0.08767 0.53777 0.0
H158 H 0.98164 0.16846 0.5911 0.0
H159 H 0.88774 0.01843 0.53605 0.0
H160 H 0.70396 0.00745 0.54408 0.0
H161 H 0.78276 0.07429 0.47774 0.0
H162 H 1.00068 0.35002 0.6511 0.0
H163 H 0.97 0.18918 0.66047 0.0
H164 H 0.97679 0.27003 0.48629 0.0
H165 H 0.83326 0.25915 0.513 0.0
H166 H 0.96218 0.30319 0.44817 0.0
H167 H 0.82111 0.29251 0.47444 0.0
H168 H 0.02468 0.39717 0.57574 0.0
H169 H 0.03467 0.25646 0.58724 0.0
H170 H 0.10375 0.4471 0.60109 0.0
H171 H 0.11342 0.30865 0.61261 0.0
H172 H 0.95535 0.47038 0.57575 0.0
H173 H 0.02201 0.46638 0.50818 0.0
H174 H 0.03956 0.15107 0.49778 0.0
H175 H 0.14538 0.30996 0.52331 0.0
Li176 Li 0.68799 0.91511 0.9168 0.0
Li177 Li 0.67467 0.85954 0.87981 0.0
Li178 Li 0.73036 0.95583 0.87914 0.0
Li179 Li 0.63244 0.91652 0.88295 0.0
C180 C 0.7927 0.91771 0.89775 0.0
N181 N 0.89827 0.94488 0.89531 0.0
C182 C 0.80875 0.89073 0.88239 0.0
C183 C 0.83043 0.95799 0.91212 0.0
C184 C 0.86225 0.90516 0.88134 0.0
C185 C 0.88357 0.9713 0.91055 0.0
C186 C 0.59784 0.80295 0.91073 0.0
C187 C 0.53889 0.70961 0.90399 0.0
N188 N 0.55771 0.6984 0.92386 0.0
C189 C 0.61664 0.79057 0.93108 0.0
C190 C 0.55864 0.76226 0.89706 0.0
C191 C 0.59579 0.73743 0.93744 0.0
C192 C 0.66606 0.95009 0.95869 0.0
N193 N 0.69704 0.93123 0.95013 0.0
C194 C 0.75302 0.96392 0.98425 0.0
C195 C 0.73891 0.93605 0.96278 0.0
C196 C 0.72476 0.98851 0.99254 0.0
C197 C 0.67979 0.97979 0.97951 0.0
H198 H 0.6332 0.94613 0.9482 0.0
H199 H 0.76295 0.92057 0.95571 0.0
C200 C 0.68707 0.80425 0.84108 0.0
N201 N 0.67718 0.79962 0.86476 0.0
C202 C 0.7037 0.77245 0.82957 0.0
C203 C 0.6978 0.72927 0.86665 0.0
C204 C 0.68117 0.76206 0.87751 0.0
C205 C 0.71105 0.73526 0.8424 0.0
H206 H 0.68616 0.83545 0.83123 0.0
H207 H 0.67498 0.75979 0.89641 0.0
C208 C 0.70642 0.02049 0.91326 0.0
N209 N 0.73772 0.10908 0.94131 0.0
C210 C 0.67225 0.04053 0.91699 0.0
C211 C 0.75682 0.04609 0.92355 0.0
C212 C 0.68873 0.08523 0.93127 0.0
C213 C 0.77183 0.09062 0.93775 0.0
C214 C 0.64937 0.90298 0.83559 0.0
C215 C 0.67353 0.93947 0.81726 0.0
C216 C 0.59902 0.85885 0.83229 0.0
C217 C 0.64664 0.93122 0.79584 0.0
C218 C 0.57344 0.85202 0.8106 0.0
N219 N 0.59758 0.88805 0.79299 0.0
C220 C 0.82358 1.00251 0.85212 0.0
C221 C 0.79434 0.06061 0.86583 0.0
C222 C 0.86718 0.04437 0.84115 0.0
N223 N 0.78915 0.01169 0.86462 0.0
C224 C 0.83717 0.10352 0.85517 0.0
C225 C 0.87419 0.09554 0.8427 0.0
H226 H 0.81664 0.96267 0.85027 0.0
H227 H 0.76486 0.06634 0.87472 0.0
C228 C 0.54483 0.92942 0.89477 0.0
N229 N 0.57893 0.93589 0.87694 0.0
C230 C 0.51627 0.95646 0.89434 0.0
C231 C 0.55545 0.99342 0.85646 0.0
C232 C 0.58424 0.96677 0.85788 0.0
C233 C 0.52226 0.98981 0.87521 0.0
H234 H 0.54273 0.90637 0.91015 0.0
H235 H 0.61326 0.97359 0.84444 0.0
O236 O 0.74032 0.90404 0.89903 0.0
O237 O 0.61845 0.85462 0.90397 0.0
O238 O 0.6904 0.97578 0.89983 0.0
O239 O 0.67501 0.9106 0.85669 0.0
H240 H 0.78055 0.85951 0.8711 0.0
H241 H 0.81901 0.97873 0.92444 0.0
H242 H 0.87514 0.88486 0.86938 0.0
H243 H 0.91312 1.00258 0.92151 0.0
H244 H 0.50863 0.67767 0.89356 0.0
H245 H 0.64724 0.82162 0.94175 0.0
H246 H 0.54377 0.77123 0.88124 0.0
H247 H 0.61001 0.72722 0.95311 0.0
H248 H 0.78664 0.96708 0.9938 0.0
H249 H 0.65653 0.99782 0.98442 0.0
H250 H 0.71433 0.77987 0.81107 0.0
H251 H 0.70231 0.70105 0.87741 0.0
H252 H 0.63336 0.02182 0.90905 0.0
H253 H 0.78403 0.03174 0.92058 0.0
H254 H 0.66252 0.10091 0.93438 0.0
H255 H 0.8106 0.11052 0.94593 0.0
H256 H 0.71255 0.97383 0.8196 0.0
H257 H 0.57993 0.83031 0.84635 0.0
H258 H 0.66476 0.95916 0.78148 0.0
H259 H 0.53441 0.8181 0.80778 0.0
H260 H 0.89431 0.03667 0.83111 0.0
H261 H 0.84123 0.14248 0.85664 0.0
H262 H 0.49085 0.9525 0.9091 0.0
H263 H 0.56138 0.01902 0.8415 0.0
Li264 Li 0.82091 0.67178 0.21313 0.0
Li265 Li 0.77865 0.68508 0.25013 0.0
Li266 Li 0.72169 0.62948 0.21627 0.0
Li267 Li 0.78025 0.72741 0.21246 0.0
C268 C 0.80074 0.59498 0.24406 0.0
N269 N 0.8652 0.55491 0.2572 0.0
C270 C 0.83193 0.61382 0.2644 0.0
C271 C 0.80224 0.55577 0.2304 0.0
C272 C 0.86424 0.59299 0.27076 0.0
C273 C 0.83515 0.53605 0.23733 0.0
C274 C 0.88072 0.78981 0.23106 0.0
C275 C 0.91804 0.88068 0.24388 0.0
N276 N 0.95912 0.8954 0.22861 0.0
C277 C 0.92372 0.80589 0.21568 0.0
C278 C 0.87822 0.82753 0.24545 0.0
C279 C 0.96278 0.85939 0.21463 0.0
C280 C 0.88865 0.68425 0.1744 0.0
N281 N 0.88338 0.67434 0.19808 0.0
C282 C 0.97435 0.69499 0.19998 0.0
C283 C 0.92493 0.67835 0.21084 0.0
C284 C 0.98163 0.70825 0.17573 0.0
C285 C 0.93709 0.70089 0.1629 0.0
H286 H 0.85654 0.68333 0.16455 0.0
H287 H 0.92099 0.67214 0.22973 0.0
C288 C 0.72172 0.66322 0.292 0.0
N289 N 0.77158 0.69414 0.28345 0.0
C290 C 0.70577 0.67697 0.31282 0.0
C291 C 0.79492 0.7501 0.31758 0.0
C292 C 0.80866 0.73597 0.29611 0.0
C293 C 0.74207 0.72191 0.32586 0.0
H294 H 0.6928 0.6304 0.2815 0.0
H295 H 0.8482 0.75996 0.28905 0.0
C296 C 0.75224 0.64642 0.1689 0.0
N297 N 0.71557 0.59463 0.12628 0.0
C298 C 0.73993 0.67055 0.15055 0.0
C299 C 0.74608 0.59609 0.16561 0.0
C300 C 0.72139 0.64367 0.12912 0.0
C301 C 0.72744 0.57052 0.14392 0.0
C302 C 0.69165 0.70348 0.24655 0.0
C303 C 0.63738 0.66942 0.25018 0.0
C304 C 0.71648 0.75383 0.25689 0.0
C305 C 0.60914 0.68594 0.26442 0.0
C306 C 0.68694 0.7689 0.27104 0.0
N307 N 0.63432 0.73489 0.2745 0.0
C308 C 0.62119 0.542 0.22817 0.0
C309 C 0.62325 0.581 0.19116 0.0
C310 C 0.56558 0.51343 0.22774 0.0
N311 N 0.64882 0.57591 0.21027 0.0
C312 C 0.5678 0.55219 0.18975 0.0
C313 C 0.53823 0.51921 0.20855 0.0
H314 H 0.64213 0.54007 0.24359 0.0
H315 H 0.64545 0.60987 0.17767 0.0
C316 C 0.82675 0.82054 0.18539 0.0
N317 N 0.78317 0.78619 0.19793 0.0
C318 C 0.82853 0.86416 0.17441 0.0
C319 C 0.73945 0.83431 0.1885 0.0
C320 C 0.73949 0.79147 0.19917 0.0
C321 C 0.78443 0.87126 0.17601 0.0
H322 H 0.85961 0.81353 0.18352 0.0
H323 H 0.70428 0.76204 0.20808 0.0
O324 O 0.76965 0.61555 0.23729 0.0
O325 O 0.84203 0.73743 0.23234 0.0
O326 O 0.77016 0.67206 0.19001 0.0
O327 O 0.72036 0.68741 0.23316 0.0
H328 H 0.83147 0.64441 0.27507 0.0
H329 H 0.77838 0.54087 0.21458 0.0
H330 H 0.88869 0.60724 0.28644 0.0
H331 H 0.83685 0.50579 0.2269 0.0
H332 H 0.91634 0.91021 0.25487 0.0
H333 H 0.92671 0.77771 0.20436 0.0
H334 H 0.84609 0.8161 0.2578 0.0
H335 H 0.99594 0.8723 0.20264 0.0
H336 H 1.00709 0.69951 0.21074 0.0
H337 H 0.94031 0.71153 0.1444 0.0
H338 H 0.66447 0.65376 0.31773 0.0
H339 H 0.82541 0.78368 0.32714 0.0
H340 H 0.74453 0.70956 0.15289 0.0
H341 H 0.75551 0.57703 0.17969 0.0
H342 H 0.71161 0.66178 0.11475 0.0
H343 H 0.72238 0.5315 0.14111 0.0
H344 H 0.61718 0.63057 0.24219 0.0
H345 H 0.75809 0.78097 0.25399 0.0
H346 H 0.5672 0.65981 0.26745 0.0
H347 H 0.70584 0.80763 0.27925 0.0
H348 H 0.54412 0.48817 0.24254 0.0
H349 H 0.54814 0.55795 0.17474 0.0
H350 H 0.86334 0.89122 0.16435 0.0
H351 H 0.7046 0.83844 0.19001 0.0
Li352 Li 0.15483 0.81794 0.54644 0.0
Li353 Li 0.09931 0.77564 0.58345 0.0
Li354 Li 0.09802 0.7187 0.54959 0.0
Li355 Li 0.05855 0.77717 0.54578 0.0
C356 C 0.21154 0.79785 0.57738 0.0
N357 N 0.31605 0.86238 0.59054 0.0
C358 C 0.22385 0.82907 0.59772 0.0
C359 C 0.25227 0.79935 0.56375 0.0
C360 C 0.27697 0.86141 0.60409 0.0
C361 C 0.3049 0.83231 0.57069 0.0
C362 C 0.09648 0.87761 0.56434 0.0
C363 C 0.04284 0.91484 0.57714 0.0
N364 N 0.0691 0.95585 0.56182 0.0
C365 C 0.12329 0.92054 0.54891 0.0
C366 C 0.05627 0.87511 0.57874 0.0
C367 C 0.10875 0.95952 0.54782 0.0
C368 C 0.21007 0.88573 0.50772 0.0
N369 N 0.21471 0.88044 0.5314 0.0
C370 C 0.28501 0.97143 0.5333 0.0
C371 C 0.25225 0.922 0.54416 0.0
C372 C 0.27904 0.97872 0.50906 0.0
C373 C 0.24186 0.93418 0.49622 0.0
H374 H 0.17888 0.85362 0.49786 0.0
H375 H 0.25451 0.91804 0.56305 0.0
C376 C 0.06425 0.71872 0.62532 0.0
N377 N 0.0832 0.76858 0.61677 0.0
C378 C 0.03457 0.70279 0.64615 0.0
C379 C 0.05062 0.79195 0.6509 0.0
C380 C 0.07847 0.80567 0.62943 0.0
C381 C 0.02595 0.7391 0.65919 0.0
H382 H 0.06812 0.68978 0.61482 0.0
H383 H 0.09402 0.84521 0.62237 0.0
C384 C 0.11169 0.74932 0.50222 0.0
N385 N 0.1271 0.71291 0.45959 0.0
C386 C 0.07533 0.73704 0.48383 0.0
C387 C 0.15593 0.74328 0.49896 0.0
C388 C 0.08382 0.71863 0.4624 0.0
C389 C 0.16301 0.72476 0.47726 0.0
C390 C 0.99392 0.68852 0.57986 0.0
C391 C 0.9736 0.63419 0.58337 0.0
C392 C 0.96849 0.71333 0.5903 0.0
C393 C 0.92882 0.60588 0.59759 0.0
C394 C 0.92386 0.68371 0.60443 0.0
N395 N 0.90514 0.63104 0.60778 0.0
C396 C 0.08495 0.61822 0.56154 0.0
C397 C 0.04832 0.62028 0.52445 0.0
C398 C 0.05793 0.56262 0.56111 0.0
N399 N 0.07881 0.64585 0.54361 0.0
C400 C 0.02171 0.56482 0.52304 0.0
C401 C 0.02496 0.53526 0.54188 0.0
H402 H 0.10769 0.63918 0.57699 0.0
H403 H 0.04176 0.64247 0.51092 0.0
C404 C 0.01206 0.82356 0.51859 0.0
N405 N 1.00269 0.78008 0.53125 0.0
C406 C 0.97028 0.82542 0.50759 0.0
C407 C 0.9108 0.73662 0.52193 0.0
C408 C 0.95363 0.73657 0.5326 0.0
C409 C 0.91898 0.7815 0.5093 0.0
H410 H 0.05198 0.85625 0.51663 0.0
H411 H 0.94772 0.70142 0.54161 0.0
O412 O 0.15988 0.76672 0.57061 0.0
O413 O 0.11026 0.83899 0.56566 0.0
O414 O 0.10383 0.76712 0.52333 0.0
O415 O 0.03871 0.71729 0.56649 0.0
H416 H 0.19277 0.82861 0.60837 0.0
H417 H 0.24335 0.77548 0.54794 0.0
H418 H 0.28714 0.88588 0.61976 0.0
H419 H 0.33687 0.834 0.56028 0.0
H420 H 0.01162 0.91314 0.58812 0.0
H421 H 0.15446 0.92353 0.53759 0.0
H422 H 0.03567 0.84304 0.59113 0.0
H423 H 0.12892 0.99262 0.5358 0.0
H424 H 0.31323 1.00416 0.54407 0.0
H425 H 0.23444 0.93741 0.47772 0.0
H426 H 0.01646 0.66148 0.65106 0.0
H427 H 0.04754 0.82245 0.66046 0.0
H428 H 0.04087 0.74155 0.48615 0.0
H429 H 0.18437 0.75269 0.51306 0.0
H430 H 0.05599 0.70886 0.44801 0.0
H431 H 0.19702 0.71979 0.47447 0.0
H432 H 0.99215 0.61399 0.5753 0.0
H433 H 0.98305 0.75498 0.58751 0.0
H434 H 0.91292 0.56389 0.60053 0.0
H435 H 0.9041 0.7026 0.61272 0.0
H436 H 0.06161 0.54116 0.57595 0.0
H437 H 0.99642 0.54516 0.50799 0.0
H438 H 0.97813 0.86014 0.49743 0.0
H439 H 0.87174 0.7019 0.52352 0.0
Li440 Li 0.32952 0.09642 0.91678 0.0
Li441 Li 0.34274 0.15194 0.87977 0.0
Li442 Li 0.28722 0.05565 0.87911 0.0
Li443 Li 0.38516 0.09512 0.88292 0.0
C444 C 0.22471 0.09358 0.89768 0.0
N445 N 0.11908 0.06619 0.89515 0.0
C446 C 0.2086 0.12039 0.88224 0.0
C447 C 0.18701 0.05337 0.91208 0.0
C448 C 0.15507 0.10584 0.88116 0.0
C449 C 0.13384 0.03993 0.91047 0.0
C450 C 0.41954 0.20864 0.91071 0.0
C451 C 0.47845 0.30201 0.90402 0.0
N452 N 0.45953 0.31316 0.92387 0.0
C453 C 0.40064 0.22096 0.93104 0.0
C454 C 0.45877 0.24938 0.89708 0.0
C455 C 0.42142 0.27408 0.93742 0.0
C456 C 0.3514 0.06137 0.95865 0.0
N457 N 0.32048 0.08032 0.9501 0.0
C458 C 0.26453 0.04774 0.98424 0.0
C459 C 0.27866 0.07559 0.96276 0.0
C460 C 0.29272 0.02307 0.99252 0.0
C461 C 0.33764 0.03169 0.97949 0.0
H462 H 0.3842 0.06524 0.94815 0.0
H463 H 0.25467 0.09113 0.9557 0.0
C464 C 0.33019 0.20718 0.84105 0.0
N465 N 0.34011 0.21181 0.86473 0.0
C466 C 0.31352 0.23897 0.82955 0.0
C467 C 0.31942 0.28211 0.86664 0.0
C468 C 0.33608 0.24934 0.87749 0.0
C469 C 0.30616 0.27614 0.84239 0.0
H470 H 0.33111 0.176 0.83119 0.0
H471 H 0.3423 0.2516 0.89639 0.0
C472 C 0.31125 0.99103 0.91319 0.0
N473 N 0.27997 0.90227 0.94112 0.0
C474 C 0.34527 0.97073 0.91671 0.0
C475 C 0.261 0.9656 0.92364 0.0
C476 C 0.3288 0.92596 0.93093 0.0
C477 C 0.246 0.92097 0.93777 0.0
C478 C 0.3682 0.10879 0.83555 0.0
C479 C 0.34413 0.07242 0.81716 0.0
C480 C 0.4185 0.15303 0.83229 0.0
C481 C 0.37103 0.08092 0.79573 0.0
C482 C 0.4441 0.16011 0.81059 0.0
N483 N 0.42004 0.1242 0.79292 0.0
C484 C 0.19433 0.00916 0.85192 0.0
C485 C 0.22289 0.95073 0.86593 0.0
C486 C 0.15069 0.96738 0.84093 0.0
N487 N 0.22844 0.99979 0.86458 0.0
C488 C 0.18 0.9079 0.85526 0.0
C489 C 0.14331 0.91608 0.84264 0.0
H490 H 0.20157 0.04909 0.84996 0.0
H491 H 0.25213 0.94482 0.87494 0.0
C492 C 0.47258 0.08207 0.89486 0.0
N493 N 0.43879 0.07591 0.87693 0.0
C494 C 0.50117 0.05505 0.89443 0.0
C495 C 0.46269 0.01877 0.85637 0.0
C496 C 0.43385 0.04539 0.85778 0.0
C497 C 0.49552 0.02204 0.87521 0.0
H498 H 0.47439 0.10483 0.9103 0.0
H499 H 0.40508 0.03881 0.84425 0.0
O500 O 0.27712 0.10737 0.89899 0.0
O501 O 0.39901 0.15699 0.90394 0.0
O502 O 0.32726 0.03581 0.89981 0.0
O503 O 0.34254 0.10093 0.85665 0.0
H504 H 0.23677 0.15156 0.87093 0.0
H505 H 0.19848 0.03277 0.92446 0.0
H506 H 0.14213 0.126 0.86913 0.0
H507 H 0.10432 0.00871 0.92146 0.0
H508 H 0.50873 0.33399 0.8936 0.0
H509 H 0.37002 0.18988 0.9417 0.0
H510 H 0.47372 0.24046 0.88127 0.0
H511 H 0.40712 0.28425 0.95308 0.0
H512 H 0.23096 0.04466 0.9938 0.0
H513 H 0.36084 0.01359 0.98439 0.0
H514 H 0.30287 0.23155 0.81106 0.0
H515 H 0.3149 0.31032 0.87741 0.0
H516 H 0.38402 0.98929 0.90864 0.0
H517 H 0.23391 0.98015 0.92083 0.0
H518 H 0.3549 0.91007 0.93388 0.0
H519 H 0.20735 0.90121 0.94606 0.0
H520 H 0.30516 0.03797 0.81948 0.0
H521 H 0.43752 0.18147 0.84639 0.0
H522 H 0.35298 0.05308 0.78134 0.0
H523 H 0.48309 0.19412 0.80781 0.0
H524 H 0.12382 0.97523 0.83077 0.0
H525 H 0.17566 0.86884 0.85686 0.0
H526 H 0.52632 0.05875 0.90926 0.0
H527 H 0.45703 0.99346 0.84133 0.0
Li528 Li 0.73037 0.77744 0.46098 0.0
Li529 Li 0.63245 0.71884 0.45719 0.0
Li530 Li 0.688 0.77583 0.42334 0.0
Li531 Li 0.67471 0.81805 0.46035 0.0
C532 C 0.70638 0.68884 0.42685 0.0
N533 N 0.73762 0.63153 0.39878 0.0
C534 C 0.67221 0.63461 0.42314 0.0
C535 C 0.75675 0.71363 0.41653 0.0
C536 C 0.68865 0.60639 0.40885 0.0
C537 C 0.77173 0.6841 0.40233 0.0
C538 C 0.64937 0.74935 0.50455 0.0
C539 C 0.57342 0.72451 0.52951 0.0
N540 N 0.59751 0.71262 0.54715 0.0
C541 C 0.67347 0.73703 0.52291 0.0
C542 C 0.59903 0.74319 0.50782 0.0
C543 C 0.64656 0.71846 0.54433 0.0
C544 C 0.82356 0.82394 0.48802 0.0
N545 N 0.78917 0.78037 0.47549 0.0
C546 C 0.83726 0.7366 0.48491 0.0
C547 C 0.79442 0.73667 0.47425 0.0
C548 C 0.87422 0.78156 0.4974 0.0
C549 C 0.86716 0.82569 0.499 0.0
H550 H 0.81657 0.85682 0.4899 0.0
H551 H 0.76497 0.70147 0.46534 0.0
C552 C 0.54484 0.61833 0.44536 0.0
N553 N 0.57893 0.64597 0.4632 0.0
C554 C 0.51627 0.56273 0.44579 0.0
C555 C 0.5554 0.56495 0.48369 0.0
C556 C 0.5842 0.6204 0.48227 0.0
C557 C 0.52224 0.53538 0.46494 0.0
H558 H 0.54277 0.63928 0.42997 0.0
H559 H 0.6132 0.64261 0.49572 0.0
C560 C 0.79273 0.8779 0.44241 0.0
N561 N 0.89831 0.95628 0.44488 0.0
C562 C 0.80878 0.92093 0.45777 0.0
C563 C 0.83046 0.87536 0.42804 0.0
C564 C 0.86229 0.95998 0.45883 0.0
C565 C 0.88361 0.91516 0.42962 0.0
C566 C 0.59786 0.79784 0.42942 0.0
C567 C 0.61671 0.82906 0.40908 0.0
C568 C 0.55861 0.79928 0.44306 0.0
C569 C 0.59585 0.86133 0.40271 0.0
C570 C 0.53885 0.83217 0.43612 0.0
N571 N 0.55772 0.86224 0.41626 0.0
C572 C 0.66603 0.71895 0.38144 0.0
C573 C 0.73893 0.80583 0.37737 0.0
C574 C 0.67976 0.70299 0.36061 0.0
N575 N 0.69703 0.76878 0.39001 0.0
C576 C 0.75304 0.79208 0.3559 0.0
C577 C 0.72476 0.73925 0.3476 0.0
H578 H 0.63317 0.69005 0.39193 0.0
H579 H 0.76298 0.84534 0.38444 0.0
C580 C 0.68722 0.88576 0.49909 0.0
N581 N 0.67723 0.88048 0.47541 0.0
C582 C 0.70383 0.93418 0.5106 0.0
C583 C 0.69772 0.97141 0.47354 0.0
C584 C 0.68112 0.92201 0.46267 0.0
C585 C 0.71107 0.9787 0.49778 0.0
H586 H 0.68639 0.85367 0.50892 0.0
H587 H 0.67485 0.91806 0.44378 0.0
O588 O 0.69039 0.71754 0.44029 0.0
O589 O 0.67504 0.7673 0.48345 0.0
O590 O 0.74034 0.83922 0.44111 0.0
O591 O 0.61847 0.76678 0.43619 0.0
H592 H 0.63334 0.61444 0.43111 0.0
H593 H 0.78396 0.75519 0.41948 0.0
H594 H 0.66244 0.56448 0.40576 0.0
H595 H 0.81048 0.70297 0.39412 0.0
H596 H 0.5344 0.71944 0.53231 0.0
H597 H 0.71248 0.74164 0.52058 0.0
H598 H 0.57999 0.75263 0.49375 0.0
H599 H 0.66464 0.70865 0.5587 0.0
H600 H 0.84136 0.70173 0.4834 0.0
H601 H 0.89425 0.86049 0.50906 0.0
H602 H 0.49087 0.54126 0.43103 0.0
H603 H 0.56131 0.5453 0.49866 0.0
H604 H 0.78059 0.92396 0.46906 0.0
H605 H 0.81904 0.8432 0.41572 0.0
H606 H 0.87519 0.99316 0.47081 0.0
H607 H 0.91316 0.91343 0.41867 0.0
H608 H 0.64735 0.82864 0.39842 0.0
H609 H 0.5437 0.77541 0.45887 0.0
H610 H 0.61012 0.8858 0.38704 0.0
H611 H 0.50856 0.83382 0.44654 0.0
H612 H 0.65649 0.6617 0.35569 0.0
H613 H 0.78667 0.82254 0.34635 0.0
H614 H 0.71453 0.93741 0.52909 0.0
H615 H 0.70215 1.00413 0.4628 0.0
Li616 Li 0.95875 0.72747 0.79432 0.0
Li617 Li 0.91944 0.62954 0.79053 0.0
Li618 Li 0.91799 0.68508 0.75668 0.0
Li619 Li 0.86247 0.67179 0.79368 0.0
C620 C 0.02335 0.70346 0.76018 0.0
N621 N 0.11187 0.73467 0.73209 0.0
C622 C 0.04337 0.66927 0.75645 0.0
C623 C 0.04894 0.75383 0.74986 0.0
C624 C 0.08803 0.6857 0.74216 0.0
C625 C 0.09344 0.7688 0.73565 0.0
C626 C 0.90585 0.64646 0.83789 0.0
C627 C 0.85477 0.57051 0.86284 0.0
N628 N 0.89075 0.5946 0.88048 0.0
C629 C 0.94229 0.67057 0.85624 0.0
C630 C 0.86169 0.59612 0.84116 0.0
C631 C 0.93396 0.64365 0.87766 0.0
C632 C 1.00543 0.82065 0.82136 0.0
N633 N 0.01462 0.78627 0.80883 0.0
C634 C 0.10648 0.83436 0.81824 0.0
C635 C 0.06357 0.79152 0.80758 0.0
C636 C 0.09848 0.87132 0.83074 0.0
C637 C 0.04729 0.86426 0.83233 0.0
H638 H 0.96558 0.81367 0.82324 0.0
H639 H 0.06932 0.76207 0.79867 0.0
C640 C 0.93231 0.54191 0.77871 0.0
N641 N 0.93879 0.57603 0.79654 0.0
C642 C 0.95935 0.51334 0.77915 0.0
C643 C 0.99633 0.55255 0.81702 0.0
C644 C 0.96968 0.58135 0.8156 0.0
C645 C 0.99271 0.51936 0.79828 0.0
H646 H 0.90925 0.5398 0.76333 0.0
H647 H 0.97651 0.61038 0.82904 0.0
C648 C 0.92064 0.78981 0.77574 0.0
N649 N 0.94787 0.8954 0.77821 0.0
C650 C 0.89367 0.80587 0.7911 0.0
C651 C 0.96093 0.82755 0.76138 0.0
C652 C 0.90814 0.85938 0.79217 0.0
C653 C 0.97428 0.88069 0.76296 0.0
C654 C 0.80584 0.59494 0.76276 0.0
C655 C 0.79348 0.61379 0.74242 0.0
C656 C 0.76514 0.55568 0.7764 0.0
C657 C 0.74034 0.59292 0.73605 0.0
C658 C 0.7125 0.53592 0.76946 0.0
N659 N 0.7013 0.55479 0.7496 0.0
C660 C 0.95287 0.66309 0.71478 0.0
C661 C 0.93892 0.736 0.7107 0.0
C662 C 0.98255 0.6768 0.69395 0.0
N663 N 0.93406 0.6941 0.72335 0.0
C664 C 0.96678 0.7501 0.68923 0.0
C665 C 0.99131 0.7218 0.68093 0.0
H666 H 0.9489 0.63022 0.72526 0.0
H667 H 0.92348 0.76006 0.71778 0.0
C668 C 0.80727 0.68429 0.83242 0.0
N669 N 0.80257 0.67431 0.80875 0.0
C670 C 0.77546 0.7009 0.84393 0.0
C671 C 0.73215 0.69482 0.80688 0.0
C672 C 0.76493 0.67821 0.79601 0.0
C673 C 0.73819 0.70816 0.83112 0.0
H674 H 0.83852 0.68345 0.84226 0.0
H675 H 0.76261 0.67194 0.77712 0.0
O676 O 0.97868 0.68749 0.77363 0.0
O677 O 0.91356 0.67213 0.81679 0.0
O678 O 0.90694 0.73742 0.77445 0.0
O679 O 0.85751 0.61555 0.76953 0.0
H680 H 0.02467 0.6304 0.76442 0.0
H681 H 0.03462 0.78106 0.75283 0.0
H682 H 0.1037 0.65948 0.73905 0.0
H683 H 0.11332 0.80755 0.72745 0.0
H684 H 0.82082 0.53148 0.86564 0.0
H685 H 0.97669 0.70958 0.85391 0.0
H686 H 0.83319 0.57707 0.82709 0.0
H687 H 0.96185 0.66173 0.89203 0.0
H688 H 0.14545 0.83846 0.81674 0.0
H689 H 0.03958 0.89134 0.8424 0.0
H690 H 0.95538 0.48791 0.76439 0.0
H691 H 0.02194 0.5585 0.83198 0.0
H692 H 0.86244 0.77767 0.80239 0.0
H693 H 0.98166 0.81612 0.74906 0.0
H694 H 0.88785 0.87227 0.80414 0.0
H695 H 1.00557 0.91024 0.75201 0.0
H696 H 0.82453 0.64442 0.73176 0.0
H697 H 0.77411 0.54077 0.79221 0.0
H698 H 0.73014 0.60718 0.72038 0.0
H699 H 0.68056 0.50563 0.77988 0.0
H700 H 1.00055 0.65352 0.68903 0.0
H701 H 0.96996 0.78373 0.67969 0.0
H702 H 0.78293 0.7116 0.86243 0.0
H703 H 0.70385 0.69925 0.79613 0.0
Li704 Li 0.23722 0.95593 0.12766 0.0
Li705 Li 0.29578 0.91657 0.12387 0.0
Li706 Li 0.23881 0.91515 0.09002 0.0
Li707 Li 0.19656 0.85965 0.12703 0.0
C708 C 0.32586 0.02049 0.09351 0.0
N709 N 0.38326 0.10898 0.06542 0.0
C710 C 0.38009 0.04054 0.08984 0.0
C711 C 0.3011 0.04604 0.08314 0.0
C712 C 0.40836 0.08518 0.07554 0.0
C713 C 0.33068 0.09053 0.06892 0.0
C714 C 0.26524 0.90296 0.17123 0.0
C715 C 0.29001 0.85178 0.19617 0.0
N716 N 0.3019 0.88772 0.21382 0.0
C717 C 0.27757 0.93936 0.1896 0.0
C718 C 0.27137 0.85876 0.17449 0.0
C719 C 0.2961 0.93096 0.21101 0.0
C720 C 0.19078 1.00251 0.15478 0.0
N721 N 0.23428 0.0118 0.14217 0.0
C722 C 0.27788 0.10369 0.15151 0.0
C723 C 0.27786 0.06081 0.14084 0.0
C724 C 0.23298 0.09559 0.16409 0.0
C725 C 0.18898 0.04433 0.16577 0.0
H726 H 0.15801 0.96261 0.15672 0.0
H727 H 0.31302 0.06665 0.13187 0.0
C728 C 0.39626 0.92942 0.11204 0.0
N729 N 0.36863 0.93587 0.12988 0.0
C730 C 0.45187 0.95645 0.11247 0.0
C731 C 0.44966 0.99335 0.15037 0.0
C732 C 0.39421 0.96671 0.14895 0.0
C733 C 0.47923 0.98977 0.13161 0.0
H734 H 0.37531 0.9064 0.09665 0.0
H735 H 0.37201 0.97351 0.1624 0.0
C736 C 0.13679 0.91791 0.10911 0.0
N737 N 0.05854 0.94528 0.11164 0.0
C738 C 0.0938 0.891 0.1245 0.0
C739 C 0.13936 0.95821 0.09475 0.0
C740 C 0.05482 0.90554 0.12559 0.0
C741 C 0.09962 0.97163 0.09636 0.0
C742 C 0.21674 0.80299 0.09609 0.0
C743 C 0.18551 0.79064 0.07576 0.0
C744 C 0.21529 0.76227 0.10973 0.0
C745 C 0.15322 0.73751 0.06939 0.0
C746 C 0.18239 0.70964 0.10279 0.0
N747 N 0.15231 0.69846 0.08293 0.0
C748 C 0.29566 0.95 0.04811 0.0
C749 C 0.20881 0.93608 0.04405 0.0
C750 C 0.31162 0.97967 0.02727 0.0
N751 N 0.24584 0.93121 0.05668 0.0
C752 C 0.22255 0.96392 0.02257 0.0
C753 C 0.27538 0.98843 0.01426 0.0
H754 H 0.32455 0.94602 0.05859 0.0
H755 H 0.16931 0.92065 0.05113 0.0
C756 C 0.12883 0.80446 0.16577 0.0
N757 N 0.13411 0.79976 0.14209 0.0
C758 C 0.0804 0.77265 0.17727 0.0
C759 C 0.04317 0.72935 0.14021 0.0
C760 C 0.09258 0.76214 0.12935 0.0
C761 C 0.03588 0.7354 0.16445 0.0
H762 H 0.16092 0.83571 0.1756 0.0
H763 H 0.09653 0.75982 0.11046 0.0
O764 O 0.29712 0.97583 0.10697 0.0
O765 O 0.24733 0.91073 0.15013 0.0
O766 O 0.17542 0.90414 0.10779 0.0
O767 O 0.24781 0.85465 0.10287 0.0
H768 H 0.40025 0.02187 0.09785 0.0
H769 H 0.25953 0.0317 0.08606 0.0
H770 H 0.45028 0.10086 0.07247 0.0
H771 H 0.31182 0.11038 0.06068 0.0
H772 H 0.29505 0.8178 0.19896 0.0
H773 H 0.27299 0.97378 0.18728 0.0
H774 H 0.26193 0.83029 0.1604 0.0
H775 H 0.30591 0.95883 0.22539 0.0
H776 H 0.31265 0.14271 0.14994 0.0
H777 H 0.15424 0.03655 0.1759 0.0
H778 H 0.47333 0.95251 0.0977 0.0
H779 H 0.46932 0.01892 0.16534 0.0
H780 H 0.09075 0.85975 0.13578 0.0
H781 H 0.17148 0.97889 0.08241 0.0
H782 H 0.02166 0.88529 0.13758 0.0
H783 H 0.10137 1.00292 0.08541 0.0
H784 H 0.18593 0.8217 0.06511 0.0
H785 H 0.23918 0.77123 0.12554 0.0
H786 H 0.12875 0.72732 0.05372 0.0
H787 H 0.18074 0.67768 0.11319 0.0
H788 H 0.3529 0.99765 0.02235 0.0
H789 H 0.1921 0.96711 0.01303 0.0
H790 H 0.07716 0.78012 0.19576 0.0
H791 H 0.01045 0.70107 0.12946 0.0
Li792 Li 0.38513 0.29297 0.45722 0.0
Li793 Li 0.28718 0.23448 0.46101 0.0
Li794 Li 0.34271 0.19373 0.46038 0.0
Li795 Li 0.32951 0.23601 0.42336 0.0
C796 C 0.36819 0.26234 0.50458 0.0
N797 N 0.42009 0.29873 0.5472 0.0
C798 C 0.34415 0.27464 0.52298 0.0
C799 C 0.41848 0.26837 0.50782 0.0
C800 C 0.37109 0.29303 0.54441 0.0
C801 C 0.44411 0.28687 0.52951 0.0
C802 C 0.31129 0.32315 0.42689 0.0
C803 C 0.24614 0.32799 0.40227 0.0
N804 N 0.28015 0.38064 0.39889 0.0
C805 C 0.34537 0.37745 0.42335 0.0
C806 C 0.26106 0.29836 0.41644 0.0
C807 C 0.32898 0.40577 0.4091 0.0
C808 C 0.47262 0.39344 0.4453 0.0
N809 N 0.43875 0.36581 0.46321 0.0
C810 C 0.46259 0.44684 0.48375 0.0
C811 C 0.43375 0.39139 0.48234 0.0
C812 C 0.4955 0.4764 0.46494 0.0
C813 C 0.50121 0.44904 0.44573 0.0
H814 H 0.47448 0.37248 0.42987 0.0
H815 H 0.40493 0.36919 0.49585 0.0
C816 C 0.19434 0.18813 0.48823 0.0
N817 N 0.22839 0.23156 0.47553 0.0
C818 C 0.1507 0.18625 0.49922 0.0
C819 C 0.17989 0.27497 0.4848 0.0
C820 C 0.22278 0.27503 0.47413 0.0
C821 C 0.14325 0.23013 0.49747 0.0
H822 H 0.20163 0.15547 0.49022 0.0
H823 H 0.25198 0.31015 0.46509 0.0
C824 C 0.41953 0.21383 0.42943 0.0
N825 N 0.45954 0.14933 0.41626 0.0
C826 C 0.40059 0.18258 0.40911 0.0
C827 C 0.45881 0.21237 0.44305 0.0
C828 C 0.42139 0.15026 0.40273 0.0
C829 C 0.4785 0.17944 0.4361 0.0
C830 C 0.22468 0.13406 0.44248 0.0
C831 C 0.20857 0.09113 0.45791 0.0
C832 C 0.18697 0.13659 0.4281 0.0
C833 C 0.15503 0.05219 0.45902 0.0
C834 C 0.13379 0.09689 0.42972 0.0
N835 N 0.11903 0.05588 0.44504 0.0
C836 C 0.33008 0.12594 0.49912 0.0
C837 C 0.33614 0.08971 0.46269 0.0
C838 C 0.31343 0.0775 0.51061 0.0
N839 N 0.34008 0.13124 0.47544 0.0
C840 C 0.3195 0.04029 0.47355 0.0
C841 C 0.30615 0.03298 0.49779 0.0
H842 H 0.33093 0.15802 0.50896 0.0
H843 H 0.34242 0.09367 0.4438 0.0
C844 C 0.35146 0.29288 0.38146 0.0
N845 N 0.32049 0.24304 0.39003 0.0
C846 C 0.33773 0.30881 0.36063 0.0
C847 C 0.26451 0.21969 0.35591 0.0
C848 C 0.27862 0.20597 0.37739 0.0
C849 C 0.29276 0.27252 0.34761 0.0
H850 H 0.38429 0.3218 0.39196 0.0
H851 H 0.25459 0.16646 0.38447 0.0
O852 O 0.34249 0.24456 0.48348 0.0
O853 O 0.32723 0.29437 0.44031 0.0
O854 O 0.39899 0.24494 0.43622 0.0
O855 O 0.2771 0.17266 0.44114 0.0
H856 H 0.30518 0.27014 0.52068 0.0
H857 H 0.43747 0.25895 0.49371 0.0
H858 H 0.35306 0.30281 0.55881 0.0
H859 H 0.48309 0.29182 0.53229 0.0
H860 H 0.2075 0.30912 0.39396 0.0
H861 H 0.38411 0.39763 0.43144 0.0
H862 H 0.23392 0.25673 0.41925 0.0
H863 H 0.35512 0.44774 0.40613 0.0
H864 H 0.45689 0.46651 0.49878 0.0
H865 H 0.52641 0.4705 0.43091 0.0
H866 H 0.12388 0.15157 0.50941 0.0
H867 H 0.17549 0.30965 0.48318 0.0
H868 H 0.36994 0.183 0.39847 0.0
H869 H 0.47379 0.23627 0.45885 0.0
H870 H 0.40706 0.12576 0.38707 0.0
H871 H 0.50881 0.17777 0.4465 0.0
H872 H 0.23675 0.08811 0.46921 0.0
H873 H 0.19843 0.16865 0.41571 0.0
H874 H 0.1421 0.01909 0.47105 0.0
H875 H 0.10426 0.09861 0.41875 0.0
H876 H 0.30273 0.07425 0.52911 0.0
H877 H 0.31505 0.00757 0.46279 0.0
H878 H 0.36097 0.3501 0.35571 0.0
H879 H 0.2309 0.18921 0.34636 0.0
Li880 Li 0.05853 0.2843 0.79435 0.0
Li881 Li 0.09801 0.38225 0.79055 0.0
Li882 Li 0.09934 0.32662 0.7567 0.0
Li883 Li 0.15481 0.33982 0.79372 0.0
C884 C 0.99396 0.30839 0.76025 0.0
N885 N 0.90526 0.27719 0.73229 0.0
C886 C 0.97368 0.34243 0.75674 0.0
C887 C 0.96854 0.25817 0.74978 0.0
C888 C 0.92894 0.32601 0.7425 0.0
C889 C 0.92395 0.24321 0.73563 0.0
C890 C 0.11172 0.36531 0.83792 0.0
C891 C 0.16316 0.44122 0.86285 0.0
N892 N 0.1273 0.41721 0.88054 0.0
C893 C 0.0754 0.34128 0.85633 0.0
C894 C 0.156 0.41559 0.84116 0.0
C895 C 0.08398 0.36822 0.87776 0.0
C896 C 0.01204 0.19146 0.82156 0.0
N897 N 1.00266 0.22551 0.80887 0.0
C898 C 0.91075 0.17701 0.81815 0.0
C899 C 0.95358 0.21991 0.80748 0.0
C900 C 0.91895 0.14037 0.8308 0.0
C901 C 0.97026 0.14781 0.83255 0.0
H902 H 0.05198 0.19874 0.82355 0.0
H903 H 0.94765 0.24911 0.79844 0.0
C904 C 0.08498 0.46969 0.77862 0.0
N905 N 0.0788 0.43588 0.79654 0.0
C906 C 0.05796 0.49828 0.77905 0.0
C907 C 0.02166 0.45977 0.81711 0.0
C908 C 0.04828 0.43093 0.81569 0.0
C909 C 0.02494 0.49262 0.79827 0.0
H910 H 0.10774 0.47151 0.76318 0.0
H911 H 0.0417 0.40215 0.82922 0.0
C912 C 0.09645 0.22179 0.77581 0.0
N913 N 0.069 0.11615 0.77836 0.0
C914 C 0.12325 0.20567 0.79125 0.0
C915 C 0.05622 0.18408 0.76142 0.0
C916 C 0.10867 0.15214 0.79235 0.0
C917 C 0.04276 0.13091 0.76304 0.0
C918 C 0.21155 0.41663 0.76277 0.0
C919 C 0.22385 0.39769 0.74245 0.0
C920 C 0.25229 0.45592 0.77638 0.0
C921 C 0.27697 0.41848 0.73606 0.0
C922 C 0.30491 0.47561 0.76943 0.0
N923 N 0.31605 0.45664 0.74959 0.0
C924 C 0.06437 0.34853 0.71481 0.0
C925 C 0.07851 0.27574 0.71072 0.0
C926 C 0.03469 0.33478 0.69397 0.0
N927 N 0.08327 0.31759 0.72337 0.0
C928 C 0.05067 0.26161 0.68925 0.0
C929 C 0.02604 0.28982 0.68095 0.0
H930 H 0.06825 0.38135 0.7253 0.0
H931 H 0.09402 0.25173 0.71779 0.0
C932 C 0.20997 0.32717 0.83245 0.0
N933 N 0.21467 0.33718 0.80878 0.0
C934 C 0.24176 0.31051 0.84395 0.0
C935 C 0.28504 0.3166 0.80688 0.0
C936 C 0.25227 0.33324 0.79603 0.0
C937 C 0.27901 0.30325 0.83112 0.0
H938 H 0.17873 0.32801 0.8423 0.0
H939 H 0.25458 0.33953 0.77714 0.0
O940 O 0.03871 0.32436 0.77364 0.0
O941 O 0.10377 0.33961 0.81682 0.0
O942 O 0.11026 0.2742 0.77448 0.0
O943 O 0.1599 0.3961 0.76955 0.0
H944 H 0.99223 0.38116 0.76483 0.0
H945 H 0.98307 0.23106 0.75258 0.0
H946 H 0.91306 0.35211 0.73956 0.0
H947 H 0.9042 0.20458 0.72732 0.0
H948 H 0.1972 0.4802 0.86562 0.0
H949 H 0.04092 0.30232 0.85403 0.0
H950 H 0.18439 0.43458 0.82704 0.0
H951 H 0.05619 0.3502 0.89216 0.0
H952 H 0.87167 0.17262 0.81652 0.0
H953 H 0.97812 0.12098 0.84274 0.0
H954 H 0.06166 0.52344 0.76422 0.0
H955 H 0.99634 0.45411 0.83214 0.0
H956 H 0.15444 0.23385 0.80256 0.0
H957 H 0.03564 0.19555 0.74903 0.0
H958 H 0.12882 0.1392 0.80438 0.0
H959 H 0.01152 0.10139 0.75206 0.0
H960 H 0.19277 0.36703 0.73181 0.0
H961 H 0.24337 0.47091 0.79218 0.0
H962 H 0.28712 0.40414 0.72041 0.0
H963 H 0.33689 0.50593 0.77983 0.0
H964 H 0.01661 0.358 0.68906 0.0
H965 H 0.04756 0.22802 0.67969 0.0
H966 H 0.2343 0.2998 0.86244 0.0
H967 H 0.31331 0.31215 0.79612 0.0
Li968 Li 0.72163 0.09511 0.12388 0.0
Li969 Li 0.78014 0.05568 0.12767 0.0
Li970 Li 0.82087 0.15196 0.12704 0.0
Li971 Li 0.7786 0.09648 0.09002 0.0
C972 C 0.75226 0.10882 0.17124 0.0
N973 N 0.71588 0.12435 0.21385 0.0
C974 C 0.73998 0.07249 0.18964 0.0
C975 C 0.74623 0.15308 0.17448 0.0
C976 C 0.72158 0.08104 0.21107 0.0
C977 C 0.72773 0.16021 0.19617 0.0
C978 C 0.69149 0.9911 0.09356 0.0
C979 C 0.68668 0.92106 0.06897 0.0
N980 N 0.63404 0.90242 0.06558 0.0
C981 C 0.63719 0.97086 0.09001 0.0
C982 C 0.71629 0.96564 0.08313 0.0
C983 C 0.60889 0.92613 0.07576 0.0
C984 C 0.62115 0.0821 0.11196 0.0
N985 N 0.64879 0.07587 0.12987 0.0
C986 C 0.56777 0.01866 0.15042 0.0
C987 C 0.62322 0.04528 0.14901 0.0
C988 C 0.5382 0.022 0.13161 0.0
C989 C 0.56555 0.05507 0.1124 0.0
H990 H 0.6421 0.10492 0.09654 0.0
H991 H 0.64542 0.03866 0.16251 0.0
C992 C 0.82652 0.00912 0.15483 0.0
N993 N 0.78305 0.9998 0.14219 0.0
C994 C 0.82835 0.96732 0.16582 0.0
C995 C 0.73953 0.9079 0.15149 0.0
C996 C 0.73951 0.95076 0.14083 0.0
C997 C 0.78441 0.91604 0.16411 0.0
H998 H 0.85924 0.04904 0.15679 0.0
H999 H 0.70437 0.94488 0.13183 0.0
C1000 C 0.80075 0.20867 0.09609 0.0
N1001 N 0.86522 0.31318 0.08291 0.0
C1002 C 0.832 0.22098 0.07577 0.0
C1003 C 0.80219 0.2494 0.10971 0.0
C1004 C 0.86431 0.2741 0.06939 0.0
C1005 C 0.83511 0.30203 0.10275 0.0
C1006 C 0.88058 0.09366 0.10913 0.0
C1007 C 0.92353 0.1205 0.12454 0.0
C1008 C 0.87806 0.05342 0.09474 0.0
C1009 C 0.96251 0.10596 0.12563 0.0
C1010 C 0.91779 0.03999 0.09635 0.0
N1011 N 0.95882 0.06627 0.11165 0.0
C1012 C 0.88865 0.2071 0.16578 0.0
C1013 C 0.92486 0.24946 0.12936 0.0
C1014 C 0.93708 0.23891 0.17728 0.0
N1015 N 0.88334 0.21183 0.14211 0.0
C1016 C 0.97427 0.28225 0.14023 0.0
C1017 C 0.98159 0.2762 0.16446 0.0
H1018 H 0.85658 0.17584 0.17562 0.0
H1019 H 0.9209 0.2518 0.11048 0.0
C1020 C 0.72172 0.06152 0.04813 0.0
N1021 N 0.77157 0.08041 0.05669 0.0
C1022 C 0.70578 0.03183 0.0273 0.0
C1023 C 0.79491 0.04777 0.02257 0.0
C1024 C 0.80864 0.07563 0.04404 0.0
C1025 C 0.74208 0.02316 0.01428 0.0
H1026 H 0.6928 0.06542 0.05862 0.0
H1027 H 0.84816 0.09113 0.05112 0.0
O1028 O 0.77005 0.1009 0.15014 0.0
O1029 O 0.72026 0.03584 0.10697 0.0
O1030 O 0.76965 0.15701 0.10288 0.0
O1031 O 0.84196 0.10743 0.1078 0.0
H1032 H 0.74448 0.03803 0.18735 0.0
H1033 H 0.75565 0.18148 0.16037 0.0
H1034 H 0.71181 0.05324 0.22547 0.0
H1035 H 0.72278 0.19424 0.19894 0.0
H1036 H 0.70556 0.90129 0.06068 0.0
H1037 H 0.61701 0.98944 0.09807 0.0
H1038 H 0.75792 0.98014 0.08596 0.0
H1039 H 0.56693 0.91029 0.07278 0.0
H1040 H 0.54811 0.99329 0.16545 0.0
H1041 H 0.54408 0.05882 0.09759 0.0
H1042 H 0.86307 0.97513 0.17597 0.0
H1043 H 0.70479 0.86885 0.1499 0.0
H1044 H 0.83159 0.1899 0.06514 0.0
H1045 H 0.77829 0.24048 0.12551 0.0
H1046 H 0.8888 0.28427 0.05373 0.0
H1047 H 0.83676 0.334 0.11315 0.0
H1048 H 0.92655 0.1517 0.13585 0.0
H1049 H 0.84598 0.03279 0.08237 0.0
H1050 H 0.99563 0.12615 0.13765 0.0
H1051 H 0.91608 0.00874 0.08537 0.0
H1052 H 0.94033 0.23143 0.19577 0.0
H1053 H 1.00699 0.31056 0.12947 0.0
H1054 H 0.66449 0.01377 0.02239 0.0
H1055 H 0.8254 0.04465 0.01302 0.0
loop_
_geom_bond_atom_site_label_1
_geom_bond_atom_site_label_2
_geom_bond_distance
_geom_bond_site_symmetry_2
_ccdc_geom_bond_type
Li0 N17 1.990 . S
Li0 O60 1.956 . S
Li0 O61 1.970 . S
Li0 O62 1.961 . S
Li1 N25 1.990 . S
Li1 O60 1.970 . S
Li1 O61 1.956 . S
Li1 O63 1.961 . S
Li2 N47 1.990 . S
Li2 O60 1.961 . S
Li2 O62 1.956 . S
Li2 O63 1.970 . S
Li3 N53 1.990 . S
Li3 O61 1.961 . S
Li3 O62 1.970 . S
Li3 O63 1.956 . S
C4 C6 1.348 . S
C4 C7 1.356 . S
C4 O60 1.325 . S
N5 C8 1.314 . S
N5 C9 1.279 . S
C6 C4 1.348 . S
C6 C8 1.353 . S
C6 H64 0.929 . S
C7 C4 1.356 . S
C7 C9 1.358 . S
C7 H65 0.930 . S
C8 N5 1.314 . S
C8 C6 1.353 . S
C8 H66 0.930 . S
C9 N5 1.279 . S
C9 C7 1.358 . S
C9 H67 0.930 . S
C10 C13 1.348 . S
C10 C14 1.356 . S
C10 O61 1.325 . S
C11 N12 1.279 . S
C11 C14 1.358 . S
C11 H68 0.930 . S
N12 C11 1.279 . S
N12 C15 1.314 . S
C13 C10 1.348 . S
C13 C15 1.353 . S
C13 H69 0.929 . S
C14 C10 1.356 . S
C14 C11 1.358 . S
C14 H70 0.930 . S
C15 N12 1.314 . S
C15 C13 1.353 . S
C15 H71 0.930 . S
C16 N17 1.314 . S
C16 C21 1.353 . S
C16 H22 0.930 . S
N17 Li0 1.990 . S
N17 C16 1.314 . S
N17 C19 1.279 . S
C18 C19 1.358 . S
C18 C20 1.356 . S
C18 H72 0.930 . S
C19 N17 1.279 . S
C19 C18 1.358 . S
C19 H23 0.930 . S
C20 C18 1.356 . S
C20 C21 1.348 . S
C21 C16 1.353 . S
C21 C20 1.348 . S
C21 H73 0.929 . S
H22 C16 0.930 . S
H23 C19 0.930 . S
C24 N25 1.314 . S
C24 C26 1.353 . S
C24 H30 0.930 . S
N25 Li1 1.990 . S
N25 C24 1.314 . S
N25 C28 1.279 . S
C26 C24 1.353 . S
C26 C29 1.348 . S
C26 H74 0.929 . S
C27 C28 1.358 . S
C27 C29 1.356 . S
C27 H75 0.930 . S
C28 N25 1.279 . S
C28 C27 1.358 . S
C28 H31 0.930 . S
C29 C26 1.348 . S
C29 C27 1.356 . S
H30 C24 0.930 . S
H31 C28 0.930 . S
C32 C34 1.348 . S
C32 C35 1.356 . S
C32 O62 1.325 . S
N33 C36 1.314 . S
N33 C37 1.279 . S
C34 C32 1.348 . S
C34 C36 1.353 . S
C34 H76 0.929 . S
C35 C32 1.356 . S
C35 C37 1.358 . S
C35 H77 0.930 . S
C36 N33 1.314 . S
C36 C34 1.353 . S
C36 H78 0.930 . S
C37 N33 1.279 . S
C37 C35 1.358 . S
C37 H79 0.930 . S
C38 C39 1.348 . S
C38 C40 1.356 . S
C38 O63 1.325 . S
C39 C38 1.348 . S
C39 C41 1.353 . S
C39 H80 0.929 . S
C40 C38 1.356 . S
C40 C42 1.358 . S
C40 H81 0.930 . S
C41 C39 1.353 . S
C41 N43 1.314 . S
C41 H82 0.930 . S
C42 C40 1.358 . S
C42 N43 1.279 . S
C42 H83 0.930 . S
N43 C41 1.314 . S
N43 C42 1.279 . S
C44 C46 1.353 . S
C44 N47 1.314 . S
C44 H50 0.930 . S
C45 N47 1.279 . S
C45 C48 1.358 . S
C45 H51 0.930 . S
C46 C44 1.353 . S
C46 C49 1.348 . S
C46 H84 0.929 . S
N47 Li2 1.990 . S
N47 C44 1.314 . S
N47 C45 1.279 . S
C48 C45 1.358 . S
C48 C49 1.356 . S
C48 H85 0.930 . S
C49 C46 1.348 . S
C49 C48 1.356 . S
H50 C44 0.930 . S
H51 C45 0.930 . S
C52 N53 1.314 . S
C52 C54 1.353 . S
C52 H58 0.930 . S
N53 Li3 1.990 . S
N53 C52 1.314 . S
N53 C56 1.279 . S
C54 C52 1.353 . S
C54 C57 1.348 . S
C54 H86 0.929 . S
C55 C56 1.358 . S
C55 C57 1.356 . S
C55 H87 0.930 . S
C56 N53 1.279 . S
C56 C55 1.358 . S
C56 H59 0.930 . S
C57 C54 1.348 . S
C57 C55 1.356 . S
H58 C52 0.930 . S
H59 C56 0.930 . S
O60 Li0 1.956 . S
O60 Li1 1.970 . S
O60 Li2 1.961 . S
O60 C4 1.325 . S
O61 Li0 1.970 . S
O61 Li1 1.956 . S
O61 Li3 1.961 . S
O61 C10 1.325 . S
O62 Li0 1.961 . S
O62 Li2 1.956 . S
O62 Li3 1.970 . S
O62 C32 1.325 . S
O63 Li1 1.961 . S
O63 Li2 1.970 . S
O63 Li3 1.956 . S
O63 C38 1.325 . S
H64 C6 0.929 . S
H65 C7 0.930 . S
H66 C8 0.930 . S
H67 C9 0.930 . S
H68 C11 0.930 . S
H69 C13 0.929 . S
H70 C14 0.930 . S
H71 C15 0.930 . S
H72 C18 0.930 . S
H73 C21 0.929 . S
H74 C26 0.929 . S
H75 C27 0.930 . S
H76 C34 0.929 . S
H77 C35 0.930 . S
H78 C36 0.930 . S
H79 C37 0.930 . S
H80 C39 0.929 . S
H81 C40 0.930 . S
H82 C41 0.930 . S
H83 C42 0.930 . S
H84 C46 0.929 . S
H85 C48 0.930 . S
H86 C54 0.929 . S
H87 C55 0.930 . S
Li88 N105 1.990 . S
Li88 O148 1.956 . S
Li88 O149 1.970 . S
Li88 O150 1.961 . S
Li89 N113 1.990 . S
Li89 O148 1.970 . S
Li89 O149 1.956 . S
Li89 O151 1.961 . S
Li90 N135 1.990 . S
Li90 O148 1.961 . S
Li90 O150 1.956 . S
Li90 O151 1.970 . S
Li91 N141 1.990 1_655 S
Li91 O149 1.961 . S
Li91 O150 1.970 . S
Li91 O151 1.956 . S
C92 C94 1.348 . S
C92 C95 1.356 . S
C92 O148 1.325 . S
N93 C96 1.314 . S
N93 C97 1.279 . S
C94 C92 1.348 . S
C94 C96 1.353 . S
C94 H152 0.929 . S
C95 C92 1.356 . S
C95 C97 1.358 . S
C95 H153 0.930 . S
C96 N93 1.314 . S
C96 C94 1.353 . S
C96 H154 0.930 . S
C97 N93 1.279 . S
C97 C95 1.358 . S
C97 H155 0.930 . S
C98 C101 1.348 . S
C98 C102 1.356 . S
C98 O149 1.325 . S
C99 N100 1.279 1_455 S
C99 C102 1.358 1_455 S
C99 H156 0.930 . S
N100 C99 1.279 1_655 S
N100 C103 1.314 . S
C101 C98 1.348 . S
C101 C103 1.353 . S
C101 H157 0.929 . S
C102 C98 1.356 . S
C102 C99 1.358 1_655 S
C102 H158 0.930 1_655 S
C103 N100 1.314 . S
C103 C101 1.353 . S
C103 H159 0.930 . S
C104 N105 1.314 . S
C104 C109 1.353 . S
C104 H110 0.930 . S
N105 Li88 1.990 . S
N105 C104 1.314 . S
N105 C107 1.279 . S
C106 C107 1.358 . S
C106 C108 1.356 . S
C106 H160 0.930 . S
C107 N105 1.279 . S
C107 C106 1.358 . S
C107 H111 0.930 . S
C108 C106 1.356 . S
C108 C109 1.348 . S
C109 C104 1.353 . S
C109 C108 1.348 . S
C109 H161 0.929 . S
H110 C104 0.930 . S
H111 C107 0.930 . S
C112 N113 1.314 . S
C112 C114 1.353 . S
C112 H118 0.930 . S
N113 Li89 1.990 . S
N113 C112 1.314 . S
N113 C116 1.279 . S
C114 C112 1.353 . S
C114 C117 1.348 . S
C114 H162 0.929 . S
C115 C116 1.358 . S
C115 C117 1.356 . S
C115 H163 0.930 . S
C116 N113 1.279 . S
C116 C115 1.358 . S
C116 H119 0.930 . S
C117 C114 1.348 . S
C117 C115 1.356 . S
H118 C112 0.930 . S
H119 C116 0.930 . S
C120 C122 1.348 . S
C120 C123 1.356 . S
C120 O150 1.325 . S
N121 C124 1.314 . S
N121 C125 1.279 . S
C122 C120 1.348 . S
C122 C124 1.353 . S
C122 H164 0.929 1_655 S
C123 C120 1.356 . S
C123 C125 1.358 . S
C123 H165 0.930 . S
C124 N121 1.314 . S
C124 C122 1.353 . S
C124 H166 0.930 . S
C125 N121 1.279 . S
C125 C123 1.358 . S
C125 H167 0.930 . S
C126 C127 1.348 . S
C126 C128 1.356 . S
C126 O151 1.325 1_455 S
C127 C126 1.348 . S
C127 C129 1.353 . S
C127 H168 0.929 . S
C128 C126 1.356 . S
C128 C130 1.358 . S
C128 H169 0.930 . S
C129 C127 1.353 . S
C129 N131 1.314 . S
C129 H170 0.930 . S
C130 C128 1.358 . S
C130 N131 1.279 . S
C130 H171 0.930 . S
N131 C129 1.314 . S
N131 C130 1.279 . S
C132 C134 1.353 . S
C132 N135 1.314 . S
C132 H138 0.930 . S
C133 N135 1.279 . S
C133 C136 1.358 . S
C133 H139 0.930 . S
C134 C132 1.353 . S
C134 C137 1.348 . S
C134 H172 0.929 . S
N135 Li90 1.990 . S
N135 C132 1.314 . S
N135 C133 1.279 . S
C136 C133 1.358 . S
C136 C137 1.356 . S
C136 H173 0.930 . S
C137 C134 1.348 . S
C137 C136 1.356 . S
H138 C132 0.930 . S
H139 C133 0.930 . S
C140 N141 1.314 . S
C140 C142 1.353 . S
C140 H146 0.930 . S
N141 Li91 1.990 1_455 S
N141 C140 1.314 . S
N141 C144 1.279 . S
C142 C140 1.353 . S
C142 C145 1.348 . S
C142 H174 0.929 . S
C143 C144 1.358 . S
C143 C145 1.356 . S
C143 H175 0.930 . S
C144 N141 1.279 . S
C144 C143 1.358 . S
C144 H147 0.930 . S
C145 C142 1.348 . S
C145 C143 1.356 . S
H146 C140 0.930 . S
H147 C144 0.930 . S
O148 Li88 1.956 . S
O148 Li89 1.970 . S
O148 Li90 1.961 . S
O148 C92 1.325 . S
O149 Li88 1.970 . S
O149 Li89 1.956 . S
O149 Li91 1.961 . S
O149 C98 1.325 . S
O150 Li88 1.961 . S
O150 Li90 1.956 . S
O150 Li91 1.970 . S
O150 C120 1.325 . S
O151 Li89 1.961 . S
O151 Li90 1.970 . S
O151 Li91 1.956 . S
O151 C126 1.325 1_655 S
H152 C94 0.929 . S
H153 C95 0.930 . S
H154 C96 0.930 . S
H155 C97 0.930 . S
H156 C99 0.930 . S
H157 C101 0.929 . S
H158 C102 0.930 1_455 S
H159 C103 0.930 . S
H160 C106 0.930 . S
H161 C109 0.929 . S
H162 C114 0.929 . S
H163 C115 0.930 . S
H164 C122 0.929 1_455 S
H165 C123 0.930 . S
H166 C124 0.930 . S
H167 C125 0.930 . S
H168 C127 0.929 . S
H169 C128 0.930 . S
H170 C129 0.930 . S
H171 C130 0.930 . S
H172 C134 0.929 . S
H173 C136 0.930 . S
H174 C142 0.929 . S
H175 C143 0.930 . S
Li176 N193 1.990 . S
Li176 O236 1.956 . S
Li176 O237 1.970 . S
Li176 O238 1.961 . S
Li177 N201 1.990 . S
Li177 O236 1.970 . S
Li177 O237 1.956 . S
Li177 O239 1.961 . S
Li178 N223 1.990 1_565 S
Li178 O236 1.961 . S
Li178 O238 1.956 . S
Li178 O239 1.970 . S
Li179 N229 1.990 . S
Li179 O237 1.961 . S
Li179 O238 1.970 . S
Li179 O239 1.956 . S
C180 C182 1.348 . S
C180 C183 1.356 . S
C180 O236 1.325 . S
N181 C184 1.314 . S
N181 C185 1.279 1_565 S
C182 C180 1.348 . S
C182 C184 1.353 . S
C182 H240 0.929 . S
C183 C180 1.356 . S
C183 C185 1.358 1_565 S
C183 H241 0.930 1_565 S
C184 N181 1.314 . S
C184 C182 1.353 . S
C184 H242 0.930 . S
C185 N181 1.279 1_545 S
C185 C183 1.358 1_545 S
C185 H243 0.930 . S
C186 C189 1.348 . S
C186 C190 1.356 . S
C186 O237 1.325 . S
C187 N188 1.279 . S
C187 C190 1.358 . S
C187 H244 0.930 . S
N188 C187 1.279 . S
N188 C191 1.314 . S
C189 C186 1.348 . S
C189 C191 1.353 . S
C189 H245 0.929 . S
C190 C186 1.356 . S
C190 C187 1.358 . S
C190 H246 0.930 . S
C191 N188 1.314 . S
C191 C189 1.353 . S
C191 H247 0.930 . S
C192 N193 1.314 . S
C192 C197 1.353 . S
C192 H198 0.930 . S
N193 Li176 1.990 . S
N193 C192 1.314 . S
N193 C195 1.279 . S
C194 C195 1.358 . S
C194 C196 1.356 . S
C194 H248 0.930 . S
C195 N193 1.279 . S
C195 C194 1.358 . S
C195 H199 0.930 . S
C196 C194 1.356 . S
C196 C197 1.348 . S
C197 C192 1.353 . S
C197 C196 1.348 . S
C197 H249 0.929 . S
H198 C192 0.930 . S
H199 C195 0.930 . S
C200 N201 1.314 . S
C200 C202 1.353 . S
C200 H206 0.930 . S
N201 Li177 1.990 . S
N201 C200 1.314 . S
N201 C204 1.279 . S
C202 C200 1.353 . S
C202 C205 1.348 . S
C202 H250 0.929 . S
C203 C204 1.358 . S
C203 C205 1.356 . S
C203 H251 0.930 . S
C204 N201 1.279 . S
C204 C203 1.358 . S
C204 H207 0.930 . S
C205 C202 1.348 . S
C205 C203 1.356 . S
H206 C200 0.930 . S
H207 C204 0.930 . S
C208 C210 1.348 . S
C208 C211 1.356 . S
C208 O238 1.325 1_545 S
N209 C212 1.314 . S
N209 C213 1.279 . S
C210 C208 1.348 . S
C210 C212 1.353 . S
C210 H252 0.929 . S
C211 C208 1.356 . S
C211 C213 1.358 . S
C211 H253 0.930 . S
C212 N209 1.314 . S
C212 C210 1.353 . S
C212 H254 0.930 . S
C213 N209 1.279 . S
C213 C211 1.358 . S
C213 H255 0.930 . S
C214 C215 1.348 . S
C214 C216 1.356 . S
C214 O239 1.325 . S
C215 C214 1.348 . S
C215 C217 1.353 . S
C215 H256 0.929 1_565 S
C216 C214 1.356 . S
C216 C218 1.358 . S
C216 H257 0.930 . S
C217 C215 1.353 . S
C217 N219 1.314 . S
C217 H258 0.930 . S
C218 C216 1.358 . S
C218 N219 1.279 . S
C218 H259 0.930 . S
N219 C217 1.314 . S
N219 C218 1.279 . S
C220 C222 1.353 . S
C220 N223 1.314 . S
C220 H226 0.930 . S
C221 N223 1.279 . S
C221 C224 1.358 . S
C221 H227 0.930 . S
C222 C220 1.353 . S
C222 C225 1.348 . S
C222 H260 0.929 . S
N223 Li178 1.990 1_545 S
N223 C220 1.314 . S
N223 C221 1.279 . S
C224 C221 1.358 . S
C224 C225 1.356 . S
C224 H261 0.930 . S
C225 C222 1.348 . S
C225 C224 1.356 . S
H226 C220 0.930 . S
H227 C221 0.930 . S
C228 N229 1.314 . S
C228 C230 1.353 . S
C228 H234 0.930 . S
N229 Li179 1.990 . S
N229 C228 1.314 . S
N229 C232 1.279 . S
C230 C228 1.353 . S
C230 C233 1.348 . S
C230 H262 0.929 . S
C231 C232 1.358 . S
C231 C233 1.356 . S
C231 H263 0.930 . S
C232 N229 1.279 . S
C232 C231 1.358 . S
C232 H235 0.930 . S
C233 C230 1.348 . S
C233 C231 1.356 . S
H234 C228 0.930 . S
H235 C232 0.930 . S
O236 Li176 1.956 . S
O236 Li177 1.970 . S
O236 Li178 1.961 . S
O236 C180 1.325 . S
O237 Li176 1.970 . S
O237 Li177 1.956 . S
O237 Li179 1.961 . S
O237 C186 1.325 . S
O238 Li176 1.961 . S
O238 Li178 1.956 . S
O238 Li179 1.970 . S
O238 C208 1.325 1_565 S
O239 Li177 1.961 . S
O239 Li178 1.970 . S
O239 Li179 1.956 . S
O239 C214 1.325 . S
H240 C182 0.929 . S
H241 C183 0.930 1_545 S
H242 C184 0.930 . S
H243 C185 0.930 . S
H244 C187 0.930 . S
H245 C189 0.929 . S
H246 C190 0.930 . S
H247 C191 0.930 . S
H248 C194 0.930 . S
H249 C197 0.929 . S
H250 C202 0.929 . S
H251 C203 0.930 . S
H252 C210 0.929 . S
H253 C211 0.930 . S
H254 C212 0.930 . S
H255 C213 0.930 . S
H256 C215 0.929 1_545 S
H257 C216 0.930 . S
H258 C217 0.930 . S
H259 C218 0.930 . S
H260 C222 0.929 . S
H261 C224 0.930 . S
H262 C230 0.929 . S
H263 C231 0.930 . S
Li264 N281 1.990 . S
Li264 O324 1.956 . S
Li264 O325 1.970 . S
Li264 O326 1.961 . S
Li265 N289 1.990 . S
Li265 O324 1.970 . S
Li265 O325 1.956 . S
Li265 O327 1.961 . S
Li266 N311 1.990 . S
Li266 O324 1.961 . S
Li266 O326 1.956 . S
Li266 O327 1.970 . S
Li267 N317 1.990 . S
Li267 O325 1.961 . S
Li267 O326 1.970 . S
Li267 O327 1.956 . S
C268 C270 1.348 . S
C268 C271 1.356 . S
C268 O324 1.325 . S
N269 C272 1.314 . S
N269 C273 1.279 . S
C270 C268 1.348 . S
C270 C272 1.353 . S
C270 H328 0.929 . S
C271 C268 1.356 . S
C271 C273 1.358 . S
C271 H329 0.930 . S
C272 N269 1.314 . S
C272 C270 1.353 . S
C272 H330 0.930 . S
C273 N269 1.279 . S
C273 C271 1.358 . S
C273 H331 0.930 . S
C274 C277 1.348 . S
C274 C278 1.356 . S
C274 O325 1.325 . S
C275 N276 1.279 . S
C275 C278 1.358 . S
C275 H332 0.930 . S
N276 C275 1.279 . S
N276 C279 1.314 . S
C277 C274 1.348 . S
C277 C279 1.353 . S
C277 H333 0.929 . S
C278 C274 1.356 . S
C278 C275 1.358 . S
C278 H334 0.930 . S
C279 N276 1.314 . S
C279 C277 1.353 . S
C279 H335 0.930 . S
C280 N281 1.314 . S
C280 C285 1.353 . S
C280 H286 0.930 . S
N281 Li264 1.990 . S
N281 C280 1.314 . S
N281 C283 1.279 . S
C282 C283 1.358 . S
C282 C284 1.356 . S
C282 H336 0.930 . S
C283 N281 1.279 . S
C283 C282 1.358 . S
C283 H287 0.930 . S
C284 C282 1.356 . S
C284 C285 1.348 . S
C285 C280 1.353 . S
C285 C284 1.348 . S
C285 H337 0.929 . S
H286 C280 0.930 . S
H287 C283 0.930 . S
C288 N289 1.314 . S
C288 C290 1.353 . S
C288 H294 0.930 . S
N289 Li265 1.990 . S
N289 C288 1.314 . S
N289 C292 1.279 . S
C290 C288 1.353 . S
C290 C293 1.348 . S
C290 H338 0.929 . S
C291 C292 1.358 . S
C291 C293 1.356 . S
C291 H339 0.930 . S
C292 N289 1.279 . S
C292 C291 1.358 . S
C292 H295 0.930 . S
C293 C290 1.348 . S
C293 C291 1.356 . S
H294 C288 0.930 . S
H295 C292 0.930 . S
C296 C298 1.348 . S
C296 C299 1.356 . S
C296 O326 1.325 . S
N297 C300 1.314 . S
N297 C301 1.279 . S
C298 C296 1.348 . S
C298 C300 1.353 . S
C298 H340 0.929 . S
C299 C296 1.356 . S
C299 C301 1.358 . S
C299 H341 0.930 . S
C300 N297 1.314 . S
C300 C298 1.353 . S
C300 H342 0.930 . S
C301 N297 1.279 . S
C301 C299 1.358 . S
C301 H343 0.930 . S
C302 C303 1.348 . S
C302 C304 1.356 . S
C302 O327 1.325 . S
C303 C302 1.348 . S
C303 C305 1.353 . S
C303 H344 0.929 . S
C304 C302 1.356 . S
C304 C306 1.358 . S
C304 H345 0.930 . S
C305 C303 1.353 . S
C305 N307 1.314 . S
C305 H346 0.930 . S
C306 C304 1.358 . S
C306 N307 1.279 . S
C306 H347 0.930 . S
N307 C305 1.314 . S
N307 C306 1.279 . S
C308 C310 1.353 . S
C308 N311 1.314 . S
C308 H314 0.930 . S
C309 N311 1.279 . S
C309 C312 1.358 . S
C309 H315 0.930 . S
C310 C308 1.353 . S
C310 C313 1.348 . S
C310 H348 0.929 . S
N311 Li266 1.990 . S
N311 C308 1.314 . S
N311 C309 1.279 . S
C312 C309 1.358 . S
C312 C313 1.356 . S
C312 H349 0.930 . S
C313 C310 1.348 . S
C313 C312 1.356 . S
H314 C308 0.930 . S
H315 C309 0.930 . S
C316 N317 1.314 . S
C316 C318 1.353 . S
C316 H322 0.930 . S
N317 Li267 1.990 . S
N317 C316 1.314 . S
N317 C320 1.279 . S
C318 C316 1.353 . S
C318 C321 1.348 . S
C318 H350 0.929 . S
C319 C320 1.358 . S
C319 C321 1.356 . S
C319 H351 0.930 . S
C320 N317 1.279 . S
C320 C319 1.358 . S
C320 H323 0.930 . S
C321 C318 1.348 . S
C321 C319 1.356 . S
H322 C316 0.930 . S
H323 C320 0.930 . S
O324 Li264 1.956 . S
O324 Li265 1.970 . S
O324 Li266 1.961 . S
O324 C268 1.325 . S
O325 Li264 1.970 . S
O325 Li265 1.956 . S
O325 Li267 1.961 . S
O325 C274 1.325 . S
O326 Li264 1.961 . S
O326 Li266 1.956 . S
O326 Li267 1.970 . S
O326 C296 1.325 . S
O327 Li265 1.961 . S
O327 Li266 1.970 . S
O327 Li267 1.956 . S
O327 C302 1.325 . S
H328 C270 0.929 . S
H329 C271 0.930 . S
H330 C272 0.930 . S
H331 C273 0.930 . S
H332 C275 0.930 . S
H333 C277 0.929 . S
H334 C278 0.930 . S
H335 C279 0.930 . S
H336 C282 0.930 . S
H337 C285 0.929 . S
H338 C290 0.929 . S
H339 C291 0.930 . S
H340 C298 0.929 . S
H341 C299 0.930 . S
H342 C300 0.930 . S
H343 C301 0.930 . S
H344 C303 0.929 . S
H345 C304 0.930 . S
H346 C305 0.930 . S
H347 C306 0.930 . S
H348 C310 0.929 . S
H349 C312 0.930 . S
H350 C318 0.929 . S
H351 C319 0.930 . S
Li352 N369 1.990 . S
Li352 O412 1.956 . S
Li352 O413 1.970 . S
Li352 O414 1.961 . S
Li353 N377 1.990 . S
Li353 O412 1.970 . S
Li353 O413 1.956 . S
Li353 O415 1.961 . S
Li354 N399 1.990 . S
Li354 O412 1.961 . S
Li354 O414 1.956 . S
Li354 O415 1.970 . S
Li355 N405 1.990 1_455 S
Li355 O413 1.961 . S
Li355 O414 1.970 . S
Li355 O415 1.956 . S
C356 C358 1.348 . S
C356 C359 1.356 . S
C356 O412 1.325 . S
N357 C360 1.314 . S
N357 C361 1.279 . S
C358 C356 1.348 . S
C358 C360 1.353 . S
C358 H416 0.929 . S
C359 C356 1.356 . S
C359 C361 1.358 . S
C359 H417 0.930 . S
C360 N357 1.314 . S
C360 C358 1.353 . S
C360 H418 0.930 . S
C361 N357 1.279 . S
C361 C359 1.358 . S
C361 H419 0.930 . S
C362 C365 1.348 . S
C362 C366 1.356 . S
C362 O413 1.325 . S
C363 N364 1.279 1_655 S
C363 C366 1.358 1_655 S
C363 H420 0.930 . S
N364 C363 1.279 1_455 S
N364 C367 1.314 . S
C365 C362 1.348 . S
C365 C367 1.353 . S
C365 H421 0.929 . S
C366 C362 1.356 . S
C366 C363 1.358 1_455 S
C366 H422 0.930 1_455 S
C367 N364 1.314 . S
C367 C365 1.353 . S
C367 H423 0.930 . S
C368 N369 1.314 . S
C368 C373 1.353 . S
C368 H374 0.930 . S
N369 Li352 1.990 . S
N369 C368 1.314 . S
N369 C371 1.279 . S
C370 C371 1.358 . S
C370 C372 1.356 . S
C370 H424 0.930 . S
C371 N369 1.279 . S
C371 C370 1.358 . S
C371 H375 0.930 . S
C372 C370 1.356 . S
C372 C373 1.348 . S
C373 C368 1.353 . S
C373 C372 1.348 . S
C373 H425 0.929 . S
H374 C368 0.930 . S
H375 C371 0.930 . S
C376 N377 1.314 . S
C376 C378 1.353 . S
C376 H382 0.930 . S
N377 Li353 1.990 . S
N377 C376 1.314 . S
N377 C380 1.279 . S
C378 C376 1.353 . S
C378 C381 1.348 . S
C378 H426 0.929 . S
C379 C380 1.358 . S
C379 C381 1.356 . S
C379 H427 0.930 . S
C380 N377 1.279 . S
C380 C379 1.358 . S
C380 H383 0.930 . S
C381 C378 1.348 . S
C381 C379 1.356 . S
H382 C376 0.930 . S
H383 C380 0.930 . S
C384 C386 1.348 . S
C384 C387 1.356 . S
C384 O414 1.325 . S
N385 C388 1.314 . S
N385 C389 1.279 . S
C386 C384 1.348 . S
C386 C388 1.353 . S
C386 H428 0.929 1_455 S
C387 C384 1.356 . S
C387 C389 1.358 . S
C387 H429 0.930 . S
C388 N385 1.314 . S
C388 C386 1.353 . S
C388 H430 0.930 . S
C389 N385 1.279 . S
C389 C387 1.358 . S
C389 H431 0.930 . S
C390 C391 1.348 . S
C390 C392 1.356 . S
C390 O415 1.325 1_655 S
C391 C390 1.348 . S
C391 C393 1.353 . S
C391 H432 0.929 . S
C392 C390 1.356 . S
C392 C394 1.358 . S
C392 H433 0.930 . S
C393 C391 1.353 . S
C393 N395 1.314 . S
C393 H434 0.930 . S
C394 C392 1.358 . S
C394 N395 1.279 . S
C394 H435 0.930 . S
N395 C393 1.314 . S
N395 C394 1.279 . S
C396 C398 1.353 . S
C396 N399 1.314 . S
C396 H402 0.930 . S
C397 N399 1.279 . S
C397 C400 1.358 . S
C397 H403 0.930 . S
C398 C396 1.353 . S
C398 C401 1.348 . S
C398 H436 0.929 . S
N399 Li354 1.990 . S
N399 C396 1.314 . S
N399 C397 1.279 . S
C400 C397 1.358 . S
C400 C401 1.356 . S
C400 H437 0.930 . S
C401 C398 1.348 . S
C401 C400 1.356 . S
H402 C396 0.930 . S
H403 C397 0.930 . S
C404 N405 1.314 . S
C404 C406 1.353 . S
C404 H410 0.930 . S
N405 Li355 1.990 1_655 S
N405 C404 1.314 . S
N405 C408 1.279 . S
C406 C404 1.353 . S
C406 C409 1.348 . S
C406 H438 0.929 . S
C407 C408 1.358 . S
C407 C409 1.356 . S
C407 H439 0.930 . S
C408 N405 1.279 . S
C408 C407 1.358 . S
C408 H411 0.930 . S
C409 C406 1.348 . S
C409 C407 1.356 . S
H410 C404 0.930 . S
H411 C408 0.930 . S
O412 Li352 1.956 . S
O412 Li353 1.970 . S
O412 Li354 1.961 . S
O412 C356 1.325 . S
O413 Li352 1.970 . S
O413 Li353 1.956 . S
O413 Li355 1.961 . S
O413 C362 1.325 . S
O414 Li352 1.961 . S
O414 Li354 1.956 . S
O414 Li355 1.970 . S
O414 C384 1.325 . S
O415 Li353 1.961 . S
O415 Li354 1.970 . S
O415 Li355 1.956 . S
O415 C390 1.325 1_455 S
H416 C358 0.929 . S
H417 C359 0.930 . S
H418 C360 0.930 . S
H419 C361 0.930 . S
H420 C363 0.930 . S
H421 C365 0.929 . S
H422 C366 0.930 1_655 S
H423 C367 0.930 . S
H424 C370 0.930 . S
H425 C373 0.929 . S
H426 C378 0.929 . S
H427 C379 0.930 . S
H428 C386 0.929 1_655 S
H429 C387 0.930 . S
H430 C388 0.930 . S
H431 C389 0.930 . S
H432 C391 0.929 . S
H433 C392 0.930 . S
H434 C393 0.930 . S
H435 C394 0.930 . S
H436 C398 0.929 . S
H437 C400 0.930 . S
H438 C406 0.929 . S
H439 C407 0.930 . S
Li440 N457 1.990 . S
Li440 O500 1.956 . S
Li440 O501 1.970 . S
Li440 O502 1.961 . S
Li441 N465 1.990 . S
Li441 O500 1.970 . S
Li441 O501 1.956 . S
Li441 O503 1.961 . S
Li442 N487 1.990 1_545 S
Li442 O500 1.961 . S
Li442 O502 1.956 . S
Li442 O503 1.970 . S
Li443 N493 1.990 . S
Li443 O501 1.961 . S
Li443 O502 1.970 . S
Li443 O503 1.956 . S
C444 C446 1.348 . S
C444 C447 1.356 . S
C444 O500 1.325 . S
N445 C448 1.314 . S
N445 C449 1.279 1_545 S
C446 C444 1.348 . S
C446 C448 1.353 . S
C446 H504 0.929 . S
C447 C444 1.356 . S
C447 C449 1.358 1_545 S
C447 H505 0.930 1_545 S
C448 N445 1.314 . S
C448 C446 1.353 . S
C448 H506 0.930 . S
C449 N445 1.279 1_565 S
C449 C447 1.358 1_565 S
C449 H507 0.930 . S
C450 C453 1.348 . S
C450 C454 1.356 . S
C450 O501 1.325 . S
C451 N452 1.279 . S
C451 C454 1.358 . S
C451 H508 0.930 . S
N452 C451 1.279 . S
N452 C455 1.314 . S
C453 C450 1.348 . S
C453 C455 1.353 . S
C453 H509 0.929 . S
C454 C450 1.356 . S
C454 C451 1.358 . S
C454 H510 0.930 . S
C455 N452 1.314 . S
C455 C453 1.353 . S
C455 H511 0.930 . S
C456 N457 1.314 . S
C456 C461 1.353 . S
C456 H462 0.930 . S
N457 Li440 1.990 . S
N457 C456 1.314 . S
N457 C459 1.279 . S
C458 C459 1.358 . S
C458 C460 1.356 . S
C458 H512 0.930 . S
C459 N457 1.279 . S
C459 C458 1.358 . S
C459 H463 0.930 . S
C460 C458 1.356 . S
C460 C461 1.348 . S
C461 C456 1.353 . S
C461 C460 1.348 . S
C461 H513 0.929 . S
H462 C456 0.930 . S
H463 C459 0.930 . S
C464 N465 1.314 . S
C464 C466 1.353 . S
C464 H470 0.930 . S
N465 Li441 1.990 . S
N465 C464 1.314 . S
N465 C468 1.279 . S
C466 C464 1.353 . S
C466 C469 1.348 . S
C466 H514 0.929 . S
C467 C468 1.358 . S
C467 C469 1.356 . S
C467 H515 0.930 . S
C468 N465 1.279 . S
C468 C467 1.358 . S
C468 H471 0.930 . S
C469 C466 1.348 . S
C469 C467 1.356 . S
H470 C464 0.930 . S
H471 C468 0.930 . S
C472 C474 1.348 . S
C472 C475 1.356 . S
C472 O502 1.325 1_565 S
N473 C476 1.314 . S
N473 C477 1.279 . S
C474 C472 1.348 . S
C474 C476 1.353 . S
C474 H516 0.929 . S
C475 C472 1.356 . S
C475 C477 1.358 . S
C475 H517 0.930 . S
C476 N473 1.314 . S
C476 C474 1.353 . S
C476 H518 0.930 . S
C477 N473 1.279 . S
C477 C475 1.358 . S
C477 H519 0.930 . S
C478 C479 1.348 . S
C478 C480 1.356 . S
C478 O503 1.325 . S
C479 C478 1.348 . S
C479 C481 1.353 . S
C479 H520 0.929 1_545 S
C480 C478 1.356 . S
C480 C482 1.358 . S
C480 H521 0.930 . S
C481 C479 1.353 . S
C481 N483 1.314 . S
C481 H522 0.930 . S
C482 C480 1.358 . S
C482 N483 1.279 . S
C482 H523 0.930 . S
N483 C481 1.314 . S
N483 C482 1.279 . S
C484 C486 1.353 . S
C484 N487 1.314 . S
C484 H490 0.930 . S
C485 N487 1.279 . S
C485 C488 1.358 . S
C485 H491 0.930 . S
C486 C484 1.353 . S
C486 C489 1.348 . S
C486 H524 0.929 . S
N487 Li442 1.990 1_565 S
N487 C484 1.314 . S
N487 C485 1.279 . S
C488 C485 1.358 . S
C488 C489 1.356 . S
C488 H525 0.930 . S
C489 C486 1.348 . S
C489 C488 1.356 . S
H490 C484 0.930 . S
H491 C485 0.930 . S
C492 N493 1.314 . S
C492 C494 1.353 . S
C492 H498 0.930 . S
N493 Li443 1.990 . S
N493 C492 1.314 . S
N493 C496 1.279 . S
C494 C492 1.353 . S
C494 C497 1.348 . S
C494 H526 0.929 . S
C495 C496 1.358 . S
C495 C497 1.356 . S
C495 H527 0.930 . S
C496 N493 1.279 . S
C496 C495 1.358 . S
C496 H499 0.930 . S
C497 C494 1.348 . S
C497 C495 1.356 . S
H498 C492 0.930 . S
H499 C496 0.930 . S
O500 Li440 1.956 . S
O500 Li441 1.970 . S
O500 Li442 1.961 . S
O500 C444 1.325 . S
O501 Li440 1.970 . S
O501 Li441 1.956 . S
O501 Li443 1.961 . S
O501 C450 1.325 . S
O502 Li440 1.961 . S
O502 Li442 1.956 . S
O502 Li443 1.970 . S
O502 C472 1.325 1_545 S
O503 Li441 1.961 . S
O503 Li442 1.970 . S
O503 Li443 1.956 . S
O503 C478 1.325 . S
H504 C446 0.929 . S
H505 C447 0.930 1_565 S
H506 C448 0.930 . S
H507 C449 0.930 . S
H508 C451 0.930 . S
H509 C453 0.929 . S
H510 C454 0.930 . S
H511 C455 0.930 . S
H512 C458 0.930 . S
H513 C461 0.929 . S
H514 C466 0.929 . S
H515 C467 0.930 . S
H516 C474 0.929 . S
H517 C475 0.930 . S
H518 C476 0.930 . S
H519 C477 0.930 . S
H520 C479 0.929 1_565 S
H521 C480 0.930 . S
H522 C481 0.930 . S
H523 C482 0.930 . S
H524 C486 0.929 . S
H525 C488 0.930 . S
H526 C494 0.929 . S
H527 C495 0.930 . S
Li528 N545 1.990 . S
Li528 O588 1.956 . S
Li528 O589 1.970 . S
Li528 O590 1.961 . S
Li529 N553 1.990 . S
Li529 O588 1.970 . S
Li529 O589 1.956 . S
Li529 O591 1.961 . S
Li530 N575 1.990 . S
Li530 O588 1.961 . S
Li530 O590 1.956 . S
Li530 O591 1.970 . S
Li531 N581 1.990 . S
Li531 O589 1.961 . S
Li531 O590 1.970 . S
Li531 O591 1.956 . S
C532 C534 1.348 . S
C532 C535 1.356 . S
C532 O588 1.325 . S
N533 C536 1.314 . S
N533 C537 1.279 . S
C534 C532 1.348 . S
C534 C536 1.353 . S
C534 H592 0.929 . S
C535 C532 1.356 . S
C535 C537 1.358 . S
C535 H593 0.930 . S
C536 N533 1.314 . S
C536 C534 1.353 . S
C536 H594 0.930 . S
C537 N533 1.279 . S
C537 C535 1.358 . S
C537 H595 0.930 . S
C538 C541 1.348 . S
C538 C542 1.356 . S
C538 O589 1.325 . S
C539 N540 1.279 . S
C539 C542 1.358 . S
C539 H596 0.930 . S
N540 C539 1.279 . S
N540 C543 1.314 . S
C541 C538 1.348 . S
C541 C543 1.353 . S
C541 H597 0.929 . S
C542 C538 1.356 . S
C542 C539 1.358 . S
C542 H598 0.930 . S
C543 N540 1.314 . S
C543 C541 1.353 . S
C543 H599 0.930 . S
C544 N545 1.314 . S
C544 C549 1.353 . S
C544 H550 0.930 . S
N545 Li528 1.990 . S
N545 C544 1.314 . S
N545 C547 1.279 . S
C546 C547 1.358 . S
C546 C548 1.356 . S
C546 H600 0.930 . S
C547 N545 1.279 . S
C547 C546 1.358 . S
C547 H551 0.930 . S
C548 C546 1.356 . S
C548 C549 1.348 . S
C549 C544 1.353 . S
C549 C548 1.348 . S
C549 H601 0.929 . S
H550 C544 0.930 . S
H551 C547 0.930 . S
C552 N553 1.314 . S
C552 C554 1.353 . S
C552 H558 0.930 . S
N553 Li529 1.990 . S
N553 C552 1.314 . S
N553 C556 1.279 . S
C554 C552 1.353 . S
C554 C557 1.348 . S
C554 H602 0.929 . S
C555 C556 1.358 . S
C555 C557 1.356 . S
C555 H603 0.930 . S
C556 N553 1.279 . S
C556 C555 1.358 . S
C556 H559 0.930 . S
C557 C554 1.348 . S
C557 C555 1.356 . S
H558 C552 0.930 . S
H559 C556 0.930 . S
C560 C562 1.348 . S
C560 C563 1.356 . S
C560 O590 1.325 . S
N561 C564 1.314 . S
N561 C565 1.279 . S
C562 C560 1.348 . S
C562 C564 1.353 . S
C562 H604 0.929 . S
C563 C560 1.356 . S
C563 C565 1.358 . S
C563 H605 0.930 . S
C564 N561 1.314 . S
C564 C562 1.353 . S
C564 H606 0.930 . S
C565 N561 1.279 . S
C565 C563 1.358 . S
C565 H607 0.930 . S
C566 C567 1.348 . S
C566 C568 1.356 . S
C566 O591 1.325 . S
C567 C566 1.348 . S
C567 C569 1.353 . S
C567 H608 0.929 . S
C568 C566 1.356 . S
C568 C570 1.358 . S
C568 H609 0.930 . S
C569 C567 1.353 . S
C569 N571 1.314 . S
C569 H610 0.930 . S
C570 C568 1.358 . S
C570 N571 1.279 . S
C570 H611 0.930 . S
N571 C569 1.314 . S
N571 C570 1.279 . S
C572 C574 1.353 . S
C572 N575 1.314 . S
C572 H578 0.930 . S
C573 N575 1.279 . S
C573 C576 1.358 . S
C573 H579 0.930 . S
C574 C572 1.353 . S
C574 C577 1.348 . S
C574 H612 0.929 . S
N575 Li530 1.990 . S
N575 C572 1.314 . S
N575 C573 1.279 . S
C576 C573 1.358 . S
C576 C577 1.356 . S
C576 H613 0.930 . S
C577 C574 1.348 . S
C577 C576 1.356 . S
H578 C572 0.930 . S
H579 C573 0.930 . S
C580 N581 1.314 . S
C580 C582 1.353 . S
C580 H586 0.930 . S
N581 Li531 1.990 . S
N581 C580 1.314 . S
N581 C584 1.279 . S
C582 C580 1.353 . S
C582 C585 1.348 . S
C582 H614 0.929 . S
C583 C584 1.358 . S
C583 C585 1.356 . S
C583 H615 0.930 . S
C584 N581 1.279 . S
C584 C583 1.358 . S
C584 H587 0.930 . S
C585 C582 1.348 . S
C585 C583 1.356 . S
H586 C580 0.930 . S
H587 C584 0.930 . S
O588 Li528 1.956 . S
O588 Li529 1.970 . S
O588 Li530 1.961 . S
O588 C532 1.325 . S
O589 Li528 1.970 . S
O589 Li529 1.956 . S
O589 Li531 1.961 . S
O589 C538 1.325 . S
O590 Li528 1.961 . S
O590 Li530 1.956 . S
O590 Li531 1.970 . S
O590 C560 1.325 . S
O591 Li529 1.961 . S
O591 Li530 1.970 . S
O591 Li531 1.956 . S
O591 C566 1.325 . S
H592 C534 0.929 . S
H593 C535 0.930 . S
H594 C536 0.930 . S
H595 C537 0.930 . S
H596 C539 0.930 . S
H597 C541 0.929 . S
H598 C542 0.930 . S
H599 C543 0.930 . S
H600 C546 0.930 . S
H601 C549 0.929 . S
H602 C554 0.929 . S
H603 C555 0.930 . S
H604 C562 0.929 . S
H605 C563 0.930 . S
H606 C564 0.930 . S
H607 C565 0.930 . S
H608 C567 0.929 . S
H609 C568 0.930 . S
H610 C569 0.930 . S
H611 C570 0.930 . S
H612 C574 0.929 . S
H613 C576 0.930 . S
H614 C582 0.929 . S
H615 C583 0.930 . S
Li616 N633 1.990 1_655 S
Li616 O676 1.956 . S
Li616 O677 1.970 . S
Li616 O678 1.961 . S
Li617 N641 1.990 . S
Li617 O676 1.970 . S
Li617 O677 1.956 . S
Li617 O679 1.961 . S
Li618 N663 1.990 . S
Li618 O676 1.961 . S
Li618 O678 1.956 . S
Li618 O679 1.970 . S
Li619 N669 1.990 . S
Li619 O677 1.961 . S
Li619 O678 1.970 . S
Li619 O679 1.956 . S
C620 C622 1.348 . S
C620 C623 1.356 . S
C620 O676 1.325 1_455 S
N621 C624 1.314 . S
N621 C625 1.279 . S
C622 C620 1.348 . S
C622 C624 1.353 . S
C622 H680 0.929 . S
C623 C620 1.356 . S
C623 C625 1.358 . S
C623 H681 0.930 . S
C624 N621 1.314 . S
C624 C622 1.353 . S
C624 H682 0.930 . S
C625 N621 1.279 . S
C625 C623 1.358 . S
C625 H683 0.930 . S
C626 C629 1.348 . S
C626 C630 1.356 . S
C626 O677 1.325 . S
C627 N628 1.279 . S
C627 C630 1.358 . S
C627 H684 0.930 . S
N628 C627 1.279 . S
N628 C631 1.314 . S
C629 C626 1.348 . S
C629 C631 1.353 . S
C629 H685 0.929 1_655 S
C630 C626 1.356 . S
C630 C627 1.358 . S
C630 H686 0.930 . S
C631 N628 1.314 . S
C631 C629 1.353 . S
C631 H687 0.930 . S
C632 N633 1.314 . S
C632 C637 1.353 . S
C632 H638 0.930 . S
N633 Li616 1.990 1_455 S
N633 C632 1.314 . S
N633 C635 1.279 . S
C634 C635 1.358 . S
C634 C636 1.356 . S
C634 H688 0.930 . S
C635 N633 1.279 . S
C635 C634 1.358 . S
C635 H639 0.930 . S
C636 C634 1.356 . S
C636 C637 1.348 . S
C637 C632 1.353 . S
C637 C636 1.348 . S
C637 H689 0.929 . S
H638 C632 0.930 . S
H639 C635 0.930 . S
C640 N641 1.314 . S
C640 C642 1.353 . S
C640 H646 0.930 . S
N641 Li617 1.990 . S
N641 C640 1.314 . S
N641 C644 1.279 . S
C642 C640 1.353 . S
C642 C645 1.348 . S
C642 H690 0.929 . S
C643 C644 1.358 . S
C643 C645 1.356 . S
C643 H691 0.930 . S
C644 N641 1.279 . S
C644 C643 1.358 . S
C644 H647 0.930 . S
C645 C642 1.348 . S
C645 C643 1.356 . S
H646 C640 0.930 . S
H647 C644 0.930 . S
C648 C650 1.348 . S
C648 C651 1.356 . S
C648 O678 1.325 . S
N649 C652 1.314 . S
N649 C653 1.279 1_655 S
C650 C648 1.348 . S
C650 C652 1.353 . S
C650 H692 0.929 . S
C651 C648 1.356 . S
C651 C653 1.358 1_655 S
C651 H693 0.930 1_655 S
C652 N649 1.314 . S
C652 C650 1.353 . S
C652 H694 0.930 . S
C653 N649 1.279 1_455 S
C653 C651 1.358 1_455 S
C653 H695 0.930 . S
C654 C655 1.348 . S
C654 C656 1.356 . S
C654 O679 1.325 . S
C655 C654 1.348 . S
C655 C657 1.353 . S
C655 H696 0.929 . S
C656 C654 1.356 . S
C656 C658 1.358 . S
C656 H697 0.930 . S
C657 C655 1.353 . S
C657 N659 1.314 . S
C657 H698 0.930 . S
C658 C656 1.358 . S
C658 N659 1.279 . S
C658 H699 0.930 . S
N659 C657 1.314 . S
N659 C658 1.279 . S
C660 C662 1.353 . S
C660 N663 1.314 . S
C660 H666 0.930 . S
C661 N663 1.279 . S
C661 C664 1.358 . S
C661 H667 0.930 . S
C662 C660 1.353 . S
C662 C665 1.348 . S
C662 H700 0.929 . S
N663 Li618 1.990 . S
N663 C660 1.314 . S
N663 C661 1.279 . S
C664 C661 1.358 . S
C664 C665 1.356 . S
C664 H701 0.930 . S
C665 C662 1.348 . S
C665 C664 1.356 . S
H666 C660 0.930 . S
H667 C661 0.930 . S
C668 N669 1.314 . S
C668 C670 1.353 . S
C668 H674 0.930 . S
N669 Li619 1.990 . S
N669 C668 1.314 . S
N669 C672 1.279 . S
C670 C668 1.353 . S
C670 C673 1.348 . S
C670 H702 0.929 . S
C671 C672 1.358 . S
C671 C673 1.356 . S
C671 H703 0.930 . S
C672 N669 1.279 . S
C672 C671 1.358 . S
C672 H675 0.930 . S
C673 C670 1.348 . S
C673 C671 1.356 . S
H674 C668 0.930 . S
H675 C672 0.930 . S
O676 Li616 1.956 . S
O676 Li617 1.970 . S
O676 Li618 1.961 . S
O676 C620 1.325 1_655 S
O677 Li616 1.970 . S
O677 Li617 1.956 . S
O677 Li619 1.961 . S
O677 C626 1.325 . S
O678 Li616 1.961 . S
O678 Li618 1.956 . S
O678 Li619 1.970 . S
O678 C648 1.325 . S
O679 Li617 1.961 . S
O679 Li618 1.970 . S
O679 Li619 1.956 . S
O679 C654 1.325 . S
H680 C622 0.929 . S
H681 C623 0.930 . S
H682 C624 0.930 . S
H683 C625 0.930 . S
H684 C627 0.930 . S
H685 C629 0.929 1_455 S
H686 C630 0.930 . S
H687 C631 0.930 . S
H688 C634 0.930 . S
H689 C637 0.929 . S
H690 C642 0.929 . S
H691 C643 0.930 . S
H692 C650 0.929 . S
H693 C651 0.930 1_455 S
H694 C652 0.930 . S
H695 C653 0.930 . S
H696 C655 0.929 . S
H697 C656 0.930 . S
H698 C657 0.930 . S
H699 C658 0.930 . S
H700 C662 0.929 . S
H701 C664 0.930 . S
H702 C670 0.929 . S
H703 C671 0.930 . S
Li704 N721 1.990 1_565 S
Li704 O764 1.956 . S
Li704 O765 1.970 . S
Li704 O766 1.961 . S
Li705 N729 1.990 . S
Li705 O764 1.970 . S
Li705 O765 1.956 . S
Li705 O767 1.961 . S
Li706 N751 1.990 . S
Li706 O764 1.961 . S
Li706 O766 1.956 . S
Li706 O767 1.970 . S
Li707 N757 1.990 . S
Li707 O765 1.961 . S
Li707 O766 1.970 . S
Li707 O767 1.956 . S
C708 C710 1.348 . S
C708 C711 1.356 . S
C708 O764 1.325 1_545 S
N709 C712 1.314 . S
N709 C713 1.279 . S
C710 C708 1.348 . S
C710 C712 1.353 . S
C710 H768 0.929 . S
C711 C708 1.356 . S
C711 C713 1.358 . S
C711 H769 0.930 . S
C712 N709 1.314 . S
C712 C710 1.353 . S
C712 H770 0.930 . S
C713 N709 1.279 . S
C713 C711 1.358 . S
C713 H771 0.930 . S
C714 C717 1.348 . S
C714 C718 1.356 . S
C714 O765 1.325 . S
C715 N716 1.279 . S
C715 C718 1.358 . S
C715 H772 0.930 . S
N716 C715 1.279 . S
N716 C719 1.314 . S
C717 C714 1.348 . S
C717 C719 1.353 . S
C717 H773 0.929 1_565 S
C718 C714 1.356 . S
C718 C715 1.358 . S
C718 H774 0.930 . S
C719 N716 1.314 . S
C719 C717 1.353 . S
C719 H775 0.930 . S
C720 N721 1.314 . S
C720 C725 1.353 . S
C720 H726 0.930 . S
N721 Li704 1.990 1_545 S
N721 C720 1.314 . S
N721 C723 1.279 . S
C722 C723 1.358 . S
C722 C724 1.356 . S
C722 H776 0.930 . S
C723 N721 1.279 . S
C723 C722 1.358 . S
C723 H727 0.930 . S
C724 C722 1.356 . S
C724 C725 1.348 . S
C725 C720 1.353 . S
C725 C724 1.348 . S
C725 H777 0.929 . S
H726 C720 0.930 . S
H727 C723 0.930 . S
C728 N729 1.314 . S
C728 C730 1.353 . S
C728 H734 0.930 . S
N729 Li705 1.990 . S
N729 C728 1.314 . S
N729 C732 1.279 . S
C730 C728 1.353 . S
C730 C733 1.348 . S
C730 H778 0.929 . S
C731 C732 1.358 . S
C731 C733 1.356 . S
C731 H779 0.930 . S
C732 N729 1.279 . S
C732 C731 1.358 . S
C732 H735 0.930 . S
C733 C730 1.348 . S
C733 C731 1.356 . S
H734 C728 0.930 . S
H735 C732 0.930 . S
C736 C738 1.348 . S
C736 C739 1.356 . S
C736 O766 1.325 . S
N737 C740 1.314 . S
N737 C741 1.279 1_565 S
C738 C736 1.348 . S
C738 C740 1.353 . S
C738 H780 0.929 . S
C739 C736 1.356 . S
C739 C741 1.358 1_565 S
C739 H781 0.930 1_565 S
C740 N737 1.314 . S
C740 C738 1.353 . S
C740 H782 0.930 . S
C741 N737 1.279 1_545 S
C741 C739 1.358 1_545 S
C741 H783 0.930 . S
C742 C743 1.348 . S
C742 C744 1.356 . S
C742 O767 1.325 . S
C743 C742 1.348 . S
C743 C745 1.353 . S
C743 H784 0.929 . S
C744 C742 1.356 . S
C744 C746 1.358 . S
C744 H785 0.930 . S
C745 C743 1.353 . S
C745 N747 1.314 . S
C745 H786 0.930 . S
C746 C744 1.358 . S
C746 N747 1.279 . S
C746 H787 0.930 . S
N747 C745 1.314 . S
N747 C746 1.279 . S
C748 C750 1.353 . S
C748 N751 1.314 . S
C748 H754 0.930 . S
C749 N751 1.279 . S
C749 C752 1.358 . S
C749 H755 0.930 . S
C750 C748 1.353 . S
C750 C753 1.348 . S
C750 H788 0.929 . S
N751 Li706 1.990 . S
N751 C748 1.314 . S
N751 C749 1.279 . S
C752 C749 1.358 . S
C752 C753 1.356 . S
C752 H789 0.930 . S
C753 C750 1.348 . S
C753 C752 1.356 . S
H754 C748 0.930 . S
H755 C749 0.930 . S
C756 N757 1.314 . S
C756 C758 1.353 . S
C756 H762 0.930 . S
N757 Li707 1.990 . S
N757 C756 1.314 . S
N757 C760 1.279 . S
C758 C756 1.353 . S
C758 C761 1.348 . S
C758 H790 0.929 . S
C759 C760 1.358 . S
C759 C761 1.356 . S
C759 H791 0.930 . S
C760 N757 1.279 . S
C760 C759 1.358 . S
C760 H763 0.930 . S
C761 C758 1.348 . S
C761 C759 1.356 . S
H762 C756 0.930 . S
H763 C760 0.930 . S
O764 Li704 1.956 . S
O764 Li705 1.970 . S
O764 Li706 1.961 . S
O764 C708 1.325 1_565 S
O765 Li704 1.970 . S
O765 Li705 1.956 . S
O765 Li707 1.961 . S
O765 C714 1.325 . S
O766 Li704 1.961 . S
O766 Li706 1.956 . S
O766 Li707 1.970 . S
O766 C736 1.325 . S
O767 Li705 1.961 . S
O767 Li706 1.970 . S
O767 Li707 1.956 . S
O767 C742 1.325 . S
H768 C710 0.929 . S
H769 C711 0.930 . S
H770 C712 0.930 . S
H771 C713 0.930 . S
H772 C715 0.930 . S
H773 C717 0.929 1_545 S
H774 C718 0.930 . S
H775 C719 0.930 . S
H776 C722 0.930 . S
H777 C725 0.929 . S
H778 C730 0.929 . S
H779 C731 0.930 . S
H780 C738 0.929 . S
H781 C739 0.930 1_545 S
H782 C740 0.930 . S
H783 C741 0.930 . S
H784 C743 0.929 . S
H785 C744 0.930 . S
H786 C745 0.930 . S
H787 C746 0.930 . S
H788 C750 0.929 . S
H789 C752 0.930 . S
H790 C758 0.929 . S
H791 C759 0.930 . S
Li792 N809 1.990 . S
Li792 O852 1.956 . S
Li792 O853 1.970 . S
Li792 O854 1.961 . S
Li793 N817 1.990 . S
Li793 O852 1.970 . S
Li793 O853 1.956 . S
Li793 O855 1.961 . S
Li794 N839 1.990 . S
Li794 O852 1.961 . S
Li794 O854 1.956 . S
Li794 O855 1.970 . S
Li795 N845 1.990 . S
Li795 O853 1.961 . S
Li795 O854 1.970 . S
Li795 O855 1.956 . S
C796 C798 1.348 . S
C796 C799 1.356 . S
C796 O852 1.325 . S
N797 C800 1.314 . S
N797 C801 1.279 . S
C798 C796 1.348 . S
C798 C800 1.353 . S
C798 H856 0.929 . S
C799 C796 1.356 . S
C799 C801 1.358 . S
C799 H857 0.930 . S
C800 N797 1.314 . S
C800 C798 1.353 . S
C800 H858 0.930 . S
C801 N797 1.279 . S
C801 C799 1.358 . S
C801 H859 0.930 . S
C802 C805 1.348 . S
C802 C806 1.356 . S
C802 O853 1.325 . S
C803 N804 1.279 . S
C803 C806 1.358 . S
C803 H860 0.930 . S
N804 C803 1.279 . S
N804 C807 1.314 . S
C805 C802 1.348 . S
C805 C807 1.353 . S
C805 H861 0.929 . S
C806 C802 1.356 . S
C806 C803 1.358 . S
C806 H862 0.930 . S
C807 N804 1.314 . S
C807 C805 1.353 . S
C807 H863 0.930 . S
C808 N809 1.314 . S
C808 C813 1.353 . S
C808 H814 0.930 . S
N809 Li792 1.990 . S
N809 C808 1.314 . S
N809 C811 1.279 . S
C810 C811 1.358 . S
C810 C812 1.356 . S
C810 H864 0.930 . S
C811 N809 1.279 . S
C811 C810 1.358 . S
C811 H815 0.930 . S
C812 C810 1.356 . S
C812 C813 1.348 . S
C813 C808 1.353 . S
C813 C812 1.348 . S
C813 H865 0.929 . S
H814 C808 0.930 . S
H815 C811 0.930 . S
C816 N817 1.314 . S
C816 C818 1.353 . S
C816 H822 0.930 . S
N817 Li793 1.990 . S
N817 C816 1.314 . S
N817 C820 1.279 . S
C818 C816 1.353 . S
C818 C821 1.348 . S
C818 H866 0.929 . S
C819 C820 1.358 . S
C819 C821 1.356 . S
C819 H867 0.930 . S
C820 N817 1.279 . S
C820 C819 1.358 . S
C820 H823 0.930 . S
C821 C818 1.348 . S
C821 C819 1.356 . S
H822 C816 0.930 . S
H823 C820 0.930 . S
C824 C826 1.348 . S
C824 C827 1.356 . S
C824 O854 1.325 . S
N825 C828 1.314 . S
N825 C829 1.279 . S
C826 C824 1.348 . S
C826 C828 1.353 . S
C826 H868 0.929 . S
C827 C824 1.356 . S
C827 C829 1.358 . S
C827 H869 0.930 . S
C828 N825 1.314 . S
C828 C826 1.353 . S
C828 H870 0.930 . S
C829 N825 1.279 . S
C829 C827 1.358 . S
C829 H871 0.930 . S
C830 C831 1.348 . S
C830 C832 1.356 . S
C830 O855 1.325 . S
C831 C830 1.348 . S
C831 C833 1.353 . S
C831 H872 0.929 . S
C832 C830 1.356 . S
C832 C834 1.358 . S
C832 H873 0.930 . S
C833 C831 1.353 . S
C833 N835 1.314 . S
C833 H874 0.930 . S
C834 C832 1.358 . S
C834 N835 1.279 . S
C834 H875 0.930 . S
N835 C833 1.314 . S
N835 C834 1.279 . S
C836 C838 1.353 . S
C836 N839 1.314 . S
C836 H842 0.930 . S
C837 N839 1.279 . S
C837 C840 1.358 . S
C837 H843 0.930 . S
C838 C836 1.353 . S
C838 C841 1.348 . S
C838 H876 0.929 . S
N839 Li794 1.990 . S
N839 C836 1.314 . S
N839 C837 1.279 . S
C840 C837 1.358 . S
C840 C841 1.356 . S
C840 H877 0.930 . S
C841 C838 1.348 . S
C841 C840 1.356 . S
H842 C836 0.930 . S
H843 C837 0.930 . S
C844 N845 1.314 . S
C844 C846 1.353 . S
C844 H850 0.930 . S
N845 Li795 1.990 . S
N845 C844 1.314 . S
N845 C848 1.279 . S
C846 C844 1.353 . S
C846 C849 1.348 . S
C846 H878 0.929 . S
C847 C848 1.358 . S
C847 C849 1.356 . S
C847 H879 0.930 . S
C848 N845 1.279 . S
C848 C847 1.358 . S
C848 H851 0.930 . S
C849 C846 1.348 . S
C849 C847 1.356 . S
H850 C844 0.930 . S
H851 C848 0.930 . S
O852 Li792 1.956 . S
O852 Li793 1.970 . S
O852 Li794 1.961 . S
O852 C796 1.325 . S
O853 Li792 1.970 . S
O853 Li793 1.956 . S
O853 Li795 1.961 . S
O853 C802 1.325 . S
O854 Li792 1.961 . S
O854 Li794 1.956 . S
O854 Li795 1.970 . S
O854 C824 1.325 . S
O855 Li793 1.961 . S
O855 Li794 1.970 . S
O855 Li795 1.956 . S
O855 C830 1.325 . S
H856 C798 0.929 . S
H857 C799 0.930 . S
H858 C800 0.930 . S
H859 C801 0.930 . S
H860 C803 0.930 . S
H861 C805 0.929 . S
H862 C806 0.930 . S
H863 C807 0.930 . S
H864 C810 0.930 . S
H865 C813 0.929 . S
H866 C818 0.929 . S
H867 C819 0.930 . S
H868 C826 0.929 . S
H869 C827 0.930 . S
H870 C828 0.930 . S
H871 C829 0.930 . S
H872 C831 0.929 . S
H873 C832 0.930 . S
H874 C833 0.930 . S
H875 C834 0.930 . S
H876 C838 0.929 . S
H877 C840 0.930 . S
H878 C846 0.929 . S
H879 C847 0.930 . S
Li880 N897 1.990 1_455 S
Li880 O940 1.956 . S
Li880 O941 1.970 . S
Li880 O942 1.961 . S
Li881 N905 1.990 . S
Li881 O940 1.970 . S
Li881 O941 1.956 . S
Li881 O943 1.961 . S
Li882 N927 1.990 . S
Li882 O940 1.961 . S
Li882 O942 1.956 . S
Li882 O943 1.970 . S
Li883 N933 1.990 . S
Li883 O941 1.961 . S
Li883 O942 1.970 . S
Li883 O943 1.956 . S
C884 C886 1.348 . S
C884 C887 1.356 . S
C884 O940 1.325 1_655 S
N885 C888 1.314 . S
N885 C889 1.279 . S
C886 C884 1.348 . S
C886 C888 1.353 . S
C886 H944 0.929 . S
C887 C884 1.356 . S
C887 C889 1.358 . S
C887 H945 0.930 . S
C888 N885 1.314 . S
C888 C886 1.353 . S
C888 H946 0.930 . S
C889 N885 1.279 . S
C889 C887 1.358 . S
C889 H947 0.930 . S
C890 C893 1.348 . S
C890 C894 1.356 . S
C890 O941 1.325 . S
C891 N892 1.279 . S
C891 C894 1.358 . S
C891 H948 0.930 . S
N892 C891 1.279 . S
N892 C895 1.314 . S
C893 C890 1.348 . S
C893 C895 1.353 . S
C893 H949 0.929 1_455 S
C894 C890 1.356 . S
C894 C891 1.358 . S
C894 H950 0.930 . S
C895 N892 1.314 . S
C895 C893 1.353 . S
C895 H951 0.930 . S
C896 N897 1.314 . S
C896 C901 1.353 . S
C896 H902 0.930 . S
N897 Li880 1.990 1_655 S
N897 C896 1.314 . S
N897 C899 1.279 . S
C898 C899 1.358 . S
C898 C900 1.356 . S
C898 H952 0.930 . S
C899 N897 1.279 . S
C899 C898 1.358 . S
C899 H903 0.930 . S
C900 C898 1.356 . S
C900 C901 1.348 . S
C901 C896 1.353 . S
C901 C900 1.348 . S
C901 H953 0.929 . S
H902 C896 0.930 . S
H903 C899 0.930 . S
C904 N905 1.314 . S
C904 C906 1.353 . S
C904 H910 0.930 . S
N905 Li881 1.990 . S
N905 C904 1.314 . S
N905 C908 1.279 . S
C906 C904 1.353 . S
C906 C909 1.348 . S
C906 H954 0.929 . S
C907 C908 1.358 . S
C907 C909 1.356 . S
C907 H955 0.930 . S
C908 N905 1.279 . S
C908 C907 1.358 . S
C908 H911 0.930 . S
C909 C906 1.348 . S
C909 C907 1.356 . S
H910 C904 0.930 . S
H911 C908 0.930 . S
C912 C914 1.348 . S
C912 C915 1.356 . S
C912 O942 1.325 . S
N913 C916 1.314 . S
N913 C917 1.279 1_455 S
C914 C912 1.348 . S
C914 C916 1.353 . S
C914 H956 0.929 . S
C915 C912 1.356 . S
C915 C917 1.358 1_455 S
C915 H957 0.930 1_455 S
C916 N913 1.314 . S
C916 C914 1.353 . S
C916 H958 0.930 . S
C917 N913 1.279 1_655 S
C917 C915 1.358 1_655 S
C917 H959 0.930 . S
C918 C919 1.348 . S
C918 C920 1.356 . S
C918 O943 1.325 . S
C919 C918 1.348 . S
C919 C921 1.353 . S
C919 H960 0.929 . S
C920 C918 1.356 . S
C920 C922 1.358 . S
C920 H961 0.930 . S
C921 C919 1.353 . S
C921 N923 1.314 . S
C921 H962 0.930 . S
C922 C920 1.358 . S
C922 N923 1.279 . S
C922 H963 0.930 . S
N923 C921 1.314 . S
N923 C922 1.279 . S
C924 C926 1.353 . S
C924 N927 1.314 . S
C924 H930 0.930 . S
C925 N927 1.279 . S
C925 C928 1.358 . S
C925 H931 0.930 . S
C926 C924 1.353 . S
C926 C929 1.348 . S
C926 H964 0.929 . S
N927 Li882 1.990 . S
N927 C924 1.314 . S
N927 C925 1.279 . S
C928 C925 1.358 . S
C928 C929 1.356 . S
C928 H965 0.930 . S
C929 C926 1.348 . S
C929 C928 1.356 . S
H930 C924 0.930 . S
H931 C925 0.930 . S
C932 N933 1.314 . S
C932 C934 1.353 . S
C932 H938 0.930 . S
N933 Li883 1.990 . S
N933 C932 1.314 . S
N933 C936 1.279 . S
C934 C932 1.353 . S
C934 C937 1.348 . S
C934 H966 0.929 . S
C935 C936 1.358 . S
C935 C937 1.356 . S
C935 H967 0.930 . S
C936 N933 1.279 . S
C936 C935 1.358 . S
C936 H939 0.930 . S
C937 C934 1.348 . S
C937 C935 1.356 . S
H938 C932 0.930 . S
H939 C936 0.930 . S
O940 Li880 1.956 . S
O940 Li881 1.970 . S
O940 Li882 1.961 . S
O940 C884 1.325 1_455 S
O941 Li880 1.970 . S
O941 Li881 1.956 . S
O941 Li883 1.961 . S
O941 C890 1.325 . S
O942 Li880 1.961 . S
O942 Li882 1.956 . S
O942 Li883 1.970 . S
O942 C912 1.325 . S
O943 Li881 1.961 . S
O943 Li882 1.970 . S
O943 Li883 1.956 . S
O943 C918 1.325 . S
H944 C886 0.929 . S
H945 C887 0.930 . S
H946 C888 0.930 . S
H947 C889 0.930 . S
H948 C891 0.930 . S
H949 C893 0.929 1_655 S
H950 C894 0.930 . S
H951 C895 0.930 . S
H952 C898 0.930 . S
H953 C901 0.929 . S
H954 C906 0.929 . S
H955 C907 0.930 . S
H956 C914 0.929 . S
H957 C915 0.930 1_655 S
H958 C916 0.930 . S
H959 C917 0.930 . S
H960 C919 0.929 . S
H961 C920 0.930 . S
H962 C921 0.930 . S
H963 C922 0.930 . S
H964 C926 0.929 . S
H965 C928 0.930 . S
H966 C934 0.929 . S
H967 C935 0.930 . S
Li968 N985 1.990 . S
Li968 O1028 1.956 . S
Li968 O1029 1.970 . S
Li968 O1030 1.961 . S
Li969 N993 1.990 1_545 S
Li969 O1028 1.970 . S
Li969 O1029 1.956 . S
Li969 O1031 1.961 . S
Li970 N1015 1.990 . S
Li970 O1028 1.961 . S
Li970 O1030 1.956 . S
Li970 O1031 1.970 . S
Li971 N1021 1.990 . S
Li971 O1029 1.961 . S
Li971 O1030 1.970 . S
Li971 O1031 1.956 . S
C972 C974 1.348 . S
C972 C975 1.356 . S
C972 O1028 1.325 . S
N973 C976 1.314 . S
N973 C977 1.279 . S
C974 C972 1.348 . S
C974 C976 1.353 . S
C974 H1032 0.929 1_545 S
C975 C972 1.356 . S
C975 C977 1.358 . S
C975 H1033 0.930 . S
C976 N973 1.314 . S
C976 C974 1.353 . S
C976 H1034 0.930 . S
C977 N973 1.279 . S
C977 C975 1.358 . S
C977 H1035 0.930 . S
C978 C981 1.348 . S
C978 C982 1.356 . S
C978 O1029 1.325 1_565 S
C979 N980 1.279 . S
C979 C982 1.358 . S
C979 H1036 0.930 . S
N980 C979 1.279 . S
N980 C983 1.314 . S
C981 C978 1.348 . S
C981 C983 1.353 . S
C981 H1037 0.929 . S
C982 C978 1.356 . S
C982 C979 1.358 . S
C982 H1038 0.930 . S
C983 N980 1.314 . S
C983 C981 1.353 . S
C983 H1039 0.930 . S
C984 N985 1.314 . S
C984 C989 1.353 . S
C984 H990 0.930 . S
N985 Li968 1.990 . S
N985 C984 1.314 . S
N985 C987 1.279 . S
C986 C987 1.358 . S
C986 C988 1.356 . S
C986 H1040 0.930 . S
C987 N985 1.279 . S
C987 C986 1.358 . S
C987 H991 0.930 . S
C988 C986 1.356 . S
C988 C989 1.348 . S
C989 C984 1.353 . S
C989 C988 1.348 . S
C989 H1041 0.929 . S
H990 C984 0.930 . S
H991 C987 0.930 . S
C992 N993 1.314 . S
C992 C994 1.353 . S
C992 H998 0.930 . S
N993 Li969 1.990 1_565 S
N993 C992 1.314 . S
N993 C996 1.279 . S
C994 C992 1.353 . S
C994 C997 1.348 . S
C994 H1042 0.929 . S
C995 C996 1.358 . S
C995 C997 1.356 . S
C995 H1043 0.930 . S
C996 N993 1.279 . S
C996 C995 1.358 . S
C996 H999 0.930 . S
C997 C994 1.348 . S
C997 C995 1.356 . S
H998 C992 0.930 . S
H999 C996 0.930 . S
C1000 C1002 1.348 . S
C1000 C1003 1.356 . S
C1000 O1030 1.325 . S
N1001 C1004 1.314 . S
N1001 C1005 1.279 . S
C1002 C1000 1.348 . S
C1002 C1004 1.353 . S
C1002 H1044 0.929 . S
C1003 C1000 1.356 . S
C1003 C1005 1.358 . S
C1003 H1045 0.930 . S
C1004 N1001 1.314 . S
C1004 C1002 1.353 . S
C1004 H1046 0.930 . S
C1005 N1001 1.279 . S
C1005 C1003 1.358 . S
C1005 H1047 0.930 . S
C1006 C1007 1.348 . S
C1006 C1008 1.356 . S
C1006 O1031 1.325 . S
C1007 C1006 1.348 . S
C1007 C1009 1.353 . S
C1007 H1048 0.929 . S
C1008 C1006 1.356 . S
C1008 C1010 1.358 1_545 S
C1008 H1049 0.930 1_545 S
C1009 C1007 1.353 . S
C1009 N1011 1.314 . S
C1009 H1050 0.930 . S
C1010 C1008 1.358 1_565 S
C1010 N1011 1.279 1_565 S
C1010 H1051 0.930 . S
N1011 C1009 1.314 . S
N1011 C1010 1.279 1_545 S
C1012 C1014 1.353 . S
C1012 N1015 1.314 . S
C1012 H1018 0.930 . S
C1013 N1015 1.279 . S
C1013 C1016 1.358 . S
C1013 H1019 0.930 . S
C1014 C1012 1.353 . S
C1014 C1017 1.348 . S
C1014 H1052 0.929 . S
N1015 Li970 1.990 . S
N1015 C1012 1.314 . S
N1015 C1013 1.279 . S
C1016 C1013 1.358 . S
C1016 C1017 1.356 . S
C1016 H1053 0.930 . S
C1017 C1014 1.348 . S
C1017 C1016 1.356 . S
H1018 C1012 0.930 . S
H1019 C1013 0.930 . S
C1020 N1021 1.314 . S
C1020 C1022 1.353 . S
C1020 H1026 0.930 . S
N1021 Li971 1.990 . S
N1021 C1020 1.314 . S
N1021 C1024 1.279 . S
C1022 C1020 1.353 . S
C1022 C1025 1.348 . S
C1022 H1054 0.929 . S
C1023 C1024 1.358 . S
C1023 C1025 1.356 . S
C1023 H1055 0.930 . S
C1024 N1021 1.279 . S
C1024 C1023 1.358 . S
C1024 H1027 0.930 . S
C1025 C1022 1.348 . S
C1025 C1023 1.356 . S
H1026 C1020 0.930 . S
H1027 C1024 0.930 . S
O1028 Li968 1.956 . S
O1028 Li969 1.970 . S
O1028 Li970 1.961 . S
O1028 C972 1.325 . S
O1029 Li968 1.970 . S
O1029 Li969 1.956 . S
O1029 Li971 1.961 . S
O1029 C978 1.325 1_545 S
O1030 Li968 1.961 . S
O1030 Li970 1.956 . S
O1030 Li971 1.970 . S
O1030 C1000 1.325 . S
O1031 Li969 1.961 . S
O1031 Li970 1.970 . S
O1031 Li971 1.956 . S
O1031 C1006 1.325 . S
H1032 C974 0.929 1_565 S
H1033 C975 0.930 . S
H1034 C976 0.930 . S
H1035 C977 0.930 . S
H1036 C979 0.930 . S
H1037 C981 0.929 . S
H1038 C982 0.930 . S
H1039 C983 0.930 . S
H1040 C986 0.930 . S
H1041 C989 0.929 . S
H1042 C994 0.929 . S
H1043 C995 0.930 . S
H1044 C1002 0.929 . S
H1045 C1003 0.930 . S
H1046 C1004 0.930 . S
H1047 C1005 0.930 . S
H1048 C1007 0.929 . S
H1049 C1008 0.930 1_565 S
H1050 C1009 0.930 . S
H1051 C1010 0.930 . S
H1052 C1014 0.929 . S
H1053 C1016 0.930 . S
H1054 C1022 0.929 . S
H1055 C1023 0.930 . S
C1017 C20 2.236 1_655 S
C108 C585 2.236 1_545 S
C205 C673 2.236 . S
C284 C761 2.236 1_655 S
C841 C372 2.236 1_545 S
C469 C937 2.236 . S
C313 C49 4.422 . S
C401 C137 4.421 1_455 S
C497 C233 4.421 1_545 S
C557 C812 4.422 . S
C645 C909 4.421 1_655 S
C733 C988 4.421 1_565 S
C724 C57 0.848 . S
C145 C821 0.848 . S
C900 C225 0.848 . S
C997 C321 0.848 . S
C548 C409 0.848 . S
C489 C636 0.848 . S
C849 C29 2.495 . S
C117 C929 2.495 1_655 S
C1025 C196 2.495 1_544 S
C293 C577 2.495 . S
C381 C665 2.495 1_455 S
C753 C460 2.495 1_564 S
