# Generated by pormake.
# Topology uol, (4)-cn, num edge types: 1
# Building blocks:
#     Node 0, Type 0, BuildingBlock: NAWXER_clean_sbu_0, # of connection points: 4
#     Node 1, Type 0, BuildingBlock: NAWXER_clean_sbu_0, # of connection points: 4
#     Node 2, Type 0, BuildingBlock: NAWXER_clean_sbu_0, # of connection points: 4
#     Node 3, Type 0, BuildingBlock: NAWXER_clean_sbu_0, # of connection points: 4
#     Node 4, Type 0, BuildingBlock: NAWXER_clean_sbu_0, # of connection points: 4
#     Node 5, Type 0, BuildingBlock: NAWXER_clean_sbu_0, # of connection points: 4
#     Node 6, Type 0, BuildingBlock: NAWXER_clean_sbu_0, # of connection points: 4
#     Node 7, Type 0, BuildingBlock: NAWXER_clean_sbu_0, # of connection points: 4
#     Node 8, Type 0, BuildingBlock: NAWXER_clean_sbu_0, # of connection points: 4
#     Node 9, Type 0, BuildingBlock: NAWXER_clean_sbu_0, # of connection points: 4
#     Node 10, Type 0, BuildingBlock: NAWXER_clean_sbu_0, # of connection points: 4
#     Node 11, Type 0, BuildingBlock: NAWXER_clean_sbu_0, # of connection points: 4
#     Edge 12, Type (0, 0), BuildingBlock: OJICUG_clean_linker_0, # of connection points: 2
#     Edge 13, Type (0, 0), BuildingBlock: OJICUG_clean_linker_0, # of connection points: 2
#     Edge 14, Type (0, 0), BuildingBlock: OJICUG_clean_linker_0, # of connection points: 2
#     Edge 15, Type (0, 0), BuildingBlock: OJICUG_clean_linker_0, # of connection points: 2
#     Edge 16, Type (0, 0), BuildingBlock: OJICUG_clean_linker_0, # of connection points: 2
#     Edge 17, Type (0, 0), BuildingBlock: OJICUG_clean_linker_0, # of connection points: 2
#     Edge 18, Type (0, 0), BuildingBlock: OJICUG_clean_linker_0, # of connection points: 2
#     Edge 19, Type (0, 0), BuildingBlock: OJICUG_clean_linker_0, # of connection points: 2
#     Edge 20, Type (0, 0), BuildingBlock: OJICUG_clean_linker_0, # of connection points: 2
#     Edge 21, Type (0, 0), BuildingBlock: OJICUG_clean_linker_0, # of connection points: 2
#     Edge 22, Type (0, 0), BuildingBlock: OJICUG_clean_linker_0, # of connection points: 2
#     Edge 23, Type (0, 0), BuildingBlock: OJICUG_clean_linker_0, # of connection points: 2
#     Edge 24, Type (0, 0), BuildingBlock: OJICUG_clean_linker_0, # of connection points: 2
#     Edge 25, Type (0, 0), BuildingBlock: OJICUG_clean_linker_0, # of connection points: 2
#     Edge 26, Type (0, 0), BuildingBlock: OJICUG_clean_linker_0, # of connection points: 2
#     Edge 27, Type (0, 0), BuildingBlock: OJICUG_clean_linker_0, # of connection points: 2
#     Edge 28, Type (0, 0), BuildingBlock: OJICUG_clean_linker_0, # of connection points: 2
#     Edge 29, Type (0, 0), BuildingBlock: OJICUG_clean_linker_0, # of connection points: 2
#     Edge 30, Type (0, 0), BuildingBlock: OJICUG_clean_linker_0, # of connection points: 2
#     Edge 31, Type (0, 0), BuildingBlock: OJICUG_clean_linker_0, # of connection points: 2
#     Edge 32, Type (0, 0), BuildingBlock: OJICUG_clean_linker_0, # of connection points: 2
#     Edge 33, Type (0, 0), BuildingBlock: OJICUG_clean_linker_0, # of connection points: 2
#     Edge 34, Type (0, 0), BuildingBlock: OJICUG_clean_linker_0, # of connection points: 2
#     Edge 35, Type (0, 0), BuildingBlock: OJICUG_clean_linker_0, # of connection points: 2
# Relax obj value: 0.141
# Max RMSD: 0.284
# Mean RMSD: 0.284
data_MOF--net-uol--node1-NAWXER_clean_sbu_0--edge1-OJICUG_clean_linker_0
_symmetry_space_group_name_H-M    P1
_symmetry_Int_Tables_number       1
_symmetry_cell_setting            triclinic
loop_
_symmetry_equiv_pos_as_xyz
'x, y, z'
_cell_length_a     24.533654
_cell_length_b     24.436894
_cell_length_c     47.96048
_cell_angle_alpha  90.00424
_cell_angle_beta   90.004308
_cell_angle_gamma 120.15576
loop_
_atom_site_label
_atom_site_type_symbol
_atom_site_fract_x
_atom_site_fract_y
_atom_site_fract_z
_atom_type_partial_charge
C0 C 0.15328 0.32217 0.0651 0.0
C1 C 1.00782 0.27685 0.14165 0.0
O2 O 0.18071 0.36051 0.08548 0.0
Zn3 Zn 0.1513 0.37772 0.12603 0.0
O4 O 0.09462 0.28278 0.06639 0.0
Zn5 Zn 0.08098 0.30481 0.10276 0.0
O6 O 0.08993 0.39637 0.09547 0.0
O7 O 0.16398 0.46164 0.12439 0.0
O8 O 0.99782 0.25282 0.11746 0.0
O9 O 0.06246 0.32362 0.14766 0.0
O10 O 0.2076 0.36753 0.14978 0.0
O11 O 0.13844 0.27918 0.12866 0.0
C12 C 0.12368 0.45203 0.10571 0.0
C13 C 0.18552 0.30892 0.14528 0.0
C14 C 0.88375 0.1861 0.31155 0.0
C15 C 0.67985 0.13013 0.27339 0.0
O16 O 0.86378 0.1374 0.29559 0.0
Zn17 Zn 0.77828 0.08056 0.27046 0.0
O18 O 0.8494 0.21044 0.31581 0.0
Zn19 Zn 0.78136 0.15441 0.29276 0.0
O20 O 0.74247 0.06514 0.31547 0.0
O21 O 0.7453 0.99802 0.28563 0.0
O22 O 0.71547 0.17374 0.29004 0.0
O23 O 0.69629 0.09095 0.26458 0.0
O24 O 0.81134 0.09101 0.23347 0.0
O25 O 0.82689 0.18011 0.25218 0.0
C26 C 0.73234 0.00937 0.30976 0.0
C27 C 0.83431 0.15039 0.23181 0.0
C28 C 0.69998 0.88211 0.47921 0.0
C29 C 0.55752 0.67483 0.44061 0.0
O30 O 0.72929 0.86425 0.46266 0.0
Zn31 Zn 0.70367 0.78038 0.43714 0.0
O32 O 0.64173 0.84546 0.48405 0.0
Zn33 Zn 0.63142 0.77799 0.46059 0.0
O34 O 0.68631 0.74405 0.48226 0.0
O35 O 0.75596 0.7498 0.45169 0.0
O36 O 0.54787 0.7058 0.45919 0.0
O37 O 0.61287 0.6971 0.43027 0.0
O38 O 0.72484 0.81541 0.40068 0.0
O39 O 0.64789 0.82434 0.4199 0.0
C40 C 0.73284 0.73621 0.47603 0.0
C41 C 0.68576 0.83492 0.39943 0.0
C42 C 0.86432 0.69329 0.56504 0.0
C43 C 0.00976 0.73865 0.64162 0.0
O44 O 0.83688 0.65496 0.58543 0.0
Zn45 Zn 0.86627 0.63778 0.62598 0.0
O46 O 0.92298 0.73268 0.56635 0.0
Zn47 Zn 0.93661 0.71067 0.60272 0.0
O48 O 0.92766 0.61911 0.59544 0.0
O49 O 0.85359 0.55386 0.62435 0.0
O50 O 0.01976 0.76267 0.61743 0.0
O51 O 0.95511 0.69188 0.64762 0.0
O52 O 0.80997 0.64798 0.64971 0.0
O53 O 0.87913 0.73631 0.62861 0.0
C54 C 0.89391 0.56345 0.60568 0.0
C55 C 0.83205 0.70659 0.64521 0.0
C56 C 0.1338 0.82928 0.81152 0.0
C57 C 0.33773 0.88531 0.77339 0.0
O58 O 0.15376 0.878 0.79557 0.0
Zn59 Zn 0.23928 0.93487 0.77046 0.0
O60 O 0.16816 0.80496 0.81579 0.0
Zn61 Zn 0.23621 0.86102 0.79275 0.0
O62 O 0.27507 0.95027 0.81548 0.0
O63 O 0.27224 0.0174 0.78565 0.0
O64 O 0.30211 0.84171 0.79003 0.0
O65 O 0.32128 0.92449 0.76458 0.0
O66 O 0.20623 0.92444 0.73347 0.0
O67 O 0.1907 0.83533 0.75216 0.0
C68 C 0.28519 1.00604 0.80978 0.0
C69 C 0.18328 0.86506 0.7318 0.0
C70 C 0.28475 0.27927 0.97608 0.0
C71 C 0.33173 0.18049 0.89947 0.0
O72 O 0.33128 0.27143 0.9823 0.0
Zn73 Zn 0.38615 0.23747 0.96063 0.0
O74 O 0.26162 0.26568 0.95174 0.0
Zn75 Zn 0.31388 0.23507 0.93717 0.0
O76 O 0.28828 0.15122 0.9627 0.0
O77 O 0.37585 0.17001 0.98408 0.0
O78 O 0.29265 0.2 0.90072 0.0
O79 O 0.36963 0.19109 0.91994 0.0
O80 O 0.4697 0.30966 0.95922 0.0
O81 O 0.40469 0.31832 0.93029 0.0
C82 C 0.3176 0.13335 0.97924 0.0
C83 C 0.46005 0.3406 0.94062 0.0
C84 C 0.70608 0.82982 0.69339 0.0
C85 C 0.55813 0.8855 0.73171 0.0
O86 O 0.73484 0.87845 0.70939 0.0
Zn87 Zn 0.7062 0.93515 0.7346 0.0
O88 O 0.64738 0.8055 0.68912 0.0
Zn89 Zn 0.63537 0.86138 0.71225 0.0
O90 O 0.68574 0.95075 0.68963 0.0
O91 O 0.75578 0.01777 0.71948 0.0
O92 O 0.55013 0.84198 0.71501 0.0
O93 O 0.61378 0.92466 0.74053 0.0
O94 O 0.72881 0.92451 0.77157 0.0
O95 O 0.6552 0.8355 0.75279 0.0
C96 C 0.73141 1.0065 0.69536 0.0
C97 C 0.69236 0.86512 0.77317 0.0
C98 C 0.83881 0.6926 0.93981 0.0
C99 C 0.73894 0.73811 0.86323 0.0
O100 O 0.82791 0.65427 0.91942 0.0
Zn101 Zn 0.78133 0.63711 0.87886 0.0
O102 O 0.8196 0.73201 0.9385 0.0
Zn103 Zn 0.78397 0.71 0.90213 0.0
O104 O 0.70129 0.61846 0.90942 0.0
O105 O 0.70996 0.55319 0.88048 0.0
O106 O 0.75291 0.76204 0.88744 0.0
O107 O 0.74675 0.69132 0.85721 0.0
O108 O 0.84786 0.64728 0.85513 0.0
O109 O 0.86711 0.73561 0.87625 0.0
C110 C 0.6793 0.5628 0.89917 0.0
C111 C 0.88444 0.70589 0.85964 0.0
C112 C 0.19177 0.88171 0.02594 0.0
C113 C 0.1269 0.67439 0.06443 0.0
O114 O 0.14449 0.86374 0.04245 0.0
Zn115 Zn 0.08617 0.77979 0.06791 0.0
O116 O 0.21345 0.84514 0.02111 0.0
Zn117 Zn 0.1562 0.77757 0.04451 0.0
O118 O 0.06741 0.74354 0.02277 0.0
O119 O 1.00333 0.74912 0.05328 0.0
O120 O 0.16763 0.70546 0.0459 0.0
O121 O 0.09372 0.69656 0.07475 0.0
O122 O 0.09985 0.81472 0.10439 0.0
O123 O 0.18588 0.82384 0.08523 0.0
C124 C 0.01298 0.7356 0.02895 0.0
C125 C 0.15847 0.83431 0.10568 0.0
C126 C 0.28611 0.00895 0.19536 0.0
C127 C 0.32518 0.15025 0.27322 0.0
O128 O 0.33178 0.06471 0.18964 0.0
Zn129 Zn 0.38216 0.15405 0.21229 0.0
O130 O 0.26175 0.99766 0.21948 0.0
Zn131 Zn 0.31134 0.08026 0.23463 0.0
O132 O 0.28268 0.13699 0.20944 0.0
O133 O 0.37014 0.20997 0.18919 0.0
O134 O 0.28873 0.09086 0.2716 0.0
O135 O 0.36234 0.17989 0.25284 0.0
O136 O 0.46739 0.17345 0.21505 0.0
O137 O 0.40376 0.09075 0.24055 0.0
C138 C 0.31145 0.18564 0.19346 0.0
C139 C 0.45941 0.12993 0.23173 0.0
C140 C 0.33825 0.45251 0.39924 0.0
C141 C 0.13308 0.30942 0.35971 0.0
O142 O 0.31627 0.39685 0.40948 0.0
Zn143 Zn 0.23357 0.30532 0.4022 0.0
O144 O 0.30757 0.46211 0.38055 0.0
Zn145 Zn 0.23621 0.3782 0.37893 0.0
O146 O 0.18966 0.36107 0.4195 0.0
O147 O 0.19796 0.28333 0.43857 0.0
O148 O 0.16967 0.36803 0.35521 0.0
O149 O 0.15041 0.27969 0.37632 0.0
O150 O 0.26461 0.25326 0.38751 0.0
O151 O 0.27077 0.32398 0.35729 0.0
C152 C 0.17876 0.32275 0.43988 0.0
C153 C 0.27858 0.27719 0.3633 0.0
C154 C 0.89071 0.34107 0.56445 0.0
C155 C 0.82581 0.13373 0.52596 0.0
O156 O 0.92387 0.31889 0.57478 0.0
Zn157 Zn 0.9314 0.23565 0.56795 0.0
O158 O 0.84998 0.30999 0.54592 0.0
Zn159 Zn 0.86139 0.23787 0.54454 0.0
O160 O 0.83169 0.19162 0.58525 0.0
O161 O 0.9177 0.20073 0.60443 0.0
O162 O 0.80415 0.17031 0.52113 0.0
O163 O 0.87308 0.15169 0.54248 0.0
O164 O 0.01425 0.26629 0.55334 0.0
O165 O 0.95018 0.27188 0.52281 0.0
C166 C 0.85909 0.18114 0.60571 0.0
C167 C 1.00461 0.27981 0.529 0.0
C168 C 0.12058 0.57049 0.05624 0.0
C169 C 0.12006 0.6146 0.07486 0.0
H170 H 0.11973 0.48266 0.05161 0.0
C171 C 0.11682 0.60292 0.10363 0.0
H172 H 0.12307 0.57866 0.03396 0.0
C173 C 0.11709 0.54935 0.11369 0.0
C174 C 0.11814 0.50552 0.09509 0.0
H175 H 0.1168 0.63657 0.11834 0.0
H176 H 0.11698 0.54236 0.13601 0.0
C177 C 0.11841 0.51567 0.06629 0.0
C178 C 0.56701 0.07077 0.2574 0.0
C179 C 0.62258 0.12828 0.26278 0.0
H180 H 0.47028 0.02602 0.24398 0.0
C181 C 0.62377 0.18546 0.25784 0.0
H182 H 0.56508 0.02611 0.26113 0.0
C183 C 0.5708 0.18541 0.24735 0.0
C184 C 0.51485 0.12818 0.24238 0.0
H185 H 0.66615 0.23043 0.26165 0.0
H186 H 0.57333 0.23034 0.24356 0.0
C187 C 0.51298 0.07072 0.24773 0.0
C188 C 0.49603 0.60352 0.40137 0.0
C189 C 0.50453 0.61505 0.43016 0.0
H190 H 0.43523 0.54308 0.36897 0.0
C191 C 0.45995 0.57082 0.44875 0.0
H192 H 0.52966 0.63726 0.38668 0.0
C193 C 0.40727 0.51603 0.43868 0.0
C194 C 0.39731 0.506 0.40987 0.0
H195 H 0.46568 0.57888 0.47104 0.0
H196 H 0.37296 0.48291 0.45335 0.0
C197 C 0.44215 0.54996 0.39129 0.0
C198 C 0.90039 0.46609 0.6137 0.0
C199 C 0.89947 0.50996 0.59508 0.0
H200 H 0.90059 0.37883 0.61836 0.0
C201 C 0.89933 0.49984 0.56628 0.0
H202 H 0.90041 0.47305 0.63601 0.0
C203 C 0.89717 0.44502 0.55625 0.0
C204 C 0.89756 0.40087 0.57487 0.0
H205 H 0.8981 0.53289 0.55159 0.0
H206 H 0.89477 0.43687 0.53396 0.0
C207 C 0.90068 0.41251 0.60364 0.0
C208 C 0.44674 0.83003 0.74733 0.0
C209 C 0.50269 0.88725 0.74236 0.0
H210 H 0.35139 0.78501 0.76162 0.0
C211 C 0.50458 0.94471 0.74773 0.0
H212 H 0.4442 0.78509 0.74351 0.0
C213 C 0.45056 0.94467 0.75741 0.0
C214 C 0.39499 0.88716 0.76278 0.0
H215 H 0.54729 0.98941 0.74399 0.0
H216 H 0.4525 0.98933 0.76115 0.0
C217 C 0.39378 0.82998 0.75782 0.0
C218 C 0.52157 0.41172 0.90135 0.0
C219 C 0.51303 0.40033 0.93014 0.0
H220 H 0.5824 0.47201 0.86892 0.0
C221 C 0.55758 0.44467 0.94872 0.0
H222 H 0.48797 0.37789 0.88666 0.0
C223 C 0.61025 0.49943 0.93863 0.0
C224 C 0.62025 0.50931 0.90981 0.0
H225 H 0.55181 0.43672 0.97102 0.0
H226 H 0.64452 0.53263 0.95329 0.0
C227 C 0.57545 0.46524 0.89124 0.0
C228 C 0.21327 0.18098 0.17503 0.0
C229 C 0.27794 0.21595 0.18127 0.0
H230 H 0.13316 0.18296 0.15809 0.0
C231 C 0.31128 0.28128 0.17591 0.0
H232 H 0.18657 0.13053 0.17897 0.0
C233 C 0.28068 0.31128 0.16471 0.0
C234 C 0.21636 0.27641 0.15798 0.0
H235 H 0.36106 0.30952 0.1807 0.0
H236 H 0.30779 0.36176 0.16086 0.0
C237 C 0.18287 0.21087 0.16307 0.0
C238 C 0.97966 0.28178 0.32907 0.0
C239 C 0.94761 0.21644 0.32372 0.0
H240 H 0.06372 0.36227 0.3441 0.0
C241 C 0.97727 0.18147 0.32997 0.0
H242 H 0.95815 0.31002 0.32427 0.0
C243 C 0.03759 0.21137 0.34194 0.0
C244 C 0.0697 0.27691 0.34701 0.0
H245 H 0.95346 0.13101 0.32606 0.0
H246 H 0.05935 0.18346 0.34693 0.0
C247 C 0.04029 0.31178 0.34026 0.0
C248 C 0.72966 0.03856 0.50798 0.0
C249 C 0.79451 0.06963 0.51377 0.0
H250 H 0.64883 0.95431 0.49311 0.0
C251 C 0.82834 0.03843 0.50832 0.0
H252 H 0.70235 0.06134 0.51218 0.0
C253 C 0.79786 0.97749 0.49682 0.0
C254 C 0.73278 0.94619 0.49143 0.0
H255 H 0.87842 0.06144 0.5126 0.0
H256 H 0.82496 0.95455 0.4925 0.0
C257 C 0.69895 0.97716 0.49727 0.0
C258 C 0.83469 0.80461 0.66303 0.0
C259 C 0.80119 0.73909 0.6579 0.0
H260 H 0.83098 0.88493 0.67896 0.0
C261 C 0.73685 0.70422 0.66459 0.0
H262 H 0.88441 0.83252 0.65809 0.0
C263 C 0.70624 0.73422 0.67578 0.0
C264 C 0.73959 0.79952 0.68119 0.0
H265 H 0.70974 0.65375 0.66071 0.0
H266 H 0.65644 0.70598 0.68054 0.0
C267 C 0.80427 0.83449 0.67499 0.0
C268 C 0.97725 0.70355 0.84019 0.0
C269 C 0.94782 0.73841 0.84694 0.0
H270 H 0.05941 0.70535 0.8242 0.0
C271 C 0.97992 0.80396 0.84188 0.0
H272 H 0.95383 0.65306 0.84402 0.0
C273 C 0.04025 0.83388 0.82993 0.0
C274 C 0.06993 0.79892 0.82368 0.0
H275 H 0.95815 0.83186 0.84687 0.0
H276 H 0.06405 0.88434 0.82602 0.0
C277 C 0.03788 0.73358 0.82901 0.0
C278 C 0.18924 0.97702 0.00832 0.0
C279 C 0.22307 0.94582 0.01376 0.0
H280 H 0.19262 0.06091 0.99251 0.0
C281 C 0.28793 0.9769 0.00799 0.0
H282 H 0.13916 0.954 0.01259 0.0
C283 C 0.31863 0.0383 0.99729 0.0
C284 C 0.2848 0.06927 0.99145 0.0
H285 H 0.31524 0.95412 0.01218 0.0
H286 H 0.36876 0.06116 0.99314 0.0
C287 C 0.21972 0.03797 0.99683 0.0
C288 C 0.16019 0.2953 0.01554 0.0
C289 C 0.19003 0.3198 0.04122 0.0
H290 H 0.16722 0.26463 0.97465 0.0
C291 C 0.25338 0.33624 0.04454 0.0
H292 H 0.11145 0.28245 0.01238 0.0
C293 C 0.28513 0.3249 0.02306 0.0
C294 C 0.25445 0.29823 0.99771 0.0
H295 H 0.27741 0.3549 0.0642 0.0
H296 H 0.33313 0.3356 0.02654 0.0
C297 C 0.19225 0.28526 0.99392 0.0
C298 C 0.92091 0.24916 0.21017 0.0
C299 C 0.8736 0.18535 0.20758 0.0
H300 H 1.00106 0.32819 0.19134 0.0
C301 C 0.86758 0.15379 0.18231 0.0
H302 H 0.9268 0.2746 0.22947 0.0
C303 C 0.90935 0.18471 0.16037 0.0
C304 C 0.95882 0.24745 0.16346 0.0
H305 H 0.83138 0.10468 0.17969 0.0
H306 H 0.90449 0.15847 0.14143 0.0
C307 C 0.96355 0.27975 0.1884 0.0
C308 C 0.68779 0.96686 0.3573 0.0
C309 C 0.71182 0.9603 0.33169 0.0
H310 H 0.65905 0.93094 0.39883 0.0
C311 C 0.72088 0.90836 0.32783 0.0
H312 H 0.68014 1.00627 0.36086 0.0
C313 C 0.70984 0.86614 0.34958 0.0
C314 C 0.68817 0.87401 0.37549 0.0
H315 H 0.73933 0.90182 0.30838 0.0
H316 H 0.71986 0.82818 0.34633 0.0
C317 C 0.6754 0.92361 0.37895 0.0
C318 C 0.76421 0.67921 0.54448 0.0
C319 C 0.82757 0.69566 0.54116 0.0
H320 H 0.68446 0.67984 0.52648 0.0
C321 C 0.85741 0.72018 0.51549 0.0
H322 H 0.74019 0.66053 0.56413 0.0
C323 C 0.82535 0.73023 0.49387 0.0
C324 C 0.76315 0.71725 0.49766 0.0
H325 H 0.90615 0.73304 0.51233 0.0
H326 H 0.85038 0.75087 0.47461 0.0
C327 C 0.73246 0.69055 0.523 0.0
C328 C 0.09668 0.76631 0.71014 0.0
C329 C 0.14399 0.83011 0.70756 0.0
H330 H 0.01652 0.68728 0.6913 0.0
C331 C 0.15001 0.86169 0.68229 0.0
H332 H 0.09079 0.74086 0.72943 0.0
C333 C 0.10823 0.83077 0.66035 0.0
C334 C 0.05876 0.76803 0.66343 0.0
H335 H 0.18621 0.91079 0.67968 0.0
H336 H 0.11309 0.85702 0.64141 0.0
C337 C 0.05403 0.73572 0.68837 0.0
C338 C 0.3076 0.14924 0.84962 0.0
C339 C 0.3293 0.14138 0.87553 0.0
H340 H 0.27811 0.11354 0.80841 0.0
C341 C 0.3421 0.09181 0.87899 0.0
H342 H 0.29756 0.18718 0.84637 0.0
C343 C 0.32973 0.04856 0.85733 0.0
C344 C 0.30567 0.05511 0.83172 0.0
H345 H 0.35849 0.0845 0.89886 0.0
H346 H 0.33741 0.00917 0.86088 0.0
C347 C 0.29658 0.10702 0.82786 0.0
C348 C 0.6801 0.76623 0.79469 0.0
C349 C 0.69664 0.83003 0.79735 0.0
H350 H 0.68106 0.68707 0.81345 0.0
C351 C 0.72212 0.86144 0.82267 0.0
H352 H 0.66061 0.74091 0.77536 0.0
C353 C 0.73285 0.83038 0.84458 0.0
C354 C 0.71951 0.76764 0.84143 0.0
H355 H 0.73505 0.91053 0.82534 0.0
H356 H 0.75415 0.8565 0.86355 0.0
C357 C 0.69203 0.7355 0.81644 0.0
C358 C 0.92487 0.67865 0.96042 0.0
C359 C 0.87786 0.69494 0.96372 0.0
H360 H 1.00529 0.67943 0.97847 0.0
C361 C 0.87237 0.71932 0.98939 0.0
H362 H 0.93034 0.66008 0.94076 0.0
C363 C 0.91443 0.7294 0.01105 0.0
C364 C 0.96376 0.71659 0.00728 0.0
H365 H 0.83641 0.73206 0.99254 0.0
H366 H 0.90991 0.74993 0.03031 0.0
C367 C 0.96791 0.69002 0.98193 0.0
C368 C 0.1654 0.86564 0.15552 0.0
C369 C 0.19507 0.87344 0.12964 0.0
H370 H 0.17145 0.90143 0.1967 0.0
C371 C 0.2575 0.92301 0.12623 0.0
H372 H 0.11737 0.82771 0.15874 0.0
C373 C 0.2883 0.9663 0.14788 0.0
C374 C 0.25758 0.95981 0.17345 0.0
H375 H 0.28128 0.93028 0.10638 0.0
H376 H 0.33542 1.00568 0.14435 0.0
C377 C 0.19653 0.9079 0.17728 0.0
C378 C 0.33747 0.24912 0.29478 0.0
C379 C 0.32091 0.18532 0.29741 0.0
H380 H 0.33654 0.32828 0.31355 0.0
C381 C 0.29539 0.15387 0.32271 0.0
H382 H 0.357 0.27447 0.27546 0.0
C383 C 0.28466 0.18492 0.34463 0.0
C384 C 0.29803 0.24767 0.3415 0.0
H385 H 0.28244 0.10477 0.32537 0.0
H386 H 0.26333 0.15878 0.3636 0.0
C387 C 0.32554 0.27984 0.31653 0.0
C388 C 0.09273 0.33674 0.46049 0.0
C389 C 0.13972 0.32042 0.46379 0.0
H390 H 0.01234 0.336 0.47853 0.0
C391 C 0.14519 0.29603 0.48947 0.0
H392 H 0.08727 0.35532 0.44083 0.0
C393 C 0.10314 0.28597 0.51111 0.0
C394 C 0.05383 0.29881 0.50735 0.0
H395 H 0.18114 0.28327 0.49261 0.0
H396 H 0.10764 0.26542 0.53038 0.0
C397 C 0.0497 0.32539 0.482 0.0
C398 C 0.821 0.10756 0.6773 0.0
C399 C 0.75994 0.05565 0.67346 0.0
H400 H 0.90016 0.18775 0.65878 0.0
C401 C 0.72923 0.04917 0.64788 0.0
H402 H 0.84607 0.11403 0.69672 0.0
C403 C 0.76004 0.09247 0.62624 0.0
C404 C 0.82248 0.14203 0.62967 0.0
H405 H 0.68211 0.00979 0.64434 0.0
H406 H 0.73627 0.08519 0.60639 0.0
C407 C 0.85213 0.14983 0.65555 0.0
loop_
_geom_bond_atom_site_label_1
_geom_bond_atom_site_label_2
_geom_bond_distance
_geom_bond_site_symmetry_2
_ccdc_geom_bond_type
C0 O2 1.247 . S
C0 O4 1.258 . S
C1 O8 1.247 . S
C1 O9 1.258 . S
O2 C0 1.247 . S
O2 Zn3 2.028 . S
Zn3 O2 2.028 . S
Zn3 O7 2.035 . S
Zn3 O9 2.035 . S
Zn3 O10 2.028 . S
O4 C0 1.258 . S
O4 Zn5 2.035 . S
Zn5 O4 2.035 . S
Zn5 O6 2.028 . S
Zn5 O8 2.028 . S
Zn5 O11 2.035 . S
O6 Zn5 2.028 . S
O6 C12 1.247 . S
O7 Zn3 2.035 . S
O7 C12 1.258 . S
O8 C1 1.247 . S
O8 Zn5 2.028 . S
O9 C1 1.258 . S
O9 Zn3 2.035 . S
O10 Zn3 2.028 . S
O10 C13 1.247 . S
O11 Zn5 2.035 . S
O11 C13 1.258 . S
C12 O6 1.247 . S
C12 O7 1.258 . S
C13 O10 1.247 . S
C13 O11 1.258 . S
C14 O16 1.247 . S
C14 O18 1.258 . S
C15 O22 1.247 . S
C15 O23 1.258 . S
O16 C14 1.247 . S
O16 Zn17 2.028 . S
Zn17 O16 2.028 . S
Zn17 O21 2.035 . S
Zn17 O23 2.035 . S
Zn17 O24 2.028 . S
O18 C14 1.258 . S
O18 Zn19 2.035 . S
Zn19 O18 2.035 . S
Zn19 O20 2.028 . S
Zn19 O22 2.028 . S
Zn19 O25 2.035 . S
O20 Zn19 2.028 . S
O20 C26 1.247 . S
O21 Zn17 2.035 . S
O21 C26 1.258 . S
O22 C15 1.247 . S
O22 Zn19 2.028 . S
O23 C15 1.258 . S
O23 Zn17 2.035 . S
O24 Zn17 2.028 . S
O24 C27 1.247 . S
O25 Zn19 2.035 . S
O25 C27 1.258 . S
C26 O20 1.247 . S
C26 O21 1.258 . S
C27 O24 1.247 . S
C27 O25 1.258 . S
C28 O30 1.247 . S
C28 O32 1.258 . S
C29 O36 1.247 . S
C29 O37 1.258 . S
O30 C28 1.247 . S
O30 Zn31 2.028 . S
Zn31 O30 2.028 . S
Zn31 O35 2.035 . S
Zn31 O37 2.035 . S
Zn31 O38 2.028 . S
O32 C28 1.258 . S
O32 Zn33 2.035 . S
Zn33 O32 2.035 . S
Zn33 O34 2.028 . S
Zn33 O36 2.028 . S
Zn33 O39 2.035 . S
O34 Zn33 2.028 . S
O34 C40 1.247 . S
O35 Zn31 2.035 . S
O35 C40 1.258 . S
O36 C29 1.247 . S
O36 Zn33 2.028 . S
O37 C29 1.258 . S
O37 Zn31 2.035 . S
O38 Zn31 2.028 . S
O38 C41 1.247 . S
O39 Zn33 2.035 . S
O39 C41 1.258 . S
C40 O34 1.247 . S
C40 O35 1.258 . S
C41 O38 1.247 . S
C41 O39 1.258 . S
C42 O44 1.247 . S
C42 O46 1.258 . S
C43 O50 1.247 . S
C43 O51 1.258 . S
O44 C42 1.247 . S
O44 Zn45 2.028 . S
Zn45 O44 2.028 . S
Zn45 O49 2.035 . S
Zn45 O51 2.035 . S
Zn45 O52 2.028 . S
O46 C42 1.258 . S
O46 Zn47 2.035 . S
Zn47 O46 2.035 . S
Zn47 O48 2.028 . S
Zn47 O50 2.028 . S
Zn47 O53 2.035 . S
O48 Zn47 2.028 . S
O48 C54 1.247 . S
O49 Zn45 2.035 . S
O49 C54 1.258 . S
O50 C43 1.247 . S
O50 Zn47 2.028 . S
O51 C43 1.258 . S
O51 Zn45 2.035 . S
O52 Zn45 2.028 . S
O52 C55 1.247 . S
O53 Zn47 2.035 . S
O53 C55 1.258 . S
C54 O48 1.247 . S
C54 O49 1.258 . S
C55 O52 1.247 . S
C55 O53 1.258 . S
C56 O58 1.247 . S
C56 O60 1.258 . S
C57 O64 1.247 . S
C57 O65 1.258 . S
O58 C56 1.247 . S
O58 Zn59 2.028 . S
Zn59 O58 2.028 . S
Zn59 O63 2.035 . S
Zn59 O65 2.035 . S
Zn59 O66 2.028 . S
O60 C56 1.258 . S
O60 Zn61 2.035 . S
Zn61 O60 2.035 . S
Zn61 O62 2.028 . S
Zn61 O64 2.028 . S
Zn61 O67 2.035 . S
O62 Zn61 2.028 . S
O62 C68 1.247 . S
O63 Zn59 2.035 . S
O63 C68 1.258 . S
O64 C57 1.247 . S
O64 Zn61 2.028 . S
O65 C57 1.258 . S
O65 Zn59 2.035 . S
O66 Zn59 2.028 . S
O66 C69 1.247 . S
O67 Zn61 2.035 . S
O67 C69 1.258 . S
C68 O62 1.247 . S
C68 O63 1.258 . S
C69 O66 1.247 . S
C69 O67 1.258 . S
C70 O72 1.247 . S
C70 O74 1.258 . S
C71 O78 1.247 . S
C71 O79 1.258 . S
O72 C70 1.247 . S
O72 Zn73 2.028 . S
Zn73 O72 2.028 . S
Zn73 O77 2.035 . S
Zn73 O79 2.035 . S
Zn73 O80 2.028 . S
O74 C70 1.258 . S
O74 Zn75 2.035 . S
Zn75 O74 2.035 . S
Zn75 O76 2.028 . S
Zn75 O78 2.028 . S
Zn75 O81 2.035 . S
O76 Zn75 2.028 . S
O76 C82 1.247 . S
O77 Zn73 2.035 . S
O77 C82 1.258 . S
O78 C71 1.247 . S
O78 Zn75 2.028 . S
O79 C71 1.258 . S
O79 Zn73 2.035 . S
O80 Zn73 2.028 . S
O80 C83 1.247 . S
O81 Zn75 2.035 . S
O81 C83 1.258 . S
C82 O76 1.247 . S
C82 O77 1.258 . S
C83 O80 1.247 . S
C83 O81 1.258 . S
C84 O86 1.247 . S
C84 O88 1.258 . S
C85 O92 1.247 . S
C85 O93 1.258 . S
O86 C84 1.247 . S
O86 Zn87 2.028 . S
Zn87 O86 2.028 . S
Zn87 O91 2.035 . S
Zn87 O93 2.035 . S
Zn87 O94 2.028 . S
O88 C84 1.258 . S
O88 Zn89 2.035 . S
Zn89 O88 2.035 . S
Zn89 O90 2.028 . S
Zn89 O92 2.028 . S
Zn89 O95 2.035 . S
O90 Zn89 2.028 . S
O90 C96 1.247 . S
O91 Zn87 2.035 . S
O91 C96 1.258 . S
O92 C85 1.247 . S
O92 Zn89 2.028 . S
O93 C85 1.258 . S
O93 Zn87 2.035 . S
O94 Zn87 2.028 . S
O94 C97 1.247 . S
O95 Zn89 2.035 . S
O95 C97 1.258 . S
C96 O90 1.247 . S
C96 O91 1.258 . S
C97 O94 1.247 . S
C97 O95 1.258 . S
C98 O100 1.247 . S
C98 O102 1.258 . S
C99 O106 1.247 . S
C99 O107 1.258 . S
O100 C98 1.247 . S
O100 Zn101 2.028 . S
Zn101 O100 2.028 . S
Zn101 O105 2.035 . S
Zn101 O107 2.035 . S
Zn101 O108 2.028 . S
O102 C98 1.258 . S
O102 Zn103 2.035 . S
Zn103 O102 2.035 . S
Zn103 O104 2.028 . S
Zn103 O106 2.028 . S
Zn103 O109 2.035 . S
O104 Zn103 2.028 . S
O104 C110 1.247 . S
O105 Zn101 2.035 . S
O105 C110 1.258 . S
O106 C99 1.247 . S
O106 Zn103 2.028 . S
O107 C99 1.258 . S
O107 Zn101 2.035 . S
O108 Zn101 2.028 . S
O108 C111 1.247 . S
O109 Zn103 2.035 . S
O109 C111 1.258 . S
C110 O104 1.247 . S
C110 O105 1.258 . S
C111 O108 1.247 . S
C111 O109 1.258 . S
C112 O114 1.247 . S
C112 O116 1.258 . S
C113 O120 1.247 . S
C113 O121 1.258 . S
O114 C112 1.247 . S
O114 Zn115 2.028 . S
Zn115 O114 2.028 . S
Zn115 O119 2.035 . S
Zn115 O121 2.035 . S
Zn115 O122 2.028 . S
O116 C112 1.258 . S
O116 Zn117 2.035 . S
Zn117 O116 2.035 . S
Zn117 O118 2.028 . S
Zn117 O120 2.028 . S
Zn117 O123 2.035 . S
O118 Zn117 2.028 . S
O118 C124 1.247 . S
O119 Zn115 2.035 . S
O119 C124 1.258 . S
O120 C113 1.247 . S
O120 Zn117 2.028 . S
O121 C113 1.258 . S
O121 Zn115 2.035 . S
O122 Zn115 2.028 . S
O122 C125 1.247 . S
O123 Zn117 2.035 . S
O123 C125 1.258 . S
C124 O118 1.247 . S
C124 O119 1.258 . S
C125 O122 1.247 . S
C125 O123 1.258 . S
C126 O128 1.247 . S
C126 O130 1.258 . S
C127 O134 1.247 . S
C127 O135 1.258 . S
O128 C126 1.247 . S
O128 Zn129 2.028 . S
Zn129 O128 2.028 . S
Zn129 O133 2.035 . S
Zn129 O135 2.035 . S
Zn129 O136 2.028 . S
O130 C126 1.258 . S
O130 Zn131 2.035 . S
Zn131 O130 2.035 . S
Zn131 O132 2.028 . S
Zn131 O134 2.028 . S
Zn131 O137 2.035 . S
O132 Zn131 2.028 . S
O132 C138 1.247 . S
O133 Zn129 2.035 . S
O133 C138 1.258 . S
O134 C127 1.247 . S
O134 Zn131 2.028 . S
O135 C127 1.258 . S
O135 Zn129 2.035 . S
O136 Zn129 2.028 . S
O136 C139 1.247 . S
O137 Zn131 2.035 . S
O137 C139 1.258 . S
C138 O132 1.247 . S
C138 O133 1.258 . S
C139 O136 1.247 . S
C139 O137 1.258 . S
C140 O142 1.247 . S
C140 O144 1.258 . S
C141 O148 1.247 . S
C141 O149 1.258 . S
O142 C140 1.247 . S
O142 Zn143 2.028 . S
Zn143 O142 2.028 . S
Zn143 O147 2.035 . S
Zn143 O149 2.035 . S
Zn143 O150 2.028 . S
O144 C140 1.258 . S
O144 Zn145 2.035 . S
Zn145 O144 2.035 . S
Zn145 O146 2.028 . S
Zn145 O148 2.028 . S
Zn145 O151 2.035 . S
O146 Zn145 2.028 . S
O146 C152 1.247 . S
O147 Zn143 2.035 . S
O147 C152 1.258 . S
O148 C141 1.247 . S
O148 Zn145 2.028 . S
O149 C141 1.258 . S
O149 Zn143 2.035 . S
O150 Zn143 2.028 . S
O150 C153 1.247 . S
O151 Zn145 2.035 . S
O151 C153 1.258 . S
C152 O146 1.247 . S
C152 O147 1.258 . S
C153 O150 1.247 . S
C153 O151 1.258 . S
C154 O156 1.247 . S
C154 O158 1.258 . S
C155 O162 1.247 . S
C155 O163 1.258 . S
O156 C154 1.247 . S
O156 Zn157 2.028 . S
Zn157 O156 2.028 . S
Zn157 O161 2.035 . S
Zn157 O163 2.035 . S
Zn157 O164 2.028 . S
O158 C154 1.258 . S
O158 Zn159 2.035 . S
Zn159 O158 2.035 . S
Zn159 O160 2.028 . S
Zn159 O162 2.028 . S
Zn159 O165 2.035 . S
O160 Zn159 2.028 . S
O160 C166 1.247 . S
O161 Zn157 2.035 . S
O161 C166 1.258 . S
O162 C155 1.247 . S
O162 Zn159 2.028 . S
O163 C155 1.258 . S
O163 Zn157 2.035 . S
O164 Zn157 2.028 . S
O164 C167 1.247 . S
O165 Zn159 2.035 . S
O165 C167 1.258 . S
C166 O160 1.247 . S
C166 O161 1.258 . S
C167 O164 1.247 . S
C167 O165 1.258 . S
C168 C169 1.387 . S
C168 H172 0.950 . S
C168 C177 1.390 . S
C169 C168 1.387 . S
C169 C171 1.387 . S
H170 C177 0.950 . S
C171 C169 1.387 . S
C171 C173 1.390 . S
C171 H175 0.950 . S
H172 C168 0.950 . S
C173 C171 1.390 . S
C173 C174 1.387 . S
C173 H176 0.950 . S
C174 C173 1.387 . S
C174 C177 1.387 . S
H175 C171 0.950 . S
H176 C173 0.950 . S
C177 C168 1.390 . S
C177 H170 0.950 . S
C177 C174 1.387 . S
C178 C179 1.387 . S
C178 H182 0.950 . S
C178 C187 1.390 . S
C179 C178 1.387 . S
C179 C181 1.387 . S
H180 C187 0.950 . S
C181 C179 1.387 . S
C181 C183 1.390 . S
C181 H185 0.950 . S
H182 C178 0.950 . S
C183 C181 1.390 . S
C183 C184 1.387 . S
C183 H186 0.950 . S
C184 C183 1.387 . S
C184 C187 1.387 . S
H185 C181 0.950 . S
H186 C183 0.950 . S
C187 C178 1.390 . S
C187 H180 0.950 . S
C187 C184 1.387 . S
C188 C189 1.387 . S
C188 H192 0.950 . S
C188 C197 1.390 . S
C189 C188 1.387 . S
C189 C191 1.387 . S
H190 C197 0.950 . S
C191 C189 1.387 . S
C191 C193 1.390 . S
C191 H195 0.950 . S
H192 C188 0.950 . S
C193 C191 1.390 . S
C193 C194 1.387 . S
C193 H196 0.950 . S
C194 C193 1.387 . S
C194 C197 1.387 . S
H195 C191 0.950 . S
H196 C193 0.950 . S
C197 C188 1.390 . S
C197 H190 0.950 . S
C197 C194 1.387 . S
C198 C199 1.387 . S
C198 H202 0.950 . S
C198 C207 1.390 . S
C199 C198 1.387 . S
C199 C201 1.387 . S
H200 C207 0.950 . S
C201 C199 1.387 . S
C201 C203 1.390 . S
C201 H205 0.950 . S
H202 C198 0.950 . S
C203 C201 1.390 . S
C203 C204 1.387 . S
C203 H206 0.950 . S
C204 C203 1.387 . S
C204 C207 1.387 . S
H205 C201 0.950 . S
H206 C203 0.950 . S
C207 C198 1.390 . S
C207 H200 0.950 . S
C207 C204 1.387 . S
C208 C209 1.387 . S
C208 H212 0.950 . S
C208 C217 1.390 . S
C209 C208 1.387 . S
C209 C211 1.387 . S
H210 C217 0.950 . S
C211 C209 1.387 . S
C211 C213 1.390 . S
C211 H215 0.950 . S
H212 C208 0.950 . S
C213 C211 1.390 . S
C213 C214 1.387 . S
C213 H216 0.950 . S
C214 C213 1.387 . S
C214 C217 1.387 . S
H215 C211 0.950 . S
H216 C213 0.950 . S
C217 C208 1.390 . S
C217 H210 0.950 . S
C217 C214 1.387 . S
C218 C219 1.387 . S
C218 H222 0.950 . S
C218 C227 1.390 . S
C219 C218 1.387 . S
C219 C221 1.387 . S
H220 C227 0.950 . S
C221 C219 1.387 . S
C221 C223 1.390 . S
C221 H225 0.950 . S
H222 C218 0.950 . S
C223 C221 1.390 . S
C223 C224 1.387 . S
C223 H226 0.950 . S
C224 C223 1.387 . S
C224 C227 1.387 . S
H225 C221 0.950 . S
H226 C223 0.950 . S
C227 C218 1.390 . S
C227 H220 0.950 . S
C227 C224 1.387 . S
C228 C229 1.387 . S
C228 H232 0.950 . S
C228 C237 1.390 . S
C229 C228 1.387 . S
C229 C231 1.387 . S
H230 C237 0.950 . S
C231 C229 1.387 . S
C231 C233 1.390 . S
C231 H235 0.950 . S
H232 C228 0.950 . S
C233 C231 1.390 . S
C233 C234 1.387 . S
C233 H236 0.950 . S
C234 C233 1.387 . S
C234 C237 1.387 . S
H235 C231 0.950 . S
H236 C233 0.950 . S
C237 C228 1.390 . S
C237 H230 0.950 . S
C237 C234 1.387 . S
C238 C239 1.387 . S
C238 H242 0.950 . S
C238 C247 1.390 1_655 S
C239 C238 1.387 . S
C239 C241 1.387 . S
H240 C247 0.950 . S
C241 C239 1.387 . S
C241 C243 1.390 1_655 S
C241 H245 0.950 . S
H242 C238 0.950 . S
C243 C241 1.390 1_455 S
C243 C244 1.387 . S
C243 H246 0.950 . S
C244 C243 1.387 . S
C244 C247 1.387 . S
H245 C241 0.950 . S
H246 C243 0.950 . S
C247 C238 1.390 1_455 S
C247 H240 0.950 . S
C247 C244 1.387 . S
C248 C249 1.387 . S
C248 H252 0.950 . S
C248 C257 1.390 1_545 S
C249 C248 1.387 . S
C249 C251 1.387 . S
H250 C257 0.950 . S
C251 C249 1.387 . S
C251 C253 1.390 1_545 S
C251 H255 0.950 . S
H252 C248 0.950 . S
C253 C251 1.390 1_565 S
C253 C254 1.387 . S
C253 H256 0.950 . S
C254 C253 1.387 . S
C254 C257 1.387 . S
H255 C251 0.950 . S
H256 C253 0.950 . S
C257 C248 1.390 1_565 S
C257 H250 0.950 . S
C257 C254 1.387 . S
C258 C259 1.387 . S
C258 H262 0.950 . S
C258 C267 1.390 . S
C259 C258 1.387 . S
C259 C261 1.387 . S
H260 C267 0.950 . S
C261 C259 1.387 . S
C261 C263 1.390 . S
C261 H265 0.950 . S
H262 C258 0.950 . S
C263 C261 1.390 . S
C263 C264 1.387 . S
C263 H266 0.950 . S
C264 C263 1.387 . S
C264 C267 1.387 . S
H265 C261 0.950 . S
H266 C263 0.950 . S
C267 C258 1.390 . S
C267 H260 0.950 . S
C267 C264 1.387 . S
C268 C269 1.387 . S
C268 H272 0.950 . S
C268 C277 1.390 1_655 S
C269 C268 1.387 . S
C269 C271 1.387 . S
H270 C277 0.950 . S
C271 C269 1.387 . S
C271 C273 1.390 1_655 S
C271 H275 0.950 . S
H272 C268 0.950 . S
C273 C271 1.390 1_455 S
C273 C274 1.387 . S
C273 H276 0.950 . S
C274 C273 1.387 . S
C274 C277 1.387 . S
H275 C271 0.950 . S
H276 C273 0.950 . S
C277 C268 1.390 1_455 S
C277 H270 0.950 . S
C277 C274 1.387 . S
C278 C279 1.387 . S
C278 H282 0.950 . S
C278 C287 1.390 1_564 S
C279 C278 1.387 . S
C279 C281 1.387 . S
H280 C287 0.950 . S
C281 C279 1.387 . S
C281 C283 1.390 1_564 S
C281 H285 0.950 . S
H282 C278 0.950 . S
C283 C281 1.390 1_546 S
C283 C284 1.387 . S
C283 H286 0.950 . S
C284 C283 1.387 . S
C284 C287 1.387 . S
H285 C281 0.950 . S
H286 C283 0.950 . S
C287 C278 1.390 1_546 S
C287 H280 0.950 . S
C287 C284 1.387 . S
C288 C289 1.387 . S
C288 H292 0.950 . S
C288 C297 1.390 . S
C289 C288 1.387 . S
C289 C291 1.387 . S
H290 C297 0.950 . S
C291 C289 1.387 . S
C291 C293 1.390 . S
C291 H295 0.950 . S
H292 C288 0.950 . S
C293 C291 1.390 . S
C293 C294 1.387 . S
C293 H296 0.950 1_554 S
C294 C293 1.387 . S
C294 C297 1.387 . S
H295 C291 0.950 . S
H296 C293 0.950 1_556 S
C297 C288 1.390 . S
C297 H290 0.950 . S
C297 C294 1.387 . S
C298 C299 1.387 . S
C298 H302 0.950 . S
C298 C307 1.390 1_655 S
C299 C298 1.387 . S
C299 C301 1.387 . S
H300 C307 0.950 . S
C301 C299 1.387 . S
C301 C303 1.390 . S
C301 H305 0.950 . S
H302 C298 0.950 . S
C303 C301 1.390 . S
C303 C304 1.387 1_655 S
C303 H306 0.950 . S
C304 C303 1.387 1_455 S
C304 C307 1.387 . S
H305 C301 0.950 . S
H306 C303 0.950 . S
C307 C298 1.390 1_455 S
C307 H300 0.950 . S
C307 C304 1.387 . S
C308 C309 1.386 . S
C308 H312 0.959 . S
C308 C317 1.382 1_545 S
C309 C308 1.386 . S
C309 C311 1.387 1_545 S
H310 C317 0.950 . S
C311 C309 1.387 1_565 S
C311 C313 1.390 . S
C311 H315 0.950 . S
H312 C308 0.959 . S
C313 C311 1.390 . S
C313 C314 1.387 . S
C313 H316 0.950 . S
C314 C313 1.387 . S
C314 C317 1.387 . S
H315 C311 0.950 . S
H316 C313 0.950 . S
C317 C308 1.382 1_565 S
C317 H310 0.950 . S
C317 C314 1.387 . S
C318 C319 1.387 . S
C318 H322 0.950 . S
C318 C327 1.390 . S
C319 C318 1.387 . S
C319 C321 1.387 . S
H320 C327 0.950 . S
C321 C319 1.387 . S
C321 C323 1.390 . S
C321 H325 0.950 . S
H322 C318 0.950 . S
C323 C321 1.390 . S
C323 C324 1.387 . S
C323 H326 0.950 . S
C324 C323 1.387 . S
C324 C327 1.387 . S
H325 C321 0.950 . S
H326 C323 0.950 . S
C327 C318 1.390 . S
C327 H320 0.950 . S
C327 C324 1.387 . S
C328 C329 1.387 . S
C328 H332 0.950 . S
C328 C337 1.390 1_455 S
C329 C328 1.387 . S
C329 C331 1.387 . S
H330 C337 0.950 . S
C331 C329 1.387 . S
C331 C333 1.390 . S
C331 H335 0.950 . S
H332 C328 0.950 . S
C333 C331 1.390 . S
C333 C334 1.387 1_455 S
C333 H336 0.950 . S
C334 C333 1.387 1_655 S
C334 C337 1.387 . S
H335 C331 0.950 . S
H336 C333 0.950 . S
C337 C328 1.390 1_655 S
C337 H330 0.950 . S
C337 C334 1.387 . S
C338 C339 1.387 . S
C338 H342 0.950 . S
C338 C347 1.390 1_545 S
C339 C338 1.387 . S
C339 C341 1.387 . S
H340 C347 0.950 . S
C341 C339 1.387 . S
C341 C343 1.390 . S
C341 H345 0.950 . S
H342 C338 0.950 . S
C343 C341 1.390 . S
C343 C344 1.387 1_545 S
C343 H346 0.950 . S
C344 C343 1.387 1_565 S
C344 C347 1.387 . S
H345 C341 0.950 . S
H346 C343 0.950 . S
C347 C338 1.390 1_565 S
C347 H340 0.950 . S
C347 C344 1.387 . S
C348 C349 1.387 . S
C348 H352 0.950 . S
C348 C357 1.390 . S
C349 C348 1.387 . S
C349 C351 1.387 . S
H350 C357 0.950 . S
C351 C349 1.387 . S
C351 C353 1.390 . S
C351 H355 0.950 . S
H352 C348 0.950 . S
C353 C351 1.390 . S
C353 C354 1.387 . S
C353 H356 0.950 . S
C354 C353 1.387 . S
C354 C357 1.387 . S
H355 C351 0.950 . S
H356 C353 0.950 . S
C357 C348 1.390 . S
C357 H350 0.950 . S
C357 C354 1.387 . S
C358 C359 1.387 . S
C358 H362 0.950 . S
C358 C367 1.390 1_655 S
C359 C358 1.387 . S
C359 C361 1.387 . S
H360 C367 0.950 . S
C361 C359 1.387 . S
C361 C363 1.411 . S
C361 H365 0.950 . S
H362 C358 0.950 . S
C363 C361 1.411 . S
C363 C364 1.399 1_655 S
C363 H366 0.917 1_556 S
C364 C363 1.399 1_455 S
C364 C367 1.387 . S
H365 C361 0.950 . S
H366 C363 0.917 1_554 S
C367 C358 1.390 1_455 S
C367 H360 0.950 . S
C367 C364 1.387 . S
C368 C369 1.387 . S
C368 H372 0.950 . S
C368 C377 1.390 . S
C369 C368 1.387 . S
C369 C371 1.387 . S
H370 C377 0.950 . S
C371 C369 1.387 . S
C371 C373 1.390 1_565 S
C371 H375 0.950 . S
H372 C368 0.950 . S
C373 C371 1.390 1_545 S
C373 C374 1.387 . S
C373 H376 0.950 . S
C374 C373 1.387 . S
C374 C377 1.387 1_545 S
H375 C371 0.950 . S
H376 C373 0.950 . S
C377 C368 1.390 . S
C377 H370 0.950 . S
C377 C374 1.387 1_565 S
C378 C379 1.387 . S
C378 H382 0.950 . S
C378 C387 1.390 . S
C379 C378 1.387 . S
C379 C381 1.387 . S
H380 C387 0.950 . S
C381 C379 1.387 . S
C381 C383 1.390 . S
C381 H385 0.950 . S
H382 C378 0.950 . S
C383 C381 1.390 . S
C383 C384 1.387 . S
C383 H386 0.950 . S
C384 C383 1.387 . S
C384 C387 1.387 . S
H385 C381 0.950 . S
H386 C383 0.950 . S
C387 C378 1.390 . S
C387 H380 0.950 . S
C387 C384 1.387 . S
C388 C389 1.387 . S
C388 H392 0.950 . S
C388 C397 1.390 1_455 S
C389 C388 1.387 . S
C389 C391 1.387 . S
H390 C397 0.950 . S
C391 C389 1.387 . S
C391 C393 1.390 . S
C391 H395 0.950 . S
H392 C388 0.950 . S
C393 C391 1.390 . S
C393 C394 1.387 1_455 S
C393 H396 0.950 . S
C394 C393 1.387 1_655 S
C394 C397 1.387 . S
H395 C391 0.950 . S
H396 C393 0.950 . S
C397 C388 1.390 1_655 S
C397 H390 0.950 . S
C397 C394 1.387 . S
C398 C399 1.387 1_545 S
C398 H402 0.950 . S
C398 C407 1.390 . S
C399 C398 1.387 1_565 S
C399 C401 1.387 . S
H400 C407 0.950 . S
C401 C399 1.387 . S
C401 C403 1.390 1_565 S
C401 H405 0.950 . S
H402 C398 0.950 . S
C403 C401 1.390 1_545 S
C403 C404 1.387 . S
C403 H406 0.950 . S
C404 C403 1.387 . S
C404 C407 1.387 . S
H405 C401 0.950 . S
H406 C403 0.950 . S
C407 C398 1.390 . S
C407 H400 0.950 . S
C407 C404 1.387 . S
C169 C113 1.620 . S
C174 C12 1.621 . S
C179 C15 1.620 . S
C184 C139 1.620 . S
C189 C29 1.618 . S
C194 C140 1.622 . S
C199 C54 1.623 . S
C204 C154 1.621 . S
C209 C85 1.619 . S
C214 C57 1.619 . S
C219 C83 1.618 . S
C224 C110 1.622 . S
C229 C138 1.441 . S
C234 C13 1.440 . S
C239 C14 1.444 . S
C244 C141 1.442 . S
C249 C155 1.442 . S
C254 C28 1.444 . S
C259 C55 1.440 . S
C264 C84 1.443 . S
C269 C111 1.442 . S
C274 C56 1.444 . S
C279 C112 1.441 . S
C284 C82 1.441 . S
C289 C0 1.894 . S
C294 C70 1.856 1_554 S
C299 C27 1.894 . S
C304 C1 1.854 . S
C309 C26 1.857 . S
C314 C41 1.894 . S
C319 C42 1.895 . S
C324 C40 1.855 . S
C329 C69 1.894 . S
C334 C43 1.854 . S
C339 C71 1.893 . S
C344 C68 1.856 . S
C349 C97 1.894 . S
C354 C99 1.853 . S
C359 C98 1.895 . S
C364 C124 1.855 1_556 S
C369 C125 1.893 . S
C374 C126 1.857 . S
C379 C127 1.894 . S
C384 C153 1.854 . S
C389 C152 1.894 . S
C394 C167 1.853 . S
C399 C96 1.857 . S
C404 C166 1.894 . S
