# Generated by pormake.
# Topology pbp, (3)-cn, num edge types: 1
# Building blocks:
#     Node 0, Type 0, BuildingBlock: OLANEW_clean_sbu_2, # of connection points: 3
#     Node 1, Type 0, BuildingBlock: OLANEW_clean_sbu_2, # of connection points: 3
#     Node 2, Type 0, BuildingBlock: OLANEW_clean_sbu_2, # of connection points: 3
#     Node 3, Type 0, BuildingBlock: OLANEW_clean_sbu_2, # of connection points: 3
#     Node 4, Type 0, BuildingBlock: OLANEW_clean_sbu_2, # of connection points: 3
#     Node 5, Type 0, BuildingBlock: OLANEW_clean_sbu_2, # of connection points: 3
#     Node 6, Type 0, BuildingBlock: OLANEW_clean_sbu_2, # of connection points: 3
#     Node 7, Type 0, BuildingBlock: OLANEW_clean_sbu_2, # of connection points: 3
#     Node 8, Type 0, BuildingBlock: OLANEW_clean_sbu_2, # of connection points: 3
#     Node 9, Type 0, BuildingBlock: OLANEW_clean_sbu_2, # of connection points: 3
#     Node 10, Type 0, BuildingBlock: OLANEW_clean_sbu_2, # of connection points: 3
#     Node 11, Type 0, BuildingBlock: OLANEW_clean_sbu_2, # of connection points: 3
#     Node 12, Type 0, BuildingBlock: OLANEW_clean_sbu_2, # of connection points: 3
#     Node 13, Type 0, BuildingBlock: OLANEW_clean_sbu_2, # of connection points: 3
#     Node 14, Type 0, BuildingBlock: OLANEW_clean_sbu_2, # of connection points: 3
#     Node 15, Type 0, BuildingBlock: OLANEW_clean_sbu_2, # of connection points: 3
#     Node 16, Type 0, BuildingBlock: OLANEW_clean_sbu_2, # of connection points: 3
#     Node 17, Type 0, BuildingBlock: OLANEW_clean_sbu_2, # of connection points: 3
#     Node 18, Type 0, BuildingBlock: OLANEW_clean_sbu_2, # of connection points: 3
#     Node 19, Type 0, BuildingBlock: OLANEW_clean_sbu_2, # of connection points: 3
#     Node 20, Type 0, BuildingBlock: OLANEW_clean_sbu_2, # of connection points: 3
#     Node 21, Type 0, BuildingBlock: OLANEW_clean_sbu_2, # of connection points: 3
#     Node 22, Type 0, BuildingBlock: OLANEW_clean_sbu_2, # of connection points: 3
#     Node 23, Type 0, BuildingBlock: OLANEW_clean_sbu_2, # of connection points: 3
#     Node 24, Type 0, BuildingBlock: OLANEW_clean_sbu_2, # of connection points: 3
#     Node 25, Type 0, BuildingBlock: OLANEW_clean_sbu_2, # of connection points: 3
#     Node 26, Type 0, BuildingBlock: OLANEW_clean_sbu_2, # of connection points: 3
#     Node 27, Type 0, BuildingBlock: OLANEW_clean_sbu_2, # of connection points: 3
#     Node 28, Type 0, BuildingBlock: OLANEW_clean_sbu_2, # of connection points: 3
#     Node 29, Type 0, BuildingBlock: OLANEW_clean_sbu_2, # of connection points: 3
#     Node 30, Type 0, BuildingBlock: OLANEW_clean_sbu_2, # of connection points: 3
#     Node 31, Type 0, BuildingBlock: OLANEW_clean_sbu_2, # of connection points: 3
#     Node 32, Type 0, BuildingBlock: OLANEW_clean_sbu_2, # of connection points: 3
#     Node 33, Type 0, BuildingBlock: OLANEW_clean_sbu_2, # of connection points: 3
#     Node 34, Type 0, BuildingBlock: OLANEW_clean_sbu_2, # of connection points: 3
#     Node 35, Type 0, BuildingBlock: OLANEW_clean_sbu_2, # of connection points: 3
#     Node 36, Type 0, BuildingBlock: OLANEW_clean_sbu_2, # of connection points: 3
#     Node 37, Type 0, BuildingBlock: OLANEW_clean_sbu_2, # of connection points: 3
#     Node 38, Type 0, BuildingBlock: OLANEW_clean_sbu_2, # of connection points: 3
#     Node 39, Type 0, BuildingBlock: OLANEW_clean_sbu_2, # of connection points: 3
#     Node 40, Type 0, BuildingBlock: OLANEW_clean_sbu_2, # of connection points: 3
#     Node 41, Type 0, BuildingBlock: OLANEW_clean_sbu_2, # of connection points: 3
#     Node 42, Type 0, BuildingBlock: OLANEW_clean_sbu_2, # of connection points: 3
#     Node 43, Type 0, BuildingBlock: OLANEW_clean_sbu_2, # of connection points: 3
#     Node 44, Type 0, BuildingBlock: OLANEW_clean_sbu_2, # of connection points: 3
#     Node 45, Type 0, BuildingBlock: OLANEW_clean_sbu_2, # of connection points: 3
#     Node 46, Type 0, BuildingBlock: OLANEW_clean_sbu_2, # of connection points: 3
#     Node 47, Type 0, BuildingBlock: OLANEW_clean_sbu_2, # of connection points: 3
#     Edge 48, Type (0, 0), None
#     Edge 49, Type (0, 0), None
#     Edge 50, Type (0, 0), None
#     Edge 51, Type (0, 0), None
#     Edge 52, Type (0, 0), None
#     Edge 53, Type (0, 0), None
#     Edge 54, Type (0, 0), None
#     Edge 55, Type (0, 0), None
#     Edge 56, Type (0, 0), None
#     Edge 57, Type (0, 0), None
#     Edge 58, Type (0, 0), None
#     Edge 59, Type (0, 0), None
#     Edge 60, Type (0, 0), None
#     Edge 61, Type (0, 0), None
#     Edge 62, Type (0, 0), None
#     Edge 63, Type (0, 0), None
#     Edge 64, Type (0, 0), None
#     Edge 65, Type (0, 0), None
#     Edge 66, Type (0, 0), None
#     Edge 67, Type (0, 0), None
#     Edge 68, Type (0, 0), None
#     Edge 69, Type (0, 0), None
#     Edge 70, Type (0, 0), None
#     Edge 71, Type (0, 0), None
#     Edge 72, Type (0, 0), None
#     Edge 73, Type (0, 0), None
#     Edge 74, Type (0, 0), None
#     Edge 75, Type (0, 0), None
#     Edge 76, Type (0, 0), None
#     Edge 77, Type (0, 0), None
#     Edge 78, Type (0, 0), None
#     Edge 79, Type (0, 0), None
#     Edge 80, Type (0, 0), None
#     Edge 81, Type (0, 0), None
#     Edge 82, Type (0, 0), None
#     Edge 83, Type (0, 0), None
#     Edge 84, Type (0, 0), None
#     Edge 85, Type (0, 0), None
#     Edge 86, Type (0, 0), None
#     Edge 87, Type (0, 0), None
#     Edge 88, Type (0, 0), None
#     Edge 89, Type (0, 0), None
#     Edge 90, Type (0, 0), None
#     Edge 91, Type (0, 0), None
#     Edge 92, Type (0, 0), None
#     Edge 93, Type (0, 0), None
#     Edge 94, Type (0, 0), None
#     Edge 95, Type (0, 0), None
#     Edge 96, Type (0, 0), None
#     Edge 97, Type (0, 0), None
#     Edge 98, Type (0, 0), None
#     Edge 99, Type (0, 0), None
#     Edge 100, Type (0, 0), None
#     Edge 101, Type (0, 0), None
#     Edge 102, Type (0, 0), None
#     Edge 103, Type (0, 0), None
#     Edge 104, Type (0, 0), None
#     Edge 105, Type (0, 0), None
#     Edge 106, Type (0, 0), None
#     Edge 107, Type (0, 0), None
#     Edge 108, Type (0, 0), None
#     Edge 109, Type (0, 0), None
#     Edge 110, Type (0, 0), None
#     Edge 111, Type (0, 0), None
#     Edge 112, Type (0, 0), None
#     Edge 113, Type (0, 0), None
#     Edge 114, Type (0, 0), None
#     Edge 115, Type (0, 0), None
#     Edge 116, Type (0, 0), None
#     Edge 117, Type (0, 0), None
#     Edge 118, Type (0, 0), None
#     Edge 119, Type (0, 0), None
# Relax obj value: 0.016
# Max RMSD: 0.081
# Mean RMSD: 0.057
data_MOF--net-pbp--node1-OLANEW_clean_sbu_2--edge1-none
_symmetry_space_group_name_H-M    P1
_symmetry_Int_Tables_number       1
_symmetry_cell_setting            triclinic
loop_
_symmetry_equiv_pos_as_xyz
'x, y, z'
_cell_length_a     41.762943
_cell_length_b     41.730208
_cell_length_c     41.54244
_cell_angle_alpha  89.982683
_cell_angle_beta   89.840206
_cell_angle_gamma 98.824398
loop_
_atom_site_label
_atom_site_type_symbol
_atom_site_fract_x
_atom_site_fract_y
_atom_site_fract_z
_atom_type_partial_charge
O0 O 0.08948 0.29681 0.20077 0.0
Cd1 Cd 0.03302 0.27093 0.20147 0.0
O2 O 0.09622 0.26487 0.24136 0.0
Cd3 Cd 0.1266 0.24783 0.27859 0.0
O4 O 0.16893 0.24451 0.30845 0.0
C5 C 0.1963 0.24665 0.29453 0.0
O6 O 0.198 0.24937 0.26305 0.0
C7 C 0.10766 0.28766 0.22227 0.0
C8 C 0.00293 0.29112 0.25612 0.0
O9 O 1.00111 0.30554 0.2291 0.0
O10 O 0.01841 0.26693 0.25727 0.0
O11 O 0.80417 0.10674 0.24074 0.0
Cd12 Cd 0.78534 0.07536 0.19274 0.0
O13 O 0.75668 0.12272 0.24004 0.0
Cd14 Cd 0.72133 0.15333 0.25463 0.0
O15 O 0.68372 0.18315 0.26308 0.0
C16 C 0.68845 0.21283 0.25491 0.0
O17 O 0.71625 0.22544 0.24194 0.0
C18 C 0.78485 0.12464 0.25207 0.0
C19 C 0.76932 0.00841 0.19841 0.0
O20 O 0.79819 0.02139 0.19089 0.0
O21 O 0.74831 0.02701 0.20443 0.0
O22 O 0.84384 0.67775 0.26353 0.0
Cd23 Cd 0.87118 0.70834 0.3084 0.0
O24 O 0.79385 0.68814 0.26988 0.0
Cd25 Cd 0.80212 0.71926 0.31205 0.0
O26 O 0.79526 0.75753 0.34601 0.0
C27 C 0.7917 0.75193 0.37594 0.0
O28 O 0.79308 0.72271 0.38705 0.0
C29 C 0.81443 0.67442 0.25464 0.0
C30 C 0.92986 0.74204 0.2857 0.0
O31 O 0.9271 0.71199 0.29326 0.0
O32 O 0.90524 0.75656 0.2895 0.0
O33 O 0.34468 0.87995 0.25935 0.0
Cd34 Cd 0.35173 0.91313 0.30796 0.0
O35 O 0.30398 0.85479 0.28717 0.0
Cd36 Cd 0.26235 0.81855 0.30033 0.0
O37 O 0.22759 0.78706 0.33051 0.0
C38 C 0.23882 0.77519 0.35549 0.0
O39 O 0.26999 0.78182 0.36146 0.0
C40 C 0.32081 0.85718 0.26147 0.0
C41 C 0.31643 0.96447 0.30614 0.0
O42 O 0.34716 0.96939 0.30175 0.0
O43 O 0.30233 0.93545 0.31127 0.0
O44 O 0.0325 0.80419 0.72326 0.0
Cd45 Cd 0.98973 0.8002 0.76404 0.0
O46 O 0.05642 0.77515 0.75692 0.0
Cd47 Cd 0.09488 0.74752 0.76987 0.0
O48 O 0.13489 0.71963 0.7693 0.0
C49 C 0.16227 0.73238 0.7582 0.0
O50 O 0.16648 0.76258 0.74817 0.0
C51 C 0.05595 0.78921 0.72978 0.0
C52 C 0.93713 0.75503 0.74484 0.0
O53 O 0.93656 0.78546 0.74157 0.0
O54 O 0.96217 0.74594 0.75752 0.0
O55 O 0.32517 0.14411 0.70843 0.0
Cd56 Cd 0.30971 0.11393 0.65912 0.0
O57 O 0.27686 0.15874 0.71288 0.0
Cd58 Cd 0.26563 0.14926 0.66228 0.0
O59 O 0.26876 0.18234 0.62133 0.0
C60 C 0.29575 0.19082 0.60724 0.0
O61 O 0.32069 0.1768 0.61517 0.0
C62 C 0.30476 0.15738 0.72442 0.0
C63 C 0.29971 0.0472 0.66987 0.0
O64 O 0.32694 0.06161 0.65914 0.0
O65 O 0.27724 0.06417 0.6756 0.0
O66 O 0.83783 0.23386 0.65066 0.0
Cd67 Cd 0.86269 0.2726 0.69118 0.0
O68 O 0.8094 0.26881 0.62939 0.0
Cd69 Cd 0.82099 0.30368 0.66868 0.0
O70 O 0.83065 0.33711 0.70944 0.0
C71 C 0.81327 0.33414 0.73477 0.0
O72 O 0.78876 0.31042 0.73693 0.0
C73 C 0.81881 0.24123 0.62895 0.0
C74 C 0.91257 0.25074 0.72525 0.0
O75 O 0.88424 0.24908 0.73764 0.0
O76 O 0.91735 0.26247 0.69684 0.0
O77 O 0.79154 0.88919 0.76332 0.0
Cd78 Cd 0.7754 0.92109 0.80819 0.0
O79 O 0.74121 0.87505 0.74781 0.0
Cd80 Cd 0.70199 0.8496 0.71837 0.0
O81 O 0.6539 0.82466 0.70537 0.0
C82 C 0.64115 0.80418 0.72606 0.0
O83 O 0.65748 0.79975 0.7522 0.0
C84 C 0.77112 0.87319 0.7445 0.0
C85 C 0.80047 0.98677 0.80471 0.0
O86 O 0.81789 0.96611 0.81476 0.0
O87 O 0.77132 0.97651 0.79591 0.0
O88 O 0.27517 0.07896 0.26057 0.0
Cd89 Cd 0.26231 0.04264 0.30641 0.0
O90 O 0.31096 0.10295 0.29454 0.0
Cd91 Cd 0.34812 0.14229 0.3103 0.0
O92 O 0.37021 0.18778 0.33201 0.0
C93 C 0.35311 0.21042 0.3316 0.0
O94 O 0.32462 0.20537 0.31763 0.0
C95 C 0.29799 0.10187 0.26683 0.0
C96 C 0.29783 0.99146 0.30581 0.0
O97 O 0.26786 0.98694 0.29792 0.0
O98 O 0.3111 0.02002 0.31388 0.0
O99 O 0.90898 0.28588 0.35158 0.0
Cd100 Cd 0.95898 0.3226 0.34044 0.0
O101 O 0.88491 0.30889 0.31301 0.0
Cd102 Cd 0.84546 0.31698 0.28064 0.0
O103 O 0.8167 0.34065 0.24631 0.0
C104 C 0.81946 0.3714 0.24735 0.0
O105 O 0.83847 0.38732 0.26902 0.0
C106 C 0.88402 0.28704 0.33449 0.0
C107 C 0.98784 0.30216 0.28515 0.0
O108 O 0.99311 0.2904 0.31278 0.0
O109 O 0.96928 0.32386 0.28352 0.0
O110 O 0.75049 0.87619 0.24084 0.0
Cd111 Cd 0.74086 0.9064 0.19247 0.0
O112 O 0.70066 0.85042 0.23855 0.0
Cd113 Cd 0.65901 0.8148 0.25332 0.0
O114 O 0.61532 0.77829 0.25485 0.0
C115 C 0.59013 0.78177 0.27087 0.0
O116 O 0.58991 0.80798 0.28831 0.0
C117 C 0.72816 0.85512 0.25227 0.0
C118 C 0.75997 0.97308 0.19803 0.0
O119 O 0.73101 0.96009 0.20516 0.0
O120 O 0.78007 0.95464 0.18877 0.0
O121 O 0.06485 0.79221 0.27548 0.0
Cd122 Cd 0.01636 0.79055 0.24223 0.0
O123 O 0.08686 0.77055 0.23444 0.0
Cd124 Cd 0.12558 0.74781 0.21275 0.0
O125 O 0.16813 0.72349 0.20884 0.0
C126 C 0.1721 0.70344 0.23095 0.0
O127 O 0.15045 0.69772 0.25405 0.0
C128 C 0.08876 0.78098 0.26327 0.0
C129 C 0.96009 0.75893 0.2717 0.0
O130 O 0.98054 0.74289 0.25877 0.0
O131 O 0.96617 0.78997 0.27111 0.0
O132 O 0.3075 0.92019 0.72398 0.0
Cd133 Cd 0.28108 0.94463 0.67959 0.0
O134 O 0.28523 0.87483 0.70175 0.0
Cd135 Cd 0.2731 0.82282 0.69312 0.0
O136 O 0.25072 0.77979 0.66698 0.0
C137 C 0.22 0.77341 0.66575 0.0
O138 O 0.20247 0.7919 0.68136 0.0
C139 C 0.30312 0.88938 0.7236 0.0
C140 C 0.29394 0.01193 0.67442 0.0
O141 O 0.26848 0.99803 0.68901 0.0
O142 O 0.31375 0.99423 0.66297 0.0
O143 O 0.03581 0.26017 0.78535 0.0
Cd144 Cd 0.98924 0.21768 0.77663 0.0
O145 O 0.06015 0.2328 0.75041 0.0
Cd146 Cd 0.10065 0.22539 0.71933 0.0
O147 O 0.1412 0.22405 0.68644 0.0
C148 C 0.16868 0.21961 0.697 0.0
O149 O 0.17263 0.21538 0.72798 0.0
C150 C 0.06092 0.25711 0.76902 0.0
C151 C 0.93897 0.23945 0.74306 0.0
O152 O 0.93753 0.23613 0.77373 0.0
O153 O 0.96405 0.23272 0.72829 0.0
O154 O 0.84049 0.11293 0.75288 0.0
Cd155 Cd 0.8376 0.08741 0.80594 0.0
O156 O 0.79308 0.12505 0.7663 0.0
Cd157 Cd 0.74933 0.14677 0.7584 0.0
O158 O 0.70557 0.1691 0.75469 0.0
C159 C 0.7013 0.18787 0.73154 0.0
O160 O 0.7235 0.19401 0.709 0.0
C161 C 0.81602 0.12626 0.74595 0.0
C162 C 0.81334 0.02146 0.80425 0.0
O163 O 0.79423 0.04266 0.80304 0.0
O164 O 0.8439 0.03126 0.80597 0.0
O165 O 0.83441 0.64707 0.74783 0.0
Cd166 Cd 0.86071 0.6859 0.70823 0.0
O167 O 0.79422 0.62703 0.71596 0.0
Cd168 Cd 0.80934 0.66493 0.68041 0.0
O169 O 0.83083 0.7076 0.65299 0.0
C170 C 0.82136 0.73479 0.65733 0.0
O171 O 0.79779 0.73704 0.67779 0.0
C172 C 0.80916 0.62656 0.74254 0.0
C173 C 0.91036 0.73107 0.73318 0.0
O174 O 0.8823 0.73885 0.72808 0.0
O175 O 0.91485 0.70204 0.72694 0.0
O176 O 0.36215 0.26202 0.12265 0.0
Cd177 Cd 0.38295 0.31412 0.09817 0.0
O178 O 0.32673 0.29046 0.14191 0.0
Cd179 Cd 0.28632 0.30174 0.17113 0.0
O180 O 0.26297 0.33166 0.20432 0.0
C181 C 0.2826 0.35219 0.2199 0.0
O182 O 0.31386 0.3534 0.21517 0.0
C183 C 0.3372 0.26349 0.13978 0.0
C184 C 0.34747 0.32142 0.04309 0.0
O185 O 0.37603 0.31397 0.04109 0.0
O186 O 0.33587 0.32605 0.07097 0.0
O187 O 0.35387 0.74319 0.86277 0.0
Cd188 Cd 0.31 0.69918 0.87538 0.0
O189 O 0.33502 0.75646 0.81588 0.0
Cd190 Cd 0.29923 0.71247 0.81276 0.0
O191 O 0.27812 0.6698 0.7851 0.0
C192 C 0.29609 0.64935 0.77644 0.0
O193 O 0.32636 0.65312 0.78609 0.0
C194 C 0.35572 0.76175 0.83834 0.0
C195 C 0.29619 0.69637 0.94128 0.0
O196 O 0.31793 0.68126 0.92938 0.0
O197 O 0.28094 0.71286 0.92223 0.0
O198 O 0.29186 0.27483 0.92812 0.0
Cd199 Cd 0.29135 0.3245 0.95887 0.0
O200 O 0.28256 0.3056 0.88774 0.0
Cd201 Cd 0.27369 0.31709 0.83762 0.0
O202 O 0.26272 0.34081 0.79309 0.0
C203 C 0.23446 0.33674 0.78104 0.0
O204 O 0.21105 0.31695 0.79501 0.0
C205 C 0.28826 0.27839 0.8981 0.0
C206 C 0.32805 0.32347 0.01419 0.0
O207 O 0.29705 0.318 0.01561 0.0
O208 O 0.34172 0.32978 0.98682 0.0
O209 O 0.73064 0.23576 0.897 0.0
Cd210 Cd 0.6948 0.194 0.92678 0.0
O211 O 0.68724 0.24814 0.87364 0.0
Cd212 Cd 0.65862 0.27361 0.84106 0.0
O213 O 0.61772 0.28486 0.81267 0.0
C214 C 0.6175 0.27826 0.78284 0.0
O215 O 0.64235 0.26695 0.77028 0.0
C216 C 0.71791 0.25233 0.8763 0.0
C217 C 0.69815 0.19632 0.99373 0.0
O218 O 0.71755 0.18165 0.9774 0.0
O219 O 0.67783 0.21077 0.97852 0.0
O220 O 0.89127 0.74529 0.86266 0.0
Cd221 Cd 0.90385 0.79593 0.89237 0.0
O222 O 0.84621 0.76287 0.8496 0.0
Cd223 Cd 0.79876 0.75812 0.82639 0.0
O224 O 0.75359 0.75323 0.79931 0.0
C225 C 0.72623 0.74788 0.81333 0.0
O226 O 0.72483 0.74509 0.84481 0.0
C227 C 0.86414 0.74087 0.84832 0.0
C228 C 0.87723 0.78893 0.95387 0.0
O229 O 0.86011 0.79536 0.92985 0.0
O230 O 0.90693 0.786 0.949 0.0
O231 O 0.82756 0.72788 0.07217 0.0
Cd232 Cd 0.83709 0.78202 0.04799 0.0
O233 O 0.77923 0.73814 0.08487 0.0
Cd234 Cd 0.73412 0.72975 0.11251 0.0
O235 O 0.69262 0.72585 0.14501 0.0
C236 C 0.69618 0.72021 0.17473 0.0
O237 O 0.7248 0.71621 0.18561 0.0
C238 C 0.80058 0.71949 0.08631 0.0
C239 C 0.86324 0.78565 0.9863 0.0
O240 O 0.88149 0.7853 0.01101 0.0
O241 O 0.83261 0.78363 0.9906 0.0
O242 O 0.2934 0.72693 0.07875 0.0
Cd243 Cd 0.2698 0.68527 0.0402 0.0
O244 O 0.3103 0.68805 0.10637 0.0
Cd245 Cd 0.33022 0.66784 0.1491 0.0
O246 O 0.33715 0.64409 0.19482 0.0
C247 C 0.31406 0.6425 0.21497 0.0
O248 O 0.28824 0.65532 0.20751 0.0
C249 C 0.30739 0.71779 0.10351 0.0
C250 C 0.28806 0.69384 0.9757 0.0
O251 O 0.26442 0.7066 0.98709 0.0
O252 O 0.30374 0.67786 0.99485 0.0
O253 O 0.72137 0.2315 0.12741 0.0
Cd254 Cd 0.69329 0.18656 0.09557 0.0
O255 O 0.67378 0.23826 0.14623 0.0
Cd256 Cd 0.64041 0.26033 0.17699 0.0
O257 O 0.60358 0.26997 0.21172 0.0
C258 C 0.58142 0.28683 0.20578 0.0
O259 O 0.58014 0.30033 0.17734 0.0
C260 C 0.70437 0.24657 0.14576 0.0
C261 C 0.69769 0.19471 0.02902 0.0
O262 O 0.67559 0.20574 0.04518 0.0
O263 O 0.71819 0.18051 0.04424 0.0
O264 O 0.5895 0.79679 0.7009 0.0
Cd265 Cd 0.53306 0.77088 0.7016 0.0
O266 O 0.59632 0.76477 0.7414 0.0
Cd267 Cd 0.62675 0.74768 0.77855 0.0
O268 O 0.6691 0.74432 0.80838 0.0
C269 C 0.69647 0.74654 0.79445 0.0
O270 O 0.69816 0.74935 0.76298 0.0
C271 C 0.60772 0.78761 0.72235 0.0
C272 C 0.50294 0.79109 0.75622 0.0
O273 O 0.50111 0.80549 0.72918 0.0
O274 O 0.51844 0.76692 0.75739 0.0
O275 O 0.30407 0.60672 0.7408 0.0
Cd276 Cd 0.28523 0.57536 0.6928 0.0
O277 O 0.2566 0.62274 0.74008 0.0
Cd278 Cd 0.22128 0.65339 0.75465 0.0
O279 O 0.18367 0.68323 0.76308 0.0
C280 C 0.1884 0.71289 0.75489 0.0
O281 O 0.2162 0.7255 0.74191 0.0
C282 C 0.28477 0.62464 0.75212 0.0
C283 C 0.26923 0.5084 0.69844 0.0
O284 O 0.29809 0.52139 0.69091 0.0
O285 O 0.24821 0.52699 0.70448 0.0
O286 O 0.34381 0.17769 0.76344 0.0
Cd287 Cd 0.37115 0.20828 0.8083 0.0
O288 O 0.29382 0.18807 0.7698 0.0
Cd289 Cd 0.30208 0.21918 0.81198 0.0
O290 O 0.29519 0.25743 0.84594 0.0
C291 C 0.29159 0.25182 0.87587 0.0
O292 O 0.29295 0.22259 0.88697 0.0
C293 C 0.31439 0.17435 0.75456 0.0
C294 C 0.42984 0.24196 0.78561 0.0
O295 O 0.42707 0.21191 0.79317 0.0
O296 O 0.40522 0.25649 0.7894 0.0
O297 O 0.84459 0.37995 0.75931 0.0
Cd298 Cd 0.85163 0.41311 0.80793 0.0
O299 O 0.80391 0.35476 0.78713 0.0
Cd300 Cd 0.76229 0.3185 0.80029 0.0
O301 O 0.72755 0.28702 0.83049 0.0
C302 C 0.73878 0.27515 0.85546 0.0
O303 O 0.76995 0.2818 0.86144 0.0
C304 C 0.82073 0.35717 0.76143 0.0
C305 C 0.81631 0.46444 0.80612 0.0
O306 O 0.84704 0.46937 0.80174 0.0
O307 O 0.80222 0.43542 0.81124 0.0
O308 O 0.5326 0.30421 0.22339 0.0
Cd309 Cd 0.48984 0.30022 0.26418 0.0
O310 O 0.55649 0.27512 0.25701 0.0
Cd311 Cd 0.59493 0.24746 0.26993 0.0
O312 O 0.63494 0.21956 0.26933 0.0
C313 C 0.66232 0.23231 0.25824 0.0
O314 O 0.66653 0.26252 0.24824 0.0
C315 C 0.55603 0.28921 0.22988 0.0
C316 C 0.4372 0.25511 0.24494 0.0
O317 O 0.43665 0.28555 0.24171 0.0
O318 O 0.46223 0.24598 0.25759 0.0
O319 O 0.82521 0.64416 0.20853 0.0
Cd320 Cd 0.80976 0.61398 0.15922 0.0
O321 O 0.7769 0.6588 0.21295 0.0
Cd322 Cd 0.76568 0.64931 0.16236 0.0
O323 O 0.76885 0.68235 0.12138 0.0
C324 C 0.79585 0.6908 0.10728 0.0
O325 O 0.82078 0.67677 0.11524 0.0
C326 C 0.8048 0.65743 0.22451 0.0
C327 C 0.79973 0.54725 0.16997 0.0
O328 O 0.82697 0.56165 0.15924 0.0
O329 O 0.77727 0.56422 0.17569 0.0
O330 O 0.33783 0.7338 0.15076 0.0
Cd331 Cd 0.36269 0.77253 0.19129 0.0
O332 O 0.30946 0.76879 0.12946 0.0
Cd333 Cd 0.32106 0.80366 0.16874 0.0
O334 O 0.33073 0.8371 0.20949 0.0
C335 C 0.31335 0.83414 0.23482 0.0
O336 O 0.28882 0.81043 0.23698 0.0
C337 C 0.31883 0.74119 0.12903 0.0
C338 C 0.41261 0.75067 0.22531 0.0
O339 O 0.38429 0.74898 0.23772 0.0
O340 O 0.41737 0.76242 0.19691 0.0
O341 O 0.29154 0.38903 0.26329 0.0
Cd342 Cd 0.27537 0.42088 0.30818 0.0
O343 O 0.24122 0.37491 0.24774 0.0
Cd344 Cd 0.20201 0.3495 0.21826 0.0
O345 O 0.15391 0.3246 0.20525 0.0
C346 C 0.1411 0.3042 0.22599 0.0
O347 O 0.1574 0.29983 0.25216 0.0
C348 C 0.27113 0.37305 0.24444 0.0
C349 C 0.30038 0.48657 0.30473 0.0
O350 O 0.31782 0.46593 0.31477 0.0
O351 O 0.27124 0.47629 0.29592 0.0
O352 O 0.77503 0.57892 0.76059 0.0
Cd353 Cd 0.76216 0.54259 0.80642 0.0
O354 O 0.81091 0.60282 0.79452 0.0
Cd355 Cd 0.84815 0.6421 0.81026 0.0
O356 O 0.87029 0.68757 0.83198 0.0
C357 C 0.85321 0.71024 0.83156 0.0
O358 O 0.82473 0.70521 0.81758 0.0
C359 C 0.7979 0.60179 0.76683 0.0
C360 C 0.7977 0.49142 0.80581 0.0
O361 O 0.76773 0.48689 0.79791 0.0
O362 O 0.81096 0.51998 0.81389 0.0
O363 O 0.40893 0.78591 0.85162 0.0
Cd364 Cd 0.45894 0.82262 0.84049 0.0
O365 O 0.38488 0.8089 0.81303 0.0
Cd366 Cd 0.34542 0.81697 0.78066 0.0
O367 O 0.31668 0.84063 0.7463 0.0
C368 C 0.31945 0.87138 0.74732 0.0
O369 O 0.33847 0.88731 0.76898 0.0
C370 C 0.38398 0.78706 0.83452 0.0
C371 C 0.48783 0.80215 0.78523 0.0
O372 O 0.49309 0.79042 0.81287 0.0
O373 O 0.46926 0.82384 0.78357 0.0
O374 O 0.25043 0.37615 0.7408 0.0
Cd375 Cd 0.2408 0.40639 0.69245 0.0
O376 O 0.20059 0.35041 0.73853 0.0
Cd377 Cd 0.15893 0.3148 0.7533 0.0
O378 O 0.11523 0.27831 0.75485 0.0
C379 C 0.09004 0.2818 0.77087 0.0
O380 O 0.08984 0.30802 0.78831 0.0
C381 C 0.2281 0.35509 0.75224 0.0
C382 C 0.25989 0.47307 0.69805 0.0
O383 O 0.23093 0.46007 0.70517 0.0
O384 O 0.28 0.45464 0.68877 0.0
O385 O 0.56484 0.29212 0.77541 0.0
Cd386 Cd 0.51635 0.29044 0.74214 0.0
O387 O 0.5869 0.27053 0.73436 0.0
Cd388 Cd 0.62567 0.24785 0.71268 0.0
O389 O 0.66824 0.22357 0.70877 0.0
C390 C 0.67221 0.20352 0.73087 0.0
O391 O 0.65055 0.19775 0.75396 0.0
C392 C 0.58877 0.28093 0.7632 0.0
C393 C 0.46007 0.25884 0.77161 0.0
O394 O 0.48053 0.24279 0.7587 0.0
O395 O 0.46616 0.28988 0.77101 0.0
O396 O 0.8075 0.42021 0.22404 0.0
Cd397 Cd 0.78107 0.44468 0.17967 0.0
O398 O 0.78525 0.37487 0.20178 0.0
Cd399 Cd 0.77313 0.32286 0.19313 0.0
O400 O 0.75076 0.27983 0.16698 0.0
C401 C 0.72004 0.27343 0.16576 0.0
O402 O 0.70251 0.29191 0.1814 0.0
C403 C 0.80313 0.38941 0.22364 0.0
C404 C 0.79396 0.51198 0.17451 0.0
O405 O 0.76849 0.49808 0.1891 0.0
O406 O 0.81376 0.49427 0.16306 0.0
O407 O 0.53589 0.76011 0.28534 0.0
Cd408 Cd 0.48934 0.71761 0.27659 0.0
O409 O 0.56025 0.73277 0.25039 0.0
Cd410 Cd 0.60077 0.72538 0.21931 0.0
O411 O 0.64131 0.72406 0.18641 0.0
C412 C 0.66875 0.71941 0.19693 0.0
O413 O 0.67264 0.71494 0.22788 0.0
C414 C 0.56101 0.75707 0.269 0.0
C415 C 0.43904 0.73938 0.24309 0.0
O416 O 0.43761 0.73603 0.27375 0.0
O417 O 0.46411 0.73269 0.22829 0.0
O418 O 0.34033 0.61279 0.25298 0.0
Cd419 Cd 0.33741 0.58724 0.30603 0.0
O420 O 0.29291 0.62491 0.26638 0.0
Cd421 Cd 0.24918 0.64665 0.25848 0.0
O422 O 0.20544 0.66902 0.25477 0.0
C423 C 0.20117 0.68777 0.23161 0.0
O424 O 0.22336 0.69388 0.20905 0.0
C425 C 0.31586 0.62612 0.24604 0.0
C426 C 0.31322 0.52127 0.30429 0.0
O427 O 0.29407 0.54245 0.30308 0.0
O428 O 0.34376 0.5311 0.30604 0.0
O429 O 0.33443 0.14722 0.24786 0.0
Cd430 Cd 0.36072 0.18608 0.20829 0.0
O431 O 0.29436 0.12704 0.21591 0.0
Cd432 Cd 0.30947 0.16492 0.18033 0.0
O433 O 0.33094 0.20757 0.15288 0.0
C434 C 0.32144 0.23475 0.15721 0.0
O435 O 0.29789 0.237 0.17769 0.0
C436 C 0.30924 0.12664 0.24253 0.0
C437 C 0.4104 0.23118 0.23325 0.0
O438 O 0.38236 0.239 0.22818 0.0
O439 O 0.41487 0.20215 0.22696 0.0
O440 O 0.86209 0.76205 0.6228 0.0
Cd441 Cd 0.88294 0.81415 0.59835 0.0
O442 O 0.82668 0.79051 0.64205 0.0
Cd443 Cd 0.78627 0.80181 0.67126 0.0
O444 O 0.76294 0.83175 0.70442 0.0
C445 C 0.78257 0.85231 0.71998 0.0
O446 O 0.81384 0.85352 0.71523 0.0
C447 C 0.83713 0.76353 0.63991 0.0
C448 C 0.84754 0.82149 0.54323 0.0
O449 O 0.8761 0.81402 0.54126 0.0
O450 O 0.83591 0.82612 0.57108 0.0
O451 O 0.85391 0.24317 0.36273 0.0
Cd452 Cd 0.81004 0.19916 0.37533 0.0
O453 O 0.83506 0.25646 0.31585 0.0
Cd454 Cd 0.79927 0.21246 0.31272 0.0
O455 O 0.77818 0.16978 0.28506 0.0
C456 C 0.79617 0.14935 0.27639 0.0
O457 O 0.82644 0.15314 0.28603 0.0
C458 C 0.85576 0.26174 0.33831 0.0
C459 C 0.7962 0.19637 0.44123 0.0
O460 O 0.81795 0.18125 0.42934 0.0
O461 O 0.78096 0.21284 0.42216 0.0
O462 O 0.79202 0.77497 0.42818 0.0
Cd463 Cd 0.79155 0.82464 0.45893 0.0
O464 O 0.78268 0.80571 0.3878 0.0
Cd465 Cd 0.77376 0.81717 0.33768 0.0
O466 O 0.76278 0.84088 0.29314 0.0
C467 C 0.73452 0.83679 0.28108 0.0
O468 O 0.71112 0.81699 0.29505 0.0
C469 C 0.78838 0.77851 0.39817 0.0
C470 C 0.82817 0.82356 0.5143 0.0
O471 O 0.79717 0.81813 0.51567 0.0
O472 O 0.84188 0.82986 0.48694 0.0
O473 O 0.23066 0.73577 0.397 0.0
Cd474 Cd 0.19481 0.69401 0.42677 0.0
O475 O 0.18727 0.74819 0.37365 0.0
Cd476 Cd 0.15866 0.77368 0.34109 0.0
O477 O 0.11775 0.78495 0.31271 0.0
C478 C 0.11749 0.77831 0.28289 0.0
O479 O 0.14232 0.76695 0.27033 0.0
C480 C 0.21793 0.75236 0.37632 0.0
C481 C 0.19813 0.69631 0.49372 0.0
O482 O 0.21754 0.68164 0.47739 0.0
O483 O 0.17782 0.71077 0.47851 0.0
O484 O 0.39115 0.24552 0.36269 0.0
Cd485 Cd 0.40369 0.29616 0.39239 0.0
O486 O 0.34606 0.26303 0.34965 0.0
Cd487 Cd 0.2986 0.25823 0.32647 0.0
O488 O 0.25341 0.25331 0.29938 0.0
C489 C 0.22606 0.24802 0.31342 0.0
O490 O 0.22466 0.24533 0.3449 0.0
C491 C 0.36402 0.24106 0.34836 0.0
C492 C 0.37707 0.28912 0.4539 0.0
O493 O 0.35995 0.29554 0.42988 0.0
O494 O 0.40678 0.28622 0.44902 0.0
O495 O 0.32743 0.22794 0.57215 0.0
Cd496 Cd 0.33693 0.28211 0.54801 0.0
O497 O 0.2791 0.23817 0.58488 0.0
Cd498 Cd 0.234 0.22974 0.61253 0.0
O499 O 0.1925 0.22583 0.64504 0.0
C500 C 0.19612 0.22041 0.6748 0.0
O501 O 0.22479 0.21663 0.6857 0.0
C502 C 0.30046 0.21954 0.58629 0.0
C503 C 0.36308 0.2858 0.48632 0.0
O504 O 0.38133 0.28546 0.51103 0.0
O505 O 0.33245 0.28375 0.49063 0.0
O506 O 0.79335 0.22696 0.57868 0.0
Cd507 Cd 0.76976 0.18529 0.54013 0.0
O508 O 0.81032 0.18809 0.60627 0.0
Cd509 Cd 0.8303 0.16791 0.64898 0.0
O510 O 0.83728 0.14419 0.6947 0.0
C511 C 0.8142 0.14261 0.71487 0.0
O512 O 0.78837 0.15543 0.70742 0.0
C513 C 0.80738 0.21783 0.60343 0.0
C514 C 0.78805 0.19385 0.47564 0.0
O515 O 0.7644 0.20661 0.48701 0.0
O516 O 0.80373 0.17787 0.49481 0.0
O517 O 0.22133 0.73147 0.6274 0.0
Cd518 Cd 0.19325 0.68653 0.59555 0.0
O519 O 0.17373 0.73826 0.64619 0.0
Cd520 Cd 0.14036 0.76034 0.67693 0.0
O521 O 0.10352 0.77 0.71165 0.0
C522 C 0.08134 0.78682 0.70568 0.0
O523 O 0.08005 0.80029 0.67723 0.0
C524 C 0.20433 0.74655 0.64574 0.0
C525 C 0.19766 0.6947 0.529 0.0
O526 O 0.17557 0.70572 0.54517 0.0
O527 O 0.21816 0.68049 0.54423 0.0
loop_
_geom_bond_atom_site_label_1
_geom_bond_atom_site_label_2
_geom_bond_distance
_geom_bond_site_symmetry_2
_ccdc_geom_bond_type
O0 Cd1 2.300 . S
O0 C7 1.275 . S
Cd1 O0 2.300 . S
Cd1 O9 2.381 . S
Cd1 O10 2.378 . S
O2 Cd3 2.385 . S
O2 C7 1.255 . S
Cd3 O2 2.385 . S
Cd3 O4 2.317 . S
O4 Cd3 2.317 . S
O4 C5 1.232 . S
C5 O4 1.232 . S
C5 O6 1.218 . S
O6 C5 1.218 . S
C7 O0 1.275 . S
C7 O2 1.255 . S
C8 O9 1.258 . S
C8 O10 1.256 . S
O9 Cd1 2.381 . S
O9 C8 1.258 . S
O10 Cd1 2.378 . S
O10 C8 1.256 . S
O11 Cd12 2.300 . S
O11 C18 1.275 . S
Cd12 O11 2.300 . S
Cd12 O20 2.381 . S
Cd12 O21 2.378 . S
O13 Cd14 2.385 . S
O13 C18 1.255 . S
Cd14 O13 2.385 . S
Cd14 O15 2.317 . S
O15 Cd14 2.317 . S
O15 C16 1.232 . S
C16 O15 1.232 . S
C16 O17 1.218 . S
O17 C16 1.218 . S
C18 O11 1.275 . S
C18 O13 1.255 . S
C19 O20 1.258 . S
C19 O21 1.256 . S
O20 Cd12 2.381 . S
O20 C19 1.258 . S
O21 Cd12 2.378 . S
O21 C19 1.256 . S
O22 Cd23 2.300 . S
O22 C29 1.275 . S
Cd23 O22 2.300 . S
Cd23 O31 2.381 . S
Cd23 O32 2.378 . S
O24 Cd25 2.385 . S
O24 C29 1.255 . S
Cd25 O24 2.385 . S
Cd25 O26 2.317 . S
O26 Cd25 2.317 . S
O26 C27 1.232 . S
C27 O26 1.232 . S
C27 O28 1.218 . S
O28 C27 1.218 . S
C29 O22 1.275 . S
C29 O24 1.255 . S
C30 O31 1.258 . S
C30 O32 1.256 . S
O31 Cd23 2.381 . S
O31 C30 1.258 . S
O32 Cd23 2.378 . S
O32 C30 1.256 . S
O33 Cd34 2.300 . S
O33 C40 1.275 . S
Cd34 O33 2.300 . S
Cd34 O42 2.381 . S
Cd34 O43 2.378 . S
O35 Cd36 2.385 . S
O35 C40 1.255 . S
Cd36 O35 2.385 . S
Cd36 O37 2.317 . S
O37 Cd36 2.317 . S
O37 C38 1.232 . S
C38 O37 1.232 . S
C38 O39 1.218 . S
O39 C38 1.218 . S
C40 O33 1.275 . S
C40 O35 1.255 . S
C41 O42 1.258 . S
C41 O43 1.256 . S
O42 Cd34 2.381 . S
O42 C41 1.258 . S
O43 Cd34 2.378 . S
O43 C41 1.256 . S
O44 Cd45 2.300 . S
O44 C51 1.275 . S
Cd45 O44 2.300 . S
Cd45 O53 2.381 . S
Cd45 O54 2.378 . S
O46 Cd47 2.385 . S
O46 C51 1.255 . S
Cd47 O46 2.385 . S
Cd47 O48 2.317 . S
O48 Cd47 2.317 . S
O48 C49 1.232 . S
C49 O48 1.232 . S
C49 O50 1.218 . S
O50 C49 1.218 . S
C51 O44 1.275 . S
C51 O46 1.255 . S
C52 O53 1.258 . S
C52 O54 1.256 . S
O53 Cd45 2.381 . S
O53 C52 1.258 . S
O54 Cd45 2.378 . S
O54 C52 1.256 . S
O55 Cd56 2.300 . S
O55 C62 1.275 . S
Cd56 O55 2.300 . S
Cd56 O64 2.381 . S
Cd56 O65 2.378 . S
O57 Cd58 2.385 . S
O57 C62 1.255 . S
Cd58 O57 2.385 . S
Cd58 O59 2.317 . S
O59 Cd58 2.317 . S
O59 C60 1.232 . S
C60 O59 1.232 . S
C60 O61 1.218 . S
O61 C60 1.218 . S
C62 O55 1.275 . S
C62 O57 1.255 . S
C63 O64 1.258 . S
C63 O65 1.256 . S
O64 Cd56 2.381 . S
O64 C63 1.258 . S
O65 Cd56 2.378 . S
O65 C63 1.256 . S
O66 Cd67 2.300 . S
O66 C73 1.275 . S
Cd67 O66 2.300 . S
Cd67 O75 2.381 . S
Cd67 O76 2.378 . S
O68 Cd69 2.385 . S
O68 C73 1.255 . S
Cd69 O68 2.385 . S
Cd69 O70 2.317 . S
O70 Cd69 2.317 . S
O70 C71 1.232 . S
C71 O70 1.232 . S
C71 O72 1.218 . S
O72 C71 1.218 . S
C73 O66 1.275 . S
C73 O68 1.255 . S
C74 O75 1.258 . S
C74 O76 1.256 . S
O75 Cd67 2.381 . S
O75 C74 1.258 . S
O76 Cd67 2.378 . S
O76 C74 1.256 . S
O77 Cd78 2.300 . S
O77 C84 1.275 . S
Cd78 O77 2.300 . S
Cd78 O86 2.381 . S
Cd78 O87 2.378 . S
O79 Cd80 2.385 . S
O79 C84 1.255 . S
Cd80 O79 2.385 . S
Cd80 O81 2.317 . S
O81 Cd80 2.317 . S
O81 C82 1.232 . S
C82 O81 1.232 . S
C82 O83 1.218 . S
O83 C82 1.218 . S
C84 O77 1.275 . S
C84 O79 1.255 . S
C85 O86 1.258 . S
C85 O87 1.256 . S
O86 Cd78 2.381 . S
O86 C85 1.258 . S
O87 Cd78 2.378 . S
O87 C85 1.256 . S
O88 Cd89 2.300 . S
O88 C95 1.275 . S
Cd89 O88 2.300 . S
Cd89 O97 2.381 . S
Cd89 O98 2.378 . S
O90 Cd91 2.385 . S
O90 C95 1.255 . S
Cd91 O90 2.385 . S
Cd91 O92 2.317 . S
O92 Cd91 2.317 . S
O92 C93 1.232 . S
C93 O92 1.232 . S
C93 O94 1.218 . S
O94 C93 1.218 . S
C95 O88 1.275 . S
C95 O90 1.255 . S
C96 O97 1.258 . S
C96 O98 1.256 . S
O97 Cd89 2.381 . S
O97 C96 1.258 . S
O98 Cd89 2.378 . S
O98 C96 1.256 . S
O99 Cd100 2.300 . S
O99 C106 1.275 . S
Cd100 O99 2.300 . S
Cd100 O108 2.381 . S
Cd100 O109 2.378 . S
O101 Cd102 2.385 . S
O101 C106 1.255 . S
Cd102 O101 2.385 . S
Cd102 O103 2.317 . S
O103 Cd102 2.317 . S
O103 C104 1.232 . S
C104 O103 1.232 . S
C104 O105 1.218 . S
O105 C104 1.218 . S
C106 O99 1.275 . S
C106 O101 1.255 . S
C107 O108 1.258 . S
C107 O109 1.256 . S
O108 Cd100 2.381 . S
O108 C107 1.258 . S
O109 Cd100 2.378 . S
O109 C107 1.256 . S
O110 Cd111 2.300 . S
O110 C117 1.275 . S
Cd111 O110 2.300 . S
Cd111 O119 2.381 . S
Cd111 O120 2.378 . S
O112 Cd113 2.385 . S
O112 C117 1.255 . S
Cd113 O112 2.385 . S
Cd113 O114 2.317 . S
O114 Cd113 2.317 . S
O114 C115 1.232 . S
C115 O114 1.232 . S
C115 O116 1.218 . S
O116 C115 1.218 . S
C117 O110 1.275 . S
C117 O112 1.255 . S
C118 O119 1.258 . S
C118 O120 1.256 . S
O119 Cd111 2.381 . S
O119 C118 1.258 . S
O120 Cd111 2.378 . S
O120 C118 1.256 . S
O121 Cd122 2.300 . S
O121 C128 1.275 . S
Cd122 O121 2.300 . S
Cd122 O130 2.381 . S
Cd122 O131 2.378 . S
O123 Cd124 2.385 . S
O123 C128 1.255 . S
Cd124 O123 2.385 . S
Cd124 O125 2.317 . S
O125 Cd124 2.317 . S
O125 C126 1.232 . S
C126 O125 1.232 . S
C126 O127 1.218 . S
O127 C126 1.218 . S
C128 O121 1.275 . S
C128 O123 1.255 . S
C129 O130 1.258 . S
C129 O131 1.256 . S
O130 Cd122 2.381 . S
O130 C129 1.258 . S
O131 Cd122 2.378 . S
O131 C129 1.256 . S
O132 Cd133 2.300 . S
O132 C139 1.275 . S
Cd133 O132 2.300 . S
Cd133 O141 2.381 . S
Cd133 O142 2.378 . S
O134 Cd135 2.385 . S
O134 C139 1.255 . S
Cd135 O134 2.385 . S
Cd135 O136 2.317 . S
O136 Cd135 2.317 . S
O136 C137 1.232 . S
C137 O136 1.232 . S
C137 O138 1.218 . S
O138 C137 1.218 . S
C139 O132 1.275 . S
C139 O134 1.255 . S
C140 O141 1.258 . S
C140 O142 1.256 . S
O141 Cd133 2.381 . S
O141 C140 1.258 . S
O142 Cd133 2.378 . S
O142 C140 1.256 . S
O143 Cd144 2.300 . S
O143 C150 1.275 . S
Cd144 O143 2.300 . S
Cd144 O152 2.381 . S
Cd144 O153 2.378 . S
O145 Cd146 2.385 . S
O145 C150 1.255 . S
Cd146 O145 2.385 . S
Cd146 O147 2.317 . S
O147 Cd146 2.317 . S
O147 C148 1.232 . S
C148 O147 1.232 . S
C148 O149 1.218 . S
O149 C148 1.218 . S
C150 O143 1.275 . S
C150 O145 1.255 . S
C151 O152 1.258 . S
C151 O153 1.256 . S
O152 Cd144 2.381 . S
O152 C151 1.258 . S
O153 Cd144 2.378 . S
O153 C151 1.256 . S
O154 Cd155 2.300 . S
O154 C161 1.275 . S
Cd155 O154 2.300 . S
Cd155 O163 2.381 . S
Cd155 O164 2.378 . S
O156 Cd157 2.385 . S
O156 C161 1.255 . S
Cd157 O156 2.385 . S
Cd157 O158 2.317 . S
O158 Cd157 2.317 . S
O158 C159 1.232 . S
C159 O158 1.232 . S
C159 O160 1.218 . S
O160 C159 1.218 . S
C161 O154 1.275 . S
C161 O156 1.255 . S
C162 O163 1.258 . S
C162 O164 1.256 . S
O163 Cd155 2.381 . S
O163 C162 1.258 . S
O164 Cd155 2.378 . S
O164 C162 1.256 . S
O165 Cd166 2.300 . S
O165 C172 1.275 . S
Cd166 O165 2.300 . S
Cd166 O174 2.381 . S
Cd166 O175 2.378 . S
O167 Cd168 2.385 . S
O167 C172 1.255 . S
Cd168 O167 2.385 . S
Cd168 O169 2.317 . S
O169 Cd168 2.317 . S
O169 C170 1.232 . S
C170 O169 1.232 . S
C170 O171 1.218 . S
O171 C170 1.218 . S
C172 O165 1.275 . S
C172 O167 1.255 . S
C173 O174 1.258 . S
C173 O175 1.256 . S
O174 Cd166 2.381 . S
O174 C173 1.258 . S
O175 Cd166 2.378 . S
O175 C173 1.256 . S
O176 Cd177 2.300 . S
O176 C183 1.275 . S
Cd177 O176 2.300 . S
Cd177 O185 2.381 . S
Cd177 O186 2.378 . S
O178 Cd179 2.385 . S
O178 C183 1.255 . S
Cd179 O178 2.385 . S
Cd179 O180 2.317 . S
O180 Cd179 2.317 . S
O180 C181 1.232 . S
C181 O180 1.232 . S
C181 O182 1.218 . S
O182 C181 1.218 . S
C183 O176 1.275 . S
C183 O178 1.255 . S
C184 O185 1.258 . S
C184 O186 1.256 . S
O185 Cd177 2.381 . S
O185 C184 1.258 . S
O186 Cd177 2.378 . S
O186 C184 1.256 . S
O187 Cd188 2.300 . S
O187 C194 1.275 . S
Cd188 O187 2.300 . S
Cd188 O196 2.381 . S
Cd188 O197 2.378 . S
O189 Cd190 2.385 . S
O189 C194 1.255 . S
Cd190 O189 2.385 . S
Cd190 O191 2.317 . S
O191 Cd190 2.317 . S
O191 C192 1.232 . S
C192 O191 1.232 . S
C192 O193 1.218 . S
O193 C192 1.218 . S
C194 O187 1.275 . S
C194 O189 1.255 . S
C195 O196 1.258 . S
C195 O197 1.256 . S
O196 Cd188 2.381 . S
O196 C195 1.258 . S
O197 Cd188 2.378 . S
O197 C195 1.256 . S
O198 Cd199 2.300 . S
O198 C205 1.275 . S
Cd199 O198 2.300 . S
Cd199 O207 2.381 . S
Cd199 O208 2.378 . S
O200 Cd201 2.385 . S
O200 C205 1.255 . S
Cd201 O200 2.385 . S
Cd201 O202 2.317 . S
O202 Cd201 2.317 . S
O202 C203 1.232 . S
C203 O202 1.232 . S
C203 O204 1.218 . S
O204 C203 1.218 . S
C205 O198 1.275 . S
C205 O200 1.255 . S
C206 O207 1.258 . S
C206 O208 1.256 . S
O207 Cd199 2.381 . S
O207 C206 1.258 . S
O208 Cd199 2.378 . S
O208 C206 1.256 . S
O209 Cd210 2.300 . S
O209 C216 1.275 . S
Cd210 O209 2.300 . S
Cd210 O218 2.381 . S
Cd210 O219 2.378 . S
O211 Cd212 2.385 . S
O211 C216 1.255 . S
Cd212 O211 2.385 . S
Cd212 O213 2.317 . S
O213 Cd212 2.317 . S
O213 C214 1.232 . S
C214 O213 1.232 . S
C214 O215 1.218 . S
O215 C214 1.218 . S
C216 O209 1.275 . S
C216 O211 1.255 . S
C217 O218 1.258 . S
C217 O219 1.256 . S
O218 Cd210 2.381 . S
O218 C217 1.258 . S
O219 Cd210 2.378 . S
O219 C217 1.256 . S
O220 Cd221 2.300 . S
O220 C227 1.275 . S
Cd221 O220 2.300 . S
Cd221 O229 2.381 . S
Cd221 O230 2.378 . S
O222 Cd223 2.385 . S
O222 C227 1.255 . S
Cd223 O222 2.385 . S
Cd223 O224 2.317 . S
O224 Cd223 2.317 . S
O224 C225 1.232 . S
C225 O224 1.232 . S
C225 O226 1.218 . S
O226 C225 1.218 . S
C227 O220 1.275 . S
C227 O222 1.255 . S
C228 O229 1.258 . S
C228 O230 1.256 . S
O229 Cd221 2.381 . S
O229 C228 1.258 . S
O230 Cd221 2.378 . S
O230 C228 1.256 . S
O231 Cd232 2.300 . S
O231 C238 1.275 . S
Cd232 O231 2.300 . S
Cd232 O240 2.381 . S
Cd232 O241 2.378 . S
O233 Cd234 2.385 . S
O233 C238 1.255 . S
Cd234 O233 2.385 . S
Cd234 O235 2.317 . S
O235 Cd234 2.317 . S
O235 C236 1.232 . S
C236 O235 1.232 . S
C236 O237 1.218 . S
O237 C236 1.218 . S
C238 O231 1.275 . S
C238 O233 1.255 . S
C239 O240 1.258 . S
C239 O241 1.256 . S
O240 Cd232 2.381 . S
O240 C239 1.258 . S
O241 Cd232 2.378 . S
O241 C239 1.256 . S
O242 Cd243 2.300 . S
O242 C249 1.275 . S
Cd243 O242 2.300 . S
Cd243 O251 2.381 . S
Cd243 O252 2.378 . S
O244 Cd245 2.385 . S
O244 C249 1.255 . S
Cd245 O244 2.385 . S
Cd245 O246 2.317 . S
O246 Cd245 2.317 . S
O246 C247 1.232 . S
C247 O246 1.232 . S
C247 O248 1.218 . S
O248 C247 1.218 . S
C249 O242 1.275 . S
C249 O244 1.255 . S
C250 O251 1.258 . S
C250 O252 1.256 . S
O251 Cd243 2.381 . S
O251 C250 1.258 . S
O252 Cd243 2.378 . S
O252 C250 1.256 . S
O253 Cd254 2.300 . S
O253 C260 1.275 . S
Cd254 O253 2.300 . S
Cd254 O262 2.381 . S
Cd254 O263 2.378 . S
O255 Cd256 2.385 . S
O255 C260 1.255 . S
Cd256 O255 2.385 . S
Cd256 O257 2.317 . S
O257 Cd256 2.317 . S
O257 C258 1.232 . S
C258 O257 1.232 . S
C258 O259 1.218 . S
O259 C258 1.218 . S
C260 O253 1.275 . S
C260 O255 1.255 . S
C261 O262 1.258 . S
C261 O263 1.256 . S
O262 Cd254 2.381 . S
O262 C261 1.258 . S
O263 Cd254 2.378 . S
O263 C261 1.256 . S
O264 Cd265 2.300 . S
O264 C271 1.275 . S
Cd265 O264 2.300 . S
Cd265 O273 2.381 . S
Cd265 O274 2.378 . S
O266 Cd267 2.385 . S
O266 C271 1.255 . S
Cd267 O266 2.385 . S
Cd267 O268 2.317 . S
O268 Cd267 2.317 . S
O268 C269 1.232 . S
C269 O268 1.232 . S
C269 O270 1.218 . S
O270 C269 1.218 . S
C271 O264 1.275 . S
C271 O266 1.255 . S
C272 O273 1.258 . S
C272 O274 1.256 . S
O273 Cd265 2.381 . S
O273 C272 1.258 . S
O274 Cd265 2.378 . S
O274 C272 1.256 . S
O275 Cd276 2.300 . S
O275 C282 1.275 . S
Cd276 O275 2.300 . S
Cd276 O284 2.381 . S
Cd276 O285 2.378 . S
O277 Cd278 2.385 . S
O277 C282 1.255 . S
Cd278 O277 2.385 . S
Cd278 O279 2.317 . S
O279 Cd278 2.317 . S
O279 C280 1.232 . S
C280 O279 1.232 . S
C280 O281 1.218 . S
O281 C280 1.218 . S
C282 O275 1.275 . S
C282 O277 1.255 . S
C283 O284 1.258 . S
C283 O285 1.256 . S
O284 Cd276 2.381 . S
O284 C283 1.258 . S
O285 Cd276 2.378 . S
O285 C283 1.256 . S
O286 Cd287 2.300 . S
O286 C293 1.275 . S
Cd287 O286 2.300 . S
Cd287 O295 2.381 . S
Cd287 O296 2.378 . S
O288 Cd289 2.385 . S
O288 C293 1.255 . S
Cd289 O288 2.385 . S
Cd289 O290 2.317 . S
O290 Cd289 2.317 . S
O290 C291 1.232 . S
C291 O290 1.232 . S
C291 O292 1.218 . S
O292 C291 1.218 . S
C293 O286 1.275 . S
C293 O288 1.255 . S
C294 O295 1.258 . S
C294 O296 1.256 . S
O295 Cd287 2.381 . S
O295 C294 1.258 . S
O296 Cd287 2.378 . S
O296 C294 1.256 . S
O297 Cd298 2.300 . S
O297 C304 1.275 . S
Cd298 O297 2.300 . S
Cd298 O306 2.381 . S
Cd298 O307 2.378 . S
O299 Cd300 2.385 . S
O299 C304 1.255 . S
Cd300 O299 2.385 . S
Cd300 O301 2.317 . S
O301 Cd300 2.317 . S
O301 C302 1.232 . S
C302 O301 1.232 . S
C302 O303 1.218 . S
O303 C302 1.218 . S
C304 O297 1.275 . S
C304 O299 1.255 . S
C305 O306 1.258 . S
C305 O307 1.256 . S
O306 Cd298 2.381 . S
O306 C305 1.258 . S
O307 Cd298 2.378 . S
O307 C305 1.256 . S
O308 Cd309 2.300 . S
O308 C315 1.275 . S
Cd309 O308 2.300 . S
Cd309 O317 2.381 . S
Cd309 O318 2.378 . S
O310 Cd311 2.385 . S
O310 C315 1.255 . S
Cd311 O310 2.385 . S
Cd311 O312 2.317 . S
O312 Cd311 2.317 . S
O312 C313 1.232 . S
C313 O312 1.232 . S
C313 O314 1.218 . S
O314 C313 1.218 . S
C315 O308 1.275 . S
C315 O310 1.255 . S
C316 O317 1.258 . S
C316 O318 1.256 . S
O317 Cd309 2.381 . S
O317 C316 1.258 . S
O318 Cd309 2.378 . S
O318 C316 1.256 . S
O319 Cd320 2.300 . S
O319 C326 1.275 . S
Cd320 O319 2.300 . S
Cd320 O328 2.381 . S
Cd320 O329 2.378 . S
O321 Cd322 2.385 . S
O321 C326 1.255 . S
Cd322 O321 2.385 . S
Cd322 O323 2.317 . S
O323 Cd322 2.317 . S
O323 C324 1.232 . S
C324 O323 1.232 . S
C324 O325 1.218 . S
O325 C324 1.218 . S
C326 O319 1.275 . S
C326 O321 1.255 . S
C327 O328 1.258 . S
C327 O329 1.256 . S
O328 Cd320 2.381 . S
O328 C327 1.258 . S
O329 Cd320 2.378 . S
O329 C327 1.256 . S
O330 Cd331 2.300 . S
O330 C337 1.275 . S
Cd331 O330 2.300 . S
Cd331 O339 2.381 . S
Cd331 O340 2.378 . S
O332 Cd333 2.385 . S
O332 C337 1.255 . S
Cd333 O332 2.385 . S
Cd333 O334 2.317 . S
O334 Cd333 2.317 . S
O334 C335 1.232 . S
C335 O334 1.232 . S
C335 O336 1.218 . S
O336 C335 1.218 . S
C337 O330 1.275 . S
C337 O332 1.255 . S
C338 O339 1.258 . S
C338 O340 1.256 . S
O339 Cd331 2.381 . S
O339 C338 1.258 . S
O340 Cd331 2.378 . S
O340 C338 1.256 . S
O341 Cd342 2.300 . S
O341 C348 1.275 . S
Cd342 O341 2.300 . S
Cd342 O350 2.381 . S
Cd342 O351 2.378 . S
O343 Cd344 2.385 . S
O343 C348 1.255 . S
Cd344 O343 2.385 . S
Cd344 O345 2.317 . S
O345 Cd344 2.317 . S
O345 C346 1.232 . S
C346 O345 1.232 . S
C346 O347 1.218 . S
O347 C346 1.218 . S
C348 O341 1.275 . S
C348 O343 1.255 . S
C349 O350 1.258 . S
C349 O351 1.256 . S
O350 Cd342 2.381 . S
O350 C349 1.258 . S
O351 Cd342 2.378 . S
O351 C349 1.256 . S
O352 Cd353 2.300 . S
O352 C359 1.275 . S
Cd353 O352 2.300 . S
Cd353 O361 2.381 . S
Cd353 O362 2.378 . S
O354 Cd355 2.385 . S
O354 C359 1.255 . S
Cd355 O354 2.385 . S
Cd355 O356 2.317 . S
O356 Cd355 2.317 . S
O356 C357 1.232 . S
C357 O356 1.232 . S
C357 O358 1.218 . S
O358 C357 1.218 . S
C359 O352 1.275 . S
C359 O354 1.255 . S
C360 O361 1.258 . S
C360 O362 1.256 . S
O361 Cd353 2.381 . S
O361 C360 1.258 . S
O362 Cd353 2.378 . S
O362 C360 1.256 . S
O363 Cd364 2.300 . S
O363 C370 1.275 . S
Cd364 O363 2.300 . S
Cd364 O372 2.381 . S
Cd364 O373 2.378 . S
O365 Cd366 2.385 . S
O365 C370 1.255 . S
Cd366 O365 2.385 . S
Cd366 O367 2.317 . S
O367 Cd366 2.317 . S
O367 C368 1.232 . S
C368 O367 1.232 . S
C368 O369 1.218 . S
O369 C368 1.218 . S
C370 O363 1.275 . S
C370 O365 1.255 . S
C371 O372 1.258 . S
C371 O373 1.256 . S
O372 Cd364 2.381 . S
O372 C371 1.258 . S
O373 Cd364 2.378 . S
O373 C371 1.256 . S
O374 Cd375 2.300 . S
O374 C381 1.275 . S
Cd375 O374 2.300 . S
Cd375 O383 2.381 . S
Cd375 O384 2.378 . S
O376 Cd377 2.385 . S
O376 C381 1.255 . S
Cd377 O376 2.385 . S
Cd377 O378 2.317 . S
O378 Cd377 2.317 . S
O378 C379 1.232 . S
C379 O378 1.232 . S
C379 O380 1.218 . S
O380 C379 1.218 . S
C381 O374 1.275 . S
C381 O376 1.255 . S
C382 O383 1.258 . S
C382 O384 1.256 . S
O383 Cd375 2.381 . S
O383 C382 1.258 . S
O384 Cd375 2.378 . S
O384 C382 1.256 . S
O385 Cd386 2.300 . S
O385 C392 1.275 . S
Cd386 O385 2.300 . S
Cd386 O394 2.381 . S
Cd386 O395 2.378 . S
O387 Cd388 2.385 . S
O387 C392 1.255 . S
Cd388 O387 2.385 . S
Cd388 O389 2.317 . S
O389 Cd388 2.317 . S
O389 C390 1.232 . S
C390 O389 1.232 . S
C390 O391 1.218 . S
O391 C390 1.218 . S
C392 O385 1.275 . S
C392 O387 1.255 . S
C393 O394 1.258 . S
C393 O395 1.256 . S
O394 Cd386 2.381 . S
O394 C393 1.258 . S
O395 Cd386 2.378 . S
O395 C393 1.256 . S
O396 Cd397 2.300 . S
O396 C403 1.275 . S
Cd397 O396 2.300 . S
Cd397 O405 2.381 . S
Cd397 O406 2.378 . S
O398 Cd399 2.385 . S
O398 C403 1.255 . S
Cd399 O398 2.385 . S
Cd399 O400 2.317 . S
O400 Cd399 2.317 . S
O400 C401 1.232 . S
C401 O400 1.232 . S
C401 O402 1.218 . S
O402 C401 1.218 . S
C403 O396 1.275 . S
C403 O398 1.255 . S
C404 O405 1.258 . S
C404 O406 1.256 . S
O405 Cd397 2.381 . S
O405 C404 1.258 . S
O406 Cd397 2.378 . S
O406 C404 1.256 . S
O407 Cd408 2.300 . S
O407 C414 1.275 . S
Cd408 O407 2.300 . S
Cd408 O416 2.381 . S
Cd408 O417 2.378 . S
O409 Cd410 2.385 . S
O409 C414 1.255 . S
Cd410 O409 2.385 . S
Cd410 O411 2.317 . S
O411 Cd410 2.317 . S
O411 C412 1.232 . S
C412 O411 1.232 . S
C412 O413 1.218 . S
O413 C412 1.218 . S
C414 O407 1.275 . S
C414 O409 1.255 . S
C415 O416 1.258 . S
C415 O417 1.256 . S
O416 Cd408 2.381 . S
O416 C415 1.258 . S
O417 Cd408 2.378 . S
O417 C415 1.256 . S
O418 Cd419 2.300 . S
O418 C425 1.275 . S
Cd419 O418 2.300 . S
Cd419 O427 2.381 . S
Cd419 O428 2.378 . S
O420 Cd421 2.385 . S
O420 C425 1.255 . S
Cd421 O420 2.385 . S
Cd421 O422 2.317 . S
O422 Cd421 2.317 . S
O422 C423 1.232 . S
C423 O422 1.232 . S
C423 O424 1.218 . S
O424 C423 1.218 . S
C425 O418 1.275 . S
C425 O420 1.255 . S
C426 O427 1.258 . S
C426 O428 1.256 . S
O427 Cd419 2.381 . S
O427 C426 1.258 . S
O428 Cd419 2.378 . S
O428 C426 1.256 . S
O429 Cd430 2.300 . S
O429 C436 1.275 . S
Cd430 O429 2.300 . S
Cd430 O438 2.381 . S
Cd430 O439 2.378 . S
O431 Cd432 2.385 . S
O431 C436 1.255 . S
Cd432 O431 2.385 . S
Cd432 O433 2.317 . S
O433 Cd432 2.317 . S
O433 C434 1.232 . S
C434 O433 1.232 . S
C434 O435 1.218 . S
O435 C434 1.218 . S
C436 O429 1.275 . S
C436 O431 1.255 . S
C437 O438 1.258 . S
C437 O439 1.256 . S
O438 Cd430 2.381 . S
O438 C437 1.258 . S
O439 Cd430 2.378 . S
O439 C437 1.256 . S
O440 Cd441 2.300 . S
O440 C447 1.275 . S
Cd441 O440 2.300 . S
Cd441 O449 2.381 . S
Cd441 O450 2.378 . S
O442 Cd443 2.385 . S
O442 C447 1.255 . S
Cd443 O442 2.385 . S
Cd443 O444 2.317 . S
O444 Cd443 2.317 . S
O444 C445 1.232 . S
C445 O444 1.232 . S
C445 O446 1.218 . S
O446 C445 1.218 . S
C447 O440 1.275 . S
C447 O442 1.255 . S
C448 O449 1.258 . S
C448 O450 1.256 . S
O449 Cd441 2.381 . S
O449 C448 1.258 . S
O450 Cd441 2.378 . S
O450 C448 1.256 . S
O451 Cd452 2.300 . S
O451 C458 1.275 . S
Cd452 O451 2.300 . S
Cd452 O460 2.381 . S
Cd452 O461 2.378 . S
O453 Cd454 2.385 . S
O453 C458 1.255 . S
Cd454 O453 2.385 . S
Cd454 O455 2.317 . S
O455 Cd454 2.317 . S
O455 C456 1.232 . S
C456 O455 1.232 . S
C456 O457 1.218 . S
O457 C456 1.218 . S
C458 O451 1.275 . S
C458 O453 1.255 . S
C459 O460 1.258 . S
C459 O461 1.256 . S
O460 Cd452 2.381 . S
O460 C459 1.258 . S
O461 Cd452 2.378 . S
O461 C459 1.256 . S
O462 Cd463 2.300 . S
O462 C469 1.275 . S
Cd463 O462 2.300 . S
Cd463 O471 2.381 . S
Cd463 O472 2.378 . S
O464 Cd465 2.385 . S
O464 C469 1.255 . S
Cd465 O464 2.385 . S
Cd465 O466 2.317 . S
O466 Cd465 2.317 . S
O466 C467 1.232 . S
C467 O466 1.232 . S
C467 O468 1.218 . S
O468 C467 1.218 . S
C469 O462 1.275 . S
C469 O464 1.255 . S
C470 O471 1.258 . S
C470 O472 1.256 . S
O471 Cd463 2.381 . S
O471 C470 1.258 . S
O472 Cd463 2.378 . S
O472 C470 1.256 . S
O473 Cd474 2.300 . S
O473 C480 1.275 . S
Cd474 O473 2.300 . S
Cd474 O482 2.381 . S
Cd474 O483 2.378 . S
O475 Cd476 2.385 . S
O475 C480 1.255 . S
Cd476 O475 2.385 . S
Cd476 O477 2.317 . S
O477 Cd476 2.317 . S
O477 C478 1.232 . S
C478 O477 1.232 . S
C478 O479 1.218 . S
O479 C478 1.218 . S
C480 O473 1.275 . S
C480 O475 1.255 . S
C481 O482 1.258 . S
C481 O483 1.256 . S
O482 Cd474 2.381 . S
O482 C481 1.258 . S
O483 Cd474 2.378 . S
O483 C481 1.256 . S
O484 Cd485 2.300 . S
O484 C491 1.275 . S
Cd485 O484 2.300 . S
Cd485 O493 2.381 . S
Cd485 O494 2.378 . S
O486 Cd487 2.385 . S
O486 C491 1.255 . S
Cd487 O486 2.385 . S
Cd487 O488 2.317 . S
O488 Cd487 2.317 . S
O488 C489 1.232 . S
C489 O488 1.232 . S
C489 O490 1.218 . S
O490 C489 1.218 . S
C491 O484 1.275 . S
C491 O486 1.255 . S
C492 O493 1.258 . S
C492 O494 1.256 . S
O493 Cd485 2.381 . S
O493 C492 1.258 . S
O494 Cd485 2.378 . S
O494 C492 1.256 . S
O495 Cd496 2.300 . S
O495 C502 1.275 . S
Cd496 O495 2.300 . S
Cd496 O504 2.381 . S
Cd496 O505 2.378 . S
O497 Cd498 2.385 . S
O497 C502 1.255 . S
Cd498 O497 2.385 . S
Cd498 O499 2.317 . S
O499 Cd498 2.317 . S
O499 C500 1.232 . S
C500 O499 1.232 . S
C500 O501 1.218 . S
O501 C500 1.218 . S
C502 O495 1.275 . S
C502 O497 1.255 . S
C503 O504 1.258 . S
C503 O505 1.256 . S
O504 Cd496 2.381 . S
O504 C503 1.258 . S
O505 Cd496 2.378 . S
O505 C503 1.256 . S
O506 Cd507 2.300 . S
O506 C513 1.275 . S
Cd507 O506 2.300 . S
Cd507 O515 2.381 . S
Cd507 O516 2.378 . S
O508 Cd509 2.385 . S
O508 C513 1.255 . S
Cd509 O508 2.385 . S
Cd509 O510 2.317 . S
O510 Cd509 2.317 . S
O510 C511 1.232 . S
C511 O510 1.232 . S
C511 O512 1.218 . S
O512 C511 1.218 . S
C513 O506 1.275 . S
C513 O508 1.255 . S
C514 O515 1.258 . S
C514 O516 1.256 . S
O515 Cd507 2.381 . S
O515 C514 1.258 . S
O516 Cd507 2.378 . S
O516 C514 1.256 . S
O517 Cd518 2.300 . S
O517 C524 1.275 . S
Cd518 O517 2.300 . S
Cd518 O526 2.381 . S
Cd518 O527 2.378 . S
O519 Cd520 2.385 . S
O519 C524 1.255 . S
Cd520 O519 2.385 . S
Cd520 O521 2.317 . S
O521 Cd520 2.317 . S
O521 C522 1.232 . S
C522 O521 1.232 . S
C522 O523 1.218 . S
O523 C522 1.218 . S
C524 O517 1.275 . S
C524 O519 1.255 . S
C525 O526 1.258 . S
C525 O527 1.256 . S
O526 Cd518 2.381 . S
O526 C525 1.258 . S
O527 Cd518 2.378 . S
O527 C525 1.256 . S
C489 C5 2.386 . S
C456 C18 1.703 . S
C469 C27 1.549 . S
C38 C480 1.727 . S
C51 C522 1.874 . S
C60 C502 1.727 . S
C513 C73 1.640 . S
C84 C445 1.737 . S
C95 C436 1.510 . S
C403 C104 1.529 . S
C115 C414 2.090 . S
C423 C126 2.072 . S
C368 C139 1.529 . S
C150 C379 2.090 . S
C390 C159 2.072 . S
C172 C359 1.510 . S
C348 C181 1.737 . S
C192 C282 1.703 . S
C205 C291 1.549 . S
C302 C216 1.727 . S
C225 C269 2.386 . S
C238 C324 1.727 . S
C337 C249 1.640 . S
C258 C315 1.874 . S
C170 C447 1.329 . S
C524 C137 1.160 . S
C500 C148 0.689 . S
C511 C161 1.175 . S
C458 C106 1.669 . S
C467 C117 1.122 . S
C128 C478 1.206 . S
C93 C491 1.137 . S
C271 C82 1.390 . S
C49 C280 0.612 . S
C293 C62 1.671 . S
C304 C71 1.516 . S
C16 C313 0.612 . S
C326 C29 1.671 . S
C40 C335 1.516 . S
C7 C346 1.390 . S
C227 C357 1.137 . S
C401 C260 1.160 . S
C412 C236 0.689 . S
C425 C247 1.175 . S
C183 C434 1.329 . S
C203 C381 1.122 . S
C214 C392 1.206 . S
C194 C370 1.669 . S
C107 C8 2.075 1_655 S
C19 C118 1.593 1_545 S
C30 C129 1.758 1_655 S
C96 C41 1.584 1_545 S
C52 C173 1.712 1_455 S
C140 C63 1.613 1_565 S
C74 C151 2.034 1_655 S
C85 C162 1.608 1_565 S
C206 C184 1.549 1_556 S
C195 C250 1.641 1_556 S
C261 C217 1.577 1_554 S
C239 C228 1.631 1_554 S
C371 C272 2.075 . S
C382 C283 1.593 . S
C393 C294 1.758 . S
C360 C305 1.584 . S
C437 C316 1.712 . S
C404 C327 1.613 . S
C415 C338 2.034 . S
C426 C349 1.608 . S
C470 C448 1.549 . S
C514 C459 1.641 . S
C481 C525 1.577 . S
C503 C492 1.631 . S
