# Generated by pormake.
# Topology unm, (4)-cn, num edge types: 1
# Building blocks:
#     Node 0, Type 0, BuildingBlock: NAHDIM_clean_sbu_0, # of connection points: 4
#     Node 1, Type 0, BuildingBlock: NAHDIM_clean_sbu_0, # of connection points: 4
#     Node 2, Type 0, BuildingBlock: NAHDIM_clean_sbu_0, # of connection points: 4
#     Node 3, Type 0, BuildingBlock: NAHDIM_clean_sbu_0, # of connection points: 4
#     Node 4, Type 0, BuildingBlock: NAHDIM_clean_sbu_0, # of connection points: 4
#     Node 5, Type 0, BuildingBlock: NAHDIM_clean_sbu_0, # of connection points: 4
#     Node 6, Type 0, BuildingBlock: NAHDIM_clean_sbu_0, # of connection points: 4
#     Node 7, Type 0, BuildingBlock: NAHDIM_clean_sbu_0, # of connection points: 4
#     Edge 8, Type (0, 0), BuildingBlock: XIVTED_clean_linker_0, # of connection points: 2
#     Edge 9, Type (0, 0), BuildingBlock: XIVTED_clean_linker_0, # of connection points: 2
#     Edge 10, Type (0, 0), BuildingBlock: XIVTED_clean_linker_0, # of connection points: 2
#     Edge 11, Type (0, 0), BuildingBlock: XIVTED_clean_linker_0, # of connection points: 2
#     Edge 12, Type (0, 0), BuildingBlock: XIVTED_clean_linker_0, # of connection points: 2
#     Edge 13, Type (0, 0), BuildingBlock: XIVTED_clean_linker_0, # of connection points: 2
#     Edge 14, Type (0, 0), BuildingBlock: XIVTED_clean_linker_0, # of connection points: 2
#     Edge 15, Type (0, 0), BuildingBlock: XIVTED_clean_linker_0, # of connection points: 2
#     Edge 16, Type (0, 0), BuildingBlock: XIVTED_clean_linker_0, # of connection points: 2
#     Edge 17, Type (0, 0), BuildingBlock: XIVTED_clean_linker_0, # of connection points: 2
#     Edge 18, Type (0, 0), BuildingBlock: XIVTED_clean_linker_0, # of connection points: 2
#     Edge 19, Type (0, 0), BuildingBlock: XIVTED_clean_linker_0, # of connection points: 2
#     Edge 20, Type (0, 0), BuildingBlock: XIVTED_clean_linker_0, # of connection points: 2
#     Edge 21, Type (0, 0), BuildingBlock: XIVTED_clean_linker_0, # of connection points: 2
#     Edge 22, Type (0, 0), BuildingBlock: XIVTED_clean_linker_0, # of connection points: 2
#     Edge 23, Type (0, 0), BuildingBlock: XIVTED_clean_linker_0, # of connection points: 2
# Relax obj value: 0.220
# Max RMSD: 0.179
# Mean RMSD: 0.179
data_MOF--net-unm--node1-NAHDIM_clean_sbu_0--edge1-XIVTED_clean_linker_0
_symmetry_space_group_name_H-M    P1
_symmetry_Int_Tables_number       1
_symmetry_cell_setting            triclinic
loop_
_symmetry_equiv_pos_as_xyz
'x, y, z'
_cell_length_a     26.458837
_cell_length_b     26.448558
_cell_length_c     42.145518
_cell_angle_alpha  89.941283
_cell_angle_beta   89.752768
_cell_angle_gamma 90.057008
loop_
_atom_site_label
_atom_site_type_symbol
_atom_site_fract_x
_atom_site_fract_y
_atom_site_fract_z
_atom_type_partial_charge
C0 C 0.15967 0.24838 0.20159 0.0
O1 O 0.12024 0.27602 0.20929 0.0
O2 O 0.03425 0.18408 0.19371 0.0
Zn3 Zn 0.08621 0.20579 0.16144 0.0
O4 O 0.09031 0.16008 0.12333 0.0
C5 C 0.0236 0.29343 0.14769 0.0
O6 O 0.98638 0.26468 0.15782 0.0
O7 O 0.15427 0.21274 0.18167 0.0
C8 C 0.06048 0.16725 0.10018 0.0
O9 O 0.02541 0.20215 0.10255 0.0
C10 C -0.00386 0.15713 0.18671 0.0
O11 O 0.99262 0.13814 0.15802 0.0
O12 O 0.0682 0.27575 0.14669 0.0
C13 C 0.22148 0.67383 0.6984 0.0
O14 O 0.18842 0.63752 0.70329 0.0
O15 O 0.28032 0.54275 0.68914 0.0
Zn16 Zn 0.26278 0.59821 0.65847 0.0
O17 O 0.30992 0.602 0.62102 0.0
C18 C 0.17521 0.53914 0.64167 0.0
O19 O 0.20387 0.50118 0.65053 0.0
O20 O 0.25923 0.66542 0.68041 0.0
C21 C 0.30711 0.56939 0.59896 0.0
O22 O 0.27543 0.53142 0.60193 0.0
C23 C 0.31534 0.51055 0.68513 0.0
O24 O 0.34646 0.51555 0.66097 0.0
O25 O 0.19286 0.58381 0.64242 0.0
C26 C 0.80748 0.73322 0.16513 0.0
O27 O 0.80866 0.7159 0.13592 0.0
O28 O 0.96867 0.77443 0.17853 0.0
Zn29 Zn 0.91049 0.75435 0.15078 0.0
O30 O 0.90326 0.79867 0.11223 0.0
C31 C 0.96612 0.66377 0.13518 0.0
O32 O 0.00553 0.69308 0.13972 0.0
O33 O 0.84679 0.75394 0.1765 0.0
C34 C 0.92904 0.78952 0.08738 0.0
O35 O 0.96154 0.75206 0.08759 0.0
C36 C 0.00583 0.80143 0.1696 0.0
O37 O 0.00534 0.82195 0.14122 0.0
O38 O 0.92198 0.68223 0.13768 0.0
C39 C 0.76318 0.34236 0.69703 0.0
O40 O 0.79295 0.38098 0.70294 0.0
O41 O 0.69789 0.46831 0.6859 0.0
Zn42 Zn 0.71989 0.41437 0.65527 0.0
O43 O 0.67371 0.40571 0.61796 0.0
C44 C 0.80625 0.47649 0.63718 0.0
O45 O 0.77616 0.51459 0.64366 0.0
O46 O 0.72676 0.34799 0.67778 0.0
C47 C 0.67941 0.43153 0.59274 0.0
O48 O 0.71378 0.46735 0.59188 0.0
C49 C 0.67426 0.50783 0.67743 0.0
O50 O 0.65904 0.51201 0.64793 0.0
O51 O 0.7897 0.43156 0.63969 0.0
C52 C 0.68776 0.23063 0.31486 0.0
O53 O 0.68557 0.22734 0.34595 0.0
O54 O 0.53007 0.2798 0.29251 0.0
Zn55 Zn 0.58215 0.25179 0.32209 0.0
O56 O 0.58947 0.294 0.36176 0.0
C57 C 0.5121 0.17366 0.34102 0.0
O58 O 0.48043 0.21168 0.34337 0.0
O59 O 0.64836 0.24293 0.29957 0.0
C60 C 0.58557 0.2729 0.38878 0.0
O61 O 0.5782 0.22389 0.39036 0.0
C62 C 0.49446 0.30834 0.30192 0.0
O63 O 0.49531 0.32586 0.33107 0.0
O64 O 0.55768 0.18205 0.33293 0.0
C65 C 0.26767 0.17351 0.7888 0.0
O66 O 0.30012 0.13695 0.78328 0.0
O67 O 0.20924 0.0428 0.79763 0.0
Zn68 Zn 0.22724 0.09743 0.82873 0.0
O69 O 0.18018 0.09963 0.86632 0.0
C70 C 0.31513 0.03789 0.84399 0.0
O71 O 0.28612 0.00028 0.83497 0.0
O72 O 0.23049 0.16518 0.80729 0.0
C73 C 0.18377 0.06644 0.88803 0.0
O74 O 0.21662 0.02963 0.88478 0.0
C75 C 0.17393 0.01078 0.80148 0.0
O76 O 0.14282 0.01565 0.82565 0.0
O77 O 0.29753 0.08258 0.84409 0.0
C78 C 0.33715 0.74688 0.2771 0.0
O79 O 0.37803 0.77158 0.26838 0.0
O80 O 0.4609 0.68566 0.29362 0.0
Zn81 Zn 0.40625 0.71144 0.32265 0.0
O82 O 0.40044 0.67119 0.36323 0.0
C83 C 0.39573 0.81533 0.34374 0.0
O84 O 0.34817 0.80312 0.34854 0.0
O85 O 0.33985 0.71574 0.30002 0.0
C86 C 0.42331 0.68674 0.38788 0.0
O87 O 0.45113 0.72779 0.38608 0.0
C88 C 0.50534 0.68513 0.30491 0.0
O89 O 0.51158 0.69539 0.33511 0.0
O90 O 0.42628 0.78235 0.33318 0.0
C91 C 0.74822 0.81139 0.80943 0.0
O92 O 0.74203 0.81234 0.84038 0.0
O93 O 0.79081 0.97232 0.79252 0.0
Zn94 Zn 0.7703 0.91459 0.82074 0.0
O95 O 0.81702 0.90356 0.85761 0.0
C96 C 0.68405 0.97468 0.84008 0.0
O97 O 0.71385 0.01296 0.83326 0.0
O98 O 0.76295 0.85121 0.79524 0.0
C99 C 0.81249 0.93086 0.88225 0.0
O100 O 0.77946 0.96787 0.88235 0.0
C101 C 0.82167 0.00717 0.79988 0.0
O102 O 0.84663 0.00409 0.82668 0.0
O103 O 0.70063 0.92984 0.83722 0.0
H104 H 0.12719 0.09082 0.08694 0.0
H105 H 0.10702 0.1326 0.90123 0.0
H106 H 0.01397 0.18559 0.0436 0.0
H107 H 0.1964 0.0138 0.94327 0.0
H108 H 0.06817 0.14846 0.95293 0.0
H109 H 0.14891 0.05755 0.03458 0.0
C110 C 0.10648 0.10417 0.06647 0.0
C111 C 0.06921 0.14155 0.06958 0.0
C112 C 0.09581 0.11848 0.95077 0.0
C113 C 0.09417 0.10405 0.00962 0.0
C114 C 0.11808 0.1095 0.92127 0.0
C115 C 0.15546 0.07228 0.91804 0.0
C116 C 0.11153 0.09049 0.9773 0.0
C117 C 0.16801 0.04316 0.94473 0.0
C118 C 0.11884 0.08512 0.03658 0.0
C119 C 0.0433 0.15715 0.04229 0.0
N120 N 0.1466 0.05336 0.97335 0.0
N121 N 0.05676 0.13885 0.01339 0.0
H122 H 0.29783 0.51594 0.54373 0.0
H123 H 0.4649 0.71264 0.44472 0.0
H124 H 0.37775 0.64188 0.58517 0.0
H125 H 0.3644 0.604 0.4017 0.0
H126 H 0.44557 0.6767 0.49663 0.0
H127 H 0.33441 0.53735 0.49211 0.0
C128 C 0.32359 0.54769 0.54208 0.0
C129 C 0.33422 0.57763 0.56871 0.0
C130 C 0.42804 0.66044 0.47582 0.0
C131 C 0.376 0.60233 0.50974 0.0
C132 C 0.43906 0.68092 0.44614 0.0
C133 C 0.41567 0.66173 0.41886 0.0
C134 C 0.39333 0.62048 0.47831 0.0
C135 C 0.38291 0.62028 0.42215 0.0
C136 C 0.34432 0.55995 0.51257 0.0
C137 C 0.36805 0.61813 0.5652 0.0
N138 N 0.37235 0.60129 0.45141 0.0
N139 N 0.3874 0.62955 0.53618 0.0
H140 H 0.86794 0.87194 0.07888 0.0
H141 H 0.88459 0.85782 0.89055 0.0
H142 H 0.969 0.77176 0.02854 0.0
H143 H 0.80131 0.97297 0.94105 0.0
H144 H 0.92067 0.82959 0.94076 0.0
H145 H 0.84738 0.91323 0.02872 0.0
C146 C 0.88612 0.8589 0.05732 0.0
C147 C 0.91981 0.81799 0.05784 0.0
C148 C 0.89494 0.8614 0.94082 0.0
C149 C 0.89625 0.86484 0.00036 0.0
C150 C 0.87432 0.87752 0.91215 0.0
C151 C 0.83944 0.91742 0.91166 0.0
C152 C 0.8802 0.88505 0.96922 0.0
C153 C 0.82776 0.94179 0.94033 0.0
C154 C 0.87444 0.88254 0.02869 0.0
C155 C 0.94253 0.80293 0.02922 0.0
N156 N 0.84764 0.92482 0.968 0.0
N157 N 0.92992 0.82601 0.00159 0.0
H158 H 0.6171 0.37124 0.3957 0.0
H159 H 0.61127 0.35469 0.58513 0.0
H160 H 0.56494 0.24171 0.44904 0.0
H161 H 0.68876 0.47274 0.53334 0.0
H162 H 0.57932 0.32146 0.53515 0.0
H163 H 0.63007 0.41667 0.44567 0.0
C164 C 0.60801 0.35253 0.41788 0.0
C165 C 0.59054 0.30242 0.41827 0.0
C166 C 0.60291 0.35494 0.53473 0.0
C167 C 0.60495 0.35409 0.47529 0.0
C168 C 0.62105 0.37405 0.56329 0.0
C169 C 0.65343 0.41608 0.56337 0.0
C170 C 0.6173 0.37793 0.50603 0.0
C171 C 0.66439 0.43988 0.53435 0.0
C172 C 0.61543 0.37844 0.44635 0.0
C173 C 0.5791 0.28006 0.44763 0.0
N174 N 0.64681 0.42012 0.50677 0.0
N175 N 0.58675 0.30596 0.47494 0.0
H176 H 0.25103 0.20768 0.18479 0.0
H177 H 0.40588 0.35661 0.31702 0.0
H178 H 0.18311 0.31769 0.2474 0.0
H179 H 0.4755 0.26477 0.24434 0.0
H180 H 0.32456 0.34663 0.29045 0.0
H181 H 0.33397 0.22982 0.20578 0.0
C182 C 0.25353 0.23642 0.20301 0.0
C183 C 0.21003 0.26065 0.2145 0.0
C184 C 0.35777 0.3292 0.28012 0.0
C185 C 0.30494 0.2864 0.23855 0.0
C186 C 0.40428 0.33506 0.29521 0.0
C187 C 0.44749 0.31098 0.28312 0.0
C188 C 0.35445 0.29873 0.25292 0.0
C189 C 0.44314 0.28367 0.2547 0.0
C190 C 0.30096 0.24929 0.21485 0.0
C191 C 0.21562 0.29789 0.23794 0.0
N192 N 0.39734 0.27776 0.24081 0.0
N193 N 0.26219 0.30944 0.24932 0.0
H194 H 0.27821 0.75941 0.6895 0.0
H195 H 0.11085 0.92878 0.80675 0.0
H196 H 0.14537 0.704 0.73827 0.0
H197 H 0.23831 0.98551 0.75312 0.0
H198 H 0.11992 0.84737 0.77992 0.0
H199 H 0.26245 0.84328 0.7115 0.0
C200 C 0.24579 0.76483 0.7049 0.0
C201 C 0.21319 0.72455 0.71216 0.0
C202 C 0.14561 0.87779 0.77383 0.0
C203 C 0.19474 0.82062 0.73732 0.0
C204 C 0.14032 0.92437 0.78906 0.0
C205 C 0.1741 0.96394 0.78237 0.0
C206 C 0.18509 0.87071 0.75188 0.0
C207 C 0.21154 0.95603 0.75918 0.0
C208 C 0.23667 0.81282 0.71735 0.0
C209 C 0.17161 0.73391 0.73211 0.0
N210 N 0.21628 0.91022 0.745 0.0
N211 N 0.16365 0.78094 0.74406 0.0
H212 H 0.50743 0.67431 0.24003 0.0
H213 H 0.79887 0.74906 0.22893 0.0
H214 H 0.60464 0.69136 0.32139 0.0
H215 H 0.71435 0.69722 0.14778 0.0
H216 H 0.72608 0.73114 0.2627 0.0
H217 H 0.58142 0.6831 0.20531 0.0
C218 C 0.54435 0.67919 0.25061 0.0
C219 C 0.5498 0.68255 0.28367 0.0
C220 C 0.72341 0.72356 0.23752 0.0
C221 C 0.6342 0.6934 0.24415 0.0
C222 C 0.76489 0.73412 0.21817 0.0
C223 C 0.76267 0.72471 0.18546 0.0
C224 C 0.6791 0.70383 0.22409 0.0
C225 C 0.71768 0.70506 0.17289 0.0
C226 C 0.5865 0.68437 0.23078 0.0
C227 C 0.59853 0.68889 0.29605 0.0
N228 N 0.67753 0.69542 0.19223 0.0
N229 N 0.63871 0.69462 0.27629 0.0
H230 H 0.71614 0.25249 0.68446 0.0
H231 H 0.8737 0.09489 0.81196 0.0
H232 H 0.83504 0.31796 0.74105 0.0
H233 H 0.76848 0.02815 0.74604 0.0
H234 H 0.86269 0.17643 0.78541 0.0
H235 H 0.7358 0.16974 0.70675 0.0
C236 C 0.74631 0.2495 0.70166 0.0
C237 C 0.77384 0.29227 0.71101 0.0
C238 C 0.84242 0.14379 0.77659 0.0
C239 C 0.79676 0.19746 0.73655 0.0
C240 C 0.84884 0.09718 0.79166 0.0
C241 C 0.82163 0.0547 0.7814 0.0
C242 C 0.80836 0.14791 0.75124 0.0
C243 C 0.78998 0.05991 0.75494 0.0
C244 C 0.75771 0.20215 0.71426 0.0
C245 C 0.81274 0.28602 0.73323 0.0
N246 N 0.78387 0.10574 0.741 0.0
N247 N 0.82293 0.2395 0.74534 0.0
H248 H 0.7832 0.21868 0.33876 0.0
H249 H 0.8997 0.12702 0.17328 0.0
H250 H 0.698 0.20905 0.25184 0.0
H251 H 0.99143 0.18762 0.24876 0.0
H252 H 0.82452 0.14023 0.20603 0.0
H253 H 0.85928 0.19293 0.30954 0.0
C254 C 0.7805 0.21116 0.31357 0.0
C255 C 0.73432 0.21636 0.29764 0.0
C256 C 0.86118 0.15018 0.21551 0.0
C257 C 0.82069 0.18615 0.26436 0.0
C258 C 0.90418 0.14229 0.19693 0.0
C259 C 0.95187 0.15674 0.20818 0.0
C260 C 0.86596 0.17224 0.24562 0.0
C261 C 0.95531 0.17637 0.23905 0.0
C262 C 0.82384 0.19644 0.29697 0.0
C263 C 0.7329 0.20599 0.26501 0.0
N264 N 0.91284 0.18384 0.25667 0.0
N265 N 0.77542 0.19123 0.24948 0.0
H266 H 0.37782 0.42828 0.67956 0.0
H267 H 0.21187 0.25941 0.79839 0.0
H268 H 0.25122 0.48528 0.7337 0.0
H269 H 0.34288 0.20345 0.74813 0.0
H270 H 0.22758 0.34327 0.77615 0.0
H271 H 0.3687 0.34688 0.70652 0.0
C272 C 0.34852 0.42392 0.69738 0.0
C273 C 0.31501 0.46358 0.70419 0.0
C274 C 0.25297 0.31268 0.77002 0.0
C275 C 0.30397 0.37035 0.73484 0.0
C276 C 0.24388 0.26471 0.78262 0.0
C277 C 0.27597 0.22427 0.775 0.0
C278 C 0.29436 0.3203 0.74957 0.0
C279 C 0.31704 0.23347 0.75458 0.0
C280 C 0.3432 0.37735 0.71268 0.0
C281 C 0.27777 0.45573 0.72754 0.0
N282 N 0.32498 0.28047 0.74251 0.0
N283 N 0.27301 0.40993 0.74181 0.0
H284 H 0.31891 0.80977 0.22686 0.0
H285 H 0.02108 0.75768 0.22759 0.0
H286 H 0.2437 0.70977 0.29297 0.0
H287 H 0.0974 0.84438 0.15487 0.0
H288 H 0.10122 0.74772 0.25516 0.0
H289 H 0.2373 0.82915 0.20288 0.0
C290 C 0.28526 0.79179 0.23631 0.0
C291 C 0.28818 0.75785 0.26186 0.0
C292 C 0.10042 0.76923 0.23329 0.0
C293 C 0.19461 0.78023 0.23466 0.0
C294 C 0.05458 0.77516 0.21758 0.0
C295 C 0.05257 0.80154 0.18868 0.0
C296 C 0.14468 0.78977 0.22005 0.0
C297 C 0.09721 0.82353 0.17698 0.0
C298 C 0.23866 0.80299 0.22264 0.0
C299 C 0.24329 0.73591 0.27319 0.0
N300 N 0.14155 0.81681 0.1926 0.0
N301 N 0.19838 0.74747 0.2595 0.0
H302 H 0.65395 0.60615 0.66188 0.0
H303 H 0.72906 0.71611 0.83192 0.0
H304 H 0.69571 0.51107 0.74087 0.0
H305 H 0.73471 0.80339 0.74535 0.0
H306 H 0.70342 0.64198 0.80114 0.0
H307 H 0.66778 0.6806 0.69504 0.0
C308 C 0.66519 0.60086 0.68635 0.0
C309 C 0.67414 0.55234 0.69855 0.0
C310 C 0.71028 0.67741 0.78895 0.0
C311 C 0.69039 0.63733 0.73646 0.0
C312 C 0.72497 0.71967 0.80646 0.0
C313 C 0.73435 0.76589 0.79114 0.0
C314 C 0.70432 0.68162 0.75597 0.0
C315 C 0.7283 0.76841 0.7581 0.0
C316 C 0.67347 0.64339 0.70516 0.0
C317 C 0.68877 0.54782 0.73042 0.0
N318 N 0.71352 0.72688 0.74164 0.0
N319 N 0.69671 0.58982 0.74825 0.0
H320 H 0.89303 0.5907 0.1314 0.0
H321 H 0.09306 0.36456 0.12961 0.0
H322 H 0.05478 0.61212 0.1276 0.0
H323 H 0.93337 0.34399 0.14698 0.0
H324 H 0.0782 0.45439 0.12049 0.0
H325 H 0.90587 0.49938 0.12868 0.0
C326 C 0.93123 0.57624 0.12966 0.0
C327 C 0.97296 0.60903 0.1301 0.0
C328 C 0.04636 0.43016 0.12608 0.0
C329 C 0.98784 0.50467 0.12709 0.0
C330 C 0.05478 0.37884 0.13126 0.0
C331 C 0.01444 0.34683 0.13942 0.0
C332 C -0.00276 0.44964 0.12906 0.0
C333 C 0.96564 0.36738 0.14103 0.0
C334 C 0.93851 0.5241 0.12818 0.0
C335 C 0.02155 0.58822 0.12764 0.0
N336 N 0.95844 0.41761 0.13611 0.0
N337 N 0.02767 0.53731 0.12647 0.0
H338 H 0.87992 0.40599 0.62657 0.0
H339 H 0.1027 0.60989 0.62872 0.0
H340 H 0.85548 0.5672 0.63182 0.0
H341 H 0.1259 0.44872 0.63625 0.0
H342 H 0.01256 0.59487 0.62079 0.0
H343 H 0.97044 0.42119 0.62093 0.0
C344 C 0.89352 0.44463 0.62621 0.0
C345 C 0.86017 0.4854 0.6301 0.0
C346 C 0.03746 0.56279 0.6239 0.0
C347 C 0.96376 0.50299 0.62379 0.0
C348 C 0.08894 0.57131 0.62838 0.0
C349 C 0.12175 0.53049 0.63355 0.0
C350 C 0.01872 0.51313 0.62457 0.0
C351 C 0.10188 0.48133 0.63269 0.0
C352 C 0.94524 0.45326 0.62304 0.0
C353 C 0.87989 0.53464 0.62922 0.0
N354 N 0.05156 0.47404 0.62856 0.0
N355 N 0.93051 0.54205 0.62643 0.0
H356 H 0.41609 0.14086 0.35457 0.0
H357 H 0.49284 0.8496 0.34186 0.0
H358 H 0.56856 0.08734 0.33992 0.0
H359 H 0.33933 0.89997 0.35665 0.0
H360 H 0.52163 0.93672 0.34575 0.0
H361 H 0.38764 0.05323 0.35992 0.0
C362 C 0.44363 0.11074 0.3527 0.0
C363 C 0.4947 0.12138 0.34651 0.0
C364 C 0.48166 0.92882 0.34834 0.0
C365 C 0.46244 0.02125 0.35254 0.0
C366 C 0.46515 0.87902 0.34609 0.0
C367 C 0.41352 0.86758 0.34863 0.0
C368 C 0.4463 0.96767 0.35297 0.0
C369 C 0.37947 0.90718 0.35441 0.0
C370 C 0.42736 0.06075 0.35575 0.0
C371 C 0.52876 0.08091 0.34443 0.0
N372 N 0.39644 0.95563 0.35613 0.0
N373 N 0.51195 0.03267 0.34726 0.0
H374 H 0.38856 0.10817 0.85623 0.0
H375 H 0.61071 0.90394 0.85161 0.0
H376 H 0.36434 0.94727 0.8476 0.0
H377 H 0.6353 0.06524 0.84698 0.0
H378 H 0.52055 0.91908 0.85933 0.0
H379 H 0.47906 0.09278 0.86201 0.0
C380 C 0.40219 0.06956 0.85589 0.0
C381 C 0.36895 0.02895 0.85103 0.0
C382 C 0.54573 0.95117 0.85689 0.0
C383 C 0.47238 0.01117 0.85752 0.0
C384 C 0.59724 0.94257 0.85252 0.0
C385 C 0.63048 0.9834 0.84822 0.0
C386 C 0.52733 0.00094 0.85694 0.0
C387 C 0.61095 0.03263 0.84987 0.0
C388 C 0.45387 0.06083 0.85913 0.0
C389 C 0.38867 0.97974 0.85096 0.0
N390 N 0.56054 0.04002 0.85383 0.0
N391 N 0.43918 0.97225 0.85389 0.0
loop_
_geom_bond_atom_site_label_1
_geom_bond_atom_site_label_2
_geom_bond_distance
_geom_bond_site_symmetry_2
_ccdc_geom_bond_type
C0 O1 1.160 . S
C0 O7 1.185 . S
O1 C0 1.160 . S
O2 Zn3 1.899 . S
O2 C10 1.284 . S
Zn3 O2 1.899 . S
Zn3 O4 2.032 . S
Zn3 O7 2.086 . S
Zn3 O12 1.977 . S
O4 Zn3 2.032 . S
O4 C8 1.278 . S
C5 O6 1.203 . S
C5 O12 1.267 . S
O6 C5 1.203 . S
O7 C0 1.185 . S
O7 Zn3 2.086 . S
C8 O4 1.278 . S
C8 O9 1.211 . S
O9 C8 1.211 . S
C10 O2 1.284 . S
C10 O11 1.273 . S
O11 C10 1.273 . S
O12 Zn3 1.977 . S
O12 C5 1.267 . S
C13 O14 1.160 . S
C13 O20 1.185 . S
O14 C13 1.160 . S
O15 Zn16 1.899 . S
O15 C23 1.284 . S
Zn16 O15 1.899 . S
Zn16 O17 2.032 . S
Zn16 O20 2.086 . S
Zn16 O25 1.977 . S
O17 Zn16 2.032 . S
O17 C21 1.278 . S
C18 O19 1.203 . S
C18 O25 1.267 . S
O19 C18 1.203 . S
O20 C13 1.185 . S
O20 Zn16 2.086 . S
C21 O17 1.278 . S
C21 O22 1.211 . S
O22 C21 1.211 . S
C23 O15 1.284 . S
C23 O24 1.273 . S
O24 C23 1.273 . S
O25 Zn16 1.977 . S
O25 C18 1.267 . S
C26 O27 1.160 . S
C26 O33 1.185 . S
O27 C26 1.160 . S
O28 Zn29 1.899 . S
O28 C36 1.284 . S
Zn29 O28 1.899 . S
Zn29 O30 2.032 . S
Zn29 O33 2.086 . S
Zn29 O38 1.977 . S
O30 Zn29 2.032 . S
O30 C34 1.278 . S
C31 O32 1.203 . S
C31 O38 1.267 . S
O32 C31 1.203 . S
O33 C26 1.185 . S
O33 Zn29 2.086 . S
C34 O30 1.278 . S
C34 O35 1.211 . S
O35 C34 1.211 . S
C36 O28 1.284 . S
C36 O37 1.273 . S
O37 C36 1.273 . S
O38 Zn29 1.977 . S
O38 C31 1.267 . S
C39 O40 1.160 . S
C39 O46 1.185 . S
O40 C39 1.160 . S
O41 Zn42 1.899 . S
O41 C49 1.284 . S
Zn42 O41 1.899 . S
Zn42 O43 2.032 . S
Zn42 O46 2.086 . S
Zn42 O51 1.977 . S
O43 Zn42 2.032 . S
O43 C47 1.278 . S
C44 O45 1.203 . S
C44 O51 1.267 . S
O45 C44 1.203 . S
O46 C39 1.185 . S
O46 Zn42 2.086 . S
C47 O43 1.278 . S
C47 O48 1.211 . S
O48 C47 1.211 . S
C49 O41 1.284 . S
C49 O50 1.273 . S
O50 C49 1.273 . S
O51 Zn42 1.977 . S
O51 C44 1.267 . S
C52 O53 1.160 . S
C52 O59 1.185 . S
O53 C52 1.160 . S
O54 Zn55 1.899 . S
O54 C62 1.284 . S
Zn55 O54 1.899 . S
Zn55 O56 2.032 . S
Zn55 O59 2.086 . S
Zn55 O64 1.977 . S
O56 Zn55 2.032 . S
O56 C60 1.278 . S
C57 O58 1.203 . S
C57 O64 1.267 . S
O58 C57 1.203 . S
O59 C52 1.185 . S
O59 Zn55 2.086 . S
C60 O56 1.278 . S
C60 O61 1.211 . S
O61 C60 1.211 . S
C62 O54 1.284 . S
C62 O63 1.273 . S
O63 C62 1.273 . S
O64 Zn55 1.977 . S
O64 C57 1.267 . S
C65 O66 1.160 . S
C65 O72 1.185 . S
O66 C65 1.160 . S
O67 Zn68 1.899 . S
O67 C75 1.284 . S
Zn68 O67 1.899 . S
Zn68 O69 2.032 . S
Zn68 O72 2.086 . S
Zn68 O77 1.977 . S
O69 Zn68 2.032 . S
O69 C73 1.278 . S
C70 O71 1.203 . S
C70 O77 1.267 . S
O71 C70 1.203 . S
O72 C65 1.185 . S
O72 Zn68 2.086 . S
C73 O69 1.278 . S
C73 O74 1.211 . S
O74 C73 1.211 . S
C75 O67 1.284 . S
C75 O76 1.273 . S
O76 C75 1.273 . S
O77 Zn68 1.977 . S
O77 C70 1.267 . S
C78 O79 1.160 . S
C78 O85 1.185 . S
O79 C78 1.160 . S
O80 Zn81 1.899 . S
O80 C88 1.284 . S
Zn81 O80 1.899 . S
Zn81 O82 2.032 . S
Zn81 O85 2.086 . S
Zn81 O90 1.977 . S
O82 Zn81 2.032 . S
O82 C86 1.278 . S
C83 O84 1.203 . S
C83 O90 1.267 . S
O84 C83 1.203 . S
O85 C78 1.185 . S
O85 Zn81 2.086 . S
C86 O82 1.278 . S
C86 O87 1.211 . S
O87 C86 1.211 . S
C88 O80 1.284 . S
C88 O89 1.273 . S
O89 C88 1.273 . S
O90 Zn81 1.977 . S
O90 C83 1.267 . S
C91 O92 1.160 . S
C91 O98 1.185 . S
O92 C91 1.160 . S
O93 Zn94 1.899 . S
O93 C101 1.284 . S
Zn94 O93 1.899 . S
Zn94 O95 2.032 . S
Zn94 O98 2.086 . S
Zn94 O103 1.977 . S
O95 Zn94 2.032 . S
O95 C99 1.278 . S
C96 O97 1.203 . S
C96 O103 1.267 . S
O97 C96 1.203 . S
O98 C91 1.185 . S
O98 Zn94 2.086 . S
C99 O95 1.278 . S
C99 O100 1.211 . S
O100 C99 1.211 . S
C101 O93 1.284 . S
C101 O102 1.273 . S
O102 C101 1.273 . S
O103 Zn94 1.977 . S
O103 C96 1.267 . S
H104 C110 0.930 . S
H105 C114 0.930 . S
H106 C119 0.929 . S
H107 C117 0.929 . S
H108 C112 0.929 . S
H109 C118 0.929 . S
C110 H104 0.930 . S
C110 C111 1.367 . S
C110 C118 1.378 . S
C111 C110 1.367 . S
C111 C119 1.433 . S
C112 H108 0.929 . S
C112 C114 1.378 . S
C112 C116 1.350 . S
C113 C116 1.463 1_554 S
C113 C118 1.350 . S
C113 N121 1.427 . S
C114 H105 0.930 . S
C114 C112 1.378 . S
C114 C115 1.367 . S
C115 C114 1.367 . S
C115 C117 1.433 . S
C116 C112 1.350 . S
C116 C113 1.463 1_556 S
C116 N120 1.427 . S
C117 H107 0.929 . S
C117 C115 1.433 . S
C117 N120 1.384 . S
C118 H109 0.929 . S
C118 C110 1.378 . S
C118 C113 1.350 . S
C119 H106 0.929 . S
C119 C111 1.433 . S
C119 N121 1.384 . S
N120 C116 1.427 . S
N120 C117 1.384 . S
N121 C113 1.427 . S
N121 C119 1.384 . S
H122 C128 0.930 . S
H123 C132 0.930 . S
H124 C137 0.929 . S
H125 C135 0.929 . S
H126 C130 0.929 . S
H127 C136 0.929 . S
C128 H122 0.930 . S
C128 C129 1.367 . S
C128 C136 1.378 . S
C129 C128 1.367 . S
C129 C137 1.433 . S
C130 H126 0.929 . S
C130 C132 1.378 . S
C130 C134 1.350 . S
C131 C134 1.463 . S
C131 C136 1.350 . S
C131 N139 1.427 . S
C132 H123 0.930 . S
C132 C130 1.378 . S
C132 C133 1.367 . S
C133 C132 1.367 . S
C133 C135 1.433 . S
C134 C130 1.350 . S
C134 C131 1.463 . S
C134 N138 1.427 . S
C135 H125 0.929 . S
C135 C133 1.433 . S
C135 N138 1.384 . S
C136 H127 0.929 . S
C136 C128 1.378 . S
C136 C131 1.350 . S
C137 H124 0.929 . S
C137 C129 1.433 . S
C137 N139 1.384 . S
N138 C134 1.427 . S
N138 C135 1.384 . S
N139 C131 1.427 . S
N139 C137 1.384 . S
H140 C146 0.930 . S
H141 C150 0.930 . S
H142 C155 0.929 . S
H143 C153 0.929 . S
H144 C148 0.929 . S
H145 C154 0.929 . S
C146 H140 0.930 . S
C146 C147 1.367 . S
C146 C154 1.378 . S
C147 C146 1.367 . S
C147 C155 1.433 . S
C148 H144 0.929 . S
C148 C150 1.378 . S
C148 C152 1.350 . S
C149 C152 1.463 1_554 S
C149 C154 1.350 . S
C149 N157 1.427 . S
C150 H141 0.930 . S
C150 C148 1.378 . S
C150 C151 1.367 . S
C151 C150 1.367 . S
C151 C153 1.433 . S
C152 C148 1.350 . S
C152 C149 1.463 1_556 S
C152 N156 1.427 . S
C153 H143 0.929 . S
C153 C151 1.433 . S
C153 N156 1.384 . S
C154 H145 0.929 . S
C154 C146 1.378 . S
C154 C149 1.350 . S
C155 H142 0.929 . S
C155 C147 1.433 . S
C155 N157 1.384 . S
N156 C152 1.427 . S
N156 C153 1.384 . S
N157 C149 1.427 . S
N157 C155 1.384 . S
H158 C164 0.930 . S
H159 C168 0.930 . S
H160 C173 0.929 . S
H161 C171 0.929 . S
H162 C166 0.929 . S
H163 C172 0.929 . S
C164 H158 0.930 . S
C164 C165 1.367 . S
C164 C172 1.378 . S
C165 C164 1.367 . S
C165 C173 1.433 . S
C166 H162 0.929 . S
C166 C168 1.378 . S
C166 C170 1.350 . S
C167 C170 1.463 . S
C167 C172 1.350 . S
C167 N175 1.427 . S
C168 H159 0.930 . S
C168 C166 1.378 . S
C168 C169 1.367 . S
C169 C168 1.367 . S
C169 C171 1.433 . S
C170 C166 1.350 . S
C170 C167 1.463 . S
C170 N174 1.427 . S
C171 H161 0.929 . S
C171 C169 1.433 . S
C171 N174 1.384 . S
C172 H163 0.929 . S
C172 C164 1.378 . S
C172 C167 1.350 . S
C173 H160 0.929 . S
C173 C165 1.433 . S
C173 N175 1.384 . S
N174 C170 1.427 . S
N174 C171 1.384 . S
N175 C167 1.427 . S
N175 C173 1.384 . S
H176 C182 0.930 . S
H177 C186 0.930 . S
H178 C191 0.929 . S
H179 C189 0.929 . S
H180 C184 0.929 . S
H181 C190 0.929 . S
C182 H176 0.930 . S
C182 C183 1.367 . S
C182 C190 1.378 . S
C183 C182 1.367 . S
C183 C191 1.433 . S
C184 H180 0.929 . S
C184 C186 1.378 . S
C184 C188 1.350 . S
C185 C188 1.463 . S
C185 C190 1.350 . S
C185 N193 1.427 . S
C186 H177 0.930 . S
C186 C184 1.378 . S
C186 C187 1.367 . S
C187 C186 1.367 . S
C187 C189 1.433 . S
C188 C184 1.350 . S
C188 C185 1.463 . S
C188 N192 1.427 . S
C189 H179 0.929 . S
C189 C187 1.433 . S
C189 N192 1.384 . S
C190 H181 0.929 . S
C190 C182 1.378 . S
C190 C185 1.350 . S
C191 H178 0.929 . S
C191 C183 1.433 . S
C191 N193 1.384 . S
N192 C188 1.427 . S
N192 C189 1.384 . S
N193 C185 1.427 . S
N193 C191 1.384 . S
H194 C200 0.930 . S
H195 C204 0.930 . S
H196 C209 0.929 . S
H197 C207 0.941 . S
H198 C202 0.929 . S
H199 C208 0.929 . S
C200 H194 0.930 . S
C200 C201 1.367 . S
C200 C208 1.378 . S
C201 C200 1.367 . S
C201 C209 1.433 . S
C202 H198 0.929 . S
C202 C204 1.378 . S
C202 C206 1.350 . S
C203 C206 1.463 . S
C203 C208 1.350 . S
C203 N211 1.427 . S
C204 H195 0.930 . S
C204 C202 1.378 . S
C204 C205 1.367 . S
C205 C204 1.367 . S
C205 C207 1.433 . S
C206 C202 1.350 . S
C206 C203 1.463 . S
C206 N210 1.427 . S
C207 H197 0.941 . S
C207 C205 1.433 . S
C207 N210 1.384 . S
C208 H199 0.929 . S
C208 C200 1.378 . S
C208 C203 1.350 . S
C209 H196 0.929 . S
C209 C201 1.433 . S
C209 N211 1.384 . S
N210 C206 1.427 . S
N210 C207 1.384 . S
N211 C203 1.427 . S
N211 C209 1.384 . S
H212 C218 0.930 . S
H213 C222 0.930 . S
H214 C227 0.929 . S
H215 C225 0.929 . S
H216 C220 0.929 . S
H217 C226 0.929 . S
C218 H212 0.930 . S
C218 C219 1.367 . S
C218 C226 1.378 . S
C219 C218 1.367 . S
C219 C227 1.433 . S
C220 H216 0.929 . S
C220 C222 1.378 . S
C220 C224 1.350 . S
C221 C224 1.463 . S
C221 C226 1.350 . S
C221 N229 1.427 . S
C222 H213 0.930 . S
C222 C220 1.378 . S
C222 C223 1.367 . S
C223 C222 1.367 . S
C223 C225 1.433 . S
C224 C220 1.350 . S
C224 C221 1.463 . S
C224 N228 1.427 . S
C225 H215 0.929 . S
C225 C223 1.433 . S
C225 N228 1.384 . S
C226 H217 0.929 . S
C226 C218 1.378 . S
C226 C221 1.350 . S
C227 H214 0.929 . S
C227 C219 1.433 . S
C227 N229 1.384 . S
N228 C224 1.427 . S
N228 C225 1.384 . S
N229 C221 1.427 . S
N229 C227 1.384 . S
H230 C236 0.930 . S
H231 C240 0.930 . S
H232 C245 0.929 . S
H233 C243 0.929 1_565 S
H234 C238 0.929 . S
H235 C244 0.929 . S
C236 H230 0.930 . S
C236 C237 1.367 . S
C236 C244 1.378 . S
C237 C236 1.367 . S
C237 C245 1.433 . S
C238 H234 0.929 . S
C238 C240 1.378 . S
C238 C242 1.350 . S
C239 C242 1.463 . S
C239 C244 1.350 . S
C239 N247 1.427 . S
C240 H231 0.930 . S
C240 C238 1.378 . S
C240 C241 1.367 . S
C241 C240 1.367 . S
C241 C243 1.433 . S
C242 C238 1.350 . S
C242 C239 1.463 . S
C242 N246 1.427 . S
C243 H233 0.929 1_545 S
C243 C241 1.433 . S
C243 N246 1.384 . S
C244 H235 0.929 . S
C244 C236 1.378 . S
C244 C239 1.350 . S
C245 H232 0.929 . S
C245 C237 1.433 . S
C245 N247 1.384 . S
N246 C242 1.427 . S
N246 C243 1.384 . S
N247 C239 1.427 . S
N247 C245 1.384 . S
H248 C254 0.930 . S
H249 C258 0.930 . S
H250 C263 0.929 . S
H251 C261 0.929 . S
H252 C256 0.929 . S
H253 C262 0.929 . S
C254 H248 0.930 . S
C254 C255 1.367 . S
C254 C262 1.378 . S
C255 C254 1.367 . S
C255 C263 1.433 . S
C256 H252 0.929 . S
C256 C258 1.378 . S
C256 C260 1.350 . S
C257 C260 1.463 . S
C257 C262 1.350 . S
C257 N265 1.427 . S
C258 H249 0.930 . S
C258 C256 1.378 . S
C258 C259 1.367 . S
C259 C258 1.367 . S
C259 C261 1.433 . S
C260 C256 1.350 . S
C260 C257 1.463 . S
C260 N264 1.427 . S
C261 H251 0.929 . S
C261 C259 1.433 . S
C261 N264 1.384 . S
C262 H253 0.929 . S
C262 C254 1.378 . S
C262 C257 1.350 . S
C263 H250 0.929 . S
C263 C255 1.433 . S
C263 N265 1.384 . S
N264 C260 1.427 . S
N264 C261 1.384 . S
N265 C257 1.427 . S
N265 C263 1.384 . S
H266 C272 0.930 . S
H267 C276 0.930 . S
H268 C281 0.929 . S
H269 C279 0.929 . S
H270 C274 0.929 . S
H271 C280 0.929 . S
C272 H266 0.930 . S
C272 C273 1.367 . S
C272 C280 1.378 . S
C273 C272 1.367 . S
C273 C281 1.433 . S
C274 H270 0.929 . S
C274 C276 1.378 . S
C274 C278 1.350 . S
C275 C278 1.463 . S
C275 C280 1.350 . S
C275 N283 1.427 . S
C276 H267 0.930 . S
C276 C274 1.378 . S
C276 C277 1.367 . S
C277 C276 1.367 . S
C277 C279 1.433 . S
C278 C274 1.350 . S
C278 C275 1.463 . S
C278 N282 1.427 . S
C279 H269 0.929 . S
C279 C277 1.433 . S
C279 N282 1.384 . S
C280 H271 0.929 . S
C280 C272 1.378 . S
C280 C275 1.350 . S
C281 H268 0.929 . S
C281 C273 1.433 . S
C281 N283 1.384 . S
N282 C278 1.427 . S
N282 C279 1.384 . S
N283 C275 1.427 . S
N283 C281 1.384 . S
H284 C290 0.930 . S
H285 C294 0.945 . S
H286 C299 0.929 . S
H287 C297 0.929 . S
H288 C292 0.929 . S
H289 C298 0.929 . S
C290 H284 0.930 . S
C290 C291 1.367 . S
C290 C298 1.378 . S
C291 C290 1.367 . S
C291 C299 1.433 . S
C292 H288 0.929 . S
C292 C294 1.378 . S
C292 C296 1.350 . S
C293 C296 1.463 . S
C293 C298 1.350 . S
C293 N301 1.427 . S
C294 H285 0.945 . S
C294 C292 1.378 . S
C294 C295 1.367 . S
C295 C294 1.367 . S
C295 C297 1.433 . S
C296 C292 1.350 . S
C296 C293 1.463 . S
C296 N300 1.427 . S
C297 H287 0.929 . S
C297 C295 1.433 . S
C297 N300 1.384 . S
C298 H289 0.929 . S
C298 C290 1.378 . S
C298 C293 1.350 . S
C299 H286 0.929 . S
C299 C291 1.433 . S
C299 N301 1.384 . S
N300 C296 1.427 . S
N300 C297 1.384 . S
N301 C293 1.427 . S
N301 C299 1.384 . S
H302 C308 0.930 . S
H303 C312 0.930 . S
H304 C317 0.929 . S
H305 C315 0.929 . S
H306 C310 0.929 . S
H307 C316 0.929 . S
C308 H302 0.930 . S
C308 C309 1.367 . S
C308 C316 1.378 . S
C309 C308 1.367 . S
C309 C317 1.433 . S
C310 H306 0.929 . S
C310 C312 1.378 . S
C310 C314 1.350 . S
C311 C314 1.463 . S
C311 C316 1.350 . S
C311 N319 1.427 . S
C312 H303 0.930 . S
C312 C310 1.378 . S
C312 C313 1.367 . S
C313 C312 1.367 . S
C313 C315 1.433 . S
C314 C310 1.350 . S
C314 C311 1.463 . S
C314 N318 1.427 . S
C315 H305 0.929 . S
C315 C313 1.433 . S
C315 N318 1.384 . S
C316 H307 0.929 . S
C316 C308 1.378 . S
C316 C311 1.350 . S
C317 H304 0.929 . S
C317 C309 1.433 . S
C317 N319 1.384 . S
N318 C314 1.427 . S
N318 C315 1.384 . S
N319 C311 1.427 . S
N319 C317 1.384 . S
H320 C326 0.930 . S
H321 C330 0.930 . S
H322 C335 0.929 . S
H323 C333 0.929 . S
H324 C328 0.929 . S
H325 C334 0.929 . S
C326 H320 0.930 . S
C326 C327 1.367 . S
C326 C334 1.378 . S
C327 C326 1.367 . S
C327 C335 1.433 . S
C328 H324 0.929 . S
C328 C330 1.378 . S
C328 C332 1.350 . S
C329 C332 1.463 1_655 S
C329 C334 1.350 . S
C329 N337 1.427 . S
C330 H321 0.930 . S
C330 C328 1.378 . S
C330 C331 1.367 . S
C331 C330 1.367 . S
C331 C333 1.433 . S
C332 C328 1.350 . S
C332 C329 1.463 1_455 S
C332 N336 1.427 . S
C333 H323 0.929 . S
C333 C331 1.433 . S
C333 N336 1.384 . S
C334 H325 0.929 . S
C334 C326 1.378 . S
C334 C329 1.350 . S
C335 H322 0.929 . S
C335 C327 1.433 . S
C335 N337 1.384 . S
N336 C332 1.427 . S
N336 C333 1.384 . S
N337 C329 1.427 . S
N337 C335 1.384 . S
H338 C344 0.930 . S
H339 C348 0.930 . S
H340 C353 0.929 . S
H341 C351 0.929 . S
H342 C346 0.929 1_655 S
H343 C352 0.929 1_455 S
C344 H338 0.930 . S
C344 C345 1.367 . S
C344 C352 1.378 . S
C345 C344 1.367 . S
C345 C353 1.433 . S
C346 H342 0.929 1_455 S
C346 C348 1.378 . S
C346 C350 1.350 . S
C347 C350 1.463 1_655 S
C347 C352 1.350 . S
C347 N355 1.427 . S
C348 H339 0.930 . S
C348 C346 1.378 . S
C348 C349 1.367 . S
C349 C348 1.367 . S
C349 C351 1.433 . S
C350 C346 1.350 . S
C350 C347 1.463 1_455 S
C350 N354 1.427 . S
C351 H341 0.929 . S
C351 C349 1.433 . S
C351 N354 1.384 . S
C352 H343 0.929 1_655 S
C352 C344 1.378 . S
C352 C347 1.350 . S
C353 H340 0.929 . S
C353 C345 1.433 . S
C353 N355 1.384 . S
N354 C350 1.427 . S
N354 C351 1.384 . S
N355 C347 1.427 . S
N355 C353 1.384 . S
H356 C362 0.930 . S
H357 C366 0.930 . S
H358 C371 0.929 . S
H359 C369 0.929 . S
H360 C364 0.929 . S
H361 C370 0.929 . S
C362 H356 0.930 . S
C362 C363 1.367 . S
C362 C370 1.378 . S
C363 C362 1.367 . S
C363 C371 1.433 . S
C364 H360 0.929 . S
C364 C366 1.378 . S
C364 C368 1.350 . S
C365 C368 1.463 1_545 S
C365 C370 1.350 . S
C365 N373 1.427 . S
C366 H357 0.930 . S
C366 C364 1.378 . S
C366 C367 1.367 . S
C367 C366 1.367 . S
C367 C369 1.433 . S
C368 C364 1.350 . S
C368 C365 1.463 1_565 S
C368 N372 1.427 . S
C369 H359 0.929 . S
C369 C367 1.433 . S
C369 N372 1.384 . S
C370 H361 0.929 . S
C370 C362 1.378 . S
C370 C365 1.350 . S
C371 H358 0.929 . S
C371 C363 1.433 . S
C371 N373 1.384 . S
N372 C368 1.427 . S
N372 C369 1.384 . S
N373 C365 1.427 . S
N373 C371 1.384 . S
H374 C380 0.930 . S
H375 C384 0.930 . S
H376 C389 0.929 . S
H377 C387 0.929 . S
H378 C382 0.929 . S
H379 C388 0.929 . S
C380 H374 0.930 . S
C380 C381 1.367 . S
C380 C388 1.378 . S
C381 C380 1.367 . S
C381 C389 1.433 . S
C382 H378 0.929 . S
C382 C384 1.378 . S
C382 C386 1.350 . S
C383 C386 1.463 1_545 S
C383 C388 1.350 . S
C383 N391 1.427 1_545 S
C384 H375 0.930 . S
C384 C382 1.378 . S
C384 C385 1.367 . S
C385 C384 1.367 . S
C385 C387 1.433 . S
C386 C382 1.350 . S
C386 C383 1.463 1_565 S
C386 N390 1.427 1_565 S
C387 H377 0.929 . S
C387 C385 1.433 . S
C387 N390 1.384 1_565 S
C388 H379 0.929 . S
C388 C380 1.378 . S
C388 C383 1.350 . S
C389 H376 0.929 . S
C389 C381 1.433 . S
C389 N391 1.384 1_545 S
N390 C386 1.427 1_545 S
N390 C387 1.384 1_545 S
N391 C383 1.427 1_565 S
N391 C389 1.384 1_565 S
C111 C8 1.276 . S
C115 C73 1.271 . S
C129 C21 1.264 . S
C133 C86 1.261 . S
C147 C34 1.275 . S
C151 C99 1.266 . S
C165 C60 1.275 . S
C169 C47 1.266 . S
C183 C0 1.550 . S
C187 C62 1.523 . S
C201 C13 1.549 . S
C205 C75 1.522 1_565 S
C219 C88 1.522 . S
C223 C26 1.548 . S
C237 C39 1.550 . S
C241 C101 1.522 1_545 S
C255 C52 1.549 . S
C259 C10 1.532 1_655 S
C273 C23 1.522 . S
C277 C65 1.547 . S
C291 C78 1.545 . S
C295 C36 1.533 1_455 S
C309 C49 1.528 . S
C313 C91 1.551 . S
C327 C31 0.618 . S
C331 C5 0.611 . S
C345 C44 0.623 . S
C349 C18 0.625 . S
C363 C57 0.610 . S
C367 C83 0.602 . S
C381 C70 0.626 . S
C385 C96 0.625 . S
