# Generated by pormake.
# Topology vmz, (8)-cn, num edge types: 1
# Building blocks:
#     Node 0, Type 0, BuildingBlock: TAGTUT_clean_sbu_3, # of connection points: 8
#     Node 1, Type 0, BuildingBlock: TAGTUT_clean_sbu_3, # of connection points: 8
#     Node 2, Type 0, BuildingBlock: TAGTUT_clean_sbu_3, # of connection points: 8
#     Node 3, Type 0, BuildingBlock: TAGTUT_clean_sbu_3, # of connection points: 8
#     Edge 4, Type (0, 0), BuildingBlock: CIFDUS_clean_linker_0, # of connection points: 2
#     Edge 5, Type (0, 0), BuildingBlock: CIFDUS_clean_linker_0, # of connection points: 2
#     Edge 6, Type (0, 0), BuildingBlock: CIFDUS_clean_linker_0, # of connection points: 2
#     Edge 7, Type (0, 0), BuildingBlock: CIFDUS_clean_linker_0, # of connection points: 2
#     Edge 8, Type (0, 0), BuildingBlock: CIFDUS_clean_linker_0, # of connection points: 2
#     Edge 9, Type (0, 0), BuildingBlock: CIFDUS_clean_linker_0, # of connection points: 2
#     Edge 10, Type (0, 0), BuildingBlock: CIFDUS_clean_linker_0, # of connection points: 2
#     Edge 11, Type (0, 0), BuildingBlock: CIFDUS_clean_linker_0, # of connection points: 2
#     Edge 12, Type (0, 0), BuildingBlock: CIFDUS_clean_linker_0, # of connection points: 2
#     Edge 13, Type (0, 0), BuildingBlock: CIFDUS_clean_linker_0, # of connection points: 2
#     Edge 14, Type (0, 0), BuildingBlock: CIFDUS_clean_linker_0, # of connection points: 2
#     Edge 15, Type (0, 0), BuildingBlock: CIFDUS_clean_linker_0, # of connection points: 2
#     Edge 16, Type (0, 0), BuildingBlock: CIFDUS_clean_linker_0, # of connection points: 2
#     Edge 17, Type (0, 0), BuildingBlock: CIFDUS_clean_linker_0, # of connection points: 2
#     Edge 18, Type (0, 0), BuildingBlock: CIFDUS_clean_linker_0, # of connection points: 2
#     Edge 19, Type (0, 0), BuildingBlock: CIFDUS_clean_linker_0, # of connection points: 2
# Relax obj value: 0.209
# Max RMSD: 0.273
# Mean RMSD: 0.271
data_MOF--net-vmz--node1-TAGTUT_clean_sbu_3--edge1-CIFDUS_clean_linker_0
_symmetry_space_group_name_H-M    P1
_symmetry_Int_Tables_number       1
_symmetry_cell_setting            triclinic
loop_
_symmetry_equiv_pos_as_xyz
'x, y, z'
_cell_length_a     22.023102
_cell_length_b     16.945373
_cell_length_c     29.083665
_cell_angle_alpha  88.70215
_cell_angle_beta   98.354895
_cell_angle_gamma 90.296646
loop_
_atom_site_label
_atom_site_type_symbol
_atom_site_fract_x
_atom_site_fract_y
_atom_site_fract_z
_atom_type_partial_charge
C0 C 0.17037 0.21969 0.15045 0.0
C1 C 0.21542 0.4452 0.03156 0.0
C2 C 0.22692 0.24016 0.93899 0.0
Mg3 Mg 0.21017 0.03749 0.15102 0.0
Mg4 Mg 0.348 0.0086 0.13171 0.0
O5 O 0.27006 0.04021 0.10458 0.0
Mg6 Mg 0.26525 0.15376 0.08446 0.0
O7 O 0.25278 0.26653 0.06537 0.0
Mg8 Mg 0.16321 0.26291 0.03799 0.0
Mg9 Mg 0.30522 0.30452 0.02503 0.0
C10 C 0.37473 0.08384 0.03572 0.0
O11 O 0.35683 0.19283 0.12396 0.0
O12 O 0.2201 0.90296 0.14893 0.0
O13 O 0.38972 0.27632 0.07096 0.0
O14 O 0.28327 0.03396 0.21611 0.0
O15 O 0.31973 0.88861 0.14019 0.0
O16 O 0.37584 0.05732 0.19848 0.0
O17 O 0.17328 0.12928 0.04377 0.0
O18 O 0.13455 0.04007 0.08876 0.0
C19 C 0.13003 0.08444 0.05241 0.0
C20 C 0.26691 0.85998 0.14502 0.0
O21 O 0.32419 0.12298 0.02768 0.0
O22 O 0.17013 0.39833 0.03469 0.0
O23 O 0.39224 0.04522 0.07378 0.0
O24 O 0.18068 0.25154 0.96021 0.0
O25 O 0.2688 0.4213 0.02544 0.0
O26 O 0.2816 0.24947 0.95943 0.0
O27 O 0.21298 0.17285 0.14385 0.0
O28 O 0.14562 0.26595 0.11732 0.0
C29 C 0.34031 0.04567 0.2287 0.0
C30 C 0.39785 0.23827 0.1101 0.0
C31 C 0.62085 0.66317 0.49473 0.0
C32 C 0.76781 0.83781 0.57556 0.0
C33 C 0.75998 0.98441 0.44648 0.0
Mg34 Mg 0.59996 0.59523 0.39964 0.0
Mg35 Mg 0.70981 0.56913 0.33993 0.0
O36 O 0.66259 0.64513 0.3637 0.0
Mg37 Mg 0.70581 0.71367 0.41433 0.0
O38 O 0.73856 0.77954 0.46794 0.0
Mg39 Mg 0.66468 0.84121 0.47948 0.0
Mg40 Mg 0.81561 0.82656 0.48087 0.0
C41 C 0.78342 0.72752 0.32608 0.0
O42 O 0.7916 0.63812 0.43256 0.0
O43 O 0.55776 0.53838 0.33229 0.0
O44 O 0.86445 0.72918 0.45727 0.0
O45 O 0.65259 0.47847 0.41768 0.0
O46 O 0.63656 0.51627 0.29287 0.0
O47 O 0.74079 0.47839 0.38938 0.0
O48 O 0.62694 0.80059 0.40379 0.0
O49 O 0.54932 0.7171 0.38346 0.0
C50 C 0.57033 0.78779 0.38964 0.0
C51 C 0.57975 0.50959 0.29777 0.0
O52 O 0.75862 0.76726 0.35609 0.0
O53 O 0.71412 0.85535 0.55424 0.0
O54 O 0.7748 0.65315 0.32017 0.0
O55 O 0.70949 0.95404 0.45506 0.0
O56 O 0.81388 0.82634 0.55433 0.0
O57 O 0.80947 0.94437 0.45095 0.0
O58 O 0.65228 0.64731 0.46312 0.0
O59 O 0.61688 0.73378 0.50751 0.0
C60 C 0.7037 0.44597 0.41365 0.0
C61 C 0.84766 0.65872 0.44574 0.0
C62 C 0.64543 0.84507 0.99027 0.0
C63 C 0.8147 0.67131 0.07466 0.0
C64 C 0.79025 0.5291 0.94602 0.0
Mg65 Mg 0.62411 0.91259 0.89189 0.0
Mg66 Mg 0.73414 0.93592 0.83024 0.0
O67 O 0.68821 0.86169 0.85997 0.0
Mg68 Mg 0.73218 0.7982 0.9137 0.0
O69 O 0.7704 0.73756 0.96964 0.0
Mg70 Mg 0.70022 0.67055 0.9841 0.0
Mg71 Mg 0.84781 0.68905 0.97428 0.0
C72 C 0.81173 0.77764 0.82947 0.0
O73 O 0.81427 0.87873 0.92354 0.0
O74 O 0.581 0.95254 0.8187 0.0
O75 O 0.8903 0.78849 0.9413 0.0
O76 O 0.67302 0.03409 0.90239 0.0
O77 O 0.65855 0.9672 0.77638 0.0
O78 O 0.7586 0.03999 0.87065 0.0
O79 O 0.65518 0.70649 0.9078 0.0
O80 O 0.57801 0.78997 0.88433 0.0
C81 C 0.59832 0.71963 0.89372 0.0
C82 C 0.60121 0.96885 0.78032 0.0
O83 O 0.78445 0.74069 0.85996 0.0
O84 O 0.75809 0.6601 0.0575 0.0
O85 O 0.80453 0.85183 0.81978 0.0
O86 O 0.74265 0.55783 0.95965 0.0
O87 O 0.85741 0.6819 0.04946 0.0
O88 O 0.83816 0.57139 0.94466 0.0
O89 O 0.67693 0.86689 0.95914 0.0
O90 O 0.65161 0.77614 0.0085 0.0
C91 C 0.72145 0.07099 0.89469 0.0
C92 C 0.87085 0.85817 0.9281 0.0
C93 C 0.3898 0.25059 0.61669 0.0
C94 C 0.35303 0.49265 0.72616 0.0
C95 C 0.24454 0.58343 0.60386 0.0
Mg96 Mg 0.30008 0.19109 0.52439 0.0
Mg97 Mg 0.14904 0.19982 0.51709 0.0
O98 O 0.22415 0.25072 0.5322 0.0
Mg99 Mg 0.25047 0.31225 0.58945 0.0
O100 O 0.28424 0.37796 0.64373 0.0
Mg101 Mg 0.34991 0.43689 0.61604 0.0
Mg102 Mg 0.229 0.4447 0.66799 0.0
C103 C 0.1074 0.36226 0.55254 0.0
O104 O 0.19848 0.24635 0.64401 0.0
O105 O 0.25434 0.16842 0.44723 0.0
O106 O 0.16376 0.35214 0.67885 0.0
O107 O 0.25648 0.07512 0.54899 0.0
O108 O 0.1528 0.18957 0.444 0.0
O109 O 0.15614 0.08685 0.5519 0.0
O110 O 0.30637 0.38881 0.54635 0.0
O111 O 0.34478 0.30574 0.50035 0.0
C112 C 0.34019 0.37524 0.51562 0.0
C113 C 0.19985 0.17556 0.42439 0.0
O114 O 0.16191 0.38347 0.57012 0.0
O115 O 0.38105 0.47913 0.69122 0.0
O116 O 0.09396 0.29315 0.53699 0.0
O117 O 0.29536 0.55017 0.60059 0.0
O118 O 0.29498 0.4834 0.72489 0.0
O119 O 0.20502 0.54965 0.62556 0.0
O120 O 0.33444 0.2311 0.60136 0.0
O121 O 0.40449 0.32187 0.62729 0.0
C122 C 0.20542 0.04646 0.558 0.0
C123 C 0.16759 0.27719 0.67376 0.0
H124 H 0.30111 0.51422 0.09047 0.0
H125 H 0.12001 0.55131 0.01446 0.0
H126 H 0.11589 0.68179 0.0495 0.0
H127 H 0.16804 0.78736 0.09805 0.0
H128 H 0.34886 0.745 0.17382 0.0
H129 H 0.34801 0.6118 0.14379 0.0
C130 C 0.26099 0.55133 0.08099 0.0
C131 C 0.21185 0.52529 0.04873 0.0
C132 C 0.25846 0.6238 0.10212 0.0
C133 C 0.15895 0.57179 0.03836 0.0
C134 C 0.15646 0.64562 0.05868 0.0
C135 C 0.2063 0.74789 0.10902 0.0
C136 C 0.25856 0.7753 0.13789 0.0
C137 C 0.20628 0.67236 0.09037 0.0
C138 C 0.30833 0.72459 0.15155 0.0
C139 C 0.30812 0.64904 0.13403 0.0
H140 H 0.68327 0.0911 0.47306 0.0
H141 H 0.84173 0.07135 0.40259 0.0
H142 H 0.84273 0.21531 0.39053 0.0
H143 H 0.79434 0.34539 0.39667 0.0
H144 H 0.63641 0.36086 0.46841 0.0
H145 H 0.64062 0.21957 0.48449 0.0
C146 C 0.71788 0.11797 0.45469 0.0
C147 C 0.76152 0.07056 0.43775 0.0
C148 C 0.71875 0.19999 0.44876 0.0
C149 C 0.80714 0.10665 0.41536 0.0
C150 C 0.80782 0.18882 0.40867 0.0
C151 C 0.76151 0.31808 0.41652 0.0
C152 C 0.71471 0.36382 0.431 0.0
C153 C 0.76343 0.23602 0.42491 0.0
C154 C 0.67274 0.32733 0.45679 0.0
C155 C 0.67478 0.24631 0.46567 0.0
H156 H 0.70764 0.41877 0.96527 0.0
H157 H 0.8707 0.44679 0.90024 0.0
H158 H 0.86607 0.30654 0.88049 0.0
H159 H 0.81304 0.17636 0.87971 0.0
H160 H 0.65102 0.15234 0.9468 0.0
H161 H 0.65855 0.2902 0.96798 0.0
C162 C 0.74229 0.39466 0.94663 0.0
C163 C 0.7891 0.44395 0.93383 0.0
C164 C 0.73966 0.31422 0.93587 0.0
C165 C 0.83395 0.41064 0.91035 0.0
C166 C 0.8313 0.33032 0.89908 0.0
C167 C 0.7797 0.20109 0.89931 0.0
C168 C 0.73122 0.15344 0.91126 0.0
C169 C 0.78407 0.28149 0.91144 0.0
C170 C 0.68867 0.18697 0.93683 0.0
C171 C 0.69278 0.2662 0.94893 0.0
H172 H 0.27562 0.9309 0.53253 0.0
H173 H 0.12656 0.97201 0.60998 0.0
H174 H 0.12114 0.83014 0.62819 0.0
H175 H 0.16245 0.69463 0.62428 0.0
H176 H 0.30921 0.65779 0.54347 0.0
H177 H 0.31079 0.79732 0.52358 0.0
C178 C 0.24224 0.90898 0.55374 0.0
C179 C 0.20244 0.9618 0.57071 0.0
C180 C 0.23843 0.82785 0.56296 0.0
C181 C 0.15821 0.93233 0.59699 0.0
C182 C 0.15495 0.8513 0.60722 0.0
C183 C 0.19394 0.71704 0.60167 0.0
C184 C 0.23607 0.66563 0.5858 0.0
C185 C 0.1951 0.79839 0.59052 0.0
C186 C 0.27659 0.69579 0.55651 0.0
C187 C 0.27784 0.77587 0.54525 0.0
H188 H 0.44516 0.79934 0.37657 0.0
H189 H 0.61028 0.93256 0.36536 0.0
H190 H 0.55039 0.03727 0.32248 0.0
H191 H 0.45409 0.07708 0.27457 0.0
H192 H 0.28849 0.94604 0.2869 0.0
H193 H 0.34498 0.85736 0.34431 0.0
C194 C 0.46776 0.85202 0.36552 0.0
C195 C 0.53204 0.85677 0.37277 0.0
C196 C 0.433 0.91288 0.34099 0.0
C197 C 0.56078 0.92646 0.3595 0.0
C198 C 0.52662 0.98668 0.33487 0.0
C199 C 0.43 0.03097 0.29116 0.0
C200 C 0.3677 0.01698 0.27544 0.0
C201 C 0.46304 0.97864 0.32342 0.0
C202 C 0.33667 0.95804 0.29795 0.0
C203 C 0.36915 0.90619 0.3304 0.0
H204 H 0.60381 0.44431 0.21741 0.0
H205 H 0.4672 0.45352 0.30999 0.0
H206 H 0.40594 0.35526 0.26479 0.0
H207 H 0.38776 0.27285 0.1972 0.0
H208 H 0.5159 0.27418 0.09841 0.0
H209 H 0.58565 0.35923 0.14912 0.0
C210 C 0.56048 0.42515 0.22751 0.0
C211 C 0.54005 0.45684 0.26683 0.0
C212 C 0.52485 0.36892 0.20103 0.0
C213 C 0.48382 0.43112 0.27954 0.0
C214 C 0.44896 0.37413 0.25406 0.0
C215 C 0.43193 0.2896 0.18752 0.0
C216 C 0.44748 0.26664 0.14477 0.0
C217 C 0.46896 0.34288 0.21479 0.0
C218 C 0.5038 0.29051 0.13173 0.0
C219 C 0.54299 0.34002 0.16026 0.0
H220 H 0.37216 0.10628 0.65341 0.0
H221 H 0.51149 0.26011 0.61121 0.0
H222 H 0.59184 0.17459 0.65198 0.0
H223 H 0.62116 0.07169 0.71153 0.0
H224 H 0.48087 0.92791 0.76101 0.0
H225 H 0.40226 0.99283 0.70525 0.0
C226 C 0.42014 0.11947 0.65197 0.0
C227 C 0.43627 0.1893 0.62992 0.0
C228 C 0.46585 0.07257 0.6776 0.0
C229 C 0.49838 0.20665 0.62847 0.0
C230 C 0.54421 0.15811 0.65194 0.0
C231 C 0.57358 0.05327 0.7092 0.0
C232 C 0.55654 -0.0038 0.74064 0.0
C233 C 0.52841 0.09324 0.67855 0.0
C234 C 0.49478 0.97278 0.73751 0.0
C235 C 0.44986 0.00984 0.7057 0.0
H236 H 0.47445 0.71275 0.88283 0.0
H237 H 0.63445 0.57926 0.86265 0.0
H238 H 0.57052 0.49004 0.81154 0.0
H239 H 0.47187 0.46507 0.76217 0.0
H240 H 0.31174 0.59692 0.78377 0.0
H241 H 0.37288 0.67141 0.84487 0.0
C242 C 0.495 0.66285 0.86817 0.0
C243 C 0.55897 0.65362 0.87551 0.0
C244 C 0.45816 0.61246 0.83837 0.0
C245 C 0.5852 0.58796 0.8572 0.0
C246 C 0.54877 0.53734 0.82756 0.0
C247 C 0.45037 0.50926 0.78086 0.0
C248 C 0.38794 0.5269 0.76797 0.0
C249 C 0.48568 0.55151 0.81614 0.0
C250 C 0.35998 0.58286 0.79296 0.0
C251 C 0.39488 0.62563 0.82777 0.0
H252 H 0.12088 0.01317 0.97158 0.0
H253 H 0.0181 0.14359 0.05943 0.0
H254 H 0.92153 0.10301 0.01311 0.0
H255 H 0.86982 0.00155 0.96374 0.0
H256 H 0.97511 0.84921 0.88885 0.0
H257 H 0.0671 0.92857 0.91182 0.0
C258 C 0.07712 0.03453 0.97923 0.0
C259 C 0.0752 0.07973 0.01853 0.0
C260 C 0.02251 0.00607 0.95483 0.0
C261 C 0.01938 0.10778 0.02918 0.0
C262 C 0.96457 0.08444 0.00289 0.0
C263 C 0.91245 0.98803 0.95099 0.0
C264 C 0.91695 0.91942 0.92581 0.0
C265 C 0.96574 0.02918 0.96787 0.0
C266 C 0.9717 0.90156 0.90905 0.0
C267 C 0.02414 0.9464 0.92247 0.0
H268 H 0.01167 0.35818 0.48405 0.0
H269 H 0.09735 0.50139 0.59637 0.0
H270 H 0.02623 0.60905 0.57019 0.0
H271 H 0.94142 0.66119 0.51513 0.0
H272 H 0.8553 0.51792 0.40304 0.0
H273 H 0.92579 0.40956 0.42969 0.0
C274 C 0.01427 0.41242 0.50337 0.0
C275 C 0.0599 0.42258 0.54193 0.0
C276 C 0.97392 0.47348 0.48788 0.0
C277 C 0.06317 0.49325 0.56622 0.0
C278 C 0.02261 0.55443 0.55127 0.0
C279 C 0.93871 0.60672 0.49599 0.0
C280 C 0.89365 0.59698 0.45711 0.0
C281 C 0.97855 0.54534 0.51178 0.0
C282 C 0.88951 0.52586 0.43325 0.0
C283 C 0.92965 0.46432 0.44848 0.0
H284 H 0.37478 0.95583 0.98669 0.0
H285 H 0.46441 0.18014 0.0105 0.0
H286 H 0.56115 0.12384 0.99411 0.0
H287 H 0.62417 0.00317 0.99127 0.0
H288 H 0.53451 0.77579 0.9852 0.0
H289 H 0.43466 0.83908 0.97847 0.0
C290 C 0.4149 0.99311 0.98576 0.0
C291 C 0.41297 0.0715 0.99963 0.0
C292 C 0.47133 0.95799 0.98266 0.0
C293 C 0.4649 0.11969 0.99917 0.0
C294 C 0.5206 0.08677 0.99132 0.0
C295 C 0.58259 0.96796 0.9888 0.0
C296 C 0.58653 0.88515 0.99039 0.0
C297 C 0.52516 0.00479 0.98643 0.0
C298 C 0.5326 0.83964 0.98601 0.0
C299 C 0.47546 0.87575 0.98124 0.0
H300 H 0.46259 0.35879 0.51737 0.0
H301 H 0.31694 0.53035 0.49776 0.0
H302 H 0.39172 0.63695 0.49348 0.0
H303 H 0.49888 0.68112 0.49585 0.0
H304 H 0.64437 0.50921 0.51586 0.0
H305 H 0.56964 0.40325 0.5218 0.0
C306 C 0.44735 0.41942 0.51131 0.0
C307 C 0.38455 0.43697 0.50682 0.0
C308 C 0.49066 0.48041 0.51045 0.0
C309 C 0.36521 0.51581 0.50058 0.0
C310 C 0.40788 0.57665 0.49861 0.0
C311 C 0.51412 0.62059 0.50241 0.0
C312 C 0.57685 0.60276 0.50615 0.0
C313 C 0.47079 0.55975 0.50401 0.0
C314 C 0.59618 0.52404 0.51338 0.0
C315 C 0.55354 0.46348 0.51613 0.0
H316 H 0.24767 0.18661 0.72916 0.0
H317 H 0.06233 0.27343 0.71295 0.0
H318 H 0.06155 0.25886 0.79676 0.0
H319 H 0.12191 0.25084 0.87537 0.0
H320 H 0.31151 0.17821 0.89043 0.0
H321 H 0.30264 0.15869 0.80706 0.0
C322 C 0.20598 0.19817 0.74369 0.0
C323 C 0.15499 0.23052 0.71483 0.0
C324 C 0.20775 0.1958 0.79227 0.0
C325 C 0.10182 0.24729 0.73435 0.0
C326 C 0.10194 0.24071 0.78248 0.0
C327 C 0.16093 0.22934 0.86052 0.0
C328 C 0.21769 0.2179 0.88919 0.0
C329 C 0.156 0.21992 0.81201 0.0
C330 C 0.26761 0.18936 0.86924 0.0
C331 C 0.26254 0.17769 0.82145 0.0
H332 H 0.74101 0.68999 0.77057 0.0
H333 H 0.92564 0.77709 0.80174 0.0
H334 H 0.92926 0.80188 0.7189 0.0
H335 H 0.86983 0.83161 0.64139 0.0
H336 H 0.67685 0.77299 0.6171 0.0
H337 H 0.68451 0.71025 0.69358 0.0
C338 C 0.78314 0.71047 0.75884 0.0
C339 C 0.83217 0.73409 0.79186 0.0
C340 C 0.78113 0.7363 0.71264 0.0
C341 C 0.88699 0.7592 0.77669 0.0
C342 C 0.88814 0.77626 0.72951 0.0
C343 C 0.8295 0.8056 0.65312 0.0
C344 C 0.77253 0.80921 0.62416 0.0
C345 C 0.83372 0.77128 0.69789 0.0
C346 C 0.72081 0.77381 0.63934 0.0
C347 C 0.72534 0.73633 0.68273 0.0
H348 H 0.88495 0.68557 0.29098 0.0
H349 H 0.73535 0.85128 0.27227 0.0
H350 H 0.73407 0.85044 0.18819 0.0
H351 H 0.7581 0.777 0.12081 0.0
H352 H 0.90517 0.60737 0.13893 0.0
H353 H 0.92374 0.63273 0.22267 0.0
C354 C 0.85442 0.72484 0.26853 0.0
C355 C 0.80921 0.76679 0.28758 0.0
C356 C 0.851 0.71922 0.22014 0.0
C357 C 0.7704 0.81822 0.2585 0.0
C358 C 0.76843 0.81582 0.21024 0.0
C359 C 0.79434 0.74588 0.14323 0.0
C360 C 0.82869 0.68804 0.12454 0.0
C361 C 0.80528 0.76196 0.19084 0.0
C362 C 0.87718 0.65038 0.15313 0.0
C363 C 0.88806 0.66547 0.20075 0.0
H364 H 0.1579 0.29015 0.36115 0.0
H365 H 0.22065 0.04898 0.37388 0.0
H366 H 0.20339 0.03821 0.28916 0.0
H367 H 0.17714 0.09913 0.21274 0.0
H368 H 0.13075 0.34565 0.19736 0.0
H369 H 0.13173 0.35239 0.28197 0.0
C370 C 0.16781 0.23544 0.34509 0.0
C371 C 0.19073 0.1703 0.37334 0.0
C372 C 0.16013 0.23081 0.29624 0.0
C373 C 0.20361 0.09974 0.35264 0.0
C374 C 0.19356 0.09363 0.30436 0.0
C375 C 0.16779 0.15465 0.2276 0.0
C376 C 0.15531 0.22206 0.19864 0.0
C377 C 0.17286 0.15905 0.27597 0.0
C378 C 0.14029 0.29268 0.21868 0.0
C379 C 0.14183 0.29672 0.26713 0.0
loop_
_geom_bond_atom_site_label_1
_geom_bond_atom_site_label_2
_geom_bond_distance
_geom_bond_site_symmetry_2
_ccdc_geom_bond_type
C0 O27 1.312 . S
C0 O28 1.208 . S
C1 O22 1.331 . S
C1 O25 1.244 . S
C2 O24 1.264 1_556 S
C2 O26 1.274 . S
Mg3 O5 1.936 . S
Mg3 O12 2.081 . S
Mg3 O14 2.023 . S
Mg3 O18 2.031 . S
Mg3 O27 2.291 1_565 S
Mg4 O5 1.963 . S
Mg4 O15 1.942 . S
Mg4 O16 1.955 . S
Mg4 O23 1.986 . S
O5 Mg3 1.936 . S
O5 Mg4 1.963 . S
O5 Mg6 1.915 1_565 S
Mg6 O5 1.915 1_545 S
Mg6 O7 1.915 . S
Mg6 O11 2.013 . S
Mg6 O17 2.114 . S
Mg6 O21 2.013 . S
Mg6 O27 2.114 . S
O7 Mg6 1.915 . S
O7 Mg8 1.936 . S
O7 Mg9 1.963 . S
Mg8 O7 1.936 . S
Mg8 O17 2.291 . S
Mg8 O22 2.081 . S
Mg8 O24 2.023 . S
Mg8 O28 2.031 . S
Mg9 O7 1.963 . S
Mg9 O13 1.986 . S
Mg9 O25 1.942 . S
Mg9 O26 1.950 1_554 S
C10 O21 1.191 . S
C10 O23 1.307 1_545 S
O11 Mg6 2.013 . S
O11 C30 1.191 . S
O12 Mg3 2.081 . S
O12 C20 1.331 . S
O13 Mg9 1.986 . S
O13 C30 1.307 . S
O14 Mg3 2.023 . S
O14 C29 1.264 . S
O15 Mg4 1.942 . S
O15 C20 1.244 . S
O16 Mg4 1.955 . S
O16 C29 1.273 . S
O17 Mg6 2.114 . S
O17 Mg8 2.291 . S
O17 C19 1.312 . S
O18 Mg3 2.031 . S
O18 C19 1.208 1_565 S
C19 O17 1.312 . S
C19 O18 1.208 1_545 S
C20 O12 1.331 . S
C20 O15 1.244 . S
O21 Mg6 2.013 . S
O21 C10 1.191 . S
O22 C1 1.331 . S
O22 Mg8 2.081 . S
O23 Mg4 1.986 . S
O23 C10 1.307 1_565 S
O24 C2 1.264 1_554 S
O24 Mg8 2.023 . S
O25 C1 1.244 . S
O25 Mg9 1.942 . S
O26 C2 1.274 . S
O26 Mg9 1.950 1_556 S
O27 C0 1.312 . S
O27 Mg3 2.291 1_545 S
O27 Mg6 2.114 . S
O28 C0 1.208 . S
O28 Mg8 2.031 . S
C29 O14 1.264 . S
C29 O16 1.273 . S
C30 O11 1.191 . S
C30 O13 1.307 . S
C31 O58 1.312 . S
C31 O59 1.208 . S
C32 O53 1.331 . S
C32 O56 1.244 . S
C33 O55 1.264 . S
C33 O57 1.273 . S
Mg34 O36 1.936 . S
Mg34 O43 2.081 . S
Mg34 O45 2.023 . S
Mg34 O49 2.031 . S
Mg34 O58 2.291 . S
Mg35 O36 1.963 . S
Mg35 O46 1.942 . S
Mg35 O47 1.955 . S
Mg35 O54 1.986 . S
O36 Mg34 1.936 . S
O36 Mg35 1.963 . S
O36 Mg37 1.915 . S
Mg37 O36 1.915 . S
Mg37 O38 1.915 . S
Mg37 O42 2.013 . S
Mg37 O48 2.114 . S
Mg37 O52 2.013 . S
Mg37 O58 2.114 . S
O38 Mg37 1.915 . S
O38 Mg39 1.936 . S
O38 Mg40 1.963 . S
Mg39 O38 1.936 . S
Mg39 O48 2.291 . S
Mg39 O53 2.081 . S
Mg39 O55 2.023 . S
Mg39 O59 2.031 . S
Mg40 O38 1.963 . S
Mg40 O44 1.986 . S
Mg40 O56 1.942 . S
Mg40 O57 1.955 . S
C41 O52 1.191 . S
C41 O54 1.307 . S
O42 Mg37 2.013 . S
O42 C61 1.191 . S
O43 Mg34 2.081 . S
O43 C51 1.331 . S
O44 Mg40 1.986 . S
O44 C61 1.307 . S
O45 Mg34 2.023 . S
O45 C60 1.264 . S
O46 Mg35 1.942 . S
O46 C51 1.244 . S
O47 Mg35 1.955 . S
O47 C60 1.273 . S
O48 Mg37 2.114 . S
O48 Mg39 2.291 . S
O48 C50 1.312 . S
O49 Mg34 2.031 . S
O49 C50 1.208 . S
C50 O48 1.312 . S
C50 O49 1.208 . S
C51 O43 1.331 . S
C51 O46 1.244 . S
O52 Mg37 2.013 . S
O52 C41 1.191 . S
O53 C32 1.331 . S
O53 Mg39 2.081 . S
O54 Mg35 1.986 . S
O54 C41 1.307 . S
O55 C33 1.264 . S
O55 Mg39 2.023 . S
O56 C32 1.244 . S
O56 Mg40 1.942 . S
O57 C33 1.273 . S
O57 Mg40 1.955 . S
O58 C31 1.312 . S
O58 Mg34 2.291 . S
O58 Mg37 2.114 . S
O59 C31 1.208 . S
O59 Mg39 2.031 . S
C60 O45 1.264 . S
C60 O47 1.273 . S
C61 O42 1.191 . S
C61 O44 1.307 . S
C62 O89 1.312 . S
C62 O90 1.208 . S
C63 O84 1.331 . S
C63 O87 1.244 . S
C64 O86 1.264 . S
C64 O88 1.273 . S
Mg65 O67 1.936 1_545 S
Mg65 O74 2.081 . S
Mg65 O76 2.023 . S
Mg65 O80 2.031 1_545 S
Mg65 O89 2.291 1_545 S
Mg66 O67 1.963 1_545 S
Mg66 O77 1.942 . S
Mg66 O78 1.955 . S
Mg66 O85 1.986 1_545 S
O67 Mg65 1.936 1_565 S
O67 Mg66 1.963 1_565 S
O67 Mg68 1.915 . S
Mg68 O67 1.915 . S
Mg68 O69 1.915 . S
Mg68 O73 2.013 . S
Mg68 O79 2.114 . S
Mg68 O83 2.013 . S
Mg68 O89 2.114 . S
O69 Mg68 1.915 . S
O69 Mg70 1.936 . S
O69 Mg71 1.963 . S
Mg70 O69 1.936 . S
Mg70 O79 2.291 . S
Mg70 O84 2.081 1_556 S
Mg70 O86 2.023 . S
Mg70 O90 2.031 . S
Mg71 O69 1.963 . S
Mg71 O75 1.986 . S
Mg71 O87 1.942 1_556 S
Mg71 O88 1.955 . S
C72 O83 1.191 . S
C72 O85 1.307 . S
O73 Mg68 2.013 . S
O73 C92 1.191 . S
O74 Mg65 2.081 . S
O74 C82 1.331 . S
O75 Mg71 1.986 . S
O75 C92 1.307 . S
O76 Mg65 2.023 . S
O76 C91 1.264 . S
O77 Mg66 1.942 . S
O77 C82 1.244 . S
O78 Mg66 1.955 . S
O78 C91 1.273 . S
O79 Mg68 2.114 . S
O79 Mg70 2.291 . S
O79 C81 1.312 . S
O80 Mg65 2.031 1_565 S
O80 C81 1.208 . S
C81 O79 1.312 . S
C81 O80 1.208 . S
C82 O74 1.331 . S
C82 O77 1.244 . S
O83 Mg68 2.013 . S
O83 C72 1.191 . S
O84 C63 1.331 . S
O84 Mg70 2.081 1_554 S
O85 Mg66 1.986 1_565 S
O85 C72 1.307 . S
O86 C64 1.264 . S
O86 Mg70 2.023 . S
O87 C63 1.244 . S
O87 Mg71 1.942 1_554 S
O88 C64 1.273 . S
O88 Mg71 1.955 . S
O89 C62 1.312 . S
O89 Mg65 2.291 1_565 S
O89 Mg68 2.114 . S
O90 C62 1.208 . S
O90 Mg70 2.031 . S
C91 O76 1.264 . S
C91 O78 1.273 . S
C92 O73 1.191 . S
C92 O75 1.307 . S
C93 O120 1.312 . S
C93 O121 1.208 . S
C94 O115 1.331 . S
C94 O118 1.244 . S
C95 O117 1.264 . S
C95 O119 1.273 . S
Mg96 O98 1.936 . S
Mg96 O105 2.081 . S
Mg96 O107 2.023 . S
Mg96 O111 2.031 . S
Mg96 O120 2.291 . S
Mg97 O98 1.963 . S
Mg97 O108 1.942 . S
Mg97 O109 1.955 . S
Mg97 O116 1.986 . S
O98 Mg96 1.936 . S
O98 Mg97 1.963 . S
O98 Mg99 1.915 . S
Mg99 O98 1.915 . S
Mg99 O100 1.915 . S
Mg99 O104 2.013 . S
Mg99 O110 2.114 . S
Mg99 O114 2.013 . S
Mg99 O120 2.114 . S
O100 Mg99 1.915 . S
O100 Mg101 1.936 . S
O100 Mg102 1.963 . S
Mg101 O100 1.936 . S
Mg101 O110 2.291 . S
Mg101 O115 2.081 . S
Mg101 O117 2.023 . S
Mg101 O121 2.031 . S
Mg102 O100 1.963 . S
Mg102 O106 1.986 . S
Mg102 O118 1.942 . S
Mg102 O119 1.955 . S
C103 O114 1.191 . S
C103 O116 1.307 . S
O104 Mg99 2.013 . S
O104 C123 1.191 . S
O105 Mg96 2.081 . S
O105 C113 1.331 . S
O106 Mg102 1.986 . S
O106 C123 1.307 . S
O107 Mg96 2.023 . S
O107 C122 1.264 . S
O108 Mg97 1.942 . S
O108 C113 1.244 . S
O109 Mg97 1.955 . S
O109 C122 1.273 . S
O110 Mg99 2.114 . S
O110 Mg101 2.291 . S
O110 C112 1.312 . S
O111 Mg96 2.031 . S
O111 C112 1.208 . S
C112 O110 1.312 . S
C112 O111 1.208 . S
C113 O105 1.331 . S
C113 O108 1.244 . S
O114 Mg99 2.013 . S
O114 C103 1.191 . S
O115 C94 1.331 . S
O115 Mg101 2.081 . S
O116 Mg97 1.986 . S
O116 C103 1.307 . S
O117 C95 1.264 . S
O117 Mg101 2.023 . S
O118 C94 1.244 . S
O118 Mg102 1.942 . S
O119 C95 1.273 . S
O119 Mg102 1.955 . S
O120 C93 1.312 . S
O120 Mg96 2.291 . S
O120 Mg99 2.114 . S
O121 C93 1.208 . S
O121 Mg101 2.031 . S
C122 O107 1.264 . S
C122 O109 1.273 . S
C123 O104 1.191 . S
C123 O106 1.307 . S
H124 C130 0.930 . S
H125 C133 0.930 . S
H126 C134 0.930 . S
H127 C135 0.930 . S
H128 C138 0.930 . S
H129 C139 0.930 . S
C130 H124 0.930 . S
C130 C131 1.355 . S
C130 C132 1.415 . S
C131 C130 1.355 . S
C131 C133 1.419 . S
C132 C130 1.415 . S
C132 C137 1.425 . S
C132 C139 1.409 . S
C133 H125 0.930 . S
C133 C131 1.419 . S
C133 C134 1.362 . S
C134 H126 0.930 . S
C134 C133 1.362 . S
C134 C137 1.409 . S
C135 H127 0.930 . S
C135 C136 1.355 . S
C135 C137 1.415 . S
C136 C135 1.355 . S
C136 C138 1.419 . S
C137 C132 1.425 . S
C137 C134 1.409 . S
C137 C135 1.415 . S
C138 H128 0.930 . S
C138 C136 1.419 . S
C138 C139 1.362 . S
C139 H129 0.930 . S
C139 C132 1.409 . S
C139 C138 1.362 . S
H140 C146 0.925 1_565 S
H141 C149 0.930 . S
H142 C150 0.930 . S
H143 C151 0.930 . S
H144 C154 0.930 . S
H145 C155 0.930 . S
C146 H140 0.925 1_545 S
C146 C147 1.348 1_545 S
C146 C148 1.426 . S
C147 C146 1.348 1_565 S
C147 C149 1.419 . S
C148 C146 1.426 . S
C148 C153 1.425 . S
C148 C155 1.409 . S
C149 H141 0.930 . S
C149 C147 1.419 . S
C149 C150 1.362 1_565 S
C150 H142 0.930 . S
C150 C149 1.362 1_545 S
C150 C153 1.409 . S
C151 H143 0.930 . S
C151 C152 1.355 . S
C151 C153 1.415 . S
C152 C151 1.355 . S
C152 C154 1.419 . S
C153 C148 1.425 . S
C153 C150 1.409 . S
C153 C151 1.415 . S
C154 H144 0.930 . S
C154 C152 1.419 . S
C154 C155 1.362 . S
C155 H145 0.930 . S
C155 C148 1.409 . S
C155 C154 1.362 . S
H156 C162 0.930 . S
H157 C165 0.930 . S
H158 C166 0.930 . S
H159 C167 0.930 . S
H160 C170 0.930 . S
H161 C171 0.930 . S
C162 H156 0.930 . S
C162 C163 1.355 . S
C162 C164 1.415 . S
C163 C162 1.355 . S
C163 C165 1.419 . S
C164 C162 1.415 . S
C164 C169 1.425 . S
C164 C171 1.409 . S
C165 H157 0.930 . S
C165 C163 1.419 . S
C165 C166 1.362 . S
C166 H158 0.930 . S
C166 C165 1.362 . S
C166 C169 1.409 . S
C167 H159 0.930 . S
C167 C168 1.355 . S
C167 C169 1.415 . S
C168 C167 1.355 . S
C168 C170 1.419 . S
C169 C164 1.425 . S
C169 C166 1.409 . S
C169 C167 1.415 . S
C170 H160 0.930 . S
C170 C168 1.419 . S
C170 C171 1.362 . S
C171 H161 0.930 . S
C171 C164 1.409 . S
C171 C170 1.362 . S
H172 C178 0.930 . S
H173 C181 0.930 . S
H174 C182 0.930 . S
H175 C183 0.930 . S
H176 C186 0.930 . S
H177 C187 0.930 . S
C178 H172 0.930 . S
C178 C179 1.355 . S
C178 C180 1.415 1_545 S
C179 C178 1.355 . S
C179 C181 1.419 . S
C180 C178 1.415 1_565 S
C180 C185 1.425 . S
C180 C187 1.409 . S
C181 H173 0.930 . S
C181 C179 1.419 . S
C181 C182 1.362 1_545 S
C182 H174 0.930 . S
C182 C181 1.362 1_565 S
C182 C185 1.409 . S
C183 H175 0.930 . S
C183 C184 1.355 . S
C183 C185 1.415 . S
C184 C183 1.355 . S
C184 C186 1.419 . S
C185 C180 1.425 . S
C185 C182 1.409 . S
C185 C183 1.415 . S
C186 H176 0.930 . S
C186 C184 1.419 . S
C186 C187 1.362 . S
C187 H177 0.930 . S
C187 C180 1.409 . S
C187 C186 1.362 . S
H188 C194 0.930 . S
H189 C197 0.930 . S
H190 C198 0.930 . S
H191 C199 0.930 . S
H192 C202 0.930 . S
H193 C203 0.930 . S
C194 H188 0.930 . S
C194 C195 1.355 . S
C194 C196 1.415 . S
C195 C194 1.355 . S
C195 C197 1.419 . S
C196 C194 1.415 . S
C196 C201 1.425 . S
C196 C203 1.409 . S
C197 H189 0.930 . S
C197 C195 1.419 . S
C197 C198 1.362 . S
C198 H190 0.930 . S
C198 C197 1.362 . S
C198 C201 1.409 . S
C199 H191 0.930 . S
C199 C200 1.355 . S
C199 C201 1.415 . S
C200 C199 1.355 . S
C200 C202 1.419 . S
C201 C196 1.425 . S
C201 C198 1.409 . S
C201 C199 1.415 . S
C202 H192 0.930 . S
C202 C200 1.419 . S
C202 C203 1.362 . S
C203 H193 0.930 . S
C203 C196 1.409 . S
C203 C202 1.362 . S
H204 C210 0.930 . S
H205 C213 0.930 . S
H206 C214 0.930 . S
H207 C215 0.930 . S
H208 C218 0.930 . S
H209 C219 0.930 . S
C210 H204 0.930 . S
C210 C211 1.355 . S
C210 C212 1.415 . S
C211 C210 1.355 . S
C211 C213 1.419 . S
C212 C210 1.415 . S
C212 C217 1.425 . S
C212 C219 1.409 . S
C213 H205 0.930 . S
C213 C211 1.419 . S
C213 C214 1.362 . S
C214 H206 0.930 . S
C214 C213 1.362 . S
C214 C217 1.409 . S
C215 H207 0.930 . S
C215 C216 1.355 . S
C215 C217 1.415 . S
C216 C215 1.355 . S
C216 C218 1.419 . S
C217 C212 1.425 . S
C217 C214 1.409 . S
C217 C215 1.415 . S
C218 H208 0.930 . S
C218 C216 1.419 . S
C218 C219 1.362 . S
C219 H209 0.930 . S
C219 C212 1.409 . S
C219 C218 1.362 . S
H220 C226 0.930 . S
H221 C229 0.930 . S
H222 C230 0.930 . S
H223 C231 0.930 . S
H224 C234 0.930 . S
H225 C235 0.930 . S
C226 H220 0.930 . S
C226 C227 1.355 . S
C226 C228 1.415 . S
C227 C226 1.355 . S
C227 C229 1.419 . S
C228 C226 1.415 . S
C228 C233 1.425 . S
C228 C235 1.409 . S
C229 H221 0.930 . S
C229 C227 1.419 . S
C229 C230 1.362 . S
C230 H222 0.930 . S
C230 C229 1.362 . S
C230 C233 1.409 . S
C231 H223 0.930 . S
C231 C232 1.355 . S
C231 C233 1.415 . S
C232 C231 1.355 . S
C232 C234 1.419 . S
C233 C228 1.425 . S
C233 C230 1.409 . S
C233 C231 1.415 . S
C234 H224 0.930 . S
C234 C232 1.419 . S
C234 C235 1.362 . S
C235 H225 0.930 . S
C235 C228 1.409 . S
C235 C234 1.362 . S
H236 C242 0.930 . S
H237 C245 0.930 . S
H238 C246 0.930 . S
H239 C247 0.930 . S
H240 C250 0.930 . S
H241 C251 0.930 . S
C242 H236 0.930 . S
C242 C243 1.355 . S
C242 C244 1.415 . S
C243 C242 1.355 . S
C243 C245 1.419 . S
C244 C242 1.415 . S
C244 C249 1.425 . S
C244 C251 1.409 . S
C245 H237 0.930 . S
C245 C243 1.419 . S
C245 C246 1.362 . S
C246 H238 0.930 . S
C246 C245 1.362 . S
C246 C249 1.409 . S
C247 H239 0.930 . S
C247 C248 1.355 . S
C247 C249 1.415 . S
C248 C247 1.355 . S
C248 C250 1.419 . S
C249 C244 1.425 . S
C249 C246 1.409 . S
C249 C247 1.415 . S
C250 H240 0.930 . S
C250 C248 1.419 . S
C250 C251 1.362 . S
C251 H241 0.930 . S
C251 C244 1.409 . S
C251 C250 1.362 . S
H252 C258 0.930 1_556 S
H253 C261 0.930 . S
H254 C262 0.930 1_655 S
H255 C263 0.930 1_554 S
H256 C266 0.930 . S
H257 C267 0.930 1_455 S
C258 H252 0.930 1_554 S
C258 C259 1.355 1_565 S
C258 C260 1.415 1_554 S
C259 C258 1.355 1_545 S
C259 C261 1.419 . S
C260 C258 1.415 1_556 S
C260 C265 1.425 1_466 S
C260 C267 1.409 1_455 S
C261 H253 0.930 . S
C261 C259 1.419 . S
C261 C262 1.362 . S
C262 H254 0.930 1_455 S
C262 C261 1.362 . S
C262 C265 1.409 1_455 S
C263 H255 0.930 1_556 S
C263 C264 1.355 1_545 S
C263 C265 1.415 1_556 S
C264 C263 1.355 1_565 S
C264 C266 1.419 . S
C265 C260 1.425 1_644 S
C265 C262 1.409 1_655 S
C265 C263 1.415 1_554 S
C266 H256 0.930 . S
C266 C264 1.419 . S
C266 C267 1.362 . S
C267 H257 0.930 1_655 S
C267 C260 1.409 1_655 S
C267 C266 1.362 . S
H268 C274 0.930 . S
H269 C277 0.930 . S
H270 C278 0.930 . S
H271 C279 0.930 . S
H272 C282 0.930 . S
H273 C283 0.930 . S
C274 H268 0.930 . S
C274 C275 1.355 . S
C274 C276 1.415 . S
C275 C274 1.355 . S
C275 C277 1.419 . S
C276 C274 1.415 . S
C276 C281 1.425 1_455 S
C276 C283 1.409 1_455 S
C277 H269 0.930 . S
C277 C275 1.419 . S
C277 C278 1.362 . S
C278 H270 0.930 . S
C278 C277 1.362 . S
C278 C281 1.409 1_455 S
C279 H271 0.930 . S
C279 C280 1.355 . S
C279 C281 1.415 . S
C280 C279 1.355 . S
C280 C282 1.419 . S
C281 C276 1.425 1_655 S
C281 C278 1.409 1_655 S
C281 C279 1.415 . S
C282 H272 0.930 . S
C282 C280 1.419 . S
C282 C283 1.362 . S
C283 H273 0.930 . S
C283 C276 1.409 1_655 S
C283 C282 1.362 . S
H284 C290 0.930 . S
H285 C293 0.930 . S
H286 C294 0.930 . S
H287 C295 0.930 . S
H288 C298 0.930 . S
H289 C299 0.930 . S
C290 H284 0.930 . S
C290 C291 1.355 1_556 S
C290 C292 1.415 . S
C291 C290 1.355 1_554 S
C291 C293 1.419 1_545 S
C292 C290 1.415 . S
C292 C297 1.425 1_546 S
C292 C299 1.409 . S
C293 H285 0.930 . S
C293 C291 1.419 1_565 S
C293 C294 1.362 . S
C294 H286 0.930 . S
C294 C293 1.362 . S
C294 C297 1.409 . S
C295 H287 0.930 . S
C295 C296 1.355 1_554 S
C295 C297 1.415 . S
C296 C295 1.355 1_556 S
C296 C298 1.419 1_565 S
C297 C292 1.425 1_564 S
C297 C294 1.409 . S
C297 C295 1.415 . S
C298 H288 0.930 . S
C298 C296 1.419 1_545 S
C298 C299 1.362 . S
C299 H289 0.930 . S
C299 C292 1.409 . S
C299 C298 1.362 . S
H300 C306 0.930 . S
H301 C309 0.930 . S
H302 C310 0.930 . S
H303 C311 0.930 . S
H304 C314 0.930 . S
H305 C315 0.930 . S
C306 H300 0.930 . S
C306 C307 1.355 . S
C306 C308 1.415 . S
C307 C306 1.355 . S
C307 C309 1.419 . S
C308 C306 1.415 . S
C308 C313 1.425 . S
C308 C315 1.409 . S
C309 H301 0.930 . S
C309 C307 1.419 . S
C309 C310 1.362 . S
C310 H302 0.930 . S
C310 C309 1.362 . S
C310 C313 1.409 . S
C311 H303 0.930 . S
C311 C312 1.355 . S
C311 C313 1.415 . S
C312 C311 1.355 . S
C312 C314 1.419 . S
C313 C308 1.425 . S
C313 C310 1.409 . S
C313 C311 1.415 . S
C314 H304 0.930 . S
C314 C312 1.419 . S
C314 C315 1.362 . S
C315 H305 0.930 . S
C315 C308 1.409 . S
C315 C314 1.362 . S
H316 C322 0.930 . S
H317 C325 0.930 . S
H318 C326 0.930 . S
H319 C327 0.930 . S
H320 C330 0.930 . S
H321 C331 0.930 . S
C322 H316 0.930 . S
C322 C323 1.355 . S
C322 C324 1.415 . S
C323 C322 1.355 . S
C323 C325 1.419 . S
C324 C322 1.415 . S
C324 C329 1.425 . S
C324 C331 1.409 . S
C325 H317 0.930 . S
C325 C323 1.419 . S
C325 C326 1.362 . S
C326 H318 0.930 . S
C326 C325 1.362 . S
C326 C329 1.409 . S
C327 H319 0.930 . S
C327 C328 1.355 . S
C327 C329 1.415 . S
C328 C327 1.355 . S
C328 C330 1.419 . S
C329 C324 1.425 . S
C329 C326 1.409 . S
C329 C327 1.415 . S
C330 H320 0.930 . S
C330 C328 1.419 . S
C330 C331 1.362 . S
C331 H321 0.930 . S
C331 C324 1.409 . S
C331 C330 1.362 . S
H332 C338 0.930 . S
H333 C341 0.930 . S
H334 C342 0.930 . S
H335 C343 0.930 . S
H336 C346 0.930 . S
H337 C347 0.930 . S
C338 H332 0.930 . S
C338 C339 1.355 . S
C338 C340 1.415 . S
C339 C338 1.355 . S
C339 C341 1.419 . S
C340 C338 1.415 . S
C340 C345 1.425 . S
C340 C347 1.409 . S
C341 H333 0.930 . S
C341 C339 1.419 . S
C341 C342 1.362 . S
C342 H334 0.930 . S
C342 C341 1.362 . S
C342 C345 1.409 . S
C343 H335 0.930 . S
C343 C344 1.355 . S
C343 C345 1.415 . S
C344 C343 1.355 . S
C344 C346 1.419 . S
C345 C340 1.425 . S
C345 C342 1.409 . S
C345 C343 1.415 . S
C346 H336 0.930 . S
C346 C344 1.419 . S
C346 C347 1.362 . S
C347 H337 0.930 . S
C347 C340 1.409 . S
C347 C346 1.362 . S
H348 C354 0.930 . S
H349 C357 0.930 . S
H350 C358 0.930 . S
H351 C359 0.930 . S
H352 C362 0.930 . S
H353 C363 0.930 . S
C354 H348 0.930 . S
C354 C355 1.355 . S
C354 C356 1.415 . S
C355 C354 1.355 . S
C355 C357 1.419 . S
C356 C354 1.415 . S
C356 C361 1.425 . S
C356 C363 1.409 . S
C357 H349 0.930 . S
C357 C355 1.419 . S
C357 C358 1.362 . S
C358 H350 0.930 . S
C358 C357 1.362 . S
C358 C361 1.409 . S
C359 H351 0.930 . S
C359 C360 1.355 . S
C359 C361 1.415 . S
C360 C359 1.355 . S
C360 C362 1.419 . S
C361 C356 1.425 . S
C361 C358 1.409 . S
C361 C359 1.415 . S
C362 H352 0.930 . S
C362 C360 1.419 . S
C362 C363 1.362 . S
C363 H353 0.930 . S
C363 C356 1.409 . S
C363 C362 1.362 . S
H364 C370 0.930 . S
H365 C373 0.930 . S
H366 C374 0.930 . S
H367 C375 0.930 . S
H368 C378 0.930 . S
H369 C379 0.930 . S
C370 H364 0.930 . S
C370 C371 1.355 . S
C370 C372 1.415 . S
C371 C370 1.355 . S
C371 C373 1.419 . S
C372 C370 1.415 . S
C372 C377 1.425 . S
C372 C379 1.409 . S
C373 H365 0.930 . S
C373 C371 1.419 . S
C373 C374 1.362 . S
C374 H366 0.930 . S
C374 C373 1.362 . S
C374 C377 1.409 . S
C375 H367 0.930 . S
C375 C376 1.355 . S
C375 C377 1.415 . S
C376 C375 1.355 . S
C376 C378 1.419 . S
C377 C372 1.425 . S
C377 C374 1.409 . S
C377 C375 1.415 . S
C378 H368 0.930 . S
C378 C376 1.419 . S
C378 C379 1.362 . S
C379 H369 0.930 . S
C379 C372 1.409 . S
C379 C378 1.362 . S
C131 C1 1.116 . S
C136 C20 1.104 . S
C147 C33 1.610 . S
C152 C60 1.610 . S
C163 C64 1.599 . S
C168 C91 1.600 . S
C179 C122 1.601 . S
C184 C95 1.602 . S
C195 C50 1.338 . S
C200 C29 1.176 . S
C211 C51 1.057 . S
C216 C30 1.118 . S
C227 C93 1.144 . S
C232 C82 1.022 . S
C243 C81 1.210 . S
C248 C94 1.116 . S
C259 C19 1.224 . S
C264 C92 1.174 . S
C275 C103 1.155 . S
C280 C61 1.154 . S
C291 C10 1.084 . S
C296 C62 1.145 . S
C307 C112 1.102 . S
C312 C31 1.104 . S
C323 C123 1.938 . S
C328 C2 1.994 . S
C339 C72 1.771 . S
C344 C32 1.816 . S
C355 C41 1.672 . S
C360 C63 1.803 . S
C371 C113 1.938 . S
C376 C0 1.939 . S
