# Generated by pormake.
# Topology unb, (4)-cn, num edge types: 1
# Building blocks:
#     Node 0, Type 0, BuildingBlock: CEKHIL_clean_sbu_0, # of connection points: 4
#     Node 1, Type 0, BuildingBlock: CEKHIL_clean_sbu_0, # of connection points: 4
#     Node 2, Type 0, BuildingBlock: CEKHIL_clean_sbu_0, # of connection points: 4
#     Node 3, Type 0, BuildingBlock: CEKHIL_clean_sbu_0, # of connection points: 4
#     Node 4, Type 0, BuildingBlock: CEKHIL_clean_sbu_0, # of connection points: 4
#     Node 5, Type 0, BuildingBlock: CEKHIL_clean_sbu_0, # of connection points: 4
#     Node 6, Type 0, BuildingBlock: CEKHIL_clean_sbu_0, # of connection points: 4
#     Node 7, Type 0, BuildingBlock: CEKHIL_clean_sbu_0, # of connection points: 4
#     Node 8, Type 0, BuildingBlock: CEKHIL_clean_sbu_0, # of connection points: 4
#     Node 9, Type 0, BuildingBlock: CEKHIL_clean_sbu_0, # of connection points: 4
#     Node 10, Type 0, BuildingBlock: CEKHIL_clean_sbu_0, # of connection points: 4
#     Node 11, Type 0, BuildingBlock: CEKHIL_clean_sbu_0, # of connection points: 4
#     Node 12, Type 0, BuildingBlock: CEKHIL_clean_sbu_0, # of connection points: 4
#     Node 13, Type 0, BuildingBlock: CEKHIL_clean_sbu_0, # of connection points: 4
#     Node 14, Type 0, BuildingBlock: CEKHIL_clean_sbu_0, # of connection points: 4
#     Node 15, Type 0, BuildingBlock: CEKHIL_clean_sbu_0, # of connection points: 4
#     Node 16, Type 0, BuildingBlock: CEKHIL_clean_sbu_0, # of connection points: 4
#     Node 17, Type 0, BuildingBlock: CEKHIL_clean_sbu_0, # of connection points: 4
#     Edge 18, Type (0, 0), BuildingBlock: TEMPAE_clean_linker_10, # of connection points: 2
#     Edge 19, Type (0, 0), BuildingBlock: TEMPAE_clean_linker_10, # of connection points: 2
#     Edge 20, Type (0, 0), BuildingBlock: TEMPAE_clean_linker_10, # of connection points: 2
#     Edge 21, Type (0, 0), BuildingBlock: TEMPAE_clean_linker_10, # of connection points: 2
#     Edge 22, Type (0, 0), BuildingBlock: TEMPAE_clean_linker_10, # of connection points: 2
#     Edge 23, Type (0, 0), BuildingBlock: TEMPAE_clean_linker_10, # of connection points: 2
#     Edge 24, Type (0, 0), BuildingBlock: TEMPAE_clean_linker_10, # of connection points: 2
#     Edge 25, Type (0, 0), BuildingBlock: TEMPAE_clean_linker_10, # of connection points: 2
#     Edge 26, Type (0, 0), BuildingBlock: TEMPAE_clean_linker_10, # of connection points: 2
#     Edge 27, Type (0, 0), BuildingBlock: TEMPAE_clean_linker_10, # of connection points: 2
#     Edge 28, Type (0, 0), BuildingBlock: TEMPAE_clean_linker_10, # of connection points: 2
#     Edge 29, Type (0, 0), BuildingBlock: TEMPAE_clean_linker_10, # of connection points: 2
#     Edge 30, Type (0, 0), BuildingBlock: TEMPAE_clean_linker_10, # of connection points: 2
#     Edge 31, Type (0, 0), BuildingBlock: TEMPAE_clean_linker_10, # of connection points: 2
#     Edge 32, Type (0, 0), BuildingBlock: TEMPAE_clean_linker_10, # of connection points: 2
#     Edge 33, Type (0, 0), BuildingBlock: TEMPAE_clean_linker_10, # of connection points: 2
#     Edge 34, Type (0, 0), BuildingBlock: TEMPAE_clean_linker_10, # of connection points: 2
#     Edge 35, Type (0, 0), BuildingBlock: TEMPAE_clean_linker_10, # of connection points: 2
#     Edge 36, Type (0, 0), BuildingBlock: TEMPAE_clean_linker_10, # of connection points: 2
#     Edge 37, Type (0, 0), BuildingBlock: TEMPAE_clean_linker_10, # of connection points: 2
#     Edge 38, Type (0, 0), BuildingBlock: TEMPAE_clean_linker_10, # of connection points: 2
#     Edge 39, Type (0, 0), BuildingBlock: TEMPAE_clean_linker_10, # of connection points: 2
#     Edge 40, Type (0, 0), BuildingBlock: TEMPAE_clean_linker_10, # of connection points: 2
#     Edge 41, Type (0, 0), BuildingBlock: TEMPAE_clean_linker_10, # of connection points: 2
#     Edge 42, Type (0, 0), BuildingBlock: TEMPAE_clean_linker_10, # of connection points: 2
#     Edge 43, Type (0, 0), BuildingBlock: TEMPAE_clean_linker_10, # of connection points: 2
#     Edge 44, Type (0, 0), BuildingBlock: TEMPAE_clean_linker_10, # of connection points: 2
#     Edge 45, Type (0, 0), BuildingBlock: TEMPAE_clean_linker_10, # of connection points: 2
#     Edge 46, Type (0, 0), BuildingBlock: TEMPAE_clean_linker_10, # of connection points: 2
#     Edge 47, Type (0, 0), BuildingBlock: TEMPAE_clean_linker_10, # of connection points: 2
#     Edge 48, Type (0, 0), BuildingBlock: TEMPAE_clean_linker_10, # of connection points: 2
#     Edge 49, Type (0, 0), BuildingBlock: TEMPAE_clean_linker_10, # of connection points: 2
#     Edge 50, Type (0, 0), BuildingBlock: TEMPAE_clean_linker_10, # of connection points: 2
#     Edge 51, Type (0, 0), BuildingBlock: TEMPAE_clean_linker_10, # of connection points: 2
#     Edge 52, Type (0, 0), BuildingBlock: TEMPAE_clean_linker_10, # of connection points: 2
#     Edge 53, Type (0, 0), BuildingBlock: TEMPAE_clean_linker_10, # of connection points: 2
# Relax obj value: 0.114
# Max RMSD: 0.094
# Mean RMSD: 0.094
data_MOF--net-unb--node1-CEKHIL_clean_sbu_0--edge1-TEMPAE_clean_linker_10
_symmetry_space_group_name_H-M    P1
_symmetry_Int_Tables_number       1
_symmetry_cell_setting            triclinic
loop_
_symmetry_equiv_pos_as_xyz
'x, y, z'
_cell_length_a     62.540454
_cell_length_b     62.580921
_cell_length_c     25.821707
_cell_angle_alpha  90.012919
_cell_angle_beta   89.949366
_cell_angle_gamma 120.03458
loop_
_atom_site_label
_atom_site_type_symbol
_atom_site_fract_x
_atom_site_fract_y
_atom_site_fract_z
_atom_type_partial_charge
Co0 Co 0.15018 0.27706 0.09277 0.0
O1 O 0.12006 0.27895 0.09474 0.0
O2 O 0.12298 0.24766 0.06333 0.0
C3 C 0.16301 0.29192 0.17397 0.0
O4 O 0.17639 0.26698 0.08248 0.0
Co5 Co 0.20298 0.32173 0.10388 0.0
O6 O 0.21508 0.29802 0.09479 0.0
C7 C 0.17256 0.31612 0.01248 0.0
C8 C 0.10941 0.25765 0.07147 0.0
C9 C 0.19991 0.27564 0.08311 0.0
O10 O 0.15821 0.29324 0.02316 0.0
O11 O 0.18954 0.33127 0.0429 0.0
O12 O 0.14679 0.26868 0.16711 0.0
O13 O 0.16994 0.30524 0.13284 0.0
Co14 Co 0.75842 0.87795 0.09258 0.0
O15 O 0.75459 0.84502 0.09248 0.0
O16 O 0.78752 0.87898 0.06487 0.0
C17 C 0.74206 0.8752 0.17264 0.0
O18 O 0.77082 0.91494 0.08449 0.0
Co19 Co 0.71633 0.89045 0.10418 0.0
O20 O 0.74225 0.9257 0.10072 0.0
C21 C 0.72192 0.8677 0.00817 0.0
C22 C 0.77635 0.85523 0.07097 0.0
C23 C 0.76408 0.93128 0.08783 0.0
O24 O 0.74337 0.87173 0.02194 0.0
O25 O 0.70778 0.87178 0.03734 0.0
O26 O 0.7651 0.88088 0.168 0.0
O27 O 0.73003 0.87084 0.13009 0.0
Co28 Co 0.16109 0.89152 0.0969 0.0
O29 O 0.19399 0.92066 0.09777 0.0
O30 O 0.16036 0.91948 0.06779 0.0
C31 C 0.16267 0.8783 0.178 0.0
O32 O 0.1242 0.86678 0.08707 0.0
Co33 Co 0.1488 0.83715 0.11035 0.0
O34 O 0.11355 0.82745 0.10276 0.0
C35 C 0.17542 0.86657 0.01799 0.0
C36 C 0.18402 0.93219 0.07526 0.0
C37 C 0.10796 0.84362 0.08943 0.0
O38 O 0.16858 0.88244 0.02763 0.0
O39 O 0.17164 0.84913 0.04923 0.0
O40 O 0.15705 0.89559 0.17171 0.0
O41 O 0.16773 0.87051 0.13644 0.0
Co42 Co 0.28927 0.14477 0.90098 0.0
O43 O 0.2927 0.11548 0.89834 0.0
O44 O 0.26136 0.11725 0.93358 0.0
C45 C 0.30221 0.15743 0.81867 0.0
O46 O 0.27765 0.16979 0.91281 0.0
Co47 Co 0.33148 0.1989 0.88452 0.0
O48 O 0.30615 0.20882 0.89365 0.0
C49 C 0.33025 0.17015 0.97663 0.0
C50 C 0.272 0.10444 0.92399 0.0
C51 C 0.28465 0.19293 0.9093 0.0
O52 O 0.30741 0.15422 0.9684 0.0
O53 O 0.34346 0.18751 0.94477 0.0
O54 O 0.2794 0.14023 0.8271 0.0
O55 O 0.31602 0.16537 0.85887 0.0
Co56 Co 0.89458 0.15058 0.90653 0.0
O57 O 0.92421 0.18318 0.90596 0.0
O58 O 0.92246 0.14876 0.93237 0.0
C59 C 0.88041 0.15367 0.82735 0.0
O60 O 0.86956 0.11374 0.91501 0.0
Co61 Co 0.84021 0.13889 0.89853 0.0
O62 O 0.83019 0.10345 0.90138 0.0
C63 C 0.86942 0.16063 0.99405 0.0
C64 C 0.93547 0.17249 0.92652 0.0
C65 C 0.84638 0.0976 0.91283 0.0
O66 O 0.88687 0.15711 0.97802 0.0
O67 O 0.85055 0.15628 0.96688 0.0
O68 O 0.89744 0.14751 0.83092 0.0
O69 O 0.87328 0.15826 0.87047 0.0
Co70 Co 0.88837 0.75247 0.90688 0.0
O71 O 0.85511 0.74788 0.90706 0.0
O72 O 0.88866 0.78115 0.93485 0.0
C73 C 0.88594 0.73644 0.82662 0.0
O74 O 0.92556 0.76568 0.91494 0.0
Co75 Co 0.90221 0.71141 0.89495 0.0
O76 O 0.93726 0.73787 0.8983 0.0
C77 C 0.87946 0.71639 0.99167 0.0
C78 C 0.8649 0.76956 0.92869 0.0
C79 C 0.94233 0.75951 0.91141 0.0
O80 O 0.88237 0.73735 0.97744 0.0
O81 O 0.88438 0.70272 0.96294 0.0
O82 O 0.89118 0.75931 0.8316 0.0
O83 O 0.88187 0.72433 0.86904 0.0
Co84 Co 0.81694 0.61309 0.42848 0.0
O85 O 0.78783 0.61688 0.42987 0.0
O86 O 0.7887 0.58415 0.40074 0.0
C87 C 0.83077 0.62863 0.50895 0.0
O88 O 0.8416 0.60086 0.41846 0.0
Co89 Co 0.87142 0.65535 0.43962 0.0
O90 O 0.88106 0.62976 0.43265 0.0
C91 C 0.84132 0.65162 0.34788 0.0
C92 C 0.7761 0.5952 0.40813 0.0
C93 C 0.8648 0.60786 0.42021 0.0
O94 O 0.82552 0.62901 0.35852 0.0
O95 O 0.85899 0.6656 0.37839 0.0
O96 O 0.81342 0.60565 0.50363 0.0
O97 O 0.83824 0.64109 0.46684 0.0
Co98 Co 0.42767 0.21403 0.42188 0.0
O99 O 0.4239 0.18112 0.42071 0.0
O100 O 0.4573 0.21546 0.39635 0.0
C101 C 0.40978 0.21018 0.50074 0.0
O102 O 0.44024 0.25109 0.41537 0.0
Co103 Co 0.38551 0.22652 0.43073 0.0
O104 O 0.41145 0.26179 0.42907 0.0
C105 C 0.39323 0.20565 0.33401 0.0
C106 C 0.44605 0.19165 0.40096 0.0
C107 C 0.43349 0.26744 0.418 0.0
O108 O 0.41407 0.20878 0.34997 0.0
O109 O 0.37864 0.20963 0.36189 0.0
O110 O 0.4329 0.21598 0.49778 0.0
O111 O 0.39856 0.2064 0.45724 0.0
Co112 Co 0.82794 0.22248 0.42764 0.0
O113 O 0.85982 0.25282 0.43107 0.0
O114 O 0.82584 0.24961 0.39765 0.0
C115 C 0.82866 0.20895 0.50899 0.0
O116 O 0.79164 0.19591 0.41578 0.0
Co117 Co 0.82102 0.16983 0.43897 0.0
O118 O 0.78601 0.15755 0.42059 0.0
C119 C 0.84734 0.20138 0.34985 0.0
C120 C 0.84928 0.26337 0.40694 0.0
C121 C 0.77794 0.17226 0.41161 0.0
O122 O 0.83761 0.21491 0.35882 0.0
O123 O 0.84552 0.18475 0.3813 0.0
O124 O 0.82197 0.22542 0.50207 0.0
O125 O 0.83572 0.20261 0.46811 0.0
Co126 Co 0.95443 0.47791 0.23945 0.0
O127 O 0.95838 0.44886 0.2402 0.0
O128 O 0.92538 0.44986 0.26741 0.0
C129 C 0.97087 0.49132 0.15927 0.0
O130 O 0.94173 0.5023 0.24695 0.0
Co131 Co 0.99607 0.53262 0.22734 0.0
O132 O 0.96997 0.54171 0.23052 0.0
C133 C 0.99058 0.50484 0.3242 0.0
C134 C 0.93661 0.43734 0.26172 0.0
C135 C 0.9482 0.52531 0.24343 0.0
O136 O 0.9694 0.48701 0.31015 0.0
O137 O 1.00453 0.52321 0.29517 0.0
O138 O 0.94787 0.4739 0.16398 0.0
O139 O 0.98284 0.49925 0.20185 0.0
Co140 Co 0.56309 0.48713 0.23724 0.0
O141 O 0.59149 0.52049 0.23723 0.0
O142 O 0.59171 0.48709 0.26463 0.0
C143 C 0.54899 0.48951 0.15754 0.0
O144 O 0.53931 0.44993 0.2452 0.0
Co145 Co 0.50799 0.47312 0.2269 0.0
O146 O 0.49967 0.43816 0.22949 0.0
C147 C 0.53608 0.49548 0.32334 0.0
C148 C 0.60357 0.51085 0.25853 0.0
C149 C 0.51636 0.43315 0.24197 0.0
O150 O 0.55413 0.49274 0.30825 0.0
O151 O 0.51739 0.49071 0.29508 0.0
O152 O 0.56683 0.48451 0.16171 0.0
O153 O 0.54114 0.49346 0.20035 0.0
Co154 Co 0.55613 0.08658 0.23785 0.0
O155 O 0.52404 0.08455 0.23396 0.0
O156 O 0.55783 0.11572 0.26723 0.0
C157 C 0.55549 0.07198 0.15685 0.0
O158 O 0.59254 0.0969 0.25002 0.0
Co159 Co 0.56392 0.04137 0.22813 0.0
O160 O 0.59866 0.06442 0.24797 0.0
C161 C 0.53695 0.04642 0.31617 0.0
C162 C 0.53437 0.10571 0.25788 0.0
C163 C 0.60642 0.08725 0.25549 0.0
O164 O 0.54661 0.06965 0.30696 0.0
O165 O 0.53907 0.03163 0.28516 0.0
O166 O 0.56196 0.09512 0.16327 0.0
O167 O 0.54869 0.0588 0.19807 0.0
Co168 Co 0.48559 0.94787 0.7592 0.0
O169 O 0.45653 0.95181 0.75977 0.0
O170 O 0.45716 0.91859 0.73311 0.0
C171 C 0.49995 0.96479 0.83857 0.0
O172 O 0.51002 0.93524 0.75081 0.0
Co173 Co 0.54035 0.98987 0.76774 0.0
O174 O 0.54949 0.96381 0.76575 0.0
C175 C 0.51157 0.98292 0.67179 0.0
C176 C 0.44471 0.92989 0.73915 0.0
C177 C 0.53311 0.9419 0.75378 0.0
O178 O 0.49372 0.96218 0.6878 0.0
O179 O 0.53052 0.99715 0.69908 0.0
O180 O 0.48247 0.94179 0.83478 0.0
O181 O 0.50732 0.97657 0.79557 0.0
Co182 Co 0.09398 0.54786 0.76019 0.0
O183 O 0.09132 0.51541 0.76102 0.0
O184 O 0.12296 0.54957 0.73018 0.0
C185 C 0.07897 0.5458 0.84144 0.0
O186 O 0.1053 0.58452 0.75048 0.0
Co187 Co 0.05119 0.55904 0.77391 0.0
O188 O 0.07615 0.5945 0.76632 0.0
C189 C 0.05455 0.53296 0.68129 0.0
C190 C 0.11263 0.52597 0.73752 0.0
C191 C 0.09804 0.60046 0.75292 0.0
O192 O 0.07731 0.54005 0.69103 0.0
O193 O 0.04065 0.53641 0.71255 0.0
O194 O 0.10208 0.55201 0.83509 0.0
O195 O 0.06613 0.54053 0.79987 0.0
Co196 Co 0.49196 0.55412 0.7587 0.0
O197 O 0.52451 0.58372 0.7609 0.0
O198 O 0.49088 0.58168 0.72835 0.0
C199 C 0.49307 0.54105 0.84015 0.0
O200 O 0.45533 0.52875 0.74751 0.0
Co201 Co 0.48077 0.50013 0.77281 0.0
O202 O 0.44533 0.48974 0.76525 0.0
C203 C 0.50768 0.52981 0.68096 0.0
C204 C 0.51443 0.59478 0.73694 0.0
C205 C 0.43941 0.50552 0.75068 0.0
O206 O 0.50044 0.54538 0.69018 0.0
O207 O 0.50395 0.51238 0.7122 0.0
O208 O 0.48702 0.558 0.83317 0.0
O209 O 0.49879 0.53354 0.79907 0.0
Co210 Co 0.62015 0.80947 0.57175 0.0
O211 O 0.62339 0.78005 0.57005 0.0
O212 O 0.5916 0.78187 0.60231 0.0
C213 C 0.63444 0.8225 0.49029 0.0
O214 O 0.60846 0.83449 0.58237 0.0
Co215 Co 0.66253 0.86367 0.55735 0.0
O216 O 0.63722 0.87366 0.56528 0.0
C217 C 0.65999 0.83449 0.64977 0.0
C218 C 0.60223 0.76893 0.59406 0.0
C219 C 0.6155 0.85765 0.5795 0.0
O220 O 0.63728 0.81854 0.64036 0.0
O221 O 0.67359 0.85195 0.61846 0.0
O222 O 0.61147 0.80536 0.49721 0.0
O223 O 0.64759 0.83022 0.53144 0.0
Co224 Co 0.22958 0.82081 0.57544 0.0
O225 O 0.25867 0.85378 0.57592 0.0
O226 O 0.25772 0.81979 0.60282 0.0
C227 C 0.21603 0.82392 0.49557 0.0
O228 O 0.20498 0.78373 0.58294 0.0
Co229 Co 0.17493 0.80817 0.56426 0.0
O230 O 0.16566 0.77294 0.56647 0.0
C231 C 0.20294 0.82994 0.66112 0.0
C232 C 0.27025 0.84356 0.59709 0.0
C233 C 0.1819 0.76735 0.57922 0.0
O234 O 0.22074 0.82668 0.64642 0.0
O235 O 0.18448 0.82563 0.63255 0.0
O236 O 0.23336 0.81822 0.49989 0.0
O237 O 0.20828 0.82803 0.53836 0.0
Co238 Co 0.22007 0.41915 0.57105 0.0
O239 O 0.18814 0.41742 0.56946 0.0
O240 O 0.22327 0.4501 0.59304 0.0
C241 C 0.21526 0.3994 0.49399 0.0
O242 O 0.2565 0.42931 0.57948 0.0
Co243 Co 0.2276 0.37377 0.5702 0.0
O244 O 0.26362 0.39764 0.57399 0.0
C245 C 0.20657 0.38523 0.66129 0.0
C246 C 0.19949 0.43979 0.58784 0.0
C247 C 0.27119 0.42048 0.58102 0.0
O248 O 0.21363 0.40701 0.64422 0.0
O249 O 0.20808 0.36859 0.63547 0.0
O250 O 0.22312 0.42304 0.49475 0.0
O251 O 0.21037 0.38891 0.53857 0.0
C252 C 0.19235 0.35854 0.45042 0.0
C253 C 0.20905 0.38402 0.44635 0.0
C254 C 0.18511 0.34302 0.407 0.0
C255 C 0.19517 0.35295 0.35788 0.0
C256 C 0.21243 0.3786 0.35341 0.0
C257 C 0.21895 0.39393 0.39765 0.0
C258 C 0.16622 0.316 0.41362 0.0
C259 C 0.22391 0.38984 0.30187 0.0
C260 C 0.18945 0.30703 0.25323 0.0
C261 C 0.16915 0.30426 0.2249 0.0
C262 C 0.19828 0.32294 0.29644 0.0
C263 C 0.18661 0.33649 0.31124 0.0
C264 C 0.16589 0.33342 0.2828 0.0
C265 C 0.15754 0.31748 0.23987 0.0
C266 C 0.22041 0.32566 0.3256 0.0
C267 C 0.1527 0.34723 0.29727 0.0
H268 H 0.18437 0.35066 0.48776 0.0
H269 H 0.2319 0.41354 0.39423 0.0
H270 H 0.14963 0.31129 0.38995 0.0
H271 H 0.17383 0.3044 0.39962 0.0
H272 H 0.16037 0.31109 0.45459 0.0
H273 H 0.23801 0.40971 0.30523 0.0
H274 H 0.23273 0.37986 0.28483 0.0
H275 H 0.20939 0.3879 0.2745 0.0
H276 H 0.19889 0.29739 0.24058 0.0
H277 H 0.14226 0.31583 0.21694 0.0
H278 H 0.21549 0.32049 0.3668 0.0
H279 H 0.23544 0.34523 0.32486 0.0
H280 H 0.2275 0.31401 0.30907 0.0
H281 H 0.14589 0.34282 0.33774 0.0
H282 H 0.13678 0.34267 0.27142 0.0
H283 H 0.16572 0.36741 0.29533 0.0
C284 C 0.64209 0.81604 0.39758 0.0
C285 C 0.64662 0.83191 0.43956 0.0
C286 C 0.65802 0.8239 0.35426 0.0
C287 C 0.67873 0.8482 0.35295 0.0
C288 C 0.6825 0.86458 0.39419 0.0
C289 C 0.6665 0.85621 0.43689 0.0
C290 C 0.6533 0.80591 0.31087 0.0
C291 C 0.70397 0.89074 0.39413 0.0
C292 C 0.73384 0.86204 0.2661 0.0
C293 C 0.72881 0.87193 0.22225 0.0
C294 C 0.71775 0.85428 0.30916 0.0
C295 C 0.69635 0.85673 0.30832 0.0
C296 C 0.69193 0.86776 0.26498 0.0
C297 C 0.70811 0.87511 0.22261 0.0
C298 C 0.72315 0.84269 0.35481 0.0
C299 C 0.66971 0.87122 0.26269 0.0
H300 H 0.62704 0.79713 0.39992 0.0
H301 H 0.67008 0.86856 0.46927 0.0
H302 H 0.65201 0.81387 0.2734 0.0
H303 H 0.669 0.80244 0.30784 0.0
H304 H 0.63603 0.788 0.31684 0.0
H305 H 0.70371 0.90146 0.42819 0.0
H306 H 0.72162 0.89055 0.39429 0.0
H307 H 0.70372 0.90045 0.3584 0.0
H308 H 0.74958 0.85921 0.26571 0.0
H309 H 0.70412 0.88281 0.18891 0.0
H310 H 0.70789 0.82341 0.35985 0.0
H311 H 0.7242 0.85284 0.39083 0.0
H312 H 0.74075 0.84257 0.35006 0.0
H313 H 0.65252 0.853 0.26435 0.0
H314 H 0.66937 0.88087 0.22686 0.0
H315 H 0.66956 0.88201 0.29664 0.0
C316 C 0.22105 0.8367 0.40175 0.0
C317 C 0.20626 0.82761 0.44608 0.0
C318 C 0.21303 0.84464 0.35853 0.0
C319 C 0.18962 0.84318 0.35965 0.0
C320 C 0.17426 0.83297 0.4035 0.0
C321 C 0.18279 0.82544 0.44604 0.0
C322 C 0.22993 0.85536 0.31237 0.0
C323 C 0.14901 0.83057 0.40613 0.0
C324 C 0.17754 0.88473 0.27007 0.0
C325 C 0.16555 0.86881 0.22849 0.0
C326 C 0.18544 0.87664 0.31322 0.0
C327 C 0.18092 0.85203 0.31491 0.0
C328 C 0.1677 0.83564 0.27406 0.0
C329 C 0.16036 0.84428 0.23136 0.0
C330 C 0.19946 0.89469 0.35603 0.0
C331 C 0.16194 0.80914 0.27465 0.0
H332 H 0.23931 0.83874 0.40182 0.0
H333 H 0.17118 0.81837 0.4801 0.0
H334 H 0.22039 0.84513 0.27675 0.0
H335 H 0.23472 0.87484 0.30672 0.0
H336 H 0.24728 0.85475 0.31693 0.0
H337 H 0.13896 0.82136 0.44227 0.0
H338 H 0.15083 0.84911 0.40409 0.0
H339 H 0.13768 0.81982 0.37253 0.0
H340 H 0.18201 0.90381 0.26752 0.0
H341 H 0.15111 0.8319 0.19924 0.0
H342 H 0.21832 0.89727 0.35889 0.0
H343 H 0.19019 0.88727 0.39376 0.0
H344 H 0.20103 0.91297 0.34956 0.0
H345 H 0.17937 0.80855 0.27427 0.0
H346 H 0.15058 0.7985 0.24092 0.0
H347 H 0.15191 0.79986 0.31068 0.0
C348 C 0.37392 0.20762 0.54802 0.0
C349 C 0.39566 0.20624 0.54949 0.0
C350 C 0.35764 0.20026 0.59024 0.0
C351 C 0.36299 0.19102 0.63533 0.0
C352 C 0.3853 0.19025 0.63784 0.0
C353 C 0.40148 0.19801 0.59491 0.0
C354 C 0.33441 0.20191 0.58608 0.0
C355 C 0.39169 0.18054 0.68532 0.0
C356 C 0.33237 0.19117 0.76252 0.0
C357 C 0.31359 0.16644 0.76719 0.0
C358 C 0.34815 0.19948 0.71942 0.0
C359 C 0.34536 0.18258 0.68 0.0
C360 C 0.3257 0.15776 0.68331 0.0
C361 C 0.30992 0.14999 0.72686 0.0
C362 C 0.36843 0.22617 0.71712 0.0
C363 C 0.32207 0.13917 0.64203 0.0
H364 H 0.36927 0.21401 0.51313 0.0
H365 H 0.41805 0.1966 0.59607 0.0
H366 H 0.31794 0.1832 0.58929 0.0
H367 H 0.3335 0.2131 0.61843 0.0
H368 H 0.33334 0.21026 0.54892 0.0
H369 H 0.40981 0.18142 0.68156 0.0
H370 H 0.3922 0.19131 0.7199 0.0
H371 H 0.37719 0.16108 0.69225 0.0
H372 H 0.33532 0.20392 0.79377 0.0
H373 H 0.29579 0.13076 0.73087 0.0
H374 H 0.36753 0.23462 0.68001 0.0
H375 H 0.3867 0.22732 0.71868 0.0
H376 H 0.36727 0.23724 0.74953 0.0
H377 H 0.32025 0.14592 0.60349 0.0
H378 H 0.30545 0.12088 0.64925 0.0
H379 H 0.33851 0.13683 0.64046 0.0
C380 C 0.82536 0.17451 0.56243 0.0
C381 C 0.83071 0.1991 0.5597 0.0
C382 C 0.83215 0.16562 0.60561 0.0
C383 C 0.84511 0.18184 0.64691 0.0
C384 C 0.84977 0.20651 0.64526 0.0
C385 C 0.84232 0.21481 0.60176 0.0
C386 C 0.82617 0.13906 0.60616 0.0
C387 C 0.86364 0.22443 0.68837 0.0
C388 C 0.84711 0.15545 0.77837 0.0
C389 C 0.87051 0.15745 0.77812 0.0
C390 C 0.83849 0.16285 0.73573 0.0
C391 C 0.85375 0.17292 0.69165 0.0
C392 C 0.87713 0.17431 0.69041 0.0
C393 C 0.88518 0.16638 0.73358 0.0
C394 C 0.81325 0.16045 0.73843 0.0
C395 C 0.89401 0.185 0.6442 0.0
H396 H 0.81646 0.16234 0.52983 0.0
H397 H 0.84695 0.23395 0.59927 0.0
H398 H 0.84352 0.13832 0.60542 0.0
H399 H 0.81624 0.12985 0.64232 0.0
H400 H 0.81465 0.12846 0.57256 0.0
H401 H 0.86519 0.24272 0.68207 0.0
H402 H 0.85428 0.21691 0.72596 0.0
H403 H 0.88251 0.22705 0.69139 0.0
H404 H 0.83563 0.14853 0.81264 0.0
H405 H 0.9034 0.1683 0.73346 0.0
H406 H 0.80195 0.14981 0.7047 0.0
H407 H 0.81508 0.17901 0.73667 0.0
H408 H 0.80318 0.15115 0.77448 0.0
H409 H 0.88447 0.1747 0.60864 0.0
H410 H 0.91139 0.18446 0.64879 0.0
H411 H 0.89874 0.20446 0.6384 0.0
C412 C 0.88603 0.70298 0.77512 0.0
C413 C 0.88233 0.72333 0.77674 0.0
C414 C 0.87846 0.68693 0.73251 0.0
C415 C 0.86655 0.69105 0.69039 0.0
C416 C 0.86349 0.71208 0.69088 0.0
C417 C 0.87158 0.72809 0.734 0.0
C418 C 0.88265 0.66516 0.73327 0.0
C419 C 0.85088 0.71713 0.64668 0.0
C420 C 0.8647 0.66184 0.56013 0.0
C421 C 0.84064 0.64145 0.55897 0.0
C422 C 0.87344 0.67779 0.60285 0.0
C423 C 0.85766 0.67351 0.64563 0.0
C424 C 0.8336 0.6524 0.64564 0.0
C425 C 0.8254 0.63649 0.60233 0.0
C426 C 0.89936 0.69968 0.60148 0.0
C427 C 0.81622 0.64716 0.69056 0.0
H428 H 0.89436 0.69919 0.80803 0.0
H429 H 0.86831 0.74354 0.73543 0.0
H430 H 0.86463 0.64771 0.73266 0.0
H431 H 0.89299 0.66531 0.6982 0.0
H432 H 0.89308 0.66511 0.76803 0.0
H433 H 0.8503 0.73443 0.6524 0.0
H434 H 0.86059 0.71853 0.60977 0.0
H435 H 0.83169 0.70154 0.64263 0.0
H436 H 0.8766 0.66577 0.52673 0.0
H437 H 0.80667 0.62101 0.60127 0.0
H438 H 0.9098 0.69961 0.63614 0.0
H439 H 0.8987 0.71706 0.60242 0.0
H440 H 0.90967 0.69979 0.56631 0.0
H441 H 0.82488 0.64592 0.72705 0.0
H442 H 0.79839 0.62974 0.68531 0.0
H443 H 0.81243 0.6626 0.69508 0.0
C444 C 0.9795 0.48574 0.06642 0.0
C445 C 0.9842 0.50102 0.10957 0.0
C446 C 0.99565 0.49391 0.02342 0.0
C447 C 1.01675 0.51798 0.02351 0.0
C448 C 1.02085 0.53375 0.06614 0.0
C449 C 1.00465 0.52505 0.10854 0.0
C450 C 0.99061 0.47653 0.97865 0.0
C451 C 0.0427 0.55968 0.06758 0.0
C452 C 0.07135 0.53208 0.93458 0.0
C453 C 0.06643 0.54274 0.89191 0.0
C454 C 0.05544 0.52404 0.97797 0.0
C455 C 0.03433 0.52698 0.97871 0.0
C456 C 0.03009 0.53886 0.93668 0.0
C457 C 0.04608 0.54646 0.89393 0.0
C458 C 0.06065 0.51153 0.02213 0.0
C459 C 1.0082 0.54288 0.93606 0.0
H460 H 0.96398 0.46705 0.06735 0.0
H461 H 1.0084 0.537 0.14174 0.0
H462 H 0.98922 0.48507 0.94211 0.0
H463 H 1.00621 0.47298 0.97413 0.0
H464 H 0.9733 0.4586 0.98403 0.0
H465 H 0.04283 0.56989 0.10289 0.0
H466 H 0.06013 0.55908 0.06633 0.0
H467 H 0.04255 0.57017 0.03308 0.0
H468 H 0.08677 0.52877 0.93284 0.0
H469 H 0.04217 0.55472 0.86108 0.0
H470 H 0.04523 0.49224 0.02597 0.0
H471 H 0.0618 0.52108 0.05911 0.0
H472 H 0.07813 0.51126 0.01648 0.0
H473 H 0.99081 0.52481 0.93662 0.0
H474 H 1.00808 0.55332 0.90137 0.0
H475 H 1.00827 0.55312 0.97119 0.0
C476 C 0.5149 0.48937 0.10812 0.0
C477 C 0.53885 0.49274 0.10816 0.0
C478 C 0.50586 0.49652 0.06585 0.0
C479 C 0.5212 0.50757 0.02229 0.0
C480 C 0.54515 0.51026 0.02117 0.0
C481 C 0.55368 0.50268 0.06412 0.0
C482 C 0.48008 0.49281 0.06843 0.0
C483 C 0.56204 0.52191 0.97533 0.0
C484 C 0.49164 0.50755 0.89377 0.0
C485 C 0.49588 0.53177 0.89094 0.0
C486 C 0.49937 0.49937 0.93656 0.0
C487 C 0.51189 0.51585 0.9777 0.0
C488 C 0.51529 0.54006 0.97623 0.0
C489 C 0.50711 0.54772 0.93284 0.0
C490 C 0.49487 0.47329 0.93682 0.0
C491 C 0.52848 0.55817 0.01946 0.0
H492 H 0.50329 0.48165 0.142 0.0
H493 H 0.57231 0.50567 0.06425 0.0
H494 H 0.48095 0.51094 0.0667 0.0
H495 H 0.46911 0.48189 0.03464 0.0
H496 H 0.4702 0.48317 0.1044 0.0
H497 H 0.5799 0.52231 0.97994 0.0
H498 H 0.55295 0.51162 0.93945 0.0
H499 H 0.56583 0.5411 0.97011 0.0
H500 H 0.48297 0.49514 0.86142 0.0
H501 H 0.51083 0.56658 0.93038 0.0
H502 H 0.48502 0.46362 0.97271 0.0
H503 H 0.51279 0.47366 0.93645 0.0
H504 H 0.48385 0.46243 0.90294 0.0
H505 H 0.51933 0.5502 0.05703 0.0
H506 H 0.52891 0.57596 0.01344 0.0
H507 H 0.54775 0.56188 0.02233 0.0
C508 C 0.54205 0.06464 0.06384 0.0
C509 C 0.55283 0.05972 0.10628 0.0
C510 C 0.53406 0.04887 0.02034 0.0
C511 C 0.53731 0.02797 0.0191 0.0
C512 C 0.54944 0.02382 0.06081 0.0
C513 C 0.55682 0.03958 0.10393 0.0
C514 C 0.52114 0.05391 0.97675 0.0
C515 C 0.5539 1.00222 0.06073 0.0
C516 C 0.49546 0.97323 0.93211 0.0
C517 C 0.51021 0.97822 0.88791 0.0
C518 C 0.50405 0.98921 0.97528 0.0
C519 C 0.52806 1.01039 0.97438 0.0
C520 C 0.54335 1.01475 0.93067 0.0
C521 C 0.53419 0.99877 0.888 0.0
C522 C 0.48713 0.98394 0.02108 0.0
C523 C 0.56922 0.03668 0.92838 0.0
H524 H 0.53849 0.07989 0.06597 0.0
H525 H 0.5651 0.03567 0.13678 0.0
H526 H 0.5305 0.05521 0.93943 0.0
H527 H 0.50188 0.03836 0.97337 0.0
H528 H 0.52067 0.07125 0.98277 0.0
H529 H 0.56491 1.00244 0.09467 0.0
H530 H 0.53597 0.98468 0.06119 0.0
H531 H 0.56374 1.00233 0.02487 0.0
H532 H 0.47681 0.9576 0.93194 0.0
H533 H 0.54572 1.00273 0.85398 0.0
H534 H 0.48346 0.99941 0.02649 0.0
H535 H 0.49612 0.98257 0.05694 0.0
H536 H 0.46921 0.96656 0.01625 0.0
H537 H 0.56852 0.05403 0.9298 0.0
H538 H 0.57918 0.03679 0.89264 0.0
H539 H 0.58002 0.03667 0.96245 0.0
C540 C 0.17235 0.31307 0.9172 0.0
C541 C 0.17092 0.32517 0.96138 0.0
C542 C 0.17518 0.32376 0.86828 0.0
C543 C 0.17567 0.34657 0.86383 0.0
C544 C 0.17215 0.35776 0.90809 0.0
C545 C 0.17037 0.34716 0.95678 0.0
C546 C 0.17949 0.31158 0.82205 0.0
C547 C 0.17154 0.38152 0.90436 0.0
C548 C 0.21554 0.38604 0.75394 0.0
C549 C 0.19809 0.37934 0.71456 0.0
C550 C 0.20826 0.37636 0.80378 0.0
C551 C 0.1829 0.35998 0.81404 0.0
C552 C 0.16505 0.3546 0.77499 0.0
C553 C 0.17296 0.3641 0.7251 0.0
C554 C 0.22788 0.38224 0.84426 0.0
C555 C 0.13784 0.33779 0.78506 0.0
H556 H 0.1729 0.2961 0.92132 0.0
H557 H 0.16903 0.35626 0.99135 0.0
H558 H 0.16651 0.30915 0.79037 0.0
H559 H 0.1985 0.32359 0.80707 0.0
H560 H 0.17724 0.29327 0.83177 0.0
H561 H 0.16446 0.38544 0.94049 0.0
H562 H 0.19045 0.39711 0.89709 0.0
H563 H 0.15978 0.38079 0.87146 0.0
H564 H 0.23499 0.39767 0.74492 0.0
H565 H 0.15965 0.35896 0.69395 0.0
H566 H 0.22818 0.36518 0.85457 0.0
H567 H 0.22363 0.38917 0.88008 0.0
H568 H 0.24658 0.39627 0.83065 0.0
H569 H 0.13376 0.31841 0.7876 0.0
H570 H 0.12629 0.33896 0.75376 0.0
H571 H 0.13243 0.34241 0.82252 0.0
C572 C 0.6946 0.85286 0.71285 0.0
C573 C 0.67086 0.83377 0.6999 0.0
C574 C 0.70407 0.85462 0.76253 0.0
C575 C 0.68954 0.83668 0.79991 0.0
C576 C 0.66659 0.8161 0.78586 0.0
C577 C 0.65737 0.81495 0.73588 0.0
C578 C 0.72857 0.877 0.77621 0.0
C579 C 0.65094 0.79633 0.82463 0.0
C580 C 0.72131 0.84456 0.92885 0.0
C581 C 0.71307 0.85855 0.95573 0.0
C582 C 0.71277 0.836 0.87866 0.0
C583 C 0.69621 0.84221 0.85498 0.0
C584 C 0.68761 0.85601 0.88239 0.0
C585 C 0.69601 0.86383 0.93262 0.0
C586 C 0.72181 0.82084 0.85067 0.0
C587 C 0.6703 0.86343 0.858 0.0
H588 H 0.70539 0.86728 0.68506 0.0
H589 H 0.63923 0.79984 0.72578 0.0
H590 H 0.72529 0.88955 0.80112 0.0
H591 H 0.74027 0.87158 0.7984 0.0
H592 H 0.73894 0.88743 0.74131 0.0
H593 H 0.63647 0.77934 0.80536 0.0
H594 H 0.66252 0.79152 0.84904 0.0
H595 H 0.64168 0.8033 0.8507 0.0
H596 H 0.73429 0.84023 0.9471 0.0
H597 H 0.68971 0.87474 0.9533 0.0
H598 H 0.73408 0.83172 0.81823 0.0
H599 H 0.70601 0.80409 0.83369 0.0
H600 H 0.73221 0.81514 0.87666 0.0
H601 H 0.6793 0.87538 0.82386 0.0
H602 H 0.66488 0.87361 0.88533 0.0
H603 H 0.6533 0.84686 0.84418 0.0
C604 C 0.18914 0.88392 0.92892 0.0
C605 C 0.18698 0.8673 0.96775 0.0
C606 C 0.1968 0.88207 0.87891 0.0
C607 C 0.20208 0.86304 0.86787 0.0
C608 C 0.20203 0.84767 0.90797 0.0
C609 C 0.19461 0.85009 0.95753 0.0
C610 C 0.19724 0.89913 0.83709 0.0
C611 C 0.20739 0.82704 0.89763 0.0
C612 C 0.18082 0.83092 0.73943 0.0
C613 C 0.20325 0.83874 0.71381 0.0
C614 C 0.1803 0.8391 0.78936 0.0
C615 C 0.2028 0.85594 0.81372 0.0
C616 C 0.22554 0.86433 0.78772 0.0
C617 C 0.22553 0.85532 0.73798 0.0
C618 C 0.15568 0.82924 0.81642 0.0
C619 C 0.24974 0.88269 0.81242 0.0
H620 H 0.18378 0.89761 0.93678 0.0
H621 H 0.19358 0.83752 0.98759 0.0
H622 H 0.21345 0.90505 0.81129 0.0
H623 H 0.18039 0.88921 0.81293 0.0
H624 H 0.19774 0.91577 0.85358 0.0
H625 H 0.21006 0.81917 0.93399 0.0
H626 H 0.19169 0.81203 0.87613 0.0
H627 H 0.22412 0.83356 0.87326 0.0
H628 H 0.16362 0.81795 0.7207 0.0
H629 H 0.24284 0.86155 0.71766 0.0
H630 H 0.1528 0.84469 0.82794 0.0
H631 H 0.15543 0.81935 0.85229 0.0
H632 H 0.13994 0.81635 0.79167 0.0
H633 H 0.24923 0.89954 0.82371 0.0
H634 H 0.26571 0.88806 0.78611 0.0
H635 H 0.25272 0.8748 0.84831 0.0
C636 C 0.39225 0.18169 0.25592 0.0
C637 C 0.38553 0.19738 0.28069 0.0
C638 C 0.38392 0.1731 0.20562 0.0
C639 C 0.36913 0.18096 0.17975 0.0
C640 C 0.3625 0.19696 0.20465 0.0
C641 C 0.37063 0.20479 0.25503 0.0
C642 C 0.39083 0.15565 0.18029 0.0
C643 C 0.34717 0.20619 0.17785 0.0
C644 C 0.36629 0.18743 0.03627 0.0
C645 C 0.34163 0.16959 0.0262 0.0
C646 C 0.37638 0.18986 0.08558 0.0
C647 C 0.36149 0.17391 0.12551 0.0
C648 C 0.33745 0.15429 0.11443 0.0
C649 C 0.32771 0.1524 0.06473 0.0
C650 C 0.40209 0.21108 0.09598 0.0
C651 C 0.32127 0.13664 0.15603 0.0
H652 H 0.40357 0.17577 0.2762 0.0
H653 H 0.36561 0.21709 0.27414 0.0
H654 H 0.37387 0.13834 0.16916 0.0
H655 H 0.4014 0.16396 0.14423 0.0
H656 H 0.40209 0.15097 0.20614 0.0
H657 H 0.34369 0.21856 0.20293 0.0
H658 H 0.35673 0.21646 0.14222 0.0
H659 H 0.32911 0.19038 0.16599 0.0
H660 H 0.37742 0.20046 0.00643 0.0
H661 H 0.30881 0.13821 0.05694 0.0
H662 H 0.41273 0.20506 0.12024 0.0
H663 H 0.40078 0.22572 0.11759 0.0
H664 H 0.41253 0.21925 0.05961 0.0
H665 H 0.33206 0.13121 0.18139 0.0
H666 H 0.30549 0.11973 0.13932 0.0
H667 H 0.31374 0.14587 0.18068 0.0
C668 C 0.84927 0.16086 0.07597 0.0
C669 C 0.87084 0.17007 0.0465 0.0
C670 C 0.84977 0.16997 0.12552 0.0
C671 C 0.87234 0.18927 0.14529 0.0
C672 C 0.89418 0.19895 0.11535 0.0
C673 C 0.89325 0.18891 0.06626 0.0
C674 C 0.8262 0.15864 0.15695 0.0
C675 C 0.91833 0.21998 0.13487 0.0
C676 C 0.85797 0.21742 0.25907 0.0
C677 C 0.85918 0.20307 0.29939 0.0
C678 C 0.86489 0.21515 0.20861 0.0
C679 C 0.87281 0.19795 0.19867 0.0
C680 C 0.87644 0.18536 0.24006 0.0
C681 C 0.86977 0.18825 0.29004 0.0
C682 C 0.86155 0.22944 0.16538 0.0
C683 C 0.88473 0.16674 0.23104 0.0
H684 H 0.83201 0.14619 0.06046 0.0
H685 H 0.90983 0.19619 0.0428 0.0
H686 H 0.82884 0.15113 0.19379 0.0
H687 H 0.82135 0.17294 0.167 0.0
H688 H 0.81037 0.1435 0.13594 0.0
H689 H 0.93369 0.22514 0.10697 0.0
H690 H 0.91633 0.23638 0.14205 0.0
H691 H 0.92336 0.215 0.1723 0.0
H692 H 0.85032 0.22933 0.26619 0.0
H693 H 0.87142 0.17757 0.32122 0.0
H694 H 0.84413 0.21719 0.14444 0.0
H695 H 0.87691 0.23601 0.13705 0.0
H696 H 0.86051 0.24555 0.18029 0.0
H697 H 0.86931 0.14982 0.21361 0.0
H698 H 0.89027 0.1615 0.26762 0.0
H699 H 0.90046 0.174 0.20361 0.0
C700 C 0.87892 0.69376 0.07033 0.0
C701 C 0.87025 0.70741 0.0439 0.0
C702 C 0.87036 0.68467 0.11992 0.0
C703 C 0.85225 0.68887 0.14295 0.0
C704 C 0.84296 0.70218 0.11596 0.0
C705 C 0.85239 0.71166 0.06672 0.0
C706 C 0.8812 0.6711 0.1481 0.0
C707 C 0.82321 0.70639 0.13913 0.0
C708 C 0.82467 0.64684 0.25785 0.0
C709 C 0.84033 0.66198 0.29727 0.0
C710 C 0.82663 0.65608 0.20756 0.0
C711 C 0.84477 0.68083 0.19688 0.0
C712 C 0.85903 0.6967 0.23746 0.0
C713 C 0.85652 0.6871 0.28726 0.0
C714 C 0.81073 0.63884 0.16518 0.0
C715 C 0.87869 0.7232 0.22755 0.0
H716 H 0.89284 0.69063 0.05257 0.0
H717 H 0.84551 0.72198 0.04568 0.0
H718 H 0.89029 0.68104 0.18433 0.0
H719 H 0.86635 0.65234 0.15912 0.0
H720 H 0.89504 0.66931 0.12432 0.0
H721 H 0.81718 0.71613 0.11201 0.0
H722 H 0.80692 0.68845 0.14999 0.0
H723 H 0.83013 0.71746 0.17509 0.0
H724 H 0.81178 0.62752 0.26552 0.0
H725 H 0.86827 0.69912 0.3178 0.0
H726 H 0.82179 0.63284 0.14215 0.0
H727 H 0.80427 0.6483 0.13844 0.0
H728 H 0.79443 0.62213 0.1811 0.0
H729 H 0.89447 0.72357 0.20699 0.0
H730 H 0.88569 0.73389 0.26404 0.0
H731 H 0.87152 0.73257 0.20247 0.0
C732 C 1.01447 0.52723 0.40152 0.0
C733 C 0.99944 0.50472 0.37663 0.0
C734 C 1.02335 0.52791 0.45135 0.0
C735 C 1.01741 0.50549 0.47637 0.0
C736 C 1.00275 0.48266 0.45096 0.0
C737 C 0.99359 0.48252 0.40133 0.0
C738 C 0.03846 0.55263 0.47773 0.0
C739 C 0.99663 0.45853 0.47632 0.0
C740 C 0.05845 0.51905 0.59259 0.0
C741 C 0.04391 0.52149 0.63089 0.0
C742 C 0.04916 0.51137 0.54248 0.0
C743 C 0.02499 0.50637 0.53075 0.0
C744 C 1.00959 0.50679 0.5703 0.0
C745 C 1.0192 0.5142 0.61999 0.0
C746 C 0.06585 0.51052 0.50128 0.0
C747 C 0.98374 0.50177 0.5592 0.0
H748 H 1.01886 0.54438 0.3824 0.0
H749 H 0.98219 0.46514 0.38157 0.0
H750 H 0.02886 0.55332 0.51331 0.0
H751 H 0.05664 0.55522 0.48962 0.0
H752 H 0.04167 0.56831 0.45237 0.0
H753 H 0.98652 0.44256 0.44982 0.0
H754 H 1.01383 0.45911 0.48931 0.0
H755 H 0.98512 0.45551 0.51123 0.0
H756 H 0.07741 0.52416 0.60099 0.0
H757 H 1.0076 0.51548 0.6496 0.0
H758 H 0.07316 0.52732 0.47684 0.0
H759 H 0.0555 0.4943 0.47563 0.0
H760 H 0.08176 0.50978 0.51838 0.0
H761 H 0.9848 0.5174 0.53677 0.0
H762 H 0.97313 0.49958 0.59526 0.0
H763 H 0.9734 0.48488 0.53543 0.0
C764 C 0.52711 0.51359 0.6204 0.0
C765 C 0.51963 0.53087 0.63104 0.0
C766 C 0.53481 0.51154 0.57085 0.0
C767 C 0.53527 0.52733 0.53126 0.0
C768 C 0.5302 0.54645 0.54288 0.0
C769 C 0.52227 0.54794 0.59282 0.0
C770 C 0.53998 0.49082 0.55988 0.0
C771 C 0.53108 0.56395 0.50163 0.0
C772 C 0.55869 0.5203 0.40077 0.0
C773 C 0.53637 0.50411 0.37619 0.0
C774 C 0.55875 0.5289 0.45093 0.0
C775 C 0.536 0.52054 0.4769 0.0
C776 C 0.51347 0.50413 0.45211 0.0
C777 C 0.51395 0.49632 0.4018 0.0
C778 C 0.58299 0.54683 0.47609 0.0
C779 C 0.48883 0.4943 0.47911 0.0
H780 H 0.5257 0.50067 0.65001 0.0
H781 H 0.51705 0.5617 0.60105 0.0
H782 H 0.52423 0.47601 0.53811 0.0
H783 H 0.55672 0.49735 0.53555 0.0
H784 H 0.54251 0.4827 0.59601 0.0
H785 H 0.5317 0.58056 0.51867 0.0
H786 H 0.54738 0.5699 0.47612 0.0
H787 H 0.51433 0.55438 0.47706 0.0
H788 H 0.57601 0.52649 0.38051 0.0
H789 H 0.49671 0.48363 0.38282 0.0
H790 H 0.58545 0.53887 0.51244 0.0
H791 H 0.58296 0.56399 0.4867 0.0
H792 H 0.59903 0.55168 0.45033 0.0
H793 H 0.4884 0.48409 0.51459 0.0
H794 H 0.47307 0.4817 0.45406 0.0
H795 H 0.48614 0.5098 0.49123 0.0
C796 C 0.53232 1.0028 0.59 0.0
C797 C 0.5106 0.99099 0.61913 0.0
C798 C 0.5323 1.01152 0.54031 0.0
C799 C 0.51009 1.0089 0.52001 0.0
C800 C 0.48808 0.99722 0.54955 0.0
C801 C 0.48852 0.98802 0.59882 0.0
C802 C 0.55603 0.02322 0.50934 0.0
C803 C 0.46431 0.99478 0.52943 0.0
C804 C 0.52612 0.05192 0.40668 0.0
C805 C 0.52476 0.0363 0.36633 0.0
C806 C 0.51875 0.04265 0.45694 0.0
C807 C 0.51015 0.01737 0.46664 0.0
C808 C 0.50638 1.00115 0.42513 0.0
C809 C 0.51357 1.01081 0.37535 0.0
C810 C 0.52233 0.06031 0.5003 0.0
C811 C 0.49733 0.97407 0.4339 0.0
H812 H 0.54932 1.00492 0.60592 0.0
H813 H 0.47182 0.97912 0.62201 0.0
H814 H 0.55327 1.01301 0.47252 0.0
H815 H 0.56145 0.04251 0.49925 0.0
H816 H 0.57153 0.02341 0.53072 0.0
H817 H 0.4487 0.9847 0.55685 0.0
H818 H 0.46681 1.0134 0.52255 0.0
H819 H 0.45933 0.98497 0.49174 0.0
H820 H 0.53426 0.07156 0.39979 0.0
H821 H 0.51179 0.99846 0.3441 0.0
H822 H 0.53948 0.06492 0.52173 0.0
H823 H 0.50675 0.05178 0.52818 0.0
H824 H 0.52401 0.07775 0.48546 0.0
H825 H 0.51237 0.972 0.45159 0.0
H826 H 0.49171 0.96339 0.39717 0.0
H827 H 0.48145 0.96587 0.46102 0.0
C828 C 0.19619 0.24138 0.02625 0.0
C829 C 0.20983 0.26001 0.06266 0.0
C830 C 0.20655 0.22887 0.00042 0.0
C831 C 0.231 0.23461 0.01205 0.0
C832 C 0.24444 0.25256 0.05057 0.0
C833 C 0.23386 0.26526 0.07481 0.0
C834 C 0.19171 0.2103 0.95897 0.0
C835 C 0.27028 0.25881 0.06532 0.0
C836 C 0.25293 0.18975 0.97322 0.0
C837 C 0.26849 0.20194 0.93098 0.0
C838 C 0.24042 0.19997 0.99961 0.0
C839 C 0.24293 0.22265 0.98261 0.0
C840 C 0.25765 0.2344 0.93838 0.0
C841 C 0.27053 0.22414 0.91368 0.0
C842 C 0.22543 0.18705 0.04714 0.0
C843 C 0.26026 0.25818 0.91783 0.0
H844 H 0.17775 0.23737 0.01596 0.0
H845 H 0.24454 0.27958 0.10286 0.0
H846 H 0.20092 0.217 0.9209 0.0
H847 H 0.19081 0.19244 0.96674 0.0
H848 H 0.17257 0.20703 0.95616 0.0
H849 H 0.27747 0.27161 0.09886 0.0
H850 H 0.27066 0.24173 0.0751 0.0
H851 H 0.28292 0.26754 0.032 0.0
H852 H 0.2515 0.17278 0.9874 0.0
H853 H 0.28248 0.23367 0.88108 0.0
H854 H 0.20641 0.18392 0.0435 0.0
H855 H 0.23387 0.19892 0.08163 0.0
H856 H 0.22435 0.16901 0.05399 0.0
H857 H 0.24177 0.25616 0.91183 0.0
H858 H 0.2706 0.26387 0.88067 0.0
H859 H 0.27014 0.27316 0.94654 0.0
C860 C 0.81451 0.05251 0.91939 0.0
C861 C 0.83783 0.07223 0.93279 0.0
C862 C 0.80467 0.02945 0.94426 0.0
C863 C 0.81811 0.02615 0.98464 0.0
C864 C 0.84198 0.04575 0.99723 0.0
C865 C 0.85165 0.06841 0.97078 0.0
C866 C 0.77948 1.00885 0.92844 0.0
C867 C 0.85679 0.04329 0.0406 0.0
C868 C 0.77799 0.97653 0.0829 0.0
C869 C 0.78086 0.95659 0.06756 0.0
C870 C 0.79091 0.99957 0.05785 0.0
C871 C 0.80658 1.00264 0.01532 0.0
C872 C 0.81015 0.98282 0.00074 0.0
C873 C 0.79751 0.96019 0.0274 0.0
C874 C 0.78713 0.0204 0.07582 0.0
C875 C 0.82625 0.98505 0.95511 0.0
H876 H 0.80371 0.05526 0.89012 0.0
H877 H 0.86954 0.0836 0.98201 0.0
H878 H 0.78013 0.99173 0.92083 0.0
H879 H 0.76615 1.00482 0.96045 0.0
H880 H 0.77245 1.01354 0.89327 0.0
H881 H 0.8757 0.05955 0.04323 0.0
H882 H 0.84718 0.04126 0.07799 0.0
H883 H 0.85825 0.02649 0.03525 0.0
H884 H 0.76519 0.97395 0.11385 0.0
H885 H 0.79961 0.94482 0.01468 0.0
H886 H 0.7772 0.0246 0.04554 0.0
H887 H 0.80522 0.03737 0.08201 0.0
H888 H 0.7763 0.01585 0.11232 0.0
H889 H 0.81788 0.9872 0.91903 0.0
H890 H 0.82854 0.96863 0.95094 0.0
H891 H 0.84477 1.0017 0.95898 0.0
C892 C 0.97093 0.79366 0.9709 0.0
C893 C 0.96758 0.77671 0.93163 0.0
C894 C 0.99351 0.80671 0.99766 0.0
C895 C 1.01351 0.8032 0.98415 0.0
C896 C 1.01069 0.78724 0.94244 0.0
C897 C 0.98772 0.77397 0.91721 0.0
C898 C 0.99547 0.82316 0.04233 0.0
C899 C 0.03168 0.78345 0.92567 0.0
C900 C 0.07914 0.84854 0.02937 0.0
C901 C 0.08273 0.83499 0.06839 0.0
C902 C 0.0566 0.83872 0.00237 0.0
C903 C 0.03687 0.81497 0.01537 0.0
C904 C 0.03994 0.80182 0.05671 0.0
C905 C 0.06287 0.81181 0.08218 0.0
C906 C 0.05438 0.85323 0.95808 0.0
C907 C 1.01922 0.77676 0.07295 0.0
H908 H 0.95543 0.7957 0.9829 0.0
H909 H 0.98536 0.76097 0.88693 0.0
H910 H 0.99734 0.81504 0.07907 0.0
H911 H 1.01219 0.84162 0.03827 0.0
H912 H 0.97905 0.82551 0.04534 0.0
H913 H 0.02734 0.77238 0.88957 0.0
H914 H 0.04866 0.80152 0.91924 0.0
H915 H 0.03579 0.77378 0.9567 0.0
H916 H 0.09443 0.86632 0.01787 0.0
H917 H 0.06541 0.80122 0.11228 0.0
H918 H 0.03751 0.85468 0.96245 0.0
H919 H 0.05261 0.84342 0.92112 0.0
H920 H 0.07064 0.87213 0.95528 0.0
H921 H 1.00207 0.77749 0.07975 0.0
H922 H 0.02373 0.76995 0.1087 0.0
H923 H 1.01531 0.76323 0.04148 0.0
C924 C 0.82659 0.77339 0.9293 0.0
C925 C 0.84992 0.78004 0.9495 0.0
C926 C 0.81291 0.78402 0.94871 0.0
C927 C 0.82247 0.80112 0.9903 0.0
C928 C 0.84564 0.80716 0.01186 0.0
C929 C 0.85917 0.79685 0.99078 0.0
C930 C 0.7886 0.77753 0.92373 0.0
C931 C 0.85635 0.8248 0.05692 0.0
C932 C 0.80475 0.85057 0.01002 0.0
C933 C 0.78736 0.84071 0.05025 0.0
C934 C 0.81548 0.83744 0.98892 0.0
C935 C 0.80923 0.81402 0.00935 0.0
C936 C 0.79156 0.80385 0.04988 0.0
C937 C 0.78056 0.81717 0.06935 0.0
C938 C 0.83376 0.84881 0.94504 0.0
C939 C 0.78479 0.77923 0.07362 0.0
H940 H 0.81934 0.7604 0.89744 0.0
H941 H 0.87702 0.80181 0.00716 0.0
H942 H 0.77373 0.77059 0.95328 0.0
H943 H 0.78983 0.79433 0.90635 0.0
H944 H 0.78329 0.76333 0.893 0.0
H945 H 0.87356 0.826 0.07196 0.0
H946 H 0.86059 0.84352 0.04478 0.0
H947 H 0.8427 0.81892 0.08892 0.0
H948 H 0.80985 0.86859 0.99446 0.0
H949 H 0.76711 0.80943 0.10037 0.0
H950 H 0.82836 0.83564 0.91226 0.0
H951 H 0.85233 0.8529 0.95809 0.0
H952 H 0.83514 0.8662 0.93076 0.0
H953 H 0.77827 0.76479 0.04324 0.0
H954 H 0.77018 0.77347 0.10362 0.0
H955 H 0.80139 0.78025 0.09163 0.0
C956 C 0.18663 0.96928 0.03233 0.0
C957 C 0.19873 0.95795 0.05552 0.0
C958 C 0.1999 0.99301 0.01064 0.0
C959 C 0.22605 1.00598 0.01208 0.0
C960 C 0.23844 0.99476 0.03573 0.0
C961 C 0.22465 0.97088 0.05712 0.0
C962 C 0.18586 1.00419 0.98599 0.0
C963 C 0.26627 1.008 0.03846 0.0
C964 C 0.25895 0.05947 0.91638 0.0
C965 C 0.26208 0.07947 0.94641 0.0
C966 C 0.24764 0.03543 0.9374 0.0
C967 C 0.24014 0.03155 0.99014 0.0
C968 C 0.2445 0.05204 0.02107 0.0
C969 C 0.25496 0.07561 0.99859 0.0
C970 C 0.24279 1.01407 0.9027 0.0
C971 C 0.23756 0.04901 0.07772 0.0
H972 H 0.16663 0.9595 0.03074 0.0
H973 H 0.23418 0.96224 0.07464 0.0
H974 H 0.18997 0.02139 0.00661 0.0
H975 H 0.19183 1.00925 0.94518 0.0
H976 H 0.16556 0.99144 0.98667 0.0
H977 H 0.27314 0.99683 0.05816 0.0
H978 H 0.27418 1.01253 0.99884 0.0
H979 H 0.27323 0.02571 0.05955 0.0
H980 H 0.2644 0.06246 0.87597 0.0
H981 H 0.25769 0.09117 0.02202 0.0
H982 H 0.22258 1.00149 0.89887 0.0
H983 H 0.2506 1.00324 0.92004 0.0
H984 H 0.25078 0.02023 0.8634 0.0
H985 H 0.21717 0.03828 0.08174 0.0
H986 H 0.24448 0.06704 0.09757 0.0
H987 H 0.2451 0.03853 0.09777 0.0
C988 C 0.97823 0.20997 0.92861 0.0
C989 C 0.96108 0.18643 0.9471 0.0
C990 C 1.00252 0.22279 0.94839 0.0
C991 C 1.00957 0.21212 0.98864 0.0
C992 C 0.99203 0.18865 0.0083 0.0
C993 C 0.96821 0.17602 0.98687 0.0
C994 C 1.0208 0.2475 0.9255 0.0
C995 C 0.99843 0.17678 0.05195 0.0
C996 C 0.07666 0.22945 0.00958 0.0
C997 C 0.08381 0.24618 0.05096 0.0
C998 C 0.0529 0.21898 0.98789 0.0
C999 C 0.0355 0.22479 0.0089 0.0
C1000 C 0.04256 0.2416 0.05091 0.0
C1001 C 0.06674 0.25237 0.07094 0.0
C1002 C 0.04642 0.20159 0.9425 0.0
C1003 C 0.02442 0.2478 0.07539 0.0
H1004 H 0.97282 0.21813 0.89796 0.0
H1005 H 0.95497 0.15799 0.00197 0.0
H1006 H 0.02832 0.26178 0.95623 0.0
H1007 H 0.0366 0.24653 0.90855 0.0
H1008 H 1.01241 0.25344 0.89488 0.0
H1009 H 0.98225 0.15923 0.06515 0.0
H1010 H 1.01308 0.17287 0.03924 0.0
H1011 H 1.00582 0.18958 0.08541 0.0
H1012 H 0.08983 0.22484 0.9934 0.0
H1013 H 0.07216 0.26531 0.10286 0.0
H1014 H 0.0392 0.20779 0.91009 0.0
H1015 H 0.03163 0.18285 0.9538 0.0
H1016 H 0.06254 0.20033 0.92837 0.0
H1017 H 1.01712 0.25535 0.04585 0.0
H1018 H 0.03284 0.26145 0.10726 0.0
H1019 H 1.00845 0.23078 0.09111 0.0
C1020 C 0.85972 0.57394 0.36054 0.0
C1021 C 0.87333 0.59116 0.3994 0.0
C1022 C 0.86948 0.56113 0.33366 0.0
C1023 C 0.89322 0.56513 0.34667 0.0
C1024 C 0.90643 0.58143 0.38786 0.0
C1025 C 0.8965 0.59448 0.41317 0.0
C1026 C 0.85492 0.54432 0.2895 0.0
C1027 C 0.93146 0.58575 0.40414 0.0
C1028 C 0.91415 0.52015 0.30286 0.0
C1029 C 0.93117 0.5336 0.2635 0.0
C1030 C 0.90123 0.52986 0.32945 0.0
C1031 C 0.9049 0.55338 0.31566 0.0
C1032 C 0.92093 0.56637 0.27388 0.0
C1033 C 0.9341 0.55651 0.24885 0.0
C1034 C 0.88472 0.51554 0.37425 0.0
C1035 C 0.92488 0.59115 0.25679 0.0
H1036 H 0.84196 0.57147 0.34904 0.0
H1037 H 0.90715 0.60769 0.44314 0.0
H1038 H 0.86477 0.55224 0.2525 0.0
H1039 H 0.85336 0.52597 0.2941 0.0
H1040 H 0.83605 0.54175 0.28663 0.0
H1041 H 0.93831 0.59715 0.43978 0.0
H1042 H 0.93065 0.56786 0.41114 0.0
H1043 H 0.94502 0.59527 0.3726 0.0
H1044 H 0.91197 0.50259 0.31504 0.0
H1045 H 0.94716 0.56703 0.21852 0.0
H1046 H 0.86629 0.51385 0.37009 0.0
H1047 H 0.89287 0.52563 0.41088 0.0
H1048 H 0.88228 0.49674 0.37755 0.0
H1049 H 0.90685 0.59013 0.2503 0.0
H1050 H 0.93596 0.59775 0.22065 0.0
H1051 H 0.93461 0.60501 0.28768 0.0
C1052 C 0.5217 0.40485 0.30248 0.0
C1053 C 0.50841 0.40797 0.26221 0.0
C1054 C 0.51207 0.38232 0.32945 0.0
C1055 C 0.48883 0.36216 0.31507 0.0
C1056 C 0.47607 0.36476 0.27234 0.0
C1057 C 0.48582 0.38769 0.24697 0.0
C1058 C 0.52612 0.3806 0.37524 0.0
C1059 C 0.45161 0.34357 0.2546 0.0
C1060 C 0.46849 0.29671 0.36099 0.0
C1061 C 0.45063 0.29285 0.39857 0.0
C1062 C 0.48153 0.31932 0.33439 0.0
C1063 C 0.47707 0.33885 0.34637 0.0
C1064 C 0.46019 0.33556 0.38651 0.0
C1065 C 0.44696 0.31256 0.41159 0.0
C1066 C 0.49898 0.32178 0.29138 0.0
C1067 C 0.45538 0.35608 0.40167 0.0
H1068 H 0.539 0.42049 0.31512 0.0
H1069 H 0.47543 0.38991 0.21593 0.0
H1070 H 0.51566 0.37871 0.41132 0.0
H1071 H 0.52807 0.36398 0.37213 0.0
H1072 H 0.54481 0.39712 0.37884 0.0
H1073 H 0.44526 0.34776 0.21781 0.0
H1074 H 0.45303 0.32674 0.24902 0.0
H1075 H 0.43738 0.33932 0.28473 0.0
H1076 H 0.47126 0.28154 0.35005 0.0
H1077 H 0.43325 0.3098 0.44054 0.0
H1078 H 0.5171 0.33885 0.29631 0.0
H1079 H 0.49131 0.32327 0.2537 0.0
H1080 H 0.50201 0.30575 0.28967 0.0
H1081 H 0.47308 0.37335 0.40896 0.0
H1082 H 0.44364 0.35147 0.43685 0.0
H1083 H 0.44597 0.35979 0.36944 0.0
C1084 C 0.64971 0.12386 0.25507 0.0
C1085 C 0.63132 0.10225 0.27861 0.0
C1086 C 0.67366 0.13707 0.27657 0.0
C1087 C 0.67902 0.12894 0.32365 0.0
C1088 C 0.66002 0.10773 0.34856 0.0
C1089 C 0.63663 0.09445 0.3253 0.0
C1090 C 0.69348 0.15911 0.24786 0.0
C1091 C 0.66449 0.09874 0.39946 0.0
C1092 C 0.74379 0.14156 0.35569 0.0
C1093 C 0.75256 0.16164 0.38991 0.0
C1094 C 0.72041 0.13152 0.33246 0.0
C1095 C 0.70481 0.14116 0.34491 0.0
C1096 C 0.71349 0.16141 0.37967 0.0
C1097 C 0.73744 0.17171 0.40099 0.0
C1098 C 0.71237 0.11048 0.29456 0.0
C1099 C 0.69723 0.17176 0.39534 0.0
H1100 H 0.6456 0.12991 0.21899 0.0
H1101 H 0.6223 0.07792 0.34391 0.0
H1102 H 0.70234 0.1754 0.27377 0.0
H1103 H 0.70811 0.15516 0.23509 0.0
H1104 H 0.68613 0.16386 0.21331 0.0
H1105 H 0.64718 0.08365 0.41654 0.0
H1106 H 0.67754 0.09181 0.39362 0.0
H1107 H 0.67307 0.11417 0.42764 0.0
H1108 H 0.75553 0.13396 0.34609 0.0
H1109 H 0.74413 0.18727 0.42725 0.0
H1110 H 0.70616 0.11485 0.25783 0.0
H1111 H 0.69648 0.09353 0.31064 0.0
H1112 H 0.72741 0.10649 0.28568 0.0
H1113 H 0.69104 0.17758 0.36059 0.0
H1114 H 0.70681 0.18781 0.42184 0.0
H1115 H 0.68043 0.15723 0.41499 0.0
C1116 C 0.4972 0.11141 0.2564 0.0
C1117 C 0.51998 0.11699 0.27801 0.0
C1118 C 0.48373 0.12223 0.27592 0.0
C1119 C 0.49291 0.13844 0.31903 0.0
C1120 C 0.51559 0.14353 0.34176 0.0
C1121 C 0.52895 0.13304 0.32059 0.0
C1122 C 0.45997 0.11679 0.24968 0.0
C1123 C 0.52586 0.1602 0.38839 0.0
C1124 C 0.47561 0.18803 0.34164 0.0
C1125 C 0.45741 0.17745 0.38022 0.0
C1126 C 0.48658 0.17517 0.32026 0.0
C1127 C 0.47973 0.15128 0.33874 0.0
C1128 C 0.4613 0.14043 0.37769 0.0
C1129 C 0.4501 0.1535 0.39745 0.0
C1130 C 0.50568 0.1873 0.27804 0.0
C1131 C 0.45385 0.11526 0.39935 0.0
H1132 H 0.49014 0.09898 0.22357 0.0
H1133 H 0.54636 0.13716 0.33806 0.0
H1134 H 0.4446 0.10923 0.27808 0.0
H1135 H 0.46174 0.13415 0.23423 0.0
H1136 H 0.45505 0.10344 0.21732 0.0
H1137 H 0.54275 0.16085 0.40382 0.0
H1138 H 0.53048 0.17923 0.37789 0.0
H1139 H 0.51179 0.15381 0.41963 0.0
H1140 H 0.48112 0.20638 0.3275 0.0
H1141 H 0.43602 0.14521 0.42716 0.0
H1142 H 0.50063 0.17489 0.24397 0.0
H1143 H 0.52389 0.1907 0.292 0.0
H1144 H 0.50765 0.20516 0.26535 0.0
H1145 H 0.44749 0.10142 0.36773 0.0
H1146 H 0.43891 0.10913 0.42867 0.0
H1147 H 0.47008 0.1156 0.41761 0.0
C1148 C 0.85295 0.29701 0.34864 0.0
C1149 C 0.8634 0.28912 0.38689 0.0
C1150 C 0.86608 0.32085 0.32731 0.0
C1151 C 0.8902 0.3376 0.34526 0.0
C1152 C 0.90088 0.3298 0.38405 0.0
C1153 C 0.88746 0.30558 0.40398 0.0
C1154 C 0.85406 0.32814 0.28555 0.0
C1155 C 0.9263 0.34719 0.4051 0.0
C1156 C 0.93076 0.39438 0.26173 0.0
C1157 C 0.9257 0.41196 0.28321 0.0
C1158 C 0.91954 0.37013 0.28168 0.0
C1159 C 0.90354 0.36357 0.32516 0.0
C1160 C 0.89917 0.38162 0.348 0.0
C1161 C 0.90997 0.40538 0.32632 0.0
C1162 C 0.92423 0.35134 0.25536 0.0
C1163 C 0.88285 0.37578 0.39513 0.0
H1164 H 0.83449 0.28437 0.33467 0.0
H1165 H 0.89571 0.29964 0.4334 0.0
H1166 H 0.85136 0.34338 0.29958 0.0
H1167 H 0.86624 0.33504 0.25101 0.0
H1168 H 0.83585 0.31253 0.27357 0.0
H1169 H 0.93217 0.33826 0.43463 0.0
H1170 H 0.94003 0.3541 0.37318 0.0
H1171 H 0.92658 0.36346 0.42289 0.0
H1172 H 0.9429 0.39938 0.22844 0.0
H1173 H 0.90628 0.41899 0.34365 0.0
H1174 H 0.90661 0.33606 0.24001 0.0
H1175 H 0.93143 0.34316 0.28366 0.0
H1176 H 0.93761 0.35945 0.22289 0.0
H1177 H 0.8636 0.36172 0.38518 0.0
H1178 H 0.88286 0.39234 0.41064 0.0
H1179 H 0.88907 0.36786 0.42615 0.0
C1180 C 0.64845 0.54314 0.25111 0.0
C1181 C 0.6285 0.52604 0.28099 0.0
C1182 C 0.6725 0.55588 0.27207 0.0
C1183 C 0.67644 0.552 0.32458 0.0
C1184 C 0.65597 0.53563 0.3554 0.0
C1185 C 0.63238 0.52254 0.33298 0.0
C1186 C 0.69383 0.57269 0.2375 0.0
C1187 C 0.65906 0.53141 0.4118 0.0
C1188 C 0.73888 0.56078 0.36526 0.0
C1189 C 0.75024 0.58411 0.38892 0.0
C1190 C 0.71507 0.55034 0.34392 0.0
C1191 C 0.70205 0.56342 0.34629 0.0
C1192 C 0.71328 0.58691 0.37052 0.0
C1193 C 0.73725 0.597 0.39147 0.0
C1194 C 0.70389 0.52525 0.3186 0.0
C1195 C 0.69996 0.60137 0.37432 0.0
H1196 H 0.64541 0.54576 0.21084 0.0
H1197 H 0.61684 0.5095 0.35623 0.0
H1198 H 0.70465 0.59122 0.25537 0.0
H1199 H 0.70645 0.56515 0.23295 0.0
H1200 H 0.68761 0.57475 0.19847 0.0
H1201 H 0.64104 0.52017 0.43169 0.0
H1202 H 0.6698 0.52175 0.41516 0.0
H1203 H 0.66958 0.54932 0.4323 0.0
H1204 H 0.74872 0.55064 0.36292 0.0
H1205 H 0.74589 0.61508 0.4094 0.0
H1206 H 0.6988 0.52639 0.27796 0.0
H1207 H 0.68671 0.51202 0.33915 0.0
H1208 H 0.71668 0.51776 0.31866 0.0
H1209 H 0.69537 0.605 0.335 0.0
H1210 H 0.71111 0.61929 0.39452 0.0
H1211 H 0.68227 0.59042 0.39544 0.0
C1212 C 0.58212 0.85321 0.64019 0.0
C1213 C 0.59908 0.86648 0.60061 0.0
C1214 C 0.56938 0.86313 0.66677 0.0
C1215 C 0.57318 0.88667 0.65273 0.0
C1216 C 0.58927 0.89955 0.61095 0.0
C1217 C 0.60225 0.88948 0.58594 0.0
C1218 C 0.55282 0.84895 0.7116 0.0
C1219 C 0.59337 0.92436 0.59362 0.0
C1220 C 0.52797 0.9075 0.69564 0.0
C1221 C 0.54149 0.92487 0.73431 0.0
C1222 C 0.53774 0.8945 0.66955 0.0
C1223 C 0.56141 0.89849 0.68319 0.0
C1224 C 0.57449 0.9149 0.72431 0.0
C1225 C 0.56455 0.92811 0.74883 0.0
C1226 C 0.52331 0.87757 0.62545 0.0
C1227 C 0.59944 0.9192 0.74123 0.0
H1228 H 0.57976 0.83558 0.65236 0.0
H1229 H 0.61525 0.89984 0.55539 0.0
H1230 H 0.56081 0.85924 0.74811 0.0
H1231 H 0.53435 0.8471 0.70695 0.0
H1232 H 0.5505 0.83022 0.71549 0.0
H1233 H 0.60466 0.93096 0.55775 0.0
H1234 H 0.57538 0.92335 0.58655 0.0
H1235 H 0.60293 0.9382 0.62462 0.0
H1236 H 0.51029 0.90507 0.68356 0.0
H1237 H 0.57513 0.94145 0.77866 0.0
H1238 H 0.52175 0.85924 0.63043 0.0
H1239 H 0.53327 0.8854 0.5885 0.0
H1240 H 0.50445 0.87498 0.62217 0.0
H1241 H 0.59859 0.90132 0.74848 0.0
H1242 H 0.60612 0.93062 0.77689 0.0
H1243 H 0.61315 0.92873 0.70994 0.0
C1244 C 0.15039 0.7221 0.58342 0.0
C1245 C 0.17328 0.74192 0.59886 0.0
C1246 C 0.14016 0.69894 0.60799 0.0
C1247 C 0.15274 0.6956 0.65011 0.0
C1248 C 0.17623 0.71529 0.66475 0.0
C1249 C 0.18632 0.73806 0.6386 0.0
C1250 C 0.11543 0.67828 0.58997 0.0
C1251 C 0.19011 0.71278 0.70994 0.0
C1252 C 0.11093 0.64546 0.74597 0.0
C1253 C 0.11447 0.62577 0.73208 0.0
C1254 C 0.12406 0.66856 0.72115 0.0
C1255 C 0.14067 0.67195 0.68034 0.0
C1256 C 0.14479 0.65233 0.66706 0.0
C1257 C 0.1319 0.62964 0.69345 0.0
C1258 C 0.1196 0.68915 0.73766 0.0
C1259 C 0.1619 0.65488 0.62322 0.0
H1260 H 0.14018 0.72487 0.55279 0.0
H1261 H 0.20385 0.75332 0.6514 0.0
H1262 H 0.11641 0.66127 0.58321 0.0
H1263 H 0.10135 0.67401 0.62047 0.0
H1264 H 0.10916 0.68304 0.55377 0.0
H1265 H 0.20887 0.72912 0.7142 0.0
H1266 H 0.17963 0.71048 0.74621 0.0
H1267 H 0.19187 0.6961 0.70544 0.0
H1268 H 0.09755 0.64269 0.77575 0.0
H1269 H 0.13456 0.61448 0.68187 0.0
H1270 H 0.11037 0.6934 0.70592 0.0
H1271 H 0.13743 0.70618 0.74551 0.0
H1272 H 0.10785 0.68433 0.77287 0.0
H1273 H 0.15436 0.65729 0.58619 0.0
H1274 H 0.1643 0.63851 0.61973 0.0
H1275 H 0.1803 0.67151 0.62877 0.0
C1276 C 0.41079 0.50789 0.68605 0.0
C1277 C 0.41417 0.4963 0.72932 0.0
C1278 C 0.388 0.49733 0.65986 0.0
C1279 C 0.36777 0.47498 0.67818 0.0
C1280 C 0.37075 0.46387 0.72343 0.0
C1281 C 0.39399 0.4744 0.74785 0.0
C1282 C 0.38593 0.5095 0.61113 0.0
C1283 C 0.34953 0.44051 0.74543 0.0
C1284 C 0.30228 0.45598 0.63435 0.0
C1285 C 0.29698 0.43662 0.59973 0.0
C1286 C 0.32527 0.46882 0.65962 0.0
C1287 C 0.34379 0.46267 0.64911 0.0
C1288 C 0.33898 0.444 0.61218 0.0
C1289 C 0.31556 0.43097 0.5886 0.0
C1290 C 0.32928 0.48812 0.6995 0.0
C1291 C 0.35839 0.43733 0.59855 0.0
H1292 H 0.42638 0.52459 0.67092 0.0
H1293 H 0.39645 0.46534 0.78121 0.0
H1294 H 0.38227 0.49701 0.57764 0.0
H1295 H 0.37015 0.51285 0.61404 0.0
H1296 H 0.40298 0.52733 0.60314 0.0
H1297 H 0.35419 0.43542 0.78325 0.0
H1298 H 0.33312 0.44272 0.75067 0.0
H1299 H 0.34428 0.42504 0.71797 0.0
H1300 H 0.28795 0.46026 0.64393 0.0
H1301 H 0.31166 0.41605 0.56199 0.0
H1302 H 0.34637 0.50575 0.69079 0.0
H1303 H 0.33173 0.48197 0.73824 0.0
H1304 H 0.31356 0.49164 0.70143 0.0
H1305 H 0.37595 0.45416 0.58802 0.0
H1306 H 0.35261 0.42405 0.56584 0.0
H1307 H 0.36217 0.42896 0.63265 0.0
C1308 C 0.19671 0.47028 0.6459 0.0
C1309 C 0.18589 0.45194 0.60774 0.0
C1310 C 0.18378 0.481 0.66817 0.0
C1311 C 0.15959 0.47377 0.65094 0.0
C1312 C 0.14865 0.45545 0.6119 0.0
C1313 C 0.16178 0.44449 0.59133 0.0
C1314 C 0.19601 0.50003 0.7104 0.0
C1315 C 0.1232 0.4477 0.59135 0.0
C1316 C 0.11907 0.48924 0.73639 0.0
C1317 C 0.12394 0.51194 0.71565 0.0
C1318 C 0.13041 0.47647 0.71566 0.0
C1319 C 0.14638 0.48629 0.67222 0.0
C1320 C 0.15067 0.50884 0.65031 0.0
C1321 C 0.13972 0.5215 0.67267 0.0
C1322 C 0.12581 0.45282 0.74101 0.0
C1323 C 0.16698 0.51972 0.60329 0.0
H1324 H 0.21519 0.47588 0.65942 0.0
H1325 H 0.15328 0.43028 0.56197 0.0
H1326 H 0.19866 0.51807 0.69726 0.0
H1327 H 0.18399 0.4945 0.74521 0.0
H1328 H 0.21427 0.50254 0.72164 0.0
H1329 H 0.11729 0.43328 0.56092 0.0
H1330 H 0.10952 0.44049 0.62332 0.0
H1331 H 0.12292 0.46393 0.57484 0.0
H1332 H 0.10689 0.48177 0.76956 0.0
H1333 H 0.14328 0.53886 0.6559 0.0
H1334 H 0.1435 0.455 0.75546 0.0
H1335 H 0.11835 0.4376 0.7123 0.0
H1336 H 0.11266 0.44741 0.77393 0.0
H1337 H 0.18623 0.52478 0.61293 0.0
H1338 H 0.16703 0.53645 0.58871 0.0
H1339 H 0.16071 0.50587 0.57168 0.0
C1340 C 0.55294 0.63676 0.73446 0.0
C1341 C 0.52901 0.6204 0.71659 0.0
C1342 C 0.56653 0.66102 0.71483 0.0
C1343 C 0.55616 0.66892 0.67558 0.0
C1344 C 0.53224 0.65221 0.65662 0.0
C1345 C 0.51892 0.62835 0.67767 0.0
C1346 C 0.59174 0.67837 0.73687 0.0
C1347 C 0.52057 0.65961 0.61429 0.0
C1348 C 0.57538 0.73657 0.65782 0.0
C1349 C 0.59134 0.74348 0.61505 0.0
C1350 C 0.5647 0.71275 0.67905 0.0
C1351 C 0.56949 0.69499 0.65621 0.0
C1352 C 0.58576 0.70188 0.61316 0.0
C1353 C 0.59678 0.72616 0.59353 0.0
C1354 C 0.54797 0.70649 0.72562 0.0
C1355 C 0.59095 0.6834 0.58694 0.0
H1356 H 0.56088 0.63074 0.76442 0.0
H1357 H 0.50058 0.61576 0.66307 0.0
H1358 H 0.6057 0.68574 0.70543 0.0
H1359 H 0.59168 0.69437 0.75527 0.0
H1360 H 0.59751 0.66926 0.76616 0.0
H1361 H 0.50257 0.64396 0.60134 0.0
H1362 H 0.51751 0.67463 0.62828 0.0
H1363 H 0.53313 0.66684 0.58038 0.0
H1364 H 0.57139 0.74997 0.67521 0.0
H1365 H 0.60912 0.73141 0.56053 0.0
H1366 H 0.55404 0.6985 0.75675 0.0
H1367 H 0.52884 0.69238 0.71491 0.0
H1368 H 0.54768 0.72288 0.74129 0.0
H1369 H 0.59794 0.67513 0.6155 0.0
H1370 H 0.60467 0.69182 0.55514 0.0
H1371 H 0.57357 0.66814 0.57068 0.0
C1372 C 0.30256 0.84907 0.66091 0.0
C1373 C 0.29573 0.85811 0.61808 0.0
C1374 C 0.3264 0.86222 0.68219 0.0
C1375 C 0.34427 0.8847 0.6592 0.0
C1376 C 0.33745 0.89403 0.616 0.0
C1377 C 0.31313 0.88082 0.59648 0.0
C1378 C 0.33252 0.85184 0.72903 0.0
C1379 C 0.35607 0.91755 0.58943 0.0
C1380 C 0.40284 0.92673 0.7365 0.0
C1381 C 0.41902 0.91885 0.71909 0.0
C1382 C 0.3785 0.91598 0.71717 0.0
C1383 C 0.37039 0.89741 0.6785 0.0
C1384 C 0.38695 0.88993 0.65993 0.0
C1385 C 0.41084 0.90047 0.68085 0.0
C1386 C 0.36129 0.92408 0.73896 0.0
C1387 C 0.37938 0.87061 0.61806 0.0
H1388 H 0.28908 0.83171 0.67833 0.0
H1389 H 0.30793 0.88789 0.56341 0.0
H1390 H 0.34647 0.84658 0.7185 0.0
H1391 H 0.34069 0.86605 0.75987 0.0
H1392 H 0.31603 0.83533 0.74499 0.0
H1393 H 0.34773 0.92277 0.5574 0.0
H1394 H 0.36441 0.93293 0.6177 0.0
H1395 H 0.37127 0.91526 0.57341 0.0
H1396 H 0.40904 0.94094 0.76595 0.0
H1397 H 0.42331 0.8945 0.66658 0.0
H1398 H 0.3452 0.90813 0.75748 0.0
H1399 H 0.35404 0.93068 0.70737 0.0
H1400 H 0.37049 0.93903 0.7681 0.0
H1401 H 0.36432 0.85263 0.63246 0.0
H1402 H 0.39496 0.86812 0.60522 0.0
H1403 H 0.37214 0.87579 0.58401 0.0
loop_
_geom_bond_atom_site_label_1
_geom_bond_atom_site_label_2
_geom_bond_distance
_geom_bond_site_symmetry_2
_ccdc_geom_bond_type
Co0 O1 2.216 . S
Co0 O2 2.091 . S
Co0 O4 2.004 . S
Co0 O10 2.021 1_554 S
Co0 O12 2.137 . S
Co0 O13 2.244 . S
O1 Co0 2.216 . S
O1 C8 1.247 . S
O2 Co0 2.091 . S
O2 C8 1.261 . S
C3 O12 1.247 . S
C3 O13 1.272 . S
O4 Co0 2.004 . S
O4 C9 1.259 . S
Co5 O6 2.061 . S
Co5 O11 2.052 1_554 S
Co5 O13 2.135 . S
O6 Co5 2.061 . S
O6 C9 1.235 . S
C7 O10 1.238 . S
C7 O11 1.241 . S
C8 O1 1.247 . S
C8 O2 1.261 . S
C9 O4 1.259 . S
C9 O6 1.235 . S
O10 Co0 2.021 1_556 S
O10 C7 1.238 . S
O11 Co5 2.052 1_556 S
O11 C7 1.241 . S
O12 Co0 2.137 . S
O12 C3 1.247 . S
O13 Co0 2.244 . S
O13 C3 1.272 . S
O13 Co5 2.135 . S
Co14 O15 2.216 . S
Co14 O16 2.091 . S
Co14 O18 2.004 . S
Co14 O24 2.021 1_554 S
Co14 O26 2.137 . S
Co14 O27 2.244 . S
O15 Co14 2.216 . S
O15 C22 1.247 . S
O16 Co14 2.091 . S
O16 C22 1.261 . S
C17 O26 1.247 . S
C17 O27 1.272 . S
O18 Co14 2.004 . S
O18 C23 1.259 . S
Co19 O20 2.061 . S
Co19 O25 2.052 1_554 S
Co19 O27 2.135 . S
O20 Co19 2.061 . S
O20 C23 1.235 . S
C21 O24 1.238 . S
C21 O25 1.241 . S
C22 O15 1.247 . S
C22 O16 1.261 . S
C23 O18 1.259 . S
C23 O20 1.235 . S
O24 Co14 2.021 1_556 S
O24 C21 1.238 . S
O25 Co19 2.052 1_556 S
O25 C21 1.241 . S
O26 Co14 2.137 . S
O26 C17 1.247 . S
O27 Co14 2.244 . S
O27 C17 1.272 . S
O27 Co19 2.135 . S
Co28 O29 2.216 . S
Co28 O30 2.091 . S
Co28 O32 2.004 . S
Co28 O38 2.021 1_554 S
Co28 O40 2.137 . S
Co28 O41 2.244 . S
O29 Co28 2.216 . S
O29 C36 1.247 . S
O30 Co28 2.091 . S
O30 C36 1.261 . S
C31 O40 1.247 . S
C31 O41 1.272 . S
O32 Co28 2.004 . S
O32 C37 1.259 . S
Co33 O34 2.061 . S
Co33 O39 2.052 1_554 S
Co33 O41 2.135 . S
O34 Co33 2.061 . S
O34 C37 1.235 . S
C35 O38 1.238 . S
C35 O39 1.241 . S
C36 O29 1.247 . S
C36 O30 1.261 . S
C37 O32 1.259 . S
C37 O34 1.235 . S
O38 Co28 2.021 1_556 S
O38 C35 1.238 . S
O39 Co33 2.052 1_556 S
O39 C35 1.241 . S
O40 Co28 2.137 . S
O40 C31 1.247 . S
O41 Co28 2.244 . S
O41 C31 1.272 . S
O41 Co33 2.135 . S
Co42 O43 2.216 . S
Co42 O44 2.091 . S
Co42 O46 2.004 . S
Co42 O52 2.021 1_556 S
Co42 O54 2.137 . S
Co42 O55 2.244 . S
O43 Co42 2.216 . S
O43 C50 1.247 . S
O44 Co42 2.091 . S
O44 C50 1.261 . S
C45 O54 1.247 . S
C45 O55 1.272 . S
O46 Co42 2.004 . S
O46 C51 1.259 . S
Co47 O48 2.061 . S
Co47 O53 2.052 1_556 S
Co47 O55 2.135 . S
O48 Co47 2.061 . S
O48 C51 1.235 . S
C49 O52 1.238 . S
C49 O53 1.241 . S
C50 O43 1.247 . S
C50 O44 1.261 . S
C51 O46 1.259 . S
C51 O48 1.235 . S
O52 Co42 2.021 1_554 S
O52 C49 1.238 . S
O53 Co47 2.052 1_554 S
O53 C49 1.241 . S
O54 Co42 2.137 . S
O54 C45 1.247 . S
O55 Co42 2.244 . S
O55 C45 1.272 . S
O55 Co47 2.135 . S
Co56 O57 2.216 . S
Co56 O58 2.091 . S
Co56 O60 2.004 . S
Co56 O66 2.021 1_556 S
Co56 O68 2.137 . S
Co56 O69 2.244 . S
O57 Co56 2.216 . S
O57 C64 1.247 . S
O58 Co56 2.091 . S
O58 C64 1.261 . S
C59 O68 1.247 . S
C59 O69 1.272 . S
O60 Co56 2.004 . S
O60 C65 1.259 . S
Co61 O62 2.061 . S
Co61 O67 2.052 1_556 S
Co61 O69 2.135 . S
O62 Co61 2.061 . S
O62 C65 1.235 . S
C63 O66 1.238 . S
C63 O67 1.241 . S
C64 O57 1.247 . S
C64 O58 1.261 . S
C65 O60 1.259 . S
C65 O62 1.235 . S
O66 Co56 2.021 1_554 S
O66 C63 1.238 . S
O67 Co61 2.052 1_554 S
O67 C63 1.241 . S
O68 Co56 2.137 . S
O68 C59 1.247 . S
O69 Co56 2.244 . S
O69 C59 1.272 . S
O69 Co61 2.135 . S
Co70 O71 2.216 . S
Co70 O72 2.091 . S
Co70 O74 2.004 . S
Co70 O80 2.021 1_556 S
Co70 O82 2.137 . S
Co70 O83 2.244 . S
O71 Co70 2.216 . S
O71 C78 1.247 . S
O72 Co70 2.091 . S
O72 C78 1.261 . S
C73 O82 1.247 . S
C73 O83 1.272 . S
O74 Co70 2.004 . S
O74 C79 1.259 . S
Co75 O76 2.061 . S
Co75 O81 2.052 1_556 S
Co75 O83 2.135 . S
O76 Co75 2.061 . S
O76 C79 1.235 . S
C77 O80 1.238 . S
C77 O81 1.241 . S
C78 O71 1.247 . S
C78 O72 1.261 . S
C79 O74 1.259 . S
C79 O76 1.235 . S
O80 Co70 2.021 1_554 S
O80 C77 1.238 . S
O81 Co75 2.052 1_554 S
O81 C77 1.241 . S
O82 Co70 2.137 . S
O82 C73 1.247 . S
O83 Co70 2.244 . S
O83 C73 1.272 . S
O83 Co75 2.135 . S
Co84 O85 2.216 . S
Co84 O86 2.091 . S
Co84 O88 2.004 . S
Co84 O94 2.021 . S
Co84 O96 2.137 . S
Co84 O97 2.244 . S
O85 Co84 2.216 . S
O85 C92 1.247 . S
O86 Co84 2.091 . S
O86 C92 1.261 . S
C87 O96 1.247 . S
C87 O97 1.272 . S
O88 Co84 2.004 . S
O88 C93 1.259 . S
Co89 O90 2.061 . S
Co89 O95 2.052 . S
Co89 O97 2.135 . S
O90 Co89 2.061 . S
O90 C93 1.235 . S
C91 O94 1.238 . S
C91 O95 1.241 . S
C92 O85 1.247 . S
C92 O86 1.261 . S
C93 O88 1.259 . S
C93 O90 1.235 . S
O94 Co84 2.021 . S
O94 C91 1.238 . S
O95 Co89 2.052 . S
O95 C91 1.241 . S
O96 Co84 2.137 . S
O96 C87 1.247 . S
O97 Co84 2.244 . S
O97 C87 1.272 . S
O97 Co89 2.135 . S
Co98 O99 2.216 . S
Co98 O100 2.091 . S
Co98 O102 2.004 . S
Co98 O108 2.021 . S
Co98 O110 2.137 . S
Co98 O111 2.244 . S
O99 Co98 2.216 . S
O99 C106 1.247 . S
O100 Co98 2.091 . S
O100 C106 1.261 . S
C101 O110 1.247 . S
C101 O111 1.272 . S
O102 Co98 2.004 . S
O102 C107 1.259 . S
Co103 O104 2.061 . S
Co103 O109 2.052 . S
Co103 O111 2.135 . S
O104 Co103 2.061 . S
O104 C107 1.235 . S
C105 O108 1.238 . S
C105 O109 1.241 . S
C106 O99 1.247 . S
C106 O100 1.261 . S
C107 O102 1.259 . S
C107 O104 1.235 . S
O108 Co98 2.021 . S
O108 C105 1.238 . S
O109 Co103 2.052 . S
O109 C105 1.241 . S
O110 Co98 2.137 . S
O110 C101 1.247 . S
O111 Co98 2.244 . S
O111 C101 1.272 . S
O111 Co103 2.135 . S
Co112 O113 2.216 . S
Co112 O114 2.091 . S
Co112 O116 2.004 . S
Co112 O122 2.021 . S
Co112 O124 2.137 . S
Co112 O125 2.244 . S
O113 Co112 2.216 . S
O113 C120 1.247 . S
O114 Co112 2.091 . S
O114 C120 1.261 . S
C115 O124 1.247 . S
C115 O125 1.272 . S
O116 Co112 2.004 . S
O116 C121 1.259 . S
Co117 O118 2.061 . S
Co117 O123 2.052 . S
Co117 O125 2.135 . S
O118 Co117 2.061 . S
O118 C121 1.235 . S
C119 O122 1.238 . S
C119 O123 1.241 . S
C120 O113 1.247 . S
C120 O114 1.261 . S
C121 O116 1.259 . S
C121 O118 1.235 . S
O122 Co112 2.021 . S
O122 C119 1.238 . S
O123 Co117 2.052 . S
O123 C119 1.241 . S
O124 Co112 2.137 . S
O124 C115 1.247 . S
O125 Co112 2.244 . S
O125 C115 1.272 . S
O125 Co117 2.135 . S
Co126 O127 2.216 . S
Co126 O128 2.091 . S
Co126 O130 2.004 . S
Co126 O136 2.021 . S
Co126 O138 2.137 . S
Co126 O139 2.244 . S
O127 Co126 2.216 . S
O127 C134 1.247 . S
O128 Co126 2.091 . S
O128 C134 1.261 . S
C129 O138 1.247 . S
C129 O139 1.272 . S
O130 Co126 2.004 . S
O130 C135 1.259 . S
Co131 O132 2.061 . S
Co131 O137 2.052 . S
Co131 O139 2.135 . S
O132 Co131 2.061 . S
O132 C135 1.235 . S
C133 O136 1.238 . S
C133 O137 1.241 . S
C134 O127 1.247 . S
C134 O128 1.261 . S
C135 O130 1.259 . S
C135 O132 1.235 . S
O136 Co126 2.021 . S
O136 C133 1.238 . S
O137 Co131 2.052 . S
O137 C133 1.241 . S
O138 Co126 2.137 . S
O138 C129 1.247 . S
O139 Co126 2.244 . S
O139 C129 1.272 . S
O139 Co131 2.135 . S
Co140 O141 2.216 . S
Co140 O142 2.091 . S
Co140 O144 2.004 . S
Co140 O150 2.021 . S
Co140 O152 2.137 . S
Co140 O153 2.244 . S
O141 Co140 2.216 . S
O141 C148 1.247 . S
O142 Co140 2.091 . S
O142 C148 1.261 . S
C143 O152 1.247 . S
C143 O153 1.272 . S
O144 Co140 2.004 . S
O144 C149 1.259 . S
Co145 O146 2.061 . S
Co145 O151 2.052 . S
Co145 O153 2.135 . S
O146 Co145 2.061 . S
O146 C149 1.235 . S
C147 O150 1.238 . S
C147 O151 1.241 . S
C148 O141 1.247 . S
C148 O142 1.261 . S
C149 O144 1.259 . S
C149 O146 1.235 . S
O150 Co140 2.021 . S
O150 C147 1.238 . S
O151 Co145 2.052 . S
O151 C147 1.241 . S
O152 Co140 2.137 . S
O152 C143 1.247 . S
O153 Co140 2.244 . S
O153 C143 1.272 . S
O153 Co145 2.135 . S
Co154 O155 2.216 . S
Co154 O156 2.091 . S
Co154 O158 2.004 . S
Co154 O164 2.021 . S
Co154 O166 2.137 . S
Co154 O167 2.244 . S
O155 Co154 2.216 . S
O155 C162 1.247 . S
O156 Co154 2.091 . S
O156 C162 1.261 . S
C157 O166 1.247 . S
C157 O167 1.272 . S
O158 Co154 2.004 . S
O158 C163 1.259 . S
Co159 O160 2.061 . S
Co159 O165 2.052 . S
Co159 O167 2.135 . S
O160 Co159 2.061 . S
O160 C163 1.235 . S
C161 O164 1.238 . S
C161 O165 1.241 . S
C162 O155 1.247 . S
C162 O156 1.261 . S
C163 O158 1.259 . S
C163 O160 1.235 . S
O164 Co154 2.021 . S
O164 C161 1.238 . S
O165 Co159 2.052 . S
O165 C161 1.241 . S
O166 Co154 2.137 . S
O166 C157 1.247 . S
O167 Co154 2.244 . S
O167 C157 1.272 . S
O167 Co159 2.135 . S
Co168 O169 2.216 . S
Co168 O170 2.091 . S
Co168 O172 2.004 . S
Co168 O178 2.021 . S
Co168 O180 2.137 . S
Co168 O181 2.244 . S
O169 Co168 2.216 . S
O169 C176 1.247 . S
O170 Co168 2.091 . S
O170 C176 1.261 . S
C171 O180 1.247 . S
C171 O181 1.272 . S
O172 Co168 2.004 . S
O172 C177 1.259 . S
Co173 O174 2.061 . S
Co173 O179 2.052 . S
Co173 O181 2.135 . S
O174 Co173 2.061 . S
O174 C177 1.235 . S
C175 O178 1.238 . S
C175 O179 1.241 . S
C176 O169 1.247 . S
C176 O170 1.261 . S
C177 O172 1.259 . S
C177 O174 1.235 . S
O178 Co168 2.021 . S
O178 C175 1.238 . S
O179 Co173 2.052 . S
O179 C175 1.241 . S
O180 Co168 2.137 . S
O180 C171 1.247 . S
O181 Co168 2.244 . S
O181 C171 1.272 . S
O181 Co173 2.135 . S
Co182 O183 2.216 . S
Co182 O184 2.091 . S
Co182 O186 2.004 . S
Co182 O192 2.021 . S
Co182 O194 2.137 . S
Co182 O195 2.244 . S
O183 Co182 2.216 . S
O183 C190 1.247 . S
O184 Co182 2.091 . S
O184 C190 1.261 . S
C185 O194 1.247 . S
C185 O195 1.272 . S
O186 Co182 2.004 . S
O186 C191 1.259 . S
Co187 O188 2.061 . S
Co187 O193 2.052 . S
Co187 O195 2.135 . S
O188 Co187 2.061 . S
O188 C191 1.235 . S
C189 O192 1.238 . S
C189 O193 1.241 . S
C190 O183 1.247 . S
C190 O184 1.261 . S
C191 O186 1.259 . S
C191 O188 1.235 . S
O192 Co182 2.021 . S
O192 C189 1.238 . S
O193 Co187 2.052 . S
O193 C189 1.241 . S
O194 Co182 2.137 . S
O194 C185 1.247 . S
O195 Co182 2.244 . S
O195 C185 1.272 . S
O195 Co187 2.135 . S
Co196 O197 2.216 . S
Co196 O198 2.091 . S
Co196 O200 2.004 . S
Co196 O206 2.021 . S
Co196 O208 2.137 . S
Co196 O209 2.244 . S
O197 Co196 2.216 . S
O197 C204 1.247 . S
O198 Co196 2.091 . S
O198 C204 1.261 . S
C199 O208 1.247 . S
C199 O209 1.272 . S
O200 Co196 2.004 . S
O200 C205 1.259 . S
Co201 O202 2.061 . S
Co201 O207 2.052 . S
Co201 O209 2.135 . S
O202 Co201 2.061 . S
O202 C205 1.235 . S
C203 O206 1.238 . S
C203 O207 1.241 . S
C204 O197 1.247 . S
C204 O198 1.261 . S
C205 O200 1.259 . S
C205 O202 1.235 . S
O206 Co196 2.021 . S
O206 C203 1.238 . S
O207 Co201 2.052 . S
O207 C203 1.241 . S
O208 Co196 2.137 . S
O208 C199 1.247 . S
O209 Co196 2.244 . S
O209 C199 1.272 . S
O209 Co201 2.135 . S
Co210 O211 2.216 . S
Co210 O212 2.091 . S
Co210 O214 2.004 . S
Co210 O220 2.021 . S
Co210 O222 2.137 . S
Co210 O223 2.244 . S
O211 Co210 2.216 . S
O211 C218 1.247 . S
O212 Co210 2.091 . S
O212 C218 1.261 . S
C213 O222 1.247 . S
C213 O223 1.272 . S
O214 Co210 2.004 . S
O214 C219 1.259 . S
Co215 O216 2.061 . S
Co215 O221 2.052 . S
Co215 O223 2.135 . S
O216 Co215 2.061 . S
O216 C219 1.235 . S
C217 O220 1.238 . S
C217 O221 1.241 . S
C218 O211 1.247 . S
C218 O212 1.261 . S
C219 O214 1.259 . S
C219 O216 1.235 . S
O220 Co210 2.021 . S
O220 C217 1.238 . S
O221 Co215 2.052 . S
O221 C217 1.241 . S
O222 Co210 2.137 . S
O222 C213 1.247 . S
O223 Co210 2.244 . S
O223 C213 1.272 . S
O223 Co215 2.135 . S
Co224 O225 2.216 . S
Co224 O226 2.091 . S
Co224 O228 2.004 . S
Co224 O234 2.021 . S
Co224 O236 2.137 . S
Co224 O237 2.244 . S
O225 Co224 2.216 . S
O225 C232 1.247 . S
O226 Co224 2.091 . S
O226 C232 1.261 . S
C227 O236 1.247 . S
C227 O237 1.272 . S
O228 Co224 2.004 . S
O228 C233 1.259 . S
Co229 O230 2.061 . S
Co229 O235 2.052 . S
Co229 O237 2.135 . S
O230 Co229 2.061 . S
O230 C233 1.235 . S
C231 O234 1.238 . S
C231 O235 1.241 . S
C232 O225 1.247 . S
C232 O226 1.261 . S
C233 O228 1.259 . S
C233 O230 1.235 . S
O234 Co224 2.021 . S
O234 C231 1.238 . S
O235 Co229 2.052 . S
O235 C231 1.241 . S
O236 Co224 2.137 . S
O236 C227 1.247 . S
O237 Co224 2.244 . S
O237 C227 1.272 . S
O237 Co229 2.135 . S
Co238 O239 2.216 . S
Co238 O240 2.091 . S
Co238 O242 2.004 . S
Co238 O248 2.021 . S
Co238 O250 2.137 . S
Co238 O251 2.244 . S
O239 Co238 2.216 . S
O239 C246 1.247 . S
O240 Co238 2.091 . S
O240 C246 1.261 . S
C241 O250 1.247 . S
C241 O251 1.272 . S
O242 Co238 2.004 . S
O242 C247 1.259 . S
Co243 O244 2.061 . S
Co243 O249 2.052 . S
Co243 O251 2.135 . S
O244 Co243 2.061 . S
O244 C247 1.235 . S
C245 O248 1.238 . S
C245 O249 1.241 . S
C246 O239 1.247 . S
C246 O240 1.261 . S
C247 O242 1.259 . S
C247 O244 1.235 . S
O248 Co238 2.021 . S
O248 C245 1.238 . S
O249 Co243 2.052 . S
O249 C245 1.241 . S
O250 Co238 2.137 . S
O250 C241 1.247 . S
O251 Co238 2.244 . S
O251 C241 1.272 . S
O251 Co243 2.135 . S
C252 C253 1.391 . S
C252 C254 1.394 . S
C252 H268 0.931 . S
C253 C252 1.391 . S
C253 C257 1.376 . S
C254 C252 1.394 . S
C254 C255 1.369 . S
C254 C258 1.531 . S
C255 C254 1.369 . S
C255 C256 1.410 . S
C255 C263 1.503 . S
C256 C255 1.410 . S
C256 C257 1.392 . S
C256 C259 1.511 . S
C257 C253 1.376 . S
C257 C256 1.392 . S
C257 H269 0.929 . S
C258 C254 1.531 . S
C258 H270 0.960 . S
C258 H271 0.962 . S
C258 H272 0.960 . S
C259 C256 1.511 . S
C259 H273 0.961 . S
C259 H274 0.961 . S
C259 H275 0.961 . S
C260 C261 1.370 . S
C260 C262 1.363 . S
C260 H276 0.931 . S
C261 C260 1.370 . S
C261 C265 1.408 . S
C262 C260 1.363 . S
C262 C263 1.370 . S
C262 C266 1.524 . S
C263 C255 1.503 . S
C263 C262 1.370 . S
C263 C264 1.403 . S
C264 C263 1.403 . S
C264 C265 1.404 . S
C264 C267 1.539 . S
C265 C261 1.408 . S
C265 C264 1.404 . S
C265 H277 0.930 . S
C266 C262 1.524 . S
C266 H278 0.956 . S
C266 H279 0.961 . S
C266 H280 0.961 . S
C267 C264 1.539 . S
C267 H281 0.958 . S
C267 H282 0.961 . S
C267 H283 0.960 . S
H268 C252 0.931 . S
H269 C257 0.929 . S
H270 C258 0.960 . S
H271 C258 0.962 . S
H272 C258 0.960 . S
H273 C259 0.961 . S
H274 C259 0.961 . S
H275 C259 0.961 . S
H276 C260 0.931 . S
H277 C265 0.930 . S
H278 C266 0.956 . S
H279 C266 0.961 . S
H280 C266 0.961 . S
H281 C267 0.958 . S
H282 C267 0.961 . S
H283 C267 0.960 . S
C284 C285 1.391 . S
C284 C286 1.394 . S
C284 H300 0.931 . S
C285 C284 1.391 . S
C285 C289 1.376 . S
C286 C284 1.394 . S
C286 C287 1.369 . S
C286 C290 1.531 . S
C287 C286 1.369 . S
C287 C288 1.410 . S
C287 C295 1.503 . S
C288 C287 1.410 . S
C288 C289 1.392 . S
C288 C291 1.511 . S
C289 C285 1.376 . S
C289 C288 1.392 . S
C289 H301 0.929 . S
C290 C286 1.531 . S
C290 H302 0.960 . S
C290 H303 0.962 . S
C290 H304 0.960 . S
C291 C288 1.511 . S
C291 H305 0.961 . S
C291 H306 0.961 . S
C291 H307 0.961 . S
C292 C293 1.370 . S
C292 C294 1.363 . S
C292 H308 0.931 . S
C293 C292 1.370 . S
C293 C297 1.408 . S
C294 C292 1.363 . S
C294 C295 1.370 . S
C294 C298 1.524 . S
C295 C287 1.503 . S
C295 C294 1.370 . S
C295 C296 1.403 . S
C296 C295 1.403 . S
C296 C297 1.404 . S
C296 C299 1.539 . S
C297 C293 1.408 . S
C297 C296 1.404 . S
C297 H309 0.930 . S
C298 C294 1.524 . S
C298 H310 0.956 . S
C298 H311 0.961 . S
C298 H312 0.961 . S
C299 C296 1.539 . S
C299 H313 0.958 . S
C299 H314 0.961 . S
C299 H315 0.960 . S
H300 C284 0.931 . S
H301 C289 0.929 . S
H302 C290 0.960 . S
H303 C290 0.962 . S
H304 C290 0.960 . S
H305 C291 0.961 . S
H306 C291 0.961 . S
H307 C291 0.961 . S
H308 C292 0.931 . S
H309 C297 0.930 . S
H310 C298 0.956 . S
H311 C298 0.961 . S
H312 C298 0.961 . S
H313 C299 0.958 . S
H314 C299 0.961 . S
H315 C299 0.960 . S
C316 C317 1.391 . S
C316 C318 1.394 . S
C316 H332 0.931 . S
C317 C316 1.391 . S
C317 C321 1.376 . S
C318 C316 1.394 . S
C318 C319 1.369 . S
C318 C322 1.531 . S
C319 C318 1.369 . S
C319 C320 1.410 . S
C319 C327 1.503 . S
C320 C319 1.410 . S
C320 C321 1.392 . S
C320 C323 1.511 . S
C321 C317 1.376 . S
C321 C320 1.392 . S
C321 H333 0.929 . S
C322 C318 1.531 . S
C322 H334 0.960 . S
C322 H335 0.962 . S
C322 H336 0.960 . S
C323 C320 1.511 . S
C323 H337 0.961 . S
C323 H338 0.961 . S
C323 H339 0.961 . S
C324 C325 1.370 . S
C324 C326 1.363 . S
C324 H340 0.931 . S
C325 C324 1.370 . S
C325 C329 1.408 . S
C326 C324 1.363 . S
C326 C327 1.370 . S
C326 C330 1.524 . S
C327 C319 1.503 . S
C327 C326 1.370 . S
C327 C328 1.403 . S
C328 C327 1.403 . S
C328 C329 1.404 . S
C328 C331 1.539 . S
C329 C325 1.408 . S
C329 C328 1.404 . S
C329 H341 0.930 . S
C330 C326 1.524 . S
C330 H342 0.956 . S
C330 H343 0.961 . S
C330 H344 0.961 . S
C331 C328 1.539 . S
C331 H345 0.958 . S
C331 H346 0.961 . S
C331 H347 0.960 . S
H332 C316 0.931 . S
H333 C321 0.929 . S
H334 C322 0.960 . S
H335 C322 0.962 . S
H336 C322 0.960 . S
H337 C323 0.961 . S
H338 C323 0.961 . S
H339 C323 0.961 . S
H340 C324 0.931 . S
H341 C329 0.930 . S
H342 C330 0.956 . S
H343 C330 0.961 . S
H344 C330 0.961 . S
H345 C331 0.958 . S
H346 C331 0.961 . S
H347 C331 0.960 . S
C348 C349 1.391 . S
C348 C350 1.394 . S
C348 H364 0.931 . S
C349 C348 1.391 . S
C349 C353 1.376 . S
C350 C348 1.394 . S
C350 C351 1.369 . S
C350 C354 1.531 . S
C351 C350 1.369 . S
C351 C352 1.410 . S
C351 C359 1.503 . S
C352 C351 1.410 . S
C352 C353 1.392 . S
C352 C355 1.511 . S
C353 C349 1.376 . S
C353 C352 1.392 . S
C353 H365 0.929 . S
C354 C350 1.531 . S
C354 H366 0.960 . S
C354 H367 0.962 . S
C354 H368 0.960 . S
C355 C352 1.511 . S
C355 H369 0.961 . S
C355 H370 0.961 . S
C355 H371 0.961 . S
C356 C357 1.370 . S
C356 C358 1.363 . S
C356 H372 0.931 . S
C357 C356 1.370 . S
C357 C361 1.408 . S
C358 C356 1.363 . S
C358 C359 1.370 . S
C358 C362 1.524 . S
C359 C351 1.503 . S
C359 C358 1.370 . S
C359 C360 1.403 . S
C360 C359 1.403 . S
C360 C361 1.404 . S
C360 C363 1.539 . S
C361 C357 1.408 . S
C361 C360 1.404 . S
C361 H373 0.930 . S
C362 C358 1.524 . S
C362 H374 0.956 . S
C362 H375 0.961 . S
C362 H376 0.961 . S
C363 C360 1.539 . S
C363 H377 0.958 . S
C363 H378 0.961 . S
C363 H379 0.960 . S
H364 C348 0.931 . S
H365 C353 0.929 . S
H366 C354 0.960 . S
H367 C354 0.962 . S
H368 C354 0.960 . S
H369 C355 0.961 . S
H370 C355 0.961 . S
H371 C355 0.961 . S
H372 C356 0.931 . S
H373 C361 0.930 . S
H374 C362 0.956 . S
H375 C362 0.961 . S
H376 C362 0.961 . S
H377 C363 0.958 . S
H378 C363 0.961 . S
H379 C363 0.960 . S
C380 C381 1.391 . S
C380 C382 1.394 . S
C380 H396 0.931 . S
C381 C380 1.391 . S
C381 C385 1.376 . S
C382 C380 1.394 . S
C382 C383 1.369 . S
C382 C386 1.531 . S
C383 C382 1.369 . S
C383 C384 1.410 . S
C383 C391 1.503 . S
C384 C383 1.410 . S
C384 C385 1.392 . S
C384 C387 1.511 . S
C385 C381 1.376 . S
C385 C384 1.392 . S
C385 H397 0.929 . S
C386 C382 1.531 . S
C386 H398 0.960 . S
C386 H399 0.962 . S
C386 H400 0.960 . S
C387 C384 1.511 . S
C387 H401 0.961 . S
C387 H402 0.961 . S
C387 H403 0.961 . S
C388 C389 1.370 . S
C388 C390 1.363 . S
C388 H404 0.931 . S
C389 C388 1.370 . S
C389 C393 1.408 . S
C390 C388 1.363 . S
C390 C391 1.370 . S
C390 C394 1.524 . S
C391 C383 1.503 . S
C391 C390 1.370 . S
C391 C392 1.403 . S
C392 C391 1.403 . S
C392 C393 1.404 . S
C392 C395 1.539 . S
C393 C389 1.408 . S
C393 C392 1.404 . S
C393 H405 0.930 . S
C394 C390 1.524 . S
C394 H406 0.956 . S
C394 H407 0.961 . S
C394 H408 0.961 . S
C395 C392 1.539 . S
C395 H409 0.958 . S
C395 H410 0.961 . S
C395 H411 0.960 . S
H396 C380 0.931 . S
H397 C385 0.929 . S
H398 C386 0.960 . S
H399 C386 0.962 . S
H400 C386 0.960 . S
H401 C387 0.961 . S
H402 C387 0.961 . S
H403 C387 0.961 . S
H404 C388 0.931 . S
H405 C393 0.930 . S
H406 C394 0.956 . S
H407 C394 0.961 . S
H408 C394 0.961 . S
H409 C395 0.958 . S
H410 C395 0.961 . S
H411 C395 0.960 . S
C412 C413 1.391 . S
C412 C414 1.394 . S
C412 H428 0.931 . S
C413 C412 1.391 . S
C413 C417 1.376 . S
C414 C412 1.394 . S
C414 C415 1.369 . S
C414 C418 1.531 . S
C415 C414 1.369 . S
C415 C416 1.410 . S
C415 C423 1.503 . S
C416 C415 1.410 . S
C416 C417 1.392 . S
C416 C419 1.511 . S
C417 C413 1.376 . S
C417 C416 1.392 . S
C417 H429 0.929 . S
C418 C414 1.531 . S
C418 H430 0.960 . S
C418 H431 0.962 . S
C418 H432 0.960 . S
C419 C416 1.511 . S
C419 H433 0.961 . S
C419 H434 0.961 . S
C419 H435 0.961 . S
C420 C421 1.370 . S
C420 C422 1.363 . S
C420 H436 0.931 . S
C421 C420 1.370 . S
C421 C425 1.408 . S
C422 C420 1.363 . S
C422 C423 1.370 . S
C422 C426 1.524 . S
C423 C415 1.503 . S
C423 C422 1.370 . S
C423 C424 1.403 . S
C424 C423 1.403 . S
C424 C425 1.404 . S
C424 C427 1.539 . S
C425 C421 1.408 . S
C425 C424 1.404 . S
C425 H437 0.930 . S
C426 C422 1.524 . S
C426 H438 0.956 . S
C426 H439 0.961 . S
C426 H440 0.961 . S
C427 C424 1.539 . S
C427 H441 0.958 . S
C427 H442 0.961 . S
C427 H443 0.960 . S
H428 C412 0.931 . S
H429 C417 0.929 . S
H430 C418 0.960 . S
H431 C418 0.962 . S
H432 C418 0.960 . S
H433 C419 0.961 . S
H434 C419 0.961 . S
H435 C419 0.961 . S
H436 C420 0.931 . S
H437 C425 0.930 . S
H438 C426 0.956 . S
H439 C426 0.961 . S
H440 C426 0.961 . S
H441 C427 0.958 . S
H442 C427 0.961 . S
H443 C427 0.960 . S
C444 C445 1.391 . S
C444 C446 1.394 . S
C444 H460 0.931 . S
C445 C444 1.391 . S
C445 C449 1.376 . S
C446 C444 1.394 . S
C446 C447 1.369 . S
C446 C450 1.531 1_655 S
C447 C446 1.369 . S
C447 C448 1.410 . S
C447 C455 1.503 1_654 S
C448 C447 1.410 . S
C448 C449 1.392 . S
C448 C451 1.511 . S
C449 C445 1.376 . S
C449 C448 1.392 . S
C449 H461 0.929 . S
C450 C446 1.531 1_455 S
C450 H462 0.957 1_454 S
C450 H463 0.962 . S
C450 H464 0.960 1_455 S
C451 C448 1.511 . S
C451 H465 0.961 . S
C451 H466 0.961 1_554 S
C451 H467 0.961 1_554 S
C452 C453 1.370 . S
C452 C454 1.363 . S
C452 H468 0.931 . S
C453 C452 1.370 . S
C453 C457 1.408 . S
C454 C452 1.363 . S
C454 C455 1.370 . S
C454 C458 1.524 1_556 S
C455 C447 1.503 1_456 S
C455 C454 1.370 . S
C455 C456 1.403 1_455 S
C456 C455 1.403 1_655 S
C456 C457 1.404 1_655 S
C456 C459 1.539 . S
C457 C453 1.408 . S
C457 C456 1.404 1_455 S
C457 H469 0.930 1_455 S
C458 C454 1.524 1_554 S
C458 H470 0.956 . S
C458 H471 0.961 . S
C458 H472 0.961 . S
C459 C456 1.539 . S
C459 H473 0.958 . S
C459 H474 0.961 . S
C459 H475 0.960 . S
H460 C444 0.931 . S
H461 C449 0.929 . S
H462 C450 0.957 1_656 S
H463 C450 0.962 . S
H464 C450 0.960 1_655 S
H465 C451 0.961 . S
H466 C451 0.961 1_556 S
H467 C451 0.961 1_556 S
H468 C452 0.931 . S
H469 C457 0.930 1_655 S
H470 C458 0.956 . S
H471 C458 0.961 . S
H472 C458 0.961 . S
H473 C459 0.958 . S
H474 C459 0.961 . S
H475 C459 0.960 . S
C476 C477 1.391 . S
C476 C478 1.394 . S
C476 H492 0.931 . S
C477 C476 1.391 . S
C477 C481 1.376 . S
C478 C476 1.394 . S
C478 C479 1.369 . S
C478 C482 1.531 . S
C479 C478 1.369 . S
C479 C480 1.410 . S
C479 C487 1.503 1_554 S
C480 C479 1.410 . S
C480 C481 1.392 . S
C480 C483 1.511 . S
C481 C477 1.376 . S
C481 C480 1.392 . S
C481 H493 0.929 . S
C482 C478 1.531 . S
C482 H494 0.960 . S
C482 H495 0.962 . S
C482 H496 0.960 . S
C483 C480 1.511 . S
C483 H497 0.961 . S
C483 H498 0.961 1_554 S
C483 H499 0.961 . S
C484 C485 1.370 . S
C484 C486 1.363 . S
C484 H500 0.931 . S
C485 C484 1.370 . S
C485 C489 1.408 . S
C486 C484 1.363 . S
C486 C487 1.370 . S
C486 C490 1.524 . S
C487 C479 1.503 1_556 S
C487 C486 1.370 . S
C487 C488 1.403 . S
C488 C487 1.403 . S
C488 C489 1.404 . S
C488 C491 1.539 1_556 S
C489 C485 1.408 . S
C489 C488 1.404 . S
C489 H501 0.930 . S
C490 C486 1.524 . S
C490 H502 0.956 . S
C490 H503 0.961 . S
C490 H504 0.961 . S
C491 C488 1.539 1_554 S
C491 H505 0.958 . S
C491 H506 0.956 1_554 S
C491 H507 0.960 . S
H492 C476 0.931 . S
H493 C481 0.929 . S
H494 C482 0.960 . S
H495 C482 0.962 . S
H496 C482 0.960 . S
H497 C483 0.961 . S
H498 C483 0.961 1_556 S
H499 C483 0.961 . S
H500 C484 0.931 . S
H501 C489 0.930 . S
H502 C490 0.956 . S
H503 C490 0.961 . S
H504 C490 0.961 . S
H505 C491 0.958 . S
H506 C491 0.956 1_556 S
H507 C491 0.960 . S
C508 C509 1.391 . S
C508 C510 1.394 . S
C508 H524 0.931 . S
C509 C508 1.391 . S
C509 C513 1.376 . S
C510 C508 1.394 . S
C510 C511 1.369 . S
C510 C514 1.531 . S
C511 C510 1.369 . S
C511 C512 1.410 . S
C511 C519 1.486 1_544 S
C512 C511 1.410 . S
C512 C513 1.392 . S
C512 C515 1.511 1_545 S
C513 C509 1.376 . S
C513 C512 1.392 . S
C513 H525 0.929 . S
C514 C510 1.531 . S
C514 H526 0.960 1_554 S
C514 H527 0.962 . S
C514 H528 0.960 . S
C515 C512 1.511 1_565 S
C515 H529 0.961 . S
C515 H530 0.961 . S
C515 H531 0.961 1_565 S
C516 C517 1.370 . S
C516 C518 1.363 . S
C516 H532 0.931 . S
C517 C516 1.370 . S
C517 C521 1.396 1_565 S
C518 C516 1.363 . S
C518 C519 1.402 . S
C518 C522 1.524 1_556 S
C519 C511 1.486 1_566 S
C519 C518 1.402 . S
C519 C520 1.389 1_565 S
C520 C519 1.389 1_545 S
C520 C521 1.411 . S
C520 C523 1.539 . S
C521 C517 1.396 1_545 S
C521 C520 1.411 . S
C521 H533 0.935 . S
C522 C518 1.524 1_554 S
C522 H534 0.956 . S
C522 H535 0.961 . S
C522 H536 0.961 . S
C523 C520 1.539 . S
C523 H537 0.958 . S
C523 H538 0.961 . S
C523 H539 0.960 . S
H524 C508 0.931 . S
H525 C513 0.929 . S
H526 C514 0.960 1_556 S
H527 C514 0.962 . S
H528 C514 0.960 . S
H529 C515 0.961 . S
H530 C515 0.961 . S
H531 C515 0.961 1_545 S
H532 C516 0.931 . S
H533 C521 0.935 . S
H534 C522 0.956 . S
H535 C522 0.961 . S
H536 C522 0.961 . S
H537 C523 0.958 . S
H538 C523 0.961 . S
H539 C523 0.960 . S
C540 C541 1.391 . S
C540 C542 1.394 . S
C540 H556 0.931 . S
C541 C540 1.391 . S
C541 C545 1.376 . S
C542 C540 1.394 . S
C542 C543 1.369 . S
C542 C546 1.531 . S
C543 C542 1.369 . S
C543 C544 1.410 . S
C543 C551 1.503 . S
C544 C543 1.410 . S
C544 C545 1.392 . S
C544 C547 1.511 . S
C545 C541 1.376 . S
C545 C544 1.392 . S
C545 H557 0.929 . S
C546 C542 1.531 . S
C546 H558 0.960 . S
C546 H559 0.962 . S
C546 H560 0.960 . S
C547 C544 1.511 . S
C547 H561 0.961 . S
C547 H562 0.961 . S
C547 H563 0.961 . S
C548 C549 1.370 . S
C548 C550 1.363 . S
C548 H564 0.931 . S
C549 C548 1.370 . S
C549 C553 1.408 . S
C550 C548 1.363 . S
C550 C551 1.370 . S
C550 C554 1.524 . S
C551 C543 1.503 . S
C551 C550 1.370 . S
C551 C552 1.403 . S
C552 C551 1.403 . S
C552 C553 1.404 . S
C552 C555 1.539 . S
C553 C549 1.408 . S
C553 C552 1.404 . S
C553 H565 0.930 . S
C554 C550 1.524 . S
C554 H566 0.956 . S
C554 H567 0.961 . S
C554 H568 0.961 . S
C555 C552 1.539 . S
C555 H569 0.958 . S
C555 H570 0.961 . S
C555 H571 0.960 . S
H556 C540 0.931 . S
H557 C545 0.929 . S
H558 C546 0.960 . S
H559 C546 0.962 . S
H560 C546 0.960 . S
H561 C547 0.961 . S
H562 C547 0.961 . S
H563 C547 0.961 . S
H564 C548 0.931 . S
H565 C553 0.930 . S
H566 C554 0.956 . S
H567 C554 0.961 . S
H568 C554 0.961 . S
H569 C555 0.958 . S
H570 C555 0.961 . S
H571 C555 0.960 . S
C572 C573 1.391 . S
C572 C574 1.394 . S
C572 H588 0.931 . S
C573 C572 1.391 . S
C573 C577 1.376 . S
C574 C572 1.394 . S
C574 C575 1.369 . S
C574 C578 1.531 . S
C575 C574 1.369 . S
C575 C576 1.410 . S
C575 C583 1.503 . S
C576 C575 1.410 . S
C576 C577 1.392 . S
C576 C579 1.511 . S
C577 C573 1.376 . S
C577 C576 1.392 . S
C577 H589 0.929 . S
C578 C574 1.531 . S
C578 H590 0.960 . S
C578 H591 0.962 . S
C578 H592 0.960 . S
C579 C576 1.511 . S
C579 H593 0.961 . S
C579 H594 0.961 . S
C579 H595 0.961 . S
C580 C581 1.370 . S
C580 C582 1.363 . S
C580 H596 0.931 . S
C581 C580 1.370 . S
C581 C585 1.408 . S
C582 C580 1.363 . S
C582 C583 1.370 . S
C582 C586 1.524 . S
C583 C575 1.503 . S
C583 C582 1.370 . S
C583 C584 1.403 . S
C584 C583 1.403 . S
C584 C585 1.404 . S
C584 C587 1.539 . S
C585 C581 1.408 . S
C585 C584 1.404 . S
C585 H597 0.930 . S
C586 C582 1.524 . S
C586 H598 0.956 . S
C586 H599 0.961 . S
C586 H600 0.961 . S
C587 C584 1.539 . S
C587 H601 0.958 . S
C587 H602 0.961 . S
C587 H603 0.960 . S
H588 C572 0.931 . S
H589 C577 0.929 . S
H590 C578 0.960 . S
H591 C578 0.962 . S
H592 C578 0.960 . S
H593 C579 0.961 . S
H594 C579 0.961 . S
H595 C579 0.961 . S
H596 C580 0.931 . S
H597 C585 0.930 . S
H598 C586 0.956 . S
H599 C586 0.961 . S
H600 C586 0.961 . S
H601 C587 0.958 . S
H602 C587 0.961 . S
H603 C587 0.960 . S
C604 C605 1.391 . S
C604 C606 1.394 . S
C604 H620 0.931 . S
C605 C604 1.391 . S
C605 C609 1.376 . S
C606 C604 1.394 . S
C606 C607 1.369 . S
C606 C610 1.531 . S
C607 C606 1.369 . S
C607 C608 1.410 . S
C607 C615 1.503 . S
C608 C607 1.410 . S
C608 C609 1.392 . S
C608 C611 1.511 . S
C609 C605 1.376 . S
C609 C608 1.392 . S
C609 H621 0.929 . S
C610 C606 1.531 . S
C610 H622 0.960 . S
C610 H623 0.962 . S
C610 H624 0.960 . S
C611 C608 1.511 . S
C611 H625 0.961 . S
C611 H626 0.961 . S
C611 H627 0.961 . S
C612 C613 1.370 . S
C612 C614 1.363 . S
C612 H628 0.931 . S
C613 C612 1.370 . S
C613 C617 1.408 . S
C614 C612 1.363 . S
C614 C615 1.370 . S
C614 C618 1.524 . S
C615 C607 1.503 . S
C615 C614 1.370 . S
C615 C616 1.403 . S
C616 C615 1.403 . S
C616 C617 1.404 . S
C616 C619 1.539 . S
C617 C613 1.408 . S
C617 C616 1.404 . S
C617 H629 0.930 . S
C618 C614 1.524 . S
C618 H630 0.956 . S
C618 H631 0.961 . S
C618 H632 0.961 . S
C619 C616 1.539 . S
C619 H633 0.958 . S
C619 H634 0.961 . S
C619 H635 0.960 . S
H620 C604 0.931 . S
H621 C609 0.929 . S
H622 C610 0.960 . S
H623 C610 0.962 . S
H624 C610 0.960 . S
H625 C611 0.961 . S
H626 C611 0.961 . S
H627 C611 0.961 . S
H628 C612 0.931 . S
H629 C617 0.930 . S
H630 C618 0.956 . S
H631 C618 0.961 . S
H632 C618 0.961 . S
H633 C619 0.958 . S
H634 C619 0.961 . S
H635 C619 0.960 . S
C636 C637 1.391 . S
C636 C638 1.394 . S
C636 H652 0.931 . S
C637 C636 1.391 . S
C637 C641 1.376 . S
C638 C636 1.394 . S
C638 C639 1.369 . S
C638 C642 1.531 . S
C639 C638 1.369 . S
C639 C640 1.410 . S
C639 C647 1.503 . S
C640 C639 1.410 . S
C640 C641 1.392 . S
C640 C643 1.511 . S
C641 C637 1.376 . S
C641 C640 1.392 . S
C641 H653 0.929 . S
C642 C638 1.531 . S
C642 H654 0.960 . S
C642 H655 0.962 . S
C642 H656 0.960 . S
C643 C640 1.511 . S
C643 H657 0.961 . S
C643 H658 0.961 . S
C643 H659 0.961 . S
C644 C645 1.370 . S
C644 C646 1.363 . S
C644 H660 0.931 . S
C645 C644 1.370 . S
C645 C649 1.408 . S
C646 C644 1.363 . S
C646 C647 1.370 . S
C646 C650 1.524 . S
C647 C639 1.503 . S
C647 C646 1.370 . S
C647 C648 1.403 . S
C648 C647 1.403 . S
C648 C649 1.404 . S
C648 C651 1.539 . S
C649 C645 1.408 . S
C649 C648 1.404 . S
C649 H661 0.930 . S
C650 C646 1.524 . S
C650 H662 0.956 . S
C650 H663 0.961 . S
C650 H664 0.961 . S
C651 C648 1.539 . S
C651 H665 0.958 . S
C651 H666 0.961 . S
C651 H667 0.960 . S
H652 C636 0.931 . S
H653 C641 0.929 . S
H654 C642 0.960 . S
H655 C642 0.962 . S
H656 C642 0.960 . S
H657 C643 0.961 . S
H658 C643 0.961 . S
H659 C643 0.961 . S
H660 C644 0.931 . S
H661 C649 0.930 . S
H662 C650 0.956 . S
H663 C650 0.961 . S
H664 C650 0.961 . S
H665 C651 0.958 . S
H666 C651 0.961 . S
H667 C651 0.960 . S
C668 C669 1.391 . S
C668 C670 1.394 . S
C668 H684 0.931 . S
C669 C668 1.391 . S
C669 C673 1.376 . S
C670 C668 1.394 . S
C670 C671 1.369 . S
C670 C674 1.531 . S
C671 C670 1.369 . S
C671 C672 1.410 . S
C671 C679 1.503 . S
C672 C671 1.410 . S
C672 C673 1.392 . S
C672 C675 1.511 . S
C673 C669 1.376 . S
C673 C672 1.392 . S
C673 H685 0.929 . S
C674 C670 1.531 . S
C674 H686 0.960 . S
C674 H687 0.962 . S
C674 H688 0.960 . S
C675 C672 1.511 . S
C675 H689 0.961 . S
C675 H690 0.961 . S
C675 H691 0.961 . S
C676 C677 1.370 . S
C676 C678 1.363 . S
C676 H692 0.931 . S
C677 C676 1.370 . S
C677 C681 1.408 . S
C678 C676 1.363 . S
C678 C679 1.370 . S
C678 C682 1.524 . S
C679 C671 1.503 . S
C679 C678 1.370 . S
C679 C680 1.403 . S
C680 C679 1.403 . S
C680 C681 1.404 . S
C680 C683 1.539 . S
C681 C677 1.408 . S
C681 C680 1.404 . S
C681 H693 0.930 . S
C682 C678 1.524 . S
C682 H694 0.956 . S
C682 H695 0.961 . S
C682 H696 0.961 . S
C683 C680 1.539 . S
C683 H697 0.958 . S
C683 H698 0.961 . S
C683 H699 0.960 . S
H684 C668 0.931 . S
H685 C673 0.929 . S
H686 C674 0.960 . S
H687 C674 0.962 . S
H688 C674 0.960 . S
H689 C675 0.961 . S
H690 C675 0.961 . S
H691 C675 0.961 . S
H692 C676 0.931 . S
H693 C681 0.930 . S
H694 C682 0.956 . S
H695 C682 0.961 . S
H696 C682 0.961 . S
H697 C683 0.958 . S
H698 C683 0.961 . S
H699 C683 0.960 . S
C700 C701 1.391 . S
C700 C702 1.394 . S
C700 H716 0.931 . S
C701 C700 1.391 . S
C701 C705 1.376 . S
C702 C700 1.394 . S
C702 C703 1.369 . S
C702 C706 1.531 . S
C703 C702 1.369 . S
C703 C704 1.410 . S
C703 C711 1.503 . S
C704 C703 1.410 . S
C704 C705 1.392 . S
C704 C707 1.511 . S
C705 C701 1.376 . S
C705 C704 1.392 . S
C705 H717 0.929 . S
C706 C702 1.531 . S
C706 H718 0.960 . S
C706 H719 0.962 . S
C706 H720 0.960 . S
C707 C704 1.511 . S
C707 H721 0.961 . S
C707 H722 0.961 . S
C707 H723 0.961 . S
C708 C709 1.370 . S
C708 C710 1.363 . S
C708 H724 0.931 . S
C709 C708 1.370 . S
C709 C713 1.408 . S
C710 C708 1.363 . S
C710 C711 1.370 . S
C710 C714 1.524 . S
C711 C703 1.503 . S
C711 C710 1.370 . S
C711 C712 1.403 . S
C712 C711 1.403 . S
C712 C713 1.404 . S
C712 C715 1.539 . S
C713 C709 1.408 . S
C713 C712 1.404 . S
C713 H725 0.930 . S
C714 C710 1.524 . S
C714 H726 0.956 . S
C714 H727 0.961 . S
C714 H728 0.961 . S
C715 C712 1.539 . S
C715 H729 0.958 . S
C715 H730 0.961 . S
C715 H731 0.960 . S
H716 C700 0.931 . S
H717 C705 0.929 . S
H718 C706 0.960 . S
H719 C706 0.962 . S
H720 C706 0.960 . S
H721 C707 0.961 . S
H722 C707 0.961 . S
H723 C707 0.961 . S
H724 C708 0.931 . S
H725 C713 0.930 . S
H726 C714 0.956 . S
H727 C714 0.961 . S
H728 C714 0.961 . S
H729 C715 0.958 . S
H730 C715 0.961 . S
H731 C715 0.960 . S
C732 C733 1.391 . S
C732 C734 1.394 . S
C732 H748 0.931 . S
C733 C732 1.391 . S
C733 C737 1.376 . S
C734 C732 1.394 . S
C734 C735 1.369 . S
C734 C738 1.531 . S
C735 C734 1.369 . S
C735 C736 1.410 . S
C735 C743 1.503 1_655 S
C736 C735 1.410 . S
C736 C737 1.392 . S
C736 C739 1.511 . S
C737 C733 1.376 . S
C737 C736 1.392 . S
C737 H749 0.929 . S
C738 C734 1.531 . S
C738 H750 0.960 . S
C738 H751 0.962 1_655 S
C738 H752 0.960 . S
C739 C736 1.511 . S
C739 H753 0.961 . S
C739 H754 0.961 . S
C739 H755 0.961 . S
C740 C741 1.370 . S
C740 C742 1.363 . S
C740 H756 0.931 . S
C741 C740 1.370 . S
C741 C745 1.446 . S
C742 C740 1.363 . S
C742 C743 1.370 . S
C742 C746 1.524 . S
C743 C735 1.503 1_455 S
C743 C742 1.370 . S
C743 C744 1.403 1_455 S
C744 C743 1.403 1_655 S
C744 C745 1.388 1_655 S
C744 C747 1.539 . S
C745 C741 1.446 . S
C745 C744 1.388 1_455 S
C745 H757 0.910 1_455 S
C746 C742 1.524 . S
C746 H758 0.956 . S
C746 H759 0.961 . S
C746 H760 0.961 . S
C747 C744 1.539 . S
C747 H761 0.958 . S
C747 H762 0.961 . S
C747 H763 0.960 . S
H748 C732 0.931 . S
H749 C737 0.929 . S
H750 C738 0.960 . S
H751 C738 0.962 1_455 S
H752 C738 0.960 . S
H753 C739 0.961 . S
H754 C739 0.961 . S
H755 C739 0.961 . S
H756 C740 0.931 . S
H757 C745 0.910 1_655 S
H758 C746 0.956 . S
H759 C746 0.961 . S
H760 C746 0.961 . S
H761 C747 0.958 . S
H762 C747 0.961 . S
H763 C747 0.960 . S
C764 C765 1.391 . S
C764 C766 1.394 . S
C764 H780 0.931 . S
C765 C764 1.391 . S
C765 C769 1.376 . S
C766 C764 1.394 . S
C766 C767 1.369 . S
C766 C770 1.531 . S
C767 C766 1.369 . S
C767 C768 1.410 . S
C767 C775 1.503 . S
C768 C767 1.410 . S
C768 C769 1.392 . S
C768 C771 1.511 . S
C769 C765 1.376 . S
C769 C768 1.392 . S
C769 H781 0.929 . S
C770 C766 1.531 . S
C770 H782 0.960 . S
C770 H783 0.962 . S
C770 H784 0.960 . S
C771 C768 1.511 . S
C771 H785 0.961 . S
C771 H786 0.961 . S
C771 H787 0.961 . S
C772 C773 1.370 . S
C772 C774 1.363 . S
C772 H788 0.931 . S
C773 C772 1.370 . S
C773 C777 1.408 . S
C774 C772 1.363 . S
C774 C775 1.370 . S
C774 C778 1.524 . S
C775 C767 1.503 . S
C775 C774 1.370 . S
C775 C776 1.403 . S
C776 C775 1.403 . S
C776 C777 1.404 . S
C776 C779 1.539 . S
C777 C773 1.408 . S
C777 C776 1.404 . S
C777 H789 0.930 . S
C778 C774 1.524 . S
C778 H790 0.956 . S
C778 H791 0.961 . S
C778 H792 0.961 . S
C779 C776 1.539 . S
C779 H793 0.958 . S
C779 H794 0.961 . S
C779 H795 0.960 . S
H780 C764 0.931 . S
H781 C769 0.929 . S
H782 C770 0.960 . S
H783 C770 0.962 . S
H784 C770 0.960 . S
H785 C771 0.961 . S
H786 C771 0.961 . S
H787 C771 0.961 . S
H788 C772 0.931 . S
H789 C777 0.930 . S
H790 C778 0.956 . S
H791 C778 0.961 . S
H792 C778 0.961 . S
H793 C779 0.958 . S
H794 C779 0.961 . S
H795 C779 0.960 . S
C796 C797 1.391 . S
C796 C798 1.394 . S
C796 H812 0.931 . S
C797 C796 1.391 . S
C797 C801 1.376 . S
C798 C796 1.394 . S
C798 C799 1.369 . S
C798 C802 1.531 . S
C799 C798 1.369 . S
C799 C800 1.410 . S
C799 C807 1.503 1_565 S
C800 C799 1.410 . S
C800 C801 1.392 . S
C800 C803 1.511 1_565 S
C801 C797 1.376 . S
C801 C800 1.392 . S
C801 H813 0.929 . S
C802 C798 1.531 . S
C802 H814 0.960 . S
C802 H815 0.962 . S
C802 H816 0.960 . S
C803 C800 1.511 1_545 S
C803 H817 0.961 . S
C803 H818 0.961 . S
C803 H819 0.961 . S
C804 C805 1.370 . S
C804 C806 1.363 . S
C804 H820 0.931 . S
C805 C804 1.370 . S
C805 C809 1.408 . S
C806 C804 1.363 . S
C806 C807 1.370 . S
C806 C810 1.524 . S
C807 C799 1.503 1_545 S
C807 C806 1.370 . S
C807 C808 1.403 1_545 S
C808 C807 1.403 1_565 S
C808 C809 1.404 1_565 S
C808 C811 1.539 . S
C809 C805 1.408 . S
C809 C808 1.404 1_545 S
C809 H821 0.930 1_545 S
C810 C806 1.524 . S
C810 H822 0.956 . S
C810 H823 0.961 . S
C810 H824 0.961 . S
C811 C808 1.539 . S
C811 H825 0.958 . S
C811 H826 0.961 . S
C811 H827 0.960 . S
H812 C796 0.931 . S
H813 C801 0.929 . S
H814 C802 0.960 . S
H815 C802 0.962 . S
H816 C802 0.960 . S
H817 C803 0.961 . S
H818 C803 0.961 . S
H819 C803 0.961 . S
H820 C804 0.931 . S
H821 C809 0.930 1_565 S
H822 C810 0.956 . S
H823 C810 0.961 . S
H824 C810 0.961 . S
H825 C811 0.958 . S
H826 C811 0.961 . S
H827 C811 0.960 . S
C828 C829 1.391 . S
C828 C830 1.394 . S
C828 H844 0.931 . S
C829 C828 1.391 . S
C829 C833 1.376 . S
C830 C828 1.394 . S
C830 C831 1.369 1_554 S
C830 C834 1.531 . S
C831 C830 1.369 1_556 S
C831 C832 1.410 . S
C831 C839 1.503 . S
C832 C831 1.410 . S
C832 C833 1.392 1_556 S
C832 C835 1.511 . S
C833 C829 1.376 . S
C833 C832 1.392 1_554 S
C833 H845 0.929 . S
C834 C830 1.531 . S
C834 H846 0.960 1_554 S
C834 H847 0.962 . S
C834 H848 0.960 . S
C835 C832 1.511 . S
C835 H849 0.961 . S
C835 H850 0.961 . S
C835 H851 0.961 . S
C836 C837 1.370 1_554 S
C836 C838 1.363 . S
C836 H852 0.931 . S
C837 C836 1.370 1_556 S
C837 C841 1.408 . S
C838 C836 1.363 . S
C838 C839 1.370 1_554 S
C838 C842 1.524 . S
C839 C831 1.503 . S
C839 C838 1.370 1_556 S
C839 C840 1.403 . S
C840 C839 1.403 . S
C840 C841 1.404 . S
C840 C843 1.539 . S
C841 C837 1.408 . S
C841 C840 1.404 . S
C841 H853 0.930 . S
C842 C838 1.524 . S
C842 H854 0.956 . S
C842 H855 0.961 . S
C842 H856 0.961 . S
C843 C840 1.539 . S
C843 H857 0.958 . S
C843 H858 0.961 . S
C843 H859 0.960 . S
H844 C828 0.931 . S
H845 C833 0.929 . S
H846 C834 0.960 1_556 S
H847 C834 0.962 . S
H848 C834 0.960 . S
H849 C835 0.961 . S
H850 C835 0.961 . S
H851 C835 0.961 . S
H852 C836 0.931 . S
H853 C841 0.930 . S
H854 C842 0.956 . S
H855 C842 0.961 . S
H856 C842 0.961 . S
H857 C843 0.958 . S
H858 C843 0.961 . S
H859 C843 0.960 . S
C860 C861 1.391 . S
C860 C862 1.394 . S
C860 H876 0.931 . S
C861 C860 1.391 . S
C861 C865 1.376 . S
C862 C860 1.394 . S
C862 C863 1.369 . S
C862 C866 1.531 . S
C863 C862 1.369 . S
C863 C864 1.410 . S
C863 C871 1.505 1_545 S
C864 C863 1.410 . S
C864 C865 1.392 . S
C864 C867 1.511 1_556 S
C865 C861 1.376 . S
C865 C864 1.392 . S
C865 H877 0.929 . S
C866 C862 1.531 . S
C866 H878 0.960 1_545 S
C866 H879 0.962 . S
C866 H880 0.960 . S
C867 C864 1.511 1_554 S
C867 H881 0.961 . S
C867 H882 0.961 . S
C867 H883 0.961 1_554 S
C868 C869 1.370 . S
C868 C870 1.363 . S
C868 H884 0.931 . S
C869 C868 1.370 . S
C869 C873 1.408 1_554 S
C870 C868 1.363 . S
C870 C871 1.366 1_554 S
C870 C874 1.524 1_565 S
C871 C863 1.505 1_565 S
C871 C870 1.366 1_556 S
C871 C872 1.405 . S
C872 C871 1.405 . S
C872 C873 1.404 . S
C872 C875 1.539 . S
C873 C869 1.408 1_556 S
C873 C872 1.404 . S
C873 H885 0.930 . S
C874 C870 1.524 1_545 S
C874 H886 0.956 . S
C874 H887 0.961 . S
C874 H888 0.961 1_545 S
C875 C872 1.539 . S
C875 H889 0.958 . S
C875 H890 0.961 . S
C875 H891 0.960 . S
H876 C860 0.931 . S
H877 C865 0.929 . S
H878 C866 0.960 1_565 S
H879 C866 0.962 . S
H880 C866 0.960 . S
H881 C867 0.961 . S
H882 C867 0.961 . S
H883 C867 0.961 1_556 S
H884 C868 0.931 . S
H885 C873 0.930 . S
H886 C874 0.956 . S
H887 C874 0.961 . S
H888 C874 0.961 1_565 S
H889 C875 0.958 . S
H890 C875 0.961 . S
H891 C875 0.960 . S
C892 C893 1.391 1_554 S
C892 C894 1.394 . S
C892 H908 0.931 . S
C893 C892 1.391 1_556 S
C893 C897 1.376 . S
C894 C892 1.394 . S
C894 C895 1.369 1_554 S
C894 C898 1.531 . S
C895 C894 1.369 1_556 S
C895 C896 1.410 . S
C895 C903 1.503 1_656 S
C896 C895 1.410 . S
C896 C897 1.392 . S
C896 C899 1.511 1_655 S
C897 C893 1.376 . S
C897 C896 1.392 . S
C897 H909 0.929 . S
C898 C894 1.531 . S
C898 H910 0.960 . S
C898 H911 0.962 . S
C898 H912 0.960 . S
C899 C896 1.511 1_455 S
C899 H913 0.961 1_455 S
C899 H914 0.961 . S
C899 H915 0.961 . S
C900 C901 1.370 . S
C900 C902 1.363 . S
C900 H916 0.931 . S
C901 C900 1.370 . S
C901 C905 1.408 . S
C902 C900 1.363 . S
C902 C903 1.370 . S
C902 C906 1.524 . S
C903 C895 1.503 1_454 S
C903 C902 1.370 . S
C903 C904 1.403 . S
C904 C903 1.403 . S
C904 C905 1.404 . S
C904 C907 1.539 . S
C905 C901 1.408 . S
C905 C904 1.404 . S
C905 H917 0.930 . S
C906 C902 1.524 . S
C906 H918 0.956 1_455 S
C906 H919 0.961 1_554 S
C906 H920 0.961 . S
C907 C904 1.539 . S
C907 H921 0.958 . S
C907 H922 0.961 1_554 S
C907 H923 0.960 1_554 S
H908 C892 0.931 . S
H909 C897 0.929 . S
H910 C898 0.960 . S
H911 C898 0.962 . S
H912 C898 0.960 . S
H913 C899 0.961 1_655 S
H914 C899 0.961 . S
H915 C899 0.961 . S
H916 C900 0.931 . S
H917 C905 0.930 . S
H918 C906 0.956 1_655 S
H919 C906 0.961 1_556 S
H920 C906 0.961 . S
H921 C907 0.958 . S
H922 C907 0.961 1_556 S
H923 C907 0.960 1_556 S
C924 C925 1.391 . S
C924 C926 1.394 . S
C924 H940 0.931 . S
C925 C924 1.391 . S
C925 C929 1.376 1_556 S
C926 C924 1.394 . S
C926 C927 1.369 . S
C926 C930 1.531 . S
C927 C926 1.369 . S
C927 C928 1.410 1_556 S
C927 C935 1.503 1_556 S
C928 C927 1.410 1_554 S
C928 C929 1.392 . S
C928 C931 1.511 . S
C929 C925 1.376 1_554 S
C929 C928 1.392 . S
C929 H941 0.929 . S
C930 C926 1.531 . S
C930 H942 0.960 . S
C930 H943 0.962 . S
C930 H944 0.960 . S
C931 C928 1.511 . S
C931 H945 0.961 . S
C931 H946 0.961 . S
C931 H947 0.961 . S
C932 C933 1.370 . S
C932 C934 1.363 . S
C932 H948 0.931 . S
C933 C932 1.370 . S
C933 C937 1.408 . S
C934 C932 1.363 . S
C934 C935 1.370 . S
C934 C938 1.524 . S
C935 C927 1.503 1_554 S
C935 C934 1.370 . S
C935 C936 1.403 . S
C936 C935 1.403 . S
C936 C937 1.404 . S
C936 C939 1.539 . S
C937 C933 1.408 . S
C937 C936 1.404 . S
C937 H949 0.930 . S
C938 C934 1.524 . S
C938 H950 0.956 1_554 S
C938 H951 0.961 . S
C938 H952 0.961 . S
C939 C936 1.539 . S
C939 H953 0.958 1_554 S
C939 H954 0.961 . S
C939 H955 0.960 . S
H940 C924 0.931 . S
H941 C929 0.929 . S
H942 C930 0.960 . S
H943 C930 0.962 . S
H944 C930 0.960 . S
H945 C931 0.961 . S
H946 C931 0.961 . S
H947 C931 0.961 . S
H948 C932 0.931 . S
H949 C937 0.930 . S
H950 C938 0.956 1_556 S
H951 C938 0.961 . S
H952 C938 0.961 . S
H953 C939 0.958 1_556 S
H954 C939 0.961 . S
H955 C939 0.960 . S
C956 C957 1.391 . S
C956 C958 1.394 . S
C956 H972 0.931 . S
C957 C956 1.391 . S
C957 C961 1.376 . S
C958 C956 1.394 . S
C958 C959 1.369 . S
C958 C962 1.531 . S
C959 C958 1.369 . S
C959 C960 1.410 1_554 S
C959 C967 1.500 1_564 S
C960 C959 1.410 1_556 S
C960 C961 1.392 1_556 S
C960 C963 1.511 . S
C961 C957 1.376 . S
C961 C960 1.392 1_554 S
C961 H973 0.929 1_554 S
C962 C958 1.531 . S
C962 H974 0.960 1_565 S
C962 H975 0.962 . S
C962 H976 0.960 . S
C963 C960 1.511 . S
C963 H977 0.961 . S
C963 H978 0.961 . S
C963 H979 0.961 . S
C964 C965 1.370 . S
C964 C966 1.363 . S
C964 H980 0.931 . S
C965 C964 1.370 . S
C965 C969 1.408 1_556 S
C966 C964 1.363 . S
C966 C967 1.378 . S
C966 C970 1.524 . S
C967 C959 1.500 1_546 S
C967 C966 1.378 . S
C967 C968 1.398 1_556 S
C968 C967 1.398 1_554 S
C968 C969 1.404 . S
C968 C971 1.539 . S
C969 C965 1.408 1_554 S
C969 C968 1.404 . S
C969 H981 0.930 . S
C970 C966 1.524 . S
C970 H982 0.956 1_545 S
C970 H983 0.961 1_545 S
C970 H984 0.961 . S
C971 C968 1.539 . S
C971 H985 0.958 . S
C971 H986 0.961 . S
C971 H987 0.960 . S
H972 C956 0.931 . S
H973 C961 0.929 1_556 S
H974 C962 0.960 1_545 S
H975 C962 0.962 . S
H976 C962 0.960 . S
H977 C963 0.961 . S
H978 C963 0.961 . S
H979 C963 0.961 . S
H980 C964 0.931 . S
H981 C969 0.930 . S
H982 C970 0.956 1_565 S
H983 C970 0.961 1_565 S
H984 C970 0.961 . S
H985 C971 0.958 . S
H986 C971 0.961 . S
H987 C971 0.960 . S
C988 C989 1.391 . S
C988 C990 1.394 . S
C988 H1004 0.931 . S
C989 C988 1.391 . S
C989 C993 1.376 . S
C990 C988 1.394 . S
C990 C991 1.369 1_556 S
C990 C994 1.531 . S
C991 C990 1.369 1_554 S
C991 C992 1.410 . S
C991 C999 1.503 1_655 S
C992 C991 1.410 . S
C992 C993 1.392 1_554 S
C992 C995 1.511 . S
C993 C989 1.376 . S
C993 C992 1.392 1_556 S
C993 H1005 0.929 . S
C994 C990 1.531 . S
C994 H1006 0.960 1_656 S
C994 H1007 0.962 . S
C994 H1008 0.960 . S
C995 C992 1.511 . S
C995 H1009 0.961 . S
C995 H1010 0.961 1_655 S
C995 H1011 0.961 . S
C996 C997 1.370 1_556 S
C996 C998 1.363 . S
C996 H1012 0.931 . S
C997 C996 1.370 1_554 S
C997 C1001 1.408 . S
C998 C996 1.363 . S
C998 C999 1.370 1_556 S
C998 C1002 1.524 . S
C999 C991 1.503 1_455 S
C999 C998 1.370 1_554 S
C999 C1000 1.403 . S
C1000 C999 1.403 . S
C1000 C1001 1.404 . S
C1000 C1003 1.539 . S
C1001 C997 1.408 . S
C1001 C1000 1.404 . S
C1001 H1013 0.930 . S
C1002 C998 1.524 . S
C1002 H1014 0.956 . S
C1002 H1015 0.961 . S
C1002 H1016 0.961 . S
C1003 C1000 1.539 . S
C1003 H1017 0.958 . S
C1003 H1018 0.961 . S
C1003 H1019 0.960 1_455 S
H1004 C988 0.931 . S
H1005 C993 0.929 . S
H1006 C994 0.960 1_454 S
H1007 C994 0.962 . S
H1008 C994 0.960 . S
H1009 C995 0.961 . S
H1010 C995 0.961 1_455 S
H1011 C995 0.961 . S
H1012 C996 0.931 . S
H1013 C1001 0.930 . S
H1014 C1002 0.956 . S
H1015 C1002 0.961 . S
H1016 C1002 0.961 . S
H1017 C1003 0.958 . S
H1018 C1003 0.961 . S
H1019 C1003 0.960 1_655 S
C1020 C1021 1.391 . S
C1020 C1022 1.394 . S
C1020 H1036 0.931 . S
C1021 C1020 1.391 . S
C1021 C1025 1.376 . S
C1022 C1020 1.394 . S
C1022 C1023 1.369 . S
C1022 C1026 1.531 . S
C1023 C1022 1.369 . S
C1023 C1024 1.410 . S
C1023 C1031 1.503 . S
C1024 C1023 1.410 . S
C1024 C1025 1.392 . S
C1024 C1027 1.511 . S
C1025 C1021 1.376 . S
C1025 C1024 1.392 . S
C1025 H1037 0.929 . S
C1026 C1022 1.531 . S
C1026 H1038 0.960 . S
C1026 H1039 0.962 . S
C1026 H1040 0.960 . S
C1027 C1024 1.511 . S
C1027 H1041 0.961 . S
C1027 H1042 0.961 . S
C1027 H1043 0.961 . S
C1028 C1029 1.370 . S
C1028 C1030 1.363 . S
C1028 H1044 0.931 . S
C1029 C1028 1.370 . S
C1029 C1033 1.408 . S
C1030 C1028 1.363 . S
C1030 C1031 1.370 . S
C1030 C1034 1.524 . S
C1031 C1023 1.503 . S
C1031 C1030 1.370 . S
C1031 C1032 1.403 . S
C1032 C1031 1.403 . S
C1032 C1033 1.404 . S
C1032 C1035 1.539 . S
C1033 C1029 1.408 . S
C1033 C1032 1.404 . S
C1033 H1045 0.930 . S
C1034 C1030 1.524 . S
C1034 H1046 0.956 . S
C1034 H1047 0.961 . S
C1034 H1048 0.961 . S
C1035 C1032 1.539 . S
C1035 H1049 0.958 . S
C1035 H1050 0.961 . S
C1035 H1051 0.960 . S
H1036 C1020 0.931 . S
H1037 C1025 0.929 . S
H1038 C1026 0.960 . S
H1039 C1026 0.962 . S
H1040 C1026 0.960 . S
H1041 C1027 0.961 . S
H1042 C1027 0.961 . S
H1043 C1027 0.961 . S
H1044 C1028 0.931 . S
H1045 C1033 0.930 . S
H1046 C1034 0.956 . S
H1047 C1034 0.961 . S
H1048 C1034 0.961 . S
H1049 C1035 0.958 . S
H1050 C1035 0.961 . S
H1051 C1035 0.960 . S
C1052 C1053 1.391 . S
C1052 C1054 1.394 . S
C1052 H1068 0.931 . S
C1053 C1052 1.391 . S
C1053 C1057 1.376 . S
C1054 C1052 1.394 . S
C1054 C1055 1.369 . S
C1054 C1058 1.531 . S
C1055 C1054 1.369 . S
C1055 C1056 1.410 . S
C1055 C1063 1.503 . S
C1056 C1055 1.410 . S
C1056 C1057 1.392 . S
C1056 C1059 1.511 . S
C1057 C1053 1.376 . S
C1057 C1056 1.392 . S
C1057 H1069 0.929 . S
C1058 C1054 1.531 . S
C1058 H1070 0.960 . S
C1058 H1071 0.962 . S
C1058 H1072 0.960 . S
C1059 C1056 1.511 . S
C1059 H1073 0.961 . S
C1059 H1074 0.961 . S
C1059 H1075 0.961 . S
C1060 C1061 1.370 . S
C1060 C1062 1.363 . S
C1060 H1076 0.931 . S
C1061 C1060 1.370 . S
C1061 C1065 1.408 . S
C1062 C1060 1.363 . S
C1062 C1063 1.370 . S
C1062 C1066 1.524 . S
C1063 C1055 1.503 . S
C1063 C1062 1.370 . S
C1063 C1064 1.403 . S
C1064 C1063 1.403 . S
C1064 C1065 1.404 . S
C1064 C1067 1.539 . S
C1065 C1061 1.408 . S
C1065 C1064 1.404 . S
C1065 H1077 0.930 . S
C1066 C1062 1.524 . S
C1066 H1078 0.956 . S
C1066 H1079 0.961 . S
C1066 H1080 0.961 . S
C1067 C1064 1.539 . S
C1067 H1081 0.958 . S
C1067 H1082 0.961 . S
C1067 H1083 0.960 . S
H1068 C1052 0.931 . S
H1069 C1057 0.929 . S
H1070 C1058 0.960 . S
H1071 C1058 0.962 . S
H1072 C1058 0.960 . S
H1073 C1059 0.961 . S
H1074 C1059 0.961 . S
H1075 C1059 0.961 . S
H1076 C1060 0.931 . S
H1077 C1065 0.930 . S
H1078 C1066 0.956 . S
H1079 C1066 0.961 . S
H1080 C1066 0.961 . S
H1081 C1067 0.958 . S
H1082 C1067 0.961 . S
H1083 C1067 0.960 . S
C1084 C1085 1.391 . S
C1084 C1086 1.394 . S
C1084 H1100 0.931 . S
C1085 C1084 1.391 . S
C1085 C1089 1.376 . S
C1086 C1084 1.394 . S
C1086 C1087 1.369 . S
C1086 C1090 1.531 . S
C1087 C1086 1.369 . S
C1087 C1088 1.410 . S
C1087 C1095 1.503 . S
C1088 C1087 1.410 . S
C1088 C1089 1.392 . S
C1088 C1091 1.511 . S
C1089 C1085 1.376 . S
C1089 C1088 1.392 . S
C1089 H1101 0.929 . S
C1090 C1086 1.531 . S
C1090 H1102 0.960 . S
C1090 H1103 0.962 . S
C1090 H1104 0.960 . S
C1091 C1088 1.511 . S
C1091 H1105 0.961 . S
C1091 H1106 0.961 . S
C1091 H1107 0.961 . S
C1092 C1093 1.370 . S
C1092 C1094 1.363 . S
C1092 H1108 0.931 . S
C1093 C1092 1.370 . S
C1093 C1097 1.408 . S
C1094 C1092 1.363 . S
C1094 C1095 1.370 . S
C1094 C1098 1.524 . S
C1095 C1087 1.503 . S
C1095 C1094 1.370 . S
C1095 C1096 1.403 . S
C1096 C1095 1.403 . S
C1096 C1097 1.404 . S
C1096 C1099 1.539 . S
C1097 C1093 1.408 . S
C1097 C1096 1.404 . S
C1097 H1109 0.930 . S
C1098 C1094 1.524 . S
C1098 H1110 0.956 . S
C1098 H1111 0.961 . S
C1098 H1112 0.961 . S
C1099 C1096 1.539 . S
C1099 H1113 0.958 . S
C1099 H1114 0.961 . S
C1099 H1115 0.960 . S
H1100 C1084 0.931 . S
H1101 C1089 0.929 . S
H1102 C1090 0.960 . S
H1103 C1090 0.962 . S
H1104 C1090 0.960 . S
H1105 C1091 0.961 . S
H1106 C1091 0.961 . S
H1107 C1091 0.961 . S
H1108 C1092 0.931 . S
H1109 C1097 0.930 . S
H1110 C1098 0.956 . S
H1111 C1098 0.961 . S
H1112 C1098 0.961 . S
H1113 C1099 0.958 . S
H1114 C1099 0.961 . S
H1115 C1099 0.960 . S
C1116 C1117 1.391 . S
C1116 C1118 1.394 . S
C1116 H1132 0.931 . S
C1117 C1116 1.391 . S
C1117 C1121 1.376 . S
C1118 C1116 1.394 . S
C1118 C1119 1.369 . S
C1118 C1122 1.531 . S
C1119 C1118 1.369 . S
C1119 C1120 1.410 . S
C1119 C1127 1.503 . S
C1120 C1119 1.410 . S
C1120 C1121 1.392 . S
C1120 C1123 1.511 . S
C1121 C1117 1.376 . S
C1121 C1120 1.392 . S
C1121 H1133 0.929 . S
C1122 C1118 1.531 . S
C1122 H1134 0.960 . S
C1122 H1135 0.962 . S
C1122 H1136 0.960 . S
C1123 C1120 1.511 . S
C1123 H1137 0.961 . S
C1123 H1138 0.961 . S
C1123 H1139 0.961 . S
C1124 C1125 1.370 . S
C1124 C1126 1.363 . S
C1124 H1140 0.931 . S
C1125 C1124 1.370 . S
C1125 C1129 1.408 . S
C1126 C1124 1.363 . S
C1126 C1127 1.370 . S
C1126 C1130 1.524 . S
C1127 C1119 1.503 . S
C1127 C1126 1.370 . S
C1127 C1128 1.403 . S
C1128 C1127 1.403 . S
C1128 C1129 1.404 . S
C1128 C1131 1.539 . S
C1129 C1125 1.408 . S
C1129 C1128 1.404 . S
C1129 H1141 0.930 . S
C1130 C1126 1.524 . S
C1130 H1142 0.956 . S
C1130 H1143 0.961 . S
C1130 H1144 0.961 . S
C1131 C1128 1.539 . S
C1131 H1145 0.958 . S
C1131 H1146 0.961 . S
C1131 H1147 0.960 . S
H1132 C1116 0.931 . S
H1133 C1121 0.929 . S
H1134 C1122 0.960 . S
H1135 C1122 0.962 . S
H1136 C1122 0.960 . S
H1137 C1123 0.961 . S
H1138 C1123 0.961 . S
H1139 C1123 0.961 . S
H1140 C1124 0.931 . S
H1141 C1129 0.930 . S
H1142 C1130 0.956 . S
H1143 C1130 0.961 . S
H1144 C1130 0.961 . S
H1145 C1131 0.958 . S
H1146 C1131 0.961 . S
H1147 C1131 0.960 . S
C1148 C1149 1.391 . S
C1148 C1150 1.394 . S
C1148 H1164 0.931 . S
C1149 C1148 1.391 . S
C1149 C1153 1.376 . S
C1150 C1148 1.394 . S
C1150 C1151 1.369 . S
C1150 C1154 1.531 . S
C1151 C1150 1.369 . S
C1151 C1152 1.410 . S
C1151 C1159 1.503 . S
C1152 C1151 1.410 . S
C1152 C1153 1.392 . S
C1152 C1155 1.511 . S
C1153 C1149 1.376 . S
C1153 C1152 1.392 . S
C1153 H1165 0.929 . S
C1154 C1150 1.531 . S
C1154 H1166 0.960 . S
C1154 H1167 0.962 . S
C1154 H1168 0.960 . S
C1155 C1152 1.511 . S
C1155 H1169 0.961 . S
C1155 H1170 0.961 . S
C1155 H1171 0.961 . S
C1156 C1157 1.370 . S
C1156 C1158 1.363 . S
C1156 H1172 0.931 . S
C1157 C1156 1.370 . S
C1157 C1161 1.408 . S
C1158 C1156 1.363 . S
C1158 C1159 1.370 . S
C1158 C1162 1.524 . S
C1159 C1151 1.503 . S
C1159 C1158 1.370 . S
C1159 C1160 1.403 . S
C1160 C1159 1.403 . S
C1160 C1161 1.404 . S
C1160 C1163 1.539 . S
C1161 C1157 1.408 . S
C1161 C1160 1.404 . S
C1161 H1173 0.930 . S
C1162 C1158 1.524 . S
C1162 H1174 0.956 . S
C1162 H1175 0.961 . S
C1162 H1176 0.961 . S
C1163 C1160 1.539 . S
C1163 H1177 0.958 . S
C1163 H1178 0.961 . S
C1163 H1179 0.960 . S
H1164 C1148 0.931 . S
H1165 C1153 0.929 . S
H1166 C1154 0.960 . S
H1167 C1154 0.962 . S
H1168 C1154 0.960 . S
H1169 C1155 0.961 . S
H1170 C1155 0.961 . S
H1171 C1155 0.961 . S
H1172 C1156 0.931 . S
H1173 C1161 0.930 . S
H1174 C1162 0.956 . S
H1175 C1162 0.961 . S
H1176 C1162 0.961 . S
H1177 C1163 0.958 . S
H1178 C1163 0.961 . S
H1179 C1163 0.960 . S
C1180 C1181 1.391 . S
C1180 C1182 1.394 . S
C1180 H1196 0.931 . S
C1181 C1180 1.391 . S
C1181 C1185 1.376 . S
C1182 C1180 1.394 . S
C1182 C1183 1.369 . S
C1182 C1186 1.531 . S
C1183 C1182 1.369 . S
C1183 C1184 1.410 . S
C1183 C1191 1.503 . S
C1184 C1183 1.410 . S
C1184 C1185 1.392 . S
C1184 C1187 1.511 . S
C1185 C1181 1.376 . S
C1185 C1184 1.392 . S
C1185 H1197 0.929 . S
C1186 C1182 1.531 . S
C1186 H1198 0.960 . S
C1186 H1199 0.962 . S
C1186 H1200 0.960 . S
C1187 C1184 1.511 . S
C1187 H1201 0.961 . S
C1187 H1202 0.961 . S
C1187 H1203 0.961 . S
C1188 C1189 1.370 . S
C1188 C1190 1.363 . S
C1188 H1204 0.931 . S
C1189 C1188 1.370 . S
C1189 C1193 1.408 . S
C1190 C1188 1.363 . S
C1190 C1191 1.370 . S
C1190 C1194 1.524 . S
C1191 C1183 1.503 . S
C1191 C1190 1.370 . S
C1191 C1192 1.403 . S
C1192 C1191 1.403 . S
C1192 C1193 1.404 . S
C1192 C1195 1.539 . S
C1193 C1189 1.408 . S
C1193 C1192 1.404 . S
C1193 H1205 0.930 . S
C1194 C1190 1.524 . S
C1194 H1206 0.956 . S
C1194 H1207 0.961 . S
C1194 H1208 0.961 . S
C1195 C1192 1.539 . S
C1195 H1209 0.958 . S
C1195 H1210 0.961 . S
C1195 H1211 0.960 . S
H1196 C1180 0.931 . S
H1197 C1185 0.929 . S
H1198 C1186 0.960 . S
H1199 C1186 0.962 . S
H1200 C1186 0.960 . S
H1201 C1187 0.961 . S
H1202 C1187 0.961 . S
H1203 C1187 0.961 . S
H1204 C1188 0.931 . S
H1205 C1193 0.930 . S
H1206 C1194 0.956 . S
H1207 C1194 0.961 . S
H1208 C1194 0.961 . S
H1209 C1195 0.958 . S
H1210 C1195 0.961 . S
H1211 C1195 0.960 . S
C1212 C1213 1.391 . S
C1212 C1214 1.394 . S
C1212 H1228 0.931 . S
C1213 C1212 1.391 . S
C1213 C1217 1.376 . S
C1214 C1212 1.394 . S
C1214 C1215 1.369 . S
C1214 C1218 1.531 . S
C1215 C1214 1.369 . S
C1215 C1216 1.410 . S
C1215 C1223 1.503 . S
C1216 C1215 1.410 . S
C1216 C1217 1.392 . S
C1216 C1219 1.511 . S
C1217 C1213 1.376 . S
C1217 C1216 1.392 . S
C1217 H1229 0.929 . S
C1218 C1214 1.531 . S
C1218 H1230 0.960 . S
C1218 H1231 0.962 . S
C1218 H1232 0.960 . S
C1219 C1216 1.511 . S
C1219 H1233 0.961 . S
C1219 H1234 0.961 . S
C1219 H1235 0.961 . S
C1220 C1221 1.370 . S
C1220 C1222 1.363 . S
C1220 H1236 0.931 . S
C1221 C1220 1.370 . S
C1221 C1225 1.408 . S
C1222 C1220 1.363 . S
C1222 C1223 1.370 . S
C1222 C1226 1.524 . S
C1223 C1215 1.503 . S
C1223 C1222 1.370 . S
C1223 C1224 1.403 . S
C1224 C1223 1.403 . S
C1224 C1225 1.404 . S
C1224 C1227 1.539 . S
C1225 C1221 1.408 . S
C1225 C1224 1.404 . S
C1225 H1237 0.930 . S
C1226 C1222 1.524 . S
C1226 H1238 0.956 . S
C1226 H1239 0.961 . S
C1226 H1240 0.961 . S
C1227 C1224 1.539 . S
C1227 H1241 0.958 . S
C1227 H1242 0.961 . S
C1227 H1243 0.960 . S
H1228 C1212 0.931 . S
H1229 C1217 0.929 . S
H1230 C1218 0.960 . S
H1231 C1218 0.962 . S
H1232 C1218 0.960 . S
H1233 C1219 0.961 . S
H1234 C1219 0.961 . S
H1235 C1219 0.961 . S
H1236 C1220 0.931 . S
H1237 C1225 0.930 . S
H1238 C1226 0.956 . S
H1239 C1226 0.961 . S
H1240 C1226 0.961 . S
H1241 C1227 0.958 . S
H1242 C1227 0.961 . S
H1243 C1227 0.960 . S
C1244 C1245 1.391 . S
C1244 C1246 1.394 . S
C1244 H1260 0.931 . S
C1245 C1244 1.391 . S
C1245 C1249 1.376 . S
C1246 C1244 1.394 . S
C1246 C1247 1.369 . S
C1246 C1250 1.531 . S
C1247 C1246 1.369 . S
C1247 C1248 1.410 . S
C1247 C1255 1.503 . S
C1248 C1247 1.410 . S
C1248 C1249 1.392 . S
C1248 C1251 1.511 . S
C1249 C1245 1.376 . S
C1249 C1248 1.392 . S
C1249 H1261 0.929 . S
C1250 C1246 1.531 . S
C1250 H1262 0.960 . S
C1250 H1263 0.962 . S
C1250 H1264 0.960 . S
C1251 C1248 1.511 . S
C1251 H1265 0.961 . S
C1251 H1266 0.961 . S
C1251 H1267 0.961 . S
C1252 C1253 1.370 . S
C1252 C1254 1.363 . S
C1252 H1268 0.931 . S
C1253 C1252 1.370 . S
C1253 C1257 1.408 . S
C1254 C1252 1.363 . S
C1254 C1255 1.370 . S
C1254 C1258 1.524 . S
C1255 C1247 1.503 . S
C1255 C1254 1.370 . S
C1255 C1256 1.403 . S
C1256 C1255 1.403 . S
C1256 C1257 1.404 . S
C1256 C1259 1.539 . S
C1257 C1253 1.408 . S
C1257 C1256 1.404 . S
C1257 H1269 0.930 . S
C1258 C1254 1.524 . S
C1258 H1270 0.956 . S
C1258 H1271 0.961 . S
C1258 H1272 0.961 . S
C1259 C1256 1.539 . S
C1259 H1273 0.958 . S
C1259 H1274 0.961 . S
C1259 H1275 0.960 . S
H1260 C1244 0.931 . S
H1261 C1249 0.929 . S
H1262 C1250 0.960 . S
H1263 C1250 0.962 . S
H1264 C1250 0.960 . S
H1265 C1251 0.961 . S
H1266 C1251 0.961 . S
H1267 C1251 0.961 . S
H1268 C1252 0.931 . S
H1269 C1257 0.930 . S
H1270 C1258 0.956 . S
H1271 C1258 0.961 . S
H1272 C1258 0.961 . S
H1273 C1259 0.958 . S
H1274 C1259 0.961 . S
H1275 C1259 0.960 . S
C1276 C1277 1.391 . S
C1276 C1278 1.394 . S
C1276 H1292 0.931 . S
C1277 C1276 1.391 . S
C1277 C1281 1.376 . S
C1278 C1276 1.394 . S
C1278 C1279 1.369 . S
C1278 C1282 1.531 . S
C1279 C1278 1.369 . S
C1279 C1280 1.410 . S
C1279 C1287 1.503 . S
C1280 C1279 1.410 . S
C1280 C1281 1.392 . S
C1280 C1283 1.511 . S
C1281 C1277 1.376 . S
C1281 C1280 1.392 . S
C1281 H1293 0.929 . S
C1282 C1278 1.531 . S
C1282 H1294 0.960 . S
C1282 H1295 0.962 . S
C1282 H1296 0.960 . S
C1283 C1280 1.511 . S
C1283 H1297 0.961 . S
C1283 H1298 0.961 . S
C1283 H1299 0.961 . S
C1284 C1285 1.370 . S
C1284 C1286 1.363 . S
C1284 H1300 0.931 . S
C1285 C1284 1.370 . S
C1285 C1289 1.408 . S
C1286 C1284 1.363 . S
C1286 C1287 1.370 . S
C1286 C1290 1.524 . S
C1287 C1279 1.503 . S
C1287 C1286 1.370 . S
C1287 C1288 1.403 . S
C1288 C1287 1.403 . S
C1288 C1289 1.404 . S
C1288 C1291 1.539 . S
C1289 C1285 1.408 . S
C1289 C1288 1.404 . S
C1289 H1301 0.930 . S
C1290 C1286 1.524 . S
C1290 H1302 0.956 . S
C1290 H1303 0.961 . S
C1290 H1304 0.961 . S
C1291 C1288 1.539 . S
C1291 H1305 0.958 . S
C1291 H1306 0.961 . S
C1291 H1307 0.960 . S
H1292 C1276 0.931 . S
H1293 C1281 0.929 . S
H1294 C1282 0.960 . S
H1295 C1282 0.962 . S
H1296 C1282 0.960 . S
H1297 C1283 0.961 . S
H1298 C1283 0.961 . S
H1299 C1283 0.961 . S
H1300 C1284 0.931 . S
H1301 C1289 0.930 . S
H1302 C1290 0.956 . S
H1303 C1290 0.961 . S
H1304 C1290 0.961 . S
H1305 C1291 0.958 . S
H1306 C1291 0.961 . S
H1307 C1291 0.960 . S
C1308 C1309 1.391 . S
C1308 C1310 1.394 . S
C1308 H1324 0.931 . S
C1309 C1308 1.391 . S
C1309 C1313 1.376 . S
C1310 C1308 1.394 . S
C1310 C1311 1.369 . S
C1310 C1314 1.531 . S
C1311 C1310 1.369 . S
C1311 C1312 1.410 . S
C1311 C1319 1.503 . S
C1312 C1311 1.410 . S
C1312 C1313 1.392 . S
C1312 C1315 1.511 . S
C1313 C1309 1.376 . S
C1313 C1312 1.392 . S
C1313 H1325 0.929 . S
C1314 C1310 1.531 . S
C1314 H1326 0.960 . S
C1314 H1327 0.962 . S
C1314 H1328 0.960 . S
C1315 C1312 1.511 . S
C1315 H1329 0.961 . S
C1315 H1330 0.961 . S
C1315 H1331 0.961 . S
C1316 C1317 1.370 . S
C1316 C1318 1.363 . S
C1316 H1332 0.931 . S
C1317 C1316 1.370 . S
C1317 C1321 1.408 . S
C1318 C1316 1.363 . S
C1318 C1319 1.370 . S
C1318 C1322 1.524 . S
C1319 C1311 1.503 . S
C1319 C1318 1.370 . S
C1319 C1320 1.403 . S
C1320 C1319 1.403 . S
C1320 C1321 1.404 . S
C1320 C1323 1.539 . S
C1321 C1317 1.408 . S
C1321 C1320 1.404 . S
C1321 H1333 0.930 . S
C1322 C1318 1.524 . S
C1322 H1334 0.956 . S
C1322 H1335 0.961 . S
C1322 H1336 0.961 . S
C1323 C1320 1.539 . S
C1323 H1337 0.958 . S
C1323 H1338 0.961 . S
C1323 H1339 0.960 . S
H1324 C1308 0.931 . S
H1325 C1313 0.929 . S
H1326 C1314 0.960 . S
H1327 C1314 0.962 . S
H1328 C1314 0.960 . S
H1329 C1315 0.961 . S
H1330 C1315 0.961 . S
H1331 C1315 0.961 . S
H1332 C1316 0.931 . S
H1333 C1321 0.930 . S
H1334 C1322 0.956 . S
H1335 C1322 0.961 . S
H1336 C1322 0.961 . S
H1337 C1323 0.958 . S
H1338 C1323 0.961 . S
H1339 C1323 0.960 . S
C1340 C1341 1.391 . S
C1340 C1342 1.394 . S
C1340 H1356 0.931 . S
C1341 C1340 1.391 . S
C1341 C1345 1.376 . S
C1342 C1340 1.394 . S
C1342 C1343 1.369 . S
C1342 C1346 1.531 . S
C1343 C1342 1.369 . S
C1343 C1344 1.410 . S
C1343 C1351 1.503 . S
C1344 C1343 1.410 . S
C1344 C1345 1.392 . S
C1344 C1347 1.511 . S
C1345 C1341 1.376 . S
C1345 C1344 1.392 . S
C1345 H1357 0.929 . S
C1346 C1342 1.531 . S
C1346 H1358 0.960 . S
C1346 H1359 0.962 . S
C1346 H1360 0.960 . S
C1347 C1344 1.511 . S
C1347 H1361 0.961 . S
C1347 H1362 0.961 . S
C1347 H1363 0.961 . S
C1348 C1349 1.370 . S
C1348 C1350 1.363 . S
C1348 H1364 0.931 . S
C1349 C1348 1.370 . S
C1349 C1353 1.408 . S
C1350 C1348 1.363 . S
C1350 C1351 1.370 . S
C1350 C1354 1.524 . S
C1351 C1343 1.503 . S
C1351 C1350 1.370 . S
C1351 C1352 1.403 . S
C1352 C1351 1.403 . S
C1352 C1353 1.404 . S
C1352 C1355 1.539 . S
C1353 C1349 1.408 . S
C1353 C1352 1.404 . S
C1353 H1365 0.930 . S
C1354 C1350 1.524 . S
C1354 H1366 0.956 . S
C1354 H1367 0.961 . S
C1354 H1368 0.961 . S
C1355 C1352 1.539 . S
C1355 H1369 0.958 . S
C1355 H1370 0.961 . S
C1355 H1371 0.960 . S
H1356 C1340 0.931 . S
H1357 C1345 0.929 . S
H1358 C1346 0.960 . S
H1359 C1346 0.962 . S
H1360 C1346 0.960 . S
H1361 C1347 0.961 . S
H1362 C1347 0.961 . S
H1363 C1347 0.961 . S
H1364 C1348 0.931 . S
H1365 C1353 0.930 . S
H1366 C1354 0.956 . S
H1367 C1354 0.961 . S
H1368 C1354 0.961 . S
H1369 C1355 0.958 . S
H1370 C1355 0.961 . S
H1371 C1355 0.960 . S
C1372 C1373 1.391 . S
C1372 C1374 1.394 . S
C1372 H1388 0.931 . S
C1373 C1372 1.391 . S
C1373 C1377 1.376 . S
C1374 C1372 1.394 . S
C1374 C1375 1.369 . S
C1374 C1378 1.531 . S
C1375 C1374 1.369 . S
C1375 C1376 1.410 . S
C1375 C1383 1.503 . S
C1376 C1375 1.410 . S
C1376 C1377 1.392 . S
C1376 C1379 1.511 . S
C1377 C1373 1.376 . S
C1377 C1376 1.392 . S
C1377 H1389 0.929 . S
C1378 C1374 1.531 . S
C1378 H1390 0.960 . S
C1378 H1391 0.962 . S
C1378 H1392 0.960 . S
C1379 C1376 1.511 . S
C1379 H1393 0.961 . S
C1379 H1394 0.961 . S
C1379 H1395 0.961 . S
C1380 C1381 1.370 . S
C1380 C1382 1.363 . S
C1380 H1396 0.931 . S
C1381 C1380 1.370 . S
C1381 C1385 1.408 . S
C1382 C1380 1.363 . S
C1382 C1383 1.370 . S
C1382 C1386 1.524 . S
C1383 C1375 1.503 . S
C1383 C1382 1.370 . S
C1383 C1384 1.403 . S
C1384 C1383 1.403 . S
C1384 C1385 1.404 . S
C1384 C1387 1.539 . S
C1385 C1381 1.408 . S
C1385 C1384 1.404 . S
C1385 H1397 0.930 . S
C1386 C1382 1.524 . S
C1386 H1398 0.956 . S
C1386 H1399 0.961 . S
C1386 H1400 0.961 . S
C1387 C1384 1.539 . S
C1387 H1401 0.958 . S
C1387 H1402 0.961 . S
C1387 H1403 0.960 . S
H1388 C1372 0.931 . S
H1389 C1377 0.929 . S
H1390 C1378 0.960 . S
H1391 C1378 0.962 . S
H1392 C1378 0.960 . S
H1393 C1379 0.961 . S
H1394 C1379 0.961 . S
H1395 C1379 0.961 . S
H1396 C1380 0.931 . S
H1397 C1385 0.930 . S
H1398 C1386 0.956 . S
H1399 C1386 0.961 . S
H1400 C1386 0.961 . S
H1401 C1387 0.958 . S
H1402 C1387 0.961 . S
H1403 C1387 0.960 . S
C253 C241 1.849 . S
C261 C3 1.856 . S
C285 C213 1.854 . S
C293 C17 1.858 . S
C317 C227 1.855 . S
C325 C31 1.857 . S
C349 C101 1.849 . S
C357 C45 1.856 . S
C381 C115 1.854 . S
C389 C59 1.856 . S
C413 C73 1.852 . S
C421 C87 1.855 . S
C445 C129 1.849 . S
C453 C185 1.857 . S
C477 C143 1.853 . S
C485 C199 1.855 . S
C509 C157 1.851 . S
C517 C171 1.858 . S
C541 C7 0.486 . S
C549 C245 0.441 . S
C573 C217 0.388 . S
C581 C21 0.399 . S
C605 C35 0.483 . S
C613 C231 0.451 . S
C637 C105 0.425 . S
C645 C49 0.434 . S
C669 C63 0.446 . S
C677 C119 0.418 . S
C701 C77 0.481 . S
C709 C91 0.437 . S
C733 C133 0.442 . S
C741 C189 0.417 . S
C765 C203 0.370 . S
C773 C147 0.397 . S
C797 C175 0.479 . S
C805 C161 0.436 . S
C829 C9 1.722 . S
C837 C51 1.737 . S
C861 C65 1.739 . S
C869 C23 1.732 . S
C893 C79 1.721 . S
C901 C37 1.729 . S
C925 C78 1.726 . S
C933 C22 1.726 . S
C957 C36 1.728 . S
C965 C50 1.722 . S
C989 C64 1.712 . S
C997 C8 1.725 . S
C1021 C93 1.720 . S
C1029 C135 1.729 . S
C1053 C149 1.725 . S
C1061 C107 1.728 . S
C1085 C163 1.730 . S
C1093 C121 1.738 . S
C1117 C162 1.727 . S
C1125 C106 1.725 . S
C1149 C120 1.728 . S
C1157 C134 1.722 . S
C1181 C148 1.728 . S
C1189 C92 1.724 . S
C1213 C219 1.717 . S
C1221 C177 1.732 . S
C1245 C233 1.738 . S
C1253 C191 1.731 . S
C1277 C205 1.725 . S
C1285 C247 1.728 . S
C1309 C246 1.723 . S
C1317 C190 1.719 . S
C1341 C204 1.707 . S
C1349 C218 1.722 . S
C1373 C232 1.707 . S
C1381 C176 1.718 . S
