# Generated by pormake.
# Topology whz, (6)-cn, num edge types: 1
# Building blocks:
#     Node 0, Type 0, BuildingBlock: BETDEL_clean_sbu_0, # of connection points: 6
#     Node 1, Type 0, BuildingBlock: BETDEL_clean_sbu_0, # of connection points: 6
#     Node 2, Type 0, BuildingBlock: BETDEL_clean_sbu_0, # of connection points: 6
#     Node 3, Type 0, BuildingBlock: BETDEL_clean_sbu_0, # of connection points: 6
#     Node 4, Type 0, BuildingBlock: BETDEL_clean_sbu_0, # of connection points: 6
#     Node 5, Type 0, BuildingBlock: BETDEL_clean_sbu_0, # of connection points: 6
#     Node 6, Type 0, BuildingBlock: BETDEL_clean_sbu_0, # of connection points: 6
#     Node 7, Type 0, BuildingBlock: BETDEL_clean_sbu_0, # of connection points: 6
#     Node 8, Type 0, BuildingBlock: BETDEL_clean_sbu_0, # of connection points: 6
#     Node 9, Type 0, BuildingBlock: BETDEL_clean_sbu_0, # of connection points: 6
#     Node 10, Type 0, BuildingBlock: BETDEL_clean_sbu_0, # of connection points: 6
#     Node 11, Type 0, BuildingBlock: BETDEL_clean_sbu_0, # of connection points: 6
#     Node 12, Type 0, BuildingBlock: BETDEL_clean_sbu_0, # of connection points: 6
#     Node 13, Type 0, BuildingBlock: BETDEL_clean_sbu_0, # of connection points: 6
#     Node 14, Type 0, BuildingBlock: BETDEL_clean_sbu_0, # of connection points: 6
#     Node 15, Type 0, BuildingBlock: BETDEL_clean_sbu_0, # of connection points: 6
#     Edge 16, Type (0, 0), BuildingBlock: KIFKEQ_clean_linker_1, # of connection points: 2
#     Edge 17, Type (0, 0), BuildingBlock: KIFKEQ_clean_linker_1, # of connection points: 2
#     Edge 18, Type (0, 0), BuildingBlock: KIFKEQ_clean_linker_1, # of connection points: 2
#     Edge 19, Type (0, 0), BuildingBlock: KIFKEQ_clean_linker_1, # of connection points: 2
#     Edge 20, Type (0, 0), BuildingBlock: KIFKEQ_clean_linker_1, # of connection points: 2
#     Edge 21, Type (0, 0), BuildingBlock: KIFKEQ_clean_linker_1, # of connection points: 2
#     Edge 22, Type (0, 0), BuildingBlock: KIFKEQ_clean_linker_1, # of connection points: 2
#     Edge 23, Type (0, 0), BuildingBlock: KIFKEQ_clean_linker_1, # of connection points: 2
#     Edge 24, Type (0, 0), BuildingBlock: KIFKEQ_clean_linker_1, # of connection points: 2
#     Edge 25, Type (0, 0), BuildingBlock: KIFKEQ_clean_linker_1, # of connection points: 2
#     Edge 26, Type (0, 0), BuildingBlock: KIFKEQ_clean_linker_1, # of connection points: 2
#     Edge 27, Type (0, 0), BuildingBlock: KIFKEQ_clean_linker_1, # of connection points: 2
#     Edge 28, Type (0, 0), BuildingBlock: KIFKEQ_clean_linker_1, # of connection points: 2
#     Edge 29, Type (0, 0), BuildingBlock: KIFKEQ_clean_linker_1, # of connection points: 2
#     Edge 30, Type (0, 0), BuildingBlock: KIFKEQ_clean_linker_1, # of connection points: 2
#     Edge 31, Type (0, 0), BuildingBlock: KIFKEQ_clean_linker_1, # of connection points: 2
#     Edge 32, Type (0, 0), BuildingBlock: KIFKEQ_clean_linker_1, # of connection points: 2
#     Edge 33, Type (0, 0), BuildingBlock: KIFKEQ_clean_linker_1, # of connection points: 2
#     Edge 34, Type (0, 0), BuildingBlock: KIFKEQ_clean_linker_1, # of connection points: 2
#     Edge 35, Type (0, 0), BuildingBlock: KIFKEQ_clean_linker_1, # of connection points: 2
#     Edge 36, Type (0, 0), BuildingBlock: KIFKEQ_clean_linker_1, # of connection points: 2
#     Edge 37, Type (0, 0), BuildingBlock: KIFKEQ_clean_linker_1, # of connection points: 2
#     Edge 38, Type (0, 0), BuildingBlock: KIFKEQ_clean_linker_1, # of connection points: 2
#     Edge 39, Type (0, 0), BuildingBlock: KIFKEQ_clean_linker_1, # of connection points: 2
#     Edge 40, Type (0, 0), BuildingBlock: KIFKEQ_clean_linker_1, # of connection points: 2
#     Edge 41, Type (0, 0), BuildingBlock: KIFKEQ_clean_linker_1, # of connection points: 2
#     Edge 42, Type (0, 0), BuildingBlock: KIFKEQ_clean_linker_1, # of connection points: 2
#     Edge 43, Type (0, 0), BuildingBlock: KIFKEQ_clean_linker_1, # of connection points: 2
#     Edge 44, Type (0, 0), BuildingBlock: KIFKEQ_clean_linker_1, # of connection points: 2
#     Edge 45, Type (0, 0), BuildingBlock: KIFKEQ_clean_linker_1, # of connection points: 2
#     Edge 46, Type (0, 0), BuildingBlock: KIFKEQ_clean_linker_1, # of connection points: 2
#     Edge 47, Type (0, 0), BuildingBlock: KIFKEQ_clean_linker_1, # of connection points: 2
#     Edge 48, Type (0, 0), BuildingBlock: KIFKEQ_clean_linker_1, # of connection points: 2
#     Edge 49, Type (0, 0), BuildingBlock: KIFKEQ_clean_linker_1, # of connection points: 2
#     Edge 50, Type (0, 0), BuildingBlock: KIFKEQ_clean_linker_1, # of connection points: 2
#     Edge 51, Type (0, 0), BuildingBlock: KIFKEQ_clean_linker_1, # of connection points: 2
#     Edge 52, Type (0, 0), BuildingBlock: KIFKEQ_clean_linker_1, # of connection points: 2
#     Edge 53, Type (0, 0), BuildingBlock: KIFKEQ_clean_linker_1, # of connection points: 2
#     Edge 54, Type (0, 0), BuildingBlock: KIFKEQ_clean_linker_1, # of connection points: 2
#     Edge 55, Type (0, 0), BuildingBlock: KIFKEQ_clean_linker_1, # of connection points: 2
#     Edge 56, Type (0, 0), BuildingBlock: KIFKEQ_clean_linker_1, # of connection points: 2
#     Edge 57, Type (0, 0), BuildingBlock: KIFKEQ_clean_linker_1, # of connection points: 2
#     Edge 58, Type (0, 0), BuildingBlock: KIFKEQ_clean_linker_1, # of connection points: 2
#     Edge 59, Type (0, 0), BuildingBlock: KIFKEQ_clean_linker_1, # of connection points: 2
#     Edge 60, Type (0, 0), BuildingBlock: KIFKEQ_clean_linker_1, # of connection points: 2
#     Edge 61, Type (0, 0), BuildingBlock: KIFKEQ_clean_linker_1, # of connection points: 2
#     Edge 62, Type (0, 0), BuildingBlock: KIFKEQ_clean_linker_1, # of connection points: 2
#     Edge 63, Type (0, 0), BuildingBlock: KIFKEQ_clean_linker_1, # of connection points: 2
# Relax obj value: 0.471
# Max RMSD: 0.273
# Mean RMSD: 0.273
data_MOF--net-whz--node1-BETDEL_clean_sbu_0--edge1-KIFKEQ_clean_linker_1
_symmetry_space_group_name_H-M    P1
_symmetry_Int_Tables_number       1
_symmetry_cell_setting            triclinic
loop_
_symmetry_equiv_pos_as_xyz
'x, y, z'
_cell_length_a     34.006828
_cell_length_b     34.060074
_cell_length_c     56.661546
_cell_angle_alpha  89.521184
_cell_angle_beta   90.223403
_cell_angle_gamma 89.973406
loop_
_atom_site_label
_atom_site_type_symbol
_atom_site_fract_x
_atom_site_fract_y
_atom_site_fract_z
_atom_type_partial_charge
Dy0 Dy 0.31258 0.19187 0.14483 0.0
C1 C 0.29593 0.13875 0.05222 0.0
C2 C 0.32347 0.22808 0.18637 0.0
Dy3 Dy 0.31631 0.15311 0.09889 0.0
O4 O 0.3179 0.24569 0.16634 0.0
O5 O 0.3228 0.19021 0.18387 0.0
O6 O 0.26107 0.2247 0.13171 0.0
O7 O 0.30839 0.2159 0.10873 0.0
C8 C 0.27512 0.23281 0.11107 0.0
C9 C 0.34464 0.11009 0.13651 0.0
O10 O 0.37163 0.18994 0.09634 0.0
O11 O 0.37685 0.19633 0.13654 0.0
O12 O 0.32397 0.12086 0.06392 0.0
O13 O 0.27906 0.16348 0.06622 0.0
O14 O 0.35994 0.10785 0.11544 0.0
O15 O 0.31531 0.13179 0.13502 0.0
O16 O 0.25878 0.15666 0.15063 0.0
O17 O 0.25467 0.13492 0.11205 0.0
C18 C 0.39207 0.20041 0.11526 0.0
C19 C 0.23941 0.13837 0.1337 0.0
Dy20 Dy 0.61264 0.56531 0.39399 0.0
C21 C 0.66503 0.54664 0.30101 0.0
C22 C 0.57457 0.57558 0.43508 0.0
Dy23 Dy 0.65129 0.5679 0.34757 0.0
O24 O 0.55789 0.57034 0.41482 0.0
O25 O 0.61264 0.57527 0.43304 0.0
O26 O 0.58173 0.51253 0.38199 0.0
O27 O 0.5886 0.55941 0.35814 0.0
C28 C 0.57239 0.52598 0.36133 0.0
C29 C 0.69439 0.59732 0.38463 0.0
O30 O 0.61355 0.62258 0.34409 0.0
O31 O 0.60656 0.62881 0.38419 0.0
O32 O 0.68227 0.57556 0.31198 0.0
O33 O 0.64146 0.52928 0.31572 0.0
O34 O 0.69707 0.61164 0.36321 0.0
O35 O 0.67249 0.56822 0.38364 0.0
O36 O 0.64896 0.51251 0.40054 0.0
O37 O 0.66995 0.50679 0.36182 0.0
C38 C 0.60178 0.64301 0.36261 0.0
C39 C 0.667 0.49248 0.38387 0.0
Dy40 Dy 0.22474 0.86546 0.65249 0.0
C41 C 0.25432 0.91744 0.55498 0.0
C42 C 0.20654 0.85706 0.69882 0.0
Dy43 Dy 0.23138 0.90132 0.60132 0.0
O44 O 0.23404 0.87971 0.69062 0.0
O45 O 0.18878 0.83953 0.68158 0.0
O46 O 0.24732 0.80541 0.64777 0.0
O47 O 0.2442 0.84349 0.61819 0.0
C48 C 0.25388 0.80918 0.62536 0.0
C49 C 0.20158 0.94706 0.63695 0.0
O50 O 0.17937 0.8603 0.59834 0.0
O51 O 0.1634 0.86512 0.63772 0.0
O52 O 0.22139 0.92844 0.56464 0.0
O53 O 0.2745 0.89811 0.57078 0.0
O54 O 0.1902 0.95136 0.61505 0.0
O55 O 0.22794 0.92208 0.63698 0.0
O56 O 0.28539 0.89028 0.65502 0.0
O57 O 0.29116 0.91684 0.61688 0.0
C58 C 0.15434 0.85436 0.61595 0.0
C59 C 0.30554 0.90948 0.6385 0.0
Dy60 Dy 0.93644 0.47752 0.89672 0.0
C61 C 0.88168 0.49169 0.803 0.0
C62 C 0.97638 0.47528 0.93812 0.0
Dy63 Dy 0.89599 0.47064 0.84987 0.0
O64 O 0.99215 0.4774 0.91741 0.0
O65 O 0.93827 0.47354 0.93633 0.0
O66 O 0.96571 0.52947 0.88144 0.0
O67 O 0.95836 0.48001 0.86038 0.0
C68 C 0.97464 0.51357 0.86155 0.0
C69 C 0.85555 0.44172 0.88768 0.0
O70 O 0.93266 0.41491 0.84903 0.0
O71 O 0.94384 0.41346 0.88932 0.0
O72 O 0.86068 0.46675 0.81529 0.0
O73 O 0.90981 0.50451 0.81642 0.0
O74 O 0.85211 0.42663 0.86661 0.0
O75 O 0.87658 0.47153 0.88609 0.0
O76 O 0.89789 0.52887 0.90155 0.0
O77 O 0.87635 0.53195 0.86267 0.0
C78 C 0.94634 0.39685 0.86832 0.0
C79 C 0.87909 0.5474 0.88431 0.0
Dy80 Dy 0.72501 0.8876 0.92807 0.0
C81 C 0.72156 0.83315 0.83371 0.0
C82 C 0.74429 0.89825 0.97546 0.0
Dy83 Dy 0.72977 0.85463 0.87925 0.0
O84 O 0.71995 0.9201 0.9632 0.0
O85 O 0.75766 0.87102 0.96174 0.0
O86 O 0.68275 0.93491 0.91247 0.0
O87 O 0.72833 0.91245 0.8929 0.0
C88 C 0.69959 0.9349 0.89177 0.0
C89 C 0.76467 0.80885 0.91157 0.0
O90 O 0.7862 0.88683 0.87749 0.0
O91 O 0.78783 0.90422 0.91702 0.0
O92 O 0.72202 0.8091 0.85156 0.0
O93 O 0.72526 0.86912 0.84075 0.0
O94 O 0.77852 0.81677 0.89081 0.0
O95 O 0.73211 0.82676 0.91438 0.0
O96 O 0.66887 0.85203 0.92841 0.0
O97 O 0.66571 0.8464 0.88782 0.0
C98 C 0.80469 0.90214 0.89578 0.0
C99 C 0.64982 0.84137 0.90897 0.0
Dy100 Dy 0.41111 0.48067 0.67721 0.0
C101 C 0.46406 0.4758 0.58357 0.0
C102 C 0.39884 0.49774 0.72446 0.0
Dy103 Dy 0.444 0.48523 0.62911 0.0
O104 O 0.37769 0.47363 0.71192 0.0
O105 O 0.4261 0.51236 0.71107 0.0
O106 O 0.36542 0.43653 0.66221 0.0
O107 O 0.3856 0.48293 0.64219 0.0
C108 C 0.36422 0.4534 0.64146 0.0
C109 C 0.48921 0.52209 0.66067 0.0
O110 O 0.40884 0.53975 0.62596 0.0
O111 O 0.39424 0.54373 0.66577 0.0
O112 O 0.48885 0.47912 0.60087 0.0
O113 O 0.42823 0.47749 0.59118 0.0
O114 O 0.48108 0.5351 0.63966 0.0
O115 O 0.47227 0.4891 0.66407 0.0
O116 O 0.44757 0.42503 0.67849 0.0
O117 O 0.45388 0.42155 0.63807 0.0
C118 C 0.39418 0.55919 0.64397 0.0
C119 C 0.45872 0.40584 0.65934 0.0
Dy120 Dy 0.8192 0.15015 0.42789 0.0
C121 C 0.81267 0.23727 0.3421 0.0
C122 C 0.80397 0.13359 0.47527 0.0
Dy123 Dy 0.81161 0.19352 0.38209 0.0
O124 O 0.80514 0.1078 0.45837 0.0
O125 O 0.81239 0.16765 0.46625 0.0
O126 O 0.86118 0.10566 0.41 0.0
O127 O 0.81672 0.13291 0.39111 0.0
C128 C 0.84578 0.11084 0.38897 0.0
C129 C 0.77597 0.22979 0.41786 0.0
O130 O 0.75956 0.1552 0.37735 0.0
O131 O 0.75468 0.13984 0.41713 0.0
O132 O 0.81518 0.19919 0.34267 0.0
O133 O 0.81032 0.25099 0.36323 0.0
O134 O 0.75995 0.22236 0.39768 0.0
O135 O 0.80953 0.21322 0.41874 0.0
O136 O 0.87802 0.18137 0.42866 0.0
O137 O 0.87625 0.20014 0.38934 0.0
C138 C 0.73959 0.14026 0.39529 0.0
C139 C 0.8948 0.19801 0.40992 0.0
Dy140 Dy 0.14845 0.56327 0.17737 0.0
C141 C 0.10102 0.58172 0.08222 0.0
C142 C 0.1569 0.54677 0.22553 0.0
Dy143 Dy 0.11581 0.57662 0.12923 0.0
O144 O 0.18175 0.56653 0.21254 0.0
O145 O 0.12749 0.53677 0.21216 0.0
O146 O 0.2093 0.56446 0.15991 0.0
O147 O 0.16509 0.60081 0.14748 0.0
C148 C 0.19962 0.58983 0.14355 0.0
C149 C 0.06234 0.54628 0.15931 0.0
O150 O 0.14863 0.51989 0.12371 0.0
O151 O 0.16351 0.50417 0.16257 0.0
O152 O 0.07664 0.59155 0.09867 0.0
O153 O 0.13388 0.56988 0.09149 0.0
O154 O 0.05563 0.57395 0.14407 0.0
O155 O 0.09827 0.53645 0.15808 0.0
O156 O 0.11307 0.62105 0.18061 0.0
O157 O 0.11476 0.6383 0.14119 0.0
C158 C 0.16368 0.49562 0.13976 0.0
C159 C 0.10672 0.64726 0.16327 0.0
Dy160 Dy 0.83114 0.6864 0.6444 0.0
C161 C 0.80686 0.63978 0.5501 0.0
C162 C 0.83132 0.71768 0.6882 0.0
Dy163 Dy 0.82184 0.64808 0.59819 0.0
O164 O 0.82691 0.68056 0.68389 0.0
O165 O 0.83693 0.7369 0.66876 0.0
O166 O 0.83117 0.74256 0.6243 0.0
O167 O 0.79191 0.69909 0.61433 0.0
C168 C 0.80148 0.73467 0.61093 0.0
C169 C 0.84692 0.60052 0.63437 0.0
O170 O 0.88003 0.68269 0.59467 0.0
O171 O 0.89396 0.68648 0.63443 0.0
O172 O 0.82482 0.61399 0.56353 0.0
O173 O 0.79787 0.66977 0.56299 0.0
O174 O 0.82426 0.58842 0.61728 0.0
O175 O 0.8574 0.63508 0.62964 0.0
O176 O 0.77563 0.65192 0.65109 0.0
O177 O 0.76256 0.63256 0.61277 0.0
C178 C 0.90476 0.69151 0.61226 0.0
C179 C 0.75278 0.63438 0.63538 0.0
Dy180 Dy 0.11823 0.06298 0.90502 0.0
C181 C 0.15321 0.04518 0.80427 0.0
C182 C 0.12275 0.07547 0.95216 0.0
Dy183 Dy 0.14432 0.06205 0.85201 0.0
O184 O 0.12586 0.04162 0.94205 0.0
O185 O 0.11671 0.10273 0.93641 0.0
O186 O 0.05642 0.04372 0.9031 0.0
O187 O 0.08958 0.04879 0.87159 0.0
C188 C 0.05627 0.03992 0.88034 0.0
C189 C 0.19479 0.08983 0.88577 0.0
O190 O 0.10622 0.1164 0.85227 0.0
O191 O 0.10956 0.12546 0.89278 0.0
O192 O 0.17858 0.06369 0.81742 0.0
O193 O 0.12314 0.036 0.8173 0.0
O194 O 0.19208 0.10611 0.86488 0.0
O195 O 0.17205 0.06147 0.88627 0.0
O196 O 0.14566 1.00383 0.90407 0.0
O197 O 0.16068 0.99971 0.86397 0.0
C198 C 0.09921 0.13777 0.87134 0.0
C199 C 0.15906 0.98413 0.88572 0.0
Dy200 Dy 0.72728 0.36619 0.15095 0.0
C201 C 0.74925 0.40221 0.05363 0.0
C202 C 0.71031 0.35464 0.19701 0.0
Dy203 Dy 0.72945 0.39371 0.10084 0.0
O204 O 0.71173 0.32726 0.18126 0.0
O205 O 0.71854 0.38846 0.18761 0.0
O206 O 0.77351 0.3226 0.1446 0.0
O207 O 0.73237 0.33436 0.1174 0.0
C208 C 0.76333 0.31524 0.12301 0.0
C209 C 0.70406 0.44581 0.13414 0.0
O210 O 0.67366 0.35801 0.09946 0.0
O211 O 0.66384 0.3603 0.13962 0.0
O212 O 0.72427 0.42415 0.06492 0.0
O213 O 0.76338 0.37622 0.06823 0.0
O214 O 0.68748 0.44339 0.11341 0.0
O215 O 0.7318 0.42228 0.13469 0.0
O216 O 0.78569 0.39517 0.15309 0.0
O217 O 0.79298 0.40531 0.11279 0.0
C218 C 0.65104 0.35185 0.11813 0.0
C219 C 0.80741 0.40575 0.13477 0.0
Dy220 Dy 0.43245 0.96771 0.39824 0.0
C221 C 0.39165 0.99701 0.30219 0.0
C222 C 0.44494 0.9616 0.44536 0.0
Dy223 Dy 0.4 0.98053 0.35025 0.0
O224 O 0.4703 0.95252 0.42929 0.0
O225 O 0.41247 0.97342 0.43563 0.0
O226 O 0.49295 0.97223 0.38435 0.0
O227 O 0.44962 1.0084 0.36957 0.0
C228 C 0.48585 0.99932 0.36881 0.0
C229 C 0.34958 0.95194 0.38404 0.0
O230 O 0.43752 0.92443 0.34635 0.0
O231 O 0.43747 0.90673 0.38569 0.0
O232 O 0.36666 0.97733 0.31512 0.0
O233 O 0.42104 1.00697 0.31555 0.0
O234 O 0.33936 0.97762 0.36798 0.0
O235 O 0.38429 0.94187 0.37984 0.0
O236 O 0.39922 0.02419 0.40371 0.0
O237 O 0.3841 0.03952 0.36486 0.0
C238 C 0.44644 0.89891 0.3636 0.0
C239 C 0.38392 0.04824 0.38763 0.0
Dy240 Dy 0.23396 0.39183 0.42913 0.0
C241 C 0.2295 0.33401 0.33664 0.0
C242 C 0.25428 0.40438 0.47615 0.0
Dy243 Dy 0.2383 0.35613 0.38182 0.0
O244 O 0.22793 0.42433 0.46422 0.0
O245 O 0.26923 0.37825 0.46227 0.0
O246 O 0.18998 0.43728 0.41304 0.0
O247 O 0.2356 0.41509 0.39351 0.0
C248 C 0.20616 0.43666 0.39215 0.0
C249 C 0.27527 0.31257 0.41457 0.0
O250 O 0.29306 0.39019 0.37811 0.0
O251 O 0.296 0.41091 0.41689 0.0
O252 O 0.23346 0.30998 0.35436 0.0
O253 O 0.22991 0.37009 0.34367 0.0
O254 O 0.28854 0.32023 0.39364 0.0
O255 O 0.2423 0.32988 0.41738 0.0
O256 O 0.17817 0.35511 0.43072 0.0
O257 O 0.17479 0.34651 0.39044 0.0
C258 C 0.31194 0.40789 0.39539 0.0
C259 C 0.1591 0.34264 0.41165 0.0
Dy260 Dy 0.90074 0.97608 0.17712 0.0
C261 C 0.97212 0.98139 0.08649 0.0
C262 C 0.88726 0.99827 0.22366 0.0
Dy263 Dy 0.93828 0.98214 0.12976 0.0
O264 O 0.8779 0.96426 0.21467 0.0
O265 O 0.90289 1.01959 0.2071 0.0
O266 O 0.85475 0.93255 0.1617 0.0
O267 O 0.87901 0.97598 0.14106 0.0
C268 C 0.85755 0.9465 0.1402 0.0
C269 C 0.97831 1.02054 0.16341 0.0
O270 O 0.89984 0.03436 0.1256 0.0
O271 O 0.87982 0.0368 0.16459 0.0
O272 O 0.98983 0.97279 0.10613 0.0
O273 O 0.93534 0.9889 0.09045 0.0
O274 O 0.96971 0.03428 0.14275 0.0
O275 O 0.96265 0.98681 0.16575 0.0
O276 O 0.94111 0.92344 0.17879 0.0
O277 O 0.94561 0.91777 0.13837 0.0
C278 C 0.88175 0.05256 0.14297 0.0
C279 C 0.95149 0.90317 0.15989 0.0
Dy280 Dy 0.31577 0.64056 0.92647 0.0
C281 C 0.31061 0.71159 0.83545 0.0
C282 C 0.29561 0.62352 0.97308 0.0
Dy283 Dy 0.30955 0.67863 0.87913 0.0
O284 O 0.32787 0.61222 0.96269 0.0
O285 O 0.27494 0.6436 0.95792 0.0
O286 O 0.36065 0.59626 0.91117 0.0
O287 O 0.31608 0.61932 0.89062 0.0
C288 C 0.34614 0.59864 0.88983 0.0
C289 C 0.27074 0.71802 0.91267 0.0
O290 O 0.25822 0.63992 0.8747 0.0
O291 O 0.2548 0.6195 0.91369 0.0
O292 O 0.31677 0.73025 0.85494 0.0
O293 O 0.30533 0.67454 0.83984 0.0
O294 O 0.25701 0.70939 0.89209 0.0
O295 O 0.30463 0.70255 0.91508 0.0
O296 O 0.36904 0.68067 0.92766 0.0
O297 O 0.37358 0.68646 0.88716 0.0
C298 C 0.23952 0.62163 0.89191 0.0
C299 C 0.38857 0.69202 0.90847 0.0
Dy300 Dy 0.64605 0.06354 0.67788 0.0
C301 C 0.56856 0.06566 0.58938 0.0
C302 C 0.65853 0.04328 0.72501 0.0
Dy303 Dy 0.60687 0.05896 0.63109 0.0
O304 O 0.67955 0.0685 0.71295 0.0
O305 O 0.63161 0.02933 0.71116 0.0
O306 O 0.69184 0.1061 0.66156 0.0
O307 O 0.66701 0.06201 0.64169 0.0
C308 C 0.68898 0.09117 0.64044 0.0
C309 C 0.56743 1.02217 0.66554 0.0
O310 O 0.64346 1.00581 0.62641 0.0
O311 O 0.6621 1.00101 0.66575 0.0
O312 O 0.552 0.06367 0.60986 0.0
O313 O 0.60662 0.06436 0.59156 0.0
O314 O 0.57471 1.0077 0.645 0.0
O315 O 0.58372 0.05568 0.66719 0.0
O316 O 0.61073 0.11998 0.67919 0.0
O317 O 0.60171 0.12324 0.63888 0.0
C318 C 0.65995 0.98597 0.64402 0.0
C319 C 0.59875 0.1393 0.65999 0.0
H320 H 0.30512 0.30409 0.1927 0.0
H321 H 0.33343 0.19661 0.23016 0.0
H322 H 0.28057 0.3325 0.22873 0.0
H323 H 0.31127 0.22605 0.26689 0.0
H324 H 0.21855 0.26245 0.31767 0.0
H325 H 0.24709 0.23937 0.28096 0.0
H326 H 0.29129 0.35636 0.2666 0.0
H327 H 0.26032 0.37967 0.30238 0.0
C328 C 0.30738 0.2871 0.20891 0.0
C329 C 0.32019 0.248 0.20881 0.0
C330 C 0.29339 0.30341 0.22956 0.0
C331 C 0.29295 0.28104 0.25045 0.0
C332 C 0.3099 0.24336 0.25078 0.0
C333 C 0.32311 0.22672 0.22995 0.0
C334 C 0.23334 0.28326 0.30617 0.0
C335 C 0.23741 0.3226 0.31256 0.0
C336 C 0.25039 0.27002 0.2855 0.0
C337 C 0.27246 0.29585 0.27133 0.0
C338 C 0.27445 0.33578 0.27715 0.0
C339 C 0.25654 0.34918 0.29752 0.0
H340 H 0.41861 0.50761 0.54928 0.0
H341 H 0.53461 0.4615 0.56391 0.0
H342 H 0.44283 0.5385 0.51334 0.0
H343 H 0.55852 0.49023 0.5272 0.0
H344 H 0.60434 0.58129 0.47945 0.0
H345 H 0.57331 0.55583 0.51516 0.0
H346 H 0.46787 0.52999 0.47515 0.0
H347 H 0.49793 0.55764 0.4401 0.0
C348 C 0.44893 0.50281 0.54423 0.0
C349 C 0.47507 0.48274 0.55921 0.0
C350 C 0.46286 0.52068 0.52378 0.0
C351 C 0.50284 0.51779 0.51793 0.0
C352 C 0.52792 0.49426 0.53183 0.0
C353 C 0.51418 0.47716 0.55251 0.0
C354 C 0.57412 0.57133 0.47862 0.0
C355 C 0.55361 0.57068 0.4572 0.0
C356 C 0.55658 0.55619 0.49885 0.0
C357 C 0.51873 0.53965 0.49766 0.0
C358 C 0.49711 0.54234 0.47659 0.0
C359 C 0.51434 0.55818 0.45652 0.0
H360 H 0.23625 0.89214 0.73797 0.0
H361 H 0.17908 0.78689 0.71345 0.0
H362 H 0.25646 0.85776 0.77394 0.0
H363 H 0.20212 0.75152 0.74773 0.0
H364 H 0.24297 0.69365 0.81384 0.0
H365 H 0.20712 0.73402 0.78573 0.0
H366 H 0.30586 0.81438 0.78243 0.0
H367 H 0.33954 0.77562 0.8127 0.0
C368 C 0.22728 0.86189 0.74062 0.0
C369 C 0.2068 0.84183 0.72296 0.0
C370 C 0.23951 0.8419 0.76093 0.0
C371 C 0.23249 0.80131 0.76338 0.0
C372 C 0.20828 0.78263 0.7467 0.0
C373 C 0.19496 0.80297 0.72688 0.0
C374 C 0.25712 0.71964 0.80669 0.0
C375 C 0.2942 0.73135 0.81482 0.0
C376 C 0.23653 0.74298 0.79065 0.0
C377 C 0.25333 0.77775 0.78169 0.0
C378 C 0.2913 0.78854 0.78937 0.0
C379 C 0.31118 0.76592 0.80621 0.0
H380 H 0.94717 0.48187 0.98254 0.0
H381 H 0.05418 0.49009 0.94191 0.0
H382 H 0.98119 0.50999 0.01644 0.0
H383 H 0.08773 0.5195 0.97535 0.0
H384 H 0.14047 0.53863 0.04996 0.0
H385 H 0.11196 0.50893 0.01484 0.0
H386 H 1.00512 0.57538 0.0253 0.0
H387 H 0.03319 0.60389 0.06087 0.0
C388 C 0.97809 0.48911 0.98104 0.0
C389 C 0.99807 0.48418 0.95972 0.0
C390 C 0.9974 0.50571 1.00025 0.0
C391 C 0.03681 0.51784 0.99828 0.0
C392 C 0.05738 0.51051 0.97736 0.0
C393 C 0.03816 0.49364 0.95825 0.0
C394 C 0.11128 0.54756 0.04436 0.0
C395 C 0.0887 0.57306 0.05811 0.0
C396 C 0.0949 0.53045 0.02435 0.0
C397 C 0.05593 0.53903 0.01778 0.0
C398 C 0.03475 0.56725 0.03046 0.0
C399 C 0.05098 0.58404 0.05055 0.0
H400 H 0.75699 0.87451 0.79898 0.0
H401 H 0.70302 0.76275 0.81496 0.0
H402 H 0.78551 0.84733 0.76353 0.0
H403 H 0.72911 0.73592 0.77848 0.0
H404 H 0.82178 0.68427 0.73163 0.0
H405 H 0.79098 0.71474 0.76576 0.0
H406 H 0.7781 0.82316 0.72598 0.0
H407 H 0.81139 0.79363 0.69293 0.0
C408 C 0.74996 0.84453 0.79431 0.0
C409 C 0.72828 0.82045 0.80959 0.0
C410 C 0.76634 0.82884 0.77401 0.0
C411 C 0.76036 0.78911 0.76844 0.0
C412 C 0.73547 0.7662 0.78273 0.0
C413 C 0.71993 0.78166 0.80334 0.0
C414 C 0.81316 0.71487 0.73059 0.0
C415 C 0.81905 0.73675 0.70991 0.0
C416 C 0.79489 0.73216 0.74987 0.0
C417 C 0.7814 0.77124 0.74845 0.0
C418 C 0.78847 0.79323 0.72785 0.0
C419 C 0.8076 0.77629 0.70889 0.0
H420 H 0.68375 0.28952 0.21903 0.0
H421 H 0.74229 0.40012 0.23108 0.0
H422 H 0.70808 0.26485 0.2568 0.0
H423 H 0.76804 0.37496 0.26849 0.0
H424 H 0.79146 0.31382 0.34082 0.0
H425 H 0.75828 0.34753 0.30827 0.0
H426 H 0.77699 0.24631 0.26411 0.0
H427 H 0.80895 0.21214 0.29691 0.0
C428 C 0.70079 0.3089 0.23017 0.0
C429 C 0.71204 0.34618 0.22218 0.0
C430 C 0.71513 0.29469 0.25155 0.0
C431 C 0.74124 0.3175 0.26491 0.0
C432 C 0.74834 0.35667 0.25831 0.0
C433 C 0.73348 0.37111 0.237 0.0
C434 C 0.78911 0.29914 0.32398 0.0
C435 C 0.80219 0.26033 0.32126 0.0
C436 C 0.76997 0.31835 0.30547 0.0
C437 C 0.76402 0.29896 0.28404 0.0
C438 C 0.77999 0.26129 0.28081 0.0
C439 C 0.79883 0.242 0.29936 0.0
H440 H 0.96291 0.05351 0.06816 0.0
H441 H 0.03158 0.94769 0.06226 0.0
H442 H 1.00711 0.08737 0.04139 0.0
H443 H 0.07378 0.97976 0.03334 0.0
H444 H 0.15719 0.04011 0.98986 0.0
H445 H 0.12299 0.02325 0.02627 0.0
H446 H 0.02458 0.0954 1.00361 0.0
H447 H 0.06075 0.11498 0.96892 0.0
C448 C 0.98675 0.03714 0.06026 0.0
C449 C 0.9936 0.99791 0.06661 0.0
C450 C 1.0123 0.05655 0.045 0.0
C451 C 0.04443 0.03661 0.03511 0.0
C452 C 0.05027 0.9967 0.04107 0.0
C453 C 0.02556 0.97781 0.05711 0.0
C454 C 0.12914 0.05386 0.99353 0.0
C455 C 0.11123 0.07844 0.97678 0.0
C456 C 0.10904 0.04352 1.01404 0.0
C457 C 0.07006 0.05627 0.01743 0.0
C458 C 0.05435 0.08467 1.00182 0.0
C459 C 0.07517 0.09618 0.98183 0.0
H460 H 0.51063 0.93747 0.46817 0.0
H461 H 0.40522 1.00683 0.47633 0.0
H462 H 0.53834 0.96699 0.50351 0.0
H463 H 0.43349 0.03766 0.51113 0.0
H464 H 0.49007 0.05687 0.58462 0.0
H465 H 0.45606 0.02877 0.55099 0.0
H466 H 0.5642 0.03206 0.51107 0.0
H467 H 0.59865 0.05869 0.54524 0.0
C468 C 0.49313 0.95842 0.47788 0.0
C469 C 0.45614 0.97031 0.46959 0.0
C470 C 0.50919 0.97581 0.49779 0.0
C471 C 0.48858 1.00558 0.5095 0.0
C472 C 0.45012 1.015 0.50232 0.0
C473 C 0.43386 0.99721 0.48253 0.0
C474 C 0.50635 0.05234 0.56847 0.0
C475 C 0.547 0.05921 0.56747 0.0
C476 C 0.48688 0.03624 0.54925 0.0
C477 C 0.50778 0.02724 0.52871 0.0
C478 C 0.54774 0.03753 0.52704 0.0
C479 C 0.56731 0.05329 0.54638 0.0
H480 H 0.2246 0.03992 0.91792 0.0
H481 H 0.21462 0.16394 0.9034 0.0
H482 H 0.2513 0.05327 0.95675 0.0
H483 H 0.24215 0.17777 0.94289 0.0
H484 H 0.24184 0.18022 0.02622 0.0
H485 H 0.22276 0.17177 0.9849 0.0
H486 H 0.30669 0.07732 0.97885 0.0
H487 H 0.32548 0.08571 0.02029 0.0
C488 C 0.22905 0.07028 0.92284 0.0
C489 C 0.21791 0.10083 0.90727 0.0
C490 C 0.24453 0.07796 0.94526 0.0
C491 C 0.24922 0.11663 0.95325 0.0
C492 C 0.23889 0.14753 0.93749 0.0
C493 C 0.22363 0.13972 0.91468 0.0
C494 C 0.25634 0.15768 0.01606 0.0
C495 C 0.28508 0.13346 0.02674 0.0
C496 C 0.2456 0.15308 0.9922 0.0
C497 C 0.26304 0.12386 0.97824 0.0
C498 C 0.29218 0.09992 0.98893 0.0
C499 C 0.3031 0.10473 1.01277 0.0
H500 H 0.71471 0.57814 0.26735 0.0
H501 H 0.62451 0.49057 0.2766 0.0
H502 H 0.72079 0.55985 0.22577 0.0
H503 H 0.63067 0.47197 0.23519 0.0
H504 H 0.63121 0.46326 0.15411 0.0
H505 H 0.62002 0.49067 0.1937 0.0
H506 H 0.74513 0.50681 0.20233 0.0
H507 H 0.75586 0.48005 0.16329 0.0
C508 C 0.69619 0.55496 0.26054 0.0
C509 C 0.6693 0.53576 0.27549 0.0
C510 C 0.69967 0.54432 0.23662 0.0
C511 C 0.67617 0.5143 0.22678 0.0
C512 C 0.64891 0.49555 0.24177 0.0
C513 C 0.64565 0.50601 0.2657 0.0
C514 C 0.65605 0.47393 0.1642 0.0
C515 C 0.69437 0.47012 0.15525 0.0
C516 C 0.64981 0.48907 0.18712 0.0
C517 C 0.68168 0.50112 0.20153 0.0
C518 C 0.71968 0.49862 0.19194 0.0
C519 C 0.72586 0.48322 0.16938 0.0
H520 H 0.32556 0.90126 0.53497 0.0
H521 H 0.21177 0.94937 0.51771 0.0
H522 H 0.34652 0.91065 0.49426 0.0
H523 H 0.23206 0.95757 0.47646 0.0
H524 H 0.29341 0.99742 0.40666 0.0
H525 H 0.27007 0.9908 0.44748 0.0
H526 H 0.34125 0.8866 0.45634 0.0
H527 H 0.36506 0.89415 0.41615 0.0
C528 C 0.30483 0.9137 0.52241 0.0
C529 C 0.26686 0.92438 0.5298 0.0
C530 C 0.31676 0.91882 0.4988 0.0
C531 C 0.29105 0.93447 0.48146 0.0
C532 C 0.25311 0.94572 0.489 0.0
C533 C 0.24127 0.94082 0.51276 0.0
C534 C 0.30361 0.97285 0.41728 0.0
C535 C 0.33108 0.94625 0.40794 0.0
C536 C 0.29024 0.96898 0.44084 0.0
C537 C 0.30385 0.93831 0.4558 0.0
C538 C 0.33052 0.91123 0.44599 0.0
C539 C 0.34393 0.91524 0.42264 0.0
H540 H 0.8883 0.62873 0.67182 0.0
H541 H 0.81664 0.53014 0.65172 0.0
H542 H 0.89433 0.60234 0.7115 0.0
H543 H 0.82438 0.50198 0.69154 0.0
H544 H 0.81827 0.47848 0.77282 0.0
H545 H 0.80922 0.50301 0.73224 0.0
H546 H 0.9241 0.55692 0.7353 0.0
H547 H 0.93191 0.53411 0.77569 0.0
C548 C 0.87415 0.60098 0.67578 0.0
C549 C 0.85205 0.58167 0.65833 0.0
C550 C 0.87793 0.58542 0.69873 0.0
C551 C 0.86035 0.54937 0.70522 0.0
C552 C 0.83822 0.52988 0.68764 0.0
C553 C 0.83406 0.54583 0.6646 0.0
C554 C 0.84149 0.49563 0.76474 0.0
C555 C 0.87571 0.50448 0.77774 0.0
C556 C 0.83645 0.50962 0.74131 0.0
C557 C 0.86564 0.5327 0.73006 0.0
C558 C 0.90019 0.54046 0.74311 0.0
C559 C 0.90494 0.52694 0.76645 0.0
H560 H 0.83763 0.99683 0.10502 0.0
H561 H 0.82576 0.87499 0.12495 0.0
H562 H 0.80775 0.98385 0.06704 0.0
H563 H 0.79508 0.86165 0.08623 0.0
H564 H 0.79007 0.84966 1.00296 0.0
H565 H 0.81235 0.85885 0.04369 0.0
H566 H 0.74784 0.96783 0.04653 0.0
H567 H 0.72575 0.95854 1.00574 0.0
C568 C 0.82816 0.96712 0.10144 0.0
C569 C 0.83418 0.93703 0.11834 0.0
C570 C 0.81064 0.9597 0.07948 0.0
C571 C 0.79865 0.92167 0.07321 0.0
C572 C 0.80404 0.89136 0.09023 0.0
C573 C 0.82129 0.899 0.11258 0.0
C574 C 0.78041 0.87551 1.01231 0.0
C575 C 0.75619 0.90346 1.00087 0.0
C576 C 0.79302 0.88065 0.03585 0.0
C577 C 0.7822 0.91418 0.04872 0.0
C578 C 0.75735 0.9418 0.03731 0.0
C579 C 0.74445 0.93646 1.01385 0.0
H580 H 0.29639 0.57695 0.85519 0.0
H581 H 0.4191 0.57123 0.87437 0.0
H582 H 0.31074 0.54964 0.81691 0.0
H583 H 0.43385 0.54296 0.83539 0.0
H584 H 0.44507 0.5444 0.7522 0.0
H585 H 0.43508 0.56326 0.79332 0.0
H586 H 0.33013 0.49211 0.79578 0.0
H587 H 0.34007 0.47364 0.75455 0.0
C588 C 0.32659 0.56928 0.85137 0.0
C589 C 0.35656 0.57633 0.86805 0.0
C590 C 0.33481 0.55325 0.82927 0.0
C591 C 0.37349 0.54383 0.82276 0.0
C592 C 0.40367 0.55002 0.83963 0.0
C593 C 0.39526 0.56583 0.8621 0.0
C594 C 0.41994 0.53261 0.76156 0.0
C595 C 0.3932 0.50769 0.74993 0.0
C596 C 0.41438 0.5432 0.78528 0.0
C597 C 0.38171 0.52944 0.79812 0.0
C598 C 0.35541 0.50381 0.78654 0.0
C599 C 0.36112 0.49304 0.76285 0.0
H600 H 0.76672 0.06918 0.49456 0.0
H601 H 0.81116 0.18335 0.51285 0.0
H602 H 0.74145 0.06071 0.53445 0.0
H603 H 0.78808 0.17438 0.55326 0.0
H604 H 0.70933 0.16275 0.6197 0.0
H605 H 0.738 0.17313 0.58044 0.0
H606 H 0.75153 0.04759 0.57307 0.0
H607 H 0.72106 0.03779 0.61122 0.0
C608 C 0.7718 0.09222 0.50727 0.0
C609 C 0.79123 0.12683 0.50037 0.0
C610 C 0.75744 0.08737 0.53044 0.0
C611 C 0.76259 0.11668 0.5478 0.0
C612 C 0.78263 0.15115 0.54077 0.0
C613 C 0.79638 0.15621 0.51748 0.0
C614 C 0.71912 0.13755 0.60977 0.0
C615 C 0.71301 0.09947 0.61878 0.0
C616 C 0.7356 0.14336 0.58707 0.0
C617 C 0.74695 0.11124 0.57281 0.0
C618 C 0.7423 0.07334 0.58262 0.0
C619 C 0.72525 0.06762 0.60492 0.0
H620 H 0.25571 0.45353 0.35638 0.0
H621 H 0.13452 0.46911 0.37625 0.0
H622 H 0.24242 0.4818 0.3179 0.0
H623 H 0.12093 0.49874 0.3371 0.0
H624 H 0.10574 0.50577 0.25409 0.0
H625 H 0.1152 0.48359 0.29498 0.0
H626 H 0.22896 0.53971 0.29614 0.0
H627 H 0.21955 0.56123 0.25523 0.0
C628 C 0.22607 0.46352 0.35267 0.0
C629 C 0.19627 0.45888 0.36974 0.0
C630 C 0.21846 0.48018 0.33039 0.0
C631 C 0.18056 0.49308 0.32395 0.0
C632 C 0.15054 0.48905 0.34113 0.0
C633 C 0.15834 0.47241 0.36377 0.0
C634 C 0.13271 0.51358 0.26313 0.0
C635 C 0.16196 0.53522 0.25113 0.0
C636 C 0.13806 0.50101 0.28676 0.0
C637 C 0.17302 0.50939 0.29925 0.0
C638 C 0.20185 0.53186 0.28729 0.0
C639 C 0.19641 0.54453 0.26372 0.0
H640 H 0.81984 0.57707 0.52061 0.0
H641 H 0.76866 0.6928 0.52137 0.0
H642 H 0.79866 0.56924 0.47961 0.0
H643 H 0.74667 0.68488 0.48051 0.0
H644 H 0.71068 0.54669 0.42022 0.0
H645 H 0.74026 0.55835 0.45825 0.0
H646 H 0.76143 0.67916 0.43849 0.0
H647 H 0.73028 0.66726 0.39972 0.0
C648 C 0.80417 0.60094 0.51202 0.0
C649 C 0.79588 0.63546 0.52449 0.0
C650 C 0.79171 0.59644 0.48842 0.0
C651 C 0.77043 0.62629 0.47641 0.0
C652 C 0.76319 0.66128 0.48878 0.0
C653 C 0.77562 0.66573 0.5124 0.0
C654 C 0.72178 0.57586 0.42368 0.0
C655 C 0.71783 0.60599 0.4066 0.0
C656 C 0.73929 0.58248 0.44571 0.0
C657 C 0.75373 0.6197 0.45185 0.0
C658 C 0.75053 0.65004 0.43464 0.0
C659 C 0.73302 0.64322 0.41224 0.0
H660 H 0.21543 0.06198 0.77514 0.0
H661 H 0.1018 1.00606 0.77499 0.0
H662 H 0.22438 0.04439 0.73382 0.0
H663 H 0.11092 0.98761 0.7336 0.0
H664 H 0.13018 0.98008 0.65218 0.0
H665 H 0.11651 1.00701 0.69171 0.0
H666 H 0.23785 0.98805 0.7114 0.0
H667 H 0.2512 0.96259 0.6726 0.0
C668 C 0.19228 0.0459 0.76629 0.0
C669 C 0.15801 0.0353 0.7786 0.0
C670 C 0.19744 0.03556 0.74248 0.0
C671 C 0.16854 1.01412 0.73003 0.0
C672 C 0.13378 1.00436 0.74226 0.0
C673 C 0.12865 1.01471 0.76615 0.0
C674 C 0.15397 0.98268 0.66482 0.0
C675 C 0.19189 0.96941 0.65896 0.0
C676 C 0.14612 0.99762 0.68766 0.0
C677 C 0.17607 1.00006 0.70509 0.0
C678 C 0.21398 0.98762 0.69871 0.0
C679 C 0.22163 0.97268 0.67624 0.0
H680 H 0.7258 0.45802 0.02118 0.0
H681 H 0.79759 0.3542 0.02824 0.0
H682 H 0.7457 0.46463 0.97986 0.0
H683 H 0.81786 0.36087 0.98699 0.0
H684 H 0.82778 0.37021 0.90545 0.0
H685 H 0.79838 0.35848 0.94467 0.0
H686 H 0.80433 0.48268 0.95883 0.0
H687 H 0.83277 0.49407 0.92032 0.0
C688 C 0.74576 0.43653 1.0139 0.0
C689 C 0.76027 0.40577 0.02814 0.0
C690 C 0.75732 0.44032 0.99016 0.0
C691 C 0.78363 0.41335 0.97987 0.0
C692 C 0.79729 0.38199 0.99404 0.0
C693 C 0.7859 0.37836 0.01783 0.0
C694 C 0.822 0.39493 0.91683 0.0
C695 C 0.83264 0.43306 0.90963 0.0
C696 C 0.80554 0.38825 0.93943 0.0
C697 C 0.79881 0.41965 0.95514 0.0
C698 C 0.80838 0.45773 0.94737 0.0
C699 C 0.82507 0.46424 0.92516 0.0
H700 H 0.29544 0.09644 0.17297 0.0
H701 H 0.41475 0.07369 0.15152 0.0
H702 H 0.30823 0.06679 0.21111 0.0
H703 H 0.42783 0.04294 0.19044 0.0
H704 H 0.44393 0.03632 0.27366 0.0
H705 H 0.43493 0.05898 0.23284 0.0
H706 H 0.31946 1.0065 0.23178 0.0
H707 H 0.32847 0.9843 0.27264 0.0
C708 C 0.32455 0.08469 0.17626 0.0
C709 C 0.35399 0.08761 0.15886 0.0
C710 C 0.33182 0.06723 0.19834 0.0
C711 C 0.36905 0.05198 0.20422 0.0
C712 C 0.39874 0.05443 0.18676 0.0
C713 C 0.39123 0.07176 0.1643 0.0
C714 C 0.41669 0.02936 0.26466 0.0
C715 C 0.38683 1.00858 0.27664 0.0
C716 C 0.41162 0.0422 0.24108 0.0
C717 C 0.37633 0.03499 0.2287 0.0
C718 C 0.34687 1.01332 0.24061 0.0
C719 C 0.35206 1.00031 0.26412 0.0
H720 H 0.33822 0.38055 0.62483 0.0
H721 H 0.33936 0.5041 0.60778 0.0
H722 H 0.30853 0.36709 0.58588 0.0
H723 H 0.31051 0.49103 0.56945 0.0
H724 H 0.30433 0.35895 0.50278 0.0
H725 H 0.32591 0.36816 0.5436 0.0
H726 H 0.25262 0.47126 0.54821 0.0
H727 H 0.23125 0.462 0.50726 0.0
C728 C 0.3315 0.40485 0.61304 0.0
C729 C 0.34109 0.44343 0.61964 0.0
C730 C 0.31487 0.39719 0.59054 0.0
C731 C 0.30687 0.42796 0.57421 0.0
C732 C 0.31546 0.46647 0.58135 0.0
C733 C 0.33232 0.47397 0.60349 0.0
C734 C 0.29263 0.38353 0.51252 0.0
C735 C 0.26612 0.40986 0.50153 0.0
C736 C 0.30484 0.38864 0.53611 0.0
C737 C 0.29125 0.42052 0.54954 0.0
C738 C 0.26424 0.44656 0.53857 0.0
C739 C 0.25179 0.44123 0.51501 0.0
H740 H 0.87392 0.95424 0.26454 0.0
H741 H 0.89014 0.07315 0.23984 0.0
H742 H 0.86772 0.97841 0.30537 0.0
H743 H 0.88303 0.09708 0.28009 0.0
H744 H 0.81042 0.12433 0.34689 0.0
H745 H 0.82241 0.0957 0.30866 0.0
H746 H 0.91142 1.02067 0.33919 0.0
H747 H 0.90031 0.05113 0.37821 0.0
C748 C 0.87602 0.98546 0.26775 0.0
C749 C 0.88226 1.01171 0.24873 0.0
C750 C 0.87285 0.99929 0.2912 0.0
C751 C 0.87501 0.03979 0.29617 0.0
C752 C 0.88121 0.06577 0.27707 0.0
C753 C 0.88518 0.05198 0.25389 0.0
C754 C 0.83312 0.10226 0.3457 0.0
C755 C 0.85489 0.09094 0.36589 0.0
C756 C 0.8398 0.08554 0.32357 0.0
C757 C 0.868 0.05591 0.32059 0.0
C758 C 0.88937 0.04342 0.34079 0.0
C759 C 0.88317 0.06101 0.36315 0.0
H760 H 0.25557 0.54335 0.12141 0.0
H761 H 0.18581 0.64783 0.11146 0.0
H762 H 0.27971 0.54958 0.08069 0.0
H763 H 0.21041 0.65496 0.07146 0.0
H764 H 0.22483 0.63923 0.99325 0.0
H765 H 0.2041 0.62979 0.03389 0.0
H766 H 0.31858 0.58275 0.05153 0.0
H767 H 0.33875 0.59102 1.01017 0.0
C768 C 0.24597 0.56808 0.11071 0.0
C769 C 0.21874 0.59513 0.11985 0.0
C770 C 0.25979 0.57172 0.08724 0.0
C771 C 0.24685 0.60257 0.07222 0.0
C772 C 0.22055 0.63014 0.08187 0.0
C773 C 0.20667 0.62635 0.1051 0.0
C774 C 0.24567 0.62676 1.00573 0.0
C775 C 0.2836 0.61612 0.99827 0.0
C776 C 0.23385 0.62161 0.02931 0.0
C777 C 0.25965 0.60604 0.04659 0.0
C778 C 0.29754 0.59466 0.039 0.0
C779 C 0.30929 0.59956 0.01521 0.0
H780 H 0.61088 0.99564 0.75141 0.0
H781 H 0.71645 0.06503 0.75672 0.0
H782 H 0.61831 0.9749 0.79258 0.0
H783 H 0.7239 0.04454 0.79809 0.0
H784 H 0.75211 0.95796 0.85903 0.0
H785 H 0.74109 0.98677 0.82033 0.0
H786 H 0.61665 0.99315 0.83452 0.0
H787 H 0.62801 0.96343 0.87386 0.0
C788 C 0.63566 1.0067 0.76141 0.0
C789 C 0.66322 0.0319 0.75056 0.0
C790 C 0.63973 0.995 0.78521 0.0
C791 C 0.67172 1.00783 0.799 0.0
C792 C 0.69903 0.03354 0.78816 0.0
C793 C 0.69477 0.04548 0.76436 0.0
C794 C 0.72232 0.966 0.85417 0.0
C795 C 0.69099 0.95842 0.8698 0.0
C796 C 0.71601 0.98284 0.83182 0.0
C797 C 0.67796 0.99259 0.82394 0.0
C798 C 0.64643 0.98588 0.83977 0.0
C799 C 0.65289 0.96925 0.86249 0.0
H800 H 0.44731 0.20787 0.14989 0.0
H801 H 0.42671 0.23681 0.07661 0.0
H802 H 0.5086 0.24413 0.14906 0.0
H803 H 0.48814 0.27461 0.07589 0.0
H804 H 0.61995 0.31348 0.07947 0.0
H805 H 0.55878 0.27571 0.0773 0.0
H806 H 0.53172 0.30864 0.14887 0.0
H807 H 0.59297 0.34499 0.15121 0.0
C808 C 0.45586 0.22199 0.1335 0.0
C809 C 0.4317 0.2194 0.11334 0.0
C810 C 0.49109 0.2433 0.13308 0.0
C811 C 0.50343 0.26334 0.11255 0.0
C812 C 0.47995 0.25965 0.09206 0.0
C813 C 0.4446 0.2379 0.09244 0.0
C814 C 0.60075 0.31291 0.09467 0.0
C815 C 0.61177 0.33224 0.11558 0.0
C816 C 0.56549 0.29121 0.09342 0.0
C817 C 0.54014 0.28829 0.11302 0.0
C818 C 0.55068 0.30896 0.13357 0.0
C819 C 0.58587 0.33031 0.13486 0.0
H820 H 0.56124 0.68139 0.39655 0.0
H821 H 0.59112 0.69078 0.32272 0.0
H822 H 0.52428 0.74157 0.39385 0.0
H823 H 0.5545 0.75323 0.32019 0.0
H824 H 0.45108 0.84908 0.32447 0.0
H825 H 0.48925 0.78744 0.32187 0.0
H826 H 0.53731 0.80874 0.39125 0.0
H827 H 0.49889 0.86795 0.3941 0.0
C828 C 0.56051 0.69658 0.37969 0.0
C829 C 0.58002 0.68116 0.35996 0.0
C830 C 0.53918 0.73156 0.37815 0.0
C831 C 0.53682 0.7532 0.35692 0.0
C832 C 0.55558 0.73756 0.33688 0.0
C833 C 0.57686 0.70188 0.33837 0.0
C834 C 0.46989 0.84038 0.33906 0.0
C835 C 0.47103 0.86306 0.35973 0.0
C836 C 0.49192 0.80514 0.33757 0.0
C837 C 0.51579 0.79223 0.35662 0.0
C838 C 0.51832 0.81647 0.37654 0.0
C839 C 0.4962 0.85083 0.37814 0.0
H840 H 0.93104 0.73613 0.57411 0.0
H841 H 0.96753 0.68999 0.64189 0.0
H842 H 0.99134 0.77625 0.57251 0.0
H843 H 0.02691 0.72928 0.64026 0.0
H844 H 0.09643 0.84027 0.64817 0.0
H845 H 0.03825 0.79975 0.64423 0.0
H846 H 0.06704 0.77728 0.57149 0.0
H847 H 0.12606 0.81854 0.57538 0.0
C848 C 0.95224 0.73377 0.58836 0.0
C849 C 0.94411 0.71 0.60822 0.0
C850 C 0.98674 0.7569 0.5875 0.0
C851 C 1.01369 0.7568 0.60653 0.0
C852 C 1.00648 0.73109 0.62557 0.0
C853 C 0.97238 0.70822 0.62641 0.0
C854 C 0.09052 0.82708 0.6312 0.0
C855 C 0.11645 0.8327 0.61215 0.0
C856 C 0.05706 0.80346 0.62899 0.0
C857 C 0.04809 0.7845 0.60765 0.0
C858 C 0.07298 0.79133 0.5882 0.0
C859 C 0.10686 0.81501 0.59045 0.0
H860 H 0.94946 0.34252 0.83178 0.0
H861 H 0.99361 0.36427 0.90198 0.0
H862 H 0.9856 0.27999 0.83125 0.0
H863 H 0.03056 0.30394 0.90109 0.0
H864 H 0.08386 0.18385 0.8316 0.0
H865 H 0.04688 0.24575 0.82952 0.0
H866 H 0.02471 0.23734 0.90443 0.0
H867 H 0.06276 0.17754 0.90658 0.0
C868 C 0.96682 0.33412 0.84703 0.0
C869 C 0.96784 0.35841 0.86704 0.0
C870 C 0.9879 0.2983 0.84672 0.0
C871 C 1.01088 0.28603 0.86629 0.0
C872 C 1.01242 0.3111 0.88592 0.0
C873 C 0.99114 0.34623 0.88636 0.0
C874 C 0.07132 0.19554 0.84764 0.0
C875 C 0.07707 0.1758 0.86934 0.0
C876 C 0.04975 0.23097 0.84642 0.0
C877 C 0.03291 0.24743 0.86685 0.0
C878 C 0.03801 0.22686 0.88834 0.0
C879 C 0.0599 0.19206 0.8896 0.0
H880 H 0.59921 0.83264 0.94712 0.0
H881 H 0.61256 0.80138 0.87394 0.0
H882 H 0.53635 0.79723 0.9483 0.0
H883 H 0.55172 0.76499 0.87532 0.0
H884 H 0.42428 0.73493 0.87396 0.0
H885 H 0.48476 0.77185 0.8755 0.0
H886 H 0.50187 0.73607 0.94816 0.0
H887 H 0.43931 0.70006 0.94683 0.0
C888 C 0.58886 0.81826 0.9313 0.0
C889 C 0.61096 0.82058 0.91035 0.0
C890 C 0.55286 0.79757 0.93201 0.0
C891 C 0.53813 0.77831 0.91183 0.0
C892 C 0.56089 0.78019 0.89111 0.0
C893 C 0.5963 0.80112 0.89034 0.0
C894 C 0.44082 0.73458 0.89033 0.0
C895 C 0.42679 0.71387 0.91019 0.0
C896 C 0.47603 0.7558 0.89119 0.0
C897 C 0.49924 0.75675 0.91183 0.0
C898 C 0.48502 0.73643 0.93192 0.0
C899 C 0.44918 0.71544 0.93114 0.0
H900 H 0.46558 0.35464 0.69775 0.0
H901 H 0.49976 0.36863 0.6249 0.0
H902 H 0.49941 0.29088 0.69922 0.0
H903 H 0.53452 0.30685 0.62657 0.0
H904 H 0.55879 0.17814 0.62516 0.0
H905 H 0.52476 0.24023 0.62656 0.0
H906 H 0.55966 0.25405 0.6994 0.0
H907 H 0.59282 0.18996 0.69822 0.0
C908 C 0.48035 0.34429 0.68207 0.0
C909 C 0.47923 0.36682 0.6611 0.0
C910 C 0.50009 0.30774 0.68295 0.0
C911 C 0.51956 0.29285 0.66292 0.0
C912 C 0.51907 0.31614 0.64224 0.0
C913 C 0.49911 0.3521 0.64129 0.0
C914 C 0.55962 0.19427 0.64156 0.0
C915 C 0.5792 0.1788 0.66151 0.0
C916 C 0.54006 0.23042 0.64232 0.0
C917 C 0.53965 0.25317 0.66298 0.0
C918 C 0.55894 0.23762 0.68314 0.0
C919 C 0.57832 0.20088 0.68244 0.0
H920 H 0.12205 0.3021 0.37686 0.0
H921 H 0.10849 0.33329 0.45006 0.0
H922 H 0.06113 0.26606 0.37805 0.0
H923 H 0.04545 0.29778 0.45104 0.0
H924 H 0.94704 0.20093 0.44797 0.0
H925 H 1.01052 0.23535 0.44994 0.0
H926 H 0.99395 0.27581 0.37815 0.0
H927 H 0.93244 0.2408 0.37594 0.0
C928 C 0.10581 0.30183 0.39326 0.0
C929 C 0.12041 0.32136 0.4133 0.0
C930 C 0.07033 0.28106 0.3939 0.0
C931 C 0.04738 0.27922 0.41451 0.0
C932 C 0.06211 0.29823 0.4348 0.0
C933 C 0.09821 0.31893 0.43422 0.0
C934 C 0.95726 0.21684 0.43254 0.0
C935 C 0.93447 0.21737 0.41169 0.0
C936 C 0.99359 0.23698 0.43374 0.0
C937 C 1.00812 0.25831 0.41413 0.0
C938 C 0.98484 0.25906 0.3935 0.0
C939 C 0.94903 0.23888 0.39226 0.0
H940 H 0.11539 0.71283 0.13633 0.0
H941 H 0.05535 0.67097 0.19855 0.0
H942 H 0.07805 0.77343 0.13734 0.0
H943 H 1.0169 0.73226 0.1994 0.0
H944 H 0.97644 0.86519 0.20076 0.0
H945 H 1.01521 0.80459 0.20419 0.0
H946 H 1.01236 0.7928 0.12842 0.0
H947 H 0.97459 0.85309 0.12499 0.0
C948 C 0.09438 0.71669 0.15045 0.0
C949 C 0.08839 0.68667 0.1673 0.0
C950 C 0.07253 0.75152 0.15088 0.0
C951 C 0.0435 0.75774 0.16808 0.0
C952 C 0.03887 0.72867 0.18581 0.0
C953 C 0.06106 0.69352 0.18542 0.0
C954 C 0.98389 0.84951 0.18483 0.0
C955 C 0.97241 0.86449 0.16256 0.0
C956 C 1.00612 0.8146 0.18683 0.0
C957 C 1.01768 0.79377 0.16659 0.0
C958 C 1.00507 0.80827 0.14444 0.0
C959 C 0.98296 0.84294 0.14245 0.0
H960 H 0.2071 0.25908 0.09182 0.0
H961 H 0.32124 0.29738 0.11547 0.0
H962 H 0.18199 0.32602 0.09552 0.0
H963 H 0.29606 0.36433 0.11965 0.0
H964 H 0.2151 0.44794 0.164 0.0
H965 H 0.24661 0.38776 0.15042 0.0
H966 H 0.18615 0.39862 0.0836 0.0
H967 H 0.1549 0.45919 0.09703 0.0
C968 C 0.22738 0.28229 0.09653 0.0
C969 C 0.26636 0.27313 0.10281 0.0
C970 C 0.21287 0.3206 0.09898 0.0
C971 C 0.23683 0.3504 0.10829 0.0
C972 C 0.27674 0.34193 0.11269 0.0
C973 C 0.29143 0.30375 0.10979 0.0
C974 C 0.20848 0.43757 0.14641 0.0
C975 C 0.18222 0.45839 0.1317 0.0
C976 C 0.22692 0.40328 0.13851 0.0
C977 C 0.2192 0.38852 0.11582 0.0
C978 C 0.19279 0.4092 0.10114 0.0
C979 C 0.17486 0.44391 0.10888 0.0
H980 H 0.35352 0.39722 0.35517 0.0
H981 H 0.35594 0.46303 0.42005 0.0
H982 H 0.41188 0.43076 0.34171 0.0
H983 H 0.4161 0.49633 0.40655 0.0
H984 H 0.50764 0.57072 0.36888 0.0
H985 H 0.44216 0.54368 0.37665 0.0
H986 H 0.48071 0.43128 0.35063 0.0
H987 H 0.54565 0.45845 0.34298 0.0
C988 C 0.36661 0.41876 0.36676 0.0
C989 C 0.34978 0.42724 0.38886 0.0
C990 C 0.40038 0.438 0.35894 0.0
C991 C 0.41884 0.46638 0.37293 0.0
C992 C 0.4023 0.475 0.39513 0.0
C993 C 0.36815 0.45556 0.40305 0.0
C994 C 0.50129 0.54089 0.36355 0.0
C995 C 0.53148 0.51693 0.35472 0.0
C996 C 0.46412 0.52506 0.36865 0.0
C997 C 0.45626 0.48507 0.36472 0.0
C998 C 0.48546 0.46222 0.35382 0.0
C999 C 0.52263 0.47793 0.349 0.0
H1000 H 0.33265 0.80658 0.62771 0.0
H1001 H 0.2316 0.74377 0.60196 0.0
H1002 H 0.36915 0.7449 0.6312 0.0
H1003 H 0.26834 0.68208 0.60474 0.0
H1004 H 0.36022 0.58083 0.60243 0.0
H1005 H 0.33035 0.64348 0.59155 0.0
H1006 H 0.35435 0.68731 0.66134 0.0
H1007 H 0.38394 0.62383 0.67253 0.0
C1008 C 0.31912 0.77991 0.62126 0.0
C1009 C 0.27952 0.78019 0.61402 0.0
C1010 C 0.33968 0.74444 0.62389 0.0
C1011 C 0.32132 0.70854 0.61878 0.0
C1012 C 0.28328 0.70925 0.60889 0.0
C1013 C 0.26246 0.74472 0.60677 0.0
C1014 C 0.35918 0.60374 0.61556 0.0
C1015 C 0.37457 0.59728 0.63842 0.0
C1016 C 0.34198 0.63965 0.60925 0.0
C1017 C 0.34035 0.67049 0.62544 0.0
C1018 C 0.35569 0.66421 0.64835 0.0
C1019 C 0.37227 0.6278 0.65486 0.0
H1020 H 0.03698 0.46578 0.86997 0.0
H1021 H 1.00453 0.57913 0.84167 0.0
H1022 H 0.10423 0.48917 0.87647 0.0
H1023 H 0.07152 0.60248 0.84781 0.0
H1024 H 0.2011 0.62728 0.84993 0.0
H1025 H 0.14114 0.59547 0.83751 0.0
H1026 H 0.13175 0.53876 0.90566 0.0
H1027 H 0.19315 0.57061 0.91834 0.0
C1028 C 0.04483 0.49498 0.86387 0.0
C1029 C 1.01579 0.52045 0.8548 0.0
C1030 C 0.08305 0.50868 0.86816 0.0
C1031 C 0.09305 0.54787 0.86306 0.0
C1032 C 0.06489 0.57208 0.85189 0.0
C1033 C 0.02661 0.55858 0.84798 0.0
C1034 C 0.18663 0.60796 0.86245 0.0
C1035 C 0.20214 0.60171 0.8853 0.0
C1036 C 0.15202 0.58973 0.8552 0.0
C1037 C 0.13162 0.56457 0.87051 0.0
C1038 C 0.14713 0.55768 0.89332 0.0
C1039 C 0.18203 0.5762 0.90069 0.0
H1040 H 0.83076 0.78154 0.93206 0.0
H1041 H 0.71792 0.74545 0.90511 0.0
H1042 H 0.8559 0.71516 0.92704 0.0
H1043 H 0.74301 0.67865 0.89983 0.0
H1044 H 0.82569 0.59175 0.85824 0.0
H1045 H 0.79223 0.65208 0.8707 0.0
H1046 H 0.85228 0.64582 0.93789 0.0
H1047 H 0.8858 0.58688 0.92559 0.0
C1048 C 0.81068 0.75876 0.92637 0.0
C1049 C 0.7722 0.76839 0.91952 0.0
C1050 C 0.82521 0.72079 0.92309 0.0
C1051 C 0.80166 0.69174 0.91258 0.0
C1052 C 0.76205 0.70053 0.90762 0.0
C1053 C 0.74736 0.73848 0.91122 0.0
C1054 C 0.83174 0.60337 0.87561 0.0
C1055 C 0.85866 0.58444 0.89076 0.0
C1056 C 0.81225 0.63764 0.88288 0.0
C1057 C 0.81951 0.6537 0.90537 0.0
C1058 C 0.84618 0.6345 0.92044 0.0
C1059 C 0.8654 0.6005 0.91328 0.0
H1060 H 0.70886 0.57895 0.61259 0.0
H1061 H 0.71276 0.64654 0.6767 0.0
H1062 H 0.64818 0.54765 0.62581 0.0
H1063 H 0.65158 0.6154 0.6898 0.0
H1064 H 0.51312 0.59218 0.67729 0.0
H1065 H 0.58032 0.61736 0.67515 0.0
H1066 H 0.62206 0.50149 0.65784 0.0
H1067 H 0.5547 0.4763 0.66041 0.0
C1068 C 0.6968 0.58717 0.6295 0.0
C1069 C 0.71564 0.61549 0.64348 0.0
C1070 C 0.66222 0.56886 0.63722 0.0
C1071 C 0.64518 0.57875 0.65898 0.0
C1072 C 0.66398 0.60706 0.67299 0.0
C1073 C 0.69902 0.62492 0.66545 0.0
C1074 C 0.53698 0.5717 0.67438 0.0
C1075 C 0.52879 0.53216 0.66949 0.0
C1076 C 0.57546 0.58619 0.67288 0.0
C1077 C 0.60646 0.56157 0.66593 0.0
C1078 C 0.59873 0.52128 0.66299 0.0
C1079 C 0.56028 0.50666 0.66491 0.0
H1080 H 0.7106 0.25903 0.43783 0.0
H1081 H 0.82397 0.29225 0.41049 0.0
H1082 H 0.68655 0.32559 0.43106 0.0
H1083 H 0.79991 0.35907 0.40338 0.0
H1084 H 0.71913 0.44561 0.3592 0.0
H1085 H 0.75112 0.38504 0.37331 0.0
H1086 H 0.69118 0.39547 0.43998 0.0
H1087 H 0.65913 0.45476 0.42605 0.0
C1088 C 0.73106 0.28123 0.43169 0.0
C1089 C 0.76934 0.27061 0.42517 0.0
C1090 C 0.71712 0.31929 0.42738 0.0
C1091 C 0.74107 0.34748 0.41618 0.0
C1092 C 0.78053 0.33785 0.41165 0.0
C1093 C 0.79465 0.29986 0.41632 0.0
C1094 C 0.71278 0.43486 0.37681 0.0
C1095 C 0.68637 0.45511 0.39135 0.0
C1096 C 0.73143 0.40044 0.38503 0.0
C1097 C 0.72383 0.3855 0.40787 0.0
C1098 C 0.69756 0.40592 0.4223 0.0
C1099 C 0.67918 0.44011 0.4142 0.0
H1100 H 0.86836 0.42053 0.10376 0.0
H1101 H 0.83718 0.42709 0.17749 0.0
H1102 H 0.93304 0.44879 0.11303 0.0
H1103 H 0.90105 0.45527 0.18649 0.0
H1104 H 0.99302 0.559 0.18104 0.0
H1105 H 0.93268 0.52081 0.17619 0.0
H1106 H 0.99696 0.43361 0.13717 0.0
H1107 H 0.05763 0.47162 0.14256 0.0
C1108 C 0.87527 0.42776 0.12188 0.0
C1109 C 0.84741 0.42155 0.1398 0.0
C1110 C 0.91239 0.44366 0.12723 0.0
C1111 C 0.92214 0.45423 0.15053 0.0
C1112 C 0.89442 0.44761 0.16839 0.0
C1113 C 0.85775 0.43131 0.16315 0.0
C1114 C 0.99452 0.53082 0.17235 0.0
C1115 C 0.03011 0.5178 0.16271 0.0
C1116 C 0.95994 0.50912 0.16933 0.0
C1117 C 0.95997 0.47437 0.15607 0.0
C1118 C 0.99597 0.46042 0.1473 0.0
C1119 C 0.03079 0.48177 0.15076 0.0
H1120 H 0.72983 0.73874 0.63211 0.0
H1121 H 0.80995 0.80397 0.58796 0.0
H1122 H 0.69307 0.79914 0.64003 0.0
H1123 H 0.77301 0.86415 0.59547 0.0
H1124 H 0.67904 0.95932 0.60046 0.0
H1125 H 0.70743 0.8966 0.5897 0.0
H1126 H 0.71082 0.86182 0.66309 0.0
H1127 H 0.68205 0.92535 0.67409 0.0
C1128 C 0.73848 0.76566 0.62323 0.0
C1129 C 0.77221 0.76656 0.60893 0.0
C1130 C 0.71794 0.80037 0.62816 0.0
C1131 C 0.73039 0.83651 0.61861 0.0
C1132 C 0.76253 0.8368 0.60303 0.0
C1133 C 0.78344 0.80229 0.59846 0.0
C1134 C 0.68563 0.93841 0.61443 0.0
C1135 C 0.6782 0.94751 0.63822 0.0
C1136 C 0.70207 0.90241 0.60818 0.0
C1137 C 0.71124 0.87413 0.62547 0.0
C1138 C 0.70361 0.88288 0.64931 0.0
C1139 C 0.68751 0.91936 0.65565 0.0
H1140 H 0.84165 0.96043 0.92071 0.0
H1141 H 0.85489 0.88637 0.85975 0.0
H1142 H 0.90202 0.99526 0.90991 0.0
H1143 H 0.91507 0.92111 0.84903 0.0
H1144 H 0.04702 0.96643 0.86302 0.0
H1145 H 0.98426 0.93124 0.86473 0.0
H1146 H 0.92391 0.04066 0.87698 0.0
H1147 H 0.98653 0.07547 0.87522 0.0
C1148 C 0.85762 0.95131 0.9052 0.0
C1149 C 0.84341 0.92069 0.89112 0.0
C1150 C 0.89191 0.97156 0.8988 0.0
C1151 C 0.91298 0.96131 0.87837 0.0
C1152 C 0.89947 0.9298 0.86478 0.0
C1153 C 0.86497 0.90994 0.87098 0.0
C1154 C 1.02003 0.98315 0.86452 0.0
C1155 C 1.02148 0.02373 0.86855 0.0
C1156 C 0.98414 0.96294 0.86598 0.0
C1157 C 0.94931 0.98309 0.87169 0.0
C1158 C 0.95036 0.02422 0.87309 0.0
C1159 C 0.98608 0.04431 0.87149 0.0
H1160 H 0.88946 0.09642 0.10286 0.0
H1161 H 0.82751 0.09335 0.16932 0.0
H1162 H 0.85593 0.15701 0.09206 0.0
H1163 H 0.79388 0.15459 0.15837 0.0
H1164 H 0.7185 0.24974 0.12595 0.0
H1165 H 0.74484 0.18282 0.12864 0.0
H1166 H 0.85853 0.22577 0.10672 0.0
H1167 H 0.83217 0.29238 0.10438 0.0
C1168 C 0.86859 0.10858 0.11521 0.0
C1169 C 0.86132 0.08998 0.13707 0.0
C1170 C 0.84938 0.1434 0.10894 0.0
C1171 C 0.82208 0.1605 0.12425 0.0
C1172 C 0.81435 0.14178 0.14602 0.0
C1173 C 0.83393 0.10696 0.15243 0.0
C1174 C 0.74853 0.24438 0.1205 0.0
C1175 C 0.77315 0.27594 0.1144 0.0
C1176 C 0.76383 0.20628 0.12254 0.0
C1177 C 0.80391 0.19912 0.11826 0.0
C1178 C 0.82751 0.23023 0.11004 0.0
C1179 C 0.81235 0.26833 0.10837 0.0
H1180 H 0.4905 0.07313 0.38665 0.0
H1181 H 0.5543 0.98811 0.34589 0.0
H1182 H 0.55132 0.11063 0.39257 0.0
H1183 H 0.61481 0.0258 0.35128 0.0
H1184 H 0.71075 0.11966 0.35229 0.0
H1185 H 0.64706 0.09151 0.34265 0.0
H1186 H 0.61499 0.0935 0.41623 0.0
H1187 H 0.67943 0.12175 0.4261 0.0
C1188 C 0.51716 0.06351 0.37803 0.0
C1189 C 0.5176 0.02824 0.36531 0.0
C1190 C 0.55209 0.08452 0.3818 0.0
C1191 C 0.58794 0.07095 0.37261 0.0
C1192 C 0.58768 0.03714 0.3585 0.0
C1193 C 0.55298 1.01577 0.35516 0.0
C1194 C 0.69021 0.11432 0.36652 0.0
C1195 C 0.70036 0.12294 0.39005 0.0
C1196 C 0.65366 0.09807 0.36092 0.0
C1197 C 0.6259 0.09042 0.37862 0.0
C1198 C 0.63564 0.09951 0.40215 0.0
C1199 C 0.67264 0.11533 0.40785 0.0
H1200 H 0.34388 0.28636 0.43305 0.0
H1201 H 0.22845 0.24824 0.41167 0.0
H1202 H 0.36819 0.219 0.43 0.0
H1203 H 0.25281 0.18087 0.40811 0.0
H1204 H 0.33197 0.09544 0.36351 0.0
H1205 H 0.30123 0.1562 0.37681 0.0
H1206 H 0.36338 0.14667 0.44314 0.0
H1207 H 0.39381 0.08549 0.43 0.0
C1208 C 0.32321 0.26316 0.42896 0.0
C1209 C 0.28408 0.27244 0.42312 0.0
C1210 C 0.33723 0.22461 0.4269 0.0
C1211 C 0.31261 0.19468 0.4184 0.0
C1212 C 0.27262 0.20336 0.41446 0.0
C1213 C 0.25843 0.2418 0.41697 0.0
C1214 C 0.33908 0.1062 0.38094 0.0
C1215 C 0.36558 0.0856 0.39559 0.0
C1216 C 0.3211 0.14084 0.38868 0.0
C1217 C 0.32958 0.15615 0.41114 0.0
C1218 C 0.35617 0.13564 0.42578 0.0
C1219 C 0.37362 0.10059 0.41821 0.0
H1220 H 1.00358 0.08861 0.1819 0.0
H1221 H 0.04363 0.97574 0.15805 0.0
H1222 H 0.06935 0.11545 0.17631 0.0
H1223 H 0.10975 1.00252 0.15222 0.0
H1224 H 0.19581 0.08361 0.10897 0.0
H1225 H 0.13553 0.05037 0.12199 0.0
H1226 H 0.13891 0.115 0.18718 0.0
H1227 H 0.19812 0.14829 0.17425 0.0
C1228 C 0.02707 0.06898 0.17676 0.0
C1229 C 1.01868 0.0299 0.17096 0.0
C1230 C 0.06471 0.08448 0.17317 0.0
C1231 C 0.09471 0.06133 0.16335 0.0
C1232 C 0.08715 1.02129 0.15944 0.0
C1233 C 0.04955 1.00565 0.16336 0.0
C1234 C 0.18355 0.0908 0.12601 0.0
C1235 C 0.20186 0.1188 0.14044 0.0
C1236 C 0.14929 0.07141 0.13363 0.0
C1237 C 0.13248 0.07984 0.15575 0.0
C1238 C 0.15084 0.10789 0.17004 0.0
C1239 C 0.18496 0.12699 0.16254 0.0
H1240 H 0.14455 0.9387 0.92435 0.0
H1241 H 0.21207 0.94031 0.85992 0.0
H1242 H 0.17568 0.87756 0.9362 0.0
H1243 H 0.24304 0.87798 0.87177 0.0
H1244 H 0.31585 0.7833 0.90766 0.0
H1245 H 0.28949 0.84965 0.90188 0.0
H1246 H 0.17536 0.80908 0.92463 0.0
H1247 H 0.20182 0.74313 0.93026 0.0
C1248 C 0.16591 0.92588 0.91255 0.0
C1249 C 0.17572 0.94458 0.89108 0.0
C1250 C 0.18376 0.89065 0.91942 0.0
C1251 C 0.21213 0.8729 0.90509 0.0
C1252 C 0.22176 0.89122 0.88344 0.0
C1253 C 0.20361 0.92662 0.87645 0.0
C1254 C 0.2857 0.78918 0.91267 0.0
C1255 C 0.26107 0.75826 0.91998 0.0
C1256 C 0.27032 0.82693 0.90875 0.0
C1257 C 0.23011 0.83457 0.91233 0.0
C1258 C 0.20646 0.80439 0.92174 0.0
C1259 C 0.22173 0.76665 0.92536 0.0
H1260 H 0.34774 0.8944 0.67878 0.0
H1261 H 0.34961 0.96497 0.61504 0.0
H1262 H 0.4078 0.92617 0.69227 0.0
H1263 H 0.41007 0.99649 0.62855 0.0
H1264 H 0.50219 0.06794 0.66347 0.0
H1265 H 0.43548 0.04182 0.65957 0.0
H1266 H 0.47762 0.92715 0.68073 0.0
H1267 H 0.54402 0.9534 0.68447 0.0
C1268 C 0.36099 0.91658 0.66755 0.0
C1269 C 0.34379 0.92695 0.64571 0.0
C1270 C 0.39545 0.93484 0.67537 0.0
C1271 C 0.41352 0.96421 0.66166 0.0
C1272 C 0.39646 0.97453 0.63978 0.0
C1273 C 0.36209 0.95604 0.63186 0.0
C1274 C 0.49667 0.03774 0.66863 0.0
C1275 C 0.52811 1.01278 0.67465 0.0
C1276 C 0.45866 1.02252 0.66584 0.0
C1277 C 0.45141 0.9822 0.66931 0.0
C1278 C 0.4821 0.95832 0.67793 0.0
C1279 C 0.52012 0.97344 0.68042 0.0
loop_
_geom_bond_atom_site_label_1
_geom_bond_atom_site_label_2
_geom_bond_distance
_geom_bond_site_symmetry_2
_ccdc_geom_bond_type
Dy0 O4 2.398 . S
Dy0 O5 2.491 . S
Dy0 O6 2.403 . S
Dy0 O7 2.664 . S
Dy0 O11 2.326 . S
Dy0 O15 2.310 . S
Dy0 O16 2.351 . S
C1 O12 1.185 . S
C1 O13 1.355 . S
C2 O4 1.185 . S
C2 O5 1.355 . S
Dy3 O7 2.310 . S
Dy3 O10 2.351 . S
Dy3 O12 2.398 . S
Dy3 O13 2.491 . S
Dy3 O14 2.403 . S
Dy3 O15 2.664 . S
Dy3 O17 2.326 . S
O4 Dy0 2.398 . S
O4 C2 1.185 . S
O5 Dy0 2.491 . S
O5 C2 1.355 . S
O6 Dy0 2.403 . S
O6 C8 1.254 . S
O7 Dy0 2.664 . S
O7 Dy3 2.310 . S
O7 C8 1.268 . S
C8 O6 1.254 . S
C8 O7 1.268 . S
C9 O14 1.254 . S
C9 O15 1.268 . S
O10 Dy3 2.351 . S
O10 C18 1.249 . S
O11 Dy0 2.326 . S
O11 C18 1.267 . S
O12 C1 1.185 . S
O12 Dy3 2.398 . S
O13 C1 1.355 . S
O13 Dy3 2.491 . S
O14 Dy3 2.403 . S
O14 C9 1.254 . S
O15 Dy0 2.310 . S
O15 Dy3 2.664 . S
O15 C9 1.268 . S
O16 Dy0 2.351 . S
O16 C19 1.249 . S
O17 Dy3 2.326 . S
O17 C19 1.267 . S
C18 O10 1.249 . S
C18 O11 1.267 . S
C19 O16 1.249 . S
C19 O17 1.267 . S
Dy20 O24 2.398 . S
Dy20 O25 2.491 . S
Dy20 O26 2.403 . S
Dy20 O27 2.664 . S
Dy20 O31 2.326 . S
Dy20 O35 2.310 . S
Dy20 O36 2.351 . S
C21 O32 1.185 . S
C21 O33 1.355 . S
C22 O24 1.185 . S
C22 O25 1.355 . S
Dy23 O27 2.310 . S
Dy23 O30 2.351 . S
Dy23 O32 2.398 . S
Dy23 O33 2.491 . S
Dy23 O34 2.403 . S
Dy23 O35 2.664 . S
Dy23 O37 2.326 . S
O24 Dy20 2.398 . S
O24 C22 1.185 . S
O25 Dy20 2.491 . S
O25 C22 1.355 . S
O26 Dy20 2.403 . S
O26 C28 1.254 . S
O27 Dy20 2.664 . S
O27 Dy23 2.310 . S
O27 C28 1.268 . S
C28 O26 1.254 . S
C28 O27 1.268 . S
C29 O34 1.254 . S
C29 O35 1.268 . S
O30 Dy23 2.351 . S
O30 C38 1.249 . S
O31 Dy20 2.326 . S
O31 C38 1.267 . S
O32 C21 1.185 . S
O32 Dy23 2.398 . S
O33 C21 1.355 . S
O33 Dy23 2.491 . S
O34 Dy23 2.403 . S
O34 C29 1.254 . S
O35 Dy20 2.310 . S
O35 Dy23 2.664 . S
O35 C29 1.268 . S
O36 Dy20 2.351 . S
O36 C39 1.249 . S
O37 Dy23 2.326 . S
O37 C39 1.267 . S
C38 O30 1.249 . S
C38 O31 1.267 . S
C39 O36 1.249 . S
C39 O37 1.267 . S
Dy40 O44 2.398 . S
Dy40 O45 2.491 . S
Dy40 O46 2.403 . S
Dy40 O47 2.664 . S
Dy40 O51 2.326 . S
Dy40 O55 2.310 . S
Dy40 O56 2.351 . S
C41 O52 1.185 . S
C41 O53 1.355 . S
C42 O44 1.185 . S
C42 O45 1.355 . S
Dy43 O47 2.310 . S
Dy43 O50 2.351 . S
Dy43 O52 2.398 . S
Dy43 O53 2.491 . S
Dy43 O54 2.403 . S
Dy43 O55 2.664 . S
Dy43 O57 2.326 . S
O44 Dy40 2.398 . S
O44 C42 1.185 . S
O45 Dy40 2.491 . S
O45 C42 1.355 . S
O46 Dy40 2.403 . S
O46 C48 1.254 . S
O47 Dy40 2.664 . S
O47 Dy43 2.310 . S
O47 C48 1.268 . S
C48 O46 1.254 . S
C48 O47 1.268 . S
C49 O54 1.254 . S
C49 O55 1.268 . S
O50 Dy43 2.351 . S
O50 C58 1.249 . S
O51 Dy40 2.326 . S
O51 C58 1.267 . S
O52 C41 1.185 . S
O52 Dy43 2.398 . S
O53 C41 1.355 . S
O53 Dy43 2.491 . S
O54 Dy43 2.403 . S
O54 C49 1.254 . S
O55 Dy40 2.310 . S
O55 Dy43 2.664 . S
O55 C49 1.268 . S
O56 Dy40 2.351 . S
O56 C59 1.249 . S
O57 Dy43 2.326 . S
O57 C59 1.267 . S
C58 O50 1.249 . S
C58 O51 1.267 . S
C59 O56 1.249 . S
C59 O57 1.267 . S
Dy60 O64 2.398 . S
Dy60 O65 2.491 . S
Dy60 O66 2.403 . S
Dy60 O67 2.664 . S
Dy60 O71 2.326 . S
Dy60 O75 2.310 . S
Dy60 O76 2.351 . S
C61 O72 1.185 . S
C61 O73 1.355 . S
C62 O64 1.185 . S
C62 O65 1.355 . S
Dy63 O67 2.310 . S
Dy63 O70 2.351 . S
Dy63 O72 2.398 . S
Dy63 O73 2.491 . S
Dy63 O74 2.403 . S
Dy63 O75 2.664 . S
Dy63 O77 2.326 . S
O64 Dy60 2.398 . S
O64 C62 1.185 . S
O65 Dy60 2.491 . S
O65 C62 1.355 . S
O66 Dy60 2.403 . S
O66 C68 1.254 . S
O67 Dy60 2.664 . S
O67 Dy63 2.310 . S
O67 C68 1.268 . S
C68 O66 1.254 . S
C68 O67 1.268 . S
C69 O74 1.254 . S
C69 O75 1.268 . S
O70 Dy63 2.351 . S
O70 C78 1.249 . S
O71 Dy60 2.326 . S
O71 C78 1.267 . S
O72 C61 1.185 . S
O72 Dy63 2.398 . S
O73 C61 1.355 . S
O73 Dy63 2.491 . S
O74 Dy63 2.403 . S
O74 C69 1.254 . S
O75 Dy60 2.310 . S
O75 Dy63 2.664 . S
O75 C69 1.268 . S
O76 Dy60 2.351 . S
O76 C79 1.249 . S
O77 Dy63 2.326 . S
O77 C79 1.267 . S
C78 O70 1.249 . S
C78 O71 1.267 . S
C79 O76 1.249 . S
C79 O77 1.267 . S
Dy80 O84 2.398 . S
Dy80 O85 2.491 . S
Dy80 O86 2.403 . S
Dy80 O87 2.664 . S
Dy80 O91 2.326 . S
Dy80 O95 2.310 . S
Dy80 O96 2.351 . S
C81 O92 1.185 . S
C81 O93 1.355 . S
C82 O84 1.185 . S
C82 O85 1.355 . S
Dy83 O87 2.310 . S
Dy83 O90 2.351 . S
Dy83 O92 2.398 . S
Dy83 O93 2.491 . S
Dy83 O94 2.403 . S
Dy83 O95 2.664 . S
Dy83 O97 2.326 . S
O84 Dy80 2.398 . S
O84 C82 1.185 . S
O85 Dy80 2.491 . S
O85 C82 1.355 . S
O86 Dy80 2.403 . S
O86 C88 1.254 . S
O87 Dy80 2.664 . S
O87 Dy83 2.310 . S
O87 C88 1.268 . S
C88 O86 1.254 . S
C88 O87 1.268 . S
C89 O94 1.254 . S
C89 O95 1.268 . S
O90 Dy83 2.351 . S
O90 C98 1.249 . S
O91 Dy80 2.326 . S
O91 C98 1.267 . S
O92 C81 1.185 . S
O92 Dy83 2.398 . S
O93 C81 1.355 . S
O93 Dy83 2.491 . S
O94 Dy83 2.403 . S
O94 C89 1.254 . S
O95 Dy80 2.310 . S
O95 Dy83 2.664 . S
O95 C89 1.268 . S
O96 Dy80 2.351 . S
O96 C99 1.249 . S
O97 Dy83 2.326 . S
O97 C99 1.267 . S
C98 O90 1.249 . S
C98 O91 1.267 . S
C99 O96 1.249 . S
C99 O97 1.267 . S
Dy100 O104 2.398 . S
Dy100 O105 2.491 . S
Dy100 O106 2.403 . S
Dy100 O107 2.664 . S
Dy100 O111 2.326 . S
Dy100 O115 2.310 . S
Dy100 O116 2.351 . S
C101 O112 1.185 . S
C101 O113 1.355 . S
C102 O104 1.185 . S
C102 O105 1.355 . S
Dy103 O107 2.310 . S
Dy103 O110 2.351 . S
Dy103 O112 2.398 . S
Dy103 O113 2.491 . S
Dy103 O114 2.403 . S
Dy103 O115 2.664 . S
Dy103 O117 2.326 . S
O104 Dy100 2.398 . S
O104 C102 1.185 . S
O105 Dy100 2.491 . S
O105 C102 1.355 . S
O106 Dy100 2.403 . S
O106 C108 1.254 . S
O107 Dy100 2.664 . S
O107 Dy103 2.310 . S
O107 C108 1.268 . S
C108 O106 1.254 . S
C108 O107 1.268 . S
C109 O114 1.254 . S
C109 O115 1.268 . S
O110 Dy103 2.351 . S
O110 C118 1.249 . S
O111 Dy100 2.326 . S
O111 C118 1.267 . S
O112 C101 1.185 . S
O112 Dy103 2.398 . S
O113 C101 1.355 . S
O113 Dy103 2.491 . S
O114 Dy103 2.403 . S
O114 C109 1.254 . S
O115 Dy100 2.310 . S
O115 Dy103 2.664 . S
O115 C109 1.268 . S
O116 Dy100 2.351 . S
O116 C119 1.249 . S
O117 Dy103 2.326 . S
O117 C119 1.267 . S
C118 O110 1.249 . S
C118 O111 1.267 . S
C119 O116 1.249 . S
C119 O117 1.267 . S
Dy120 O124 2.398 . S
Dy120 O125 2.491 . S
Dy120 O126 2.403 . S
Dy120 O127 2.664 . S
Dy120 O131 2.326 . S
Dy120 O135 2.310 . S
Dy120 O136 2.351 . S
C121 O132 1.185 . S
C121 O133 1.355 . S
C122 O124 1.185 . S
C122 O125 1.355 . S
Dy123 O127 2.310 . S
Dy123 O130 2.351 . S
Dy123 O132 2.398 . S
Dy123 O133 2.491 . S
Dy123 O134 2.403 . S
Dy123 O135 2.664 . S
Dy123 O137 2.326 . S
O124 Dy120 2.398 . S
O124 C122 1.185 . S
O125 Dy120 2.491 . S
O125 C122 1.355 . S
O126 Dy120 2.403 . S
O126 C128 1.254 . S
O127 Dy120 2.664 . S
O127 Dy123 2.310 . S
O127 C128 1.268 . S
C128 O126 1.254 . S
C128 O127 1.268 . S
C129 O134 1.254 . S
C129 O135 1.268 . S
O130 Dy123 2.351 . S
O130 C138 1.249 . S
O131 Dy120 2.326 . S
O131 C138 1.267 . S
O132 C121 1.185 . S
O132 Dy123 2.398 . S
O133 C121 1.355 . S
O133 Dy123 2.491 . S
O134 Dy123 2.403 . S
O134 C129 1.254 . S
O135 Dy120 2.310 . S
O135 Dy123 2.664 . S
O135 C129 1.268 . S
O136 Dy120 2.351 . S
O136 C139 1.249 . S
O137 Dy123 2.326 . S
O137 C139 1.267 . S
C138 O130 1.249 . S
C138 O131 1.267 . S
C139 O136 1.249 . S
C139 O137 1.267 . S
Dy140 O144 2.398 . S
Dy140 O145 2.491 . S
Dy140 O146 2.403 . S
Dy140 O147 2.664 . S
Dy140 O151 2.326 . S
Dy140 O155 2.310 . S
Dy140 O156 2.351 . S
C141 O152 1.185 . S
C141 O153 1.355 . S
C142 O144 1.185 . S
C142 O145 1.355 . S
Dy143 O147 2.310 . S
Dy143 O150 2.351 . S
Dy143 O152 2.398 . S
Dy143 O153 2.491 . S
Dy143 O154 2.403 . S
Dy143 O155 2.664 . S
Dy143 O157 2.326 . S
O144 Dy140 2.398 . S
O144 C142 1.185 . S
O145 Dy140 2.491 . S
O145 C142 1.355 . S
O146 Dy140 2.403 . S
O146 C148 1.254 . S
O147 Dy140 2.664 . S
O147 Dy143 2.310 . S
O147 C148 1.268 . S
C148 O146 1.254 . S
C148 O147 1.268 . S
C149 O154 1.254 . S
C149 O155 1.268 . S
O150 Dy143 2.351 . S
O150 C158 1.249 . S
O151 Dy140 2.326 . S
O151 C158 1.267 . S
O152 C141 1.185 . S
O152 Dy143 2.398 . S
O153 C141 1.355 . S
O153 Dy143 2.491 . S
O154 Dy143 2.403 . S
O154 C149 1.254 . S
O155 Dy140 2.310 . S
O155 Dy143 2.664 . S
O155 C149 1.268 . S
O156 Dy140 2.351 . S
O156 C159 1.249 . S
O157 Dy143 2.326 . S
O157 C159 1.267 . S
C158 O150 1.249 . S
C158 O151 1.267 . S
C159 O156 1.249 . S
C159 O157 1.267 . S
Dy160 O164 2.398 . S
Dy160 O165 2.491 . S
Dy160 O166 2.403 . S
Dy160 O167 2.664 . S
Dy160 O171 2.326 . S
Dy160 O175 2.310 . S
Dy160 O176 2.351 . S
C161 O172 1.185 . S
C161 O173 1.355 . S
C162 O164 1.185 . S
C162 O165 1.355 . S
Dy163 O167 2.310 . S
Dy163 O170 2.351 . S
Dy163 O172 2.398 . S
Dy163 O173 2.491 . S
Dy163 O174 2.403 . S
Dy163 O175 2.664 . S
Dy163 O177 2.326 . S
O164 Dy160 2.398 . S
O164 C162 1.185 . S
O165 Dy160 2.491 . S
O165 C162 1.355 . S
O166 Dy160 2.403 . S
O166 C168 1.254 . S
O167 Dy160 2.664 . S
O167 Dy163 2.310 . S
O167 C168 1.268 . S
C168 O166 1.254 . S
C168 O167 1.268 . S
C169 O174 1.254 . S
C169 O175 1.268 . S
O170 Dy163 2.351 . S
O170 C178 1.249 . S
O171 Dy160 2.326 . S
O171 C178 1.267 . S
O172 C161 1.185 . S
O172 Dy163 2.398 . S
O173 C161 1.355 . S
O173 Dy163 2.491 . S
O174 Dy163 2.403 . S
O174 C169 1.254 . S
O175 Dy160 2.310 . S
O175 Dy163 2.664 . S
O175 C169 1.268 . S
O176 Dy160 2.351 . S
O176 C179 1.249 . S
O177 Dy163 2.326 . S
O177 C179 1.267 . S
C178 O170 1.249 . S
C178 O171 1.267 . S
C179 O176 1.249 . S
C179 O177 1.267 . S
Dy180 O184 2.398 . S
Dy180 O185 2.491 . S
Dy180 O186 2.403 1_545 S
Dy180 O187 2.664 . S
Dy180 O191 2.326 . S
Dy180 O195 2.310 . S
Dy180 O196 2.351 1_545 S
C181 O192 1.185 . S
C181 O193 1.355 . S
C182 O184 1.185 . S
C182 O185 1.355 . S
Dy183 O187 2.310 . S
Dy183 O190 2.351 . S
Dy183 O192 2.398 . S
Dy183 O193 2.491 . S
Dy183 O194 2.403 . S
Dy183 O195 2.664 . S
Dy183 O197 2.326 1_545 S
O184 Dy180 2.398 . S
O184 C182 1.185 . S
O185 Dy180 2.491 . S
O185 C182 1.355 . S
O186 Dy180 2.403 1_565 S
O186 C188 1.254 . S
O187 Dy180 2.664 . S
O187 Dy183 2.310 . S
O187 C188 1.268 1_545 S
C188 O186 1.254 . S
C188 O187 1.268 1_565 S
C189 O194 1.254 . S
C189 O195 1.268 . S
O190 Dy183 2.351 . S
O190 C198 1.249 . S
O191 Dy180 2.326 . S
O191 C198 1.267 . S
O192 C181 1.185 . S
O192 Dy183 2.398 . S
O193 C181 1.355 . S
O193 Dy183 2.491 . S
O194 Dy183 2.403 . S
O194 C189 1.254 . S
O195 Dy180 2.310 . S
O195 Dy183 2.664 . S
O195 C189 1.268 . S
O196 Dy180 2.351 1_565 S
O196 C199 1.249 . S
O197 Dy183 2.326 1_565 S
O197 C199 1.267 . S
C198 O190 1.249 . S
C198 O191 1.267 . S
C199 O196 1.249 . S
C199 O197 1.267 . S
Dy200 O204 2.398 . S
Dy200 O205 2.491 . S
Dy200 O206 2.403 . S
Dy200 O207 2.664 . S
Dy200 O211 2.326 . S
Dy200 O215 2.310 . S
Dy200 O216 2.351 . S
C201 O212 1.185 . S
C201 O213 1.355 . S
C202 O204 1.185 . S
C202 O205 1.355 . S
Dy203 O207 2.310 . S
Dy203 O210 2.351 . S
Dy203 O212 2.398 . S
Dy203 O213 2.491 . S
Dy203 O214 2.403 . S
Dy203 O215 2.664 . S
Dy203 O217 2.326 . S
O204 Dy200 2.398 . S
O204 C202 1.185 . S
O205 Dy200 2.491 . S
O205 C202 1.355 . S
O206 Dy200 2.403 . S
O206 C208 1.254 . S
O207 Dy200 2.664 . S
O207 Dy203 2.310 . S
O207 C208 1.268 . S
C208 O206 1.254 . S
C208 O207 1.268 . S
C209 O214 1.254 . S
C209 O215 1.268 . S
O210 Dy203 2.351 . S
O210 C218 1.249 . S
O211 Dy200 2.326 . S
O211 C218 1.267 . S
O212 C201 1.185 . S
O212 Dy203 2.398 . S
O213 C201 1.355 . S
O213 Dy203 2.491 . S
O214 Dy203 2.403 . S
O214 C209 1.254 . S
O215 Dy200 2.310 . S
O215 Dy203 2.664 . S
O215 C209 1.268 . S
O216 Dy200 2.351 . S
O216 C219 1.249 . S
O217 Dy203 2.326 . S
O217 C219 1.267 . S
C218 O210 1.249 . S
C218 O211 1.267 . S
C219 O216 1.249 . S
C219 O217 1.267 . S
Dy220 O224 2.398 . S
Dy220 O225 2.491 . S
Dy220 O226 2.403 1_565 S
Dy220 O227 2.664 . S
Dy220 O231 2.326 . S
Dy220 O235 2.310 . S
Dy220 O236 2.351 1_565 S
C221 O232 1.185 . S
C221 O233 1.355 . S
C222 O224 1.185 . S
C222 O225 1.355 . S
Dy223 O227 2.310 . S
Dy223 O230 2.351 . S
Dy223 O232 2.398 . S
Dy223 O233 2.491 . S
Dy223 O234 2.403 . S
Dy223 O235 2.664 . S
Dy223 O237 2.326 1_565 S
O224 Dy220 2.398 . S
O224 C222 1.185 . S
O225 Dy220 2.491 . S
O225 C222 1.355 . S
O226 Dy220 2.403 1_545 S
O226 C228 1.254 . S
O227 Dy220 2.664 . S
O227 Dy223 2.310 . S
O227 C228 1.268 1_565 S
C228 O226 1.254 . S
C228 O227 1.268 1_545 S
C229 O234 1.254 . S
C229 O235 1.268 . S
O230 Dy223 2.351 . S
O230 C238 1.249 . S
O231 Dy220 2.326 . S
O231 C238 1.267 . S
O232 C221 1.185 . S
O232 Dy223 2.398 . S
O233 C221 1.355 . S
O233 Dy223 2.491 . S
O234 Dy223 2.403 . S
O234 C229 1.254 . S
O235 Dy220 2.310 . S
O235 Dy223 2.664 . S
O235 C229 1.268 . S
O236 Dy220 2.351 1_545 S
O236 C239 1.249 . S
O237 Dy223 2.326 1_545 S
O237 C239 1.267 . S
C238 O230 1.249 . S
C238 O231 1.267 . S
C239 O236 1.249 . S
C239 O237 1.267 . S
Dy240 O244 2.398 . S
Dy240 O245 2.491 . S
Dy240 O246 2.403 . S
Dy240 O247 2.664 . S
Dy240 O251 2.326 . S
Dy240 O255 2.310 . S
Dy240 O256 2.351 . S
C241 O252 1.185 . S
C241 O253 1.355 . S
C242 O244 1.185 . S
C242 O245 1.355 . S
Dy243 O247 2.310 . S
Dy243 O250 2.351 . S
Dy243 O252 2.398 . S
Dy243 O253 2.491 . S
Dy243 O254 2.403 . S
Dy243 O255 2.664 . S
Dy243 O257 2.326 . S
O244 Dy240 2.398 . S
O244 C242 1.185 . S
O245 Dy240 2.491 . S
O245 C242 1.355 . S
O246 Dy240 2.403 . S
O246 C248 1.254 . S
O247 Dy240 2.664 . S
O247 Dy243 2.310 . S
O247 C248 1.268 . S
C248 O246 1.254 . S
C248 O247 1.268 . S
C249 O254 1.254 . S
C249 O255 1.268 . S
O250 Dy243 2.351 . S
O250 C258 1.249 . S
O251 Dy240 2.326 . S
O251 C258 1.267 . S
O252 C241 1.185 . S
O252 Dy243 2.398 . S
O253 C241 1.355 . S
O253 Dy243 2.491 . S
O254 Dy243 2.403 . S
O254 C249 1.254 . S
O255 Dy240 2.310 . S
O255 Dy243 2.664 . S
O255 C249 1.268 . S
O256 Dy240 2.351 . S
O256 C259 1.249 . S
O257 Dy243 2.326 . S
O257 C259 1.267 . S
C258 O250 1.249 . S
C258 O251 1.267 . S
C259 O256 1.249 . S
C259 O257 1.267 . S
Dy260 O264 2.398 . S
Dy260 O265 2.491 . S
Dy260 O266 2.403 . S
Dy260 O267 2.664 . S
Dy260 O271 2.326 1_565 S
Dy260 O275 2.310 . S
Dy260 O276 2.351 . S
C261 O272 1.185 . S
C261 O273 1.355 . S
C262 O264 1.185 . S
C262 O265 1.355 . S
Dy263 O267 2.310 . S
Dy263 O270 2.351 1_565 S
Dy263 O272 2.398 . S
Dy263 O273 2.491 . S
Dy263 O274 2.403 1_565 S
Dy263 O275 2.664 . S
Dy263 O277 2.326 . S
O264 Dy260 2.398 . S
O264 C262 1.185 . S
O265 Dy260 2.491 . S
O265 C262 1.355 . S
O266 Dy260 2.403 . S
O266 C268 1.254 . S
O267 Dy260 2.664 . S
O267 Dy263 2.310 . S
O267 C268 1.268 . S
C268 O266 1.254 . S
C268 O267 1.268 . S
C269 O274 1.254 . S
C269 O275 1.268 1_545 S
O270 Dy263 2.351 1_545 S
O270 C278 1.249 . S
O271 Dy260 2.326 1_545 S
O271 C278 1.267 . S
O272 C261 1.185 . S
O272 Dy263 2.398 . S
O273 C261 1.355 . S
O273 Dy263 2.491 . S
O274 Dy263 2.403 1_545 S
O274 C269 1.254 . S
O275 Dy260 2.310 . S
O275 Dy263 2.664 . S
O275 C269 1.268 1_565 S
O276 Dy260 2.351 . S
O276 C279 1.249 . S
O277 Dy263 2.326 . S
O277 C279 1.267 . S
C278 O270 1.249 . S
C278 O271 1.267 . S
C279 O276 1.249 . S
C279 O277 1.267 . S
Dy280 O284 2.398 . S
Dy280 O285 2.491 . S
Dy280 O286 2.403 . S
Dy280 O287 2.664 . S
Dy280 O291 2.326 . S
Dy280 O295 2.310 . S
Dy280 O296 2.351 . S
C281 O292 1.185 . S
C281 O293 1.355 . S
C282 O284 1.185 . S
C282 O285 1.355 . S
Dy283 O287 2.310 . S
Dy283 O290 2.351 . S
Dy283 O292 2.398 . S
Dy283 O293 2.491 . S
Dy283 O294 2.403 . S
Dy283 O295 2.664 . S
Dy283 O297 2.326 . S
O284 Dy280 2.398 . S
O284 C282 1.185 . S
O285 Dy280 2.491 . S
O285 C282 1.355 . S
O286 Dy280 2.403 . S
O286 C288 1.254 . S
O287 Dy280 2.664 . S
O287 Dy283 2.310 . S
O287 C288 1.268 . S
C288 O286 1.254 . S
C288 O287 1.268 . S
C289 O294 1.254 . S
C289 O295 1.268 . S
O290 Dy283 2.351 . S
O290 C298 1.249 . S
O291 Dy280 2.326 . S
O291 C298 1.267 . S
O292 C281 1.185 . S
O292 Dy283 2.398 . S
O293 C281 1.355 . S
O293 Dy283 2.491 . S
O294 Dy283 2.403 . S
O294 C289 1.254 . S
O295 Dy280 2.310 . S
O295 Dy283 2.664 . S
O295 C289 1.268 . S
O296 Dy280 2.351 . S
O296 C299 1.249 . S
O297 Dy283 2.326 . S
O297 C299 1.267 . S
C298 O290 1.249 . S
C298 O291 1.267 . S
C299 O296 1.249 . S
C299 O297 1.267 . S
Dy300 O304 2.398 . S
Dy300 O305 2.491 . S
Dy300 O306 2.403 . S
Dy300 O307 2.664 . S
Dy300 O311 2.326 1_545 S
Dy300 O315 2.310 . S
Dy300 O316 2.351 . S
C301 O312 1.185 . S
C301 O313 1.355 . S
C302 O304 1.185 . S
C302 O305 1.355 . S
Dy303 O307 2.310 . S
Dy303 O310 2.351 1_545 S
Dy303 O312 2.398 . S
Dy303 O313 2.491 . S
Dy303 O314 2.403 1_545 S
Dy303 O315 2.664 . S
Dy303 O317 2.326 . S
O304 Dy300 2.398 . S
O304 C302 1.185 . S
O305 Dy300 2.491 . S
O305 C302 1.355 . S
O306 Dy300 2.403 . S
O306 C308 1.254 . S
O307 Dy300 2.664 . S
O307 Dy303 2.310 . S
O307 C308 1.268 . S
C308 O306 1.254 . S
C308 O307 1.268 . S
C309 O314 1.254 . S
C309 O315 1.268 1_565 S
O310 Dy303 2.351 1_565 S
O310 C318 1.249 . S
O311 Dy300 2.326 1_565 S
O311 C318 1.267 . S
O312 C301 1.185 . S
O312 Dy303 2.398 . S
O313 C301 1.355 . S
O313 Dy303 2.491 . S
O314 Dy303 2.403 1_565 S
O314 C309 1.254 . S
O315 Dy300 2.310 . S
O315 Dy303 2.664 . S
O315 C309 1.268 1_545 S
O316 Dy300 2.351 . S
O316 C319 1.249 . S
O317 Dy303 2.326 . S
O317 C319 1.267 . S
C318 O310 1.249 . S
C318 O311 1.267 . S
C319 O316 1.249 . S
C319 O317 1.267 . S
H320 C328 0.950 . S
H321 C333 0.950 . S
H322 C330 0.950 . S
H323 C332 0.950 . S
H324 C334 0.950 . S
H325 C336 0.950 . S
H326 C338 0.950 . S
H327 C339 0.950 . S
C328 H320 0.950 . S
C328 C329 1.386 . S
C328 C330 1.391 . S
C329 C328 1.386 . S
C329 C333 1.393 . S
C330 H322 0.950 . S
C330 C328 1.391 . S
C330 C331 1.400 . S
C331 C330 1.400 . S
C331 C332 1.398 . S
C331 C337 1.491 . S
C332 H323 0.950 . S
C332 C331 1.398 . S
C332 C333 1.391 . S
C333 H321 0.950 . S
C333 C329 1.393 . S
C333 C332 1.391 . S
C334 H324 0.950 . S
C334 C335 1.386 . S
C334 C336 1.391 . S
C335 C334 1.386 . S
C335 C339 1.393 . S
C336 H325 0.950 . S
C336 C334 1.391 . S
C336 C337 1.400 . S
C337 C331 1.491 . S
C337 C336 1.400 . S
C337 C338 1.398 . S
C338 H326 0.950 . S
C338 C337 1.398 . S
C338 C339 1.391 . S
C339 H327 0.950 . S
C339 C335 1.393 . S
C339 C338 1.391 . S
H340 C348 0.950 . S
H341 C353 0.950 . S
H342 C350 0.950 . S
H343 C352 0.950 . S
H344 C354 0.950 . S
H345 C356 0.950 . S
H346 C358 0.950 . S
H347 C359 0.950 . S
C348 H340 0.950 . S
C348 C349 1.386 . S
C348 C350 1.391 . S
C349 C348 1.386 . S
C349 C353 1.393 . S
C350 H342 0.950 . S
C350 C348 1.391 . S
C350 C351 1.400 . S
C351 C350 1.400 . S
C351 C352 1.398 . S
C351 C357 1.491 . S
C352 H343 0.950 . S
C352 C351 1.398 . S
C352 C353 1.391 . S
C353 H341 0.950 . S
C353 C349 1.393 . S
C353 C352 1.391 . S
C354 H344 0.950 . S
C354 C355 1.386 . S
C354 C356 1.391 . S
C355 C354 1.386 . S
C355 C359 1.393 . S
C356 H345 0.950 . S
C356 C354 1.391 . S
C356 C357 1.400 . S
C357 C351 1.491 . S
C357 C356 1.400 . S
C357 C358 1.398 . S
C358 H346 0.950 . S
C358 C357 1.398 . S
C358 C359 1.391 . S
C359 H347 0.950 . S
C359 C355 1.393 . S
C359 C358 1.391 . S
H360 C368 0.950 . S
H361 C373 0.950 . S
H362 C370 0.950 . S
H363 C372 0.950 . S
H364 C374 0.950 . S
H365 C376 0.950 . S
H366 C378 0.950 . S
H367 C379 0.950 . S
C368 H360 0.950 . S
C368 C369 1.386 . S
C368 C370 1.391 . S
C369 C368 1.386 . S
C369 C373 1.393 . S
C370 H362 0.950 . S
C370 C368 1.391 . S
C370 C371 1.400 . S
C371 C370 1.400 . S
C371 C372 1.398 . S
C371 C377 1.491 . S
C372 H363 0.950 . S
C372 C371 1.398 . S
C372 C373 1.391 . S
C373 H361 0.950 . S
C373 C369 1.393 . S
C373 C372 1.391 . S
C374 H364 0.950 . S
C374 C375 1.386 . S
C374 C376 1.391 . S
C375 C374 1.386 . S
C375 C379 1.393 . S
C376 H365 0.950 . S
C376 C374 1.391 . S
C376 C377 1.400 . S
C377 C371 1.491 . S
C377 C376 1.400 . S
C377 C378 1.398 . S
C378 H366 0.950 . S
C378 C377 1.398 . S
C378 C379 1.391 . S
C379 H367 0.950 . S
C379 C375 1.393 . S
C379 C378 1.391 . S
H380 C388 0.950 . S
H381 C393 0.950 . S
H382 C390 0.950 1_554 S
H383 C392 0.950 . S
H384 C394 0.950 . S
H385 C396 0.950 1_556 S
H386 C398 0.950 . S
H387 C399 0.950 . S
C388 H380 0.950 . S
C388 C389 1.386 . S
C388 C390 1.391 . S
C389 C388 1.386 . S
C389 C393 1.393 . S
C390 H382 0.950 1_556 S
C390 C388 1.391 . S
C390 C391 1.400 . S
C391 C390 1.400 . S
C391 C392 1.398 1_655 S
C391 C397 1.491 1_656 S
C392 H383 0.950 . S
C392 C391 1.398 1_455 S
C392 C393 1.391 1_455 S
C393 H381 0.950 . S
C393 C389 1.393 . S
C393 C392 1.391 1_655 S
C394 H384 0.950 . S
C394 C395 1.386 . S
C394 C396 1.391 . S
C395 C394 1.386 . S
C395 C399 1.393 . S
C396 H385 0.950 1_554 S
C396 C394 1.391 . S
C396 C397 1.400 . S
C397 C391 1.491 1_454 S
C397 C396 1.400 . S
C397 C398 1.398 1_455 S
C398 H386 0.950 . S
C398 C397 1.398 1_655 S
C398 C399 1.391 1_655 S
C399 H387 0.950 . S
C399 C395 1.393 . S
C399 C398 1.391 1_455 S
H400 C408 0.950 . S
H401 C413 0.950 . S
H402 C410 0.950 . S
H403 C412 0.950 . S
H404 C414 0.950 . S
H405 C416 0.950 . S
H406 C418 0.950 . S
H407 C419 0.950 . S
C408 H400 0.950 . S
C408 C409 1.386 . S
C408 C410 1.391 . S
C409 C408 1.386 . S
C409 C413 1.393 . S
C410 H402 0.950 . S
C410 C408 1.391 . S
C410 C411 1.400 . S
C411 C410 1.400 . S
C411 C412 1.398 . S
C411 C417 1.491 . S
C412 H403 0.950 . S
C412 C411 1.398 . S
C412 C413 1.391 . S
C413 H401 0.950 . S
C413 C409 1.393 . S
C413 C412 1.391 . S
C414 H404 0.950 . S
C414 C415 1.386 . S
C414 C416 1.391 . S
C415 C414 1.386 . S
C415 C419 1.393 . S
C416 H405 0.950 . S
C416 C414 1.391 . S
C416 C417 1.400 . S
C417 C411 1.491 . S
C417 C416 1.400 . S
C417 C418 1.398 . S
C418 H406 0.950 . S
C418 C417 1.398 . S
C418 C419 1.391 . S
C419 H407 0.950 . S
C419 C415 1.393 . S
C419 C418 1.391 . S
H420 C428 0.950 . S
H421 C433 0.950 . S
H422 C430 0.950 . S
H423 C432 0.950 . S
H424 C434 0.950 . S
H425 C436 0.950 . S
H426 C438 0.950 . S
H427 C439 0.950 . S
C428 H420 0.950 . S
C428 C429 1.386 . S
C428 C430 1.391 . S
C429 C428 1.386 . S
C429 C433 1.393 . S
C430 H422 0.950 . S
C430 C428 1.391 . S
C430 C431 1.400 . S
C431 C430 1.400 . S
C431 C432 1.398 . S
C431 C437 1.491 . S
C432 H423 0.950 . S
C432 C431 1.398 . S
C432 C433 1.391 . S
C433 H421 0.950 . S
C433 C429 1.393 . S
C433 C432 1.391 . S
C434 H424 0.950 . S
C434 C435 1.386 . S
C434 C436 1.391 . S
C435 C434 1.386 . S
C435 C439 1.393 . S
C436 H425 0.950 . S
C436 C434 1.391 . S
C436 C437 1.400 . S
C437 C431 1.491 . S
C437 C436 1.400 . S
C437 C438 1.398 . S
C438 H426 0.950 . S
C438 C437 1.398 . S
C438 C439 1.391 . S
C439 H427 0.950 . S
C439 C435 1.393 . S
C439 C438 1.391 . S
H440 C448 0.950 . S
H441 C453 0.950 . S
H442 C450 0.950 1_556 S
H443 C452 0.950 1_545 S
H444 C454 0.950 . S
H445 C456 0.950 1_554 S
H446 C458 0.950 1_565 S
H447 C459 0.950 . S
C448 H440 0.950 . S
C448 C449 1.386 . S
C448 C450 1.391 . S
C449 C448 1.386 . S
C449 C453 1.393 . S
C450 H442 0.950 1_554 S
C450 C448 1.391 . S
C450 C451 1.400 . S
C451 C450 1.400 . S
C451 C452 1.398 1_655 S
C451 C457 1.491 1_664 S
C452 H443 0.950 1_565 S
C452 C451 1.398 1_455 S
C452 C453 1.391 1_455 S
C453 H441 0.950 . S
C453 C449 1.393 . S
C453 C452 1.391 1_655 S
C454 H444 0.950 . S
C454 C455 1.386 . S
C454 C456 1.391 . S
C455 C454 1.386 . S
C455 C459 1.393 . S
C456 H445 0.950 1_556 S
C456 C454 1.391 . S
C456 C457 1.400 . S
C457 C451 1.491 1_446 S
C457 C456 1.400 . S
C457 C458 1.398 1_455 S
C458 H446 0.950 1_545 S
C458 C457 1.398 1_655 S
C458 C459 1.391 1_655 S
C459 H447 0.950 . S
C459 C455 1.393 . S
C459 C458 1.391 1_455 S
H460 C468 0.950 . S
H461 C473 0.950 . S
H462 C470 0.950 1_545 S
H463 C472 0.950 . S
H464 C474 0.950 . S
H465 C476 0.950 1_565 S
H466 C478 0.950 . S
H467 C479 0.950 . S
C468 H460 0.950 . S
C468 C469 1.386 . S
C468 C470 1.391 . S
C469 C468 1.386 . S
C469 C473 1.393 . S
C470 H462 0.950 1_565 S
C470 C468 1.391 . S
C470 C471 1.400 . S
C471 C470 1.400 . S
C471 C472 1.398 . S
C471 C477 1.491 1_565 S
C472 H463 0.950 . S
C472 C471 1.398 . S
C472 C473 1.391 . S
C473 H461 0.950 . S
C473 C469 1.393 . S
C473 C472 1.391 . S
C474 H464 0.950 . S
C474 C475 1.386 . S
C474 C476 1.391 . S
C475 C474 1.386 . S
C475 C479 1.393 . S
C476 H465 0.950 1_545 S
C476 C474 1.391 . S
C476 C477 1.400 . S
C477 C471 1.491 1_545 S
C477 C476 1.400 . S
C477 C478 1.398 . S
C478 H466 0.950 . S
C478 C477 1.398 . S
C478 C479 1.391 . S
C479 H467 0.950 . S
C479 C475 1.393 . S
C479 C478 1.391 . S
H480 C488 0.950 . S
H481 C493 0.950 . S
H482 C490 0.950 . S
H483 C492 0.950 . S
H484 C494 0.950 . S
H485 C496 0.950 . S
H486 C498 0.950 . S
H487 C499 0.950 . S
C488 H480 0.950 . S
C488 C489 1.386 . S
C488 C490 1.391 . S
C489 C488 1.386 . S
C489 C493 1.393 . S
C490 H482 0.950 . S
C490 C488 1.391 . S
C490 C491 1.400 . S
C491 C490 1.400 . S
C491 C492 1.398 . S
C491 C497 1.491 1_556 S
C492 H483 0.950 . S
C492 C491 1.398 . S
C492 C493 1.391 . S
C493 H481 0.950 . S
C493 C489 1.393 . S
C493 C492 1.391 . S
C494 H484 0.950 . S
C494 C495 1.386 . S
C494 C496 1.391 . S
C495 C494 1.386 . S
C495 C499 1.393 . S
C496 H485 0.950 . S
C496 C494 1.391 . S
C496 C497 1.400 . S
C497 C491 1.491 1_554 S
C497 C496 1.400 . S
C497 C498 1.398 . S
C498 H486 0.950 . S
C498 C497 1.398 . S
C498 C499 1.391 . S
C499 H487 0.950 . S
C499 C495 1.393 . S
C499 C498 1.391 . S
H500 C508 0.950 . S
H501 C513 0.950 . S
H502 C510 0.950 . S
H503 C512 0.950 . S
H504 C514 0.950 . S
H505 C516 0.950 . S
H506 C518 0.950 . S
H507 C519 0.950 . S
C508 H500 0.950 . S
C508 C509 1.386 . S
C508 C510 1.391 . S
C509 C508 1.386 . S
C509 C513 1.393 . S
C510 H502 0.950 . S
C510 C508 1.391 . S
C510 C511 1.400 . S
C511 C510 1.400 . S
C511 C512 1.398 . S
C511 C517 1.491 . S
C512 H503 0.950 . S
C512 C511 1.398 . S
C512 C513 1.391 . S
C513 H501 0.950 . S
C513 C509 1.393 . S
C513 C512 1.391 . S
C514 H504 0.950 . S
C514 C515 1.386 . S
C514 C516 1.391 . S
C515 C514 1.386 . S
C515 C519 1.393 . S
C516 H505 0.950 . S
C516 C514 1.391 . S
C516 C517 1.400 . S
C517 C511 1.491 . S
C517 C516 1.400 . S
C517 C518 1.398 . S
C518 H506 0.950 . S
C518 C517 1.398 . S
C518 C519 1.391 . S
C519 H507 0.950 . S
C519 C515 1.393 . S
C519 C518 1.391 . S
H520 C528 0.950 . S
H521 C533 0.950 . S
H522 C530 0.950 . S
H523 C532 0.950 . S
H524 C534 0.950 . S
H525 C536 0.950 . S
H526 C538 0.950 . S
H527 C539 0.950 . S
C528 H520 0.950 . S
C528 C529 1.386 . S
C528 C530 1.391 . S
C529 C528 1.386 . S
C529 C533 1.393 . S
C530 H522 0.950 . S
C530 C528 1.391 . S
C530 C531 1.400 . S
C531 C530 1.400 . S
C531 C532 1.398 . S
C531 C537 1.491 . S
C532 H523 0.950 . S
C532 C531 1.398 . S
C532 C533 1.391 . S
C533 H521 0.950 . S
C533 C529 1.393 . S
C533 C532 1.391 . S
C534 H524 0.950 . S
C534 C535 1.386 . S
C534 C536 1.391 . S
C535 C534 1.386 . S
C535 C539 1.393 . S
C536 H525 0.950 . S
C536 C534 1.391 . S
C536 C537 1.400 . S
C537 C531 1.491 . S
C537 C536 1.400 . S
C537 C538 1.398 . S
C538 H526 0.950 . S
C538 C537 1.398 . S
C538 C539 1.391 . S
C539 H527 0.950 . S
C539 C535 1.393 . S
C539 C538 1.391 . S
H540 C548 0.950 . S
H541 C553 0.950 . S
H542 C550 0.950 . S
H543 C552 0.950 . S
H544 C554 0.950 . S
H545 C556 0.950 . S
H546 C558 0.950 . S
H547 C559 0.950 . S
C548 H540 0.950 . S
C548 C549 1.386 . S
C548 C550 1.391 . S
C549 C548 1.386 . S
C549 C553 1.393 . S
C550 H542 0.950 . S
C550 C548 1.391 . S
C550 C551 1.400 . S
C551 C550 1.400 . S
C551 C552 1.398 . S
C551 C557 1.491 . S
C552 H543 0.950 . S
C552 C551 1.398 . S
C552 C553 1.391 . S
C553 H541 0.950 . S
C553 C549 1.393 . S
C553 C552 1.391 . S
C554 H544 0.950 . S
C554 C555 1.386 . S
C554 C556 1.391 . S
C555 C554 1.386 . S
C555 C559 1.393 . S
C556 H545 0.950 . S
C556 C554 1.391 . S
C556 C557 1.400 . S
C557 C551 1.491 . S
C557 C556 1.400 . S
C557 C558 1.398 . S
C558 H546 0.950 . S
C558 C557 1.398 . S
C558 C559 1.391 . S
C559 H547 0.950 . S
C559 C555 1.393 . S
C559 C558 1.391 . S
H560 C568 0.950 . S
H561 C573 0.950 . S
H562 C570 0.950 . S
H563 C572 0.950 . S
H564 C574 0.950 . S
H565 C576 0.950 . S
H566 C578 0.950 . S
H567 C579 0.950 . S
C568 H560 0.950 . S
C568 C569 1.386 . S
C568 C570 1.391 . S
C569 C568 1.386 . S
C569 C573 1.393 . S
C570 H562 0.950 . S
C570 C568 1.391 . S
C570 C571 1.400 . S
C571 C570 1.400 . S
C571 C572 1.398 . S
C571 C577 1.491 1_554 S
C572 H563 0.950 . S
C572 C571 1.398 . S
C572 C573 1.391 . S
C573 H561 0.950 . S
C573 C569 1.393 . S
C573 C572 1.391 . S
C574 H564 0.950 . S
C574 C575 1.386 . S
C574 C576 1.391 . S
C575 C574 1.386 . S
C575 C579 1.393 . S
C576 H565 0.950 . S
C576 C574 1.391 . S
C576 C577 1.400 . S
C577 C571 1.491 1_556 S
C577 C576 1.400 . S
C577 C578 1.398 . S
C578 H566 0.950 . S
C578 C577 1.398 . S
C578 C579 1.391 . S
C579 H567 0.950 . S
C579 C575 1.393 . S
C579 C578 1.391 . S
H580 C588 0.950 . S
H581 C593 0.950 . S
H582 C590 0.950 . S
H583 C592 0.950 . S
H584 C594 0.950 . S
H585 C596 0.950 . S
H586 C598 0.950 . S
H587 C599 0.950 . S
C588 H580 0.950 . S
C588 C589 1.386 . S
C588 C590 1.391 . S
C589 C588 1.386 . S
C589 C593 1.393 . S
C590 H582 0.950 . S
C590 C588 1.391 . S
C590 C591 1.400 . S
C591 C590 1.400 . S
C591 C592 1.398 . S
C591 C597 1.491 . S
C592 H583 0.950 . S
C592 C591 1.398 . S
C592 C593 1.391 . S
C593 H581 0.950 . S
C593 C589 1.393 . S
C593 C592 1.391 . S
C594 H584 0.950 . S
C594 C595 1.386 . S
C594 C596 1.391 . S
C595 C594 1.386 . S
C595 C599 1.393 . S
C596 H585 0.950 . S
C596 C594 1.391 . S
C596 C597 1.400 . S
C597 C591 1.491 . S
C597 C596 1.400 . S
C597 C598 1.398 . S
C598 H586 0.950 . S
C598 C597 1.398 . S
C598 C599 1.391 . S
C599 H587 0.950 . S
C599 C595 1.393 . S
C599 C598 1.391 . S
H600 C608 0.950 . S
H601 C613 0.950 . S
H602 C610 0.950 . S
H603 C612 0.950 . S
H604 C614 0.950 . S
H605 C616 0.950 . S
H606 C618 0.950 . S
H607 C619 0.950 . S
C608 H600 0.950 . S
C608 C609 1.386 . S
C608 C610 1.391 . S
C609 C608 1.386 . S
C609 C613 1.393 . S
C610 H602 0.950 . S
C610 C608 1.391 . S
C610 C611 1.400 . S
C611 C610 1.400 . S
C611 C612 1.398 . S
C611 C617 1.491 . S
C612 H603 0.950 . S
C612 C611 1.398 . S
C612 C613 1.391 . S
C613 H601 0.950 . S
C613 C609 1.393 . S
C613 C612 1.391 . S
C614 H604 0.950 . S
C614 C615 1.386 . S
C614 C616 1.391 . S
C615 C614 1.386 . S
C615 C619 1.393 . S
C616 H605 0.950 . S
C616 C614 1.391 . S
C616 C617 1.400 . S
C617 C611 1.491 . S
C617 C616 1.400 . S
C617 C618 1.398 . S
C618 H606 0.950 . S
C618 C617 1.398 . S
C618 C619 1.391 . S
C619 H607 0.950 . S
C619 C615 1.393 . S
C619 C618 1.391 . S
H620 C628 0.950 . S
H621 C633 0.950 . S
H622 C630 0.950 . S
H623 C632 0.950 . S
H624 C634 0.950 . S
H625 C636 0.950 . S
H626 C638 0.950 . S
H627 C639 0.950 . S
C628 H620 0.950 . S
C628 C629 1.386 . S
C628 C630 1.391 . S
C629 C628 1.386 . S
C629 C633 1.393 . S
C630 H622 0.950 . S
C630 C628 1.391 . S
C630 C631 1.400 . S
C631 C630 1.400 . S
C631 C632 1.398 . S
C631 C637 1.491 . S
C632 H623 0.950 . S
C632 C631 1.398 . S
C632 C633 1.391 . S
C633 H621 0.950 . S
C633 C629 1.393 . S
C633 C632 1.391 . S
C634 H624 0.950 . S
C634 C635 1.386 . S
C634 C636 1.391 . S
C635 C634 1.386 . S
C635 C639 1.393 . S
C636 H625 0.950 . S
C636 C634 1.391 . S
C636 C637 1.400 . S
C637 C631 1.491 . S
C637 C636 1.400 . S
C637 C638 1.398 . S
C638 H626 0.950 . S
C638 C637 1.398 . S
C638 C639 1.391 . S
C639 H627 0.950 . S
C639 C635 1.393 . S
C639 C638 1.391 . S
H640 C648 0.950 . S
H641 C653 0.950 . S
H642 C650 0.950 . S
H643 C652 0.950 . S
H644 C654 0.950 . S
H645 C656 0.950 . S
H646 C658 0.950 . S
H647 C659 0.950 . S
C648 H640 0.950 . S
C648 C649 1.386 . S
C648 C650 1.391 . S
C649 C648 1.386 . S
C649 C653 1.393 . S
C650 H642 0.950 . S
C650 C648 1.391 . S
C650 C651 1.400 . S
C651 C650 1.400 . S
C651 C652 1.398 . S
C651 C657 1.491 . S
C652 H643 0.950 . S
C652 C651 1.398 . S
C652 C653 1.391 . S
C653 H641 0.950 . S
C653 C649 1.393 . S
C653 C652 1.391 . S
C654 H644 0.950 . S
C654 C655 1.386 . S
C654 C656 1.391 . S
C655 C654 1.386 . S
C655 C659 1.393 . S
C656 H645 0.950 . S
C656 C654 1.391 . S
C656 C657 1.400 . S
C657 C651 1.491 . S
C657 C656 1.400 . S
C657 C658 1.398 . S
C658 H646 0.950 . S
C658 C657 1.398 . S
C658 C659 1.391 . S
C659 H647 0.950 . S
C659 C655 1.393 . S
C659 C658 1.391 . S
H660 C668 0.950 . S
H661 C673 0.950 . S
H662 C670 0.950 . S
H663 C672 0.950 1_545 S
H664 C674 0.950 . S
H665 C676 0.950 . S
H666 C678 0.950 . S
H667 C679 0.950 . S
C668 H660 0.950 . S
C668 C669 1.386 . S
C668 C670 1.391 . S
C669 C668 1.386 . S
C669 C673 1.393 1_565 S
C670 H662 0.950 . S
C670 C668 1.391 . S
C670 C671 1.400 . S
C671 C670 1.400 . S
C671 C672 1.398 . S
C671 C677 1.491 . S
C672 H663 0.950 1_565 S
C672 C671 1.398 . S
C672 C673 1.391 1_565 S
C673 H661 0.950 . S
C673 C669 1.393 1_545 S
C673 C672 1.391 1_545 S
C674 H664 0.950 . S
C674 C675 1.386 . S
C674 C676 1.391 . S
C675 C674 1.386 . S
C675 C679 1.393 . S
C676 H665 0.950 . S
C676 C674 1.391 . S
C676 C677 1.400 . S
C677 C671 1.491 . S
C677 C676 1.400 . S
C677 C678 1.398 . S
C678 H666 0.950 . S
C678 C677 1.398 . S
C678 C679 1.391 . S
C679 H667 0.950 . S
C679 C675 1.393 . S
C679 C678 1.391 . S
H680 C688 0.950 . S
H681 C693 0.950 . S
H682 C690 0.950 . S
H683 C692 0.950 . S
H684 C694 0.950 . S
H685 C696 0.950 . S
H686 C698 0.950 . S
H687 C699 0.950 . S
C688 H680 0.950 . S
C688 C689 1.386 . S
C688 C690 1.391 . S
C689 C688 1.386 . S
C689 C693 1.393 . S
C690 H682 0.950 . S
C690 C688 1.391 . S
C690 C691 1.400 . S
C691 C690 1.400 . S
C691 C692 1.398 . S
C691 C697 1.491 1_554 S
C692 H683 0.950 . S
C692 C691 1.398 . S
C692 C693 1.391 . S
C693 H681 0.950 . S
C693 C689 1.393 . S
C693 C692 1.391 . S
C694 H684 0.950 . S
C694 C695 1.386 . S
C694 C696 1.391 . S
C695 C694 1.386 . S
C695 C699 1.393 . S
C696 H685 0.950 . S
C696 C694 1.391 . S
C696 C697 1.400 . S
C697 C691 1.491 1_556 S
C697 C696 1.400 . S
C697 C698 1.398 . S
C698 H686 0.950 . S
C698 C697 1.398 . S
C698 C699 1.391 . S
C699 H687 0.950 . S
C699 C695 1.393 . S
C699 C698 1.391 . S
H700 C708 0.950 . S
H701 C713 0.950 . S
H702 C710 0.950 . S
H703 C712 0.950 . S
H704 C714 0.950 . S
H705 C716 0.950 1_565 S
H706 C718 0.950 . S
H707 C719 0.950 . S
C708 H700 0.950 . S
C708 C709 1.386 . S
C708 C710 1.391 . S
C709 C708 1.386 . S
C709 C713 1.393 . S
C710 H702 0.950 . S
C710 C708 1.391 . S
C710 C711 1.400 . S
C711 C710 1.400 . S
C711 C712 1.398 . S
C711 C717 1.491 . S
C712 H703 0.950 . S
C712 C711 1.398 . S
C712 C713 1.391 . S
C713 H701 0.950 . S
C713 C709 1.393 . S
C713 C712 1.391 . S
C714 H704 0.950 . S
C714 C715 1.386 1_565 S
C714 C716 1.391 1_565 S
C715 C714 1.386 1_545 S
C715 C719 1.393 . S
C716 H705 0.950 1_545 S
C716 C714 1.391 1_545 S
C716 C717 1.400 . S
C717 C711 1.491 . S
C717 C716 1.400 . S
C717 C718 1.398 . S
C718 H706 0.950 . S
C718 C717 1.398 . S
C718 C719 1.391 . S
C719 H707 0.950 . S
C719 C715 1.393 . S
C719 C718 1.391 . S
H720 C728 0.950 . S
H721 C733 0.950 . S
H722 C730 0.950 . S
H723 C732 0.950 . S
H724 C734 0.950 . S
H725 C736 0.950 . S
H726 C738 0.950 . S
H727 C739 0.950 . S
C728 H720 0.950 . S
C728 C729 1.386 . S
C728 C730 1.391 . S
C729 C728 1.386 . S
C729 C733 1.393 . S
C730 H722 0.950 . S
C730 C728 1.391 . S
C730 C731 1.400 . S
C731 C730 1.400 . S
C731 C732 1.398 . S
C731 C737 1.491 . S
C732 H723 0.950 . S
C732 C731 1.398 . S
C732 C733 1.391 . S
C733 H721 0.950 . S
C733 C729 1.393 . S
C733 C732 1.391 . S
C734 H724 0.950 . S
C734 C735 1.386 . S
C734 C736 1.391 . S
C735 C734 1.386 . S
C735 C739 1.393 . S
C736 H725 0.950 . S
C736 C734 1.391 . S
C736 C737 1.400 . S
C737 C731 1.491 . S
C737 C736 1.400 . S
C737 C738 1.398 . S
C738 H726 0.950 . S
C738 C737 1.398 . S
C738 C739 1.391 . S
C739 H727 0.950 . S
C739 C735 1.393 . S
C739 C738 1.391 . S
H740 C748 0.950 . S
H741 C753 0.950 . S
H742 C750 0.950 . S
H743 C752 0.950 . S
H744 C754 0.950 . S
H745 C756 0.950 . S
H746 C758 0.950 1_565 S
H747 C759 0.950 . S
C748 H740 0.950 . S
C748 C749 1.386 1_565 S
C748 C750 1.391 . S
C749 C748 1.386 1_545 S
C749 C753 1.393 . S
C750 H742 0.950 . S
C750 C748 1.391 . S
C750 C751 1.400 1_565 S
C751 C750 1.400 1_545 S
C751 C752 1.398 . S
C751 C757 1.491 . S
C752 H743 0.950 . S
C752 C751 1.398 . S
C752 C753 1.391 . S
C753 H741 0.950 . S
C753 C749 1.393 . S
C753 C752 1.391 . S
C754 H744 0.950 . S
C754 C755 1.386 . S
C754 C756 1.391 . S
C755 C754 1.386 . S
C755 C759 1.393 . S
C756 H745 0.950 . S
C756 C754 1.391 . S
C756 C757 1.400 . S
C757 C751 1.491 . S
C757 C756 1.400 . S
C757 C758 1.398 . S
C758 H746 0.950 1_545 S
C758 C757 1.398 . S
C758 C759 1.391 . S
C759 H747 0.950 . S
C759 C755 1.393 . S
C759 C758 1.391 . S
H760 C768 0.950 . S
H761 C773 0.950 . S
H762 C770 0.950 . S
H763 C772 0.950 . S
H764 C774 0.950 . S
H765 C776 0.950 . S
H766 C778 0.950 1_554 S
H767 C779 0.950 . S
C768 H760 0.950 . S
C768 C769 1.386 . S
C768 C770 1.391 . S
C769 C768 1.386 . S
C769 C773 1.393 . S
C770 H762 0.950 . S
C770 C768 1.391 . S
C770 C771 1.400 . S
C771 C770 1.400 . S
C771 C772 1.398 . S
C771 C777 1.491 1_554 S
C772 H763 0.950 . S
C772 C771 1.398 . S
C772 C773 1.391 . S
C773 H761 0.950 . S
C773 C769 1.393 . S
C773 C772 1.391 . S
C774 H764 0.950 . S
C774 C775 1.386 . S
C774 C776 1.391 . S
C775 C774 1.386 . S
C775 C779 1.393 . S
C776 H765 0.950 . S
C776 C774 1.391 . S
C776 C777 1.400 . S
C777 C771 1.491 1_556 S
C777 C776 1.400 . S
C777 C778 1.398 . S
C778 H766 0.950 1_556 S
C778 C777 1.398 . S
C778 C779 1.391 . S
C779 H767 0.950 . S
C779 C775 1.393 . S
C779 C778 1.391 . S
H780 C788 0.950 . S
H781 C793 0.950 . S
H782 C790 0.950 . S
H783 C792 0.950 . S
H784 C794 0.950 . S
H785 C796 0.932 1_545 S
H786 C798 0.950 . S
H787 C799 0.950 . S
C788 H780 0.950 . S
C788 C789 1.386 . S
C788 C790 1.391 . S
C789 C788 1.386 . S
C789 C793 1.393 1_565 S
C790 H782 0.950 . S
C790 C788 1.391 . S
C790 C791 1.400 . S
C791 C790 1.400 . S
C791 C792 1.398 1_565 S
C791 C797 1.491 . S
C792 H783 0.950 . S
C792 C791 1.398 1_545 S
C792 C793 1.391 . S
C793 H781 0.950 . S
C793 C789 1.393 1_545 S
C793 C792 1.391 . S
C794 H784 0.950 . S
C794 C795 1.386 . S
C794 C796 1.391 . S
C795 C794 1.386 . S
C795 C799 1.393 . S
C796 H785 0.932 1_565 S
C796 C794 1.391 . S
C796 C797 1.400 . S
C797 C791 1.491 . S
C797 C796 1.400 . S
C797 C798 1.398 . S
C798 H786 0.950 . S
C798 C797 1.398 . S
C798 C799 1.391 . S
C799 H787 0.950 . S
C799 C795 1.393 . S
C799 C798 1.391 . S
H800 C808 0.950 . S
H801 C813 0.950 . S
H802 C810 0.950 . S
H803 C812 0.950 . S
H804 C814 0.950 . S
H805 C816 0.950 . S
H806 C818 0.950 . S
H807 C819 0.950 . S
C808 H800 0.950 . S
C808 C809 1.386 . S
C808 C810 1.391 . S
C809 C808 1.386 . S
C809 C813 1.393 . S
C810 H802 0.950 . S
C810 C808 1.391 . S
C810 C811 1.400 . S
C811 C810 1.400 . S
C811 C812 1.398 . S
C811 C817 1.491 . S
C812 H803 0.950 . S
C812 C811 1.398 . S
C812 C813 1.391 . S
C813 H801 0.950 . S
C813 C809 1.393 . S
C813 C812 1.391 . S
C814 H804 0.950 . S
C814 C815 1.386 . S
C814 C816 1.391 . S
C815 C814 1.386 . S
C815 C819 1.393 . S
C816 H805 0.950 . S
C816 C814 1.391 . S
C816 C817 1.400 . S
C817 C811 1.491 . S
C817 C816 1.400 . S
C817 C818 1.398 . S
C818 H806 0.950 . S
C818 C817 1.398 . S
C818 C819 1.391 . S
C819 H807 0.950 . S
C819 C815 1.393 . S
C819 C818 1.391 . S
H820 C828 0.950 . S
H821 C833 0.950 . S
H822 C830 0.950 . S
H823 C832 0.950 . S
H824 C834 0.950 . S
H825 C836 0.950 . S
H826 C838 0.950 . S
H827 C839 0.950 . S
C828 H820 0.950 . S
C828 C829 1.386 . S
C828 C830 1.391 . S
C829 C828 1.386 . S
C829 C833 1.393 . S
C830 H822 0.950 . S
C830 C828 1.391 . S
C830 C831 1.400 . S
C831 C830 1.400 . S
C831 C832 1.398 . S
C831 C837 1.491 . S
C832 H823 0.950 . S
C832 C831 1.398 . S
C832 C833 1.391 . S
C833 H821 0.950 . S
C833 C829 1.393 . S
C833 C832 1.391 . S
C834 H824 0.950 . S
C834 C835 1.386 . S
C834 C836 1.391 . S
C835 C834 1.386 . S
C835 C839 1.393 . S
C836 H825 0.950 . S
C836 C834 1.391 . S
C836 C837 1.400 . S
C837 C831 1.491 . S
C837 C836 1.400 . S
C837 C838 1.398 . S
C838 H826 0.950 . S
C838 C837 1.398 . S
C838 C839 1.391 . S
C839 H827 0.950 . S
C839 C835 1.393 . S
C839 C838 1.391 . S
H840 C848 0.950 . S
H841 C853 0.950 . S
H842 C850 0.950 . S
H843 C852 0.950 . S
H844 C854 0.950 . S
H845 C856 0.950 . S
H846 C858 0.950 . S
H847 C859 0.950 . S
C848 H840 0.950 . S
C848 C849 1.386 . S
C848 C850 1.391 . S
C849 C848 1.386 . S
C849 C853 1.393 . S
C850 H842 0.950 . S
C850 C848 1.391 . S
C850 C851 1.400 . S
C851 C850 1.400 . S
C851 C852 1.398 . S
C851 C857 1.491 1_655 S
C852 H843 0.950 . S
C852 C851 1.398 . S
C852 C853 1.391 . S
C853 H841 0.950 . S
C853 C849 1.393 . S
C853 C852 1.391 . S
C854 H844 0.950 . S
C854 C855 1.386 . S
C854 C856 1.391 . S
C855 C854 1.386 . S
C855 C859 1.393 . S
C856 H845 0.950 . S
C856 C854 1.391 . S
C856 C857 1.400 . S
C857 C851 1.491 1_455 S
C857 C856 1.400 . S
C857 C858 1.398 . S
C858 H846 0.950 . S
C858 C857 1.398 . S
C858 C859 1.391 . S
C859 H847 0.950 . S
C859 C855 1.393 . S
C859 C858 1.391 . S
H860 C868 0.950 . S
H861 C873 0.947 1_455 S
H862 C870 0.950 . S
H863 C872 0.950 . S
H864 C874 0.950 . S
H865 C876 0.950 . S
H866 C878 0.950 . S
H867 C879 0.947 1_655 S
C868 H860 0.950 . S
C868 C869 1.386 . S
C868 C870 1.391 . S
C869 C868 1.386 . S
C869 C873 1.397 . S
C870 H862 0.950 . S
C870 C868 1.391 . S
C870 C871 1.400 . S
C871 C870 1.400 . S
C871 C872 1.398 1_655 S
C871 C877 1.491 1_655 S
C872 H863 0.950 . S
C872 C871 1.398 1_455 S
C872 C873 1.389 1_455 S
C873 H861 0.947 1_655 S
C873 C869 1.397 . S
C873 C872 1.389 1_655 S
C874 H864 0.950 . S
C874 C875 1.386 . S
C874 C876 1.391 . S
C875 C874 1.386 . S
C875 C879 1.397 . S
C876 H865 0.950 . S
C876 C874 1.391 . S
C876 C877 1.400 . S
C877 C871 1.491 1_455 S
C877 C876 1.400 . S
C877 C878 1.398 1_455 S
C878 H866 0.950 . S
C878 C877 1.398 1_655 S
C878 C879 1.389 1_655 S
C879 H867 0.947 1_455 S
C879 C875 1.397 . S
C879 C878 1.389 1_455 S
H880 C888 0.950 . S
H881 C893 0.950 . S
H882 C890 0.950 . S
H883 C892 0.950 . S
H884 C894 0.950 . S
H885 C896 0.950 . S
H886 C898 0.950 . S
H887 C899 0.950 . S
C888 H880 0.950 . S
C888 C889 1.386 . S
C888 C890 1.391 . S
C889 C888 1.386 . S
C889 C893 1.393 . S
C890 H882 0.950 . S
C890 C888 1.391 . S
C890 C891 1.400 . S
C891 C890 1.400 . S
C891 C892 1.398 . S
C891 C897 1.491 . S
C892 H883 0.950 . S
C892 C891 1.398 . S
C892 C893 1.391 . S
C893 H881 0.950 . S
C893 C889 1.393 . S
C893 C892 1.391 . S
C894 H884 0.950 . S
C894 C895 1.386 . S
C894 C896 1.391 . S
C895 C894 1.386 . S
C895 C899 1.393 . S
C896 H885 0.950 . S
C896 C894 1.391 . S
C896 C897 1.400 . S
C897 C891 1.491 . S
C897 C896 1.400 . S
C897 C898 1.398 . S
C898 H886 0.950 . S
C898 C897 1.398 . S
C898 C899 1.391 . S
C899 H887 0.950 . S
C899 C895 1.393 . S
C899 C898 1.391 . S
H900 C908 0.950 . S
H901 C913 0.950 . S
H902 C910 0.950 . S
H903 C912 0.950 . S
H904 C914 0.950 . S
H905 C916 0.950 . S
H906 C918 0.950 . S
H907 C919 0.950 . S
C908 H900 0.950 . S
C908 C909 1.386 . S
C908 C910 1.391 . S
C909 C908 1.386 . S
C909 C913 1.393 . S
C910 H902 0.950 . S
C910 C908 1.391 . S
C910 C911 1.400 . S
C911 C910 1.400 . S
C911 C912 1.398 . S
C911 C917 1.491 . S
C912 H903 0.950 . S
C912 C911 1.398 . S
C912 C913 1.391 . S
C913 H901 0.950 . S
C913 C909 1.393 . S
C913 C912 1.391 . S
C914 H904 0.950 . S
C914 C915 1.386 . S
C914 C916 1.391 . S
C915 C914 1.386 . S
C915 C919 1.393 . S
C916 H905 0.950 . S
C916 C914 1.391 . S
C916 C917 1.400 . S
C917 C911 1.491 . S
C917 C916 1.400 . S
C917 C918 1.398 . S
C918 H906 0.950 . S
C918 C917 1.398 . S
C918 C919 1.391 . S
C919 H907 0.950 . S
C919 C915 1.393 . S
C919 C918 1.391 . S
H920 C928 0.950 . S
H921 C933 0.950 . S
H922 C930 0.950 . S
H923 C932 0.950 . S
H924 C934 0.950 . S
H925 C936 0.950 . S
H926 C938 0.950 . S
H927 C939 0.950 . S
C928 H920 0.950 . S
C928 C929 1.386 . S
C928 C930 1.391 . S
C929 C928 1.386 . S
C929 C933 1.393 . S
C930 H922 0.950 . S
C930 C928 1.391 . S
C930 C931 1.400 . S
C931 C930 1.400 . S
C931 C932 1.398 . S
C931 C937 1.491 1_455 S
C932 H923 0.950 . S
C932 C931 1.398 . S
C932 C933 1.391 . S
C933 H921 0.950 . S
C933 C929 1.393 . S
C933 C932 1.391 . S
C934 H924 0.950 . S
C934 C935 1.386 . S
C934 C936 1.391 . S
C935 C934 1.386 . S
C935 C939 1.393 . S
C936 H925 0.950 . S
C936 C934 1.391 . S
C936 C937 1.400 . S
C937 C931 1.491 1_655 S
C937 C936 1.400 . S
C937 C938 1.398 . S
C938 H926 0.950 . S
C938 C937 1.398 . S
C938 C939 1.391 . S
C939 H927 0.950 . S
C939 C935 1.393 . S
C939 C938 1.391 . S
H940 C948 0.950 . S
H941 C953 0.950 1_655 S
H942 C950 0.950 . S
H943 C952 0.950 . S
H944 C954 0.950 . S
H945 C956 0.950 . S
H946 C958 0.950 . S
H947 C959 0.950 1_455 S
C948 H940 0.950 . S
C948 C949 1.386 . S
C948 C950 1.391 . S
C949 C948 1.386 . S
C949 C953 1.393 . S
C950 H942 0.950 . S
C950 C948 1.391 . S
C950 C951 1.400 . S
C951 C950 1.400 . S
C951 C952 1.398 1_455 S
C951 C957 1.491 1_455 S
C952 H943 0.950 . S
C952 C951 1.398 1_655 S
C952 C953 1.391 1_655 S
C953 H941 0.950 1_455 S
C953 C949 1.393 . S
C953 C952 1.391 1_455 S
C954 H944 0.950 . S
C954 C955 1.386 . S
C954 C956 1.391 . S
C955 C954 1.386 . S
C955 C959 1.393 . S
C956 H945 0.950 . S
C956 C954 1.391 . S
C956 C957 1.400 . S
C957 C951 1.491 1_655 S
C957 C956 1.400 . S
C957 C958 1.398 1_655 S
C958 H946 0.950 . S
C958 C957 1.398 1_455 S
C958 C959 1.391 1_455 S
C959 H947 0.950 1_655 S
C959 C955 1.393 . S
C959 C958 1.391 1_655 S
H960 C968 0.950 . S
H961 C973 0.950 . S
H962 C970 0.950 . S
H963 C972 0.950 . S
H964 C974 0.950 . S
H965 C976 0.950 . S
H966 C978 0.950 . S
H967 C979 0.950 . S
C968 H960 0.950 . S
C968 C969 1.386 . S
C968 C970 1.391 . S
C969 C968 1.386 . S
C969 C973 1.393 . S
C970 H962 0.950 . S
C970 C968 1.391 . S
C970 C971 1.400 . S
C971 C970 1.400 . S
C971 C972 1.398 . S
C971 C977 1.491 . S
C972 H963 0.950 . S
C972 C971 1.398 . S
C972 C973 1.391 . S
C973 H961 0.950 . S
C973 C969 1.393 . S
C973 C972 1.391 . S
C974 H964 0.950 . S
C974 C975 1.386 . S
C974 C976 1.391 . S
C975 C974 1.386 . S
C975 C979 1.393 . S
C976 H965 0.950 . S
C976 C974 1.391 . S
C976 C977 1.400 . S
C977 C971 1.491 . S
C977 C976 1.400 . S
C977 C978 1.398 . S
C978 H966 0.950 . S
C978 C977 1.398 . S
C978 C979 1.391 . S
C979 H967 0.950 . S
C979 C975 1.393 . S
C979 C978 1.391 . S
H980 C988 0.950 . S
H981 C993 0.950 . S
H982 C990 0.950 . S
H983 C992 0.950 . S
H984 C994 0.950 . S
H985 C996 0.950 . S
H986 C998 0.950 . S
H987 C999 0.950 . S
C988 H980 0.950 . S
C988 C989 1.386 . S
C988 C990 1.391 . S
C989 C988 1.386 . S
C989 C993 1.393 . S
C990 H982 0.950 . S
C990 C988 1.391 . S
C990 C991 1.400 . S
C991 C990 1.400 . S
C991 C992 1.398 . S
C991 C997 1.491 . S
C992 H983 0.950 . S
C992 C991 1.398 . S
C992 C993 1.391 . S
C993 H981 0.950 . S
C993 C989 1.393 . S
C993 C992 1.391 . S
C994 H984 0.950 . S
C994 C995 1.386 . S
C994 C996 1.391 . S
C995 C994 1.386 . S
C995 C999 1.393 . S
C996 H985 0.950 . S
C996 C994 1.391 . S
C996 C997 1.400 . S
C997 C991 1.491 . S
C997 C996 1.400 . S
C997 C998 1.398 . S
C998 H986 0.950 . S
C998 C997 1.398 . S
C998 C999 1.391 . S
C999 H987 0.950 . S
C999 C995 1.393 . S
C999 C998 1.391 . S
H1000 C1008 0.950 . S
H1001 C1013 0.950 . S
H1002 C1010 0.950 . S
H1003 C1012 0.950 . S
H1004 C1014 0.950 . S
H1005 C1016 0.950 . S
H1006 C1018 0.950 . S
H1007 C1019 0.950 . S
C1008 H1000 0.950 . S
C1008 C1009 1.386 . S
C1008 C1010 1.391 . S
C1009 C1008 1.386 . S
C1009 C1013 1.393 . S
C1010 H1002 0.950 . S
C1010 C1008 1.391 . S
C1010 C1011 1.400 . S
C1011 C1010 1.400 . S
C1011 C1012 1.398 . S
C1011 C1017 1.491 . S
C1012 H1003 0.950 . S
C1012 C1011 1.398 . S
C1012 C1013 1.391 . S
C1013 H1001 0.950 . S
C1013 C1009 1.393 . S
C1013 C1012 1.391 . S
C1014 H1004 0.950 . S
C1014 C1015 1.386 . S
C1014 C1016 1.391 . S
C1015 C1014 1.386 . S
C1015 C1019 1.393 . S
C1016 H1005 0.950 . S
C1016 C1014 1.391 . S
C1016 C1017 1.400 . S
C1017 C1011 1.491 . S
C1017 C1016 1.400 . S
C1017 C1018 1.398 . S
C1018 H1006 0.950 . S
C1018 C1017 1.398 . S
C1018 C1019 1.391 . S
C1019 H1007 0.950 . S
C1019 C1015 1.393 . S
C1019 C1018 1.391 . S
H1020 C1028 0.950 . S
H1021 C1033 0.950 1_655 S
H1022 C1030 0.950 . S
H1023 C1032 0.950 . S
H1024 C1034 0.950 . S
H1025 C1036 0.950 . S
H1026 C1038 0.950 . S
H1027 C1039 0.950 . S
C1028 H1020 0.950 . S
C1028 C1029 1.386 1_455 S
C1028 C1030 1.391 . S
C1029 C1028 1.386 1_655 S
C1029 C1033 1.393 1_655 S
C1030 H1022 0.950 . S
C1030 C1028 1.391 . S
C1030 C1031 1.400 . S
C1031 C1030 1.400 . S
C1031 C1032 1.398 . S
C1031 C1037 1.491 . S
C1032 H1023 0.950 . S
C1032 C1031 1.398 . S
C1032 C1033 1.391 . S
C1033 H1021 0.950 1_455 S
C1033 C1029 1.393 1_455 S
C1033 C1032 1.391 . S
C1034 H1024 0.950 . S
C1034 C1035 1.386 . S
C1034 C1036 1.391 . S
C1035 C1034 1.386 . S
C1035 C1039 1.393 . S
C1036 H1025 0.950 . S
C1036 C1034 1.391 . S
C1036 C1037 1.400 . S
C1037 C1031 1.491 . S
C1037 C1036 1.400 . S
C1037 C1038 1.398 . S
C1038 H1026 0.950 . S
C1038 C1037 1.398 . S
C1038 C1039 1.391 . S
C1039 H1027 0.950 . S
C1039 C1035 1.393 . S
C1039 C1038 1.391 . S
H1040 C1048 0.950 . S
H1041 C1053 0.950 . S
H1042 C1050 0.950 . S
H1043 C1052 0.950 . S
H1044 C1054 0.950 . S
H1045 C1056 0.950 . S
H1046 C1058 0.950 . S
H1047 C1059 0.950 . S
C1048 H1040 0.950 . S
C1048 C1049 1.386 . S
C1048 C1050 1.391 . S
C1049 C1048 1.386 . S
C1049 C1053 1.393 . S
C1050 H1042 0.950 . S
C1050 C1048 1.391 . S
C1050 C1051 1.400 . S
C1051 C1050 1.400 . S
C1051 C1052 1.398 . S
C1051 C1057 1.491 . S
C1052 H1043 0.950 . S
C1052 C1051 1.398 . S
C1052 C1053 1.391 . S
C1053 H1041 0.950 . S
C1053 C1049 1.393 . S
C1053 C1052 1.391 . S
C1054 H1044 0.950 . S
C1054 C1055 1.386 . S
C1054 C1056 1.391 . S
C1055 C1054 1.386 . S
C1055 C1059 1.393 . S
C1056 H1045 0.950 . S
C1056 C1054 1.391 . S
C1056 C1057 1.400 . S
C1057 C1051 1.491 . S
C1057 C1056 1.400 . S
C1057 C1058 1.398 . S
C1058 H1046 0.950 . S
C1058 C1057 1.398 . S
C1058 C1059 1.391 . S
C1059 H1047 0.950 . S
C1059 C1055 1.393 . S
C1059 C1058 1.391 . S
H1060 C1068 0.950 . S
H1061 C1073 0.950 . S
H1062 C1070 0.950 . S
H1063 C1072 0.950 . S
H1064 C1074 0.950 . S
H1065 C1076 0.950 . S
H1066 C1078 0.950 . S
H1067 C1079 0.950 . S
C1068 H1060 0.950 . S
C1068 C1069 1.386 . S
C1068 C1070 1.391 . S
C1069 C1068 1.386 . S
C1069 C1073 1.393 . S
C1070 H1062 0.950 . S
C1070 C1068 1.391 . S
C1070 C1071 1.400 . S
C1071 C1070 1.400 . S
C1071 C1072 1.398 . S
C1071 C1077 1.491 . S
C1072 H1063 0.950 . S
C1072 C1071 1.398 . S
C1072 C1073 1.391 . S
C1073 H1061 0.950 . S
C1073 C1069 1.393 . S
C1073 C1072 1.391 . S
C1074 H1064 0.950 . S
C1074 C1075 1.386 . S
C1074 C1076 1.391 . S
C1075 C1074 1.386 . S
C1075 C1079 1.393 . S
C1076 H1065 0.950 . S
C1076 C1074 1.391 . S
C1076 C1077 1.400 . S
C1077 C1071 1.491 . S
C1077 C1076 1.400 . S
C1077 C1078 1.398 . S
C1078 H1066 0.950 . S
C1078 C1077 1.398 . S
C1078 C1079 1.391 . S
C1079 H1067 0.950 . S
C1079 C1075 1.393 . S
C1079 C1078 1.391 . S
H1080 C1088 0.950 . S
H1081 C1093 0.950 . S
H1082 C1090 0.950 . S
H1083 C1092 0.950 . S
H1084 C1094 0.950 . S
H1085 C1096 0.950 . S
H1086 C1098 0.950 . S
H1087 C1099 0.950 . S
C1088 H1080 0.950 . S
C1088 C1089 1.386 . S
C1088 C1090 1.391 . S
C1089 C1088 1.386 . S
C1089 C1093 1.393 . S
C1090 H1082 0.950 . S
C1090 C1088 1.391 . S
C1090 C1091 1.400 . S
C1091 C1090 1.400 . S
C1091 C1092 1.398 . S
C1091 C1097 1.491 . S
C1092 H1083 0.950 . S
C1092 C1091 1.398 . S
C1092 C1093 1.391 . S
C1093 H1081 0.950 . S
C1093 C1089 1.393 . S
C1093 C1092 1.391 . S
C1094 H1084 0.950 . S
C1094 C1095 1.386 . S
C1094 C1096 1.391 . S
C1095 C1094 1.386 . S
C1095 C1099 1.393 . S
C1096 H1085 0.950 . S
C1096 C1094 1.391 . S
C1096 C1097 1.400 . S
C1097 C1091 1.491 . S
C1097 C1096 1.400 . S
C1097 C1098 1.398 . S
C1098 H1086 0.950 . S
C1098 C1097 1.398 . S
C1098 C1099 1.391 . S
C1099 H1087 0.950 . S
C1099 C1095 1.393 . S
C1099 C1098 1.391 . S
H1100 C1108 0.950 . S
H1101 C1113 0.950 . S
H1102 C1110 0.950 . S
H1103 C1112 0.950 . S
H1104 C1114 0.950 . S
H1105 C1116 0.950 . S
H1106 C1118 0.950 . S
H1107 C1119 0.933 1_455 S
C1108 H1100 0.950 . S
C1108 C1109 1.386 . S
C1108 C1110 1.391 . S
C1109 C1108 1.386 . S
C1109 C1113 1.393 . S
C1110 H1102 0.950 . S
C1110 C1108 1.391 . S
C1110 C1111 1.400 . S
C1111 C1110 1.400 . S
C1111 C1112 1.398 . S
C1111 C1117 1.491 . S
C1112 H1103 0.950 . S
C1112 C1111 1.398 . S
C1112 C1113 1.391 . S
C1113 H1101 0.950 . S
C1113 C1109 1.393 . S
C1113 C1112 1.391 . S
C1114 H1104 0.950 . S
C1114 C1115 1.386 1_655 S
C1114 C1116 1.391 . S
C1115 C1114 1.386 1_455 S
C1115 C1119 1.386 1_455 S
C1116 H1105 0.950 . S
C1116 C1114 1.391 . S
C1116 C1117 1.400 . S
C1117 C1111 1.491 . S
C1117 C1116 1.400 . S
C1117 C1118 1.398 . S
C1118 H1106 0.950 . S
C1118 C1117 1.398 . S
C1118 C1119 1.416 . S
C1119 H1107 0.933 1_655 S
C1119 C1115 1.386 1_655 S
C1119 C1118 1.416 . S
H1120 C1128 0.950 . S
H1121 C1133 0.950 . S
H1122 C1130 0.950 . S
H1123 C1132 0.950 . S
H1124 C1134 0.950 . S
H1125 C1136 0.950 . S
H1126 C1138 0.950 . S
H1127 C1139 0.950 . S
C1128 H1120 0.950 . S
C1128 C1129 1.386 . S
C1128 C1130 1.391 . S
C1129 C1128 1.386 . S
C1129 C1133 1.393 . S
C1130 H1122 0.950 . S
C1130 C1128 1.391 . S
C1130 C1131 1.400 . S
C1131 C1130 1.400 . S
C1131 C1132 1.398 . S
C1131 C1137 1.491 . S
C1132 H1123 0.950 . S
C1132 C1131 1.398 . S
C1132 C1133 1.391 . S
C1133 H1121 0.950 . S
C1133 C1129 1.393 . S
C1133 C1132 1.391 . S
C1134 H1124 0.950 . S
C1134 C1135 1.386 . S
C1134 C1136 1.391 . S
C1135 C1134 1.386 . S
C1135 C1139 1.393 . S
C1136 H1125 0.950 . S
C1136 C1134 1.391 . S
C1136 C1137 1.400 . S
C1137 C1131 1.491 . S
C1137 C1136 1.400 . S
C1137 C1138 1.398 . S
C1138 H1126 0.950 . S
C1138 C1137 1.398 . S
C1138 C1139 1.391 . S
C1139 H1127 0.950 . S
C1139 C1135 1.393 . S
C1139 C1138 1.391 . S
H1140 C1148 0.950 . S
H1141 C1153 0.950 . S
H1142 C1150 0.950 . S
H1143 C1152 0.950 . S
H1144 C1154 0.950 . S
H1145 C1156 0.950 . S
H1146 C1158 0.950 1_545 S
H1147 C1159 0.950 . S
C1148 H1140 0.950 . S
C1148 C1149 1.386 . S
C1148 C1150 1.391 . S
C1149 C1148 1.386 . S
C1149 C1153 1.393 . S
C1150 H1142 0.950 . S
C1150 C1148 1.391 . S
C1150 C1151 1.400 . S
C1151 C1150 1.400 . S
C1151 C1152 1.398 . S
C1151 C1157 1.491 . S
C1152 H1143 0.950 . S
C1152 C1151 1.398 . S
C1152 C1153 1.391 . S
C1153 H1141 0.950 . S
C1153 C1149 1.393 . S
C1153 C1152 1.391 . S
C1154 H1144 0.950 . S
C1154 C1155 1.386 . S
C1154 C1156 1.391 1_455 S
C1155 C1154 1.386 . S
C1155 C1159 1.393 1_465 S
C1156 H1145 0.950 . S
C1156 C1154 1.391 1_655 S
C1156 C1157 1.400 . S
C1157 C1151 1.491 . S
C1157 C1156 1.400 . S
C1157 C1158 1.398 . S
C1158 H1146 0.950 1_565 S
C1158 C1157 1.398 . S
C1158 C1159 1.391 1_565 S
C1159 H1147 0.950 . S
C1159 C1155 1.393 1_645 S
C1159 C1158 1.391 1_545 S
H1160 C1168 0.950 . S
H1161 C1173 0.950 . S
H1162 C1170 0.950 . S
H1163 C1172 0.950 . S
H1164 C1174 0.950 . S
H1165 C1176 0.950 . S
H1166 C1178 0.950 . S
H1167 C1179 0.950 . S
C1168 H1160 0.950 . S
C1168 C1169 1.386 . S
C1168 C1170 1.391 . S
C1169 C1168 1.386 . S
C1169 C1173 1.393 . S
C1170 H1162 0.950 . S
C1170 C1168 1.391 . S
C1170 C1171 1.400 . S
C1171 C1170 1.400 . S
C1171 C1172 1.398 . S
C1171 C1177 1.491 . S
C1172 H1163 0.950 . S
C1172 C1171 1.398 . S
C1172 C1173 1.391 . S
C1173 H1161 0.950 . S
C1173 C1169 1.393 . S
C1173 C1172 1.391 . S
C1174 H1164 0.950 . S
C1174 C1175 1.386 . S
C1174 C1176 1.391 . S
C1175 C1174 1.386 . S
C1175 C1179 1.393 . S
C1176 H1165 0.950 . S
C1176 C1174 1.391 . S
C1176 C1177 1.400 . S
C1177 C1171 1.491 . S
C1177 C1176 1.400 . S
C1177 C1178 1.398 . S
C1178 H1166 0.950 . S
C1178 C1177 1.398 . S
C1178 C1179 1.391 . S
C1179 H1167 0.950 . S
C1179 C1175 1.393 . S
C1179 C1178 1.391 . S
H1180 C1188 0.950 . S
H1181 C1193 0.943 1_565 S
H1182 C1190 0.950 . S
H1183 C1192 0.950 . S
H1184 C1194 0.950 . S
H1185 C1196 0.950 . S
H1186 C1198 0.950 . S
H1187 C1199 0.950 . S
C1188 H1180 0.950 . S
C1188 C1189 1.386 . S
C1188 C1190 1.391 . S
C1189 C1188 1.386 . S
C1189 C1193 1.396 . S
C1190 H1182 0.950 . S
C1190 C1188 1.391 . S
C1190 C1191 1.400 . S
C1191 C1190 1.400 . S
C1191 C1192 1.398 . S
C1191 C1197 1.491 . S
C1192 H1183 0.950 . S
C1192 C1191 1.398 . S
C1192 C1193 1.394 . S
C1193 H1181 0.943 1_545 S
C1193 C1189 1.396 . S
C1193 C1192 1.394 . S
C1194 H1184 0.950 . S
C1194 C1195 1.386 . S
C1194 C1196 1.391 . S
C1195 C1194 1.386 . S
C1195 C1199 1.393 . S
C1196 H1185 0.950 . S
C1196 C1194 1.391 . S
C1196 C1197 1.400 . S
C1197 C1191 1.491 . S
C1197 C1196 1.400 . S
C1197 C1198 1.398 . S
C1198 H1186 0.950 . S
C1198 C1197 1.398 . S
C1198 C1199 1.391 . S
C1199 H1187 0.950 . S
C1199 C1195 1.393 . S
C1199 C1198 1.391 . S
H1200 C1208 0.950 . S
H1201 C1213 0.950 . S
H1202 C1210 0.950 . S
H1203 C1212 0.950 . S
H1204 C1214 0.950 . S
H1205 C1216 0.950 . S
H1206 C1218 0.950 . S
H1207 C1219 0.950 . S
C1208 H1200 0.950 . S
C1208 C1209 1.386 . S
C1208 C1210 1.391 . S
C1209 C1208 1.386 . S
C1209 C1213 1.393 . S
C1210 H1202 0.950 . S
C1210 C1208 1.391 . S
C1210 C1211 1.400 . S
C1211 C1210 1.400 . S
C1211 C1212 1.398 . S
C1211 C1217 1.491 . S
C1212 H1203 0.950 . S
C1212 C1211 1.398 . S
C1212 C1213 1.391 . S
C1213 H1201 0.950 . S
C1213 C1209 1.393 . S
C1213 C1212 1.391 . S
C1214 H1204 0.950 . S
C1214 C1215 1.386 . S
C1214 C1216 1.391 . S
C1215 C1214 1.386 . S
C1215 C1219 1.393 . S
C1216 H1205 0.950 . S
C1216 C1214 1.391 . S
C1216 C1217 1.400 . S
C1217 C1211 1.491 . S
C1217 C1216 1.400 . S
C1217 C1218 1.398 . S
C1218 H1206 0.950 . S
C1218 C1217 1.398 . S
C1218 C1219 1.391 . S
C1219 H1207 0.950 . S
C1219 C1215 1.393 . S
C1219 C1218 1.391 . S
H1220 C1228 0.950 . S
H1221 C1233 0.950 . S
H1222 C1230 0.950 . S
H1223 C1232 0.950 . S
H1224 C1234 0.950 . S
H1225 C1236 0.950 . S
H1226 C1238 0.950 . S
H1227 C1239 0.950 . S
C1228 H1220 0.950 . S
C1228 C1229 1.386 . S
C1228 C1230 1.391 1_655 S
C1229 C1228 1.386 . S
C1229 C1233 1.393 1_645 S
C1230 H1222 0.950 . S
C1230 C1228 1.391 1_455 S
C1230 C1231 1.400 . S
C1231 C1230 1.400 . S
C1231 C1232 1.398 . S
C1231 C1237 1.491 . S
C1232 H1223 0.950 . S
C1232 C1231 1.398 . S
C1232 C1233 1.391 1_545 S
C1233 H1221 0.950 . S
C1233 C1229 1.393 1_465 S
C1233 C1232 1.391 1_565 S
C1234 H1224 0.950 . S
C1234 C1235 1.386 . S
C1234 C1236 1.391 . S
C1235 C1234 1.386 . S
C1235 C1239 1.393 . S
C1236 H1225 0.950 . S
C1236 C1234 1.391 . S
C1236 C1237 1.400 . S
C1237 C1231 1.491 . S
C1237 C1236 1.400 . S
C1237 C1238 1.398 . S
C1238 H1226 0.950 . S
C1238 C1237 1.398 . S
C1238 C1239 1.391 . S
C1239 H1227 0.950 . S
C1239 C1235 1.393 . S
C1239 C1238 1.391 . S
H1240 C1248 0.950 . S
H1241 C1253 0.950 . S
H1242 C1250 0.950 . S
H1243 C1252 0.950 . S
H1244 C1254 0.950 . S
H1245 C1256 0.950 . S
H1246 C1258 0.950 . S
H1247 C1259 0.950 . S
C1248 H1240 0.950 . S
C1248 C1249 1.386 . S
C1248 C1250 1.391 . S
C1249 C1248 1.386 . S
C1249 C1253 1.393 . S
C1250 H1242 0.950 . S
C1250 C1248 1.391 . S
C1250 C1251 1.400 . S
C1251 C1250 1.400 . S
C1251 C1252 1.398 . S
C1251 C1257 1.491 . S
C1252 H1243 0.950 . S
C1252 C1251 1.398 . S
C1252 C1253 1.391 . S
C1253 H1241 0.950 . S
C1253 C1249 1.393 . S
C1253 C1252 1.391 . S
C1254 H1244 0.950 . S
C1254 C1255 1.386 . S
C1254 C1256 1.391 . S
C1255 C1254 1.386 . S
C1255 C1259 1.393 . S
C1256 H1245 0.950 . S
C1256 C1254 1.391 . S
C1256 C1257 1.400 . S
C1257 C1251 1.491 . S
C1257 C1256 1.400 . S
C1257 C1258 1.398 . S
C1258 H1246 0.950 . S
C1258 C1257 1.398 . S
C1258 C1259 1.391 . S
C1259 H1247 0.950 . S
C1259 C1255 1.393 . S
C1259 C1258 1.391 . S
H1260 C1268 0.950 . S
H1261 C1273 0.950 . S
H1262 C1270 0.950 . S
H1263 C1272 0.950 . S
H1264 C1274 0.950 . S
H1265 C1276 0.950 . S
H1266 C1278 0.950 . S
H1267 C1279 0.950 . S
C1268 H1260 0.950 . S
C1268 C1269 1.386 . S
C1268 C1270 1.391 . S
C1269 C1268 1.386 . S
C1269 C1273 1.393 . S
C1270 H1262 0.950 . S
C1270 C1268 1.391 . S
C1270 C1271 1.400 . S
C1271 C1270 1.400 . S
C1271 C1272 1.398 . S
C1271 C1277 1.491 . S
C1272 H1263 0.950 . S
C1272 C1271 1.398 . S
C1272 C1273 1.391 . S
C1273 H1261 0.950 . S
C1273 C1269 1.393 . S
C1273 C1272 1.391 . S
C1274 H1264 0.950 . S
C1274 C1275 1.386 1_545 S
C1274 C1276 1.391 1_545 S
C1275 C1274 1.386 1_565 S
C1275 C1279 1.393 . S
C1276 H1265 0.950 . S
C1276 C1274 1.391 1_565 S
C1276 C1277 1.400 . S
C1277 C1271 1.491 . S
C1277 C1276 1.400 . S
C1277 C1278 1.398 . S
C1278 H1266 0.950 . S
C1278 C1277 1.398 . S
C1278 C1279 1.391 . S
C1279 H1267 0.950 . S
C1279 C1275 1.393 . S
C1279 C1278 1.391 . S
C329 C2 0.759 . S
C335 C241 0.759 . S
C349 C101 0.783 . S
C355 C22 0.783 . S
C369 C42 0.831 . S
C375 C281 0.831 . S
C389 C62 0.824 . S
C395 C141 0.824 . S
C409 C81 0.755 . S
C415 C162 0.755 . S
C429 C202 0.751 . S
C435 C121 0.751 . S
C449 C261 0.755 . S
C455 C182 0.755 . S
C469 C222 0.761 . S
C475 C301 0.761 . S
C489 C189 1.734 . S
C495 C1 1.705 . S
C509 C21 1.704 . S
C515 C209 1.734 . S
C529 C41 1.685 . S
C535 C229 1.725 . S
C549 C169 1.727 . S
C555 C61 1.687 . S
C569 C268 1.722 . S
C575 C82 1.689 . S
C589 C288 1.724 . S
C595 C102 1.695 . S
C609 C122 1.697 . S
C615 C308 1.725 . S
C629 C248 1.723 . S
C635 C142 1.693 . S
C649 C161 1.704 . S
C655 C29 1.729 . S
C669 C181 1.692 1_565 S
C675 C49 1.731 . S
C689 C201 1.696 . S
C695 C69 1.733 . S
C709 C9 1.732 . S
C715 C221 1.694 1_545 S
C729 C108 1.728 . S
C735 C242 1.688 . S
C749 C262 1.689 1_545 S
C755 C128 1.729 . S
C769 C148 1.724 . S
C775 C282 1.685 . S
C789 C302 1.705 1_565 S
C795 C88 1.732 . S
C809 C18 2.502 . S
C815 C218 2.495 . S
C829 C38 2.500 . S
C835 C238 2.498 . S
C849 C178 2.493 . S
C855 C58 2.501 . S
C869 C78 2.493 . S
C875 C198 2.502 . S
C889 C99 2.500 . S
C895 C299 2.498 . S
C909 C119 2.498 . S
C915 C319 2.500 . S
C929 C259 2.499 . S
C935 C139 2.495 . S
C949 C159 2.501 . S
C955 C279 2.494 . S
C969 C8 1.337 . S
C975 C158 1.515 . S
C989 C258 1.514 . S
C995 C28 1.336 . S
C1009 C48 1.341 . S
C1015 C118 1.517 . S
C1029 C68 1.376 . S
C1035 C298 1.530 . S
C1049 C89 1.362 . S
C1055 C79 1.525 . S
C1069 C179 1.514 . S
C1075 C109 1.338 . S
C1089 C129 1.382 . S
C1095 C39 1.531 . S
C1109 C219 1.524 . S
C1115 C149 1.365 . S
C1129 C168 1.345 . S
C1135 C318 1.519 . S
C1149 C98 1.531 . S
C1155 C188 1.381 . S
C1169 C278 1.515 . S
C1175 C208 1.339 . S
C1189 C228 1.347 . S
C1195 C138 1.519 . S
C1209 C249 1.381 . S
C1215 C239 1.531 . S
C1229 C269 1.377 . S
C1235 C19 1.530 . S
C1249 C199 1.530 . S
C1255 C289 1.381 . S
C1269 C59 1.531 . S
C1275 C309 1.380 . S
