# Generated by pormake.
# Topology wiv, (6)-cn, num edge types: 1
# Building blocks:
#     Node 0, Type 0, BuildingBlock: HISSIN_clean_sbu_0, # of connection points: 6
#     Node 1, Type 0, BuildingBlock: HISSIN_clean_sbu_0, # of connection points: 6
#     Node 2, Type 0, BuildingBlock: HISSIN_clean_sbu_0, # of connection points: 6
#     Node 3, Type 0, BuildingBlock: HISSIN_clean_sbu_0, # of connection points: 6
#     Node 4, Type 0, BuildingBlock: HISSIN_clean_sbu_0, # of connection points: 6
#     Node 5, Type 0, BuildingBlock: HISSIN_clean_sbu_0, # of connection points: 6
#     Node 6, Type 0, BuildingBlock: HISSIN_clean_sbu_0, # of connection points: 6
#     Node 7, Type 0, BuildingBlock: HISSIN_clean_sbu_0, # of connection points: 6
#     Node 8, Type 0, BuildingBlock: HISSIN_clean_sbu_0, # of connection points: 6
#     Node 9, Type 0, BuildingBlock: HISSIN_clean_sbu_0, # of connection points: 6
#     Node 10, Type 0, BuildingBlock: HISSIN_clean_sbu_0, # of connection points: 6
#     Node 11, Type 0, BuildingBlock: HISSIN_clean_sbu_0, # of connection points: 6
#     Node 12, Type 0, BuildingBlock: HISSIN_clean_sbu_0, # of connection points: 6
#     Node 13, Type 0, BuildingBlock: HISSIN_clean_sbu_0, # of connection points: 6
#     Node 14, Type 0, BuildingBlock: HISSIN_clean_sbu_0, # of connection points: 6
#     Node 15, Type 0, BuildingBlock: HISSIN_clean_sbu_0, # of connection points: 6
#     Edge 16, Type (0, 0), BuildingBlock: AJUNOK_clean_linker_0, # of connection points: 2
#     Edge 17, Type (0, 0), BuildingBlock: AJUNOK_clean_linker_0, # of connection points: 2
#     Edge 18, Type (0, 0), BuildingBlock: AJUNOK_clean_linker_0, # of connection points: 2
#     Edge 19, Type (0, 0), BuildingBlock: AJUNOK_clean_linker_0, # of connection points: 2
#     Edge 20, Type (0, 0), BuildingBlock: AJUNOK_clean_linker_0, # of connection points: 2
#     Edge 21, Type (0, 0), BuildingBlock: AJUNOK_clean_linker_0, # of connection points: 2
#     Edge 22, Type (0, 0), BuildingBlock: AJUNOK_clean_linker_0, # of connection points: 2
#     Edge 23, Type (0, 0), BuildingBlock: AJUNOK_clean_linker_0, # of connection points: 2
#     Edge 24, Type (0, 0), BuildingBlock: AJUNOK_clean_linker_0, # of connection points: 2
#     Edge 25, Type (0, 0), BuildingBlock: AJUNOK_clean_linker_0, # of connection points: 2
#     Edge 26, Type (0, 0), BuildingBlock: AJUNOK_clean_linker_0, # of connection points: 2
#     Edge 27, Type (0, 0), BuildingBlock: AJUNOK_clean_linker_0, # of connection points: 2
#     Edge 28, Type (0, 0), BuildingBlock: AJUNOK_clean_linker_0, # of connection points: 2
#     Edge 29, Type (0, 0), BuildingBlock: AJUNOK_clean_linker_0, # of connection points: 2
#     Edge 30, Type (0, 0), BuildingBlock: AJUNOK_clean_linker_0, # of connection points: 2
#     Edge 31, Type (0, 0), BuildingBlock: AJUNOK_clean_linker_0, # of connection points: 2
#     Edge 32, Type (0, 0), BuildingBlock: AJUNOK_clean_linker_0, # of connection points: 2
#     Edge 33, Type (0, 0), BuildingBlock: AJUNOK_clean_linker_0, # of connection points: 2
#     Edge 34, Type (0, 0), BuildingBlock: AJUNOK_clean_linker_0, # of connection points: 2
#     Edge 35, Type (0, 0), BuildingBlock: AJUNOK_clean_linker_0, # of connection points: 2
#     Edge 36, Type (0, 0), BuildingBlock: AJUNOK_clean_linker_0, # of connection points: 2
#     Edge 37, Type (0, 0), BuildingBlock: AJUNOK_clean_linker_0, # of connection points: 2
#     Edge 38, Type (0, 0), BuildingBlock: AJUNOK_clean_linker_0, # of connection points: 2
#     Edge 39, Type (0, 0), BuildingBlock: AJUNOK_clean_linker_0, # of connection points: 2
#     Edge 40, Type (0, 0), BuildingBlock: AJUNOK_clean_linker_0, # of connection points: 2
#     Edge 41, Type (0, 0), BuildingBlock: AJUNOK_clean_linker_0, # of connection points: 2
#     Edge 42, Type (0, 0), BuildingBlock: AJUNOK_clean_linker_0, # of connection points: 2
#     Edge 43, Type (0, 0), BuildingBlock: AJUNOK_clean_linker_0, # of connection points: 2
#     Edge 44, Type (0, 0), BuildingBlock: AJUNOK_clean_linker_0, # of connection points: 2
#     Edge 45, Type (0, 0), BuildingBlock: AJUNOK_clean_linker_0, # of connection points: 2
#     Edge 46, Type (0, 0), BuildingBlock: AJUNOK_clean_linker_0, # of connection points: 2
#     Edge 47, Type (0, 0), BuildingBlock: AJUNOK_clean_linker_0, # of connection points: 2
#     Edge 48, Type (0, 0), BuildingBlock: AJUNOK_clean_linker_0, # of connection points: 2
#     Edge 49, Type (0, 0), BuildingBlock: AJUNOK_clean_linker_0, # of connection points: 2
#     Edge 50, Type (0, 0), BuildingBlock: AJUNOK_clean_linker_0, # of connection points: 2
#     Edge 51, Type (0, 0), BuildingBlock: AJUNOK_clean_linker_0, # of connection points: 2
#     Edge 52, Type (0, 0), BuildingBlock: AJUNOK_clean_linker_0, # of connection points: 2
#     Edge 53, Type (0, 0), BuildingBlock: AJUNOK_clean_linker_0, # of connection points: 2
#     Edge 54, Type (0, 0), BuildingBlock: AJUNOK_clean_linker_0, # of connection points: 2
#     Edge 55, Type (0, 0), BuildingBlock: AJUNOK_clean_linker_0, # of connection points: 2
#     Edge 56, Type (0, 0), BuildingBlock: AJUNOK_clean_linker_0, # of connection points: 2
#     Edge 57, Type (0, 0), BuildingBlock: AJUNOK_clean_linker_0, # of connection points: 2
#     Edge 58, Type (0, 0), BuildingBlock: AJUNOK_clean_linker_0, # of connection points: 2
#     Edge 59, Type (0, 0), BuildingBlock: AJUNOK_clean_linker_0, # of connection points: 2
#     Edge 60, Type (0, 0), BuildingBlock: AJUNOK_clean_linker_0, # of connection points: 2
#     Edge 61, Type (0, 0), BuildingBlock: AJUNOK_clean_linker_0, # of connection points: 2
#     Edge 62, Type (0, 0), BuildingBlock: AJUNOK_clean_linker_0, # of connection points: 2
#     Edge 63, Type (0, 0), BuildingBlock: AJUNOK_clean_linker_0, # of connection points: 2
# Relax obj value: 0.172
# Max RMSD: 0.221
# Mean RMSD: 0.221
data_MOF--net-wiv--node1-HISSIN_clean_sbu_0--edge1-AJUNOK_clean_linker_0
_symmetry_space_group_name_H-M    P1
_symmetry_Int_Tables_number       1
_symmetry_cell_setting            triclinic
loop_
_symmetry_equiv_pos_as_xyz
'x, y, z'
_cell_length_a     35.63371
_cell_length_b     35.697221
_cell_length_c     20.067684
_cell_angle_alpha  89.763744
_cell_angle_beta   89.881371
_cell_angle_gamma 90.049857
loop_
_atom_site_label
_atom_site_type_symbol
_atom_site_fract_x
_atom_site_fract_y
_atom_site_fract_z
_atom_type_partial_charge
Eu0 Eu 0.32553 0.08918 0.19601 0.0
Eu1 Eu 0.38948 0.09856 0.07852 0.0
C2 C 0.37734 0.02362 0.15852 0.0
C3 C 0.29446 0.08127 0.3718 0.0
C4 C 0.30584 0.04958 0.40838 0.0
C5 C 0.31192 0.12038 0.46625 0.0
C6 C 0.321 0.05332 0.47222 0.0
C7 C 0.29707 0.11669 0.40201 0.0
C8 C 0.325 0.08884 0.50145 0.0
C9 C 0.28397 0.07738 0.3005 0.0
O10 O 0.3376 0.07346 1.03413 0.0
O11 O 0.29216 0.09841 0.10044 0.0
C12 C 0.30304 0.08485 1.04247 0.0
O13 O 0.34411 0.14896 0.2004 0.0
O14 O 0.42444 0.07119 1.00358 0.0
O15 O 0.42082 0.13159 1.00515 0.0
O16 O 0.36045 0.15475 0.09071 0.0
C17 C 0.35205 0.16989 0.14861 0.0
O18 O 0.38148 0.09077 0.24919 0.0
O19 O 0.4207 0.1175 0.17014 0.0
O20 O 0.4036 0.04714 0.13977 0.0
O21 O 0.28169 0.10804 0.26481 0.0
O22 O 0.30107 0.0506 0.26845 0.0
O23 O 0.34238 0.03406 0.15226 0.0
C24 C 0.42036 0.10195 0.89853 0.0
C25 C 0.40764 0.13465 0.86623 0.0
C26 C 0.40807 0.067 0.79654 0.0
C27 C 0.39472 0.13337 0.80034 0.0
C28 C 0.42114 0.06829 0.86229 0.0
C29 C 0.3943 0.09942 0.76503 0.0
C30 C 0.43048 0.10219 0.97059 0.0
C31 C 0.41294 0.10762 0.23206 0.0
H32 H 0.30422 0.02189 0.38672 0.0
H33 H 0.31339 0.14801 0.48816 0.0
H34 H 0.33067 0.0284 0.4979 0.0
H35 H 0.28828 0.14171 0.37565 0.0
H36 H 0.40671 0.16112 0.89234 0.0
H37 H 0.40834 0.04048 0.77051 0.0
H38 H 0.38386 0.15874 0.77778 0.0
H39 H 0.431 0.04263 0.8853 0.0
Eu40 Eu 0.10001 0.61176 1.01984 0.0
Eu41 Eu 0.08896 0.67719 0.90132 0.0
C42 C 0.17228 0.64786 0.94097 0.0
C43 C 0.09582 0.57824 0.19811 0.0
C44 C 0.12615 0.57767 0.24277 0.0
C45 C 0.05624 0.60293 0.28705 0.0
C46 C 0.12188 0.59075 0.30814 0.0
C47 C 0.06054 0.5901 0.22164 0.0
C48 C 0.08717 0.60483 0.33043 0.0
C49 C 0.10193 0.56942 0.12645 0.0
O50 O 0.09377 0.6214 0.84856 0.0
O51 O 0.1169 0.58027 0.92782 0.0
C52 C 0.10869 0.58902 0.86563 0.0
O53 O 0.0472 0.60005 0.96157 0.0
O54 O 0.10302 0.72126 0.82905 0.0
O55 O 0.0472 0.69735 0.83032 0.0
O56 O 0.03554 0.66131 0.95318 0.0
C57 C 0.02403 0.62692 0.9453 0.0
O58 O 0.08295 0.6655 0.0693 0.0
O59 O 0.09932 0.71181 0.99457 0.0
O60 O 0.15078 0.66566 0.89825 0.0
O61 O 0.07288 0.5717 0.08711 0.0
O62 O 0.13184 0.58397 0.09904 0.0
O63 O 0.1592 0.62977 0.99362 0.0
C64 C 0.07488 0.70529 0.72461 0.0
C65 C 0.04229 0.7025 0.68557 0.0
C66 C 0.11076 0.67868 0.63253 0.0
C67 C 0.04384 0.68768 0.62101 0.0
C68 C 0.1092 0.69337 0.69714 0.0
C69 C 0.07808 0.67535 0.59377 0.0
C70 C 0.07187 0.71624 0.79585 0.0
C71 C 0.09251 0.70022 0.05603 0.0
H72 H 0.1536 0.56846 0.22633 0.0
H73 H 0.02871 0.61201 0.30322 0.0
H74 H 0.14631 0.59159 0.34012 0.0
H75 H 0.03634 0.59048 0.18909 0.0
H76 H 0.01537 0.7109 0.70574 0.0
H77 H 0.13761 0.66961 0.61303 0.0
H78 H 0.01799 0.68485 0.59321 0.0
H79 H 0.13481 0.69458 0.72602 0.0
Eu80 Eu 0.68157 0.91158 0.2026 0.0
Eu81 Eu 0.61763 0.90726 0.08392 0.0
C82 C 0.63438 0.98162 0.16585 0.0
C83 C 0.71039 0.91259 0.37815 0.0
C84 C 0.70943 0.94398 0.42006 0.0
C85 C 0.67713 0.87689 0.46358 0.0
C86 C 0.69345 0.94161 0.4837 0.0
C87 C 0.69412 0.87895 0.40081 0.0
C88 C 0.67683 0.90807 0.50629 0.0
C89 C 0.7232 0.9167 0.30814 0.0
O90 O 0.67152 0.92647 1.03667 0.0
O91 O 0.71545 0.90199 0.10799 0.0
C92 C 0.70545 0.91398 1.04842 0.0
O93 O 0.65917 0.85306 0.20531 0.0
O94 O 0.58204 0.9365 1.01229 0.0
O95 O 0.58507 0.87607 1.00998 0.0
O96 O 0.64196 0.8487 0.09615 0.0
C97 C 0.6502 0.83277 0.15364 0.0
O98 O 0.62529 0.91411 0.25477 0.0
O99 O 0.58548 0.88941 0.17552 0.0
O100 O 0.60714 0.96014 0.14407 0.0
O101 O 0.72241 0.88676 0.27094 0.0
O102 O 0.71006 0.94583 0.2768 0.0
O103 O 0.66884 0.96904 0.16311 0.0
C104 C 0.58432 0.90759 0.90581 0.0
C105 C 0.57294 0.8784 0.86357 0.0
C106 C 0.61789 0.93606 0.8125 0.0
C107 C 0.58453 0.87769 0.79672 0.0
C108 C 0.60663 0.93661 0.87926 0.0
C109 C 0.60756 0.9063 0.77077 0.0
C110 C 0.57506 0.90632 0.97798 0.0
C111 C 0.593 0.89918 0.23734 0.0
H112 H 0.72065 0.9706 0.4032 0.0
H113 H 0.66319 0.85107 0.47753 0.0
H114 H 0.69392 0.96623 0.51502 0.0
H115 H 0.69311 0.8545 0.36909 0.0
H116 H 0.55575 0.85572 0.88269 0.0
H117 H 0.63588 0.9583 0.79408 0.0
H118 H 0.5758 0.85462 0.76548 0.0
H119 H 0.61625 0.95939 0.91037 0.0
Eu120 Eu 0.90691 0.39318 1.02467 0.0
Eu121 Eu 0.91598 0.32749 0.90733 0.0
C122 C 0.83309 0.35355 0.95692 0.0
C123 C 0.90334 0.4213 0.2019 0.0
C124 C 0.89318 0.38398 0.21437 0.0
C125 C 0.91253 0.42991 0.32107 0.0
C126 C 0.89381 0.36932 0.27887 0.0
C127 C 0.91284 0.44435 0.25575 0.0
C128 C 0.90326 0.39204 0.33339 0.0
C129 C 0.90688 0.43424 0.13213 0.0
O130 O 0.90009 0.3813 0.85369 0.0
O131 O 0.89167 0.42687 0.93444 0.0
C132 C 0.89094 0.41555 0.8721 0.0
O133 O 0.95708 0.40656 0.95907 0.0
O134 O 0.90377 0.28125 0.83926 0.0
O135 O 0.95639 0.3114 0.83113 0.0
O136 O 0.97069 0.34572 0.95231 0.0
C137 C 0.98089 0.38038 0.94248 0.0
O138 O 0.91974 0.33826 0.07601 0.0
O139 O 0.91051 0.29118 0.99937 0.0
O140 O 0.85357 0.33378 0.9154 0.0
O141 O 0.93749 0.42342 0.10194 0.0
O142 O 0.87726 0.4294 0.09487 0.0
O143 O 0.84717 0.37533 1.0036 0.0
C144 C 0.92651 0.29726 0.73071 0.0
C145 C 0.95711 0.29895 0.6866 0.0
C146 C 0.88629 0.32153 0.64269 0.0
C147 C 0.95248 0.31233 0.62144 0.0
C148 C 0.89098 0.30849 0.70795 0.0
C149 C 0.91706 0.32425 0.59886 0.0
C150 C 0.93302 0.28871 0.80194 0.0
C151 C 0.91491 0.30286 0.06099 0.0
H152 H 0.88551 0.36584 0.17372 0.0
H153 H 0.91989 0.44829 0.36182 0.0
H154 H 0.88786 0.33982 0.28551 0.0
H155 H 0.92099 0.47321 0.24725 0.0
H156 H 0.98487 0.29082 0.70316 0.0
H157 H 0.85871 0.33074 0.62751 0.0
H158 H 0.97671 0.31364 0.58886 0.0
H159 H 0.86693 0.30823 0.74105 0.0
Eu160 Eu 0.32651 0.4127 0.15262 0.0
Eu161 Eu 0.39104 0.40186 0.26878 0.0
C162 C 0.37649 0.4786 0.19383 0.0
C163 C 0.29558 0.41751 0.97749 0.0
C164 C 0.29657 0.44755 0.93208 0.0
C165 C 0.32305 0.37751 0.89197 0.0
C166 C 0.31029 0.44261 0.86718 0.0
C167 C 0.309 0.3824 0.95661 0.0
C168 C 0.3238 0.40751 0.84619 0.0
C169 C 0.28515 0.42424 1.04819 0.0
O170 O 0.33884 0.42476 0.31613 0.0
O171 O 0.29357 0.40075 0.24873 0.0
C172 C 0.30454 0.41266 0.30789 0.0
O173 O 0.34676 0.35403 0.14285 0.0
O174 O 0.42333 0.42759 0.34908 0.0
O175 O 0.4241 0.36747 0.33739 0.0
O176 O 0.36313 0.3452 0.2515 0.0
C177 C 0.35469 0.33161 0.19236 0.0
O178 O 0.3825 0.41245 0.09859 0.0
O179 O 0.424 0.38787 0.17601 0.0
O180 O 0.40346 0.4556 0.21161 0.0
O181 O 0.28094 0.39489 0.08685 0.0
O182 O 0.30409 0.45079 0.07728 0.0
O183 O 0.34188 0.46704 0.2004 0.0
C184 C 0.41799 0.39139 0.44666 0.0
C185 C 0.38098 0.37981 0.4594 0.0
C186 C 0.42625 0.40214 0.56552 0.0
C187 C 0.36654 0.37988 0.52427 0.0
C188 C 0.44064 0.40226 0.50028 0.0
C189 C 0.3888 0.39137 0.57837 0.0
C190 C 0.43118 0.39551 0.37705 0.0
C191 C 0.41524 0.39798 0.11473 0.0
H192 H 0.28708 0.47502 0.94715 0.0
H193 H 0.33435 0.35041 0.87864 0.0
H194 H 0.31032 0.46633 0.83337 0.0
H195 H 0.30964 0.35885 0.99073 0.0
H196 H 0.3627 0.37193 0.41871 0.0
H197 H 0.44434 0.41094 0.60585 0.0
H198 H 0.33731 0.3726 0.5313 0.0
H199 H 0.46915 0.41166 0.49153 0.0
Eu200 Eu 0.40895 0.6141 0.83251 0.0
Eu201 Eu 0.40882 0.67924 0.94993 0.0
C202 C 0.3324 0.64693 0.89247 0.0
C203 C 0.4099 0.583 0.65344 0.0
C204 C 0.37801 0.60065 0.62652 0.0
C205 C 0.4417 0.59161 0.54661 0.0
C206 C 0.37812 0.61388 0.56069 0.0
C207 C 0.44148 0.57811 0.61232 0.0
C208 C 0.41013 0.61005 0.52004 0.0
C209 C 0.41194 0.57286 0.72536 0.0
O210 O 0.41353 0.62387 1.00441 0.0
O211 O 0.39269 0.58159 0.92539 0.0
C212 C 0.4012 0.59053 0.98734 0.0
O213 O 0.46071 0.60537 0.89557 0.0
O214 O 0.38153 0.71665 1.02156 0.0
O215 O 0.4419 0.71292 1.01881 0.0
O216 O 0.46724 0.66743 0.91377 0.0
C217 C 0.48084 0.63345 0.91772 0.0
O218 O 0.43008 0.66827 0.78957 0.0
O219 O 0.39867 0.71089 0.85261 0.0
O220 O 0.3505 0.6561 0.9466 0.0
O221 O 0.44164 0.58476 0.75671 0.0
O222 O 0.38153 0.57685 0.76115 0.0
O223 O 0.35004 0.63818 0.83703 0.0
C224 C 0.41329 0.71152 0.12574 0.0
C225 C 0.44723 0.70142 0.1569 0.0
C226 C 0.37987 0.69296 0.22699 0.0
C227 C 0.44733 0.68621 0.22134 0.0
C228 C 0.37967 0.70766 0.16212 0.0
C229 C 0.41359 0.68121 0.25657 0.0
C230 C 0.4127 0.7225 0.054 0.0
C231 C 0.41423 0.7011 0.79552 0.0
H232 H 0.35321 0.60513 0.65672 0.0
H233 H 0.46725 0.58901 0.51773 0.0
H234 H 0.35321 0.62766 0.54188 0.0
H235 H 0.4666 0.56499 0.63181 0.0
H236 H 0.47373 0.70421 0.1308 0.0
H237 H 0.35349 0.68961 0.25328 0.0
H238 H 0.47378 0.67791 0.24343 0.0
H239 H 0.35305 0.71532 0.13998 0.0
Eu240 Eu 0.68185 0.59006 0.1555 0.0
Eu241 Eu 0.61673 0.59793 0.27361 0.0
C242 C 0.6348 0.52246 0.19766 0.0
C243 C 0.71271 0.58058 0.97909 0.0
C244 C 0.70746 0.54761 0.94205 0.0
C245 C 0.69013 0.61664 0.8837 0.0
C246 C 0.69326 0.54908 0.87705 0.0
C247 C 0.70412 0.61517 0.94888 0.0
C248 C 0.68419 0.58361 0.84713 0.0
C249 C 0.72323 0.57807 1.05069 0.0
O250 O 0.67022 0.58131 0.32412 0.0
O251 O 0.7154 0.60138 0.25007 0.0
C252 C 0.70451 0.59223 0.31103 0.0
O253 O 0.66174 0.64929 0.14839 0.0
O254 O 0.58054 0.56873 0.3448 0.0
O255 O 0.58439 0.62907 0.34795 0.0
O256 O 0.63979 0.65658 0.25522 0.0
C257 C 0.65005 0.67069 0.19704 0.0
O258 O 0.62545 0.58835 0.10368 0.0
O259 O 0.58516 0.61457 0.18109 0.0
O260 O 0.60703 0.54438 0.21532 0.0
O261 O 0.72483 0.60922 0.08474 0.0
O262 O 0.70659 0.55143 0.08408 0.0
O263 O 0.66877 0.53538 0.20497 0.0
C264 C 0.58534 0.59645 0.45199 0.0
C265 C 0.59327 0.62908 0.48857 0.0
C266 C 0.60552 0.55908 0.54762 0.0
C267 C 0.60791 0.6267 0.55325 0.0
C268 C 0.59075 0.56143 0.48312 0.0
C269 C 0.61508 0.59166 0.58283 0.0
C270 C 0.57465 0.59874 0.38026 0.0
C271 C 0.59325 0.60397 0.11988 0.0
H272 H 0.71344 0.5205 0.96407 0.0
H273 H 0.68369 0.6437 0.86201 0.0
H274 H 0.68835 0.52304 0.85099 0.0
H275 H 0.70754 0.64114 0.97589 0.0
H276 H 0.58921 0.65652 0.46651 0.0
H277 H 0.60983 0.53169 0.56975 0.0
H278 H 0.6148 0.6523 0.57934 0.0
H279 H 0.58454 0.53567 0.457 0.0
Eu280 Eu 0.60033 0.39469 0.82989 0.0
Eu281 Eu 0.58972 0.32775 0.94698 0.0
C282 C 0.67331 0.35629 0.90297 0.0
C283 C 0.59442 0.42646 0.65227 0.0
C284 C 0.62495 0.42699 0.60771 0.0
C285 C 0.55608 0.39833 0.56492 0.0
C286 C 0.62132 0.41251 0.54311 0.0
C287 C 0.5597 0.41266 0.62945 0.0
C288 C 0.58706 0.39715 0.52145 0.0
C289 C 0.59974 0.43702 0.72347 0.0
O290 O 0.5933 0.38367 0.99989 0.0
O291 O 0.61671 0.42608 0.92243 0.0
C292 C 0.60789 0.41638 0.98389 0.0
O293 O 0.54626 0.4034 0.88748 0.0
O294 O 0.60476 0.28424 1.01959 0.0
O295 O 0.54878 0.3073 1.01957 0.0
O296 O 0.53686 0.34186 0.89305 0.0
C297 C 0.52387 0.37551 0.90232 0.0
O298 O 0.59076 0.34042 0.77569 0.0
O299 O 0.59575 0.29255 0.8532 0.0
O300 O 0.65207 0.33527 0.94155 0.0
O301 O 0.57081 0.43294 0.76289 0.0
O302 O 0.63061 0.42541 0.7517 0.0
O303 O 0.66003 0.37941 0.85726 0.0
C304 C 0.57663 0.2992 0.1246 0.0
C305 C 0.54528 0.29596 0.16684 0.0
C306 C 0.61025 0.33061 0.21429 0.0
C307 C 0.54618 0.31042 0.23179 0.0
C308 C 0.60916 0.31664 0.14917 0.0
C309 C 0.57866 0.32816 0.25641 0.0
C310 C 0.57361 0.28848 0.05331 0.0
C311 C 0.59367 0.30475 0.79093 0.0
H312 H 0.652 0.43754 0.62355 0.0
H313 H 0.52902 0.38774 0.54934 0.0
H314 H 0.64571 0.4122 0.51082 0.0
H315 H 0.5354 0.41199 0.66192 0.0
H316 H 0.51962 0.28327 0.14882 0.0
H317 H 0.63585 0.34374 0.23146 0.0
H318 H 0.52095 0.30876 0.2618 0.0
H319 H 0.63366 0.32013 0.1177 0.0
Eu320 Eu 0.82217 0.59534 0.70104 0.0
Eu321 Eu 0.88758 0.60191 0.58474 0.0
C322 C 0.8709 0.52766 0.66507 0.0
C323 C 0.79091 0.58737 0.87665 0.0
C324 C 0.80028 0.55546 0.91443 0.0
C325 C 0.81014 0.62637 0.97017 0.0
C326 C 0.81522 0.55895 0.97847 0.0
C327 C 0.79549 0.6229 0.90569 0.0
C328 C 0.82105 0.59446 1.00673 0.0
C329 C 0.78065 0.58311 0.80531 0.0
O330 O 0.83456 0.57929 0.54024 0.0
O331 O 0.78977 0.60652 0.60495 0.0
C332 C 0.80056 0.59243 0.5473 0.0
O333 O 0.84166 0.65433 0.70702 0.0
O334 O 0.91981 0.57205 0.50904 0.0
O335 O 0.92084 0.63257 0.51054 0.0
O336 O 0.86472 0.66094 0.60088 0.0
C337 C 0.854 0.67541 0.65832 0.0
O338 O 0.87767 0.60124 0.75589 0.0
O339 O 0.92276 0.61378 0.67509 0.0
O340 O 0.89828 0.55045 0.64868 0.0
O341 O 0.77755 0.61352 0.76902 0.0
O342 O 0.79866 0.55665 0.77402 0.0
O343 O 0.83659 0.53943 0.65776 0.0
C344 C 0.91732 0.60291 0.40395 0.0
C345 C 0.90655 0.63635 0.37175 0.0
C346 C 0.90205 0.56878 0.3023 0.0
C347 C 0.89316 0.63587 0.30608 0.0
C348 C 0.91558 0.56923 0.3678 0.0
C349 C 0.89029 0.60201 0.27088 0.0
C350 C 0.92798 0.6025 0.47582 0.0
C351 C 0.91216 0.61021 0.73772 0.0
H352 H 0.79709 0.52768 0.89362 0.0
H353 H 0.81318 0.65409 0.99118 0.0
H354 H 0.82323 0.53377 1.00513 0.0
H355 H 0.78848 0.64811 0.87823 0.0
H356 H 0.90755 0.66284 0.39779 0.0
H357 H 0.90039 0.54228 0.27636 0.0
H358 H 0.8839 0.66189 0.28359 0.0
H359 H 0.92384 0.54298 0.39071 0.0
Eu360 Eu 0.59575 0.1195 0.51968 0.0
Eu361 Eu 0.59641 0.18379 0.40276 0.0
C362 C 0.67188 0.14596 0.45009 0.0
C363 C 0.59665 0.09086 0.69882 0.0
C364 C 0.62108 0.12003 0.71714 0.0
C365 C 0.57204 0.08987 0.81219 0.0
C366 C 0.62104 0.13388 0.78228 0.0
C367 C 0.57234 0.07573 0.74707 0.0
C368 C 0.59616 0.11935 0.83026 0.0
C369 C 0.59368 0.07908 0.62833 0.0
O370 O 0.58968 0.12838 0.34847 0.0
O371 O 0.60972 0.08583 0.42801 0.0
C372 C 0.60145 0.09471 0.36584 0.0
O373 O 0.54301 0.11167 0.45829 0.0
O374 O 0.62512 0.22016 0.33024 0.0
O375 O 0.5646 0.21856 0.33398 0.0
O376 O 0.53779 0.17372 0.43932 0.0
C377 C 0.52335 0.14013 0.43575 0.0
O378 O 0.57567 0.17378 0.56237 0.0
O379 O 0.60876 0.21529 0.49967 0.0
O380 O 0.6521 0.15579 0.39839 0.0
O381 O 0.56367 0.09058 0.5974 0.0
O382 O 0.62374 0.0828 0.59152 0.0
O383 O 0.65576 0.14096 0.5086 0.0
C384 C 0.59282 0.21452 0.22755 0.0
C385 C 0.56492 0.1894 0.20606 0.0
C386 C 0.62166 0.21077 0.11753 0.0
C387 C 0.56536 0.17521 0.1414 0.0
C388 C 0.62138 0.22481 0.18275 0.0
C389 C 0.59347 0.18597 0.09596 0.0
C390 C 0.59401 0.22676 0.29808 0.0
C391 C 0.5923 0.20622 0.55655 0.0
H392 H 0.63955 0.13286 0.68066 0.0
H393 H 0.55276 0.07797 0.84833 0.0
H394 H 0.6396 0.15688 0.79458 0.0
H395 H 0.55295 0.05357 0.73396 0.0
H396 H 0.5431 0.17976 0.23965 0.0
H397 H 0.64383 0.21948 0.08387 0.0
H398 H 0.54409 0.15502 0.1276 0.0
H399 H 0.64362 0.24351 0.19834 0.0
Eu400 Eu 0.18564 0.40245 0.70005 0.0
Eu401 Eu 0.12015 0.40251 0.58221 0.0
C402 C 0.1402 0.47488 0.66696 0.0
C403 C 0.21836 0.40409 0.87536 0.0
C404 C 0.20726 0.43705 0.90836 0.0
C405 C 0.20161 0.36847 0.97518 0.0
C406 C 0.19295 0.43565 0.97331 0.0
C407 C 0.21603 0.36986 0.91016 0.0
C408 C 0.18918 0.40126 1.00698 0.0
C409 C 0.22931 0.4052 0.80366 0.0
O410 O 0.17453 0.41937 0.53439 0.0
O411 O 0.21763 0.39162 0.60331 0.0
C412 C 0.20772 0.40489 0.5444 0.0
O413 O 0.15911 0.346 0.70331 0.0
O414 O 0.0907 0.43455 0.50568 0.0
O415 O 0.08304 0.3745 0.51118 0.0
O416 O 0.14073 0.34251 0.59462 0.0
C417 C 0.14854 0.32628 0.65205 0.0
O418 O 0.13028 0.40497 0.75567 0.0
O419 O 0.08575 0.39145 0.67495 0.0
O420 O 0.11219 0.45522 0.64321 0.0
O421 O 0.22421 0.37462 0.76929 0.0
O422 O 0.21906 0.43485 0.77029 0.0
O423 O 0.17418 0.46106 0.66518 0.0
C424 C 0.0905 0.40215 0.40303 0.0
C425 C 0.10278 0.36816 0.37503 0.0
C426 C 0.10692 0.43385 0.29892 0.0
C427 C 0.11726 0.36716 0.31004 0.0
C428 C 0.09213 0.43482 0.36363 0.0
C429 C 0.11993 0.40007 0.27159 0.0
C430 C 0.07935 0.40462 0.47448 0.0
C431 C 0.09569 0.39669 0.73764 0.0
H432 H 0.20913 0.46403 0.88375 0.0
H433 H 0.19997 0.34167 1.00049 0.0
H434 H 0.18387 0.46144 0.99657 0.0
H435 H 0.2247 0.34399 0.88669 0.0
H436 H 0.1022 0.34245 0.40384 0.0
H437 H 0.10841 0.45961 0.2703 0.0
H438 H 0.12745 0.34079 0.29055 0.0
H439 H 0.08289 0.46144 0.38355 0.0
Eu440 Eu 0.40574 0.89078 0.52047 0.0
Eu441 Eu 0.40472 0.82246 0.4062 0.0
C442 C 0.32846 0.85725 0.46067 0.0
C443 C 0.40937 0.92062 0.69912 0.0
C444 C 0.37599 0.90897 0.73071 0.0
C445 C 0.4439 0.90316 0.79958 0.0
C446 C 0.37668 0.89406 0.79542 0.0
C447 C 0.4432 0.91831 0.73504 0.0
C448 C 0.41075 0.89021 0.83001 0.0
C449 C 0.40981 0.93179 0.62744 0.0
O450 O 0.39823 0.87762 0.35127 0.0
O451 O 0.40247 0.9259 0.42805 0.0
C452 C 0.39896 0.91336 0.36687 0.0
O453 O 0.45969 0.89563 0.46156 0.0
O454 O 0.37519 0.78939 0.33119 0.0
O455 O 0.43564 0.78775 0.3352 0.0
O456 O 0.46397 0.83394 0.43667 0.0
C457 C 0.47828 0.86762 0.43554 0.0
O458 O 0.4078 0.83556 0.5752 0.0
O459 O 0.40707 0.78704 0.4995 0.0
O460 O 0.3464 0.82612 0.44734 0.0
O461 O 0.43922 0.92116 0.59347 0.0
O462 O 0.37878 0.9273 0.59365 0.0
O463 O 0.34591 0.88724 0.4827 0.0
C464 C 0.40774 0.79243 0.22759 0.0
C465 C 0.44234 0.80008 0.19631 0.0
C466 C 0.3759 0.81201 0.12566 0.0
C467 C 0.44363 0.81422 0.13104 0.0
C468 C 0.37458 0.79811 0.19098 0.0
C469 C 0.41039 0.8207 0.09506 0.0
C470 C 0.40597 0.78114 0.29916 0.0
C471 C 0.40788 0.79971 0.5611 0.0
H472 H 0.34938 0.91035 0.70485 0.0
H473 H 0.47047 0.90132 0.82552 0.0
H474 H 0.35067 0.88444 0.81768 0.0
H475 H 0.46938 0.92727 0.71251 0.0
H476 H 0.46849 0.79603 0.22277 0.0
H477 H 0.34979 0.81621 0.09913 0.0
H478 H 0.47068 0.82113 0.10956 0.0
H479 H 0.34744 0.79223 0.21311 0.0
Eu480 Eu 0.82468 0.91766 0.65823 0.0
Eu481 Eu 0.88894 0.9092 0.77483 0.0
C482 C 0.87602 0.98412 0.69476 0.0
C483 C 0.79315 0.92488 0.48296 0.0
C484 C 0.79706 0.95684 0.44237 0.0
C485 C 0.81706 0.88693 0.39135 0.0
C486 C 0.81044 0.95388 0.37695 0.0
C487 C 0.8031 0.88982 0.45646 0.0
C488 C 0.82095 0.91893 0.35064 0.0
C489 C 0.78279 0.92914 0.55436 0.0
O490 O 0.8363 0.93226 0.82085 0.0
O491 O 0.79238 0.90545 0.75412 0.0
C492 C 0.80273 0.91807 0.81301 0.0
O493 O 0.84434 0.85825 0.65137 0.0
O494 O 0.92594 0.93647 0.84633 0.0
O495 O 0.91851 0.87641 0.85084 0.0
O496 O 0.86277 0.85187 0.75988 0.0
C497 C 0.85373 0.83708 0.70206 0.0
O498 O 0.88017 0.91553 0.60397 0.0
O499 O 0.92122 0.89222 0.68289 0.0
O500 O 0.90225 0.96064 0.71324 0.0
O501 O 0.78041 0.8987 0.59067 0.0
O502 O 0.80018 0.95602 0.58551 0.0
O503 O 0.84097 0.97364 0.70006 0.0
C504 C 0.91823 0.90898 0.9537 0.0
C505 C 0.92033 0.87742 0.99569 0.0
C506 C 0.88757 0.94324 1.04362 0.0
C507 C 0.90548 0.87853 0.06043 0.0
C508 C 0.90214 0.94208 0.97888 0.0
C509 C 0.88843 0.9113 0.08467 0.0
C510 C 0.92968 0.90625 0.88257 0.0
C511 C 0.91278 0.90106 0.62072 0.0
H512 H 0.78997 0.98428 0.4615 0.0
H513 H 0.82592 0.85971 0.37378 0.0
H514 H 0.81277 0.9791 0.34706 0.0
H515 H 0.80126 0.86466 0.48663 0.0
H516 H 0.93264 0.85158 0.97784 0.0
H517 H 0.87458 0.96885 0.06095 0.0
H518 H 0.90712 0.85368 0.09144 0.0
H519 H 0.89982 0.96695 0.94809 0.0
Eu520 Eu 0.90944 0.11959 0.33388 0.0
Eu521 Eu 0.91024 0.18493 0.44992 0.0
C522 C 0.83348 0.14764 0.40617 0.0
C523 C 0.90866 0.09268 0.15314 0.0
C524 C 0.87739 0.11201 0.12741 0.0
C525 C 0.94102 0.10299 1.04731 0.0
C526 C 0.87812 0.1269 0.06267 0.0
C527 C 0.94021 0.08784 0.11186 0.0
C528 C 0.91019 0.12318 1.02235 0.0
C529 C 0.91011 0.08052 0.22414 0.0
O530 O 0.91012 0.13009 0.50672 0.0
O531 O 0.89865 0.08477 0.42636 0.0
C532 C 0.90227 0.09544 0.48901 0.0
O533 O 0.9612 0.10867 0.39551 0.0
O534 O 0.88375 0.22433 0.51897 0.0
O535 O 0.94407 0.21887 0.51715 0.0
O536 O 0.969 0.17036 0.41832 0.0
C537 C 0.98158 0.13589 0.41997 0.0
O538 O 0.93196 0.17358 0.29218 0.0
O539 O 0.89791 0.21519 0.35216 0.0
O540 O 0.85349 0.15923 0.4564 0.0
O541 O 0.94044 0.08982 0.25638 0.0
O542 O 0.87998 0.08539 0.2603 0.0
O543 O 0.84935 0.14005 0.34832 0.0
C544 C 0.91494 0.21956 0.62363 0.0
C545 C 0.94797 0.20669 0.65445 0.0
C546 C 0.88091 0.20595 0.72666 0.0
C547 C 0.94728 0.19258 0.71949 0.0
C548 C 0.88145 0.21939 0.66087 0.0
C549 C 0.91378 0.192 0.75668 0.0
C550 C 0.91497 0.22969 0.55155 0.0
C551 C 0.91535 0.20607 0.29665 0.0
H552 H 0.85266 0.11652 0.15777 0.0
H553 H 0.9659 0.09911 1.01702 0.0
H554 H 0.85397 0.14235 1.04483 0.0
H555 H 0.9647 0.07311 0.13018 0.0
H556 H 0.97441 0.20667 0.62788 0.0
H557 H 0.85466 0.20632 0.75394 0.0
H558 H 0.97297 0.18115 0.73977 0.0
H559 H 0.85551 0.22924 0.6389 0.0
Eu560 Eu 0.18402 0.08536 0.65285 0.0
Eu561 Eu 0.11873 0.09141 0.77182 0.0
C562 C 0.1328 0.01771 0.68802 0.0
C563 C 0.21608 0.07802 0.47778 0.0
C564 C 0.21092 0.04454 0.44213 0.0
C565 C 0.1922 0.11265 0.38171 0.0
C566 C 0.19609 0.04507 0.37749 0.0
C567 C 0.20682 0.11212 0.44643 0.0
C568 C 0.18633 0.07914 0.34661 0.0
C569 C 0.22718 0.07682 0.54927 0.0
O570 O 0.17202 0.07139 0.81896 0.0
O571 O 0.21641 0.09616 0.74862 0.0
C572 C 0.20583 0.08429 0.80811 0.0
O573 O 0.16239 0.14391 0.64691 0.0
O574 O 0.08281 0.06252 0.8438 0.0
O575 O 0.08732 0.12282 0.84704 0.0
O576 O 0.14146 0.15022 0.75444 0.0
C577 C 0.15048 0.16476 0.69601 0.0
O578 O 0.12809 0.08637 0.59915 0.0
O579 O 0.08671 0.10787 0.67963 0.0
O580 O 0.10631 0.03972 0.71058 0.0
O581 O 0.22536 0.10814 0.5826 0.0
O582 O 0.21396 0.04875 0.58376 0.0
O583 O 0.16773 0.02873 0.69176 0.0
C584 C 0.088 0.09023 0.95103 0.0
C585 C 0.0946 0.12291 0.98828 0.0
C586 C 0.10891 0.05304 1.04632 0.0
C587 C 0.10905 0.12066 0.05313 0.0
C588 C 0.09443 0.05525 0.98163 0.0
C589 C 0.11726 0.08571 0.08223 0.0
C590 C 0.07731 0.09257 0.87933 0.0
C591 C 0.09523 0.10006 0.61713 0.0
H592 H 0.2174 0.01778 0.46497 0.0
H593 H 0.18528 0.13938 0.35919 0.0
H594 H 0.19129 0.01869 0.35246 0.0
H595 H 0.21023 0.13849 0.47221 0.0
H596 H 0.08963 0.1503 0.96664 0.0
H597 H 0.11394 0.02568 0.06807 0.0
H598 H 0.11494 0.14633 0.07974 0.0
H599 H 0.0892 0.02943 0.95503 0.0
Eu600 Eu 0.09381 0.88457 0.32681 0.0
Eu601 Eu 0.09151 0.8187 0.44533 0.0
C602 C 0.16972 0.85446 0.3981 0.0
C603 C 0.09111 0.91296 0.14666 0.0
C604 C 0.1234 0.89864 0.11526 0.0
C605 C 0.05515 0.89793 1.04674 0.0
C606 C 0.12144 0.88367 0.05093 0.0
C607 C 0.05713 0.91309 0.11099 0.0
C608 C 0.08716 0.88246 1.01642 0.0
C609 C 0.09186 0.92475 0.21784 0.0
O610 O 0.09056 0.87396 0.49999 0.0
O611 O 0.1074 0.91763 0.41944 0.0
C612 C 0.1011 0.90797 0.48218 0.0
O613 O 0.04229 0.89527 0.38939 0.0
O614 O 0.11662 0.77957 0.51692 0.0
O615 O 0.0565 0.7855 0.5128 0.0
O616 O 0.03384 0.83348 0.40925 0.0
C617 C 0.02165 0.86797 0.41328 0.0
O618 O 0.07408 0.83022 0.28311 0.0
O619 O 0.10432 0.7879 0.34879 0.0
O620 O 0.15 0.84046 0.44725 0.0
O621 O 0.06207 0.91658 0.25292 0.0
O622 O 0.12266 0.91838 0.25122 0.0
O623 O 0.15439 0.86648 0.34221 0.0
C624 C 0.08406 0.78451 0.62054 0.0
C625 C 0.05009 0.79459 0.65166 0.0
C626 C 0.11706 0.80107 0.72273 0.0
C627 C 0.04974 0.80868 0.71669 0.0
C628 C 0.11745 0.78726 0.65747 0.0
C629 C 0.08328 0.81249 0.75288 0.0
C630 C 0.08496 0.77449 0.54851 0.0
C631 C 0.09033 0.79766 0.29048 0.0
H632 H 0.1501 0.89808 0.14093 0.0
H633 H 0.0285 0.89816 1.02088 0.0
H634 H 0.1466 0.87202 1.02886 0.0
H635 H 0.03179 0.92411 0.13344 0.0
H636 H 0.02373 0.79248 0.62521 0.0
H637 H 0.14334 0.80315 0.74949 0.0
H638 H 0.02328 0.81773 0.73772 0.0
H639 H 0.14409 0.77945 0.6355 0.0
C640 C 0.361 0.94263 0.27747 0.0
C641 C 0.39506 0.94033 0.31199 0.0
C642 C 0.3563 0.96834 0.2253 0.0
C643 C 0.38575 0.99225 0.20498 0.0
H644 H 0.33755 0.92502 0.29193 0.0
H645 H 0.32898 0.97012 0.20193 0.0
S646 S 0.48252 0.99219 0.27408 0.0
N647 N 0.45977 0.96076 0.31932 0.0
N648 N 0.45169 0.00868 0.21994 0.0
C649 C 0.42081 0.98839 0.23687 0.0
C650 C 0.42525 0.96258 0.29088 0.0
C651 C 0.93922 0.64397 0.83498 0.0
C652 C 0.94052 0.61367 0.79067 0.0
C653 C 0.96554 0.64735 0.8866 0.0
C654 C 0.99325 0.61983 0.89713 0.0
H655 H 0.9182 0.66558 0.82887 0.0
H656 H 0.96446 0.67193 0.91803 0.0
S657 S 0.00538 0.53276 0.79845 0.0
N658 N 0.97056 0.55504 0.76142 0.0
N659 N 0.01813 0.55956 0.86133 0.0
C660 C 0.9935 0.58838 0.85482 0.0
C661 C 0.96766 0.58581 0.80072 0.0
C662 C 0.65058 0.02023 0.26521 0.0
C663 C 0.62593 0.01316 0.21188 0.0
C664 C 0.64174 0.04585 0.31532 0.0
C665 C 0.6086 0.06691 0.31292 0.0
H666 H 0.67673 0.00531 0.26958 0.0
H667 H 0.66148 0.04969 0.35577 0.0
S668 S 0.53637 0.06309 0.1803 0.0
N669 N 0.56749 0.03111 0.15812 0.0
N670 N 0.55208 0.08147 0.25038 0.0
C671 C 0.58439 0.06181 0.25836 0.0
C672 C 0.59275 0.03445 0.20835 0.0
C673 C 0.04695 0.37242 0.90133 0.0
C674 C 0.01107 0.38814 0.89314 0.0
C675 C 0.0746 0.37613 0.85149 0.0
C676 C 0.06673 0.39423 0.79054 0.0
H677 H 0.0536 0.35698 0.94636 0.0
H678 H 0.10195 0.36374 0.85987 0.0
S679 S 0.97707 0.43943 0.74361 0.0
N680 N 0.96975 0.4232 0.8197 0.0
N681 N 0.02071 0.42807 0.72498 0.0
C682 C 0.03104 0.40991 0.78171 0.0
C683 C 0.00346 0.40739 0.83328 0.0
C684 C 0.35386 0.5257 0.1105 0.0
C685 C 0.38403 0.51011 0.14672 0.0
C686 C 0.35986 0.55098 0.05802 0.0
C687 C 0.39612 0.56263 1.04083 0.0
H688 H 0.32519 0.5177 0.12139 0.0
H689 H 0.33586 0.56185 1.03126 0.0
S690 S 0.48465 0.53414 0.12312 0.0
N691 N 0.45176 0.5103 0.16315 0.0
N692 N 0.46258 0.55942 0.06629 0.0
C693 C 0.42649 0.54908 0.07831 0.0
C694 C 0.42056 0.52248 0.13088 0.0
C695 C 0.54617 0.64486 0.06485 0.0
C696 C 0.56575 0.61083 0.06646 0.0
C697 C 0.5205 0.65268 1.01403 0.0
C698 C 0.51248 0.62629 0.96394 0.0
H699 H 0.55098 0.66582 0.10282 0.0
H700 H 0.50607 0.67928 1.01552 0.0
S701 S 0.55736 0.53317 0.94516 0.0
N702 N 0.57705 0.55109 1.01233 0.0
N703 N 0.52725 0.565 0.91836 0.0
C704 C 0.53234 0.59226 0.96453 0.0
C705 C 0.55935 0.58473 1.01541 0.0
C706 C 0.59143 0.48429 0.12589 0.0
C707 C 0.6281 0.49178 0.14873 0.0
C708 C 0.58498 0.45988 0.07228 0.0
C709 C 0.61499 0.44274 1.03872 0.0
H710 H 0.56753 0.49811 0.14833 0.0
H711 H 0.55641 0.45498 0.0561 0.0
S712 S 0.71557 0.44851 0.08289 0.0
N713 N 0.69443 0.47601 0.13726 0.0
N714 N 0.68198 0.43184 1.03483 0.0
C715 C 0.65146 0.44867 0.06217 0.0
C716 C 0.65809 0.4727 0.11767 0.0
C717 C 0.4607 0.42258 1.03045 0.0
C718 C 0.44243 0.39201 0.06054 0.0
C719 C 0.48582 0.41727 0.97723 0.0
C720 C 0.49285 0.38125 0.95124 0.0
H721 H 0.45602 0.45068 1.04892 0.0
H722 H 0.50042 0.44151 0.95742 0.0
S723 S 0.44758 0.29281 1.00856 0.0
N724 N 0.43078 0.32519 0.05895 0.0
N725 N 0.4759 0.31505 0.9565 0.0
C726 C 0.47283 0.35078 0.97902 0.0
C727 C 0.44821 0.35619 1.03438 0.0
C728 C 0.89603 0.48074 0.82812 0.0
C729 C 0.8839 0.44364 0.81912 0.0
C730 C 0.89286 0.50725 0.7769 0.0
C731 C 0.87734 0.49789 0.71488 0.0
H732 H 0.90878 0.48926 0.87463 0.0
H733 H 0.90162 0.53555 0.78693 0.0
S734 S 0.83679 0.40626 0.66867 0.0
N735 N 0.8531 0.39959 0.74485 0.0
N736 N 0.84641 0.45023 0.64921 0.0
C737 C 0.86371 0.46144 0.70596 0.0
C738 C 0.86736 0.43409 0.7578 0.0
C739 C 0.47684 0.09706 0.38172 0.0
C740 C 0.49131 0.1335 0.38978 0.0
C741 C 0.45088 0.08896 0.33124 0.0
C742 C 0.43976 0.11659 0.28533 0.0
H743 H 0.48611 0.07442 0.4138 0.0
H744 H 0.44015 0.06069 0.32707 0.0
S745 S 0.46467 0.21723 0.28911 0.0
N746 N 0.48793 0.19857 0.35207 0.0
N747 N 0.44186 0.18219 0.25419 0.0
C748 C 0.45277 0.15324 0.29388 0.0
C749 C 0.47783 0.16198 0.34693 0.0
C750 C 0.14311 0.53301 0.82398 0.0
C751 C 0.11647 0.56125 0.81248 0.0
C752 C 0.15119 0.50624 0.7754 0.0
C753 C 0.13259 0.50596 0.71367 0.0
H754 H 0.15807 0.53152 0.87087 0.0
H755 H 0.17143 0.48484 0.78739 0.0
S756 S 0.0605 0.57379 0.65775 0.0
N757 N 0.07214 0.58813 0.73311 0.0
N758 N 0.08622 0.53617 0.64329 0.0
C759 C 0.10579 0.53387 0.70118 0.0
C760 C 0.09817 0.56199 0.75006 0.0
C761 C 0.5435 0.85883 0.28735 0.0
C762 C 0.56488 0.89179 0.28984 0.0
C763 C 0.51719 0.85043 0.33703 0.0
C764 C 0.51047 0.8751 0.39041 0.0
H765 H 0.5473 0.83915 0.24691 0.0
H766 H 0.50114 0.82486 0.33202 0.0
S767 S 0.55973 0.96516 0.41991 0.0
N768 N 0.5787 0.94892 0.35065 0.0
N769 N 0.52809 0.9338 0.44309 0.0
C770 C 0.53199 0.90811 0.39379 0.0
C771 C 0.55948 0.91627 0.34377 0.0
C772 C 0.91314 0.00947 0.59885 0.0
C773 C 0.88521 0.01483 0.64776 0.0
C774 C 0.91821 0.03531 0.54661 0.0
C775 C 0.89638 0.06795 0.54298 0.0
H776 H 0.93025 0.98441 0.59938 0.0
H777 H 0.93944 0.02986 0.50915 0.0
S778 S 0.82156 0.09653 0.6608 0.0
N779 N 0.83623 0.05571 0.68983 0.0
N780 N 0.84725 0.10533 0.59393 0.0
C781 C 0.8695 0.07443 0.59292 0.0
C782 C 0.86352 0.0476 0.64478 0.0
C783 C 0.04028 0.13631 0.5762 0.0
C784 C 0.06723 0.10838 0.5647 0.0
C785 C 0.01378 0.14562 0.52772 0.0
C786 C 0.01258 0.12706 0.46616 0.0
H787 H 0.03972 0.15142 0.62291 0.0
H788 H 0.99329 0.16686 0.53947 0.0
S789 S 0.07711 0.05215 0.41019 0.0
N790 N 0.09179 0.06271 0.48588 0.0
N791 N 0.04071 0.07965 0.39556 0.0
C792 C 0.03923 0.09904 0.45361 0.0
C793 C 0.06693 0.08996 0.5026 0.0
C794 C 0.12918 0.96779 0.52233 0.0
C795 C 0.10681 0.93618 0.5354 0.0
C796 C 0.13724 0.99369 0.57238 0.0
C797 C 0.12324 0.9893 0.6375 0.0
H798 H 0.14116 0.97242 0.47331 0.0
H799 H 0.15408 0.01774 0.55935 0.0
S800 S 0.06078 0.91331 0.69718 0.0
N801 N 0.06893 0.90301 0.61828 0.0
N802 N 0.08412 0.95243 0.71191 0.0
C803 C 0.09977 0.95871 0.65109 0.0
C804 C 0.0917 0.9319 0.60022 0.0
C805 C 0.99509 0.85976 0.52682 0.0
C806 C 0.99274 0.87666 0.46358 0.0
C807 C 0.96965 0.86834 0.5776 0.0
C808 C 0.94047 0.89406 0.56695 0.0
H809 H 0.01749 0.8405 0.53793 0.0
H810 H 0.97275 0.85436 0.62529 0.0
S811 S 0.92335 0.94779 0.41072 0.0
N812 N 0.96038 0.9217 0.39368 0.0
N813 N 0.91144 0.9375 0.48822 0.0
C814 C 0.93801 0.91165 0.50385 0.0
C815 C 0.96449 0.90317 0.45248 0.0
C816 C 0.3567 0.22619 0.22223 0.0
C817 C 0.35277 0.21117 0.15771 0.0
C818 C 0.35763 0.26499 0.23308 0.0
C819 C 0.35412 0.29049 0.17988 0.0
H820 H 0.35949 0.20781 0.26507 0.0
H821 H 0.36086 0.27499 0.2836 0.0
S822 S 0.34274 0.26552 1.00089 0.0
N823 N 0.34545 0.22481 1.03984 0.0
N824 N 0.34641 0.29755 0.05955 0.0
C825 C 0.35008 0.27575 0.11493 0.0
C826 C 0.34964 0.23622 0.1039 0.0
C827 C 0.27022 0.67856 0.88906 0.0
C828 C 0.29121 0.64553 0.89637 0.0
C829 C 0.23157 0.67905 0.90304 0.0
C830 C 0.21301 0.64681 0.92684 0.0
H831 H 0.28393 0.70432 0.8738 0.0
H832 H 0.21631 0.70508 0.89688 0.0
S833 S 0.25536 0.5529 0.9507 0.0
N834 N 0.29062 0.57949 0.92528 0.0
N835 N 0.21824 0.58055 0.95351 0.0
C836 C 0.23372 0.61351 0.93335 0.0
C837 C 0.27281 0.61286 0.91771 0.0
C838 C 0.6519 0.7758 0.22723 0.0
C839 C 0.64896 0.79128 0.16251 0.0
C840 C 0.65147 0.73695 0.23819 0.0
C841 C 0.64853 0.71179 0.1849 0.0
H842 H 0.65464 0.7938 0.27027 0.0
H843 H 0.65423 0.72659 0.28877 0.0
S844 S 0.63766 0.73733 1.0061 0.0
N845 N 0.64124 0.77795 1.0446 0.0
N846 N 0.64061 0.70504 0.06498 0.0
C847 C 0.64484 0.72675 0.11997 0.0
C848 C 0.64498 0.76639 0.10886 0.0
C849 C 0.7734 0.38766 0.93483 0.0
C850 C 0.79219 0.35361 0.94628 0.0
C851 C 0.73513 0.38827 0.91827 0.0
C852 C 0.71422 0.3549 0.9146 0.0
H853 H 0.78861 0.41393 0.9371 0.0
H854 H 0.72164 0.41505 0.90972 0.0
S855 S 0.75054 0.25859 0.9404 0.0
N856 N 0.7875 0.28584 0.9514 0.0
N857 N 0.71516 0.28697 0.92367 0.0
C858 C 0.73269 0.32075 0.92661 0.0
C859 C 0.77182 0.3201 0.94152 0.0
C860 C 0.8551 0.74193 0.61647 0.0
C861 C 0.85536 0.7165 0.67006 0.0
C862 C 0.85446 0.78077 0.62747 0.0
C863 C 0.85459 0.79579 0.69248 0.0
H864 H 0.85467 0.73182 0.56566 0.0
H865 H 0.85398 0.79916 0.58439 0.0
S866 S 0.85734 0.74115 0.85014 0.0
N867 N 0.85705 0.70923 0.79093 0.0
N868 N 0.85625 0.78191 0.81112 0.0
C869 C 0.85573 0.77065 0.74647 0.0
C870 C 0.85599 0.73116 0.73538 0.0
C871 C 0.77673 0.15249 0.47994 0.0
C872 C 0.79221 0.14419 0.41667 0.0
C873 C 0.73792 0.15131 0.49164 0.0
C874 C 0.71294 0.14209 0.44044 0.0
H875 H 0.79463 0.16068 0.52094 0.0
H876 H 0.72739 0.15907 0.54035 0.0
S877 S 0.73858 0.11332 0.2684 0.0
N878 N 0.77913 0.12303 0.30406 0.0
N879 N 0.70628 0.121 0.3258 0.0
C880 C 0.72795 0.13206 0.37785 0.0
C881 C 0.76751 0.13307 0.36601 0.0
C882 C 0.14972 0.26963 0.72596 0.0
C883 C 0.14639 0.28494 0.66115 0.0
C884 C 0.15004 0.23086 0.73712 0.0
C885 C 0.14739 0.20567 0.68393 0.0
H886 H 0.15253 0.2877 0.76889 0.0
H887 H 0.15337 0.22062 0.78766 0.0
S888 S 0.13447 0.2307 0.50532 0.0
N889 N 0.13777 0.27144 0.54354 0.0
N890 N 0.13838 0.19856 0.56426 0.0
C891 C 0.14273 0.22042 0.61904 0.0
C892 C 0.14217 0.26 0.60772 0.0
C893 C 0.2665 0.82539 0.45357 0.0
C894 C 0.28777 0.85834 0.4463 0.0
C895 C 0.22858 0.82433 0.43578 0.0
C896 C 0.21067 0.85583 0.40819 0.0
H897 H 0.27918 0.80021 0.47373 0.0
H898 H 0.21306 0.79858 0.44386 0.0
S899 S 0.25378 0.94879 0.37727 0.0
N900 N 0.28813 0.92338 0.40925 0.0
N901 N 0.21674 0.92094 0.37428 0.0
C902 C 0.23156 0.88886 0.3996 0.0
C903 C 0.27013 0.89025 0.4192 0.0
C904 C 0.22056 0.10324 0.92505 0.0
C905 C 0.23165 0.08507 0.86591 0.0
C906 C 0.24313 0.10249 0.98262 0.0
C907 C 0.27738 0.08288 0.98362 0.0
H908 H 0.19423 0.1184 0.92667 0.0
H909 H 0.23385 0.11771 1.02623 0.0
S910 S 0.31523 0.0249 0.84506 0.0
N911 N 0.27677 0.0438 0.8139 0.0
N912 N 0.31879 0.04112 0.92161 0.0
C913 C 0.28776 0.06314 0.92531 0.0
C914 C 0.26506 0.06456 0.86659 0.0
C915 C 0.07996 0.76245 0.11118 0.0
C916 C 0.09464 0.72604 0.11407 0.0
C917 C 0.07853 0.7851 0.16849 0.0
C918 C 0.09214 0.77245 0.23102 0.0
H919 H 0.06852 0.77311 0.06491 0.0
H920 H 0.06649 0.81281 0.16345 0.0
S921 S 0.13821 0.681 0.2621 0.0
N922 N 0.126 0.67943 0.18286 0.0
N923 N 0.12386 0.72204 0.28969 0.0
C924 C 0.10827 0.73659 0.23356 0.0
C925 C 0.10937 0.71344 0.17545 0.0
C926 C 0.76701 0.92926 0.99223 0.0
C927 C 0.73149 0.91233 0.99066 0.0
C928 C 0.78944 0.93129 0.93438 0.0
C929 C 0.77745 0.91613 0.87278 0.0
H930 H 0.77706 0.94196 1.03778 0.0
H931 H 0.81641 0.94511 0.93819 0.0
S932 S 0.68855 0.86419 0.84662 0.0
N933 N 0.68649 0.8775 0.92509 0.0
N934 N 0.72864 0.88051 0.81699 0.0
C935 C 0.74246 0.89786 0.87182 0.0
C936 C 0.71957 0.89618 0.93051 0.0
C937 C 0.88762 0.28082 0.16916 0.0
C938 C 0.91426 0.27615 0.11783 0.0
C939 C 0.88854 0.25887 0.22762 0.0
C940 C 0.91625 0.23132 0.23706 0.0
H941 H 0.86576 0.30168 0.16403 0.0
H942 H 0.8671 0.26319 0.26514 0.0
S943 S 0.99469 0.21068 0.12018 0.0
N944 N 0.97038 0.24375 0.08197 0.0
N945 N 0.9724 0.20223 0.19084 0.0
C946 C 0.94337 0.22678 0.18614 0.0
C947 C 0.9423 0.24917 0.12677 0.0
C948 C 0.24492 0.39253 0.36749 0.0
C949 C 0.27934 0.41195 0.36811 0.0
C950 C 0.22251 0.38958 0.42534 0.0
C951 C 0.23395 0.40507 0.48665 0.0
H952 H 0.23521 0.37936 0.32214 0.0
H953 H 0.19589 0.37499 0.4221 0.0
S954 S 0.31871 0.46277 0.51444 0.0
N955 N 0.32155 0.45031 0.43543 0.0
N956 N 0.28008 0.44296 0.54344 0.0
C957 C 0.26776 0.42497 0.48806 0.0
C958 C 0.29022 0.42886 0.42906 0.0
C959 C 0.39618 0.76153 0.738 0.0
C960 C 0.41382 0.72633 0.73562 0.0
C961 C 0.39409 0.78466 0.68117 0.0
C962 C 0.40912 0.77349 0.61911 0.0
H963 H 0.38376 0.77136 0.78403 0.0
H964 H 0.3803 0.81156 0.68596 0.0
S965 S 0.46093 0.6856 0.58642 0.0
N966 N 0.44856 0.68245 0.66553 0.0
N967 N 0.44396 0.7259 0.55965 0.0
C968 C 0.4271 0.73866 0.61596 0.0
C969 C 0.42968 0.71519 0.67387 0.0
C970 C 0.72023 0.61347 0.42636 0.0
C971 C 0.7306 0.59355 0.36855 0.0
C972 C 0.74231 0.61254 0.48456 0.0
C973 C 0.77535 0.59105 0.48767 0.0
H974 H 0.69472 0.62998 0.42655 0.0
H975 H 0.73357 0.62901 0.52705 0.0
S976 S 0.81086 0.5285 0.35341 0.0
N977 N 0.77367 0.54884 0.32027 0.0
N978 N 0.81484 0.54602 0.429 0.0
C979 C 0.78507 0.56978 0.43065 0.0
C980 C 0.76284 0.5713 0.37131 0.0
C981 C 0.61149 0.26583 0.61626 0.0
C982 C 0.59192 0.23159 0.61626 0.0
C983 C 0.61231 0.2888 0.67331 0.0
C984 C 0.59418 0.27832 0.73335 0.0
H985 H 0.62632 0.27504 0.57195 0.0
H986 H 0.62748 0.31508 0.67039 0.0
S987 S 0.53584 0.19368 0.75838 0.0
N988 N 0.55147 0.18993 0.68134 0.0
N989 N 0.55418 0.2327 0.78777 0.0
C990 C 0.5743 0.24449 0.73405 0.0
C991 C 0.57284 0.22135 0.67581 0.0
C992 C 0.33362 0.06745 0.61982 0.0
C993 C 0.34299 0.09263 0.56826 0.0
C994 C 0.35082 0.06956 0.68247 0.0
C995 C 0.37764 0.0973 0.69695 0.0
H996 H 0.31263 0.04597 0.61189 0.0
H997 H 0.34269 0.04944 0.72006 0.0
S998 S 0.41492 0.16782 0.57769 0.0
N999 N 0.38321 0.14452 0.5345 0.0
N1000 N 0.41454 0.14911 0.6531 0.0
C1001 C 0.38765 0.12244 0.64574 0.0
C1002 C 0.37053 0.12 0.5814 0.0
C1003 C 0.09974 0.62431 0.51632 0.0
C1004 C 0.07968 0.65785 0.52617 0.0
C1005 C 0.10154 0.60711 0.4535 0.0
C1006 C 0.08381 0.62296 0.39739 0.0
H1007 H 0.11392 0.61093 0.55773 0.0
H1008 H 0.11683 0.58103 0.44902 0.0
S1009 S 0.03092 0.71266 0.39477 0.0
N1010 N 0.0431 0.70709 0.47349 0.0
N1011 N 0.04784 0.6759 0.35522 0.0
C1012 C 0.06433 0.65696 0.40625 0.0
C1013 C 0.06196 0.67409 0.4705 0.0
C1014 C 0.63691 0.93681 0.59637 0.0
C1015 C 0.65818 0.9062 0.57311 0.0
C1016 C 0.61989 0.93624 0.65951 0.0
C1017 C 0.62257 0.90471 0.70149 0.0
H1018 H 0.63334 0.96155 0.56563 0.0
H1019 H 0.60455 0.96077 0.67573 0.0
S1020 S 0.67474 0.8172 0.66523 0.0
N1021 N 0.68184 0.84384 0.59899 0.0
N1022 N 0.64716 0.84169 0.7148 0.0
C1023 C 0.64262 0.87345 0.6782 0.0
C1024 C 0.66106 0.87446 0.61486 0.0
C1025 C 0.93543 0.38422 0.44425 0.0
C1026 C 0.9051 0.3756 0.40207 0.0
C1027 C 0.93909 0.36742 0.50732 0.0
C1028 C 0.91267 0.34112 0.53101 0.0
H1029 H 0.95701 0.40361 0.42798 0.0
H1030 H 0.96277 0.37534 0.53797 0.0
S1031 S 0.82772 0.30899 0.4408 0.0
N1032 N 0.84727 0.33987 0.39006 0.0
N1033 N 0.85528 0.30696 0.50669 0.0
C1034 C 0.88214 0.3323 0.48951 0.0
C1035 C 0.87813 0.34976 0.42564 0.0
C1036 C 0.38013 0.42572 0.68692 0.0
C1037 C 0.37239 0.3942 0.64711 0.0
C1038 C 0.36422 0.42983 0.75064 0.0
C1039 C 0.33975 0.40265 0.7776 0.0
H1040 H 0.39826 0.4478 0.66838 0.0
H1041 H 0.37151 0.45442 0.77928 0.0
S1042 S 0.30972 0.31502 0.69393 0.0
N1043 N 0.33878 0.33495 0.6403 0.0
N1044 N 0.30772 0.34352 0.75838 0.0
C1045 C 0.33153 0.37111 0.73825 0.0
C1046 C 0.348 0.36674 0.67354 0.0
C1047 C 0.39723 0.68077 0.3784 0.0
C1048 C 0.41336 0.66273 0.32321 0.0
C1049 C 0.39637 0.66356 0.44148 0.0
C1050 C 0.41119 0.62735 0.45189 0.0
H1051 H 0.38552 0.7086 0.37293 0.0
H1052 H 0.38438 0.67904 0.48265 0.0
S1053 S 0.45379 0.56703 0.3216 0.0
N1054 N 0.44311 0.6062 0.28193 0.0
N1055 N 0.44068 0.57336 0.39975 0.0
C1056 C 0.4269 0.60881 0.39656 0.0
C1057 C 0.42814 0.62657 0.33251 0.0
C1058 C 0.63571 0.60804 0.76692 0.0
C1059 C 0.66729 0.58525 0.77902 0.0
C1060 C 0.61904 0.61 0.70358 0.0
C1061 C 0.63315 0.58915 0.64971 0.0
H1062 H 0.6234 0.62416 0.80701 0.0
H1063 H 0.59459 0.62763 0.69692 0.0
S1064 S 0.717 0.52756 0.65309 0.0
N1065 N 0.71302 0.54278 0.73037 0.0
N1066 N 0.68186 0.54666 0.61162 0.0
C1067 C 0.66496 0.56663 0.66077 0.0
C1068 C 0.68193 0.5646 0.72525 0.0
C1069 C 0.59863 0.39727 0.39741 0.0
C1070 C 0.5839 0.3793 0.45432 0.0
C1071 C 0.59646 0.38073 0.33403 0.0
C1072 C 0.57954 0.34539 0.32457 0.0
H1073 H 0.61169 0.42456 0.40174 0.0
H1074 H 0.6079 0.39603 0.29191 0.0
S1075 S 0.5383 0.28572 0.45816 0.0
N1076 N 0.55306 0.32345 0.4975 0.0
N1077 N 0.54842 0.29278 0.3788 0.0
C1078 C 0.5646 0.32719 0.38121 0.0
C1079 C 0.56697 0.34396 0.44581 0.0
C1080 C 0.82754 0.57367 0.12593 0.0
C1081 C 0.83875 0.59779 0.0739 0.0
C1082 C 0.84466 0.57504 0.18875 0.0
C1083 C 0.87333 0.60093 0.2029 0.0
H1084 H 0.80521 0.55354 0.11819 0.0
H1085 H 0.83507 0.55578 0.2267 0.0
S1086 S 0.91536 0.66824 0.08269 0.0
N1087 N 0.8823 0.6468 1.03964 0.0
N1088 N 0.9136 0.65002 0.15844 0.0
C1089 C 0.88504 0.62511 0.15133 0.0
C1090 C 0.86794 0.62343 0.08686 0.0
C1091 C 0.62789 0.14013 0.93557 0.0
C1092 C 0.59477 0.13593 0.89822 0.0
C1093 C 0.62738 0.15667 0.99901 0.0
C1094 C 0.59381 0.17024 1.02714 0.0
H1095 H 0.65436 0.1301 0.91592 0.0
H1096 H 0.65341 0.15828 1.02663 0.0
S1097 S 0.50027 0.1701 0.94605 0.0
N1098 N 0.5278 0.14815 0.89278 0.0
N1099 N 0.52724 0.18147 1.00959 0.0
C1100 C 0.56073 0.16729 0.98922 0.0
C1101 C 0.5611 0.14956 0.92551 0.0
C1102 C 0.16648 0.4247 0.18795 0.0
C1103 C 0.13733 0.39953 0.20396 0.0
C1104 C 0.18333 0.42482 0.12457 0.0
C1105 C 0.1717 0.39979 0.07459 0.0
H1106 H 0.17657 0.44427 0.22497 0.0
H1107 H 0.2058 0.44455 0.11472 0.0
S1108 S 0.0945 0.33035 0.08951 0.0
N1109 N 0.09644 0.35012 0.16369 0.0
N1110 N 0.12779 0.35052 1.04456 0.0
C1111 C 0.14233 0.37473 0.0898 0.0
C1112 C 0.12526 0.37456 0.1544 0.0
C1113 C 0.38663 0.86743 1.01094 0.0
C1114 C 0.41131 0.83789 1.02695 0.0
C1115 C 0.3867 0.88419 0.94746 0.0
C1116 C 0.41158 0.87228 0.89731 0.0
H1117 H 0.3673 0.87802 1.04807 0.0
H1118 H 0.36735 0.90695 0.93776 0.0
S1119 S 0.48003 0.79436 0.9115 0.0
N1120 N 0.46018 0.7964 0.98583 0.0
N1121 N 0.46033 0.82794 0.86684 0.0
C1122 C 0.43622 0.84263 0.91231 0.0
C1123 C 0.43611 0.82548 0.97694 0.0
C1124 C 0.86383 0.94319 0.26027 0.0
C1125 C 0.83745 0.91631 0.28213 0.0
C1126 C 0.88027 0.94124 0.19675 0.0
C1127 C 0.87109 0.91233 0.15225 0.0
H1128 H 0.87224 0.96582 0.29274 0.0
H1129 H 0.90062 0.96241 0.18255 0.0
S1130 S 0.80095 0.83718 0.18142 0.0
N1131 N 0.80121 0.86118 0.25158 0.0
N1132 N 0.8321 0.85771 0.13236 0.0
C1133 C 0.84433 0.88566 0.17267 0.0
C1134 C 0.82755 0.8876 0.23742 0.0
C1135 C 0.88242 0.13533 0.90905 0.0
C1136 C 0.91163 0.14105 0.955 0.0
C1137 C 0.88317 0.15208 0.8455 0.0
C1138 C 0.91293 0.17571 0.82556 0.0
H1139 H 0.85907 0.11723 0.9219 0.0
H1140 H 0.86054 0.14586 0.81133 0.0
S1141 S 0.9947 0.20229 0.92981 0.0
N1142 N 0.97043 0.17305 0.97711 0.0
N1143 N 0.9711 0.20585 0.85942 0.0
C1144 C 0.94184 0.18238 0.87188 0.0
C1145 C 0.94137 0.16476 0.93602 0.0
C1146 C 0.12049 0.10385 0.20318 0.0
C1147 C 0.13515 0.08337 0.1493 0.0
C1148 C 0.13708 0.10215 0.2666 0.0
C1149 C 0.16906 0.07994 0.27881 0.0
H1150 H 0.09575 0.12106 0.19643 0.0
H1151 H 0.12449 0.1181 0.30665 0.0
S1152 S 0.21997 0.0231 0.15325 0.0
N1153 N 0.1847 0.04174 0.11149 0.0
N1154 N 0.21547 0.03811 0.23056 0.0
C1155 C 0.18409 0.05949 0.22519 0.0
C1156 C 0.1673 0.06135 0.16056 0.0
C1157 C 0.11042 0.85724 0.83652 0.0
C1158 C 0.08345 0.82979 0.82063 0.0
C1159 C 0.11125 0.87421 0.89953 0.0
C1160 C 0.08499 0.8647 0.9493 0.0
H1161 H 0.13086 0.86605 0.79962 0.0
H1162 H 0.13246 0.89526 0.90917 0.0
S1163 S 0.00988 0.79309 0.93491 0.0
N1164 N 0.03074 0.79283 0.86136 0.0
N1165 N 0.03196 0.82514 0.97918 0.0
C1166 C 0.05788 0.83731 0.93425 0.0
C1167 C 0.05718 0.8198 0.87019 0.0
loop_
_geom_bond_atom_site_label_1
_geom_bond_atom_site_label_2
_geom_bond_distance
_geom_bond_site_symmetry_2
_ccdc_geom_bond_type
Eu0 C9 2.828 . S
Eu0 O11 2.392 . S
Eu0 O13 2.418 . S
Eu0 O18 2.373 . S
Eu0 O21 2.488 . S
Eu0 O22 2.471 . S
Eu0 O23 2.349 . S
Eu1 O10 2.373 . S
Eu1 O14 2.488 1_554 S
Eu1 O15 2.471 1_554 S
Eu1 O16 2.349 . S
Eu1 O19 2.392 . S
Eu1 O20 2.418 . S
Eu1 C30 2.828 1_554 S
C2 O20 1.244 . S
C2 O23 1.265 . S
C3 C4 1.379 . S
C3 C7 1.373 . S
C3 C9 1.505 . S
C4 C3 1.379 . S
C4 C6 1.369 . S
C4 H32 0.930 . S
C5 C7 1.383 . S
C5 C8 1.382 . S
C5 H33 0.930 . S
C6 C4 1.369 . S
C6 C8 1.392 . S
C6 H34 0.930 . S
C7 C3 1.373 . S
C7 C5 1.383 . S
C7 H35 0.931 . S
C8 C5 1.382 . S
C8 C6 1.392 . S
C9 Eu0 2.828 . S
C9 C3 1.505 . S
C9 O21 1.249 . S
C9 O22 1.244 . S
O10 Eu1 2.373 . S
O10 C12 1.258 . S
O11 Eu0 2.392 . S
O11 C12 1.242 . S
C12 O10 1.258 . S
C12 O11 1.242 . S
O13 Eu0 2.418 . S
O13 C17 1.244 . S
O14 Eu1 2.488 1_556 S
O14 C30 1.249 . S
O15 Eu1 2.471 1_556 S
O15 C30 1.244 . S
O16 Eu1 2.349 . S
O16 C17 1.265 . S
C17 O13 1.244 . S
C17 O16 1.265 . S
O18 Eu0 2.373 . S
O18 C31 1.258 . S
O19 Eu1 2.392 . S
O19 C31 1.242 . S
O20 Eu1 2.418 . S
O20 C2 1.244 . S
O21 Eu0 2.488 . S
O21 C9 1.249 . S
O22 Eu0 2.471 . S
O22 C9 1.244 . S
O23 Eu0 2.349 . S
O23 C2 1.265 . S
C24 C25 1.379 . S
C24 C28 1.373 . S
C24 C30 1.505 . S
C25 C24 1.379 . S
C25 C27 1.369 . S
C25 H36 0.930 . S
C26 C28 1.383 . S
C26 C29 1.382 . S
C26 H37 0.930 . S
C27 C25 1.369 . S
C27 C29 1.392 . S
C27 H38 0.930 . S
C28 C24 1.373 . S
C28 C26 1.383 . S
C28 H39 0.931 . S
C29 C26 1.382 . S
C29 C27 1.392 . S
C30 Eu1 2.828 1_556 S
C30 O14 1.249 . S
C30 O15 1.244 . S
C30 C24 1.505 . S
C31 O18 1.258 . S
C31 O19 1.242 . S
H32 C4 0.930 . S
H33 C5 0.930 . S
H34 C6 0.930 . S
H35 C7 0.931 . S
H36 C25 0.930 . S
H37 C26 0.930 . S
H38 C27 0.930 . S
H39 C28 0.931 . S
Eu40 C49 2.828 1_556 S
Eu40 O51 2.392 . S
Eu40 O53 2.418 . S
Eu40 O58 2.373 . S
Eu40 O61 2.488 1_556 S
Eu40 O62 2.471 1_556 S
Eu40 O63 2.349 . S
Eu41 O50 2.373 . S
Eu41 O54 2.488 . S
Eu41 O55 2.471 . S
Eu41 O56 2.349 . S
Eu41 O59 2.392 . S
Eu41 O60 2.418 . S
Eu41 C70 2.828 . S
C42 O60 1.244 . S
C42 O63 1.265 . S
C43 C44 1.379 . S
C43 C47 1.373 . S
C43 C49 1.505 . S
C44 C43 1.379 . S
C44 C46 1.369 . S
C44 H72 0.930 . S
C45 C47 1.383 . S
C45 C48 1.382 . S
C45 H73 0.930 . S
C46 C44 1.369 . S
C46 C48 1.392 . S
C46 H74 0.930 . S
C47 C43 1.373 . S
C47 C45 1.383 . S
C47 H75 0.931 . S
C48 C45 1.382 . S
C48 C46 1.392 . S
C49 Eu40 2.828 1_554 S
C49 C43 1.505 . S
C49 O61 1.249 . S
C49 O62 1.244 . S
O50 Eu41 2.373 . S
O50 C52 1.258 . S
O51 Eu40 2.392 . S
O51 C52 1.242 . S
C52 O50 1.258 . S
C52 O51 1.242 . S
O53 Eu40 2.418 . S
O53 C57 1.244 . S
O54 Eu41 2.488 . S
O54 C70 1.249 . S
O55 Eu41 2.471 . S
O55 C70 1.244 . S
O56 Eu41 2.349 . S
O56 C57 1.265 . S
C57 O53 1.244 . S
C57 O56 1.265 . S
O58 Eu40 2.373 . S
O58 C71 1.258 . S
O59 Eu41 2.392 . S
O59 C71 1.242 . S
O60 Eu41 2.418 . S
O60 C42 1.244 . S
O61 Eu40 2.488 1_554 S
O61 C49 1.249 . S
O62 Eu40 2.471 1_554 S
O62 C49 1.244 . S
O63 Eu40 2.349 . S
O63 C42 1.265 . S
C64 C65 1.379 . S
C64 C68 1.373 . S
C64 C70 1.505 . S
C65 C64 1.379 . S
C65 C67 1.369 . S
C65 H76 0.930 . S
C66 C68 1.383 . S
C66 C69 1.382 . S
C66 H77 0.930 . S
C67 C65 1.369 . S
C67 C69 1.392 . S
C67 H78 0.930 . S
C68 C64 1.373 . S
C68 C66 1.383 . S
C68 H79 0.931 . S
C69 C66 1.382 . S
C69 C67 1.392 . S
C70 Eu41 2.828 . S
C70 O54 1.249 . S
C70 O55 1.244 . S
C70 C64 1.505 . S
C71 O58 1.258 . S
C71 O59 1.242 . S
H72 C44 0.930 . S
H73 C45 0.930 . S
H74 C46 0.930 . S
H75 C47 0.931 . S
H76 C65 0.930 . S
H77 C66 0.930 . S
H78 C67 0.930 . S
H79 C68 0.931 . S
Eu80 C89 2.828 . S
Eu80 O91 2.392 . S
Eu80 O93 2.418 . S
Eu80 O98 2.373 . S
Eu80 O101 2.488 . S
Eu80 O102 2.471 . S
Eu80 O103 2.349 . S
Eu81 O90 2.373 . S
Eu81 O94 2.488 1_554 S
Eu81 O95 2.471 1_554 S
Eu81 O96 2.349 . S
Eu81 O99 2.392 . S
Eu81 O100 2.418 . S
Eu81 C110 2.828 1_554 S
C82 O100 1.244 . S
C82 O103 1.265 . S
C83 C84 1.379 . S
C83 C87 1.373 . S
C83 C89 1.505 . S
C84 C83 1.379 . S
C84 C86 1.369 . S
C84 H112 0.930 . S
C85 C87 1.383 . S
C85 C88 1.382 . S
C85 H113 0.930 . S
C86 C84 1.369 . S
C86 C88 1.392 . S
C86 H114 0.930 . S
C87 C83 1.373 . S
C87 C85 1.383 . S
C87 H115 0.931 . S
C88 C85 1.382 . S
C88 C86 1.392 . S
C89 Eu80 2.828 . S
C89 C83 1.505 . S
C89 O101 1.249 . S
C89 O102 1.244 . S
O90 Eu81 2.373 . S
O90 C92 1.258 . S
O91 Eu80 2.392 . S
O91 C92 1.242 . S
C92 O90 1.258 . S
C92 O91 1.242 . S
O93 Eu80 2.418 . S
O93 C97 1.244 . S
O94 Eu81 2.488 1_556 S
O94 C110 1.249 . S
O95 Eu81 2.471 1_556 S
O95 C110 1.244 . S
O96 Eu81 2.349 . S
O96 C97 1.265 . S
C97 O93 1.244 . S
C97 O96 1.265 . S
O98 Eu80 2.373 . S
O98 C111 1.258 . S
O99 Eu81 2.392 . S
O99 C111 1.242 . S
O100 Eu81 2.418 . S
O100 C82 1.244 . S
O101 Eu80 2.488 . S
O101 C89 1.249 . S
O102 Eu80 2.471 . S
O102 C89 1.244 . S
O103 Eu80 2.349 . S
O103 C82 1.265 . S
C104 C105 1.379 . S
C104 C108 1.373 . S
C104 C110 1.505 . S
C105 C104 1.379 . S
C105 C107 1.369 . S
C105 H116 0.930 . S
C106 C108 1.383 . S
C106 C109 1.382 . S
C106 H117 0.930 . S
C107 C105 1.369 . S
C107 C109 1.392 . S
C107 H118 0.930 . S
C108 C104 1.373 . S
C108 C106 1.383 . S
C108 H119 0.931 . S
C109 C106 1.382 . S
C109 C107 1.392 . S
C110 Eu81 2.828 1_556 S
C110 O94 1.249 . S
C110 O95 1.244 . S
C110 C104 1.505 . S
C111 O98 1.258 . S
C111 O99 1.242 . S
H112 C84 0.930 . S
H113 C85 0.930 . S
H114 C86 0.930 . S
H115 C87 0.931 . S
H116 C105 0.930 . S
H117 C106 0.930 . S
H118 C107 0.930 . S
H119 C108 0.931 . S
Eu120 C129 2.828 1_556 S
Eu120 O131 2.392 . S
Eu120 O133 2.418 . S
Eu120 O138 2.373 . S
Eu120 O141 2.488 1_556 S
Eu120 O142 2.471 1_556 S
Eu120 O143 2.349 . S
Eu121 O130 2.373 . S
Eu121 O134 2.488 . S
Eu121 O135 2.471 . S
Eu121 O136 2.349 . S
Eu121 O139 2.392 . S
Eu121 O140 2.418 . S
Eu121 C150 2.828 . S
C122 O140 1.244 . S
C122 O143 1.265 . S
C123 C124 1.379 . S
C123 C127 1.373 . S
C123 C129 1.505 . S
C124 C123 1.379 . S
C124 C126 1.369 . S
C124 H152 0.930 . S
C125 C127 1.383 . S
C125 C128 1.382 . S
C125 H153 0.930 . S
C126 C124 1.369 . S
C126 C128 1.392 . S
C126 H154 0.930 . S
C127 C123 1.373 . S
C127 C125 1.383 . S
C127 H155 0.931 . S
C128 C125 1.382 . S
C128 C126 1.392 . S
C129 Eu120 2.828 1_554 S
C129 C123 1.505 . S
C129 O141 1.249 . S
C129 O142 1.244 . S
O130 Eu121 2.373 . S
O130 C132 1.258 . S
O131 Eu120 2.392 . S
O131 C132 1.242 . S
C132 O130 1.258 . S
C132 O131 1.242 . S
O133 Eu120 2.418 . S
O133 C137 1.244 . S
O134 Eu121 2.488 . S
O134 C150 1.249 . S
O135 Eu121 2.471 . S
O135 C150 1.244 . S
O136 Eu121 2.349 . S
O136 C137 1.265 . S
C137 O133 1.244 . S
C137 O136 1.265 . S
O138 Eu120 2.373 . S
O138 C151 1.258 . S
O139 Eu121 2.392 . S
O139 C151 1.242 . S
O140 Eu121 2.418 . S
O140 C122 1.244 . S
O141 Eu120 2.488 1_554 S
O141 C129 1.249 . S
O142 Eu120 2.471 1_554 S
O142 C129 1.244 . S
O143 Eu120 2.349 . S
O143 C122 1.265 . S
C144 C145 1.379 . S
C144 C148 1.373 . S
C144 C150 1.505 . S
C145 C144 1.379 . S
C145 C147 1.369 . S
C145 H156 0.930 . S
C146 C148 1.383 . S
C146 C149 1.382 . S
C146 H157 0.930 . S
C147 C145 1.369 . S
C147 C149 1.392 . S
C147 H158 0.930 . S
C148 C144 1.373 . S
C148 C146 1.383 . S
C148 H159 0.931 . S
C149 C146 1.382 . S
C149 C147 1.392 . S
C150 Eu121 2.828 . S
C150 O134 1.249 . S
C150 O135 1.244 . S
C150 C144 1.505 . S
C151 O138 1.258 . S
C151 O139 1.242 . S
H152 C124 0.930 . S
H153 C125 0.930 . S
H154 C126 0.930 . S
H155 C127 0.931 . S
H156 C145 0.930 . S
H157 C146 0.930 . S
H158 C147 0.930 . S
H159 C148 0.931 . S
Eu160 C169 2.828 1_554 S
Eu160 O171 2.392 . S
Eu160 O173 2.418 . S
Eu160 O178 2.373 . S
Eu160 O181 2.488 1_554 S
Eu160 O182 2.471 1_554 S
Eu160 O183 2.349 . S
Eu161 O170 2.373 . S
Eu161 O174 2.488 . S
Eu161 O175 2.471 . S
Eu161 O176 2.349 . S
Eu161 O179 2.392 . S
Eu161 O180 2.418 . S
Eu161 C190 2.828 . S
C162 O180 1.244 . S
C162 O183 1.265 . S
C163 C164 1.379 . S
C163 C167 1.373 . S
C163 C169 1.505 . S
C164 C163 1.379 . S
C164 C166 1.369 . S
C164 H192 0.930 . S
C165 C167 1.383 . S
C165 C168 1.382 . S
C165 H193 0.930 . S
C166 C164 1.369 . S
C166 C168 1.392 . S
C166 H194 0.930 . S
C167 C163 1.373 . S
C167 C165 1.383 . S
C167 H195 0.931 . S
C168 C165 1.382 . S
C168 C166 1.392 . S
C169 Eu160 2.828 1_556 S
C169 C163 1.505 . S
C169 O181 1.249 . S
C169 O182 1.244 . S
O170 Eu161 2.373 . S
O170 C172 1.258 . S
O171 Eu160 2.392 . S
O171 C172 1.242 . S
C172 O170 1.258 . S
C172 O171 1.242 . S
O173 Eu160 2.418 . S
O173 C177 1.244 . S
O174 Eu161 2.488 . S
O174 C190 1.249 . S
O175 Eu161 2.471 . S
O175 C190 1.244 . S
O176 Eu161 2.349 . S
O176 C177 1.265 . S
C177 O173 1.244 . S
C177 O176 1.265 . S
O178 Eu160 2.373 . S
O178 C191 1.258 . S
O179 Eu161 2.392 . S
O179 C191 1.242 . S
O180 Eu161 2.418 . S
O180 C162 1.244 . S
O181 Eu160 2.488 1_556 S
O181 C169 1.249 . S
O182 Eu160 2.471 1_556 S
O182 C169 1.244 . S
O183 Eu160 2.349 . S
O183 C162 1.265 . S
C184 C185 1.379 . S
C184 C188 1.373 . S
C184 C190 1.505 . S
C185 C184 1.379 . S
C185 C187 1.369 . S
C185 H196 0.930 . S
C186 C188 1.383 . S
C186 C189 1.382 . S
C186 H197 0.930 . S
C187 C185 1.369 . S
C187 C189 1.392 . S
C187 H198 0.930 . S
C188 C184 1.373 . S
C188 C186 1.383 . S
C188 H199 0.931 . S
C189 C186 1.382 . S
C189 C187 1.392 . S
C190 Eu161 2.828 . S
C190 O174 1.249 . S
C190 O175 1.244 . S
C190 C184 1.505 . S
C191 O178 1.258 . S
C191 O179 1.242 . S
H192 C164 0.930 . S
H193 C165 0.930 . S
H194 C166 0.930 . S
H195 C167 0.931 . S
H196 C185 0.930 . S
H197 C186 0.930 . S
H198 C187 0.930 . S
H199 C188 0.931 . S
Eu200 C209 2.828 . S
Eu200 O211 2.392 . S
Eu200 O213 2.418 . S
Eu200 O218 2.373 . S
Eu200 O221 2.488 . S
Eu200 O222 2.471 . S
Eu200 O223 2.349 . S
Eu201 O210 2.373 . S
Eu201 O214 2.488 1_556 S
Eu201 O215 2.471 1_556 S
Eu201 O216 2.349 . S
Eu201 O219 2.392 . S
Eu201 O220 2.418 . S
Eu201 C230 2.828 1_556 S
C202 O220 1.244 . S
C202 O223 1.265 . S
C203 C204 1.379 . S
C203 C207 1.373 . S
C203 C209 1.505 . S
C204 C203 1.379 . S
C204 C206 1.369 . S
C204 H232 0.930 . S
C205 C207 1.383 . S
C205 C208 1.382 . S
C205 H233 0.930 . S
C206 C204 1.369 . S
C206 C208 1.392 . S
C206 H234 0.930 . S
C207 C203 1.373 . S
C207 C205 1.383 . S
C207 H235 0.931 . S
C208 C205 1.382 . S
C208 C206 1.392 . S
C209 Eu200 2.828 . S
C209 C203 1.505 . S
C209 O221 1.249 . S
C209 O222 1.244 . S
O210 Eu201 2.373 . S
O210 C212 1.258 . S
O211 Eu200 2.392 . S
O211 C212 1.242 . S
C212 O210 1.258 . S
C212 O211 1.242 . S
O213 Eu200 2.418 . S
O213 C217 1.244 . S
O214 Eu201 2.488 1_554 S
O214 C230 1.249 . S
O215 Eu201 2.471 1_554 S
O215 C230 1.244 . S
O216 Eu201 2.349 . S
O216 C217 1.265 . S
C217 O213 1.244 . S
C217 O216 1.265 . S
O218 Eu200 2.373 . S
O218 C231 1.258 . S
O219 Eu201 2.392 . S
O219 C231 1.242 . S
O220 Eu201 2.418 . S
O220 C202 1.244 . S
O221 Eu200 2.488 . S
O221 C209 1.249 . S
O222 Eu200 2.471 . S
O222 C209 1.244 . S
O223 Eu200 2.349 . S
O223 C202 1.265 . S
C224 C225 1.379 . S
C224 C228 1.373 . S
C224 C230 1.505 . S
C225 C224 1.379 . S
C225 C227 1.369 . S
C225 H236 0.930 . S
C226 C228 1.383 . S
C226 C229 1.382 . S
C226 H237 0.930 . S
C227 C225 1.369 . S
C227 C229 1.392 . S
C227 H238 0.930 . S
C228 C224 1.373 . S
C228 C226 1.383 . S
C228 H239 0.931 . S
C229 C226 1.382 . S
C229 C227 1.392 . S
C230 Eu201 2.828 1_554 S
C230 O214 1.249 . S
C230 O215 1.244 . S
C230 C224 1.505 . S
C231 O218 1.258 . S
C231 O219 1.242 . S
H232 C204 0.930 . S
H233 C205 0.930 . S
H234 C206 0.930 . S
H235 C207 0.931 . S
H236 C225 0.930 . S
H237 C226 0.930 . S
H238 C227 0.930 . S
H239 C228 0.931 . S
Eu240 C249 2.828 1_554 S
Eu240 O251 2.392 . S
Eu240 O253 2.418 . S
Eu240 O258 2.373 . S
Eu240 O261 2.488 1_554 S
Eu240 O262 2.471 1_554 S
Eu240 O263 2.349 . S
Eu241 O250 2.373 . S
Eu241 O254 2.488 . S
Eu241 O255 2.471 . S
Eu241 O256 2.349 . S
Eu241 O259 2.392 . S
Eu241 O260 2.418 . S
Eu241 C270 2.828 . S
C242 O260 1.244 . S
C242 O263 1.265 . S
C243 C244 1.379 . S
C243 C247 1.373 . S
C243 C249 1.505 . S
C244 C243 1.379 . S
C244 C246 1.369 . S
C244 H272 0.930 . S
C245 C247 1.383 . S
C245 C248 1.382 . S
C245 H273 0.930 . S
C246 C244 1.369 . S
C246 C248 1.392 . S
C246 H274 0.930 . S
C247 C243 1.373 . S
C247 C245 1.383 . S
C247 H275 0.931 . S
C248 C245 1.382 . S
C248 C246 1.392 . S
C249 Eu240 2.828 1_556 S
C249 C243 1.505 . S
C249 O261 1.249 . S
C249 O262 1.244 . S
O250 Eu241 2.373 . S
O250 C252 1.258 . S
O251 Eu240 2.392 . S
O251 C252 1.242 . S
C252 O250 1.258 . S
C252 O251 1.242 . S
O253 Eu240 2.418 . S
O253 C257 1.244 . S
O254 Eu241 2.488 . S
O254 C270 1.249 . S
O255 Eu241 2.471 . S
O255 C270 1.244 . S
O256 Eu241 2.349 . S
O256 C257 1.265 . S
C257 O253 1.244 . S
C257 O256 1.265 . S
O258 Eu240 2.373 . S
O258 C271 1.258 . S
O259 Eu241 2.392 . S
O259 C271 1.242 . S
O260 Eu241 2.418 . S
O260 C242 1.244 . S
O261 Eu240 2.488 1_556 S
O261 C249 1.249 . S
O262 Eu240 2.471 1_556 S
O262 C249 1.244 . S
O263 Eu240 2.349 . S
O263 C242 1.265 . S
C264 C265 1.379 . S
C264 C268 1.373 . S
C264 C270 1.505 . S
C265 C264 1.379 . S
C265 C267 1.369 . S
C265 H276 0.930 . S
C266 C268 1.383 . S
C266 C269 1.382 . S
C266 H277 0.930 . S
C267 C265 1.369 . S
C267 C269 1.392 . S
C267 H278 0.930 . S
C268 C264 1.373 . S
C268 C266 1.383 . S
C268 H279 0.931 . S
C269 C266 1.382 . S
C269 C267 1.392 . S
C270 Eu241 2.828 . S
C270 O254 1.249 . S
C270 O255 1.244 . S
C270 C264 1.505 . S
C271 O258 1.258 . S
C271 O259 1.242 . S
H272 C244 0.930 . S
H273 C245 0.930 . S
H274 C246 0.930 . S
H275 C247 0.931 . S
H276 C265 0.930 . S
H277 C266 0.930 . S
H278 C267 0.930 . S
H279 C268 0.931 . S
Eu280 C289 2.828 . S
Eu280 O291 2.392 . S
Eu280 O293 2.418 . S
Eu280 O298 2.373 . S
Eu280 O301 2.488 . S
Eu280 O302 2.471 . S
Eu280 O303 2.349 . S
Eu281 O290 2.373 . S
Eu281 O294 2.488 1_556 S
Eu281 O295 2.471 1_556 S
Eu281 O296 2.349 . S
Eu281 O299 2.392 . S
Eu281 O300 2.418 . S
Eu281 C310 2.828 1_556 S
C282 O300 1.244 . S
C282 O303 1.265 . S
C283 C284 1.379 . S
C283 C287 1.373 . S
C283 C289 1.505 . S
C284 C283 1.379 . S
C284 C286 1.369 . S
C284 H312 0.930 . S
C285 C287 1.383 . S
C285 C288 1.382 . S
C285 H313 0.930 . S
C286 C284 1.369 . S
C286 C288 1.392 . S
C286 H314 0.930 . S
C287 C283 1.373 . S
C287 C285 1.383 . S
C287 H315 0.931 . S
C288 C285 1.382 . S
C288 C286 1.392 . S
C289 Eu280 2.828 . S
C289 C283 1.505 . S
C289 O301 1.249 . S
C289 O302 1.244 . S
O290 Eu281 2.373 . S
O290 C292 1.258 . S
O291 Eu280 2.392 . S
O291 C292 1.242 . S
C292 O290 1.258 . S
C292 O291 1.242 . S
O293 Eu280 2.418 . S
O293 C297 1.244 . S
O294 Eu281 2.488 1_554 S
O294 C310 1.249 . S
O295 Eu281 2.471 1_554 S
O295 C310 1.244 . S
O296 Eu281 2.349 . S
O296 C297 1.265 . S
C297 O293 1.244 . S
C297 O296 1.265 . S
O298 Eu280 2.373 . S
O298 C311 1.258 . S
O299 Eu281 2.392 . S
O299 C311 1.242 . S
O300 Eu281 2.418 . S
O300 C282 1.244 . S
O301 Eu280 2.488 . S
O301 C289 1.249 . S
O302 Eu280 2.471 . S
O302 C289 1.244 . S
O303 Eu280 2.349 . S
O303 C282 1.265 . S
C304 C305 1.379 . S
C304 C308 1.373 . S
C304 C310 1.505 . S
C305 C304 1.379 . S
C305 C307 1.369 . S
C305 H316 0.930 . S
C306 C308 1.383 . S
C306 C309 1.382 . S
C306 H317 0.930 . S
C307 C305 1.369 . S
C307 C309 1.392 . S
C307 H318 0.930 . S
C308 C304 1.373 . S
C308 C306 1.383 . S
C308 H319 0.931 . S
C309 C306 1.382 . S
C309 C307 1.392 . S
C310 Eu281 2.828 1_554 S
C310 O294 1.249 . S
C310 O295 1.244 . S
C310 C304 1.505 . S
C311 O298 1.258 . S
C311 O299 1.242 . S
H312 C284 0.930 . S
H313 C285 0.930 . S
H314 C286 0.930 . S
H315 C287 0.931 . S
H316 C305 0.930 . S
H317 C306 0.930 . S
H318 C307 0.930 . S
H319 C308 0.931 . S
Eu320 C329 2.828 . S
Eu320 O331 2.392 . S
Eu320 O333 2.418 . S
Eu320 O338 2.373 . S
Eu320 O341 2.488 . S
Eu320 O342 2.471 . S
Eu320 O343 2.349 . S
Eu321 O330 2.373 . S
Eu321 O334 2.488 . S
Eu321 O335 2.471 . S
Eu321 O336 2.349 . S
Eu321 O339 2.392 . S
Eu321 O340 2.418 . S
Eu321 C350 2.828 . S
C322 O340 1.244 . S
C322 O343 1.265 . S
C323 C324 1.379 . S
C323 C327 1.373 . S
C323 C329 1.505 . S
C324 C323 1.379 . S
C324 C326 1.369 . S
C324 H352 0.930 . S
C325 C327 1.383 . S
C325 C328 1.382 1_556 S
C325 H353 0.930 1_556 S
C326 C324 1.369 . S
C326 C328 1.392 1_556 S
C326 H354 0.937 . S
C327 C323 1.373 . S
C327 C325 1.383 . S
C327 H355 0.931 . S
C328 C325 1.382 1_554 S
C328 C326 1.392 1_554 S
C329 Eu320 2.828 . S
C329 C323 1.505 . S
C329 O341 1.249 . S
C329 O342 1.244 . S
O330 Eu321 2.373 . S
O330 C332 1.258 . S
O331 Eu320 2.392 . S
O331 C332 1.242 . S
C332 O330 1.258 . S
C332 O331 1.242 . S
O333 Eu320 2.418 . S
O333 C337 1.244 . S
O334 Eu321 2.488 . S
O334 C350 1.249 . S
O335 Eu321 2.471 . S
O335 C350 1.244 . S
O336 Eu321 2.349 . S
O336 C337 1.265 . S
C337 O333 1.244 . S
C337 O336 1.265 . S
O338 Eu320 2.373 . S
O338 C351 1.258 . S
O339 Eu321 2.392 . S
O339 C351 1.242 . S
O340 Eu321 2.418 . S
O340 C322 1.244 . S
O341 Eu320 2.488 . S
O341 C329 1.249 . S
O342 Eu320 2.471 . S
O342 C329 1.244 . S
O343 Eu320 2.349 . S
O343 C322 1.265 . S
C344 C345 1.379 . S
C344 C348 1.373 . S
C344 C350 1.505 . S
C345 C344 1.379 . S
C345 C347 1.369 . S
C345 H356 0.930 . S
C346 C348 1.383 . S
C346 C349 1.382 . S
C346 H357 0.930 . S
C347 C345 1.369 . S
C347 C349 1.392 . S
C347 H358 0.930 . S
C348 C344 1.373 . S
C348 C346 1.383 . S
C348 H359 0.931 . S
C349 C346 1.382 . S
C349 C347 1.392 . S
C350 Eu321 2.828 . S
C350 O334 1.249 . S
C350 O335 1.244 . S
C350 C344 1.505 . S
C351 O338 1.258 . S
C351 O339 1.242 . S
H352 C324 0.930 . S
H353 C325 0.930 1_554 S
H354 C326 0.937 . S
H355 C327 0.931 . S
H356 C345 0.930 . S
H357 C346 0.930 . S
H358 C347 0.930 . S
H359 C348 0.931 . S
Eu360 C369 2.828 . S
Eu360 O371 2.392 . S
Eu360 O373 2.418 . S
Eu360 O378 2.373 . S
Eu360 O381 2.488 . S
Eu360 O382 2.471 . S
Eu360 O383 2.349 . S
Eu361 O370 2.373 . S
Eu361 O374 2.488 . S
Eu361 O375 2.471 . S
Eu361 O376 2.349 . S
Eu361 O379 2.392 . S
Eu361 O380 2.418 . S
Eu361 C390 2.828 . S
C362 O380 1.244 . S
C362 O383 1.265 . S
C363 C364 1.379 . S
C363 C367 1.373 . S
C363 C369 1.505 . S
C364 C363 1.379 . S
C364 C366 1.369 . S
C364 H392 0.930 . S
C365 C367 1.383 . S
C365 C368 1.382 . S
C365 H393 0.930 . S
C366 C364 1.369 . S
C366 C368 1.392 . S
C366 H394 0.930 . S
C367 C363 1.373 . S
C367 C365 1.383 . S
C367 H395 0.931 . S
C368 C365 1.382 . S
C368 C366 1.392 . S
C369 Eu360 2.828 . S
C369 C363 1.505 . S
C369 O381 1.249 . S
C369 O382 1.244 . S
O370 Eu361 2.373 . S
O370 C372 1.258 . S
O371 Eu360 2.392 . S
O371 C372 1.242 . S
C372 O370 1.258 . S
C372 O371 1.242 . S
O373 Eu360 2.418 . S
O373 C377 1.244 . S
O374 Eu361 2.488 . S
O374 C390 1.249 . S
O375 Eu361 2.471 . S
O375 C390 1.244 . S
O376 Eu361 2.349 . S
O376 C377 1.265 . S
C377 O373 1.244 . S
C377 O376 1.265 . S
O378 Eu360 2.373 . S
O378 C391 1.258 . S
O379 Eu361 2.392 . S
O379 C391 1.242 . S
O380 Eu361 2.418 . S
O380 C362 1.244 . S
O381 Eu360 2.488 . S
O381 C369 1.249 . S
O382 Eu360 2.471 . S
O382 C369 1.244 . S
O383 Eu360 2.349 . S
O383 C362 1.265 . S
C384 C385 1.379 . S
C384 C388 1.373 . S
C384 C390 1.505 . S
C385 C384 1.379 . S
C385 C387 1.369 . S
C385 H396 0.930 . S
C386 C388 1.383 . S
C386 C389 1.382 1_554 S
C386 H397 0.930 1_554 S
C387 C385 1.369 . S
C387 C389 1.392 1_554 S
C387 H398 0.937 . S
C388 C384 1.373 . S
C388 C386 1.383 . S
C388 H399 0.931 . S
C389 C386 1.382 1_556 S
C389 C387 1.392 1_556 S
C390 Eu361 2.828 . S
C390 O374 1.249 . S
C390 O375 1.244 . S
C390 C384 1.505 . S
C391 O378 1.258 . S
C391 O379 1.242 . S
H392 C364 0.930 . S
H393 C365 0.930 . S
H394 C366 0.930 . S
H395 C367 0.931 . S
H396 C385 0.930 . S
H397 C386 0.930 1_556 S
H398 C387 0.937 . S
H399 C388 0.931 . S
Eu400 C409 2.828 . S
Eu400 O411 2.392 . S
Eu400 O413 2.418 . S
Eu400 O418 2.373 . S
Eu400 O421 2.488 . S
Eu400 O422 2.471 . S
Eu400 O423 2.349 . S
Eu401 O410 2.373 . S
Eu401 O414 2.488 . S
Eu401 O415 2.471 . S
Eu401 O416 2.349 . S
Eu401 O419 2.392 . S
Eu401 O420 2.418 . S
Eu401 C430 2.828 . S
C402 O420 1.244 . S
C402 O423 1.265 . S
C403 C404 1.379 . S
C403 C407 1.373 . S
C403 C409 1.505 . S
C404 C403 1.379 . S
C404 C406 1.369 . S
C404 H432 0.930 . S
C405 C407 1.383 . S
C405 C408 1.382 1_556 S
C405 H433 0.930 1_556 S
C406 C404 1.369 . S
C406 C408 1.392 1_556 S
C406 H434 0.937 . S
C407 C403 1.373 . S
C407 C405 1.383 . S
C407 H435 0.931 . S
C408 C405 1.382 1_554 S
C408 C406 1.392 1_554 S
C409 Eu400 2.828 . S
C409 C403 1.505 . S
C409 O421 1.249 . S
C409 O422 1.244 . S
O410 Eu401 2.373 . S
O410 C412 1.258 . S
O411 Eu400 2.392 . S
O411 C412 1.242 . S
C412 O410 1.258 . S
C412 O411 1.242 . S
O413 Eu400 2.418 . S
O413 C417 1.244 . S
O414 Eu401 2.488 . S
O414 C430 1.249 . S
O415 Eu401 2.471 . S
O415 C430 1.244 . S
O416 Eu401 2.349 . S
O416 C417 1.265 . S
C417 O413 1.244 . S
C417 O416 1.265 . S
O418 Eu400 2.373 . S
O418 C431 1.258 . S
O419 Eu401 2.392 . S
O419 C431 1.242 . S
O420 Eu401 2.418 . S
O420 C402 1.244 . S
O421 Eu400 2.488 . S
O421 C409 1.249 . S
O422 Eu400 2.471 . S
O422 C409 1.244 . S
O423 Eu400 2.349 . S
O423 C402 1.265 . S
C424 C425 1.379 . S
C424 C428 1.373 . S
C424 C430 1.505 . S
C425 C424 1.379 . S
C425 C427 1.369 . S
C425 H436 0.930 . S
C426 C428 1.383 . S
C426 C429 1.382 . S
C426 H437 0.930 . S
C427 C425 1.369 . S
C427 C429 1.392 . S
C427 H438 0.930 . S
C428 C424 1.373 . S
C428 C426 1.383 . S
C428 H439 0.931 . S
C429 C426 1.382 . S
C429 C427 1.392 . S
C430 Eu401 2.828 . S
C430 O414 1.249 . S
C430 O415 1.244 . S
C430 C424 1.505 . S
C431 O418 1.258 . S
C431 O419 1.242 . S
H432 C404 0.930 . S
H433 C405 0.930 1_554 S
H434 C406 0.937 . S
H435 C407 0.931 . S
H436 C425 0.930 . S
H437 C426 0.930 . S
H438 C427 0.930 . S
H439 C428 0.931 . S
Eu440 C449 2.828 . S
Eu440 O451 2.392 . S
Eu440 O453 2.418 . S
Eu440 O458 2.373 . S
Eu440 O461 2.488 . S
Eu440 O462 2.471 . S
Eu440 O463 2.349 . S
Eu441 O450 2.373 . S
Eu441 O454 2.488 . S
Eu441 O455 2.471 . S
Eu441 O456 2.349 . S
Eu441 O459 2.392 . S
Eu441 O460 2.418 . S
Eu441 C470 2.828 . S
C442 O460 1.244 . S
C442 O463 1.265 . S
C443 C444 1.379 . S
C443 C447 1.373 . S
C443 C449 1.505 . S
C444 C443 1.379 . S
C444 C446 1.369 . S
C444 H472 0.930 . S
C445 C447 1.383 . S
C445 C448 1.382 . S
C445 H473 0.930 . S
C446 C444 1.369 . S
C446 C448 1.392 . S
C446 H474 0.930 . S
C447 C443 1.373 . S
C447 C445 1.383 . S
C447 H475 0.931 . S
C448 C445 1.382 . S
C448 C446 1.392 . S
C449 Eu440 2.828 . S
C449 C443 1.505 . S
C449 O461 1.249 . S
C449 O462 1.244 . S
O450 Eu441 2.373 . S
O450 C452 1.258 . S
O451 Eu440 2.392 . S
O451 C452 1.242 . S
C452 O450 1.258 . S
C452 O451 1.242 . S
O453 Eu440 2.418 . S
O453 C457 1.244 . S
O454 Eu441 2.488 . S
O454 C470 1.249 . S
O455 Eu441 2.471 . S
O455 C470 1.244 . S
O456 Eu441 2.349 . S
O456 C457 1.265 . S
C457 O453 1.244 . S
C457 O456 1.265 . S
O458 Eu440 2.373 . S
O458 C471 1.258 . S
O459 Eu441 2.392 . S
O459 C471 1.242 . S
O460 Eu441 2.418 . S
O460 C442 1.244 . S
O461 Eu440 2.488 . S
O461 C449 1.249 . S
O462 Eu440 2.471 . S
O462 C449 1.244 . S
O463 Eu440 2.349 . S
O463 C442 1.265 . S
C464 C465 1.379 . S
C464 C468 1.373 . S
C464 C470 1.505 . S
C465 C464 1.379 . S
C465 C467 1.369 . S
C465 H476 0.930 . S
C466 C468 1.383 . S
C466 C469 1.382 1_554 S
C466 H477 0.930 1_554 S
C467 C465 1.369 . S
C467 C469 1.392 1_554 S
C467 H478 0.937 . S
C468 C464 1.373 . S
C468 C466 1.383 . S
C468 H479 0.931 . S
C469 C466 1.382 1_556 S
C469 C467 1.392 1_556 S
C470 Eu441 2.828 . S
C470 O454 1.249 . S
C470 O455 1.244 . S
C470 C464 1.505 . S
C471 O458 1.258 . S
C471 O459 1.242 . S
H472 C444 0.930 . S
H473 C445 0.930 . S
H474 C446 0.930 . S
H475 C447 0.931 . S
H476 C465 0.930 . S
H477 C466 0.930 1_556 S
H478 C467 0.937 . S
H479 C468 0.931 . S
Eu480 C489 2.828 . S
Eu480 O491 2.392 . S
Eu480 O493 2.418 . S
Eu480 O498 2.373 . S
Eu480 O501 2.488 . S
Eu480 O502 2.471 . S
Eu480 O503 2.349 . S
Eu481 O490 2.373 . S
Eu481 O494 2.488 . S
Eu481 O495 2.471 . S
Eu481 O496 2.349 . S
Eu481 O499 2.392 . S
Eu481 O500 2.418 . S
Eu481 C510 2.828 . S
C482 O500 1.244 . S
C482 O503 1.265 . S
C483 C484 1.379 . S
C483 C487 1.373 . S
C483 C489 1.505 . S
C484 C483 1.379 . S
C484 C486 1.369 . S
C484 H512 0.930 . S
C485 C487 1.383 . S
C485 C488 1.382 . S
C485 H513 0.930 . S
C486 C484 1.369 . S
C486 C488 1.392 . S
C486 H514 0.930 . S
C487 C483 1.373 . S
C487 C485 1.383 . S
C487 H515 0.931 . S
C488 C485 1.382 . S
C488 C486 1.392 . S
C489 Eu480 2.828 . S
C489 C483 1.505 . S
C489 O501 1.249 . S
C489 O502 1.244 . S
O490 Eu481 2.373 . S
O490 C492 1.258 . S
O491 Eu480 2.392 . S
O491 C492 1.242 . S
C492 O490 1.258 . S
C492 O491 1.242 . S
O493 Eu480 2.418 . S
O493 C497 1.244 . S
O494 Eu481 2.488 . S
O494 C510 1.249 . S
O495 Eu481 2.471 . S
O495 C510 1.244 . S
O496 Eu481 2.349 . S
O496 C497 1.265 . S
C497 O493 1.244 . S
C497 O496 1.265 . S
O498 Eu480 2.373 . S
O498 C511 1.258 . S
O499 Eu481 2.392 . S
O499 C511 1.242 . S
O500 Eu481 2.418 . S
O500 C482 1.244 . S
O501 Eu480 2.488 . S
O501 C489 1.249 . S
O502 Eu480 2.471 . S
O502 C489 1.244 . S
O503 Eu480 2.349 . S
O503 C482 1.265 . S
C504 C505 1.379 . S
C504 C508 1.373 . S
C504 C510 1.505 . S
C505 C504 1.379 . S
C505 C507 1.369 . S
C505 H516 0.930 . S
C506 C508 1.383 . S
C506 C509 1.382 1_556 S
C506 H517 0.930 1_556 S
C507 C505 1.369 . S
C507 C509 1.392 1_556 S
C507 H518 0.930 . S
C508 C504 1.373 . S
C508 C506 1.383 . S
C508 H519 0.931 . S
C509 C506 1.382 1_554 S
C509 C507 1.392 1_554 S
C510 Eu481 2.828 . S
C510 O494 1.249 . S
C510 O495 1.244 . S
C510 C504 1.505 . S
C511 O498 1.258 . S
C511 O499 1.242 . S
H512 C484 0.930 . S
H513 C485 0.930 . S
H514 C486 0.930 . S
H515 C487 0.931 . S
H516 C505 0.930 . S
H517 C506 0.930 1_554 S
H518 C507 0.930 . S
H519 C508 0.931 . S
Eu520 C529 2.828 . S
Eu520 O531 2.392 . S
Eu520 O533 2.418 . S
Eu520 O538 2.373 . S
Eu520 O541 2.488 . S
Eu520 O542 2.471 . S
Eu520 O543 2.349 . S
Eu521 O530 2.373 . S
Eu521 O534 2.488 . S
Eu521 O535 2.471 . S
Eu521 O536 2.349 . S
Eu521 O539 2.392 . S
Eu521 O540 2.418 . S
Eu521 C550 2.828 . S
C522 O540 1.244 . S
C522 O543 1.265 . S
C523 C524 1.379 . S
C523 C527 1.373 . S
C523 C529 1.505 . S
C524 C523 1.379 . S
C524 C526 1.369 . S
C524 H552 0.930 . S
C525 C527 1.383 . S
C525 C528 1.382 1_554 S
C525 H553 0.930 1_554 S
C526 C524 1.369 . S
C526 C528 1.392 1_554 S
C526 H554 0.930 . S
C527 C523 1.373 . S
C527 C525 1.383 . S
C527 H555 0.931 . S
C528 C525 1.382 1_556 S
C528 C526 1.392 1_556 S
C529 Eu520 2.828 . S
C529 C523 1.505 . S
C529 O541 1.249 . S
C529 O542 1.244 . S
O530 Eu521 2.373 . S
O530 C532 1.258 . S
O531 Eu520 2.392 . S
O531 C532 1.242 . S
C532 O530 1.258 . S
C532 O531 1.242 . S
O533 Eu520 2.418 . S
O533 C537 1.244 . S
O534 Eu521 2.488 . S
O534 C550 1.249 . S
O535 Eu521 2.471 . S
O535 C550 1.244 . S
O536 Eu521 2.349 . S
O536 C537 1.265 . S
C537 O533 1.244 . S
C537 O536 1.265 . S
O538 Eu520 2.373 . S
O538 C551 1.258 . S
O539 Eu521 2.392 . S
O539 C551 1.242 . S
O540 Eu521 2.418 . S
O540 C522 1.244 . S
O541 Eu520 2.488 . S
O541 C529 1.249 . S
O542 Eu520 2.471 . S
O542 C529 1.244 . S
O543 Eu520 2.349 . S
O543 C522 1.265 . S
C544 C545 1.379 . S
C544 C548 1.373 . S
C544 C550 1.505 . S
C545 C544 1.379 . S
C545 C547 1.369 . S
C545 H556 0.930 . S
C546 C548 1.383 . S
C546 C549 1.382 . S
C546 H557 0.930 . S
C547 C545 1.369 . S
C547 C549 1.392 . S
C547 H558 0.930 . S
C548 C544 1.373 . S
C548 C546 1.383 . S
C548 H559 0.931 . S
C549 C546 1.382 . S
C549 C547 1.392 . S
C550 Eu521 2.828 . S
C550 O534 1.249 . S
C550 O535 1.244 . S
C550 C544 1.505 . S
C551 O538 1.258 . S
C551 O539 1.242 . S
H552 C524 0.930 . S
H553 C525 0.930 1_556 S
H554 C526 0.930 . S
H555 C527 0.931 . S
H556 C545 0.930 . S
H557 C546 0.930 . S
H558 C547 0.930 . S
H559 C548 0.931 . S
Eu560 C569 2.828 . S
Eu560 O571 2.392 . S
Eu560 O573 2.418 . S
Eu560 O578 2.373 . S
Eu560 O581 2.488 . S
Eu560 O582 2.471 . S
Eu560 O583 2.349 . S
Eu561 O570 2.373 . S
Eu561 O574 2.488 . S
Eu561 O575 2.471 . S
Eu561 O576 2.349 . S
Eu561 O579 2.392 . S
Eu561 O580 2.418 . S
Eu561 C590 2.828 . S
C562 O580 1.244 . S
C562 O583 1.265 . S
C563 C564 1.379 . S
C563 C567 1.373 . S
C563 C569 1.505 . S
C564 C563 1.379 . S
C564 C566 1.369 . S
C564 H592 0.930 . S
C565 C567 1.383 . S
C565 C568 1.382 . S
C565 H593 0.930 . S
C566 C564 1.369 . S
C566 C568 1.392 . S
C566 H594 0.930 . S
C567 C563 1.373 . S
C567 C565 1.383 . S
C567 H595 0.931 . S
C568 C565 1.382 . S
C568 C566 1.392 . S
C569 Eu560 2.828 . S
C569 C563 1.505 . S
C569 O581 1.249 . S
C569 O582 1.244 . S
O570 Eu561 2.373 . S
O570 C572 1.258 . S
O571 Eu560 2.392 . S
O571 C572 1.242 . S
C572 O570 1.258 . S
C572 O571 1.242 . S
O573 Eu560 2.418 . S
O573 C577 1.244 . S
O574 Eu561 2.488 . S
O574 C590 1.249 . S
O575 Eu561 2.471 . S
O575 C590 1.244 . S
O576 Eu561 2.349 . S
O576 C577 1.265 . S
C577 O573 1.244 . S
C577 O576 1.265 . S
O578 Eu560 2.373 . S
O578 C591 1.258 . S
O579 Eu561 2.392 . S
O579 C591 1.242 . S
O580 Eu561 2.418 . S
O580 C562 1.244 . S
O581 Eu560 2.488 . S
O581 C569 1.249 . S
O582 Eu560 2.471 . S
O582 C569 1.244 . S
O583 Eu560 2.349 . S
O583 C562 1.265 . S
C584 C585 1.379 . S
C584 C588 1.373 . S
C584 C590 1.505 . S
C585 C584 1.379 . S
C585 C587 1.369 . S
C585 H596 0.930 . S
C586 C588 1.383 . S
C586 C589 1.382 1_556 S
C586 H597 0.930 1_556 S
C587 C585 1.369 . S
C587 C589 1.392 1_556 S
C587 H598 0.930 . S
C588 C584 1.373 . S
C588 C586 1.383 . S
C588 H599 0.931 . S
C589 C586 1.382 1_554 S
C589 C587 1.392 1_554 S
C590 Eu561 2.828 . S
C590 O574 1.249 . S
C590 O575 1.244 . S
C590 C584 1.505 . S
C591 O578 1.258 . S
C591 O579 1.242 . S
H592 C564 0.930 . S
H593 C565 0.930 . S
H594 C566 0.930 . S
H595 C567 0.931 . S
H596 C585 0.930 . S
H597 C586 0.930 1_554 S
H598 C587 0.930 . S
H599 C588 0.931 . S
Eu600 C609 2.828 . S
Eu600 O611 2.392 . S
Eu600 O613 2.418 . S
Eu600 O618 2.373 . S
Eu600 O621 2.488 . S
Eu600 O622 2.471 . S
Eu600 O623 2.349 . S
Eu601 O610 2.373 . S
Eu601 O614 2.488 . S
Eu601 O615 2.471 . S
Eu601 O616 2.349 . S
Eu601 O619 2.392 . S
Eu601 O620 2.418 . S
Eu601 C630 2.828 . S
C602 O620 1.244 . S
C602 O623 1.265 . S
C603 C604 1.379 . S
C603 C607 1.373 . S
C603 C609 1.505 . S
C604 C603 1.379 . S
C604 C606 1.369 . S
C604 H632 0.930 . S
C605 C607 1.383 . S
C605 C608 1.382 1_554 S
C605 H633 0.930 1_554 S
C606 C604 1.369 . S
C606 C608 1.392 1_554 S
C606 H634 0.930 . S
C607 C603 1.373 . S
C607 C605 1.383 . S
C607 H635 0.931 . S
C608 C605 1.382 1_556 S
C608 C606 1.392 1_556 S
C609 Eu600 2.828 . S
C609 C603 1.505 . S
C609 O621 1.249 . S
C609 O622 1.244 . S
O610 Eu601 2.373 . S
O610 C612 1.258 . S
O611 Eu600 2.392 . S
O611 C612 1.242 . S
C612 O610 1.258 . S
C612 O611 1.242 . S
O613 Eu600 2.418 . S
O613 C617 1.244 . S
O614 Eu601 2.488 . S
O614 C630 1.249 . S
O615 Eu601 2.471 . S
O615 C630 1.244 . S
O616 Eu601 2.349 . S
O616 C617 1.265 . S
C617 O613 1.244 . S
C617 O616 1.265 . S
O618 Eu600 2.373 . S
O618 C631 1.258 . S
O619 Eu601 2.392 . S
O619 C631 1.242 . S
O620 Eu601 2.418 . S
O620 C602 1.244 . S
O621 Eu600 2.488 . S
O621 C609 1.249 . S
O622 Eu600 2.471 . S
O622 C609 1.244 . S
O623 Eu600 2.349 . S
O623 C602 1.265 . S
C624 C625 1.379 . S
C624 C628 1.373 . S
C624 C630 1.505 . S
C625 C624 1.379 . S
C625 C627 1.369 . S
C625 H636 0.930 . S
C626 C628 1.383 . S
C626 C629 1.382 . S
C626 H637 0.930 . S
C627 C625 1.369 . S
C627 C629 1.392 . S
C627 H638 0.930 . S
C628 C624 1.373 . S
C628 C626 1.383 . S
C628 H639 0.931 . S
C629 C626 1.382 . S
C629 C627 1.392 . S
C630 Eu601 2.828 . S
C630 O614 1.249 . S
C630 O615 1.244 . S
C630 C624 1.505 . S
C631 O618 1.258 . S
C631 O619 1.242 . S
H632 C604 0.930 . S
H633 C605 0.930 1_556 S
H634 C606 0.930 . S
H635 C607 0.931 . S
H636 C625 0.930 . S
H637 C626 0.930 . S
H638 C627 0.930 . S
H639 C628 0.931 . S
C640 C641 1.369 . S
C640 C642 1.419 . S
C640 H644 0.930 . S
C641 C640 1.369 . S
C641 C650 1.429 . S
C642 C640 1.419 . S
C642 C643 1.363 . S
C642 H645 0.929 . S
C643 C642 1.363 . S
C643 C649 1.428 . S
H644 C640 0.930 . S
H645 C642 0.929 . S
S646 N647 1.613 1_545 S
S646 N648 1.610 . S
N647 S646 1.613 1_565 S
N647 C650 1.350 . S
N648 S646 1.610 . S
N648 C649 1.351 1_545 S
C649 C643 1.428 . S
C649 N648 1.351 1_565 S
C649 C650 1.434 . S
C650 C641 1.429 . S
C650 N647 1.350 . S
C650 C649 1.434 . S
C651 C652 1.369 . S
C651 C653 1.419 . S
C651 H655 0.930 . S
C652 C651 1.369 . S
C652 C661 1.429 . S
C653 C651 1.419 . S
C653 C654 1.363 . S
C653 H656 0.929 . S
C654 C653 1.363 . S
C654 C660 1.428 . S
H655 C651 0.930 . S
H656 C653 0.929 . S
S657 N658 1.613 . S
S657 N659 1.610 1_655 S
N658 S657 1.613 . S
N658 C661 1.350 . S
N659 S657 1.610 1_455 S
N659 C660 1.351 1_455 S
C660 C654 1.428 . S
C660 N659 1.351 1_655 S
C660 C661 1.434 . S
C661 C652 1.429 . S
C661 N658 1.350 . S
C661 C660 1.434 . S
C662 C663 1.369 . S
C662 C664 1.419 . S
C662 H666 0.930 . S
C663 C662 1.369 . S
C663 C672 1.429 . S
C664 C662 1.419 . S
C664 C665 1.363 . S
C664 H667 0.929 . S
C665 C664 1.363 . S
C665 C671 1.428 . S
H666 C662 0.930 . S
H667 C664 0.929 . S
S668 N669 1.613 . S
S668 N670 1.610 . S
N669 S668 1.613 . S
N669 C672 1.350 . S
N670 S668 1.610 . S
N670 C671 1.351 . S
C671 C665 1.428 . S
C671 N670 1.351 . S
C671 C672 1.434 . S
C672 C663 1.429 . S
C672 N669 1.350 . S
C672 C671 1.434 . S
C673 C674 1.369 . S
C673 C675 1.419 . S
C673 H677 0.930 . S
C674 C673 1.369 . S
C674 C683 1.429 . S
C675 C673 1.419 . S
C675 C676 1.363 . S
C675 H678 0.929 . S
C676 C675 1.363 . S
C676 C682 1.428 . S
H677 C673 0.930 . S
H678 C675 0.929 . S
S679 N680 1.613 . S
S679 N681 1.610 1_655 S
N680 S679 1.613 . S
N680 C683 1.350 1_655 S
N681 S679 1.610 1_455 S
N681 C682 1.351 . S
C682 C676 1.428 . S
C682 N681 1.351 . S
C682 C683 1.434 . S
C683 C674 1.429 . S
C683 N680 1.350 1_455 S
C683 C682 1.434 . S
C684 C685 1.369 . S
C684 C686 1.419 1_554 S
C684 H688 0.930 . S
C685 C684 1.369 . S
C685 C694 1.429 . S
C686 C684 1.419 1_556 S
C686 C687 1.363 1_556 S
C686 H689 0.929 . S
C687 C686 1.363 1_554 S
C687 C693 1.428 . S
H688 C684 0.930 . S
H689 C686 0.929 . S
S690 N691 1.613 . S
S690 N692 1.610 . S
N691 S690 1.613 . S
N691 C694 1.350 . S
N692 S690 1.610 . S
N692 C693 1.351 . S
C693 C687 1.428 . S
C693 N692 1.351 . S
C693 C694 1.434 . S
C694 C685 1.429 . S
C694 N691 1.350 . S
C694 C693 1.434 . S
C695 C696 1.369 . S
C695 C697 1.419 . S
C695 H699 0.930 . S
C696 C695 1.369 . S
C696 C705 1.429 . S
C697 C695 1.419 . S
C697 C698 1.363 . S
C697 H700 0.929 . S
C698 C697 1.363 . S
C698 C704 1.428 . S
H699 C695 0.930 . S
H700 C697 0.929 . S
S701 N702 1.613 . S
S701 N703 1.610 . S
N702 S701 1.613 . S
N702 C705 1.350 . S
N703 S701 1.610 . S
N703 C704 1.351 . S
C704 C698 1.428 . S
C704 N703 1.351 . S
C704 C705 1.434 . S
C705 C696 1.429 . S
C705 N702 1.350 . S
C705 C704 1.434 . S
C706 C707 1.369 . S
C706 C708 1.419 . S
C706 H710 0.930 . S
C707 C706 1.369 . S
C707 C716 1.429 . S
C708 C706 1.419 . S
C708 C709 1.363 . S
C708 H711 0.929 . S
C709 C708 1.363 . S
C709 C715 1.428 1_554 S
H710 C706 0.930 . S
H711 C708 0.929 . S
S712 N713 1.613 . S
S712 N714 1.610 . S
N713 S712 1.613 . S
N713 C716 1.350 1_556 S
N714 S712 1.610 . S
N714 C715 1.351 . S
C715 C709 1.428 1_556 S
C715 N714 1.351 . S
C715 C716 1.434 1_556 S
C716 C707 1.429 . S
C716 N713 1.350 1_554 S
C716 C715 1.434 1_554 S
C717 C718 1.369 . S
C717 C719 1.419 . S
C717 H721 0.930 . S
C718 C717 1.369 . S
C718 C727 1.429 1_556 S
C719 C717 1.419 . S
C719 C720 1.363 . S
C719 H722 0.929 . S
C720 C719 1.363 . S
C720 C726 1.428 . S
H721 C717 0.930 . S
H722 C719 0.929 . S
S723 N724 1.613 . S
S723 N725 1.610 . S
N724 S723 1.613 . S
N724 C727 1.350 . S
N725 S723 1.610 . S
N725 C726 1.351 1_554 S
C726 C720 1.428 . S
C726 N725 1.351 1_556 S
C726 C727 1.434 1_556 S
C727 C718 1.429 1_554 S
C727 N724 1.350 . S
C727 C726 1.434 1_554 S
C728 C729 1.369 . S
C728 C730 1.419 . S
C728 H732 0.930 . S
C729 C728 1.369 . S
C729 C738 1.429 . S
C730 C728 1.419 . S
C730 C731 1.363 . S
C730 H733 0.929 . S
C731 C730 1.363 . S
C731 C737 1.428 . S
H732 C728 0.930 . S
H733 C730 0.929 . S
S734 N735 1.613 . S
S734 N736 1.610 . S
N735 S734 1.613 . S
N735 C738 1.350 . S
N736 S734 1.610 . S
N736 C737 1.351 . S
C737 C731 1.428 . S
C737 N736 1.351 . S
C737 C738 1.434 . S
C738 C729 1.429 . S
C738 N735 1.350 . S
C738 C737 1.434 . S
C739 C740 1.369 . S
C739 C741 1.419 . S
C739 H743 0.930 . S
C740 C739 1.369 . S
C740 C749 1.429 . S
C741 C739 1.419 . S
C741 C742 1.363 . S
C741 H744 0.929 . S
C742 C741 1.363 . S
C742 C748 1.428 . S
H743 C739 0.930 . S
H744 C741 0.929 . S
S745 N746 1.613 . S
S745 N747 1.610 . S
N746 S745 1.613 . S
N746 C749 1.350 . S
N747 S745 1.610 . S
N747 C748 1.351 . S
C748 C742 1.428 . S
C748 N747 1.351 . S
C748 C749 1.434 . S
C749 C740 1.429 . S
C749 N746 1.350 . S
C749 C748 1.434 . S
C750 C751 1.369 . S
C750 C752 1.419 . S
C750 H754 0.930 . S
C751 C750 1.369 . S
C751 C760 1.429 . S
C752 C750 1.419 . S
C752 C753 1.363 . S
C752 H755 0.929 . S
C753 C752 1.363 . S
C753 C759 1.428 . S
H754 C750 0.930 . S
H755 C752 0.929 . S
S756 N757 1.613 . S
S756 N758 1.610 . S
N757 S756 1.613 . S
N757 C760 1.350 . S
N758 S756 1.610 . S
N758 C759 1.351 . S
C759 C753 1.428 . S
C759 N758 1.351 . S
C759 C760 1.434 . S
C760 C751 1.429 . S
C760 N757 1.350 . S
C760 C759 1.434 . S
C761 C762 1.369 . S
C761 C763 1.419 . S
C761 H765 0.930 . S
C762 C761 1.369 . S
C762 C771 1.429 . S
C763 C761 1.419 . S
C763 C764 1.363 . S
C763 H766 0.929 . S
C764 C763 1.363 . S
C764 C770 1.428 . S
H765 C761 0.930 . S
H766 C763 0.929 . S
S767 N768 1.613 . S
S767 N769 1.610 . S
N768 S767 1.613 . S
N768 C771 1.350 . S
N769 S767 1.610 . S
N769 C770 1.351 . S
C770 C764 1.428 . S
C770 N769 1.351 . S
C770 C771 1.434 . S
C771 C762 1.429 . S
C771 N768 1.350 . S
C771 C770 1.434 . S
C772 C773 1.369 . S
C772 C774 1.419 . S
C772 H776 0.930 1_545 S
C773 C772 1.369 . S
C773 C782 1.429 . S
C774 C772 1.419 . S
C774 C775 1.363 . S
C774 H777 0.929 . S
C775 C774 1.363 . S
C775 C781 1.428 . S
H776 C772 0.930 1_565 S
H777 C774 0.929 . S
S778 N779 1.613 . S
S778 N780 1.610 . S
N779 S778 1.613 . S
N779 C782 1.350 . S
N780 S778 1.610 . S
N780 C781 1.351 . S
C781 C775 1.428 . S
C781 N780 1.351 . S
C781 C782 1.434 . S
C782 C773 1.429 . S
C782 N779 1.350 . S
C782 C781 1.434 . S
C783 C784 1.369 . S
C783 C785 1.419 . S
C783 H787 0.930 . S
C784 C783 1.369 . S
C784 C793 1.429 . S
C785 C783 1.419 . S
C785 C786 1.363 . S
C785 H788 0.929 1_455 S
C786 C785 1.363 . S
C786 C792 1.428 . S
H787 C783 0.930 . S
H788 C785 0.929 1_655 S
S789 N790 1.613 . S
S789 N791 1.610 . S
N790 S789 1.613 . S
N790 C793 1.350 . S
N791 S789 1.610 . S
N791 C792 1.351 . S
C792 C786 1.428 . S
C792 N791 1.351 . S
C792 C793 1.434 . S
C793 C784 1.429 . S
C793 N790 1.350 . S
C793 C792 1.434 . S
C794 C795 1.369 . S
C794 C796 1.419 . S
C794 H798 0.930 . S
C795 C794 1.369 . S
C795 C804 1.429 . S
C796 C794 1.419 . S
C796 C797 1.363 . S
C796 H799 0.929 . S
C797 C796 1.363 . S
C797 C803 1.428 . S
H798 C794 0.930 . S
H799 C796 0.929 . S
S800 N801 1.613 . S
S800 N802 1.610 . S
N801 S800 1.613 . S
N801 C804 1.350 . S
N802 S800 1.610 . S
N802 C803 1.351 . S
C803 C797 1.428 . S
C803 N802 1.351 . S
C803 C804 1.434 . S
C804 C795 1.429 . S
C804 N801 1.350 . S
C804 C803 1.434 . S
C805 C806 1.369 . S
C805 C807 1.419 . S
C805 H809 0.930 1_655 S
C806 C805 1.369 . S
C806 C815 1.429 . S
C807 C805 1.419 . S
C807 C808 1.363 . S
C807 H810 0.929 . S
C808 C807 1.363 . S
C808 C814 1.428 . S
H809 C805 0.930 1_455 S
H810 C807 0.929 . S
S811 N812 1.613 . S
S811 N813 1.610 . S
N812 S811 1.613 . S
N812 C815 1.350 . S
N813 S811 1.610 . S
N813 C814 1.351 . S
C814 C808 1.428 . S
C814 N813 1.351 . S
C814 C815 1.434 . S
C815 C806 1.429 . S
C815 N812 1.350 . S
C815 C814 1.434 . S
C816 C817 1.369 . S
C816 C818 1.419 . S
C816 H820 0.930 . S
C817 C816 1.369 . S
C817 C826 1.429 . S
C818 C816 1.419 . S
C818 C819 1.363 . S
C818 H821 0.929 . S
C819 C818 1.363 . S
C819 C825 1.428 . S
H820 C816 0.930 . S
H821 C818 0.929 . S
S822 N823 1.613 . S
S822 N824 1.610 . S
N823 S822 1.613 . S
N823 C826 1.350 . S
N824 S822 1.610 . S
N824 C825 1.351 . S
C825 C819 1.428 . S
C825 N824 1.351 . S
C825 C826 1.434 . S
C826 C817 1.429 . S
C826 N823 1.350 . S
C826 C825 1.434 . S
C827 C828 1.369 . S
C827 C829 1.419 . S
C827 H831 0.930 . S
C828 C827 1.369 . S
C828 C837 1.429 . S
C829 C827 1.419 . S
C829 C830 1.363 . S
C829 H832 0.929 . S
C830 C829 1.363 . S
C830 C836 1.428 . S
H831 C827 0.930 . S
H832 C829 0.929 . S
S833 N834 1.613 . S
S833 N835 1.610 . S
N834 S833 1.613 . S
N834 C837 1.350 . S
N835 S833 1.610 . S
N835 C836 1.351 . S
C836 C830 1.428 . S
C836 N835 1.351 . S
C836 C837 1.434 . S
C837 C828 1.429 . S
C837 N834 1.350 . S
C837 C836 1.434 . S
C838 C839 1.369 . S
C838 C840 1.419 . S
C838 H842 0.930 . S
C839 C838 1.369 . S
C839 C848 1.429 . S
C840 C838 1.419 . S
C840 C841 1.363 . S
C840 H843 0.929 . S
C841 C840 1.363 . S
C841 C847 1.428 . S
H842 C838 0.930 . S
H843 C840 0.929 . S
S844 N845 1.613 . S
S844 N846 1.610 . S
N845 S844 1.613 . S
N845 C848 1.350 . S
N846 S844 1.610 . S
N846 C847 1.351 . S
C847 C841 1.428 . S
C847 N846 1.351 . S
C847 C848 1.434 . S
C848 C839 1.429 . S
C848 N845 1.350 . S
C848 C847 1.434 . S
C849 C850 1.369 . S
C849 C851 1.419 . S
C849 H853 0.930 . S
C850 C849 1.369 . S
C850 C859 1.429 . S
C851 C849 1.419 . S
C851 C852 1.363 . S
C851 H854 0.929 . S
C852 C851 1.363 . S
C852 C858 1.428 . S
H853 C849 0.930 . S
H854 C851 0.929 . S
S855 N856 1.613 . S
S855 N857 1.610 . S
N856 S855 1.613 . S
N856 C859 1.350 . S
N857 S855 1.610 . S
N857 C858 1.351 . S
C858 C852 1.428 . S
C858 N857 1.351 . S
C858 C859 1.434 . S
C859 C850 1.429 . S
C859 N856 1.350 . S
C859 C858 1.434 . S
C860 C861 1.369 . S
C860 C862 1.419 . S
C860 H864 0.930 . S
C861 C860 1.369 . S
C861 C870 1.429 . S
C862 C860 1.419 . S
C862 C863 1.363 . S
C862 H865 0.929 . S
C863 C862 1.363 . S
C863 C869 1.428 . S
H864 C860 0.930 . S
H865 C862 0.929 . S
S866 N867 1.613 . S
S866 N868 1.610 . S
N867 S866 1.613 . S
N867 C870 1.350 . S
N868 S866 1.610 . S
N868 C869 1.351 . S
C869 C863 1.428 . S
C869 N868 1.351 . S
C869 C870 1.434 . S
C870 C861 1.429 . S
C870 N867 1.350 . S
C870 C869 1.434 . S
C871 C872 1.369 . S
C871 C873 1.419 . S
C871 H875 0.930 . S
C872 C871 1.369 . S
C872 C881 1.429 . S
C873 C871 1.419 . S
C873 C874 1.363 . S
C873 H876 0.929 . S
C874 C873 1.363 . S
C874 C880 1.428 . S
H875 C871 0.930 . S
H876 C873 0.929 . S
S877 N878 1.613 . S
S877 N879 1.610 . S
N878 S877 1.613 . S
N878 C881 1.350 . S
N879 S877 1.610 . S
N879 C880 1.351 . S
C880 C874 1.428 . S
C880 N879 1.351 . S
C880 C881 1.434 . S
C881 C872 1.429 . S
C881 N878 1.350 . S
C881 C880 1.434 . S
C882 C883 1.369 . S
C882 C884 1.419 . S
C882 H886 0.930 . S
C883 C882 1.369 . S
C883 C892 1.429 . S
C884 C882 1.419 . S
C884 C885 1.363 . S
C884 H887 0.929 . S
C885 C884 1.363 . S
C885 C891 1.428 . S
H886 C882 0.930 . S
H887 C884 0.929 . S
S888 N889 1.613 . S
S888 N890 1.610 . S
N889 S888 1.613 . S
N889 C892 1.350 . S
N890 S888 1.610 . S
N890 C891 1.351 . S
C891 C885 1.428 . S
C891 N890 1.351 . S
C891 C892 1.434 . S
C892 C883 1.429 . S
C892 N889 1.350 . S
C892 C891 1.434 . S
C893 C894 1.369 . S
C893 C895 1.419 . S
C893 H897 0.930 . S
C894 C893 1.369 . S
C894 C903 1.429 . S
C895 C893 1.419 . S
C895 C896 1.363 . S
C895 H898 0.929 . S
C896 C895 1.363 . S
C896 C902 1.428 . S
H897 C893 0.930 . S
H898 C895 0.929 . S
S899 N900 1.613 . S
S899 N901 1.610 . S
N900 S899 1.613 . S
N900 C903 1.350 . S
N901 S899 1.610 . S
N901 C902 1.351 . S
C902 C896 1.428 . S
C902 N901 1.351 . S
C902 C903 1.434 . S
C903 C894 1.429 . S
C903 N900 1.350 . S
C903 C902 1.434 . S
C904 C905 1.369 . S
C904 C906 1.419 . S
C904 H908 0.930 . S
C905 C904 1.369 . S
C905 C914 1.429 . S
C906 C904 1.419 . S
C906 C907 1.363 . S
C906 H909 0.929 . S
C907 C906 1.363 . S
C907 C913 1.428 . S
H908 C904 0.930 . S
H909 C906 0.929 . S
S910 N911 1.613 . S
S910 N912 1.610 . S
N911 S910 1.613 . S
N911 C914 1.350 . S
N912 S910 1.610 . S
N912 C913 1.351 . S
C913 C907 1.428 . S
C913 N912 1.351 . S
C913 C914 1.434 . S
C914 C905 1.429 . S
C914 N911 1.350 . S
C914 C913 1.434 . S
C915 C916 1.369 . S
C915 C917 1.419 . S
C915 H919 0.930 . S
C916 C915 1.369 . S
C916 C925 1.429 . S
C917 C915 1.419 . S
C917 C918 1.363 . S
C917 H920 0.929 . S
C918 C917 1.363 . S
C918 C924 1.428 . S
H919 C915 0.930 . S
H920 C917 0.929 . S
S921 N922 1.613 . S
S921 N923 1.610 . S
N922 S921 1.613 . S
N922 C925 1.350 . S
N923 S921 1.610 . S
N923 C924 1.351 . S
C924 C918 1.428 . S
C924 N923 1.351 . S
C924 C925 1.434 . S
C925 C916 1.429 . S
C925 N922 1.350 . S
C925 C924 1.434 . S
C926 C927 1.369 . S
C926 C928 1.419 . S
C926 H930 0.930 . S
C927 C926 1.369 . S
C927 C936 1.429 . S
C928 C926 1.419 . S
C928 C929 1.363 . S
C928 H931 0.929 . S
C929 C928 1.363 . S
C929 C935 1.428 . S
H930 C926 0.930 . S
H931 C928 0.929 . S
S932 N933 1.613 . S
S932 N934 1.610 . S
N933 S932 1.613 . S
N933 C936 1.350 . S
N934 S932 1.610 . S
N934 C935 1.351 . S
C935 C929 1.428 . S
C935 N934 1.351 . S
C935 C936 1.434 . S
C936 C927 1.429 . S
C936 N933 1.350 . S
C936 C935 1.434 . S
C937 C938 1.369 . S
C937 C939 1.419 . S
C937 H941 0.930 . S
C938 C937 1.369 . S
C938 C947 1.429 . S
C939 C937 1.419 . S
C939 C940 1.363 . S
C939 H942 0.929 . S
C940 C939 1.363 . S
C940 C946 1.428 . S
H941 C937 0.930 . S
H942 C939 0.929 . S
S943 N944 1.613 . S
S943 N945 1.610 . S
N944 S943 1.613 . S
N944 C947 1.350 . S
N945 S943 1.610 . S
N945 C946 1.351 . S
C946 C940 1.428 . S
C946 N945 1.351 . S
C946 C947 1.434 . S
C947 C938 1.429 . S
C947 N944 1.350 . S
C947 C946 1.434 . S
C948 C949 1.369 . S
C948 C950 1.419 . S
C948 H952 0.930 . S
C949 C948 1.369 . S
C949 C958 1.429 . S
C950 C948 1.419 . S
C950 C951 1.363 . S
C950 H953 0.929 . S
C951 C950 1.363 . S
C951 C957 1.428 . S
H952 C948 0.930 . S
H953 C950 0.929 . S
S954 N955 1.613 . S
S954 N956 1.610 . S
N955 S954 1.613 . S
N955 C958 1.350 . S
N956 S954 1.610 . S
N956 C957 1.351 . S
C957 C951 1.428 . S
C957 N956 1.351 . S
C957 C958 1.434 . S
C958 C949 1.429 . S
C958 N955 1.350 . S
C958 C957 1.434 . S
C959 C960 1.369 . S
C959 C961 1.419 . S
C959 H963 0.930 . S
C960 C959 1.369 . S
C960 C969 1.429 . S
C961 C959 1.419 . S
C961 C962 1.363 . S
C961 H964 0.929 . S
C962 C961 1.363 . S
C962 C968 1.428 . S
H963 C959 0.930 . S
H964 C961 0.929 . S
S965 N966 1.613 . S
S965 N967 1.610 . S
N966 S965 1.613 . S
N966 C969 1.350 . S
N967 S965 1.610 . S
N967 C968 1.351 . S
C968 C962 1.428 . S
C968 N967 1.351 . S
C968 C969 1.434 . S
C969 C960 1.429 . S
C969 N966 1.350 . S
C969 C968 1.434 . S
C970 C971 1.369 . S
C970 C972 1.419 . S
C970 H974 0.930 . S
C971 C970 1.369 . S
C971 C980 1.429 . S
C972 C970 1.419 . S
C972 C973 1.363 . S
C972 H975 0.929 . S
C973 C972 1.363 . S
C973 C979 1.428 . S
H974 C970 0.930 . S
H975 C972 0.929 . S
S976 N977 1.613 . S
S976 N978 1.610 . S
N977 S976 1.613 . S
N977 C980 1.350 . S
N978 S976 1.610 . S
N978 C979 1.351 . S
C979 C973 1.428 . S
C979 N978 1.351 . S
C979 C980 1.434 . S
C980 C971 1.429 . S
C980 N977 1.350 . S
C980 C979 1.434 . S
C981 C982 1.369 . S
C981 C983 1.419 . S
C981 H985 0.930 . S
C982 C981 1.369 . S
C982 C991 1.429 . S
C983 C981 1.419 . S
C983 C984 1.363 . S
C983 H986 0.929 . S
C984 C983 1.363 . S
C984 C990 1.428 . S
H985 C981 0.930 . S
H986 C983 0.929 . S
S987 N988 1.613 . S
S987 N989 1.610 . S
N988 S987 1.613 . S
N988 C991 1.350 . S
N989 S987 1.610 . S
N989 C990 1.351 . S
C990 C984 1.428 . S
C990 N989 1.351 . S
C990 C991 1.434 . S
C991 C982 1.429 . S
C991 N988 1.350 . S
C991 C990 1.434 . S
C992 C993 1.369 . S
C992 C994 1.419 . S
C992 H996 0.930 . S
C993 C992 1.369 . S
C993 C1002 1.429 . S
C994 C992 1.419 . S
C994 C995 1.363 . S
C994 H997 0.929 . S
C995 C994 1.363 . S
C995 C1001 1.428 . S
H996 C992 0.930 . S
H997 C994 0.929 . S
S998 N999 1.613 . S
S998 N1000 1.610 . S
N999 S998 1.613 . S
N999 C1002 1.350 . S
N1000 S998 1.610 . S
N1000 C1001 1.351 . S
C1001 C995 1.428 . S
C1001 N1000 1.351 . S
C1001 C1002 1.434 . S
C1002 C993 1.429 . S
C1002 N999 1.350 . S
C1002 C1001 1.434 . S
C1003 C1004 1.369 . S
C1003 C1005 1.419 . S
C1003 H1007 0.930 . S
C1004 C1003 1.369 . S
C1004 C1013 1.429 . S
C1005 C1003 1.419 . S
C1005 C1006 1.363 . S
C1005 H1008 0.929 . S
C1006 C1005 1.363 . S
C1006 C1012 1.428 . S
H1007 C1003 0.930 . S
H1008 C1005 0.929 . S
S1009 N1010 1.613 . S
S1009 N1011 1.610 . S
N1010 S1009 1.613 . S
N1010 C1013 1.350 . S
N1011 S1009 1.610 . S
N1011 C1012 1.351 . S
C1012 C1006 1.428 . S
C1012 N1011 1.351 . S
C1012 C1013 1.434 . S
C1013 C1004 1.429 . S
C1013 N1010 1.350 . S
C1013 C1012 1.434 . S
C1014 C1015 1.369 . S
C1014 C1016 1.419 . S
C1014 H1018 0.930 . S
C1015 C1014 1.369 . S
C1015 C1024 1.429 . S
C1016 C1014 1.419 . S
C1016 C1017 1.363 . S
C1016 H1019 0.929 . S
C1017 C1016 1.363 . S
C1017 C1023 1.428 . S
H1018 C1014 0.930 . S
H1019 C1016 0.929 . S
S1020 N1021 1.613 . S
S1020 N1022 1.610 . S
N1021 S1020 1.613 . S
N1021 C1024 1.350 . S
N1022 S1020 1.610 . S
N1022 C1023 1.351 . S
C1023 C1017 1.428 . S
C1023 N1022 1.351 . S
C1023 C1024 1.434 . S
C1024 C1015 1.429 . S
C1024 N1021 1.350 . S
C1024 C1023 1.434 . S
C1025 C1026 1.369 . S
C1025 C1027 1.419 . S
C1025 H1029 0.930 . S
C1026 C1025 1.369 . S
C1026 C1035 1.429 . S
C1027 C1025 1.419 . S
C1027 C1028 1.363 . S
C1027 H1030 0.929 . S
C1028 C1027 1.363 . S
C1028 C1034 1.428 . S
H1029 C1025 0.930 . S
H1030 C1027 0.929 . S
S1031 N1032 1.613 . S
S1031 N1033 1.610 . S
N1032 S1031 1.613 . S
N1032 C1035 1.350 . S
N1033 S1031 1.610 . S
N1033 C1034 1.351 . S
C1034 C1028 1.428 . S
C1034 N1033 1.351 . S
C1034 C1035 1.434 . S
C1035 C1026 1.429 . S
C1035 N1032 1.350 . S
C1035 C1034 1.434 . S
C1036 C1037 1.369 . S
C1036 C1038 1.419 . S
C1036 H1040 0.930 . S
C1037 C1036 1.369 . S
C1037 C1046 1.429 . S
C1038 C1036 1.419 . S
C1038 C1039 1.363 . S
C1038 H1041 0.929 . S
C1039 C1038 1.363 . S
C1039 C1045 1.428 . S
H1040 C1036 0.930 . S
H1041 C1038 0.929 . S
S1042 N1043 1.613 . S
S1042 N1044 1.610 . S
N1043 S1042 1.613 . S
N1043 C1046 1.350 . S
N1044 S1042 1.610 . S
N1044 C1045 1.351 . S
C1045 C1039 1.428 . S
C1045 N1044 1.351 . S
C1045 C1046 1.434 . S
C1046 C1037 1.429 . S
C1046 N1043 1.350 . S
C1046 C1045 1.434 . S
C1047 C1048 1.369 . S
C1047 C1049 1.419 . S
C1047 H1051 0.930 . S
C1048 C1047 1.369 . S
C1048 C1057 1.429 . S
C1049 C1047 1.419 . S
C1049 C1050 1.363 . S
C1049 H1052 0.929 . S
C1050 C1049 1.363 . S
C1050 C1056 1.428 . S
H1051 C1047 0.930 . S
H1052 C1049 0.929 . S
S1053 N1054 1.613 . S
S1053 N1055 1.610 . S
N1054 S1053 1.613 . S
N1054 C1057 1.350 . S
N1055 S1053 1.610 . S
N1055 C1056 1.351 . S
C1056 C1050 1.428 . S
C1056 N1055 1.351 . S
C1056 C1057 1.434 . S
C1057 C1048 1.429 . S
C1057 N1054 1.350 . S
C1057 C1056 1.434 . S
C1058 C1059 1.369 . S
C1058 C1060 1.419 . S
C1058 H1062 0.930 . S
C1059 C1058 1.369 . S
C1059 C1068 1.429 . S
C1060 C1058 1.419 . S
C1060 C1061 1.363 . S
C1060 H1063 0.929 . S
C1061 C1060 1.363 . S
C1061 C1067 1.428 . S
H1062 C1058 0.930 . S
H1063 C1060 0.929 . S
S1064 N1065 1.613 . S
S1064 N1066 1.610 . S
N1065 S1064 1.613 . S
N1065 C1068 1.350 . S
N1066 S1064 1.610 . S
N1066 C1067 1.351 . S
C1067 C1061 1.428 . S
C1067 N1066 1.351 . S
C1067 C1068 1.434 . S
C1068 C1059 1.429 . S
C1068 N1065 1.350 . S
C1068 C1067 1.434 . S
C1069 C1070 1.369 . S
C1069 C1071 1.419 . S
C1069 H1073 0.930 . S
C1070 C1069 1.369 . S
C1070 C1079 1.429 . S
C1071 C1069 1.419 . S
C1071 C1072 1.363 . S
C1071 H1074 0.929 . S
C1072 C1071 1.363 . S
C1072 C1078 1.428 . S
H1073 C1069 0.930 . S
H1074 C1071 0.929 . S
S1075 N1076 1.613 . S
S1075 N1077 1.610 . S
N1076 S1075 1.613 . S
N1076 C1079 1.350 . S
N1077 S1075 1.610 . S
N1077 C1078 1.351 . S
C1078 C1072 1.428 . S
C1078 N1077 1.351 . S
C1078 C1079 1.434 . S
C1079 C1070 1.429 . S
C1079 N1076 1.350 . S
C1079 C1078 1.434 . S
C1080 C1081 1.369 . S
C1080 C1082 1.419 . S
C1080 H1084 0.930 . S
C1081 C1080 1.369 . S
C1081 C1090 1.429 . S
C1082 C1080 1.419 . S
C1082 C1083 1.363 . S
C1082 H1085 0.929 . S
C1083 C1082 1.363 . S
C1083 C1089 1.428 . S
H1084 C1080 0.930 . S
H1085 C1082 0.929 . S
S1086 N1087 1.613 . S
S1086 N1088 1.610 . S
N1087 S1086 1.613 . S
N1087 C1090 1.350 . S
N1088 S1086 1.610 . S
N1088 C1089 1.351 . S
C1089 C1083 1.428 . S
C1089 N1088 1.351 . S
C1089 C1090 1.434 . S
C1090 C1081 1.429 . S
C1090 N1087 1.350 . S
C1090 C1089 1.434 . S
C1091 C1092 1.369 . S
C1091 C1093 1.419 . S
C1091 H1095 0.930 . S
C1092 C1091 1.369 . S
C1092 C1101 1.429 . S
C1093 C1091 1.419 . S
C1093 C1094 1.363 . S
C1093 H1096 0.929 . S
C1094 C1093 1.363 . S
C1094 C1100 1.428 . S
H1095 C1091 0.930 . S
H1096 C1093 0.929 . S
S1097 N1098 1.613 . S
S1097 N1099 1.610 . S
N1098 S1097 1.613 . S
N1098 C1101 1.350 . S
N1099 S1097 1.610 . S
N1099 C1100 1.351 . S
C1100 C1094 1.428 . S
C1100 N1099 1.351 . S
C1100 C1101 1.434 . S
C1101 C1092 1.429 . S
C1101 N1098 1.350 . S
C1101 C1100 1.434 . S
C1102 C1103 1.369 . S
C1102 C1104 1.419 . S
C1102 H1106 0.930 . S
C1103 C1102 1.369 . S
C1103 C1112 1.429 . S
C1104 C1102 1.419 . S
C1104 C1105 1.363 . S
C1104 H1107 0.929 . S
C1105 C1104 1.363 . S
C1105 C1111 1.428 . S
H1106 C1102 0.930 . S
H1107 C1104 0.929 . S
S1108 N1109 1.613 . S
S1108 N1110 1.610 . S
N1109 S1108 1.613 . S
N1109 C1112 1.350 . S
N1110 S1108 1.610 . S
N1110 C1111 1.351 . S
C1111 C1105 1.428 . S
C1111 N1110 1.351 . S
C1111 C1112 1.434 . S
C1112 C1103 1.429 . S
C1112 N1109 1.350 . S
C1112 C1111 1.434 . S
C1113 C1114 1.369 . S
C1113 C1115 1.419 . S
C1113 H1117 0.930 . S
C1114 C1113 1.369 . S
C1114 C1123 1.429 . S
C1115 C1113 1.419 . S
C1115 C1116 1.363 . S
C1115 H1118 0.929 . S
C1116 C1115 1.363 . S
C1116 C1122 1.428 . S
H1117 C1113 0.930 . S
H1118 C1115 0.929 . S
S1119 N1120 1.613 . S
S1119 N1121 1.610 . S
N1120 S1119 1.613 . S
N1120 C1123 1.350 . S
N1121 S1119 1.610 . S
N1121 C1122 1.351 . S
C1122 C1116 1.428 . S
C1122 N1121 1.351 . S
C1122 C1123 1.434 . S
C1123 C1114 1.429 . S
C1123 N1120 1.350 . S
C1123 C1122 1.434 . S
C1124 C1125 1.369 . S
C1124 C1126 1.419 . S
C1124 H1128 0.930 . S
C1125 C1124 1.369 . S
C1125 C1134 1.429 . S
C1126 C1124 1.419 . S
C1126 C1127 1.363 . S
C1126 H1129 0.929 . S
C1127 C1126 1.363 . S
C1127 C1133 1.428 . S
H1128 C1124 0.930 . S
H1129 C1126 0.929 . S
S1130 N1131 1.613 . S
S1130 N1132 1.610 . S
N1131 S1130 1.613 . S
N1131 C1134 1.350 . S
N1132 S1130 1.610 . S
N1132 C1133 1.351 . S
C1133 C1127 1.428 . S
C1133 N1132 1.351 . S
C1133 C1134 1.434 . S
C1134 C1125 1.429 . S
C1134 N1131 1.350 . S
C1134 C1133 1.434 . S
C1135 C1136 1.369 . S
C1135 C1137 1.419 . S
C1135 H1139 0.930 . S
C1136 C1135 1.369 . S
C1136 C1145 1.429 . S
C1137 C1135 1.419 . S
C1137 C1138 1.363 . S
C1137 H1140 0.929 . S
C1138 C1137 1.363 . S
C1138 C1144 1.428 . S
H1139 C1135 0.930 . S
H1140 C1137 0.929 . S
S1141 N1142 1.613 . S
S1141 N1143 1.610 . S
N1142 S1141 1.613 . S
N1142 C1145 1.350 . S
N1143 S1141 1.610 . S
N1143 C1144 1.351 . S
C1144 C1138 1.428 . S
C1144 N1143 1.351 . S
C1144 C1145 1.434 . S
C1145 C1136 1.429 . S
C1145 N1142 1.350 . S
C1145 C1144 1.434 . S
C1146 C1147 1.369 . S
C1146 C1148 1.419 . S
C1146 H1150 0.930 . S
C1147 C1146 1.369 . S
C1147 C1156 1.429 . S
C1148 C1146 1.419 . S
C1148 C1149 1.363 . S
C1148 H1151 0.929 . S
C1149 C1148 1.363 . S
C1149 C1155 1.428 . S
H1150 C1146 0.930 . S
H1151 C1148 0.929 . S
S1152 N1153 1.613 . S
S1152 N1154 1.610 . S
N1153 S1152 1.613 . S
N1153 C1156 1.350 . S
N1154 S1152 1.610 . S
N1154 C1155 1.351 . S
C1155 C1149 1.428 . S
C1155 N1154 1.351 . S
C1155 C1156 1.434 . S
C1156 C1147 1.429 . S
C1156 N1153 1.350 . S
C1156 C1155 1.434 . S
C1157 C1158 1.369 . S
C1157 C1159 1.419 . S
C1157 H1161 0.930 . S
C1158 C1157 1.369 . S
C1158 C1167 1.429 . S
C1159 C1157 1.419 . S
C1159 C1160 1.363 . S
C1159 H1162 0.929 . S
C1160 C1159 1.363 . S
C1160 C1166 1.428 . S
H1161 C1157 0.930 . S
H1162 C1159 0.929 . S
S1163 N1164 1.613 . S
S1163 N1165 1.610 . S
N1164 S1163 1.613 . S
N1164 C1167 1.350 . S
N1165 S1163 1.610 . S
N1165 C1166 1.351 . S
C1166 C1160 1.428 . S
C1166 N1165 1.351 . S
C1166 C1167 1.434 . S
C1167 C1158 1.429 . S
C1167 N1164 1.350 . S
C1167 C1166 1.434 . S
C641 C452 1.798 . S
C643 C2 1.752 1_565 S
C652 C351 1.799 . S
C654 C57 1.751 1_655 S
C663 C82 1.751 1_545 S
C665 C372 1.799 . S
C674 C137 1.752 1_455 S
C676 C431 1.798 . S
C685 C162 1.753 . S
C687 C212 1.799 1_554 S
C696 C271 1.799 1_556 S
C698 C217 1.751 . S
C707 C242 1.755 . S
C709 C292 1.797 1_554 S
C718 C191 1.797 1_556 S
C720 C297 1.755 . S
C729 C132 1.799 . S
C731 C322 1.754 . S
C740 C377 1.755 . S
C742 C31 1.797 . S
C751 C52 1.800 . S
C753 C402 1.752 . S
C762 C111 1.800 . S
C764 C457 1.753 . S
C773 C482 1.757 1_545 S
C775 C532 1.797 . S
C784 C591 1.798 . S
C786 C537 1.756 1_455 S
C795 C612 1.800 . S
C797 C562 1.752 1_565 S
C806 C617 1.754 1_655 S
C808 C511 1.799 . S
C817 C17 1.262 . S
C819 C177 1.252 . S
C828 C202 1.263 . S
C830 C42 1.255 . S
C839 C97 1.262 . S
C841 C257 1.252 . S
C850 C122 1.253 . S
C852 C282 1.257 . S
C861 C337 1.250 . S
C863 C497 1.261 . S
C872 C522 1.264 . S
C874 C362 1.252 . S
C883 C417 1.263 . S
C885 C577 1.253 . S
C894 C442 1.264 . S
C896 C602 1.254 . S
C905 C572 2.505 . S
C907 C12 2.503 1_556 S
C916 C71 2.499 1_554 S
C918 C631 2.506 . S
C927 C92 2.501 1_556 S
C929 C492 2.504 . S
C938 C151 2.507 1_554 S
C940 C551 2.501 . S
C949 C172 2.499 . S
C951 C412 2.505 . S
C960 C231 2.500 . S
C962 C471 2.506 . S
C971 C252 2.505 . S
C973 C332 2.503 . S
C982 C391 2.500 . S
C984 C311 2.506 . S
C993 C8 1.186 . S
C995 C29 1.191 . S
C1004 C69 1.191 . S
C1006 C48 1.187 . S
C1015 C88 1.191 . S
C1017 C109 1.187 . S
C1026 C128 1.188 . S
C1028 C149 1.190 . S
C1037 C189 1.185 . S
C1039 C168 1.192 . S
C1048 C229 1.185 . S
C1050 C208 1.192 . S
C1059 C248 1.190 . S
C1061 C269 1.188 . S
C1070 C288 1.188 . S
C1072 C309 1.189 . S
C1081 C328 1.186 . S
C1083 C349 1.192 . S
C1092 C368 1.186 . S
C1094 C389 1.191 . S
C1103 C429 1.191 . S
C1105 C408 1.188 . S
C1114 C469 1.192 . S
C1116 C448 1.187 . S
C1125 C488 1.191 . S
C1127 C509 1.187 . S
C1136 C528 1.185 . S
C1138 C549 1.192 . S
C1147 C589 1.191 . S
C1149 C568 1.188 . S
C1158 C629 1.186 . S
C1160 C608 1.191 . S
