# Generated by pormake.
# Topology vcc, (6)-cn, num edge types: 1
# Building blocks:
#     Node 0, Type 0, BuildingBlock: CUKXOW_clean_sbu_0, # of connection points: 6
#     Node 1, Type 0, BuildingBlock: CUKXOW_clean_sbu_0, # of connection points: 6
#     Node 2, Type 0, BuildingBlock: CUKXOW_clean_sbu_0, # of connection points: 6
#     Node 3, Type 0, BuildingBlock: CUKXOW_clean_sbu_0, # of connection points: 6
#     Node 4, Type 0, BuildingBlock: CUKXOW_clean_sbu_0, # of connection points: 6
#     Node 5, Type 0, BuildingBlock: CUKXOW_clean_sbu_0, # of connection points: 6
#     Node 6, Type 0, BuildingBlock: CUKXOW_clean_sbu_0, # of connection points: 6
#     Node 7, Type 0, BuildingBlock: CUKXOW_clean_sbu_0, # of connection points: 6
#     Node 8, Type 0, BuildingBlock: CUKXOW_clean_sbu_0, # of connection points: 6
#     Node 9, Type 0, BuildingBlock: CUKXOW_clean_sbu_0, # of connection points: 6
#     Node 10, Type 0, BuildingBlock: CUKXOW_clean_sbu_0, # of connection points: 6
#     Node 11, Type 0, BuildingBlock: CUKXOW_clean_sbu_0, # of connection points: 6
#     Node 12, Type 0, BuildingBlock: CUKXOW_clean_sbu_0, # of connection points: 6
#     Node 13, Type 0, BuildingBlock: CUKXOW_clean_sbu_0, # of connection points: 6
#     Node 14, Type 0, BuildingBlock: CUKXOW_clean_sbu_0, # of connection points: 6
#     Node 15, Type 0, BuildingBlock: CUKXOW_clean_sbu_0, # of connection points: 6
#     Node 16, Type 0, BuildingBlock: CUKXOW_clean_sbu_0, # of connection points: 6
#     Node 17, Type 0, BuildingBlock: CUKXOW_clean_sbu_0, # of connection points: 6
#     Node 18, Type 0, BuildingBlock: CUKXOW_clean_sbu_0, # of connection points: 6
#     Node 19, Type 0, BuildingBlock: CUKXOW_clean_sbu_0, # of connection points: 6
#     Node 20, Type 0, BuildingBlock: CUKXOW_clean_sbu_0, # of connection points: 6
#     Node 21, Type 0, BuildingBlock: CUKXOW_clean_sbu_0, # of connection points: 6
#     Node 22, Type 0, BuildingBlock: CUKXOW_clean_sbu_0, # of connection points: 6
#     Node 23, Type 0, BuildingBlock: CUKXOW_clean_sbu_0, # of connection points: 6
#     Node 24, Type 0, BuildingBlock: CUKXOW_clean_sbu_0, # of connection points: 6
#     Node 25, Type 0, BuildingBlock: CUKXOW_clean_sbu_0, # of connection points: 6
#     Node 26, Type 0, BuildingBlock: CUKXOW_clean_sbu_0, # of connection points: 6
#     Node 27, Type 0, BuildingBlock: CUKXOW_clean_sbu_0, # of connection points: 6
#     Node 28, Type 0, BuildingBlock: CUKXOW_clean_sbu_0, # of connection points: 6
#     Node 29, Type 0, BuildingBlock: CUKXOW_clean_sbu_0, # of connection points: 6
#     Node 30, Type 0, BuildingBlock: CUKXOW_clean_sbu_0, # of connection points: 6
#     Node 31, Type 0, BuildingBlock: CUKXOW_clean_sbu_0, # of connection points: 6
#     Edge 32, Type (0, 0), BuildingBlock: KIFKEQ_clean_linker_1, # of connection points: 2
#     Edge 33, Type (0, 0), BuildingBlock: KIFKEQ_clean_linker_1, # of connection points: 2
#     Edge 34, Type (0, 0), BuildingBlock: KIFKEQ_clean_linker_1, # of connection points: 2
#     Edge 35, Type (0, 0), BuildingBlock: KIFKEQ_clean_linker_1, # of connection points: 2
#     Edge 36, Type (0, 0), BuildingBlock: KIFKEQ_clean_linker_1, # of connection points: 2
#     Edge 37, Type (0, 0), BuildingBlock: KIFKEQ_clean_linker_1, # of connection points: 2
#     Edge 38, Type (0, 0), BuildingBlock: KIFKEQ_clean_linker_1, # of connection points: 2
#     Edge 39, Type (0, 0), BuildingBlock: KIFKEQ_clean_linker_1, # of connection points: 2
#     Edge 40, Type (0, 0), BuildingBlock: KIFKEQ_clean_linker_1, # of connection points: 2
#     Edge 41, Type (0, 0), BuildingBlock: KIFKEQ_clean_linker_1, # of connection points: 2
#     Edge 42, Type (0, 0), BuildingBlock: KIFKEQ_clean_linker_1, # of connection points: 2
#     Edge 43, Type (0, 0), BuildingBlock: KIFKEQ_clean_linker_1, # of connection points: 2
#     Edge 44, Type (0, 0), BuildingBlock: KIFKEQ_clean_linker_1, # of connection points: 2
#     Edge 45, Type (0, 0), BuildingBlock: KIFKEQ_clean_linker_1, # of connection points: 2
#     Edge 46, Type (0, 0), BuildingBlock: KIFKEQ_clean_linker_1, # of connection points: 2
#     Edge 47, Type (0, 0), BuildingBlock: KIFKEQ_clean_linker_1, # of connection points: 2
#     Edge 48, Type (0, 0), BuildingBlock: KIFKEQ_clean_linker_1, # of connection points: 2
#     Edge 49, Type (0, 0), BuildingBlock: KIFKEQ_clean_linker_1, # of connection points: 2
#     Edge 50, Type (0, 0), BuildingBlock: KIFKEQ_clean_linker_1, # of connection points: 2
#     Edge 51, Type (0, 0), BuildingBlock: KIFKEQ_clean_linker_1, # of connection points: 2
#     Edge 52, Type (0, 0), BuildingBlock: KIFKEQ_clean_linker_1, # of connection points: 2
#     Edge 53, Type (0, 0), BuildingBlock: KIFKEQ_clean_linker_1, # of connection points: 2
#     Edge 54, Type (0, 0), BuildingBlock: KIFKEQ_clean_linker_1, # of connection points: 2
#     Edge 55, Type (0, 0), BuildingBlock: KIFKEQ_clean_linker_1, # of connection points: 2
#     Edge 56, Type (0, 0), BuildingBlock: KIFKEQ_clean_linker_1, # of connection points: 2
#     Edge 57, Type (0, 0), BuildingBlock: KIFKEQ_clean_linker_1, # of connection points: 2
#     Edge 58, Type (0, 0), BuildingBlock: KIFKEQ_clean_linker_1, # of connection points: 2
#     Edge 59, Type (0, 0), BuildingBlock: KIFKEQ_clean_linker_1, # of connection points: 2
#     Edge 60, Type (0, 0), BuildingBlock: KIFKEQ_clean_linker_1, # of connection points: 2
#     Edge 61, Type (0, 0), BuildingBlock: KIFKEQ_clean_linker_1, # of connection points: 2
#     Edge 62, Type (0, 0), BuildingBlock: KIFKEQ_clean_linker_1, # of connection points: 2
#     Edge 63, Type (0, 0), BuildingBlock: KIFKEQ_clean_linker_1, # of connection points: 2
#     Edge 64, Type (0, 0), BuildingBlock: KIFKEQ_clean_linker_1, # of connection points: 2
#     Edge 65, Type (0, 0), BuildingBlock: KIFKEQ_clean_linker_1, # of connection points: 2
#     Edge 66, Type (0, 0), BuildingBlock: KIFKEQ_clean_linker_1, # of connection points: 2
#     Edge 67, Type (0, 0), BuildingBlock: KIFKEQ_clean_linker_1, # of connection points: 2
#     Edge 68, Type (0, 0), BuildingBlock: KIFKEQ_clean_linker_1, # of connection points: 2
#     Edge 69, Type (0, 0), BuildingBlock: KIFKEQ_clean_linker_1, # of connection points: 2
#     Edge 70, Type (0, 0), BuildingBlock: KIFKEQ_clean_linker_1, # of connection points: 2
#     Edge 71, Type (0, 0), BuildingBlock: KIFKEQ_clean_linker_1, # of connection points: 2
#     Edge 72, Type (0, 0), BuildingBlock: KIFKEQ_clean_linker_1, # of connection points: 2
#     Edge 73, Type (0, 0), BuildingBlock: KIFKEQ_clean_linker_1, # of connection points: 2
#     Edge 74, Type (0, 0), BuildingBlock: KIFKEQ_clean_linker_1, # of connection points: 2
#     Edge 75, Type (0, 0), BuildingBlock: KIFKEQ_clean_linker_1, # of connection points: 2
#     Edge 76, Type (0, 0), BuildingBlock: KIFKEQ_clean_linker_1, # of connection points: 2
#     Edge 77, Type (0, 0), BuildingBlock: KIFKEQ_clean_linker_1, # of connection points: 2
#     Edge 78, Type (0, 0), BuildingBlock: KIFKEQ_clean_linker_1, # of connection points: 2
#     Edge 79, Type (0, 0), BuildingBlock: KIFKEQ_clean_linker_1, # of connection points: 2
#     Edge 80, Type (0, 0), BuildingBlock: KIFKEQ_clean_linker_1, # of connection points: 2
#     Edge 81, Type (0, 0), BuildingBlock: KIFKEQ_clean_linker_1, # of connection points: 2
#     Edge 82, Type (0, 0), BuildingBlock: KIFKEQ_clean_linker_1, # of connection points: 2
#     Edge 83, Type (0, 0), BuildingBlock: KIFKEQ_clean_linker_1, # of connection points: 2
#     Edge 84, Type (0, 0), BuildingBlock: KIFKEQ_clean_linker_1, # of connection points: 2
#     Edge 85, Type (0, 0), BuildingBlock: KIFKEQ_clean_linker_1, # of connection points: 2
#     Edge 86, Type (0, 0), BuildingBlock: KIFKEQ_clean_linker_1, # of connection points: 2
#     Edge 87, Type (0, 0), BuildingBlock: KIFKEQ_clean_linker_1, # of connection points: 2
#     Edge 88, Type (0, 0), BuildingBlock: KIFKEQ_clean_linker_1, # of connection points: 2
#     Edge 89, Type (0, 0), BuildingBlock: KIFKEQ_clean_linker_1, # of connection points: 2
#     Edge 90, Type (0, 0), BuildingBlock: KIFKEQ_clean_linker_1, # of connection points: 2
#     Edge 91, Type (0, 0), BuildingBlock: KIFKEQ_clean_linker_1, # of connection points: 2
#     Edge 92, Type (0, 0), BuildingBlock: KIFKEQ_clean_linker_1, # of connection points: 2
#     Edge 93, Type (0, 0), BuildingBlock: KIFKEQ_clean_linker_1, # of connection points: 2
#     Edge 94, Type (0, 0), BuildingBlock: KIFKEQ_clean_linker_1, # of connection points: 2
#     Edge 95, Type (0, 0), BuildingBlock: KIFKEQ_clean_linker_1, # of connection points: 2
#     Edge 96, Type (0, 0), BuildingBlock: KIFKEQ_clean_linker_1, # of connection points: 2
#     Edge 97, Type (0, 0), BuildingBlock: KIFKEQ_clean_linker_1, # of connection points: 2
#     Edge 98, Type (0, 0), BuildingBlock: KIFKEQ_clean_linker_1, # of connection points: 2
#     Edge 99, Type (0, 0), BuildingBlock: KIFKEQ_clean_linker_1, # of connection points: 2
#     Edge 100, Type (0, 0), BuildingBlock: KIFKEQ_clean_linker_1, # of connection points: 2
#     Edge 101, Type (0, 0), BuildingBlock: KIFKEQ_clean_linker_1, # of connection points: 2
#     Edge 102, Type (0, 0), BuildingBlock: KIFKEQ_clean_linker_1, # of connection points: 2
#     Edge 103, Type (0, 0), BuildingBlock: KIFKEQ_clean_linker_1, # of connection points: 2
#     Edge 104, Type (0, 0), BuildingBlock: KIFKEQ_clean_linker_1, # of connection points: 2
#     Edge 105, Type (0, 0), BuildingBlock: KIFKEQ_clean_linker_1, # of connection points: 2
#     Edge 106, Type (0, 0), BuildingBlock: KIFKEQ_clean_linker_1, # of connection points: 2
#     Edge 107, Type (0, 0), BuildingBlock: KIFKEQ_clean_linker_1, # of connection points: 2
#     Edge 108, Type (0, 0), BuildingBlock: KIFKEQ_clean_linker_1, # of connection points: 2
#     Edge 109, Type (0, 0), BuildingBlock: KIFKEQ_clean_linker_1, # of connection points: 2
#     Edge 110, Type (0, 0), BuildingBlock: KIFKEQ_clean_linker_1, # of connection points: 2
#     Edge 111, Type (0, 0), BuildingBlock: KIFKEQ_clean_linker_1, # of connection points: 2
#     Edge 112, Type (0, 0), BuildingBlock: KIFKEQ_clean_linker_1, # of connection points: 2
#     Edge 113, Type (0, 0), BuildingBlock: KIFKEQ_clean_linker_1, # of connection points: 2
#     Edge 114, Type (0, 0), BuildingBlock: KIFKEQ_clean_linker_1, # of connection points: 2
#     Edge 115, Type (0, 0), BuildingBlock: KIFKEQ_clean_linker_1, # of connection points: 2
#     Edge 116, Type (0, 0), BuildingBlock: KIFKEQ_clean_linker_1, # of connection points: 2
#     Edge 117, Type (0, 0), BuildingBlock: KIFKEQ_clean_linker_1, # of connection points: 2
#     Edge 118, Type (0, 0), BuildingBlock: KIFKEQ_clean_linker_1, # of connection points: 2
#     Edge 119, Type (0, 0), BuildingBlock: KIFKEQ_clean_linker_1, # of connection points: 2
#     Edge 120, Type (0, 0), BuildingBlock: KIFKEQ_clean_linker_1, # of connection points: 2
#     Edge 121, Type (0, 0), BuildingBlock: KIFKEQ_clean_linker_1, # of connection points: 2
#     Edge 122, Type (0, 0), BuildingBlock: KIFKEQ_clean_linker_1, # of connection points: 2
#     Edge 123, Type (0, 0), BuildingBlock: KIFKEQ_clean_linker_1, # of connection points: 2
#     Edge 124, Type (0, 0), BuildingBlock: KIFKEQ_clean_linker_1, # of connection points: 2
#     Edge 125, Type (0, 0), BuildingBlock: KIFKEQ_clean_linker_1, # of connection points: 2
#     Edge 126, Type (0, 0), BuildingBlock: KIFKEQ_clean_linker_1, # of connection points: 2
#     Edge 127, Type (0, 0), BuildingBlock: KIFKEQ_clean_linker_1, # of connection points: 2
# Relax obj value: 0.178
# Max RMSD: 0.161
# Mean RMSD: 0.161
data_MOF--net-vcc--node1-CUKXOW_clean_sbu_0--edge1-KIFKEQ_clean_linker_1
_symmetry_space_group_name_H-M    P1
_symmetry_Int_Tables_number       1
_symmetry_cell_setting            triclinic
loop_
_symmetry_equiv_pos_as_xyz
'x, y, z'
_cell_length_a     50.764072
_cell_length_b     59.701672
_cell_length_c     38.057919
_cell_angle_alpha  89.838637
_cell_angle_beta   90.04133
_cell_angle_gamma 90.299057
loop_
_atom_site_label
_atom_site_type_symbol
_atom_site_fract_x
_atom_site_fract_y
_atom_site_fract_z
_atom_type_partial_charge
Tb0 Tb 0.28595 1.00004 0.13147 0.0
C1 C 0.28912 0.0484 0.16063 0.0
Tb2 Tb 0.32609 0.01134 0.14767 0.0
O3 O 0.25789 0.99123 0.17056 0.0
O4 O 0.29482 0.00591 0.18757 0.0
O5 O 0.27803 0.03678 0.13525 0.0
C6 C 0.37358 0.02759 0.16252 0.0
O7 O 0.3088 0.03875 0.17617 0.0
C8 C 0.32498 0.01231 0.07647 0.0
C9 C 0.32386 0.96059 0.14779 0.0
O10 O 0.35388 0.03904 0.15145 0.0
O11 O 0.36652 0.00686 0.16655 0.0
O12 O 0.32796 0.02951 0.09646 0.0
O13 O 0.31882 0.99634 0.09668 0.0
O14 O 0.33888 0.97725 0.15811 0.0
O15 O 0.30064 0.9654 0.13435 0.0
C16 C 0.25252 0.9988 0.07876 0.0
O17 O 0.25442 0.9833 0.10262 0.0
O18 O 0.26791 0.01542 0.08614 0.0
C19 C 0.27175 0.99846 0.19691 0.0
Tb20 Tb 0.93114 0.26114 0.12298 0.0
C21 C 0.92127 0.21099 0.14648 0.0
Tb22 Tb 0.88654 0.25089 0.13717 0.0
O23 O 0.9436 0.2784 0.17019 0.0
O24 O 0.91912 0.25032 0.17551 0.0
O25 O 0.93637 0.22379 0.12615 0.0
C26 C 0.83572 0.24549 0.1508 0.0
O27 O 0.90034 0.22017 0.16011 0.0
C28 C 0.89089 0.2481 1.06633 0.0
C29 C 0.89363 0.30109 0.135 0.0
O30 O 0.85198 0.22946 0.1448 0.0
O31 O 0.84829 0.26431 0.15147 0.0
O32 O 0.88115 0.23316 0.08701 0.0
O33 O 0.8993 0.26372 0.08601 0.0
O34 O 0.88039 0.28555 0.15169 0.0
O35 O 0.91401 0.29479 0.11615 0.0
C36 C -0.02419 0.26774 0.08781 0.0
O37 O 0.96821 0.2789 0.11484 0.0
O38 O 0.95879 0.25206 0.08167 0.0
C39 C 0.93216 0.26525 0.19244 0.0
Tb40 Tb 0.27462 0.25877 0.25855 0.0
C41 C 0.27872 0.21011 0.23218 0.0
Tb42 Tb 0.31671 0.24884 0.23967 0.0
O43 O 0.24735 0.25046 0.21776 0.0
O44 O 0.286 0.26137 0.203 0.0
O45 O 0.2661 0.22217 0.25581 0.0
C46 C 0.36013 0.22608 0.22545 0.0
O47 O 0.29897 0.21937 0.21682 0.0
C48 C 0.31949 0.25474 0.31028 0.0
C49 C 0.31483 0.29798 0.23921 0.0
O50 O 0.33852 0.2174 0.23678 0.0
O51 O 0.35694 0.24729 0.21989 0.0
O52 O 0.33474 0.26372 0.28725 0.0
O53 O 0.30235 0.24363 0.2933 0.0
O54 O 0.32662 0.2821 0.22182 0.0
O55 O 0.29489 0.29202 0.25954 0.0
C56 C 0.24078 0.27709 0.30305 0.0
O57 O 0.24638 0.28497 0.27234 0.0
O58 O 0.25272 0.25829 0.30739 0.0
C59 C 0.26318 0.25444 0.19169 0.0
Tb60 Tb 0.91392 1.0023 0.25485 0.0
C61 C 0.90995 0.05031 0.22376 0.0
Tb62 Tb 0.87438 0.01234 0.23884 0.0
O63 O 0.94175 0.99233 0.21635 0.0
O64 O 0.90545 0.00749 0.19854 0.0
O65 O 0.92179 0.03897 0.2488 0.0
C66 C 0.82544 0.02528 0.22525 0.0
O67 O 0.88981 0.04043 0.2095 0.0
C68 C 0.87498 0.01414 0.30989 0.0
C69 C 0.87772 0.96179 0.23848 0.0
O70 O 0.845 0.03844 0.23156 0.0
O71 O 0.83367 0.00483 0.22446 0.0
O72 O 0.87225 0.03112 0.28924 0.0
O73 O 0.88147 0.99803 0.29039 0.0
O74 O 0.86294 0.9781 0.22675 0.0
O75 O 0.90021 0.96723 0.25352 0.0
C76 C 0.9474 1.00431 0.30739 0.0
O77 O 0.94592 0.98775 0.28538 0.0
O78 O 0.93149 0.02008 0.29824 0.0
C79 C 0.92824 0.99949 0.18964 0.0
Tb80 Tb 0.62343 0.99495 0.99033 0.0
C81 C 0.62788 0.04523 0.99251 0.0
Tb82 Tb 0.66702 0.0063 0.99966 0.0
O83 O 0.62334 0.97609 1.04039 0.0
O84 O 0.63783 0.00802 1.04043 0.0
O85 O 0.61514 0.02947 0.97567 0.0
C86 C 0.71357 0.01156 1.03052 0.0
O87 O 0.64896 0.03912 1.01012 0.0
C88 C 0.66536 0.01136 0.93061 0.0
C89 C 0.65872 0.95625 0.97527 0.0
O90 O 0.70295 0.02549 1.00887 0.0
O91 O 0.69822 0.99439 1.03395 0.0
O92 O 0.67723 0.02448 0.9524 0.0
O93 O 0.65307 0.99603 0.94784 0.0
O94 O 0.67414 0.96934 0.9945 0.0
O95 O 0.63636 0.96476 0.96482 0.0
C96 C 0.57179 0.98824 0.98538 0.0
O97 O 0.58923 0.97264 0.9861 0.0
O98 O 0.58346 0.00745 0.98439 0.0
C99 C 0.63149 0.99193 1.06052 0.0
Tb100 Tb 0.06137 0.75485 0.99725 0.0
C101 C 0.04631 0.70676 0.99979 0.0
Tb102 Tb 0.01825 0.75122 1.01868 0.0
O103 O 0.07414 0.77193 1.04611 0.0
O104 O 0.05167 0.74367 1.05051 0.0
O105 O 0.05872 0.72072 0.97924 0.0
C106 C -0.01692 0.7559 0.06924 0.0
O107 O 0.03062 0.71558 1.02364 0.0
C108 C 0.00768 0.74622 0.95141 0.0
C109 C 0.03474 0.79908 0.98932 0.0
O110 O -0.01873 0.74164 1.0437 0.0
O111 O 0.00356 0.76842 1.06454 0.0
O112 O -0.00478 0.73648 0.97704 0.0
O113 O 0.02629 0.75876 0.96355 0.0
O114 O 0.0184 0.78861 1.01109 0.0
O115 O 0.05341 0.78717 0.97529 0.0
C116 C 0.11083 0.75303 0.97551 0.0
O117 O 0.09813 0.77114 0.98221 0.0
O118 O 0.09543 0.73597 0.97939 0.0
C119 C 0.06413 0.75809 0.06838 0.0
Tb120 Tb 0.63433 0.75728 0.89477 0.0
C121 C 0.63749 0.70789 0.90109 0.0
Tb122 Tb 0.6757 0.74716 0.87595 0.0
O123 O 0.61708 0.74264 0.84675 0.0
O124 O 0.64877 0.76361 0.8411 0.0
O125 O 0.624 0.72439 0.9143 0.0
C126 C 0.70647 0.72324 0.83416 0.0
O127 O 0.65869 0.71308 0.88284 0.0
C128 C 0.68681 0.75131 0.94295 0.0
C129 C 0.67185 0.79623 0.897 0.0
O130 O 0.68115 0.72347 0.83352 0.0
O131 O 0.71498 0.73755 0.8572 0.0
O132 O 0.70278 0.7553 0.91711 0.0
O133 O 0.66429 0.74415 0.93137 0.0
O134 O 0.6826 0.78389 0.87208 0.0
O135 O 0.65309 0.78696 0.91541 0.0
C136 C 0.59015 0.77858 0.91119 0.0
O137 O 0.61215 0.7882 0.90359 0.0
O138 O 0.5933 0.75716 0.91149 0.0
C139 C 0.63146 0.75279 0.82395 0.0
Tb140 Tb 0.07159 1.00355 0.89507 0.0
C141 C 0.06123 0.05288 0.89498 0.0
Tb142 Tb 0.02863 0.00999 0.87917 0.0
O143 O 0.07888 0.98577 0.84506 0.0
O144 O 0.0603 0.01591 0.84307 0.0
O145 O 0.07512 0.03794 0.91171 0.0
C146 C -0.00986 0.00681 0.83281 0.0
O147 O 0.04187 0.04539 0.875 0.0
C148 C 0.02167 0.0151 0.94704 0.0
C149 C 0.0413 0.96128 0.9074 0.0
O150 O -0.00915 0.0211 0.85835 0.0
O151 O 0.01015 0.99367 0.83487 0.0
O152 O 0.00903 0.02573 0.92256 0.0
O153 O 0.03885 1.00182 0.93348 0.0
O154 O 0.02489 0.97277 0.88727 0.0
O155 O 0.06196 0.972 0.91901 0.0
C156 C 0.12266 1.00062 0.90885 0.0
O157 O 0.10726 0.98395 0.90235 0.0
O158 O 0.10912 0.01885 0.90989 0.0
C159 C 0.07008 1.00077 0.82389 0.0
Tb160 Tb 0.26338 0.49909 0.61777 0.0
C161 C 0.26875 0.55117 0.63322 0.0
Tb162 Tb 0.30812 0.5131 0.64393 0.0
O163 O 0.24868 0.48352 0.66596 0.0
O164 O 0.26969 0.51332 0.66945 0.0
O165 O 0.25492 0.53585 0.61575 0.0
C166 C 0.34729 0.52382 0.68616 0.0
O167 O 0.28997 0.54525 0.65026 0.0
C168 C 0.31173 0.51375 0.57317 0.0
C169 C 0.30472 0.46165 0.63533 0.0
O170 O 0.34564 0.52989 0.65364 0.0
O171 O 0.32783 0.51082 0.6943 0.0
O172 O 0.32156 0.52848 0.59441 0.0
O173 O 0.30098 0.49864 0.5922 0.0
O174 O 0.31731 0.4778 0.65182 0.0
O175 O 0.28382 0.46664 0.61623 0.0
C176 C 0.22551 0.48768 0.57328 0.0
O177 O 0.22896 0.47907 0.60405 0.0
O178 O 0.24232 0.50374 0.56845 0.0
C179 C 0.25774 0.49834 0.68759 0.0
Tb180 Tb 0.90815 0.76165 0.63903 0.0
C181 C 0.90663 0.71251 0.65914 0.0
Tb182 Tb 0.8669 0.7494 0.65657 0.0
O183 O 0.9348 0.75355 0.6804 0.0
O184 O 0.89585 0.76327 0.69439 0.0
O185 O 0.91634 0.72536 0.63401 0.0
C186 C 0.82575 0.72329 0.67144 0.0
O187 O 0.88775 0.72101 0.67795 0.0
C188 C 0.8644 0.75553 0.58614 0.0
C189 C 0.86742 0.79919 0.66064 0.0
O190 O 0.84722 0.71675 0.657 0.0
O191 O 0.8276 0.74437 0.67891 0.0
O192 O 0.84884 0.76398 0.60912 0.0
O193 O 0.88217 0.74514 0.60302 0.0
O194 O 0.85338 0.7822 0.67184 0.0
O195 O 0.89017 0.79507 0.64547 0.0
C196 C 0.94285 0.78382 0.59982 0.0
O197 O 0.91779 0.78334 0.5946 0.0
O198 O 0.94854 0.7711 0.62622 0.0
C199 C 0.91867 0.75691 0.70611 0.0
Tb200 Tb 0.28552 0.7557 0.75229 0.0
C201 C 0.29314 0.70675 0.72268 0.0
Tb202 Tb 0.32692 0.74663 0.73726 0.0
O203 O 0.26641 0.7727 0.70949 0.0
O204 O 0.29499 0.74777 0.69761 0.0
O205 O 0.27818 0.71907 0.74333 0.0
C206 C 0.37797 0.74036 0.72618 0.0
O207 O 0.31496 0.71604 0.71179 0.0
C208 C 0.32466 0.74399 0.80845 0.0
C209 C 0.32127 0.79658 0.739 0.0
O210 O 0.36076 0.72467 0.73029 0.0
O211 O 0.36628 0.75949 0.72574 0.0
O212 O 0.33002 0.72774 0.78755 0.0
O213 O 0.31732 0.75992 0.78892 0.0
O214 O 0.33334 0.78114 0.72094 0.0
O215 O 0.3017 0.78984 0.75917 0.0
C216 C 0.24664 0.7516 0.79754 0.0
O217 O 0.24853 0.76758 0.77447 0.0
O218 O 0.26594 0.73784 0.79418 0.0
C219 C 0.27802 0.76157 0.68474 0.0
Tb220 Tb 0.92113 0.50155 0.75518 0.0
C221 C 0.91141 0.55028 0.72763 0.0
Tb222 Tb 0.88034 0.50968 0.74233 0.0
O223 O 0.9449 0.48944 0.71333 0.0
O224 O 0.91036 0.50834 0.69995 0.0
O225 O 0.92609 0.53872 0.74978 0.0
C226 C 0.82859 0.5143 0.73522 0.0
O227 O 0.89076 0.54002 0.71525 0.0
C228 C 0.88407 0.5127 0.81325 0.0
C229 C 0.88669 0.46001 0.73921 0.0
O230 O 0.84539 0.53057 0.73577 0.0
O231 O 0.84101 0.49555 0.73589 0.0
O232 O 0.87856 0.52893 0.7922 0.0
O233 O 0.89098 0.49663 0.79385 0.0
O234 O 0.87279 0.47581 0.72467 0.0
O235 O 0.9073 0.46643 0.75754 0.0
C236 C 0.96015 0.50056 0.80126 0.0
O237 O 0.95491 0.48509 0.77855 0.0
O238 O 0.94476 0.51737 0.79573 0.0
C239 C 0.9311 0.49822 0.68828 0.0
Tb240 Tb 0.63205 0.50229 0.49575 0.0
C241 C 0.64072 0.55169 0.49473 0.0
Tb242 Tb 0.67241 0.50846 0.50916 0.0
O243 O 0.62871 0.48264 0.54531 0.0
O244 O 0.64235 0.51465 0.54778 0.0
O245 O 0.62521 0.53666 0.48103 0.0
C246 C 0.70969 0.5042 0.55713 0.0
O247 O 0.66167 0.54438 0.51147 0.0
C248 C 0.68364 0.51312 0.44272 0.0
C249 C 0.65972 0.46075 0.47869 0.0
O250 O 0.70881 0.51992 0.53362 0.0
O251 O 0.69076 0.49012 0.55168 0.0
O252 O 0.69725 0.52129 0.46857 0.0
O253 O 0.66253 0.50287 0.45357 0.0
O254 O 0.6757 0.47137 0.50046 0.0
O255 O 0.63962 0.47209 0.46755 0.0
C256 C 0.58034 0.49848 0.48703 0.0
O257 O 0.59627 0.48201 0.4916 0.0
O258 O 0.59362 0.5169 0.48485 0.0
C259 C 0.63424 0.49862 0.56679 0.0
Tb260 Tb 0.0769 0.26538 0.4842 0.0
C261 C 0.07652 0.21508 0.48923 0.0
Tb262 Tb 0.03446 0.25198 0.49888 0.0
O263 O 0.07877 0.28373 0.53489 0.0
O264 O 0.0664 0.25132 0.53556 0.0
O265 O 0.08767 0.23115 0.47093 0.0
C266 C -0.0085 0.24568 0.53708 0.0
O267 O 0.05587 0.22046 0.50831 0.0
C268 C 0.03143 0.24681 0.42999 0.0
C269 C 0.0374 0.30166 0.47247 0.0
O270 O 0.00121 0.23131 0.51546 0.0
O271 O 0.0055 0.26377 0.53626 0.0
O272 O 0.02094 0.23382 0.45335 0.0
O273 O 0.04474 0.2623 0.44534 0.0
O274 O 0.02491 0.2886 0.49517 0.0
O275 O 0.05862 0.29342 0.45831 0.0
C276 C 0.12495 0.28098 0.47068 0.0
O277 O 0.10487 0.29289 0.47874 0.0
O278 O 0.11794 0.26014 0.46855 0.0
C279 C 0.07241 0.26747 0.55543 0.0
Tb280 Tb 0.62854 0.25487 0.39418 0.0
C281 C 0.64188 0.20627 0.39295 0.0
Tb282 Tb 0.67192 0.24982 0.37503 0.0
O283 O 0.61788 0.27216 0.34472 0.0
O284 O 0.63888 0.24325 0.34147 0.0
O285 O 0.62919 0.22054 0.41243 0.0
C286 C 0.70921 0.25329 0.32705 0.0
O287 O 0.65858 0.21462 0.36985 0.0
C288 C 0.67978 0.24503 0.4433 0.0
C289 C 0.65747 0.29837 0.40156 0.0
O290 O 0.70944 0.23916 0.35297 0.0
O291 O 0.68906 0.2662 0.32976 0.0
O292 O 0.69219 0.23436 0.41877 0.0
O293 O 0.66277 0.25831 0.42947 0.0
O294 O 0.6738 0.28712 0.38114 0.0
O295 O 0.63778 0.28727 0.41526 0.0
C296 C 0.57819 0.25487 0.41214 0.0
O297 O 0.59218 0.27246 0.40585 0.0
O298 O 0.59281 0.2373 0.41062 0.0
C299 C 0.62746 0.25798 0.32295 0.0
Tb300 Tb 0.0665 0.49655 0.39188 0.0
C301 C 0.06859 0.54609 0.39562 0.0
Tb302 Tb 0.02626 0.50959 0.37209 0.0
O303 O 0.08551 0.51051 0.34439 0.0
O304 O 0.05194 0.49169 0.33801 0.0
O305 O 0.08065 0.52889 0.40945 0.0
C306 C -0.00128 0.53433 0.32742 0.0
O307 O 0.0468 0.54221 0.37782 0.0
C308 C 0.01391 0.50678 0.43879 0.0
C309 C 0.0251 0.46098 0.39587 0.0
O310 O 0.02396 0.53314 0.32881 0.0
O311 O -0.01157 0.52085 0.35054 0.0
O312 O -0.00224 0.50449 0.41264 0.0
O313 O 0.0374 0.5118 0.42773 0.0
O314 O 0.01649 0.47327 0.36935 0.0
O315 O 0.04396 0.46959 0.41476 0.0
C316 C 0.10631 0.46951 0.40715 0.0
O317 O 0.08456 0.46332 0.39283 0.0
O318 O 0.10531 0.49061 0.41468 0.0
C319 C 0.07025 0.5016 0.32128 0.0
Tb320 Tb 0.76614 1.00027 0.62187 0.0
C321 C 0.77451 0.04992 0.64792 0.0
Tb322 Tb 0.80956 0.0102 0.64001 0.0
O323 O 0.74944 0.98312 0.66657 0.0
O324 O 0.77559 0.01001 0.67596 0.0
O325 O 0.76032 0.03745 0.62608 0.0
C326 C 0.85996 0.01519 0.6566 0.0
O327 O 0.79498 0.04062 0.66268 0.0
C328 C 0.80828 0.01309 0.56913 0.0
C329 C 0.80178 0.96004 0.64026 0.0
O330 O 0.84377 0.03141 0.65128 0.0
O331 O 0.84752 0.99637 0.65477 0.0
O332 O 0.81529 0.02877 0.59031 0.0
O333 O 0.79984 0.99714 0.58819 0.0
O334 O 0.8148 0.97579 0.65663 0.0
O335 O 0.78221 0.96607 0.61971 0.0
C336 C 0.72655 0.99388 0.57723 0.0
O337 O 0.72824 0.98527 0.60828 0.0
O338 O 0.74598 0.00763 0.57288 0.0
C339 C 0.76061 0.99524 0.6905 0.0
Tb340 Tb 0.40881 0.26 0.63265 0.0
C341 C 0.40189 0.21181 0.66251 0.0
Tb342 Tb 0.36881 0.25076 0.64701 0.0
O343 O 0.43466 0.27184 0.67259 0.0
O344 O 0.39965 0.25381 0.68841 0.0
O345 O 0.41493 0.223 0.63827 0.0
C346 C 0.32024 0.23563 0.65833 0.0
O347 O 0.38244 0.22247 0.67663 0.0
C348 C 0.37103 0.24915 0.57574 0.0
C349 C 0.37246 0.30092 0.64597 0.0
O350 O 0.33989 0.22392 0.64798 0.0
O351 O 0.32792 0.2561 0.66371 0.0
O352 O 0.36704 0.23227 0.5962 0.0
O353 O 0.37759 0.2651 0.59564 0.0
O354 O 0.35758 0.2849 0.65875 0.0
O355 O 0.39475 0.29497 0.63098 0.0
C356 C 0.44488 0.25711 0.58343 0.0
O357 O 0.44321 0.27355 0.60557 0.0
O358 O 0.4274 0.242 0.59043 0.0
C359 C 0.42141 0.26332 0.69856 0.0
Tb360 Tb 0.78281 0.25848 0.75372 0.0
C361 C 0.7873 0.20976 0.72577 0.0
Tb362 Tb 0.82405 0.24816 0.73783 0.0
O363 O 0.75932 0.27169 0.71216 0.0
O364 O 0.79223 0.25097 0.69826 0.0
O365 O 0.77446 0.22188 0.74891 0.0
C366 C 0.87327 0.23633 0.72412 0.0
O367 O 0.80813 0.21899 0.7119 0.0
C368 C 0.82277 0.24632 0.80891 0.0
C369 C 0.82014 0.29847 0.73733 0.0
O370 O 0.85389 0.22273 0.72886 0.0
O371 O 0.86477 0.2567 0.72472 0.0
O372 O 0.82825 0.22994 0.78834 0.0
O373 O 0.81529 0.26214 0.78919 0.0
O374 O 0.83361 0.28234 0.72277 0.0
O375 O 0.79889 0.29281 0.75511 0.0
C376 C 0.74658 0.2599 0.80311 0.0
O377 O 0.74869 0.27431 0.77772 0.0
O378 O 0.76355 0.24409 0.79916 0.0
C379 C 0.77211 0.26213 0.68688 0.0
Tb380 Tb 0.42409 0.99976 0.75827 0.0
C381 C 0.4088 0.04791 0.73065 0.0
Tb382 Tb 0.38276 0.00453 0.743 0.0
O383 O 0.44725 0.98611 0.71642 0.0
O384 O 0.41438 0.00665 0.70297 0.0
O385 O 0.42551 0.03708 0.75115 0.0
C386 C 0.33097 1.00323 0.7336 0.0
O387 O 0.38895 0.03641 0.71857 0.0
C388 C 0.38433 0.00887 0.81396 0.0
C389 C 0.39409 0.95608 0.74186 0.0
O390 O 0.34526 0.02114 0.73322 0.0
O391 O 0.34595 0.98599 0.73648 0.0
O392 O 0.37736 0.02413 0.792 0.0
O393 O 0.39343 0.9931 0.79557 0.0
O394 O 0.3815 0.97069 0.7229 0.0
O395 O 0.41132 0.96432 0.76421 0.0
C396 C 0.4617 1.00385 0.806 0.0
O397 O 0.46086 0.9886 0.78183 0.0
O398 O 0.44279 0.01782 0.80079 0.0
C399 C 0.43411 0.99537 0.69107 0.0
Tb400 Tb 0.12818 0.00588 0.49033 0.0
C401 C 0.14292 0.05431 0.49311 0.0
Tb402 Tb 0.17105 0.00947 0.50761 0.0
O403 O 0.11864 0.98764 0.5396 0.0
O404 O 0.13964 0.01668 0.54312 0.0
O405 O 0.12888 0.04062 0.47403 0.0
C406 C 0.20742 1.00068 0.55504 0.0
O407 O 0.16025 0.04518 0.51456 0.0
C408 C 0.17981 0.01533 0.44017 0.0
C409 C 0.15457 0.9621 0.47763 0.0
O410 O 0.20875 0.01705 0.53253 0.0
O411 O 0.18653 0.9889 0.54937 0.0
O412 O 0.19307 0.02467 0.46542 0.0
O413 O 0.16116 1.00291 0.45268 0.0
O414 O 0.17139 0.97238 0.49869 0.0
O415 O 0.13509 0.97406 0.46561 0.0
C416 C 0.0771 0.00677 0.47625 0.0
O417 O 0.09061 0.98899 0.48225 0.0
O418 O 0.09255 0.02399 0.47555 0.0
C419 C 0.12835 1.00178 0.56152 0.0
Tb420 Tb 0.57525 0.76311 0.49154 0.0
C421 C 0.57413 0.71288 0.48829 0.0
Tb422 Tb 0.53542 0.75167 0.50379 0.0
O423 O 0.57452 0.78129 0.54258 0.0
O424 O 0.56614 0.74796 0.54196 0.0
O425 O 0.58854 0.72981 0.47774 0.0
C426 C 0.49913 0.74852 0.55299 0.0
O427 O 0.55111 0.71736 0.50239 0.0
C428 C 0.52415 0.74894 0.43758 0.0
C429 C 0.53944 0.8002 0.4745 0.0
O430 O 0.50269 0.7339 0.52835 0.0
O431 O 0.51444 0.76559 0.54796 0.0
O432 O 0.51008 0.74073 0.463 0.0
O433 O 0.546 0.7581 0.44845 0.0
O434 O 0.52653 0.78817 0.49795 0.0
O435 O 0.56067 0.79118 0.46207 0.0
C436 C 0.62459 0.77749 0.48538 0.0
O437 O 0.60421 0.79012 0.4875 0.0
O438 O 0.61716 0.75678 0.48371 0.0
C439 C 0.57142 0.76396 0.56241 0.0
Tb440 Tb 0.12556 0.7551 0.4018 0.0
C441 C 0.13822 0.70594 0.39466 0.0
Tb442 Tb 0.16968 0.74979 0.37759 0.0
O443 O 0.11229 0.77138 0.35256 0.0
O444 O 0.13445 0.74307 0.34888 0.0
O445 O 0.12438 0.7197 0.41378 0.0
C446 C 0.20549 0.75164 0.32743 0.0
O447 O 0.15601 0.71456 0.37311 0.0
C448 C 0.17905 0.74517 0.44569 0.0
C449 C 0.15591 0.79853 0.40399 0.0
O450 O 0.20696 0.739 0.35507 0.0
O451 O 0.18487 0.76407 0.32932 0.0
O452 O 0.19059 0.73431 0.42065 0.0
O453 O 0.16221 0.75877 0.43224 0.0
O454 O 0.17094 0.7873 0.38178 0.0
O455 O 0.13783 0.78727 0.42094 0.0
C456 C 0.07791 0.7598 0.42919 0.0
O457 O 0.08879 0.77309 0.40685 0.0
O458 O 0.09395 0.74368 0.43666 0.0
C459 C 0.12227 0.75746 0.33064 0.0
Tb460 Tb 0.57076 0.9979 0.39397 0.0
C461 C 0.57018 0.04709 0.39875 0.0
Tb462 Tb 0.53054 0.00886 0.37499 0.0
O463 O 0.58816 0.01247 0.34581 0.0
O464 O 0.55647 0.99152 0.34028 0.0
O465 O 0.58204 0.03038 0.4141 0.0
C466 C 0.50096 0.03213 0.33062 0.0
O467 O 0.54954 0.04228 0.37923 0.0
C468 C 0.51829 0.00566 0.44193 0.0
C469 C 0.53216 0.96007 0.39752 0.0
O470 O 0.52625 0.03209 0.33154 0.0
O471 O 0.49181 0.01841 0.3542 0.0
O472 O 0.50239 1.00256 0.41572 0.0
O473 O 0.54142 0.0117 0.43083 0.0
O474 O 0.52234 0.97236 0.37182 0.0
O475 O 0.55105 0.96907 0.41594 0.0
C476 C 0.61433 0.97513 0.40846 0.0
O477 O 0.59175 0.96625 0.40185 0.0
O478 O 0.61207 0.99664 0.40937 0.0
C479 C 0.57396 1.00213 0.32306 0.0
Tb480 Tb 0.78436 0.50003 0.13143 0.0
C481 C 0.78813 0.55024 0.15474 0.0
Tb482 Tb 0.82616 0.51265 0.1465 0.0
O483 O 0.76545 0.4848 0.17594 0.0
O484 O 0.79369 0.51071 0.18534 0.0
O485 O 0.77432 0.53646 0.13476 0.0
C486 C 0.87397 0.52851 0.16076 0.0
O487 O 0.80957 0.54239 0.16883 0.0
C488 C 0.82345 0.51323 0.07543 0.0
C489 C 0.8246 0.46187 0.14576 0.0
O490 O 0.85497 0.53966 0.14719 0.0
O491 O 0.86605 0.5083 0.16766 0.0
O492 O 0.82837 0.53014 0.09518 0.0
O493 O 0.81724 0.49738 0.09603 0.0
O494 O 0.83851 0.47859 0.15829 0.0
O495 O 0.80194 0.46642 0.13057 0.0
C496 C 0.7474 0.49561 0.08308 0.0
O497 O 0.75015 0.48248 0.10998 0.0
O498 O 0.76388 0.51206 0.08539 0.0
C499 C 0.77709 0.49692 0.19957 0.0
Tb500 Tb 0.4289 0.75929 0.12457 0.0
C501 C 0.42085 0.70937 0.15068 0.0
Tb502 Tb 0.38535 0.74865 0.14048 0.0
O503 O 0.4439 0.77662 0.17024 0.0
O504 O 0.41837 0.74915 0.17814 0.0
O505 O 0.43532 0.72209 0.12938 0.0
C506 C 0.33473 0.74232 0.15468 0.0
O507 O 0.3999 0.71846 0.1644 0.0
C508 C 0.38844 0.74586 0.06963 0.0
C509 C 0.39157 0.7991 0.13933 0.0
O510 O 0.35142 0.72658 0.1489 0.0
O511 O 0.34675 0.76138 0.15472 0.0
O512 O 0.38133 0.73005 0.09064 0.0
O513 O 0.3961 0.7619 0.08898 0.0
O514 O 0.37836 0.78321 0.15528 0.0
O515 O 0.41216 0.79324 0.12055 0.0
C516 C 0.46997 0.76569 0.08237 0.0
O517 O 0.46689 0.77489 0.11271 0.0
O518 O 0.45093 0.75168 0.07722 0.0
C519 C 0.4326 0.76405 0.19356 0.0
Tb520 Tb 0.77426 0.75938 0.26175 0.0
C521 C 0.78301 0.70954 0.23926 0.0
Tb522 Tb 0.81537 0.74968 0.2521 0.0
O523 O 0.74979 0.76787 0.2189 0.0
O524 O 0.78709 0.75219 0.20744 0.0
O525 O 0.76729 0.72242 0.25793 0.0
C526 C 0.86708 0.74309 0.24801 0.0
O527 O 0.80499 0.71841 0.2285 0.0
C528 C 0.80922 0.74756 0.32257 0.0
C529 C 0.81086 0.79961 0.24428 0.0
O530 O 0.84934 0.72765 0.24552 0.0
O531 O 0.8557 0.76228 0.24999 0.0
O532 O 0.81515 0.73102 0.30257 0.0
O533 O 0.80335 0.76354 0.30221 0.0
O534 O 0.82586 0.78311 0.23446 0.0
O535 O 0.78833 0.79438 0.25919 0.0
C536 C 0.73462 0.76488 0.30577 0.0
O537 O 0.74204 0.77919 0.28217 0.0
O538 O 0.74832 0.74677 0.30266 0.0
C539 C 0.76508 0.75991 0.19486 0.0
Tb540 Tb 0.42085 0.50019 0.26226 0.0
C541 C 0.41346 0.54899 0.23232 0.0
Tb542 Tb 0.37924 0.50853 0.24226 0.0
O543 O 0.44355 0.48488 0.22132 0.0
O544 O 0.41365 0.50809 0.20663 0.0
O545 O 0.42711 0.53718 0.25536 0.0
C546 C 0.32994 0.51402 0.22139 0.0
O547 O 0.39321 0.53905 0.21805 0.0
C548 C 0.37729 0.51142 0.31346 0.0
C549 C 0.38626 0.45847 0.245 0.0
O550 O 0.34572 0.52995 0.23037 0.0
O551 O 0.34216 0.49514 0.2225 0.0
O552 O 0.37031 0.52673 0.29156 0.0
O553 O 0.38699 0.49583 0.2951 0.0
O554 O 0.37347 0.47386 0.2276 0.0
O555 O 0.40586 0.46524 0.26517 0.0
C556 C 0.45551 0.5021 0.31381 0.0
O557 O 0.45566 0.48727 0.28898 0.0
O558 O 0.4372 0.51653 0.30798 0.0
C559 C 0.43206 0.49508 0.1954 0.0
Tb560 Tb 0.11777 0.49874 0.98595 0.0
C561 C 0.12047 0.54865 0.98745 0.0
Tb562 Tb 0.15938 0.50966 0.99865 0.0
O563 O 0.11755 0.47948 1.03607 0.0
O564 O 0.12882 0.51218 1.03703 0.0
O565 O 0.1088 0.53276 0.96961 0.0
C566 C 0.19949 0.51019 1.04262 0.0
O567 O 0.14091 0.5427 1.00655 0.0
C568 C 0.1648 0.5154 0.93066 0.0
C569 C 0.153 0.46041 0.97066 0.0
O570 O 0.19537 0.52524 1.01866 0.0
O571 O 0.18217 0.49441 1.04003 0.0
O572 O 0.17697 0.52671 0.95481 0.0
O573 O 0.14832 0.50133 0.94442 0.0
O574 O 0.16749 0.47309 0.99158 0.0
O575 O 0.13103 0.46906 0.95945 0.0
C576 C 0.06693 0.48875 0.98009 0.0
O577 O 0.08589 0.47458 0.97839 0.0
O578 O 0.07655 0.50877 0.98175 0.0
C579 C 0.12299 0.49587 1.05675 0.0
Tb580 Tb 0.56502 0.25586 0.99181 0.0
C581 C 0.55873 0.2057 0.99554 0.0
Tb582 Tb 0.52122 0.24568 1.00792 0.0
O583 O 0.57234 0.27332 1.04189 0.0
O584 O 0.55375 0.24291 1.04378 0.0
O585 O 0.57098 0.22113 0.97732 0.0
C586 C 0.47769 0.23953 1.04546 0.0
O587 O 0.53902 0.21228 1.01541 0.0
C588 C 0.51788 0.24211 0.9383 0.0
C589 C 0.53006 0.29582 0.98477 0.0
O590 O 0.48533 0.22706 1.01988 0.0
O591 O 0.49396 0.2561 1.0488 0.0
O592 O 0.50688 0.22899 0.96101 0.0
O593 O 0.53165 0.25675 0.95482 0.0
O594 O 0.51589 0.28301 1.00616 0.0
O595 O 0.55036 0.28658 0.96965 0.0
C596 C 0.61508 0.26198 0.97454 0.0
O597 O 0.59915 0.27763 0.98367 0.0
O598 O 0.60259 0.24313 0.97319 0.0
C599 C 0.5631 0.25839 1.063 0.0
Tb600 Tb 0.12861 0.26388 0.89106 0.0
C601 C 0.12821 0.21433 0.89688 0.0
Tb602 Tb 0.16915 0.25198 0.87279 0.0
O603 O 0.1105 0.24969 0.84315 0.0
O604 O 0.14343 0.26929 0.83746 0.0
O605 O 0.11467 0.2314 0.90818 0.0
C606 C 0.19688 0.22766 0.82812 0.0
O607 O 0.15077 0.21856 0.88105 0.0
C608 C 0.1809 0.25595 0.93964 0.0
C609 C 0.16824 0.30088 0.89435 0.0
O610 O 0.17163 0.22827 0.83007 0.0
O611 O 0.20709 0.24135 0.85094 0.0
O612 O 0.19703 0.25902 0.91362 0.0
O613 O 0.15786 0.24971 0.92827 0.0
O614 O 0.17774 0.28843 0.86874 0.0
O615 O 0.14948 0.29203 0.91319 0.0
C616 C 0.08722 0.28938 0.9059 0.0
O617 O 0.10934 0.2966 0.89392 0.0
O618 O 0.08885 0.26807 0.91163 0.0
C619 C 0.1256 0.25908 0.8203 0.0
Tb620 Tb 0.57529 0.49586 0.89969 0.0
C621 C 0.57113 0.54633 0.89959 0.0
Tb622 Tb 0.53277 0.50719 0.88683 0.0
O623 O 0.57743 0.47816 0.84874 0.0
O624 O 0.5641 0.51028 0.84888 0.0
O625 O 0.58362 0.53017 0.91576 0.0
C626 C 0.4885 0.51338 0.8516 0.0
O627 O 0.55057 0.54061 0.88054 0.0
C628 C 0.53099 0.51113 0.95625 0.0
C629 C 0.53887 0.45695 0.91022 0.0
O630 O 0.49496 0.52367 0.88005 0.0
O631 O 0.50645 0.49906 0.84359 0.0
O632 O 0.52062 0.52475 0.93379 0.0
O633 O 0.54376 0.49598 0.93961 0.0
O634 O 0.52478 0.4702 0.88965 0.0
O635 O 0.56038 0.46554 0.92346 0.0
C636 C 0.62578 0.48685 0.91062 0.0
O637 O 0.60768 0.47215 0.90484 0.0
O638 O 0.61531 0.50645 0.91257 0.0
C639 C 0.57096 0.49455 0.82859 0.0
H640 H 0.34089 0.81378 0.13876 0.0
H641 H 0.42085 0.83788 0.14311 0.0
H642 H 0.32477 0.85182 0.13972 0.0
H643 H 0.40518 0.87613 0.14785 0.0
H644 H 0.37368 0.94628 0.13379 0.0
H645 H 0.38986 0.90827 0.13023 0.0
H646 H 0.31304 0.88364 0.16231 0.0
H647 H 0.29668 0.92176 0.16202 0.0
C648 C 0.35507 0.82736 0.14053 0.0
C649 C 0.38217 0.82275 0.14074 0.0
C650 C 0.3458 0.8495 0.14154 0.0
C651 C 0.36329 0.86797 0.1442 0.0
C652 C 0.39059 0.86304 0.14494 0.0
C653 C 0.39983 0.84087 0.14256 0.0
C654 C 0.36032 0.93263 0.14002 0.0
C655 C 0.33388 0.93709 0.14818 0.0
C656 C 0.36966 0.91052 0.13831 0.0
C657 C 0.35315 0.89196 0.14597 0.0
C658 C 0.32669 0.89678 0.15507 0.0
C659 C 0.31715 0.91889 0.15543 0.0
H660 H 0.7978 0.42269 0.15728 0.0
H661 H 0.87517 0.44841 0.13386 0.0
H662 H 0.8146 0.38476 0.15667 0.0
H663 H 0.89194 0.41054 0.12935 0.0
H664 H 0.92288 0.33977 0.14134 0.0
H665 H 0.90697 0.37799 0.14652 0.0
H666 H 0.82703 0.35381 0.13191 0.0
H667 H 0.84321 0.3158 0.13061 0.0
C668 C 0.81847 0.42012 0.15154 0.0
C669 C 0.83514 0.43858 0.14586 0.0
C670 C 0.82827 0.39814 0.15062 0.0
C671 C 0.85498 0.39371 0.14244 0.0
C672 C 0.87151 0.41252 0.13652 0.0
C673 C 0.86185 0.43452 0.13883 0.0
C674 C 0.90191 0.34281 0.1394 0.0
C675 C 0.88433 0.32475 0.13574 0.0
C676 C 0.89256 0.36493 0.14208 0.0
C677 C 0.8653 0.36984 0.13987 0.0
C678 C 0.84797 0.35145 0.13508 0.0
C679 C 0.85728 0.32936 0.13379 0.0
H680 H 0.33888 0.4429 0.22113 0.0
H681 H 0.41184 0.41982 0.26644 0.0
H682 H 0.32213 0.40458 0.22 0.0
H683 H 0.39506 0.38108 0.26466 0.0
H684 H 0.36333 0.31303 0.2169 0.0
H685 H 0.38129 0.35119 0.21907 0.0
H686 H 0.30839 0.37455 0.2637 0.0
H687 H 0.29059 0.33634 0.26214 0.0
C688 C 0.35149 0.42964 0.23071 0.0
C689 C 0.37684 0.43461 0.24384 0.0
C690 C 0.34174 0.40759 0.23024 0.0
C691 C 0.35713 0.38962 0.2423 0.0
C692 C 0.38267 0.39446 0.25499 0.0
C693 C 0.39228 0.41669 0.25612 0.0
C694 C 0.35106 0.32629 0.22708 0.0
C695 C 0.32538 0.32151 0.23916 0.0
C696 C 0.36148 0.34818 0.22859 0.0
C697 C 0.34637 0.36606 0.24158 0.0
C698 C 0.32059 0.36129 0.25332 0.0
C699 C 0.31036 0.33933 0.25246 0.0
H700 H 0.78206 0.83776 0.23227 0.0
H701 H 0.86121 0.815 0.25068 0.0
H702 H 0.79792 0.87615 0.22774 0.0
H703 H 0.87713 0.85327 0.24989 0.0
H704 H 0.90627 0.92338 0.22851 0.0
H705 H 0.89032 0.88496 0.22668 0.0
H706 H 0.81135 0.90841 0.24854 0.0
H707 H 0.82736 0.94668 0.24661 0.0
C708 C 0.8029 0.84107 0.23579 0.0
C709 C 0.82035 0.82328 0.24159 0.0
C710 C 0.81218 0.8633 0.23363 0.0
C711 C 0.83918 0.86865 0.23859 0.0
C712 C 0.85643 0.85053 0.24486 0.0
C713 C 0.84724 0.8283 0.2457 0.0
C714 C 0.88546 0.92019 0.23257 0.0
C715 C 0.8681 0.93812 0.23748 0.0
C716 C 0.87613 0.89794 0.23198 0.0
C717 C 0.84919 0.89275 0.23771 0.0
C718 C 0.83202 0.91102 0.24305 0.0
C719 C 0.84124 0.93325 0.2423 0.0
H720 H 0.57892 0.06029 0.97349 0.0
H721 H 0.65373 0.08362 1.01338 0.0
H722 H 0.56199 0.09857 0.97514 0.0
H723 H 0.63686 0.12203 1.01455 0.0
H724 H 0.60593 0.19012 0.97129 0.0
H725 H 0.62245 0.15179 0.97138 0.0
H726 H 0.55011 0.12886 1.01914 0.0
H727 H 0.53362 0.16746 1.01954 0.0
C728 C 0.59183 0.07359 0.98251 0.0
C729 C 0.61779 0.06878 0.9932 0.0
C730 C 0.58202 0.09556 0.98368 0.0
C731 C 0.59799 0.11351 0.99498 0.0
C732 C 0.62402 0.10871 1.00546 0.0
C733 C 0.63369 0.08665 1.0049 0.0
C734 C 0.59345 0.17696 0.98183 0.0
C735 C 0.56834 0.182 0.99536 0.0
C736 C 0.60306 0.15492 0.98208 0.0
C737 C 0.5877 0.13711 0.9953 0.0
C738 C 0.56245 0.14209 1.00854 0.0
C739 C 0.55301 0.16426 1.00889 0.0
H740 H 0.06298 0.68348 0.94278 0.0
H741 H 0.04633 0.6752 1.05316 0.0
H742 H 0.07985 0.64531 0.9402 0.0
H743 H 0.0638 0.63683 1.05074 0.0
H744 H 0.12987 0.5817 1.03624 0.0
H745 H 0.10944 0.61876 1.04018 0.0
H746 H 0.06469 0.60497 0.94625 0.0
H747 H 0.08472 0.56785 0.94263 0.0
C748 C 0.06259 0.67338 0.96647 0.0
C749 C 0.05307 0.68242 0.99813 0.0
C750 C 0.0723 0.65143 0.96497 0.0
C751 C 0.07336 0.63791 0.99526 0.0
C752 C 0.06347 0.6468 1.02693 0.0
C753 C 0.05318 0.6687 1.02827 0.0
C754 C 0.11575 0.5866 1.01633 0.0
C755 C 0.10913 0.57175 0.98896 0.0
C756 C 0.10383 0.60779 1.01881 0.0
C757 C 0.0853 0.61492 0.99361 0.0
C758 C 0.07892 0.60014 0.96605 0.0
C759 C 0.09045 0.57882 0.96396 0.0
H760 H 0.66448 0.66959 0.88477 0.0
H761 H 0.5893 0.69219 0.92343 0.0
H762 H 0.64844 0.6309 0.88576 0.0
H763 H 0.57318 0.65347 0.92415 0.0
H764 H 0.54561 0.58459 0.87845 0.0
H765 H 0.56161 0.62333 0.88085 0.0
H766 H 0.63434 0.60065 0.92732 0.0
H767 H 0.61829 0.56198 0.92516 0.0
C768 C 0.64459 0.66632 0.89377 0.0
C769 C 0.62826 0.68411 0.90415 0.0
C770 C 0.63539 0.64407 0.89441 0.0
C771 C 0.60944 0.63895 0.90493 0.0
C772 C 0.59317 0.65674 0.91557 0.0
C773 C 0.60251 0.67897 0.91542 0.0
C774 C 0.56498 0.58786 0.88929 0.0
C775 C 0.58061 0.57007 0.90161 0.0
C776 C 0.57412 0.61012 0.89085 0.0
C777 C 0.59933 0.61523 0.90427 0.0
C778 C 0.61494 0.59741 0.91654 0.0
C779 C 0.60565 0.57519 0.91547 0.0
H780 H 0.1547 0.17523 0.88518 0.0
H781 H 0.0778 0.20016 0.91266 0.0
H782 H 0.13737 0.13703 0.88513 0.0
H783 H 0.06035 0.16174 0.91237 0.0
H784 H 0.0359 0.09033 0.86807 0.0
H785 H 0.05115 0.12952 0.86993 0.0
H786 H 0.1202 0.10905 0.92756 0.0
H787 H 0.10513 0.07038 0.92594 0.0
C788 C 0.13411 0.17258 0.89147 0.0
C789 C 0.11776 0.19087 0.8992 0.0
C790 C 0.12414 0.1506 0.89148 0.0
C791 C 0.09739 0.14618 0.89874 0.0
C792 C 0.08097 0.16447 0.90639 0.0
C793 C 0.09106 0.1865 0.90689 0.0
C794 C 0.05424 0.09425 0.88129 0.0
C795 C 0.06922 0.07706 0.89678 0.0
C796 C 0.06296 0.11673 0.88248 0.0
C797 C 0.08706 0.12252 0.89871 0.0
C798 C 0.10177 0.1053 0.91443 0.0
C799 C 0.09296 0.08303 0.91365 0.0
H800 H 0.32358 0.31677 0.66327 0.0
H801 H 0.40007 0.33909 0.62775 0.0
H802 H 0.30754 0.35522 0.6606 0.0
H803 H 0.38399 0.3777 0.62524 0.0
H804 H 0.35215 0.44693 0.6612 0.0
H805 H 0.36875 0.40861 0.66408 0.0
H806 H 0.29694 0.38449 0.61633 0.0
H807 H 0.28035 0.42286 0.61328 0.0
C808 C 0.33708 0.32988 0.65506 0.0
C809 C 0.36321 0.32471 0.64579 0.0
C810 C 0.32777 0.35198 0.65327 0.0
C811 C 0.34437 0.3697 0.64258 0.0
C812 C 0.37065 0.36458 0.63384 0.0
C813 C 0.37988 0.34239 0.63518 0.0
C814 C 0.33985 0.43349 0.65127 0.0
C815 C 0.31483 0.43812 0.63701 0.0
C816 C 0.34948 0.41146 0.65275 0.0
C817 C 0.33425 0.39331 0.64048 0.0
C818 C 0.30917 0.39794 0.62636 0.0
C819 C 0.29968 0.42002 0.62444 0.0
H820 H 0.77146 0.92226 0.64947 0.0
H821 H 0.85181 0.94446 0.63818 0.0
H822 H 0.78639 0.88393 0.65817 0.0
H823 H 0.86701 0.90622 0.643 0.0
H824 H 0.8942 0.83797 0.67449 0.0
H825 H 0.87791 0.87609 0.67231 0.0
H826 H 0.80106 0.85092 0.6415 0.0
H827 H 0.81718 0.81289 0.64752 0.0
C828 C 0.79236 0.91878 0.64819 0.0
C829 C 0.81045 0.93635 0.6433 0.0
C830 C 0.80112 0.89663 0.65291 0.0
C831 C 0.82825 0.89124 0.65158 0.0
C832 C 0.84611 0.9091 0.6456 0.0
C833 C 0.83739 0.93126 0.64227 0.0
C834 C 0.87371 0.84072 0.66785 0.0
C835 C 0.85695 0.82243 0.66151 0.0
C836 C 0.86426 0.86276 0.66594 0.0
C837 C 0.83793 0.86735 0.65604 0.0
C838 C 0.82123 0.84872 0.64987 0.0
C839 C 0.8305 0.82666 0.65314 0.0
H840 H 0.37071 0.93358 0.68785 0.0
H841 H 0.3982 0.92413 0.79409 0.0
H842 H 0.35339 0.8953 0.68731 0.0
H843 H 0.38021 0.88578 0.79383 0.0
H844 H 0.31386 0.82946 0.78869 0.0
H845 H 0.33313 0.8673 0.78989 0.0
H846 H 0.37089 0.85494 0.6904 0.0
H847 H 0.3522 0.81709 0.68955 0.0
C848 C 0.37328 0.92325 0.71103 0.0
C849 C 0.38608 0.93194 0.74091 0.0
C850 C 0.3633 0.90127 0.71071 0.0
C851 C 0.36525 0.88742 0.74057 0.0
C852 C 0.37819 0.89602 0.77046 0.0
C853 C 0.38874 0.91792 0.7705 0.0
C854 C 0.32614 0.83487 0.76698 0.0
C855 C 0.33132 0.82021 0.73892 0.0
C856 C 0.33739 0.85649 0.76783 0.0
C857 C 0.35366 0.8642 0.74029 0.0
C858 C 0.35841 0.84964 0.71199 0.0
C859 C 0.34766 0.82791 0.71151 0.0
H860 H 0.86853 0.31405 0.71594 0.0
H861 H 0.79391 0.33671 0.75641 0.0
H862 H 0.88505 0.35262 0.71604 0.0
H863 H 0.81038 0.37531 0.75626 0.0
H864 H 0.83967 0.44379 0.71476 0.0
H865 H 0.82386 0.40514 0.71378 0.0
H866 H 0.89736 0.38308 0.75877 0.0
H867 H 0.91322 0.42197 0.76001 0.0
C868 C 0.85555 0.32726 0.72468 0.0
C869 C 0.82979 0.32219 0.73606 0.0
C870 C 0.86514 0.3494 0.72498 0.0
C871 C 0.84912 0.36718 0.73618 0.0
C872 C 0.82324 0.36212 0.74717 0.0
C873 C 0.81379 0.33994 0.74736 0.0
C874 C 0.85259 0.43074 0.72433 0.0
C875 C 0.87781 0.4361 0.7374 0.0
C876 C 0.8434 0.40853 0.72399 0.0
C877 C 0.85924 0.39089 0.73628 0.0
C878 C 0.88466 0.39618 0.74885 0.0
C879 C 0.89375 0.4185 0.74966 0.0
H880 H 0.6705 0.58968 0.48186 0.0
H881 H 0.59198 0.56757 0.50755 0.0
H882 H 0.655 0.62827 0.47767 0.0
H883 H 0.5767 0.60585 0.50696 0.0
H884 H 0.54653 0.67387 0.47903 0.0
H885 H 0.56313 0.63582 0.47863 0.0
H886 H 0.64181 0.66112 0.49888 0.0
H887 H 0.62512 0.69917 0.49574 0.0
C888 C 0.64999 0.5932 0.48727 0.0
C889 C 0.63245 0.57559 0.49479 0.0
C890 C 0.64094 0.61546 0.48512 0.0
C891 C 0.61421 0.62083 0.49159 0.0
C892 C 0.5971 0.60295 0.50038 0.0
C893 C 0.60595 0.58077 0.50127 0.0
C894 C 0.56741 0.6712 0.48304 0.0
C895 C 0.58446 0.68956 0.48728 0.0
C896 C 0.57709 0.6492 0.48334 0.0
C897 C 0.60409 0.64469 0.48933 0.0
C898 C 0.62107 0.66333 0.49355 0.0
C899 C 0.61146 0.68537 0.492 0.0
H900 H 0.14876 0.0856 0.54593 0.0
H901 H 0.12259 0.07842 0.4387 0.0
H902 H 0.13372 0.12474 0.54567 0.0
H903 H 0.1083 0.11746 0.43814 0.0
H904 H 0.10998 0.19553 0.4418 0.0
H905 H 0.12809 0.15754 0.44296 0.0
H906 H 0.08743 0.14432 0.54033 0.0
H907 H 0.06876 0.18212 0.53875 0.0
C908 C 0.14028 0.09246 0.52212 0.0
C909 C 0.137 0.07884 0.4923 0.0
C910 C 0.13145 0.11483 0.52205 0.0
C911 C 0.11974 0.1243 0.49187 0.0
C912 C 0.11734 0.11084 0.46175 0.0
C913 C 0.12554 0.08841 0.46211 0.0
C914 C 0.10486 0.18454 0.46346 0.0
C915 C 0.08776 0.19193 0.49007 0.0
C916 C 0.11524 0.16272 0.4641 0.0
C917 C 0.10933 0.14783 0.49181 0.0
C918 C 0.0926 0.15536 0.51876 0.0
C919 C 0.08173 0.17701 0.5177 0.0
H920 H 0.62208 0.18333 0.44916 0.0
H921 H 0.64521 0.17438 0.34108 0.0
H922 H 0.60621 0.14457 0.45142 0.0
H923 H 0.6286 0.13565 0.34309 0.0
H924 H 0.56087 0.08125 0.35257 0.0
H925 H 0.58075 0.11865 0.35129 0.0
H926 H 0.6244 0.10329 0.4455 0.0
H927 H 0.60502 0.06548 0.44631 0.0
C928 C 0.62402 0.17301 0.42595 0.0
C929 C 0.63502 0.18196 0.39495 0.0
C930 C 0.61495 0.15077 0.4273 0.0
C931 C 0.61601 0.13702 0.39742 0.0
C932 C 0.62738 0.14584 0.36652 0.0
C933 C 0.63707 0.16797 0.36543 0.0
C934 C 0.57463 0.08582 0.37315 0.0
C935 C 0.58122 0.07033 0.39967 0.0
C936 C 0.58621 0.10722 0.37219 0.0
C937 C 0.60429 0.11394 0.39815 0.0
C938 C 0.61054 0.09864 0.4251 0.0
C939 C 0.59941 0.07699 0.4256 0.0
H940 H 0.1429 0.67474 0.34188 0.0
H941 H 0.11829 0.68198 0.4497 0.0
H942 H 0.12733 0.63565 0.3425 0.0
H943 H 0.10355 0.64287 0.4506 0.0
H944 H 0.10435 0.56371 0.44284 0.0
H945 H 0.1235 0.60165 0.44311 0.0
H946 H 0.07902 0.61815 0.3501 0.0
H947 H 0.05932 0.58069 0.35039 0.0
C948 C 0.13466 0.66789 0.36588 0.0
C949 C 0.13185 0.68151 0.39572 0.0
C950 C 0.12559 0.64555 0.36618 0.0
C951 C 0.11416 0.63614 0.39662 0.0
C952 C 0.11236 0.64953 0.42683 0.0
C953 C 0.12077 0.67197 0.42624 0.0
C954 C 0.09858 0.57548 0.42258 0.0
C955 C 0.08013 0.56916 0.39678 0.0
C956 C 0.10955 0.5972 0.42271 0.0
C957 C 0.10293 0.61289 0.39646 0.0
C958 C 0.08474 0.60643 0.37048 0.0
C959 C 0.07328 0.58499 0.37086 0.0
H960 H 0.22239 0.98519 0.21778 0.0
H961 H 0.29241 0.01624 0.25958 0.0
H962 H 0.20038 0.98939 0.27388 0.0
H963 H 0.27067 0.01978 0.31688 0.0
H964 H 0.21901 0.04092 0.41025 0.0
H965 H 0.2411 0.03686 0.35385 0.0
H966 H 0.19197 0.97949 0.33078 0.0
H967 H 0.16928 0.98425 0.387 0.0
C968 C 0.23338 0.99273 0.23912 0.0
C969 C 0.25951 1.00025 0.23347 0.0
C970 C 0.22061 0.99504 0.27193 0.0
C971 C 0.23325 0.00494 0.30116 0.0
C972 C 0.25962 0.01233 0.29557 0.0
C973 C 0.27242 0.0101 0.26246 0.0
C974 C 0.21268 0.0275 0.39307 0.0
C975 C 0.19198 0.01307 0.40369 0.0
C976 C 0.22572 0.02496 0.36043 0.0
C977 C 0.21892 0.0077 0.33664 0.0
C978 C 0.19798 0.9933 0.34731 0.0
C979 C 0.18478 0.99597 0.37998 0.0
H980 H -0.00678 0.21995 0.4009 0.0
H981 H 0.03906 0.27893 0.37704 0.0
H982 H 0.9687 0.22437 0.34668 0.0
H983 H 0.01544 0.28289 0.32125 0.0
H984 H 0.95631 0.29699 0.23333 0.0
H985 H -0.02004 0.29276 0.2886 0.0
H986 H 0.96177 0.22197 0.28835 0.0
H987 H 0.93701 0.22677 0.23379 0.0
C988 C -0.00153 0.23378 0.38377 0.0
C989 C 0.01846 0.24901 0.39397 0.0
C990 C -0.01571 0.23629 0.35201 0.0
C991 C -0.01052 0.25407 0.32833 0.0
C992 C 0.00996 0.26912 0.3383 0.0
C993 C 0.02401 0.26672 0.37046 0.0
C994 C 0.95698 0.28054 0.24535 0.0
C995 C 0.94422 0.26232 0.2288 0.0
C996 C 0.97107 0.27797 0.27722 0.0
C997 C 0.97355 0.2569 0.29404 0.0
C998 C 0.96042 0.23867 0.27747 0.0
C999 C 0.94599 0.24135 0.24574 0.0
H1000 H 0.22634 0.27503 0.96361 0.0
H1001 H 0.16025 0.23677 1.00203 0.0
H1002 H 0.24599 0.27509 1.02168 0.0
H1003 H 0.18043 0.23591 1.06065 0.0
H1004 H 0.21181 0.25001 0.17109 0.0
H1005 H 0.19207 0.25056 0.11326 0.0
H1006 H 0.26903 0.26018 1.06719 0.0
H1007 H 0.28871 0.26056 0.12617 0.0
C1008 C 0.2159 0.26641 0.9845 0.0
C1009 C 0.19143 0.25588 0.97735 0.0
C1010 C 0.2275 0.26626 1.01834 0.0
C1011 C 0.21546 0.25537 1.04721 0.0
C1012 C 0.19072 0.24488 1.04007 0.0
C1013 C 0.17892 0.24524 1.00601 0.0
C1014 C 0.22477 0.25238 0.14878 0.0
C1015 C 0.25217 0.2554 0.15418 0.0
C1016 C 0.21323 0.25246 0.11492 0.0
C1017 C 0.22841 0.25529 0.08411 0.0
C1018 C 0.25601 0.25827 0.08948 0.0
C1019 C 0.2676 0.25841 0.1237 0.0
H1020 H 0.90903 0.01834 0.127 0.0
H1021 H -0.02331 0.98424 0.16893 0.0
H1022 H 0.9312 0.02146 0.06992 0.0
H1023 H -0.00083 0.98791 0.11288 0.0
H1024 H 0.02965 0.98252 0.99912 0.0
H1025 H 0.00659 0.97801 1.05529 0.0
H1026 H 0.96251 0.03823 1.03433 0.0
H1027 H -0.01501 0.04216 0.97815 0.0
C1028 C 0.92858 0.01142 0.12418 0.0
C1029 C 0.94072 1.00089 0.15316 0.0
C1030 C 0.94163 0.01342 0.09118 0.0
C1031 C 0.96749 0.00504 0.0857 0.0
C1032 C -0.02067 0.99437 0.11485 0.0
C1033 C 0.96631 0.99235 0.14759 0.0
C1034 C 0.01522 0.99491 1.00661 0.0
C1035 C 0.00953 0.0128 0.98357 0.0
C1036 C 0.0018 0.99236 1.03923 0.0
C1037 C -0.01788 0.00764 1.05039 0.0
C1038 C -0.02314 0.02566 1.02729 0.0
C1039 C -0.00987 0.02812 0.99478 0.0
H1040 H 0.68915 0.04345 0.88986 0.0
H1041 H 0.66859 0.97343 0.88801 0.0
H1042 H 0.71192 0.03972 0.83391 0.0
H1043 H 0.69234 0.96922 0.83252 0.0
H1044 H 0.721 0.96942 0.71847 0.0
H1045 H 0.69737 0.9733 0.77346 0.0
H1046 H 0.74759 0.02912 0.80136 0.0
H1047 H 0.77049 0.02569 0.74495 0.0
C1048 C 0.68931 0.02717 0.87737 0.0
C1049 C 0.67652 0.00885 0.89375 0.0
C1050 C 0.70288 0.0249 0.84512 0.0
C1051 C 0.70468 1.00407 0.8277 0.0
C1052 C 0.69147 0.98574 0.84401 0.0
C1053 C 0.67762 0.98811 0.87621 0.0
C1054 C 0.72719 0.98256 0.73628 0.0
C1055 C 0.74793 0.99722 0.72664 0.0
C1056 C 0.71354 0.98472 0.76844 0.0
C1057 C 0.72002 1.00159 0.79301 0.0
C1058 C 0.7412 0.01608 0.78356 0.0
C1059 C 0.75476 0.014 0.75105 0.0
H1060 H 0.96187 0.72666 0.92739 0.0
H1061 H 0.02309 0.77197 0.89339 0.0
H1062 H 0.93945 0.73096 0.87101 0.0
H1063 H 0.00058 0.77645 0.83672 0.0
H1064 H 0.97011 0.76043 0.72546 0.0
H1065 H -0.00953 0.75876 0.78289 0.0
H1066 H 0.91375 0.75371 0.83095 0.0
H1067 H 0.89303 0.75525 0.77223 0.0
C1068 C 0.97068 0.73761 0.9079 0.0
C1069 C -0.00535 0.74883 0.91549 0.0
C1070 C 0.95753 0.74025 0.87532 0.0
C1071 C 0.96778 0.75412 0.84845 0.0
C1072 C -0.00816 0.76536 0.85606 0.0
C1073 C 0.00492 0.76284 0.88886 0.0
C1074 C 0.95726 0.75919 0.74809 0.0
C1075 C 0.9296 0.75811 0.74345 0.0
C1076 C 0.96917 0.75835 0.78154 0.0
C1077 C 0.95417 0.75613 0.81249 0.0
C1078 C 0.92634 0.75525 0.80812 0.0
C1079 C 0.91427 0.75636 0.77426 0.0
H1080 H 0.66044 0.74495 1.00747 0.0
H1081 H 0.73787 0.75616 0.96435 0.0
H1082 H 0.67943 0.74565 1.06708 0.0
H1083 H 0.75663 0.75697 1.02301 0.0
H1084 H 0.78867 0.74137 0.13449 0.0
H1085 H 0.76953 0.73757 0.07527 0.0
H1086 H 0.69834 0.7693 0.11108 0.0
H1087 H 0.7172 0.77295 0.1694 0.0
C1088 C 0.68146 0.74741 1.01049 0.0
C1089 C 0.69737 0.75042 0.98046 0.0
C1090 C 0.6925 0.74798 1.04491 0.0
C1091 C 0.71992 0.75136 1.05068 0.0
C1092 C 0.73566 0.75399 1.02045 0.0
C1093 C 0.72467 0.75365 0.98636 0.0
C1094 C 0.76899 0.7476 0.12971 0.0
C1095 C 0.75479 0.75758 0.15735 0.0
C1096 C 0.75786 0.74546 0.0955 0.0
C1097 C 0.73199 0.753 0.08761 0.0
C1098 C 0.71796 0.76285 0.11546 0.0
C1099 C 0.72908 0.76514 0.14929 0.0
H1100 H 0.2056 0.53991 0.90227 0.0
H1101 H 0.15204 0.48661 0.87485 0.0
H1102 H 0.22788 0.53608 0.84621 0.0
H1103 H 0.17362 0.48325 0.81752 0.0
H1104 H 0.22969 0.46762 0.72639 0.0
H1105 H 0.20738 0.47172 0.78254 0.0
H1106 H 0.23316 0.5407 0.78727 0.0
H1107 H 0.25647 0.53603 0.73145 0.0
C1108 C 0.1982 0.52747 0.88406 0.0
C1109 C 0.17667 0.51365 0.89381 0.0
C1110 C 0.21109 0.52532 0.85124 0.0
C1111 C 0.20311 0.50928 0.82603 0.0
C1112 C 0.18118 0.49564 0.83564 0.0
C1113 C 0.16836 0.49771 0.86876 0.0
C1114 C 0.23081 0.4837 0.73944 0.0
C1115 C 0.2452 0.50143 0.72376 0.0
C1116 C 0.21757 0.48619 0.77196 0.0
C1117 C 0.21774 0.50667 0.79061 0.0
C1118 C 0.23239 0.52444 0.77488 0.0
C1119 C 0.24588 0.52184 0.74235 0.0
H1120 H 0.22401 0.72459 0.46897 0.0
H1121 H 0.16558 0.77145 0.50415 0.0
H1122 H 0.24798 0.7289 0.52357 0.0
H1123 H 0.1889 0.77507 0.56032 0.0
H1124 H 0.24494 0.79129 0.65163 0.0
H1125 H 0.22151 0.7878 0.59603 0.0
H1126 H 0.25645 0.72272 0.58068 0.0
H1127 H 0.28079 0.72698 0.63566 0.0
C1128 C 0.21596 0.73573 0.48859 0.0
C1129 C 0.19255 0.74765 0.48142 0.0
C1130 C 0.22983 0.73811 0.52063 0.0
C1131 C 0.22095 0.75235 0.54776 0.0
C1132 C 0.19722 0.76414 0.54067 0.0
C1133 C 0.18344 0.76193 0.50821 0.0
C1134 C 0.24793 0.77631 0.63618 0.0
C1135 C 0.26526 0.75959 0.64853 0.0
C1136 C 0.23404 0.77411 0.60402 0.0
C1137 C 0.2364 0.75486 0.5826 0.0
C1138 C 0.25394 0.73813 0.59512 0.0
C1139 C 0.26813 0.7405 0.62715 0.0
H1140 H 0.04035 0.50721 0.50414 0.0
H1141 H 0.96243 0.5079 0.45922 0.0
H1142 H 0.02072 0.5062 0.56338 0.0
H1143 H 0.94304 0.50673 0.5174 0.0
H1144 H 0.91211 0.52115 0.62899 0.0
H1145 H 0.93273 0.52489 0.57083 0.0
H1146 H -0.00258 0.48379 0.60549 0.0
H1147 H -0.023 0.48027 0.66313 0.0
C1148 C 0.01911 0.50737 0.5067 0.0
C1149 C 0.00324 0.50778 0.47625 0.0
C1150 C 0.00767 0.50658 0.5409 0.0
C1151 C -0.02008 0.50639 0.54605 0.0
C1152 C 0.96431 0.50719 0.51543 0.0
C1153 C -0.02436 0.50774 0.48157 0.0
C1154 C 0.93064 0.5128 0.62419 0.0
C1155 C 0.94255 0.50027 0.65132 0.0
C1156 C 0.94263 0.51491 0.59054 0.0
C1157 C 0.96715 0.50472 0.58261 0.0
C1158 C -0.02106 0.49228 0.60995 0.0
C1159 C 0.96692 0.49007 0.64332 0.0
H1160 H 0.74191 0.46874 0.23262 0.0
H1161 H 0.78298 0.53102 0.24966 0.0
H1162 H 0.71941 0.47268 0.28872 0.0
H1163 H 0.75984 0.53553 0.30565 0.0
H1164 H 0.7304 0.53111 0.4196 0.0
H1165 H 0.75273 0.5273 0.36361 0.0
H1166 H 0.68765 0.48768 0.32468 0.0
H1167 H 0.66568 0.49095 0.38188 0.0
C1168 C 0.74626 0.48339 0.24835 0.0
C1169 C 0.76471 0.49942 0.23603 0.0
C1170 C 0.73294 0.48583 0.28085 0.0
C1171 C 0.73716 0.50456 0.3029 0.0
C1172 C 0.75585 0.52059 0.29055 0.0
C1173 C 0.76933 0.51805 0.25798 0.0
C1174 C 0.72061 0.5216 0.39918 0.0
C1175 C 0.69589 0.51142 0.40603 0.0
C1176 C 0.73356 0.51949 0.36641 0.0
C1177 C 0.72253 0.50713 0.33833 0.0
C1178 C 0.69752 0.49711 0.34506 0.0
C1179 C 0.68455 0.49916 0.37813 0.0
H1180 H 0.67345 0.27878 0.49343 0.0
H1181 H 0.71481 0.21705 0.47632 0.0
H1182 H 0.69626 0.28344 0.54962 0.0
H1183 H 0.73682 0.22096 0.53286 0.0
H1184 H 0.78958 0.23907 0.62706 0.0
H1185 H 0.7679 0.2355 0.56973 0.0
H1186 H 0.70348 0.27592 0.60717 0.0
H1187 H 0.7257 0.28016 0.6632 0.0
C1188 C 0.68709 0.26595 0.50183 0.0
C1189 C 0.69196 0.24746 0.47981 0.0
C1190 C 0.70036 0.26855 0.53454 0.0
C1191 C 0.71897 0.25265 0.54702 0.0
C1192 C 0.72338 0.23402 0.52491 0.0
C1193 C 0.71035 0.23158 0.49217 0.0
C1194 C 0.77092 0.24738 0.62293 0.0
C1195 C 0.75976 0.26004 0.65036 0.0
C1196 C 0.7581 0.24516 0.58979 0.0
C1197 C 0.73338 0.25533 0.58258 0.0
C1198 C 0.72246 0.26801 0.61029 0.0
C1199 C 0.73533 0.27036 0.64309 0.0
H1200 H 0.52167 0.2781 0.89112 0.0
H1201 H 0.48424 0.21371 0.90319 0.0
H1202 H 0.49772 0.28389 0.83593 0.0
H1203 H 0.4609 0.21898 0.84784 0.0
H1204 H 0.4046 0.23951 0.75841 0.0
H1205 H 0.42742 0.235 0.81489 0.0
H1206 H 0.49103 0.27681 0.77707 0.0
H1207 H 0.46791 0.28174 0.72171 0.0
C1208 C 0.50863 0.26499 0.88188 0.0
C1209 C 0.50524 0.24537 0.90219 0.0
C1210 C 0.49471 0.26825 0.8498 0.0
C1211 C 0.47677 0.25202 0.8364 0.0
C1212 C 0.47381 0.23229 0.85672 0.0
C1213 C 0.48762 0.22909 0.88871 0.0
C1214 C 0.4233 0.24796 0.76228 0.0
C1215 C 0.43403 0.26114 0.73491 0.0
C1216 C 0.43676 0.24518 0.79487 0.0
C1217 C 0.46162 0.25542 0.8016 0.0
C1218 C 0.47201 0.26877 0.77414 0.0
C1219 C 0.4586 0.27154 0.74179 0.0
H1220 H 0.41527 0.0179 0.63146 0.0
H1221 H 0.48106 0.97851 0.66674 0.0
H1222 H 0.43615 0.02193 0.57355 0.0
H1223 H 0.50186 0.98242 0.60924 0.0
H1224 H 0.54446 0.00703 0.50756 0.0
H1225 H 0.5247 0.00548 0.56675 0.0
H1226 H 0.4472 1.00356 0.52037 0.0
H1227 H 0.4667 0.00516 0.46224 0.0
C1228 C 0.43411 0.00998 0.627 0.0
C1229 C 0.44613 0.99775 0.65439 0.0
C1230 C 0.44625 0.01224 0.59345 0.0
C1231 C 0.47111 1.00257 0.58581 0.0
C1232 C 0.48309 0.99048 0.61344 0.0
C1233 C 0.47087 0.98806 0.64673 0.0
C1234 C 0.52322 0.00652 0.51 0.0
C1235 C 0.50746 0.00638 0.47942 0.0
C1236 C 0.51171 0.00543 0.54419 0.0
C1237 C 0.48396 1.00442 0.54925 0.0
C1238 C 0.46844 0.00465 0.5185 0.0
C1239 C 0.47986 0.00547 0.48465 0.0
H1240 H 0.42812 0.72935 0.24281 0.0
H1241 H 0.46575 0.7934 0.2276 0.0
H1242 H 0.45119 0.72503 0.29891 0.0
H1243 H 0.48816 0.78964 0.28395 0.0
H1244 H 0.54242 0.77166 0.3772 0.0
H1245 H 0.52087 0.77478 0.31954 0.0
H1246 H 0.45664 0.73356 0.35711 0.0
H1247 H 0.47849 0.72993 0.41344 0.0
C1248 C 0.44101 0.74271 0.25156 0.0
C1249 C 0.44473 0.76177 0.23012 0.0
C1250 C 0.45441 0.74031 0.28418 0.0
C1251 C 0.47209 0.75692 0.29706 0.0
C1252 C 0.47541 0.77609 0.27557 0.0
C1253 C 0.46214 0.77841 0.24299 0.0
C1254 C 0.52388 0.76302 0.37299 0.0
C1255 C 0.51257 0.75039 0.40057 0.0
C1256 C 0.51115 0.765 0.33972 0.0
C1257 C 0.48651 0.75447 0.33256 0.0
C1258 C 0.47556 0.74172 0.3603 0.0
C1259 C 0.48823 0.73973 0.39325 0.0
H1260 H 0.4203 0.52233 0.13736 0.0
H1261 H 0.47538 0.47217 0.17146 0.0
H1262 H 0.44387 0.52562 0.08136 0.0
H1263 H 0.49946 0.47586 0.11649 0.0
H1264 H 0.52988 0.47416 1.00197 0.0
H1265 H 0.50566 0.46986 1.05733 0.0
H1266 H 0.47919 0.53827 1.04888 0.0
H1267 H 0.50266 0.54211 0.99341 0.0
C1268 C 0.4374 0.51193 0.13304 0.0
C1269 C 0.44556 0.49689 0.15954 0.0
C1270 C 0.45133 0.51396 0.1007 0.0
C1271 C 0.47418 0.50112 0.0933 0.0
C1272 C 0.48203 0.48597 0.11993 0.0
C1273 C 0.4681 0.48391 0.15206 0.0
C1274 C 0.51914 0.48837 1.01209 0.0
C1275 C 0.51863 0.50856 0.99269 0.0
C1276 C 0.50504 0.48595 1.04425 0.0
C1277 C 0.4898 0.50363 1.05863 0.0
C1278 C 0.48985 0.5239 1.03926 0.0
C1279 C 0.50378 0.52624 1.00719 0.0
H1280 H 0.3271 0.97537 1.03149 0.0
H1281 H 0.34216 0.04635 1.03305 0.0
H1282 H 0.34158 0.97389 0.96987 0.0
H1283 H 0.35693 0.045 0.97212 0.0
H1284 H 0.3903 0.97515 0.86491 0.0
H1285 H 0.37623 0.97533 0.92683 0.0
H1286 H 0.34577 0.0421 0.91302 0.0
H1287 H 0.36013 0.04189 0.85198 0.0
C1288 C 0.33347 0.99073 1.0188 0.0
C1289 C 0.33323 0.01102 1.03787 0.0
C1290 C 0.34206 0.98988 0.98318 0.0
C1291 C 0.35064 0.00932 0.96485 0.0
C1292 C 0.35024 0.02956 0.98419 0.0
C1293 C 0.3418 0.03037 1.01968 0.0
C1294 C 0.38068 0.9899 0.87513 0.0
C1295 C 0.37654 0.00852 0.85279 0.0
C1296 C 0.37235 0.99 0.91092 0.0
C1297 C 0.35965 0.00878 0.92609 0.0
C1298 C 0.35572 0.02734 0.90348 0.0
C1299 C 0.36393 0.02719 0.8679 0.0
H1300 H 0.91913 0.25758 1.0052 0.0
H1301 H 0.84033 0.24365 1.04108 0.0
H1302 H 0.90317 0.25792 0.9439 0.0
H1303 H 0.82422 0.24494 0.98024 0.0
H1304 H 0.80316 0.27141 0.86476 0.0
H1305 H 0.8192 0.27313 0.92594 0.0
H1306 H 0.8821 0.22802 0.89983 0.0
H1307 H 0.8654 0.22551 0.83942 0.0
C1308 C 0.89833 0.25498 1.0002 0.0
C1309 C 0.88113 0.25071 1.02861 0.0
C1310 C 0.88912 0.25504 0.96484 0.0
C1311 C 0.8622 0.25151 0.95649 0.0
C1312 C 0.84497 0.2479 0.9851 0.0
C1313 C 0.8543 0.24714 1.02024 0.0
C1314 C 0.82041 0.26184 0.87201 0.0
C1315 C 0.83281 0.24829 0.84662 0.0
C1316 C 0.82965 0.26278 0.90731 0.0
C1317 C 0.85224 0.25082 0.91842 0.0
C1318 C 0.86488 0.23766 0.89273 0.0
C1319 C 0.85514 0.23614 0.85786 0.0
H1320 H 0.29495 0.23077 0.36495 0.0
H1321 H 0.35876 0.27694 0.34576 0.0
H1322 H 0.30674 0.22973 0.42764 0.0
H1323 H 0.37079 0.2758 0.40776 0.0
H1324 H 0.37568 0.28459 0.52818 0.0
H1325 H 0.36252 0.28613 0.46619 0.0
H1326 H 0.3361 0.21743 0.47224 0.0
H1327 H 0.34901 0.21615 0.53416 0.0
C1328 C 0.31153 0.2407 0.37393 0.0
C1329 C 0.32581 0.25388 0.34958 0.0
C1330 C 0.31851 0.24004 0.41022 0.0
C1331 C 0.33999 0.25267 0.4239 0.0
C1332 C 0.35397 0.26598 0.39933 0.0
C1333 C 0.3471 0.26652 0.36322 0.0
C1334 C 0.3671 0.26978 0.51634 0.0
C1335 C 0.36357 0.25025 0.53683 0.0
C1336 C 0.35956 0.27057 0.48033 0.0
C1337 C 0.34796 0.25191 0.46306 0.0
C1338 C 0.34447 0.2324 0.48382 0.0
C1339 C 0.35216 0.23158 0.51969 0.0
H1340 H 0.87229 0.97769 0.35613 0.0
H1341 H 0.85607 0.04829 0.35102 0.0
H1342 H 0.85615 0.97663 0.41705 0.0
H1343 H 0.83955 0.04735 0.41111 0.0
H1344 H 0.83257 0.04606 0.53058 0.0
H1345 H 0.84879 0.04563 0.4705 0.0
H1346 H 0.82079 0.9777 0.45871 0.0
H1347 H 0.80495 0.97814 0.51986 0.0
C1348 C 0.86532 0.99305 0.3679 0.0
C1349 C 0.86576 0.01311 0.34809 0.0
C1350 C 0.85576 0.99244 0.4031 0.0
C1351 C 0.84632 0.01191 0.42019 0.0
C1352 C 0.8469 0.03191 0.40007 0.0
C1353 C 0.85635 0.03248 0.36504 0.0
C1354 C 0.8297 0.03096 0.51533 0.0
C1355 C 0.8172 0.01218 0.53078 0.0
C1356 C 0.83898 0.03073 0.48026 0.0
C1357 C 0.83627 0.01168 0.45848 0.0
C1358 C 0.82374 0.99276 0.474 0.0
C1359 C 0.81436 0.99302 0.50933 0.0
H1360 H 0.63612 0.02793 0.10685 0.0
H1361 H 0.60854 0.9597 0.10279 0.0
H1362 H 0.62143 0.03055 0.16804 0.0
H1363 H 0.59427 0.96199 0.16396 0.0
H1364 H 0.55102 0.97674 0.26876 0.0
H1365 H 0.5644 0.97463 0.20675 0.0
H1366 H 0.62744 0.02161 0.22707 0.0
H1367 H 0.61372 0.02392 0.2882 0.0
C1368 C 0.62713 0.01336 0.119 0.0
C1369 C 0.62376 0.99358 0.09924 0.0
C1370 C 0.61866 0.01478 0.15455 0.0
C1371 C 0.60633 0.9965 0.1721 0.0
C1372 C 0.60312 0.97671 0.15213 0.0
C1373 C 0.61164 0.9753 0.11669 0.0
C1374 C 0.56768 0.98668 0.25998 0.0
C1375 C 0.58114 1.0005 0.28416 0.0
C1376 C 0.57561 0.98539 0.22411 0.0
C1377 C 0.59729 0.99794 0.21075 0.0
C1378 C 0.61049 0.01183 0.23519 0.0
C1379 C 0.60263 0.01306 0.27083 0.0
H1380 H 0.0377 0.73918 0.12561 0.0
H1381 H 0.11019 0.77296 0.09927 0.0
H1382 H 0.05118 0.73826 0.18792 0.0
H1383 H 0.12424 0.77096 0.16096 0.0
H1384 H 0.14925 0.73992 0.27304 0.0
H1385 H 0.13577 0.73938 0.2107 0.0
H1386 H 0.06174 0.76942 0.23839 0.0
H1387 H 0.07572 0.77102 0.30011 0.0
C1388 C 0.05663 0.74621 0.13288 0.0
C1389 C 0.07269 0.75619 0.10681 0.0
C1390 C 0.06442 0.74571 0.16885 0.0
C1391 C 0.08904 0.75443 0.1801 0.0
C1392 C 0.10529 0.7639 0.15381 0.0
C1393 C 0.09712 0.76511 0.11816 0.0
C1394 C 0.13007 0.74637 0.26594 0.0
C1395 C 0.1137 0.75549 0.29223 0.0
C1396 C 0.1223 0.74613 0.22995 0.0
C1397 C 0.09744 0.75427 0.21888 0.0
C1398 C 0.08089 0.76284 0.24539 0.0
C1399 C 0.08901 0.7638 0.28106 0.0
H1400 H 0.65301 0.77952 0.77001 0.0
H1401 H 0.59237 0.73031 0.78895 0.0
H1402 H 0.63905 0.7821 0.70818 0.0
H1403 H 0.57815 0.73301 0.72801 0.0
H1404 H 0.56974 0.7274 0.60784 0.0
H1405 H 0.58497 0.72471 0.6688 0.0
H1406 H 0.60771 0.79443 0.66604 0.0
H1407 H 0.59278 0.79685 0.60498 0.0
C1408 C 0.63672 0.76921 0.76114 0.0
C1409 C 0.624 0.75467 0.78512 0.0
C1410 C 0.62845 0.77077 0.72541 0.0
C1411 C 0.60721 0.75776 0.71198 0.0
C1412 C 0.59475 0.74316 0.73621 0.0
C1413 C 0.60291 0.7417 0.77173 0.0
C1414 C 0.57792 0.7422 0.6202 0.0
C1415 C 0.57985 0.76235 0.60087 0.0
C1416 C 0.58666 0.74073 0.65562 0.0
C1417 C 0.59789 0.75933 0.67346 0.0
C1418 C 0.59971 0.7795 0.65391 0.0
C1419 C 0.59084 0.78097 0.61858 0.0
H1420 H 0.11582 0.9859 0.79297 0.0
H1421 H 0.04387 0.0199 0.76659 0.0
H1422 H 0.1299 0.98787 0.73135 0.0
H1423 H 0.05745 0.02091 0.70429 0.0
H1424 H 0.08113 0.98915 0.59162 0.0
H1425 H 0.0671 0.9907 0.65331 0.0
H1426 H 0.14257 0.01842 0.68192 0.0
H1427 H 0.15618 0.01785 0.61966 0.0
C1428 C 0.10289 0.99384 0.77408 0.0
C1429 C 0.07863 1.00285 0.78545 0.0
C1430 C 0.11109 0.99502 0.73845 0.0
C1431 C 0.09502 0.00457 0.71211 0.0
C1432 C 0.07056 0.01339 0.72338 0.0
C1433 C 0.06274 0.01289 0.75935 0.0
C1434 C 0.09475 0.99583 0.61089 0.0
C1435 C 0.11987 1.00351 0.59999 0.0
C1436 C 0.08659 0.99678 0.64655 0.0
C1437 C 0.10349 0.00472 0.67332 0.0
C1438 C 0.12879 0.01218 0.66249 0.0
C1439 C 0.13664 0.01194 0.62654 0.0
H1440 H 0.36004 0.5253 0.54486 0.0
H1441 H 0.2855 0.49672 0.51418 0.0
H1442 H 0.37563 0.52295 0.48392 0.0
H1443 H 0.30071 0.49545 0.45258 0.0
H1444 H 0.33204 0.52897 0.34252 0.0
H1445 H 0.31618 0.52755 0.40349 0.0
H1446 H 0.38507 0.49037 0.4335 0.0
H1447 H 0.40028 0.49073 0.37187 0.0
C1448 C 0.34686 0.51844 0.5252 0.0
C1449 C 0.32139 0.51107 0.53522 0.0
C1450 C 0.35592 0.51707 0.48994 0.0
C1451 C 0.33964 0.50901 0.46258 0.0
C1452 C 0.31403 0.50178 0.47248 0.0
C1453 C 0.30527 0.50242 0.50808 0.0
C1454 C 0.34379 0.52024 0.36192 0.0
C1455 C 0.36756 0.50988 0.35154 0.0
C1456 C 0.33457 0.51938 0.39716 0.0
C1457 C 0.34911 0.50882 0.42415 0.0
C1458 C 0.3731 0.49868 0.41391 0.0
C1459 C 0.38187 0.49883 0.3783 0.0
H1460 H 0.8888 0.73202 0.53123 0.0
H1461 H 0.82423 0.77661 0.55145 0.0
H1462 H 0.87603 0.73049 0.4689 0.0
H1463 H 0.8112 0.77491 0.48993 0.0
H1464 H 0.804 0.78307 0.36961 0.0
H1465 H 0.81814 0.78525 0.43117 0.0
H1466 H 0.84624 0.71727 0.42564 0.0
H1467 H 0.83241 0.71537 0.36421 0.0
C1468 C 0.87188 0.74152 0.52254 0.0
C1469 C 0.85768 0.75442 0.54703 0.0
C1470 C 0.86432 0.74056 0.4865 0.0
C1471 C 0.84231 0.75258 0.47328 0.0
C1472 C 0.82841 0.76559 0.498 0.0
C1473 C 0.83587 0.76645 0.53383 0.0
C1474 C 0.81314 0.76855 0.3815 0.0
C1475 C 0.8169 0.74904 0.36131 0.0
C1476 C 0.82126 0.76972 0.41724 0.0
C1477 C 0.83366 0.75145 0.43447 0.0
C1478 C 0.8373 0.73195 0.41404 0.0
C1479 C 0.82906 0.73077 0.37846 0.0
H1480 H 0.32477 0.78023 0.8552 0.0
H1481 H 0.3454 0.71051 0.84975 0.0
H1482 H 0.34032 0.78152 0.91645 0.0
H1483 H 0.36124 0.71171 0.91018 0.0
H1484 H 0.36655 0.71228 1.03001 0.0
H1485 H 0.35112 0.71253 0.96949 0.0
H1486 H 0.37543 0.78157 0.95904 0.0
H1487 H 0.39061 0.78126 1.02057 0.0
C1488 C 0.33256 0.7651 0.86695 0.0
C1489 C 0.33351 0.74521 0.8469 0.0
C1490 C 0.34178 0.76586 0.90236 0.0
C1491 C 0.35223 0.7467 0.9195 0.0
C1492 C 0.35308 0.72688 0.89913 0.0
C1493 C 0.34401 0.72618 0.86389 0.0
C1494 C 0.3688 0.72759 1.01496 0.0
C1495 C 0.38007 0.74671 1.03094 0.0
C1496 C 0.35996 0.72772 0.97964 0.0
C1497 C 0.36185 0.74703 0.95807 0.0
C1498 C 0.37316 0.76628 0.97411 0.0
C1499 C 0.38214 0.76611 1.00968 0.0
H1500 H 0.86206 0.54597 0.85324 0.0
H1501 H 0.88685 0.47736 0.86188 0.0
H1502 H 0.84707 0.54523 0.91397 0.0
H1503 H 0.87224 0.47657 0.92356 0.0
H1504 H 0.84288 0.54688 1.03357 0.0
H1505 H 0.85778 0.54605 0.97289 0.0
H1506 H 0.83782 0.47583 0.96697 0.0
H1507 H 0.82326 0.47675 1.02871 0.0
C1508 C 0.86457 0.53066 0.86816 0.0
C1509 C 0.8759 0.51177 0.85194 0.0
C1510 C 0.856 0.53023 0.90359 0.0
C1511 C 0.85828 0.51087 0.92497 0.0
C1512 C 0.86964 0.49187 0.90865 0.0
C1513 C 0.8783 0.49233 0.873 0.0
C1514 C 0.84151 0.53118 1.0195 0.0
C1515 C 0.83166 0.51192 1.03678 0.0
C1516 C 0.85002 0.5307 0.98407 0.0
C1517 C 0.84915 0.5109 0.96372 0.0
C1518 C 0.83927 0.4915 0.98108 0.0
C1519 C 0.83066 0.49201 1.01677 0.0
H1520 H 0.57111 0.53142 0.78219 0.0
H1521 H 0.59106 0.46151 0.78639 0.0
H1522 H 0.58642 0.53317 0.72082 0.0
H1523 H 0.60666 0.46316 0.72598 0.0
H1524 H 0.61246 0.4646 0.60616 0.0
H1525 H 0.59702 0.46441 0.66671 0.0
H1526 H 0.62101 0.53345 0.6777 0.0
H1527 H 0.63616 0.53357 0.61622 0.0
C1528 C 0.57867 0.51635 0.77017 0.0
C1529 C 0.57949 0.49626 0.78995 0.0
C1530 C 0.58776 0.51736 0.73466 0.0
C1531 C 0.59797 0.49829 0.71713 0.0
C1532 C 0.59868 0.47829 0.73724 0.0
C1533 C 0.58973 0.47733 0.77253 0.0
C1534 C 0.61463 0.47981 0.62135 0.0
C1535 C 0.62582 0.49906 0.60551 0.0
C1536 C 0.60578 0.47969 0.65671 0.0
C1537 C 0.60756 0.49887 0.67847 0.0
C1538 C 0.61879 0.51825 0.66255 0.0
C1539 C 0.62777 0.51832 0.62697 0.0
H1540 H 0.1503 0.28326 0.76585 0.0
H1541 H 0.08572 0.23781 0.78473 0.0
H1542 H 0.13815 0.285 0.7033 0.0
H1543 H 0.07332 0.23969 0.72295 0.0
H1544 H 0.06711 0.23193 0.60265 0.0
H1545 H 0.08073 0.22975 0.66438 0.0
H1546 H 0.10909 0.29792 0.65893 0.0
H1547 H 0.09575 0.29982 0.59721 0.0
C1548 C 0.13349 0.27362 0.75683 0.0
C1549 C 0.11912 0.2604 0.78105 0.0
C1550 C 0.12629 0.27469 0.72063 0.0
C1551 C 0.10449 0.26248 0.7069 0.0
C1552 C 0.09039 0.24918 0.73137 0.0
C1553 C 0.09749 0.24821 0.76737 0.0
C1554 C 0.0762 0.2465 0.61456 0.0
C1555 C 0.08013 0.26607 0.59426 0.0
C1556 C 0.08401 0.24534 0.65044 0.0
C1557 C 0.09628 0.26365 0.66782 0.0
C1558 C 0.10019 0.2832 0.64727 0.0
C1559 C 0.09225 0.28438 0.6115 0.0
H1560 H 0.53794 0.23926 0.12134 0.0
H1561 H 0.60999 0.27275 0.09205 0.0
H1562 H 0.55301 0.23812 0.18305 0.0
H1563 H 0.62549 0.27067 0.15305 0.0
H1564 H 0.65358 0.24094 0.26414 0.0
H1565 H 0.63859 0.24006 0.2024 0.0
H1566 H 0.56444 0.26858 0.23328 0.0
H1567 H 0.57984 0.27048 0.29435 0.0
C1568 C 0.55713 0.24612 0.1278 0.0
C1569 C 0.57258 0.25609 0.10106 0.0
C1570 C 0.56582 0.24555 0.16344 0.0
C1571 C 0.59072 0.25422 0.17371 0.0
C1572 C 0.60636 0.26364 0.14672 0.0
C1573 C 0.59733 0.26489 0.11144 0.0
C1574 C 0.63404 0.24697 0.25787 0.0
C1575 C 0.61807 0.25576 0.28487 0.0
C1576 C 0.62539 0.24654 0.22221 0.0
C1577 C 0.60004 0.25415 0.21218 0.0
C1578 C 0.58392 0.26239 0.23942 0.0
C1579 C 0.59288 0.26353 0.27474 0.0
H1580 H 0.09994 0.46302 0.09797 0.0
H1581 H 0.12854 0.53087 0.10443 0.0
H1582 H 0.08671 0.4643 0.15973 0.0
H1583 H 0.11506 0.53242 0.16622 0.0
H1584 H 0.11051 0.52277 0.28638 0.0
H1585 H 0.1229 0.52149 0.22459 0.0
H1586 H 0.05729 0.47724 0.20385 0.0
H1587 H 0.04513 0.47841 0.2664 0.0
C1588 C 0.10347 0.4783 0.11252 0.0
C1589 C 0.11551 0.49681 0.09559 0.0
C1590 C 0.09559 0.47913 0.14828 0.0
C1591 C 0.09951 0.49849 0.16907 0.0
C1592 C 0.11176 0.51698 0.15202 0.0
C1593 C 0.11949 0.51618 0.11615 0.0
C1594 C 0.09857 0.51274 0.26877 0.0
C1595 C 0.07672 0.50067 0.2821 0.0
C1596 C 0.10566 0.51212 0.2328 0.0
C1597 C 0.09133 0.49928 0.20807 0.0
C1598 C 0.06931 0.48718 0.22144 0.0
C1599 C 0.06211 0.48793 0.25761 0.0
H1600 H 0.25992 0.17516 0.27341 0.0
H1601 H 0.2825 0.19201 0.16738 0.0
H1602 H 0.25703 0.13541 0.25666 0.0
H1603 H 0.27955 0.15276 0.15065 0.0
H1604 H 0.29915 0.06856 0.22318 0.0
H1605 H 0.29043 0.10697 0.2408 0.0
H1606 H 0.2518 0.1191 0.14154 0.0
H1607 H 0.26056 0.08024 0.12385 0.0
C1608 C 0.26353 0.17049 0.24637 0.0
C1609 C 0.27142 0.18678 0.22178 0.0
C1610 C 0.26216 0.14768 0.23677 0.0
C1611 C 0.26819 0.14072 0.20222 0.0
C1612 C 0.27452 0.15732 0.17732 0.0
C1613 C 0.2763 0.17991 0.18701 0.0
C1614 C 0.28848 0.07928 0.20517 0.0
C1615 C 0.28072 0.07127 0.17192 0.0
C1616 C 0.28328 0.10136 0.21548 0.0
C1617 C 0.27042 0.11633 0.1927 0.0
C1618 C 0.26191 0.10813 0.15975 0.0
C1619 C 0.26679 0.08582 0.14961 0.0
H1620 H 0.89959 0.06955 0.16044 0.0
H1621 H 0.93894 0.08257 0.25884 0.0
H1622 H 0.90875 0.10778 0.14111 0.0
H1623 H 0.94789 0.12122 0.23956 0.0
H1624 H 0.9145 0.19301 0.211 0.0
H1625 H 0.91765 0.154 0.22895 0.0
H1626 H 0.94427 0.13642 0.12501 0.0
H1627 H 0.94167 0.1761 0.10714 0.0
C1628 C 0.91048 0.08053 0.17787 0.0
C1629 C 0.91835 0.073 0.21137 0.0
C1630 C 0.91594 0.10246 0.16659 0.0
C1631 C 0.92905 0.11769 0.18869 0.0
C1632 C 0.93766 0.10997 0.22187 0.0
C1633 C 0.93261 0.08781 0.23292 0.0
C1634 C 0.92174 0.18097 0.19214 0.0
C1635 C 0.92799 0.18774 0.15765 0.0
C1636 C 0.9236 0.15853 0.20252 0.0
C1637 C 0.93117 0.14195 0.17852 0.0
C1638 C 0.9383 0.14876 0.14419 0.0
C1639 C 0.93703 0.17148 0.13397 0.0
H1640 H 0.68009 0.83243 0.85269 0.0
H1641 H 0.67918 0.81319 0.96189 0.0
H1642 H 0.68197 0.8721 0.87007 0.0
H1643 H 0.6812 0.85242 0.97928 0.0
H1644 H 0.63925 0.93443 0.91828 0.0
H1645 H 0.64887 0.89693 0.89744 0.0
H1646 H 0.70561 0.88867 0.98092 0.0
H1647 H 0.69598 0.92675 1.00186 0.0
C1648 C 0.68121 0.83662 0.88032 0.0
C1649 C 0.67965 0.81965 0.90588 0.0
C1650 C 0.68196 0.85936 0.89038 0.0
C1651 C 0.68156 0.8656 0.92621 0.0
C1652 C 0.68178 0.84843 0.95155 0.0
C1653 C 0.68059 0.82587 0.94153 0.0
C1654 C 0.65397 0.92477 0.93219 0.0
C1655 C 0.66665 0.93365 0.96207 0.0
C1656 C 0.6597 0.90323 0.9199 0.0
C1657 C 0.67808 0.8896 0.9373 0.0
C1658 C 0.69124 0.89861 0.96686 0.0
C1659 C 0.68579 0.92046 0.97888 0.0
H1660 H 0.07031 0.8231 0.95197 0.0
H1661 H -0.00607 0.82964 1.00074 0.0
H1662 H 0.06835 0.86146 0.93197 0.0
H1663 H -0.00787 0.86902 0.98034 0.0
H1664 H -0.00246 0.93311 0.89833 0.0
H1665 H -0.00737 0.89407 0.91948 0.0
H1666 H 0.0702 0.8977 0.96546 0.0
H1667 H 0.07519 0.93574 0.9447 0.0
C1668 C 0.05296 0.8327 0.95854 0.0
C1669 C 0.03235 0.82311 0.97835 0.0
C1670 C 0.0519 0.85487 0.94696 0.0
C1671 C 0.03018 0.86846 0.95461 0.0
C1672 C 0.00912 0.85895 0.97385 0.0
C1673 C 0.01026 0.83649 0.98581 0.0
C1674 C 0.01347 0.92549 0.91295 0.0
C1675 C 0.03686 0.93764 0.9194 0.0
C1676 C 0.01056 0.90322 0.92534 0.0
C1677 C 0.0311 0.89268 0.94404 0.0
C1678 C 0.05409 0.9051 0.95087 0.0
C1679 C 0.05691 0.92708 0.93885 0.0
H1680 H 0.24722 0.68232 0.73475 0.0
H1681 H 0.32062 0.68036 0.67773 0.0
H1682 H 0.23459 0.64611 0.70889 0.0
H1683 H 0.30839 0.64459 0.6526 0.0
H1684 H 0.27871 0.58739 0.5916 0.0
H1685 H 0.28046 0.62631 0.61145 0.0
H1686 H 0.24542 0.60651 0.71022 0.0
H1687 H 0.2431 0.56782 0.68962 0.0
C1688 C 0.26069 0.6742 0.71685 0.0
C1689 C 0.28498 0.68437 0.70849 0.0
C1690 C 0.25346 0.65341 0.70195 0.0
C1691 C 0.27026 0.64234 0.6781 0.0
C1692 C 0.29452 0.65264 0.67001 0.0
C1693 C 0.30171 0.67321 0.68489 0.0
C1694 C 0.27011 0.5916 0.61676 0.0
C1695 C 0.2601 0.57461 0.63861 0.0
C1696 C 0.27165 0.61386 0.6286 0.0
C1697 C 0.26361 0.61969 0.6629 0.0
C1698 C 0.2517 0.6029 0.68365 0.0
C1699 C 0.25012 0.58066 0.67171 0.0
H1700 H 0.92372 0.67911 0.61435 0.0
H1701 H 0.90922 0.69362 0.72354 0.0
H1702 H 0.93052 0.63943 0.62955 0.0
H1703 H 0.91609 0.65446 0.73872 0.0
H1704 H 0.8944 0.57059 0.66799 0.0
H1705 H 0.89965 0.60949 0.65001 0.0
H1706 H 0.94694 0.62226 0.74218 0.0
H1707 H 0.94173 0.58287 0.76023 0.0
C1708 C 0.92269 0.67396 0.64163 0.0
C1709 C 0.91587 0.68949 0.66769 0.0
C1710 C 0.92635 0.65121 0.65037 0.0
C1711 C 0.92375 0.64364 0.68544 0.0
C1712 C 0.91852 0.65957 0.71157 0.0
C1713 C 0.91443 0.68207 0.70279 0.0
C1714 C 0.90621 0.58158 0.68433 0.0
C1715 C 0.91745 0.5736 0.71579 0.0
C1716 C 0.90943 0.60392 0.67376 0.0
C1717 C 0.92371 0.61915 0.69455 0.0
C1718 C 0.93568 0.61104 0.72557 0.0
C1719 C 0.9328 0.58846 0.7359 0.0
H1720 H 0.70176 0.32593 0.39502 0.0
H1721 H 0.62109 0.32531 0.43098 0.0
H1722 H 0.7059 0.36544 0.41375 0.0
H1723 H 0.62522 0.36398 0.44921 0.0
H1724 H 0.62849 0.43829 0.43304 0.0
H1725 H 0.63137 0.39991 0.41334 0.0
H1726 H 0.702 0.39071 0.47463 0.0
H1727 H 0.69917 0.42994 0.4949 0.0
C1728 C 0.68497 0.33416 0.40672 0.0
C1729 C 0.66105 0.32242 0.41125 0.0
C1730 C 0.68741 0.35667 0.41774 0.0
C1731 C 0.66584 0.36787 0.43291 0.0
C1732 C 0.64215 0.35598 0.43742 0.0
C1733 C 0.63982 0.33369 0.42692 0.0
C1734 C 0.64482 0.42832 0.44243 0.0
C1735 C 0.66344 0.4373 0.46603 0.0
C1736 C 0.64644 0.40619 0.43099 0.0
C1737 C 0.66677 0.39215 0.44256 0.0
C1738 C 0.68613 0.40117 0.46514 0.0
C1739 C 0.68442 0.42356 0.47691 0.0
H1740 H 0.00322 0.33164 0.50454 0.0
H1741 H 0.04986 0.32211 0.41109 0.0
H1742 H -0.0077 0.3697 0.48433 0.0
H1743 H 0.03938 0.3596 0.3913 0.0
H1744 H 0.01155 0.42572 0.35212 0.0
H1745 H 0.00766 0.38612 0.36946 0.0
H1746 H 0.01589 0.4049 0.47844 0.0
H1747 H 0.01936 0.44402 0.46112 0.0
C1748 C 0.01082 0.3375 0.47955 0.0
C1749 C 0.02766 0.32384 0.45973 0.0
C1750 C 0.0047 0.35936 0.46796 0.0
C1751 C 0.01497 0.36793 0.43604 0.0
C1752 C 0.03074 0.35372 0.41566 0.0
C1753 C 0.03702 0.33216 0.42734 0.0
C1754 C 0.01157 0.42138 0.37977 0.0
C1755 C 0.01578 0.43801 0.40519 0.0
C1756 C 0.0097 0.39865 0.3898 0.0
C1757 C 0.01179 0.3921 0.42548 0.0
C1758 C 0.01397 0.40907 0.45085 0.0
C1759 C 0.01607 0.4316 0.44084 0.0
H1760 H 0.77783 0.06687 0.71343 0.0
H1761 H 0.75646 0.08534 0.60763 0.0
H1762 H 0.77506 0.10584 0.73164 0.0
H1763 H 0.75386 0.12483 0.62585 0.0
H1764 H 0.75667 0.17807 0.76017 0.0
H1765 H 0.747 0.1396 0.74075 0.0
H1766 H 0.78872 0.15232 0.64389 0.0
H1767 H 0.79845 0.19028 0.66326 0.0
C1768 C 0.77194 0.07928 0.69417 0.0
C1769 C 0.76736 0.073 0.65905 0.0
C1770 C 0.77024 0.10167 0.7047 0.0
C1771 C 0.76436 0.11862 0.68028 0.0
C1772 C 0.7586 0.11224 0.64535 0.0
C1773 C 0.75984 0.08961 0.63491 0.0
C1774 C 0.76341 0.17269 0.73457 0.0
C1775 C 0.77854 0.1872 0.71347 0.0
C1776 C 0.75797 0.15064 0.72344 0.0
C1777 C 0.76707 0.14277 0.69066 0.0
C1778 C 0.78111 0.15774 0.66903 0.0
C1779 C 0.78691 0.17952 0.68037 0.0
H1780 H 0.44173 0.18285 0.64112 0.0
H1781 H 0.37396 0.18717 0.70933 0.0
H1782 H 0.4471 0.14316 0.65844 0.0
H1783 H 0.37921 0.14825 0.72587 0.0
H1784 H 0.37158 0.07376 0.70009 0.0
H1785 H 0.37379 0.11302 0.6838 0.0
H1786 H 0.4538 0.11686 0.72147 0.0
H1787 H 0.4516 0.07689 0.73851 0.0
C1788 C 0.42819 0.17549 0.65991 0.0
C1789 C 0.4073 0.18824 0.67355 0.0
C1790 C 0.43135 0.15285 0.66996 0.0
C1791 C 0.41349 0.14259 0.69344 0.0
C1792 C 0.3932 0.1556 0.70763 0.0
C1793 C 0.39023 0.178 0.69801 0.0
C1794 C 0.3898 0.08277 0.70494 0.0
C1795 C 0.41138 0.07207 0.72089 0.0
C1796 C 0.39101 0.10536 0.69552 0.0
C1797 C 0.41394 0.11806 0.7013 0.0
C1798 C 0.43591 0.10742 0.71649 0.0
C1799 C 0.43458 0.08463 0.72649 0.0
H1800 H 0.11862 0.82499 0.43196 0.0
H1801 H 0.19888 0.82759 0.3946 0.0
H1802 H 0.12115 0.86394 0.44877 0.0
H1803 H 0.20138 0.86752 0.41179 0.0
H1804 H 0.19537 0.93212 0.49034 0.0
H1805 H 0.19857 0.89303 0.46985 0.0
H1806 H 0.12419 0.90008 0.41619 0.0
H1807 H 0.1209 0.93842 0.4364 0.0
C1808 C 0.13693 0.8339 0.42718 0.0
C1809 C 0.15854 0.823 0.41174 0.0
C1810 C 0.1383 0.85641 0.4368 0.0
C1811 C 0.1614 0.86901 0.43158 0.0
C1812 C 0.18329 0.85825 0.41631 0.0
C1813 C 0.1818 0.83548 0.40616 0.0
C1814 C 0.17977 0.92527 0.47411 0.0
C1815 C 0.15773 0.93845 0.46543 0.0
C1816 C 0.18173 0.90296 0.46211 0.0
C1817 C 0.16156 0.89333 0.44149 0.0
C1818 C 0.13995 0.90677 0.43231 0.0
C1819 C 0.13809 0.92888 0.44399 0.0
H1820 H 0.55408 0.82017 0.41347 0.0
H1821 H 0.50606 0.83107 0.50528 0.0
H1822 H 0.54529 0.85803 0.39328 0.0
H1823 H 0.49708 0.86942 0.48485 0.0
H1824 H 0.52816 0.94276 0.46274 0.0
H1825 H 0.52378 0.90365 0.47984 0.0
H1826 H 0.51336 0.88538 0.37099 0.0
H1827 H 0.51787 0.92501 0.35385 0.0
C1828 C 0.54132 0.8306 0.42923 0.0
C1829 C 0.531 0.8226 0.46127 0.0
C1830 C 0.53606 0.85234 0.41737 0.0
C1831 C 0.52048 0.86695 0.43732 0.0
C1832 C 0.50932 0.85871 0.46886 0.0
C1833 C 0.51435 0.83671 0.48056 0.0
C1834 C 0.52427 0.93047 0.44246 0.0
C1835 C 0.52341 0.93699 0.4069 0.0
C1836 C 0.52163 0.90797 0.45233 0.0
C1837 C 0.5184 0.89117 0.42689 0.0
C1838 C 0.51608 0.89783 0.39132 0.0
C1839 C 0.51837 0.92054 0.38145 0.0
H1840 H 0.82132 0.58487 0.14806 0.0
H1841 H 0.74134 0.56942 0.17772 0.0
H1842 H 0.81626 0.62287 0.16922 0.0
H1843 H 0.73626 0.60795 0.20034 0.0
H1844 H 0.7385 0.6888 0.21163 0.0
H1845 H 0.73591 0.65018 0.18862 0.0
H1846 H 0.81451 0.63783 0.22735 0.0
H1847 H 0.81723 0.67602 0.24877 0.0
C1848 C 0.8024 0.58979 0.15868 0.0
C1849 C 0.78173 0.57416 0.1611 0.0
C1850 C 0.79957 0.61156 0.1713 0.0
C1851 C 0.77608 0.61846 0.18754 0.0
C1852 C 0.75467 0.60324 0.18815 0.0
C1853 C 0.75749 0.58122 0.17503 0.0
C1854 C 0.75488 0.67755 0.2158 0.0
C1855 C 0.77811 0.68542 0.23192 0.0
C1856 C 0.75348 0.65547 0.20251 0.0
C1857 C 0.77527 0.64095 0.20522 0.0
C1858 C 0.79763 0.64861 0.22362 0.0
C1859 C 0.79911 0.67049 0.23634 0.0
H1860 H 0.40231 0.56781 0.16904 0.0
H1861 H 0.44174 0.58219 0.26691 0.0
H1862 H 0.41038 0.60599 0.14899 0.0
H1863 H 0.44962 0.6209 0.24683 0.0
H1864 H 0.41585 0.69237 0.21622 0.0
H1865 H 0.41977 0.65364 0.23555 0.0
H1866 H 0.44456 0.63469 0.13141 0.0
H1867 H 0.44104 0.67402 0.11211 0.0
C1868 C 0.41296 0.5791 0.18625 0.0
C1869 C 0.42118 0.57189 0.2198 0.0
C1870 C 0.4178 0.60103 0.17453 0.0
C1871 C 0.43066 0.61668 0.19616 0.0
C1872 C 0.43956 0.60935 0.22946 0.0
C1873 C 0.43514 0.58714 0.24098 0.0
C1874 C 0.42281 0.68008 0.19757 0.0
C1875 C 0.42822 0.68638 0.1626 0.0
C1876 C 0.42513 0.65779 0.20876 0.0
C1877 C 0.4324 0.64088 0.18514 0.0
C1878 C 0.43879 0.64725 0.15034 0.0
C1879 C 0.437 0.6698 0.13928 0.0
H1880 H 0.13357 0.438 0.91416 0.0
H1881 H 0.19117 0.43183 0.99702 0.0
H1882 H 0.14411 0.40064 0.89357 0.0
H1883 H 0.20183 0.39396 0.97623 0.0
H1884 H 0.17728 0.318 0.95869 0.0
H1885 H 0.17889 0.35734 0.97548 0.0
H1886 H 0.17732 0.3764 0.86598 0.0
H1887 H 0.17573 0.33664 0.84924 0.0
C1888 C 0.14869 0.42871 0.92793 0.0
C1889 C 0.16134 0.43794 0.95755 0.0
C1890 C 0.15495 0.40727 0.91579 0.0
C1891 C 0.17391 0.39414 0.93304 0.0
C1892 C 0.18703 0.40351 0.96232 0.0
C1893 C 0.18099 0.42524 0.97424 0.0
C1894 C 0.17817 0.33059 0.93813 0.0
C1895 C 0.17657 0.3242 0.90261 0.0
C1896 C 0.1791 0.35321 0.94779 0.0
C1897 C 0.17798 0.3702 0.92221 0.0
C1898 C 0.17795 0.36378 0.88647 0.0
C1899 C 0.1774 0.34101 0.87676 0.0
H1900 H 0.53474 0.31408 0.92003 0.0
H1901 H 0.51027 0.33039 1.02531 0.0
H1902 H 0.53055 0.35314 0.90257 0.0
H1903 H 0.50651 0.37005 1.0079 0.0
H1904 H 0.54997 0.43703 0.97246 0.0
H1905 H 0.5412 0.39869 0.99105 0.0
H1906 H 0.50031 0.3862 0.89356 0.0
H1907 H 0.50885 0.42515 0.875 0.0
C1908 C 0.52792 0.326 0.93935 0.0
C1909 C 0.52281 0.31906 0.9741 0.0
C1910 C 0.52541 0.34846 0.92923 0.0
C1911 C 0.51825 0.36487 0.95374 0.0
C1912 C 0.51216 0.35786 0.98832 0.0
C1913 C 0.51412 0.33514 0.9983 0.0
C1914 C 0.53873 0.42626 0.95508 0.0
C1915 C 0.53027 0.43418 0.92205 0.0
C1916 C 0.53351 0.40425 0.96596 0.0
C1917 C 0.52005 0.38923 0.94391 0.0
C1918 C 0.51082 0.3973 0.91121 0.0
C1919 C 0.5156 0.41962 0.90057 0.0
H1920 H 0.21622 0.9677 1.05959 0.0
H1921 H 0.26418 0.02224 1.02021 0.0
H1922 H 0.19492 0.96457 1.00248 0.0
H1923 H 0.24363 0.01866 0.96266 0.0
H1924 H 0.15606 0.03447 0.92433 0.0
H1925 H 0.19838 0.03056 0.953 0.0
H1926 H 0.19473 0.95876 0.93832 0.0
H1927 H 0.15185 0.96278 0.90998 0.0
C1928 C 0.2224 0.97873 1.03845 0.0
C1929 C 0.24078 0.99578 1.04431 0.0
C1930 C 0.21074 0.97665 1.00557 0.0
C1931 C 0.21762 0.99152 0.97824 0.0
C1932 C 0.23785 0.0072 0.98343 0.0
C1933 C 0.2492 0.00947 1.01641 0.0
C1934 C 0.16474 0.01796 0.92625 0.0
C1935 C 0.15054 0.99882 0.91667 0.0
C1936 C 0.18917 0.0157 0.94215 0.0
C1937 C 0.19936 0.99424 0.94869 0.0
C1938 C 0.18689 0.97541 0.93414 0.0
C1939 C 0.16238 0.97769 0.91827 0.0
H1940 H 0.09319 0.3193 0.95774 0.0
H1941 H 0.03575 0.28926 0.88871 0.0
H1942 H 0.05978 0.32338 1.00287 0.0
H1943 H 0.00166 0.29492 0.93274 0.0
H1944 H -0.00957 0.24777 1.02771 0.0
H1945 H 0.01074 0.26568 0.97733 0.0
H1946 H 0.01779 0.32767 1.03529 0.0
H1947 H -0.00216 0.30933 0.08645 0.0
C1948 C 0.07291 0.31522 0.95133 0.0
C1949 C 0.06683 0.30325 0.9208 0.0
C1950 C 0.05372 0.31762 0.97712 0.0
C1951 C 0.02863 0.30822 0.97173 0.0
C1952 C 0.02127 0.30143 0.93777 0.0
C1953 C 0.04064 0.29827 0.91254 0.0
C1954 C -0.00334 0.26511 1.02981 0.0
C1955 C -0.00716 0.27715 1.06075 0.0
C1956 C 0.00761 0.2756 1.00073 0.0
C1957 C 0.01476 0.2984 1.002 0.0
C1958 C 0.01188 0.31025 1.03349 0.0
C1959 C 0.00096 0.29965 1.06278 0.0
H1960 H 0.19815 0.30443 0.30686 0.0
H1961 H 0.26589 0.28108 0.3646 0.0
H1962 H 0.17931 0.31882 0.36124 0.0
H1963 H 0.2477 0.29615 0.41875 0.0
H1964 H 0.17083 0.25857 0.46657 0.0
H1965 H 0.20986 0.27114 0.43564 0.0
H1966 H 0.17543 0.33671 0.42181 0.0
H1967 H 0.13636 0.32406 0.45388 0.0
C1968 C 0.20936 0.30323 0.33102 0.0
C1969 C 0.23247 0.29072 0.33249 0.0
C1970 C 0.19896 0.31184 0.36203 0.0
C1971 C 0.2118 0.30789 0.39431 0.0
C1972 C 0.23726 0.29897 0.39429 0.0
C1973 C 0.24733 0.28997 0.36355 0.0
C1974 C 0.17211 0.2759 0.45812 0.0
C1975 C 0.15055 0.29015 0.46114 0.0
C1976 C 0.19461 0.2833 0.4409 0.0
C1977 C 0.19535 0.30483 0.4257 0.0
C1978 C 0.17516 0.32003 0.4331 0.0
C1979 C 0.1528 0.31271 0.45104 0.0
H1980 H -0.01882 0.97295 0.33176 0.0
H1981 H 0.93841 0.03238 0.36136 0.0
H1982 H 0.00174 0.97205 0.38946 0.0
H1983 H 0.95836 0.03118 0.41955 0.0
H1984 H 0.04791 0.04236 0.45654 0.0
H1985 H 0.00496 0.04035 0.42885 0.0
H1986 H -0.00026 0.96981 0.45439 0.0
H1987 H 0.04323 0.97182 0.48151 0.0
C1988 C -0.02398 0.98561 0.35086 0.0
C1989 C 0.95922 1.00318 0.34204 0.0
C1990 C -0.0128 0.98484 0.38414 0.0
C1991 C -0.01848 1.0016 0.40892 0.0
C1992 C 0.96307 0.01818 0.4008 0.0
C1993 C 0.95211 0.01906 0.36742 0.0
C1994 C 0.03715 0.02664 0.45722 0.0
C1995 C 0.04902 0.00701 0.46928 0.0
C1996 C 0.01237 0.02552 0.44191 0.0
C1997 C -0.00044 0.0047 0.43858 0.0
C1998 C 0.00965 0.98589 0.45603 0.0
C1999 C 0.03453 0.987 0.47112 0.0
H2000 H 0.77882 1.00359 0.22971 0.0
H2001 H 0.81662 0.06275 0.18752 0.0
H2002 H 0.74476 0.00626 0.18481 0.0
H2003 H 0.7839 0.06449 0.14106 0.0
H2004 H 0.74204 0.98421 0.07145 0.0
H2005 H 0.76128 0.99402 0.12777 0.0
H2006 H 0.74189 0.06365 0.11005 0.0
H2007 H 0.72361 0.05379 1.05269 0.0
C2008 C 0.7791 0.01769 0.2117 0.0
C2009 C 0.80051 0.03245 0.21072 0.0
C2010 C 0.75983 0.01917 0.18596 0.0
C2011 C 0.76281 0.03476 0.15851 0.0
C2012 C 0.7815 0.05203 0.16156 0.0
C2013 C 0.80028 0.05099 0.18809 0.0
C2014 C 0.74263 1.00165 0.07927 0.0
C2015 C 0.7316 0.01826 1.05811 0.0
C2016 C 0.75288 0.00724 0.11181 0.0
C2017 C 0.75182 0.02947 0.12386 0.0
C2018 C 0.74239 0.04635 0.10158 0.0
C2019 C 0.73243 0.04077 0.06865 0.0
H2020 H 0.00028 0.77331 0.13067 0.0
H2021 H 0.94251 0.72835 0.08566 0.0
H2022 H -0.01446 0.76315 0.18951 0.0
H2023 H 0.92688 0.71896 0.14411 0.0
H2024 H 0.89269 0.7042 0.23428 0.0
H2025 H 0.93412 0.70242 0.20205 0.0
H2026 H 0.94528 0.77358 0.2176 0.0
H2027 H 0.9047 0.77509 0.25052 0.0
C2028 C -0.01585 0.76147 0.13345 0.0
C2029 C 0.9719 0.75199 0.10388 0.0
C2030 C -0.02387 0.75537 0.16705 0.0
C2031 C 0.95535 0.74007 0.17151 0.0
C2032 C 0.9435 0.73031 0.14172 0.0
C2033 C 0.95182 0.73616 0.10818 0.0
C2034 C 0.90478 0.71916 0.23222 0.0
C2035 C 0.89516 0.74004 0.24268 0.0
C2036 C 0.92849 0.71814 0.214 0.0
C2037 C 0.94189 0.73809 0.20557 0.0
C2038 C 0.93501 0.75799 0.22283 0.0
C2039 C 0.91151 0.75895 0.24133 0.0
H2040 H 0.77362 0.73011 0.66628 0.0
H2041 H 0.83181 0.68382 0.70516 0.0
H2042 H 0.74048 0.7127 0.70351 0.0
H2043 H 0.79886 0.66709 0.74439 0.0
H2044 H 0.75953 0.7175 0.83625 0.0
H2045 H 0.78611 0.69986 0.79093 0.0
H2046 H 0.71545 0.6789 0.73665 0.0
H2047 H 0.68882 0.69613 0.78244 0.0
C2048 C 0.77889 0.71554 0.68177 0.0
C2049 C 0.805 0.7085 0.6839 0.0
C2050 C 0.75994 0.70534 0.70273 0.0
C2051 C 0.76739 0.68884 0.72717 0.0
C2052 C 0.79278 0.67973 0.72563 0.0
C2053 C 0.81158 0.68944 0.70357 0.0
C2054 C 0.74977 0.70843 0.81529 0.0
C2055 C 0.72238 0.70889 0.81175 0.0
C2056 C 0.76489 0.6979 0.78978 0.0
C2057 C 0.75266 0.68826 0.76024 0.0
C2058 C 0.72519 0.68618 0.75929 0.0
C2059 C 0.71007 0.69643 0.78506 0.0
H2060 H 0.88607 0.05357 0.6731 0.0
H2061 H 0.89513 0.98196 0.66306 0.0
H2062 H 0.92699 0.05545 0.70688 0.0
H2063 H 0.9353 0.98363 0.69712 0.0
H2064 H 0.00068 0.98815 0.77001 0.0
H2065 H -0.02117 0.99577 0.71435 0.0
H2066 H 0.92553 0.0408 0.76736 0.0
H2067 H 0.9482 0.03388 0.82269 0.0
C2068 C 0.89732 0.0384 0.67717 0.0
C2069 C 0.88729 0.0175 0.6671 0.0
C2070 C 0.92063 0.03947 0.69631 0.0
C2071 C 0.93369 0.01961 0.70547 0.0
C2072 C 0.92557 0.99921 0.69064 0.0
C2073 C 0.90238 0.99817 0.67154 0.0
C2074 C -0.01576 0.99965 0.76965 0.0
C2075 C -0.02455 0.01003 0.8005 0.0
C2076 C 0.97209 1.00426 0.73779 0.0
C2077 C 0.9507 0.01896 0.73656 0.0
C2078 C 0.94242 0.02979 0.7674 0.0
C2079 C 0.95485 0.02543 0.79918 0.0
H2080 H 0.21818 0.50337 0.50766 0.0
H2081 H 0.20309 0.44628 0.57476 0.0
H2082 H 0.19668 0.48451 0.4594 0.0
H2083 H 0.18215 0.42668 0.52576 0.0
H2084 H 0.15522 0.46498 0.38057 0.0
H2085 H 0.19315 0.4553 0.4168 0.0
H2086 H 0.14042 0.43343 0.49942 0.0
H2087 H 0.10299 0.44154 0.46211 0.0
C2088 C 0.21033 0.48666 0.51187 0.0
C2089 C 0.21143 0.47651 0.54492 0.0
C2090 C 0.19863 0.4755 0.48398 0.0
C2091 C 0.18794 0.45385 0.48855 0.0
C2092 C 0.19018 0.44331 0.52144 0.0
C2093 C 0.20171 0.45464 0.54953 0.0
C2094 C 0.15202 0.45667 0.40558 0.0
C2095 C 0.12668 0.45458 0.41951 0.0
C2096 C 0.17361 0.45115 0.42633 0.0
C2097 C 0.1696 0.44515 0.46169 0.0
C2098 C 0.14422 0.43863 0.47262 0.0
C2099 C 0.12266 0.44344 0.45139 0.0
H2100 H 0.05776 0.73749 0.48488 0.0
H2101 H 0.04623 0.79544 0.41829 0.0
H2102 H 0.02484 0.75172 0.52556 0.0
H2103 H 0.01326 0.80975 0.45933 0.0
H2104 H -0.00509 0.7892 0.61077 0.0
H2105 H 0.02802 0.78855 0.56448 0.0
H2106 H 0.96699 0.79528 0.48608 0.0
H2107 H 0.9338 0.79642 0.53247 0.0
C2108 C 0.04782 0.75304 0.47874 0.0
C2109 C 0.05455 0.76557 0.44902 0.0
C2110 C 0.02938 0.76132 0.50209 0.0
C2111 C 0.01752 0.78216 0.49582 0.0
C2112 C 0.02269 0.79387 0.46473 0.0
C2113 C 0.04128 0.78561 0.44136 0.0
C2114 C -0.01125 0.79157 0.58374 0.0
C2115 C 0.96206 0.79211 0.57472 0.0
C2116 C 0.00757 0.79116 0.55741 0.0
C2117 C -0.00037 0.7911 0.52213 0.0
C2118 C 0.9733 0.79511 0.51329 0.0
C2119 C 0.95442 0.79572 0.53974 0.0
H2120 H 0.24831 0.72274 0.8519 0.0
H2121 H 0.20745 0.78084 0.8118 0.0
H2122 H 0.22224 0.72408 0.90547 0.0
H2123 H 0.18073 0.78178 0.86501 0.0
H2124 H 0.14416 0.78797 0.96633 0.0
H2125 H 0.1835 0.78799 0.92953 0.0
H2126 H 0.17525 0.71641 0.91546 0.0
H2127 H 0.13647 0.71636 0.95283 0.0
C2128 C 0.23355 0.73567 0.85452 0.0
C2129 C 0.22942 0.75155 0.82786 0.0
C2130 C 0.2189 0.73652 0.88519 0.0
C2131 C 0.19985 0.75316 0.88935 0.0
C2132 C 0.19584 0.76911 0.86267 0.0
C2133 C 0.21065 0.76835 0.83206 0.0
C2134 C 0.15134 0.77221 0.95615 0.0
C2135 C 0.13721 0.75226 0.96121 0.0
C2136 C 0.1737 0.77223 0.93522 0.0
C2137 C 0.18181 0.75232 0.91919 0.0
C2138 C 0.16931 0.73198 0.9276 0.0
C2139 C 0.14705 0.73196 0.94868 0.0
H2140 H 0.02503 0.51464 0.99699 0.0
H2141 H 0.04639 0.45019 0.95497 0.0
H2142 H -0.01768 0.51194 0.96804 0.0
H2143 H 0.00495 0.44812 0.92418 0.0
H2144 H 0.95605 0.4607 0.83436 0.0
H2145 H 0.96478 0.45309 0.89616 0.0
H2146 H -0.00889 0.5218 0.90896 0.0
H2147 H -0.01932 0.52941 0.84807 0.0
C2148 C 0.02014 0.49958 0.9825 0.0
C2149 C 0.03922 0.48332 0.97579 0.0
C2150 C -0.00431 0.49791 0.9662 0.0
C2151 C -0.00853 0.48091 0.94132 0.0
C2152 C 0.00805 0.46209 0.9418 0.0
C2153 C 0.03212 0.46337 0.95905 0.0
C2154 C 0.96399 0.47402 0.85058 0.0
C2155 C 0.96904 0.49537 0.83654 0.0
C2156 C 0.9684 0.4698 0.88604 0.0
C2157 C -0.0213 0.4867 0.90769 0.0
C2158 C -0.01732 0.50835 0.89354 0.0
C2159 C -0.02237 0.51265 0.85835 0.0
H2160 H 0.74908 0.53268 0.57432 0.0
H2161 H 0.69442 0.48425 0.61763 0.0
H2162 H 0.76571 0.54038 0.63288 0.0
H2163 H 0.71023 0.49257 0.67664 0.0
H2164 H 0.80103 0.55262 0.72429 0.0
H2165 H 0.75926 0.55421 0.69266 0.0
H2166 H 0.75193 0.48218 0.70135 0.0
H2167 H 0.79287 0.4808 0.73358 0.0
C2168 C 0.74068 0.52375 0.59651 0.0
C2169 C 0.7213 0.50737 0.59164 0.0
C2170 C 0.74956 0.52859 0.63015 0.0
C2171 C 0.73895 0.51726 0.65945 0.0
C2172 C 0.71871 0.50151 0.65453 0.0
C2173 C 0.71011 0.49645 0.6208 0.0
C2174 C 0.78974 0.53733 0.72076 0.0
C2175 C 0.80047 0.51645 0.72923 0.0
C2176 C 0.76585 0.53824 0.70293 0.0
C2177 C 0.75328 0.51822 0.69296 0.0
C2178 C 0.76147 0.49788 0.70794 0.0
C2179 C 0.78518 0.49701 0.72598 0.0
H2180 H -0.01558 0.20439 0.56533 0.0
H2181 H 0.96414 0.27415 0.57693 0.0
H2182 H 0.96587 0.1963 0.62334 0.0
H2183 H 0.94474 0.26615 0.63373 0.0
H2184 H 0.91869 0.25956 0.73191 0.0
H2185 H 0.95664 0.25584 0.6932 0.0
H2186 H 0.92243 0.19558 0.64928 0.0
H2187 H 0.88577 0.19844 0.68983 0.0
C2188 C -0.02465 0.21782 0.58001 0.0
C2189 C -0.02473 0.23983 0.56699 0.0
C2190 C 0.96524 0.21328 0.61329 0.0
C2191 C 0.95477 0.23071 0.63351 0.0
C2192 C 0.95378 0.25252 0.61948 0.0
C2193 C 0.96415 0.25705 0.58661 0.0
C2194 C 0.92015 0.24494 0.71521 0.0
C2195 C 0.8992 0.2298 0.71227 0.0
C2196 C 0.94173 0.24277 0.69316 0.0
C2197 C 0.9415 0.22619 0.66703 0.0
C2198 C 0.92284 0.20879 0.66872 0.0
C2199 C 0.90171 0.21053 0.6917 0.0
H2200 H 0.69635 0.27139 0.26442 0.0
H2201 H 0.75069 0.22605 0.31501 0.0
H2202 H 0.71619 0.26336 0.20768 0.0
H2203 H 0.77133 0.21872 0.25855 0.0
H2204 H 0.80967 0.20669 0.16505 0.0
H2205 H 0.76845 0.20414 0.19797 0.0
H2206 H 0.75932 0.27595 0.18888 0.0
H2207 H 0.79989 0.2783 0.15584 0.0
C2208 C 0.71275 0.25987 0.26335 0.0
C2209 C 0.7227 0.24978 0.29392 0.0
C2210 C 0.7237 0.255 0.23089 0.0
C2211 C 0.74509 0.24034 0.22872 0.0
C2212 C 0.75443 0.2297 0.2593 0.0
C2213 C 0.74318 0.23432 0.29171 0.0
C2214 C 0.79815 0.2217 0.16897 0.0
C2215 C 0.80813 0.24281 0.15968 0.0
C2216 C 0.77463 0.22025 0.18758 0.0
C2217 C 0.76137 0.23992 0.19696 0.0
C2218 C 0.76926 0.2605 0.18233 0.0
C2219 C 0.79269 0.26194 0.16384 0.0
H2220 H 0.88211 0.57188 0.17716 0.0
H2221 H 0.92057 0.50766 0.17037 0.0
H2222 H 0.91891 0.58644 0.21196 0.0
H2223 H 0.95796 0.52263 0.20329 0.0
H2224 H 0.01914 0.55028 0.26693 0.0
H2225 H -0.00601 0.56088 0.21484 0.0
H2226 H 0.92217 0.55755 0.27532 0.0
H2227 H 0.94709 0.54582 0.32702 0.0
C2228 C 0.89906 0.56128 0.18167 0.0
C2229 C 0.89858 0.53856 0.17226 0.0
C2230 C 0.92009 0.56972 0.20109 0.0
C2231 C 0.94098 0.55561 0.20992 0.0
C2232 C 0.94204 0.53381 0.19621 0.0
C2233 C 0.92063 0.52515 0.17794 0.0
C2234 C -0.00194 0.55263 0.26935 0.0
C2235 C -0.01533 0.54659 0.30028 0.0
C2236 C -0.01612 0.55901 0.23975 0.0
C2237 C 0.9564 0.55996 0.24145 0.0
C2238 C 0.94349 0.55712 0.2738 0.0
C2239 C 0.95758 0.55007 0.3031 0.0
H2240 H 0.7506 0.98447 0.51619 0.0
H2241 H 0.6791 0.97297 0.5749 0.0
H2242 H 0.7331 0.96278 0.46737 0.0
H2243 H 0.6606 0.95259 0.52531 0.0
H2244 H 0.61828 0.9352 0.44257 0.0
H2245 H 0.65614 0.9252 0.47897 0.0
H2246 H 0.70126 0.97851 0.43003 0.0
H2247 H 0.66376 0.98825 0.39454 0.0
C2248 C 0.73093 0.97746 0.51833 0.0
C2249 C 0.71536 0.98131 0.54814 0.0
C2250 C 0.72119 0.96465 0.49077 0.0
C2251 C 0.6953 0.95634 0.49201 0.0
C2252 C 0.6807 0.95861 0.52334 0.0
C2253 C 0.69084 0.97085 0.55138 0.0
C2254 C 0.63683 0.94389 0.43855 0.0
C2255 C 0.63817 0.96317 0.4176 0.0
C2256 C 0.65849 0.93814 0.4592 0.0
C2257 C 0.68101 0.95198 0.45895 0.0
C2258 C 0.68396 0.96788 0.43185 0.0
C2259 C 0.66235 0.97375 0.41167 0.0
H2260 H 0.48189 0.28737 0.56356 0.0
H2261 H 0.43786 0.22943 0.52843 0.0
H2262 H 0.50512 0.28845 0.50766 0.0
H2263 H 0.46046 0.23088 0.47205 0.0
H2264 H 0.54865 0.21944 0.43245 0.0
H2265 H 0.50694 0.22146 0.46326 0.0
H2266 H 0.5036 0.29272 0.4429 0.0
H2267 H 0.54589 0.2907 0.41268 0.0
C2268 C 0.4771 0.27505 0.54367 0.0
C2269 C 0.45892 0.25794 0.55033 0.0
C2270 C 0.48986 0.27593 0.51145 0.0
C2271 C 0.48434 0.25978 0.48557 0.0
C2272 C 0.46501 0.24343 0.49169 0.0
C2273 C 0.45247 0.24243 0.52401 0.0
C2274 C 0.53855 0.23537 0.43368 0.0
C2275 C 0.55062 0.25508 0.42184 0.0
C2276 C 0.51452 0.23651 0.45083 0.0
C2277 C 0.50256 0.2574 0.45611 0.0
C2278 C 0.51287 0.27655 0.43965 0.0
C2279 C 0.53702 0.27542 0.42269 0.0
H2280 H 0.75822 0.24139 0.86574 0.0
H2281 H 0.70697 0.28916 0.81499 0.0
H2282 H 0.73626 0.24796 0.92157 0.0
H2283 H 0.68414 0.29505 0.87047 0.0
H2284 H 0.64065 0.30147 0.96394 0.0
H2285 H 0.68255 0.30601 0.93301 0.0
H2286 H 0.69208 0.23401 0.93277 0.0
H2287 H 0.65077 0.22966 0.96368 0.0
C2288 C 0.74214 0.25325 0.86663 0.0
C2289 C 0.73336 0.26418 0.83617 0.0
C2290 C 0.72997 0.25727 0.89859 0.0
C2291 C 0.70847 0.27185 0.90023 0.0
C2292 C 0.70093 0.28393 0.87008 0.0
C2293 C 0.71347 0.2802 0.8382 0.0
C2294 C 0.65229 0.28677 0.95821 0.0
C2295 C 0.64241 0.2652 0.96466 0.0
C2296 C 0.6762 0.28937 0.94078 0.0
C2297 C 0.69012 0.27037 0.92986 0.0
C2298 C 0.68179 0.24899 0.94084 0.0
C2299 C 0.65794 0.24643 0.95805 0.0
H2300 H 0.44225 0.02 0.86691 0.0
H2301 H 0.50066 0.97539 0.82397 0.0
H2302 H 0.45404 0.00833 0.92616 0.0
H2303 H 0.5134 0.96445 0.88302 0.0
H2304 H 0.54578 0.94917 0.97225 0.0
H2305 H 0.50416 0.94734 0.94031 0.0
H2306 H 0.49348 0.01836 0.95684 0.0
H2307 H 0.53435 0.01994 0.98911 0.0
C2308 C 0.45796 0.00796 0.87026 0.0
C2309 C 0.47138 0.99911 0.84119 0.0
C2310 C 0.46422 1.00093 0.90407 0.0
C2311 C 0.48441 0.98535 0.90933 0.0
C2312 C 0.49724 0.97607 0.87997 0.0
C2313 C 0.49064 0.98281 0.84617 0.0
C2314 C 0.53374 0.96407 0.97049 0.0
C2315 C 0.54363 0.98499 0.98075 0.0
C2316 C 0.50989 0.96301 0.95251 0.0
C2317 C 0.49671 0.98297 0.94412 0.0
C2318 C 0.50366 1.00277 0.96181 0.0
C2319 C 0.52735 1.00381 0.97989 0.0
H2320 H 0.19731 0.97286 0.60946 0.0
H2321 H 0.24641 0.02845 0.57652 0.0
H2322 H 0.21566 0.97518 0.66857 0.0
H2323 H 0.26525 0.03041 0.63512 0.0
H2324 H 0.29746 0.03829 0.73064 0.0
H2325 H 0.25596 0.03815 0.69836 0.0
H2326 H 0.26074 0.96617 0.68815 0.0
H2327 H 0.30153 0.96629 0.72129 0.0
C2328 C 0.21225 0.98541 0.61486 0.0
C2329 C 0.22098 1.00026 0.58859 0.0
C2330 C 0.2223 0.98695 0.64871 0.0
C2331 C 0.24131 1.00326 0.65652 0.0
C2332 C 0.24992 0.01813 0.63011 0.0
C2333 C 0.23976 0.01667 0.59636 0.0
C2334 C 0.2889 0.0224 0.7228 0.0
C2335 C 0.30293 1.00242 0.72647 0.0
C2336 C 0.26517 0.0223 0.70466 0.0
C2337 C 0.25605 1.00231 0.68954 0.0
C2338 C 0.26763 0.98188 0.69909 0.0
C2339 C 0.29116 0.98195 0.71765 0.0
H2340 H 0.40306 0.70077 0.71668 0.0
H2341 H 0.41547 0.7723 0.72189 0.0
H2342 H 0.44546 0.69655 0.68727 0.0
H2343 H 0.45721 0.76833 0.69231 0.0
H2344 H 0.51585 0.76498 0.61496 0.0
H2345 H 0.49938 0.75547 0.67318 0.0
H2346 H 0.444 0.70895 0.62622 0.0
H2347 H 0.46157 0.7177 0.56831 0.0
C2348 C 0.41534 0.71545 0.71262 0.0
C2349 C 0.40581 0.73697 0.71952 0.0
C2350 C 0.4396 0.71303 0.69613 0.0
C2351 C 0.45397 0.73217 0.68614 0.0
C2352 C 0.44644 0.75322 0.6991 0.0
C2353 C 0.42228 0.75562 0.71555 0.0
C2354 C 0.5002 0.75265 0.61729 0.0
C2355 C 0.48886 0.74276 0.58743 0.0
C2356 C 0.49122 0.7469 0.65056 0.0
C2357 C 0.47025 0.73172 0.65426 0.0
C2358 C 0.46041 0.72056 0.62437 0.0
C2359 C 0.46985 0.72596 0.59113 0.0
H2360 H 0.29791 0.77442 0.15772 0.0
H2361 H 0.30975 0.70329 0.17085 0.0
H2362 H 0.2569 0.77183 0.18975 0.0
H2363 H 0.26811 0.70049 0.20284 0.0
H2364 H 0.24773 0.72492 0.31804 0.0
H2365 H 0.26942 0.71658 0.26269 0.0
H2366 H 0.21359 0.75845 0.2075 0.0
H2367 H 0.19252 0.76741 0.2632 0.0
C2368 C 0.29111 0.75807 0.1664 0.0
C2369 C 0.30717 0.73921 0.16352 0.0
C2370 C 0.26742 0.75649 0.18429 0.0
C2371 C 0.25989 0.73604 0.19968 0.0
C2372 C 0.27397 0.71651 0.19178 0.0
C2373 C 0.29772 0.71811 0.17372 0.0
C2374 C 0.24022 0.73232 0.29403 0.0
C2375 C 0.21919 0.7473 0.2947 0.0
C2376 C 0.25211 0.72712 0.26227 0.0
C2377 C 0.24293 0.73674 0.2308 0.0
C2378 C 0.22097 0.75086 0.23143 0.0
C2379 C 0.2093 0.75626 0.26325 0.0
H2380 H 0.51968 0.04871 0.26957 0.0
H2381 H 0.44861 0.04099 0.33098 0.0
H2382 H 0.49339 0.05888 0.21823 0.0
H2383 H 0.42249 0.05219 0.28 0.0
H2384 H 0.42057 0.00695 0.16918 0.0
H2385 H 0.45784 0.02069 0.20359 0.0
H2386 H 0.41796 0.08352 0.2197 0.0
H2387 H 0.3812 0.07023 0.18361 0.0
C2388 C 0.49851 0.05016 0.27242 0.0
C2389 C 0.48584 0.04353 0.30359 0.0
C2390 C 0.48366 0.05625 0.24325 0.0
C2391 C 0.45619 0.05635 0.24559 0.0
C2392 C 0.44379 0.05249 0.27804 0.0
C2393 C 0.45858 0.04577 0.30692 0.0
C2394 C 0.4204 0.02403 0.17873 0.0
C2395 C 0.39813 0.03743 0.17471 0.0
C2396 C 0.44174 0.032 0.19792 0.0
C2397 C 0.44043 0.05309 0.21403 0.0
C2398 C 0.41931 0.06735 0.20698 0.0
C2399 C 0.39831 0.05964 0.18676 0.0
H2400 H 0.64729 0.44619 0.92433 0.0
H2401 H 0.66583 0.51647 0.91237 0.0
H2402 H 0.68898 0.44049 0.95512 0.0
H2403 H 0.70702 0.51101 0.94287 0.0
H2404 H 0.76577 0.50703 1.01921 0.0
H2405 H 0.74831 0.4957 0.96244 0.0
H2406 H 0.68878 0.45578 1.01513 0.0
H2407 H 0.70727 0.46629 0.07188 0.0
C2408 C 0.66081 0.46018 0.92709 0.0
C2409 C 0.65322 0.48195 0.91786 0.0
C2410 C 0.68464 0.4569 0.94442 0.0
C2411 C 0.70064 0.47543 0.95255 0.0
C2412 C 0.69499 0.49639 0.93744 0.0
C2413 C 0.67118 0.49967 0.92042 0.0
C2414 C 0.74903 0.4957 1.01851 0.0
C2415 C 0.7368 0.4883 1.04956 0.0
C2416 C 0.73946 0.48888 0.9861 0.0
C2417 C 0.71703 0.47515 0.98435 0.0
C2418 C 0.70628 0.46624 1.01556 0.0
C2419 C 0.71629 0.47268 1.04806 0.0
H2420 H 0.58616 0.81794 0.94644 0.0
H2421 H 0.54085 0.7639 0.90124 0.0
H2422 H 0.54876 0.82766 0.98389 0.0
H2423 H 0.50381 0.77336 0.93777 0.0
H2424 H 0.44941 0.77435 1.01886 0.0
H2425 H 0.47089 0.79284 0.96946 0.0
H2426 H 0.54112 0.80177 1.03261 0.0
H2427 H 0.51872 0.78459 0.08267 0.0
C2428 C 0.56773 0.80891 0.94336 0.0
C2429 C 0.56627 0.7897 0.92243 0.0
C2430 C 0.5464 0.81445 0.96466 0.0
C2431 C 0.52381 0.80073 0.96477 0.0
C2432 C 0.52099 0.78417 0.93879 0.0
C2433 C 0.54231 0.77849 0.91804 0.0
C2434 C 0.46941 0.78046 1.02207 0.0
C2435 C 0.4832 0.77712 1.05358 0.0
C2436 C 0.48146 0.79141 0.99411 0.0
C2437 C 0.50782 0.79833 0.99686 0.0
C2438 C 0.52071 0.79675 1.0296 0.0
C2439 C 0.50828 0.78639 1.05798 0.0
H2440 H 0.66992 0.75676 0.50358 0.0
H2441 H 0.63906 0.81612 0.45386 0.0
H2442 H 0.7111 0.76153 0.47153 0.0
H2443 H 0.67891 0.81985 0.41964 0.0
H2444 H 0.73204 0.80692 0.33195 0.0
H2445 H 0.72007 0.81737 0.39173 0.0
H2446 H 0.70159 0.74783 0.41423 0.0
H2447 H 0.71482 0.73758 0.35549 0.0
C2448 C 0.67244 0.77129 0.48675 0.0
C2449 C 0.65125 0.78537 0.4792 0.0
C2450 C 0.69595 0.77412 0.46856 0.0
C2451 C 0.69717 0.78985 0.44106 0.0
C2452 C 0.67822 0.80694 0.43967 0.0
C2453 C 0.65513 0.80469 0.45897 0.0
C2454 C 0.72514 0.79401 0.34983 0.0
C2455 C 0.72344 0.77155 0.3392 0.0
C2456 C 0.71884 0.79992 0.38414 0.0
C2457 C 0.71024 0.78349 0.40802 0.0
C2458 C 0.70893 0.76095 0.3971 0.0
C2459 C 0.71566 0.75506 0.3631 0.0
H2460 H 0.44202 0.52336 0.37356 0.0
H2461 H 0.49346 0.47252 0.33181 0.0
H2462 H 0.4601 0.51731 0.43208 0.0
H2463 H 0.51234 0.46704 0.38989 0.0
H2464 H 0.55169 0.4601 0.48204 0.0
H2465 H 0.50915 0.45696 0.4525 0.0
H2466 H 0.50391 0.52925 0.4491 0.0
H2467 H 0.54582 0.53223 0.47897 0.0
C2468 C 0.45734 0.51097 0.37698 0.0
C2469 C 0.4672 0.4989 0.3483 0.0
C2470 C 0.46726 0.50725 0.41049 0.0
C2471 C 0.48753 0.49173 0.41555 0.0
C2472 C 0.49633 0.47883 0.38699 0.0
C2473 C 0.48611 0.48234 0.35358 0.0
C2474 C 0.54079 0.47522 0.47619 0.0
C2475 C 0.55222 0.49641 0.48082 0.0
C2476 C 0.51646 0.47342 0.45959 0.0
C2477 C 0.50393 0.49283 0.44727 0.0
C2478 C 0.51328 0.51395 0.45785 0.0
C2479 C 0.53751 0.51572 0.47447 0.0
H2480 H 0.30606 0.55318 0.20478 0.0
H2481 H 0.29451 0.48146 0.20886 0.0
H2482 H 0.26616 0.55688 0.16922 0.0
H2483 H 0.25521 0.48497 0.17334 0.0
H2484 H 0.18866 0.49228 0.1057 0.0
H2485 H 0.21157 0.49904 0.1607 0.0
H2486 H 0.26508 0.54428 0.10716 0.0
H2487 H 0.2411 0.53831 1.05223 0.0
C2488 C 0.29449 0.53835 0.19891 0.0
C2489 C 0.30341 0.51698 0.20826 0.0
C2490 C 0.27179 0.54047 0.17873 0.0
C2491 C 0.25803 0.52121 0.1681 0.0
C2492 C 0.26538 0.50014 0.18126 0.0
C2493 C 0.28804 0.49805 0.20121 0.0
C2494 C 0.20532 0.50371 0.10577 0.0
C2495 C 0.21399 0.51421 0.07482 0.0
C2496 C 0.21808 0.50782 0.13727 0.0
C2497 C 0.24009 0.52202 0.13802 0.0
C2498 C 0.24788 0.53347 0.10734 0.0
C2499 C 0.23467 0.52971 0.07584 0.0
H2500 H 0.35923 0.19301 0.17784 0.0
H2501 H 0.41084 0.23202 0.24402 0.0
H2502 H 0.39495 0.18749 0.13635 0.0
H2503 H 0.44734 0.225 0.20407 0.0
H2504 H 0.46092 0.26354 0.10058 0.0
H2505 H 0.43988 0.24925 0.15314 0.0
H2506 H 0.43805 0.18265 0.1085 0.0
H2507 H 0.45863 0.19736 1.05501 0.0
C2508 C 0.37878 0.19899 0.18463 0.0
C2509 C 0.38251 0.21358 0.2129 0.0
C2510 C 0.3993 0.19574 0.16101 0.0
C2511 C 0.42338 0.20693 0.1663 0.0
C2512 C 0.42851 0.21702 0.19893 0.0
C2513 C 0.40777 0.221 0.22178 0.0
C2514 C 0.45573 0.24593 0.10189 0.0
C2515 C 0.461 0.23158 0.07392 0.0
C2516 C 0.44435 0.23755 0.13229 0.0
C2517 C 0.43827 0.21459 0.13539 0.0
C2518 C 0.44299 0.20029 0.10695 0.0
C2519 C 0.45428 0.20877 0.07628 0.0
H2520 H 0.3108 0.19216 0.67313 0.0
H2521 H 0.27403 0.25722 0.66831 0.0
H2522 H 0.27415 0.17796 0.70839 0.0
H2523 H 0.23673 0.24259 0.7019 0.0
H2524 H 0.17576 0.21263 0.76763 0.0
H2525 H 0.20012 0.2037 0.71423 0.0
H2526 H 0.27307 0.20744 0.7723 0.0
H2527 H 0.2489 0.21756 0.82538 0.0
C2528 C 0.29422 0.20306 0.67812 0.0
C2529 C 0.29525 0.2259 0.6692 0.0
C2530 C 0.27325 0.19482 0.69784 0.0
C2531 C 0.25296 0.20926 0.70755 0.0
C2532 C 0.25222 0.23119 0.69417 0.0
C2533 C 0.27359 0.23964 0.67547 0.0
C2534 C 0.19695 0.21073 0.76922 0.0
C2535 C 0.21079 0.21633 0.8 0.0
C2536 C 0.21069 0.20536 0.73884 0.0
C2537 C 0.23819 0.20488 0.7396 0.0
C2538 C 0.25172 0.20748 0.77156 0.0
C2539 C 0.23805 0.21355 0.80166 0.0
H2540 H 0.48223 0.50092 0.7843 0.0
H2541 H 0.44934 0.5427 0.86568 0.0
H2542 H 0.4488 0.51391 0.74348 0.0
H2543 H 0.4154 0.55562 0.82455 0.0
H2544 H 0.344 0.52198 0.75651 0.0
H2545 H 0.37947 0.52888 0.79806 0.0
H2546 H 0.43019 0.55001 0.71289 0.0
H2547 H 0.39433 0.54328 0.67104 0.0
C2548 C 0.46782 0.51293 0.79332 0.0
C2549 C 0.46779 0.52057 0.82802 0.0
C2550 C 0.44913 0.52072 0.76985 0.0
C2551 C 0.43006 0.53604 0.78097 0.0
C2552 C 0.4303 0.54404 0.81555 0.0
C2553 C 0.4493 0.53643 0.83899 0.0
C2554 C 0.36255 0.52861 0.74685 0.0
C2555 C 0.36707 0.53144 0.71084 0.0
C2556 C 0.3826 0.53294 0.7706 0.0
C2557 C 0.40737 0.5398 0.75834 0.0
C2558 C 0.41109 0.54471 0.72261 0.0
C2559 C 0.39083 0.54065 0.69883 0.0
loop_
_geom_bond_atom_site_label_1
_geom_bond_atom_site_label_2
_geom_bond_distance
_geom_bond_site_symmetry_2
_ccdc_geom_bond_type
Tb0 O3 2.453 . S
Tb0 O4 2.596 . S
Tb0 O5 2.374 1_565 S
Tb0 O13 2.342 1_565 S
Tb0 O15 2.353 . S
Tb0 O17 2.427 . S
Tb0 O18 2.513 1_565 S
C1 O5 1.251 . S
C1 O7 1.263 . S
Tb2 O4 2.343 1_545 S
Tb2 O7 2.353 . S
Tb2 O10 2.427 . S
Tb2 O11 2.513 1_545 S
Tb2 O12 2.453 . S
Tb2 O13 2.597 . S
Tb2 O14 2.374 1_545 S
O3 Tb0 2.453 . S
O3 C19 1.245 . S
O4 Tb0 2.596 . S
O4 Tb2 2.343 1_565 S
O4 C19 1.259 . S
O5 Tb0 2.374 1_545 S
O5 C1 1.251 . S
C6 O10 1.275 . S
C6 O11 1.246 1_545 S
O7 C1 1.263 . S
O7 Tb2 2.353 . S
C8 O12 1.245 . S
C8 O13 1.260 . S
C9 O14 1.250 . S
C9 O15 1.263 . S
O10 Tb2 2.427 . S
O10 C6 1.275 . S
O11 Tb2 2.513 1_565 S
O11 C6 1.246 1_565 S
O12 Tb2 2.453 . S
O12 C8 1.245 . S
O13 Tb0 2.342 1_545 S
O13 Tb2 2.597 . S
O13 C8 1.260 . S
O14 Tb2 2.374 1_565 S
O14 C9 1.250 . S
O15 Tb0 2.353 . S
O15 C9 1.263 . S
C16 O17 1.277 . S
C16 O18 1.248 1_565 S
O17 Tb0 2.427 . S
O17 C16 1.277 . S
O18 Tb0 2.513 1_545 S
O18 C16 1.248 1_545 S
C19 O3 1.245 . S
C19 O4 1.259 . S
Tb20 O23 2.453 . S
Tb20 O24 2.596 . S
Tb20 O25 2.374 . S
Tb20 O33 2.343 . S
Tb20 O35 2.353 . S
Tb20 O37 2.427 . S
Tb20 O38 2.513 . S
C21 O25 1.251 . S
C21 O27 1.263 . S
Tb22 O24 2.343 . S
Tb22 O27 2.353 . S
Tb22 O30 2.427 . S
Tb22 O31 2.513 . S
Tb22 O32 2.453 . S
Tb22 O33 2.596 . S
Tb22 O34 2.374 . S
O23 Tb20 2.453 . S
O23 C39 1.245 . S
O24 Tb20 2.596 . S
O24 Tb22 2.343 . S
O24 C39 1.259 . S
O25 Tb20 2.374 . S
O25 C21 1.251 . S
C26 O30 1.275 . S
C26 O31 1.246 . S
O27 C21 1.263 . S
O27 Tb22 2.353 . S
C28 O32 1.245 . S
C28 O33 1.259 . S
C29 O34 1.250 . S
C29 O35 1.263 . S
O30 Tb22 2.427 . S
O30 C26 1.275 . S
O31 Tb22 2.513 . S
O31 C26 1.246 . S
O32 Tb22 2.453 . S
O32 C28 1.245 . S
O33 Tb20 2.343 . S
O33 Tb22 2.596 . S
O33 C28 1.259 . S
O34 Tb22 2.374 . S
O34 C29 1.250 . S
O35 Tb20 2.353 . S
O35 C29 1.263 . S
C36 O37 1.277 . S
C36 O38 1.248 . S
O37 Tb20 2.427 . S
O37 C36 1.277 . S
O38 Tb20 2.513 . S
O38 C36 1.248 . S
C39 O23 1.245 . S
C39 O24 1.259 . S
Tb40 O43 2.453 . S
Tb40 O44 2.596 . S
Tb40 O45 2.374 . S
Tb40 O53 2.343 . S
Tb40 O55 2.353 . S
Tb40 O57 2.427 . S
Tb40 O58 2.513 . S
C41 O45 1.251 . S
C41 O47 1.263 . S
Tb42 O44 2.343 . S
Tb42 O47 2.353 . S
Tb42 O50 2.427 . S
Tb42 O51 2.513 . S
Tb42 O52 2.453 . S
Tb42 O53 2.596 . S
Tb42 O54 2.374 . S
O43 Tb40 2.453 . S
O43 C59 1.245 . S
O44 Tb40 2.596 . S
O44 Tb42 2.343 . S
O44 C59 1.259 . S
O45 Tb40 2.374 . S
O45 C41 1.251 . S
C46 O50 1.275 . S
C46 O51 1.246 . S
O47 C41 1.263 . S
O47 Tb42 2.353 . S
C48 O52 1.245 . S
C48 O53 1.259 . S
C49 O54 1.250 . S
C49 O55 1.263 . S
O50 Tb42 2.427 . S
O50 C46 1.275 . S
O51 Tb42 2.513 . S
O51 C46 1.246 . S
O52 Tb42 2.453 . S
O52 C48 1.245 . S
O53 Tb40 2.343 . S
O53 Tb42 2.596 . S
O53 C48 1.259 . S
O54 Tb42 2.374 . S
O54 C49 1.250 . S
O55 Tb40 2.353 . S
O55 C49 1.263 . S
C56 O57 1.275 . S
C56 O58 1.246 . S
O57 Tb40 2.427 . S
O57 C56 1.275 . S
O58 Tb40 2.513 . S
O58 C56 1.246 . S
C59 O43 1.245 . S
C59 O44 1.259 . S
Tb60 O63 2.453 . S
Tb60 O64 2.596 . S
Tb60 O65 2.374 1_565 S
Tb60 O73 2.342 1_565 S
Tb60 O75 2.353 . S
Tb60 O77 2.427 . S
Tb60 O78 2.513 1_565 S
C61 O65 1.251 . S
C61 O67 1.263 . S
Tb62 O64 2.343 1_545 S
Tb62 O67 2.353 . S
Tb62 O70 2.427 . S
Tb62 O71 2.513 1_545 S
Tb62 O72 2.453 . S
Tb62 O73 2.597 . S
Tb62 O74 2.374 1_545 S
O63 Tb60 2.453 . S
O63 C79 1.245 . S
O64 Tb60 2.596 . S
O64 Tb62 2.343 1_565 S
O64 C79 1.259 . S
O65 Tb60 2.374 1_545 S
O65 C61 1.251 . S
C66 O70 1.275 . S
C66 O71 1.246 1_545 S
O67 C61 1.263 . S
O67 Tb62 2.353 . S
C68 O72 1.245 . S
C68 O73 1.260 . S
C69 O74 1.250 . S
C69 O75 1.263 . S
O70 Tb62 2.427 . S
O70 C66 1.275 . S
O71 Tb62 2.513 1_565 S
O71 C66 1.246 1_565 S
O72 Tb62 2.453 . S
O72 C68 1.245 . S
O73 Tb60 2.342 1_545 S
O73 Tb62 2.597 . S
O73 C68 1.260 . S
O74 Tb62 2.374 1_565 S
O74 C69 1.250 . S
O75 Tb60 2.353 . S
O75 C69 1.263 . S
C76 O77 1.275 . S
C76 O78 1.246 1_565 S
O77 Tb60 2.427 . S
O77 C76 1.275 . S
O78 Tb60 2.513 1_545 S
O78 C76 1.246 1_545 S
C79 O63 1.245 . S
C79 O64 1.259 . S
Tb80 O83 2.453 . S
Tb80 O84 2.597 . S
Tb80 O85 2.374 1_565 S
Tb80 O93 2.343 1_565 S
Tb80 O95 2.353 . S
Tb80 O97 2.427 . S
Tb80 O98 2.513 1_565 S
C81 O85 1.251 . S
C81 O87 1.263 . S
Tb82 O84 2.342 1_545 S
Tb82 O87 2.353 . S
Tb82 O90 2.427 . S
Tb82 O91 2.513 1_545 S
Tb82 O92 2.453 . S
Tb82 O93 2.596 . S
Tb82 O94 2.374 1_545 S
O83 Tb80 2.453 . S
O83 C99 1.245 . S
O84 Tb80 2.597 . S
O84 Tb82 2.342 1_565 S
O84 C99 1.260 . S
O85 Tb80 2.374 1_545 S
O85 C81 1.251 . S
C86 O90 1.277 . S
C86 O91 1.248 1_545 S
O87 C81 1.263 . S
O87 Tb82 2.353 . S
C88 O92 1.245 . S
C88 O93 1.259 . S
C89 O94 1.250 . S
C89 O95 1.263 . S
O90 Tb82 2.427 . S
O90 C86 1.277 . S
O91 Tb82 2.513 1_565 S
O91 C86 1.248 1_565 S
O92 Tb82 2.453 . S
O92 C88 1.245 . S
O93 Tb80 2.343 1_545 S
O93 Tb82 2.596 . S
O93 C88 1.259 . S
O94 Tb82 2.374 1_565 S
O94 C89 1.250 . S
O95 Tb80 2.353 . S
O95 C89 1.263 . S
C96 O97 1.275 . S
C96 O98 1.246 1_565 S
O97 Tb80 2.427 . S
O97 C96 1.275 . S
O98 Tb80 2.513 1_545 S
O98 C96 1.246 1_545 S
C99 O83 1.245 . S
C99 O84 1.260 . S
Tb100 O103 2.453 . S
Tb100 O104 2.596 . S
Tb100 O105 2.374 . S
Tb100 O113 2.343 . S
Tb100 O115 2.353 . S
Tb100 O117 2.427 . S
Tb100 O118 2.513 . S
C101 O105 1.251 . S
C101 O107 1.263 . S
Tb102 O104 2.343 . S
Tb102 O107 2.353 . S
Tb102 O110 2.427 . S
Tb102 O111 2.513 . S
Tb102 O112 2.453 . S
Tb102 O113 2.596 . S
Tb102 O114 2.374 . S
O103 Tb100 2.453 . S
O103 C119 1.245 . S
O104 Tb100 2.596 . S
O104 Tb102 2.343 . S
O104 C119 1.259 . S
O105 Tb100 2.374 . S
O105 C101 1.251 . S
C106 O110 1.277 . S
C106 O111 1.248 . S
O107 C101 1.263 . S
O107 Tb102 2.353 . S
C108 O112 1.245 . S
C108 O113 1.259 . S
C109 O114 1.250 . S
C109 O115 1.263 . S
O110 Tb102 2.427 . S
O110 C106 1.277 . S
O111 Tb102 2.513 . S
O111 C106 1.248 . S
O112 Tb102 2.453 . S
O112 C108 1.245 . S
O113 Tb100 2.343 . S
O113 Tb102 2.596 . S
O113 C108 1.259 . S
O114 Tb102 2.374 . S
O114 C109 1.250 . S
O115 Tb100 2.353 . S
O115 C109 1.263 . S
C116 O117 1.275 . S
C116 O118 1.246 . S
O117 Tb100 2.427 . S
O117 C116 1.275 . S
O118 Tb100 2.513 . S
O118 C116 1.246 . S
C119 O103 1.245 . S
C119 O104 1.259 . S
Tb120 O123 2.453 . S
Tb120 O124 2.596 . S
Tb120 O125 2.374 . S
Tb120 O133 2.343 . S
Tb120 O135 2.353 . S
Tb120 O137 2.427 . S
Tb120 O138 2.513 . S
C121 O125 1.251 . S
C121 O127 1.263 . S
Tb122 O124 2.343 . S
Tb122 O127 2.353 . S
Tb122 O130 2.427 . S
Tb122 O131 2.513 . S
Tb122 O132 2.453 . S
Tb122 O133 2.596 . S
Tb122 O134 2.374 . S
O123 Tb120 2.453 . S
O123 C139 1.245 . S
O124 Tb120 2.596 . S
O124 Tb122 2.343 . S
O124 C139 1.259 . S
O125 Tb120 2.374 . S
O125 C121 1.251 . S
C126 O130 1.275 . S
C126 O131 1.246 . S
O127 C121 1.263 . S
O127 Tb122 2.353 . S
C128 O132 1.245 . S
C128 O133 1.259 . S
C129 O134 1.250 . S
C129 O135 1.263 . S
O130 Tb122 2.427 . S
O130 C126 1.275 . S
O131 Tb122 2.513 . S
O131 C126 1.246 . S
O132 Tb122 2.453 . S
O132 C128 1.245 . S
O133 Tb120 2.343 . S
O133 Tb122 2.596 . S
O133 C128 1.259 . S
O134 Tb122 2.374 . S
O134 C129 1.250 . S
O135 Tb120 2.353 . S
O135 C129 1.263 . S
C136 O137 1.275 . S
C136 O138 1.246 . S
O137 Tb120 2.427 . S
O137 C136 1.275 . S
O138 Tb120 2.513 . S
O138 C136 1.246 . S
C139 O123 1.245 . S
C139 O124 1.259 . S
Tb140 O143 2.453 . S
Tb140 O144 2.597 . S
Tb140 O145 2.374 1_565 S
Tb140 O153 2.343 1_565 S
Tb140 O155 2.353 . S
Tb140 O157 2.427 . S
Tb140 O158 2.513 1_565 S
C141 O145 1.251 . S
C141 O147 1.263 . S
Tb142 O144 2.342 1_545 S
Tb142 O147 2.353 . S
Tb142 O150 2.427 . S
Tb142 O151 2.513 1_545 S
Tb142 O152 2.453 . S
Tb142 O153 2.596 . S
Tb142 O154 2.374 1_545 S
O143 Tb140 2.453 . S
O143 C159 1.245 . S
O144 Tb140 2.597 . S
O144 Tb142 2.342 1_565 S
O144 C159 1.260 . S
O145 Tb140 2.374 1_545 S
O145 C141 1.251 . S
C146 O150 1.275 . S
C146 O151 1.246 1_545 S
O147 C141 1.263 . S
O147 Tb142 2.353 . S
C148 O152 1.245 . S
C148 O153 1.259 . S
C149 O154 1.250 . S
C149 O155 1.263 . S
O150 Tb142 2.427 . S
O150 C146 1.275 . S
O151 Tb142 2.513 1_565 S
O151 C146 1.246 1_565 S
O152 Tb142 2.453 . S
O152 C148 1.245 . S
O153 Tb140 2.343 1_545 S
O153 Tb142 2.596 . S
O153 C148 1.259 . S
O154 Tb142 2.374 1_565 S
O154 C149 1.250 . S
O155 Tb140 2.353 . S
O155 C149 1.263 . S
C156 O157 1.275 . S
C156 O158 1.246 1_565 S
O157 Tb140 2.427 . S
O157 C156 1.275 . S
O158 Tb140 2.513 1_545 S
O158 C156 1.246 1_545 S
C159 O143 1.245 . S
C159 O144 1.260 . S
Tb160 O163 2.453 . S
Tb160 O164 2.596 . S
Tb160 O165 2.374 . S
Tb160 O173 2.343 . S
Tb160 O175 2.353 . S
Tb160 O177 2.427 . S
Tb160 O178 2.513 . S
C161 O165 1.251 . S
C161 O167 1.263 . S
Tb162 O164 2.343 . S
Tb162 O167 2.353 . S
Tb162 O170 2.427 . S
Tb162 O171 2.513 . S
Tb162 O172 2.453 . S
Tb162 O173 2.596 . S
Tb162 O174 2.374 . S
O163 Tb160 2.453 . S
O163 C179 1.245 . S
O164 Tb160 2.596 . S
O164 Tb162 2.343 . S
O164 C179 1.259 . S
O165 Tb160 2.374 . S
O165 C161 1.251 . S
C166 O170 1.275 . S
C166 O171 1.246 . S
O167 C161 1.263 . S
O167 Tb162 2.353 . S
C168 O172 1.245 . S
C168 O173 1.259 . S
C169 O174 1.250 . S
C169 O175 1.263 . S
O170 Tb162 2.427 . S
O170 C166 1.275 . S
O171 Tb162 2.513 . S
O171 C166 1.246 . S
O172 Tb162 2.453 . S
O172 C168 1.245 . S
O173 Tb160 2.343 . S
O173 Tb162 2.596 . S
O173 C168 1.259 . S
O174 Tb162 2.374 . S
O174 C169 1.250 . S
O175 Tb160 2.353 . S
O175 C169 1.263 . S
C176 O177 1.275 . S
C176 O178 1.246 . S
O177 Tb160 2.427 . S
O177 C176 1.275 . S
O178 Tb160 2.513 . S
O178 C176 1.246 . S
C179 O163 1.245 . S
C179 O164 1.259 . S
Tb180 O183 2.453 . S
Tb180 O184 2.596 . S
Tb180 O185 2.374 . S
Tb180 O193 2.343 . S
Tb180 O195 2.353 . S
Tb180 O197 2.427 . S
Tb180 O198 2.513 . S
C181 O185 1.251 . S
C181 O187 1.263 . S
Tb182 O184 2.343 . S
Tb182 O187 2.353 . S
Tb182 O190 2.427 . S
Tb182 O191 2.513 . S
Tb182 O192 2.453 . S
Tb182 O193 2.596 . S
Tb182 O194 2.374 . S
O183 Tb180 2.453 . S
O183 C199 1.245 . S
O184 Tb180 2.596 . S
O184 Tb182 2.343 . S
O184 C199 1.259 . S
O185 Tb180 2.374 . S
O185 C181 1.251 . S
C186 O190 1.275 . S
C186 O191 1.246 . S
O187 C181 1.263 . S
O187 Tb182 2.353 . S
C188 O192 1.245 . S
C188 O193 1.259 . S
C189 O194 1.250 . S
C189 O195 1.263 . S
O190 Tb182 2.427 . S
O190 C186 1.275 . S
O191 Tb182 2.513 . S
O191 C186 1.246 . S
O192 Tb182 2.453 . S
O192 C188 1.245 . S
O193 Tb180 2.343 . S
O193 Tb182 2.596 . S
O193 C188 1.259 . S
O194 Tb182 2.374 . S
O194 C189 1.250 . S
O195 Tb180 2.353 . S
O195 C189 1.263 . S
C196 O197 1.275 . S
C196 O198 1.246 . S
O197 Tb180 2.427 . S
O197 C196 1.275 . S
O198 Tb180 2.513 . S
O198 C196 1.246 . S
C199 O183 1.245 . S
C199 O184 1.259 . S
Tb200 O203 2.453 . S
Tb200 O204 2.596 . S
Tb200 O205 2.374 . S
Tb200 O213 2.343 . S
Tb200 O215 2.353 . S
Tb200 O217 2.427 . S
Tb200 O218 2.513 . S
C201 O205 1.251 . S
C201 O207 1.263 . S
Tb202 O204 2.343 . S
Tb202 O207 2.353 . S
Tb202 O210 2.427 . S
Tb202 O211 2.513 . S
Tb202 O212 2.453 . S
Tb202 O213 2.596 . S
Tb202 O214 2.374 . S
O203 Tb200 2.453 . S
O203 C219 1.245 . S
O204 Tb200 2.596 . S
O204 Tb202 2.343 . S
O204 C219 1.259 . S
O205 Tb200 2.374 . S
O205 C201 1.251 . S
C206 O210 1.275 . S
C206 O211 1.246 . S
O207 C201 1.263 . S
O207 Tb202 2.353 . S
C208 O212 1.245 . S
C208 O213 1.259 . S
C209 O214 1.250 . S
C209 O215 1.263 . S
O210 Tb202 2.427 . S
O210 C206 1.275 . S
O211 Tb202 2.513 . S
O211 C206 1.246 . S
O212 Tb202 2.453 . S
O212 C208 1.245 . S
O213 Tb200 2.343 . S
O213 Tb202 2.596 . S
O213 C208 1.259 . S
O214 Tb202 2.374 . S
O214 C209 1.250 . S
O215 Tb200 2.353 . S
O215 C209 1.263 . S
C216 O217 1.275 . S
C216 O218 1.246 . S
O217 Tb200 2.427 . S
O217 C216 1.275 . S
O218 Tb200 2.513 . S
O218 C216 1.246 . S
C219 O203 1.245 . S
C219 O204 1.259 . S
Tb220 O223 2.453 . S
Tb220 O224 2.596 . S
Tb220 O225 2.374 . S
Tb220 O233 2.343 . S
Tb220 O235 2.353 . S
Tb220 O237 2.427 . S
Tb220 O238 2.513 . S
C221 O225 1.251 . S
C221 O227 1.263 . S
Tb222 O224 2.343 . S
Tb222 O227 2.353 . S
Tb222 O230 2.427 . S
Tb222 O231 2.513 . S
Tb222 O232 2.453 . S
Tb222 O233 2.596 . S
Tb222 O234 2.374 . S
O223 Tb220 2.453 . S
O223 C239 1.245 . S
O224 Tb220 2.596 . S
O224 Tb222 2.343 . S
O224 C239 1.259 . S
O225 Tb220 2.374 . S
O225 C221 1.251 . S
C226 O230 1.275 . S
C226 O231 1.246 . S
O227 C221 1.263 . S
O227 Tb222 2.353 . S
C228 O232 1.245 . S
C228 O233 1.259 . S
C229 O234 1.250 . S
C229 O235 1.263 . S
O230 Tb222 2.427 . S
O230 C226 1.275 . S
O231 Tb222 2.513 . S
O231 C226 1.246 . S
O232 Tb222 2.453 . S
O232 C228 1.245 . S
O233 Tb220 2.343 . S
O233 Tb222 2.596 . S
O233 C228 1.259 . S
O234 Tb222 2.374 . S
O234 C229 1.250 . S
O235 Tb220 2.353 . S
O235 C229 1.263 . S
C236 O237 1.275 . S
C236 O238 1.246 . S
O237 Tb220 2.427 . S
O237 C236 1.275 . S
O238 Tb220 2.513 . S
O238 C236 1.246 . S
C239 O223 1.245 . S
C239 O224 1.259 . S
Tb240 O243 2.453 . S
Tb240 O244 2.596 . S
Tb240 O245 2.374 . S
Tb240 O253 2.343 . S
Tb240 O255 2.353 . S
Tb240 O257 2.427 . S
Tb240 O258 2.513 . S
C241 O245 1.251 . S
C241 O247 1.263 . S
Tb242 O244 2.343 . S
Tb242 O247 2.353 . S
Tb242 O250 2.427 . S
Tb242 O251 2.513 . S
Tb242 O252 2.453 . S
Tb242 O253 2.596 . S
Tb242 O254 2.374 . S
O243 Tb240 2.453 . S
O243 C259 1.245 . S
O244 Tb240 2.596 . S
O244 Tb242 2.343 . S
O244 C259 1.259 . S
O245 Tb240 2.374 . S
O245 C241 1.251 . S
C246 O250 1.275 . S
C246 O251 1.246 . S
O247 C241 1.263 . S
O247 Tb242 2.353 . S
C248 O252 1.245 . S
C248 O253 1.259 . S
C249 O254 1.250 . S
C249 O255 1.263 . S
O250 Tb242 2.427 . S
O250 C246 1.275 . S
O251 Tb242 2.513 . S
O251 C246 1.246 . S
O252 Tb242 2.453 . S
O252 C248 1.245 . S
O253 Tb240 2.343 . S
O253 Tb242 2.596 . S
O253 C248 1.259 . S
O254 Tb242 2.374 . S
O254 C249 1.250 . S
O255 Tb240 2.353 . S
O255 C249 1.263 . S
C256 O257 1.275 . S
C256 O258 1.246 . S
O257 Tb240 2.427 . S
O257 C256 1.275 . S
O258 Tb240 2.513 . S
O258 C256 1.246 . S
C259 O243 1.245 . S
C259 O244 1.259 . S
Tb260 O263 2.453 . S
Tb260 O264 2.596 . S
Tb260 O265 2.374 . S
Tb260 O273 2.343 . S
Tb260 O275 2.353 . S
Tb260 O277 2.427 . S
Tb260 O278 2.513 . S
C261 O265 1.251 . S
C261 O267 1.263 . S
Tb262 O264 2.343 . S
Tb262 O267 2.353 . S
Tb262 O270 2.427 . S
Tb262 O271 2.513 . S
Tb262 O272 2.453 . S
Tb262 O273 2.596 . S
Tb262 O274 2.374 . S
O263 Tb260 2.453 . S
O263 C279 1.245 . S
O264 Tb260 2.596 . S
O264 Tb262 2.343 . S
O264 C279 1.259 . S
O265 Tb260 2.374 . S
O265 C261 1.251 . S
C266 O270 1.275 . S
C266 O271 1.246 . S
O267 C261 1.263 . S
O267 Tb262 2.353 . S
C268 O272 1.245 . S
C268 O273 1.259 . S
C269 O274 1.250 . S
C269 O275 1.263 . S
O270 Tb262 2.427 . S
O270 C266 1.275 . S
O271 Tb262 2.513 . S
O271 C266 1.246 . S
O272 Tb262 2.453 . S
O272 C268 1.245 . S
O273 Tb260 2.343 . S
O273 Tb262 2.596 . S
O273 C268 1.259 . S
O274 Tb262 2.374 . S
O274 C269 1.250 . S
O275 Tb260 2.353 . S
O275 C269 1.263 . S
C276 O277 1.275 . S
C276 O278 1.246 . S
O277 Tb260 2.427 . S
O277 C276 1.275 . S
O278 Tb260 2.513 . S
O278 C276 1.246 . S
C279 O263 1.245 . S
C279 O264 1.259 . S
Tb280 O283 2.453 . S
Tb280 O284 2.596 . S
Tb280 O285 2.374 . S
Tb280 O293 2.343 . S
Tb280 O295 2.353 . S
Tb280 O297 2.427 . S
Tb280 O298 2.513 . S
C281 O285 1.251 . S
C281 O287 1.263 . S
Tb282 O284 2.343 . S
Tb282 O287 2.353 . S
Tb282 O290 2.427 . S
Tb282 O291 2.513 . S
Tb282 O292 2.453 . S
Tb282 O293 2.596 . S
Tb282 O294 2.374 . S
O283 Tb280 2.453 . S
O283 C299 1.245 . S
O284 Tb280 2.596 . S
O284 Tb282 2.343 . S
O284 C299 1.259 . S
O285 Tb280 2.374 . S
O285 C281 1.251 . S
C286 O290 1.275 . S
C286 O291 1.246 . S
O287 C281 1.263 . S
O287 Tb282 2.353 . S
C288 O292 1.245 . S
C288 O293 1.259 . S
C289 O294 1.250 . S
C289 O295 1.263 . S
O290 Tb282 2.427 . S
O290 C286 1.275 . S
O291 Tb282 2.513 . S
O291 C286 1.246 . S
O292 Tb282 2.453 . S
O292 C288 1.245 . S
O293 Tb280 2.343 . S
O293 Tb282 2.596 . S
O293 C288 1.259 . S
O294 Tb282 2.374 . S
O294 C289 1.250 . S
O295 Tb280 2.353 . S
O295 C289 1.263 . S
C296 O297 1.275 . S
C296 O298 1.246 . S
O297 Tb280 2.427 . S
O297 C296 1.275 . S
O298 Tb280 2.513 . S
O298 C296 1.246 . S
C299 O283 1.245 . S
C299 O284 1.259 . S
Tb300 O303 2.453 . S
Tb300 O304 2.596 . S
Tb300 O305 2.374 . S
Tb300 O313 2.343 . S
Tb300 O315 2.353 . S
Tb300 O317 2.427 . S
Tb300 O318 2.513 . S
C301 O305 1.251 . S
C301 O307 1.263 . S
Tb302 O304 2.343 . S
Tb302 O307 2.353 . S
Tb302 O310 2.427 . S
Tb302 O311 2.513 . S
Tb302 O312 2.453 . S
Tb302 O313 2.596 . S
Tb302 O314 2.374 . S
O303 Tb300 2.453 . S
O303 C319 1.245 . S
O304 Tb300 2.596 . S
O304 Tb302 2.343 . S
O304 C319 1.259 . S
O305 Tb300 2.374 . S
O305 C301 1.251 . S
C306 O310 1.275 . S
C306 O311 1.246 . S
O307 C301 1.263 . S
O307 Tb302 2.353 . S
C308 O312 1.245 . S
C308 O313 1.259 . S
C309 O314 1.250 . S
C309 O315 1.263 . S
O310 Tb302 2.427 . S
O310 C306 1.275 . S
O311 Tb302 2.513 . S
O311 C306 1.246 . S
O312 Tb302 2.453 . S
O312 C308 1.245 . S
O313 Tb300 2.343 . S
O313 Tb302 2.596 . S
O313 C308 1.259 . S
O314 Tb302 2.374 . S
O314 C309 1.250 . S
O315 Tb300 2.353 . S
O315 C309 1.263 . S
C316 O317 1.275 . S
C316 O318 1.246 . S
O317 Tb300 2.427 . S
O317 C316 1.275 . S
O318 Tb300 2.513 . S
O318 C316 1.246 . S
C319 O303 1.245 . S
C319 O304 1.259 . S
Tb320 O323 2.453 . S
Tb320 O324 2.596 . S
Tb320 O325 2.374 1_565 S
Tb320 O333 2.342 1_565 S
Tb320 O335 2.353 . S
Tb320 O337 2.427 . S
Tb320 O338 2.513 1_565 S
C321 O325 1.251 . S
C321 O327 1.263 . S
Tb322 O324 2.343 1_545 S
Tb322 O327 2.353 . S
Tb322 O330 2.427 . S
Tb322 O331 2.513 1_545 S
Tb322 O332 2.453 . S
Tb322 O333 2.597 . S
Tb322 O334 2.374 1_545 S
O323 Tb320 2.453 . S
O323 C339 1.245 . S
O324 Tb320 2.596 . S
O324 Tb322 2.343 1_565 S
O324 C339 1.259 . S
O325 Tb320 2.374 1_545 S
O325 C321 1.251 . S
C326 O330 1.275 . S
C326 O331 1.246 1_545 S
O327 C321 1.263 . S
O327 Tb322 2.353 . S
C328 O332 1.245 . S
C328 O333 1.260 . S
C329 O334 1.250 . S
C329 O335 1.263 . S
O330 Tb322 2.427 . S
O330 C326 1.275 . S
O331 Tb322 2.513 1_565 S
O331 C326 1.246 1_565 S
O332 Tb322 2.453 . S
O332 C328 1.245 . S
O333 Tb320 2.342 1_545 S
O333 Tb322 2.597 . S
O333 C328 1.260 . S
O334 Tb322 2.374 1_565 S
O334 C329 1.250 . S
O335 Tb320 2.353 . S
O335 C329 1.263 . S
C336 O337 1.275 . S
C336 O338 1.246 1_565 S
O337 Tb320 2.427 . S
O337 C336 1.275 . S
O338 Tb320 2.513 1_545 S
O338 C336 1.246 1_545 S
C339 O323 1.245 . S
C339 O324 1.259 . S
Tb340 O343 2.453 . S
Tb340 O344 2.596 . S
Tb340 O345 2.374 . S
Tb340 O353 2.343 . S
Tb340 O355 2.353 . S
Tb340 O357 2.427 . S
Tb340 O358 2.513 . S
C341 O345 1.251 . S
C341 O347 1.263 . S
Tb342 O344 2.343 . S
Tb342 O347 2.353 . S
Tb342 O350 2.427 . S
Tb342 O351 2.513 . S
Tb342 O352 2.453 . S
Tb342 O353 2.596 . S
Tb342 O354 2.374 . S
O343 Tb340 2.453 . S
O343 C359 1.245 . S
O344 Tb340 2.596 . S
O344 Tb342 2.343 . S
O344 C359 1.259 . S
O345 Tb340 2.374 . S
O345 C341 1.251 . S
C346 O350 1.275 . S
C346 O351 1.246 . S
O347 C341 1.263 . S
O347 Tb342 2.353 . S
C348 O352 1.245 . S
C348 O353 1.259 . S
C349 O354 1.250 . S
C349 O355 1.263 . S
O350 Tb342 2.427 . S
O350 C346 1.275 . S
O351 Tb342 2.513 . S
O351 C346 1.246 . S
O352 Tb342 2.453 . S
O352 C348 1.245 . S
O353 Tb340 2.343 . S
O353 Tb342 2.596 . S
O353 C348 1.259 . S
O354 Tb342 2.374 . S
O354 C349 1.250 . S
O355 Tb340 2.353 . S
O355 C349 1.263 . S
C356 O357 1.275 . S
C356 O358 1.246 . S
O357 Tb340 2.427 . S
O357 C356 1.275 . S
O358 Tb340 2.513 . S
O358 C356 1.246 . S
C359 O343 1.245 . S
C359 O344 1.259 . S
Tb360 O363 2.453 . S
Tb360 O364 2.596 . S
Tb360 O365 2.374 . S
Tb360 O373 2.343 . S
Tb360 O375 2.353 . S
Tb360 O377 2.427 . S
Tb360 O378 2.513 . S
C361 O365 1.251 . S
C361 O367 1.263 . S
Tb362 O364 2.343 . S
Tb362 O367 2.353 . S
Tb362 O370 2.427 . S
Tb362 O371 2.513 . S
Tb362 O372 2.453 . S
Tb362 O373 2.596 . S
Tb362 O374 2.374 . S
O363 Tb360 2.453 . S
O363 C379 1.245 . S
O364 Tb360 2.596 . S
O364 Tb362 2.343 . S
O364 C379 1.259 . S
O365 Tb360 2.374 . S
O365 C361 1.251 . S
C366 O370 1.275 . S
C366 O371 1.246 . S
O367 C361 1.263 . S
O367 Tb362 2.353 . S
C368 O372 1.245 . S
C368 O373 1.259 . S
C369 O374 1.250 . S
C369 O375 1.263 . S
O370 Tb362 2.427 . S
O370 C366 1.275 . S
O371 Tb362 2.513 . S
O371 C366 1.246 . S
O372 Tb362 2.453 . S
O372 C368 1.245 . S
O373 Tb360 2.343 . S
O373 Tb362 2.596 . S
O373 C368 1.259 . S
O374 Tb362 2.374 . S
O374 C369 1.250 . S
O375 Tb360 2.353 . S
O375 C369 1.263 . S
C376 O377 1.275 . S
C376 O378 1.246 . S
O377 Tb360 2.427 . S
O377 C376 1.275 . S
O378 Tb360 2.513 . S
O378 C376 1.246 . S
C379 O363 1.245 . S
C379 O364 1.259 . S
Tb380 O383 2.453 . S
Tb380 O384 2.596 . S
Tb380 O385 2.374 1_565 S
Tb380 O393 2.342 1_565 S
Tb380 O395 2.353 . S
Tb380 O397 2.427 . S
Tb380 O398 2.513 1_565 S
C381 O385 1.251 . S
C381 O387 1.263 . S
Tb382 O384 2.343 1_545 S
Tb382 O387 2.353 . S
Tb382 O390 2.427 . S
Tb382 O391 2.513 1_545 S
Tb382 O392 2.453 . S
Tb382 O393 2.597 . S
Tb382 O394 2.374 1_545 S
O383 Tb380 2.453 . S
O383 C399 1.245 . S
O384 Tb380 2.596 . S
O384 Tb382 2.343 1_565 S
O384 C399 1.259 . S
O385 Tb380 2.374 1_545 S
O385 C381 1.251 . S
C386 O390 1.275 . S
C386 O391 1.246 1_545 S
O387 C381 1.263 . S
O387 Tb382 2.353 . S
C388 O392 1.245 . S
C388 O393 1.260 . S
C389 O394 1.250 . S
C389 O395 1.263 . S
O390 Tb382 2.427 . S
O390 C386 1.275 . S
O391 Tb382 2.513 1_565 S
O391 C386 1.246 1_565 S
O392 Tb382 2.453 . S
O392 C388 1.245 . S
O393 Tb380 2.342 1_545 S
O393 Tb382 2.597 . S
O393 C388 1.260 . S
O394 Tb382 2.374 1_565 S
O394 C389 1.250 . S
O395 Tb380 2.353 . S
O395 C389 1.263 . S
C396 O397 1.275 . S
C396 O398 1.246 1_565 S
O397 Tb380 2.427 . S
O397 C396 1.275 . S
O398 Tb380 2.513 1_545 S
O398 C396 1.246 1_545 S
C399 O383 1.245 . S
C399 O384 1.259 . S
Tb400 O403 2.453 . S
Tb400 O404 2.597 . S
Tb400 O405 2.374 1_565 S
Tb400 O413 2.343 1_565 S
Tb400 O415 2.353 . S
Tb400 O417 2.427 . S
Tb400 O418 2.513 1_565 S
C401 O405 1.251 . S
C401 O407 1.263 . S
Tb402 O404 2.342 1_545 S
Tb402 O407 2.353 . S
Tb402 O410 2.427 . S
Tb402 O411 2.513 1_545 S
Tb402 O412 2.453 . S
Tb402 O413 2.596 . S
Tb402 O414 2.374 1_545 S
O403 Tb400 2.453 . S
O403 C419 1.245 . S
O404 Tb400 2.597 . S
O404 Tb402 2.342 1_565 S
O404 C419 1.260 . S
O405 Tb400 2.374 1_545 S
O405 C401 1.251 . S
C406 O410 1.275 . S
C406 O411 1.246 1_545 S
O407 C401 1.263 . S
O407 Tb402 2.353 . S
C408 O412 1.245 . S
C408 O413 1.259 . S
C409 O414 1.250 . S
C409 O415 1.263 . S
O410 Tb402 2.427 . S
O410 C406 1.275 . S
O411 Tb402 2.513 1_565 S
O411 C406 1.246 1_565 S
O412 Tb402 2.453 . S
O412 C408 1.245 . S
O413 Tb400 2.343 1_545 S
O413 Tb402 2.596 . S
O413 C408 1.259 . S
O414 Tb402 2.374 1_565 S
O414 C409 1.250 . S
O415 Tb400 2.353 . S
O415 C409 1.263 . S
C416 O417 1.275 . S
C416 O418 1.246 1_565 S
O417 Tb400 2.427 . S
O417 C416 1.275 . S
O418 Tb400 2.513 1_545 S
O418 C416 1.246 1_545 S
C419 O403 1.245 . S
C419 O404 1.260 . S
Tb420 O423 2.453 . S
Tb420 O424 2.596 . S
Tb420 O425 2.374 . S
Tb420 O433 2.343 . S
Tb420 O435 2.353 . S
Tb420 O437 2.427 . S
Tb420 O438 2.513 . S
C421 O425 1.251 . S
C421 O427 1.263 . S
Tb422 O424 2.343 . S
Tb422 O427 2.353 . S
Tb422 O430 2.427 . S
Tb422 O431 2.513 . S
Tb422 O432 2.453 . S
Tb422 O433 2.596 . S
Tb422 O434 2.374 . S
O423 Tb420 2.453 . S
O423 C439 1.245 . S
O424 Tb420 2.596 . S
O424 Tb422 2.343 . S
O424 C439 1.259 . S
O425 Tb420 2.374 . S
O425 C421 1.251 . S
C426 O430 1.275 . S
C426 O431 1.246 . S
O427 C421 1.263 . S
O427 Tb422 2.353 . S
C428 O432 1.245 . S
C428 O433 1.259 . S
C429 O434 1.250 . S
C429 O435 1.263 . S
O430 Tb422 2.427 . S
O430 C426 1.275 . S
O431 Tb422 2.513 . S
O431 C426 1.246 . S
O432 Tb422 2.453 . S
O432 C428 1.245 . S
O433 Tb420 2.343 . S
O433 Tb422 2.596 . S
O433 C428 1.259 . S
O434 Tb422 2.374 . S
O434 C429 1.250 . S
O435 Tb420 2.353 . S
O435 C429 1.263 . S
C436 O437 1.275 . S
C436 O438 1.246 . S
O437 Tb420 2.427 . S
O437 C436 1.275 . S
O438 Tb420 2.513 . S
O438 C436 1.246 . S
C439 O423 1.245 . S
C439 O424 1.259 . S
Tb440 O443 2.453 . S
Tb440 O444 2.596 . S
Tb440 O445 2.374 . S
Tb440 O453 2.343 . S
Tb440 O455 2.353 . S
Tb440 O457 2.427 . S
Tb440 O458 2.513 . S
C441 O445 1.251 . S
C441 O447 1.263 . S
Tb442 O444 2.343 . S
Tb442 O447 2.353 . S
Tb442 O450 2.427 . S
Tb442 O451 2.513 . S
Tb442 O452 2.453 . S
Tb442 O453 2.596 . S
Tb442 O454 2.374 . S
O443 Tb440 2.453 . S
O443 C459 1.245 . S
O444 Tb440 2.596 . S
O444 Tb442 2.343 . S
O444 C459 1.259 . S
O445 Tb440 2.374 . S
O445 C441 1.251 . S
C446 O450 1.275 . S
C446 O451 1.246 . S
O447 C441 1.263 . S
O447 Tb442 2.353 . S
C448 O452 1.245 . S
C448 O453 1.259 . S
C449 O454 1.250 . S
C449 O455 1.263 . S
O450 Tb442 2.427 . S
O450 C446 1.275 . S
O451 Tb442 2.513 . S
O451 C446 1.246 . S
O452 Tb442 2.453 . S
O452 C448 1.245 . S
O453 Tb440 2.343 . S
O453 Tb442 2.596 . S
O453 C448 1.259 . S
O454 Tb442 2.374 . S
O454 C449 1.250 . S
O455 Tb440 2.353 . S
O455 C449 1.263 . S
C456 O457 1.275 . S
C456 O458 1.246 . S
O457 Tb440 2.427 . S
O457 C456 1.275 . S
O458 Tb440 2.513 . S
O458 C456 1.246 . S
C459 O443 1.245 . S
C459 O444 1.259 . S
Tb460 O463 2.453 . S
Tb460 O464 2.597 . S
Tb460 O465 2.374 1_565 S
Tb460 O473 2.343 1_565 S
Tb460 O475 2.353 . S
Tb460 O477 2.427 . S
Tb460 O478 2.513 1_565 S
C461 O465 1.251 . S
C461 O467 1.263 . S
Tb462 O464 2.342 1_545 S
Tb462 O467 2.353 . S
Tb462 O470 2.427 . S
Tb462 O471 2.513 1_545 S
Tb462 O472 2.453 . S
Tb462 O473 2.596 . S
Tb462 O474 2.374 1_545 S
O463 Tb460 2.453 . S
O463 C479 1.245 . S
O464 Tb460 2.597 . S
O464 Tb462 2.342 1_565 S
O464 C479 1.260 . S
O465 Tb460 2.374 1_545 S
O465 C461 1.251 . S
C466 O470 1.275 . S
C466 O471 1.246 1_545 S
O467 C461 1.263 . S
O467 Tb462 2.353 . S
C468 O472 1.245 . S
C468 O473 1.259 . S
C469 O474 1.250 . S
C469 O475 1.263 . S
O470 Tb462 2.427 . S
O470 C466 1.275 . S
O471 Tb462 2.513 1_565 S
O471 C466 1.246 1_565 S
O472 Tb462 2.453 . S
O472 C468 1.245 . S
O473 Tb460 2.343 1_545 S
O473 Tb462 2.596 . S
O473 C468 1.259 . S
O474 Tb462 2.374 1_565 S
O474 C469 1.250 . S
O475 Tb460 2.353 . S
O475 C469 1.263 . S
C476 O477 1.275 . S
C476 O478 1.246 1_565 S
O477 Tb460 2.427 . S
O477 C476 1.275 . S
O478 Tb460 2.513 1_545 S
O478 C476 1.246 1_545 S
C479 O463 1.245 . S
C479 O464 1.260 . S
Tb480 O483 2.453 . S
Tb480 O484 2.596 . S
Tb480 O485 2.374 . S
Tb480 O493 2.343 . S
Tb480 O495 2.353 . S
Tb480 O497 2.427 . S
Tb480 O498 2.513 . S
C481 O485 1.251 . S
C481 O487 1.263 . S
Tb482 O484 2.343 . S
Tb482 O487 2.353 . S
Tb482 O490 2.427 . S
Tb482 O491 2.513 . S
Tb482 O492 2.453 . S
Tb482 O493 2.596 . S
Tb482 O494 2.374 . S
O483 Tb480 2.453 . S
O483 C499 1.245 . S
O484 Tb480 2.596 . S
O484 Tb482 2.343 . S
O484 C499 1.259 . S
O485 Tb480 2.374 . S
O485 C481 1.251 . S
C486 O490 1.275 . S
C486 O491 1.246 . S
O487 C481 1.263 . S
O487 Tb482 2.353 . S
C488 O492 1.245 . S
C488 O493 1.259 . S
C489 O494 1.250 . S
C489 O495 1.263 . S
O490 Tb482 2.427 . S
O490 C486 1.275 . S
O491 Tb482 2.513 . S
O491 C486 1.246 . S
O492 Tb482 2.453 . S
O492 C488 1.245 . S
O493 Tb480 2.343 . S
O493 Tb482 2.596 . S
O493 C488 1.259 . S
O494 Tb482 2.374 . S
O494 C489 1.250 . S
O495 Tb480 2.353 . S
O495 C489 1.263 . S
C496 O497 1.277 . S
C496 O498 1.248 . S
O497 Tb480 2.427 . S
O497 C496 1.277 . S
O498 Tb480 2.513 . S
O498 C496 1.248 . S
C499 O483 1.245 . S
C499 O484 1.259 . S
Tb500 O503 2.453 . S
Tb500 O504 2.596 . S
Tb500 O505 2.374 . S
Tb500 O513 2.343 . S
Tb500 O515 2.353 . S
Tb500 O517 2.427 . S
Tb500 O518 2.513 . S
C501 O505 1.251 . S
C501 O507 1.263 . S
Tb502 O504 2.343 . S
Tb502 O507 2.353 . S
Tb502 O510 2.427 . S
Tb502 O511 2.513 . S
Tb502 O512 2.453 . S
Tb502 O513 2.596 . S
Tb502 O514 2.374 . S
O503 Tb500 2.453 . S
O503 C519 1.245 . S
O504 Tb500 2.596 . S
O504 Tb502 2.343 . S
O504 C519 1.259 . S
O505 Tb500 2.374 . S
O505 C501 1.251 . S
C506 O510 1.275 . S
C506 O511 1.246 . S
O507 C501 1.263 . S
O507 Tb502 2.353 . S
C508 O512 1.245 . S
C508 O513 1.259 . S
C509 O514 1.250 . S
C509 O515 1.263 . S
O510 Tb502 2.427 . S
O510 C506 1.275 . S
O511 Tb502 2.513 . S
O511 C506 1.246 . S
O512 Tb502 2.453 . S
O512 C508 1.245 . S
O513 Tb500 2.343 . S
O513 Tb502 2.596 . S
O513 C508 1.259 . S
O514 Tb502 2.374 . S
O514 C509 1.250 . S
O515 Tb500 2.353 . S
O515 C509 1.263 . S
C516 O517 1.277 . S
C516 O518 1.248 . S
O517 Tb500 2.427 . S
O517 C516 1.277 . S
O518 Tb500 2.513 . S
O518 C516 1.248 . S
C519 O503 1.245 . S
C519 O504 1.259 . S
Tb520 O523 2.453 . S
Tb520 O524 2.596 . S
Tb520 O525 2.374 . S
Tb520 O533 2.343 . S
Tb520 O535 2.353 . S
Tb520 O537 2.427 . S
Tb520 O538 2.513 . S
C521 O525 1.251 . S
C521 O527 1.263 . S
Tb522 O524 2.343 . S
Tb522 O527 2.353 . S
Tb522 O530 2.427 . S
Tb522 O531 2.513 . S
Tb522 O532 2.453 . S
Tb522 O533 2.596 . S
Tb522 O534 2.374 . S
O523 Tb520 2.453 . S
O523 C539 1.245 . S
O524 Tb520 2.596 . S
O524 Tb522 2.343 . S
O524 C539 1.259 . S
O525 Tb520 2.374 . S
O525 C521 1.251 . S
C526 O530 1.275 . S
C526 O531 1.246 . S
O527 C521 1.263 . S
O527 Tb522 2.353 . S
C528 O532 1.245 . S
C528 O533 1.259 . S
C529 O534 1.250 . S
C529 O535 1.263 . S
O530 Tb522 2.427 . S
O530 C526 1.275 . S
O531 Tb522 2.513 . S
O531 C526 1.246 . S
O532 Tb522 2.453 . S
O532 C528 1.245 . S
O533 Tb520 2.343 . S
O533 Tb522 2.596 . S
O533 C528 1.259 . S
O534 Tb522 2.374 . S
O534 C529 1.250 . S
O535 Tb520 2.353 . S
O535 C529 1.263 . S
C536 O537 1.275 . S
C536 O538 1.246 . S
O537 Tb520 2.427 . S
O537 C536 1.275 . S
O538 Tb520 2.513 . S
O538 C536 1.246 . S
C539 O523 1.245 . S
C539 O524 1.259 . S
Tb540 O543 2.453 . S
Tb540 O544 2.596 . S
Tb540 O545 2.374 . S
Tb540 O553 2.343 . S
Tb540 O555 2.353 . S
Tb540 O557 2.427 . S
Tb540 O558 2.513 . S
C541 O545 1.251 . S
C541 O547 1.263 . S
Tb542 O544 2.343 . S
Tb542 O547 2.353 . S
Tb542 O550 2.427 . S
Tb542 O551 2.513 . S
Tb542 O552 2.453 . S
Tb542 O553 2.596 . S
Tb542 O554 2.374 . S
O543 Tb540 2.453 . S
O543 C559 1.245 . S
O544 Tb540 2.596 . S
O544 Tb542 2.343 . S
O544 C559 1.259 . S
O545 Tb540 2.374 . S
O545 C541 1.251 . S
C546 O550 1.275 . S
C546 O551 1.246 . S
O547 C541 1.263 . S
O547 Tb542 2.353 . S
C548 O552 1.245 . S
C548 O553 1.259 . S
C549 O554 1.250 . S
C549 O555 1.263 . S
O550 Tb542 2.427 . S
O550 C546 1.275 . S
O551 Tb542 2.513 . S
O551 C546 1.246 . S
O552 Tb542 2.453 . S
O552 C548 1.245 . S
O553 Tb540 2.343 . S
O553 Tb542 2.596 . S
O553 C548 1.259 . S
O554 Tb542 2.374 . S
O554 C549 1.250 . S
O555 Tb540 2.353 . S
O555 C549 1.263 . S
C556 O557 1.275 . S
C556 O558 1.246 . S
O557 Tb540 2.427 . S
O557 C556 1.275 . S
O558 Tb540 2.513 . S
O558 C556 1.246 . S
C559 O543 1.245 . S
C559 O544 1.259 . S
Tb560 O563 2.453 . S
Tb560 O564 2.596 . S
Tb560 O565 2.374 . S
Tb560 O573 2.343 . S
Tb560 O575 2.353 . S
Tb560 O577 2.427 . S
Tb560 O578 2.513 . S
C561 O565 1.251 . S
C561 O567 1.263 . S
Tb562 O564 2.343 . S
Tb562 O567 2.353 . S
Tb562 O570 2.427 . S
Tb562 O571 2.513 . S
Tb562 O572 2.453 . S
Tb562 O573 2.596 . S
Tb562 O574 2.374 . S
O563 Tb560 2.453 . S
O563 C579 1.245 . S
O564 Tb560 2.596 . S
O564 Tb562 2.343 . S
O564 C579 1.259 . S
O565 Tb560 2.374 . S
O565 C561 1.251 . S
C566 O570 1.277 . S
C566 O571 1.248 . S
O567 C561 1.263 . S
O567 Tb562 2.353 . S
C568 O572 1.245 . S
C568 O573 1.259 . S
C569 O574 1.250 . S
C569 O575 1.263 . S
O570 Tb562 2.427 . S
O570 C566 1.277 . S
O571 Tb562 2.513 . S
O571 C566 1.248 . S
O572 Tb562 2.453 . S
O572 C568 1.245 . S
O573 Tb560 2.343 . S
O573 Tb562 2.596 . S
O573 C568 1.259 . S
O574 Tb562 2.374 . S
O574 C569 1.250 . S
O575 Tb560 2.353 . S
O575 C569 1.263 . S
C576 O577 1.275 . S
C576 O578 1.246 . S
O577 Tb560 2.427 . S
O577 C576 1.275 . S
O578 Tb560 2.513 . S
O578 C576 1.246 . S
C579 O563 1.245 . S
C579 O564 1.259 . S
Tb580 O583 2.453 . S
Tb580 O584 2.596 . S
Tb580 O585 2.374 . S
Tb580 O593 2.343 . S
Tb580 O595 2.353 . S
Tb580 O597 2.427 . S
Tb580 O598 2.513 . S
C581 O585 1.251 . S
C581 O587 1.263 . S
Tb582 O584 2.343 . S
Tb582 O587 2.353 . S
Tb582 O590 2.427 . S
Tb582 O591 2.513 . S
Tb582 O592 2.453 . S
Tb582 O593 2.596 . S
Tb582 O594 2.374 . S
O583 Tb580 2.453 . S
O583 C599 1.245 . S
O584 Tb580 2.596 . S
O584 Tb582 2.343 . S
O584 C599 1.259 . S
O585 Tb580 2.374 . S
O585 C581 1.251 . S
C586 O590 1.277 . S
C586 O591 1.248 . S
O587 C581 1.263 . S
O587 Tb582 2.353 . S
C588 O592 1.245 . S
C588 O593 1.259 . S
C589 O594 1.250 . S
C589 O595 1.263 . S
O590 Tb582 2.427 . S
O590 C586 1.277 . S
O591 Tb582 2.513 . S
O591 C586 1.248 . S
O592 Tb582 2.453 . S
O592 C588 1.245 . S
O593 Tb580 2.343 . S
O593 Tb582 2.596 . S
O593 C588 1.259 . S
O594 Tb582 2.374 . S
O594 C589 1.250 . S
O595 Tb580 2.353 . S
O595 C589 1.263 . S
C596 O597 1.275 . S
C596 O598 1.246 . S
O597 Tb580 2.427 . S
O597 C596 1.275 . S
O598 Tb580 2.513 . S
O598 C596 1.246 . S
C599 O583 1.245 . S
C599 O584 1.259 . S
Tb600 O603 2.453 . S
Tb600 O604 2.596 . S
Tb600 O605 2.374 . S
Tb600 O613 2.343 . S
Tb600 O615 2.353 . S
Tb600 O617 2.427 . S
Tb600 O618 2.513 . S
C601 O605 1.251 . S
C601 O607 1.263 . S
Tb602 O604 2.343 . S
Tb602 O607 2.353 . S
Tb602 O610 2.427 . S
Tb602 O611 2.513 . S
Tb602 O612 2.453 . S
Tb602 O613 2.596 . S
Tb602 O614 2.374 . S
O603 Tb600 2.453 . S
O603 C619 1.245 . S
O604 Tb600 2.596 . S
O604 Tb602 2.343 . S
O604 C619 1.259 . S
O605 Tb600 2.374 . S
O605 C601 1.251 . S
C606 O610 1.275 . S
C606 O611 1.246 . S
O607 C601 1.263 . S
O607 Tb602 2.353 . S
C608 O612 1.245 . S
C608 O613 1.259 . S
C609 O614 1.250 . S
C609 O615 1.263 . S
O610 Tb602 2.427 . S
O610 C606 1.275 . S
O611 Tb602 2.513 . S
O611 C606 1.246 . S
O612 Tb602 2.453 . S
O612 C608 1.245 . S
O613 Tb600 2.343 . S
O613 Tb602 2.596 . S
O613 C608 1.259 . S
O614 Tb602 2.374 . S
O614 C609 1.250 . S
O615 Tb600 2.353 . S
O615 C609 1.263 . S
C616 O617 1.275 . S
C616 O618 1.246 . S
O617 Tb600 2.427 . S
O617 C616 1.275 . S
O618 Tb600 2.513 . S
O618 C616 1.246 . S
C619 O603 1.245 . S
C619 O604 1.259 . S
Tb620 O623 2.453 . S
Tb620 O624 2.596 . S
Tb620 O625 2.374 . S
Tb620 O633 2.343 . S
Tb620 O635 2.353 . S
Tb620 O637 2.427 . S
Tb620 O638 2.513 . S
C621 O625 1.251 . S
C621 O627 1.263 . S
Tb622 O624 2.343 . S
Tb622 O627 2.353 . S
Tb622 O630 2.427 . S
Tb622 O631 2.513 . S
Tb622 O632 2.453 . S
Tb622 O633 2.596 . S
Tb622 O634 2.374 . S
O623 Tb620 2.453 . S
O623 C639 1.245 . S
O624 Tb620 2.596 . S
O624 Tb622 2.343 . S
O624 C639 1.259 . S
O625 Tb620 2.374 . S
O625 C621 1.251 . S
C626 O630 1.275 . S
C626 O631 1.246 . S
O627 C621 1.263 . S
O627 Tb622 2.353 . S
C628 O632 1.245 . S
C628 O633 1.259 . S
C629 O634 1.250 . S
C629 O635 1.263 . S
O630 Tb622 2.427 . S
O630 C626 1.275 . S
O631 Tb622 2.513 . S
O631 C626 1.246 . S
O632 Tb622 2.453 . S
O632 C628 1.245 . S
O633 Tb620 2.343 . S
O633 Tb622 2.596 . S
O633 C628 1.259 . S
O634 Tb622 2.374 . S
O634 C629 1.250 . S
O635 Tb620 2.353 . S
O635 C629 1.263 . S
C636 O637 1.275 . S
C636 O638 1.246 . S
O637 Tb620 2.427 . S
O637 C636 1.275 . S
O638 Tb620 2.513 . S
O638 C636 1.246 . S
C639 O623 1.245 . S
C639 O624 1.259 . S
H640 C648 0.950 . S
H641 C653 0.950 . S
H642 C650 0.950 . S
H643 C652 0.950 . S
H644 C654 0.950 . S
H645 C656 0.950 . S
H646 C658 0.950 . S
H647 C659 0.950 . S
C648 H640 0.950 . S
C648 C649 1.386 . S
C648 C650 1.391 . S
C649 C648 1.386 . S
C649 C653 1.393 . S
C650 H642 0.950 . S
C650 C648 1.391 . S
C650 C651 1.400 . S
C651 C650 1.400 . S
C651 C652 1.398 . S
C651 C657 1.491 . S
C652 H643 0.950 . S
C652 C651 1.398 . S
C652 C653 1.391 . S
C653 H641 0.950 . S
C653 C649 1.393 . S
C653 C652 1.391 . S
C654 H644 0.950 . S
C654 C655 1.386 . S
C654 C656 1.391 . S
C655 C654 1.386 . S
C655 C659 1.393 . S
C656 H645 0.950 . S
C656 C654 1.391 . S
C656 C657 1.400 . S
C657 C651 1.491 . S
C657 C656 1.400 . S
C657 C658 1.398 . S
C658 H646 0.950 . S
C658 C657 1.398 . S
C658 C659 1.391 . S
C659 H647 0.950 . S
C659 C655 1.393 . S
C659 C658 1.391 . S
H660 C668 0.950 . S
H661 C673 0.950 . S
H662 C670 0.950 . S
H663 C672 0.950 . S
H664 C674 0.950 . S
H665 C676 0.950 . S
H666 C678 0.950 . S
H667 C679 0.950 . S
C668 H660 0.950 . S
C668 C669 1.386 . S
C668 C670 1.391 . S
C669 C668 1.386 . S
C669 C673 1.393 . S
C670 H662 0.950 . S
C670 C668 1.391 . S
C670 C671 1.400 . S
C671 C670 1.400 . S
C671 C672 1.398 . S
C671 C677 1.491 . S
C672 H663 0.950 . S
C672 C671 1.398 . S
C672 C673 1.391 . S
C673 H661 0.950 . S
C673 C669 1.393 . S
C673 C672 1.391 . S
C674 H664 0.950 . S
C674 C675 1.386 . S
C674 C676 1.391 . S
C675 C674 1.386 . S
C675 C679 1.393 . S
C676 H665 0.950 . S
C676 C674 1.391 . S
C676 C677 1.400 . S
C677 C671 1.491 . S
C677 C676 1.400 . S
C677 C678 1.398 . S
C678 H666 0.950 . S
C678 C677 1.398 . S
C678 C679 1.391 . S
C679 H667 0.950 . S
C679 C675 1.393 . S
C679 C678 1.391 . S
H680 C688 0.950 . S
H681 C693 0.950 . S
H682 C690 0.950 . S
H683 C692 0.950 . S
H684 C694 0.950 . S
H685 C696 0.950 . S
H686 C698 0.950 . S
H687 C699 0.950 . S
C688 H680 0.950 . S
C688 C689 1.386 . S
C688 C690 1.391 . S
C689 C688 1.386 . S
C689 C693 1.393 . S
C690 H682 0.950 . S
C690 C688 1.391 . S
C690 C691 1.400 . S
C691 C690 1.400 . S
C691 C692 1.398 . S
C691 C697 1.491 . S
C692 H683 0.950 . S
C692 C691 1.398 . S
C692 C693 1.391 . S
C693 H681 0.950 . S
C693 C689 1.393 . S
C693 C692 1.391 . S
C694 H684 0.950 . S
C694 C695 1.386 . S
C694 C696 1.391 . S
C695 C694 1.386 . S
C695 C699 1.393 . S
C696 H685 0.950 . S
C696 C694 1.391 . S
C696 C697 1.400 . S
C697 C691 1.491 . S
C697 C696 1.400 . S
C697 C698 1.398 . S
C698 H686 0.950 . S
C698 C697 1.398 . S
C698 C699 1.391 . S
C699 H687 0.950 . S
C699 C695 1.393 . S
C699 C698 1.391 . S
H700 C708 0.950 . S
H701 C713 0.950 . S
H702 C710 0.950 . S
H703 C712 0.950 . S
H704 C714 0.950 . S
H705 C716 0.950 . S
H706 C718 0.950 . S
H707 C719 0.950 . S
C708 H700 0.950 . S
C708 C709 1.386 . S
C708 C710 1.391 . S
C709 C708 1.386 . S
C709 C713 1.393 . S
C710 H702 0.950 . S
C710 C708 1.391 . S
C710 C711 1.400 . S
C711 C710 1.400 . S
C711 C712 1.398 . S
C711 C717 1.491 . S
C712 H703 0.950 . S
C712 C711 1.398 . S
C712 C713 1.391 . S
C713 H701 0.950 . S
C713 C709 1.393 . S
C713 C712 1.391 . S
C714 H704 0.950 . S
C714 C715 1.386 . S
C714 C716 1.391 . S
C715 C714 1.386 . S
C715 C719 1.393 . S
C716 H705 0.950 . S
C716 C714 1.391 . S
C716 C717 1.400 . S
C717 C711 1.491 . S
C717 C716 1.400 . S
C717 C718 1.398 . S
C718 H706 0.950 . S
C718 C717 1.398 . S
C718 C719 1.391 . S
C719 H707 0.950 . S
C719 C715 1.393 . S
C719 C718 1.391 . S
H720 C728 0.950 . S
H721 C733 0.950 . S
H722 C730 0.950 . S
H723 C732 0.950 . S
H724 C734 0.950 . S
H725 C736 0.950 . S
H726 C738 0.950 . S
H727 C739 0.950 . S
C728 H720 0.950 . S
C728 C729 1.386 . S
C728 C730 1.391 . S
C729 C728 1.386 . S
C729 C733 1.393 . S
C730 H722 0.950 . S
C730 C728 1.391 . S
C730 C731 1.400 . S
C731 C730 1.400 . S
C731 C732 1.398 . S
C731 C737 1.491 . S
C732 H723 0.950 . S
C732 C731 1.398 . S
C732 C733 1.391 . S
C733 H721 0.950 . S
C733 C729 1.393 . S
C733 C732 1.391 . S
C734 H724 0.950 . S
C734 C735 1.386 . S
C734 C736 1.391 . S
C735 C734 1.386 . S
C735 C739 1.393 . S
C736 H725 0.950 . S
C736 C734 1.391 . S
C736 C737 1.400 . S
C737 C731 1.491 . S
C737 C736 1.400 . S
C737 C738 1.398 . S
C738 H726 0.950 . S
C738 C737 1.398 . S
C738 C739 1.391 . S
C739 H727 0.950 . S
C739 C735 1.393 . S
C739 C738 1.391 . S
H740 C748 0.950 . S
H741 C753 0.950 . S
H742 C750 0.950 . S
H743 C752 0.950 . S
H744 C754 0.950 . S
H745 C756 0.950 . S
H746 C758 0.950 . S
H747 C759 0.950 . S
C748 H740 0.950 . S
C748 C749 1.386 . S
C748 C750 1.391 . S
C749 C748 1.386 . S
C749 C753 1.393 . S
C750 H742 0.950 . S
C750 C748 1.391 . S
C750 C751 1.400 . S
C751 C750 1.400 . S
C751 C752 1.398 . S
C751 C757 1.491 . S
C752 H743 0.950 . S
C752 C751 1.398 . S
C752 C753 1.391 . S
C753 H741 0.950 . S
C753 C749 1.393 . S
C753 C752 1.391 . S
C754 H744 0.950 . S
C754 C755 1.386 . S
C754 C756 1.391 . S
C755 C754 1.386 . S
C755 C759 1.393 . S
C756 H745 0.950 . S
C756 C754 1.391 . S
C756 C757 1.400 . S
C757 C751 1.491 . S
C757 C756 1.400 . S
C757 C758 1.398 . S
C758 H746 0.950 . S
C758 C757 1.398 . S
C758 C759 1.391 . S
C759 H747 0.950 . S
C759 C755 1.393 . S
C759 C758 1.391 . S
H760 C768 0.950 . S
H761 C773 0.950 . S
H762 C770 0.950 . S
H763 C772 0.950 . S
H764 C774 0.950 . S
H765 C776 0.950 . S
H766 C778 0.950 . S
H767 C779 0.950 . S
C768 H760 0.950 . S
C768 C769 1.386 . S
C768 C770 1.391 . S
C769 C768 1.386 . S
C769 C773 1.393 . S
C770 H762 0.950 . S
C770 C768 1.391 . S
C770 C771 1.400 . S
C771 C770 1.400 . S
C771 C772 1.398 . S
C771 C777 1.491 . S
C772 H763 0.950 . S
C772 C771 1.398 . S
C772 C773 1.391 . S
C773 H761 0.950 . S
C773 C769 1.393 . S
C773 C772 1.391 . S
C774 H764 0.950 . S
C774 C775 1.386 . S
C774 C776 1.391 . S
C775 C774 1.386 . S
C775 C779 1.393 . S
C776 H765 0.950 . S
C776 C774 1.391 . S
C776 C777 1.400 . S
C777 C771 1.491 . S
C777 C776 1.400 . S
C777 C778 1.398 . S
C778 H766 0.950 . S
C778 C777 1.398 . S
C778 C779 1.391 . S
C779 H767 0.950 . S
C779 C775 1.393 . S
C779 C778 1.391 . S
H780 C788 0.950 . S
H781 C793 0.950 . S
H782 C790 0.950 . S
H783 C792 0.950 . S
H784 C794 0.950 . S
H785 C796 0.950 . S
H786 C798 0.950 . S
H787 C799 0.950 . S
C788 H780 0.950 . S
C788 C789 1.386 . S
C788 C790 1.391 . S
C789 C788 1.386 . S
C789 C793 1.393 . S
C790 H782 0.950 . S
C790 C788 1.391 . S
C790 C791 1.400 . S
C791 C790 1.400 . S
C791 C792 1.398 . S
C791 C797 1.491 . S
C792 H783 0.950 . S
C792 C791 1.398 . S
C792 C793 1.391 . S
C793 H781 0.950 . S
C793 C789 1.393 . S
C793 C792 1.391 . S
C794 H784 0.950 . S
C794 C795 1.386 . S
C794 C796 1.391 . S
C795 C794 1.386 . S
C795 C799 1.393 . S
C796 H785 0.950 . S
C796 C794 1.391 . S
C796 C797 1.400 . S
C797 C791 1.491 . S
C797 C796 1.400 . S
C797 C798 1.398 . S
C798 H786 0.950 . S
C798 C797 1.398 . S
C798 C799 1.391 . S
C799 H787 0.950 . S
C799 C795 1.393 . S
C799 C798 1.391 . S
H800 C808 0.950 . S
H801 C813 0.950 . S
H802 C810 0.950 . S
H803 C812 0.950 . S
H804 C814 0.950 . S
H805 C816 0.950 . S
H806 C818 0.950 . S
H807 C819 0.950 . S
C808 H800 0.950 . S
C808 C809 1.386 . S
C808 C810 1.391 . S
C809 C808 1.386 . S
C809 C813 1.393 . S
C810 H802 0.950 . S
C810 C808 1.391 . S
C810 C811 1.400 . S
C811 C810 1.400 . S
C811 C812 1.398 . S
C811 C817 1.491 . S
C812 H803 0.950 . S
C812 C811 1.398 . S
C812 C813 1.391 . S
C813 H801 0.950 . S
C813 C809 1.393 . S
C813 C812 1.391 . S
C814 H804 0.950 . S
C814 C815 1.386 . S
C814 C816 1.391 . S
C815 C814 1.386 . S
C815 C819 1.393 . S
C816 H805 0.950 . S
C816 C814 1.391 . S
C816 C817 1.400 . S
C817 C811 1.491 . S
C817 C816 1.400 . S
C817 C818 1.398 . S
C818 H806 0.950 . S
C818 C817 1.398 . S
C818 C819 1.391 . S
C819 H807 0.950 . S
C819 C815 1.393 . S
C819 C818 1.391 . S
H820 C828 0.950 . S
H821 C833 0.950 . S
H822 C830 0.950 . S
H823 C832 0.950 . S
H824 C834 0.950 . S
H825 C836 0.950 . S
H826 C838 0.950 . S
H827 C839 0.950 . S
C828 H820 0.950 . S
C828 C829 1.386 . S
C828 C830 1.391 . S
C829 C828 1.386 . S
C829 C833 1.393 . S
C830 H822 0.950 . S
C830 C828 1.391 . S
C830 C831 1.400 . S
C831 C830 1.400 . S
C831 C832 1.398 . S
C831 C837 1.491 . S
C832 H823 0.950 . S
C832 C831 1.398 . S
C832 C833 1.391 . S
C833 H821 0.950 . S
C833 C829 1.393 . S
C833 C832 1.391 . S
C834 H824 0.950 . S
C834 C835 1.386 . S
C834 C836 1.391 . S
C835 C834 1.386 . S
C835 C839 1.393 . S
C836 H825 0.950 . S
C836 C834 1.391 . S
C836 C837 1.400 . S
C837 C831 1.491 . S
C837 C836 1.400 . S
C837 C838 1.398 . S
C838 H826 0.950 . S
C838 C837 1.398 . S
C838 C839 1.391 . S
C839 H827 0.950 . S
C839 C835 1.393 . S
C839 C838 1.391 . S
H840 C848 0.950 . S
H841 C853 0.950 . S
H842 C850 0.950 . S
H843 C852 0.950 . S
H844 C854 0.950 . S
H845 C856 0.950 . S
H846 C858 0.950 . S
H847 C859 0.950 . S
C848 H840 0.950 . S
C848 C849 1.386 . S
C848 C850 1.391 . S
C849 C848 1.386 . S
C849 C853 1.393 . S
C850 H842 0.950 . S
C850 C848 1.391 . S
C850 C851 1.400 . S
C851 C850 1.400 . S
C851 C852 1.398 . S
C851 C857 1.491 . S
C852 H843 0.950 . S
C852 C851 1.398 . S
C852 C853 1.391 . S
C853 H841 0.950 . S
C853 C849 1.393 . S
C853 C852 1.391 . S
C854 H844 0.950 . S
C854 C855 1.386 . S
C854 C856 1.391 . S
C855 C854 1.386 . S
C855 C859 1.393 . S
C856 H845 0.950 . S
C856 C854 1.391 . S
C856 C857 1.400 . S
C857 C851 1.491 . S
C857 C856 1.400 . S
C857 C858 1.398 . S
C858 H846 0.950 . S
C858 C857 1.398 . S
C858 C859 1.391 . S
C859 H847 0.950 . S
C859 C855 1.393 . S
C859 C858 1.391 . S
H860 C868 0.950 . S
H861 C873 0.950 . S
H862 C870 0.950 . S
H863 C872 0.950 . S
H864 C874 0.950 . S
H865 C876 0.950 . S
H866 C878 0.950 . S
H867 C879 0.950 . S
C868 H860 0.950 . S
C868 C869 1.386 . S
C868 C870 1.391 . S
C869 C868 1.386 . S
C869 C873 1.393 . S
C870 H862 0.950 . S
C870 C868 1.391 . S
C870 C871 1.400 . S
C871 C870 1.400 . S
C871 C872 1.398 . S
C871 C877 1.491 . S
C872 H863 0.950 . S
C872 C871 1.398 . S
C872 C873 1.391 . S
C873 H861 0.950 . S
C873 C869 1.393 . S
C873 C872 1.391 . S
C874 H864 0.950 . S
C874 C875 1.386 . S
C874 C876 1.391 . S
C875 C874 1.386 . S
C875 C879 1.393 . S
C876 H865 0.950 . S
C876 C874 1.391 . S
C876 C877 1.400 . S
C877 C871 1.491 . S
C877 C876 1.400 . S
C877 C878 1.398 . S
C878 H866 0.950 . S
C878 C877 1.398 . S
C878 C879 1.391 . S
C879 H867 0.950 . S
C879 C875 1.393 . S
C879 C878 1.391 . S
H880 C888 0.950 . S
H881 C893 0.950 . S
H882 C890 0.950 . S
H883 C892 0.950 . S
H884 C894 0.950 . S
H885 C896 0.950 . S
H886 C898 0.950 . S
H887 C899 0.950 . S
C888 H880 0.950 . S
C888 C889 1.386 . S
C888 C890 1.391 . S
C889 C888 1.386 . S
C889 C893 1.393 . S
C890 H882 0.950 . S
C890 C888 1.391 . S
C890 C891 1.400 . S
C891 C890 1.400 . S
C891 C892 1.398 . S
C891 C897 1.491 . S
C892 H883 0.950 . S
C892 C891 1.398 . S
C892 C893 1.391 . S
C893 H881 0.950 . S
C893 C889 1.393 . S
C893 C892 1.391 . S
C894 H884 0.950 . S
C894 C895 1.386 . S
C894 C896 1.391 . S
C895 C894 1.386 . S
C895 C899 1.393 . S
C896 H885 0.950 . S
C896 C894 1.391 . S
C896 C897 1.400 . S
C897 C891 1.491 . S
C897 C896 1.400 . S
C897 C898 1.398 . S
C898 H886 0.950 . S
C898 C897 1.398 . S
C898 C899 1.391 . S
C899 H887 0.950 . S
C899 C895 1.393 . S
C899 C898 1.391 . S
H900 C908 0.950 . S
H901 C913 0.950 . S
H902 C910 0.950 . S
H903 C912 0.950 . S
H904 C914 0.950 . S
H905 C916 0.950 . S
H906 C918 0.950 . S
H907 C919 0.950 . S
C908 H900 0.950 . S
C908 C909 1.386 . S
C908 C910 1.391 . S
C909 C908 1.386 . S
C909 C913 1.393 . S
C910 H902 0.950 . S
C910 C908 1.391 . S
C910 C911 1.400 . S
C911 C910 1.400 . S
C911 C912 1.398 . S
C911 C917 1.491 . S
C912 H903 0.950 . S
C912 C911 1.398 . S
C912 C913 1.391 . S
C913 H901 0.950 . S
C913 C909 1.393 . S
C913 C912 1.391 . S
C914 H904 0.950 . S
C914 C915 1.386 . S
C914 C916 1.391 . S
C915 C914 1.386 . S
C915 C919 1.393 . S
C916 H905 0.950 . S
C916 C914 1.391 . S
C916 C917 1.400 . S
C917 C911 1.491 . S
C917 C916 1.400 . S
C917 C918 1.398 . S
C918 H906 0.950 . S
C918 C917 1.398 . S
C918 C919 1.391 . S
C919 H907 0.950 . S
C919 C915 1.393 . S
C919 C918 1.391 . S
H920 C928 0.950 . S
H921 C933 0.950 . S
H922 C930 0.950 . S
H923 C932 0.950 . S
H924 C934 0.950 . S
H925 C936 0.950 . S
H926 C938 0.950 . S
H927 C939 0.950 . S
C928 H920 0.950 . S
C928 C929 1.386 . S
C928 C930 1.391 . S
C929 C928 1.386 . S
C929 C933 1.393 . S
C930 H922 0.950 . S
C930 C928 1.391 . S
C930 C931 1.400 . S
C931 C930 1.400 . S
C931 C932 1.398 . S
C931 C937 1.491 . S
C932 H923 0.950 . S
C932 C931 1.398 . S
C932 C933 1.391 . S
C933 H921 0.950 . S
C933 C929 1.393 . S
C933 C932 1.391 . S
C934 H924 0.950 . S
C934 C935 1.386 . S
C934 C936 1.391 . S
C935 C934 1.386 . S
C935 C939 1.393 . S
C936 H925 0.950 . S
C936 C934 1.391 . S
C936 C937 1.400 . S
C937 C931 1.491 . S
C937 C936 1.400 . S
C937 C938 1.398 . S
C938 H926 0.950 . S
C938 C937 1.398 . S
C938 C939 1.391 . S
C939 H927 0.950 . S
C939 C935 1.393 . S
C939 C938 1.391 . S
H940 C948 0.950 . S
H941 C953 0.950 . S
H942 C950 0.950 . S
H943 C952 0.950 . S
H944 C954 0.950 . S
H945 C956 0.950 . S
H946 C958 0.950 . S
H947 C959 0.950 . S
C948 H940 0.950 . S
C948 C949 1.386 . S
C948 C950 1.391 . S
C949 C948 1.386 . S
C949 C953 1.393 . S
C950 H942 0.950 . S
C950 C948 1.391 . S
C950 C951 1.400 . S
C951 C950 1.400 . S
C951 C952 1.398 . S
C951 C957 1.491 . S
C952 H943 0.950 . S
C952 C951 1.398 . S
C952 C953 1.391 . S
C953 H941 0.950 . S
C953 C949 1.393 . S
C953 C952 1.391 . S
C954 H944 0.950 . S
C954 C955 1.386 . S
C954 C956 1.391 . S
C955 C954 1.386 . S
C955 C959 1.393 . S
C956 H945 0.950 . S
C956 C954 1.391 . S
C956 C957 1.400 . S
C957 C951 1.491 . S
C957 C956 1.400 . S
C957 C958 1.398 . S
C958 H946 0.950 . S
C958 C957 1.398 . S
C958 C959 1.391 . S
C959 H947 0.950 . S
C959 C955 1.393 . S
C959 C958 1.391 . S
H960 C968 0.950 . S
H961 C973 0.950 . S
H962 C970 0.950 . S
H963 C972 0.950 . S
H964 C974 0.950 . S
H965 C976 0.950 . S
H966 C978 0.950 . S
H967 C979 0.950 . S
C968 H960 0.950 . S
C968 C969 1.350 1_565 S
C968 C970 1.391 . S
C969 C968 1.350 1_545 S
C969 C973 1.428 . S
C970 H962 0.950 . S
C970 C968 1.391 . S
C970 C971 1.398 1_565 S
C971 C970 1.398 1_545 S
C971 C972 1.400 . S
C971 C977 1.491 . S
C972 H963 0.950 . S
C972 C971 1.400 . S
C972 C973 1.391 . S
C973 H961 0.950 . S
C973 C969 1.428 . S
C973 C972 1.391 . S
C974 H964 0.950 . S
C974 C975 1.359 1_545 S
C974 C976 1.391 . S
C975 C974 1.359 1_565 S
C975 C979 1.419 . S
C976 H965 0.950 . S
C976 C974 1.391 . S
C976 C977 1.398 . S
C977 C971 1.491 . S
C977 C976 1.398 . S
C977 C978 1.400 1_545 S
C978 H966 0.950 . S
C978 C977 1.400 1_565 S
C978 C979 1.391 . S
C979 H967 0.950 . S
C979 C975 1.419 . S
C979 C978 1.391 . S
H980 C988 0.950 . S
H981 C993 0.950 . S
H982 C990 0.950 . S
H983 C992 0.950 . S
H984 C994 0.950 . S
H985 C996 0.950 . S
H986 C998 0.950 . S
H987 C999 0.950 . S
C988 H980 0.950 . S
C988 C989 1.386 . S
C988 C990 1.391 1_455 S
C989 C988 1.386 . S
C989 C993 1.393 . S
C990 H982 0.950 . S
C990 C988 1.391 1_655 S
C990 C991 1.400 1_655 S
C991 C990 1.400 1_455 S
C991 C992 1.398 . S
C991 C997 1.491 1_455 S
C992 H983 0.950 . S
C992 C991 1.398 . S
C992 C993 1.391 . S
C993 H981 0.950 . S
C993 C989 1.393 . S
C993 C992 1.391 . S
C994 H984 0.950 . S
C994 C995 1.386 . S
C994 C996 1.391 1_655 S
C995 C994 1.386 . S
C995 C999 1.393 . S
C996 H985 0.950 . S
C996 C994 1.391 1_455 S
C996 C997 1.400 1_455 S
C997 C991 1.491 1_655 S
C997 C996 1.400 1_655 S
C997 C998 1.398 . S
C998 H986 0.950 . S
C998 C997 1.398 . S
C998 C999 1.391 . S
C999 H987 0.950 . S
C999 C995 1.393 . S
C999 C998 1.391 . S
H1000 C1008 0.950 . S
H1001 C1013 0.950 . S
H1002 C1010 0.950 . S
H1003 C1012 0.950 1_554 S
H1004 C1014 0.950 . S
H1005 C1016 0.950 . S
H1006 C1018 0.950 1_556 S
H1007 C1019 0.950 . S
C1008 H1000 0.950 . S
C1008 C1009 1.386 . S
C1008 C1010 1.391 . S
C1009 C1008 1.386 . S
C1009 C1013 1.393 . S
C1010 H1002 0.950 . S
C1010 C1008 1.391 . S
C1010 C1011 1.400 . S
C1011 C1010 1.400 . S
C1011 C1012 1.398 . S
C1011 C1017 1.491 1_556 S
C1012 H1003 0.950 1_556 S
C1012 C1011 1.398 . S
C1012 C1013 1.391 . S
C1013 H1001 0.950 . S
C1013 C1009 1.393 . S
C1013 C1012 1.391 . S
C1014 H1004 0.950 . S
C1014 C1015 1.386 . S
C1014 C1016 1.391 . S
C1015 C1014 1.386 . S
C1015 C1019 1.393 . S
C1016 H1005 0.950 . S
C1016 C1014 1.391 . S
C1016 C1017 1.400 . S
C1017 C1011 1.491 1_554 S
C1017 C1016 1.400 . S
C1017 C1018 1.398 . S
C1018 H1006 0.950 1_554 S
C1018 C1017 1.398 . S
C1018 C1019 1.391 . S
C1019 H1007 0.950 . S
C1019 C1015 1.393 . S
C1019 C1018 1.391 . S
H1020 C1028 0.950 . S
H1021 C1033 0.950 . S
H1022 C1030 0.950 . S
H1023 C1032 0.950 1_455 S
H1024 C1034 0.950 . S
H1025 C1036 0.950 . S
H1026 C1038 0.950 1_655 S
H1027 C1039 0.950 . S
C1028 H1020 0.950 . S
C1028 C1029 1.386 . S
C1028 C1030 1.391 . S
C1029 C1028 1.386 . S
C1029 C1033 1.393 1_545 S
C1030 H1022 0.950 . S
C1030 C1028 1.391 . S
C1030 C1031 1.418 . S
C1031 C1030 1.418 . S
C1031 C1032 1.381 1_545 S
C1031 C1037 1.490 1_644 S
C1032 H1023 0.950 1_655 S
C1032 C1031 1.381 1_565 S
C1032 C1033 1.391 . S
C1033 H1021 0.950 . S
C1033 C1029 1.393 1_565 S
C1033 C1032 1.391 . S
C1034 H1024 0.950 . S
C1034 C1035 1.386 . S
C1034 C1036 1.391 . S
C1035 C1034 1.386 . S
C1035 C1039 1.393 1_565 S
C1036 H1025 0.950 . S
C1036 C1034 1.391 . S
C1036 C1037 1.409 . S
C1037 C1031 1.490 1_466 S
C1037 C1036 1.409 . S
C1037 C1038 1.390 1_565 S
C1038 H1026 0.950 1_455 S
C1038 C1037 1.390 1_545 S
C1038 C1039 1.391 . S
C1039 H1027 0.950 . S
C1039 C1035 1.393 1_545 S
C1039 C1038 1.391 . S
H1040 C1048 0.950 . S
H1041 C1053 0.950 . S
H1042 C1050 0.950 . S
H1043 C1052 0.950 . S
H1044 C1054 0.950 . S
H1045 C1056 0.950 . S
H1046 C1058 0.950 . S
H1047 C1059 0.950 . S
C1048 H1040 0.950 . S
C1048 C1049 1.386 1_545 S
C1048 C1050 1.391 . S
C1049 C1048 1.386 1_565 S
C1049 C1053 1.393 . S
C1050 H1042 0.950 . S
C1050 C1048 1.391 . S
C1050 C1051 1.383 1_545 S
C1051 C1050 1.383 1_565 S
C1051 C1052 1.418 . S
C1051 C1057 1.489 1_565 S
C1052 H1043 0.950 . S
C1052 C1051 1.418 . S
C1052 C1053 1.391 . S
C1053 H1041 0.950 . S
C1053 C1049 1.393 . S
C1053 C1052 1.391 . S
C1054 H1044 0.950 . S
C1054 C1055 1.386 1_565 S
C1054 C1056 1.391 . S
C1055 C1054 1.386 1_545 S
C1055 C1059 1.393 . S
C1056 H1045 0.950 . S
C1056 C1054 1.391 . S
C1056 C1057 1.389 1_565 S
C1057 C1051 1.489 1_545 S
C1057 C1056 1.389 1_545 S
C1057 C1058 1.412 . S
C1058 H1046 0.950 . S
C1058 C1057 1.412 . S
C1058 C1059 1.391 . S
C1059 H1047 0.950 . S
C1059 C1055 1.393 . S
C1059 C1058 1.391 . S
H1060 C1068 0.950 . S
H1061 C1073 0.950 . S
H1062 C1070 0.950 . S
H1063 C1072 0.950 . S
H1064 C1074 0.950 . S
H1065 C1076 0.950 . S
H1066 C1078 0.950 . S
H1067 C1079 0.950 . S
C1068 H1060 0.950 . S
C1068 C1069 1.386 . S
C1068 C1070 1.391 1_455 S
C1069 C1068 1.386 . S
C1069 C1073 1.393 . S
C1070 H1062 0.950 . S
C1070 C1068 1.391 1_655 S
C1070 C1071 1.400 1_655 S
C1071 C1070 1.400 1_455 S
C1071 C1072 1.398 . S
C1071 C1077 1.491 1_455 S
C1072 H1063 0.950 . S
C1072 C1071 1.398 . S
C1072 C1073 1.391 . S
C1073 H1061 0.950 . S
C1073 C1069 1.393 . S
C1073 C1072 1.391 . S
C1074 H1064 0.950 . S
C1074 C1075 1.386 . S
C1074 C1076 1.391 1_655 S
C1075 C1074 1.386 . S
C1075 C1079 1.393 . S
C1076 H1065 0.950 . S
C1076 C1074 1.391 1_455 S
C1076 C1077 1.400 1_455 S
C1077 C1071 1.491 1_655 S
C1077 C1076 1.400 1_655 S
C1077 C1078 1.398 . S
C1078 H1066 0.950 . S
C1078 C1077 1.398 . S
C1078 C1079 1.391 . S
C1079 H1067 0.950 . S
C1079 C1075 1.393 . S
C1079 C1078 1.391 . S
H1080 C1088 0.950 . S
H1081 C1093 0.950 . S
H1082 C1090 0.950 . S
H1083 C1092 0.950 . S
H1084 C1094 0.950 . S
H1085 C1096 0.950 . S
H1086 C1098 0.950 . S
H1087 C1099 0.950 . S
C1088 H1080 0.950 . S
C1088 C1089 1.386 . S
C1088 C1090 1.391 . S
C1089 C1088 1.386 . S
C1089 C1093 1.393 . S
C1090 H1082 0.950 . S
C1090 C1088 1.391 . S
C1090 C1091 1.400 . S
C1091 C1090 1.400 . S
C1091 C1092 1.398 . S
C1091 C1097 1.491 1_556 S
C1092 H1083 0.950 . S
C1092 C1091 1.398 . S
C1092 C1093 1.391 . S
C1093 H1081 0.950 . S
C1093 C1089 1.393 . S
C1093 C1092 1.391 . S
C1094 H1084 0.950 . S
C1094 C1095 1.386 . S
C1094 C1096 1.391 . S
C1095 C1094 1.386 . S
C1095 C1099 1.393 . S
C1096 H1085 0.950 . S
C1096 C1094 1.391 . S
C1096 C1097 1.400 . S
C1097 C1091 1.491 1_554 S
C1097 C1096 1.400 . S
C1097 C1098 1.398 . S
C1098 H1086 0.950 . S
C1098 C1097 1.398 . S
C1098 C1099 1.391 . S
C1099 H1087 0.950 . S
C1099 C1095 1.393 . S
C1099 C1098 1.391 . S
H1100 C1108 0.950 . S
H1101 C1113 0.950 . S
H1102 C1110 0.950 . S
H1103 C1112 0.950 . S
H1104 C1114 0.950 . S
H1105 C1116 0.950 . S
H1106 C1118 0.950 . S
H1107 C1119 0.950 . S
C1108 H1100 0.950 . S
C1108 C1109 1.386 . S
C1108 C1110 1.391 . S
C1109 C1108 1.386 . S
C1109 C1113 1.393 . S
C1110 H1102 0.950 . S
C1110 C1108 1.391 . S
C1110 C1111 1.400 . S
C1111 C1110 1.400 . S
C1111 C1112 1.398 . S
C1111 C1117 1.491 . S
C1112 H1103 0.950 . S
C1112 C1111 1.398 . S
C1112 C1113 1.391 . S
C1113 H1101 0.950 . S
C1113 C1109 1.393 . S
C1113 C1112 1.391 . S
C1114 H1104 0.950 . S
C1114 C1115 1.386 . S
C1114 C1116 1.391 . S
C1115 C1114 1.386 . S
C1115 C1119 1.393 . S
C1116 H1105 0.950 . S
C1116 C1114 1.391 . S
C1116 C1117 1.400 . S
C1117 C1111 1.491 . S
C1117 C1116 1.400 . S
C1117 C1118 1.398 . S
C1118 H1106 0.950 . S
C1118 C1117 1.398 . S
C1118 C1119 1.391 . S
C1119 H1107 0.950 . S
C1119 C1115 1.393 . S
C1119 C1118 1.391 . S
H1120 C1128 0.950 . S
H1121 C1133 0.950 . S
H1122 C1130 0.950 . S
H1123 C1132 0.950 . S
H1124 C1134 0.950 . S
H1125 C1136 0.950 . S
H1126 C1138 0.950 . S
H1127 C1139 0.950 . S
C1128 H1120 0.950 . S
C1128 C1129 1.386 . S
C1128 C1130 1.391 . S
C1129 C1128 1.386 . S
C1129 C1133 1.393 . S
C1130 H1122 0.950 . S
C1130 C1128 1.391 . S
C1130 C1131 1.400 . S
C1131 C1130 1.400 . S
C1131 C1132 1.398 . S
C1131 C1137 1.491 . S
C1132 H1123 0.950 . S
C1132 C1131 1.398 . S
C1132 C1133 1.391 . S
C1133 H1121 0.950 . S
C1133 C1129 1.393 . S
C1133 C1132 1.391 . S
C1134 H1124 0.950 . S
C1134 C1135 1.386 . S
C1134 C1136 1.391 . S
C1135 C1134 1.386 . S
C1135 C1139 1.393 . S
C1136 H1125 0.950 . S
C1136 C1134 1.391 . S
C1136 C1137 1.400 . S
C1137 C1131 1.491 . S
C1137 C1136 1.400 . S
C1137 C1138 1.398 . S
C1138 H1126 0.950 . S
C1138 C1137 1.398 . S
C1138 C1139 1.391 . S
C1139 H1127 0.950 . S
C1139 C1135 1.393 . S
C1139 C1138 1.391 . S
H1140 C1148 0.950 . S
H1141 C1153 0.950 . S
H1142 C1150 0.950 . S
H1143 C1152 0.952 1_655 S
H1144 C1154 0.950 . S
H1145 C1156 0.950 . S
H1146 C1158 0.952 1_455 S
H1147 C1159 0.950 . S
C1148 H1140 0.950 . S
C1148 C1149 1.386 . S
C1148 C1150 1.391 . S
C1149 C1148 1.386 . S
C1149 C1153 1.393 . S
C1150 H1142 0.950 . S
C1150 C1148 1.391 . S
C1150 C1151 1.400 . S
C1151 C1150 1.400 . S
C1151 C1152 1.398 . S
C1151 C1157 1.491 1_455 S
C1152 H1143 0.952 1_455 S
C1152 C1151 1.398 . S
C1152 C1153 1.389 . S
C1153 H1141 0.950 . S
C1153 C1149 1.393 . S
C1153 C1152 1.389 . S
C1154 H1144 0.950 . S
C1154 C1155 1.386 . S
C1154 C1156 1.391 . S
C1155 C1154 1.386 . S
C1155 C1159 1.393 . S
C1156 H1145 0.950 . S
C1156 C1154 1.391 . S
C1156 C1157 1.400 . S
C1157 C1151 1.491 1_655 S
C1157 C1156 1.400 . S
C1157 C1158 1.398 . S
C1158 H1146 0.952 1_655 S
C1158 C1157 1.398 . S
C1158 C1159 1.389 . S
C1159 H1147 0.950 . S
C1159 C1155 1.393 . S
C1159 C1158 1.389 . S
H1160 C1168 0.950 . S
H1161 C1173 0.950 . S
H1162 C1170 0.950 . S
H1163 C1172 0.950 . S
H1164 C1174 0.950 . S
H1165 C1176 0.950 . S
H1166 C1178 0.950 . S
H1167 C1179 0.950 . S
C1168 H1160 0.950 . S
C1168 C1169 1.386 . S
C1168 C1170 1.391 . S
C1169 C1168 1.386 . S
C1169 C1173 1.393 . S
C1170 H1162 0.950 . S
C1170 C1168 1.391 . S
C1170 C1171 1.400 . S
C1171 C1170 1.400 . S
C1171 C1172 1.398 . S
C1171 C1177 1.491 . S
C1172 H1163 0.950 . S
C1172 C1171 1.398 . S
C1172 C1173 1.391 . S
C1173 H1161 0.950 . S
C1173 C1169 1.393 . S
C1173 C1172 1.391 . S
C1174 H1164 0.950 . S
C1174 C1175 1.386 . S
C1174 C1176 1.391 . S
C1175 C1174 1.386 . S
C1175 C1179 1.393 . S
C1176 H1165 0.950 . S
C1176 C1174 1.391 . S
C1176 C1177 1.400 . S
C1177 C1171 1.491 . S
C1177 C1176 1.400 . S
C1177 C1178 1.398 . S
C1178 H1166 0.950 . S
C1178 C1177 1.398 . S
C1178 C1179 1.391 . S
C1179 H1167 0.950 . S
C1179 C1175 1.393 . S
C1179 C1178 1.391 . S
H1180 C1188 0.950 . S
H1181 C1193 0.950 . S
H1182 C1190 0.950 . S
H1183 C1192 0.950 . S
H1184 C1194 0.950 . S
H1185 C1196 0.950 . S
H1186 C1198 0.950 . S
H1187 C1199 0.950 . S
C1188 H1180 0.950 . S
C1188 C1189 1.386 . S
C1188 C1190 1.391 . S
C1189 C1188 1.386 . S
C1189 C1193 1.393 . S
C1190 H1182 0.950 . S
C1190 C1188 1.391 . S
C1190 C1191 1.400 . S
C1191 C1190 1.400 . S
C1191 C1192 1.398 . S
C1191 C1197 1.491 . S
C1192 H1183 0.950 . S
C1192 C1191 1.398 . S
C1192 C1193 1.391 . S
C1193 H1181 0.950 . S
C1193 C1189 1.393 . S
C1193 C1192 1.391 . S
C1194 H1184 0.950 . S
C1194 C1195 1.386 . S
C1194 C1196 1.391 . S
C1195 C1194 1.386 . S
C1195 C1199 1.393 . S
C1196 H1185 0.950 . S
C1196 C1194 1.391 . S
C1196 C1197 1.400 . S
C1197 C1191 1.491 . S
C1197 C1196 1.400 . S
C1197 C1198 1.398 . S
C1198 H1186 0.950 . S
C1198 C1197 1.398 . S
C1198 C1199 1.391 . S
C1199 H1187 0.950 . S
C1199 C1195 1.393 . S
C1199 C1198 1.391 . S
H1200 C1208 0.950 . S
H1201 C1213 0.950 . S
H1202 C1210 0.950 . S
H1203 C1212 0.950 . S
H1204 C1214 0.950 . S
H1205 C1216 0.950 . S
H1206 C1218 0.950 . S
H1207 C1219 0.950 . S
C1208 H1200 0.950 . S
C1208 C1209 1.386 . S
C1208 C1210 1.391 . S
C1209 C1208 1.386 . S
C1209 C1213 1.393 . S
C1210 H1202 0.950 . S
C1210 C1208 1.391 . S
C1210 C1211 1.400 . S
C1211 C1210 1.400 . S
C1211 C1212 1.398 . S
C1211 C1217 1.491 . S
C1212 H1203 0.950 . S
C1212 C1211 1.398 . S
C1212 C1213 1.391 . S
C1213 H1201 0.950 . S
C1213 C1209 1.393 . S
C1213 C1212 1.391 . S
C1214 H1204 0.950 . S
C1214 C1215 1.386 . S
C1214 C1216 1.391 . S
C1215 C1214 1.386 . S
C1215 C1219 1.393 . S
C1216 H1205 0.950 . S
C1216 C1214 1.391 . S
C1216 C1217 1.400 . S
C1217 C1211 1.491 . S
C1217 C1216 1.400 . S
C1217 C1218 1.398 . S
C1218 H1206 0.950 . S
C1218 C1217 1.398 . S
C1218 C1219 1.391 . S
C1219 H1207 0.950 . S
C1219 C1215 1.393 . S
C1219 C1218 1.391 . S
H1220 C1228 0.950 . S
H1221 C1233 0.952 . S
H1222 C1230 0.950 . S
H1223 C1232 0.950 . S
H1224 C1234 0.950 . S
H1225 C1236 0.950 . S
H1226 C1238 0.950 . S
H1227 C1239 0.949 . S
C1228 H1220 0.950 . S
C1228 C1229 1.386 . S
C1228 C1230 1.391 . S
C1229 C1228 1.386 . S
C1229 C1233 1.393 . S
C1230 H1222 0.950 . S
C1230 C1228 1.391 . S
C1230 C1231 1.403 . S
C1231 C1230 1.403 . S
C1231 C1232 1.398 . S
C1231 C1237 1.488 1_545 S
C1232 H1223 0.950 . S
C1232 C1231 1.398 . S
C1232 C1233 1.392 . S
C1233 H1221 0.952 . S
C1233 C1229 1.393 . S
C1233 C1232 1.392 . S
C1234 H1224 0.950 . S
C1234 C1235 1.386 . S
C1234 C1236 1.391 . S
C1235 C1234 1.386 . S
C1235 C1239 1.396 . S
C1236 H1225 0.950 . S
C1236 C1234 1.391 . S
C1236 C1237 1.402 . S
C1237 C1231 1.488 1_565 S
C1237 C1236 1.402 . S
C1237 C1238 1.398 . S
C1238 H1226 0.950 . S
C1238 C1237 1.398 . S
C1238 C1239 1.391 . S
C1239 H1227 0.949 . S
C1239 C1235 1.396 . S
C1239 C1238 1.391 . S
H1240 C1248 0.950 . S
H1241 C1253 0.950 . S
H1242 C1250 0.950 . S
H1243 C1252 0.950 . S
H1244 C1254 0.950 . S
H1245 C1256 0.950 . S
H1246 C1258 0.950 . S
H1247 C1259 0.950 . S
C1248 H1240 0.950 . S
C1248 C1249 1.386 . S
C1248 C1250 1.391 . S
C1249 C1248 1.386 . S
C1249 C1253 1.393 . S
C1250 H1242 0.950 . S
C1250 C1248 1.391 . S
C1250 C1251 1.400 . S
C1251 C1250 1.400 . S
C1251 C1252 1.398 . S
C1251 C1257 1.491 . S
C1252 H1243 0.950 . S
C1252 C1251 1.398 . S
C1252 C1253 1.391 . S
C1253 H1241 0.950 . S
C1253 C1249 1.393 . S
C1253 C1252 1.391 . S
C1254 H1244 0.950 . S
C1254 C1255 1.386 . S
C1254 C1256 1.391 . S
C1255 C1254 1.386 . S
C1255 C1259 1.393 . S
C1256 H1245 0.950 . S
C1256 C1254 1.391 . S
C1256 C1257 1.400 . S
C1257 C1251 1.491 . S
C1257 C1256 1.400 . S
C1257 C1258 1.398 . S
C1258 H1246 0.950 . S
C1258 C1257 1.398 . S
C1258 C1259 1.391 . S
C1259 H1247 0.950 . S
C1259 C1255 1.393 . S
C1259 C1258 1.391 . S
H1260 C1268 0.950 . S
H1261 C1273 0.950 . S
H1262 C1270 0.950 1_556 S
H1263 C1272 0.950 . S
H1264 C1274 0.950 . S
H1265 C1276 0.950 1_554 S
H1266 C1278 0.950 . S
H1267 C1279 0.950 . S
C1268 H1260 0.950 . S
C1268 C1269 1.386 . S
C1268 C1270 1.391 . S
C1269 C1268 1.386 . S
C1269 C1273 1.393 . S
C1270 H1262 0.950 1_554 S
C1270 C1268 1.391 . S
C1270 C1271 1.400 . S
C1271 C1270 1.400 . S
C1271 C1272 1.398 . S
C1271 C1277 1.491 1_554 S
C1272 H1263 0.950 . S
C1272 C1271 1.398 . S
C1272 C1273 1.391 . S
C1273 H1261 0.950 . S
C1273 C1269 1.393 . S
C1273 C1272 1.391 . S
C1274 H1264 0.950 . S
C1274 C1275 1.386 . S
C1274 C1276 1.391 . S
C1275 C1274 1.386 . S
C1275 C1279 1.393 . S
C1276 H1265 0.950 1_556 S
C1276 C1274 1.391 . S
C1276 C1277 1.400 . S
C1277 C1271 1.491 1_556 S
C1277 C1276 1.400 . S
C1277 C1278 1.398 . S
C1278 H1266 0.950 . S
C1278 C1277 1.398 . S
C1278 C1279 1.391 . S
C1279 H1267 0.950 . S
C1279 C1275 1.393 . S
C1279 C1278 1.391 . S
H1280 C1288 0.950 . S
H1281 C1293 0.950 . S
H1282 C1290 0.950 . S
H1283 C1292 0.950 . S
H1284 C1294 0.950 . S
H1285 C1296 0.950 . S
H1286 C1298 0.950 . S
H1287 C1299 0.950 . S
C1288 H1280 0.950 . S
C1288 C1289 1.386 1_545 S
C1288 C1290 1.391 . S
C1289 C1288 1.386 1_565 S
C1289 C1293 1.393 . S
C1290 H1282 0.950 . S
C1290 C1288 1.391 . S
C1290 C1291 1.400 1_545 S
C1291 C1290 1.400 1_565 S
C1291 C1292 1.398 . S
C1291 C1297 1.491 . S
C1292 H1283 0.950 . S
C1292 C1291 1.398 . S
C1292 C1293 1.391 . S
C1293 H1281 0.950 . S
C1293 C1289 1.393 . S
C1293 C1292 1.391 . S
C1294 H1284 0.950 . S
C1294 C1295 1.386 . S
C1294 C1296 1.391 . S
C1295 C1294 1.386 . S
C1295 C1299 1.393 1_565 S
C1296 H1285 0.950 . S
C1296 C1294 1.391 . S
C1296 C1297 1.400 . S
C1297 C1291 1.491 . S
C1297 C1296 1.400 . S
C1297 C1298 1.398 1_565 S
C1298 H1286 0.950 . S
C1298 C1297 1.398 1_545 S
C1298 C1299 1.391 . S
C1299 H1287 0.950 . S
C1299 C1295 1.393 1_545 S
C1299 C1298 1.391 . S
H1300 C1308 0.950 . S
H1301 C1313 0.950 . S
H1302 C1310 0.950 . S
H1303 C1312 0.950 . S
H1304 C1314 0.950 . S
H1305 C1316 0.950 . S
H1306 C1318 0.950 . S
H1307 C1319 0.950 . S
C1308 H1300 0.950 . S
C1308 C1309 1.386 . S
C1308 C1310 1.391 . S
C1309 C1308 1.386 . S
C1309 C1313 1.393 . S
C1310 H1302 0.950 . S
C1310 C1308 1.391 . S
C1310 C1311 1.400 . S
C1311 C1310 1.400 . S
C1311 C1312 1.398 . S
C1311 C1317 1.491 . S
C1312 H1303 0.950 . S
C1312 C1311 1.398 . S
C1312 C1313 1.391 . S
C1313 H1301 0.950 . S
C1313 C1309 1.393 . S
C1313 C1312 1.391 . S
C1314 H1304 0.950 . S
C1314 C1315 1.386 . S
C1314 C1316 1.391 . S
C1315 C1314 1.386 . S
C1315 C1319 1.393 . S
C1316 H1305 0.950 . S
C1316 C1314 1.391 . S
C1316 C1317 1.400 . S
C1317 C1311 1.491 . S
C1317 C1316 1.400 . S
C1317 C1318 1.398 . S
C1318 H1306 0.950 . S
C1318 C1317 1.398 . S
C1318 C1319 1.391 . S
C1319 H1307 0.950 . S
C1319 C1315 1.393 . S
C1319 C1318 1.391 . S
H1320 C1328 0.950 . S
H1321 C1333 0.950 . S
H1322 C1330 0.950 . S
H1323 C1332 0.950 . S
H1324 C1334 0.950 . S
H1325 C1336 0.950 . S
H1326 C1338 0.950 . S
H1327 C1339 0.950 . S
C1328 H1320 0.950 . S
C1328 C1329 1.386 . S
C1328 C1330 1.391 . S
C1329 C1328 1.386 . S
C1329 C1333 1.393 . S
C1330 H1322 0.950 . S
C1330 C1328 1.391 . S
C1330 C1331 1.400 . S
C1331 C1330 1.400 . S
C1331 C1332 1.398 . S
C1331 C1337 1.491 . S
C1332 H1323 0.950 . S
C1332 C1331 1.398 . S
C1332 C1333 1.391 . S
C1333 H1321 0.950 . S
C1333 C1329 1.393 . S
C1333 C1332 1.391 . S
C1334 H1324 0.950 . S
C1334 C1335 1.386 . S
C1334 C1336 1.391 . S
C1335 C1334 1.386 . S
C1335 C1339 1.393 . S
C1336 H1325 0.950 . S
C1336 C1334 1.391 . S
C1336 C1337 1.400 . S
C1337 C1331 1.491 . S
C1337 C1336 1.400 . S
C1337 C1338 1.398 . S
C1338 H1326 0.950 . S
C1338 C1337 1.398 . S
C1338 C1339 1.391 . S
C1339 H1327 0.950 . S
C1339 C1335 1.393 . S
C1339 C1338 1.391 . S
H1340 C1348 0.950 . S
H1341 C1353 0.950 . S
H1342 C1350 0.950 . S
H1343 C1352 0.950 . S
H1344 C1354 0.950 . S
H1345 C1356 0.950 . S
H1346 C1358 0.950 . S
H1347 C1359 0.950 . S
C1348 H1340 0.950 . S
C1348 C1349 1.386 . S
C1348 C1350 1.391 . S
C1349 C1348 1.386 . S
C1349 C1353 1.393 1_565 S
C1350 H1342 0.950 . S
C1350 C1348 1.391 . S
C1350 C1351 1.400 . S
C1351 C1350 1.400 . S
C1351 C1352 1.398 1_565 S
C1351 C1357 1.491 . S
C1352 H1343 0.950 . S
C1352 C1351 1.398 1_545 S
C1352 C1353 1.391 . S
C1353 H1341 0.950 . S
C1353 C1349 1.393 1_545 S
C1353 C1352 1.391 . S
C1354 H1344 0.950 . S
C1354 C1355 1.386 1_545 S
C1354 C1356 1.391 . S
C1355 C1354 1.386 1_565 S
C1355 C1359 1.393 . S
C1356 H1345 0.950 . S
C1356 C1354 1.391 . S
C1356 C1357 1.400 1_545 S
C1357 C1351 1.491 . S
C1357 C1356 1.400 1_565 S
C1357 C1358 1.398 . S
C1358 H1346 0.950 . S
C1358 C1357 1.398 . S
C1358 C1359 1.391 . S
C1359 H1347 0.950 . S
C1359 C1355 1.393 . S
C1359 C1358 1.391 . S
H1360 C1368 0.950 . S
H1361 C1373 0.950 . S
H1362 C1370 0.950 . S
H1363 C1372 0.950 . S
H1364 C1374 0.950 . S
H1365 C1376 0.950 . S
H1366 C1378 0.950 . S
H1367 C1379 0.950 . S
C1368 H1360 0.950 . S
C1368 C1369 1.386 . S
C1368 C1370 1.391 . S
C1369 C1368 1.386 . S
C1369 C1373 1.393 1_545 S
C1370 H1362 0.950 . S
C1370 C1368 1.391 . S
C1370 C1371 1.400 . S
C1371 C1370 1.400 . S
C1371 C1372 1.398 1_545 S
C1371 C1377 1.491 . S
C1372 H1363 0.950 . S
C1372 C1371 1.398 1_565 S
C1372 C1373 1.391 . S
C1373 H1361 0.950 . S
C1373 C1369 1.393 1_565 S
C1373 C1372 1.391 . S
C1374 H1364 0.950 . S
C1374 C1375 1.386 1_565 S
C1374 C1376 1.391 . S
C1375 C1374 1.386 1_545 S
C1375 C1379 1.393 . S
C1376 H1365 0.950 . S
C1376 C1374 1.391 . S
C1376 C1377 1.400 1_565 S
C1377 C1371 1.491 . S
C1377 C1376 1.400 1_545 S
C1377 C1378 1.398 . S
C1378 H1366 0.950 . S
C1378 C1377 1.398 . S
C1378 C1379 1.391 . S
C1379 H1367 0.950 . S
C1379 C1375 1.393 . S
C1379 C1378 1.391 . S
H1380 C1388 0.950 . S
H1381 C1393 0.950 . S
H1382 C1390 0.950 . S
H1383 C1392 0.950 . S
H1384 C1394 0.950 . S
H1385 C1396 0.950 . S
H1386 C1398 0.950 . S
H1387 C1399 0.950 . S
C1388 H1380 0.950 . S
C1388 C1389 1.386 . S
C1388 C1390 1.391 . S
C1389 C1388 1.386 . S
C1389 C1393 1.393 . S
C1390 H1382 0.950 . S
C1390 C1388 1.391 . S
C1390 C1391 1.400 . S
C1391 C1390 1.400 . S
C1391 C1392 1.398 . S
C1391 C1397 1.491 . S
C1392 H1383 0.950 . S
C1392 C1391 1.398 . S
C1392 C1393 1.391 . S
C1393 H1381 0.950 . S
C1393 C1389 1.393 . S
C1393 C1392 1.391 . S
C1394 H1384 0.950 . S
C1394 C1395 1.386 . S
C1394 C1396 1.391 . S
C1395 C1394 1.386 . S
C1395 C1399 1.393 . S
C1396 H1385 0.950 . S
C1396 C1394 1.391 . S
C1396 C1397 1.400 . S
C1397 C1391 1.491 . S
C1397 C1396 1.400 . S
C1397 C1398 1.398 . S
C1398 H1386 0.950 . S
C1398 C1397 1.398 . S
C1398 C1399 1.391 . S
C1399 H1387 0.950 . S
C1399 C1395 1.393 . S
C1399 C1398 1.391 . S
H1400 C1408 0.950 . S
H1401 C1413 0.950 . S
H1402 C1410 0.950 . S
H1403 C1412 0.950 . S
H1404 C1414 0.950 . S
H1405 C1416 0.950 . S
H1406 C1418 0.950 . S
H1407 C1419 0.950 . S
C1408 H1400 0.950 . S
C1408 C1409 1.386 . S
C1408 C1410 1.391 . S
C1409 C1408 1.386 . S
C1409 C1413 1.393 . S
C1410 H1402 0.950 . S
C1410 C1408 1.391 . S
C1410 C1411 1.400 . S
C1411 C1410 1.400 . S
C1411 C1412 1.398 . S
C1411 C1417 1.491 . S
C1412 H1403 0.950 . S
C1412 C1411 1.398 . S
C1412 C1413 1.391 . S
C1413 H1401 0.950 . S
C1413 C1409 1.393 . S
C1413 C1412 1.391 . S
C1414 H1404 0.950 . S
C1414 C1415 1.386 . S
C1414 C1416 1.391 . S
C1415 C1414 1.386 . S
C1415 C1419 1.393 . S
C1416 H1405 0.950 . S
C1416 C1414 1.391 . S
C1416 C1417 1.400 . S
C1417 C1411 1.491 . S
C1417 C1416 1.400 . S
C1417 C1418 1.398 . S
C1418 H1406 0.950 . S
C1418 C1417 1.398 . S
C1418 C1419 1.391 . S
C1419 H1407 0.950 . S
C1419 C1415 1.393 . S
C1419 C1418 1.391 . S
H1420 C1428 0.950 . S
H1421 C1433 0.950 . S
H1422 C1430 0.950 . S
H1423 C1432 0.950 . S
H1424 C1434 0.950 . S
H1425 C1436 0.950 . S
H1426 C1438 0.950 . S
H1427 C1439 0.950 . S
C1428 H1420 0.950 . S
C1428 C1429 1.386 1_565 S
C1428 C1430 1.391 . S
C1429 C1428 1.386 1_545 S
C1429 C1433 1.393 . S
C1430 H1422 0.950 . S
C1430 C1428 1.391 . S
C1430 C1431 1.400 1_565 S
C1431 C1430 1.400 1_545 S
C1431 C1432 1.398 . S
C1431 C1437 1.491 . S
C1432 H1423 0.950 . S
C1432 C1431 1.398 . S
C1432 C1433 1.391 . S
C1433 H1421 0.950 . S
C1433 C1429 1.393 . S
C1433 C1432 1.391 . S
C1434 H1424 0.950 . S
C1434 C1435 1.386 . S
C1434 C1436 1.391 . S
C1435 C1434 1.386 . S
C1435 C1439 1.393 1_545 S
C1436 H1425 0.950 . S
C1436 C1434 1.391 . S
C1436 C1437 1.400 . S
C1437 C1431 1.491 . S
C1437 C1436 1.400 . S
C1437 C1438 1.398 1_545 S
C1438 H1426 0.950 . S
C1438 C1437 1.398 1_565 S
C1438 C1439 1.391 . S
C1439 H1427 0.950 . S
C1439 C1435 1.393 1_565 S
C1439 C1438 1.391 . S
H1440 C1448 0.950 . S
H1441 C1453 0.950 . S
H1442 C1450 0.950 . S
H1443 C1452 0.950 . S
H1444 C1454 0.950 . S
H1445 C1456 0.950 . S
H1446 C1458 0.950 . S
H1447 C1459 0.950 . S
C1448 H1440 0.950 . S
C1448 C1449 1.386 . S
C1448 C1450 1.391 . S
C1449 C1448 1.386 . S
C1449 C1453 1.393 . S
C1450 H1442 0.950 . S
C1450 C1448 1.391 . S
C1450 C1451 1.400 . S
C1451 C1450 1.400 . S
C1451 C1452 1.398 . S
C1451 C1457 1.491 . S
C1452 H1443 0.950 . S
C1452 C1451 1.398 . S
C1452 C1453 1.391 . S
C1453 H1441 0.950 . S
C1453 C1449 1.393 . S
C1453 C1452 1.391 . S
C1454 H1444 0.950 . S
C1454 C1455 1.386 . S
C1454 C1456 1.391 . S
C1455 C1454 1.386 . S
C1455 C1459 1.393 . S
C1456 H1445 0.950 . S
C1456 C1454 1.391 . S
C1456 C1457 1.400 . S
C1457 C1451 1.491 . S
C1457 C1456 1.400 . S
C1457 C1458 1.398 . S
C1458 H1446 0.950 . S
C1458 C1457 1.398 . S
C1458 C1459 1.391 . S
C1459 H1447 0.950 . S
C1459 C1455 1.393 . S
C1459 C1458 1.391 . S
H1460 C1468 0.950 . S
H1461 C1473 0.950 . S
H1462 C1470 0.950 . S
H1463 C1472 0.950 . S
H1464 C1474 0.950 . S
H1465 C1476 0.950 . S
H1466 C1478 0.950 . S
H1467 C1479 0.950 . S
C1468 H1460 0.950 . S
C1468 C1469 1.386 . S
C1468 C1470 1.391 . S
C1469 C1468 1.386 . S
C1469 C1473 1.393 . S
C1470 H1462 0.950 . S
C1470 C1468 1.391 . S
C1470 C1471 1.400 . S
C1471 C1470 1.400 . S
C1471 C1472 1.398 . S
C1471 C1477 1.491 . S
C1472 H1463 0.950 . S
C1472 C1471 1.398 . S
C1472 C1473 1.391 . S
C1473 H1461 0.950 . S
C1473 C1469 1.393 . S
C1473 C1472 1.391 . S
C1474 H1464 0.950 . S
C1474 C1475 1.386 . S
C1474 C1476 1.391 . S
C1475 C1474 1.386 . S
C1475 C1479 1.393 . S
C1476 H1465 0.950 . S
C1476 C1474 1.391 . S
C1476 C1477 1.400 . S
C1477 C1471 1.491 . S
C1477 C1476 1.400 . S
C1477 C1478 1.398 . S
C1478 H1466 0.950 . S
C1478 C1477 1.398 . S
C1478 C1479 1.391 . S
C1479 H1467 0.950 . S
C1479 C1475 1.393 . S
C1479 C1478 1.391 . S
H1480 C1488 0.950 . S
H1481 C1493 0.950 . S
H1482 C1490 0.950 . S
H1483 C1492 0.950 . S
H1484 C1494 0.950 . S
H1485 C1496 0.950 . S
H1486 C1498 0.950 . S
H1487 C1499 0.950 . S
C1488 H1480 0.950 . S
C1488 C1489 1.386 . S
C1488 C1490 1.391 . S
C1489 C1488 1.386 . S
C1489 C1493 1.393 . S
C1490 H1482 0.950 . S
C1490 C1488 1.391 . S
C1490 C1491 1.400 . S
C1491 C1490 1.400 . S
C1491 C1492 1.398 . S
C1491 C1497 1.491 . S
C1492 H1483 0.950 . S
C1492 C1491 1.398 . S
C1492 C1493 1.391 . S
C1493 H1481 0.950 . S
C1493 C1489 1.393 . S
C1493 C1492 1.391 . S
C1494 H1484 0.950 . S
C1494 C1495 1.386 . S
C1494 C1496 1.391 . S
C1495 C1494 1.386 . S
C1495 C1499 1.393 . S
C1496 H1485 0.950 . S
C1496 C1494 1.391 . S
C1496 C1497 1.400 . S
C1497 C1491 1.491 . S
C1497 C1496 1.400 . S
C1497 C1498 1.398 . S
C1498 H1486 0.950 . S
C1498 C1497 1.398 . S
C1498 C1499 1.391 . S
C1499 H1487 0.950 . S
C1499 C1495 1.393 . S
C1499 C1498 1.391 . S
H1500 C1508 0.950 . S
H1501 C1513 0.950 . S
H1502 C1510 0.950 . S
H1503 C1512 0.950 . S
H1504 C1514 0.950 . S
H1505 C1516 0.950 . S
H1506 C1518 0.950 . S
H1507 C1519 0.950 . S
C1508 H1500 0.950 . S
C1508 C1509 1.386 . S
C1508 C1510 1.391 . S
C1509 C1508 1.386 . S
C1509 C1513 1.393 . S
C1510 H1502 0.950 . S
C1510 C1508 1.391 . S
C1510 C1511 1.400 . S
C1511 C1510 1.400 . S
C1511 C1512 1.398 . S
C1511 C1517 1.491 . S
C1512 H1503 0.950 . S
C1512 C1511 1.398 . S
C1512 C1513 1.391 . S
C1513 H1501 0.950 . S
C1513 C1509 1.393 . S
C1513 C1512 1.391 . S
C1514 H1504 0.950 . S
C1514 C1515 1.386 . S
C1514 C1516 1.391 . S
C1515 C1514 1.386 . S
C1515 C1519 1.393 . S
C1516 H1505 0.950 . S
C1516 C1514 1.391 . S
C1516 C1517 1.400 . S
C1517 C1511 1.491 . S
C1517 C1516 1.400 . S
C1517 C1518 1.398 . S
C1518 H1506 0.950 . S
C1518 C1517 1.398 . S
C1518 C1519 1.391 . S
C1519 H1507 0.950 . S
C1519 C1515 1.393 . S
C1519 C1518 1.391 . S
H1520 C1528 0.950 . S
H1521 C1533 0.950 . S
H1522 C1530 0.950 . S
H1523 C1532 0.950 . S
H1524 C1534 0.950 . S
H1525 C1536 0.950 . S
H1526 C1538 0.950 . S
H1527 C1539 0.950 . S
C1528 H1520 0.950 . S
C1528 C1529 1.386 . S
C1528 C1530 1.391 . S
C1529 C1528 1.386 . S
C1529 C1533 1.393 . S
C1530 H1522 0.950 . S
C1530 C1528 1.391 . S
C1530 C1531 1.400 . S
C1531 C1530 1.400 . S
C1531 C1532 1.398 . S
C1531 C1537 1.491 . S
C1532 H1523 0.950 . S
C1532 C1531 1.398 . S
C1532 C1533 1.391 . S
C1533 H1521 0.950 . S
C1533 C1529 1.393 . S
C1533 C1532 1.391 . S
C1534 H1524 0.950 . S
C1534 C1535 1.386 . S
C1534 C1536 1.391 . S
C1535 C1534 1.386 . S
C1535 C1539 1.393 . S
C1536 H1525 0.950 . S
C1536 C1534 1.391 . S
C1536 C1537 1.400 . S
C1537 C1531 1.491 . S
C1537 C1536 1.400 . S
C1537 C1538 1.398 . S
C1538 H1526 0.950 . S
C1538 C1537 1.398 . S
C1538 C1539 1.391 . S
C1539 H1527 0.950 . S
C1539 C1535 1.393 . S
C1539 C1538 1.391 . S
H1540 C1548 0.950 . S
H1541 C1553 0.950 . S
H1542 C1550 0.950 . S
H1543 C1552 0.950 . S
H1544 C1554 0.950 . S
H1545 C1556 0.950 . S
H1546 C1558 0.950 . S
H1547 C1559 0.950 . S
C1548 H1540 0.950 . S
C1548 C1549 1.386 . S
C1548 C1550 1.391 . S
C1549 C1548 1.386 . S
C1549 C1553 1.393 . S
C1550 H1542 0.950 . S
C1550 C1548 1.391 . S
C1550 C1551 1.400 . S
C1551 C1550 1.400 . S
C1551 C1552 1.398 . S
C1551 C1557 1.491 . S
C1552 H1543 0.950 . S
C1552 C1551 1.398 . S
C1552 C1553 1.391 . S
C1553 H1541 0.950 . S
C1553 C1549 1.393 . S
C1553 C1552 1.391 . S
C1554 H1544 0.950 . S
C1554 C1555 1.386 . S
C1554 C1556 1.391 . S
C1555 C1554 1.386 . S
C1555 C1559 1.393 . S
C1556 H1545 0.950 . S
C1556 C1554 1.391 . S
C1556 C1557 1.400 . S
C1557 C1551 1.491 . S
C1557 C1556 1.400 . S
C1557 C1558 1.398 . S
C1558 H1546 0.950 . S
C1558 C1557 1.398 . S
C1558 C1559 1.391 . S
C1559 H1547 0.950 . S
C1559 C1555 1.393 . S
C1559 C1558 1.391 . S
H1560 C1568 0.950 . S
H1561 C1573 0.950 . S
H1562 C1570 0.950 . S
H1563 C1572 0.950 . S
H1564 C1574 0.950 . S
H1565 C1576 0.950 . S
H1566 C1578 0.950 . S
H1567 C1579 0.950 . S
C1568 H1560 0.950 . S
C1568 C1569 1.386 . S
C1568 C1570 1.391 . S
C1569 C1568 1.386 . S
C1569 C1573 1.393 . S
C1570 H1562 0.950 . S
C1570 C1568 1.391 . S
C1570 C1571 1.400 . S
C1571 C1570 1.400 . S
C1571 C1572 1.398 . S
C1571 C1577 1.491 . S
C1572 H1563 0.950 . S
C1572 C1571 1.398 . S
C1572 C1573 1.391 . S
C1573 H1561 0.950 . S
C1573 C1569 1.393 . S
C1573 C1572 1.391 . S
C1574 H1564 0.950 . S
C1574 C1575 1.386 . S
C1574 C1576 1.391 . S
C1575 C1574 1.386 . S
C1575 C1579 1.393 . S
C1576 H1565 0.950 . S
C1576 C1574 1.391 . S
C1576 C1577 1.400 . S
C1577 C1571 1.491 . S
C1577 C1576 1.400 . S
C1577 C1578 1.398 . S
C1578 H1566 0.950 . S
C1578 C1577 1.398 . S
C1578 C1579 1.391 . S
C1579 H1567 0.950 . S
C1579 C1575 1.393 . S
C1579 C1578 1.391 . S
H1580 C1588 0.950 . S
H1581 C1593 0.950 . S
H1582 C1590 0.950 . S
H1583 C1592 0.950 . S
H1584 C1594 0.950 . S
H1585 C1596 0.950 . S
H1586 C1598 0.950 . S
H1587 C1599 0.950 . S
C1588 H1580 0.950 . S
C1588 C1589 1.386 . S
C1588 C1590 1.391 . S
C1589 C1588 1.386 . S
C1589 C1593 1.393 . S
C1590 H1582 0.950 . S
C1590 C1588 1.391 . S
C1590 C1591 1.400 . S
C1591 C1590 1.400 . S
C1591 C1592 1.398 . S
C1591 C1597 1.491 . S
C1592 H1583 0.950 . S
C1592 C1591 1.398 . S
C1592 C1593 1.391 . S
C1593 H1581 0.950 . S
C1593 C1589 1.393 . S
C1593 C1592 1.391 . S
C1594 H1584 0.950 . S
C1594 C1595 1.386 . S
C1594 C1596 1.391 . S
C1595 C1594 1.386 . S
C1595 C1599 1.393 . S
C1596 H1585 0.950 . S
C1596 C1594 1.391 . S
C1596 C1597 1.400 . S
C1597 C1591 1.491 . S
C1597 C1596 1.400 . S
C1597 C1598 1.398 . S
C1598 H1586 0.950 . S
C1598 C1597 1.398 . S
C1598 C1599 1.391 . S
C1599 H1587 0.950 . S
C1599 C1595 1.393 . S
C1599 C1598 1.391 . S
H1600 C1608 0.950 . S
H1601 C1613 0.950 . S
H1602 C1610 0.950 . S
H1603 C1612 0.950 . S
H1604 C1614 0.950 . S
H1605 C1616 0.950 . S
H1606 C1618 0.950 . S
H1607 C1619 0.950 . S
C1608 H1600 0.950 . S
C1608 C1609 1.386 . S
C1608 C1610 1.391 . S
C1609 C1608 1.386 . S
C1609 C1613 1.393 . S
C1610 H1602 0.950 . S
C1610 C1608 1.391 . S
C1610 C1611 1.400 . S
C1611 C1610 1.400 . S
C1611 C1612 1.398 . S
C1611 C1617 1.491 . S
C1612 H1603 0.950 . S
C1612 C1611 1.398 . S
C1612 C1613 1.391 . S
C1613 H1601 0.950 . S
C1613 C1609 1.393 . S
C1613 C1612 1.391 . S
C1614 H1604 0.950 . S
C1614 C1615 1.386 . S
C1614 C1616 1.391 . S
C1615 C1614 1.386 . S
C1615 C1619 1.393 . S
C1616 H1605 0.950 . S
C1616 C1614 1.391 . S
C1616 C1617 1.400 . S
C1617 C1611 1.491 . S
C1617 C1616 1.400 . S
C1617 C1618 1.398 . S
C1618 H1606 0.950 . S
C1618 C1617 1.398 . S
C1618 C1619 1.391 . S
C1619 H1607 0.950 . S
C1619 C1615 1.393 . S
C1619 C1618 1.391 . S
H1620 C1628 0.950 . S
H1621 C1633 0.950 . S
H1622 C1630 0.950 . S
H1623 C1632 0.950 . S
H1624 C1634 0.950 . S
H1625 C1636 0.950 . S
H1626 C1638 0.950 . S
H1627 C1639 0.950 . S
C1628 H1620 0.950 . S
C1628 C1629 1.386 . S
C1628 C1630 1.391 . S
C1629 C1628 1.386 . S
C1629 C1633 1.393 . S
C1630 H1622 0.950 . S
C1630 C1628 1.391 . S
C1630 C1631 1.400 . S
C1631 C1630 1.400 . S
C1631 C1632 1.398 . S
C1631 C1637 1.491 . S
C1632 H1623 0.950 . S
C1632 C1631 1.398 . S
C1632 C1633 1.391 . S
C1633 H1621 0.950 . S
C1633 C1629 1.393 . S
C1633 C1632 1.391 . S
C1634 H1624 0.950 . S
C1634 C1635 1.386 . S
C1634 C1636 1.391 . S
C1635 C1634 1.386 . S
C1635 C1639 1.393 . S
C1636 H1625 0.950 . S
C1636 C1634 1.391 . S
C1636 C1637 1.400 . S
C1637 C1631 1.491 . S
C1637 C1636 1.400 . S
C1637 C1638 1.398 . S
C1638 H1626 0.950 . S
C1638 C1637 1.398 . S
C1638 C1639 1.391 . S
C1639 H1627 0.950 . S
C1639 C1635 1.393 . S
C1639 C1638 1.391 . S
H1640 C1648 0.950 . S
H1641 C1653 0.950 . S
H1642 C1650 0.950 . S
H1643 C1652 0.950 . S
H1644 C1654 0.950 . S
H1645 C1656 0.950 . S
H1646 C1658 0.950 . S
H1647 C1659 0.950 . S
C1648 H1640 0.950 . S
C1648 C1649 1.386 . S
C1648 C1650 1.391 . S
C1649 C1648 1.386 . S
C1649 C1653 1.393 . S
C1650 H1642 0.950 . S
C1650 C1648 1.391 . S
C1650 C1651 1.400 . S
C1651 C1650 1.400 . S
C1651 C1652 1.398 . S
C1651 C1657 1.491 . S
C1652 H1643 0.950 . S
C1652 C1651 1.398 . S
C1652 C1653 1.391 . S
C1653 H1641 0.950 . S
C1653 C1649 1.393 . S
C1653 C1652 1.391 . S
C1654 H1644 0.950 . S
C1654 C1655 1.386 . S
C1654 C1656 1.391 . S
C1655 C1654 1.386 . S
C1655 C1659 1.393 . S
C1656 H1645 0.950 . S
C1656 C1654 1.391 . S
C1656 C1657 1.400 . S
C1657 C1651 1.491 . S
C1657 C1656 1.400 . S
C1657 C1658 1.398 . S
C1658 H1646 0.950 . S
C1658 C1657 1.398 . S
C1658 C1659 1.391 . S
C1659 H1647 0.950 . S
C1659 C1655 1.393 . S
C1659 C1658 1.391 . S
H1660 C1668 0.950 . S
H1661 C1673 0.950 . S
H1662 C1670 0.950 . S
H1663 C1672 0.950 . S
H1664 C1674 0.950 . S
H1665 C1676 0.950 . S
H1666 C1678 0.950 . S
H1667 C1679 0.950 . S
C1668 H1660 0.950 . S
C1668 C1669 1.386 . S
C1668 C1670 1.391 . S
C1669 C1668 1.386 . S
C1669 C1673 1.393 . S
C1670 H1662 0.950 . S
C1670 C1668 1.391 . S
C1670 C1671 1.400 . S
C1671 C1670 1.400 . S
C1671 C1672 1.398 . S
C1671 C1677 1.491 . S
C1672 H1663 0.950 . S
C1672 C1671 1.398 . S
C1672 C1673 1.391 . S
C1673 H1661 0.950 . S
C1673 C1669 1.393 . S
C1673 C1672 1.391 . S
C1674 H1664 0.950 . S
C1674 C1675 1.386 . S
C1674 C1676 1.391 . S
C1675 C1674 1.386 . S
C1675 C1679 1.393 . S
C1676 H1665 0.950 . S
C1676 C1674 1.391 . S
C1676 C1677 1.400 . S
C1677 C1671 1.491 . S
C1677 C1676 1.400 . S
C1677 C1678 1.398 . S
C1678 H1666 0.950 . S
C1678 C1677 1.398 . S
C1678 C1679 1.391 . S
C1679 H1667 0.950 . S
C1679 C1675 1.393 . S
C1679 C1678 1.391 . S
H1680 C1688 0.950 . S
H1681 C1693 0.950 . S
H1682 C1690 0.950 . S
H1683 C1692 0.950 . S
H1684 C1694 0.950 . S
H1685 C1696 0.950 . S
H1686 C1698 0.950 . S
H1687 C1699 0.950 . S
C1688 H1680 0.950 . S
C1688 C1689 1.386 . S
C1688 C1690 1.391 . S
C1689 C1688 1.386 . S
C1689 C1693 1.393 . S
C1690 H1682 0.950 . S
C1690 C1688 1.391 . S
C1690 C1691 1.400 . S
C1691 C1690 1.400 . S
C1691 C1692 1.398 . S
C1691 C1697 1.491 . S
C1692 H1683 0.950 . S
C1692 C1691 1.398 . S
C1692 C1693 1.391 . S
C1693 H1681 0.950 . S
C1693 C1689 1.393 . S
C1693 C1692 1.391 . S
C1694 H1684 0.950 . S
C1694 C1695 1.386 . S
C1694 C1696 1.391 . S
C1695 C1694 1.386 . S
C1695 C1699 1.393 . S
C1696 H1685 0.950 . S
C1696 C1694 1.391 . S
C1696 C1697 1.400 . S
C1697 C1691 1.491 . S
C1697 C1696 1.400 . S
C1697 C1698 1.398 . S
C1698 H1686 0.950 . S
C1698 C1697 1.398 . S
C1698 C1699 1.391 . S
C1699 H1687 0.950 . S
C1699 C1695 1.393 . S
C1699 C1698 1.391 . S
H1700 C1708 0.950 . S
H1701 C1713 0.950 . S
H1702 C1710 0.950 . S
H1703 C1712 0.950 . S
H1704 C1714 0.950 . S
H1705 C1716 0.950 . S
H1706 C1718 0.950 . S
H1707 C1719 0.950 . S
C1708 H1700 0.950 . S
C1708 C1709 1.386 . S
C1708 C1710 1.391 . S
C1709 C1708 1.386 . S
C1709 C1713 1.393 . S
C1710 H1702 0.950 . S
C1710 C1708 1.391 . S
C1710 C1711 1.400 . S
C1711 C1710 1.400 . S
C1711 C1712 1.398 . S
C1711 C1717 1.491 . S
C1712 H1703 0.950 . S
C1712 C1711 1.398 . S
C1712 C1713 1.391 . S
C1713 H1701 0.950 . S
C1713 C1709 1.393 . S
C1713 C1712 1.391 . S
C1714 H1704 0.950 . S
C1714 C1715 1.386 . S
C1714 C1716 1.391 . S
C1715 C1714 1.386 . S
C1715 C1719 1.393 . S
C1716 H1705 0.950 . S
C1716 C1714 1.391 . S
C1716 C1717 1.400 . S
C1717 C1711 1.491 . S
C1717 C1716 1.400 . S
C1717 C1718 1.398 . S
C1718 H1706 0.950 . S
C1718 C1717 1.398 . S
C1718 C1719 1.391 . S
C1719 H1707 0.950 . S
C1719 C1715 1.393 . S
C1719 C1718 1.391 . S
H1720 C1728 0.950 . S
H1721 C1733 0.950 . S
H1722 C1730 0.950 . S
H1723 C1732 0.950 . S
H1724 C1734 0.950 . S
H1725 C1736 0.950 . S
H1726 C1738 0.950 . S
H1727 C1739 0.950 . S
C1728 H1720 0.950 . S
C1728 C1729 1.386 . S
C1728 C1730 1.391 . S
C1729 C1728 1.386 . S
C1729 C1733 1.393 . S
C1730 H1722 0.950 . S
C1730 C1728 1.391 . S
C1730 C1731 1.400 . S
C1731 C1730 1.400 . S
C1731 C1732 1.398 . S
C1731 C1737 1.491 . S
C1732 H1723 0.950 . S
C1732 C1731 1.398 . S
C1732 C1733 1.391 . S
C1733 H1721 0.950 . S
C1733 C1729 1.393 . S
C1733 C1732 1.391 . S
C1734 H1724 0.950 . S
C1734 C1735 1.386 . S
C1734 C1736 1.391 . S
C1735 C1734 1.386 . S
C1735 C1739 1.393 . S
C1736 H1725 0.950 . S
C1736 C1734 1.391 . S
C1736 C1737 1.400 . S
C1737 C1731 1.491 . S
C1737 C1736 1.400 . S
C1737 C1738 1.398 . S
C1738 H1726 0.950 . S
C1738 C1737 1.398 . S
C1738 C1739 1.391 . S
C1739 H1727 0.950 . S
C1739 C1735 1.393 . S
C1739 C1738 1.391 . S
H1740 C1748 0.950 . S
H1741 C1753 0.950 . S
H1742 C1750 0.950 . S
H1743 C1752 0.950 . S
H1744 C1754 0.950 . S
H1745 C1756 0.950 . S
H1746 C1758 0.950 . S
H1747 C1759 0.950 . S
C1748 H1740 0.950 . S
C1748 C1749 1.386 . S
C1748 C1750 1.391 . S
C1749 C1748 1.386 . S
C1749 C1753 1.393 . S
C1750 H1742 0.950 . S
C1750 C1748 1.391 . S
C1750 C1751 1.400 . S
C1751 C1750 1.400 . S
C1751 C1752 1.398 . S
C1751 C1757 1.491 . S
C1752 H1743 0.950 . S
C1752 C1751 1.398 . S
C1752 C1753 1.391 . S
C1753 H1741 0.950 . S
C1753 C1749 1.393 . S
C1753 C1752 1.391 . S
C1754 H1744 0.950 . S
C1754 C1755 1.386 . S
C1754 C1756 1.391 . S
C1755 C1754 1.386 . S
C1755 C1759 1.393 . S
C1756 H1745 0.950 . S
C1756 C1754 1.391 . S
C1756 C1757 1.400 . S
C1757 C1751 1.491 . S
C1757 C1756 1.400 . S
C1757 C1758 1.398 . S
C1758 H1746 0.950 . S
C1758 C1757 1.398 . S
C1758 C1759 1.391 . S
C1759 H1747 0.950 . S
C1759 C1755 1.393 . S
C1759 C1758 1.391 . S
H1760 C1768 0.950 . S
H1761 C1773 0.950 . S
H1762 C1770 0.950 . S
H1763 C1772 0.950 . S
H1764 C1774 0.950 . S
H1765 C1776 0.950 . S
H1766 C1778 0.950 . S
H1767 C1779 0.950 . S
C1768 H1760 0.950 . S
C1768 C1769 1.386 . S
C1768 C1770 1.391 . S
C1769 C1768 1.386 . S
C1769 C1773 1.393 . S
C1770 H1762 0.950 . S
C1770 C1768 1.391 . S
C1770 C1771 1.400 . S
C1771 C1770 1.400 . S
C1771 C1772 1.398 . S
C1771 C1777 1.491 . S
C1772 H1763 0.950 . S
C1772 C1771 1.398 . S
C1772 C1773 1.391 . S
C1773 H1761 0.950 . S
C1773 C1769 1.393 . S
C1773 C1772 1.391 . S
C1774 H1764 0.950 . S
C1774 C1775 1.386 . S
C1774 C1776 1.391 . S
C1775 C1774 1.386 . S
C1775 C1779 1.393 . S
C1776 H1765 0.950 . S
C1776 C1774 1.391 . S
C1776 C1777 1.400 . S
C1777 C1771 1.491 . S
C1777 C1776 1.400 . S
C1777 C1778 1.398 . S
C1778 H1766 0.950 . S
C1778 C1777 1.398 . S
C1778 C1779 1.391 . S
C1779 H1767 0.950 . S
C1779 C1775 1.393 . S
C1779 C1778 1.391 . S
H1780 C1788 0.950 . S
H1781 C1793 0.950 . S
H1782 C1790 0.950 . S
H1783 C1792 0.950 . S
H1784 C1794 0.950 . S
H1785 C1796 0.950 . S
H1786 C1798 0.950 . S
H1787 C1799 0.950 . S
C1788 H1780 0.950 . S
C1788 C1789 1.386 . S
C1788 C1790 1.391 . S
C1789 C1788 1.386 . S
C1789 C1793 1.393 . S
C1790 H1782 0.950 . S
C1790 C1788 1.391 . S
C1790 C1791 1.400 . S
C1791 C1790 1.400 . S
C1791 C1792 1.398 . S
C1791 C1797 1.491 . S
C1792 H1783 0.950 . S
C1792 C1791 1.398 . S
C1792 C1793 1.391 . S
C1793 H1781 0.950 . S
C1793 C1789 1.393 . S
C1793 C1792 1.391 . S
C1794 H1784 0.950 . S
C1794 C1795 1.386 . S
C1794 C1796 1.391 . S
C1795 C1794 1.386 . S
C1795 C1799 1.393 . S
C1796 H1785 0.950 . S
C1796 C1794 1.391 . S
C1796 C1797 1.400 . S
C1797 C1791 1.491 . S
C1797 C1796 1.400 . S
C1797 C1798 1.398 . S
C1798 H1786 0.950 . S
C1798 C1797 1.398 . S
C1798 C1799 1.391 . S
C1799 H1787 0.950 . S
C1799 C1795 1.393 . S
C1799 C1798 1.391 . S
H1800 C1808 0.950 . S
H1801 C1813 0.950 . S
H1802 C1810 0.950 . S
H1803 C1812 0.950 . S
H1804 C1814 0.950 . S
H1805 C1816 0.950 . S
H1806 C1818 0.950 . S
H1807 C1819 0.950 . S
C1808 H1800 0.950 . S
C1808 C1809 1.386 . S
C1808 C1810 1.391 . S
C1809 C1808 1.386 . S
C1809 C1813 1.393 . S
C1810 H1802 0.950 . S
C1810 C1808 1.391 . S
C1810 C1811 1.400 . S
C1811 C1810 1.400 . S
C1811 C1812 1.398 . S
C1811 C1817 1.491 . S
C1812 H1803 0.950 . S
C1812 C1811 1.398 . S
C1812 C1813 1.391 . S
C1813 H1801 0.950 . S
C1813 C1809 1.393 . S
C1813 C1812 1.391 . S
C1814 H1804 0.950 . S
C1814 C1815 1.386 . S
C1814 C1816 1.391 . S
C1815 C1814 1.386 . S
C1815 C1819 1.393 . S
C1816 H1805 0.950 . S
C1816 C1814 1.391 . S
C1816 C1817 1.400 . S
C1817 C1811 1.491 . S
C1817 C1816 1.400 . S
C1817 C1818 1.398 . S
C1818 H1806 0.950 . S
C1818 C1817 1.398 . S
C1818 C1819 1.391 . S
C1819 H1807 0.950 . S
C1819 C1815 1.393 . S
C1819 C1818 1.391 . S
H1820 C1828 0.950 . S
H1821 C1833 0.950 . S
H1822 C1830 0.950 . S
H1823 C1832 0.950 . S
H1824 C1834 0.950 . S
H1825 C1836 0.950 . S
H1826 C1838 0.950 . S
H1827 C1839 0.950 . S
C1828 H1820 0.950 . S
C1828 C1829 1.386 . S
C1828 C1830 1.391 . S
C1829 C1828 1.386 . S
C1829 C1833 1.393 . S
C1830 H1822 0.950 . S
C1830 C1828 1.391 . S
C1830 C1831 1.400 . S
C1831 C1830 1.400 . S
C1831 C1832 1.398 . S
C1831 C1837 1.491 . S
C1832 H1823 0.950 . S
C1832 C1831 1.398 . S
C1832 C1833 1.391 . S
C1833 H1821 0.950 . S
C1833 C1829 1.393 . S
C1833 C1832 1.391 . S
C1834 H1824 0.950 . S
C1834 C1835 1.386 . S
C1834 C1836 1.391 . S
C1835 C1834 1.386 . S
C1835 C1839 1.393 . S
C1836 H1825 0.950 . S
C1836 C1834 1.391 . S
C1836 C1837 1.400 . S
C1837 C1831 1.491 . S
C1837 C1836 1.400 . S
C1837 C1838 1.398 . S
C1838 H1826 0.950 . S
C1838 C1837 1.398 . S
C1838 C1839 1.391 . S
C1839 H1827 0.950 . S
C1839 C1835 1.393 . S
C1839 C1838 1.391 . S
H1840 C1848 0.950 . S
H1841 C1853 0.950 . S
H1842 C1850 0.950 . S
H1843 C1852 0.950 . S
H1844 C1854 0.950 . S
H1845 C1856 0.950 . S
H1846 C1858 0.950 . S
H1847 C1859 0.950 . S
C1848 H1840 0.950 . S
C1848 C1849 1.386 . S
C1848 C1850 1.391 . S
C1849 C1848 1.386 . S
C1849 C1853 1.393 . S
C1850 H1842 0.950 . S
C1850 C1848 1.391 . S
C1850 C1851 1.400 . S
C1851 C1850 1.400 . S
C1851 C1852 1.398 . S
C1851 C1857 1.491 . S
C1852 H1843 0.950 . S
C1852 C1851 1.398 . S
C1852 C1853 1.391 . S
C1853 H1841 0.950 . S
C1853 C1849 1.393 . S
C1853 C1852 1.391 . S
C1854 H1844 0.950 . S
C1854 C1855 1.386 . S
C1854 C1856 1.391 . S
C1855 C1854 1.386 . S
C1855 C1859 1.393 . S
C1856 H1845 0.950 . S
C1856 C1854 1.391 . S
C1856 C1857 1.400 . S
C1857 C1851 1.491 . S
C1857 C1856 1.400 . S
C1857 C1858 1.398 . S
C1858 H1846 0.950 . S
C1858 C1857 1.398 . S
C1858 C1859 1.391 . S
C1859 H1847 0.950 . S
C1859 C1855 1.393 . S
C1859 C1858 1.391 . S
H1860 C1868 0.950 . S
H1861 C1873 0.950 . S
H1862 C1870 0.950 . S
H1863 C1872 0.950 . S
H1864 C1874 0.950 . S
H1865 C1876 0.950 . S
H1866 C1878 0.950 . S
H1867 C1879 0.950 . S
C1868 H1860 0.950 . S
C1868 C1869 1.386 . S
C1868 C1870 1.391 . S
C1869 C1868 1.386 . S
C1869 C1873 1.393 . S
C1870 H1862 0.950 . S
C1870 C1868 1.391 . S
C1870 C1871 1.400 . S
C1871 C1870 1.400 . S
C1871 C1872 1.398 . S
C1871 C1877 1.491 . S
C1872 H1863 0.950 . S
C1872 C1871 1.398 . S
C1872 C1873 1.391 . S
C1873 H1861 0.950 . S
C1873 C1869 1.393 . S
C1873 C1872 1.391 . S
C1874 H1864 0.950 . S
C1874 C1875 1.386 . S
C1874 C1876 1.391 . S
C1875 C1874 1.386 . S
C1875 C1879 1.393 . S
C1876 H1865 0.950 . S
C1876 C1874 1.391 . S
C1876 C1877 1.400 . S
C1877 C1871 1.491 . S
C1877 C1876 1.400 . S
C1877 C1878 1.398 . S
C1878 H1866 0.950 . S
C1878 C1877 1.398 . S
C1878 C1879 1.391 . S
C1879 H1867 0.950 . S
C1879 C1875 1.393 . S
C1879 C1878 1.391 . S
H1880 C1888 0.950 . S
H1881 C1893 0.950 . S
H1882 C1890 0.950 . S
H1883 C1892 0.950 . S
H1884 C1894 0.950 . S
H1885 C1896 0.950 . S
H1886 C1898 0.950 . S
H1887 C1899 0.950 . S
C1888 H1880 0.950 . S
C1888 C1889 1.386 . S
C1888 C1890 1.391 . S
C1889 C1888 1.386 . S
C1889 C1893 1.393 . S
C1890 H1882 0.950 . S
C1890 C1888 1.391 . S
C1890 C1891 1.400 . S
C1891 C1890 1.400 . S
C1891 C1892 1.398 . S
C1891 C1897 1.491 . S
C1892 H1883 0.950 . S
C1892 C1891 1.398 . S
C1892 C1893 1.391 . S
C1893 H1881 0.950 . S
C1893 C1889 1.393 . S
C1893 C1892 1.391 . S
C1894 H1884 0.950 . S
C1894 C1895 1.386 . S
C1894 C1896 1.391 . S
C1895 C1894 1.386 . S
C1895 C1899 1.393 . S
C1896 H1885 0.950 . S
C1896 C1894 1.391 . S
C1896 C1897 1.400 . S
C1897 C1891 1.491 . S
C1897 C1896 1.400 . S
C1897 C1898 1.398 . S
C1898 H1886 0.950 . S
C1898 C1897 1.398 . S
C1898 C1899 1.391 . S
C1899 H1887 0.950 . S
C1899 C1895 1.393 . S
C1899 C1898 1.391 . S
H1900 C1908 0.950 . S
H1901 C1913 0.950 . S
H1902 C1910 0.950 . S
H1903 C1912 0.950 . S
H1904 C1914 0.950 . S
H1905 C1916 0.950 . S
H1906 C1918 0.950 . S
H1907 C1919 0.950 . S
C1908 H1900 0.950 . S
C1908 C1909 1.386 . S
C1908 C1910 1.391 . S
C1909 C1908 1.386 . S
C1909 C1913 1.393 . S
C1910 H1902 0.950 . S
C1910 C1908 1.391 . S
C1910 C1911 1.400 . S
C1911 C1910 1.400 . S
C1911 C1912 1.398 . S
C1911 C1917 1.491 . S
C1912 H1903 0.950 . S
C1912 C1911 1.398 . S
C1912 C1913 1.391 . S
C1913 H1901 0.950 . S
C1913 C1909 1.393 . S
C1913 C1912 1.391 . S
C1914 H1904 0.950 . S
C1914 C1915 1.386 . S
C1914 C1916 1.391 . S
C1915 C1914 1.386 . S
C1915 C1919 1.393 . S
C1916 H1905 0.950 . S
C1916 C1914 1.391 . S
C1916 C1917 1.400 . S
C1917 C1911 1.491 . S
C1917 C1916 1.400 . S
C1917 C1918 1.398 . S
C1918 H1906 0.950 . S
C1918 C1917 1.398 . S
C1918 C1919 1.391 . S
C1919 H1907 0.950 . S
C1919 C1915 1.393 . S
C1919 C1918 1.391 . S
H1920 C1928 0.950 . S
H1921 C1933 0.950 1_554 S
H1922 C1930 0.950 . S
H1923 C1932 0.950 . S
H1924 C1934 0.950 . S
H1925 C1936 0.950 . S
H1926 C1938 0.950 . S
H1927 C1939 0.950 . S
C1928 H1920 0.950 . S
C1928 C1929 1.386 . S
C1928 C1930 1.391 . S
C1929 C1928 1.386 . S
C1929 C1933 1.393 1_565 S
C1930 H1922 0.950 . S
C1930 C1928 1.391 . S
C1930 C1931 1.400 . S
C1931 C1930 1.400 . S
C1931 C1932 1.398 1_565 S
C1931 C1937 1.491 . S
C1932 H1923 0.950 . S
C1932 C1931 1.398 1_545 S
C1932 C1933 1.391 . S
C1933 H1921 0.950 1_556 S
C1933 C1929 1.393 1_545 S
C1933 C1932 1.391 . S
C1934 H1924 0.950 . S
C1934 C1935 1.386 1_545 S
C1934 C1936 1.391 . S
C1935 C1934 1.386 1_565 S
C1935 C1939 1.393 . S
C1936 H1925 0.950 . S
C1936 C1934 1.391 . S
C1936 C1937 1.400 1_545 S
C1937 C1931 1.491 . S
C1937 C1936 1.400 1_565 S
C1937 C1938 1.398 . S
C1938 H1926 0.950 . S
C1938 C1937 1.398 . S
C1938 C1939 1.391 . S
C1939 H1927 0.950 . S
C1939 C1935 1.393 . S
C1939 C1938 1.391 . S
H1940 C1948 0.950 . S
H1941 C1953 0.950 . S
H1942 C1950 0.950 . S
H1943 C1952 0.950 . S
H1944 C1954 0.950 . S
H1945 C1956 0.950 . S
H1946 C1958 0.950 . S
H1947 C1959 0.971 . S
C1948 H1940 0.950 . S
C1948 C1949 1.386 . S
C1948 C1950 1.391 . S
C1949 C1948 1.386 . S
C1949 C1953 1.393 . S
C1950 H1942 0.950 . S
C1950 C1948 1.391 . S
C1950 C1951 1.400 . S
C1951 C1950 1.400 . S
C1951 C1952 1.398 . S
C1951 C1957 1.491 . S
C1952 H1943 0.950 . S
C1952 C1951 1.398 . S
C1952 C1953 1.391 . S
C1953 H1941 0.950 . S
C1953 C1949 1.393 . S
C1953 C1952 1.391 . S
C1954 H1944 0.950 . S
C1954 C1955 1.386 . S
C1954 C1956 1.391 1_655 S
C1955 C1954 1.386 . S
C1955 C1959 1.384 1_656 S
C1956 H1945 0.950 . S
C1956 C1954 1.391 1_455 S
C1956 C1957 1.400 . S
C1957 C1951 1.491 . S
C1957 C1956 1.400 . S
C1957 C1958 1.398 . S
C1958 H1946 0.950 . S
C1958 C1957 1.398 . S
C1958 C1959 1.379 1_556 S
C1959 H1947 0.971 . S
C1959 C1955 1.384 1_454 S
C1959 C1958 1.379 1_554 S
H1960 C1968 0.950 . S
H1961 C1973 0.950 . S
H1962 C1970 0.950 . S
H1963 C1972 0.950 . S
H1964 C1974 0.950 . S
H1965 C1976 0.950 . S
H1966 C1978 0.950 . S
H1967 C1979 0.950 . S
C1968 H1960 0.950 . S
C1968 C1969 1.386 . S
C1968 C1970 1.391 . S
C1969 C1968 1.386 . S
C1969 C1973 1.393 . S
C1970 H1962 0.950 . S
C1970 C1968 1.391 . S
C1970 C1971 1.400 . S
C1971 C1970 1.400 . S
C1971 C1972 1.398 . S
C1971 C1977 1.491 . S
C1972 H1963 0.950 . S
C1972 C1971 1.398 . S
C1972 C1973 1.391 . S
C1973 H1961 0.950 . S
C1973 C1969 1.393 . S
C1973 C1972 1.391 . S
C1974 H1964 0.950 . S
C1974 C1975 1.386 . S
C1974 C1976 1.391 . S
C1975 C1974 1.386 . S
C1975 C1979 1.393 . S
C1976 H1965 0.950 . S
C1976 C1974 1.391 . S
C1976 C1977 1.400 . S
C1977 C1971 1.491 . S
C1977 C1976 1.400 . S
C1977 C1978 1.398 . S
C1978 H1966 0.950 . S
C1978 C1977 1.398 . S
C1978 C1979 1.391 . S
C1979 H1967 0.950 . S
C1979 C1975 1.393 . S
C1979 C1978 1.391 . S
H1980 C1988 0.950 . S
H1981 C1993 0.944 1_655 S
H1982 C1990 0.950 . S
H1983 C1992 0.950 . S
H1984 C1994 0.950 . S
H1985 C1996 0.950 . S
H1986 C1998 0.950 . S
H1987 C1999 0.950 . S
C1988 H1980 0.950 . S
C1988 C1989 1.386 . S
C1988 C1990 1.391 1_655 S
C1989 C1988 1.386 . S
C1989 C1993 1.393 1_665 S
C1990 H1982 0.950 . S
C1990 C1988 1.391 1_455 S
C1990 C1991 1.400 . S
C1991 C1990 1.400 . S
C1991 C1992 1.398 1_565 S
C1991 C1997 1.491 . S
C1992 H1983 0.950 . S
C1992 C1991 1.398 1_545 S
C1992 C1993 1.391 . S
C1993 H1981 0.944 1_455 S
C1993 C1989 1.393 1_445 S
C1993 C1992 1.391 . S
C1994 H1984 0.950 . S
C1994 C1995 1.386 1_545 S
C1994 C1996 1.391 . S
C1995 C1994 1.386 1_565 S
C1995 C1999 1.393 . S
C1996 H1985 0.950 . S
C1996 C1994 1.391 . S
C1996 C1997 1.400 1_545 S
C1997 C1991 1.491 . S
C1997 C1996 1.400 1_565 S
C1997 C1998 1.398 . S
C1998 H1986 0.950 . S
C1998 C1997 1.398 . S
C1998 C1999 1.391 . S
C1999 H1987 0.950 . S
C1999 C1995 1.393 . S
C1999 C1998 1.391 . S
H2000 C2008 0.950 . S
H2001 C2013 0.950 . S
H2002 C2010 0.950 . S
H2003 C2012 0.950 . S
H2004 C2014 0.979 . S
H2005 C2016 0.950 . S
H2006 C2018 0.950 . S
H2007 C2019 0.950 . S
C2008 H2000 0.950 . S
C2008 C2009 1.386 . S
C2008 C2010 1.391 . S
C2009 C2008 1.386 . S
C2009 C2013 1.393 1_545 S
C2010 H2002 0.950 . S
C2010 C2008 1.391 . S
C2010 C2011 1.400 . S
C2011 C2010 1.400 . S
C2011 C2012 1.398 1_545 S
C2011 C2017 1.491 . S
C2012 H2003 0.950 . S
C2012 C2011 1.398 1_565 S
C2012 C2013 1.391 . S
C2013 H2001 0.950 . S
C2013 C2009 1.393 1_565 S
C2013 C2012 1.391 . S
C2014 H2004 0.979 . S
C2014 C2015 1.373 1_566 S
C2014 C2016 1.376 1_556 S
C2015 C2014 1.373 1_544 S
C2015 C2019 1.393 . S
C2016 H2005 0.950 . S
C2016 C2014 1.376 1_554 S
C2016 C2017 1.400 1_565 S
C2017 C2011 1.491 . S
C2017 C2016 1.400 1_545 S
C2017 C2018 1.398 . S
C2018 H2006 0.950 . S
C2018 C2017 1.398 . S
C2018 C2019 1.391 . S
C2019 H2007 0.950 . S
C2019 C2015 1.393 . S
C2019 C2018 1.391 . S
H2020 C2028 0.950 . S
H2021 C2033 0.950 . S
H2022 C2030 0.950 . S
H2023 C2032 0.950 . S
H2024 C2034 0.950 . S
H2025 C2036 0.950 . S
H2026 C2038 0.950 . S
H2027 C2039 0.950 . S
C2028 H2020 0.950 . S
C2028 C2029 1.386 . S
C2028 C2030 1.391 1_455 S
C2029 C2028 1.386 . S
C2029 C2033 1.393 . S
C2030 H2022 0.950 . S
C2030 C2028 1.391 1_655 S
C2030 C2031 1.400 . S
C2031 C2030 1.400 . S
C2031 C2032 1.398 . S
C2031 C2037 1.491 . S
C2032 H2023 0.950 . S
C2032 C2031 1.398 . S
C2032 C2033 1.391 1_655 S
C2033 H2021 0.950 . S
C2033 C2029 1.393 . S
C2033 C2032 1.391 1_455 S
C2034 H2024 0.950 . S
C2034 C2035 1.386 . S
C2034 C2036 1.391 . S
C2035 C2034 1.386 . S
C2035 C2039 1.393 . S
C2036 H2025 0.950 . S
C2036 C2034 1.391 . S
C2036 C2037 1.400 . S
C2037 C2031 1.491 . S
C2037 C2036 1.400 . S
C2037 C2038 1.398 . S
C2038 H2026 0.950 . S
C2038 C2037 1.398 . S
C2038 C2039 1.391 . S
C2039 H2027 0.950 . S
C2039 C2035 1.393 . S
C2039 C2038 1.391 . S
H2040 C2048 0.950 . S
H2041 C2053 0.950 . S
H2042 C2050 0.950 . S
H2043 C2052 0.950 . S
H2044 C2054 0.950 . S
H2045 C2056 0.950 . S
H2046 C2058 0.950 . S
H2047 C2059 0.950 . S
C2048 H2040 0.950 . S
C2048 C2049 1.386 . S
C2048 C2050 1.391 . S
C2049 C2048 1.386 . S
C2049 C2053 1.393 . S
C2050 H2042 0.950 . S
C2050 C2048 1.391 . S
C2050 C2051 1.400 . S
C2051 C2050 1.400 . S
C2051 C2052 1.398 . S
C2051 C2057 1.491 . S
C2052 H2043 0.950 . S
C2052 C2051 1.398 . S
C2052 C2053 1.391 . S
C2053 H2041 0.950 . S
C2053 C2049 1.393 . S
C2053 C2052 1.391 . S
C2054 H2044 0.950 . S
C2054 C2055 1.386 . S
C2054 C2056 1.391 . S
C2055 C2054 1.386 . S
C2055 C2059 1.393 . S
C2056 H2045 0.950 . S
C2056 C2054 1.391 . S
C2056 C2057 1.400 . S
C2057 C2051 1.491 . S
C2057 C2056 1.400 . S
C2057 C2058 1.398 . S
C2058 H2046 0.950 . S
C2058 C2057 1.398 . S
C2058 C2059 1.391 . S
C2059 H2047 0.950 . S
C2059 C2055 1.393 . S
C2059 C2058 1.391 . S
H2060 C2068 0.950 . S
H2061 C2073 0.950 . S
H2062 C2070 0.950 . S
H2063 C2072 0.950 . S
H2064 C2074 0.950 . S
H2065 C2076 0.950 . S
H2066 C2078 0.950 . S
H2067 C2079 0.950 . S
C2068 H2060 0.950 . S
C2068 C2069 1.386 . S
C2068 C2070 1.391 . S
C2069 C2068 1.386 . S
C2069 C2073 1.393 1_545 S
C2070 H2062 0.950 . S
C2070 C2068 1.391 . S
C2070 C2071 1.400 . S
C2071 C2070 1.400 . S
C2071 C2072 1.398 1_545 S
C2071 C2077 1.491 . S
C2072 H2063 0.950 . S
C2072 C2071 1.398 1_565 S
C2072 C2073 1.391 . S
C2073 H2061 0.950 . S
C2073 C2069 1.393 1_565 S
C2073 C2072 1.391 . S
C2074 H2064 0.950 . S
C2074 C2075 1.386 1_665 S
C2074 C2076 1.391 . S
C2075 C2074 1.386 1_445 S
C2075 C2079 1.393 . S
C2076 H2065 0.950 . S
C2076 C2074 1.391 . S
C2076 C2077 1.400 1_565 S
C2077 C2071 1.491 . S
C2077 C2076 1.400 1_545 S
C2077 C2078 1.398 . S
C2078 H2066 0.950 . S
C2078 C2077 1.398 . S
C2078 C2079 1.391 1_655 S
C2079 H2067 0.950 . S
C2079 C2075 1.393 . S
C2079 C2078 1.391 1_455 S
H2080 C2088 0.950 . S
H2081 C2093 0.950 . S
H2082 C2090 0.950 . S
H2083 C2092 0.950 . S
H2084 C2094 0.950 . S
H2085 C2096 0.950 . S
H2086 C2098 0.950 . S
H2087 C2099 0.950 . S
C2088 H2080 0.950 . S
C2088 C2089 1.386 . S
C2088 C2090 1.391 . S
C2089 C2088 1.386 . S
C2089 C2093 1.393 . S
C2090 H2082 0.950 . S
C2090 C2088 1.391 . S
C2090 C2091 1.400 . S
C2091 C2090 1.400 . S
C2091 C2092 1.398 . S
C2091 C2097 1.491 . S
C2092 H2083 0.950 . S
C2092 C2091 1.398 . S
C2092 C2093 1.391 . S
C2093 H2081 0.950 . S
C2093 C2089 1.393 . S
C2093 C2092 1.391 . S
C2094 H2084 0.950 . S
C2094 C2095 1.386 . S
C2094 C2096 1.391 . S
C2095 C2094 1.386 . S
C2095 C2099 1.393 . S
C2096 H2085 0.950 . S
C2096 C2094 1.391 . S
C2096 C2097 1.400 . S
C2097 C2091 1.491 . S
C2097 C2096 1.400 . S
C2097 C2098 1.398 . S
C2098 H2086 0.950 . S
C2098 C2097 1.398 . S
C2098 C2099 1.391 . S
C2099 H2087 0.950 . S
C2099 C2095 1.393 . S
C2099 C2098 1.391 . S
H2100 C2108 0.950 . S
H2101 C2113 0.950 . S
H2102 C2110 0.950 . S
H2103 C2112 0.950 . S
H2104 C2114 0.950 1_655 S
H2105 C2116 0.950 . S
H2106 C2118 0.950 . S
H2107 C2119 0.950 . S
C2108 H2100 0.950 . S
C2108 C2109 1.386 . S
C2108 C2110 1.391 . S
C2109 C2108 1.386 . S
C2109 C2113 1.393 . S
C2110 H2102 0.950 . S
C2110 C2108 1.391 . S
C2110 C2111 1.400 . S
C2111 C2110 1.400 . S
C2111 C2112 1.398 . S
C2111 C2117 1.491 . S
C2112 H2103 0.950 . S
C2112 C2111 1.398 . S
C2112 C2113 1.391 . S
C2113 H2101 0.950 . S
C2113 C2109 1.393 . S
C2113 C2112 1.391 . S
C2114 H2104 0.950 1_455 S
C2114 C2115 1.386 1_455 S
C2114 C2116 1.391 . S
C2115 C2114 1.386 1_655 S
C2115 C2119 1.393 . S
C2116 H2105 0.950 . S
C2116 C2114 1.391 . S
C2116 C2117 1.400 . S
C2117 C2111 1.491 . S
C2117 C2116 1.400 . S
C2117 C2118 1.398 . S
C2118 H2106 0.950 . S
C2118 C2117 1.398 . S
C2118 C2119 1.391 1_455 S
C2119 H2107 0.950 . S
C2119 C2115 1.393 . S
C2119 C2118 1.391 1_655 S
H2120 C2128 0.950 . S
H2121 C2133 0.950 . S
H2122 C2130 0.950 . S
H2123 C2132 0.950 . S
H2124 C2134 0.950 . S
H2125 C2136 0.950 . S
H2126 C2138 0.950 . S
H2127 C2139 0.950 . S
C2128 H2120 0.950 . S
C2128 C2129 1.386 . S
C2128 C2130 1.391 . S
C2129 C2128 1.386 . S
C2129 C2133 1.393 . S
C2130 H2122 0.950 . S
C2130 C2128 1.391 . S
C2130 C2131 1.400 . S
C2131 C2130 1.400 . S
C2131 C2132 1.398 . S
C2131 C2137 1.491 . S
C2132 H2123 0.950 . S
C2132 C2131 1.398 . S
C2132 C2133 1.391 . S
C2133 H2121 0.950 . S
C2133 C2129 1.393 . S
C2133 C2132 1.391 . S
C2134 H2124 0.950 . S
C2134 C2135 1.386 . S
C2134 C2136 1.391 . S
C2135 C2134 1.386 . S
C2135 C2139 1.393 . S
C2136 H2125 0.950 . S
C2136 C2134 1.391 . S
C2136 C2137 1.400 . S
C2137 C2131 1.491 . S
C2137 C2136 1.400 . S
C2137 C2138 1.398 . S
C2138 H2126 0.950 . S
C2138 C2137 1.398 . S
C2138 C2139 1.391 . S
C2139 H2127 0.950 . S
C2139 C2135 1.393 . S
C2139 C2138 1.391 . S
H2140 C2148 0.950 . S
H2141 C2153 0.950 . S
H2142 C2150 0.950 . S
H2143 C2152 0.950 . S
H2144 C2154 0.950 . S
H2145 C2156 0.950 . S
H2146 C2158 0.950 . S
H2147 C2159 0.950 . S
C2148 H2140 0.950 . S
C2148 C2149 1.386 . S
C2148 C2150 1.391 . S
C2149 C2148 1.386 . S
C2149 C2153 1.393 . S
C2150 H2142 0.950 . S
C2150 C2148 1.391 . S
C2150 C2151 1.400 . S
C2151 C2150 1.400 . S
C2151 C2152 1.398 . S
C2151 C2157 1.491 . S
C2152 H2143 0.950 . S
C2152 C2151 1.398 . S
C2152 C2153 1.391 . S
C2153 H2141 0.950 . S
C2153 C2149 1.393 . S
C2153 C2152 1.391 . S
C2154 H2144 0.950 . S
C2154 C2155 1.386 1_455 S
C2154 C2156 1.391 . S
C2155 C2154 1.386 1_655 S
C2155 C2159 1.393 . S
C2156 H2145 0.950 . S
C2156 C2154 1.391 . S
C2156 C2157 1.400 . S
C2157 C2151 1.491 . S
C2157 C2156 1.400 . S
C2157 C2158 1.398 . S
C2158 H2146 0.950 . S
C2158 C2157 1.398 . S
C2158 C2159 1.391 1_455 S
C2159 H2147 0.950 . S
C2159 C2155 1.393 . S
C2159 C2158 1.391 1_655 S
H2160 C2168 0.950 . S
H2161 C2173 0.950 . S
H2162 C2170 0.950 . S
H2163 C2172 0.950 . S
H2164 C2174 0.950 . S
H2165 C2176 0.950 . S
H2166 C2178 0.950 . S
H2167 C2179 0.950 . S
C2168 H2160 0.950 . S
C2168 C2169 1.386 . S
C2168 C2170 1.391 . S
C2169 C2168 1.386 . S
C2169 C2173 1.393 . S
C2170 H2162 0.950 . S
C2170 C2168 1.391 . S
C2170 C2171 1.400 . S
C2171 C2170 1.400 . S
C2171 C2172 1.398 . S
C2171 C2177 1.491 . S
C2172 H2163 0.950 . S
C2172 C2171 1.398 . S
C2172 C2173 1.391 . S
C2173 H2161 0.950 . S
C2173 C2169 1.393 . S
C2173 C2172 1.391 . S
C2174 H2164 0.950 . S
C2174 C2175 1.386 . S
C2174 C2176 1.391 . S
C2175 C2174 1.386 . S
C2175 C2179 1.393 . S
C2176 H2165 0.950 . S
C2176 C2174 1.391 . S
C2176 C2177 1.400 . S
C2177 C2171 1.491 . S
C2177 C2176 1.400 . S
C2177 C2178 1.398 . S
C2178 H2166 0.950 . S
C2178 C2177 1.398 . S
C2178 C2179 1.391 . S
C2179 H2167 0.950 . S
C2179 C2175 1.393 . S
C2179 C2178 1.391 . S
H2180 C2188 0.950 . S
H2181 C2193 0.950 . S
H2182 C2190 0.950 . S
H2183 C2192 0.950 . S
H2184 C2194 0.950 . S
H2185 C2196 0.950 . S
H2186 C2198 0.950 . S
H2187 C2199 0.950 . S
C2188 H2180 0.950 . S
C2188 C2189 1.386 1_655 S
C2188 C2190 1.391 . S
C2189 C2188 1.386 1_455 S
C2189 C2193 1.393 . S
C2190 H2182 0.950 . S
C2190 C2188 1.391 . S
C2190 C2191 1.400 . S
C2191 C2190 1.400 . S
C2191 C2192 1.398 . S
C2191 C2197 1.491 . S
C2192 H2183 0.950 . S
C2192 C2191 1.398 . S
C2192 C2193 1.391 1_655 S
C2193 H2181 0.950 . S
C2193 C2189 1.393 . S
C2193 C2192 1.391 1_455 S
C2194 H2184 0.950 . S
C2194 C2195 1.386 . S
C2194 C2196 1.391 . S
C2195 C2194 1.386 . S
C2195 C2199 1.393 . S
C2196 H2185 0.950 . S
C2196 C2194 1.391 . S
C2196 C2197 1.400 . S
C2197 C2191 1.491 . S
C2197 C2196 1.400 . S
C2197 C2198 1.398 . S
C2198 H2186 0.950 . S
C2198 C2197 1.398 . S
C2198 C2199 1.391 . S
C2199 H2187 0.950 . S
C2199 C2195 1.393 . S
C2199 C2198 1.391 . S
H2200 C2208 0.950 . S
H2201 C2213 0.950 . S
H2202 C2210 0.950 . S
H2203 C2212 0.950 . S
H2204 C2214 0.950 . S
H2205 C2216 0.950 . S
H2206 C2218 0.950 . S
H2207 C2219 0.950 . S
C2208 H2200 0.950 . S
C2208 C2209 1.386 . S
C2208 C2210 1.391 . S
C2209 C2208 1.386 . S
C2209 C2213 1.393 . S
C2210 H2202 0.950 . S
C2210 C2208 1.391 . S
C2210 C2211 1.400 . S
C2211 C2210 1.400 . S
C2211 C2212 1.398 . S
C2211 C2217 1.491 . S
C2212 H2203 0.950 . S
C2212 C2211 1.398 . S
C2212 C2213 1.391 . S
C2213 H2201 0.950 . S
C2213 C2209 1.393 . S
C2213 C2212 1.391 . S
C2214 H2204 0.950 . S
C2214 C2215 1.386 . S
C2214 C2216 1.391 . S
C2215 C2214 1.386 . S
C2215 C2219 1.393 . S
C2216 H2205 0.950 . S
C2216 C2214 1.391 . S
C2216 C2217 1.400 . S
C2217 C2211 1.491 . S
C2217 C2216 1.400 . S
C2217 C2218 1.398 . S
C2218 H2206 0.950 . S
C2218 C2217 1.398 . S
C2218 C2219 1.391 . S
C2219 H2207 0.950 . S
C2219 C2215 1.393 . S
C2219 C2218 1.391 . S
H2220 C2228 0.950 . S
H2221 C2233 0.950 . S
H2222 C2230 0.950 . S
H2223 C2232 0.950 . S
H2224 C2234 0.950 1_455 S
H2225 C2236 0.950 . S
H2226 C2238 0.950 . S
H2227 C2239 0.950 . S
C2228 H2220 0.950 . S
C2228 C2229 1.386 . S
C2228 C2230 1.391 . S
C2229 C2228 1.386 . S
C2229 C2233 1.393 . S
C2230 H2222 0.950 . S
C2230 C2228 1.391 . S
C2230 C2231 1.400 . S
C2231 C2230 1.400 . S
C2231 C2232 1.398 . S
C2231 C2237 1.491 . S
C2232 H2223 0.950 . S
C2232 C2231 1.398 . S
C2232 C2233 1.391 . S
C2233 H2221 0.950 . S
C2233 C2229 1.393 . S
C2233 C2232 1.391 . S
C2234 H2224 0.950 1_655 S
C2234 C2235 1.386 1_655 S
C2234 C2236 1.391 . S
C2235 C2234 1.386 1_455 S
C2235 C2239 1.393 . S
C2236 H2225 0.950 . S
C2236 C2234 1.391 . S
C2236 C2237 1.400 . S
C2237 C2231 1.491 . S
C2237 C2236 1.400 . S
C2237 C2238 1.398 . S
C2238 H2226 0.950 . S
C2238 C2237 1.398 . S
C2238 C2239 1.391 1_655 S
C2239 H2227 0.950 . S
C2239 C2235 1.393 . S
C2239 C2238 1.391 1_455 S
H2240 C2248 0.950 . S
H2241 C2253 0.950 . S
H2242 C2250 0.950 . S
H2243 C2252 0.950 . S
H2244 C2254 0.950 . S
H2245 C2256 0.950 . S
H2246 C2258 0.950 . S
H2247 C2259 0.950 . S
C2248 H2240 0.950 . S
C2248 C2249 1.386 1_545 S
C2248 C2250 1.391 . S
C2249 C2248 1.386 1_565 S
C2249 C2253 1.393 . S
C2250 H2242 0.950 . S
C2250 C2248 1.391 . S
C2250 C2251 1.400 1_545 S
C2251 C2250 1.400 1_565 S
C2251 C2252 1.398 . S
C2251 C2257 1.491 . S
C2252 H2243 0.950 . S
C2252 C2251 1.398 . S
C2252 C2253 1.391 . S
C2253 H2241 0.950 . S
C2253 C2249 1.393 . S
C2253 C2252 1.391 . S
C2254 H2244 0.950 . S
C2254 C2255 1.386 . S
C2254 C2256 1.391 . S
C2255 C2254 1.386 . S
C2255 C2259 1.393 1_565 S
C2256 H2245 0.950 . S
C2256 C2254 1.391 . S
C2256 C2257 1.400 . S
C2257 C2251 1.491 . S
C2257 C2256 1.400 . S
C2257 C2258 1.398 1_565 S
C2258 H2246 0.950 . S
C2258 C2257 1.398 1_545 S
C2258 C2259 1.391 . S
C2259 H2247 0.950 . S
C2259 C2255 1.393 1_545 S
C2259 C2258 1.391 . S
H2260 C2268 0.950 . S
H2261 C2273 0.950 . S
H2262 C2270 0.950 . S
H2263 C2272 0.950 . S
H2264 C2274 0.950 . S
H2265 C2276 0.950 . S
H2266 C2278 0.950 . S
H2267 C2279 0.950 . S
C2268 H2260 0.950 . S
C2268 C2269 1.386 . S
C2268 C2270 1.391 . S
C2269 C2268 1.386 . S
C2269 C2273 1.393 . S
C2270 H2262 0.950 . S
C2270 C2268 1.391 . S
C2270 C2271 1.400 . S
C2271 C2270 1.400 . S
C2271 C2272 1.398 . S
C2271 C2277 1.491 . S
C2272 H2263 0.950 . S
C2272 C2271 1.398 . S
C2272 C2273 1.391 . S
C2273 H2261 0.950 . S
C2273 C2269 1.393 . S
C2273 C2272 1.391 . S
C2274 H2264 0.950 . S
C2274 C2275 1.386 . S
C2274 C2276 1.391 . S
C2275 C2274 1.386 . S
C2275 C2279 1.393 . S
C2276 H2265 0.950 . S
C2276 C2274 1.391 . S
C2276 C2277 1.400 . S
C2277 C2271 1.491 . S
C2277 C2276 1.400 . S
C2277 C2278 1.398 . S
C2278 H2266 0.950 . S
C2278 C2277 1.398 . S
C2278 C2279 1.391 . S
C2279 H2267 0.950 . S
C2279 C2275 1.393 . S
C2279 C2278 1.391 . S
H2280 C2288 0.950 . S
H2281 C2293 0.950 . S
H2282 C2290 0.950 . S
H2283 C2292 0.950 . S
H2284 C2294 0.950 . S
H2285 C2296 0.950 . S
H2286 C2298 0.950 . S
H2287 C2299 0.950 . S
C2288 H2280 0.950 . S
C2288 C2289 1.386 . S
C2288 C2290 1.391 . S
C2289 C2288 1.386 . S
C2289 C2293 1.393 . S
C2290 H2282 0.950 . S
C2290 C2288 1.391 . S
C2290 C2291 1.400 . S
C2291 C2290 1.400 . S
C2291 C2292 1.398 . S
C2291 C2297 1.491 . S
C2292 H2283 0.950 . S
C2292 C2291 1.398 . S
C2292 C2293 1.391 . S
C2293 H2281 0.950 . S
C2293 C2289 1.393 . S
C2293 C2292 1.391 . S
C2294 H2284 0.950 . S
C2294 C2295 1.386 . S
C2294 C2296 1.391 . S
C2295 C2294 1.386 . S
C2295 C2299 1.393 . S
C2296 H2285 0.950 . S
C2296 C2294 1.391 . S
C2296 C2297 1.400 . S
C2297 C2291 1.491 . S
C2297 C2296 1.400 . S
C2297 C2298 1.398 . S
C2298 H2286 0.950 . S
C2298 C2297 1.398 . S
C2298 C2299 1.391 . S
C2299 H2287 0.950 . S
C2299 C2295 1.393 . S
C2299 C2298 1.391 . S
H2300 C2308 0.950 . S
H2301 C2313 0.950 . S
H2302 C2310 0.950 . S
H2303 C2312 0.950 . S
H2304 C2314 0.950 . S
H2305 C2316 0.950 . S
H2306 C2318 0.950 . S
H2307 C2319 0.950 . S
C2308 H2300 0.950 . S
C2308 C2309 1.386 1_545 S
C2308 C2310 1.391 . S
C2309 C2308 1.386 1_565 S
C2309 C2313 1.393 . S
C2310 H2302 0.950 . S
C2310 C2308 1.391 . S
C2310 C2311 1.400 1_545 S
C2311 C2310 1.400 1_565 S
C2311 C2312 1.398 . S
C2311 C2317 1.491 . S
C2312 H2303 0.950 . S
C2312 C2311 1.398 . S
C2312 C2313 1.391 . S
C2313 H2301 0.950 . S
C2313 C2309 1.393 . S
C2313 C2312 1.391 . S
C2314 H2304 0.950 . S
C2314 C2315 1.386 . S
C2314 C2316 1.391 . S
C2315 C2314 1.386 . S
C2315 C2319 1.393 1_565 S
C2316 H2305 0.950 . S
C2316 C2314 1.391 . S
C2316 C2317 1.400 . S
C2317 C2311 1.491 . S
C2317 C2316 1.400 . S
C2317 C2318 1.398 1_565 S
C2318 H2306 0.950 . S
C2318 C2317 1.398 1_545 S
C2318 C2319 1.391 . S
C2319 H2307 0.950 . S
C2319 C2315 1.393 1_545 S
C2319 C2318 1.391 . S
H2320 C2328 0.950 . S
H2321 C2333 0.950 . S
H2322 C2330 0.950 . S
H2323 C2332 0.950 . S
H2324 C2334 0.950 . S
H2325 C2336 0.950 . S
H2326 C2338 0.950 . S
H2327 C2339 0.950 . S
C2328 H2320 0.950 . S
C2328 C2329 1.386 1_565 S
C2328 C2330 1.391 . S
C2329 C2328 1.386 1_545 S
C2329 C2333 1.393 . S
C2330 H2322 0.950 . S
C2330 C2328 1.391 . S
C2330 C2331 1.400 1_565 S
C2331 C2330 1.400 1_545 S
C2331 C2332 1.398 . S
C2331 C2337 1.491 . S
C2332 H2323 0.950 . S
C2332 C2331 1.398 . S
C2332 C2333 1.391 . S
C2333 H2321 0.950 . S
C2333 C2329 1.393 . S
C2333 C2332 1.391 . S
C2334 H2324 0.950 . S
C2334 C2335 1.386 . S
C2334 C2336 1.391 . S
C2335 C2334 1.386 . S
C2335 C2339 1.393 1_545 S
C2336 H2325 0.950 . S
C2336 C2334 1.391 . S
C2336 C2337 1.400 . S
C2337 C2331 1.491 . S
C2337 C2336 1.400 . S
C2337 C2338 1.398 1_545 S
C2338 H2326 0.950 . S
C2338 C2337 1.398 1_565 S
C2338 C2339 1.391 . S
C2339 H2327 0.950 . S
C2339 C2335 1.393 1_565 S
C2339 C2338 1.391 . S
H2340 C2348 0.950 . S
H2341 C2353 0.950 . S
H2342 C2350 0.950 . S
H2343 C2352 0.950 . S
H2344 C2354 0.950 . S
H2345 C2356 0.950 . S
H2346 C2358 0.950 . S
H2347 C2359 0.950 . S
C2348 H2340 0.950 . S
C2348 C2349 1.386 . S
C2348 C2350 1.391 . S
C2349 C2348 1.386 . S
C2349 C2353 1.393 . S
C2350 H2342 0.950 . S
C2350 C2348 1.391 . S
C2350 C2351 1.400 . S
C2351 C2350 1.400 . S
C2351 C2352 1.398 . S
C2351 C2357 1.491 . S
C2352 H2343 0.950 . S
C2352 C2351 1.398 . S
C2352 C2353 1.391 . S
C2353 H2341 0.950 . S
C2353 C2349 1.393 . S
C2353 C2352 1.391 . S
C2354 H2344 0.950 . S
C2354 C2355 1.386 . S
C2354 C2356 1.391 . S
C2355 C2354 1.386 . S
C2355 C2359 1.393 . S
C2356 H2345 0.950 . S
C2356 C2354 1.391 . S
C2356 C2357 1.400 . S
C2357 C2351 1.491 . S
C2357 C2356 1.400 . S
C2357 C2358 1.398 . S
C2358 H2346 0.950 . S
C2358 C2357 1.398 . S
C2358 C2359 1.391 . S
C2359 H2347 0.950 . S
C2359 C2355 1.393 . S
C2359 C2358 1.391 . S
H2360 C2368 0.950 . S
H2361 C2373 0.950 . S
H2362 C2370 0.950 . S
H2363 C2372 0.950 . S
H2364 C2374 0.950 . S
H2365 C2376 0.950 . S
H2366 C2378 0.950 . S
H2367 C2379 0.950 . S
C2368 H2360 0.950 . S
C2368 C2369 1.386 . S
C2368 C2370 1.391 . S
C2369 C2368 1.386 . S
C2369 C2373 1.393 . S
C2370 H2362 0.950 . S
C2370 C2368 1.391 . S
C2370 C2371 1.400 . S
C2371 C2370 1.400 . S
C2371 C2372 1.398 . S
C2371 C2377 1.491 . S
C2372 H2363 0.950 . S
C2372 C2371 1.398 . S
C2372 C2373 1.391 . S
C2373 H2361 0.950 . S
C2373 C2369 1.393 . S
C2373 C2372 1.391 . S
C2374 H2364 0.950 . S
C2374 C2375 1.386 . S
C2374 C2376 1.391 . S
C2375 C2374 1.386 . S
C2375 C2379 1.393 . S
C2376 H2365 0.950 . S
C2376 C2374 1.391 . S
C2376 C2377 1.400 . S
C2377 C2371 1.491 . S
C2377 C2376 1.400 . S
C2377 C2378 1.398 . S
C2378 H2366 0.950 . S
C2378 C2377 1.398 . S
C2378 C2379 1.391 . S
C2379 H2367 0.950 . S
C2379 C2375 1.393 . S
C2379 C2378 1.391 . S
H2380 C2388 0.950 . S
H2381 C2393 0.950 . S
H2382 C2390 0.950 . S
H2383 C2392 0.950 . S
H2384 C2394 0.950 . S
H2385 C2396 0.950 . S
H2386 C2398 0.950 . S
H2387 C2399 0.950 . S
C2388 H2380 0.950 . S
C2388 C2389 1.386 . S
C2388 C2390 1.391 . S
C2389 C2388 1.386 . S
C2389 C2393 1.393 1_545 S
C2390 H2382 0.950 . S
C2390 C2388 1.391 . S
C2390 C2391 1.400 . S
C2391 C2390 1.400 . S
C2391 C2392 1.398 1_545 S
C2391 C2397 1.491 . S
C2392 H2383 0.950 . S
C2392 C2391 1.398 1_565 S
C2392 C2393 1.391 . S
C2393 H2381 0.950 . S
C2393 C2389 1.393 1_565 S
C2393 C2392 1.391 . S
C2394 H2384 0.950 . S
C2394 C2395 1.386 1_565 S
C2394 C2396 1.391 . S
C2395 C2394 1.386 1_545 S
C2395 C2399 1.393 . S
C2396 H2385 0.950 . S
C2396 C2394 1.391 . S
C2396 C2397 1.400 1_565 S
C2397 C2391 1.491 . S
C2397 C2396 1.400 1_545 S
C2397 C2398 1.398 . S
C2398 H2386 0.950 . S
C2398 C2397 1.398 . S
C2398 C2399 1.391 . S
C2399 H2387 0.950 . S
C2399 C2395 1.393 . S
C2399 C2398 1.391 . S
H2400 C2408 0.950 . S
H2401 C2413 0.950 . S
H2402 C2410 0.950 . S
H2403 C2412 0.950 . S
H2404 C2414 0.950 1_554 S
H2405 C2416 0.950 . S
H2406 C2418 0.950 . S
H2407 C2419 0.950 . S
C2408 H2400 0.950 . S
C2408 C2409 1.386 . S
C2408 C2410 1.391 . S
C2409 C2408 1.386 . S
C2409 C2413 1.393 . S
C2410 H2402 0.950 . S
C2410 C2408 1.391 . S
C2410 C2411 1.400 . S
C2411 C2410 1.400 . S
C2411 C2412 1.398 . S
C2411 C2417 1.491 . S
C2412 H2403 0.950 . S
C2412 C2411 1.398 . S
C2412 C2413 1.391 . S
C2413 H2401 0.950 . S
C2413 C2409 1.393 . S
C2413 C2412 1.391 . S
C2414 H2404 0.950 1_556 S
C2414 C2415 1.386 . S
C2414 C2416 1.391 . S
C2415 C2414 1.386 . S
C2415 C2419 1.393 . S
C2416 H2405 0.950 . S
C2416 C2414 1.391 . S
C2416 C2417 1.400 . S
C2417 C2411 1.491 . S
C2417 C2416 1.400 . S
C2417 C2418 1.398 . S
C2418 H2406 0.950 . S
C2418 C2417 1.398 . S
C2418 C2419 1.391 . S
C2419 H2407 0.950 . S
C2419 C2415 1.393 . S
C2419 C2418 1.391 . S
H2420 C2428 0.950 . S
H2421 C2433 0.950 . S
H2422 C2430 0.950 . S
H2423 C2432 0.950 . S
H2424 C2434 0.950 . S
H2425 C2436 0.950 . S
H2426 C2438 0.950 . S
H2427 C2439 0.950 . S
C2428 H2420 0.950 . S
C2428 C2429 1.386 . S
C2428 C2430 1.391 . S
C2429 C2428 1.386 . S
C2429 C2433 1.393 . S
C2430 H2422 0.950 . S
C2430 C2428 1.391 . S
C2430 C2431 1.400 . S
C2431 C2430 1.400 . S
C2431 C2432 1.398 . S
C2431 C2437 1.491 . S
C2432 H2423 0.950 . S
C2432 C2431 1.398 . S
C2432 C2433 1.391 . S
C2433 H2421 0.950 . S
C2433 C2429 1.393 . S
C2433 C2432 1.391 . S
C2434 H2424 0.950 . S
C2434 C2435 1.386 . S
C2434 C2436 1.391 . S
C2435 C2434 1.386 . S
C2435 C2439 1.393 1_556 S
C2436 H2425 0.950 . S
C2436 C2434 1.391 . S
C2436 C2437 1.400 . S
C2437 C2431 1.491 . S
C2437 C2436 1.400 . S
C2437 C2438 1.398 . S
C2438 H2426 0.950 . S
C2438 C2437 1.398 . S
C2438 C2439 1.391 1_556 S
C2439 H2427 0.950 . S
C2439 C2435 1.393 1_554 S
C2439 C2438 1.391 1_554 S
H2440 C2448 0.950 . S
H2441 C2453 0.950 . S
H2442 C2450 0.950 . S
H2443 C2452 0.950 . S
H2444 C2454 0.950 . S
H2445 C2456 0.950 . S
H2446 C2458 0.950 . S
H2447 C2459 0.950 . S
C2448 H2440 0.950 . S
C2448 C2449 1.386 . S
C2448 C2450 1.391 . S
C2449 C2448 1.386 . S
C2449 C2453 1.393 . S
C2450 H2442 0.950 . S
C2450 C2448 1.391 . S
C2450 C2451 1.400 . S
C2451 C2450 1.400 . S
C2451 C2452 1.398 . S
C2451 C2457 1.491 . S
C2452 H2443 0.950 . S
C2452 C2451 1.398 . S
C2452 C2453 1.391 . S
C2453 H2441 0.950 . S
C2453 C2449 1.393 . S
C2453 C2452 1.391 . S
C2454 H2444 0.950 . S
C2454 C2455 1.386 . S
C2454 C2456 1.391 . S
C2455 C2454 1.386 . S
C2455 C2459 1.393 . S
C2456 H2445 0.950 . S
C2456 C2454 1.391 . S
C2456 C2457 1.400 . S
C2457 C2451 1.491 . S
C2457 C2456 1.400 . S
C2457 C2458 1.398 . S
C2458 H2446 0.950 . S
C2458 C2457 1.398 . S
C2458 C2459 1.391 . S
C2459 H2447 0.950 . S
C2459 C2455 1.393 . S
C2459 C2458 1.391 . S
H2460 C2468 0.950 . S
H2461 C2473 0.950 . S
H2462 C2470 0.950 . S
H2463 C2472 0.950 . S
H2464 C2474 0.950 . S
H2465 C2476 0.950 . S
H2466 C2478 0.950 . S
H2467 C2479 0.950 . S
C2468 H2460 0.950 . S
C2468 C2469 1.386 . S
C2468 C2470 1.391 . S
C2469 C2468 1.386 . S
C2469 C2473 1.393 . S
C2470 H2462 0.950 . S
C2470 C2468 1.391 . S
C2470 C2471 1.400 . S
C2471 C2470 1.400 . S
C2471 C2472 1.398 . S
C2471 C2477 1.491 . S
C2472 H2463 0.950 . S
C2472 C2471 1.398 . S
C2472 C2473 1.391 . S
C2473 H2461 0.950 . S
C2473 C2469 1.393 . S
C2473 C2472 1.391 . S
C2474 H2464 0.950 . S
C2474 C2475 1.386 . S
C2474 C2476 1.391 . S
C2475 C2474 1.386 . S
C2475 C2479 1.393 . S
C2476 H2465 0.950 . S
C2476 C2474 1.391 . S
C2476 C2477 1.400 . S
C2477 C2471 1.491 . S
C2477 C2476 1.400 . S
C2477 C2478 1.398 . S
C2478 H2466 0.950 . S
C2478 C2477 1.398 . S
C2478 C2479 1.391 . S
C2479 H2467 0.950 . S
C2479 C2475 1.393 . S
C2479 C2478 1.391 . S
H2480 C2488 0.950 . S
H2481 C2493 0.950 . S
H2482 C2490 0.950 . S
H2483 C2492 0.950 . S
H2484 C2494 0.950 1_556 S
H2485 C2496 0.950 . S
H2486 C2498 0.950 . S
H2487 C2499 0.950 . S
C2488 H2480 0.950 . S
C2488 C2489 1.386 . S
C2488 C2490 1.391 . S
C2489 C2488 1.386 . S
C2489 C2493 1.393 . S
C2490 H2482 0.950 . S
C2490 C2488 1.391 . S
C2490 C2491 1.400 . S
C2491 C2490 1.400 . S
C2491 C2492 1.398 . S
C2491 C2497 1.491 . S
C2492 H2483 0.950 . S
C2492 C2491 1.398 . S
C2492 C2493 1.391 . S
C2493 H2481 0.950 . S
C2493 C2489 1.393 . S
C2493 C2492 1.391 . S
C2494 H2484 0.950 1_554 S
C2494 C2495 1.386 . S
C2494 C2496 1.391 . S
C2495 C2494 1.386 . S
C2495 C2499 1.393 . S
C2496 H2485 0.950 . S
C2496 C2494 1.391 . S
C2496 C2497 1.400 . S
C2497 C2491 1.491 . S
C2497 C2496 1.400 . S
C2497 C2498 1.398 . S
C2498 H2486 0.950 . S
C2498 C2497 1.398 . S
C2498 C2499 1.391 . S
C2499 H2487 0.950 . S
C2499 C2495 1.393 . S
C2499 C2498 1.391 . S
H2500 C2508 0.950 . S
H2501 C2513 0.950 . S
H2502 C2510 0.950 . S
H2503 C2512 0.950 . S
H2504 C2514 0.950 . S
H2505 C2516 0.950 . S
H2506 C2518 0.950 . S
H2507 C2519 0.979 . S
C2508 H2500 0.950 . S
C2508 C2509 1.386 . S
C2508 C2510 1.391 . S
C2509 C2508 1.386 . S
C2509 C2513 1.393 . S
C2510 H2502 0.950 . S
C2510 C2508 1.391 . S
C2510 C2511 1.400 . S
C2511 C2510 1.400 . S
C2511 C2512 1.398 . S
C2511 C2517 1.491 . S
C2512 H2503 0.950 . S
C2512 C2511 1.398 . S
C2512 C2513 1.391 . S
C2513 H2501 0.950 . S
C2513 C2509 1.393 . S
C2513 C2512 1.391 . S
C2514 H2504 0.950 . S
C2514 C2515 1.386 . S
C2514 C2516 1.391 . S
C2515 C2514 1.386 . S
C2515 C2519 1.380 1_554 S
C2516 H2505 0.950 . S
C2516 C2514 1.391 . S
C2516 C2517 1.400 . S
C2517 C2511 1.491 . S
C2517 C2516 1.400 . S
C2517 C2518 1.398 . S
C2518 H2506 0.950 . S
C2518 C2517 1.398 . S
C2518 C2519 1.375 1_554 S
C2519 H2507 0.979 . S
C2519 C2515 1.380 1_556 S
C2519 C2518 1.375 1_556 S
H2520 C2528 0.950 . S
H2521 C2533 0.950 . S
H2522 C2530 0.950 . S
H2523 C2532 0.950 . S
H2524 C2534 0.950 . S
H2525 C2536 0.950 . S
H2526 C2538 0.950 . S
H2527 C2539 0.950 . S
C2528 H2520 0.950 . S
C2528 C2529 1.386 . S
C2528 C2530 1.391 . S
C2529 C2528 1.386 . S
C2529 C2533 1.393 . S
C2530 H2522 0.950 . S
C2530 C2528 1.391 . S
C2530 C2531 1.400 . S
C2531 C2530 1.400 . S
C2531 C2532 1.398 . S
C2531 C2537 1.491 . S
C2532 H2523 0.950 . S
C2532 C2531 1.398 . S
C2532 C2533 1.391 . S
C2533 H2521 0.950 . S
C2533 C2529 1.393 . S
C2533 C2532 1.391 . S
C2534 H2524 0.950 . S
C2534 C2535 1.386 . S
C2534 C2536 1.391 . S
C2535 C2534 1.386 . S
C2535 C2539 1.393 . S
C2536 H2525 0.950 . S
C2536 C2534 1.391 . S
C2536 C2537 1.400 . S
C2537 C2531 1.491 . S
C2537 C2536 1.400 . S
C2537 C2538 1.398 . S
C2538 H2526 0.950 . S
C2538 C2537 1.398 . S
C2538 C2539 1.391 . S
C2539 H2527 0.950 . S
C2539 C2535 1.393 . S
C2539 C2538 1.391 . S
H2540 C2548 0.950 . S
H2541 C2553 0.950 . S
H2542 C2550 0.950 . S
H2543 C2552 0.950 . S
H2544 C2554 0.950 . S
H2545 C2556 0.950 . S
H2546 C2558 0.950 . S
H2547 C2559 0.950 . S
C2548 H2540 0.950 . S
C2548 C2549 1.386 . S
C2548 C2550 1.391 . S
C2549 C2548 1.386 . S
C2549 C2553 1.393 . S
C2550 H2542 0.950 . S
C2550 C2548 1.391 . S
C2550 C2551 1.400 . S
C2551 C2550 1.400 . S
C2551 C2552 1.398 . S
C2551 C2557 1.491 . S
C2552 H2543 0.950 . S
C2552 C2551 1.398 . S
C2552 C2553 1.391 . S
C2553 H2541 0.950 . S
C2553 C2549 1.393 . S
C2553 C2552 1.391 . S
C2554 H2544 0.950 . S
C2554 C2555 1.386 . S
C2554 C2556 1.391 . S
C2555 C2554 1.386 . S
C2555 C2559 1.393 . S
C2556 H2545 0.950 . S
C2556 C2554 1.391 . S
C2556 C2557 1.400 . S
C2557 C2551 1.491 . S
C2557 C2556 1.400 . S
C2557 C2558 1.398 . S
C2558 H2546 0.950 . S
C2558 C2557 1.398 . S
C2558 C2559 1.391 . S
C2559 H2547 0.950 . S
C2559 C2555 1.393 . S
C2559 C2558 1.391 . S
C649 C509 1.645 . S
C655 C9 1.670 . S
C669 C489 1.655 . S
C675 C29 1.637 . S
C689 C549 1.642 . S
C695 C49 1.659 . S
C709 C529 1.660 . S
C715 C69 1.649 . S
C729 C81 1.663 . S
C735 C581 1.649 . S
C749 C101 1.637 . S
C755 C561 1.654 . S
C769 C121 1.644 . S
C775 C621 1.658 . S
C789 C601 1.650 . S
C795 C141 1.656 . S
C809 C349 1.650 . S
C815 C169 1.655 . S
C829 C329 1.663 . S
C835 C189 1.650 . S
C849 C389 1.664 . S
C855 C209 1.650 . S
C869 C369 1.644 . S
C875 C229 1.658 . S
C889 C241 1.637 . S
C895 C421 1.656 . S
C909 C401 1.663 . S
C915 C261 1.650 . S
C929 C281 1.644 . S
C935 C461 1.666 . S
C949 C441 1.658 . S
C955 C301 1.638 . S
C969 C19 2.623 1_545 S
C975 C408 2.623 1_565 S
C989 C268 2.616 . S
C995 C39 2.616 . S
C1009 C608 2.624 . S
C1015 C59 2.624 . S
C1029 C79 2.609 1_545 S
C1035 C148 2.608 1_565 S
C1049 C88 2.616 1_565 S
C1055 C339 2.615 1_545 S
C1069 C108 2.617 . S
C1075 C199 2.617 . S
C1089 C128 2.622 . S
C1095 C539 2.622 . S
C1109 C568 2.624 . S
C1115 C179 2.624 . S
C1129 C448 2.607 . S
C1135 C219 2.607 . S
C1149 C308 2.606 . S
C1155 C239 2.606 . S
C1169 C499 2.621 . S
C1175 C248 2.621 . S
C1189 C288 2.606 . S
C1195 C379 2.606 . S
C1209 C588 2.613 . S
C1215 C359 2.613 . S
C1229 C399 2.620 1_545 S
C1235 C468 2.619 1_565 S
C1249 C519 2.614 . S
C1255 C428 2.614 . S
C1269 C559 2.623 . S
C1275 C628 2.623 . S
C1289 C8 2.582 1_566 S
C1295 C388 2.588 1_565 S
C1309 C28 2.587 1_556 S
C1315 C368 2.594 . S
C1329 C48 2.581 . S
C1335 C348 2.585 . S
C1349 C68 2.596 1_565 S
C1355 C328 2.595 1_565 S
C1369 C99 2.582 1_544 S
C1375 C479 2.583 1_545 S
C1389 C119 2.587 1_554 S
C1395 C459 2.581 . S
C1409 C139 2.596 . S
C1415 C439 2.591 . S
C1429 C159 2.589 1_545 S
C1435 C419 2.595 1_545 S
C1449 C168 2.597 . S
C1455 C548 2.590 . S
C1469 C188 2.582 . S
C1475 C528 2.589 . S
C1489 C208 2.595 . S
C1495 C508 2.596 1_556 S
C1509 C228 2.591 . S
C1515 C488 2.584 1_556 S
C1529 C639 2.584 . S
C1535 C259 2.582 . S
C1549 C619 2.596 . S
C1555 C279 2.590 . S
C1569 C599 2.592 1_554 S
C1575 C299 2.585 . S
C1589 C579 2.590 1_554 S
C1595 C319 2.596 . S
C1609 C41 1.713 . S
C1615 C1 1.702 . S
C1629 C61 1.712 . S
C1635 C21 1.701 . S
C1649 C129 1.707 . S
C1655 C89 1.708 . S
C1669 C109 1.707 . S
C1675 C149 1.708 . S
C1689 C201 1.720 . S
C1695 C161 1.718 . S
C1709 C181 1.720 . S
C1715 C221 1.716 . S
C1729 C289 1.719 . S
C1735 C249 1.714 . S
C1749 C269 1.716 . S
C1755 C309 1.714 . S
C1769 C321 1.713 . S
C1775 C361 1.701 . S
C1789 C341 1.713 . S
C1795 C381 1.703 . S
C1809 C449 1.713 . S
C1815 C409 1.701 . S
C1829 C429 1.710 . S
C1835 C469 1.707 . S
C1849 C481 1.718 . S
C1855 C521 1.713 . S
C1869 C541 1.715 . S
C1875 C501 1.715 . S
C1889 C569 1.717 . S
C1895 C609 1.720 . S
C1909 C589 1.715 . S
C1915 C629 1.715 . S
C1929 C16 0.529 1_556 S
C1935 C156 0.531 . S
C1949 C616 0.545 . S
C1955 C36 0.537 1_556 S
C1969 C56 0.528 . S
C1975 C276 0.530 . S
C1989 C76 0.529 . S
C1995 C416 0.527 . S
C2009 C66 0.583 . S
C2015 C86 0.574 1_554 S
C2029 C106 0.524 1_554 S
C2035 C526 0.526 . S
C2049 C186 0.593 . S
C2055 C126 0.590 . S
C2069 C326 0.596 . S
C2075 C146 0.593 . S
C2089 C176 0.583 . S
C2095 C316 0.587 . S
C2109 C456 0.599 . S
C2115 C196 0.601 . S
C2129 C216 0.597 . S
C2135 C116 0.599 . S
C2149 C576 0.586 . S
C2155 C236 0.590 . S
C2169 C246 0.579 . S
C2175 C226 0.574 . S
C2189 C266 0.585 . S
C2195 C366 0.581 . S
C2209 C286 0.534 . S
C2215 C26 0.531 . S
C2229 C486 0.601 . S
C2235 C306 0.599 . S
C2249 C336 0.596 . S
C2255 C476 0.597 . S
C2269 C356 0.566 . S
C2275 C296 0.570 . S
C2289 C376 0.598 . S
C2295 C596 0.600 . S
C2309 C396 0.586 . S
C2315 C96 0.588 . S
C2329 C406 0.555 . S
C2335 C386 0.551 . S
C2349 C206 0.597 . S
C2355 C426 0.599 . S
C2369 C506 0.524 . S
C2375 C446 0.525 . S
C2389 C466 0.593 . S
C2395 C6 0.590 . S
C2409 C636 0.542 . S
C2415 C496 0.541 1_556 S
C2429 C136 0.561 . S
C2435 C516 0.551 1_556 S
C2449 C436 0.587 . S
C2455 C536 0.591 . S
C2469 C556 0.600 . S
C2475 C256 0.598 . S
C2489 C546 0.591 . S
C2495 C566 0.582 1_554 S
C2509 C46 0.571 . S
C2515 C586 0.571 1_554 S
C2529 C346 0.541 . S
C2535 C606 0.546 . S
C2549 C626 0.559 . S
C2555 C166 0.563 . S
