# Generated by pormake.
# Topology pcu-h, (3)-cn, num edge types: 1
# Building blocks:
#     Node 0, Type 0, BuildingBlock: WUSLED_clean_sbu_0, # of connection points: 3
#     Node 1, Type 0, BuildingBlock: WUSLED_clean_sbu_0, # of connection points: 3
#     Node 2, Type 0, BuildingBlock: WUSLED_clean_sbu_0, # of connection points: 3
#     Node 3, Type 0, BuildingBlock: WUSLED_clean_sbu_0, # of connection points: 3
#     Node 4, Type 0, BuildingBlock: WUSLED_clean_sbu_0, # of connection points: 3
#     Node 5, Type 0, BuildingBlock: WUSLED_clean_sbu_0, # of connection points: 3
#     Node 6, Type 0, BuildingBlock: WUSLED_clean_sbu_0, # of connection points: 3
#     Node 7, Type 0, BuildingBlock: WUSLED_clean_sbu_0, # of connection points: 3
#     Node 8, Type 0, BuildingBlock: WUSLED_clean_sbu_0, # of connection points: 3
#     Node 9, Type 0, BuildingBlock: WUSLED_clean_sbu_0, # of connection points: 3
#     Node 10, Type 0, BuildingBlock: WUSLED_clean_sbu_0, # of connection points: 3
#     Node 11, Type 0, BuildingBlock: WUSLED_clean_sbu_0, # of connection points: 3
#     Node 12, Type 0, BuildingBlock: WUSLED_clean_sbu_0, # of connection points: 3
#     Node 13, Type 0, BuildingBlock: WUSLED_clean_sbu_0, # of connection points: 3
#     Node 14, Type 0, BuildingBlock: WUSLED_clean_sbu_0, # of connection points: 3
#     Node 15, Type 0, BuildingBlock: WUSLED_clean_sbu_0, # of connection points: 3
#     Node 16, Type 0, BuildingBlock: WUSLED_clean_sbu_0, # of connection points: 3
#     Node 17, Type 0, BuildingBlock: WUSLED_clean_sbu_0, # of connection points: 3
#     Edge 18, Type (0, 0), BuildingBlock: XIVTED_clean_linker_0, # of connection points: 2
#     Edge 19, Type (0, 0), BuildingBlock: XIVTED_clean_linker_0, # of connection points: 2
#     Edge 20, Type (0, 0), BuildingBlock: XIVTED_clean_linker_0, # of connection points: 2
#     Edge 21, Type (0, 0), BuildingBlock: XIVTED_clean_linker_0, # of connection points: 2
#     Edge 22, Type (0, 0), BuildingBlock: XIVTED_clean_linker_0, # of connection points: 2
#     Edge 23, Type (0, 0), BuildingBlock: XIVTED_clean_linker_0, # of connection points: 2
#     Edge 24, Type (0, 0), BuildingBlock: XIVTED_clean_linker_0, # of connection points: 2
#     Edge 25, Type (0, 0), BuildingBlock: XIVTED_clean_linker_0, # of connection points: 2
#     Edge 26, Type (0, 0), BuildingBlock: XIVTED_clean_linker_0, # of connection points: 2
#     Edge 27, Type (0, 0), BuildingBlock: XIVTED_clean_linker_0, # of connection points: 2
#     Edge 28, Type (0, 0), BuildingBlock: XIVTED_clean_linker_0, # of connection points: 2
#     Edge 29, Type (0, 0), BuildingBlock: XIVTED_clean_linker_0, # of connection points: 2
#     Edge 30, Type (0, 0), BuildingBlock: XIVTED_clean_linker_0, # of connection points: 2
#     Edge 31, Type (0, 0), BuildingBlock: XIVTED_clean_linker_0, # of connection points: 2
#     Edge 32, Type (0, 0), BuildingBlock: XIVTED_clean_linker_0, # of connection points: 2
#     Edge 33, Type (0, 0), BuildingBlock: XIVTED_clean_linker_0, # of connection points: 2
#     Edge 34, Type (0, 0), BuildingBlock: XIVTED_clean_linker_0, # of connection points: 2
#     Edge 35, Type (0, 0), BuildingBlock: XIVTED_clean_linker_0, # of connection points: 2
#     Edge 36, Type (0, 0), BuildingBlock: XIVTED_clean_linker_0, # of connection points: 2
#     Edge 37, Type (0, 0), BuildingBlock: XIVTED_clean_linker_0, # of connection points: 2
#     Edge 38, Type (0, 0), BuildingBlock: XIVTED_clean_linker_0, # of connection points: 2
#     Edge 39, Type (0, 0), BuildingBlock: XIVTED_clean_linker_0, # of connection points: 2
#     Edge 40, Type (0, 0), BuildingBlock: XIVTED_clean_linker_0, # of connection points: 2
#     Edge 41, Type (0, 0), BuildingBlock: XIVTED_clean_linker_0, # of connection points: 2
#     Edge 42, Type (0, 0), BuildingBlock: XIVTED_clean_linker_0, # of connection points: 2
#     Edge 43, Type (0, 0), BuildingBlock: XIVTED_clean_linker_0, # of connection points: 2
#     Edge 44, Type (0, 0), BuildingBlock: XIVTED_clean_linker_0, # of connection points: 2
# Relax obj value: 0.000
# Max RMSD: 0.008
# Mean RMSD: 0.007
data_MOF--net-pcu-h--node1-WUSLED_clean_sbu_0--edge1-XIVTED_clean_linker_0
_symmetry_space_group_name_H-M    P1
_symmetry_Int_Tables_number       1
_symmetry_cell_setting            triclinic
loop_
_symmetry_equiv_pos_as_xyz
'x, y, z'
_cell_length_a     118.01153
_cell_length_b     117.29222
_cell_length_c     29.9043
_cell_angle_alpha  89.892206
_cell_angle_beta   90.141394
_cell_angle_gamma 120.21924
loop_
_atom_site_label
_atom_site_type_symbol
_atom_site_fract_x
_atom_site_fract_y
_atom_site_fract_z
_atom_type_partial_charge
C0 C 0.24396 0.15853 0.03398 0.0
C1 C 0.23034 0.14998 0.03195 0.0
C2 C 0.22701 0.16858 0.01676 0.0
C3 C 0.22194 0.15496 0.02344 0.0
C4 C 0.2407 0.17704 0.01826 0.0
C5 C 0.24907 0.17206 0.02681 0.0
U6 U 0.2521 0.13078 0.04778 0.0
O7 O 0.27011 0.13055 0.03059 0.0
O8 O 0.26364 0.12807 0.10047 0.0
C9 C 0.27287 0.12955 0.07255 0.0
C10 C 0.253 0.15364 0.04454 0.0
C11 C 0.28654 0.13841 0.08739 0.0
C12 C 0.30736 0.15913 0.08394 0.0
C13 C 0.29426 0.15123 0.07025 0.0
C14 C 0.30509 0.14157 0.1325 0.0
C15 C 0.31296 0.15438 0.11521 0.0
C16 C 0.29206 0.1337 0.11871 0.0
C17 C 0.22474 0.09468 0.0251 0.0
C18 C 0.22705 0.0754 0.01314 0.0
C19 C 0.20563 0.07262 0.02785 0.0
C20 C 0.21122 0.0863 0.03089 0.0
C21 C 0.21345 0.06696 0.01888 0.0
C22 C 0.23266 0.08915 0.01638 0.0
C23 C 0.23012 0.10909 0.02743 0.0
O24 O 0.25037 0.14653 0.08112 0.0
O25 O 0.25637 0.1488 0.01084 0.0
O26 O 0.23909 0.11635 -0.00228 0.0
O27 O 0.23277 0.11429 0.06766 0.0
H28 H 0.2262 0.13949 0.03743 0.0
H29 H 0.21147 0.14815 0.02301 0.0
H30 H 0.245 0.18753 0.01252 0.0
H31 H 0.25956 0.17881 0.02806 0.0
H32 H 0.31307 0.16898 0.07028 0.0
H33 H 0.2902 0.15512 0.04616 0.0
H34 H 0.30908 0.13748 0.15606 0.0
H35 H 0.28631 0.12382 0.13221 0.0
H36 H 0.23338 0.07139 0.00661 0.0
H37 H 0.19512 0.06647 0.03173 0.0
H38 H 0.20492 0.09036 0.03742 0.0
H39 H 0.24314 0.09544 0.01194 0.0
C40 C 0.8873 0.09428 0.05289 0.0
C41 C 0.89264 0.08947 0.02121 0.0
C42 C 0.87498 0.06687 0.03511 0.0
C43 C 0.88654 0.07588 0.01242 0.0
C44 C 0.86993 0.07178 0.06763 0.0
C45 C 0.87601 0.08531 0.07631 0.0
U46 U 0.91573 0.13055 0.05685 0.0
O47 O 0.91558 0.14859 0.0376 0.0
O48 O 0.91961 0.14582 0.10723 0.0
C49 C 0.91757 0.15314 0.07873 0.0
C50 C 0.89294 0.10854 0.06121 0.0
C51 C 0.90915 0.15832 0.0944 0.0
C52 C 0.8882 0.15768 0.09782 0.0
C53 C 0.89568 0.15201 0.08456 0.0
C54 C 0.90749 0.17582 0.13173 0.0
C55 C 0.89406 0.16978 0.12106 0.0
C56 C 0.91492 0.17017 0.11849 0.0
C57 C 0.95082 0.13922 0.02373 0.0
C58 C 0.97047 0.16073 0.03292 0.0
C59 C 0.97172 0.14327 0.99431 0.0
C60 C 0.95828 0.13483 0.00103 0.0
C61 C 0.97803 0.15635 0.01017 0.0
C62 C 0.95698 0.15225 0.03957 0.0
C63 C 0.93671 0.12994 0.03087 0.0
O64 O 0.90098 0.11346 0.09543 0.0
O65 O 0.89692 0.11629 0.0259 0.0
O66 O 0.92864 0.13096 0.00298 0.0
O67 O 0.93265 0.12817 0.07255 0.0
H68 H 0.90138 0.09622 0.0028 0.0
H69 H 0.89067 0.07249 0.98698 0.0
H70 H 0.86123 0.06516 0.08644 0.0
H71 H 0.87178 0.0888 0.10106 0.0
H72 H 0.87791 0.15277 0.0888 0.0
H73 H 0.89101 0.14282 0.06605 0.0
H74 H 0.9123 0.18498 0.15035 0.0
H75 H 0.92528 0.17517 0.12665 0.0
H76 H 0.97495 0.17076 0.04517 0.0
H77 H 0.97721 0.13946 0.9773 0.0
H78 H 0.95372 0.12479 0.9887 0.0
H79 H 0.95137 0.15584 0.0571 0.0
C80 C 0.88808 0.80348 0.04147 0.0
C81 C 0.89612 0.81603 0.02289 0.0
C82 C 0.87792 0.82039 0.02435 0.0
C83 C 0.89109 0.82442 0.01445 0.0
C84 C 0.86999 0.80782 0.04335 0.0
C85 C 0.87502 0.79948 0.05177 0.0
U86 U 0.9153 0.79439 0.04763 0.0
O87 O 0.91796 0.78192 0.09671 0.0
O88 O 0.91456 0.77605 0.02611 0.0
C89 C 0.91581 0.77277 0.06709 0.0
C90 C 0.89295 0.79429 0.04986 0.0
C91 C 0.90668 0.75892 0.08017 0.0
C92 C 0.88802 0.74225 0.12249 0.0
C93 C 0.8961 0.75544 0.10933 0.0
C94 C 0.90083 0.73586 0.07692 0.0
C95 C 0.89031 0.73228 0.10653 0.0
C96 C 0.90891 0.74901 0.06398 0.0
C97 C 0.95111 0.82051 0.01898 0.0
C98 C 0.97062 0.81912 0.03524 0.0
C99 C 0.97209 0.83618 0.98578 0.0
C100 C 0.95867 0.8314 0.99135 0.0
C101 C 0.9783 0.83018 0.00788 0.0
C102 C 0.95715 0.81433 0.04071 0.0
C103 C 0.93706 0.81601 0.02503 0.0
O104 O 0.89709 0.79076 0.01463 0.0
O105 O 0.90058 0.79684 0.08496 0.0
O106 O 0.93259 0.81333 0.06622 0.0
O107 O 0.929 0.80737 0.99576 0.0
H108 H 0.90624 0.81929 0.01465 0.0
H109 H 0.89746 0.83397 -0.00056 0.0
H110 H 0.85989 0.80445 0.05216 0.0
H111 H 0.86867 0.78985 0.06629 0.0
H112 H 0.87993 0.73984 0.14493 0.0
H113 H 0.89413 0.7629 0.12216 0.0
H114 H 0.90303 0.72853 0.06443 0.0
H115 H 0.91704 0.75147 0.04164 0.0
H116 H 0.97505 0.81431 0.05312 0.0
H117 H 0.97757 0.84453 0.96377 0.0
H118 H 0.95419 0.83627 0.9741 0.0
H119 H 0.95149 0.80588 0.06218 0.0
C120 C 0.10291 0.23206 0.95186 0.0
C121 C 0.09675 0.2187 0.93949 0.0
C122 C 0.07578 0.21507 0.96789 0.0
C123 C 0.08331 0.2103 0.9473 0.0
C124 C 0.08208 0.22841 0.9808 0.0
C125 C 0.09547 0.23679 0.97279 0.0
U126 U 0.13918 0.2413 0.93968 0.0
O127 O 0.15378 0.25402 0.88977 0.0
O128 O 0.15705 0.25949 0.96074 0.0
C129 C 0.16114 0.263 0.91946 0.0
C130 C 0.11692 0.24135 0.94228 0.0
C131 C 0.16586 0.27694 0.90763 0.0
C132 C 0.16397 0.29387 0.86646 0.0
C133 C 0.15879 0.28062 0.87895 0.0
C134 C 0.1832 0.29994 0.91185 0.0
C135 C 0.17629 0.30371 0.8826 0.0
C136 C 0.17804 0.28673 0.92412 0.0
C137 C 0.14899 0.21492 0.96157 0.0
C138 C 0.1714 0.21913 0.96334 0.0
C139 C 0.15322 0.19684 0.97236 0.0
C140 C 0.14442 0.20147 0.96813 0.0
C141 C 0.16685 0.2056 0.97013 0.0
C142 C 0.16255 0.22375 0.95903 0.0
C143 C 0.13941 0.21947 0.95828 0.0
O144 O 0.12498 0.24471 0.97651 0.0
O145 O 0.12169 0.23922 0.90558 0.0
O146 O 0.13725 0.22245 0.91797 0.0
O147 O 0.14039 0.22796 0.98883 0.0
H148 H 0.10229 0.21477 0.92352 0.0
H149 H 0.07883 0.20005 0.93744 0.0
H150 H 0.07659 0.23249 0.9962 0.0
H151 H 0.10001 0.24707 0.9825 0.0
H152 H 0.15831 0.29642 0.84431 0.0
H153 H 0.14933 0.27326 0.86586 0.0
H154 H 0.19277 0.30717 0.92446 0.0
H155 H 0.1837 0.28411 0.94607 0.0
H156 H 0.1818 0.22614 0.96095 0.0
H157 H 0.14934 0.18641 0.97825 0.0
H158 H 0.13399 0.19451 0.97038 0.0
H159 H 0.16627 0.23418 0.95388 0.0
C160 C 0.81119 0.94232 0.94145 0.0
C161 C 0.82267 0.94709 0.96715 0.0
C162 C 0.82646 0.96956 0.96161 0.0
C163 C 0.83025 0.9606 0.9771 0.0
C164 C 0.81507 0.96468 0.93511 0.0
C165 C 0.80754 0.95123 0.92524 0.0
U166 U 0.80338 0.9061 0.93185 0.0
O167 O 0.7852 0.8879 0.94991 0.0
O168 O 0.79172 0.89145 0.88004 0.0
C169 C 0.78238 0.8839 0.90819 0.0
C170 C 0.80261 0.92814 0.93186 0.0
C171 C 0.76879 0.87926 0.8931 0.0
C172 C 0.74824 0.87943 0.89657 0.0
C173 C 0.76129 0.88448 0.91037 0.0
C174 C 0.75013 0.86409 0.8475 0.0
C175 C 0.74248 0.86914 0.86501 0.0
C176 C 0.76311 0.86908 0.86145 0.0
C177 C 0.82993 0.89693 0.95865 0.0
C178 C 0.82708 0.87555 0.97965 0.0
C179 C 0.84828 0.89298 0.95452 0.0
C180 C 0.84311 0.90132 0.94876 0.0
C181 C 0.84039 0.88001 0.9705 0.0
C182 C 0.8219 0.88392 0.97375 0.0
C183 C 0.82504 0.90627 0.9543 0.0
O184 O 0.80558 0.9236 0.89636 0.0
O185 O 0.79914 0.9201 0.96631 0.0
O186 O 0.81616 0.90506 0.98341 0.0
O187 O 0.82259 0.9086 0.91344 0.0
H188 H 0.82567 0.94036 0.97995 0.0
H189 H 0.8389 0.96398 -0.00219 0.0
H190 H 0.81197 0.97127 0.92182 0.0
H191 H 0.79876 0.94776 0.90514 0.0
H192 H 0.7427 0.88366 0.91038 0.0
H193 H 0.76546 0.89239 0.93469 0.0
H194 H 0.746 0.85605 0.82367 0.0
H195 H 0.76869 0.86487 0.8478 0.0
H196 H 0.82072 0.86569 0.99237 0.0
H197 H 0.85848 0.89671 0.94626 0.0
H198 H 0.84947 0.9113 0.93689 0.0
H199 H 0.81169 0.88028 0.98155 0.0
C200 C 0.10251 0.87749 0.94381 0.0
C201 C 0.09839 0.88486 0.96883 0.0
C202 C 0.07546 0.86761 0.9594 0.0
C203 C 0.085 0.87996 0.97661 0.0
C204 C 0.07971 0.86038 0.93392 0.0
C205 C 0.09308 0.86526 0.9263 0.0
U206 U 0.1387 0.90497 0.93865 0.0
O207 O 0.15638 0.90487 0.96206 0.0
O208 O 0.15412 0.90793 0.89093 0.0
C209 C 0.16112 0.90614 0.92146 0.0
C210 C 0.11656 0.88225 0.93611 0.0
C211 C 0.16613 0.89724 0.90961 0.0
C212 C 0.16446 0.87831 0.86992 0.0
C213 C 0.15909 0.88618 0.88192 0.0
C214 C 0.18384 0.89233 0.91371 0.0
C215 C 0.17693 0.88131 0.8856 0.0
C216 C 0.1785 0.90019 0.92549 0.0
C217 C 0.14693 0.94072 0.96577 0.0
C218 C 0.16864 0.96038 0.96651 0.0
C219 C 0.14959 0.962 0.98597 0.0
C220 C 0.14155 0.94845 0.97887 0.0
C221 C 0.16326 0.96816 0.98019 0.0
C222 C 0.16054 0.94675 0.95947 0.0
C223 C 0.13805 0.92644 0.95937 0.0
O224 O 0.12177 0.88976 0.90074 0.0
O225 O 0.12418 0.88657 0.97156 0.0
O226 O 0.13886 0.91866 0.98929 0.0
O227 O 0.1368 0.92199 0.91828 0.0
H228 H 0.10552 0.89434 0.98265 0.0
H229 H 0.08216 0.88577 0.99677 0.0
H230 H 0.0727 0.85096 0.91941 0.0
H231 H 0.09605 0.85945 0.90671 0.0
H232 H 0.1588 0.86983 0.84864 0.0
H233 H 0.14949 0.88366 0.86936 0.0
H234 H 0.19353 0.89509 0.92591 0.0
H235 H 0.18414 0.90871 0.94671 0.0
H236 H 0.17912 0.96478 0.96202 0.0
H237 H 0.14506 0.96767 0.99562 0.0
H238 H 0.13106 0.94399 0.98368 0.0
H239 H 0.16488 0.94093 0.94938 0.0
C240 C 0.90898 0.4914 0.3799 0.0
C241 C 0.89785 0.48467 0.35251 0.0
C242 C 0.89192 0.50153 0.36667 0.0
C243 C 0.88942 0.48971 0.34584 0.0
C244 C 0.90304 0.50813 0.39438 0.0
C245 C 0.91146 0.50312 0.40085 0.0
U246 U 0.91821 0.46417 0.38174 0.0
O247 O 0.93623 0.46494 0.35763 0.0
O248 O 0.93096 0.46129 0.42865 0.0
C249 C 0.93982 0.46355 0.39798 0.0
C250 C 0.9183 0.48661 0.38644 0.0
C251 C 0.9537 0.47266 0.41009 0.0
C252 C 0.97061 0.49087 0.45365 0.0
C253 C 0.95739 0.48286 0.44143 0.0
C254 C 0.97661 0.47875 0.40281 0.0
C255 C 0.98039 0.48889 0.43458 0.0
C256 C 0.96343 0.47075 0.39081 0.0
C257 C 0.89156 0.42826 0.35247 0.0
C258 C 0.89146 0.40784 0.36872 0.0
C259 C 0.87581 0.40777 0.31608 0.0
C260 C 0.8811 0.42132 0.32273 0.0
C261 C 0.88086 0.40081 0.33909 0.0
C262 C 0.89678 0.42145 0.37527 0.0
C263 C 0.89645 0.44245 0.35985 0.0
O264 O 0.91613 0.47889 0.42114 0.0
O265 O 0.92162 0.48261 0.35036 0.0
O266 O 0.90484 0.4506 0.33024 0.0
O267 O 0.89952 0.44676 0.40117 0.0
H268 H 0.89571 0.47556 0.33615 0.0
H269 H 0.88088 0.48429 0.32472 0.0
H270 H 0.90538 0.51732 0.41049 0.0
H271 H 0.92002 0.50848 0.42199 0.0
H272 H 0.97317 0.49866 0.47783 0.0
H273 H 0.95008 0.48459 0.45671 0.0
H274 H 0.9838 0.47679 0.38789 0.0
H275 H 0.96082 0.4629 0.36677 0.0
H276 H 0.89569 0.40284 0.38665 0.0
H277 H 0.86754 0.40271 0.29357 0.0
H278 H 0.87688 0.42637 0.30496 0.0
H279 H 0.9049 0.42662 0.39831 0.0
C280 C 0.55451 0.42697 0.38031 0.0
C281 C 0.56006 0.42291 0.34688 0.0
C282 C 0.54384 0.3998 0.36137 0.0
C283 C 0.55474 0.40945 0.3374 0.0
C284 C 0.53849 0.40396 0.3953 0.0
C285 C 0.54376 0.41739 0.40457 0.0
U286 U 0.58182 0.46356 0.38737 0.0
O287 O 0.58114 0.48139 0.36926 0.0
O288 O 0.58502 0.47836 0.43878 0.0
C289 C 0.5827 0.4856 0.41079 0.0
C290 C 0.55945 0.44107 0.38979 0.0
C291 C 0.57371 0.49006 0.42678 0.0
C292 C 0.55277 0.48949 0.42516 0.0
C293 C 0.56079 0.48454 0.41083 0.0
C294 C 0.57038 0.50533 0.47219 0.0
C295 C 0.55748 0.49999 0.45594 0.0
C296 C 0.57838 0.50043 0.45773 0.0
C297 C 0.61735 0.47314 0.35546 0.0
C298 C 0.63671 0.49493 0.36342 0.0
C299 C 0.63855 0.47727 0.32892 0.0
C300 C 0.62511 0.46871 0.33511 0.0
C301 C 0.64456 0.49051 0.34292 0.0
C302 C 0.62321 0.48632 0.36957 0.0
C303 C 0.60325 0.46372 0.36192 0.0
O304 O 0.56726 0.44602 0.42458 0.0
O305 O 0.56333 0.44908 0.35516 0.0
O306 O 0.5952 0.46474 0.33391 0.0
O307 O 0.59903 0.46169 0.40342 0.0
H308 H 0.56842 0.43013 0.32787 0.0
H309 H 0.55921 0.40661 0.31143 0.0
H310 H 0.53001 0.39685 0.41405 0.0
H311 H 0.53931 0.42031 0.43042 0.0
H312 H 0.54285 0.48503 0.41232 0.0
H313 H 0.55692 0.47648 0.38707 0.0
H314 H 0.57443 0.51353 0.49539 0.0
H315 H 0.58833 0.50488 0.47033 0.0
H316 H 0.64096 0.50507 0.37423 0.0
H317 H 0.64426 0.47342 0.31375 0.0
H318 H 0.62077 0.45855 0.32419 0.0
H319 H 0.61737 0.48993 0.38532 0.0
C320 C 0.5546 0.13581 0.37012 0.0
C321 C 0.56321 0.14917 0.36036 0.0
C322 C 0.54472 0.15298 0.35352 0.0
C323 C 0.55831 0.15769 0.35221 0.0
C324 C 0.53619 0.13956 0.36331 0.0
C325 C 0.54109 0.13109 0.3715 0.0
U326 U 0.58184 0.12682 0.37812 0.0
O327 O 0.58432 0.1143 0.42747 0.0
O328 O 0.5813 0.10857 0.35671 0.0
C329 C 0.58236 0.10522 0.39779 0.0
C330 C 0.55942 0.1266 0.37892 0.0
C331 C 0.57322 0.09133 0.41037 0.0
C332 C 0.55444 0.07448 0.45181 0.0
C333 C 0.56254 0.08772 0.4392 0.0
C334 C 0.56743 0.06829 0.40638 0.0
C335 C 0.5568 0.06459 0.4356 0.0
C336 C 0.57553 0.08149 0.394 0.0
C337 C 0.61775 0.15318 0.35099 0.0
C338 C 0.63768 0.15303 0.37147 0.0
C339 C 0.6385 0.16828 0.31516 0.0
C340 C 0.62503 0.16328 0.3202 0.0
C341 C 0.64507 0.16333 0.34098 0.0
C342 C 0.62415 0.148 0.3764 0.0
C343 C 0.60364 0.14853 0.35648 0.0
O344 O 0.56375 0.12316 0.34399 0.0
O345 O 0.56689 0.12911 0.41445 0.0
O346 O 0.59899 0.14577 0.39746 0.0
O347 O 0.59572 0.13992 0.32685 0.0
H348 H 0.57369 0.153 0.359 0.0
H349 H 0.56517 0.16792 0.34432 0.0
H350 H 0.5257 0.1356 0.36533 0.0
H351 H 0.53429 0.12081 0.3791 0.0
H352 H 0.54627 0.07198 0.47397 0.0
H353 H 0.56051 0.09512 0.45217 0.0
H354 H 0.56969 0.06102 0.39374 0.0
H355 H 0.58374 0.08404 0.37192 0.0
H356 H 0.64238 0.14903 0.39222 0.0
H357 H 0.64376 0.176 0.29073 0.0
H358 H 0.62028 0.16737 0.3001 0.0
H359 H 0.61873 0.14017 0.40035 0.0
C360 C 0.76947 0.5665 0.28681 0.0
C361 C 0.76348 0.55292 0.27778 0.0
C362 C 0.74234 0.54958 0.30321 0.0
C363 C 0.75004 0.54456 0.28577 0.0
C364 C 0.74848 0.56315 0.31297 0.0
C365 C 0.76187 0.57149 0.30476 0.0
U366 U 0.80587 0.57604 0.27743 0.0
O367 O 0.82027 0.58754 0.22495 0.0
O368 O 0.8236 0.59484 0.29402 0.0
C369 C 0.82759 0.5973 0.25225 0.0
C370 C 0.78343 0.57573 0.27635 0.0
C371 C 0.83208 0.61078 0.23533 0.0
C372 C 0.83254 0.63179 0.23783 0.0
C373 C 0.82744 0.61878 0.25297 0.0
C374 C 0.84675 0.62889 0.18666 0.0
C375 C 0.84231 0.63704 0.20458 0.0
C376 C 0.8417 0.61595 0.20191 0.0
C377 C 0.81627 0.55062 0.31036 0.0
C378 C 0.83501 0.54885 0.28586 0.0
C379 C 0.82354 0.53789 0.35375 0.0
C380 C 0.81496 0.54272 0.34745 0.0
C381 C 0.83365 0.54083 0.32294 0.0
C382 C 0.82644 0.55374 0.2797 0.0
C383 C 0.8066 0.55501 0.30393 0.0
O384 O 0.79153 0.58002 0.31057 0.0
O385 O 0.78825 0.57285 0.24138 0.0
O386 O 0.80409 0.55684 0.2625 0.0
O387 O 0.8075 0.56413 0.33156 0.0
H388 H 0.76914 0.5488 0.26416 0.0
H389 H 0.74569 0.53415 0.27843 0.0
H390 H 0.74286 0.5674 0.32591 0.0
H391 H 0.76628 0.58193 0.31186 0.0
H392 H 0.82878 0.63772 0.25203 0.0
H393 H 0.81998 0.61502 0.27872 0.0
H394 H 0.85438 0.63262 0.16155 0.0
H395 H 0.84549 0.61 0.188 0.0
H396 H 0.84277 0.55144 0.26176 0.0
H397 H 0.82207 0.53161 0.38233 0.0
H398 H 0.80715 0.54012 0.3714 0.0
H399 H 0.82771 0.55987 0.25086 0.0
C400 C 0.47893 0.27515 0.27447 0.0
C401 C 0.4891 0.27941 0.30605 0.0
C402 C 0.4954 0.30241 0.29228 0.0
C403 C 0.49723 0.29291 0.31497 0.0
C404 C 0.48535 0.29806 0.26009 0.0
C405 C 0.47721 0.28459 0.25139 0.0
U406 U 0.46988 0.23865 0.2663 0.0
O407 O 0.45188 0.22078 0.28854 0.0
O408 O 0.45719 0.22355 0.21745 0.0
C409 C 0.44832 0.21636 0.24757 0.0
C410 C 0.46971 0.261 0.26607 0.0
C411 C 0.43446 0.21159 0.23582 0.0
C412 C 0.41754 0.21353 0.19537 0.0
C413 C 0.43075 0.2187 0.20734 0.0
C414 C 0.41158 0.19422 0.2408 0.0
C415 C 0.40778 0.2012 0.21188 0.0
C416 C 0.42475 0.19936 0.25254 0.0
C417 C 0.4965 0.22937 0.29021 0.0
C418 C 0.4929 0.20726 0.30272 0.0
C419 C 0.51501 0.22569 0.29458 0.0
C420 C 0.51004 0.2342 0.28881 0.0
C421 C 0.50653 0.21211 0.302 0.0
C422 C 0.48793 0.21582 0.29688 0.0
C423 C 0.4917 0.23876 0.28567 0.0
O424 O 0.4719 0.25599 0.23007 0.0
O425 O 0.46638 0.25312 0.30094 0.0
O426 O 0.48328 0.23794 0.31602 0.0
O427 O 0.48863 0.24055 0.24502 0.0
H428 H 0.49068 0.27232 0.32413 0.0
H429 H 0.50497 0.29591 0.33956 0.0
H430 H 0.48353 0.30504 0.24238 0.0
H431 H 0.4694 0.28152 0.227 0.0
H432 H 0.41496 0.21924 0.17344 0.0
H433 H 0.43805 0.2282 0.19411 0.0
H434 H 0.4044 0.18463 0.25366 0.0
H435 H 0.42738 0.19367 0.27436 0.0
H436 H 0.48607 0.1969 0.30871 0.0
H437 H 0.52552 0.22977 0.29294 0.0
H438 H 0.51681 0.24462 0.2835 0.0
H439 H 0.47744 0.21188 0.29806 0.0
C440 C 0.76941 0.2103 0.28166 0.0
C441 C 0.76509 0.21811 0.30278 0.0
C442 C 0.74231 0.20019 0.29709 0.0
C443 C 0.75167 0.2131 0.31045 0.0
C444 C 0.74676 0.1925 0.27554 0.0
C445 C 0.76015 0.1975 0.26799 0.0
U446 U 0.80559 0.23794 0.27358 0.0
O447 O 0.82342 0.23803 0.29652 0.0
O448 O 0.82067 0.2404 0.2252 0.0
C449 C 0.82796 0.23907 0.25572 0.0
C450 C 0.78347 0.21517 0.2739 0.0
C451 C 0.8333 0.23043 0.24427 0.0
C452 C 0.83174 0.21111 0.20782 0.0
C453 C 0.82594 0.21851 0.22091 0.0
C454 C 0.85216 0.2273 0.2422 0.0
C455 C 0.84501 0.21554 0.2177 0.0
C456 C 0.84638 0.23465 0.25524 0.0
C457 C 0.81485 0.27424 0.29376 0.0
C458 C 0.8348 0.29312 0.32281 0.0
C459 C 0.81993 0.29665 0.27683 0.0
C460 C 0.81168 0.28299 0.27282 0.0
C461 C 0.83156 0.30191 0.30214 0.0
C462 C 0.82655 0.27942 0.31856 0.0
C463 C 0.80547 0.25987 0.29071 0.0
O464 O 0.7885 0.22229 0.23763 0.0
O465 O 0.79119 0.21997 0.30897 0.0
O466 O 0.80619 0.25235 0.32195 0.0
O467 O 0.80348 0.25466 0.25056 0.0
H468 H 0.7721 0.22803 0.31358 0.0
H469 H 0.74867 0.21928 0.32751 0.0
H470 H 0.73988 0.18263 0.264 0.0
H471 H 0.76327 0.19134 0.25143 0.0
H472 H 0.82595 0.20214 0.18884 0.0
H473 H 0.81581 0.21506 0.2121 0.0
H474 H 0.8623 0.2309 0.25123 0.0
H475 H 0.85222 0.24378 0.27338 0.0
H476 H 0.84374 0.29682 0.34213 0.0
H477 H 0.81701 0.30308 0.26097 0.0
H478 H 0.80268 0.27925 0.25377 0.0
H479 H 0.82928 0.27292 0.335 0.0
C480 C 0.57591 0.82451 0.70975 0.0
C481 C 0.5633 0.81623 0.69243 0.0
C482 C 0.55862 0.83431 0.69529 0.0
C483 C 0.55473 0.82109 0.6852 0.0
C484 C 0.57128 0.84249 0.71279 0.0
C485 C 0.57981 0.83764 0.71992 0.0
U486 U 0.58516 0.79731 0.71714 0.0
O487 O 0.60307 0.79774 0.69351 0.0
O488 O 0.59823 0.7953 0.765 0.0
C489 C 0.6069 0.79702 0.73422 0.0
C490 C 0.58524 0.8198 0.71711 0.0
C491 C 0.62086 0.80626 0.745 0.0
C492 C 0.63803 0.82487 0.78637 0.0
C493 C 0.62476 0.81686 0.77479 0.0
C494 C 0.64367 0.81198 0.73787 0.0
C495 C 0.64766 0.82248 0.76823 0.0
C496 C 0.63044 0.80397 0.72649 0.0
C497 C 0.5586 0.76072 0.69697 0.0
C498 C 0.55907 0.742 0.66357 0.0
C499 C 0.54212 0.73821 0.71685 0.0
C500 C 0.54745 0.75184 0.72134 0.0
C501 C 0.54778 0.73308 0.68762 0.0
C502 C 0.56444 0.75567 0.66825 0.0
C503 C 0.56336 0.77505 0.70029 0.0
O504 O 0.58337 0.81269 0.75329 0.0
O505 O 0.58814 0.8151 0.68183 0.0
O506 O 0.5714 0.78272 0.66893 0.0
O507 O 0.56662 0.78026 0.74046 0.0
H508 H 0.56009 0.80604 0.68448 0.0
H509 H 0.54502 0.81445 0.67217 0.0
H510 H 0.57472 0.85275 0.72032 0.0
H511 H 0.58953 0.8442 0.73317 0.0
H512 H 0.64075 0.83295 0.80943 0.0
H513 H 0.61757 0.81887 0.78947 0.0
H514 H 0.65073 0.8097 0.7237 0.0
H515 H 0.62766 0.79581 0.70367 0.0
H516 H 0.56377 0.73841 0.64114 0.0
H517 H 0.53333 0.73168 0.73544 0.0
H518 H 0.54268 0.75546 0.74338 0.0
H519 H 0.57306 0.76225 0.649 0.0
C520 C 0.22059 0.76087 0.71556 0.0
C521 C 0.22749 0.75633 0.69001 0.0
C522 C 0.20975 0.73352 0.69959 0.0
C523 C 0.22211 0.74277 0.68199 0.0
C524 C 0.20297 0.7382 0.72533 0.0
C525 C 0.20833 0.7517 0.73318 0.0
U526 U 0.24839 0.79731 0.72106 0.0
O527 O 0.24794 0.81521 0.70202 0.0
O528 O 0.25178 0.81235 0.77177 0.0
C529 C 0.24957 0.81958 0.74337 0.0
C530 C 0.2258 0.77505 0.72402 0.0
C531 C 0.24072 0.82426 0.75898 0.0
C532 C 0.2198 0.82372 0.75796 0.0
C533 C 0.22771 0.81863 0.7438 0.0
C534 C 0.23769 0.83992 0.80321 0.0
C535 C 0.2247 0.83447 0.78779 0.0
C536 C 0.24559 0.83488 0.78892 0.0
C537 C 0.28384 0.80646 0.69042 0.0
C538 C 0.30306 0.82845 0.69529 0.0
C539 C 0.30524 0.81026 0.66764 0.0
C540 C 0.29178 0.80174 0.67361 0.0
C541 C 0.31109 0.82375 0.67832 0.0
C542 C 0.28955 0.81988 0.70124 0.0
C543 C 0.26971 0.79712 0.69659 0.0
O544 O 0.23363 0.78004 0.75873 0.0
O545 O 0.22988 0.78284 0.68885 0.0
O546 O 0.26177 0.79817 0.66817 0.0
O547 O 0.26542 0.79521 0.73798 0.0
H548 H 0.23701 0.76325 0.67623 0.0
H549 H 0.22767 0.73953 0.66242 0.0
H550 H 0.19336 0.73144 0.73883 0.0
H551 H 0.20283 0.75501 0.75286 0.0
H552 H 0.20981 0.81918 0.74579 0.0
H553 H 0.2237 0.81038 0.72083 0.0
H554 H 0.24189 0.84831 0.82564 0.0
H555 H 0.2556 0.83941 0.80092 0.0
H556 H 0.30718 0.83878 0.70346 0.0
H557 H 0.31109 0.80621 0.65526 0.0
H558 H 0.28757 0.7914 0.66526 0.0
H559 H 0.28356 0.82371 0.71423 0.0
C560 C 0.22071 0.46881 0.70949 0.0
C561 C 0.22859 0.4813 0.69022 0.0
C562 C 0.21038 0.48563 0.69338 0.0
C563 C 0.22346 0.48963 0.68216 0.0
C564 C 0.20257 0.47306 0.71256 0.0
C565 C 0.20769 0.46477 0.72051 0.0
U566 U 0.24822 0.46013 0.71591 0.0
O567 O 0.25152 0.44862 0.76743 0.0
O568 O 0.24749 0.44158 0.69808 0.0
C569 C 0.24915 0.439 0.73962 0.0
C570 C 0.22577 0.45981 0.7186 0.0
C571 C 0.24024 0.42544 0.75605 0.0
C572 C 0.21956 0.40454 0.75408 0.0
C573 C 0.22746 0.41759 0.73921 0.0
C574 C 0.237 0.40712 0.80335 0.0
C575 C 0.22425 0.39912 0.78627 0.0
C576 C 0.24488 0.4201 0.78836 0.0
C577 C 0.28377 0.48625 0.68404 0.0
C578 C 0.30345 0.48516 0.70018 0.0
C579 C 0.30471 0.50226 0.65139 0.0
C580 C 0.29125 0.49727 0.65678 0.0
C581 C 0.31104 0.49636 0.67328 0.0
C582 C 0.28993 0.48016 0.70551 0.0
C583 C 0.26969 0.48159 0.69021 0.0
O584 O 0.22972 0.45596 0.68369 0.0
O585 O 0.23367 0.46283 0.75317 0.0
O586 O 0.26541 0.47943 0.73166 0.0
O587 O 0.26159 0.47247 0.66225 0.0
H588 H 0.23869 0.48461 0.68159 0.0
H589 H 0.22981 0.49927 0.66778 0.0
H590 H 0.19242 0.46953 0.72098 0.0
H591 H 0.20144 0.45515 0.73527 0.0
H592 H 0.20975 0.39873 0.74055 0.0
H593 H 0.22361 0.42148 0.71436 0.0
H594 H 0.24103 0.40326 0.82764 0.0
H595 H 0.25473 0.42594 0.80166 0.0
H596 H 0.30797 0.48042 0.71787 0.0
H597 H 0.31013 0.51071 0.62974 0.0
H598 H 0.28667 0.50208 0.63977 0.0
H599 H 0.28433 0.47163 0.72672 0.0
C600 C 0.43591 0.89908 0.61733 0.0
C601 C 0.43017 0.88541 0.61105 0.0
C602 C 0.40879 0.88206 0.63349 0.0
C603 C 0.41674 0.87699 0.61894 0.0
C604 C 0.41468 0.89575 0.64047 0.0
C605 C 0.42808 0.90415 0.63241 0.0
U606 U 0.47216 0.90831 0.60579 0.0
O607 O 0.48644 0.92007 0.55338 0.0
O608 O 0.49007 0.9269 0.62301 0.0
C609 C 0.49394 0.92959 0.58117 0.0
C610 C 0.44986 0.90831 0.60701 0.0
C611 C 0.49855 0.94321 0.56547 0.0
C612 C 0.49863 0.96402 0.56824 0.0
C613 C 0.49353 0.95093 0.58259 0.0
C614 C 0.5136 0.96173 0.51899 0.0
C615 C 0.50877 0.9696 0.5363 0.0
C616 C 0.50856 0.94871 0.53345 0.0
C617 C 0.48226 0.88232 0.63239 0.0
C618 C 0.50389 0.88596 0.65198 0.0
C619 C 0.48679 0.86426 0.62886 0.0
C620 C 0.47816 0.86907 0.62342 0.0
C621 C 0.49975 0.8726 0.64356 0.0
C622 C 0.49524 0.89078 0.64633 0.0
C623 C 0.47266 0.88687 0.62839 0.0
O624 O 0.45802 0.91216 0.64107 0.0
O625 O 0.45454 0.90566 0.57113 0.0
O626 O 0.47008 0.88912 0.58762 0.0
O627 O 0.47376 0.89579 0.65738 0.0
H628 H 0.43603 0.88125 0.59966 0.0
H629 H 0.41258 0.86649 0.61378 0.0
H630 H 0.40888 0.90005 0.65112 0.0
H631 H 0.4323 0.91467 0.63735 0.0
H632 H 0.49457 0.96974 0.58194 0.0
H633 H 0.48576 0.9469 0.60724 0.0
H634 H 0.52153 0.96571 0.49493 0.0
H635 H 0.51262 0.94296 0.51995 0.0
H636 H 0.51384 0.89271 0.66277 0.0
H637 H 0.48318 0.8539 0.62257 0.0
H638 H 0.46818 0.86236 0.61277 0.0
H639 H 0.49867 0.90108 0.65323 0.0
C640 C 0.14531 0.60848 0.61819 0.0
C641 C 0.15822 0.6157 0.60192 0.0
C642 C 0.16139 0.63559 0.63953 0.0
C643 C 0.16616 0.62913 0.61238 0.0
C644 C 0.14852 0.62824 0.6562 0.0
C645 C 0.14059 0.61488 0.64557 0.0
U646 U 0.13626 0.5721 0.60093 0.0
O647 O 0.11779 0.55393 0.61664 0.0
O648 O 0.12455 0.5583 0.54711 0.0
C649 C 0.11507 0.55049 0.57441 0.0
C650 C 0.13632 0.59453 0.60564 0.0
C651 C 0.10154 0.5461 0.55919 0.0
C652 C 0.08076 0.54574 0.56522 0.0
C653 C 0.0938 0.55072 0.57892 0.0
C654 C 0.08311 0.53169 0.51135 0.0
C655 C 0.07522 0.5361 0.53135 0.0
C656 C 0.09609 0.53662 0.52517 0.0
C657 C 0.16205 0.56169 0.62555 0.0
C658 C 0.15881 0.54011 0.64592 0.0
C659 C 0.18 0.55718 0.61935 0.0
C660 C 0.17509 0.56578 0.61452 0.0
C661 C 0.17197 0.54427 0.63554 0.0
C662 C 0.15388 0.54872 0.64087 0.0
C663 C 0.15749 0.57133 0.62271 0.0
O664 O 0.13908 0.59026 0.56893 0.0
O665 O 0.13227 0.58589 0.63842 0.0
O666 O 0.14857 0.57 0.65185 0.0
O667 O 0.15534 0.57428 0.58232 0.0
H668 H 0.16215 0.61103 0.58081 0.0
H669 H 0.17606 0.63443 0.59937 0.0
H670 H 0.14444 0.6329 0.67664 0.0
H671 H 0.13065 0.60956 0.65826 0.0
H672 H 0.07503 0.54948 0.58101 0.0
H673 H 0.09779 0.55807 0.60516 0.0
H674 H 0.07917 0.52416 0.48569 0.0
H675 H 0.10184 0.53286 0.50964 0.0
H676 H 0.15229 0.53019 0.65789 0.0
H677 H 0.19021 0.5608 0.61154 0.0
H678 H 0.18159 0.57575 0.60283 0.0
H679 H 0.14375 0.54529 0.64941 0.0
C680 C 0.4353 0.54351 0.6111 0.0
C681 C 0.43105 0.55061 0.63705 0.0
C682 C 0.40818 0.53333 0.62635 0.0
C683 C 0.41762 0.54556 0.64464 0.0
C684 C 0.41256 0.5264 0.59985 0.0
C685 C 0.42596 0.53143 0.5924 0.0
U686 U 0.47172 0.57081 0.60755 0.0
O687 O 0.48912 0.5702 0.63121 0.0
O688 O 0.48715 0.57361 0.56015 0.0
C689 C 0.49396 0.57155 0.59074 0.0
C690 C 0.44937 0.54831 0.60386 0.0
C691 C 0.49884 0.56255 0.57873 0.0
C692 C 0.49721 0.54384 0.53765 0.0
C693 C 0.49192 0.55177 0.54977 0.0
C694 C 0.51624 0.55722 0.58384 0.0
C695 C 0.50947 0.54649 0.55446 0.0
C696 C 0.51099 0.56513 0.59575 0.0
C697 C 0.48115 0.60676 0.63629 0.0
C698 C 0.50097 0.62733 0.61709 0.0
C699 C 0.48656 0.62713 0.67497 0.0
C700 C 0.47825 0.61358 0.66852 0.0
C701 C 0.49801 0.63423 0.64922 0.0
C702 C 0.49264 0.61372 0.61077 0.0
C703 C 0.47177 0.59257 0.62928 0.0
O704 O 0.45473 0.55597 0.5689 0.0
O705 O 0.45688 0.55241 0.63961 0.0
O706 O 0.47209 0.58445 0.65895 0.0
O707 O 0.47031 0.58816 0.58804 0.0
H708 H 0.4381 0.55997 0.65181 0.0
H709 H 0.41466 0.55114 0.66554 0.0
H710 H 0.40563 0.51709 0.58449 0.0
H711 H 0.42903 0.52583 0.57211 0.0
H712 H 0.49166 0.53559 0.51535 0.0
H713 H 0.4825 0.54954 0.5363 0.0
H714 H 0.52578 0.5597 0.59694 0.0
H715 H 0.51652 0.57343 0.61795 0.0
H716 H 0.50977 0.63244 0.59701 0.0
H717 H 0.48384 0.63209 0.6995 0.0
H718 H 0.46941 0.60842 0.68843 0.0
H719 H 0.49513 0.60867 0.58578 0.0
H720 H 0.21884 0.05256 0.95854 0.0
H721 H 0.16117 0.98277 0.04774 0.0
H722 H 0.19395 0.04788 0.07079 0.0
H723 H 0.18469 0.98661 0.93224 0.0
H724 H 0.17406 1.00656 0.05879 0.0
H725 H 0.20763 0.02849 0.95094 0.0
C726 C 0.21112 0.04649 0.98187 0.0
C727 C 0.20729 0.05232 0.01518 0.0
C728 C 0.17646 1.00223 0.03106 0.0
C729 C 0.19432 0.02471 0.00638 0.0
C730 C 0.16904 0.98861 0.02456 0.0
C731 C 0.17172 0.98262 0.98867 0.0
C732 C 0.18672 1.01006 0.00149 0.0
C733 C 0.18228 0.99075 0.96047 0.0
C734 C 0.20466 0.03274 0.97732 0.0
C735 C 0.1971 0.0439 0.0441 0.0
N736 N 0.18933 1.00404 0.9673 0.0
N737 N 0.19098 0.03059 0.03894 0.0
H738 H 0.99271 0.15846 0.93598 0.0
H739 H 0.06108 0.21391 0.04093 0.0
H740 H 0.99632 0.17461 0.06826 0.0
H741 H 0.05755 0.1962 0.91149 0.0
H742 H 0.03739 0.19994 0.05109 0.0
H743 H 1.01636 0.17247 0.92609 0.0
C744 C 0.99846 0.1649 0.96309 0.0
C745 C 0.99243 0.16526 0.00316 0.0
C746 C 0.04179 0.19909 0.02047 0.0
C747 C 1.01966 0.18152 0.99176 0.0
C748 C 0.05533 0.20712 0.01454 0.0
C749 C 0.06138 0.20628 0.97522 0.0
C750 C 0.03415 0.19015 0.98681 0.0
C751 C 0.05339 0.19712 0.94257 0.0
C752 C 1.01199 0.17296 0.95731 0.0
C753 C 1.00045 0.17406 0.03663 0.0
N754 N 0.04023 0.18946 0.94904 0.0
N755 N 1.01362 0.18179 0.03022 0.0
H756 H 0.85349 0.81352 0.99163 0.0
H757 H 0.86479 0.88683 0.00346 0.0
H758 H 0.88969 0.84732 0.03547 0.0
H759 H 0.82907 0.85326 0.95529 0.0
H760 H 0.87406 0.87256 0.01513 0.0
H761 H 0.84438 0.82788 0.97852 0.0
C762 C 0.85953 0.82395 -0.00128 0.0
C763 C 0.8724 0.82917 0.01494 0.0
C764 C 0.86419 0.8683 0.00197 0.0
C765 C 0.86199 0.84576 -0.00054 0.0
C766 C 0.8589 0.87648 0.995 0.0
C767 C 0.8461 0.87131 0.97814 0.0
C768 C 0.85667 0.85478 0.99215 0.0
C769 C 0.8389 0.85772 0.9688 0.0
C770 C 0.85432 0.83217 0.99095 0.0
C771 C 0.87978 0.84284 0.02258 0.0
N772 N 0.84428 0.84996 0.97588 0.0
N773 N 0.87447 0.85063 0.01492 0.0
H774 H 0.84846 0.0499 0.02904 0.0
H775 H 0.85333 0.98598 0.96675 0.0
H776 H 0.88536 0.05091 0.01592 0.0
H777 H 0.81697 0.98586 0.98409 0.0
H778 H 0.86538 1.00957 0.985 0.0
H779 H 0.83696 0.02638 0.01258 0.0
C780 C 0.85418 0.04518 0.02304 0.0
C781 C 0.86795 0.05247 0.02427 0.0
C782 C 0.85477 1.00437 0.98478 0.0
C783 C 0.85472 0.02534 0.00459 0.0
C784 C 0.84786 0.99087 0.9746 0.0
C785 C 0.83408 0.98387 0.97354 0.0
C786 C 0.84785 1.01095 0.99413 0.0
C787 C 0.82757 0.99083 0.98361 0.0
C788 C 0.84757 0.03171 0.01333 0.0
C789 C 0.87476 0.04576 0.01505 0.0
N790 N 0.83449 1.00392 0.99339 0.0
N791 N 0.86809 0.03259 0.00571 0.0
H792 H 0.06193 0.88109 0.96258 0.0
H793 H 0.99159 0.81649 0.00144 0.0
H794 H 0.05624 0.84189 0.97572 0.0
H795 H 0.99803 0.85612 0.00181 0.0
H796 H 1.01515 0.82552 0.99127 0.0
H797 H 0.03853 0.87208 0.97601 0.0
C798 C 0.05581 0.8706 0.96858 0.0
C799 C 0.06117 0.86227 0.96791 0.0
C800 C 1.01141 0.83225 0.99362 0.0
C801 C 0.03418 0.85182 0.98277 0.0
C802 C 0.99793 0.82709 -0.00029 0.0
C803 C 0.99271 0.83552 0.00239 0.0
C804 C 1.0198 0.84596 0.9901 0.0
C805 C 1.0015 0.84919 -0.00082 0.0
C806 C 0.0424 0.86545 0.97601 0.0
C807 C 0.0526 0.84871 0.97517 0.0
N808 N 1.01455 0.85395 0.99315 0.0
N809 N 0.03958 0.84392 0.98222 0.0
H810 H 0.20426 0.15787 0.9669 0.0
H811 H 0.19037 0.21704 0.01551 0.0
H812 H 0.22936 0.19171 0.04837 0.0
H813 H 0.16466 0.18266 0.93726 0.0
H814 H 0.20512 0.20828 0.02582 0.0
H815 H 0.18984 0.16694 0.95469 0.0
C816 C 0.20673 0.16717 0.98244 0.0
C817 C 0.2181 0.174 0.00874 0.0
C818 C 0.19626 0.20265 0.00634 0.0
C819 C 0.20162 0.18456 0.99439 0.0
C820 C 0.18786 0.2077 0.00016 0.0
C821 C 0.17619 0.20059 0.97553 0.0
C822 C 0.19304 0.19038 0.98772 0.0
C823 C 0.17342 0.18843 0.95707 0.0
C824 C 0.19851 0.17239 0.9752 0.0
C825 C 0.22084 0.18615 0.02732 0.0
N826 N 0.18175 0.18372 0.96355 0.0
N827 N 0.21268 0.19101 0.01984 0.0
H828 H 0.84426 0.3159 0.37785 0.0
H829 H 0.87195 0.38665 0.26105 0.0
H830 H 0.83824 0.32128 0.23881 0.0
H831 H 0.87602 0.38169 0.40212 0.0
H832 H 0.86085 0.36275 0.25166 0.0
H833 H 0.85727 0.33989 0.38655 0.0
C834 C 0.84577 0.3221 0.34902 0.0
C835 C 0.84006 0.3165 0.30755 0.0
C836 C 0.8642 0.36687 0.28468 0.0
C837 C 0.85489 0.34406 0.31743 0.0
C838 C 0.8705 0.38055 0.29014 0.0
C839 C 0.87486 0.38626 0.33255 0.0
C840 C 0.86218 0.35873 0.32187 0.0
C841 C 0.87293 0.37779 0.36873 0.0
C842 C 0.85314 0.33582 0.3541 0.0
C843 C 0.84225 0.3251 0.27159 0.0
N844 N 0.86668 0.36447 0.36261 0.0
N845 N 0.84944 0.3384 0.27738 0.0
H846 H 0.65965 0.49197 0.27079 0.0
H847 H 0.72723 0.54955 0.37329 0.0
H848 H 0.66243 0.50972 0.39966 0.0
H849 H 0.7245 0.52966 0.24906 0.0
H850 H 0.70351 0.53555 0.38278 0.0
H851 H 0.68329 0.50611 0.26163 0.0
C852 C 0.66522 0.49879 0.29732 0.0
C853 C 0.65896 0.49954 0.33624 0.0
C854 C 0.7081 0.53423 0.35348 0.0
C855 C 0.68619 0.51597 0.32563 0.0
C856 C 0.72166 0.54227 0.34791 0.0
C857 C 0.72794 0.54082 0.31026 0.0
C858 C 0.70068 0.52466 0.32109 0.0
C859 C 0.72016 0.53105 0.27888 0.0
C860 C 0.67875 0.50693 0.29194 0.0
C861 C 0.66674 0.50884 0.36892 0.0
N862 N 0.70698 0.5234 0.28494 0.0
N863 N 0.67992 0.51664 0.36292 0.0
H864 H 0.55474 0.17869 0.38101 0.0
H865 H 0.49688 0.18667 0.27173 0.0
H866 H 0.52249 0.14783 0.30687 0.0
H867 H 0.5286 0.21706 0.34911 0.0
H868 H 0.50613 0.17234 0.2838 0.0
H869 H 0.54557 0.19304 0.36815 0.0
C870 C 0.54579 0.17494 0.36175 0.0
C871 C 0.5394 0.16198 0.3451 0.0
C872 C 0.51107 0.18215 0.29812 0.0
C873 C 0.52871 0.17838 0.33063 0.0
C874 C 0.50574 0.19033 0.29147 0.0
C875 C 0.51195 0.20315 0.3093 0.0
C876 C 0.52272 0.18678 0.32287 0.0
C877 C 0.52355 0.20736 0.33405 0.0
C878 C 0.5405 0.18313 0.35466 0.0
C879 C 0.52769 0.15766 0.32095 0.0
N880 N 0.52853 0.19922 0.34007 0.0
N881 N 0.52274 0.16581 0.31446 0.0
H882 H 0.53948 0.38812 0.27858 0.0
H883 H 0.50383 0.31415 0.37458 0.0
H884 H 0.53437 0.37874 0.41934 0.0
H885 H 0.50577 0.32347 0.23414 0.0
H886 H 0.5165 0.33775 0.39136 0.0
H887 H 0.52868 0.36455 0.26155 0.0
C888 C 0.53621 0.38113 0.30596 0.0
C889 C 0.53782 0.38548 0.35051 0.0
C890 C 0.51419 0.33464 0.35685 0.0
C891 C 0.52529 0.35836 0.33115 0.0
C892 C 0.50702 0.32114 0.34719 0.0
C893 C 0.50366 0.31676 0.30284 0.0
C894 C 0.51811 0.3439 0.32194 0.0
C895 C 0.50795 0.32635 0.26887 0.0
C896 C 0.52995 0.36764 0.29618 0.0
C897 C 0.5332 0.37588 0.38449 0.0
N898 N 0.51492 0.33943 0.27912 0.0
N899 N 0.52715 0.36282 0.37412 0.0
H900 H 0.66415 0.18924 0.32766 0.0
H901 H 0.72377 0.1749 0.32156 0.0
H902 H 0.65918 0.15039 0.34348 0.0
H903 H 0.72805 0.21291 0.29196 0.0
H904 H 0.70031 0.16597 0.333 0.0
H905 H 0.68767 0.19823 0.31785 0.0
C906 C 0.66796 0.18256 0.32884 0.0
C907 C 0.65955 0.16898 0.33617 0.0
C908 C 0.70638 0.17627 0.32403 0.0
C909 C 0.68668 0.17933 0.32556 0.0
C910 C 0.7198 0.18138 0.31721 0.0
C911 C 0.72799 0.19471 0.30548 0.0
C912 C 0.701 0.18451 0.31925 0.0
C913 C 0.72222 0.20263 0.30139 0.0
C914 C 0.68144 0.18774 0.32348 0.0
C915 C 0.66521 0.16092 0.33837 0.0
N916 N 0.70912 0.19741 0.30816 0.0
N917 N 0.67838 0.16621 0.333 0.0
H918 H 0.88008 0.50264 0.28856 0.0
H919 H 0.84463 0.53854 0.4011 0.0
H920 H 0.8836 0.51311 0.42822 0.0
H921 H 0.84302 0.5306 0.25969 0.0
H922 H 0.85855 0.52885 0.41163 0.0
H923 H 0.86603 0.51222 0.27743 0.0
C924 C 0.87784 0.50686 0.31697 0.0
C925 C 0.88308 0.50706 0.35941 0.0
C926 C 0.85518 0.52923 0.37825 0.0
C927 C 0.86706 0.5182 0.34676 0.0
C928 C 0.84717 0.53472 0.37223 0.0
C929 C 0.84258 0.53538 0.32943 0.0
C930 C 0.85865 0.52427 0.34127 0.0
C931 C 0.84641 0.53045 0.29323 0.0
C932 C 0.86988 0.51243 0.31051 0.0
C933 C 0.87995 0.51287 0.39478 0.0
N934 N 0.85416 0.52507 0.29999 0.0
N935 N 0.87216 0.51817 0.38767 0.0
H936 H 0.54443 0.71923 0.60973 0.0
H937 H 0.50502 0.64826 0.72783 0.0
H938 H 0.53712 0.71362 0.75163 0.0
H939 H 0.51061 0.65348 0.5851 0.0
H940 H 0.51788 0.67216 0.7373 0.0
H941 H 0.53341 0.69526 0.60032 0.0
C942 C 0.54063 0.71298 0.639 0.0
C943 C 0.54168 0.71851 0.68156 0.0
C944 C 0.51634 0.6681 0.70388 0.0
C945 C 0.52889 0.69097 0.67089 0.0
C946 C 0.50893 0.65442 0.69841 0.0
C947 C 0.5066 0.64878 0.65553 0.0
C948 C 0.52151 0.67631 0.66625 0.0
C949 C 0.5122 0.65732 0.61882 0.0
C950 C 0.53426 0.69928 0.63354 0.0
C951 C 0.53638 0.70985 0.7181 0.0
N952 N 0.51931 0.67063 0.625 0.0
N953 N 0.53022 0.69656 0.71191 0.0
H954 H 0.3914 0.86101 0.5822 0.0
H955 H 0.32852 0.84419 0.73218 0.0
H956 H 0.39323 0.88295 0.70034 0.0
H957 H 0.32666 0.8239 0.6097 0.0
H958 H 0.35218 0.85838 0.72164 0.0
H959 H 0.36777 0.84698 0.59301 0.0
C960 C 0.38687 0.86282 0.61065 0.0
C961 C 0.39439 0.87321 0.6404 0.0
C962 C 0.34659 0.85083 0.69705 0.0
C963 C 0.36717 0.8572 0.65274 0.0
C964 C 0.33304 0.84276 0.70289 0.0
C965 C 0.32551 0.83276 0.67188 0.0
C966 C 0.35273 0.84892 0.65989 0.0
C967 C 0.33203 0.8313 0.63494 0.0
C968 C 0.37333 0.85485 0.61663 0.0
C969 C 0.38785 0.87518 0.67621 0.0
N970 N 0.34521 0.83925 0.63005 0.0
N971 N 0.37466 0.86726 0.68138 0.0
H972 H 0.18915 0.54106 0.58215 0.0
H973 H 0.19367 0.48944 0.74698 0.0
H974 H 0.1674 0.52717 0.70532 0.0
H975 H 0.21437 0.50199 0.62145 0.0
H976 H 0.18413 0.50333 0.73236 0.0
H977 H 0.19864 0.52703 0.59608 0.0
C978 C 0.18638 0.53509 0.6122 0.0
C979 C 0.17744 0.53535 0.64262 0.0
C980 C 0.19075 0.50306 0.70796 0.0
C981 C 0.18828 0.51916 0.65869 0.0
C982 C 0.19618 0.49505 0.71618 0.0
C983 C 0.20482 0.49444 0.68533 0.0
C984 C 0.19396 0.51058 0.66854 0.0
C985 C 0.20787 0.50221 0.64647 0.0
C986 C 0.19177 0.52703 0.62003 0.0
C987 C 0.1741 0.52721 0.68062 0.0
N988 N 0.20244 0.50991 0.63917 0.0
N989 N 0.17954 0.51951 0.6876 0.0
H990 H 0.1636 0.64821 0.71915 0.0
H991 H 0.21003 0.72108 0.62179 0.0
H992 H 0.17792 0.65584 0.58346 0.0
H993 H 0.19588 0.7129 0.75767 0.0
H994 H 0.19928 0.69731 0.60778 0.0
H995 H 0.17608 0.67187 0.73429 0.0
C996 C 0.16935 0.65485 0.69246 0.0
C997 C 0.16961 0.64997 0.64983 0.0
C998 C 0.19857 0.70072 0.64071 0.0
C999 C 0.18407 0.67722 0.66712 0.0
C1000 C 0.20478 0.71431 0.64884 0.0
C1001 C 0.20382 0.71907 0.69095 0.0
C1002 C 0.19133 0.69176 0.67492 0.0
C1003 C 0.19671 0.70976 0.72445 0.0
C1004 C 0.17654 0.66839 0.70122 0.0
C1005 C 0.17748 0.6591 0.61691 0.0
N1006 N 0.19074 0.69661 0.71568 0.0
N1007 N 0.18432 0.67226 0.62616 0.0
H1008 H 0.38924 0.50742 0.64096 0.0
H1009 H 0.33044 0.52245 0.66891 0.0
H1010 H 0.39431 0.54645 0.63155 0.0
H1011 H 0.32477 0.48312 0.66606 0.0
H1012 H 0.35393 0.53144 0.65832 0.0
H1013 H 0.3658 0.49843 0.65313 0.0
C1014 C 0.38545 0.51412 0.64119 0.0
C1015 C 0.39386 0.52776 0.63492 0.0
C1016 C 0.34756 0.52084 0.66002 0.0
C1017 C 0.36689 0.51746 0.64958 0.0
C1018 C 0.3341 0.51567 0.66582 0.0
C1019 C 0.3255 0.50196 0.66813 0.0
C1020 C 0.35259 0.51228 0.65655 0.0
C1021 C 0.33096 0.49374 0.66492 0.0
C1022 C 0.37204 0.50897 0.64843 0.0
C1023 C 0.38831 0.53592 0.63663 0.0
N1024 N 0.34411 0.49901 0.65921 0.0
N1025 N 0.37521 0.53065 0.64369 0.0
H1026 H 0.51743 0.87824 0.71191 0.0
H1027 H 0.54159 0.82926 0.62497 0.0
H1028 H 0.50258 0.85471 0.59228 0.0
H1029 H 0.55509 0.85157 0.74752 0.0
H1030 H 0.52735 0.83852 0.61212 0.0
H1031 H 0.53166 0.86896 0.72443 0.0
C1032 C 0.51723 0.8712 0.68803 0.0
C1033 C 0.50876 0.86728 0.65094 0.0
C1034 C 0.53342 0.84138 0.64185 0.0
C1035 C 0.52498 0.85645 0.66544 0.0
C1036 C 0.54151 0.83602 0.64939 0.0
C1037 C 0.54962 0.83962 0.6874 0.0
C1038 C 0.53339 0.85044 0.6725 0.0
C1039 C 0.54919 0.84863 0.7174 0.0
C1040 C 0.5253 0.86583 0.6954 0.0
C1041 C 0.50881 0.85793 0.62163 0.0
N1042 N 0.54125 0.85371 0.7093 0.0
N1043 N 0.51677 0.85286 0.62948 0.0
H1044 H 0.33452 0.17062 0.06374 0.0
H1045 H 0.38587 0.18774 0.26444 0.0
H1046 H 0.32344 0.1568 0.19923 0.0
H1047 H 0.39753 0.20146 0.12917 0.0
H1048 H 0.36293 0.17724 0.24148 0.0
H1049 H 0.35751 0.18299 0.08742 0.0
C1050 C 0.33688 0.17027 0.09855 0.0
C1051 C 0.32696 0.16256 0.12943 0.0
C1052 C 0.37049 0.18257 0.21677 0.0
C1053 C 0.35337 0.17663 0.15673 0.0
C1054 C 0.38363 0.18854 0.22984 0.0
C1055 C 0.39372 0.19544 0.19868 0.0
C1056 C 0.3673 0.18345 0.17207 0.0
C1057 C 0.39012 0.19634 0.15449 0.0
C1058 C 0.35004 0.17729 0.112 0.0
C1059 C 0.33071 0.1624 0.174 0.0
N1060 N 0.37724 0.19035 0.14248 0.0
N1061 N 0.34356 0.16928 0.18621 0.0
H1062 H 0.83526 0.18862 0.21474 0.0
H1063 H 0.90203 0.19612 0.11748 0.0
H1064 H 0.86978 0.22582 0.18344 0.0
H1065 H 0.86858 0.15844 0.15209 0.0
H1066 H 0.88987 0.2069 0.13961 0.0
H1067 H 0.84668 0.17716 0.18951 0.0
C1068 C 0.8452 0.19439 0.20238 0.0
C1069 C 0.85158 0.20824 0.20162 0.0
C1070 C 0.88515 0.19627 0.14242 0.0
C1071 C 0.86474 0.19517 0.17286 0.0
C1072 C 0.89214 0.19009 0.13001 0.0
C1073 C 0.88641 0.17632 0.13328 0.0
C1074 C 0.87225 0.1887 0.15832 0.0
C1075 C 0.8734 0.16906 0.14873 0.0
C1076 C 0.85174 0.18783 0.18818 0.0
C1077 C 0.86452 0.21516 0.18553 0.0
N1078 N 0.86679 0.17533 0.16083 0.0
N1079 N 0.87063 0.20857 0.17192 0.0
H1080 H 0.84903 0.64677 0.1191 0.0
H1081 H 0.88041 0.7227 0.19037 0.0
H1082 H 0.84891 0.65925 0.25466 0.0
H1083 H 0.8812 0.70978 0.05597 0.0
H1084 H 0.86773 0.69959 0.21395 0.0
H1085 H 0.85979 0.66977 0.09502 0.0
C1086 C 0.85128 0.65434 0.14388 0.0
C1087 C 0.84811 0.651 0.18911 0.0
C1088 C 0.87064 0.70181 0.17927 0.0
C1089 C 0.86042 0.67752 0.16154 0.0
C1090 C 0.87782 0.71502 0.16568 0.0
C1091 C 0.88198 0.71825 0.12109 0.0
C1092 C 0.86753 0.6917 0.14807 0.0
C1093 C 0.87843 0.70783 0.09083 0.0
C1094 C 0.85738 0.6675 0.13003 0.0
C1095 C 0.85105 0.66129 0.21942 0.0
N1096 N 0.87147 0.69507 0.10487 0.0
N1097 N 0.85709 0.67406 0.20515 0.0
H1098 H 0.1759 0.31353 0.79919 0.0
H1099 H 0.22175 0.38921 0.87131 0.0
H1100 H 0.19009 0.32609 0.93355 0.0
H1101 H 0.20807 0.37708 0.73625 0.0
H1102 H 0.20936 0.36618 0.89506 0.0
H1103 H 0.18654 0.33669 0.77611 0.0
C1104 C 0.18113 0.32114 0.82399 0.0
C1105 C 0.18212 0.31779 0.86842 0.0
C1106 C 0.20902 0.36854 0.86023 0.0
C1107 C 0.19449 0.34441 0.84199 0.0
C1108 C 0.21616 0.38171 0.84657 0.0
C1109 C 0.21607 0.38515 0.80158 0.0
C1110 C 0.2017 0.35861 0.82877 0.0
C1111 C 0.20839 0.37495 0.77132 0.0
C1112 C 0.18728 0.33438 0.81068 0.0
C1113 C 0.18921 0.32814 0.8988 0.0
N1114 N 0.20159 0.36217 0.7854 0.0
N1115 N 0.19513 0.34092 0.88503 0.0
H1116 H 0.72106 0.86379 0.9167 0.0
H1117 H 0.66951 0.83144 0.71512 0.0
H1118 H 0.73195 0.86147 0.78081 0.0
H1119 H 0.65807 0.83214 0.85159 0.0
H1120 H 0.69248 0.84354 0.73813 0.0
H1121 H 0.69811 0.85352 0.89301 0.0
C1122 C 0.71866 0.86125 0.8818 0.0
C1123 C 0.72851 0.86347 0.8508 0.0
C1124 C 0.68496 0.84109 0.76308 0.0
C1125 C 0.70215 0.85156 0.82347 0.0
C1126 C 0.6718 0.83411 0.74998 0.0
C1127 C 0.66176 0.83064 0.78146 0.0
C1128 C 0.68821 0.84467 0.80812 0.0
C1129 C 0.66543 0.83466 0.82601 0.0
C1130 C 0.70553 0.8553 0.86835 0.0
C1131 C 0.72472 0.85978 0.80611 0.0
N1132 N 0.67833 0.84139 0.83802 0.0
N1133 N 0.71189 0.85401 0.79388 0.0
H1134 H 0.20754 0.83871 0.73763 0.0
H1135 H 0.19122 0.8737 0.93759 0.0
H1136 H 0.2231 0.84332 0.87131 0.0
H1137 H 0.17632 0.87037 0.80343 0.0
H1138 H 0.20203 0.86158 0.91447 0.0
H1139 H 0.195 0.84905 0.76173 0.0
C1140 C 0.20824 0.84177 0.77215 0.0
C1141 C 0.21648 0.84017 0.80237 0.0
C1142 C 0.19637 0.86345 0.89005 0.0
C1143 C 0.2022 0.85218 0.83014 0.0
C1144 C 0.19023 0.87045 0.9032 0.0
C1145 C 0.1829 0.87319 0.87239 0.0
C1146 C 0.19524 0.85912 0.84562 0.0
C1147 C 0.18177 0.86843 0.82849 0.0
C1148 C 0.20112 0.84776 0.78582 0.0
C1149 C 0.21707 0.84452 0.84656 0.0
N1150 N 0.18792 0.86171 0.81639 0.0
N1151 N 0.21008 0.85032 0.85901 0.0
H1152 H 0.05363 0.52931 0.58423 0.0
H1153 H 1.00229 0.49887 0.38132 0.0
H1154 H 0.06477 0.52981 0.44659 0.0
H1155 H 0.99067 0.49768 0.51873 0.0
H1156 H 1.02525 0.51115 0.4045 0.0
H1157 H 0.03065 0.5189 0.56079 0.0
C1158 C 0.05129 0.52737 0.54903 0.0
C1159 C 0.06122 0.53041 0.51742 0.0
C1160 C 1.01769 0.50825 0.42963 0.0
C1161 C 0.03482 0.51832 0.49035 0.0
C1162 C 1.00455 0.50117 0.41642 0.0
C1163 C 0.99446 0.49711 0.4481 0.0
C1164 C 1.02089 0.51134 0.47499 0.0
C1165 C 0.99807 0.50066 0.49301 0.0
C1166 C 0.03813 0.52134 0.53569 0.0
C1167 C 0.05749 0.52746 0.47232 0.0
N1168 N 1.01095 0.50749 0.50512 0.0
N1169 N 0.04464 0.52158 0.46023 0.0
H1170 H 0.54069 0.50466 0.40531 0.0
H1171 H 0.52305 0.5381 0.60683 0.0
H1172 H 0.55531 0.50817 0.53997 0.0
H1173 H 0.50945 0.53625 0.47148 0.0
H1174 H 0.53386 0.52601 0.58349 0.0
H1175 H 0.52803 0.51487 0.42952 0.0
C1176 C 0.54115 0.50745 0.44006 0.0
C1177 C 0.54917 0.50558 0.47055 0.0
C1178 C 0.52848 0.5282 0.55885 0.0
C1179 C 0.53475 0.51743 0.49845 0.0
C1180 C 0.52234 0.53518 0.57214 0.0
C1181 C 0.51538 0.53833 0.54106 0.0
C1182 C 0.52773 0.5243 0.51403 0.0
C1183 C 0.51461 0.53398 0.49675 0.0
C1184 C 0.53397 0.51336 0.4538 0.0
C1185 C 0.54947 0.50958 0.51505 0.0
N1186 N 0.52076 0.52727 0.48454 0.0
N1187 N 0.54241 0.51531 0.52755 0.0
H1188 H 0.54788 0.04236 0.38387 0.0
H1189 H 0.51443 0.99146 0.587 0.0
H1190 H 0.54659 0.05459 0.51884 0.0
H1191 H 0.51631 0.97981 0.45168 0.0
H1192 H 0.525 1.01449 0.56234 0.0
H1193 H 0.53537 0.01937 0.4078 0.0
C1194 C 0.54499 0.04023 0.4186 0.0
C1195 C 0.54842 0.0505 0.4494 0.0
C1196 C 0.52305 1.00688 0.53802 0.0
C1197 C 0.53392 0.02402 0.47713 0.0
C1198 C 0.51693 0.9937 0.55203 0.0
C1199 C 0.51452 0.98362 0.52148 0.0
C1200 C 0.52679 1.01006 0.49306 0.0
C1201 C 0.51816 0.98722 0.47666 0.0
C1202 C 0.53777 0.02706 0.43223 0.0
C1203 C 0.54412 0.04705 0.4938 0.0
N1204 N 0.52412 1.0001 0.46392 0.0
N1205 N 0.53717 0.03413 0.50636 0.0
loop_
_geom_bond_atom_site_label_1
_geom_bond_atom_site_label_2
_geom_bond_distance
_geom_bond_site_symmetry_2
_ccdc_geom_bond_type
C0 C1 1.264 1_554 S
C0 C5 1.479 . S
C0 C10 1.465 . S
C1 C0 1.264 1_556 S
C1 C3 1.339 . S
C1 H28 0.931 . S
C2 C3 1.395 1_554 S
C2 C4 1.320 . S
C3 C1 1.339 . S
C3 C2 1.395 1_556 S
C3 H29 0.929 . S
C4 C2 1.320 . S
C4 C5 1.405 . S
C4 H30 0.930 . S
C5 C0 1.479 . S
C5 C4 1.405 . S
C5 H31 0.931 . S
U6 O7 2.454 . S
U6 O8 2.458 . S
U6 C9 2.984 . S
U6 C10 2.847 . S
U6 C23 2.885 . S
U6 O24 2.441 . S
U6 O25 2.420 1_554 S
U6 O26 2.455 . S
U6 O27 2.449 1_554 S
O7 U6 2.454 . S
O7 C9 1.353 . S
O8 U6 2.458 . S
O8 C9 1.286 . S
C9 U6 2.984 . S
C9 O7 1.353 . S
C9 O8 1.286 . S
C9 C11 1.363 . S
C10 C0 1.465 . S
C10 U6 2.847 . S
C10 O24 1.249 . S
C10 O25 1.202 1_554 S
C11 C9 1.363 . S
C11 C13 1.408 . S
C11 C16 1.342 . S
C12 C13 1.310 . S
C12 C15 1.461 . S
C12 H32 0.932 . S
C13 C11 1.408 . S
C13 C12 1.310 . S
C13 H33 0.930 . S
C14 C15 1.474 . S
C14 C16 1.285 . S
C14 H34 0.929 . S
C15 C12 1.461 . S
C15 C14 1.474 . S
C16 C11 1.342 . S
C16 C14 1.285 . S
C16 H35 0.930 . S
C17 C20 1.423 1_554 S
C17 C22 1.248 . S
C17 C23 1.428 . S
C18 C21 1.260 . S
C18 C22 1.477 . S
C18 H36 0.932 . S
C19 C20 1.384 . S
C19 C21 1.479 1_556 S
C19 H37 0.929 . S
C20 C17 1.423 1_556 S
C20 C19 1.384 . S
C20 H38 0.928 . S
C21 C18 1.260 . S
C21 C19 1.479 1_554 S
C22 C17 1.248 . S
C22 C18 1.477 . S
C22 H39 0.932 . S
C23 U6 2.885 . S
C23 C17 1.428 . S
C23 O26 1.305 . S
C23 O27 1.279 1_554 S
O24 U6 2.441 . S
O24 C10 1.249 . S
O25 U6 2.420 1_556 S
O25 C10 1.202 1_556 S
O26 U6 2.455 . S
O26 C23 1.305 . S
O27 U6 2.449 1_556 S
O27 C23 1.279 1_556 S
H28 C1 0.931 . S
H29 C3 0.929 . S
H30 C4 0.930 . S
H31 C5 0.931 . S
H32 C12 0.932 . S
H33 C13 0.930 . S
H34 C14 0.929 . S
H35 C16 0.930 . S
H36 C18 0.932 . S
H37 C19 0.929 . S
H38 C20 0.928 . S
H39 C22 0.932 . S
C40 C41 1.264 . S
C40 C45 1.479 . S
C40 C50 1.465 . S
C41 C40 1.264 . S
C41 C43 1.339 . S
C41 H68 0.931 . S
C42 C43 1.395 . S
C42 C44 1.320 . S
C43 C41 1.339 . S
C43 C42 1.395 . S
C43 H69 0.929 . S
C44 C42 1.320 . S
C44 C45 1.405 . S
C44 H70 0.930 . S
C45 C40 1.479 . S
C45 C44 1.405 . S
C45 H71 0.931 . S
U46 O47 2.454 . S
U46 O48 2.458 . S
U46 C49 2.984 . S
U46 C50 2.847 . S
U46 C63 2.882 . S
U46 O64 2.441 . S
U46 O65 2.420 . S
U46 O66 2.455 . S
U46 O67 2.449 . S
O47 U46 2.454 . S
O47 C49 1.353 . S
O48 U46 2.458 . S
O48 C49 1.286 . S
C49 U46 2.984 . S
C49 O47 1.353 . S
C49 O48 1.286 . S
C49 C51 1.363 . S
C50 C40 1.465 . S
C50 U46 2.847 . S
C50 O64 1.249 . S
C50 O65 1.202 . S
C51 C49 1.363 . S
C51 C53 1.408 . S
C51 C56 1.342 . S
C52 C53 1.310 . S
C52 C55 1.461 . S
C52 H72 0.932 . S
C53 C51 1.408 . S
C53 C52 1.310 . S
C53 H73 0.930 . S
C54 C55 1.474 . S
C54 C56 1.285 . S
C54 H74 0.929 . S
C55 C52 1.461 . S
C55 C54 1.474 . S
C56 C51 1.342 . S
C56 C54 1.285 . S
C56 H75 0.930 . S
C57 C60 1.424 . S
C57 C62 1.245 . S
C57 C63 1.428 . S
C58 C61 1.260 . S
C58 C62 1.477 . S
C58 H76 0.932 . S
C59 C60 1.384 . S
C59 C61 1.479 . S
C59 H77 0.929 . S
C60 C57 1.424 . S
C60 C59 1.384 . S
C60 H78 0.928 . S
C61 C58 1.260 . S
C61 C59 1.479 . S
C62 C57 1.245 . S
C62 C58 1.477 . S
C62 H79 0.932 . S
C63 U46 2.882 . S
C63 C57 1.428 . S
C63 O66 1.301 . S
C63 O67 1.282 . S
O64 U46 2.441 . S
O64 C50 1.249 . S
O65 U46 2.420 . S
O65 C50 1.202 . S
O66 U46 2.455 . S
O66 C63 1.301 . S
O67 U46 2.449 . S
O67 C63 1.282 . S
H68 C41 0.931 . S
H69 C43 0.929 . S
H70 C44 0.930 . S
H71 C45 0.931 . S
H72 C52 0.932 . S
H73 C53 0.930 . S
H74 C54 0.929 . S
H75 C56 0.930 . S
H76 C58 0.932 . S
H77 C59 0.929 . S
H78 C60 0.928 . S
H79 C62 0.932 . S
C80 C81 1.264 . S
C80 C85 1.479 . S
C80 C90 1.465 . S
C81 C80 1.264 . S
C81 C83 1.339 1_554 S
C81 H108 0.931 . S
C82 C83 1.395 . S
C82 C84 1.320 1_556 S
C83 C81 1.339 1_556 S
C83 C82 1.395 . S
C83 H109 0.929 . S
C84 C82 1.320 1_554 S
C84 C85 1.405 . S
C84 H110 0.930 1_554 S
C85 C80 1.479 . S
C85 C84 1.405 . S
C85 H111 0.931 . S
U86 O87 2.454 . S
U86 O88 2.458 . S
U86 C89 2.984 . S
U86 C90 2.847 . S
U86 C103 2.882 . S
U86 O104 2.441 . S
U86 O105 2.420 . S
U86 O106 2.455 . S
U86 O107 2.449 . S
O87 U86 2.454 . S
O87 C89 1.353 . S
O88 U86 2.458 . S
O88 C89 1.286 . S
C89 U86 2.984 . S
C89 O87 1.353 . S
C89 O88 1.286 . S
C89 C91 1.363 . S
C90 C80 1.465 . S
C90 U86 2.847 . S
C90 O104 1.249 . S
C90 O105 1.202 . S
C91 C89 1.363 . S
C91 C93 1.408 . S
C91 C96 1.342 . S
C92 C93 1.310 . S
C92 C95 1.461 . S
C92 H112 0.932 . S
C93 C91 1.408 . S
C93 C92 1.310 . S
C93 H113 0.930 . S
C94 C95 1.474 . S
C94 C96 1.285 . S
C94 H114 0.929 . S
C95 C92 1.461 . S
C95 C94 1.474 . S
C96 C91 1.342 . S
C96 C94 1.285 . S
C96 H115 0.930 . S
C97 C100 1.424 . S
C97 C102 1.245 . S
C97 C103 1.428 . S
C98 C101 1.263 . S
C98 C102 1.477 . S
C98 H116 0.932 . S
C99 C100 1.384 1_556 S
C99 C101 1.479 1_556 S
C99 H117 0.929 . S
C100 C97 1.424 . S
C100 C99 1.384 1_554 S
C100 H118 0.928 . S
C101 C98 1.263 . S
C101 C99 1.479 1_554 S
C102 C97 1.245 . S
C102 C98 1.477 . S
C102 H119 0.932 . S
C103 U86 2.882 . S
C103 C97 1.428 . S
C103 O106 1.301 . S
C103 O107 1.282 . S
O104 U86 2.441 . S
O104 C90 1.249 . S
O105 U86 2.420 . S
O105 C90 1.202 . S
O106 U86 2.455 . S
O106 C103 1.301 . S
O107 U86 2.449 . S
O107 C103 1.282 . S
H108 C81 0.931 . S
H109 C83 0.929 . S
H110 C84 0.930 1_556 S
H111 C85 0.931 . S
H112 C92 0.932 . S
H113 C93 0.930 . S
H114 C94 0.929 . S
H115 C96 0.930 . S
H116 C98 0.932 . S
H117 C99 0.929 . S
H118 C100 0.928 . S
H119 C102 0.932 . S
C120 C121 1.264 . S
C120 C125 1.479 . S
C120 C130 1.465 . S
C121 C120 1.264 . S
C121 C123 1.339 1_556 S
C121 H148 0.931 . S
C122 C123 1.395 . S
C122 C124 1.320 1_554 S
C123 C121 1.339 1_554 S
C123 C122 1.395 . S
C123 H149 0.929 . S
C124 C122 1.320 1_556 S
C124 C125 1.405 . S
C124 H150 0.930 . S
C125 C120 1.479 . S
C125 C124 1.405 . S
C125 H151 0.931 . S
U126 O127 2.454 . S
U126 O128 2.458 . S
U126 C129 2.984 . S
U126 C130 2.847 . S
U126 C143 2.882 . S
U126 O144 2.441 . S
U126 O145 2.420 . S
U126 O146 2.455 . S
U126 O147 2.449 . S
O127 U126 2.454 . S
O127 C129 1.353 . S
O128 U126 2.458 . S
O128 C129 1.286 . S
C129 U126 2.984 . S
C129 O127 1.353 . S
C129 O128 1.286 . S
C129 C131 1.363 . S
C130 C120 1.465 . S
C130 U126 2.847 . S
C130 O144 1.249 . S
C130 O145 1.202 . S
C131 C129 1.363 . S
C131 C133 1.408 . S
C131 C136 1.342 . S
C132 C133 1.310 . S
C132 C135 1.461 . S
C132 H152 0.932 . S
C133 C131 1.408 . S
C133 C132 1.310 . S
C133 H153 0.930 . S
C134 C135 1.474 . S
C134 C136 1.285 . S
C134 H154 0.929 . S
C135 C132 1.461 . S
C135 C134 1.474 . S
C136 C131 1.342 . S
C136 C134 1.285 . S
C136 H155 0.930 . S
C137 C140 1.424 . S
C137 C142 1.245 . S
C137 C143 1.428 . S
C138 C141 1.260 . S
C138 C142 1.477 . S
C138 H156 0.932 . S
C139 C140 1.384 . S
C139 C141 1.479 . S
C139 H157 0.929 1_556 S
C140 C137 1.424 . S
C140 C139 1.384 . S
C140 H158 0.928 . S
C141 C138 1.260 . S
C141 C139 1.479 . S
C142 C137 1.245 . S
C142 C138 1.477 . S
C142 H159 0.932 . S
C143 U126 2.882 . S
C143 C137 1.428 . S
C143 O146 1.301 . S
C143 O147 1.282 . S
O144 U126 2.441 . S
O144 C130 1.249 . S
O145 U126 2.420 . S
O145 C130 1.202 . S
O146 U126 2.455 . S
O146 C143 1.301 . S
O147 U126 2.449 . S
O147 C143 1.282 . S
H148 C121 0.931 . S
H149 C123 0.929 . S
H150 C124 0.930 . S
H151 C125 0.931 . S
H152 C132 0.932 . S
H153 C133 0.930 . S
H154 C134 0.929 . S
H155 C136 0.930 . S
H156 C138 0.932 . S
H157 C139 0.929 1_554 S
H158 C140 0.928 . S
H159 C142 0.932 . S
C160 C161 1.264 . S
C160 C165 1.479 . S
C160 C170 1.465 . S
C161 C160 1.264 . S
C161 C163 1.339 . S
C161 H188 0.931 . S
C162 C163 1.395 . S
C162 C164 1.320 . S
C163 C161 1.339 . S
C163 C162 1.395 . S
C163 H189 0.929 . S
C164 C162 1.320 . S
C164 C165 1.405 . S
C164 H190 0.930 . S
C165 C160 1.479 . S
C165 C164 1.405 . S
C165 H191 0.931 . S
U166 O167 2.454 . S
U166 O168 2.458 . S
U166 C169 2.984 . S
U166 C170 2.847 . S
U166 C183 2.882 . S
U166 O184 2.441 . S
U166 O185 2.420 . S
U166 O186 2.455 . S
U166 O187 2.449 . S
O167 U166 2.454 . S
O167 C169 1.353 . S
O168 U166 2.458 . S
O168 C169 1.286 . S
C169 U166 2.984 . S
C169 O167 1.353 . S
C169 O168 1.286 . S
C169 C171 1.363 . S
C170 C160 1.465 . S
C170 U166 2.847 . S
C170 O184 1.249 . S
C170 O185 1.202 . S
C171 C169 1.363 . S
C171 C173 1.408 . S
C171 C176 1.342 . S
C172 C173 1.310 . S
C172 C175 1.461 . S
C172 H192 0.932 . S
C173 C171 1.408 . S
C173 C172 1.310 . S
C173 H193 0.930 . S
C174 C175 1.474 . S
C174 C176 1.285 . S
C174 H194 0.929 . S
C175 C172 1.461 . S
C175 C174 1.474 . S
C176 C171 1.342 . S
C176 C174 1.285 . S
C176 H195 0.930 . S
C177 C180 1.424 . S
C177 C182 1.245 . S
C177 C183 1.428 . S
C178 C181 1.260 . S
C178 C182 1.477 . S
C178 H196 0.932 . S
C179 C180 1.384 . S
C179 C181 1.479 . S
C179 H197 0.929 . S
C180 C177 1.424 . S
C180 C179 1.384 . S
C180 H198 0.928 . S
C181 C178 1.260 . S
C181 C179 1.479 . S
C182 C177 1.245 . S
C182 C178 1.477 . S
C182 H199 0.932 . S
C183 U166 2.882 . S
C183 C177 1.428 . S
C183 O186 1.301 . S
C183 O187 1.282 . S
O184 U166 2.441 . S
O184 C170 1.249 . S
O185 U166 2.420 . S
O185 C170 1.202 . S
O186 U166 2.455 . S
O186 C183 1.301 . S
O187 U166 2.449 . S
O187 C183 1.282 . S
H188 C161 0.931 . S
H189 C163 0.929 . S
H190 C164 0.930 . S
H191 C165 0.931 . S
H192 C172 0.932 . S
H193 C173 0.930 . S
H194 C174 0.929 . S
H195 C176 0.930 . S
H196 C178 0.932 . S
H197 C179 0.929 . S
H198 C180 0.928 . S
H199 C182 0.932 . S
C200 C201 1.264 . S
C200 C205 1.479 . S
C200 C210 1.465 . S
C201 C200 1.264 . S
C201 C203 1.339 . S
C201 H228 0.931 1_556 S
C202 C203 1.395 . S
C202 C204 1.320 . S
C203 C201 1.339 . S
C203 C202 1.395 . S
C203 H229 0.929 1_556 S
C204 C202 1.320 . S
C204 C205 1.405 . S
C204 H230 0.930 . S
C205 C200 1.479 . S
C205 C204 1.405 . S
C205 H231 0.931 . S
U206 O207 2.454 . S
U206 O208 2.458 . S
U206 C209 2.984 . S
U206 C210 2.847 . S
U206 C223 2.882 . S
U206 O224 2.441 . S
U206 O225 2.420 . S
U206 O226 2.455 . S
U206 O227 2.442 1_556 S
O207 U206 2.454 . S
O207 C209 1.353 . S
O208 U206 2.458 . S
O208 C209 1.286 . S
C209 U206 2.984 . S
C209 O207 1.353 . S
C209 O208 1.286 . S
C209 C211 1.363 . S
C210 C200 1.465 . S
C210 U206 2.847 . S
C210 O224 1.249 . S
C210 O225 1.202 . S
C211 C209 1.363 . S
C211 C213 1.408 . S
C211 C216 1.342 . S
C212 C213 1.310 . S
C212 C215 1.461 . S
C212 H232 0.932 . S
C213 C211 1.408 . S
C213 C212 1.310 . S
C213 H233 0.930 . S
C214 C215 1.474 . S
C214 C216 1.285 . S
C214 H234 0.929 . S
C215 C212 1.461 . S
C215 C214 1.474 . S
C216 C211 1.342 . S
C216 C214 1.285 . S
C216 H235 0.930 . S
C217 C220 1.424 . S
C217 C222 1.245 . S
C217 C223 1.428 . S
C218 C221 1.260 . S
C218 C222 1.477 . S
C218 H236 0.932 . S
C219 C220 1.384 . S
C219 C221 1.479 . S
C219 H237 0.929 1_556 S
C220 C217 1.424 . S
C220 C219 1.384 . S
C220 H238 0.928 . S
C221 C218 1.260 . S
C221 C219 1.479 . S
C222 C217 1.245 . S
C222 C218 1.477 . S
C222 H239 0.932 . S
C223 U206 2.882 . S
C223 C217 1.428 . S
C223 O226 1.301 . S
C223 O227 1.277 1_556 S
O224 U206 2.441 . S
O224 C210 1.249 . S
O225 U206 2.420 . S
O225 C210 1.202 . S
O226 U206 2.455 . S
O226 C223 1.301 . S
O227 U206 2.442 1_554 S
O227 C223 1.277 1_554 S
H228 C201 0.931 1_554 S
H229 C203 0.929 1_554 S
H230 C204 0.930 . S
H231 C205 0.931 . S
H232 C212 0.932 . S
H233 C213 0.930 . S
H234 C214 0.929 . S
H235 C216 0.930 . S
H236 C218 0.932 . S
H237 C219 0.929 1_554 S
H238 C220 0.928 . S
H239 C222 0.932 . S
C240 C241 1.264 . S
C240 C245 1.479 . S
C240 C250 1.465 . S
C241 C240 1.264 . S
C241 C243 1.339 . S
C241 H268 0.931 . S
C242 C243 1.395 . S
C242 C244 1.320 . S
C243 C241 1.339 . S
C243 C242 1.395 . S
C243 H269 0.929 . S
C244 C242 1.320 . S
C244 C245 1.405 . S
C244 H270 0.930 . S
C245 C240 1.479 . S
C245 C244 1.405 . S
C245 H271 0.931 . S
U246 O247 2.454 . S
U246 O248 2.458 . S
U246 C249 2.984 . S
U246 C250 2.847 . S
U246 C263 2.882 . S
U246 O264 2.441 . S
U246 O265 2.420 . S
U246 O266 2.455 . S
U246 O267 2.449 . S
O247 U246 2.454 . S
O247 C249 1.353 . S
O248 U246 2.458 . S
O248 C249 1.286 . S
C249 U246 2.984 . S
C249 O247 1.353 . S
C249 O248 1.286 . S
C249 C251 1.363 . S
C250 C240 1.465 . S
C250 U246 2.847 . S
C250 O264 1.249 . S
C250 O265 1.202 . S
C251 C249 1.363 . S
C251 C253 1.408 . S
C251 C256 1.342 . S
C252 C253 1.310 . S
C252 C255 1.461 . S
C252 H272 0.932 . S
C253 C251 1.408 . S
C253 C252 1.310 . S
C253 H273 0.930 . S
C254 C255 1.474 . S
C254 C256 1.285 . S
C254 H274 0.929 . S
C255 C252 1.461 . S
C255 C254 1.474 . S
C256 C251 1.342 . S
C256 C254 1.285 . S
C256 H275 0.930 . S
C257 C260 1.424 . S
C257 C262 1.245 . S
C257 C263 1.428 . S
C258 C261 1.260 . S
C258 C262 1.477 . S
C258 H276 0.932 . S
C259 C260 1.384 . S
C259 C261 1.479 . S
C259 H277 0.929 . S
C260 C257 1.424 . S
C260 C259 1.384 . S
C260 H278 0.928 . S
C261 C258 1.260 . S
C261 C259 1.479 . S
C262 C257 1.245 . S
C262 C258 1.477 . S
C262 H279 0.932 . S
C263 U246 2.882 . S
C263 C257 1.428 . S
C263 O266 1.301 . S
C263 O267 1.282 . S
O264 U246 2.441 . S
O264 C250 1.249 . S
O265 U246 2.420 . S
O265 C250 1.202 . S
O266 U246 2.455 . S
O266 C263 1.301 . S
O267 U246 2.449 . S
O267 C263 1.282 . S
H268 C241 0.931 . S
H269 C243 0.929 . S
H270 C244 0.930 . S
H271 C245 0.931 . S
H272 C252 0.932 . S
H273 C253 0.930 . S
H274 C254 0.929 . S
H275 C256 0.930 . S
H276 C258 0.932 . S
H277 C259 0.929 . S
H278 C260 0.928 . S
H279 C262 0.932 . S
C280 C281 1.264 . S
C280 C285 1.479 . S
C280 C290 1.465 . S
C281 C280 1.264 . S
C281 C283 1.339 . S
C281 H308 0.931 . S
C282 C283 1.395 . S
C282 C284 1.320 . S
C283 C281 1.339 . S
C283 C282 1.395 . S
C283 H309 0.929 . S
C284 C282 1.320 . S
C284 C285 1.405 . S
C284 H310 0.930 . S
C285 C280 1.479 . S
C285 C284 1.405 . S
C285 H311 0.931 . S
U286 O287 2.454 . S
U286 O288 2.458 . S
U286 C289 2.984 . S
U286 C290 2.847 . S
U286 C303 2.882 . S
U286 O304 2.441 . S
U286 O305 2.420 . S
U286 O306 2.455 . S
U286 O307 2.449 . S
O287 U286 2.454 . S
O287 C289 1.353 . S
O288 U286 2.458 . S
O288 C289 1.286 . S
C289 U286 2.984 . S
C289 O287 1.353 . S
C289 O288 1.286 . S
C289 C291 1.363 . S
C290 C280 1.465 . S
C290 U286 2.847 . S
C290 O304 1.249 . S
C290 O305 1.202 . S
C291 C289 1.363 . S
C291 C293 1.408 . S
C291 C296 1.342 . S
C292 C293 1.310 . S
C292 C295 1.461 . S
C292 H312 0.932 . S
C293 C291 1.408 . S
C293 C292 1.310 . S
C293 H313 0.930 . S
C294 C295 1.474 . S
C294 C296 1.285 . S
C294 H314 0.929 . S
C295 C292 1.461 . S
C295 C294 1.474 . S
C296 C291 1.342 . S
C296 C294 1.285 . S
C296 H315 0.930 . S
C297 C300 1.424 . S
C297 C302 1.245 . S
C297 C303 1.428 . S
C298 C301 1.260 . S
C298 C302 1.477 . S
C298 H316 0.932 . S
C299 C300 1.384 . S
C299 C301 1.479 . S
C299 H317 0.929 . S
C300 C297 1.424 . S
C300 C299 1.384 . S
C300 H318 0.928 . S
C301 C298 1.260 . S
C301 C299 1.479 . S
C302 C297 1.245 . S
C302 C298 1.477 . S
C302 H319 0.932 . S
C303 U286 2.882 . S
C303 C297 1.428 . S
C303 O306 1.301 . S
C303 O307 1.282 . S
O304 U286 2.441 . S
O304 C290 1.249 . S
O305 U286 2.420 . S
O305 C290 1.202 . S
O306 U286 2.455 . S
O306 C303 1.301 . S
O307 U286 2.449 . S
O307 C303 1.282 . S
H308 C281 0.931 . S
H309 C283 0.929 . S
H310 C284 0.930 . S
H311 C285 0.931 . S
H312 C292 0.932 . S
H313 C293 0.930 . S
H314 C294 0.929 . S
H315 C296 0.930 . S
H316 C298 0.932 . S
H317 C299 0.929 . S
H318 C300 0.928 . S
H319 C302 0.932 . S
C320 C321 1.264 . S
C320 C325 1.479 . S
C320 C330 1.465 . S
C321 C320 1.264 . S
C321 C323 1.339 . S
C321 H348 0.931 . S
C322 C323 1.395 . S
C322 C324 1.320 . S
C323 C321 1.339 . S
C323 C322 1.395 . S
C323 H349 0.929 . S
C324 C322 1.320 . S
C324 C325 1.405 . S
C324 H350 0.930 . S
C325 C320 1.479 . S
C325 C324 1.405 . S
C325 H351 0.931 . S
U326 O327 2.454 . S
U326 O328 2.458 . S
U326 C329 2.984 . S
U326 C330 2.847 . S
U326 C343 2.882 . S
U326 O344 2.441 . S
U326 O345 2.420 . S
U326 O346 2.455 . S
U326 O347 2.449 . S
O327 U326 2.454 . S
O327 C329 1.353 . S
O328 U326 2.458 . S
O328 C329 1.286 . S
C329 U326 2.984 . S
C329 O327 1.353 . S
C329 O328 1.286 . S
C329 C331 1.363 . S
C330 C320 1.465 . S
C330 U326 2.847 . S
C330 O344 1.249 . S
C330 O345 1.202 . S
C331 C329 1.363 . S
C331 C333 1.408 . S
C331 C336 1.342 . S
C332 C333 1.310 . S
C332 C335 1.461 . S
C332 H352 0.932 . S
C333 C331 1.408 . S
C333 C332 1.310 . S
C333 H353 0.930 . S
C334 C335 1.474 . S
C334 C336 1.285 . S
C334 H354 0.929 . S
C335 C332 1.461 . S
C335 C334 1.474 . S
C336 C331 1.342 . S
C336 C334 1.285 . S
C336 H355 0.930 . S
C337 C340 1.424 . S
C337 C342 1.245 . S
C337 C343 1.428 . S
C338 C341 1.260 . S
C338 C342 1.477 . S
C338 H356 0.932 . S
C339 C340 1.384 . S
C339 C341 1.479 . S
C339 H357 0.929 . S
C340 C337 1.424 . S
C340 C339 1.384 . S
C340 H358 0.928 . S
C341 C338 1.260 . S
C341 C339 1.479 . S
C342 C337 1.245 . S
C342 C338 1.477 . S
C342 H359 0.932 . S
C343 U326 2.882 . S
C343 C337 1.428 . S
C343 O346 1.301 . S
C343 O347 1.282 . S
O344 U326 2.441 . S
O344 C330 1.249 . S
O345 U326 2.420 . S
O345 C330 1.202 . S
O346 U326 2.455 . S
O346 C343 1.301 . S
O347 U326 2.449 . S
O347 C343 1.282 . S
H348 C321 0.931 . S
H349 C323 0.929 . S
H350 C324 0.930 . S
H351 C325 0.931 . S
H352 C332 0.932 . S
H353 C333 0.930 . S
H354 C334 0.929 . S
H355 C336 0.930 . S
H356 C338 0.932 . S
H357 C339 0.929 . S
H358 C340 0.928 . S
H359 C342 0.932 . S
C360 C361 1.264 . S
C360 C365 1.479 . S
C360 C370 1.465 . S
C361 C360 1.264 . S
C361 C363 1.339 . S
C361 H388 0.931 . S
C362 C363 1.395 . S
C362 C364 1.320 . S
C363 C361 1.339 . S
C363 C362 1.395 . S
C363 H389 0.929 . S
C364 C362 1.320 . S
C364 C365 1.405 . S
C364 H390 0.930 . S
C365 C360 1.479 . S
C365 C364 1.405 . S
C365 H391 0.931 . S
U366 O367 2.454 . S
U366 O368 2.458 . S
U366 C369 2.984 . S
U366 C370 2.847 . S
U366 C383 2.882 . S
U366 O384 2.441 . S
U366 O385 2.420 . S
U366 O386 2.455 . S
U366 O387 2.449 . S
O367 U366 2.454 . S
O367 C369 1.353 . S
O368 U366 2.458 . S
O368 C369 1.286 . S
C369 U366 2.984 . S
C369 O367 1.353 . S
C369 O368 1.286 . S
C369 C371 1.363 . S
C370 C360 1.465 . S
C370 U366 2.847 . S
C370 O384 1.249 . S
C370 O385 1.202 . S
C371 C369 1.363 . S
C371 C373 1.408 . S
C371 C376 1.342 . S
C372 C373 1.310 . S
C372 C375 1.461 . S
C372 H392 0.932 . S
C373 C371 1.408 . S
C373 C372 1.310 . S
C373 H393 0.930 . S
C374 C375 1.474 . S
C374 C376 1.285 . S
C374 H394 0.929 . S
C375 C372 1.461 . S
C375 C374 1.474 . S
C376 C371 1.342 . S
C376 C374 1.285 . S
C376 H395 0.930 . S
C377 C380 1.424 . S
C377 C382 1.245 . S
C377 C383 1.428 . S
C378 C381 1.260 . S
C378 C382 1.477 . S
C378 H396 0.932 . S
C379 C380 1.384 . S
C379 C381 1.479 . S
C379 H397 0.929 . S
C380 C377 1.424 . S
C380 C379 1.384 . S
C380 H398 0.928 . S
C381 C378 1.260 . S
C381 C379 1.479 . S
C382 C377 1.245 . S
C382 C378 1.477 . S
C382 H399 0.932 . S
C383 U366 2.882 . S
C383 C377 1.428 . S
C383 O386 1.301 . S
C383 O387 1.282 . S
O384 U366 2.441 . S
O384 C370 1.249 . S
O385 U366 2.420 . S
O385 C370 1.202 . S
O386 U366 2.455 . S
O386 C383 1.301 . S
O387 U366 2.449 . S
O387 C383 1.282 . S
H388 C361 0.931 . S
H389 C363 0.929 . S
H390 C364 0.930 . S
H391 C365 0.931 . S
H392 C372 0.932 . S
H393 C373 0.930 . S
H394 C374 0.929 . S
H395 C376 0.930 . S
H396 C378 0.932 . S
H397 C379 0.929 . S
H398 C380 0.928 . S
H399 C382 0.932 . S
C400 C401 1.264 . S
C400 C405 1.479 . S
C400 C410 1.465 . S
C401 C400 1.264 . S
C401 C403 1.339 . S
C401 H428 0.931 . S
C402 C403 1.395 . S
C402 C404 1.320 . S
C403 C401 1.339 . S
C403 C402 1.395 . S
C403 H429 0.929 . S
C404 C402 1.320 . S
C404 C405 1.405 . S
C404 H430 0.930 . S
C405 C400 1.479 . S
C405 C404 1.405 . S
C405 H431 0.931 . S
U406 O407 2.454 . S
U406 O408 2.458 . S
U406 C409 2.984 . S
U406 C410 2.847 . S
U406 C423 2.882 . S
U406 O424 2.441 . S
U406 O425 2.420 . S
U406 O426 2.455 . S
U406 O427 2.449 . S
O407 U406 2.454 . S
O407 C409 1.353 . S
O408 U406 2.458 . S
O408 C409 1.286 . S
C409 U406 2.984 . S
C409 O407 1.353 . S
C409 O408 1.286 . S
C409 C411 1.363 . S
C410 C400 1.465 . S
C410 U406 2.847 . S
C410 O424 1.249 . S
C410 O425 1.202 . S
C411 C409 1.363 . S
C411 C413 1.408 . S
C411 C416 1.342 . S
C412 C413 1.310 . S
C412 C415 1.461 . S
C412 H432 0.932 . S
C413 C411 1.408 . S
C413 C412 1.310 . S
C413 H433 0.930 . S
C414 C415 1.474 . S
C414 C416 1.285 . S
C414 H434 0.929 . S
C415 C412 1.461 . S
C415 C414 1.474 . S
C416 C411 1.342 . S
C416 C414 1.285 . S
C416 H435 0.930 . S
C417 C420 1.424 . S
C417 C422 1.245 . S
C417 C423 1.428 . S
C418 C421 1.260 . S
C418 C422 1.477 . S
C418 H436 0.932 . S
C419 C420 1.384 . S
C419 C421 1.479 . S
C419 H437 0.929 . S
C420 C417 1.424 . S
C420 C419 1.384 . S
C420 H438 0.928 . S
C421 C418 1.260 . S
C421 C419 1.479 . S
C422 C417 1.245 . S
C422 C418 1.477 . S
C422 H439 0.932 . S
C423 U406 2.882 . S
C423 C417 1.428 . S
C423 O426 1.301 . S
C423 O427 1.282 . S
O424 U406 2.441 . S
O424 C410 1.249 . S
O425 U406 2.420 . S
O425 C410 1.202 . S
O426 U406 2.455 . S
O426 C423 1.301 . S
O427 U406 2.449 . S
O427 C423 1.282 . S
H428 C401 0.931 . S
H429 C403 0.929 . S
H430 C404 0.930 . S
H431 C405 0.931 . S
H432 C412 0.932 . S
H433 C413 0.930 . S
H434 C414 0.929 . S
H435 C416 0.930 . S
H436 C418 0.932 . S
H437 C419 0.929 . S
H438 C420 0.928 . S
H439 C422 0.932 . S
C440 C441 1.264 . S
C440 C445 1.479 . S
C440 C450 1.465 . S
C441 C440 1.264 . S
C441 C443 1.339 . S
C441 H468 0.931 . S
C442 C443 1.395 . S
C442 C444 1.320 . S
C443 C441 1.339 . S
C443 C442 1.395 . S
C443 H469 0.929 . S
C444 C442 1.320 . S
C444 C445 1.405 . S
C444 H470 0.930 . S
C445 C440 1.479 . S
C445 C444 1.405 . S
C445 H471 0.931 . S
U446 O447 2.454 . S
U446 O448 2.458 . S
U446 C449 2.984 . S
U446 C450 2.847 . S
U446 C463 2.882 . S
U446 O464 2.441 . S
U446 O465 2.420 . S
U446 O466 2.455 . S
U446 O467 2.449 . S
O447 U446 2.454 . S
O447 C449 1.353 . S
O448 U446 2.458 . S
O448 C449 1.286 . S
C449 U446 2.984 . S
C449 O447 1.353 . S
C449 O448 1.286 . S
C449 C451 1.363 . S
C450 C440 1.465 . S
C450 U446 2.847 . S
C450 O464 1.249 . S
C450 O465 1.202 . S
C451 C449 1.363 . S
C451 C453 1.408 . S
C451 C456 1.342 . S
C452 C453 1.310 . S
C452 C455 1.461 . S
C452 H472 0.932 . S
C453 C451 1.408 . S
C453 C452 1.310 . S
C453 H473 0.930 . S
C454 C455 1.474 . S
C454 C456 1.285 . S
C454 H474 0.929 . S
C455 C452 1.461 . S
C455 C454 1.474 . S
C456 C451 1.342 . S
C456 C454 1.285 . S
C456 H475 0.930 . S
C457 C460 1.424 . S
C457 C462 1.245 . S
C457 C463 1.428 . S
C458 C461 1.260 . S
C458 C462 1.477 . S
C458 H476 0.932 . S
C459 C460 1.384 . S
C459 C461 1.479 . S
C459 H477 0.929 . S
C460 C457 1.424 . S
C460 C459 1.384 . S
C460 H478 0.928 . S
C461 C458 1.260 . S
C461 C459 1.479 . S
C462 C457 1.245 . S
C462 C458 1.477 . S
C462 H479 0.932 . S
C463 U446 2.882 . S
C463 C457 1.428 . S
C463 O466 1.301 . S
C463 O467 1.282 . S
O464 U446 2.441 . S
O464 C450 1.249 . S
O465 U446 2.420 . S
O465 C450 1.202 . S
O466 U446 2.455 . S
O466 C463 1.301 . S
O467 U446 2.449 . S
O467 C463 1.282 . S
H468 C441 0.931 . S
H469 C443 0.929 . S
H470 C444 0.930 . S
H471 C445 0.931 . S
H472 C452 0.932 . S
H473 C453 0.930 . S
H474 C454 0.929 . S
H475 C456 0.930 . S
H476 C458 0.932 . S
H477 C459 0.929 . S
H478 C460 0.928 . S
H479 C462 0.932 . S
C480 C481 1.264 . S
C480 C485 1.479 . S
C480 C490 1.465 . S
C481 C480 1.264 . S
C481 C483 1.339 . S
C481 H508 0.931 . S
C482 C483 1.395 . S
C482 C484 1.320 . S
C483 C481 1.339 . S
C483 C482 1.395 . S
C483 H509 0.929 . S
C484 C482 1.320 . S
C484 C485 1.405 . S
C484 H510 0.930 . S
C485 C480 1.479 . S
C485 C484 1.405 . S
C485 H511 0.931 . S
U486 O487 2.454 . S
U486 O488 2.458 . S
U486 C489 2.984 . S
U486 C490 2.847 . S
U486 C503 2.882 . S
U486 O504 2.441 . S
U486 O505 2.420 . S
U486 O506 2.455 . S
U486 O507 2.449 . S
O487 U486 2.454 . S
O487 C489 1.353 . S
O488 U486 2.458 . S
O488 C489 1.286 . S
C489 U486 2.984 . S
C489 O487 1.353 . S
C489 O488 1.286 . S
C489 C491 1.363 . S
C490 C480 1.465 . S
C490 U486 2.847 . S
C490 O504 1.249 . S
C490 O505 1.202 . S
C491 C489 1.363 . S
C491 C493 1.408 . S
C491 C496 1.342 . S
C492 C493 1.310 . S
C492 C495 1.461 . S
C492 H512 0.932 . S
C493 C491 1.408 . S
C493 C492 1.310 . S
C493 H513 0.930 . S
C494 C495 1.474 . S
C494 C496 1.285 . S
C494 H514 0.929 . S
C495 C492 1.461 . S
C495 C494 1.474 . S
C496 C491 1.342 . S
C496 C494 1.285 . S
C496 H515 0.930 . S
C497 C500 1.424 . S
C497 C502 1.245 . S
C497 C503 1.428 . S
C498 C501 1.260 . S
C498 C502 1.477 . S
C498 H516 0.932 . S
C499 C500 1.384 . S
C499 C501 1.479 . S
C499 H517 0.929 . S
C500 C497 1.424 . S
C500 C499 1.384 . S
C500 H518 0.928 . S
C501 C498 1.260 . S
C501 C499 1.479 . S
C502 C497 1.245 . S
C502 C498 1.477 . S
C502 H519 0.932 . S
C503 U486 2.882 . S
C503 C497 1.428 . S
C503 O506 1.301 . S
C503 O507 1.282 . S
O504 U486 2.441 . S
O504 C490 1.249 . S
O505 U486 2.420 . S
O505 C490 1.202 . S
O506 U486 2.455 . S
O506 C503 1.301 . S
O507 U486 2.449 . S
O507 C503 1.282 . S
H508 C481 0.931 . S
H509 C483 0.929 . S
H510 C484 0.930 . S
H511 C485 0.931 . S
H512 C492 0.932 . S
H513 C493 0.930 . S
H514 C494 0.929 . S
H515 C496 0.930 . S
H516 C498 0.932 . S
H517 C499 0.929 . S
H518 C500 0.928 . S
H519 C502 0.932 . S
C520 C521 1.264 . S
C520 C525 1.479 . S
C520 C530 1.465 . S
C521 C520 1.264 . S
C521 C523 1.339 . S
C521 H548 0.931 . S
C522 C523 1.395 . S
C522 C524 1.320 . S
C523 C521 1.339 . S
C523 C522 1.395 . S
C523 H549 0.929 . S
C524 C522 1.320 . S
C524 C525 1.405 . S
C524 H550 0.930 . S
C525 C520 1.479 . S
C525 C524 1.405 . S
C525 H551 0.931 . S
U526 O527 2.454 . S
U526 O528 2.458 . S
U526 C529 2.984 . S
U526 C530 2.847 . S
U526 C543 2.882 . S
U526 O544 2.441 . S
U526 O545 2.420 . S
U526 O546 2.455 . S
U526 O547 2.449 . S
O527 U526 2.454 . S
O527 C529 1.353 . S
O528 U526 2.458 . S
O528 C529 1.286 . S
C529 U526 2.984 . S
C529 O527 1.353 . S
C529 O528 1.286 . S
C529 C531 1.363 . S
C530 C520 1.465 . S
C530 U526 2.847 . S
C530 O544 1.249 . S
C530 O545 1.202 . S
C531 C529 1.363 . S
C531 C533 1.408 . S
C531 C536 1.342 . S
C532 C533 1.310 . S
C532 C535 1.461 . S
C532 H552 0.932 . S
C533 C531 1.408 . S
C533 C532 1.310 . S
C533 H553 0.930 . S
C534 C535 1.474 . S
C534 C536 1.285 . S
C534 H554 0.929 . S
C535 C532 1.461 . S
C535 C534 1.474 . S
C536 C531 1.342 . S
C536 C534 1.285 . S
C536 H555 0.930 . S
C537 C540 1.424 . S
C537 C542 1.245 . S
C537 C543 1.428 . S
C538 C541 1.260 . S
C538 C542 1.477 . S
C538 H556 0.932 . S
C539 C540 1.384 . S
C539 C541 1.479 . S
C539 H557 0.929 . S
C540 C537 1.424 . S
C540 C539 1.384 . S
C540 H558 0.928 . S
C541 C538 1.260 . S
C541 C539 1.479 . S
C542 C537 1.245 . S
C542 C538 1.477 . S
C542 H559 0.932 . S
C543 U526 2.882 . S
C543 C537 1.428 . S
C543 O546 1.301 . S
C543 O547 1.282 . S
O544 U526 2.441 . S
O544 C530 1.249 . S
O545 U526 2.420 . S
O545 C530 1.202 . S
O546 U526 2.455 . S
O546 C543 1.301 . S
O547 U526 2.449 . S
O547 C543 1.282 . S
H548 C521 0.931 . S
H549 C523 0.929 . S
H550 C524 0.930 . S
H551 C525 0.931 . S
H552 C532 0.932 . S
H553 C533 0.930 . S
H554 C534 0.929 . S
H555 C536 0.930 . S
H556 C538 0.932 . S
H557 C539 0.929 . S
H558 C540 0.928 . S
H559 C542 0.932 . S
C560 C561 1.264 . S
C560 C565 1.479 . S
C560 C570 1.465 . S
C561 C560 1.264 . S
C561 C563 1.339 . S
C561 H588 0.931 . S
C562 C563 1.395 . S
C562 C564 1.320 . S
C563 C561 1.339 . S
C563 C562 1.395 . S
C563 H589 0.929 . S
C564 C562 1.320 . S
C564 C565 1.405 . S
C564 H590 0.930 . S
C565 C560 1.479 . S
C565 C564 1.405 . S
C565 H591 0.931 . S
U566 O567 2.454 . S
U566 O568 2.458 . S
U566 C569 2.984 . S
U566 C570 2.847 . S
U566 C583 2.882 . S
U566 O584 2.441 . S
U566 O585 2.420 . S
U566 O586 2.455 . S
U566 O587 2.449 . S
O567 U566 2.454 . S
O567 C569 1.353 . S
O568 U566 2.458 . S
O568 C569 1.286 . S
C569 U566 2.984 . S
C569 O567 1.353 . S
C569 O568 1.286 . S
C569 C571 1.363 . S
C570 C560 1.465 . S
C570 U566 2.847 . S
C570 O584 1.249 . S
C570 O585 1.202 . S
C571 C569 1.363 . S
C571 C573 1.408 . S
C571 C576 1.342 . S
C572 C573 1.310 . S
C572 C575 1.461 . S
C572 H592 0.932 . S
C573 C571 1.408 . S
C573 C572 1.310 . S
C573 H593 0.930 . S
C574 C575 1.474 . S
C574 C576 1.285 . S
C574 H594 0.929 . S
C575 C572 1.461 . S
C575 C574 1.474 . S
C576 C571 1.342 . S
C576 C574 1.285 . S
C576 H595 0.930 . S
C577 C580 1.424 . S
C577 C582 1.245 . S
C577 C583 1.428 . S
C578 C581 1.260 . S
C578 C582 1.477 . S
C578 H596 0.932 . S
C579 C580 1.384 . S
C579 C581 1.479 . S
C579 H597 0.929 . S
C580 C577 1.424 . S
C580 C579 1.384 . S
C580 H598 0.928 . S
C581 C578 1.260 . S
C581 C579 1.479 . S
C582 C577 1.245 . S
C582 C578 1.477 . S
C582 H599 0.932 . S
C583 U566 2.882 . S
C583 C577 1.428 . S
C583 O586 1.301 . S
C583 O587 1.282 . S
O584 U566 2.441 . S
O584 C570 1.249 . S
O585 U566 2.420 . S
O585 C570 1.202 . S
O586 U566 2.455 . S
O586 C583 1.301 . S
O587 U566 2.449 . S
O587 C583 1.282 . S
H588 C561 0.931 . S
H589 C563 0.929 . S
H590 C564 0.930 . S
H591 C565 0.931 . S
H592 C572 0.932 . S
H593 C573 0.930 . S
H594 C574 0.929 . S
H595 C576 0.930 . S
H596 C578 0.932 . S
H597 C579 0.929 . S
H598 C580 0.928 . S
H599 C582 0.932 . S
C600 C601 1.264 . S
C600 C605 1.479 . S
C600 C610 1.465 . S
C601 C600 1.264 . S
C601 C603 1.339 . S
C601 H628 0.931 . S
C602 C603 1.395 . S
C602 C604 1.320 . S
C603 C601 1.339 . S
C603 C602 1.395 . S
C603 H629 0.929 . S
C604 C602 1.320 . S
C604 C605 1.405 . S
C604 H630 0.930 . S
C605 C600 1.479 . S
C605 C604 1.405 . S
C605 H631 0.931 . S
U606 O607 2.454 . S
U606 O608 2.458 . S
U606 C609 2.984 . S
U606 C610 2.847 . S
U606 C623 2.882 . S
U606 O624 2.441 . S
U606 O625 2.420 . S
U606 O626 2.455 . S
U606 O627 2.449 . S
O607 U606 2.454 . S
O607 C609 1.353 . S
O608 U606 2.458 . S
O608 C609 1.286 . S
C609 U606 2.984 . S
C609 O607 1.353 . S
C609 O608 1.286 . S
C609 C611 1.363 . S
C610 C600 1.465 . S
C610 U606 2.847 . S
C610 O624 1.249 . S
C610 O625 1.202 . S
C611 C609 1.363 . S
C611 C613 1.408 . S
C611 C616 1.342 . S
C612 C613 1.310 . S
C612 C615 1.461 . S
C612 H632 0.932 . S
C613 C611 1.408 . S
C613 C612 1.310 . S
C613 H633 0.930 . S
C614 C615 1.474 . S
C614 C616 1.285 . S
C614 H634 0.929 . S
C615 C612 1.461 . S
C615 C614 1.474 . S
C616 C611 1.342 . S
C616 C614 1.285 . S
C616 H635 0.930 . S
C617 C620 1.424 . S
C617 C622 1.245 . S
C617 C623 1.428 . S
C618 C621 1.260 . S
C618 C622 1.477 . S
C618 H636 0.932 . S
C619 C620 1.384 . S
C619 C621 1.479 . S
C619 H637 0.929 . S
C620 C617 1.424 . S
C620 C619 1.384 . S
C620 H638 0.928 . S
C621 C618 1.260 . S
C621 C619 1.479 . S
C622 C617 1.245 . S
C622 C618 1.477 . S
C622 H639 0.932 . S
C623 U606 2.882 . S
C623 C617 1.428 . S
C623 O626 1.301 . S
C623 O627 1.282 . S
O624 U606 2.441 . S
O624 C610 1.249 . S
O625 U606 2.420 . S
O625 C610 1.202 . S
O626 U606 2.455 . S
O626 C623 1.301 . S
O627 U606 2.449 . S
O627 C623 1.282 . S
H628 C601 0.931 . S
H629 C603 0.929 . S
H630 C604 0.930 . S
H631 C605 0.931 . S
H632 C612 0.932 . S
H633 C613 0.930 . S
H634 C614 0.929 . S
H635 C616 0.930 . S
H636 C618 0.932 . S
H637 C619 0.929 . S
H638 C620 0.928 . S
H639 C622 0.932 . S
C640 C641 1.264 . S
C640 C645 1.479 . S
C640 C650 1.465 . S
C641 C640 1.264 . S
C641 C643 1.339 . S
C641 H668 0.931 . S
C642 C643 1.395 . S
C642 C644 1.320 . S
C643 C641 1.339 . S
C643 C642 1.395 . S
C643 H669 0.929 . S
C644 C642 1.320 . S
C644 C645 1.405 . S
C644 H670 0.930 . S
C645 C640 1.479 . S
C645 C644 1.405 . S
C645 H671 0.931 . S
U646 O647 2.454 . S
U646 O648 2.458 . S
U646 C649 2.984 . S
U646 C650 2.847 . S
U646 C663 2.882 . S
U646 O664 2.441 . S
U646 O665 2.420 . S
U646 O666 2.455 . S
U646 O667 2.449 . S
O647 U646 2.454 . S
O647 C649 1.353 . S
O648 U646 2.458 . S
O648 C649 1.286 . S
C649 U646 2.984 . S
C649 O647 1.353 . S
C649 O648 1.286 . S
C649 C651 1.363 . S
C650 C640 1.465 . S
C650 U646 2.847 . S
C650 O664 1.249 . S
C650 O665 1.202 . S
C651 C649 1.363 . S
C651 C653 1.408 . S
C651 C656 1.342 . S
C652 C653 1.310 . S
C652 C655 1.461 . S
C652 H672 0.932 . S
C653 C651 1.408 . S
C653 C652 1.310 . S
C653 H673 0.930 . S
C654 C655 1.474 . S
C654 C656 1.285 . S
C654 H674 0.929 . S
C655 C652 1.461 . S
C655 C654 1.474 . S
C656 C651 1.342 . S
C656 C654 1.285 . S
C656 H675 0.930 . S
C657 C660 1.424 . S
C657 C662 1.245 . S
C657 C663 1.428 . S
C658 C661 1.260 . S
C658 C662 1.477 . S
C658 H676 0.932 . S
C659 C660 1.384 . S
C659 C661 1.479 . S
C659 H677 0.929 . S
C660 C657 1.424 . S
C660 C659 1.384 . S
C660 H678 0.928 . S
C661 C658 1.260 . S
C661 C659 1.479 . S
C662 C657 1.245 . S
C662 C658 1.477 . S
C662 H679 0.932 . S
C663 U646 2.882 . S
C663 C657 1.428 . S
C663 O666 1.301 . S
C663 O667 1.282 . S
O664 U646 2.441 . S
O664 C650 1.249 . S
O665 U646 2.420 . S
O665 C650 1.202 . S
O666 U646 2.455 . S
O666 C663 1.301 . S
O667 U646 2.449 . S
O667 C663 1.282 . S
H668 C641 0.931 . S
H669 C643 0.929 . S
H670 C644 0.930 . S
H671 C645 0.931 . S
H672 C652 0.932 . S
H673 C653 0.930 . S
H674 C654 0.929 . S
H675 C656 0.930 . S
H676 C658 0.932 . S
H677 C659 0.929 . S
H678 C660 0.928 . S
H679 C662 0.932 . S
C680 C681 1.264 . S
C680 C685 1.479 . S
C680 C690 1.465 . S
C681 C680 1.264 . S
C681 C683 1.339 . S
C681 H708 0.931 . S
C682 C683 1.395 . S
C682 C684 1.320 . S
C683 C681 1.339 . S
C683 C682 1.395 . S
C683 H709 0.929 . S
C684 C682 1.320 . S
C684 C685 1.405 . S
C684 H710 0.930 . S
C685 C680 1.479 . S
C685 C684 1.405 . S
C685 H711 0.931 . S
U686 O687 2.454 . S
U686 O688 2.458 . S
U686 C689 2.984 . S
U686 C690 2.847 . S
U686 C703 2.882 . S
U686 O704 2.441 . S
U686 O705 2.420 . S
U686 O706 2.455 . S
U686 O707 2.449 . S
O687 U686 2.454 . S
O687 C689 1.353 . S
O688 U686 2.458 . S
O688 C689 1.286 . S
C689 U686 2.984 . S
C689 O687 1.353 . S
C689 O688 1.286 . S
C689 C691 1.363 . S
C690 C680 1.465 . S
C690 U686 2.847 . S
C690 O704 1.249 . S
C690 O705 1.202 . S
C691 C689 1.363 . S
C691 C693 1.408 . S
C691 C696 1.342 . S
C692 C693 1.310 . S
C692 C695 1.461 . S
C692 H712 0.932 . S
C693 C691 1.408 . S
C693 C692 1.310 . S
C693 H713 0.930 . S
C694 C695 1.474 . S
C694 C696 1.285 . S
C694 H714 0.929 . S
C695 C692 1.461 . S
C695 C694 1.474 . S
C696 C691 1.342 . S
C696 C694 1.285 . S
C696 H715 0.930 . S
C697 C700 1.424 . S
C697 C702 1.245 . S
C697 C703 1.428 . S
C698 C701 1.260 . S
C698 C702 1.477 . S
C698 H716 0.932 . S
C699 C700 1.384 . S
C699 C701 1.479 . S
C699 H717 0.929 . S
C700 C697 1.424 . S
C700 C699 1.384 . S
C700 H718 0.928 . S
C701 C698 1.260 . S
C701 C699 1.479 . S
C702 C697 1.245 . S
C702 C698 1.477 . S
C702 H719 0.932 . S
C703 U686 2.882 . S
C703 C697 1.428 . S
C703 O706 1.301 . S
C703 O707 1.282 . S
O704 U686 2.441 . S
O704 C690 1.249 . S
O705 U686 2.420 . S
O705 C690 1.202 . S
O706 U686 2.455 . S
O706 C703 1.301 . S
O707 U686 2.449 . S
O707 C703 1.282 . S
H708 C681 0.931 . S
H709 C683 0.929 . S
H710 C684 0.930 . S
H711 C685 0.931 . S
H712 C692 0.932 . S
H713 C693 0.930 . S
H714 C694 0.929 . S
H715 C696 0.930 . S
H716 C698 0.932 . S
H717 C699 0.929 . S
H718 C700 0.928 . S
H719 C702 0.932 . S
H720 C726 0.930 . S
H721 C730 0.930 . S
H722 C735 0.929 . S
H723 C733 0.929 . S
H724 C728 0.929 . S
H725 C734 0.929 . S
C726 H720 0.930 . S
C726 C727 1.367 1_556 S
C726 C734 1.378 . S
C727 C726 1.367 1_554 S
C727 C735 1.433 . S
C728 H724 0.929 . S
C728 C730 1.378 . S
C728 C732 1.350 1_554 S
C729 C732 1.463 1_545 S
C729 C734 1.350 . S
C729 N737 1.427 1_556 S
C730 H721 0.930 . S
C730 C728 1.378 . S
C730 C731 1.367 1_554 S
C731 C730 1.367 1_556 S
C731 C733 1.433 . S
C732 C728 1.350 1_556 S
C732 C729 1.463 1_565 S
C732 N736 1.427 . S
C733 H723 0.929 . S
C733 C731 1.433 . S
C733 N736 1.384 . S
C734 H725 0.929 . S
C734 C726 1.378 . S
C734 C729 1.350 . S
C735 H722 0.929 . S
C735 C727 1.433 . S
C735 N737 1.384 . S
N736 C732 1.427 . S
N736 C733 1.384 . S
N737 C729 1.427 1_554 S
N737 C735 1.384 . S
H738 C744 0.930 1_556 S
H739 C748 0.930 . S
H740 C753 0.929 . S
H741 C751 0.929 . S
H742 C746 0.929 . S
H743 C752 0.929 1_556 S
C744 H738 0.930 1_554 S
C744 C745 1.367 . S
C744 C752 1.378 . S
C745 C744 1.367 . S
C745 C753 1.433 . S
C746 H742 0.929 . S
C746 C748 1.378 . S
C746 C750 1.350 . S
C747 C750 1.463 1_655 S
C747 C752 1.350 . S
C747 N755 1.427 . S
C748 H739 0.930 . S
C748 C746 1.378 . S
C748 C749 1.367 . S
C749 C748 1.367 . S
C749 C751 1.433 1_554 S
C750 C746 1.350 . S
C750 C747 1.463 1_455 S
C750 N754 1.427 1_554 S
C751 H741 0.929 . S
C751 C749 1.433 1_556 S
C751 N754 1.384 . S
C752 H743 0.929 1_554 S
C752 C744 1.378 . S
C752 C747 1.350 . S
C753 H740 0.929 . S
C753 C745 1.433 . S
C753 N755 1.384 . S
N754 C750 1.427 1_556 S
N754 C751 1.384 . S
N755 C747 1.427 . S
N755 C753 1.384 . S
H756 C762 0.930 . S
H757 C766 0.930 . S
H758 C771 0.929 . S
H759 C769 0.929 . S
H760 C764 0.929 . S
H761 C770 0.929 . S
C762 H756 0.930 . S
C762 C763 1.367 . S
C762 C770 1.378 . S
C763 C762 1.367 . S
C763 C771 1.433 . S
C764 H760 0.929 . S
C764 C766 1.378 . S
C764 C768 1.350 . S
C765 C768 1.463 . S
C765 C770 1.350 . S
C765 N773 1.427 . S
C766 H757 0.930 . S
C766 C764 1.378 . S
C766 C767 1.367 . S
C767 C766 1.367 . S
C767 C769 1.433 . S
C768 C764 1.350 . S
C768 C765 1.463 . S
C768 N772 1.427 . S
C769 H759 0.929 . S
C769 C767 1.433 . S
C769 N772 1.384 . S
C770 H761 0.929 . S
C770 C762 1.378 . S
C770 C765 1.350 . S
C771 H758 0.929 . S
C771 C763 1.433 . S
C771 N773 1.384 . S
N772 C768 1.427 . S
N772 C769 1.384 . S
N773 C765 1.427 . S
N773 C771 1.384 . S
H774 C780 0.930 . S
H775 C784 0.930 . S
H776 C789 0.929 . S
H777 C787 0.929 . S
H778 C782 0.929 . S
H779 C788 0.929 . S
C780 H774 0.930 . S
C780 C781 1.367 . S
C780 C788 1.378 . S
C781 C780 1.367 . S
C781 C789 1.433 . S
C782 H778 0.929 . S
C782 C784 1.378 . S
C782 C786 1.350 . S
C783 C786 1.463 1_544 S
C783 C788 1.350 . S
C783 N791 1.427 . S
C784 H775 0.930 . S
C784 C782 1.378 . S
C784 C785 1.367 . S
C785 C784 1.367 . S
C785 C787 1.433 . S
C786 C782 1.350 . S
C786 C783 1.463 1_566 S
C786 N790 1.427 . S
C787 H777 0.929 . S
C787 C785 1.433 . S
C787 N790 1.384 . S
C788 H779 0.929 . S
C788 C780 1.378 . S
C788 C783 1.350 . S
C789 H776 0.929 . S
C789 C781 1.433 . S
C789 N791 1.384 . S
N790 C786 1.427 . S
N790 C787 1.384 . S
N791 C783 1.427 . S
N791 C789 1.384 . S
H792 C798 0.930 . S
H793 C802 0.930 . S
H794 C807 0.929 . S
H795 C805 0.929 1_554 S
H796 C800 0.929 . S
H797 C806 0.929 . S
C798 H792 0.930 . S
C798 C799 1.367 . S
C798 C806 1.378 . S
C799 C798 1.367 . S
C799 C807 1.433 . S
C800 H796 0.929 . S
C800 C802 1.378 . S
C800 C804 1.350 . S
C801 C804 1.463 1_455 S
C801 C806 1.350 . S
C801 N809 1.427 . S
C802 H793 0.930 . S
C802 C800 1.378 . S
C802 C803 1.367 . S
C803 C802 1.367 . S
C803 C805 1.433 . S
C804 C800 1.350 . S
C804 C801 1.463 1_655 S
C804 N808 1.427 . S
C805 H795 0.929 1_556 S
C805 C803 1.433 . S
C805 N808 1.384 . S
C806 H797 0.929 . S
C806 C798 1.378 . S
C806 C801 1.350 . S
C807 H794 0.929 . S
C807 C799 1.433 . S
C807 N809 1.384 . S
N808 C804 1.427 . S
N808 C805 1.384 . S
N809 C801 1.427 . S
N809 C807 1.384 . S
H810 C816 0.930 . S
H811 C820 0.930 . S
H812 C825 0.929 . S
H813 C823 0.929 . S
H814 C818 0.929 . S
H815 C824 0.929 . S
C816 H810 0.930 . S
C816 C817 1.367 1_556 S
C816 C824 1.378 . S
C817 C816 1.367 1_554 S
C817 C825 1.433 . S
C818 H814 0.929 . S
C818 C820 1.378 . S
C818 C822 1.350 . S
C819 C822 1.463 . S
C819 C824 1.350 1_554 S
C819 N827 1.427 . S
C820 H811 0.930 . S
C820 C818 1.378 . S
C820 C821 1.367 . S
C821 C820 1.367 . S
C821 C823 1.433 1_554 S
C822 C818 1.350 . S
C822 C819 1.463 . S
C822 N826 1.427 1_554 S
C823 H813 0.929 . S
C823 C821 1.433 1_556 S
C823 N826 1.384 . S
C824 H815 0.929 . S
C824 C816 1.378 . S
C824 C819 1.350 1_556 S
C825 H812 0.929 . S
C825 C817 1.433 . S
C825 N827 1.384 . S
N826 C822 1.427 1_556 S
N826 C823 1.384 . S
N827 C819 1.427 . S
N827 C825 1.384 . S
H828 C834 0.930 . S
H829 C838 0.930 . S
H830 C843 0.929 . S
H831 C841 0.929 . S
H832 C836 0.929 . S
H833 C842 0.929 . S
C834 H828 0.930 . S
C834 C835 1.367 . S
C834 C842 1.378 . S
C835 C834 1.367 . S
C835 C843 1.433 . S
C836 H832 0.929 . S
C836 C838 1.378 . S
C836 C840 1.350 . S
C837 C840 1.463 . S
C837 C842 1.350 . S
C837 N845 1.427 . S
C838 H829 0.930 . S
C838 C836 1.378 . S
C838 C839 1.367 . S
C839 C838 1.367 . S
C839 C841 1.433 . S
C840 C836 1.350 . S
C840 C837 1.463 . S
C840 N844 1.427 . S
C841 H831 0.929 . S
C841 C839 1.433 . S
C841 N844 1.384 . S
C842 H833 0.929 . S
C842 C834 1.378 . S
C842 C837 1.350 . S
C843 H830 0.929 . S
C843 C835 1.433 . S
C843 N845 1.384 . S
N844 C840 1.427 . S
N844 C841 1.384 . S
N845 C837 1.427 . S
N845 C843 1.384 . S
H846 C852 0.930 . S
H847 C856 0.930 . S
H848 C861 0.929 . S
H849 C859 0.929 . S
H850 C854 0.929 . S
H851 C860 0.929 . S
C852 H846 0.930 . S
C852 C853 1.367 . S
C852 C860 1.378 . S
C853 C852 1.367 . S
C853 C861 1.433 . S
C854 H850 0.929 . S
C854 C856 1.378 . S
C854 C858 1.350 . S
C855 C858 1.463 . S
C855 C860 1.350 . S
C855 N863 1.427 . S
C856 H847 0.930 . S
C856 C854 1.378 . S
C856 C857 1.367 . S
C857 C856 1.367 . S
C857 C859 1.433 . S
C858 C854 1.350 . S
C858 C855 1.463 . S
C858 N862 1.427 . S
C859 H849 0.929 . S
C859 C857 1.433 . S
C859 N862 1.384 . S
C860 H851 0.929 . S
C860 C852 1.378 . S
C860 C855 1.350 . S
C861 H848 0.929 . S
C861 C853 1.433 . S
C861 N863 1.384 . S
N862 C858 1.427 . S
N862 C859 1.384 . S
N863 C855 1.427 . S
N863 C861 1.384 . S
H864 C870 0.930 . S
H865 C874 0.930 . S
H866 C879 0.929 . S
H867 C877 0.929 . S
H868 C872 0.929 . S
H869 C878 0.929 . S
C870 H864 0.930 . S
C870 C871 1.367 . S
C870 C878 1.378 . S
C871 C870 1.367 . S
C871 C879 1.433 . S
C872 H868 0.929 . S
C872 C874 1.378 . S
C872 C876 1.350 . S
C873 C876 1.463 . S
C873 C878 1.350 . S
C873 N881 1.427 . S
C874 H865 0.930 . S
C874 C872 1.378 . S
C874 C875 1.367 . S
C875 C874 1.367 . S
C875 C877 1.433 . S
C876 C872 1.350 . S
C876 C873 1.463 . S
C876 N880 1.427 . S
C877 H867 0.929 . S
C877 C875 1.433 . S
C877 N880 1.384 . S
C878 H869 0.929 . S
C878 C870 1.378 . S
C878 C873 1.350 . S
C879 H866 0.929 . S
C879 C871 1.433 . S
C879 N881 1.384 . S
N880 C876 1.427 . S
N880 C877 1.384 . S
N881 C873 1.427 . S
N881 C879 1.384 . S
H882 C888 0.930 . S
H883 C892 0.930 . S
H884 C897 0.929 . S
H885 C895 0.929 . S
H886 C890 0.929 . S
H887 C896 0.929 . S
C888 H882 0.930 . S
C888 C889 1.367 . S
C888 C896 1.378 . S
C889 C888 1.367 . S
C889 C897 1.433 . S
C890 H886 0.929 . S
C890 C892 1.378 . S
C890 C894 1.350 . S
C891 C894 1.463 . S
C891 C896 1.350 . S
C891 N899 1.427 . S
C892 H883 0.930 . S
C892 C890 1.378 . S
C892 C893 1.367 . S
C893 C892 1.367 . S
C893 C895 1.433 . S
C894 C890 1.350 . S
C894 C891 1.463 . S
C894 N898 1.427 . S
C895 H885 0.929 . S
C895 C893 1.433 . S
C895 N898 1.384 . S
C896 H887 0.929 . S
C896 C888 1.378 . S
C896 C891 1.350 . S
C897 H884 0.929 . S
C897 C889 1.433 . S
C897 N899 1.384 . S
N898 C894 1.427 . S
N898 C895 1.384 . S
N899 C891 1.427 . S
N899 C897 1.384 . S
H900 C906 0.930 . S
H901 C910 0.930 . S
H902 C915 0.929 . S
H903 C913 0.929 . S
H904 C908 0.929 . S
H905 C914 0.929 . S
C906 H900 0.930 . S
C906 C907 1.367 . S
C906 C914 1.378 . S
C907 C906 1.367 . S
C907 C915 1.433 . S
C908 H904 0.929 . S
C908 C910 1.378 . S
C908 C912 1.350 . S
C909 C912 1.463 . S
C909 C914 1.350 . S
C909 N917 1.427 . S
C910 H901 0.930 . S
C910 C908 1.378 . S
C910 C911 1.367 . S
C911 C910 1.367 . S
C911 C913 1.433 . S
C912 C908 1.350 . S
C912 C909 1.463 . S
C912 N916 1.427 . S
C913 H903 0.929 . S
C913 C911 1.433 . S
C913 N916 1.384 . S
C914 H905 0.929 . S
C914 C906 1.378 . S
C914 C909 1.350 . S
C915 H902 0.929 . S
C915 C907 1.433 . S
C915 N917 1.384 . S
N916 C912 1.427 . S
N916 C913 1.384 . S
N917 C909 1.427 . S
N917 C915 1.384 . S
H918 C924 0.930 . S
H919 C928 0.930 . S
H920 C933 0.929 . S
H921 C931 0.929 . S
H922 C926 0.929 . S
H923 C932 0.929 . S
C924 H918 0.930 . S
C924 C925 1.367 . S
C924 C932 1.378 . S
C925 C924 1.367 . S
C925 C933 1.433 . S
C926 H922 0.929 . S
C926 C928 1.378 . S
C926 C930 1.350 . S
C927 C930 1.463 . S
C927 C932 1.350 . S
C927 N935 1.427 . S
C928 H919 0.930 . S
C928 C926 1.378 . S
C928 C929 1.367 . S
C929 C928 1.367 . S
C929 C931 1.433 . S
C930 C926 1.350 . S
C930 C927 1.463 . S
C930 N934 1.427 . S
C931 H921 0.929 . S
C931 C929 1.433 . S
C931 N934 1.384 . S
C932 H923 0.929 . S
C932 C924 1.378 . S
C932 C927 1.350 . S
C933 H920 0.929 . S
C933 C925 1.433 . S
C933 N935 1.384 . S
N934 C930 1.427 . S
N934 C931 1.384 . S
N935 C927 1.427 . S
N935 C933 1.384 . S
H936 C942 0.930 . S
H937 C946 0.930 . S
H938 C951 0.929 . S
H939 C949 0.929 . S
H940 C944 0.929 . S
H941 C950 0.929 . S
C942 H936 0.930 . S
C942 C943 1.367 . S
C942 C950 1.378 . S
C943 C942 1.367 . S
C943 C951 1.433 . S
C944 H940 0.929 . S
C944 C946 1.378 . S
C944 C948 1.350 . S
C945 C948 1.463 . S
C945 C950 1.350 . S
C945 N953 1.427 . S
C946 H937 0.930 . S
C946 C944 1.378 . S
C946 C947 1.367 . S
C947 C946 1.367 . S
C947 C949 1.433 . S
C948 C944 1.350 . S
C948 C945 1.463 . S
C948 N952 1.427 . S
C949 H939 0.929 . S
C949 C947 1.433 . S
C949 N952 1.384 . S
C950 H941 0.929 . S
C950 C942 1.378 . S
C950 C945 1.350 . S
C951 H938 0.929 . S
C951 C943 1.433 . S
C951 N953 1.384 . S
N952 C948 1.427 . S
N952 C949 1.384 . S
N953 C945 1.427 . S
N953 C951 1.384 . S
H954 C960 0.930 . S
H955 C964 0.930 . S
H956 C969 0.929 . S
H957 C967 0.929 . S
H958 C962 0.929 . S
H959 C968 0.929 . S
C960 H954 0.930 . S
C960 C961 1.367 . S
C960 C968 1.378 . S
C961 C960 1.367 . S
C961 C969 1.433 . S
C962 H958 0.929 . S
C962 C964 1.378 . S
C962 C966 1.350 . S
C963 C966 1.463 . S
C963 C968 1.350 . S
C963 N971 1.427 . S
C964 H955 0.930 . S
C964 C962 1.378 . S
C964 C965 1.367 . S
C965 C964 1.367 . S
C965 C967 1.433 . S
C966 C962 1.350 . S
C966 C963 1.463 . S
C966 N970 1.427 . S
C967 H957 0.929 . S
C967 C965 1.433 . S
C967 N970 1.384 . S
C968 H959 0.929 . S
C968 C960 1.378 . S
C968 C963 1.350 . S
C969 H956 0.929 . S
C969 C961 1.433 . S
C969 N971 1.384 . S
N970 C966 1.427 . S
N970 C967 1.384 . S
N971 C963 1.427 . S
N971 C969 1.384 . S
H972 C978 0.930 . S
H973 C982 0.930 . S
H974 C987 0.929 . S
H975 C985 0.929 . S
H976 C980 0.929 . S
H977 C986 0.929 . S
C978 H972 0.930 . S
C978 C979 1.367 . S
C978 C986 1.378 . S
C979 C978 1.367 . S
C979 C987 1.433 . S
C980 H976 0.929 . S
C980 C982 1.378 . S
C980 C984 1.350 . S
C981 C984 1.463 . S
C981 C986 1.350 . S
C981 N989 1.427 . S
C982 H973 0.930 . S
C982 C980 1.378 . S
C982 C983 1.367 . S
C983 C982 1.367 . S
C983 C985 1.433 . S
C984 C980 1.350 . S
C984 C981 1.463 . S
C984 N988 1.427 . S
C985 H975 0.929 . S
C985 C983 1.433 . S
C985 N988 1.384 . S
C986 H977 0.929 . S
C986 C978 1.378 . S
C986 C981 1.350 . S
C987 H974 0.929 . S
C987 C979 1.433 . S
C987 N989 1.384 . S
N988 C984 1.427 . S
N988 C985 1.384 . S
N989 C981 1.427 . S
N989 C987 1.384 . S
H990 C996 0.930 . S
H991 C1000 0.930 . S
H992 C1005 0.929 . S
H993 C1003 0.929 . S
H994 C998 0.929 . S
H995 C1004 0.929 . S
C996 H990 0.930 . S
C996 C997 1.367 . S
C996 C1004 1.378 . S
C997 C996 1.367 . S
C997 C1005 1.433 . S
C998 H994 0.929 . S
C998 C1000 1.378 . S
C998 C1002 1.350 . S
C999 C1002 1.463 . S
C999 C1004 1.350 . S
C999 N1007 1.427 . S
C1000 H991 0.930 . S
C1000 C998 1.378 . S
C1000 C1001 1.367 . S
C1001 C1000 1.367 . S
C1001 C1003 1.433 . S
C1002 C998 1.350 . S
C1002 C999 1.463 . S
C1002 N1006 1.427 . S
C1003 H993 0.929 . S
C1003 C1001 1.433 . S
C1003 N1006 1.384 . S
C1004 H995 0.929 . S
C1004 C996 1.378 . S
C1004 C999 1.350 . S
C1005 H992 0.929 . S
C1005 C997 1.433 . S
C1005 N1007 1.384 . S
N1006 C1002 1.427 . S
N1006 C1003 1.384 . S
N1007 C999 1.427 . S
N1007 C1005 1.384 . S
H1008 C1014 0.930 . S
H1009 C1018 0.930 . S
H1010 C1023 0.929 . S
H1011 C1021 0.929 . S
H1012 C1016 0.929 . S
H1013 C1022 0.929 . S
C1014 H1008 0.930 . S
C1014 C1015 1.367 . S
C1014 C1022 1.378 . S
C1015 C1014 1.367 . S
C1015 C1023 1.433 . S
C1016 H1012 0.929 . S
C1016 C1018 1.378 . S
C1016 C1020 1.350 . S
C1017 C1020 1.463 . S
C1017 C1022 1.350 . S
C1017 N1025 1.427 . S
C1018 H1009 0.930 . S
C1018 C1016 1.378 . S
C1018 C1019 1.367 . S
C1019 C1018 1.367 . S
C1019 C1021 1.433 . S
C1020 C1016 1.350 . S
C1020 C1017 1.463 . S
C1020 N1024 1.427 . S
C1021 H1011 0.929 . S
C1021 C1019 1.433 . S
C1021 N1024 1.384 . S
C1022 H1013 0.929 . S
C1022 C1014 1.378 . S
C1022 C1017 1.350 . S
C1023 H1010 0.929 . S
C1023 C1015 1.433 . S
C1023 N1025 1.384 . S
N1024 C1020 1.427 . S
N1024 C1021 1.384 . S
N1025 C1017 1.427 . S
N1025 C1023 1.384 . S
H1026 C1032 0.930 . S
H1027 C1036 0.930 . S
H1028 C1041 0.929 . S
H1029 C1039 0.929 . S
H1030 C1034 0.929 . S
H1031 C1040 0.929 . S
C1032 H1026 0.930 . S
C1032 C1033 1.367 . S
C1032 C1040 1.378 . S
C1033 C1032 1.367 . S
C1033 C1041 1.433 . S
C1034 H1030 0.929 . S
C1034 C1036 1.378 . S
C1034 C1038 1.350 . S
C1035 C1038 1.463 . S
C1035 C1040 1.350 . S
C1035 N1043 1.427 . S
C1036 H1027 0.930 . S
C1036 C1034 1.378 . S
C1036 C1037 1.367 . S
C1037 C1036 1.367 . S
C1037 C1039 1.433 . S
C1038 C1034 1.350 . S
C1038 C1035 1.463 . S
C1038 N1042 1.427 . S
C1039 H1029 0.929 . S
C1039 C1037 1.433 . S
C1039 N1042 1.384 . S
C1040 H1031 0.929 . S
C1040 C1032 1.378 . S
C1040 C1035 1.350 . S
C1041 H1028 0.929 . S
C1041 C1033 1.433 . S
C1041 N1043 1.384 . S
N1042 C1038 1.427 . S
N1042 C1039 1.384 . S
N1043 C1035 1.427 . S
N1043 C1041 1.384 . S
H1044 C1050 0.930 . S
H1045 C1054 0.930 . S
H1046 C1059 0.929 . S
H1047 C1057 0.929 . S
H1048 C1052 0.929 . S
H1049 C1058 0.929 . S
C1050 H1044 0.930 . S
C1050 C1051 1.367 . S
C1050 C1058 1.378 . S
C1051 C1050 1.367 . S
C1051 C1059 1.433 . S
C1052 H1048 0.929 . S
C1052 C1054 1.378 . S
C1052 C1056 1.350 . S
C1053 C1056 1.463 . S
C1053 C1058 1.350 . S
C1053 N1061 1.427 . S
C1054 H1045 0.930 . S
C1054 C1052 1.378 . S
C1054 C1055 1.367 . S
C1055 C1054 1.367 . S
C1055 C1057 1.433 . S
C1056 C1052 1.350 . S
C1056 C1053 1.463 . S
C1056 N1060 1.427 . S
C1057 H1047 0.929 . S
C1057 C1055 1.433 . S
C1057 N1060 1.384 . S
C1058 H1049 0.929 . S
C1058 C1050 1.378 . S
C1058 C1053 1.350 . S
C1059 H1046 0.929 . S
C1059 C1051 1.433 . S
C1059 N1061 1.384 . S
N1060 C1056 1.427 . S
N1060 C1057 1.384 . S
N1061 C1053 1.427 . S
N1061 C1059 1.384 . S
H1062 C1068 0.930 . S
H1063 C1072 0.930 . S
H1064 C1077 0.929 . S
H1065 C1075 0.929 . S
H1066 C1070 0.929 . S
H1067 C1076 0.929 . S
C1068 H1062 0.930 . S
C1068 C1069 1.367 . S
C1068 C1076 1.378 . S
C1069 C1068 1.367 . S
C1069 C1077 1.433 . S
C1070 H1066 0.929 . S
C1070 C1072 1.378 . S
C1070 C1074 1.350 . S
C1071 C1074 1.463 . S
C1071 C1076 1.350 . S
C1071 N1079 1.427 . S
C1072 H1063 0.930 . S
C1072 C1070 1.378 . S
C1072 C1073 1.367 . S
C1073 C1072 1.367 . S
C1073 C1075 1.433 . S
C1074 C1070 1.350 . S
C1074 C1071 1.463 . S
C1074 N1078 1.427 . S
C1075 H1065 0.929 . S
C1075 C1073 1.433 . S
C1075 N1078 1.384 . S
C1076 H1067 0.929 . S
C1076 C1068 1.378 . S
C1076 C1071 1.350 . S
C1077 H1064 0.929 . S
C1077 C1069 1.433 . S
C1077 N1079 1.384 . S
N1078 C1074 1.427 . S
N1078 C1075 1.384 . S
N1079 C1071 1.427 . S
N1079 C1077 1.384 . S
H1080 C1086 0.930 . S
H1081 C1090 0.930 . S
H1082 C1095 0.929 . S
H1083 C1093 0.929 . S
H1084 C1088 0.929 . S
H1085 C1094 0.929 . S
C1086 H1080 0.930 . S
C1086 C1087 1.367 . S
C1086 C1094 1.378 . S
C1087 C1086 1.367 . S
C1087 C1095 1.433 . S
C1088 H1084 0.929 . S
C1088 C1090 1.378 . S
C1088 C1092 1.350 . S
C1089 C1092 1.463 . S
C1089 C1094 1.350 . S
C1089 N1097 1.427 . S
C1090 H1081 0.930 . S
C1090 C1088 1.378 . S
C1090 C1091 1.367 . S
C1091 C1090 1.367 . S
C1091 C1093 1.433 . S
C1092 C1088 1.350 . S
C1092 C1089 1.463 . S
C1092 N1096 1.427 . S
C1093 H1083 0.929 . S
C1093 C1091 1.433 . S
C1093 N1096 1.384 . S
C1094 H1085 0.929 . S
C1094 C1086 1.378 . S
C1094 C1089 1.350 . S
C1095 H1082 0.929 . S
C1095 C1087 1.433 . S
C1095 N1097 1.384 . S
N1096 C1092 1.427 . S
N1096 C1093 1.384 . S
N1097 C1089 1.427 . S
N1097 C1095 1.384 . S
H1098 C1104 0.930 . S
H1099 C1108 0.930 . S
H1100 C1113 0.929 . S
H1101 C1111 0.929 . S
H1102 C1106 0.929 . S
H1103 C1112 0.929 . S
C1104 H1098 0.930 . S
C1104 C1105 1.367 . S
C1104 C1112 1.378 . S
C1105 C1104 1.367 . S
C1105 C1113 1.433 . S
C1106 H1102 0.929 . S
C1106 C1108 1.378 . S
C1106 C1110 1.350 . S
C1107 C1110 1.463 . S
C1107 C1112 1.350 . S
C1107 N1115 1.427 . S
C1108 H1099 0.930 . S
C1108 C1106 1.378 . S
C1108 C1109 1.367 . S
C1109 C1108 1.367 . S
C1109 C1111 1.433 . S
C1110 C1106 1.350 . S
C1110 C1107 1.463 . S
C1110 N1114 1.427 . S
C1111 H1101 0.929 . S
C1111 C1109 1.433 . S
C1111 N1114 1.384 . S
C1112 H1103 0.929 . S
C1112 C1104 1.378 . S
C1112 C1107 1.350 . S
C1113 H1100 0.929 . S
C1113 C1105 1.433 . S
C1113 N1115 1.384 . S
N1114 C1110 1.427 . S
N1114 C1111 1.384 . S
N1115 C1107 1.427 . S
N1115 C1113 1.384 . S
H1116 C1122 0.930 . S
H1117 C1126 0.930 . S
H1118 C1131 0.929 . S
H1119 C1129 0.929 . S
H1120 C1124 0.929 . S
H1121 C1130 0.929 . S
C1122 H1116 0.930 . S
C1122 C1123 1.367 . S
C1122 C1130 1.378 . S
C1123 C1122 1.367 . S
C1123 C1131 1.433 . S
C1124 H1120 0.929 . S
C1124 C1126 1.378 . S
C1124 C1128 1.350 . S
C1125 C1128 1.463 . S
C1125 C1130 1.350 . S
C1125 N1133 1.427 . S
C1126 H1117 0.930 . S
C1126 C1124 1.378 . S
C1126 C1127 1.367 . S
C1127 C1126 1.367 . S
C1127 C1129 1.433 . S
C1128 C1124 1.350 . S
C1128 C1125 1.463 . S
C1128 N1132 1.427 . S
C1129 H1119 0.929 . S
C1129 C1127 1.433 . S
C1129 N1132 1.384 . S
C1130 H1121 0.929 . S
C1130 C1122 1.378 . S
C1130 C1125 1.350 . S
C1131 H1118 0.929 . S
C1131 C1123 1.433 . S
C1131 N1133 1.384 . S
N1132 C1128 1.427 . S
N1132 C1129 1.384 . S
N1133 C1125 1.427 . S
N1133 C1131 1.384 . S
H1134 C1140 0.930 . S
H1135 C1144 0.930 . S
H1136 C1149 0.929 . S
H1137 C1147 0.929 . S
H1138 C1142 0.929 . S
H1139 C1148 0.929 . S
C1140 H1134 0.930 . S
C1140 C1141 1.367 . S
C1140 C1148 1.378 . S
C1141 C1140 1.367 . S
C1141 C1149 1.433 . S
C1142 H1138 0.929 . S
C1142 C1144 1.378 . S
C1142 C1146 1.350 . S
C1143 C1146 1.463 . S
C1143 C1148 1.350 . S
C1143 N1151 1.427 . S
C1144 H1135 0.930 . S
C1144 C1142 1.378 . S
C1144 C1145 1.367 . S
C1145 C1144 1.367 . S
C1145 C1147 1.433 . S
C1146 C1142 1.350 . S
C1146 C1143 1.463 . S
C1146 N1150 1.427 . S
C1147 H1137 0.929 . S
C1147 C1145 1.433 . S
C1147 N1150 1.384 . S
C1148 H1139 0.929 . S
C1148 C1140 1.378 . S
C1148 C1143 1.350 . S
C1149 H1136 0.929 . S
C1149 C1141 1.433 . S
C1149 N1151 1.384 . S
N1150 C1146 1.427 . S
N1150 C1147 1.384 . S
N1151 C1143 1.427 . S
N1151 C1149 1.384 . S
H1152 C1158 0.930 . S
H1153 C1162 0.930 . S
H1154 C1167 0.929 . S
H1155 C1165 0.929 . S
H1156 C1160 0.929 . S
H1157 C1166 0.929 . S
C1158 H1152 0.930 . S
C1158 C1159 1.367 . S
C1158 C1166 1.378 . S
C1159 C1158 1.367 . S
C1159 C1167 1.433 . S
C1160 H1156 0.929 . S
C1160 C1162 1.378 . S
C1160 C1164 1.350 . S
C1161 C1164 1.463 1_455 S
C1161 C1166 1.350 . S
C1161 N1169 1.427 . S
C1162 H1153 0.930 . S
C1162 C1160 1.378 . S
C1162 C1163 1.367 . S
C1163 C1162 1.367 . S
C1163 C1165 1.433 . S
C1164 C1160 1.350 . S
C1164 C1161 1.463 1_655 S
C1164 N1168 1.427 . S
C1165 H1155 0.929 . S
C1165 C1163 1.433 . S
C1165 N1168 1.384 . S
C1166 H1157 0.929 . S
C1166 C1158 1.378 . S
C1166 C1161 1.350 . S
C1167 H1154 0.929 . S
C1167 C1159 1.433 . S
C1167 N1169 1.384 . S
N1168 C1164 1.427 . S
N1168 C1165 1.384 . S
N1169 C1161 1.427 . S
N1169 C1167 1.384 . S
H1170 C1176 0.930 . S
H1171 C1180 0.930 . S
H1172 C1185 0.929 . S
H1173 C1183 0.929 . S
H1174 C1178 0.929 . S
H1175 C1184 0.929 . S
C1176 H1170 0.930 . S
C1176 C1177 1.367 . S
C1176 C1184 1.378 . S
C1177 C1176 1.367 . S
C1177 C1185 1.433 . S
C1178 H1174 0.929 . S
C1178 C1180 1.378 . S
C1178 C1182 1.350 . S
C1179 C1182 1.463 . S
C1179 C1184 1.350 . S
C1179 N1187 1.427 . S
C1180 H1171 0.930 . S
C1180 C1178 1.378 . S
C1180 C1181 1.367 . S
C1181 C1180 1.367 . S
C1181 C1183 1.433 . S
C1182 C1178 1.350 . S
C1182 C1179 1.463 . S
C1182 N1186 1.427 . S
C1183 H1173 0.929 . S
C1183 C1181 1.433 . S
C1183 N1186 1.384 . S
C1184 H1175 0.929 . S
C1184 C1176 1.378 . S
C1184 C1179 1.350 . S
C1185 H1172 0.929 . S
C1185 C1177 1.433 . S
C1185 N1187 1.384 . S
N1186 C1182 1.427 . S
N1186 C1183 1.384 . S
N1187 C1179 1.427 . S
N1187 C1185 1.384 . S
H1188 C1194 0.930 . S
H1189 C1198 0.930 . S
H1190 C1203 0.929 . S
H1191 C1201 0.929 . S
H1192 C1196 0.929 . S
H1193 C1202 0.929 . S
C1194 H1188 0.930 . S
C1194 C1195 1.367 . S
C1194 C1202 1.378 . S
C1195 C1194 1.367 . S
C1195 C1203 1.433 . S
C1196 H1192 0.929 . S
C1196 C1198 1.378 . S
C1196 C1200 1.350 . S
C1197 C1200 1.463 1_545 S
C1197 C1202 1.350 . S
C1197 N1205 1.427 . S
C1198 H1189 0.930 . S
C1198 C1196 1.378 . S
C1198 C1199 1.367 . S
C1199 C1198 1.367 . S
C1199 C1201 1.433 . S
C1200 C1196 1.350 . S
C1200 C1197 1.463 1_565 S
C1200 N1204 1.427 . S
C1201 H1191 0.929 . S
C1201 C1199 1.433 . S
C1201 N1204 1.384 . S
C1202 H1193 0.929 . S
C1202 C1194 1.378 . S
C1202 C1197 1.350 . S
C1203 H1190 0.929 . S
C1203 C1195 1.433 . S
C1203 N1205 1.384 . S
N1204 C1200 1.427 . S
N1204 C1201 1.384 . S
N1205 C1197 1.427 . S
N1205 C1203 1.384 . S
C727 C21 1.512 . S
C731 C221 1.512 . S
C745 C61 1.467 . S
C749 C122 1.475 . S
C763 C82 1.470 . S
C767 C181 1.471 . S
C781 C42 1.474 . S
C785 C162 1.481 . S
C799 C202 1.527 . S
C803 C101 1.516 1_556 S
C817 C2 1.525 . S
C821 C141 1.516 1_554 S
C835 C461 1.512 . S
C839 C261 1.513 . S
C853 C301 1.468 . S
C857 C362 1.474 . S
C871 C322 1.467 . S
C875 C421 1.472 . S
C889 C282 1.474 . S
C893 C402 1.474 . S
C907 C341 1.513 . S
C911 C442 1.521 . S
C925 C242 1.524 . S
C929 C381 1.519 . S
C943 C501 1.512 . S
C947 C701 1.512 . S
C961 C602 1.470 . S
C965 C541 1.475 . S
C979 C661 1.473 . S
C983 C562 1.464 . S
C997 C642 1.473 . S
C1001 C522 1.476 . S
C1015 C682 1.521 . S
C1019 C581 1.511 . S
C1033 C621 1.521 . S
C1037 C482 1.527 . S
C1051 C15 1.507 . S
C1055 C415 1.506 . S
C1069 C455 1.509 . S
C1073 C55 1.507 . S
C1087 C375 1.518 . S
C1091 C95 1.518 . S
C1105 C135 1.516 . S
C1109 C575 1.516 . S
C1123 C175 1.507 . S
C1127 C495 1.508 . S
C1141 C535 1.508 . S
C1145 C215 1.510 . S
C1159 C655 1.506 . S
C1163 C255 1.507 . S
C1177 C295 1.507 . S
C1181 C695 1.509 . S
C1195 C335 1.521 . S
C1199 C615 1.521 . S
