# Generated by pormake.
# Topology unp, (4)-cn, num edge types: 1
# Building blocks:
#     Node 0, Type 0, BuildingBlock: AZAVOO_clean_sbu_0, # of connection points: 4
#     Node 1, Type 0, BuildingBlock: AZAVOO_clean_sbu_0, # of connection points: 4
#     Node 2, Type 0, BuildingBlock: AZAVOO_clean_sbu_0, # of connection points: 4
#     Node 3, Type 0, BuildingBlock: AZAVOO_clean_sbu_0, # of connection points: 4
#     Node 4, Type 0, BuildingBlock: AZAVOO_clean_sbu_0, # of connection points: 4
#     Node 5, Type 0, BuildingBlock: AZAVOO_clean_sbu_0, # of connection points: 4
#     Node 6, Type 0, BuildingBlock: AZAVOO_clean_sbu_0, # of connection points: 4
#     Node 7, Type 0, BuildingBlock: AZAVOO_clean_sbu_0, # of connection points: 4
#     Node 8, Type 0, BuildingBlock: AZAVOO_clean_sbu_0, # of connection points: 4
#     Node 9, Type 0, BuildingBlock: AZAVOO_clean_sbu_0, # of connection points: 4
#     Node 10, Type 0, BuildingBlock: AZAVOO_clean_sbu_0, # of connection points: 4
#     Node 11, Type 0, BuildingBlock: AZAVOO_clean_sbu_0, # of connection points: 4
#     Node 12, Type 0, BuildingBlock: AZAVOO_clean_sbu_0, # of connection points: 4
#     Node 13, Type 0, BuildingBlock: AZAVOO_clean_sbu_0, # of connection points: 4
#     Node 14, Type 0, BuildingBlock: AZAVOO_clean_sbu_0, # of connection points: 4
#     Node 15, Type 0, BuildingBlock: AZAVOO_clean_sbu_0, # of connection points: 4
#     Node 16, Type 0, BuildingBlock: AZAVOO_clean_sbu_0, # of connection points: 4
#     Node 17, Type 0, BuildingBlock: AZAVOO_clean_sbu_0, # of connection points: 4
#     Edge 18, Type (0, 0), BuildingBlock: EYOCIG_clean_linker_4, # of connection points: 2
#     Edge 19, Type (0, 0), BuildingBlock: EYOCIG_clean_linker_4, # of connection points: 2
#     Edge 20, Type (0, 0), BuildingBlock: EYOCIG_clean_linker_4, # of connection points: 2
#     Edge 21, Type (0, 0), BuildingBlock: EYOCIG_clean_linker_4, # of connection points: 2
#     Edge 22, Type (0, 0), BuildingBlock: EYOCIG_clean_linker_4, # of connection points: 2
#     Edge 23, Type (0, 0), BuildingBlock: EYOCIG_clean_linker_4, # of connection points: 2
#     Edge 24, Type (0, 0), BuildingBlock: EYOCIG_clean_linker_4, # of connection points: 2
#     Edge 25, Type (0, 0), BuildingBlock: EYOCIG_clean_linker_4, # of connection points: 2
#     Edge 26, Type (0, 0), BuildingBlock: EYOCIG_clean_linker_4, # of connection points: 2
#     Edge 27, Type (0, 0), BuildingBlock: EYOCIG_clean_linker_4, # of connection points: 2
#     Edge 28, Type (0, 0), BuildingBlock: EYOCIG_clean_linker_4, # of connection points: 2
#     Edge 29, Type (0, 0), BuildingBlock: EYOCIG_clean_linker_4, # of connection points: 2
#     Edge 30, Type (0, 0), BuildingBlock: EYOCIG_clean_linker_4, # of connection points: 2
#     Edge 31, Type (0, 0), BuildingBlock: EYOCIG_clean_linker_4, # of connection points: 2
#     Edge 32, Type (0, 0), BuildingBlock: EYOCIG_clean_linker_4, # of connection points: 2
#     Edge 33, Type (0, 0), BuildingBlock: EYOCIG_clean_linker_4, # of connection points: 2
#     Edge 34, Type (0, 0), BuildingBlock: EYOCIG_clean_linker_4, # of connection points: 2
#     Edge 35, Type (0, 0), BuildingBlock: EYOCIG_clean_linker_4, # of connection points: 2
#     Edge 36, Type (0, 0), BuildingBlock: EYOCIG_clean_linker_4, # of connection points: 2
#     Edge 37, Type (0, 0), BuildingBlock: EYOCIG_clean_linker_4, # of connection points: 2
#     Edge 38, Type (0, 0), BuildingBlock: EYOCIG_clean_linker_4, # of connection points: 2
#     Edge 39, Type (0, 0), BuildingBlock: EYOCIG_clean_linker_4, # of connection points: 2
#     Edge 40, Type (0, 0), BuildingBlock: EYOCIG_clean_linker_4, # of connection points: 2
#     Edge 41, Type (0, 0), BuildingBlock: EYOCIG_clean_linker_4, # of connection points: 2
#     Edge 42, Type (0, 0), BuildingBlock: EYOCIG_clean_linker_4, # of connection points: 2
#     Edge 43, Type (0, 0), BuildingBlock: EYOCIG_clean_linker_4, # of connection points: 2
#     Edge 44, Type (0, 0), BuildingBlock: EYOCIG_clean_linker_4, # of connection points: 2
#     Edge 45, Type (0, 0), BuildingBlock: EYOCIG_clean_linker_4, # of connection points: 2
#     Edge 46, Type (0, 0), BuildingBlock: EYOCIG_clean_linker_4, # of connection points: 2
#     Edge 47, Type (0, 0), BuildingBlock: EYOCIG_clean_linker_4, # of connection points: 2
#     Edge 48, Type (0, 0), BuildingBlock: EYOCIG_clean_linker_4, # of connection points: 2
#     Edge 49, Type (0, 0), BuildingBlock: EYOCIG_clean_linker_4, # of connection points: 2
#     Edge 50, Type (0, 0), BuildingBlock: EYOCIG_clean_linker_4, # of connection points: 2
#     Edge 51, Type (0, 0), BuildingBlock: EYOCIG_clean_linker_4, # of connection points: 2
#     Edge 52, Type (0, 0), BuildingBlock: EYOCIG_clean_linker_4, # of connection points: 2
#     Edge 53, Type (0, 0), BuildingBlock: EYOCIG_clean_linker_4, # of connection points: 2
# Relax obj value: 0.357
# Max RMSD: 0.201
# Mean RMSD: 0.191
data_MOF--net-unp--node1-AZAVOO_clean_sbu_0--edge1-EYOCIG_clean_linker_4
_symmetry_space_group_name_H-M    P1
_symmetry_Int_Tables_number       1
_symmetry_cell_setting            triclinic
loop_
_symmetry_equiv_pos_as_xyz
'x, y, z'
_cell_length_a     33.575341
_cell_length_b     33.574308
_cell_length_c     60.698692
_cell_angle_alpha  90.19782
_cell_angle_beta   89.814348
_cell_angle_gamma 120.60607
loop_
_atom_site_label
_atom_site_type_symbol
_atom_site_fract_x
_atom_site_fract_y
_atom_site_fract_z
_atom_type_partial_charge
Mg0 Mg 0.15462 0.23505 0.08914 0.0
O1 O 0.14644 0.16359 0.09537 0.0
O2 O 0.08776 0.11176 0.0745 0.0
Mg3 Mg 0.06063 0.14986 0.05397 0.0
C4 C 0.11951 0.12225 0.08871 0.0
C5 C 0.22566 0.28703 0.12637 0.0
O6 O 0.18965 0.28786 0.13421 0.0
O7 O 0.19053 0.24052 0.05612 0.0
O8 O 0.13029 0.18882 0.03594 0.0
O9 O 0.10019 0.21842 0.11496 0.0
O10 O 0.08564 0.20343 0.07943 0.0
C11 C 0.17305 0.21922 0.03804 0.0
C12 C 0.07049 0.19878 0.09924 0.0
O13 O 0.22314 0.26843 0.10779 0.0
Mg14 Mg 0.75515 0.93592 0.08787 0.0
O15 O 0.82626 0.00173 0.0931 0.0
O16 O 0.87833 -0.00601 0.07325 0.0
Mg17 Mg 0.8409 0.92531 0.05454 0.0
C18 C 0.86761 0.01657 0.08653 0.0
C19 C 0.70117 0.95574 0.12321 0.0
O20 O 0.69985 0.91908 0.13152 0.0
O21 O 0.74919 0.96174 0.0538 0.0
O22 O 0.80092 0.95173 0.03484 0.0
O23 O 0.77195 0.90163 0.11513 0.0
O24 O 0.78717 0.89852 0.07991 0.0
C25 C 0.7703 0.96344 0.03597 0.0
C26 C 0.79144 0.89 0.10006 0.0
O27 O 0.721 0.97174 0.10484 0.0
Mg28 Mg 0.05044 0.83555 0.09463 0.0
O29 O 0.98414 0.83949 0.09825 0.0
O30 O -0.00798 0.8968 0.07643 0.0
Mg31 Mg 0.06076 0.9271 0.05793 0.0
C32 C 0.96936 0.86482 0.09045 0.0
C33 C 0.03057 0.76435 0.13161 0.0
O34 O 0.06678 0.80094 0.1399 0.0
O35 O 0.02576 0.79904 0.06128 0.0
O36 O 0.03525 0.8579 0.04013 0.0
O37 O 0.08337 0.89042 0.12079 0.0
O38 O 0.08733 0.9046 0.08504 0.0
C39 C 0.02407 0.81575 0.04269 0.0
C40 C 0.09488 0.91986 0.1049 0.0
O41 O 0.01497 0.76677 0.11296 0.0
Mg42 Mg 0.23136 0.1586 0.89075 0.0
O43 O 0.15974 0.14999 0.8845 0.0
O44 O 0.10809 0.09126 0.90539 0.0
Mg45 Mg 0.14647 0.06449 0.92595 0.0
C46 C 0.11843 0.12295 0.89116 0.0
C47 C 0.28245 0.22952 0.85335 0.0
O48 O 0.28292 0.19342 0.84536 0.0
O49 O 0.23663 0.19454 0.92375 0.0
O50 O 0.18514 0.13423 0.94395 0.0
O51 O 0.215 0.10415 0.86497 0.0
O52 O 0.20005 0.08965 0.9005 0.0
C53 C 0.21537 0.17704 0.94183 0.0
C54 C 0.19547 0.07447 0.8807 0.0
O55 O 0.26441 0.22709 0.87208 0.0
Mg56 Mg 0.83169 0.05386 0.88519 0.0
O57 O 0.83561 0.98754 0.88157 0.0
O58 O 0.89297 -0.00452 0.90339 0.0
Mg59 Mg 0.92325 0.06422 0.9219 0.0
C60 C 0.86098 0.97279 0.88938 0.0
C61 C 0.76052 0.03383 0.84817 0.0
O62 O 0.7972 0.06981 0.83979 0.0
O63 O 0.7952 0.02923 0.91853 0.0
O64 O 0.85406 0.0387 0.93968 0.0
O65 O 0.88652 0.08672 0.85902 0.0
O66 O 0.90074 0.09074 0.89477 0.0
C67 C 0.81191 0.02752 0.93713 0.0
C68 C 0.91598 0.09823 0.87492 0.0
O69 O 0.76289 0.01842 0.86688 0.0
Mg70 Mg 0.93274 0.75897 0.89188 0.0
O71 O -0.00135 0.83003 0.88665 0.0
O72 O -0.00897 0.88215 0.90652 0.0
Mg73 Mg 0.92235 0.84485 0.92522 0.0
C74 C 0.01356 0.87139 0.89324 0.0
C75 C 0.95067 0.70297 0.857 0.0
O76 O 0.91267 0.69989 0.84941 0.0
O77 O 0.9586 0.75298 0.92595 0.0
O78 O 0.94865 0.80476 0.94491 0.0
O79 O 0.89843 0.77578 0.86464 0.0
O80 O 0.89545 0.7911 0.89987 0.0
C81 C 0.96031 0.77411 0.94378 0.0
C82 C 0.88685 0.79531 0.87972 0.0
O83 O 0.96828 0.72467 0.87482 0.0
Mg84 Mg 0.81326 0.55513 0.42653 0.0
O85 O 0.80804 0.4844 0.43067 0.0
O86 O 0.74997 0.43325 0.40929 0.0
Mg87 Mg 0.72031 0.4712 0.39052 0.0
C88 C 0.7822 0.44351 0.4232 0.0
C89 C 0.88484 0.60527 0.46394 0.0
O90 O 0.8482 0.60294 0.473 0.0
O91 O 0.84914 0.56496 0.39314 0.0
O92 O 0.78957 0.5137 0.3725 0.0
O93 O 0.75882 0.5343 0.45279 0.0
O94 O 0.74404 0.52221 0.41713 0.0
C95 C 0.83197 0.54498 0.37478 0.0
C96 C 0.72908 0.51533 0.43703 0.0
O97 O 0.8823 0.58919 0.44471 0.0
Mg98 Mg 0.41548 0.24979 0.4239 0.0
O99 O 0.48623 0.31583 0.42958 0.0
O100 O 0.53842 0.31067 0.40855 0.0
Mg101 Mg 0.50123 0.24367 0.38854 0.0
C102 C 0.52754 0.33174 0.42267 0.0
C103 C 0.36415 0.26942 0.46126 0.0
O104 O 0.36639 0.23511 0.47019 0.0
O105 O 0.40827 0.27805 0.39079 0.0
O106 O 0.4604 0.27133 0.37043 0.0
O107 O 0.4339 0.21436 0.4499 0.0
O108 O 0.44844 0.21412 0.41435 0.0
C109 C 0.42926 0.28213 0.37262 0.0
C110 C 0.45371 0.20464 0.4342 0.0
O111 O 0.38074 0.2836 0.44216 0.0
Mg112 Mg 0.71741 0.15828 0.42192 0.0
O113 O 0.65141 0.16195 0.42762 0.0
O114 O 0.6577 0.2206 0.40736 0.0
Mg115 Mg 0.72525 0.25225 0.3878 0.0
C116 C 0.63598 0.18761 0.42102 0.0
C117 C 0.69902 0.08554 0.4579 0.0
O118 O 0.73518 0.12199 0.46632 0.0
O119 O 0.68988 0.12382 0.38832 0.0
O120 O 0.69768 0.18404 0.36884 0.0
O121 O 0.75232 0.21155 0.44861 0.0
O122 O 0.75369 0.22797 0.41326 0.0
C123 C 0.68648 0.14171 0.37041 0.0
C124 C 0.76264 0.24198 0.4333 0.0
O125 O 0.68304 0.08851 0.43945 0.0
Mg126 Mg 0.88418 0.4938 0.22554 0.0
O127 O 0.8137 0.48871 0.22062 0.0
O128 O 0.76134 0.42965 0.24112 0.0
Mg129 Mg 0.79826 0.39918 0.26013 0.0
C130 C 0.7724 0.46252 0.22751 0.0
C131 C 0.93383 0.56656 0.1886 0.0
O132 O 0.92995 0.52983 0.17884 0.0
O133 O 0.89206 0.52809 0.2592 0.0
O134 O 0.83969 0.46757 0.279 0.0
O135 O 0.86494 0.4407 0.19876 0.0
O136 O 0.8508 0.42413 0.23418 0.0
C137 C 0.87108 0.51008 0.27726 0.0
C138 C 0.84506 0.41018 0.21412 0.0
O139 O 0.919 0.56366 0.20813 0.0
Mg140 Mg 0.48717 0.39685 0.22523 0.0
O141 O 0.49152 0.33138 0.21916 0.0
O142 O 0.54913 0.33686 0.23998 0.0
Mg143 Mg 0.57947 0.40343 0.26025 0.0
C144 C 0.5169 0.31574 0.22589 0.0
C145 C 0.41693 0.38006 0.18827 0.0
O146 O 0.45386 0.41693 0.18066 0.0
O147 O 0.45086 0.36737 0.25829 0.0
O148 O 0.51018 0.37452 0.27833 0.0
O149 O 0.54192 0.43333 0.19931 0.0
O150 O 0.55632 0.43296 0.23482 0.0
C151 C 0.46787 0.36314 0.27632 0.0
C152 C 0.57147 0.44301 0.21499 0.0
O153 O 0.41857 0.36305 0.20666 0.0
Mg154 Mg 0.57953 0.09556 0.22181 0.0
O155 O 0.64539 0.16692 0.21737 0.0
O156 O 0.63872 0.21748 0.23899 0.0
Mg157 Mg 0.5708 0.17854 0.25818 0.0
C158 C 0.66067 0.20772 0.22486 0.0
C159 C 0.60216 0.0492 0.1834 0.0
O160 O 0.56874 0.05302 0.17449 0.0
O161 O 0.60661 0.0866 0.25494 0.0
O162 O 0.59833 0.13714 0.27584 0.0
O163 O 0.54499 0.11518 0.19591 0.0
O164 O 0.54285 0.12736 0.23162 0.0
C165 C 0.60969 0.10647 0.27335 0.0
C166 C 0.53431 0.13382 0.21178 0.0
O167 O 0.61473 0.06282 0.20304 0.0
Mg168 Mg 0.49014 0.88819 0.75412 0.0
O169 O 0.4851 0.81777 0.75916 0.0
O170 O 0.42626 0.76532 0.73857 0.0
Mg171 Mg 0.39583 0.80211 0.71942 0.0
C172 C 0.45903 0.77645 0.75227 0.0
C173 C 0.56258 0.93735 0.79128 0.0
O174 O 0.52568 0.93284 0.80113 0.0
O175 O 0.52468 0.89604 0.72054 0.0
O176 O 0.46433 0.84362 0.70066 0.0
O177 O 0.43683 0.86902 0.78079 0.0
O178 O 0.42053 0.85474 0.74534 0.0
C179 C 0.50682 0.87504 0.70246 0.0
C180 C 0.40642 0.8491 0.76538 0.0
O181 O 0.55988 0.9231 0.77164 0.0
Mg182 Mg 0.09166 0.58368 0.75774 0.0
O183 O 0.16296 0.64967 0.76212 0.0
O184 O 0.21354 0.64297 0.74052 0.0
Mg185 Mg 0.17466 0.57496 0.7214 0.0
C186 C 0.20375 0.66497 0.75462 0.0
C187 C 0.04306 0.60432 0.79574 0.0
O188 O 0.04466 0.56916 0.80404 0.0
O189 O 0.08252 0.61054 0.72458 0.0
O190 O 0.13311 0.60227 0.70372 0.0
O191 O 0.1115 0.54943 0.78369 0.0
O192 O 0.12357 0.54709 0.74798 0.0
C193 C 0.10238 0.61356 0.70617 0.0
C194 C 0.13015 0.53872 0.76783 0.0
O195 O 0.05887 0.61876 0.77655 0.0
Mg196 Mg 0.39309 0.49135 0.75459 0.0
O197 O 0.32777 0.496 0.7606 0.0
O198 O 0.3336 0.55382 0.73981 0.0
Mg199 Mg 0.40026 0.58399 0.71963 0.0
C200 C 0.31232 0.52154 0.75386 0.0
C201 C 0.37539 0.421 0.79164 0.0
O202 O 0.41187 0.45799 0.79948 0.0
O203 O 0.36366 0.45523 0.72147 0.0
O204 O 0.37115 0.51474 0.70148 0.0
O205 O 0.4296 0.54598 0.78057 0.0
O206 O 0.42948 0.56053 0.74507 0.0
C207 C 0.35959 0.47238 0.70346 0.0
C208 C 0.43945 0.57561 0.76492 0.0
O209 O 0.35894 0.42264 0.77309 0.0
Mg210 Mg 0.55191 0.81752 0.55322 0.0
O211 O 0.48124 0.81249 0.54911 0.0
O212 O 0.43008 0.7545 0.5705 0.0
Mg213 Mg 0.46794 0.72472 0.58925 0.0
C214 C 0.44036 0.78673 0.5566 0.0
C215 C 0.60297 0.88901 0.51595 0.0
O216 O 0.60152 0.8525 0.50722 0.0
O217 O 0.56193 0.85351 0.5866 0.0
O218 O 0.51064 0.79398 0.60725 0.0
O219 O 0.5309 0.76305 0.52696 0.0
O220 O 0.51888 0.74832 0.56262 0.0
C221 C 0.54199 0.83637 0.60497 0.0
C222 C 0.51192 0.73333 0.54272 0.0
O223 O 0.58603 0.88647 0.53497 0.0
Mg224 Mg 0.1549 0.72127 0.55762 0.0
O225 O 0.15867 0.65536 0.55181 0.0
O226 O 0.21719 0.66151 0.57213 0.0
Mg227 Mg 0.2487 0.72893 0.59181 0.0
C228 C 0.1843 0.63989 0.5584 0.0
C229 C 0.08234 0.70186 0.52129 0.0
O230 O 0.11904 0.7371 0.51247 0.0
O231 O 0.12029 0.69351 0.59115 0.0
O232 O 0.18041 0.70126 0.61071 0.0
O233 O 0.20834 0.75646 0.53102 0.0
O234 O 0.22454 0.75755 0.56638 0.0
C235 C 0.13808 0.69004 0.60908 0.0
C236 C 0.23868 0.76672 0.54637 0.0
O237 O 0.08514 0.68689 0.54005 0.0
Mg238 Mg 0.24649 0.41962 0.55571 0.0
O239 O 0.31246 0.49044 0.55009 0.0
O240 O 0.30697 0.5426 0.571 0.0
Mg241 Mg 0.23985 0.50532 0.59089 0.0
C242 C 0.32821 0.53175 0.55696 0.0
C243 C 0.26591 0.36752 0.51868 0.0
O244 O 0.23103 0.3689 0.50986 0.0
O245 O 0.27457 0.4126 0.58891 0.0
O246 O 0.26759 0.46472 0.60916 0.0
O247 O 0.21119 0.43786 0.52956 0.0
O248 O 0.21062 0.45246 0.56509 0.0
C249 C 0.27851 0.43364 0.60705 0.0
C250 C 0.20131 0.45768 0.5452 0.0
O251 O 0.28056 0.38495 0.53762 0.0
C252 C 0.34109 0.34141 0.16408 0.0
C253 C 0.3753 0.35843 0.17541 0.0
C254 C 0.30145 0.32215 0.15052 0.0
C255 C 0.26724 0.30591 0.1392 0.0
C256 C 0.66396 -0.00452 0.14622 0.0
C257 C 0.68127 0.97818 0.1353 0.0
C258 C 0.64326 0.01463 0.15948 0.0
C259 C 0.62496 0.0305 0.17069 0.0
C260 C 0.97086 0.64519 0.16662 0.0
C261 C 0.95386 0.6096 0.17692 0.0
C262 C -0.00905 0.68645 0.15424 0.0
C263 C 0.00866 0.72176 0.14371 0.0
C264 C 0.33652 0.345 0.81571 0.0
C265 C 0.35361 0.37925 0.8044 0.0
C266 C 0.3173 0.30534 0.82924 0.0
C267 C 0.30119 0.27113 0.84055 0.0
C268 C 0.68251 -0.00564 0.82562 0.0
C269 C 0.71787 0.01201 0.83611 0.0
C270 C 0.6412 0.97433 0.81326 0.0
C271 C 0.6056 0.95737 0.80298 0.0
C272 C 0.0088 0.64519 0.82006 0.0
C273 C 0.02458 0.62704 0.80868 0.0
C274 C -0.01011 0.66581 0.83355 0.0
C275 C 0.97286 0.68315 0.84464 0.0
C276 C 0.96277 0.64218 0.48653 0.0
C277 C 0.92745 0.62523 0.47601 0.0
C278 C 0.00394 0.66224 0.49902 0.0
C279 C 0.0394 0.67985 0.50944 0.0
C280 C 0.30576 0.32964 0.49624 0.0
C281 C 0.28793 0.34705 0.50669 0.0
C282 C 0.32626 0.30915 0.48379 0.0
C283 C 0.34366 0.29135 0.47331 0.0
C284 C 0.65959 0.00747 0.48042 0.0
C285 C 0.67707 0.04277 0.46987 0.0
C286 C 0.63967 0.96653 0.49306 0.0
C287 C 0.6228 0.9314 0.50372 0.0
C288 C 0.98284 0.13494 0.10345 0.0
C289 C 0.02308 0.16488 0.10367 0.0
C290 C 0.93864 0.09576 0.09981 0.0
C291 C 0.90424 0.06019 0.09462 0.0
C292 C 0.85304 0.86493 0.1059 0.0
C293 C 0.82412 0.87604 0.10541 0.0
C294 C 0.89113 0.85851 0.10293 0.0
C295 C 0.92618 0.85874 0.09824 0.0
C296 C 0.12376 0.05097 0.10377 0.0
C297 C 0.12419 0.08539 0.09776 0.0
C298 C 0.11771 0.00696 0.10819 0.0
C299 C 0.10754 0.96699 0.10887 0.0
C300 C 0.0928 0.94243 0.88004 0.0
C301 C 0.05722 0.90799 0.88518 0.0
C302 C 0.13192 0.9867 0.87646 0.0
C303 C 0.16172 0.02699 0.87627 0.0
C304 C 0.04702 0.12693 0.87608 0.0
C305 C 0.08146 0.12744 0.8821 0.0
C306 C 0.00302 0.12088 0.87163 0.0
C307 C 0.96308 0.11079 0.87095 0.0
C308 C 0.86147 0.85668 0.8739 0.0
C309 C 0.87271 0.82785 0.87438 0.0
C310 C 0.85486 0.89466 0.87687 0.0
C311 C 0.85498 0.92965 0.88156 0.0
C312 C 0.64204 0.44958 0.44089 0.0
C313 C 0.68201 0.48018 0.44128 0.0
C314 C 0.59814 0.41023 0.43691 0.0
C315 C 0.56395 0.37486 0.43132 0.0
C316 C 0.51807 0.18275 0.43846 0.0
C317 C 0.48795 0.19225 0.43864 0.0
C318 C 0.5572 0.17834 0.4348 0.0
C319 C 0.59261 0.17994 0.42945 0.0
C320 C 0.78969 0.37249 0.43567 0.0
C321 C 0.78874 0.40684 0.4309 0.0
C322 C 0.78481 0.32853 0.43869 0.0
C323 C 0.7751 0.28868 0.43834 0.0
C324 C 0.73986 0.27934 0.21206 0.0
C325 C 0.70421 0.24479 0.21699 0.0
C326 C 0.77946 0.32345 0.20891 0.0
C327 C 0.81011 0.36339 0.20919 0.0
C328 C 0.70216 0.47055 0.21423 0.0
C329 C 0.73619 0.46937 0.21941 0.0
C330 C 0.65838 0.46574 0.21066 0.0
C331 C 0.61849 0.4559 0.21051 0.0
C332 C 0.50817 0.23746 0.2117 0.0
C333 C 0.5096 0.27269 0.21722 0.0
C334 C 0.51264 0.19841 0.20791 0.0
C335 C 0.52218 0.16833 0.20764 0.0
C336 C 0.27541 0.7442 0.76736 0.0
C337 C 0.24082 0.70855 0.76247 0.0
C338 C 0.31957 0.78373 0.77051 0.0
C339 C 0.35956 0.81428 0.77024 0.0
C340 C 0.23405 0.51295 0.76797 0.0
C341 C 0.26928 0.51435 0.76247 0.0
C342 C 0.19496 0.51736 0.77173 0.0
C343 C 0.16479 0.52677 0.77199 0.0
C344 C 0.46709 0.7063 0.76567 0.0
C345 C 0.4659 0.7403 0.76044 0.0
C346 C 0.46228 0.66254 0.76928 0.0
C347 C 0.45239 0.62263 0.76944 0.0
C348 C 0.44608 0.64633 0.53885 0.0
C349 C 0.47672 0.68628 0.53848 0.0
C350 C 0.40672 0.60242 0.54281 0.0
C351 C 0.37135 0.56821 0.54836 0.0
C352 C 0.32536 0.78924 0.54108 0.0
C353 C 0.28546 0.77939 0.5414 0.0
C354 C 0.36936 0.79424 0.54413 0.0
C355 C 0.40371 0.79329 0.54889 0.0
C356 C 0.17951 0.52207 0.54081 0.0
C357 C 0.18898 0.49193 0.54067 0.0
C358 C 0.17512 0.56122 0.5445 0.0
C359 C 0.1767 0.59659 0.54991 0.0
C360 C 0.21722 0.22963 0.00085 0.0
C361 C 0.20172 0.22871 0.01891 0.0
C362 C 0.22559 0.22127 0.97899 0.0
C363 C 0.22474 0.20574 0.96094 0.0
C364 C 0.76736 0.0021 0.97472 0.0
C365 C 0.78313 0.01285 0.9564 0.0
C366 C 0.75888 0.98994 -0.00281 0.0
C367 C 0.75998 0.97883 0.01593 0.0
C368 C 0.98666 0.76268 0.9826 0.0
C369 C 0.97563 0.76375 0.96384 0.0
C370 C -0.00126 0.77119 0.00508 0.0
C371 C 0.00945 0.78698 0.02341 0.0
C372 C 0.88385 0.55259 0.31512 0.0
C373 C 0.88199 0.53792 0.29677 0.0
C374 C 0.87608 0.55952 0.33729 0.0
C375 C 0.8607 0.55687 0.35554 0.0
C376 C 0.424 0.33007 0.3136 0.0
C377 C 0.43915 0.3444 0.29547 0.0
C378 C 0.41658 0.31382 0.3355 0.0
C379 C 0.41857 0.29999 0.35353 0.0
C380 C 0.65561 0.09945 0.33256 0.0
C381 C 0.66894 0.11395 0.35089 0.0
C382 C 0.64032 0.09263 0.3105 0.0
C383 C 0.6271 0.09512 0.2924 0.0
C384 C 0.55661 0.88039 0.64249 0.0
C385 C 0.55396 0.86509 0.62422 0.0
C386 C 0.54958 0.88802 0.66467 0.0
C387 C 0.53478 0.88607 0.68299 0.0
C388 C 0.09558 0.65917 0.64688 0.0
C389 C 0.11022 0.6725 0.62857 0.0
C390 C 0.08859 0.64396 0.66895 0.0
C391 C 0.091 0.63085 0.68709 0.0
C392 C 0.31017 0.4212 0.64424 0.0
C393 C 0.29636 0.42313 0.6262 0.0
C394 C 0.32643 0.42862 0.66614 0.0
C395 C 0.34078 0.44373 0.68429 0.0
loop_
_geom_bond_atom_site_label_1
_geom_bond_atom_site_label_2
_geom_bond_distance
_geom_bond_site_symmetry_2
_ccdc_geom_bond_type
Mg0 O1 2.028 . S
Mg0 O7 1.986 . S
Mg0 O9 2.114 . S
Mg0 O10 2.251 . S
Mg0 O13 2.010 . S
O1 Mg0 2.028 . S
O1 C4 1.250 . S
O2 Mg3 2.028 . S
O2 C4 1.248 . S
Mg3 O2 2.028 . S
Mg3 O8 2.032 . S
Mg3 O10 2.079 . S
C4 O1 1.250 . S
C4 O2 1.248 . S
C5 O6 1.264 . S
C5 O13 1.249 . S
O6 C5 1.264 . S
O7 Mg0 1.986 . S
O7 C11 1.246 . S
O8 Mg3 2.032 . S
O8 C11 1.259 . S
O9 Mg0 2.114 . S
O9 C12 1.252 . S
O10 Mg0 2.251 . S
O10 Mg3 2.079 . S
O10 C12 1.273 . S
C11 O7 1.246 . S
C11 O8 1.259 . S
C12 O9 1.252 . S
C12 O10 1.273 . S
O13 Mg0 2.010 . S
O13 C5 1.249 . S
Mg14 O15 2.028 1_565 S
Mg14 O21 1.986 . S
Mg14 O23 2.114 . S
Mg14 O24 2.251 . S
Mg14 O27 2.010 . S
O15 Mg14 2.028 1_545 S
O15 C18 1.250 . S
O16 Mg17 2.028 1_545 S
O16 C18 1.248 . S
Mg17 O16 2.028 1_565 S
Mg17 O22 2.032 . S
Mg17 O24 2.079 . S
C18 O15 1.250 . S
C18 O16 1.248 . S
C19 O20 1.264 1_545 S
C19 O27 1.249 1_545 S
O20 C19 1.264 1_565 S
O21 Mg14 1.986 . S
O21 C25 1.246 . S
O22 Mg17 2.032 . S
O22 C25 1.259 . S
O23 Mg14 2.114 . S
O23 C26 1.252 . S
O24 Mg14 2.251 . S
O24 Mg17 2.079 . S
O24 C26 1.273 . S
C25 O21 1.246 . S
C25 O22 1.259 . S
C26 O23 1.252 . S
C26 O24 1.273 . S
O27 Mg14 2.010 . S
O27 C19 1.249 1_565 S
Mg28 O29 2.028 1_455 S
Mg28 O35 1.986 . S
Mg28 O37 2.114 . S
Mg28 O38 2.251 . S
Mg28 O41 2.010 . S
O29 Mg28 2.028 1_655 S
O29 C32 1.250 . S
O30 Mg31 2.028 1_655 S
O30 C32 1.248 . S
Mg31 O30 2.028 1_455 S
Mg31 O36 2.032 . S
Mg31 O38 2.079 . S
C32 O29 1.250 . S
C32 O30 1.248 . S
C33 O34 1.264 1_655 S
C33 O41 1.249 1_655 S
O34 C33 1.264 1_455 S
O35 Mg28 1.986 . S
O35 C39 1.246 . S
O36 Mg31 2.032 . S
O36 C39 1.259 . S
O37 Mg28 2.114 . S
O37 C40 1.252 . S
O38 Mg28 2.251 . S
O38 Mg31 2.079 . S
O38 C40 1.273 . S
C39 O35 1.246 . S
C39 O36 1.259 . S
C40 O37 1.252 . S
C40 O38 1.273 . S
O41 Mg28 2.010 . S
O41 C33 1.249 1_455 S
Mg42 O43 2.028 . S
Mg42 O49 1.986 . S
Mg42 O51 2.114 . S
Mg42 O52 2.251 . S
Mg42 O55 2.010 . S
O43 Mg42 2.028 . S
O43 C46 1.250 . S
O44 Mg45 2.028 . S
O44 C46 1.248 . S
Mg45 O44 2.028 . S
Mg45 O50 2.032 . S
Mg45 O52 2.079 . S
C46 O43 1.250 . S
C46 O44 1.248 . S
C47 O48 1.264 . S
C47 O55 1.249 . S
O48 C47 1.264 . S
O49 Mg42 1.986 . S
O49 C53 1.246 . S
O50 Mg45 2.032 . S
O50 C53 1.259 . S
O51 Mg42 2.114 . S
O51 C54 1.252 . S
O52 Mg42 2.251 . S
O52 Mg45 2.079 . S
O52 C54 1.273 . S
C53 O49 1.246 . S
C53 O50 1.259 . S
C54 O51 1.252 . S
C54 O52 1.273 . S
O55 Mg42 2.010 . S
O55 C47 1.249 . S
Mg56 O57 2.028 1_545 S
Mg56 O63 1.986 . S
Mg56 O65 2.114 . S
Mg56 O66 2.251 . S
Mg56 O69 2.010 . S
O57 Mg56 2.028 1_565 S
O57 C60 1.250 . S
O58 Mg59 2.028 1_565 S
O58 C60 1.248 . S
Mg59 O58 2.028 1_545 S
Mg59 O64 2.032 . S
Mg59 O66 2.079 . S
C60 O57 1.250 . S
C60 O58 1.248 . S
C61 O62 1.264 1_565 S
C61 O69 1.249 1_565 S
O62 C61 1.264 1_545 S
O63 Mg56 1.986 . S
O63 C67 1.246 . S
O64 Mg59 2.032 . S
O64 C67 1.259 . S
O65 Mg56 2.114 . S
O65 C68 1.252 . S
O66 Mg56 2.251 . S
O66 Mg59 2.079 . S
O66 C68 1.273 . S
C67 O63 1.246 . S
C67 O64 1.259 . S
C68 O65 1.252 . S
C68 O66 1.273 . S
O69 Mg56 2.010 . S
O69 C61 1.249 1_545 S
Mg70 O71 2.028 1_655 S
Mg70 O77 1.986 . S
Mg70 O79 2.114 . S
Mg70 O80 2.251 . S
Mg70 O83 2.010 . S
O71 Mg70 2.028 1_455 S
O71 C74 1.250 . S
O72 Mg73 2.028 1_455 S
O72 C74 1.248 . S
Mg73 O72 2.028 1_655 S
Mg73 O78 2.032 . S
Mg73 O80 2.079 . S
C74 O71 1.250 . S
C74 O72 1.248 . S
C75 O76 1.264 1_455 S
C75 O83 1.249 1_455 S
O76 C75 1.264 1_655 S
O77 Mg70 1.986 . S
O77 C81 1.246 . S
O78 Mg73 2.032 . S
O78 C81 1.259 . S
O79 Mg70 2.114 . S
O79 C82 1.252 . S
O80 Mg70 2.251 . S
O80 Mg73 2.079 . S
O80 C82 1.273 . S
C81 O77 1.246 . S
C81 O78 1.259 . S
C82 O79 1.252 . S
C82 O80 1.273 . S
O83 Mg70 2.010 . S
O83 C75 1.249 1_655 S
Mg84 O85 2.028 . S
Mg84 O91 1.986 . S
Mg84 O93 2.114 . S
Mg84 O94 2.251 . S
Mg84 O97 2.010 . S
O85 Mg84 2.028 . S
O85 C88 1.250 . S
O86 Mg87 2.028 . S
O86 C88 1.248 . S
Mg87 O86 2.028 . S
Mg87 O92 2.032 . S
Mg87 O94 2.079 . S
C88 O85 1.250 . S
C88 O86 1.248 . S
C89 O90 1.264 . S
C89 O97 1.249 . S
O90 C89 1.264 . S
O91 Mg84 1.986 . S
O91 C95 1.246 . S
O92 Mg87 2.032 . S
O92 C95 1.259 . S
O93 Mg84 2.114 . S
O93 C96 1.252 . S
O94 Mg84 2.251 . S
O94 Mg87 2.079 . S
O94 C96 1.273 . S
C95 O91 1.246 . S
C95 O92 1.259 . S
C96 O93 1.252 . S
C96 O94 1.273 . S
O97 Mg84 2.010 . S
O97 C89 1.249 . S
Mg98 O99 2.028 . S
Mg98 O105 1.986 . S
Mg98 O107 2.114 . S
Mg98 O108 2.251 . S
Mg98 O111 2.010 . S
O99 Mg98 2.028 . S
O99 C102 1.250 . S
O100 Mg101 2.028 . S
O100 C102 1.248 . S
Mg101 O100 2.028 . S
Mg101 O106 2.032 . S
Mg101 O108 2.079 . S
C102 O99 1.250 . S
C102 O100 1.248 . S
C103 O104 1.264 . S
C103 O111 1.249 . S
O104 C103 1.264 . S
O105 Mg98 1.986 . S
O105 C109 1.246 . S
O106 Mg101 2.032 . S
O106 C109 1.259 . S
O107 Mg98 2.114 . S
O107 C110 1.252 . S
O108 Mg98 2.251 . S
O108 Mg101 2.079 . S
O108 C110 1.273 . S
C109 O105 1.246 . S
C109 O106 1.259 . S
C110 O107 1.252 . S
C110 O108 1.273 . S
O111 Mg98 2.010 . S
O111 C103 1.249 . S
Mg112 O113 2.028 . S
Mg112 O119 1.986 . S
Mg112 O121 2.114 . S
Mg112 O122 2.251 . S
Mg112 O125 2.010 . S
O113 Mg112 2.028 . S
O113 C116 1.250 . S
O114 Mg115 2.028 . S
O114 C116 1.248 . S
Mg115 O114 2.028 . S
Mg115 O120 2.032 . S
Mg115 O122 2.079 . S
C116 O113 1.250 . S
C116 O114 1.248 . S
C117 O118 1.264 . S
C117 O125 1.249 . S
O118 C117 1.264 . S
O119 Mg112 1.986 . S
O119 C123 1.246 . S
O120 Mg115 2.032 . S
O120 C123 1.259 . S
O121 Mg112 2.114 . S
O121 C124 1.252 . S
O122 Mg112 2.251 . S
O122 Mg115 2.079 . S
O122 C124 1.273 . S
C123 O119 1.246 . S
C123 O120 1.259 . S
C124 O121 1.252 . S
C124 O122 1.273 . S
O125 Mg112 2.010 . S
O125 C117 1.249 . S
Mg126 O127 2.028 . S
Mg126 O133 1.986 . S
Mg126 O135 2.114 . S
Mg126 O136 2.251 . S
Mg126 O139 2.010 . S
O127 Mg126 2.028 . S
O127 C130 1.250 . S
O128 Mg129 2.028 . S
O128 C130 1.248 . S
Mg129 O128 2.028 . S
Mg129 O134 2.032 . S
Mg129 O136 2.079 . S
C130 O127 1.250 . S
C130 O128 1.248 . S
C131 O132 1.264 . S
C131 O139 1.249 . S
O132 C131 1.264 . S
O133 Mg126 1.986 . S
O133 C137 1.246 . S
O134 Mg129 2.032 . S
O134 C137 1.259 . S
O135 Mg126 2.114 . S
O135 C138 1.252 . S
O136 Mg126 2.251 . S
O136 Mg129 2.079 . S
O136 C138 1.273 . S
C137 O133 1.246 . S
C137 O134 1.259 . S
C138 O135 1.252 . S
C138 O136 1.273 . S
O139 Mg126 2.010 . S
O139 C131 1.249 . S
Mg140 O141 2.028 . S
Mg140 O147 1.986 . S
Mg140 O149 2.114 . S
Mg140 O150 2.251 . S
Mg140 O153 2.010 . S
O141 Mg140 2.028 . S
O141 C144 1.250 . S
O142 Mg143 2.028 . S
O142 C144 1.248 . S
Mg143 O142 2.028 . S
Mg143 O148 2.032 . S
Mg143 O150 2.079 . S
C144 O141 1.250 . S
C144 O142 1.248 . S
C145 O146 1.264 . S
C145 O153 1.249 . S
O146 C145 1.264 . S
O147 Mg140 1.986 . S
O147 C151 1.246 . S
O148 Mg143 2.032 . S
O148 C151 1.259 . S
O149 Mg140 2.114 . S
O149 C152 1.252 . S
O150 Mg140 2.251 . S
O150 Mg143 2.079 . S
O150 C152 1.273 . S
C151 O147 1.246 . S
C151 O148 1.259 . S
C152 O149 1.252 . S
C152 O150 1.273 . S
O153 Mg140 2.010 . S
O153 C145 1.249 . S
Mg154 O155 2.028 . S
Mg154 O161 1.986 . S
Mg154 O163 2.114 . S
Mg154 O164 2.251 . S
Mg154 O167 2.010 . S
O155 Mg154 2.028 . S
O155 C158 1.250 . S
O156 Mg157 2.028 . S
O156 C158 1.248 . S
Mg157 O156 2.028 . S
Mg157 O162 2.032 . S
Mg157 O164 2.079 . S
C158 O155 1.250 . S
C158 O156 1.248 . S
C159 O160 1.264 . S
C159 O167 1.249 . S
O160 C159 1.264 . S
O161 Mg154 1.986 . S
O161 C165 1.246 . S
O162 Mg157 2.032 . S
O162 C165 1.259 . S
O163 Mg154 2.114 . S
O163 C166 1.252 . S
O164 Mg154 2.251 . S
O164 Mg157 2.079 . S
O164 C166 1.273 . S
C165 O161 1.246 . S
C165 O162 1.259 . S
C166 O163 1.252 . S
C166 O164 1.273 . S
O167 Mg154 2.010 . S
O167 C159 1.249 . S
Mg168 O169 2.028 . S
Mg168 O175 1.986 . S
Mg168 O177 2.114 . S
Mg168 O178 2.251 . S
Mg168 O181 2.010 . S
O169 Mg168 2.028 . S
O169 C172 1.250 . S
O170 Mg171 2.028 . S
O170 C172 1.248 . S
Mg171 O170 2.028 . S
Mg171 O176 2.032 . S
Mg171 O178 2.079 . S
C172 O169 1.250 . S
C172 O170 1.248 . S
C173 O174 1.264 . S
C173 O181 1.249 . S
O174 C173 1.264 . S
O175 Mg168 1.986 . S
O175 C179 1.246 . S
O176 Mg171 2.032 . S
O176 C179 1.259 . S
O177 Mg168 2.114 . S
O177 C180 1.252 . S
O178 Mg168 2.251 . S
O178 Mg171 2.079 . S
O178 C180 1.273 . S
C179 O175 1.246 . S
C179 O176 1.259 . S
C180 O177 1.252 . S
C180 O178 1.273 . S
O181 Mg168 2.010 . S
O181 C173 1.249 . S
Mg182 O183 2.028 . S
Mg182 O189 1.986 . S
Mg182 O191 2.114 . S
Mg182 O192 2.251 . S
Mg182 O195 2.010 . S
O183 Mg182 2.028 . S
O183 C186 1.250 . S
O184 Mg185 2.028 . S
O184 C186 1.248 . S
Mg185 O184 2.028 . S
Mg185 O190 2.032 . S
Mg185 O192 2.079 . S
C186 O183 1.250 . S
C186 O184 1.248 . S
C187 O188 1.264 . S
C187 O195 1.249 . S
O188 C187 1.264 . S
O189 Mg182 1.986 . S
O189 C193 1.246 . S
O190 Mg185 2.032 . S
O190 C193 1.259 . S
O191 Mg182 2.114 . S
O191 C194 1.252 . S
O192 Mg182 2.251 . S
O192 Mg185 2.079 . S
O192 C194 1.273 . S
C193 O189 1.246 . S
C193 O190 1.259 . S
C194 O191 1.252 . S
C194 O192 1.273 . S
O195 Mg182 2.010 . S
O195 C187 1.249 . S
Mg196 O197 2.028 . S
Mg196 O203 1.986 . S
Mg196 O205 2.114 . S
Mg196 O206 2.251 . S
Mg196 O209 2.010 . S
O197 Mg196 2.028 . S
O197 C200 1.250 . S
O198 Mg199 2.028 . S
O198 C200 1.248 . S
Mg199 O198 2.028 . S
Mg199 O204 2.032 . S
Mg199 O206 2.079 . S
C200 O197 1.250 . S
C200 O198 1.248 . S
C201 O202 1.264 . S
C201 O209 1.249 . S
O202 C201 1.264 . S
O203 Mg196 1.986 . S
O203 C207 1.246 . S
O204 Mg199 2.032 . S
O204 C207 1.259 . S
O205 Mg196 2.114 . S
O205 C208 1.252 . S
O206 Mg196 2.251 . S
O206 Mg199 2.079 . S
O206 C208 1.273 . S
C207 O203 1.246 . S
C207 O204 1.259 . S
C208 O205 1.252 . S
C208 O206 1.273 . S
O209 Mg196 2.010 . S
O209 C201 1.249 . S
Mg210 O211 2.028 . S
Mg210 O217 1.986 . S
Mg210 O219 2.114 . S
Mg210 O220 2.251 . S
Mg210 O223 2.010 . S
O211 Mg210 2.028 . S
O211 C214 1.250 . S
O212 Mg213 2.028 . S
O212 C214 1.248 . S
Mg213 O212 2.028 . S
Mg213 O218 2.032 . S
Mg213 O220 2.079 . S
C214 O211 1.250 . S
C214 O212 1.248 . S
C215 O216 1.264 . S
C215 O223 1.249 . S
O216 C215 1.264 . S
O217 Mg210 1.986 . S
O217 C221 1.246 . S
O218 Mg213 2.032 . S
O218 C221 1.259 . S
O219 Mg210 2.114 . S
O219 C222 1.252 . S
O220 Mg210 2.251 . S
O220 Mg213 2.079 . S
O220 C222 1.273 . S
C221 O217 1.246 . S
C221 O218 1.259 . S
C222 O219 1.252 . S
C222 O220 1.273 . S
O223 Mg210 2.010 . S
O223 C215 1.249 . S
Mg224 O225 2.028 . S
Mg224 O231 1.986 . S
Mg224 O233 2.114 . S
Mg224 O234 2.251 . S
Mg224 O237 2.010 . S
O225 Mg224 2.028 . S
O225 C228 1.250 . S
O226 Mg227 2.028 . S
O226 C228 1.248 . S
Mg227 O226 2.028 . S
Mg227 O232 2.032 . S
Mg227 O234 2.079 . S
C228 O225 1.250 . S
C228 O226 1.248 . S
C229 O230 1.264 . S
C229 O237 1.249 . S
O230 C229 1.264 . S
O231 Mg224 1.986 . S
O231 C235 1.246 . S
O232 Mg227 2.032 . S
O232 C235 1.259 . S
O233 Mg224 2.114 . S
O233 C236 1.252 . S
O234 Mg224 2.251 . S
O234 Mg227 2.079 . S
O234 C236 1.273 . S
C235 O231 1.246 . S
C235 O232 1.259 . S
C236 O233 1.252 . S
C236 O234 1.273 . S
O237 Mg224 2.010 . S
O237 C229 1.249 . S
Mg238 O239 2.028 . S
Mg238 O245 1.986 . S
Mg238 O247 2.114 . S
Mg238 O248 2.251 . S
Mg238 O251 2.010 . S
O239 Mg238 2.028 . S
O239 C242 1.250 . S
O240 Mg241 2.028 . S
O240 C242 1.248 . S
Mg241 O240 2.028 . S
Mg241 O246 2.032 . S
Mg241 O248 2.079 . S
C242 O239 1.250 . S
C242 O240 1.248 . S
C243 O244 1.264 . S
C243 O251 1.249 . S
O244 C243 1.264 . S
O245 Mg238 1.986 . S
O245 C249 1.246 . S
O246 Mg241 2.032 . S
O246 C249 1.259 . S
O247 Mg238 2.114 . S
O247 C250 1.252 . S
O248 Mg238 2.251 . S
O248 Mg241 2.079 . S
O248 C250 1.273 . S
C249 O245 1.246 . S
C249 O246 1.259 . S
C250 O247 1.252 . S
C250 O248 1.273 . S
O251 Mg238 2.010 . S
O251 C243 1.249 . S
C252 C253 1.170 . S
C252 C254 1.380 . S
C253 C252 1.170 . S
C254 C252 1.380 . S
C254 C255 1.170 . S
C255 C254 1.170 . S
C256 C257 1.170 . S
C256 C258 1.380 . S
C257 C256 1.170 . S
C258 C256 1.380 . S
C258 C259 1.170 . S
C259 C258 1.170 . S
C260 C261 1.170 . S
C260 C262 1.380 . S
C261 C260 1.170 . S
C262 C260 1.380 . S
C262 C263 1.170 . S
C263 C262 1.170 . S
C264 C265 1.170 . S
C264 C266 1.380 . S
C265 C264 1.170 . S
C266 C264 1.380 . S
C266 C267 1.170 . S
C267 C266 1.170 . S
C268 C269 1.170 . S
C268 C270 1.380 . S
C269 C268 1.170 . S
C270 C268 1.380 . S
C270 C271 1.170 . S
C271 C270 1.170 . S
C272 C273 1.170 . S
C272 C274 1.380 . S
C273 C272 1.170 . S
C274 C272 1.380 . S
C274 C275 1.170 . S
C275 C274 1.170 . S
C276 C277 1.170 . S
C276 C278 1.380 1_655 S
C277 C276 1.170 . S
C278 C276 1.380 1_455 S
C278 C279 1.170 . S
C279 C278 1.170 . S
C280 C281 1.170 . S
C280 C282 1.380 . S
C281 C280 1.170 . S
C282 C280 1.380 . S
C282 C283 1.170 . S
C283 C282 1.170 . S
C284 C285 1.170 . S
C284 C286 1.380 1_545 S
C285 C284 1.170 . S
C286 C284 1.380 1_565 S
C286 C287 1.170 . S
C287 C286 1.170 . S
C288 C289 1.170 . S
C288 C290 1.380 1_455 S
C289 C288 1.170 . S
C290 C288 1.380 1_655 S
C290 C291 1.170 . S
C291 C290 1.170 . S
C292 C293 1.170 . S
C292 C294 1.380 . S
C293 C292 1.170 . S
C294 C292 1.380 . S
C294 C295 1.170 . S
C295 C294 1.170 . S
C296 C297 1.170 . S
C296 C298 1.380 1_545 S
C297 C296 1.170 . S
C298 C296 1.380 1_565 S
C298 C299 1.170 . S
C299 C298 1.170 . S
C300 C301 1.170 . S
C300 C302 1.380 1_565 S
C301 C300 1.170 . S
C302 C300 1.380 1_545 S
C302 C303 1.170 . S
C303 C302 1.170 . S
C304 C305 1.170 . S
C304 C306 1.380 1_455 S
C305 C304 1.170 . S
C306 C304 1.380 1_655 S
C306 C307 1.170 . S
C307 C306 1.170 . S
C308 C309 1.170 . S
C308 C310 1.380 . S
C309 C308 1.170 . S
C310 C308 1.380 . S
C310 C311 1.170 . S
C311 C310 1.170 . S
C312 C313 1.170 . S
C312 C314 1.380 . S
C313 C312 1.170 . S
C314 C312 1.380 . S
C314 C315 1.170 . S
C315 C314 1.170 . S
C316 C317 1.170 . S
C316 C318 1.380 . S
C317 C316 1.170 . S
C318 C316 1.380 . S
C318 C319 1.170 . S
C319 C318 1.170 . S
C320 C321 1.170 . S
C320 C322 1.380 . S
C321 C320 1.170 . S
C322 C320 1.380 . S
C322 C323 1.170 . S
C323 C322 1.170 . S
C324 C325 1.170 . S
C324 C326 1.380 . S
C325 C324 1.170 . S
C326 C324 1.380 . S
C326 C327 1.170 . S
C327 C326 1.170 . S
C328 C329 1.170 . S
C328 C330 1.380 . S
C329 C328 1.170 . S
C330 C328 1.380 . S
C330 C331 1.170 . S
C331 C330 1.170 . S
C332 C333 1.170 . S
C332 C334 1.380 . S
C333 C332 1.170 . S
C334 C332 1.380 . S
C334 C335 1.170 . S
C335 C334 1.170 . S
C336 C337 1.170 . S
C336 C338 1.380 . S
C337 C336 1.170 . S
C338 C336 1.380 . S
C338 C339 1.170 . S
C339 C338 1.170 . S
C340 C341 1.170 . S
C340 C342 1.380 . S
C341 C340 1.170 . S
C342 C340 1.380 . S
C342 C343 1.170 . S
C343 C342 1.170 . S
C344 C345 1.170 . S
C344 C346 1.380 . S
C345 C344 1.170 . S
C346 C344 1.380 . S
C346 C347 1.170 . S
C347 C346 1.170 . S
C348 C349 1.170 . S
C348 C350 1.380 . S
C349 C348 1.170 . S
C350 C348 1.380 . S
C350 C351 1.170 . S
C351 C350 1.170 . S
C352 C353 1.170 . S
C352 C354 1.380 . S
C353 C352 1.170 . S
C354 C352 1.380 . S
C354 C355 1.170 . S
C355 C354 1.170 . S
C356 C357 1.170 . S
C356 C358 1.380 . S
C357 C356 1.170 . S
C358 C356 1.380 . S
C358 C359 1.170 . S
C359 C358 1.170 . S
C360 C361 1.170 . S
C360 C362 1.380 1_554 S
C361 C360 1.170 . S
C362 C360 1.380 1_556 S
C362 C363 1.170 . S
C363 C362 1.170 . S
C364 C365 1.170 . S
C364 C366 1.380 1_556 S
C365 C364 1.170 . S
C366 C364 1.380 1_554 S
C366 C367 1.170 1_545 S
C367 C366 1.170 1_565 S
C368 C369 1.170 . S
C368 C370 1.380 1_656 S
C369 C368 1.170 . S
C370 C368 1.380 1_454 S
C370 C371 1.170 . S
C371 C370 1.170 . S
C372 C373 1.170 . S
C372 C374 1.380 . S
C373 C372 1.170 . S
C374 C372 1.380 . S
C374 C375 1.170 . S
C375 C374 1.170 . S
C376 C377 1.170 . S
C376 C378 1.380 . S
C377 C376 1.170 . S
C378 C376 1.380 . S
C378 C379 1.170 . S
C379 C378 1.170 . S
C380 C381 1.170 . S
C380 C382 1.380 . S
C381 C380 1.170 . S
C382 C380 1.380 . S
C382 C383 1.170 . S
C383 C382 1.170 . S
C384 C385 1.170 . S
C384 C386 1.380 . S
C385 C384 1.170 . S
C386 C384 1.380 . S
C386 C387 1.170 . S
C387 C386 1.170 . S
C388 C389 1.170 . S
C388 C390 1.380 . S
C389 C388 1.170 . S
C390 C388 1.380 . S
C390 C391 1.170 . S
C391 C390 1.170 . S
C392 C393 1.170 . S
C392 C394 1.380 . S
C393 C392 1.170 . S
C394 C392 1.380 . S
C394 C395 1.170 . S
C395 C394 1.170 . S
C253 C145 1.045 . S
C255 C5 1.058 . S
C257 C19 1.101 . S
C259 C159 1.109 . S
C261 C131 1.056 . S
C263 C33 0.997 . S
C265 C201 1.087 . S
C267 C47 1.053 . S
C269 C61 0.999 . S
C271 C173 1.074 . S
C273 C187 1.043 . S
C275 C75 1.050 . S
C277 C89 1.116 . S
C279 C229 1.144 . S
C281 C243 1.121 . S
C283 C103 1.135 . S
C285 C117 1.114 . S
C287 C215 1.083 . S
C289 C12 1.120 . S
C291 C18 1.154 . S
C293 C26 1.115 . S
C295 C32 1.121 . S
C297 C4 1.217 . S
C299 C40 1.190 . S
C301 C74 1.183 . S
C303 C54 1.147 . S
C305 C46 1.209 . S
C307 C68 1.170 . S
C309 C82 1.134 . S
C311 C60 1.152 . S
C313 C96 1.169 . S
C315 C102 1.216 . S
C317 C110 1.129 . S
C319 C116 1.188 . S
C321 C88 1.170 . S
C323 C124 1.115 . S
C325 C158 1.232 . S
C327 C138 1.195 . S
C329 C130 1.194 . S
C331 C152 1.155 . S
C333 C144 1.204 . S
C335 C166 1.164 . S
C337 C186 1.237 . S
C339 C180 1.198 . S
C341 C200 1.174 . S
C343 C194 1.111 . S
C345 C172 1.197 . S
C347 C208 1.163 . S
C349 C222 1.131 . S
C351 C242 1.198 . S
C353 C236 1.143 . S
C355 C214 1.193 . S
C357 C250 1.161 . S
C359 C228 1.202 . S
C361 C11 1.459 . S
C363 C53 1.441 . S
C365 C67 1.411 . S
C367 C25 1.373 . S
C369 C81 1.362 . S
C371 C39 1.388 . S
C373 C137 1.461 . S
C375 C95 1.455 . S
C377 C151 1.441 . S
C379 C109 1.452 . S
C381 C123 1.432 . S
C383 C165 1.423 . S
C385 C221 1.464 . S
C387 C179 1.455 . S
C389 C235 1.435 . S
C391 C193 1.423 . S
C393 C249 1.406 . S
C395 C207 1.418 . S
