# Generated by pormake.
# Topology sml, (6)-cn, num edge types: 1
# Building blocks:
#     Node 0, Type 0, BuildingBlock: GEDQOX_clean_sbu_0, # of connection points: 6
#     Node 1, Type 0, BuildingBlock: GEDQOX_clean_sbu_0, # of connection points: 6
#     Node 2, Type 0, BuildingBlock: GEDQOX_clean_sbu_0, # of connection points: 6
#     Node 3, Type 0, BuildingBlock: GEDQOX_clean_sbu_0, # of connection points: 6
#     Node 4, Type 0, BuildingBlock: GEDQOX_clean_sbu_0, # of connection points: 6
#     Node 5, Type 0, BuildingBlock: GEDQOX_clean_sbu_0, # of connection points: 6
#     Edge 6, Type (0, 0), BuildingBlock: UVAHIK_clean_linker_0, # of connection points: 2
#     Edge 7, Type (0, 0), BuildingBlock: UVAHIK_clean_linker_0, # of connection points: 2
#     Edge 8, Type (0, 0), BuildingBlock: UVAHIK_clean_linker_0, # of connection points: 2
#     Edge 9, Type (0, 0), BuildingBlock: UVAHIK_clean_linker_0, # of connection points: 2
#     Edge 10, Type (0, 0), BuildingBlock: UVAHIK_clean_linker_0, # of connection points: 2
#     Edge 11, Type (0, 0), BuildingBlock: UVAHIK_clean_linker_0, # of connection points: 2
#     Edge 12, Type (0, 0), BuildingBlock: UVAHIK_clean_linker_0, # of connection points: 2
#     Edge 13, Type (0, 0), BuildingBlock: UVAHIK_clean_linker_0, # of connection points: 2
#     Edge 14, Type (0, 0), BuildingBlock: UVAHIK_clean_linker_0, # of connection points: 2
#     Edge 15, Type (0, 0), BuildingBlock: UVAHIK_clean_linker_0, # of connection points: 2
#     Edge 16, Type (0, 0), BuildingBlock: UVAHIK_clean_linker_0, # of connection points: 2
#     Edge 17, Type (0, 0), BuildingBlock: UVAHIK_clean_linker_0, # of connection points: 2
#     Edge 18, Type (0, 0), BuildingBlock: UVAHIK_clean_linker_0, # of connection points: 2
#     Edge 19, Type (0, 0), BuildingBlock: UVAHIK_clean_linker_0, # of connection points: 2
#     Edge 20, Type (0, 0), BuildingBlock: UVAHIK_clean_linker_0, # of connection points: 2
#     Edge 21, Type (0, 0), BuildingBlock: UVAHIK_clean_linker_0, # of connection points: 2
#     Edge 22, Type (0, 0), BuildingBlock: UVAHIK_clean_linker_0, # of connection points: 2
#     Edge 23, Type (0, 0), BuildingBlock: UVAHIK_clean_linker_0, # of connection points: 2
# Relax obj value: 0.223
# Max RMSD: 0.226
# Mean RMSD: 0.226
data_MOF--net-sml--node1-GEDQOX_clean_sbu_0--edge1-UVAHIK_clean_linker_0
_symmetry_space_group_name_H-M    P1
_symmetry_Int_Tables_number       1
_symmetry_cell_setting            triclinic
loop_
_symmetry_equiv_pos_as_xyz
'x, y, z'
_cell_length_a     64.440262
_cell_length_b     64.40549
_cell_length_c     20.106271
_cell_angle_alpha  89.878499
_cell_angle_beta   89.996948
_cell_angle_gamma 119.93112
loop_
_atom_site_label
_atom_site_type_symbol
_atom_site_fract_x
_atom_site_fract_y
_atom_site_fract_z
_atom_type_partial_charge
Nd0 Nd 0.22759 0.42109 0.02073 0.0
Nd1 Nd 0.20123 0.44887 1.0147 0.0
C2 C 0.25714 0.40369 1.00807 0.0
C3 C 0.26544 0.38985 0.968 0.0
C4 C 0.28941 0.40104 0.94687 0.0
C5 C 0.29879 0.38774 0.91767 0.0
C6 C 0.28446 0.36281 0.90918 0.0
C7 C 0.2602 0.35175 0.92825 0.0
C8 C 0.2508 0.36508 0.95737 0.0
C9 C 0.17877 0.3941 0.04248 0.0
C10 C 0.20809 0.4286 0.87652 0.0
C11 C 0.17323 0.46771 0.03263 0.0
C12 C 0.17433 0.48809 0.06899 0.0
C13 C 0.15313 0.48805 0.08481 0.0
C14 C 0.15395 0.50787 0.11599 0.0
C15 C 0.17604 0.5282 0.13185 0.0
C16 C 0.19727 0.52787 0.11721 0.0
C17 C 0.19641 0.50801 0.08625 0.0
C18 C 0.24969 0.47685 0.99325 0.0
C19 C 0.21962 0.43998 0.15968 0.0
O20 O 0.26247 0.42512 0.98784 0.0
O21 O 0.23622 0.39219 0.03716 0.0
O22 O 0.19445 0.39074 0.0738 0.0
O23 O 0.18882 0.41016 0.99886 0.0
O24 O 0.22448 0.42572 0.90803 0.0
O25 O 0.19314 0.43322 0.90952 0.0
O26 O 0.17158 0.44998 0.06844 0.0
O27 O 0.18803 0.47311 0.98268 0.0
O28 O 0.23349 0.47987 0.96419 0.0
O29 O 0.24035 0.46043 0.03659 0.0
O30 O 0.20393 0.44369 0.12735 0.0
O31 O 0.23427 0.43474 0.12769 0.0
H32 H 0.30121 0.42002 0.95525 0.0
H33 H 0.31759 0.39687 0.90442 0.0
H34 H 0.24851 0.33266 0.92159 0.0
H35 H 0.23226 0.35585 0.97324 0.0
H36 H 0.13591 0.47278 0.07224 0.0
H37 H 0.13724 0.50728 0.12744 0.0
H38 H 0.21461 0.54325 0.12785 0.0
H39 H 0.21301 0.50838 0.07461 0.0
Nd40 Nd 0.81509 0.22435 0.35716 0.0
Nd41 Nd 0.76104 0.19819 0.35108 0.0
C42 C 0.862 0.25393 0.34552 0.0
C43 C 0.88484 0.26059 0.31087 0.0
C44 C 0.88827 0.26631 0.24272 0.0
C45 C 0.91095 0.27505 0.21352 0.0
C46 C 0.9307 0.27832 0.25183 0.0
C47 C 0.92696 0.27213 0.31971 0.0
C48 C 0.90437 0.26341 0.34871 0.0
C49 C 0.79331 0.17536 0.37677 0.0
C50 C 0.78826 0.20534 0.21272 0.0
C51 C 0.71419 0.17068 0.36935 0.0
C52 C 0.69566 0.17323 0.40523 0.0
C53 C 0.67214 0.15396 0.40885 0.0
C54 C 0.65415 0.1568 0.43938 0.0
C55 C 0.6594 0.17903 0.4665 0.0
C56 C 0.6832 0.19812 0.46408 0.0
C57 C 0.70115 0.19523 0.4338 0.0
C58 C 0.78163 0.24684 0.33161 0.0
C59 C 0.78803 0.21619 0.49566 0.0
O60 O 0.84591 0.25727 0.31525 0.0
O61 O 0.85261 0.23492 0.38359 0.0
O62 O 0.81255 0.19082 0.40742 0.0
O63 O 0.78725 0.18568 0.33422 0.0
O64 O 0.80752 0.22156 0.24443 0.0
O65 O 0.76864 0.19036 0.24557 0.0
O66 O 0.73016 0.16915 0.40587 0.0
O67 O 0.7237 0.18485 0.31816 0.0
O68 O 0.76239 0.23085 0.30246 0.0
O69 O 0.78865 0.23721 0.37414 0.0
O70 O 0.76896 0.19999 0.46346 0.0
O71 O 0.80756 0.23146 0.46326 0.0
H72 H 0.87357 0.26442 0.21222 0.0
H73 H 0.91303 0.27934 0.16098 0.0
H74 H 0.94169 0.27475 0.35126 0.0
H75 H 0.90233 0.25949 0.40153 0.0
H76 H 0.66759 0.13685 0.38696 0.0
H77 H 0.63601 0.1418 0.43989 0.0
H78 H 0.68796 0.21536 0.48535 0.0
H79 H 0.71926 0.2103 0.43173 0.0
Nd80 Nd 0.59748 0.81074 0.68672 0.0
Nd81 Nd 0.5691 0.75683 0.68065 0.0
C82 C 0.61597 0.85785 0.6744 0.0
C83 C 0.62938 0.87986 0.63344 0.0
C84 C 0.61855 0.89353 0.61765 0.0
C85 C 0.63176 0.91614 0.58787 0.0
C86 C 0.65625 0.92576 0.57344 0.0
C87 C 0.66687 0.91168 0.58711 0.0
C88 C 0.65361 0.88902 0.61681 0.0
C89 C 0.62361 0.78808 0.71052 0.0
C90 C 0.59001 0.78383 0.54262 0.0
C91 C 0.54908 0.70988 0.69909 0.0
C92 C 0.52839 0.69167 0.73696 0.0
C93 C 0.52237 0.66756 0.73446 0.0
C94 C 0.50177 0.64995 0.76672 0.0
C95 C 0.48674 0.65616 0.80179 0.0
C96 C 0.49324 0.68051 0.80536 0.0
C97 C 0.51385 0.69808 0.77327 0.0
C98 C 0.54184 0.77806 0.65768 0.0
C99 C 0.57789 0.78399 0.82575 0.0
O100 O 0.59392 0.8423 0.658 0.0
O101 O 0.62757 0.84782 0.69941 0.0
O102 O 0.62677 0.80694 0.74235 0.0
O103 O 0.60801 0.7825 0.66585 0.0
O104 O 0.59297 0.80313 0.57398 0.0
O105 O 0.58512 0.76417 0.57581 0.0
O106 O 0.56728 0.72565 0.73384 0.0
O107 O 0.54394 0.71958 0.64932 0.0
O108 O 0.53893 0.75897 0.62822 0.0
O109 O 0.55792 0.78478 0.70176 0.0
O110 O 0.57372 0.76445 0.79346 0.0
O111 O 0.58379 0.80407 0.79373 0.0
H112 H 0.6 0.8871 0.6307 0.0
H113 H 0.623 0.9265 0.57888 0.0
H114 H 0.68558 0.91833 0.5758 0.0
H115 H 0.66257 0.87901 0.62846 0.0
H116 H 0.53336 0.66228 0.70646 0.0
H117 H 0.49721 0.63139 0.76239 0.0
H118 H 0.4823 0.68599 0.83271 0.0
H119 H 0.51826 0.71665 0.77586 0.0
Nd120 Nd 0.79163 0.59136 0.02027 0.0
Nd121 Nd 0.81794 0.56347 1.01452 0.0
C122 C 0.76206 0.60872 1.00746 0.0
C123 C 0.75407 0.6229 0.96767 0.0
C124 C 0.73021 0.61193 0.94576 0.0
C125 C 0.72108 0.62549 0.91666 0.0
C126 C 0.73555 0.65046 0.90903 0.0
C127 C 0.7597 0.66131 0.9289 0.0
C128 C 0.76885 0.64772 0.95793 0.0
C129 C 0.84044 0.61829 0.04115 0.0
C130 C 0.81096 0.58361 0.87601 0.0
C131 C 0.84568 0.54437 0.03308 0.0
C132 C 0.84394 0.52424 0.07231 0.0
C133 C 0.86104 0.51706 0.0642 0.0
C134 C 0.85853 0.49684 0.09773 0.0
C135 C 0.83876 0.48337 0.13974 0.0
C136 C 0.82196 0.49104 0.14882 0.0
C137 C 0.82452 0.51127 0.11539 0.0
C138 C 0.76941 0.53558 0.99452 0.0
C139 C 0.79965 0.57242 0.15938 0.0
O140 O 0.75697 0.58752 0.98609 0.0
O141 O 0.78273 0.61999 0.03778 0.0
O142 O 0.82483 0.62176 0.07238 0.0
O143 O 0.83034 0.60218 0.99793 0.0
O144 O 0.79471 0.58668 0.90762 0.0
O145 O 0.82585 0.57884 0.90887 0.0
O146 O 0.848 0.56279 0.06662 0.0
O147 O 0.83042 0.53846 0.98423 0.0
O148 O 0.78548 0.53245 0.96506 0.0
O149 O 0.77892 0.55209 0.03729 0.0
O150 O 0.81536 0.56874 0.12707 0.0
O151 O 0.78496 0.57761 0.12735 0.0
H152 H 0.71831 0.59291 0.95343 0.0
H153 H 0.70235 0.61651 0.90279 0.0
H154 H 0.77148 0.68042 0.92291 0.0
H155 H 0.7873 0.65678 0.97441 0.0
H156 H 0.87608 0.5268 0.03086 0.0
H157 H 0.87165 0.49131 0.08902 0.0
H158 H 0.80672 0.48131 0.18148 0.0
H159 H 0.81113 0.51657 0.12226 0.0
Nd160 Nd 0.20449 0.78996 0.35448 0.0
Nd161 Nd 0.25841 0.81326 0.34726 0.0
C162 C 0.15714 0.76355 0.34336 0.0
C163 C 0.13537 0.7539 0.30099 0.0
C164 C 0.12247 0.72928 0.28639 0.0
C165 C 0.09989 0.71907 0.25621 0.0
C166 C 0.08952 0.7332 0.24037 0.0
C167 C 0.10285 0.758 0.25265 0.0
C168 C 0.12546 0.76821 0.28266 0.0
C169 C 0.22917 0.83855 0.37999 0.0
C170 C 0.23157 0.8083 0.21008 0.0
C171 C 0.3055 0.83883 0.36388 0.0
C172 C 0.32369 0.83673 0.40297 0.0
C173 C 0.34762 0.85523 0.40144 0.0
C174 C 0.36533 0.8527 0.4347 0.0
C175 C 0.35941 0.83152 0.46986 0.0
C176 C 0.33523 0.81327 0.47258 0.0
C177 C 0.31754 0.81586 0.4395 0.0
C178 C 0.23486 0.76496 0.32179 0.0
C179 C 0.23109 0.79548 0.49321 0.0
O180 O 0.1715 0.75478 0.33707 0.0
O181 O 0.16847 0.78637 0.35785 0.0
O182 O 0.21014 0.8233 0.41221 0.0
O183 O 0.23404 0.82826 0.33436 0.0
O184 O 0.21208 0.79233 0.24172 0.0
O185 O 0.25136 0.82264 0.24298 0.0
O186 O 0.29032 0.84268 0.3972 0.0
O187 O 0.29519 0.82298 0.31683 0.0
O188 O 0.25425 0.78051 0.29196 0.0
O189 O 0.22915 0.77472 0.36726 0.0
O190 O 0.25108 0.80953 0.46044 0.0
O191 O 0.21054 0.78287 0.46194 0.0
H192 H 0.12941 0.71769 0.30082 0.0
H193 H 0.09009 0.6999 0.24818 0.0
H194 H 0.09561 0.76949 0.24024 0.0
H195 H 0.13478 0.78721 0.29351 0.0
H196 H 0.35268 0.87145 0.37335 0.0
H197 H 0.38376 0.867 0.43102 0.0
H198 H 0.32999 0.79688 0.49997 0.0
H199 H 0.29912 0.80141 0.44144 0.0
Nd200 Nd 0.42286 0.20298 0.68571 0.0
Nd201 Nd 0.45168 0.25692 0.67862 0.0
C202 C 0.4037 0.15579 0.67419 0.0
C203 C 0.39093 0.13394 0.63254 0.0
C204 C 0.40223 0.1207 0.61709 0.0
C205 C 0.38948 0.09815 0.58697 0.0
C206 C 0.365 0.08817 0.57195 0.0
C207 C 0.35392 0.10183 0.58527 0.0
C208 C 0.3667 0.12442 0.61524 0.0
C209 C 0.39732 0.22615 0.71083 0.0
C210 C 0.43045 0.22995 0.54123 0.0
C211 C 0.47188 0.30387 0.69643 0.0
C212 C 0.49207 0.32195 0.73578 0.0
C213 C 0.49909 0.34625 0.72939 0.0
C214 C 0.51933 0.36371 0.76303 0.0
C215 C 0.53297 0.35713 0.80343 0.0
C216 C 0.52546 0.33262 0.81082 0.0
C217 C 0.5052 0.3152 0.77731 0.0
C218 C 0.47829 0.23521 0.65383 0.0
C219 C 0.44313 0.22972 0.82428 0.0
O220 O 0.42622 0.17101 0.6615 0.0
O221 O 0.39193 0.16618 0.69521 0.0
O222 O 0.39421 0.20733 0.74304 0.0
O223 O 0.41264 0.23152 0.66534 0.0
O224 O 0.42741 0.21061 0.57285 0.0
O225 O 0.43549 0.24965 0.57413 0.0
O226 O 0.45313 0.28818 0.72979 0.0
O227 O 0.47763 0.29413 0.64822 0.0
O228 O 0.48125 0.25435 0.62433 0.0
O229 O 0.46251 0.22865 0.69895 0.0
O230 O 0.44784 0.24944 0.7917 0.0
O231 O 0.43646 0.20944 0.79269 0.0
H232 H 0.42076 0.12738 0.6307 0.0
H233 H 0.39857 0.0881 0.57819 0.0
H234 H 0.3352 0.09489 0.57351 0.0
H235 H 0.35737 0.13406 0.62668 0.0
H236 H 0.48921 0.35178 0.69728 0.0
H237 H 0.52473 0.38239 0.75565 0.0
H238 H 0.53534 0.3269 0.84222 0.0
H239 H 0.50001 0.29649 0.78287 0.0
C240 C 0.36849 0.23243 0.77949 0.0
C241 C 0.38545 0.24013 0.72792 0.0
C242 C 0.35759 0.24578 0.7971 0.0
C243 C 0.34545 0.29332 0.73557 0.0
H244 H 0.33299 0.29797 0.92199 0.0
C245 C 0.31236 0.35697 0.83289 0.0
C246 C 0.29512 0.34831 0.88408 0.0
C247 C 0.32321 0.34385 0.812 0.0
C248 C 0.33607 0.29666 0.86961 0.0
H249 H 0.40435 0.26794 0.65435 0.0
H250 H 0.38558 0.29148 0.68554 0.0
H251 H 0.3524 0.2754 0.88953 0.0
H252 H 0.27588 0.31888 0.9532 0.0
H253 H 0.29442 0.29593 0.91616 0.0
H254 H 0.3292 0.31477 0.71592 0.0
C255 C 0.38037 0.2749 0.71183 0.0
C256 C 0.34723 0.28366 0.85091 0.0
C257 C 0.39123 0.26147 0.6941 0.0
C258 C 0.28884 0.32603 0.91316 0.0
C259 C 0.29974 0.31299 0.89248 0.0
C260 C 0.33433 0.3064 0.75435 0.0
C261 C 0.36343 0.26728 0.76379 0.0
C262 C 0.35196 0.28165 0.78358 0.0
C263 C 0.31721 0.32178 0.84198 0.0
C264 C 0.32936 0.30813 0.82163 0.0
H265 H 0.36361 0.21603 0.80641 0.0
H266 H 0.34438 0.23907 0.83656 0.0
H267 H 0.34849 0.29196 0.6832 0.0
H268 H 0.31752 0.37393 0.80891 0.0
H269 H 0.33668 0.35129 0.7733 0.0
C270 C 0.14317 0.36291 0.10524 0.0
C271 C 0.1528 0.38154 0.05815 0.0
C272 C 0.11877 0.3513 0.12138 0.0
C273 C 0.06573 0.35921 0.11951 0.0
H274 H 0.0306 0.29028 0.14353 0.0
C275 C 0.96367 0.30772 0.17583 0.0
C276 C 0.95527 0.28884 0.2223 0.0
C277 C 0.9872 0.31851 0.15146 0.0
C278 C 0.04014 0.30958 0.13782 0.0
H279 H 0.14439 0.40269 0.99114 0.0
H280 H 0.10175 0.38249 0.01949 0.0
H281 H 0.07254 0.31014 0.11021 0.0
H282 H 0.96513 0.26609 0.27755 0.0
H283 H 1.00609 0.28521 0.23678 0.0
H284 H 0.03351 0.35876 0.14832 0.0
C285 C 0.11308 0.37687 0.0441 0.0
C286 C 0.06425 0.32097 0.11854 0.0
C287 C 0.13748 0.38835 0.02754 0.0
C288 C 0.97096 0.28078 0.24258 0.0
C289 C 0.99447 0.29159 0.21841 0.0
C290 C 0.04163 0.34783 0.1392 0.0
C291 C 0.10338 0.35816 0.09122 0.0
C292 C 0.07743 0.34596 0.10954 0.0
C293 C 1.00304 0.31076 0.17286 0.0
C294 C 0.0285 0.32284 0.14912 0.0
H295 H 0.15454 0.35733 0.12992 0.0
H296 H 0.11204 0.33721 0.1585 0.0
H297 H 0.07538 0.37851 0.11383 0.0
H298 H 0.95226 0.31462 0.1594 0.0
H299 H 0.99296 0.33298 0.11579 0.0
C300 C 0.75743 0.13433 0.36233 0.0
C301 C 0.77958 0.14941 0.39276 0.0
C302 C 0.74412 0.10999 0.37962 0.0
C303 C 0.73788 0.06725 0.51397 0.0
H304 H 0.70219 0.01894 0.38084 0.0
C305 C 0.69404 0.96607 0.57262 0.0
C306 C 0.67086 0.95086 0.54787 0.0
C307 C 0.70728 0.98999 0.55181 0.0
C308 C 0.71187 0.03222 0.41878 0.0
H309 H 0.8053 0.15078 0.46451 0.0
H310 H 0.78246 0.1084 0.49369 0.0
H311 H 0.7252 0.06104 0.34822 0.0
H312 H 0.64378 0.94897 0.48016 0.0
H313 H 0.66677 0.99074 0.44436 0.0
H314 H 0.72465 0.03846 0.58444 0.0
C315 C 0.77503 0.11532 0.45739 0.0
C316 C 0.72507 0.05642 0.40008 0.0
C317 C 0.78825 0.13963 0.44029 0.0
C318 C 0.66147 0.96017 0.50078 0.0
C319 C 0.67476 0.9841 0.47974 0.0
C320 C 0.72477 0.04309 0.53257 0.0
C321 C 0.75267 0.10015 0.42768 0.0
C322 C 0.73834 0.0743 0.44739 0.0
C323 C 0.69776 0.99942 0.5055 0.0
C324 C 0.71163 0.0252 0.48526 0.0
H325 H 0.75021 0.14139 0.32579 0.0
H326 H 0.72688 0.09902 0.35622 0.0
H327 H 0.7474 0.08046 0.55217 0.0
H328 H 0.7018 0.95968 0.60948 0.0
H329 H 0.72503 1.00113 0.57213 0.0
C330 C 0.62975 0.75283 0.69395 0.0
C331 C 0.63556 0.77417 0.72752 0.0
C332 C 0.64065 0.73942 0.71162 0.0
C333 C 0.67366 0.73047 0.85052 0.0
H334 H 0.69189 0.69965 0.71559 0.0
C335 C 0.73136 0.68734 0.91348 0.0
C336 C 0.72512 0.66519 0.88393 0.0
C337 C 0.72067 0.70059 0.89275 0.0
C338 C 0.6867 0.70793 0.75401 0.0
H339 H 0.65748 0.79828 0.80557 0.0
H340 H 0.67675 0.77524 0.83571 0.0
H341 H 0.67275 0.72262 0.68279 0.0
H342 H 0.70301 0.64001 0.80787 0.0
H343 H 0.68417 0.66298 0.77225 0.0
H344 H 0.68763 0.71586 0.92171 0.0
C345 C 0.66351 0.76854 0.79642 0.0
C346 C 0.67568 0.72111 0.73518 0.0
C347 C 0.65259 0.78189 0.77882 0.0
C348 C 0.70813 0.65687 0.83224 0.0
C349 C 0.69747 0.67017 0.81133 0.0
C350 C 0.6847 0.71735 0.8693 0.0
C351 C 0.65763 0.74705 0.76333 0.0
C352 C 0.66908 0.73266 0.78317 0.0
C353 C 0.70343 0.69212 0.84176 0.0
C354 C 0.69147 0.70596 0.82134 0.0
H355 H 0.61657 0.74634 0.65445 0.0
H356 H 0.63542 0.72285 0.68552 0.0
H357 H 0.66843 0.73865 0.8891 0.0
H358 H 0.74414 0.69424 0.95392 0.0
H359 H 0.72596 0.71754 0.91679 0.0
C360 C 0.0486 0.72923 0.23971 0.0
C361 C 0.06438 0.7219 0.21511 0.0
C362 C 0.02469 0.71796 0.21893 0.0
C363 C 0.98342 0.6803 0.08553 0.0
H364 H 0.93454 0.66599 0.21867 0.0
C365 C 0.88162 0.62371 0.02655 0.0
C366 C 0.86631 0.63039 0.05768 0.0
C367 C 0.90587 0.63463 0.04432 0.0
C368 C 0.94792 0.67011 0.18054 0.0
H369 H 0.06728 0.69716 0.14801 0.0
H370 H 0.02549 0.67741 0.11194 0.0
H371 H 0.97644 0.68555 0.2515 0.0
H372 H 0.86445 0.65396 0.13112 0.0
H373 H 0.90668 0.67336 0.16109 0.0
H374 H 0.95488 0.66504 1.01442 0.0
C375 C 0.0317 0.69198 0.14724 0.0
C376 C 0.97202 0.68133 0.19948 0.0
C377 C 0.05562 0.70317 0.16837 0.0
C378 C 0.87579 0.64837 0.10636 0.0
C379 C 0.90001 0.65936 0.12392 0.0
C380 C 0.95928 0.66916 0.06647 0.0
C381 C 0.01585 0.69908 0.17274 0.0
C382 C 0.99013 0.6867 0.15224 0.0
C383 C 0.9154 0.65255 0.09355 0.0
C384 C 0.94117 0.66402 0.11368 0.0
H385 H 0.05456 0.74336 0.27635 0.0
H386 H 0.01311 0.72411 0.23906 0.0
H387 H 0.99689 0.68438 0.04769 0.0
H388 H 0.87479 0.6098 0.98906 0.0
H389 H 0.91702 0.62867 0.02035 0.0
C390 C 0.32769 0.04753 0.57058 0.0
C391 C 0.35084 0.06313 0.54608 0.0
C392 C 0.31475 0.02373 0.54897 0.0
C393 C 0.3224 0.97592 0.46848 0.0
H394 H 0.25348 0.94503 0.4484 0.0
C395 C 0.26494 0.87951 0.36232 0.0
C396 C 0.24327 0.86449 0.39537 0.0
C397 C 0.27832 0.90396 0.37797 0.0
C398 C 0.2727 0.95331 0.45427 0.0
H399 H 0.37823 0.06585 0.47821 0.0
H400 H 0.35558 0.02444 0.43991 0.0
H401 H 0.27612 0.98716 0.47926 0.0
H402 H 0.21869 0.86329 0.47078 0.0
H403 H 0.24187 0.90584 0.49783 0.0
H404 H 0.31886 0.94196 0.44307 0.0
C405 C 0.34758 0.03048 0.47691 0.0
C406 C 0.28572 0.97752 0.47213 0.0
C407 C 0.36058 0.0543 0.49876 0.0
C408 C 0.23525 0.87442 0.4442 0.0
C409 C 0.24849 0.89885 0.45947 0.0
C410 C 0.30936 0.9517 0.45023 0.0
C411 C 0.3245 0.01479 0.50196 0.0
C412 C 0.31075 0.98916 0.48014 0.0
C413 C 0.27022 0.91397 0.42662 0.0
C414 C 0.2843 0.94001 0.44349 0.0
H415 H 0.31976 0.05351 0.60799 0.0
H416 H 0.29726 0.01217 0.57048 0.0
H417 H 0.34157 0.98407 0.47502 0.0
H418 H 0.27161 0.87235 0.32453 0.0
H419 H 0.29486 0.91509 0.35135 0.0
C420 C 0.19216 0.43334 0.76681 0.0
C421 C 0.20733 0.42758 0.80279 0.0
C422 C 0.19299 0.43426 0.69721 0.0
C423 C 0.21348 0.41469 0.54999 0.0
H424 H 0.21237 0.46786 0.4626 0.0
C425 C 0.23464 0.43451 0.27003 0.0
C426 C 0.2198 0.44057 0.23347 0.0
C427 C 0.23342 0.43336 0.33956 0.0
C428 C 0.21247 0.45277 0.48613 0.0
H429 H 0.23487 0.41772 0.7935 0.0
H430 H 0.23634 0.41941 0.67265 0.0
H431 H 0.20851 0.46392 0.58326 0.0
H432 H 0.1924 0.45066 0.24169 0.0
H433 H 0.19022 0.44852 0.36251 0.0
H434 H 0.21745 0.40354 0.45289 0.0
C435 C 0.22367 0.42305 0.69803 0.0
C436 C 0.2102 0.45048 0.55534 0.0
C437 C 0.22289 0.42218 0.7675 0.0
C438 C 0.20414 0.44597 0.26816 0.0
C439 C 0.20295 0.44485 0.3376 0.0
C440 C 0.21574 0.41698 0.48079 0.0
C441 C 0.20894 0.42937 0.662 0.0
C442 C 0.21071 0.43143 0.58816 0.0
C443 C 0.21738 0.43828 0.37417 0.0
C444 C 0.2153 0.43606 0.44797 0.0
H445 H 0.17996 0.43759 0.79234 0.0
H446 H 0.18116 0.43886 0.67095 0.0
H447 H 0.21362 0.39962 0.57353 0.0
H448 H 0.24694 0.43027 0.245 0.0
H449 H 0.24505 0.42859 0.36623 0.0
C450 C 0.80953 0.22051 0.10381 0.0
C451 C 0.78861 0.20475 0.13898 0.0
C452 C 0.80951 0.22144 0.03436 0.0
C453 C 0.77615 0.18786 0.8849 0.0
H454 H 0.80899 0.25048 0.80094 0.0
C455 C 0.76677 0.20038 0.60432 0.0
C456 C 0.78766 0.21637 0.56943 0.0
C457 C 0.76675 0.19927 0.67376 0.0
C458 C 0.79995 0.23284 0.82349 0.0
H459 H 0.75136 0.17722 0.12833 0.0
H460 H 0.7513 0.17893 1.00707 0.0
H461 H 0.80941 0.24731 0.92169 0.0
H462 H 0.82484 0.24403 0.58053 0.0
H463 H 0.82484 0.24197 0.70167 0.0
H464 H 0.76671 0.17339 0.78668 0.0
C465 C 0.7678 0.19045 0.03329 0.0
C466 C 0.80021 0.23101 0.89279 0.0
C467 C 0.76781 0.18951 0.10288 0.0
C468 C 0.80841 0.23158 0.60577 0.0
C469 C 0.80838 0.23045 0.67531 0.0
C470 C 0.77591 0.18969 0.81559 0.0
C471 C 0.78857 0.20664 0.99822 0.0
C472 C 0.78833 0.2085 0.92438 0.0
C473 C 0.78762 0.21409 0.71014 0.0
C474 C 0.7878 0.2122 0.78399 0.0
H475 H 0.82593 0.23245 0.12989 0.0
H476 H 0.82593 0.23381 1.00895 0.0
H477 H 0.7671 0.17023 0.9075 0.0
H478 H 0.75042 0.18846 0.57803 0.0
H479 H 0.75033 0.18677 0.69898 0.0
C480 C 0.59674 0.80509 0.43333 0.0
C481 C 0.59104 0.78406 0.46885 0.0
C482 C 0.59579 0.80498 0.36387 0.0
C483 C 0.56757 0.76418 0.2219 0.0
H484 H 0.61487 0.8178 0.11814 0.0
C485 C 0.57135 0.76235 0.93442 0.0
C486 C 0.57723 0.78355 0.89956 0.0
C487 C 0.57254 0.76227 1.00386 0.0
C488 C 0.60133 0.80282 0.14639 0.0
H489 H 0.58039 0.74651 0.45876 0.0
H490 H 0.57896 0.7464 0.33739 0.0
H491 H 0.61898 0.81789 0.23868 0.0
H492 H 0.58839 0.82119 0.91085 0.0
H493 H 0.59016 0.82095 0.03201 0.0
H494 H 0.54989 0.74914 0.12963 0.0
C495 C 0.58387 0.76292 0.36347 0.0
C496 C 0.60372 0.80284 0.21555 0.0
C497 C 0.58489 0.76304 0.43306 0.0
C498 C 0.58378 0.80454 0.93599 0.0
C499 C 0.58499 0.80446 1.0055 0.0
C500 C 0.56517 0.76416 0.15273 0.0
C501 C 0.58906 0.78384 0.32805 0.0
C502 C 0.58687 0.78354 0.25422 0.0
C503 C 0.57965 0.78338 0.04029 0.0
C504 C 0.582 0.7835 0.11407 0.0
H505 H 0.60151 0.82162 0.45917 0.0
H506 H 0.59966 0.82136 0.33833 0.0
H507 H 0.55403 0.74921 0.2502 0.0
H508 H 0.56627 0.74584 0.90807 0.0
H509 H 0.56853 0.74576 0.02887 0.0
C510 C 0.79624 0.59023 0.76708 0.0
C511 C 0.81162 0.58455 0.80227 0.0
C512 C 0.7953 0.58924 0.69767 0.0
C513 C 0.82824 0.58808 0.54801 0.0
H514 H 0.76566 0.55997 0.4651 0.0
C515 C 0.81486 0.566 0.26781 0.0
C516 C 0.79944 0.57176 0.23314 0.0
C517 C 0.81603 0.56704 0.33724 0.0
C518 C 0.78329 0.56809 0.48737 0.0
H519 H 0.83848 0.57386 0.79169 0.0
H520 H 0.83671 0.57197 0.67049 0.0
H521 H 0.76899 0.56364 0.58576 0.0
H522 H 0.7728 0.58271 0.24462 0.0
H523 H 0.77494 0.58465 0.36571 0.0
H524 H 0.84252 0.59252 0.44956 0.0
C525 C 0.82553 0.57742 0.69665 0.0
C526 C 0.78522 0.57023 0.5566 0.0
C527 C 0.82649 0.57844 0.76622 0.0
C528 C 0.78481 0.57807 0.26968 0.0
C529 C 0.78598 0.57911 0.33919 0.0
C530 C 0.8263 0.58594 0.47875 0.0
C531 C 0.80967 0.5825 0.66157 0.0
C532 C 0.80772 0.58029 0.58781 0.0
C533 C 0.80181 0.57387 0.37378 0.0
C534 C 0.8038 0.57593 0.44756 0.0
H535 H 0.78461 0.59514 0.79313 0.0
H536 H 0.78322 0.59371 0.67225 0.0
H537 H 0.84587 0.59621 0.57029 0.0
H538 H 0.82631 0.56094 0.24137 0.0
H539 H 0.8281 0.56248 0.36231 0.0
C540 C 0.21043 0.78154 0.60377 0.0
C541 C 0.2316 0.79511 0.56704 0.0
C542 C 0.21061 0.78284 0.67326 0.0
C543 C 0.25085 0.80164 0.82028 0.0
H544 H 0.19843 0.80448 0.90613 0.0
C545 C 0.25264 0.82319 0.10031 0.0
C546 C 0.23143 0.80898 0.13628 0.0
C547 C 0.25279 0.82216 0.03074 0.0
C548 C 0.2131 0.8035 0.88303 0.0
H549 H 0.26971 0.82025 0.57507 0.0
H550 H 0.26996 0.82262 0.6959 0.0
H551 H 0.19844 0.80039 0.78565 0.0
H552 H 0.1936 0.78294 0.12692 0.0
H553 H 0.1939 0.78116 1.00608 0.0
H554 H 0.26552 0.80481 0.91778 0.0
C555 C 0.25323 0.8108 0.67111 0.0
C556 C 0.21308 0.80108 0.8139 0.0
C557 C 0.25306 0.80951 0.60164 0.0
C558 C 0.21027 0.79419 0.10094 0.0
C559 C 0.2104 0.79323 0.03148 0.0
C560 C 0.25088 0.8041 0.88944 0.0
C561 C 0.23195 0.79772 0.70781 0.0
C562 C 0.23192 0.80007 0.78159 0.0
C563 C 0.23171 0.80697 0.99551 0.0
C564 C 0.23199 0.805 0.92171 0.0
H565 H 0.19358 0.77021 0.57888 0.0
H566 H 0.19396 0.77219 0.69994 0.0
H567 H 0.26549 0.8006 0.79725 0.0
H568 H 0.26927 0.83478 0.12586 0.0
H569 H 0.26944 0.83323 1.00453 0.0
C570 C 0.43607 0.25088 0.43135 0.0
C571 C 0.42953 0.22977 0.46743 0.0
C572 C 0.43723 0.25102 0.36177 0.0
C573 C 0.4171 0.21121 0.21422 0.0
H574 H 0.47161 0.2644 0.12815 0.0
C575 C 0.43697 0.20913 0.93486 0.0
C576 C 0.44397 0.23021 0.89811 0.0
C577 C 0.43579 0.20925 1.00437 0.0
C578 C 0.45614 0.24952 0.15127 0.0
H579 H 0.41851 0.19207 0.45823 0.0
H580 H 0.42059 0.19237 0.3374 0.0
H581 H 0.46729 0.26435 0.24867 0.0
H582 H 0.45582 0.26812 0.90612 0.0
H583 H 0.45359 0.26827 0.02694 0.0
H584 H 0.40591 0.19638 0.11691 0.0
C585 C 0.42467 0.2088 0.36272 0.0
C586 C 0.45364 0.24952 0.22043 0.0
C587 C 0.42358 0.20867 0.43218 0.0
C588 C 0.45037 0.25154 0.9327 0.0
C589 C 0.4492 0.25166 1.00216 0.0
C590 C 0.41958 0.21122 0.14508 0.0
C591 C 0.4318 0.23004 0.32662 0.0
C592 C 0.43411 0.23034 0.2528 0.0
C593 C 0.4416 0.23045 0.03889 0.0
C594 C 0.43916 0.23035 0.11268 0.0
H595 H 0.44078 0.26746 0.45683 0.0
H596 H 0.44247 0.26761 0.33548 0.0
H597 H 0.40166 0.19631 0.23738 0.0
H598 H 0.43196 0.19238 0.90995 0.0
H599 H 0.43025 0.19268 0.03109 0.0
C600 C 0.19436 0.5639 0.20876 0.0
C601 C 0.17703 0.55001 0.16087 0.0
C602 C 0.19626 0.58522 0.23249 0.0
C603 C 0.18262 0.63218 0.18188 0.0
H604 H 0.20166 0.65491 0.36236 0.0
C605 C 0.2292 0.73168 0.24829 0.0
C606 C 0.22318 0.73902 0.30738 0.0
C607 C 0.21971 0.70744 0.23408 0.0
C608 C 0.196 0.64868 0.31205 0.0
H609 H 0.14776 0.54762 0.10164 0.0
H610 H 0.15074 0.58438 0.14401 0.0
H611 H 0.19199 0.61418 0.33296 0.0
H612 H 0.20212 0.72673 0.39771 0.0
H613 H 0.18554 0.68384 0.37314 0.0
H614 H 0.18693 0.66668 0.16064 0.0
C615 C 0.16309 0.57895 0.16265 0.0
C616 C 0.19074 0.62544 0.29496 0.0
C617 C 0.1612 0.55767 0.13889 0.0
C618 C 0.20705 0.72152 0.35178 0.0
C619 C 0.19769 0.69705 0.33786 0.0
C620 C 0.18795 0.65535 0.19888 0.0
C621 C 0.18088 0.59322 0.20897 0.0
C622 C 0.18439 0.61705 0.22931 0.0
C623 C 0.204 0.68979 0.27879 0.0
C624 C 0.19521 0.66408 0.26374 0.0
H625 H 0.20665 0.55843 0.22759 0.0
H626 H 0.21032 0.59582 0.26769 0.0
H627 H 0.17802 0.62649 0.13074 0.0
H628 H 0.24154 0.74475 0.21297 0.0
H629 H 0.22522 0.70254 0.18865 0.0
C630 C 0.62181 0.16519 0.53493 0.0
C631 C 0.64006 0.18271 0.49471 0.0
C632 C 0.60373 0.16892 0.56102 0.0
C633 C 0.59033 0.21774 0.59576 0.0
H634 H 0.52379 0.16724 0.5949 0.0
C635 C 0.51423 0.23838 0.5989 0.0
C636 C 0.4952 0.2262 0.64389 0.0
C637 C 0.53111 0.2312 0.58927 0.0
C638 C 0.54234 0.18139 0.59644 0.0
H639 H 0.65306 0.21751 0.44867 0.0
H640 H 0.62171 0.22393 0.49341 0.0
H641 H 0.55511 0.15834 0.56114 0.0
H642 H 0.47851 0.19636 0.71269 0.0
H643 H 0.50824 0.18336 0.69485 0.0
H644 H 0.57759 0.24096 0.62856 0.0
C645 C 0.62161 0.20756 0.50649 0.0
C646 C 0.56029 0.17633 0.5771 0.0
C647 C 0.63964 0.20388 0.48068 0.0
C648 C 0.49308 0.20614 0.67801 0.0
C649 C 0.51001 0.19871 0.66767 0.0
C650 C 0.57247 0.22279 0.61457 0.0
C651 C 0.60349 0.19024 0.5474 0.0
C652 C 0.58448 0.19463 0.57479 0.0
C653 C 0.5294 0.21146 0.62388 0.0
C654 C 0.54823 0.20485 0.61347 0.0
H655 H 0.62169 0.14874 0.54707 0.0
H656 H 0.59016 0.15526 0.59266 0.0
H657 H 0.60878 0.23214 0.59648 0.0
H658 H 0.51632 0.25377 0.57125 0.0
H659 H 0.54557 0.24111 0.55431 0.0
C660 C 0.2825 0.51506 0.94777 0.0
C661 C 0.27556 0.49419 0.98536 0.0
C662 C 0.3066 0.53189 0.93868 0.0
C663 C 0.36645 0.54012 0.9298 0.0
H664 H 0.38557 0.60722 0.94981 0.0
C665 C 0.46257 0.61748 0.86553 0.0
C666 C 0.46388 0.63732 0.83205 0.0
C667 C 0.44086 0.59967 0.89276 0.0
C668 C 0.38055 0.5886 0.94345 0.0
H669 H 0.28854 0.47439 0.0422 0.0
H670 H 0.33126 0.50396 0.02491 0.0
H671 H 0.34549 0.57647 0.98299 0.0
H672 H 0.44314 0.65358 0.79966 0.0
H673 H 0.40551 0.6227 0.84635 0.0
H674 H 0.40125 0.5523 0.88773 0.0
C675 C 0.31776 0.50721 1.00319 0.0
C676 C 0.35761 0.57097 0.96289 0.0
C677 C 0.2934 0.49037 1.01324 0.0
C678 C 0.44295 0.63886 0.82632 0.0
C679 C 0.42131 0.62109 0.85327 0.0
C680 C 0.38946 0.55783 0.90981 0.0
C681 C 0.32454 0.52825 0.96623 0.0
C682 C 0.35007 0.54656 0.95477 0.0
C683 C 0.41993 0.60128 0.88705 0.0
C684 C 0.39656 0.58232 0.91479 0.0
H685 H 0.26925 0.51853 0.92528 0.0
H686 H 0.31122 0.5477 0.90908 0.0
H687 H 0.36108 0.52144 0.92263 0.0
H688 H 0.4784 0.61583 0.87134 0.0
H689 H 0.44054 0.5848 0.91891 0.0
C690 C 0.81268 0.29036 0.34875 0.0
C691 C 0.79007 0.27276 0.32573 0.0
C692 C 0.82035 0.3148 0.33946 0.0
C693 C 0.79712 0.35602 0.3112 0.0
H694 H 0.85638 0.39692 0.21735 0.0
C695 C 0.81208 0.44043 0.17336 0.0
C696 C 0.83505 0.46081 0.17148 0.0
C697 C 0.80847 0.41898 0.20118 0.0
C698 C 0.83998 0.38593 0.24471 0.0
H699 H 0.75771 0.26689 0.27597 0.0
H700 H 0.77077 0.30906 0.26134 0.0
H701 H 0.84711 0.35679 0.25269 0.0
H702 H 0.87223 0.47459 0.19845 0.0
H703 H 0.86589 0.43708 0.24756 0.0
H704 H 0.78969 0.38477 0.30294 0.0
C705 C 0.78264 0.30419 0.2863 0.0
C706 C 0.83471 0.36294 0.26494 0.0
C707 C 0.77521 0.27999 0.29441 0.0
C708 C 0.85433 0.45917 0.19851 0.0
C709 C 0.8507 0.43766 0.22663 0.0
C710 C 0.80244 0.37898 0.29156 0.0
C711 C 0.80528 0.3219 0.30838 0.0
C712 C 0.81289 0.34752 0.29666 0.0
C713 C 0.8277 0.41725 0.22826 0.0
C714 C 0.8236 0.394 0.25623 0.0
H715 H 0.8245 0.28524 0.3728 0.0
H716 H 0.83792 0.32812 0.35689 0.0
H717 H 0.78031 0.34464 0.33645 0.0
H718 H 0.7969 0.44086 0.15179 0.0
H719 H 0.7906 0.40355 0.19999 0.0
C720 C 0.37765 0.80585 0.49494 0.0
C721 C 0.37846 0.82798 0.50084 0.0
C722 C 0.39571 0.80248 0.5221 0.0
C723 C 0.45876 0.83513 0.57911 0.0
H724 H 0.44179 0.77262 0.6502 0.0
C725 C 0.52758 0.8076 0.68 0.0
C726 C 0.5244 0.7865 0.64998 0.0
C727 C 0.51047 0.81485 0.67086 0.0
C728 C 0.44681 0.79022 0.63079 0.0
H729 H 0.39893 0.86391 0.5408 0.0
H730 H 0.43048 0.85796 0.5888 0.0
H731 H 0.41029 0.78106 0.61825 0.0
H732 H 0.50096 0.75666 0.58669 0.0
H733 H 0.4713 0.76893 0.57208 0.0
H734 H 0.49544 0.844 0.59131 0.0
C735 C 0.41595 0.84329 0.56233 0.0
C736 C 0.42877 0.79503 0.61202 0.0
C737 C 0.39785 0.84669 0.53486 0.0
C738 C 0.50394 0.77291 0.61087 0.0
C739 C 0.48683 0.77989 0.60269 0.0
C740 C 0.47689 0.83034 0.59848 0.0
C741 C 0.41511 0.82111 0.5563 0.0
C742 C 0.43446 0.81727 0.58394 0.0
C743 C 0.48978 0.80083 0.63266 0.0
C744 C 0.47105 0.80757 0.62262 0.0
H745 H 0.36329 0.79121 0.46786 0.0
H746 H 0.39469 0.78534 0.51493 0.0
H747 H 0.46384 0.85244 0.55748 0.0
H748 H 0.54327 0.81847 0.71016 0.0
H749 H 0.51317 0.83112 0.69435 0.0
C750 C 0.73638 0.49658 0.95445 0.0
C751 C 0.74352 0.51818 0.98821 0.0
C752 C 0.71222 0.47981 0.94637 0.0
C753 C 0.65316 0.47275 0.93015 0.0
H754 H 0.63216 0.40574 0.96277 0.0
C755 C 0.55708 0.39635 0.86421 0.0
C756 C 0.55554 0.37575 0.83521 0.0
C757 C 0.57861 0.41405 0.89228 0.0
C758 C 0.63771 0.42433 0.95289 0.0
H759 H 0.73088 0.53928 0.03962 0.0
H760 H 0.68807 0.50988 0.02372 0.0
H761 H 0.67227 0.43639 0.99578 0.0
H762 H 0.57566 0.35794 0.81202 0.0
H763 H 0.61301 0.38866 0.86007 0.0
H764 H 0.61897 0.46064 0.88446 0.0
C765 C 0.70144 0.50599 1.00434 0.0
C766 C 0.66066 0.4419 0.97226 0.0
C767 C 0.72585 0.52274 1.01357 0.0
C768 C 0.57602 0.3733 0.83511 0.0
C769 C 0.59749 0.39097 0.86286 0.0
C770 C 0.63018 0.45511 0.91015 0.0
C771 C 0.69445 0.48428 0.97095 0.0
C772 C 0.66886 0.46624 0.95964 0.0
C773 C 0.59913 0.41161 0.89187 0.0
C774 C 0.6224 0.43061 0.91971 0.0
H775 H 0.74952 0.49251 0.93414 0.0
H776 H 0.70741 0.46343 0.91962 0.0
H777 H 0.65908 0.49138 0.91941 0.0
H778 H 0.54158 0.3987 0.8657 0.0
H779 H 0.5791 0.42956 0.91475 0.0
loop_
_geom_bond_atom_site_label_1
_geom_bond_atom_site_label_2
_geom_bond_distance
_geom_bond_site_symmetry_2
_ccdc_geom_bond_type
Nd0 C2 2.836 1_554 S
Nd0 O20 2.500 1_554 S
Nd0 O21 2.492 1_554 S
Nd0 O22 2.487 . S
Nd0 O23 2.682 . S
Nd0 O24 2.410 1_554 S
Nd0 O29 2.414 1_554 S
Nd0 O31 2.424 . S
Nd1 C11 2.836 1_556 S
Nd1 O23 2.414 1_556 S
Nd1 O25 2.424 . S
Nd1 O26 2.500 1_556 S
Nd1 O27 2.492 1_556 S
Nd1 O28 2.487 . S
Nd1 O29 2.682 . S
Nd1 O30 2.410 1_556 S
C2 Nd0 2.836 1_556 S
C2 C3 1.498 . S
C2 O20 1.258 . S
C2 O21 1.239 . S
C3 C2 1.498 . S
C3 C4 1.366 . S
C3 C8 1.407 . S
C4 C3 1.366 . S
C4 C5 1.392 . S
C4 H32 0.930 . S
C5 C4 1.392 . S
C5 C6 1.398 . S
C5 H33 0.929 . S
C6 C5 1.398 . S
C6 C7 1.352 . S
C7 C6 1.352 . S
C7 C8 1.384 . S
C7 H34 0.930 . S
C8 C3 1.407 . S
C8 C7 1.384 . S
C8 H35 0.929 . S
C9 O22 1.241 . S
C9 O23 1.273 . S
C10 O24 1.251 . S
C10 O25 1.268 . S
C11 Nd1 2.836 1_554 S
C11 C12 1.498 . S
C11 O26 1.258 . S
C11 O27 1.239 . S
C12 C11 1.498 . S
C12 C13 1.366 . S
C12 C17 1.407 . S
C13 C12 1.366 . S
C13 C14 1.392 . S
C13 H36 0.930 . S
C14 C13 1.392 . S
C14 C15 1.398 . S
C14 H37 0.929 . S
C15 C14 1.398 . S
C15 C16 1.352 . S
C16 C15 1.352 . S
C16 C17 1.384 . S
C16 H38 0.930 . S
C17 C12 1.407 . S
C17 C16 1.384 . S
C17 H39 0.929 . S
C18 O28 1.241 . S
C18 O29 1.273 . S
C19 O30 1.251 . S
C19 O31 1.268 . S
O20 Nd0 2.500 1_556 S
O20 C2 1.258 . S
O21 Nd0 2.492 1_556 S
O21 C2 1.239 . S
O22 Nd0 2.487 . S
O22 C9 1.241 . S
O23 Nd0 2.682 . S
O23 Nd1 2.414 1_554 S
O23 C9 1.273 . S
O24 Nd0 2.410 1_556 S
O24 C10 1.251 . S
O25 Nd1 2.424 . S
O25 C10 1.268 . S
O26 Nd1 2.500 1_554 S
O26 C11 1.258 . S
O27 Nd1 2.492 1_554 S
O27 C11 1.239 . S
O28 Nd1 2.487 . S
O28 C18 1.241 . S
O29 Nd0 2.414 1_556 S
O29 Nd1 2.682 . S
O29 C18 1.273 . S
O30 Nd1 2.410 1_554 S
O30 C19 1.251 . S
O31 Nd0 2.424 . S
O31 C19 1.268 . S
H32 C4 0.930 . S
H33 C5 0.929 . S
H34 C7 0.930 . S
H35 C8 0.929 . S
H36 C13 0.930 . S
H37 C14 0.929 . S
H38 C16 0.930 . S
H39 C17 0.929 . S
Nd40 C42 2.836 . S
Nd40 O60 2.500 . S
Nd40 O61 2.492 . S
Nd40 O62 2.487 . S
Nd40 O63 2.682 . S
Nd40 O64 2.410 . S
Nd40 O69 2.414 . S
Nd40 O71 2.424 . S
Nd41 C51 2.836 . S
Nd41 O63 2.414 . S
Nd41 O65 2.424 . S
Nd41 O66 2.500 . S
Nd41 O67 2.492 . S
Nd41 O68 2.487 . S
Nd41 O69 2.682 . S
Nd41 O70 2.410 . S
C42 Nd40 2.836 . S
C42 C43 1.498 . S
C42 O60 1.258 . S
C42 O61 1.239 . S
C43 C42 1.498 . S
C43 C44 1.366 . S
C43 C48 1.407 . S
C44 C43 1.366 . S
C44 C45 1.392 . S
C44 H72 0.930 . S
C45 C44 1.392 . S
C45 C46 1.398 . S
C45 H73 0.929 . S
C46 C45 1.398 . S
C46 C47 1.352 . S
C47 C46 1.352 . S
C47 C48 1.384 . S
C47 H74 0.930 . S
C48 C43 1.407 . S
C48 C47 1.384 . S
C48 H75 0.929 . S
C49 O62 1.241 . S
C49 O63 1.273 . S
C50 O64 1.251 . S
C50 O65 1.268 . S
C51 Nd41 2.836 . S
C51 C52 1.498 . S
C51 O66 1.258 . S
C51 O67 1.239 . S
C52 C51 1.498 . S
C52 C53 1.366 . S
C52 C57 1.407 . S
C53 C52 1.366 . S
C53 C54 1.392 . S
C53 H76 0.930 . S
C54 C53 1.392 . S
C54 C55 1.398 . S
C54 H77 0.929 . S
C55 C54 1.398 . S
C55 C56 1.352 . S
C56 C55 1.352 . S
C56 C57 1.384 . S
C56 H78 0.930 . S
C57 C52 1.407 . S
C57 C56 1.384 . S
C57 H79 0.929 . S
C58 O68 1.241 . S
C58 O69 1.273 . S
C59 O70 1.251 . S
C59 O71 1.268 . S
O60 Nd40 2.500 . S
O60 C42 1.258 . S
O61 Nd40 2.492 . S
O61 C42 1.239 . S
O62 Nd40 2.487 . S
O62 C49 1.241 . S
O63 Nd40 2.682 . S
O63 Nd41 2.414 . S
O63 C49 1.273 . S
O64 Nd40 2.410 . S
O64 C50 1.251 . S
O65 Nd41 2.424 . S
O65 C50 1.268 . S
O66 Nd41 2.500 . S
O66 C51 1.258 . S
O67 Nd41 2.492 . S
O67 C51 1.239 . S
O68 Nd41 2.487 . S
O68 C58 1.241 . S
O69 Nd40 2.414 . S
O69 Nd41 2.682 . S
O69 C58 1.273 . S
O70 Nd41 2.410 . S
O70 C59 1.251 . S
O71 Nd40 2.424 . S
O71 C59 1.268 . S
H72 C44 0.930 . S
H73 C45 0.929 . S
H74 C47 0.930 . S
H75 C48 0.929 . S
H76 C53 0.930 . S
H77 C54 0.929 . S
H78 C56 0.930 . S
H79 C57 0.929 . S
Nd80 C82 2.836 . S
Nd80 O100 2.500 . S
Nd80 O101 2.492 . S
Nd80 O102 2.487 . S
Nd80 O103 2.682 . S
Nd80 O104 2.410 . S
Nd80 O109 2.414 . S
Nd80 O111 2.424 . S
Nd81 C91 2.836 . S
Nd81 O103 2.414 . S
Nd81 O105 2.424 . S
Nd81 O106 2.500 . S
Nd81 O107 2.492 . S
Nd81 O108 2.487 . S
Nd81 O109 2.682 . S
Nd81 O110 2.410 . S
C82 Nd80 2.836 . S
C82 C83 1.498 . S
C82 O100 1.258 . S
C82 O101 1.239 . S
C83 C82 1.498 . S
C83 C84 1.366 . S
C83 C88 1.407 . S
C84 C83 1.366 . S
C84 C85 1.392 . S
C84 H112 0.930 . S
C85 C84 1.392 . S
C85 C86 1.398 . S
C85 H113 0.929 . S
C86 C85 1.398 . S
C86 C87 1.352 . S
C87 C86 1.352 . S
C87 C88 1.384 . S
C87 H114 0.930 . S
C88 C83 1.407 . S
C88 C87 1.384 . S
C88 H115 0.929 . S
C89 O102 1.241 . S
C89 O103 1.273 . S
C90 O104 1.251 . S
C90 O105 1.268 . S
C91 Nd81 2.836 . S
C91 C92 1.498 . S
C91 O106 1.258 . S
C91 O107 1.239 . S
C92 C91 1.498 . S
C92 C93 1.366 . S
C92 C97 1.407 . S
C93 C92 1.366 . S
C93 C94 1.392 . S
C93 H116 0.930 . S
C94 C93 1.392 . S
C94 C95 1.398 . S
C94 H117 0.929 . S
C95 C94 1.398 . S
C95 C96 1.352 . S
C96 C95 1.352 . S
C96 C97 1.384 . S
C96 H118 0.930 . S
C97 C92 1.407 . S
C97 C96 1.384 . S
C97 H119 0.929 . S
C98 O108 1.241 . S
C98 O109 1.273 . S
C99 O110 1.251 . S
C99 O111 1.268 . S
O100 Nd80 2.500 . S
O100 C82 1.258 . S
O101 Nd80 2.492 . S
O101 C82 1.239 . S
O102 Nd80 2.487 . S
O102 C89 1.241 . S
O103 Nd80 2.682 . S
O103 Nd81 2.414 . S
O103 C89 1.273 . S
O104 Nd80 2.410 . S
O104 C90 1.251 . S
O105 Nd81 2.424 . S
O105 C90 1.268 . S
O106 Nd81 2.500 . S
O106 C91 1.258 . S
O107 Nd81 2.492 . S
O107 C91 1.239 . S
O108 Nd81 2.487 . S
O108 C98 1.241 . S
O109 Nd80 2.414 . S
O109 Nd81 2.682 . S
O109 C98 1.273 . S
O110 Nd81 2.410 . S
O110 C99 1.251 . S
O111 Nd80 2.424 . S
O111 C99 1.268 . S
H112 C84 0.930 . S
H113 C85 0.929 . S
H114 C87 0.930 . S
H115 C88 0.929 . S
H116 C93 0.930 . S
H117 C94 0.929 . S
H118 C96 0.930 . S
H119 C97 0.929 . S
Nd120 C122 2.836 1_554 S
Nd120 O140 2.500 1_554 S
Nd120 O141 2.492 1_554 S
Nd120 O142 2.487 . S
Nd120 O143 2.682 . S
Nd120 O144 2.410 1_554 S
Nd120 O149 2.414 1_554 S
Nd120 O151 2.424 . S
Nd121 C131 2.836 1_556 S
Nd121 O143 2.414 1_556 S
Nd121 O145 2.424 . S
Nd121 O146 2.500 1_556 S
Nd121 O147 2.492 1_556 S
Nd121 O148 2.487 . S
Nd121 O149 2.682 . S
Nd121 O150 2.410 1_556 S
C122 Nd120 2.836 1_556 S
C122 C123 1.498 . S
C122 O140 1.258 . S
C122 O141 1.239 . S
C123 C122 1.498 . S
C123 C124 1.366 . S
C123 C128 1.407 . S
C124 C123 1.366 . S
C124 C125 1.392 . S
C124 H152 0.930 . S
C125 C124 1.392 . S
C125 C126 1.398 . S
C125 H153 0.929 . S
C126 C125 1.398 . S
C126 C127 1.352 . S
C127 C126 1.352 . S
C127 C128 1.384 . S
C127 H154 0.930 . S
C128 C123 1.407 . S
C128 C127 1.384 . S
C128 H155 0.929 . S
C129 O142 1.241 . S
C129 O143 1.273 . S
C130 O144 1.251 . S
C130 O145 1.268 . S
C131 Nd121 2.836 1_554 S
C131 C132 1.498 . S
C131 O146 1.258 . S
C131 O147 1.239 . S
C132 C131 1.498 . S
C132 C133 1.366 . S
C132 C137 1.407 . S
C133 C132 1.366 . S
C133 C134 1.392 . S
C133 H156 0.930 . S
C134 C133 1.392 . S
C134 C135 1.398 . S
C134 H157 0.929 . S
C135 C134 1.398 . S
C135 C136 1.352 . S
C136 C135 1.352 . S
C136 C137 1.384 . S
C136 H158 0.930 . S
C137 C132 1.407 . S
C137 C136 1.384 . S
C137 H159 0.929 . S
C138 O148 1.241 . S
C138 O149 1.273 . S
C139 O150 1.251 . S
C139 O151 1.268 . S
O140 Nd120 2.500 1_556 S
O140 C122 1.258 . S
O141 Nd120 2.492 1_556 S
O141 C122 1.239 . S
O142 Nd120 2.487 . S
O142 C129 1.241 . S
O143 Nd120 2.682 . S
O143 Nd121 2.414 1_554 S
O143 C129 1.273 . S
O144 Nd120 2.410 1_556 S
O144 C130 1.251 . S
O145 Nd121 2.424 . S
O145 C130 1.268 . S
O146 Nd121 2.500 1_554 S
O146 C131 1.258 . S
O147 Nd121 2.492 1_554 S
O147 C131 1.239 . S
O148 Nd121 2.487 . S
O148 C138 1.241 . S
O149 Nd120 2.414 1_556 S
O149 Nd121 2.682 . S
O149 C138 1.273 . S
O150 Nd121 2.410 1_554 S
O150 C139 1.251 . S
O151 Nd120 2.424 . S
O151 C139 1.268 . S
H152 C124 0.930 . S
H153 C125 0.929 . S
H154 C127 0.930 . S
H155 C128 0.929 . S
H156 C133 0.930 . S
H157 C134 0.929 . S
H158 C136 0.930 . S
H159 C137 0.929 . S
Nd160 C162 2.836 . S
Nd160 O180 2.500 . S
Nd160 O181 2.492 . S
Nd160 O182 2.487 . S
Nd160 O183 2.682 . S
Nd160 O184 2.410 . S
Nd160 O189 2.414 . S
Nd160 O191 2.424 . S
Nd161 C171 2.836 . S
Nd161 O183 2.414 . S
Nd161 O185 2.424 . S
Nd161 O186 2.500 . S
Nd161 O187 2.492 . S
Nd161 O188 2.487 . S
Nd161 O189 2.682 . S
Nd161 O190 2.410 . S
C162 Nd160 2.836 . S
C162 C163 1.498 . S
C162 O180 1.258 . S
C162 O181 1.239 . S
C163 C162 1.498 . S
C163 C164 1.366 . S
C163 C168 1.407 . S
C164 C163 1.366 . S
C164 C165 1.392 . S
C164 H192 0.930 . S
C165 C164 1.392 . S
C165 C166 1.398 . S
C165 H193 0.929 . S
C166 C165 1.398 . S
C166 C167 1.352 . S
C167 C166 1.352 . S
C167 C168 1.384 . S
C167 H194 0.930 . S
C168 C163 1.407 . S
C168 C167 1.384 . S
C168 H195 0.929 . S
C169 O182 1.241 . S
C169 O183 1.273 . S
C170 O184 1.251 . S
C170 O185 1.268 . S
C171 Nd161 2.836 . S
C171 C172 1.498 . S
C171 O186 1.258 . S
C171 O187 1.239 . S
C172 C171 1.498 . S
C172 C173 1.366 . S
C172 C177 1.407 . S
C173 C172 1.366 . S
C173 C174 1.392 . S
C173 H196 0.930 . S
C174 C173 1.392 . S
C174 C175 1.398 . S
C174 H197 0.929 . S
C175 C174 1.398 . S
C175 C176 1.352 . S
C176 C175 1.352 . S
C176 C177 1.384 . S
C176 H198 0.930 . S
C177 C172 1.407 . S
C177 C176 1.384 . S
C177 H199 0.929 . S
C178 O188 1.241 . S
C178 O189 1.273 . S
C179 O190 1.251 . S
C179 O191 1.268 . S
O180 Nd160 2.500 . S
O180 C162 1.258 . S
O181 Nd160 2.492 . S
O181 C162 1.239 . S
O182 Nd160 2.487 . S
O182 C169 1.241 . S
O183 Nd160 2.682 . S
O183 Nd161 2.414 . S
O183 C169 1.273 . S
O184 Nd160 2.410 . S
O184 C170 1.251 . S
O185 Nd161 2.424 . S
O185 C170 1.268 . S
O186 Nd161 2.500 . S
O186 C171 1.258 . S
O187 Nd161 2.492 . S
O187 C171 1.239 . S
O188 Nd161 2.487 . S
O188 C178 1.241 . S
O189 Nd160 2.414 . S
O189 Nd161 2.682 . S
O189 C178 1.273 . S
O190 Nd161 2.410 . S
O190 C179 1.251 . S
O191 Nd160 2.424 . S
O191 C179 1.268 . S
H192 C164 0.930 . S
H193 C165 0.929 . S
H194 C167 0.930 . S
H195 C168 0.929 . S
H196 C173 0.930 . S
H197 C174 0.929 . S
H198 C176 0.930 . S
H199 C177 0.929 . S
Nd200 C202 2.836 . S
Nd200 O220 2.500 . S
Nd200 O221 2.492 . S
Nd200 O222 2.487 . S
Nd200 O223 2.682 . S
Nd200 O224 2.410 . S
Nd200 O229 2.414 . S
Nd200 O231 2.424 . S
Nd201 C211 2.836 . S
Nd201 O223 2.414 . S
Nd201 O225 2.424 . S
Nd201 O226 2.500 . S
Nd201 O227 2.492 . S
Nd201 O228 2.487 . S
Nd201 O229 2.682 . S
Nd201 O230 2.410 . S
C202 Nd200 2.836 . S
C202 C203 1.498 . S
C202 O220 1.258 . S
C202 O221 1.239 . S
C203 C202 1.498 . S
C203 C204 1.366 . S
C203 C208 1.407 . S
C204 C203 1.366 . S
C204 C205 1.392 . S
C204 H232 0.930 . S
C205 C204 1.392 . S
C205 C206 1.398 . S
C205 H233 0.929 . S
C206 C205 1.398 . S
C206 C207 1.352 . S
C207 C206 1.352 . S
C207 C208 1.384 . S
C207 H234 0.930 . S
C208 C203 1.407 . S
C208 C207 1.384 . S
C208 H235 0.929 . S
C209 O222 1.241 . S
C209 O223 1.273 . S
C210 O224 1.251 . S
C210 O225 1.268 . S
C211 Nd201 2.836 . S
C211 C212 1.498 . S
C211 O226 1.258 . S
C211 O227 1.239 . S
C212 C211 1.498 . S
C212 C213 1.366 . S
C212 C217 1.407 . S
C213 C212 1.366 . S
C213 C214 1.392 . S
C213 H236 0.930 . S
C214 C213 1.392 . S
C214 C215 1.398 . S
C214 H237 0.929 . S
C215 C214 1.398 . S
C215 C216 1.352 . S
C216 C215 1.352 . S
C216 C217 1.384 . S
C216 H238 0.930 . S
C217 C212 1.407 . S
C217 C216 1.384 . S
C217 H239 0.929 . S
C218 O228 1.241 . S
C218 O229 1.273 . S
C219 O230 1.251 . S
C219 O231 1.268 . S
O220 Nd200 2.500 . S
O220 C202 1.258 . S
O221 Nd200 2.492 . S
O221 C202 1.239 . S
O222 Nd200 2.487 . S
O222 C209 1.241 . S
O223 Nd200 2.682 . S
O223 Nd201 2.414 . S
O223 C209 1.273 . S
O224 Nd200 2.410 . S
O224 C210 1.251 . S
O225 Nd201 2.424 . S
O225 C210 1.268 . S
O226 Nd201 2.500 . S
O226 C211 1.258 . S
O227 Nd201 2.492 . S
O227 C211 1.239 . S
O228 Nd201 2.487 . S
O228 C218 1.241 . S
O229 Nd200 2.414 . S
O229 Nd201 2.682 . S
O229 C218 1.273 . S
O230 Nd201 2.410 . S
O230 C219 1.251 . S
O231 Nd200 2.424 . S
O231 C219 1.268 . S
H232 C204 0.930 . S
H233 C205 0.929 . S
H234 C207 0.930 . S
H235 C208 0.929 . S
H236 C213 0.930 . S
H237 C214 0.929 . S
H238 C216 0.930 . S
H239 C217 0.929 . S
C240 C241 1.349 . S
C240 C242 1.327 . S
C240 H265 0.950 . S
C241 C240 1.349 . S
C241 C257 1.349 . S
C242 C240 1.327 . S
C242 C261 1.429 . S
C242 H266 0.950 . S
C243 C260 1.574 . S
C243 C262 1.368 . S
C243 H267 0.949 . S
H244 C248 0.949 . S
C245 C246 1.349 . S
C245 C247 1.327 . S
C245 H268 0.950 . S
C246 C245 1.349 . S
C246 C258 1.349 . S
C247 C245 1.327 . S
C247 C263 1.429 . S
C247 H269 0.950 . S
C248 H244 0.949 . S
C248 C256 1.574 . S
C248 C264 1.368 . S
H249 C257 0.950 . S
H250 C255 0.950 . S
H251 C256 0.949 . S
H252 C258 0.950 . S
H253 C259 0.950 . S
H254 C260 0.949 . S
C255 H250 0.950 . S
C255 C257 1.327 . S
C255 C261 1.429 . S
C256 C248 1.574 . S
C256 H251 0.949 . S
C256 C262 1.368 . S
C257 C241 1.349 . S
C257 H249 0.950 . S
C257 C255 1.327 . S
C258 C246 1.349 . S
C258 H252 0.950 . S
C258 C259 1.327 . S
C259 H253 0.950 . S
C259 C258 1.327 . S
C259 C263 1.429 . S
C260 C243 1.574 . S
C260 H254 0.949 . S
C260 C264 1.368 . S
C261 C242 1.429 . S
C261 C255 1.429 . S
C261 C262 1.523 . S
C262 C243 1.368 . S
C262 C256 1.368 . S
C262 C261 1.523 . S
C263 C247 1.429 . S
C263 C259 1.429 . S
C263 C264 1.523 . S
C264 C248 1.368 . S
C264 C260 1.368 . S
C264 C263 1.523 . S
H265 C240 0.950 . S
H266 C242 0.950 . S
H267 C243 0.949 . S
H268 C245 0.950 . S
H269 C247 0.950 . S
C270 C271 1.349 . S
C270 C272 1.327 . S
C270 H295 0.950 1_554 S
C271 C270 1.349 . S
C271 C287 1.349 . S
C272 C270 1.327 . S
C272 C291 1.429 . S
C272 H296 0.950 1_554 S
C273 C290 1.574 . S
C273 C292 1.368 . S
C273 H297 0.949 . S
H274 C278 0.949 . S
C275 C276 1.349 . S
C275 C277 1.327 . S
C275 H298 0.950 . S
C276 C275 1.349 . S
C276 C288 1.349 . S
C277 C275 1.327 . S
C277 C293 1.429 . S
C277 H299 0.950 . S
C278 H274 0.949 . S
C278 C286 1.574 . S
C278 C294 1.368 . S
H279 C287 0.950 . S
H280 C285 0.950 . S
H281 C286 0.949 . S
H282 C288 0.950 . S
H283 C289 0.950 . S
H284 C290 0.949 . S
C285 H280 0.950 . S
C285 C287 1.327 . S
C285 C291 1.429 . S
C286 C278 1.574 . S
C286 H281 0.949 . S
C286 C292 1.368 . S
C287 C271 1.349 . S
C287 H279 0.950 . S
C287 C285 1.327 . S
C288 C276 1.349 . S
C288 H282 0.950 . S
C288 C289 1.327 . S
C289 H283 0.950 . S
C289 C288 1.327 . S
C289 C293 1.429 . S
C290 C273 1.574 . S
C290 H284 0.949 . S
C290 C294 1.368 . S
C291 C272 1.429 . S
C291 C285 1.429 . S
C291 C292 1.523 . S
C292 C273 1.368 . S
C292 C286 1.368 . S
C292 C291 1.523 . S
C293 C277 1.429 . S
C293 C289 1.429 . S
C293 C294 1.523 1_655 S
C294 C278 1.368 . S
C294 C290 1.368 . S
C294 C293 1.523 1_455 S
H295 C270 0.950 1_556 S
H296 C272 0.950 1_556 S
H297 C273 0.949 . S
H298 C275 0.950 . S
H299 C277 0.950 . S
C300 C301 1.349 . S
C300 C302 1.327 . S
C300 H325 0.950 . S
C301 C300 1.349 . S
C301 C317 1.349 . S
C302 C300 1.327 . S
C302 C321 1.429 . S
C302 H326 0.950 . S
C303 C320 1.574 . S
C303 C322 1.368 . S
C303 H327 0.949 . S
H304 C308 0.949 . S
C305 C306 1.349 . S
C305 C307 1.327 . S
C305 H328 0.950 . S
C306 C305 1.349 . S
C306 C318 1.349 . S
C307 C305 1.327 . S
C307 C323 1.429 . S
C307 H329 0.950 . S
C308 H304 0.949 . S
C308 C316 1.574 . S
C308 C324 1.368 . S
H309 C317 0.950 . S
H310 C315 0.950 . S
H311 C316 0.949 . S
H312 C318 0.950 . S
H313 C319 0.950 . S
H314 C320 0.949 . S
C315 H310 0.950 . S
C315 C317 1.327 . S
C315 C321 1.429 . S
C316 C308 1.574 . S
C316 H311 0.949 . S
C316 C322 1.368 . S
C317 C301 1.349 . S
C317 H309 0.950 . S
C317 C315 1.327 . S
C318 C306 1.349 . S
C318 H312 0.950 . S
C318 C319 1.327 . S
C319 H313 0.950 . S
C319 C318 1.327 . S
C319 C323 1.429 . S
C320 C303 1.574 . S
C320 H314 0.949 . S
C320 C324 1.368 . S
C321 C302 1.429 . S
C321 C315 1.429 . S
C321 C322 1.523 . S
C322 C303 1.368 . S
C322 C316 1.368 . S
C322 C321 1.523 . S
C323 C307 1.429 . S
C323 C319 1.429 . S
C323 C324 1.523 1_565 S
C324 C308 1.368 . S
C324 C320 1.368 . S
C324 C323 1.523 1_545 S
H325 C300 0.950 . S
H326 C302 0.950 . S
H327 C303 0.949 . S
H328 C305 0.950 . S
H329 C307 0.950 . S
C330 C331 1.349 . S
C330 C332 1.327 . S
C330 H355 0.950 . S
C331 C330 1.349 . S
C331 C347 1.349 . S
C332 C330 1.327 . S
C332 C351 1.429 . S
C332 H356 0.950 . S
C333 C350 1.574 . S
C333 C352 1.368 . S
C333 H357 0.949 . S
H334 C338 0.949 . S
C335 C336 1.349 . S
C335 C337 1.327 . S
C335 H358 0.950 . S
C336 C335 1.349 . S
C336 C348 1.349 . S
C337 C335 1.327 . S
C337 C353 1.429 . S
C337 H359 0.950 . S
C338 H334 0.949 . S
C338 C346 1.574 . S
C338 C354 1.368 . S
H339 C347 0.950 . S
H340 C345 0.950 . S
H341 C346 0.949 . S
H342 C348 0.950 . S
H343 C349 0.950 . S
H344 C350 0.949 . S
C345 H340 0.950 . S
C345 C347 1.327 . S
C345 C351 1.429 . S
C346 C338 1.574 . S
C346 H341 0.949 . S
C346 C352 1.368 . S
C347 C331 1.349 . S
C347 H339 0.950 . S
C347 C345 1.327 . S
C348 C336 1.349 . S
C348 H342 0.950 . S
C348 C349 1.327 . S
C349 H343 0.950 . S
C349 C348 1.327 . S
C349 C353 1.429 . S
C350 C333 1.574 . S
C350 H344 0.949 . S
C350 C354 1.368 . S
C351 C332 1.429 . S
C351 C345 1.429 . S
C351 C352 1.523 . S
C352 C333 1.368 . S
C352 C346 1.368 . S
C352 C351 1.523 . S
C353 C337 1.429 . S
C353 C349 1.429 . S
C353 C354 1.523 . S
C354 C338 1.368 . S
C354 C350 1.368 . S
C354 C353 1.523 . S
H355 C330 0.950 . S
H356 C332 0.950 . S
H357 C333 0.949 . S
H358 C335 0.950 . S
H359 C337 0.950 . S
C360 C361 1.349 . S
C360 C362 1.327 . S
C360 H385 0.950 . S
C361 C360 1.349 . S
C361 C377 1.349 . S
C362 C360 1.327 . S
C362 C381 1.429 . S
C362 H386 0.950 . S
C363 C380 1.574 . S
C363 C382 1.368 . S
C363 H387 0.949 . S
H364 C368 0.949 . S
C365 C366 1.349 1_556 S
C365 C367 1.327 1_556 S
C365 H388 0.950 . S
C366 C365 1.349 1_554 S
C366 C378 1.349 . S
C367 C365 1.327 1_554 S
C367 C383 1.429 . S
C367 H389 0.950 1_554 S
C368 H364 0.949 . S
C368 C376 1.574 . S
C368 C384 1.368 . S
H369 C377 0.950 . S
H370 C375 0.950 . S
H371 C376 0.949 . S
H372 C378 0.950 . S
H373 C379 0.950 . S
H374 C380 0.949 1_556 S
C375 H370 0.950 . S
C375 C377 1.327 . S
C375 C381 1.429 . S
C376 C368 1.574 . S
C376 H371 0.949 . S
C376 C382 1.368 . S
C377 C361 1.349 . S
C377 H369 0.950 . S
C377 C375 1.327 . S
C378 C366 1.349 . S
C378 H372 0.950 . S
C378 C379 1.327 . S
C379 H373 0.950 . S
C379 C378 1.327 . S
C379 C383 1.429 . S
C380 C363 1.574 . S
C380 H374 0.949 1_554 S
C380 C384 1.368 . S
C381 C362 1.429 . S
C381 C375 1.429 . S
C381 C382 1.523 1_455 S
C382 C363 1.368 . S
C382 C376 1.368 . S
C382 C381 1.523 1_655 S
C383 C367 1.429 . S
C383 C379 1.429 . S
C383 C384 1.523 . S
C384 C368 1.368 . S
C384 C380 1.368 . S
C384 C383 1.523 . S
H385 C360 0.950 . S
H386 C362 0.950 . S
H387 C363 0.949 . S
H388 C365 0.950 . S
H389 C367 0.950 1_556 S
C390 C391 1.349 . S
C390 C392 1.327 . S
C390 H415 0.950 . S
C391 C390 1.349 . S
C391 C407 1.349 . S
C392 C390 1.327 . S
C392 C411 1.429 . S
C392 H416 0.950 . S
C393 C410 1.574 . S
C393 C412 1.368 . S
C393 H417 0.949 . S
H394 C398 0.949 . S
C395 C396 1.349 . S
C395 C397 1.327 . S
C395 H418 0.950 . S
C396 C395 1.349 . S
C396 C408 1.349 . S
C397 C395 1.327 . S
C397 C413 1.429 . S
C397 H419 0.950 . S
C398 H394 0.949 . S
C398 C406 1.574 . S
C398 C414 1.368 . S
H399 C407 0.950 . S
H400 C405 0.950 . S
H401 C406 0.949 . S
H402 C408 0.950 . S
H403 C409 0.950 . S
H404 C410 0.949 . S
C405 H400 0.950 . S
C405 C407 1.327 . S
C405 C411 1.429 . S
C406 C398 1.574 . S
C406 H401 0.949 . S
C406 C412 1.368 . S
C407 C391 1.349 . S
C407 H399 0.950 . S
C407 C405 1.327 . S
C408 C396 1.349 . S
C408 H402 0.950 . S
C408 C409 1.327 . S
C409 H403 0.950 . S
C409 C408 1.327 . S
C409 C413 1.429 . S
C410 C393 1.574 . S
C410 H404 0.949 . S
C410 C414 1.368 . S
C411 C392 1.429 . S
C411 C405 1.429 . S
C411 C412 1.523 1_545 S
C412 C393 1.368 . S
C412 C406 1.368 . S
C412 C411 1.523 1_565 S
C413 C397 1.429 . S
C413 C409 1.429 . S
C413 C414 1.523 . S
C414 C398 1.368 . S
C414 C410 1.368 . S
C414 C413 1.523 . S
H415 C390 0.950 . S
H416 C392 0.950 . S
H417 C393 0.949 . S
H418 C395 0.950 . S
H419 C397 0.950 . S
C420 C421 1.349 . S
C420 C422 1.327 . S
C420 H445 0.950 . S
C421 C420 1.349 . S
C421 C437 1.349 . S
C422 C420 1.327 . S
C422 C441 1.429 . S
C422 H446 0.950 . S
C423 C440 1.574 . S
C423 C442 1.368 . S
C423 H447 0.949 . S
H424 C428 0.949 . S
C425 C426 1.349 . S
C425 C427 1.327 . S
C425 H448 0.950 . S
C426 C425 1.349 . S
C426 C438 1.349 . S
C427 C425 1.327 . S
C427 C443 1.429 . S
C427 H449 0.950 . S
C428 H424 0.949 . S
C428 C436 1.574 . S
C428 C444 1.368 . S
H429 C437 0.950 . S
H430 C435 0.950 . S
H431 C436 0.949 . S
H432 C438 0.950 . S
H433 C439 0.950 . S
H434 C440 0.949 . S
C435 H430 0.950 . S
C435 C437 1.327 . S
C435 C441 1.429 . S
C436 C428 1.574 . S
C436 H431 0.949 . S
C436 C442 1.368 . S
C437 C421 1.349 . S
C437 H429 0.950 . S
C437 C435 1.327 . S
C438 C426 1.349 . S
C438 H432 0.950 . S
C438 C439 1.327 . S
C439 H433 0.950 . S
C439 C438 1.327 . S
C439 C443 1.429 . S
C440 C423 1.574 . S
C440 H434 0.949 . S
C440 C444 1.368 . S
C441 C422 1.429 . S
C441 C435 1.429 . S
C441 C442 1.523 . S
C442 C423 1.368 . S
C442 C436 1.368 . S
C442 C441 1.523 . S
C443 C427 1.429 . S
C443 C439 1.429 . S
C443 C444 1.523 . S
C444 C428 1.368 . S
C444 C440 1.368 . S
C444 C443 1.523 . S
H445 C420 0.950 . S
H446 C422 0.950 . S
H447 C423 0.949 . S
H448 C425 0.950 . S
H449 C427 0.950 . S
C450 C451 1.349 . S
C450 C452 1.327 . S
C450 H475 0.950 . S
C451 C450 1.349 . S
C451 C467 1.349 . S
C452 C450 1.327 . S
C452 C471 1.429 1_554 S
C452 H476 0.950 1_554 S
C453 C470 1.574 . S
C453 C472 1.368 . S
C453 H477 0.949 . S
H454 C458 0.949 . S
C455 C456 1.349 . S
C455 C457 1.327 . S
C455 H478 0.950 . S
C456 C455 1.349 . S
C456 C468 1.349 . S
C457 C455 1.327 . S
C457 C473 1.429 . S
C457 H479 0.950 . S
C458 H454 0.949 . S
C458 C466 1.574 . S
C458 C474 1.368 . S
H459 C467 0.950 . S
H460 C465 0.950 1_556 S
H461 C466 0.949 . S
H462 C468 0.950 . S
H463 C469 0.950 . S
H464 C470 0.949 . S
C465 H460 0.950 1_554 S
C465 C467 1.327 . S
C465 C471 1.429 1_554 S
C466 C458 1.574 . S
C466 H461 0.949 . S
C466 C472 1.368 . S
C467 C451 1.349 . S
C467 H459 0.950 . S
C467 C465 1.327 . S
C468 C456 1.349 . S
C468 H462 0.950 . S
C468 C469 1.327 . S
C469 H463 0.950 . S
C469 C468 1.327 . S
C469 C473 1.429 . S
C470 C453 1.574 . S
C470 H464 0.949 . S
C470 C474 1.368 . S
C471 C452 1.429 1_556 S
C471 C465 1.429 1_556 S
C471 C472 1.523 . S
C472 C453 1.368 . S
C472 C466 1.368 . S
C472 C471 1.523 . S
C473 C457 1.429 . S
C473 C469 1.429 . S
C473 C474 1.523 . S
C474 C458 1.368 . S
C474 C470 1.368 . S
C474 C473 1.523 . S
H475 C450 0.950 . S
H476 C452 0.950 1_556 S
H477 C453 0.949 . S
H478 C455 0.950 . S
H479 C457 0.950 . S
C480 C481 1.349 . S
C480 C482 1.327 . S
C480 H505 0.950 . S
C481 C480 1.349 . S
C481 C497 1.349 . S
C482 C480 1.327 . S
C482 C501 1.429 . S
C482 H506 0.950 . S
C483 C500 1.574 . S
C483 C502 1.368 . S
C483 H507 0.949 . S
H484 C488 0.949 . S
C485 C486 1.349 . S
C485 C487 1.327 1_556 S
C485 H508 0.950 . S
C486 C485 1.349 . S
C486 C498 1.349 . S
C487 C485 1.327 1_554 S
C487 C503 1.429 . S
C487 H509 0.950 . S
C488 H484 0.949 . S
C488 C496 1.574 . S
C488 C504 1.368 . S
H489 C497 0.950 . S
H490 C495 0.950 . S
H491 C496 0.949 . S
H492 C498 0.950 . S
H493 C499 0.950 1_554 S
H494 C500 0.949 . S
C495 H490 0.950 . S
C495 C497 1.327 . S
C495 C501 1.429 . S
C496 C488 1.574 . S
C496 H491 0.949 . S
C496 C502 1.368 . S
C497 C481 1.349 . S
C497 H489 0.950 . S
C497 C495 1.327 . S
C498 C486 1.349 . S
C498 H492 0.950 . S
C498 C499 1.327 . S
C499 H493 0.950 1_556 S
C499 C498 1.327 . S
C499 C503 1.429 1_556 S
C500 C483 1.574 . S
C500 H494 0.949 . S
C500 C504 1.368 . S
C501 C482 1.429 . S
C501 C495 1.429 . S
C501 C502 1.523 . S
C502 C483 1.368 . S
C502 C496 1.368 . S
C502 C501 1.523 . S
C503 C487 1.429 . S
C503 C499 1.429 1_554 S
C503 C504 1.523 . S
C504 C488 1.368 . S
C504 C500 1.368 . S
C504 C503 1.523 . S
H505 C480 0.950 . S
H506 C482 0.950 . S
H507 C483 0.949 . S
H508 C485 0.950 . S
H509 C487 0.950 . S
C510 C511 1.349 . S
C510 C512 1.327 . S
C510 H535 0.950 . S
C511 C510 1.349 . S
C511 C527 1.349 . S
C512 C510 1.327 . S
C512 C531 1.429 . S
C512 H536 0.950 . S
C513 C530 1.574 . S
C513 C532 1.368 . S
C513 H537 0.949 . S
H514 C518 0.949 . S
C515 C516 1.349 . S
C515 C517 1.327 . S
C515 H538 0.950 . S
C516 C515 1.349 . S
C516 C528 1.349 . S
C517 C515 1.327 . S
C517 C533 1.429 . S
C517 H539 0.950 . S
C518 H514 0.949 . S
C518 C526 1.574 . S
C518 C534 1.368 . S
H519 C527 0.950 . S
H520 C525 0.950 . S
H521 C526 0.949 . S
H522 C528 0.950 . S
H523 C529 0.950 . S
H524 C530 0.949 . S
C525 H520 0.950 . S
C525 C527 1.327 . S
C525 C531 1.429 . S
C526 C518 1.574 . S
C526 H521 0.949 . S
C526 C532 1.368 . S
C527 C511 1.349 . S
C527 H519 0.950 . S
C527 C525 1.327 . S
C528 C516 1.349 . S
C528 H522 0.950 . S
C528 C529 1.327 . S
C529 H523 0.950 . S
C529 C528 1.327 . S
C529 C533 1.429 . S
C530 C513 1.574 . S
C530 H524 0.949 . S
C530 C534 1.368 . S
C531 C512 1.429 . S
C531 C525 1.429 . S
C531 C532 1.523 . S
C532 C513 1.368 . S
C532 C526 1.368 . S
C532 C531 1.523 . S
C533 C517 1.429 . S
C533 C529 1.429 . S
C533 C534 1.523 . S
C534 C518 1.368 . S
C534 C530 1.368 . S
C534 C533 1.523 . S
H535 C510 0.950 . S
H536 C512 0.950 . S
H537 C513 0.949 . S
H538 C515 0.950 . S
H539 C517 0.950 . S
C540 C541 1.349 . S
C540 C542 1.327 . S
C540 H565 0.950 . S
C541 C540 1.349 . S
C541 C557 1.349 . S
C542 C540 1.327 . S
C542 C561 1.429 . S
C542 H566 0.950 . S
C543 C560 1.574 . S
C543 C562 1.368 . S
C543 H567 0.949 . S
H544 C548 0.949 . S
C545 C546 1.349 . S
C545 C547 1.327 . S
C545 H568 0.950 . S
C546 C545 1.349 . S
C546 C558 1.349 . S
C547 C545 1.327 . S
C547 C563 1.429 1_554 S
C547 H569 0.950 1_554 S
C548 H544 0.949 . S
C548 C556 1.574 . S
C548 C564 1.368 . S
H549 C557 0.950 . S
H550 C555 0.950 . S
H551 C556 0.949 . S
H552 C558 0.950 . S
H553 C559 0.950 1_556 S
H554 C560 0.949 . S
C555 H550 0.950 . S
C555 C557 1.327 . S
C555 C561 1.429 . S
C556 C548 1.574 . S
C556 H551 0.949 . S
C556 C562 1.368 . S
C557 C541 1.349 . S
C557 H549 0.950 . S
C557 C555 1.327 . S
C558 C546 1.349 . S
C558 H552 0.950 . S
C558 C559 1.327 . S
C559 H553 0.950 1_554 S
C559 C558 1.327 . S
C559 C563 1.429 1_554 S
C560 C543 1.574 . S
C560 H554 0.949 . S
C560 C564 1.368 . S
C561 C542 1.429 . S
C561 C555 1.429 . S
C561 C562 1.523 . S
C562 C543 1.368 . S
C562 C556 1.368 . S
C562 C561 1.523 . S
C563 C547 1.429 1_556 S
C563 C559 1.429 1_556 S
C563 C564 1.523 . S
C564 C548 1.368 . S
C564 C560 1.368 . S
C564 C563 1.523 . S
H565 C540 0.950 . S
H566 C542 0.950 . S
H567 C543 0.949 . S
H568 C545 0.950 . S
H569 C547 0.950 1_556 S
C570 C571 1.349 . S
C570 C572 1.327 . S
C570 H595 0.950 . S
C571 C570 1.349 . S
C571 C587 1.349 . S
C572 C570 1.327 . S
C572 C591 1.429 . S
C572 H596 0.950 . S
C573 C590 1.574 . S
C573 C592 1.368 . S
C573 H597 0.949 . S
H574 C578 0.949 . S
C575 C576 1.349 . S
C575 C577 1.327 . S
C575 H598 0.950 . S
C576 C575 1.349 . S
C576 C588 1.349 . S
C577 C575 1.327 . S
C577 C593 1.429 1_556 S
C577 H599 0.950 1_556 S
C578 H574 0.949 . S
C578 C586 1.574 . S
C578 C594 1.368 . S
H579 C587 0.950 . S
H580 C585 0.950 . S
H581 C586 0.949 . S
H582 C588 0.950 . S
H583 C589 0.950 . S
H584 C590 0.949 . S
C585 H580 0.950 . S
C585 C587 1.327 . S
C585 C591 1.429 . S
C586 C578 1.574 . S
C586 H581 0.949 . S
C586 C592 1.368 . S
C587 C571 1.349 . S
C587 H579 0.950 . S
C587 C585 1.327 . S
C588 C576 1.349 . S
C588 H582 0.950 . S
C588 C589 1.327 1_556 S
C589 H583 0.950 . S
C589 C588 1.327 1_554 S
C589 C593 1.429 . S
C590 C573 1.574 . S
C590 H584 0.949 . S
C590 C594 1.368 . S
C591 C572 1.429 . S
C591 C585 1.429 . S
C591 C592 1.523 . S
C592 C573 1.368 . S
C592 C586 1.368 . S
C592 C591 1.523 . S
C593 C577 1.429 1_554 S
C593 C589 1.429 . S
C593 C594 1.523 . S
C594 C578 1.368 . S
C594 C590 1.368 . S
C594 C593 1.523 . S
H595 C570 0.950 . S
H596 C572 0.950 . S
H597 C573 0.949 . S
H598 C575 0.950 . S
H599 C577 0.950 1_554 S
C600 C601 1.349 . S
C600 C602 1.327 . S
C600 H625 0.950 . S
C601 C600 1.349 . S
C601 C617 1.349 . S
C602 C600 1.327 . S
C602 C621 1.429 . S
C602 H626 0.950 . S
C603 C620 1.574 . S
C603 C622 1.368 . S
C603 H627 0.949 . S
H604 C608 0.949 . S
C605 C606 1.349 . S
C605 C607 1.327 . S
C605 H628 0.950 . S
C606 C605 1.349 . S
C606 C618 1.349 . S
C607 C605 1.327 . S
C607 C623 1.429 . S
C607 H629 0.950 . S
C608 H604 0.949 . S
C608 C616 1.574 . S
C608 C624 1.368 . S
H609 C617 0.950 . S
H610 C615 0.950 . S
H611 C616 0.949 . S
H612 C618 0.950 . S
H613 C619 0.950 . S
H614 C620 0.949 . S
C615 H610 0.950 . S
C615 C617 1.327 . S
C615 C621 1.429 . S
C616 C608 1.574 . S
C616 H611 0.949 . S
C616 C622 1.368 . S
C617 C601 1.349 . S
C617 H609 0.950 . S
C617 C615 1.327 . S
C618 C606 1.349 . S
C618 H612 0.950 . S
C618 C619 1.327 . S
C619 H613 0.950 . S
C619 C618 1.327 . S
C619 C623 1.429 . S
C620 C603 1.574 . S
C620 H614 0.949 . S
C620 C624 1.368 . S
C621 C602 1.429 . S
C621 C615 1.429 . S
C621 C622 1.523 . S
C622 C603 1.368 . S
C622 C616 1.368 . S
C622 C621 1.523 . S
C623 C607 1.429 . S
C623 C619 1.429 . S
C623 C624 1.523 . S
C624 C608 1.368 . S
C624 C620 1.368 . S
C624 C623 1.523 . S
H625 C600 0.950 . S
H626 C602 0.950 . S
H627 C603 0.949 . S
H628 C605 0.950 . S
H629 C607 0.950 . S
C630 C631 1.349 . S
C630 C632 1.327 . S
C630 H655 0.950 . S
C631 C630 1.349 . S
C631 C647 1.349 . S
C632 C630 1.327 . S
C632 C651 1.429 . S
C632 H656 0.950 . S
C633 C650 1.574 . S
C633 C652 1.368 . S
C633 H657 0.949 . S
H634 C638 0.949 . S
C635 C636 1.349 . S
C635 C637 1.327 . S
C635 H658 0.950 . S
C636 C635 1.349 . S
C636 C648 1.349 . S
C637 C635 1.327 . S
C637 C653 1.429 . S
C637 H659 0.950 . S
C638 H634 0.949 . S
C638 C646 1.574 . S
C638 C654 1.368 . S
H639 C647 0.950 . S
H640 C645 0.950 . S
H641 C646 0.949 . S
H642 C648 0.950 . S
H643 C649 0.950 . S
H644 C650 0.949 . S
C645 H640 0.950 . S
C645 C647 1.327 . S
C645 C651 1.429 . S
C646 C638 1.574 . S
C646 H641 0.949 . S
C646 C652 1.368 . S
C647 C631 1.349 . S
C647 H639 0.950 . S
C647 C645 1.327 . S
C648 C636 1.349 . S
C648 H642 0.950 . S
C648 C649 1.327 . S
C649 H643 0.950 . S
C649 C648 1.327 . S
C649 C653 1.429 . S
C650 C633 1.574 . S
C650 H644 0.949 . S
C650 C654 1.368 . S
C651 C632 1.429 . S
C651 C645 1.429 . S
C651 C652 1.523 . S
C652 C633 1.368 . S
C652 C646 1.368 . S
C652 C651 1.523 . S
C653 C637 1.429 . S
C653 C649 1.429 . S
C653 C654 1.523 . S
C654 C638 1.368 . S
C654 C650 1.368 . S
C654 C653 1.523 . S
H655 C630 0.950 . S
H656 C632 0.950 . S
H657 C633 0.949 . S
H658 C635 0.950 . S
H659 C637 0.950 . S
C660 C661 1.349 . S
C660 C662 1.327 . S
C660 H685 0.950 . S
C661 C660 1.349 . S
C661 C677 1.349 1_556 S
C662 C660 1.327 . S
C662 C681 1.429 . S
C662 H686 0.950 . S
C663 C680 1.574 . S
C663 C682 1.368 . S
C663 H687 0.949 1_556 S
H664 C668 0.949 . S
C665 C666 1.349 . S
C665 C667 1.327 . S
C665 H688 0.950 . S
C666 C665 1.349 . S
C666 C678 1.349 . S
C667 C665 1.327 . S
C667 C683 1.429 . S
C667 H689 0.950 . S
C668 H664 0.949 . S
C668 C676 1.574 . S
C668 C684 1.368 . S
H669 C677 0.950 . S
H670 C675 0.950 . S
H671 C676 0.949 . S
H672 C678 0.950 . S
H673 C679 0.950 . S
H674 C680 0.949 1_554 S
C675 H670 0.950 . S
C675 C677 1.327 . S
C675 C681 1.429 1_554 S
C676 C668 1.574 . S
C676 H671 0.949 . S
C676 C682 1.368 . S
C677 C661 1.349 1_554 S
C677 H669 0.950 . S
C677 C675 1.327 . S
C678 C666 1.349 . S
C678 H672 0.950 . S
C678 C679 1.327 . S
C679 H673 0.950 . S
C679 C678 1.327 . S
C679 C683 1.429 . S
C680 C663 1.574 . S
C680 H674 0.949 1_556 S
C680 C684 1.368 . S
C681 C662 1.429 . S
C681 C675 1.429 1_556 S
C681 C682 1.523 . S
C682 C663 1.368 . S
C682 C676 1.368 . S
C682 C681 1.523 . S
C683 C667 1.429 . S
C683 C679 1.429 . S
C683 C684 1.523 . S
C684 C668 1.368 . S
C684 C680 1.368 . S
C684 C683 1.523 . S
H685 C660 0.950 . S
H686 C662 0.950 . S
H687 C663 0.949 1_554 S
H688 C665 0.950 . S
H689 C667 0.950 . S
C690 C691 1.349 . S
C690 C692 1.327 . S
C690 H715 0.950 . S
C691 C690 1.349 . S
C691 C707 1.349 . S
C692 C690 1.327 . S
C692 C711 1.429 . S
C692 H716 0.950 . S
C693 C710 1.574 . S
C693 C712 1.368 . S
C693 H717 0.949 . S
H694 C698 0.949 . S
C695 C696 1.349 . S
C695 C697 1.327 . S
C695 H718 0.950 . S
C696 C695 1.349 . S
C696 C708 1.349 . S
C697 C695 1.327 . S
C697 C713 1.429 . S
C697 H719 0.950 . S
C698 H694 0.949 . S
C698 C706 1.574 . S
C698 C714 1.368 . S
H699 C707 0.950 . S
H700 C705 0.950 . S
H701 C706 0.949 . S
H702 C708 0.950 . S
H703 C709 0.950 . S
H704 C710 0.949 . S
C705 H700 0.950 . S
C705 C707 1.327 . S
C705 C711 1.429 . S
C706 C698 1.574 . S
C706 H701 0.949 . S
C706 C712 1.368 . S
C707 C691 1.349 . S
C707 H699 0.950 . S
C707 C705 1.327 . S
C708 C696 1.349 . S
C708 H702 0.950 . S
C708 C709 1.327 . S
C709 H703 0.950 . S
C709 C708 1.327 . S
C709 C713 1.429 . S
C710 C693 1.574 . S
C710 H704 0.949 . S
C710 C714 1.368 . S
C711 C692 1.429 . S
C711 C705 1.429 . S
C711 C712 1.523 . S
C712 C693 1.368 . S
C712 C706 1.368 . S
C712 C711 1.523 . S
C713 C697 1.429 . S
C713 C709 1.429 . S
C713 C714 1.523 . S
C714 C698 1.368 . S
C714 C710 1.368 . S
C714 C713 1.523 . S
H715 C690 0.950 . S
H716 C692 0.950 . S
H717 C693 0.949 . S
H718 C695 0.950 . S
H719 C697 0.950 . S
C720 C721 1.349 . S
C720 C722 1.327 . S
C720 H745 0.950 . S
C721 C720 1.349 . S
C721 C737 1.349 . S
C722 C720 1.327 . S
C722 C741 1.429 . S
C722 H746 0.950 . S
C723 C740 1.574 . S
C723 C742 1.368 . S
C723 H747 0.949 . S
H724 C728 0.949 . S
C725 C726 1.349 . S
C725 C727 1.327 . S
C725 H748 0.950 . S
C726 C725 1.349 . S
C726 C738 1.349 . S
C727 C725 1.327 . S
C727 C743 1.429 . S
C727 H749 0.950 . S
C728 H724 0.949 . S
C728 C736 1.574 . S
C728 C744 1.368 . S
H729 C737 0.950 . S
H730 C735 0.950 . S
H731 C736 0.949 . S
H732 C738 0.950 . S
H733 C739 0.950 . S
H734 C740 0.949 . S
C735 H730 0.950 . S
C735 C737 1.327 . S
C735 C741 1.429 . S
C736 C728 1.574 . S
C736 H731 0.949 . S
C736 C742 1.368 . S
C737 C721 1.349 . S
C737 H729 0.950 . S
C737 C735 1.327 . S
C738 C726 1.349 . S
C738 H732 0.950 . S
C738 C739 1.327 . S
C739 H733 0.950 . S
C739 C738 1.327 . S
C739 C743 1.429 . S
C740 C723 1.574 . S
C740 H734 0.949 . S
C740 C744 1.368 . S
C741 C722 1.429 . S
C741 C735 1.429 . S
C741 C742 1.523 . S
C742 C723 1.368 . S
C742 C736 1.368 . S
C742 C741 1.523 . S
C743 C727 1.429 . S
C743 C739 1.429 . S
C743 C744 1.523 . S
C744 C728 1.368 . S
C744 C740 1.368 . S
C744 C743 1.523 . S
H745 C720 0.950 . S
H746 C722 0.950 . S
H747 C723 0.949 . S
H748 C725 0.950 . S
H749 C727 0.950 . S
C750 C751 1.349 . S
C750 C752 1.327 . S
C750 H775 0.950 . S
C751 C750 1.349 . S
C751 C767 1.349 1_556 S
C752 C750 1.327 . S
C752 C771 1.429 . S
C752 H776 0.950 . S
C753 C770 1.574 . S
C753 C772 1.368 . S
C753 H777 0.949 1_556 S
H754 C758 0.949 . S
C755 C756 1.349 . S
C755 C757 1.327 . S
C755 H778 0.950 . S
C756 C755 1.349 . S
C756 C768 1.349 . S
C757 C755 1.327 . S
C757 C773 1.429 . S
C757 H779 0.950 . S
C758 H754 0.949 . S
C758 C766 1.574 . S
C758 C774 1.368 . S
H759 C767 0.950 . S
H760 C765 0.937 1_554 S
H761 C766 0.949 . S
H762 C768 0.950 . S
H763 C769 0.950 . S
H764 C770 0.949 . S
C765 H760 0.937 1_556 S
C765 C767 1.325 1_556 S
C765 C771 1.443 . S
C766 C758 1.574 . S
C766 H761 0.949 . S
C766 C772 1.368 . S
C767 C751 1.349 1_554 S
C767 H759 0.950 . S
C767 C765 1.325 1_554 S
C768 C756 1.349 . S
C768 H762 0.950 . S
C768 C769 1.327 . S
C769 H763 0.950 . S
C769 C768 1.327 . S
C769 C773 1.429 . S
C770 C753 1.574 . S
C770 H764 0.949 . S
C770 C774 1.368 . S
C771 C752 1.429 . S
C771 C765 1.443 . S
C771 C772 1.523 . S
C772 C753 1.368 . S
C772 C766 1.368 . S
C772 C771 1.523 . S
C773 C757 1.429 . S
C773 C769 1.429 . S
C773 C774 1.523 . S
C774 C758 1.368 . S
C774 C770 1.368 . S
C774 C773 1.523 . S
H775 C750 0.950 . S
H776 C752 0.950 . S
H777 C753 0.949 1_554 S
H778 C755 0.950 . S
H779 C757 0.950 . S
C241 C209 1.602 . S
C246 C6 1.572 . S
C271 C9 1.602 . S
C276 C46 1.572 . S
C301 C49 1.602 . S
C306 C86 1.572 . S
C331 C89 1.602 . S
C336 C126 1.572 . S
C361 C166 1.572 . S
C366 C129 1.602 . S
C391 C206 1.573 . S
C396 C169 1.602 . S
C421 C10 2.124 . S
C426 C19 2.124 . S
C451 C50 2.124 . S
C456 C59 2.124 . S
C481 C90 2.124 . S
C486 C99 2.124 . S
C511 C130 2.124 . S
C516 C139 2.124 . S
C541 C179 2.124 . S
C546 C170 2.124 . S
C571 C210 2.124 . S
C576 C219 2.124 . S
C601 C15 1.509 . S
C606 C178 1.484 . S
C631 C55 1.509 . S
C636 C218 1.484 . S
C661 C18 1.484 . S
C666 C95 1.509 . S
C691 C58 1.484 . S
C696 C135 1.509 . S
C721 C175 1.509 . S
C726 C98 1.483 . S
C751 C138 1.484 . S
C756 C215 1.509 . S
